# Generated by pormake.
# Topology eea, (3,6)-cn, num edge types: 1
# Building blocks:
#     Node 0, Type 0, BuildingBlock: WUSLED_clean_sbu_0, # of connection points: 3
#     Node 1, Type 0, BuildingBlock: WUSLED_clean_sbu_0, # of connection points: 3
#     Node 2, Type 0, BuildingBlock: WUSLED_clean_sbu_0, # of connection points: 3
#     Node 3, Type 0, BuildingBlock: WUSLED_clean_sbu_0, # of connection points: 3
#     Node 4, Type 0, BuildingBlock: WUSLED_clean_sbu_0, # of connection points: 3
#     Node 5, Type 0, BuildingBlock: WUSLED_clean_sbu_0, # of connection points: 3
#     Node 6, Type 0, BuildingBlock: WUSLED_clean_sbu_0, # of connection points: 3
#     Node 7, Type 0, BuildingBlock: WUSLED_clean_sbu_0, # of connection points: 3
#     Node 8, Type 0, BuildingBlock: WUSLED_clean_sbu_0, # of connection points: 3
#     Node 9, Type 0, BuildingBlock: WUSLED_clean_sbu_0, # of connection points: 3
#     Node 10, Type 0, BuildingBlock: WUSLED_clean_sbu_0, # of connection points: 3
#     Node 11, Type 0, BuildingBlock: WUSLED_clean_sbu_0, # of connection points: 3
#     Node 12, Type 0, BuildingBlock: WUSLED_clean_sbu_0, # of connection points: 3
#     Node 13, Type 0, BuildingBlock: WUSLED_clean_sbu_0, # of connection points: 3
#     Node 14, Type 0, BuildingBlock: WUSLED_clean_sbu_0, # of connection points: 3
#     Node 15, Type 0, BuildingBlock: WUSLED_clean_sbu_0, # of connection points: 3
#     Node 16, Type 0, BuildingBlock: WUSLED_clean_sbu_0, # of connection points: 3
#     Node 17, Type 0, BuildingBlock: WUSLED_clean_sbu_0, # of connection points: 3
#     Node 18, Type 1, BuildingBlock: KUMBOL_clean_sbu_0, # of connection points: 6
#     Node 19, Type 1, BuildingBlock: KUMBOL_clean_sbu_0, # of connection points: 6
#     Node 20, Type 1, BuildingBlock: KUMBOL_clean_sbu_0, # of connection points: 6
#     Node 21, Type 1, BuildingBlock: KUMBOL_clean_sbu_0, # of connection points: 6
#     Node 22, Type 1, BuildingBlock: KUMBOL_clean_sbu_0, # of connection points: 6
#     Node 23, Type 1, BuildingBlock: KUMBOL_clean_sbu_0, # of connection points: 6
#     Node 24, Type 1, BuildingBlock: KUMBOL_clean_sbu_0, # of connection points: 6
#     Node 25, Type 1, BuildingBlock: KUMBOL_clean_sbu_0, # of connection points: 6
#     Node 26, Type 1, BuildingBlock: KUMBOL_clean_sbu_0, # of connection points: 6
#     Edge 27, Type (0, 1), BuildingBlock: TEMPAE_clean_linker_10, # of connection points: 2
#     Edge 28, Type (0, 1), BuildingBlock: TEMPAE_clean_linker_10, # of connection points: 2
#     Edge 29, Type (0, 1), BuildingBlock: TEMPAE_clean_linker_10, # of connection points: 2
#     Edge 30, Type (0, 1), BuildingBlock: TEMPAE_clean_linker_10, # of connection points: 2
#     Edge 31, Type (0, 1), BuildingBlock: TEMPAE_clean_linker_10, # of connection points: 2
#     Edge 32, Type (0, 1), BuildingBlock: TEMPAE_clean_linker_10, # of connection points: 2
#     Edge 33, Type (0, 1), BuildingBlock: TEMPAE_clean_linker_10, # of connection points: 2
#     Edge 34, Type (0, 1), BuildingBlock: TEMPAE_clean_linker_10, # of connection points: 2
#     Edge 35, Type (0, 1), BuildingBlock: TEMPAE_clean_linker_10, # of connection points: 2
#     Edge 36, Type (0, 1), BuildingBlock: TEMPAE_clean_linker_10, # of connection points: 2
#     Edge 37, Type (0, 1), BuildingBlock: TEMPAE_clean_linker_10, # of connection points: 2
#     Edge 38, Type (0, 1), BuildingBlock: TEMPAE_clean_linker_10, # of connection points: 2
#     Edge 39, Type (0, 1), BuildingBlock: TEMPAE_clean_linker_10, # of connection points: 2
#     Edge 40, Type (0, 1), BuildingBlock: TEMPAE_clean_linker_10, # of connection points: 2
#     Edge 41, Type (0, 1), BuildingBlock: TEMPAE_clean_linker_10, # of connection points: 2
#     Edge 42, Type (0, 1), BuildingBlock: TEMPAE_clean_linker_10, # of connection points: 2
#     Edge 43, Type (0, 1), BuildingBlock: TEMPAE_clean_linker_10, # of connection points: 2
#     Edge 44, Type (0, 1), BuildingBlock: TEMPAE_clean_linker_10, # of connection points: 2
#     Edge 45, Type (0, 1), BuildingBlock: TEMPAE_clean_linker_10, # of connection points: 2
#     Edge 46, Type (0, 1), BuildingBlock: TEMPAE_clean_linker_10, # of connection points: 2
#     Edge 47, Type (0, 1), BuildingBlock: TEMPAE_clean_linker_10, # of connection points: 2
#     Edge 48, Type (0, 1), BuildingBlock: TEMPAE_clean_linker_10, # of connection points: 2
#     Edge 49, Type (0, 1), BuildingBlock: TEMPAE_clean_linker_10, # of connection points: 2
#     Edge 50, Type (0, 1), BuildingBlock: TEMPAE_clean_linker_10, # of connection points: 2
#     Edge 51, Type (0, 1), BuildingBlock: TEMPAE_clean_linker_10, # of connection points: 2
#     Edge 52, Type (0, 1), BuildingBlock: TEMPAE_clean_linker_10, # of connection points: 2
#     Edge 53, Type (0, 1), BuildingBlock: TEMPAE_clean_linker_10, # of connection points: 2
#     Edge 54, Type (0, 1), BuildingBlock: TEMPAE_clean_linker_10, # of connection points: 2
#     Edge 55, Type (0, 1), BuildingBlock: TEMPAE_clean_linker_10, # of connection points: 2
#     Edge 56, Type (0, 1), BuildingBlock: TEMPAE_clean_linker_10, # of connection points: 2
#     Edge 57, Type (0, 1), BuildingBlock: TEMPAE_clean_linker_10, # of connection points: 2
#     Edge 58, Type (0, 1), BuildingBlock: TEMPAE_clean_linker_10, # of connection points: 2
#     Edge 59, Type (0, 1), BuildingBlock: TEMPAE_clean_linker_10, # of connection points: 2
#     Edge 60, Type (0, 1), BuildingBlock: TEMPAE_clean_linker_10, # of connection points: 2
#     Edge 61, Type (0, 1), BuildingBlock: TEMPAE_clean_linker_10, # of connection points: 2
#     Edge 62, Type (0, 1), BuildingBlock: TEMPAE_clean_linker_10, # of connection points: 2
#     Edge 63, Type (0, 1), BuildingBlock: TEMPAE_clean_linker_10, # of connection points: 2
#     Edge 64, Type (0, 1), BuildingBlock: TEMPAE_clean_linker_10, # of connection points: 2
#     Edge 65, Type (0, 1), BuildingBlock: TEMPAE_clean_linker_10, # of connection points: 2
#     Edge 66, Type (0, 1), BuildingBlock: TEMPAE_clean_linker_10, # of connection points: 2
#     Edge 67, Type (0, 1), BuildingBlock: TEMPAE_clean_linker_10, # of connection points: 2
#     Edge 68, Type (0, 1), BuildingBlock: TEMPAE_clean_linker_10, # of connection points: 2
#     Edge 69, Type (0, 1), BuildingBlock: TEMPAE_clean_linker_10, # of connection points: 2
#     Edge 70, Type (0, 1), BuildingBlock: TEMPAE_clean_linker_10, # of connection points: 2
#     Edge 71, Type (0, 1), BuildingBlock: TEMPAE_clean_linker_10, # of connection points: 2
#     Edge 72, Type (0, 1), BuildingBlock: TEMPAE_clean_linker_10, # of connection points: 2
#     Edge 73, Type (0, 1), BuildingBlock: TEMPAE_clean_linker_10, # of connection points: 2
#     Edge 74, Type (0, 1), BuildingBlock: TEMPAE_clean_linker_10, # of connection points: 2
#     Edge 75, Type (0, 1), BuildingBlock: TEMPAE_clean_linker_10, # of connection points: 2
#     Edge 76, Type (0, 1), BuildingBlock: TEMPAE_clean_linker_10, # of connection points: 2
#     Edge 77, Type (0, 1), BuildingBlock: TEMPAE_clean_linker_10, # of connection points: 2
#     Edge 78, Type (0, 1), BuildingBlock: TEMPAE_clean_linker_10, # of connection points: 2
#     Edge 79, Type (0, 1), BuildingBlock: TEMPAE_clean_linker_10, # of connection points: 2
#     Edge 80, Type (0, 1), BuildingBlock: TEMPAE_clean_linker_10, # of connection points: 2
# Relax obj value: 0.009
# Max RMSD: 0.092
# Mean RMSD: 0.060
data_MOF--net-eea--node1-WUSLED_clean_sbu_0--node2-KUMBOL_clean_sbu_0--edge1-TEMPAE_clean_linker_10
_symmetry_space_group_name_H-M    P1
_symmetry_Int_Tables_number       1
_symmetry_cell_setting            triclinic
loop_
_symmetry_equiv_pos_as_xyz
'x, y, z'
_cell_length_a     67.854035
_cell_length_b     69.273339
_cell_length_c     92.273193
_cell_angle_alpha  89.883443
_cell_angle_beta   90.10643
_cell_angle_gamma 119.95535
loop_
_atom_site_label
_atom_site_type_symbol
_atom_site_fract_x
_atom_site_fract_y
_atom_site_fract_z
_atom_type_partial_charge
C0 C 0.21889 0.15181 0.40623 0.0
C1 C 0.2171 0.16626 0.4161 0.0
C2 C 0.21222 0.18674 0.39613 0.0
C3 C 0.21373 0.18354 0.4111 0.0
C4 C 0.21417 0.17224 0.38634 0.0
C5 C 0.21745 0.15498 0.39135 0.0
U6 U 0.23645 0.12135 0.43409 0.0
O7 O 0.2203 0.0855 0.43883 0.0
O8 O 0.25505 0.10331 0.43018 0.0
C9 C 0.23747 0.08391 0.43362 0.0
C10 C 0.22206 0.13323 0.41108 0.0
C11 C 0.23198 0.06531 0.42347 0.0
C12 C 0.20534 0.03462 0.40816 0.0
C13 C 0.21045 0.05307 0.41691 0.0
C14 C 0.2433 0.04069 0.41203 0.0
C15 C 0.22165 0.0281 0.4057 0.0
C16 C 0.24835 0.05901 0.42084 0.0
C17 C 0.25959 0.14757 0.47166 0.0
C18 C 0.26709 0.12947 0.49187 0.0
C19 C 0.2794 0.1688 0.49311 0.0
C20 C 0.2703 0.16771 0.47932 0.0
C21 C 0.27799 0.14973 0.49957 0.0
C22 C 0.25803 0.12842 0.47801 0.0
C23 C 0.25025 0.14713 0.45713 0.0
O24 O 0.24323 0.13793 0.4128 0.0
O25 O 0.20848 0.12048 0.42143 0.0
O26 O 0.22894 0.13174 0.45492 0.0
O27 O 0.26359 0.14956 0.44614 0.0
H28 H 0.21828 0.16416 0.42765 0.0
H29 H 0.21255 0.19454 0.41893 0.0
H30 H 0.21279 0.17399 0.37477 0.0
H31 H 0.21875 0.14398 0.38356 0.0
H32 H 0.18858 0.02542 0.40333 0.0
H33 H 0.19746 0.05755 0.41868 0.0
H34 H 0.25617 0.03598 0.41052 0.0
H35 H 0.26501 0.06806 0.42584 0.0
H36 H 0.2659 0.11452 0.49645 0.0
H37 H 0.28735 0.18459 0.49878 0.0
H38 H 0.27161 0.18266 0.47463 0.0
H39 H 0.24989 0.11271 0.47224 0.0
C40 C 0.95296 0.15632 0.40666 0.0
C41 C 0.96462 0.17648 0.4143 0.0
C42 C 0.99387 0.19218 0.39541 0.0
C43 C 0.98491 0.19423 0.40875 0.0
C44 C 0.98216 0.17179 0.38795 0.0
C45 C 0.96199 0.15413 0.39351 0.0
U46 U 0.90374 0.12411 0.43442 0.0
O47 O 0.86693 0.10455 0.42989 0.0
O48 O 0.88467 0.08799 0.43873 0.0
C49 C 0.86556 0.08549 0.43337 0.0
C50 C 0.93112 0.13747 0.41179 0.0
C51 C 0.85225 0.06624 0.42347 0.0
C52 C 0.84299 0.02961 0.41421 0.0
C53 C 0.85728 0.0489 0.42216 0.0
C54 C 0.8185 0.04461 0.40848 0.0
C55 C 0.82323 0.02706 0.40741 0.0
C56 C 0.83274 0.06386 0.41644 0.0
C57 C 0.90519 0.14945 0.47231 0.0
C58 C 0.87879 0.13132 0.49232 0.0
C59 C 0.90738 0.17032 0.49406 0.0
C60 C 0.91537 0.16935 0.48025 0.0
C61 C 0.88892 0.15136 0.5003 0.0
C62 C 0.88682 0.13038 0.47844 0.0
C63 C 0.91429 0.14926 0.45778 0.0
O64 O 0.93221 0.12513 0.42224 0.0
O65 O 0.91419 0.14139 0.41338 0.0
O66 O 0.90328 0.15121 0.44665 0.0
O67 O 0.92083 0.13454 0.45563 0.0
H68 H 0.95792 0.17857 0.42446 0.0
H69 H 0.99332 0.20971 0.41475 0.0
H70 H 0.98866 0.16939 0.37781 0.0
H71 H 0.95331 0.1387 0.38745 0.0
H72 H 0.84735 0.01659 0.41351 0.0
H73 H 0.87198 0.04995 0.42753 0.0
H74 H 0.8033 0.04317 0.40358 0.0
H75 H 0.82808 0.07665 0.41744 0.0
H76 H 0.86442 0.11644 0.49671 0.0
H77 H 0.91588 0.18594 0.49991 0.0
H78 H 0.92964 0.18424 0.47577 0.0
H79 H 0.87867 0.11484 0.47249 0.0
C80 C 0.85718 0.79551 0.40656 0.0
C81 C 0.85326 0.81209 0.41236 0.0
C82 C 0.82029 0.80064 0.39646 0.0
C83 C 0.83502 0.81457 0.40742 0.0
C84 C 0.824 0.78379 0.39093 0.0
C85 C 0.84219 0.78133 0.39586 0.0
U86 U 0.89564 0.78269 0.43188 0.0
O87 O 0.91533 0.76622 0.42628 0.0
O88 O 0.93303 0.80084 0.43387 0.0
C89 C 0.93501 0.78401 0.42912 0.0
C90 C 0.87782 0.79406 0.41034 0.0
C91 C 0.95421 0.78909 0.41919 0.0
C92 C 0.97863 0.80813 0.39843 0.0
C93 C 0.95927 0.80279 0.4069 0.0
C94 C 0.98779 0.78593 0.41434 0.0
C95 C 0.99337 0.80004 0.4022 0.0
C96 C 0.96851 0.78055 0.42268 0.0
C97 C 0.87474 0.76056 0.47137 0.0
C98 C 0.86285 0.72936 0.48819 0.0
C99 C 0.88192 0.76701 0.4974 0.0
C100 C 0.88357 0.77519 0.48325 0.0
C101 C 0.87123 0.74393 0.50013 0.0
C102 C 0.86451 0.73753 0.47405 0.0
C103 C 0.87343 0.76898 0.45666 0.0
O104 O 0.89215 0.80836 0.41983 0.0
O105 O 0.87505 0.77397 0.41189 0.0
O106 O 0.86997 0.75578 0.44556 0.0
O107 O 0.88771 0.79004 0.45368 0.0
H108 H 0.86456 0.82352 0.4205 0.0
H109 H 0.83292 0.82788 0.41187 0.0
H110 H 0.81288 0.77248 0.38267 0.0
H111 H 0.84481 0.76854 0.39104 0.0
H112 H 0.98241 0.81909 0.38919 0.0
H113 H 0.9485 0.80961 0.40398 0.0
H114 H 0.99843 0.77905 0.41746 0.0
H115 H 0.96496 0.76991 0.43208 0.0
H116 H 0.85418 0.71149 0.4898 0.0
H117 H 0.88882 0.77881 0.50624 0.0
H118 H 0.89126 0.79301 0.48168 0.0
H119 H 0.85707 0.72568 0.46527 0.0
C120 C 0.06811 0.21264 0.62679 0.0
C121 C 0.04705 0.19606 0.62124 0.0
C122 C 0.02642 0.2071 0.63795 0.0
C123 C 0.0265 0.19338 0.62671 0.0
C124 C 0.04753 0.22392 0.64328 0.0
C125 C 0.06802 0.22658 0.63782 0.0
U126 U 0.11912 0.22691 0.60065 0.0
O127 O 0.15552 0.24232 0.6061 0.0
O128 O 0.13747 0.20844 0.59729 0.0
C129 C 0.15654 0.22436 0.60288 0.0
C130 C 0.09006 0.21422 0.62241 0.0
C131 C 0.16922 0.21756 0.61298 0.0
C132 C 0.19548 0.22556 0.63327 0.0
C133 C 0.18102 0.23051 0.62513 0.0
C134 C 0.18627 0.19428 0.61758 0.0
C135 C 0.19868 0.20762 0.62944 0.0
C136 C 0.17184 0.19922 0.60946 0.0
C137 C 0.1195 0.25186 0.56232 0.0
C138 C 0.14359 0.25738 0.5413 0.0
C139 C 0.1184 0.27267 0.5413 0.0
C140 C 0.11085 0.26395 0.55518 0.0
C141 C 0.13492 0.2696 0.53411 0.0
C142 C 0.13597 0.24862 0.55528 0.0
C143 C 0.11039 0.24254 0.57685 0.0
O144 O 0.08944 0.20058 0.61229 0.0
O145 O 0.10786 0.23432 0.62128 0.0
O146 O 0.12121 0.25503 0.58808 0.0
O147 O 0.10345 0.22132 0.57897 0.0
H148 H 0.04636 0.18478 0.61289 0.0
H149 H 0.01066 0.1801 0.62241 0.0
H150 H 0.04827 0.23507 0.65174 0.0
H151 H 0.08388 0.23934 0.64248 0.0
H152 H 0.20488 0.23639 0.64221 0.0
H153 H 0.17969 0.24493 0.6281 0.0
H154 H 0.18796 0.18013 0.61441 0.0
H155 H 0.16322 0.18902 0.60011 0.0
H156 H 0.15646 0.25482 0.5362 0.0
H157 H 0.11098 0.28158 0.5361 0.0
H158 H 0.09801 0.26653 0.56034 0.0
H159 H 0.1429 0.23933 0.56056 0.0
C160 C 0.80614 0.86511 0.62621 0.0
C161 C 0.78709 0.8438 0.6283 0.0
C162 C 0.81148 0.82945 0.63672 0.0
C163 C 0.78974 0.82621 0.63352 0.0
C164 C 0.83051 0.8507 0.63448 0.0
C165 C 0.82785 0.86832 0.62936 0.0
U166 U 0.79053 0.89694 0.59827 0.0
O167 O 0.77338 0.91648 0.60134 0.0
O168 O 0.80829 0.93276 0.59296 0.0
C169 C 0.79136 0.93531 0.59746 0.0
C170 C 0.80376 0.88439 0.62149 0.0
C171 C 0.7975 0.95479 0.60679 0.0
C172 C 0.80335 0.97231 0.63048 0.0
C173 C 0.79822 0.95359 0.62197 0.0
C174 C 0.80739 0.99361 0.60874 0.0
C175 C 0.80797 0.99257 0.62397 0.0
C176 C 0.80222 0.97494 0.60028 0.0
C177 C 0.76831 0.86966 0.56067 0.0
C178 C 0.75983 0.88639 0.54009 0.0
C179 C 0.75393 0.849 0.53822 0.0
C180 C 0.76142 0.85033 0.55249 0.0
C181 C 0.75319 0.86705 0.53176 0.0
C182 C 0.76739 0.88771 0.55443 0.0
C183 C 0.77669 0.87049 0.57554 0.0
O184 O 0.81787 0.89717 0.61136 0.0
O185 O 0.78298 0.8809 0.61973 0.0
O186 O 0.76309 0.86912 0.58611 0.0
O187 O 0.7981 0.88538 0.57794 0.0
H188 H 0.77009 0.84069 0.62603 0.0
H189 H 0.77474 0.81 0.63498 0.0
H190 H 0.84746 0.85387 0.637 0.0
H191 H 0.84282 0.88459 0.62803 0.0
H192 H 0.80386 0.97097 0.64216 0.0
H193 H 0.79469 0.93819 0.62722 0.0
H194 H 0.81047 0.00876 0.60334 0.0
H195 H 0.80165 0.97619 0.5886 0.0
H196 H 0.75955 0.90062 0.53543 0.0
H197 H 0.74853 0.8337 0.53228 0.0
H198 H 0.7619 0.83619 0.55714 0.0
H199 H 0.77267 0.90281 0.5606 0.0
C200 C 0.06493 0.85479 0.62815 0.0
C201 C 0.05316 0.83465 0.6205 0.0
C202 C 0.02376 0.81921 0.6393 0.0
C203 C 0.03273 0.81704 0.62601 0.0
C204 C 0.03559 0.83958 0.64677 0.0
C205 C 0.05589 0.8571 0.64126 0.0
U206 U 0.11492 0.88702 0.60077 0.0
O207 O 0.13396 0.92316 0.59656 0.0
O208 O 0.15157 0.9067 0.60579 0.0
C209 C 0.15296 0.92572 0.60217 0.0
C210 C 0.08688 0.87354 0.62308 0.0
C211 C 0.16601 0.94502 0.61208 0.0
C212 C 0.17412 0.98105 0.62182 0.0
C213 C 0.16003 0.96162 0.61394 0.0
C214 C 0.20026 0.9676 0.62645 0.0
C215 C 0.19461 0.98447 0.62803 0.0
C216 C 0.18622 0.94822 0.61854 0.0
C217 C 0.11536 0.86258 0.5627 0.0
C218 C 0.11437 0.86586 0.53635 0.0
C219 C 0.1383 0.85303 0.54708 0.0
C220 C 0.13113 0.85518 0.56094 0.0
C221 C 0.12983 0.85808 0.53456 0.0
C222 C 0.10719 0.868 0.55021 0.0
C223 C 0.10559 0.86239 0.57723 0.0
O224 O 0.10382 0.86957 0.62173 0.0
O225 O 0.08603 0.88586 0.61251 0.0
O226 O 0.0984 0.87663 0.57935 0.0
O227 O 0.11586 0.86009 0.58867 0.0
H228 H 0.05987 0.83248 0.61037 0.0
H229 H 0.02422 0.80156 0.62001 0.0
H230 H 0.02909 0.84207 0.65688 0.0
H231 H 0.06465 0.87252 0.64732 0.0
H232 H 0.16905 0.99352 0.62294 0.0
H233 H 0.14473 0.9599 0.60903 0.0
H234 H 0.21601 0.96972 0.63088 0.0
H235 H 0.19157 0.936 0.61712 0.0
H236 H 0.10766 0.87018 0.52702 0.0
H237 H 0.14994 0.84667 0.54619 0.0
H238 H 0.13753 0.85046 0.57025 0.0
H239 H 0.09481 0.87346 0.55111 0.0
C240 C 0.88272 0.48116 0.74159 0.0
C241 C 0.88156 0.49615 0.7513 0.0
C242 C 0.87675 0.51635 0.73112 0.0
C243 C 0.87853 0.51355 0.74611 0.0
C244 C 0.87816 0.50137 0.72148 0.0
C245 C 0.88109 0.48397 0.72667 0.0
U246 U 0.8997 0.45103 0.76994 0.0
O247 O 0.88227 0.41539 0.77574 0.0
O248 O 0.91672 0.43143 0.76664 0.0
C249 C 0.89893 0.41269 0.77086 0.0
C250 C 0.88525 0.4623 0.74669 0.0
C251 C 0.89223 0.3931 0.76151 0.0
C252 C 0.88497 0.37541 0.73781 0.0
C253 C 0.89065 0.39419 0.74639 0.0
C254 C 0.88207 0.35423 0.7594 0.0
C255 C 0.88065 0.35517 0.74422 0.0
C256 C 0.88779 0.37297 0.76793 0.0
C257 C 0.92465 0.47911 0.80677 0.0
C258 C 0.93253 0.46156 0.82714 0.0
C259 C 0.94476 0.5009 0.82798 0.0
C260 C 0.93544 0.49944 0.81421 0.0
C261 C 0.9435 0.48201 0.83463 0.0
C262 C 0.92324 0.46013 0.81331 0.0
C263 C 0.9151 0.47825 0.79226 0.0
O264 O 0.90623 0.46631 0.74822 0.0
O265 O 0.87181 0.45037 0.75735 0.0
O266 O 0.89351 0.46337 0.79042 0.0
O267 O 0.92789 0.47941 0.78124 0.0
H268 H 0.8829 0.49434 0.76286 0.0
H269 H 0.87779 0.52492 0.75383 0.0
H270 H 0.87657 0.50282 0.70991 0.0
H271 H 0.8819 0.47256 0.71901 0.0
H272 H 0.88383 0.37668 0.72617 0.0
H273 H 0.89393 0.40957 0.74122 0.0
H274 H 0.87922 0.33909 0.76471 0.0
H275 H 0.889 0.37181 0.77958 0.0
H276 H 0.93145 0.44674 0.83188 0.0
H277 H 0.95277 0.51683 0.83348 0.0
H278 H 0.93664 0.51425 0.80937 0.0
H279 H 0.91503 0.44428 0.80771 0.0
C280 C 0.61855 0.48611 0.74023 0.0
C281 C 0.63021 0.50607 0.74808 0.0
C282 C 0.65935 0.52233 0.72916 0.0
C283 C 0.65043 0.524 0.74261 0.0
C284 C 0.6476 0.50215 0.72146 0.0
C285 C 0.62748 0.48431 0.72694 0.0
U286 U 0.57019 0.45378 0.76835 0.0
O287 O 0.53338 0.43326 0.76431 0.0
O288 O 0.55213 0.41778 0.77327 0.0
C289 C 0.53256 0.41467 0.76837 0.0
C290 C 0.59696 0.46699 0.74542 0.0
C291 C 0.51922 0.39482 0.75914 0.0
C292 C 0.50668 0.37665 0.73562 0.0
C293 C 0.5205 0.39574 0.74394 0.0
C294 C 0.49039 0.35555 0.75759 0.0
C295 C 0.49135 0.35627 0.74235 0.0
C296 C 0.50414 0.37455 0.76585 0.0
C297 C 0.57228 0.47967 0.80608 0.0
C298 C 0.5443 0.46249 0.8254 0.0
C299 C 0.57694 0.49922 0.82885 0.0
C300 C 0.58461 0.49838 0.81492 0.0
C301 C 0.55669 0.4813 0.83434 0.0
C302 C 0.55204 0.46167 0.81141 0.0
C303 C 0.58103 0.47955 0.79141 0.0
O304 O 0.59854 0.45499 0.75593 0.0
O305 O 0.57975 0.47048 0.74708 0.0
O306 O 0.56931 0.48076 0.78045 0.0
O307 O 0.58813 0.46528 0.78924 0.0
H308 H 0.6236 0.50784 0.75837 0.0
H309 H 0.65885 0.53931 0.74879 0.0
H310 H 0.65405 0.50003 0.71122 0.0
H311 H 0.61881 0.46904 0.72072 0.0
H312 H 0.50809 0.37784 0.72392 0.0
H313 H 0.53204 0.4112 0.73851 0.0
H314 H 0.47859 0.34038 0.7632 0.0
H315 H 0.50275 0.37347 0.77756 0.0
H316 H 0.52875 0.44828 0.82927 0.0
H317 H 0.58676 0.51415 0.83523 0.0
H318 H 0.60023 0.51249 0.811 0.0
H319 H 0.54227 0.44703 0.80477 0.0
C320 C 0.52939 0.13392 0.73886 0.0
C321 C 0.51481 0.11993 0.72794 0.0
C322 C 0.49284 0.13918 0.72826 0.0
C323 C 0.49678 0.12244 0.72276 0.0
C324 C 0.50724 0.15298 0.73937 0.0
C325 C 0.52529 0.15043 0.74458 0.0
U326 U 0.56573 0.12067 0.76559 0.0
O327 O 0.58536 0.10374 0.76121 0.0
O328 O 0.60293 0.13842 0.76866 0.0
C329 C 0.60497 0.12145 0.7643 0.0
C330 C 0.54967 0.13216 0.74315 0.0
C331 C 0.62446 0.12636 0.75472 0.0
C332 C 0.64848 0.14378 0.73353 0.0
C333 C 0.62912 0.13885 0.74187 0.0
C334 C 0.65847 0.12364 0.75071 0.0
C335 C 0.66359 0.13645 0.73796 0.0
C336 C 0.63922 0.1187 0.75895 0.0
C337 C 0.54103 0.09963 0.80454 0.0
C338 C 0.55364 0.08314 0.82319 0.0
C339 C 0.52262 0.08993 0.82817 0.0
C340 C 0.52472 0.09874 0.81423 0.0
C341 C 0.53684 0.08173 0.83283 0.0
C342 C 0.55567 0.09194 0.80914 0.0
C343 C 0.54143 0.10776 0.78961 0.0
O344 O 0.5637 0.14649 0.75274 0.0
O345 O 0.54644 0.11197 0.74505 0.0
O346 O 0.53901 0.09418 0.77896 0.0
O347 O 0.55652 0.12863 0.7868 0.0
H348 H 0.51757 0.10717 0.72321 0.0
H349 H 0.4859 0.11121 0.71439 0.0
H350 H 0.50498 0.16621 0.7438 0.0
H351 H 0.53628 0.16171 0.75289 0.0
H352 H 0.65187 0.15372 0.7238 0.0
H353 H 0.61797 0.14496 0.73838 0.0
H354 H 0.66935 0.1173 0.75435 0.0
H355 H 0.63595 0.10898 0.76877 0.0
H356 H 0.5648 0.07689 0.82635 0.0
H357 H 0.50977 0.0895 0.83533 0.0
H358 H 0.51328 0.10462 0.81094 0.0
H359 H 0.56838 0.09243 0.80182 0.0
C360 C 0.73468 0.54151 0.96247 0.0
C361 C 0.7232 0.55035 0.95465 0.0
C362 C 0.69285 0.53633 0.97288 0.0
C363 C 0.70248 0.54774 0.95979 0.0
C364 C 0.70438 0.52729 0.9805 0.0
C365 C 0.72498 0.52986 0.97536 0.0
U366 U 0.78514 0.55854 0.93553 0.0
O367 O 0.82191 0.57608 0.94044 0.0
O368 O 0.80532 0.542 0.93194 0.0
C369 C 0.82426 0.55902 0.93677 0.0
C370 C 0.75701 0.54462 0.95783 0.0
C371 C 0.83901 0.55405 0.94611 0.0
C372 C 0.84604 0.53698 0.96722 0.0
C373 C 0.83142 0.5418 0.95907 0.0
C374 C 0.87589 0.55669 0.9496 0.0
C375 C 0.86845 0.54418 0.96249 0.0
C376 C 0.86138 0.56153 0.94155 0.0
C377 C 0.78337 0.58187 0.8972 0.0
C378 C 0.80713 0.58711 0.87604 0.0
C379 C 0.78232 0.60282 0.87623 0.0
C380 C 0.77486 0.59415 0.89015 0.0
C381 C 0.7986 0.59949 0.86893 0.0
C382 C 0.79963 0.57842 0.89004 0.0
C383 C 0.77441 0.57255 0.91178 0.0
O384 O 0.75676 0.5313 0.9476 0.0
O385 O 0.77363 0.56527 0.95626 0.0
O386 O 0.78482 0.58549 0.92291 0.0
O387 O 0.76862 0.55164 0.91408 0.0
H388 H 0.73038 0.55946 0.94469 0.0
H389 H 0.69425 0.5551 0.95367 0.0
H390 H 0.69742 0.51808 0.99046 0.0
H391 H 0.73347 0.52283 0.98157 0.0
H392 H 0.83967 0.52725 0.97705 0.0
H393 H 0.8142 0.53584 0.9628 0.0
H394 H 0.89308 0.56295 0.94573 0.0
H395 H 0.86767 0.57107 0.93163 0.0
H396 H 0.81983 0.58436 0.87087 0.0
H397 H 0.77503 0.6119 0.87109 0.0
H398 H 0.7622 0.59691 0.89539 0.0
H399 H 0.80648 0.56901 0.89526 0.0
C400 C 0.46949 0.19785 0.95853 0.0
C401 C 0.47093 0.18301 0.94883 0.0
C402 C 0.47507 0.16243 0.96904 0.0
C403 C 0.47375 0.16549 0.95404 0.0
C404 C 0.4734 0.17728 0.97867 0.0
C405 C 0.47066 0.19478 0.97346 0.0
U406 U 0.45353 0.2287 0.93007 0.0
O407 O 0.43664 0.24845 0.93326 0.0
O408 O 0.47132 0.26445 0.92454 0.0
C409 C 0.45461 0.26719 0.92924 0.0
C410 C 0.46721 0.21686 0.95343 0.0
C411 C 0.46115 0.2867 0.93865 0.0
C412 C 0.4679 0.30416 0.96242 0.0
C413 C 0.46239 0.28545 0.95379 0.0
C414 C 0.4713 0.32557 0.94084 0.0
C415 C 0.47239 0.32447 0.95604 0.0
C416 C 0.46575 0.3069 0.93227 0.0
C417 C 0.42958 0.20134 0.89289 0.0
C418 C 0.42086 0.21884 0.87288 0.0
C419 C 0.41188 0.18044 0.87092 0.0
C420 C 0.42064 0.18161 0.88483 0.0
C421 C 0.41188 0.19903 0.86472 0.0
C422 C 0.42964 0.21998 0.88685 0.0
C423 C 0.43864 0.2019 0.90753 0.0
O424 O 0.48097 0.22893 0.94294 0.0
O425 O 0.44632 0.21299 0.95168 0.0
O426 O 0.42557 0.20067 0.91839 0.0
O427 O 0.4602 0.21665 0.90962 0.0
H428 H 0.46995 0.18502 0.93725 0.0
H429 H 0.4747 0.15423 0.94632 0.0
H430 H 0.47464 0.17564 0.99027 0.0
H431 H 0.46965 0.20609 0.98113 0.0
H432 H 0.46879 0.30277 0.97406 0.0
H433 H 0.45897 0.27001 0.95894 0.0
H434 H 0.47428 0.34076 0.93555 0.0
H435 H 0.4648 0.30818 0.92062 0.0
H436 H 0.42133 0.23353 0.86843 0.0
H437 H 0.40475 0.1648 0.86512 0.0
H438 H 0.42035 0.16701 0.88933 0.0
H439 H 0.43648 0.23538 0.89291 0.0
C440 C 0.73267 0.19188 0.96073 0.0
C441 C 0.72109 0.1718 0.95299 0.0
C442 C 0.69164 0.15593 0.97175 0.0
C443 C 0.70074 0.154 0.95844 0.0
C444 C 0.70328 0.17625 0.9793 0.0
C445 C 0.72351 0.19395 0.97385 0.0
U446 U 0.78177 0.22455 0.93298 0.0
O447 O 0.80077 0.26073 0.92892 0.0
O448 O 0.81861 0.24407 0.93744 0.0
C449 C 0.81992 0.26317 0.93418 0.0
C450 C 0.75453 0.2108 0.95569 0.0
C451 C 0.83318 0.28221 0.94424 0.0
C452 C 0.84159 0.31804 0.9545 0.0
C453 C 0.82743 0.29892 0.94638 0.0
C454 C 0.8674 0.30409 0.95879 0.0
C455 C 0.86194 0.32104 0.96068 0.0
C456 C 0.85328 0.28501 0.95064 0.0
C457 C 0.7797 0.19985 0.89475 0.0
C458 C 0.80782 0.21707 0.8755 0.0
C459 C 0.77495 0.18054 0.87186 0.0
C460 C 0.76726 0.18129 0.8858 0.0
C461 C 0.79532 0.19841 0.86645 0.0
C462 C 0.80007 0.21779 0.88951 0.0
C463 C 0.7709 0.19982 0.90942 0.0
O464 O 0.7714 0.20684 0.95389 0.0
O465 O 0.75344 0.2234 0.94542 0.0
O466 O 0.76438 0.21447 0.91184 0.0
O467 O 0.78216 0.19776 0.92036 0.0
H468 H 0.72788 0.16982 0.94284 0.0
H469 H 0.69239 0.13858 0.95238 0.0
H470 H 0.69668 0.17856 0.98943 0.0
H471 H 0.73213 0.20932 0.97998 0.0
H472 H 0.83668 0.33059 0.95585 0.0
H473 H 0.81222 0.29751 0.94153 0.0
H474 H 0.88304 0.3059 0.96318 0.0
H475 H 0.85847 0.27271 0.949 0.0
H476 H 0.82347 0.23122 0.8717 0.0
H477 H 0.76505 0.16572 0.86541 0.0
H478 H 0.75155 0.16722 0.88965 0.0
H479 H 0.80993 0.23231 0.89623 0.0
C480 C 0.54885 0.81646 0.07557 0.0
C481 C 0.56762 0.83774 0.07286 0.0
C482 C 0.54242 0.85145 0.06506 0.0
C483 C 0.56443 0.855 0.06765 0.0
C484 C 0.52367 0.83028 0.068 0.0
C485 C 0.52687 0.81299 0.07312 0.0
U486 U 0.56666 0.78487 0.10243 0.0
O487 O 0.55004 0.74899 0.10724 0.0
O488 O 0.58448 0.7662 0.09812 0.0
C489 C 0.5668 0.74697 0.10174 0.0
C490 C 0.5518 0.79741 0.07998 0.0
C491 C 0.56067 0.72806 0.09168 0.0
C492 C 0.53248 0.69365 0.07996 0.0
C493 C 0.53787 0.71242 0.08845 0.0
C494 C 0.57252 0.70593 0.0775 0.0
C495 C 0.54973 0.69006 0.07449 0.0
C496 C 0.5779 0.72461 0.08604 0.0
C497 C 0.59119 0.8117 0.13981 0.0
C498 C 0.59971 0.79435 0.16 0.0
C499 C 0.60987 0.83314 0.16142 0.0
C500 C 0.60089 0.83174 0.14757 0.0
C501 C 0.60933 0.81445 0.16788 0.0
C502 C 0.5907 0.79298 0.14608 0.0
C503 C 0.58156 0.8109 0.12534 0.0
O504 O 0.57277 0.80122 0.08114 0.0
O505 O 0.53839 0.78449 0.09034 0.0
O506 O 0.56012 0.79565 0.12341 0.0
O507 O 0.59452 0.81287 0.11422 0.0
H508 H 0.58483 0.84104 0.07457 0.0
H509 H 0.57923 0.87116 0.06565 0.0
H510 H 0.50651 0.8269 0.06597 0.0
H511 H 0.51209 0.79673 0.07493 0.0
H512 H 0.51476 0.68188 0.07774 0.0
H513 H 0.52412 0.71444 0.09265 0.0
H514 H 0.58623 0.70355 0.07365 0.0
H515 H 0.59559 0.73617 0.08849 0.0
H516 H 0.59886 0.77959 0.16466 0.0
H517 H 0.61751 0.84899 0.167 0.0
H518 H 0.60151 0.8464 0.14289 0.0
H519 H 0.58326 0.77733 0.14025 0.0
C520 C 0.28706 0.82169 0.0725 0.0
C521 C 0.29881 0.84171 0.08029 0.0
C522 C 0.32781 0.8578 0.06127 0.0
C523 C 0.319 0.85957 0.07474 0.0
C524 C 0.31597 0.83757 0.05363 0.0
C525 C 0.29587 0.81979 0.05918 0.0
U526 U 0.23899 0.78993 0.10083 0.0
O527 O 0.20212 0.7694 0.097 0.0
O528 O 0.22091 0.75403 0.10608 0.0
C529 C 0.20129 0.75088 0.10123 0.0
C530 C 0.2655 0.80264 0.07779 0.0
C531 C 0.18773 0.7308 0.09223 0.0
C532 C 0.17437 0.71213 0.06892 0.0
C533 C 0.18844 0.73141 0.077 0.0
C534 C 0.159 0.69146 0.09116 0.0
C535 C 0.15937 0.69187 0.0759 0.0
C536 C 0.173 0.71065 0.09918 0.0
C537 C 0.24155 0.81662 0.13831 0.0
C538 C 0.21483 0.79915 0.15824 0.0
C539 C 0.2456 0.8372 0.16053 0.0
C540 C 0.25305 0.83612 0.14657 0.0
C541 C 0.22642 0.81873 0.16662 0.0
C542 C 0.22234 0.7981 0.14422 0.0
C543 C 0.25015 0.81619 0.12365 0.0
O544 O 0.26716 0.79082 0.08839 0.0
O545 O 0.24831 0.80616 0.07941 0.0
O546 O 0.23833 0.81722 0.11268 0.0
O547 O 0.25718 0.80184 0.12159 0.0
H548 H 0.29229 0.84356 0.09059 0.0
H549 H 0.32749 0.87492 0.08087 0.0
H550 H 0.32233 0.83537 0.04338 0.0
H551 H 0.28714 0.80447 0.05301 0.0
H552 H 0.17533 0.71308 0.05721 0.0
H553 H 0.1997 0.74678 0.07138 0.0
H554 H 0.14746 0.67639 0.09696 0.0
H555 H 0.17205 0.70982 0.11091 0.0
H556 H 0.20012 0.78454 0.16258 0.0
H557 H 0.25474 0.85269 0.16647 0.0
H558 H 0.26786 0.85064 0.1422 0.0
H559 H 0.21322 0.78285 0.13803 0.0
C560 C 0.19891 0.4707 0.07193 0.0
C561 C 0.17879 0.46222 0.08006 0.0
C562 C 0.16204 0.47571 0.0619 0.0
C563 C 0.16055 0.46474 0.07512 0.0
C564 C 0.18244 0.4844 0.05396 0.0
C565 C 0.20058 0.48191 0.05891 0.0
U566 U 0.23273 0.45468 0.09893 0.0
O567 O 0.25163 0.43707 0.09435 0.0
O568 O 0.26983 0.47145 0.10232 0.0
C569 C 0.27143 0.45434 0.09771 0.0
C570 C 0.21825 0.46776 0.07643 0.0
C571 C 0.29096 0.45915 0.08817 0.0
C572 C 0.31495 0.47619 0.06691 0.0
C573 C 0.29561 0.47141 0.07523 0.0
C574 C 0.32498 0.45636 0.08432 0.0
C575 C 0.33008 0.46893 0.07145 0.0
C576 C 0.30574 0.45158 0.09253 0.0
C577 C 0.20714 0.4332 0.13766 0.0
C578 C 0.21976 0.41697 0.15649 0.0
C579 C 0.18802 0.42279 0.16107 0.0
C580 C 0.19032 0.43173 0.14714 0.0
C581 C 0.20251 0.41504 0.16594 0.0
C582 C 0.22201 0.4259 0.14246 0.0
C583 C 0.20801 0.44176 0.1228 0.0
O584 O 0.23193 0.48146 0.08639 0.0
O585 O 0.21385 0.44716 0.07832 0.0
O586 O 0.20535 0.42829 0.11202 0.0
O587 O 0.22357 0.46254 0.12019 0.0
H588 H 0.17709 0.45348 0.09014 0.0
H589 H 0.14511 0.45766 0.08149 0.0
H590 H 0.18447 0.49328 0.0439 0.0
H591 H 0.21596 0.48867 0.05247 0.0
H592 H 0.31832 0.48595 0.05711 0.0
H593 H 0.28445 0.47745 0.07164 0.0
H594 H 0.33586 0.45007 0.08805 0.0
H595 H 0.30249 0.44202 0.10243 0.0
H596 H 0.23115 0.41107 0.15981 0.0
H597 H 0.17482 0.42199 0.16806 0.0
H598 H 0.17871 0.43732 0.14371 0.0
H599 H 0.23512 0.42685 0.13532 0.0
C600 C 0.40238 0.87793 0.29417 0.0
C601 C 0.39183 0.88839 0.28711 0.0
C602 C 0.36089 0.8731 0.30492 0.0
C603 C 0.37126 0.88595 0.29241 0.0
C604 C 0.37143 0.86241 0.31174 0.0
C605 C 0.39187 0.86481 0.30644 0.0
U606 U 0.45269 0.89478 0.26714 0.0
O607 O 0.48946 0.91202 0.27201 0.0
O608 O 0.47257 0.87799 0.2634 0.0
C609 C 0.4916 0.89485 0.26828 0.0
C610 C 0.42463 0.88091 0.28945 0.0
C611 C 0.50606 0.88956 0.27765 0.0
C612 C 0.51241 0.87177 0.29863 0.0
C613 C 0.49807 0.87692 0.29044 0.0
C614 C 0.54277 0.89196 0.2814 0.0
C615 C 0.53493 0.87903 0.29412 0.0
C616 C 0.52854 0.89711 0.27332 0.0
C617 C 0.45116 0.91846 0.22893 0.0
C618 C 0.47498 0.92364 0.20783 0.0
C619 C 0.45041 0.93962 0.208 0.0
C620 C 0.44282 0.9309 0.22189 0.0
C621 C 0.46662 0.93617 0.20073 0.0
C622 C 0.46736 0.9149 0.2218 0.0
C623 C 0.44211 0.90912 0.24348 0.0
O624 O 0.42423 0.86759 0.27919 0.0
O625 O 0.44136 0.90152 0.28792 0.0
O626 O 0.45261 0.92195 0.25464 0.0
O627 O 0.43611 0.88814 0.24572 0.0
H628 H 0.39964 0.89864 0.27763 0.0
H629 H 0.36378 0.89457 0.28691 0.0
H630 H 0.36385 0.85207 0.32122 0.0
H631 H 0.39964 0.85653 0.31205 0.0
H632 H 0.50573 0.86173 0.30832 0.0
H633 H 0.48076 0.87089 0.294 0.0
H634 H 0.56006 0.89827 0.27771 0.0
H635 H 0.53512 0.90696 0.26353 0.0
H636 H 0.48763 0.9208 0.20267 0.0
H637 H 0.44326 0.94882 0.20286 0.0
H638 H 0.43022 0.93375 0.22712 0.0
H639 H 0.47408 0.90538 0.22701 0.0
C640 C 0.12977 0.5298 0.29503 0.0
C641 C 0.13154 0.51549 0.28503 0.0
C642 C 0.13699 0.49503 0.30478 0.0
C643 C 0.13518 0.4983 0.28986 0.0
C644 C 0.13506 0.5094 0.31471 0.0
C645 C 0.13151 0.52658 0.30987 0.0
U646 U 0.11258 0.5603 0.26708 0.0
O647 O 0.09325 0.57766 0.27053 0.0
O648 O 0.12841 0.59628 0.2627 0.0
C649 C 0.11057 0.59727 0.26719 0.0
C650 C 0.12631 0.54827 0.29033 0.0
C651 C 0.11515 0.61568 0.27716 0.0
C652 C 0.12651 0.63397 0.30067 0.0
C653 C 0.1224 0.61618 0.29149 0.0
C654 C 0.11619 0.65082 0.28127 0.0
C655 C 0.12337 0.6515 0.29568 0.0
C656 C 0.11212 0.63311 0.27215 0.0
C657 C 0.0919 0.53466 0.229 0.0
C658 C 0.08363 0.55227 0.20885 0.0
C659 C 0.07522 0.51407 0.20677 0.0
C660 C 0.08349 0.5151 0.22081 0.0
C661 C 0.0752 0.53263 0.20055 0.0
C662 C 0.09191 0.55328 0.22295 0.0
C663 C 0.10052 0.53507 0.24377 0.0
O664 O 0.14023 0.56156 0.28029 0.0
O665 O 0.1051 0.54319 0.28821 0.0
O666 O 0.08648 0.53213 0.25443 0.0
O667 O 0.12155 0.55074 0.24643 0.0
H668 H 0.13015 0.51764 0.27351 0.0
H669 H 0.13633 0.4874 0.28192 0.0
H670 H 0.13667 0.5076 0.32624 0.0
H671 H 0.13024 0.53747 0.31776 0.0
H672 H 0.13189 0.63387 0.31172 0.0
H673 H 0.12482 0.60283 0.29557 0.0
H674 H 0.11403 0.66418 0.27693 0.0
H675 H 0.10664 0.63308 0.2611 0.0
H676 H 0.08406 0.56695 0.20439 0.0
H677 H 0.06849 0.49854 0.20087 0.0
H678 H 0.08324 0.50052 0.22532 0.0
H679 H 0.09834 0.56856 0.22911 0.0
C680 C 0.3989 0.52464 0.29373 0.0
C681 C 0.38717 0.50448 0.2861 0.0
C682 C 0.35765 0.48912 0.30483 0.0
C683 C 0.36671 0.48689 0.29159 0.0
C684 C 0.36944 0.50952 0.31227 0.0
C685 C 0.38978 0.52702 0.30679 0.0
U686 U 0.44849 0.5562 0.26615 0.0
O687 O 0.46813 0.59227 0.26181 0.0
O688 O 0.48529 0.57523 0.27083 0.0
C689 C 0.48705 0.59442 0.26727 0.0
C690 C 0.42093 0.54329 0.28869 0.0
C691 C 0.50047 0.61355 0.2772 0.0
C692 C 0.50776 0.64832 0.28859 0.0
C693 C 0.49356 0.62911 0.28055 0.0
C694 C 0.53583 0.63666 0.2904 0.0
C695 C 0.52922 0.65251 0.29348 0.0
C696 C 0.52169 0.61752 0.28233 0.0
C697 C 0.44699 0.53064 0.22837 0.0
C698 C 0.4722 0.54899 0.20786 0.0
C699 C 0.44596 0.50926 0.20716 0.0
C700 C 0.43799 0.51032 0.22096 0.0
C701 C 0.46321 0.52855 0.2004 0.0
C702 C 0.4642 0.55002 0.22173 0.0
C703 C 0.43777 0.53097 0.24284 0.0
O704 O 0.43764 0.53903 0.2872 0.0
O705 O 0.42018 0.55575 0.27819 0.0
O706 O 0.43152 0.54593 0.2449 0.0
O707 O 0.44849 0.52877 0.25404 0.0
H708 H 0.39394 0.50226 0.27602 0.0
H709 H 0.35824 0.47139 0.28561 0.0
H710 H 0.36287 0.51204 0.32235 0.0
H711 H 0.39852 0.54245 0.31284 0.0
H712 H 0.50197 0.66001 0.29089 0.0
H713 H 0.4774 0.62671 0.27673 0.0
H714 H 0.55232 0.63942 0.2938 0.0
H715 H 0.52768 0.60606 0.27975 0.0
H716 H 0.48564 0.56414 0.20308 0.0
H717 H 0.43835 0.4933 0.20172 0.0
H718 H 0.42462 0.49518 0.22583 0.0
H719 H 0.47144 0.5659 0.22726 0.0
Gd720 Gd 0.51811 0.02021 0.0345 0.0
Gd721 Gd 0.50097 0.99391 0.9983 0.0
C722 C 0.43165 0.9317 0.99137 0.0
C723 C 0.44213 0.90363 0.98613 0.0
C724 C 0.47137 0.94202 0.99058 0.0
C725 C 0.45487 0.94779 0.99284 0.0
C726 C 0.46524 0.91998 0.98687 0.0
C727 C 0.42536 0.90948 0.98835 0.0
C728 C 0.41552 0.93856 0.99255 0.0
C729 C 0.42272 0.96101 0.9949 0.0
N730 N 0.46157 0.96941 0.9957 0.0
C731 C 0.44594 0.97634 0.99628 0.0
H732 H 0.45116 0.9936 0.99812 0.0
C733 C 0.51037 0.95403 0.98731 0.0
N734 N 0.49348 0.95827 0.99124 0.0
C735 C 0.50517 0.9324 0.98366 0.0
C736 C 0.48252 0.91523 0.98363 0.0
H737 H 0.52792 0.96724 0.98745 0.0
H738 H 0.40759 0.89683 0.98738 0.0
H739 H 0.56759 0.01984 0.03494 0.0
H740 H 0.39755 0.92679 0.99128 0.0
H741 H 0.41038 0.96653 0.99564 0.0
H742 H 0.43706 0.88654 0.98345 0.0
H743 H 0.49171 0.04758 0.04502 0.0
H744 H 0.62174 0.08644 0.04156 0.0
H745 H 0.60844 0.04655 0.03744 0.0
H746 H 0.58308 0.12764 0.04878 0.0
H747 H 0.51863 0.92898 0.98092 0.0
H748 H 0.47853 0.8985 0.98077 0.0
H749 H 0.6122 0.11681 0.04515 0.0
H750 H 0.50147 0.0861 0.05119 0.0
N751 N 0.55757 0.04436 0.03713 0.0
C752 C 0.60373 0.07483 0.04029 0.0
C753 C 0.59628 0.05229 0.03807 0.0
C754 C 0.58781 0.08197 0.04133 0.0
C755 C 0.56454 0.06607 0.03987 0.0
C756 C 0.573 0.03717 0.03667 0.0
N757 N 0.52605 0.05607 0.04138 0.0
C758 C 0.54824 0.07214 0.04201 0.0
C759 C 0.51479 0.08242 0.04859 0.0
C760 C 0.53753 0.0994 0.04859 0.0
C761 C 0.50933 0.06064 0.04515 0.0
C762 C 0.55463 0.09431 0.04552 0.0
H763 H 0.54173 0.11624 0.05129 0.0
O764 O 0.50047 0.01357 0.05521 0.0
O765 O 0.49122 0.99286 0.0214 0.0
O766 O 0.49072 0.02031 1.00182 0.0
O767 O 0.51491 0.04443 0.01961 0.0
O768 O 0.48034 0.00779 0.03604 0.0
O769 O 0.5279 0.00657 0.05256 0.0
O770 O 0.51943 1.00182 0.97787 0.0
O771 O 0.5278 0.02128 1.01142 0.0
O772 O 0.52809 0.99361 0.03101 0.0
O773 O 0.50416 0.96959 1.01307 0.0
O774 O 0.53875 0.00633 0.99685 0.0
O775 O 0.49038 0.00647 0.98 0.0
C776 C 0.47363 0.99195 0.02668 0.0
C777 C 0.57781 0.11047 0.04625 0.0
C778 C 0.59438 0.1043 0.04418 0.0
C779 C 0.51324 0.00692 0.06153 0.0
C780 C 0.52183 0.01592 0.07614 0.0
C781 C 0.53896 0.03819 0.07777 0.0
C782 C 0.5132 1.00218 0.08855 0.0
C783 C 0.5219 0.01067 0.10251 0.0
C784 C 0.54745 0.04672 0.09149 0.0
C785 C 0.53907 0.03315 0.10374 0.0
C786 C 0.50091 0.03991 1.00847 0.0
C787 C 0.54542 0.02218 1.0062 0.0
C788 C 0.50589 0.00726 0.97129 0.0
C789 C 0.49826 0.99797 0.95661 0.0
C790 C 0.48178 0.97548 0.95491 0.0
C791 C 0.50753 0.01152 0.94418 0.0
C792 C 0.50047 1.00252 0.93012 0.0
C793 C 0.47463 0.96652 0.94111 0.0
C794 C 0.48383 0.97985 0.92883 0.0
C795 C 0.51796 0.97404 0.02431 0.0
H796 H 0.54581 0.04896 0.06843 0.0
H797 H 0.50007 0.98491 0.08731 0.0
H798 H 0.56063 0.06397 0.09263 0.0
H799 H 0.54587 0.04038 0.11424 0.0
H800 H 0.47441 0.96485 0.96426 0.0
H801 H 0.52038 0.02889 0.94547 0.0
H802 H 0.46182 0.94915 0.93992 0.0
H803 H 0.47762 0.97242 0.91829 0.0
Gd804 Gd 0.9953 0.50172 0.03483 0.0
Gd805 Gd 0.02557 0.51323 0.99995 0.0
C806 C 0.08969 0.50828 0.99391 0.0
C807 C 0.11848 0.54691 0.9897 0.0
C808 C 0.07906 0.53682 0.99366 0.0
C809 C 0.07316 0.51479 0.99548 0.0
C810 C 0.1017 0.55309 0.99048 0.0
C811 C 0.11246 0.52451 0.99136 0.0
C812 C 0.0827 0.48558 0.99447 0.0
C813 C 0.05977 0.47003 0.99656 0.0
N814 N 0.051 0.49954 0.99792 0.0
C815 C 0.04403 0.47731 0.99812 0.0
H816 H 0.02639 0.46503 0.99966 0.0
C817 C 0.06681 0.5631 0.99067 0.0
N818 N 0.06235 0.54211 0.99416 0.0
C819 C 0.08905 0.5799 0.98763 0.0
C820 C 0.10663 0.57494 0.98771 0.0
H821 H 0.05327 0.56702 0.99066 0.0
H822 H 0.12544 0.51985 0.99032 0.0
H823 H 0.9941 0.54975 0.03498 0.0
H824 H 0.09475 0.47985 0.99292 0.0
H825 H 0.05417 0.45242 0.99688 0.0
H826 H 0.13601 0.55919 0.9874 0.0
H827 H 0.96774 0.44823 0.04487 0.0
H828 H 0.92484 0.5341 0.03803 0.0
H829 H 0.96571 0.56193 0.0358 0.0
H830 H 0.88416 0.45488 0.04466 0.0
H831 H 0.09261 0.59663 0.98523 0.0
H832 H 0.12383 0.58794 0.98527 0.0
H833 H 0.8944 0.494 0.04087 0.0
H834 H 0.92824 0.4184 0.04972 0.0
N835 N 0.9696 0.51518 0.03628 0.0
C836 C 0.93722 0.52861 0.03758 0.0
C837 C 0.96029 0.54437 0.0364 0.0
C838 C 0.93049 0.506 0.03865 0.0
C839 C 0.94734 0.49977 0.03813 0.0
C840 C 0.97637 0.53735 0.03596 0.0
N841 N 0.95847 0.47279 0.04047 0.0
C842 C 0.94158 0.47784 0.04028 0.0
C843 C 0.93175 0.43503 0.04703 0.0
C844 C 0.91399 0.4397 0.04615 0.0
C845 C 0.95407 0.45194 0.04434 0.0
C846 C 0.91882 0.46141 0.04297 0.0
H847 H 0.89671 0.42658 0.04825 0.0
O848 O 1.00112 0.49086 0.05574 0.0
O849 O 0.02484 0.50387 0.02302 0.0
O850 O 0.99868 0.47647 1.00247 0.0
O851 O 0.97215 0.47474 0.0192 0.0
O852 O 1.00856 0.47759 0.0371 0.0
O853 O 1.0061 0.52408 0.05332 0.0
O854 O 0.02012 0.52443 0.97905 0.0
O855 O 0.99609 0.51113 1.01175 0.0
O856 O 0.02234 0.53846 0.03237 0.0
O857 O 0.04884 0.53996 0.01569 0.0
O858 O 0.01261 0.53758 0.99785 0.0
O859 O 0.01354 0.49066 0.98158 0.0
C860 C 0.02557 0.48746 0.02838 0.0
C861 C 0.90179 0.4673 0.04279 0.0
C862 C 0.90762 0.48957 0.04063 0.0
C863 C 1.00595 0.50939 0.06225 0.0
C864 C 0.99506 0.50725 0.07642 0.0
C865 C 0.97201 0.50101 0.07723 0.0
C866 C 1.00777 0.51133 0.08928 0.0
C867 C 0.99745 0.509 0.10293 0.0
C868 C 0.96172 0.4988 0.09068 0.0
C869 C 0.97427 0.50272 0.10343 0.0
C870 C 0.97803 0.46623 1.00831 0.0
C871 C 0.99547 0.52763 1.00646 0.0
C872 C 0.01429 0.50559 0.97262 0.0
C873 C 0.02468 0.50695 0.95838 0.0
C874 C 0.04769 0.51314 0.95734 0.0
C875 C 0.01141 0.50179 0.9457 0.0
C876 C 0.02107 0.50272 0.93199 0.0
C877 C 0.0574 0.5142 0.94384 0.0
C878 C 0.04426 0.50906 0.93126 0.0
C879 C 0.04302 0.54858 0.02656 0.0
H880 H 0.962 0.49789 0.06749 0.0
H881 H 0.02555 0.51597 0.08864 0.0
H882 H 0.94392 0.49404 0.09122 0.0
H883 H 0.96588 0.50108 0.11371 0.0
H884 H 0.05813 0.51712 0.96694 0.0
H885 H 0.99355 0.49678 0.94654 0.0
H886 H 0.07521 0.51909 0.94312 0.0
H887 H 0.05236 0.51035 0.92092 0.0
Gd888 Gd 0.50062 0.51116 0.99927 0.0
Gd889 Gd 0.51783 0.49954 0.03476 0.0
C890 C 0.5869 0.50441 0.04141 0.0
C891 C 0.57618 0.46574 0.04564 0.0
C892 C 0.54714 0.47595 0.04159 0.0
C893 C 0.56374 0.49796 0.03983 0.0
C894 C 0.55311 0.45962 0.0448 0.0
C895 C 0.59305 0.48812 0.04399 0.0
C896 C 0.60311 0.52708 0.04078 0.0
C897 C 0.59607 0.54268 0.03874 0.0
N898 N 0.55717 0.51324 0.03734 0.0
C899 C 0.57291 0.53546 0.03719 0.0
H900 H 0.56784 0.54778 0.03562 0.0
C901 C 0.50804 0.44968 0.04427 0.0
N902 N 0.52506 0.4707 0.04091 0.0
C903 C 0.51308 0.43284 0.04736 0.0
C904 C 0.53571 0.43776 0.04745 0.0
H905 H 0.49051 0.44578 0.0441 0.0
H906 H 0.61077 0.49273 0.04505 0.0
H907 H 0.45003 0.46359 0.99876 0.0
H908 H 0.62102 0.53275 0.04223 0.0
H909 H 0.60847 0.56028 0.03839 0.0
H910 H 0.58113 0.45341 0.04795 0.0
H911 H 0.5286 0.56451 0.98889 0.0
H912 H 0.39758 0.48039 0.99496 0.0
H913 H 0.40938 0.45207 0.99761 0.0
H914 H 0.43899 0.55948 0.98761 0.0
H915 H 0.49953 0.41609 0.04965 0.0
H916 H 0.53959 0.42471 0.0499 0.0
H917 H 0.40879 0.52062 0.99155 0.0
H918 H 0.52029 0.59471 0.98343 0.0
N919 N 0.46137 0.49827 0.99718 0.0
C920 C 0.4155 0.48558 0.99548 0.0
C921 C 0.4221 0.46954 0.99692 0.0
C922 C 0.43213 0.50807 0.99427 0.0
C923 C 0.45522 0.51392 0.99501 0.0
C924 C 0.44524 0.47619 0.99755 0.0
N925 N 0.49404 0.54039 0.99298 0.0
C926 C 0.47212 0.5357 0.99282 0.0
C927 C 0.50659 0.5782 0.98611 0.0
C928 C 0.48417 0.57391 0.98664 0.0
C929 C 0.51123 0.56107 0.98915 0.0
C930 C 0.46655 0.55236 0.98981 0.0
H931 H 0.48062 0.5872 0.98428 0.0
O932 O 0.5189 0.52139 0.97879 0.0
O933 O 0.52743 0.50888 1.01176 0.0
O934 O 0.5286 0.53625 0.03196 0.0
O935 O 0.50462 0.53823 0.01461 0.0
O936 O 0.53855 0.53522 0.99766 0.0
O937 O 0.48876 0.48898 0.98064 0.0
O938 O 0.50018 0.48827 0.05541 0.0
O939 O 0.49098 0.50173 0.02229 0.0
O940 O 0.48962 0.47443 1.00213 0.0
O941 O 0.5142 0.47285 0.01916 0.0
O942 O 0.48002 0.47522 0.03623 0.0
O943 O 0.52801 0.52205 0.05317 0.0
C944 C 0.54512 0.52527 1.00662 0.0
C945 C 0.44362 0.54686 0.98973 0.0
C946 C 0.42643 0.52474 0.99197 0.0
C947 C 0.50464 0.50319 0.97203 0.0
C948 C 0.49744 0.506 0.95745 0.0
C949 C 0.48171 0.51337 0.95589 0.0
C950 C 0.50665 0.50171 0.94497 0.0
C951 C 0.50038 0.50506 0.93098 0.0
C952 C 0.47529 0.51653 0.94211 0.0
C953 C 0.48454 0.51248 0.92976 0.0
C954 C 0.51872 0.54657 0.02576 0.0
C955 C 0.47334 0.48523 0.0274 0.0
C956 C 0.51317 0.50712 0.06196 0.0
C957 C 0.52153 0.50582 0.0765 0.0
C958 C 0.53834 0.49985 0.07802 0.0
C959 C 0.51289 0.51084 0.08896 0.0
C960 C 0.5212 0.51009 0.1029 0.0
C961 C 0.54649 0.49889 0.09173 0.0
C962 C 0.53805 0.50395 0.10406 0.0
C963 C 0.49986 0.46431 1.00813 0.0
H964 H 0.47442 0.51669 0.96531 0.0
H965 H 0.51896 0.49619 0.94617 0.0
H966 H 0.4631 0.52219 0.94099 0.0
H967 H 0.47911 0.51495 0.91921 0.0
H968 H 0.54518 0.49596 0.06861 0.0
H969 H 0.50003 0.51565 0.08777 0.0
H970 H 0.55942 0.49418 0.09281 0.0
H971 H 0.54454 0.50278 0.11456 0.0
Gd972 Gd 0.18406 0.35421 0.36791 0.0
Gd973 Gd 0.16664 0.3278 0.33174 0.0
C974 C 0.09725 0.26556 0.32513 0.0
C975 C 0.10766 0.23739 0.32003 0.0
C976 C 0.13695 0.27583 0.32423 0.0
C977 C 0.12048 0.28166 0.32649 0.0
C978 C 0.13078 0.25374 0.32067 0.0
C979 C 0.09092 0.2433 0.32223 0.0
C980 C 0.08114 0.27244 0.32631 0.0
C981 C 0.08837 0.29492 0.32856 0.0
N982 N 0.12723 0.30331 0.32926 0.0
C983 C 0.11161 0.31025 0.32985 0.0
H984 H 0.11685 0.32753 0.33162 0.0
C985 C 0.17593 0.28777 0.3209 0.0
N986 N 0.15908 0.29209 0.3248 0.0
C987 C 0.17068 0.26608 0.3174 0.0
C988 C 0.14802 0.24891 0.31748 0.0
H989 H 0.19348 0.30097 0.32097 0.0
H990 H 0.07314 0.23064 0.32134 0.0
H991 H 0.2338 0.35439 0.36819 0.0
H992 H 0.06316 0.26066 0.32512 0.0
H993 H 0.07605 0.30046 0.32931 0.0
H994 H 0.10256 0.22026 0.31746 0.0
H995 H 0.15725 0.38111 0.37859 0.0
H996 H 0.28753 0.42116 0.3749 0.0
H997 H 0.27459 0.38137 0.37067 0.0
H998 H 0.24823 0.4617 0.38234 0.0
H999 H 0.18411 0.2626 0.3147 0.0
H1000 H 0.144 0.23213 0.31473 0.0
H1001 H 0.27761 0.45125 0.37858 0.0
H1002 H 0.16664 0.41949 0.38486 0.0
N1003 N 0.22347 0.37865 0.37047 0.0
C1004 C 0.26955 0.40943 0.37362 0.0
C1005 C 0.2623 0.38695 0.37134 0.0
C1006 C 0.25347 0.41636 0.37471 0.0
C1007 C 0.23024 0.40031 0.37326 0.0
C1008 C 0.23906 0.37166 0.36996 0.0
N1009 N 0.19166 0.38993 0.37487 0.0
C1010 C 0.21379 0.40616 0.37547 0.0
C1011 C 0.18007 0.41598 0.3822 0.0
C1012 C 0.20275 0.43312 0.38219 0.0
C1013 C 0.17481 0.39429 0.3787 0.0
C1014 C 0.21998 0.42825 0.37905 0.0
H1015 H 0.20679 0.4499 0.38494 0.0
O1016 O 0.1665 0.34723 0.38866 0.0
O1017 O 0.15709 0.3268 0.35487 0.0
O1018 O 0.15641 0.3542 0.33532 0.0
O1019 O 0.18066 0.37836 0.35308 0.0
O1020 O 0.14629 0.34168 0.3696 0.0
O1021 O 0.19423 0.34071 0.38587 0.0
O1022 O 0.18499 0.3356 0.31126 0.0
O1023 O 0.19356 0.35523 0.34478 0.0
O1024 O 0.19433 0.32785 0.36425 0.0
O1025 O 0.17001 0.30362 0.34655 0.0
O1026 O 0.20441 0.34025 0.33016 0.0
O1027 O 0.15595 0.34026 0.31343 0.0
C1028 C 0.13953 0.32587 0.36022 0.0
C1029 C 0.24311 0.44457 0.37976 0.0
C1030 C 0.25983 0.43863 0.37762 0.0
C1031 C 0.17951 0.34079 0.3949 0.0
C1032 C 0.18811 0.3498 0.40952 0.0
C1033 C 0.20483 0.37221 0.41117 0.0
C1034 C 0.17986 0.33595 0.42191 0.0
C1035 C 0.18854 0.34449 0.43585 0.0
C1036 C 0.21329 0.38079 0.42488 0.0
C1037 C 0.20528 0.36712 0.4371 0.0
C1038 C 0.16654 0.37378 0.34201 0.0
C1039 C 0.21113 0.35611 0.3395 0.0
C1040 C 0.17144 0.34104 0.30469 0.0
C1041 C 0.1638 0.33176 0.29001 0.0
C1042 C 0.14741 0.30924 0.28832 0.0
C1043 C 0.17301 0.34532 0.27757 0.0
C1044 C 0.16599 0.33628 0.2635 0.0
C1045 C 0.14029 0.30025 0.27452 0.0
C1046 C 0.14944 0.31358 0.26223 0.0
C1047 C 0.18412 0.30823 0.35763 0.0
H1048 H 0.21138 0.38307 0.40185 0.0
H1049 H 0.16705 0.31856 0.42065 0.0
H1050 H 0.22615 0.39816 0.42604 0.0
H1051 H 0.21203 0.37439 0.44761 0.0
H1052 H 0.1401 0.2986 0.29767 0.0
H1053 H 0.18579 0.36271 0.27885 0.0
H1054 H 0.12755 0.28285 0.27333 0.0
H1055 H 0.14326 0.30612 0.25169 0.0
Gd1056 Gd 0.66049 0.83486 0.36727 0.0
Gd1057 Gd 0.691 0.84725 0.33275 0.0
C1058 C 0.75513 0.84207 0.32772 0.0
C1059 C 0.78435 0.88084 0.32464 0.0
C1060 C 0.74478 0.87082 0.3277 0.0
C1061 C 0.73862 0.84865 0.32905 0.0
C1062 C 0.76765 0.88715 0.3252 0.0
C1063 C 0.77809 0.85832 0.32585 0.0
C1064 C 0.74797 0.81932 0.32783 0.0
C1065 C 0.72487 0.80378 0.32917 0.0
N1066 N 0.71629 0.83339 0.33083 0.0
C1067 C 0.70915 0.81113 0.3305 0.0
H1068 H 0.69138 0.79888 0.33149 0.0
C1069 C 0.733 0.8975 0.32498 0.0
N1070 N 0.72817 0.87625 0.32802 0.0
C1071 C 0.75546 0.91434 0.32261 0.0
C1072 C 0.77291 0.9092 0.3229 0.0
H1073 H 0.71955 0.90155 0.32484 0.0
H1074 H 0.79105 0.85359 0.325 0.0
H1075 H 0.66135 0.88506 0.36821 0.0
H1076 H 0.76004 0.81356 0.3265 0.0
H1077 H 0.71914 0.78613 0.32912 0.0
H1078 H 0.80205 0.89316 0.32287 0.0
H1079 H 0.63092 0.78151 0.37829 0.0
H1080 H 0.59268 0.87076 0.36916 0.0
H1081 H 0.6338 0.89786 0.36828 0.0
H1082 H 0.54966 0.79174 0.37499 0.0
H1083 H 0.75929 0.93126 0.32058 0.0
H1084 H 0.79029 0.92225 0.32099 0.0
H1085 H 0.56142 0.83114 0.3711 0.0
H1086 H 0.59082 0.75297 0.38265 0.0
N1087 N 0.63637 0.85035 0.36839 0.0
C1088 C 0.60473 0.86483 0.369 0.0
C1089 C 0.62794 0.88018 0.36858 0.0
C1090 C 0.59738 0.84208 0.36984 0.0
C1091 C 0.6138 0.83522 0.36974 0.0
C1092 C 0.64362 0.87268 0.36851 0.0
N1093 N 0.62325 0.80686 0.37269 0.0
C1094 C 0.60707 0.81289 0.37191 0.0
C1095 C 0.59514 0.76971 0.37956 0.0
C1096 C 0.57807 0.7752 0.37782 0.0
C1097 C 0.61782 0.78592 0.37716 0.0
C1098 C 0.58395 0.79708 0.37424 0.0
H1099 H 0.5605 0.76259 0.37968 0.0
O1100 O 0.68667 0.84748 0.38408 0.0
O1101 O 0.68934 0.83581 0.35548 0.0
O1102 O 0.66357 0.81065 0.3334 0.0
O1103 O 0.63883 0.80588 0.35239 0.0
O1104 O 0.67055 0.80823 0.36825 0.0
O1105 O 0.65153 0.83188 0.39016 0.0
O1106 O 0.68742 0.86013 0.31199 0.0
O1107 O 0.66088 0.84453 0.34427 0.0
O1108 O 0.68608 0.87187 0.36493 0.0
O1109 O 0.7135 0.87295 0.34931 0.0
O1110 O 0.67813 0.87168 0.33096 0.0
O1111 O 0.67998 0.82596 0.31375 0.0
C1112 C 0.68842 0.81823 0.36016 0.0
C1113 C 0.56753 0.80372 0.37344 0.0
C1114 C 0.57423 0.82616 0.37124 0.0
C1115 C 0.67232 0.84034 0.39475 0.0
C1116 C 0.67636 0.82793 0.40631 0.0
C1117 C 0.67121 0.80589 0.40396 0.0
C1118 C 0.68516 0.83797 0.41986 0.0
C1119 C 0.68854 0.82592 0.43101 0.0
C1120 C 0.67501 0.7941 0.4148 0.0
C1121 C 0.68359 0.80398 0.42822 0.0
C1122 C 0.64402 0.79894 0.34038 0.0
C1123 C 0.66053 0.86127 0.33916 0.0
C1124 C 0.6816 0.84161 0.30511 0.0
C1125 C 0.6926 0.84358 0.29103 0.0
C1126 C 0.71565 0.84985 0.29027 0.0
C1127 C 0.67982 0.839 0.27817 0.0
C1128 C 0.69006 0.8408 0.26456 0.0
C1129 C 0.72589 0.85158 0.27687 0.0
C1130 C 0.71325 0.84712 0.2641 0.0
C1131 C 0.70717 0.88175 0.35979 0.0
H1132 H 0.66411 0.79764 0.39382 0.0
H1133 H 0.68888 0.8549 0.4218 0.0
H1134 H 0.67116 0.77717 0.41283 0.0
H1135 H 0.68645 0.79443 0.43642 0.0
H1136 H 0.72571 0.85334 0.30003 0.0
H1137 H 0.66203 0.83433 0.27877 0.0
H1138 H 0.74369 0.85636 0.27637 0.0
H1139 H 0.72159 0.84835 0.25386 0.0
Gd1140 Gd 0.17042 0.846 0.33218 0.0
Gd1141 Gd 0.18295 0.83471 0.36876 0.0
C1142 C 0.25449 0.84367 0.37203 0.0
C1143 C 0.24656 0.80544 0.37271 0.0
C1144 C 0.21543 0.81341 0.37152 0.0
C1145 C 0.23091 0.83604 0.37116 0.0
C1146 C 0.22316 0.79793 0.37279 0.0
C1147 C 0.26218 0.82827 0.37244 0.0
C1148 C 0.26965 0.86655 0.37298 0.0
C1149 C 0.26125 0.8812 0.37354 0.0
N1150 N 0.22297 0.8506 0.37095 0.0
C1151 C 0.23782 0.87294 0.37275 0.0
H1152 H 0.23209 0.8848 0.37358 0.0
C1153 C 0.17769 0.78507 0.37593 0.0
N1154 N 0.19292 0.80663 0.37206 0.0
C1155 C 0.18443 0.76908 0.37693 0.0
C1156 C 0.20723 0.77544 0.37499 0.0
H1157 H 0.16004 0.77993 0.3779 0.0
H1158 H 0.28018 0.83383 0.37311 0.0
H1159 H 0.12531 0.79443 0.33311 0.0
H1160 H 0.28781 0.87303 0.3738 0.0
H1161 H 0.27283 0.89892 0.37469 0.0
H1162 H 0.25275 0.79377 0.37354 0.0
H1163 H 0.18973 0.8977 0.31982 0.0
H1164 H 0.06496 0.79898 0.32895 0.0
H1165 H 0.08348 0.77621 0.33205 0.0
H1166 H 0.09389 0.87677 0.32012 0.0
H1167 H 0.17207 0.75191 0.37936 0.0
H1168 H 0.21249 0.76308 0.37598 0.0
H1169 H 0.06902 0.83673 0.32491 0.0
H1170 H 0.17458 0.92262 0.31352 0.0
N1171 N 0.13049 0.82717 0.33087 0.0
C1172 C 0.08335 0.80705 0.32937 0.0
C1173 C 0.09374 0.79414 0.3311 0.0
C1174 C 0.09684 0.83017 0.32782 0.0
C1175 C 0.1207 0.83982 0.32846 0.0
C1176 C 0.11748 0.80453 0.33175 0.0
N1177 N 0.15744 0.87064 0.32581 0.0
C1178 C 0.13464 0.86233 0.32596 0.0
C1179 C 0.16317 0.90575 0.31712 0.0
C1180 C 0.13987 0.89797 0.31832 0.0
C1181 C 0.17167 0.89164 0.32066 0.0
C1182 C 0.1252 0.87585 0.32246 0.0
H1183 H 0.1333 0.9089 0.31553 0.0
O1184 O 0.18858 0.85905 0.31181 0.0
O1185 O 0.19609 0.84339 0.346 0.0
O1186 O 0.19528 0.87156 0.36642 0.0
O1187 O 0.17745 0.87595 0.346 0.0
O1188 O 0.20772 0.87133 0.33287 0.0
O1189 O 0.16062 0.82537 0.31281 0.0
O1190 O 0.16251 0.81569 0.38727 0.0
O1191 O 0.155 0.83064 0.35358 0.0
O1192 O 0.17024 0.81342 0.33289 0.0
O1193 O 0.16194 0.80188 0.35674 0.0
O1194 O 0.15646 0.84396 0.37388 0.0
O1195 O 0.19151 0.84878 0.3904 0.0
C1196 C 0.21387 0.86069 0.34159 0.0
C1197 C 0.10147 0.8666 0.32257 0.0
C1198 C 0.0873 0.84378 0.32527 0.0
C1199 C 0.17583 0.8409 0.30457 0.0
C1200 C 0.16824 0.84348 0.29005 0.0
C1201 C 0.15149 0.84955 0.28861 0.0
C1202 C 0.17771 0.83972 0.2775 0.0
C1203 C 0.17067 0.84229 0.26355 0.0
C1204 C 0.14438 0.85204 0.27488 0.0
C1205 C 0.15386 0.84849 0.26246 0.0
C1206 C 0.18899 0.88337 0.3583 0.0
C1207 C 0.14537 0.83797 0.36195 0.0
C1208 C 0.17473 0.83138 0.39657 0.0
C1209 C 0.17948 0.82471 0.41076 0.0
C1210 C 0.19233 0.81403 0.4118 0.0
C1211 C 0.17142 0.82967 0.42352 0.0
C1212 C 0.17596 0.82378 0.43728 0.0
C1213 C 0.19685 0.80809 0.42534 0.0
C1214 C 0.18876 0.81288 0.43797 0.0
C1215 C 0.16376 0.79788 0.34294 0.0
H1216 H 0.14383 0.85228 0.29806 0.0
H1217 H 0.19072 0.83509 0.2786 0.0
H1218 H 0.13139 0.85669 0.27386 0.0
H1219 H 0.14778 0.8503 0.25197 0.0
H1220 H 0.19898 0.81042 0.40218 0.0
H1221 H 0.16148 0.83795 0.42269 0.0
H1222 H 0.20683 0.79988 0.42607 0.0
H1223 H 0.19291 0.80839 0.44832 0.0
Gd1224 Gd 0.85008 0.6845 0.70274 0.0
Gd1225 Gd 0.8327 0.65841 0.66649 0.0
C1226 C 0.7629 0.59682 0.65974 0.0
C1227 C 0.77275 0.56823 0.65476 0.0
C1228 C 0.80244 0.60649 0.65904 0.0
C1229 C 0.7862 0.61266 0.66118 0.0
C1230 C 0.79595 0.58432 0.65548 0.0
C1231 C 0.75624 0.57448 0.65686 0.0
C1232 C 0.74704 0.60405 0.66082 0.0
C1233 C 0.75458 0.62659 0.6631 0.0
N1234 N 0.79323 0.63438 0.66395 0.0
C1235 C 0.77787 0.64165 0.66448 0.0
H1236 H 0.78338 0.65899 0.66625 0.0
C1237 C 0.8413 0.61789 0.65575 0.0
N1238 N 0.82465 0.62251 0.65964 0.0
C1239 C 0.83574 0.5961 0.65228 0.0
C1240 C 0.81298 0.57917 0.65234 0.0
H1241 H 0.85893 0.63092 0.65582 0.0
H1242 H 0.73841 0.56202 0.65591 0.0
H1243 H 0.89983 0.6847 0.70275 0.0
H1244 H 0.72902 0.59248 0.65956 0.0
H1245 H 0.74246 0.63238 0.66377 0.0
H1246 H 0.7674 0.55104 0.6522 0.0
H1247 H 0.8233 0.71115 0.71397 0.0
H1248 H 0.95359 0.75143 0.70959 0.0
H1249 H 0.94064 0.71169 0.70513 0.0
H1250 H 0.91426 0.79172 0.71796 0.0
H1251 H 0.84901 0.59237 0.6496 0.0
H1252 H 0.80871 0.56231 0.6496 0.0
H1253 H 0.94365 0.78141 0.71375 0.0
H1254 H 0.8327 0.74935 0.72075 0.0
N1255 N 0.8895 0.70893 0.7053 0.0
C1256 C 0.9356 0.73969 0.70837 0.0
C1257 C 0.92834 0.71724 0.70596 0.0
C1258 C 0.91951 0.74659 0.70967 0.0
C1259 C 0.89627 0.73054 0.70824 0.0
C1260 C 0.90509 0.70195 0.70463 0.0
N1261 N 0.8577 0.72009 0.71004 0.0
C1262 C 0.87983 0.73632 0.71067 0.0
C1263 C 0.84612 0.74593 0.71789 0.0
C1264 C 0.86879 0.76308 0.7179 0.0
C1265 C 0.84086 0.72433 0.7141 0.0
C1266 C 0.88602 0.75833 0.71449 0.0
H1267 H 0.87283 0.77979 0.72087 0.0
O1268 O 0.83228 0.67704 0.72344 0.0
O1269 O 0.82306 0.65732 0.68959 0.0
O1270 O 0.8231 0.6853 0.67 0.0
O1271 O 0.84694 0.709 0.6881 0.0
O1272 O 0.81232 0.6722 0.70435 0.0
O1273 O 0.86028 0.67093 0.72065 0.0
O1274 O 0.85096 0.66587 0.646 0.0
O1275 O 0.85968 0.68568 0.6796 0.0
O1276 O 0.86028 0.65814 0.69898 0.0
O1277 O 0.83582 0.63406 0.68128 0.0
O1278 O 0.87041 0.67062 0.66494 0.0
O1279 O 0.82222 0.67099 0.64813 0.0
C1280 C 0.80553 0.65646 0.69491 0.0
C1281 C 0.90914 0.77466 0.71519 0.0
C1282 C 0.92587 0.76879 0.7128 0.0
C1283 C 0.84539 0.67071 0.72966 0.0
C1284 C 0.85378 0.67958 0.74434 0.0
C1285 C 0.87076 0.70189 0.74607 0.0
C1286 C 0.84511 0.66573 0.7567 0.0
C1287 C 0.85362 0.67414 0.7707 0.0
C1288 C 0.87905 0.71035 0.75983 0.0
C1289 C 0.87063 0.69667 0.77203 0.0
C1290 C 0.83325 0.70478 0.67682 0.0
C1291 C 0.87721 0.68647 0.6743 0.0
C1292 C 0.83756 0.6715 0.6394 0.0
C1293 C 0.82975 0.66212 0.62475 0.0
C1294 C 0.81478 0.63923 0.62308 0.0
C1295 C 0.83724 0.67599 0.61234 0.0
C1296 C 0.82964 0.66695 0.59833 0.0
C1297 C 0.80744 0.63016 0.60932 0.0
C1298 C 0.81478 0.64382 0.59707 0.0
C1299 C 0.84995 0.63853 0.69233 0.0
H1300 H 0.87764 0.71276 0.73678 0.0
H1301 H 0.8321 0.64842 0.75539 0.0
H1302 H 0.8921 0.72764 0.76105 0.0
H1303 H 0.87728 0.70385 0.78257 0.0
H1304 H 0.80881 0.62834 0.6324 0.0
H1305 H 0.84864 0.69373 0.61363 0.0
H1306 H 0.796 0.61243 0.60814 0.0
H1307 H 0.80897 0.63615 0.58654 0.0
Gd1308 Gd 0.32803 0.16725 0.70006 0.0
Gd1309 Gd 0.35831 0.17856 0.66518 0.0
C1310 C 0.42219 0.17311 0.65942 0.0
C1311 C 0.4512 0.21168 0.65527 0.0
C1312 C 0.41182 0.20183 0.65904 0.0
C1313 C 0.40575 0.17976 0.66088 0.0
C1314 C 0.43452 0.218 0.65594 0.0
C1315 C 0.44503 0.18924 0.65695 0.0
C1316 C 0.41506 0.15038 0.66 0.0
C1317 C 0.39207 0.13494 0.66199 0.0
N1318 N 0.38354 0.16461 0.66323 0.0
C1319 C 0.37642 0.14236 0.66344 0.0
H1320 H 0.35874 0.13015 0.66492 0.0
C1321 C 0.39984 0.2283 0.65594 0.0
N1322 N 0.39521 0.20726 0.65946 0.0
C1323 C 0.42215 0.245 0.65298 0.0
C1324 C 0.43963 0.2399 0.65316 0.0
H1325 H 0.38637 0.23233 0.65587 0.0
H1326 H 0.45794 0.18447 0.65599 0.0
H1327 H 0.32683 0.21527 0.70004 0.0
H1328 H 0.42705 0.14455 0.65856 0.0
H1329 H 0.38636 0.1173 0.66234 0.0
H1330 H 0.46879 0.22388 0.65304 0.0
H1331 H 0.30057 0.11379 0.71017 0.0
H1332 H 0.25768 0.19972 0.70382 0.0
H1333 H 0.2985 0.22749 0.70115 0.0
H1334 H 0.21706 0.12055 0.71067 0.0
H1335 H 0.42584 0.26177 0.65056 0.0
H1336 H 0.45689 0.25283 0.65078 0.0
H1337 H 0.22727 0.15966 0.70685 0.0
H1338 H 0.26115 0.08401 0.71527 0.0
N1339 N 0.30235 0.18072 0.70159 0.0
C1340 C 0.27004 0.1942 0.70321 0.0
C1341 C 0.29308 0.20993 0.70179 0.0
C1342 C 0.26331 0.1716 0.70432 0.0
C1343 C 0.28013 0.16534 0.70363 0.0
C1344 C 0.30912 0.20289 0.70119 0.0
N1345 N 0.29126 0.13835 0.70587 0.0
C1346 C 0.27438 0.14342 0.70582 0.0
C1347 C 0.26462 0.10064 0.71257 0.0
C1348 C 0.24687 0.10533 0.71185 0.0
C1349 C 0.2869 0.11752 0.70973 0.0
C1350 C 0.25167 0.12703 0.70867 0.0
H1351 H 0.22963 0.09224 0.71408 0.0
O1352 O 0.33413 0.15657 0.72096 0.0
O1353 O 0.35748 0.16925 0.68825 0.0
O1354 O 0.33121 0.14183 0.66772 0.0
O1355 O 0.30479 0.14021 0.68451 0.0
O1356 O 0.34118 0.14303 0.70237 0.0
O1357 O 0.339 0.18975 0.71848 0.0
O1358 O 0.35304 0.18985 0.64427 0.0
O1359 O 0.32887 0.1766 0.67696 0.0
O1360 O 0.35501 0.20396 0.69749 0.0
O1361 O 0.38158 0.20532 0.68093 0.0
O1362 O 0.3455 0.203 0.66302 0.0
O1363 O 0.34624 0.156 0.6468 0.0
C1364 C 0.35816 0.15283 0.69363 0.0
C1365 C 0.23466 0.13295 0.70865 0.0
C1366 C 0.24047 0.15521 0.70649 0.0
C1367 C 0.33902 0.17515 0.72742 0.0
C1368 C 0.32837 0.17312 0.74166 0.0
C1369 C 0.30537 0.16697 0.74265 0.0
C1370 C 0.34132 0.17725 0.75441 0.0
C1371 C 0.33127 0.17505 0.76814 0.0
C1372 C 0.29534 0.16488 0.75618 0.0
C1373 C 0.30813 0.16885 0.76883 0.0
C1374 C 0.31061 0.13162 0.67364 0.0
C1375 C 0.32835 0.19313 0.67163 0.0
C1376 C 0.34714 0.17099 0.63783 0.0
C1377 C 0.35759 0.17233 0.62362 0.0
C1378 C 0.38056 0.17833 0.62264 0.0
C1379 C 0.34443 0.16736 0.6109 0.0
C1380 C 0.35416 0.1683 0.59721 0.0
C1381 C 0.39033 0.17941 0.60917 0.0
C1382 C 0.37731 0.17446 0.59655 0.0
C1383 C 0.37574 0.21399 0.69176 0.0
H1384 H 0.29518 0.16381 0.73298 0.0
H1385 H 0.35907 0.18181 0.75363 0.0
H1386 H 0.27757 0.16018 0.75686 0.0
H1387 H 0.29994 0.16732 0.77917 0.0
H1388 H 0.39091 0.18216 0.63228 0.0
H1389 H 0.32661 0.16248 0.6117 0.0
H1390 H 0.40812 0.18415 0.6085 0.0
H1391 H 0.38548 0.17578 0.58624 0.0
Gd1392 Gd 0.83416 0.17933 0.66605 0.0
Gd1393 Gd 0.85164 0.16798 0.70157 0.0
C1394 C 0.92043 0.17219 0.70802 0.0
C1395 C 0.90938 0.1335 0.7125 0.0
C1396 C 0.88057 0.14402 0.7085 0.0
C1397 C 0.89731 0.16595 0.70658 0.0
C1398 C 0.88636 0.12759 0.71177 0.0
C1399 C 0.92639 0.15578 0.71066 0.0
C1400 C 0.93681 0.1948 0.70718 0.0
C1401 C 0.92996 0.21054 0.70513 0.0
N1402 N 0.89093 0.18136 0.70404 0.0
C1403 C 0.90682 0.20352 0.70374 0.0
H1404 H 0.90187 0.21593 0.70215 0.0
C1405 C 0.84142 0.11809 0.7114 0.0
N1406 N 0.85854 0.13898 0.70788 0.0
C1407 C 0.84628 0.10116 0.71459 0.0
C1408 C 0.86884 0.10585 0.7146 0.0
H1409 H 0.82394 0.11435 0.7113 0.0
H1410 H 0.94408 0.16022 0.71161 0.0
H1411 H 0.78403 0.13123 0.66538 0.0
H1412 H 0.95472 0.20031 0.70848 0.0
H1413 H 0.94249 0.22809 0.70463 0.0
H1414 H 0.91419 0.12107 0.71486 0.0
H1415 H 0.8613 0.23279 0.65593 0.0
H1416 H 0.73072 0.14684 0.66174 0.0
H1417 H 0.74323 0.11902 0.66421 0.0
H1418 H 0.7709 0.22604 0.65489 0.0
H1419 H 0.83264 0.0845 0.71702 0.0
H1420 H 0.87257 0.09273 0.71712 0.0
H1421 H 0.74121 0.18692 0.65861 0.0
H1422 H 0.85229 0.2626 0.65074 0.0
N1423 N 0.79477 0.16579 0.66395 0.0
C1424 C 0.74871 0.15233 0.66227 0.0
C1425 C 0.75572 0.13658 0.6636 0.0
C1426 C 0.76504 0.17494 0.66117 0.0
C1427 C 0.78824 0.18118 0.6619 0.0
C1428 C 0.77894 0.14362 0.66423 0.0
N1429 N 0.82689 0.20817 0.65993 0.0
C1430 C 0.80485 0.2031 0.65982 0.0
C1431 C 0.83879 0.24595 0.65333 0.0
C1432 C 0.81624 0.24125 0.6539 0.0
C1433 C 0.84383 0.22904 0.6562 0.0
C1434 C 0.79888 0.21953 0.65696 0.0
H1435 H 0.81237 0.25437 0.65167 0.0
O1436 O 0.85189 0.19013 0.6454 0.0
O1437 O 0.86111 0.17735 0.67854 0.0
O1438 O 0.86246 0.20466 0.69864 0.0
O1439 O 0.83805 0.20629 0.68149 0.0
O1440 O 0.87201 0.20357 0.66434 0.0
O1441 O 0.82305 0.1569 0.64756 0.0
O1442 O 0.83321 0.1574 0.72199 0.0
O1443 O 0.82473 0.17003 0.68908 0.0
O1444 O 0.82367 0.14268 0.66891 0.0
O1445 O 0.84812 0.14122 0.68612 0.0
O1446 O 0.81385 0.14357 0.70306 0.0
O1447 O 0.86282 0.1902 0.72019 0.0
C1448 C 0.87871 0.19377 0.67333 0.0
C1449 C 0.77584 0.21362 0.6569 0.0
C1450 C 0.75894 0.19135 0.65901 0.0
C1451 C 0.83827 0.17153 0.6388 0.0
C1452 C 0.83025 0.17347 0.62428 0.0
C1453 C 0.81422 0.18047 0.62283 0.0
C1454 C 0.83861 0.16825 0.61176 0.0
C1455 C 0.83086 0.16992 0.59782 0.0
C1456 C 0.80662 0.18232 0.60913 0.0
C1457 C 0.81483 0.17713 0.59673 0.0
C1458 C 0.85233 0.21481 0.69254 0.0
C1459 C 0.80713 0.15349 0.69419 0.0
C1460 C 0.84706 0.17575 0.72876 0.0
C1461 C 0.85434 0.17319 0.74338 0.0
C1462 C 0.87017 0.16598 0.74503 0.0
C1463 C 0.84509 0.17757 0.75581 0.0
C1464 C 0.85142 0.17441 0.76984 0.0
C1465 C 0.87665 0.16301 0.75884 0.0
C1466 C 0.86734 0.16712 0.77114 0.0
C1467 C 0.8339 0.13263 0.67504 0.0
H1468 H 0.80761 0.18452 0.63228 0.0
H1469 H 0.85086 0.16265 0.61291 0.0
H1470 H 0.79432 0.18786 0.60809 0.0
H1471 H 0.80882 0.17909 0.58626 0.0
H1472 H 0.8775 0.1626 0.73566 0.0
H1473 H 0.83271 0.183 0.75456 0.0
H1474 H 0.88891 0.15746 0.76002 0.0
H1475 H 0.8728 0.16479 0.78172 0.0
C1476 C 0.35078 0.8818 0.04021 0.0
C1477 C 0.3491 0.87689 0.0551 0.0
C1478 C 0.37061 0.89968 0.03423 0.0
C1479 C 0.38943 0.91307 0.04329 0.0
C1480 C 0.38793 0.90812 0.05831 0.0
C1481 C 0.36785 0.89019 0.06402 0.0
C1482 C 0.3714 0.9042 0.01818 0.0
C1483 C 0.40756 0.92188 0.0684 0.0
C1484 C 0.44933 0.95016 0.02819 0.0
C1485 C 0.45132 0.9713 0.02869 0.0
C1486 C 0.42899 0.93092 0.03229 0.0
C1487 C 0.41029 0.93287 0.03728 0.0
C1488 C 0.41203 0.95413 0.03732 0.0
C1489 C 0.4325 0.97303 0.0331 0.0
C1490 C 0.4279 0.90864 0.03183 0.0
C1491 C 0.39252 0.95706 0.04232 0.0
H1492 H 0.33639 0.87185 0.0332 0.0
H1493 H 0.36695 0.88642 0.07548 0.0
H1494 H 0.37658 0.92191 0.0162 0.0
H1495 H 0.38431 0.90108 1.01304 0.0
H1496 H 0.35476 0.8935 1.0128 0.0
H1497 H 0.40399 0.91557 0.07971 0.0
H1498 H 0.42307 0.92192 0.06458 0.0
H1499 H 0.41133 0.93942 0.06835 0.0
H1500 H 0.4639 0.9487 0.02509 0.0
H1501 H 0.43403 0.98936 0.03361 0.0
H1502 H 0.41236 0.89625 0.02604 0.0
H1503 H 0.42694 0.9024 0.04304 0.0
H1504 H 0.44298 0.90962 0.02639 0.0
H1505 H 0.37682 0.94567 0.03626 0.0
H1506 H 0.39604 0.97442 0.04086 0.0
H1507 H 0.38912 0.95263 0.05397 0.0
C1508 C 0.13706 0.47507 0.04137 0.0
C1509 C 0.14243 0.47782 0.05622 0.0
C1510 C 0.11879 0.47701 0.03578 0.0
C1511 C 0.10544 0.482 0.04518 0.0
C1512 C 0.11082 0.48491 0.06018 0.0
C1513 C 0.12912 0.48272 0.06551 0.0
C1514 C 0.11394 0.47387 0.01975 0.0
C1515 C 0.09714 0.49026 0.07063 0.0
C1516 C 0.06821 0.50497 0.03061 0.0
C1517 C 0.04649 0.48596 0.0308 0.0
C1518 C 0.08765 0.50385 0.03476 0.0
C1519 C 0.08532 0.48329 0.03949 0.0
C1520 C 0.06344 0.46397 0.03934 0.0
C1521 C 0.04437 0.46557 0.03507 0.0
C1522 C 0.11058 0.52482 0.03447 0.0
C1523 C 0.06008 0.44164 0.04403 0.0
H1524 H 0.14697 0.47104 0.03408 0.0
H1525 H 0.13321 0.48516 0.07695 0.0
H1526 H 0.09555 0.46247 0.01774 0.0
H1527 H 0.11866 0.49021 0.01481 0.0
H1528 H 0.12373 0.4671 0.01424 0.0
H1529 H 0.10374 0.49254 0.08189 0.0
H1530 H 0.09734 0.50571 0.06717 0.0
H1531 H 0.07914 0.47664 0.07058 0.0
H1532 H 0.06999 0.52088 0.02763 0.0
H1533 H 0.02761 0.45086 0.03534 0.0
H1534 H 0.1228 0.52206 0.02809 0.0
H1535 H 0.11738 0.52923 0.04566 0.0
H1536 H 0.10974 0.53913 0.02969 0.0
H1537 H 0.07125 0.43745 0.03761 0.0
H1538 H 0.04219 0.42804 0.04271 0.0
H1539 H 0.06497 0.44237 0.05558 0.0
C1540 C 0.55669 0.67037 0.05391 0.0
C1541 C 0.54405 0.66942 0.06619 0.0
C1542 C 0.55231 0.6509 0.04649 0.0
C1543 C 0.53497 0.62988 0.05151 0.0
C1544 C 0.52184 0.62884 0.06372 0.0
C1545 C 0.5265 0.64859 0.07088 0.0
C1546 C 0.56655 0.65277 0.03343 0.0
C1547 C 0.50329 0.6068 0.0695 0.0
C1548 C 0.51149 0.57881 0.02699 0.0
C1549 C 0.52349 0.56838 0.03186 0.0
C1550 C 0.51531 0.59901 0.03307 0.0
C1551 C 0.53129 0.60892 0.04446 0.0
C1552 C 0.5435 0.59852 0.0494 0.0
C1553 C 0.53952 0.57848 0.04302 0.0
C1554 C 0.502 0.60957 0.02742 0.0
C1555 C 0.56059 0.6084 0.06157 0.0
H1556 H 0.57008 0.68641 0.05009 0.0
H1557 H 0.51682 0.64763 0.08046 0.0
H1558 H 0.5765 0.64437 0.03569 0.0
H1559 H 0.5554 0.64422 0.02401 0.0
H1560 H 0.57853 0.67037 0.03043 0.0
H1561 H 0.49393 0.60887 0.07867 0.0
H1562 H 0.49096 0.5973 0.06077 0.0
H1563 H 0.51078 0.59662 0.07324 0.0
H1564 H 0.49882 0.57106 0.01855 0.0
H1565 H 0.5489 0.57063 0.04694 0.0
H1566 H 0.51378 0.62704 0.0241 0.0
H1567 H 0.49103 0.61004 0.03615 0.0
H1568 H 0.49108 0.60038 0.01802 0.0
H1569 H 0.57398 0.62558 0.05872 0.0
H1570 H 0.56886 0.5984 0.06405 0.0
H1571 H 0.55207 0.60953 0.07153 0.0
C1572 C 0.88921 0.34157 0.98115 0.0
C1573 C 0.87786 0.34209 0.96853 0.0
C1574 C 0.90497 0.36133 0.98825 0.0
C1575 C 0.90967 0.38225 0.98261 0.0
C1576 C 0.89804 0.3829 0.97 0.0
C1577 C 0.88232 0.36288 0.96315 0.0
C1578 C 0.9168 0.35984 1.00172 0.0
C1579 C 0.90258 0.40479 0.96355 0.0
C1580 C 0.93778 0.43422 1.00651 0.0
C1581 C 0.96064 0.44436 1.00213 0.0
C1582 C 0.92111 0.41391 1.00044 0.0
C1583 C 0.92728 0.40348 0.98957 0.0
C1584 C 0.95031 0.4136 0.98513 0.0
C1585 C 0.96666 0.43381 0.99146 0.0
C1586 C 0.89682 0.40375 1.00557 0.0
C1587 C 0.95769 0.40319 0.97353 0.0
H1588 H 0.88572 0.32564 0.98553 0.0
H1589 H 0.87395 0.36358 0.95331 0.0
H1590 H 0.93541 0.36817 0.9998 0.0
H1591 H 0.91404 0.36867 1.01081 0.0
H1592 H 0.9107 0.34233 1.00504 0.0
H1593 H 0.8916 0.40247 0.95401 0.0
H1594 H 0.89969 0.41474 0.97179 0.0
H1595 H 0.92064 0.41464 0.96014 0.0
H1596 H 0.93277 0.44231 0.01454 0.0
H1597 H 0.98419 0.44141 0.98792 0.0
H1598 H 0.89053 0.38642 1.00933 0.0
H1599 H 0.88578 0.40295 0.99643 0.0
H1600 H 0.89496 0.4134 0.01454 0.0
H1601 H 0.95328 0.38607 0.9768 0.0
H1602 H 0.97626 0.41299 0.97139 0.0
H1603 H 0.94848 0.40179 0.96329 0.0
C1604 C 0.66865 0.53632 0.99368 0.0
C1605 C 0.67115 0.53408 0.97875 0.0
C1606 C 0.64848 0.53434 0.99942 0.0
C1607 C 0.63008 0.52985 0.99008 0.0
C1608 C 0.63238 0.52738 0.97502 0.0
C1609 C 0.65283 0.52959 0.96955 0.0
C1610 C 0.64692 0.53707 0.01551 0.0
C1611 C 0.61325 0.52251 0.96463 0.0
C1612 C 0.56953 0.50734 1.00455 0.0
C1613 C 0.56749 0.52653 1.00449 0.0
C1614 C 0.58999 0.50824 1.00043 0.0
C1615 C 0.60884 0.52877 0.99589 0.0
C1616 C 0.60701 0.54828 0.99626 0.0
C1617 C 0.5864 0.54689 1.00046 0.0
C1618 C 0.59112 0.48704 1.00043 0.0
C1619 C 0.62665 0.5706 0.99178 0.0
H1620 H 0.6827 0.54003 1.00092 0.0
H1621 H 0.65435 0.52752 0.95804 0.0
H1622 H 0.64144 0.54943 0.01767 0.0
H1623 H 0.63394 0.52094 0.02022 0.0
H1624 H 0.66334 0.54248 0.02114 0.0
H1625 H 0.61737 0.52037 0.95331 0.0
H1626 H 0.59758 0.50713 0.96801 0.0
H1627 H 0.60943 0.53633 0.96487 0.0
H1628 H 0.5549 0.49146 1.00736 0.0
H1629 H 0.58488 0.56174 1.00028 0.0
H1630 H 0.60629 0.48946 1.00652 0.0
H1631 H 0.59286 0.48263 0.98914 0.0
H1632 H 0.57573 0.47286 1.00533 0.0
H1633 H 0.64211 0.57431 0.99807 0.0
H1634 H 0.62297 0.58437 0.99344 0.0
H1635 H 0.63058 0.57016 0.98016 0.0
C1636 C 0.49389 0.13898 0.96804 0.0
C1637 C 0.47841 0.14403 0.97469 0.0
C1638 C 0.49764 0.1221 0.97351 0.0
C1639 C 0.48559 0.10987 0.98593 0.0
C1640 C 0.46984 0.11476 0.99264 0.0
C1641 C 0.46645 0.13174 0.98696 0.0
C1642 C 0.51462 0.11746 0.96605 0.0
C1643 C 0.45653 0.10204 1.00584 0.0
C1644 C 0.47983 0.05291 0.99246 0.0
C1645 C 0.49664 0.05772 1.00299 0.0
C1646 C 0.47605 0.06968 0.98686 0.0
C1647 C 0.48937 0.09186 0.99187 0.0
C1648 C 0.50631 0.09682 1.00252 0.0
C1649 C 0.50979 0.07975 1.00789 0.0
C1650 C 0.45784 0.06365 0.9755 0.0
C1651 C 0.5209 0.12022 1.00818 0.0
H1652 H 0.50343 0.14854 0.95868 0.0
H1653 H 0.45423 0.13528 0.99207 0.0
H1654 H 0.52828 0.11999 0.97375 0.0
H1655 H 0.50618 0.09983 0.96247 0.0
H1656 H 0.52253 0.12836 0.95646 0.0
H1657 H 0.44498 0.1079 1.00982 0.0
H1658 H 0.44624 0.08403 1.00327 0.0
H1659 H 0.46837 0.10379 0.01471 0.0
H1660 H 0.46958 0.036 0.98854 0.0
H1661 H 0.52309 0.08378 0.01582 0.0
H1662 H 0.46549 0.07331 0.96545 0.0
H1663 H 0.44514 0.06811 0.97936 0.0
H1664 H 0.44886 0.04562 0.97281 0.0
H1665 H 0.53067 0.13156 0.99914 0.0
H1666 H 0.53306 0.12125 0.01664 0.0
H1667 H 0.50999 0.12638 1.01282 0.0
C1668 C 0.66843 0.13213 0.9928 0.0
C1669 C 0.67028 0.13689 0.97788 0.0
C1670 C 0.64853 0.11432 0.99876 0.0
C1671 C 0.62982 0.10084 0.98965 0.0
C1672 C 0.63149 0.10564 0.9746 0.0
C1673 C 0.65164 0.1235 0.96891 0.0
C1674 C 0.64758 0.10992 0.01483 0.0
C1675 C 0.61197 0.09179 0.96446 0.0
C1676 C 0.5866 0.04099 0.99997 0.0
C1677 C 0.56777 0.04279 1.00423 0.0
C1678 C 0.60712 0.05984 0.99577 0.0
C1679 C 0.60889 0.08111 0.99565 0.0
C1680 C 0.59016 0.08314 1.00049 0.0
C1681 C 0.56978 0.06394 1.00459 0.0
C1682 C 0.62667 0.05684 0.99093 0.0
C1683 C 0.59126 0.10543 1.00077 0.0
H1684 H 0.68275 0.14215 0.99984 0.0
H1685 H 0.65269 0.12715 0.95742 0.0
H1686 H 0.6343 0.11262 0.01982 0.0
H1687 H 0.64283 0.09232 0.01686 0.0
H1688 H 0.66404 0.12095 0.02031 0.0
H1689 H 0.61565 0.09801 0.95313 0.0
H1690 H 0.6082 0.07425 0.96461 0.0
H1691 H 0.59642 0.09179 0.96816 0.0
H1692 H 0.58506 0.02465 0.99957 0.0
H1693 H 0.55519 0.06545 1.00758 0.0
H1694 H 0.64234 0.06831 0.99699 0.0
H1695 H 0.63013 0.06109 0.97926 0.0
H1696 H 0.62313 0.0395 0.99254 0.0
H1697 H 0.60678 0.11788 1.00655 0.0
H1698 H 0.57616 0.10452 1.00612 0.0
H1699 H 0.59229 0.11152 0.98951 0.0
C1700 C 0.88581 0.54029 0.98593 0.0
C1701 C 0.88422 0.53879 0.97074 0.0
C1702 C 0.90204 0.53708 0.99355 0.0
C1703 C 0.91703 0.5321 0.98584 0.0
C1704 C 0.91485 0.52967 0.97058 0.0
C1705 C 0.89856 0.53301 0.96327 0.0
C1706 C 0.9035 0.53949 1.00981 0.0
C1707 C 0.93025 0.5242 0.96186 0.0
C1708 C 0.97666 0.54928 0.9994 0.0
C1709 C 0.97453 0.52887 1.00359 0.0
C1710 C 0.95782 0.5507 0.99439 0.0
C1711 C 0.93619 0.53116 0.99339 0.0
C1712 C 0.93373 0.51061 0.99826 0.0
C1713 C 0.95296 0.50967 1.00314 0.0
C1714 C 0.96136 0.57301 0.98947 0.0
C1715 C 0.91106 0.48938 0.99764 0.0
H1716 H 0.87488 0.54475 0.99186 0.0
H1717 H 0.89721 0.53127 0.95158 0.0
H1718 H 0.9004 0.52366 0.01485 0.0
H1719 H 0.92084 0.55261 1.01306 0.0
H1720 H 0.89097 0.54381 0.01423 0.0
H1721 H 0.92562 0.52169 0.95018 0.0
H1722 H 0.94811 0.53794 0.96287 0.0
H1723 H 0.92952 0.50889 0.96614 0.0
H1724 H 0.99332 0.56415 0.99965 0.0
H1725 H 0.9512 0.49375 1.00609 0.0
H1726 H 0.94869 0.57645 0.99465 0.0
H1727 H 0.9588 0.57274 0.97758 0.0
H1728 H 0.97869 0.58686 0.99208 0.0
H1729 H 0.89735 0.49214 1.00184 0.0
H1730 H 0.91113 0.47576 1.00399 0.0
H1731 H 0.9069 0.48389 0.98621 0.0
C1732 C 0.46549 0.34218 0.97784 0.0
C1733 C 0.4777 0.34438 0.96508 0.0
C1734 C 0.46927 0.361 0.98587 0.0
C1735 C 0.48565 0.38258 0.98105 0.0
C1736 C 0.4985 0.38486 0.96843 0.0
C1737 C 0.49439 0.36578 0.96063 0.0
C1738 C 0.45523 0.35783 0.99927 0.0
C1739 C 0.5162 0.40752 0.96292 0.0
C1740 C 0.47894 0.43231 0.99097 0.0
C1741 C 0.49538 0.44269 1.00188 0.0
C1742 C 0.47538 0.4126 0.98431 0.0
C1743 C 0.4885 0.40285 0.98867 0.0
C1744 C 0.5048 0.41297 0.99987 0.0
C1745 C 0.50813 0.43279 1.00628 0.0
C1746 C 0.45787 0.40245 0.97239 0.0
C1747 C 0.51911 0.40313 1.00488 0.0
H1748 H 0.45241 0.32577 0.98132 0.0
H1749 H 0.50421 0.36766 0.95095 0.0
H1750 H 0.46648 0.36667 1.0086 0.0
H1751 H 0.44415 0.36516 0.99749 0.0
H1752 H 0.44433 0.33997 1.00216 0.0
H1753 H 0.52551 0.40642 0.95336 0.0
H1754 H 0.50794 0.41729 0.95985 0.0
H1755 H 0.52869 0.41689 0.9716 0.0
H1756 H 0.46896 0.43973 0.98745 0.0
H1757 H 0.52108 0.44076 0.01455 0.0
H1758 H 0.44536 0.38488 0.97505 0.0
H1759 H 0.46629 0.40238 0.96211 0.0
H1760 H 0.44857 0.41166 0.97059 0.0
H1761 H 0.50807 0.38533 1.0078 0.0
H1762 H 0.52986 0.41209 0.01439 0.0
H1763 H 0.53035 0.40384 0.99593 0.0
C1764 C 0.13255 0.67252 0.05497 0.0
C1765 C 0.14377 0.67131 0.06746 0.0
C1766 C 0.11678 0.65313 0.04751 0.0
C1767 C 0.11196 0.63191 0.05265 0.0
C1768 C 0.1236 0.6306 0.06504 0.0
C1769 C 0.13935 0.65023 0.07223 0.0
C1770 C 0.10485 0.65532 0.03432 0.0
C1771 C 0.11909 0.60838 0.07089 0.0
C1772 C 0.05473 0.58074 0.0437 0.0
C1773 C 0.06053 0.57038 0.03277 0.0
C1774 C 0.07121 0.60081 0.05011 0.0
C1775 C 0.09414 0.61102 0.04545 0.0
C1776 C 0.10007 0.60085 0.03427 0.0
C1777 C 0.08328 0.58063 0.02817 0.0
C1778 C 0.0641 0.61091 0.06206 0.0
C1779 C 0.12424 0.61114 0.02889 0.0
H1780 H 0.13559 0.68861 0.05123 0.0
H1781 H 0.14818 0.64903 0.08169 0.0
H1782 H 0.10697 0.64642 0.025 0.0
H1783 H 0.08635 0.64746 0.03648 0.0
H1784 H 0.11139 0.67299 0.0312 0.0
H1785 H 0.13001 0.61019 0.08037 0.0
H1786 H 0.10102 0.5983 0.07422 0.0
H1787 H 0.12207 0.59892 0.06233 0.0
H1788 H 0.03727 0.57305 0.04742 0.0
H1789 H 0.08814 0.57271 0.01992 0.0
H1790 H 0.0687 0.62821 0.05917 0.0
H1791 H 0.07334 0.61177 0.07219 0.0
H1792 H 0.04554 0.6012 0.06425 0.0
H1793 H 0.13059 0.62868 0.02557 0.0
H1794 H 0.12582 0.60191 0.01955 0.0
H1795 H 0.13541 0.61138 0.03776 0.0
C1796 C 0.35101 0.47293 0.04786 0.0
C1797 C 0.3512 0.47437 0.06306 0.0
C1798 C 0.37042 0.47621 0.04012 0.0
C1799 C 0.3906 0.48115 0.04772 0.0
C1800 C 0.39115 0.48355 0.06299 0.0
C1801 C 0.37157 0.48016 0.07042 0.0
C1802 C 0.36917 0.47382 0.02385 0.0
C1803 C 0.41226 0.489 0.07159 0.0
C1804 C 0.43236 0.4637 0.03408 0.0
C1805 C 0.45113 0.48408 0.02996 0.0
C1806 C 0.41213 0.46238 0.03905 0.0
C1807 C 0.41055 0.48198 0.04006 0.0
C1808 C 0.42907 0.50248 0.03517 0.0
C1809 C 0.44921 0.50332 0.03032 0.0
C1810 C 0.39289 0.44011 0.04398 0.0
C1811 C 0.42819 0.52378 0.03579 0.0
H1812 H 0.33545 0.46848 0.04202 0.0
H1813 H 0.37218 0.48186 0.08211 0.0
H1814 H 0.38253 0.48943 0.01878 0.0
H1815 H 0.37251 0.46031 0.02057 0.0
H1816 H 0.35235 0.47005 0.01949 0.0
H1817 H 0.4104 0.49153 0.08329 0.0
H1818 H 0.41607 0.47524 0.07053 0.0
H1819 H 0.42709 0.50429 0.06725 0.0
H1820 H 0.4338 0.4488 0.03389 0.0
H1821 H 0.46373 0.51922 0.0274 0.0
H1822 H 0.37666 0.43679 0.0389 0.0
H1823 H 0.39082 0.44034 0.05589 0.0
H1824 H 0.39592 0.42618 0.04127 0.0
H1825 H 0.4115 0.52104 0.03192 0.0
H1826 H 0.44186 0.5372 0.02918 0.0
H1827 H 0.43028 0.52955 0.04719 0.0
C1828 C 0.52203 0.87342 0.06456 0.0
C1829 C 0.53903 0.86959 0.05902 0.0
C1830 C 0.51855 0.89034 0.05887 0.0
C1831 C 0.53227 0.9037 0.04727 0.0
C1832 C 0.5494 0.89986 0.0416 0.0
C1833 C 0.55262 0.88293 0.04757 0.0
C1834 C 0.50026 0.89402 0.06534 0.0
C1835 C 0.56426 0.91357 0.02916 0.0
C1836 C 0.50986 0.93443 0.02432 0.0
C1837 C 0.52206 0.95616 0.02988 0.0
C1838 C 0.5132 0.91729 0.02973 0.0
C1839 C 0.52886 0.92182 0.04118 0.0
C1840 C 0.54115 0.94368 0.0469 0.0
C1841 C 0.53769 0.96056 0.04115 0.0
C1842 C 0.49983 0.89428 0.02325 0.0
C1843 C 0.55785 0.9492 0.05919 0.0
H1844 H 0.51162 0.86335 0.07351 0.0
H1845 H 0.56557 0.87989 0.04308 0.0
H1846 H 0.50791 0.91128 0.06956 0.0
H1847 H 0.48779 0.89208 0.05687 0.0
H1848 H 0.49103 0.88221 0.07431 0.0
H1849 H 0.57666 0.90837 0.02589 0.0
H1850 H 0.55353 0.91205 0.01965 0.0
H1851 H 0.57376 0.93143 0.03222 0.0
H1852 H 0.49743 0.93067 0.01583 0.0
H1853 H 0.54717 0.97722 0.04561 0.0
H1854 H 0.48889 0.88225 0.03167 0.0
H1855 H 0.5116 0.88869 0.01931 0.0
H1856 H 0.48889 0.89367 0.01408 0.0
H1857 H 0.54904 0.93867 0.06875 0.0
H1858 H 0.56601 0.96698 0.06245 0.0
H1859 H 0.57134 0.94545 0.05599 0.0
C1860 C 0.03389 0.22466 0.39803 0.0
C1861 C 0.01515 0.21118 0.38916 0.0
C1862 C 0.05396 0.24249 0.39223 0.0
C1863 C 0.05543 0.24717 0.37716 0.0
C1864 C 0.03661 0.23359 0.36815 0.0
C1865 C 0.01681 0.21581 0.37423 0.0
C1866 C 0.0736 0.25645 0.40226 0.0
C1867 C 0.03735 0.23786 0.35207 0.0
C1868 C 0.09841 0.30699 0.36662 0.0
C1869 C 0.11722 0.30523 0.36226 0.0
C1870 C 0.07796 0.28814 0.37092 0.0
C1871 C 0.07626 0.26689 0.37104 0.0
C1872 C 0.09495 0.2649 0.3661 0.0
C1873 C 0.11526 0.2841 0.36189 0.0
C1874 C 0.05844 0.2911 0.37586 0.0
C1875 C 0.09391 0.24263 0.36583 0.0
H1876 H 0.03299 0.22111 0.40953 0.0
H1877 H 1.0024 0.20571 0.36726 0.0
H1878 H 0.08913 0.25648 0.39847 0.0
H1879 H 0.07732 0.27397 0.40209 0.0
H1880 H 0.07009 0.25029 0.41361 0.0
H1881 H 0.02078 0.22687 0.34671 0.0
H1882 H 0.04222 0.25547 0.34999 0.0
H1883 H 0.05046 0.23497 0.34701 0.0
H1884 H 0.09991 0.32332 0.36703 0.0
H1885 H 0.12983 0.28262 0.35883 0.0
H1886 H 0.05513 0.28692 0.38754 0.0
H1887 H 0.04271 0.27956 0.36987 0.0
H1888 H 0.0619 0.30842 0.37422 0.0
H1889 H 0.09306 0.23662 0.37709 0.0
H1890 H 0.10896 0.24355 0.36039 0.0
H1891 H 0.07834 0.23011 0.36014 0.0
C1892 C 0.79661 0.80159 0.37561 0.0
C1893 C 0.80154 0.80396 0.39052 0.0
C1894 C 0.77888 0.80423 0.36981 0.0
C1895 C 0.7657 0.80966 0.37906 0.0
C1896 C 0.77074 0.81237 0.3941 0.0
C1897 C 0.78852 0.8095 0.39963 0.0
C1898 C 0.77461 0.80159 0.35371 0.0
C1899 C 0.75715 0.81808 0.4044 0.0
C1900 C 0.73064 0.83453 0.36377 0.0
C1901 C 0.70865 0.8159 0.36343 0.0
C1902 C 0.74946 0.83267 0.36839 0.0
C1903 C 0.74619 0.81178 0.37314 0.0
C1904 C 0.72402 0.79288 0.37261 0.0
C1905 C 0.70559 0.79519 0.36781 0.0
C1906 C 0.77274 0.85319 0.36846 0.0
C1907 C 0.71971 0.77023 0.37734 0.0
H1908 H 0.80683 0.79789 0.36836 0.0
H1909 H 0.79195 0.81121 0.41117 0.0
H1910 H 0.75614 0.79171 0.35131 0.0
H1911 H 0.78127 0.81832 0.34879 0.0
H1912 H 0.78325 0.7934 0.34845 0.0
H1913 H 0.76349 0.82018 0.41572 0.0
H1914 H 0.7578 0.83372 0.4009 0.0
H1915 H 0.73903 0.80473 0.40421 0.0
H1916 H 0.73312 0.8507 0.36074 0.0
H1917 H 0.6886 0.78079 0.36772 0.0
H1918 H 0.78476 0.85014 0.36209 0.0
H1919 H 0.77932 0.85705 0.37973 0.0
H1920 H 0.77259 0.86796 0.36386 0.0
H1921 H 0.73056 0.76553 0.371 0.0
H1922 H 0.70164 0.7571 0.37593 0.0
H1923 H 0.72437 0.77076 0.38892 0.0
C1924 C 0.1953 0.98793 0.3993 0.0
C1925 C 0.21595 0.00776 0.39707 0.0
C1926 C 0.19044 0.96816 0.39209 0.0
C1927 C 0.20655 0.96819 0.38232 0.0
C1928 C 0.22707 0.98833 0.37963 0.0
C1929 C 0.23156 0.00782 0.38707 0.0
C1930 C 0.16845 0.94704 0.39538 0.0
C1931 C 0.24457 0.98916 0.36918 0.0
C1932 C 0.20625 0.9136 0.37704 0.0
C1933 C 0.19432 0.90564 0.36392 0.0
C1934 C 0.21041 0.93391 0.38304 0.0
C1935 C 0.20264 0.94686 0.37575 0.0
C1936 C 0.19084 0.93915 0.36244 0.0
C1937 C 0.18665 0.91858 0.35677 0.0
C1938 C 0.22284 0.94132 0.39734 0.0
C1939 C 0.18237 0.95248 0.35426 0.0
H1940 H 0.18325 0.98766 0.4071 0.0
H1941 H 0.24741 0.02314 0.38513 0.0
H1942 H 0.15922 0.93921 0.38519 0.0
H1943 H 0.17218 0.9349 0.40081 0.0
H1944 H 0.15709 0.95006 0.40251 0.0
H1945 H 0.25884 0.00641 0.36746 0.0
H1946 H 0.25161 0.97884 0.37339 0.0
H1947 H 0.23653 0.98209 0.35856 0.0
H1948 H 0.21209 0.90378 0.38284 0.0
H1949 H 0.17704 0.91253 0.34685 0.0
H1950 H 0.21184 0.94308 0.40549 0.0
H1951 H 0.23833 0.95789 0.39611 0.0
H1952 H 0.22792 0.92942 0.40159 0.0
H1953 H 0.16958 0.954 0.36088 0.0
H1954 H 0.1745 0.94475 0.34371 0.0
H1955 H 0.19662 0.96961 0.35224 0.0
C1956 C 0.5477 0.69415 0.29654 0.0
C1957 C 0.54504 0.67368 0.30125 0.0
C1958 C 0.56333 0.71433 0.30326 0.0
C1959 C 0.57667 0.71417 0.31505 0.0
C1960 C 0.5738 0.69355 0.32002 0.0
C1961 C 0.55811 0.67362 0.31306 0.0
C1962 C 0.5659 0.7359 0.29753 0.0
C1963 C 0.58748 0.69256 0.33262 0.0
C1964 C 0.63279 0.7674 0.32277 0.0
C1965 C 0.62696 0.77687 0.33426 0.0
C1966 C 0.61667 0.74702 0.31651 0.0
C1967 C 0.59409 0.73562 0.32187 0.0
C1968 C 0.58812 0.74497 0.33354 0.0
C1969 C 0.60453 0.7655 0.33949 0.0
C1970 C 0.62378 0.73781 0.30402 0.0
C1971 C 0.56431 0.73343 0.33965 0.0
H1972 H 0.53797 0.69449 0.28732 0.0
H1973 H 0.55602 0.65792 0.31692 0.0
H1974 H 0.56312 0.74512 0.30636 0.0
H1975 H 0.58348 0.74667 0.29347 0.0
H1976 H 0.55379 0.73318 0.28859 0.0
H1977 H 0.58274 0.67519 0.33551 0.0
H1978 H 0.60587 0.7019 0.32993 0.0
H1979 H 0.58499 0.70064 0.34227 0.0
H1980 H 0.64999 0.77597 0.31856 0.0
H1981 H 0.5996 0.77281 0.34809 0.0
H1982 H 0.61333 0.73608 0.29433 0.0
H1983 H 0.62075 0.72094 0.30677 0.0
H1984 H 0.64201 0.74858 0.30118 0.0
H1985 H 0.5521 0.73218 0.33118 0.0
H1986 H 0.56265 0.74236 0.34914 0.0
H1987 H 0.55935 0.7162 0.34299 0.0
C1988 C 0.33672 0.87171 0.32611 0.0
C1989 C 0.33943 0.87106 0.31105 0.0
C1990 C 0.31667 0.86961 0.33213 0.0
C1991 C 0.29865 0.86674 0.32295 0.0
C1992 C 0.30126 0.86612 0.30773 0.0
C1993 C 0.32155 0.86832 0.30198 0.0
C1994 C 0.31485 0.87059 0.34835 0.0
C1995 C 0.28259 0.86318 0.29748 0.0
C1996 C 0.2378 0.84276 0.33722 0.0
C1997 C 0.23618 0.86203 0.33896 0.0
C1998 C 0.25823 0.84406 0.33256 0.0
C1999 C 0.27738 0.86509 0.32918 0.0
C2000 C 0.27587 0.8846 0.33122 0.0
C2001 C 0.25534 0.88281 0.33603 0.0
C2002 C 0.25908 0.82284 0.33085 0.0
C2003 C 0.29571 0.90737 0.32782 0.0
H2004 H 0.35048 0.87419 0.33326 0.0
H2005 H 0.32328 0.86758 0.29035 0.0
H2006 H 0.31288 0.88503 0.35134 0.0
H2007 H 0.29951 0.85536 0.35219 0.0
H2008 H 0.32995 0.87204 0.35408 0.0
H2009 H 0.2871 0.86284 0.28595 0.0
H2010 H 0.26671 0.84743 0.29998 0.0
H2011 H 0.27894 0.87699 0.29895 0.0
H2012 H 0.2229 0.82661 0.33911 0.0
H2013 H 0.25406 0.89772 0.33715 0.0
H2014 H 0.27398 0.82415 0.33673 0.0
H2015 H 0.26115 0.82017 0.31923 0.0
H2016 H 0.24344 0.80806 0.33498 0.0
H2017 H 0.3111 0.91004 0.33376 0.0
H2018 H 0.29224 0.92095 0.3307 0.0
H2019 H 0.29965 0.90855 0.31607 0.0
C2020 C 0.15664 0.4724 0.30303 0.0
C2021 C 0.141 0.47686 0.31004 0.0
C2022 C 0.16097 0.45571 0.30814 0.0
C2023 C 0.14936 0.44308 0.32054 0.0
C2024 C 0.13344 0.44738 0.32761 0.0
C2025 C 0.12946 0.46418 0.32229 0.0
C2026 C 0.17812 0.4517 0.3003 0.0
C2027 C 0.12057 0.43423 0.3408 0.0
C2028 C 0.14491 0.38653 0.32631 0.0
C2029 C 0.16194 0.39145 0.33669 0.0
C2030 C 0.14068 0.40314 0.32097 0.0
C2031 C 0.15375 0.42528 0.32611 0.0
C2032 C 0.17096 0.43037 0.33658 0.0
C2033 C 0.1749 0.41346 0.34169 0.0
C2034 C 0.1222 0.39698 0.30979 0.0
C2035 C 0.1853 0.45373 0.34237 0.0
H2036 H 0.16585 0.48226 0.29368 0.0
H2037 H 0.1171 0.46725 0.32766 0.0
H2038 H 0.19205 0.45438 0.30781 0.0
H2039 H 0.16994 0.43415 0.29657 0.0
H2040 H 0.18563 0.46284 0.29078 0.0
H2041 H 0.10882 0.43966 0.34509 0.0
H2042 H 0.11055 0.41625 0.33809 0.0
H2043 H 0.1327 0.43606 0.3495 0.0
H2044 H 0.13481 0.36965 0.32232 0.0
H2045 H 0.18837 0.41759 0.3495 0.0
H2046 H 0.12951 0.40696 0.2998 0.0
H2047 H 0.10928 0.40094 0.31394 0.0
H2048 H 0.11355 0.37903 0.3069 0.0
H2049 H 0.19463 0.46533 0.33334 0.0
H2050 H 0.19783 0.4549 0.3506 0.0
H2051 H 0.17424 0.45944 0.34735 0.0
C2052 C 0.33437 0.46566 0.32596 0.0
C2053 C 0.33622 0.47027 0.31102 0.0
C2054 C 0.31442 0.44799 0.33197 0.0
C2055 C 0.29566 0.43451 0.32289 0.0
C2056 C 0.29732 0.43919 0.30782 0.0
C2057 C 0.31753 0.4569 0.30208 0.0
C2058 C 0.31348 0.44371 0.34806 0.0
C2059 C 0.27775 0.42534 0.29773 0.0
C2060 C 0.2523 0.37477 0.3333 0.0
C2061 C 0.23351 0.37667 0.33754 0.0
C2062 C 0.27286 0.39356 0.32909 0.0
C2063 C 0.2747 0.41487 0.32894 0.0
C2064 C 0.25603 0.41699 0.33377 0.0
C2065 C 0.23561 0.39786 0.33789 0.0
C2066 C 0.29235 0.39046 0.32429 0.0
C2067 C 0.25723 0.43933 0.334 0.0
H2068 H 0.34873 0.47567 0.33298 0.0
H2069 H 0.31859 0.46045 0.29058 0.0
H2070 H 0.30041 0.44675 0.35303 0.0
H2071 H 0.30845 0.42607 0.35017 0.0
H2072 H 0.33002 0.4546 0.35349 0.0
H2073 H 0.28141 0.4315 0.28638 0.0
H2074 H 0.27392 0.40778 0.2979 0.0
H2075 H 0.26224 0.42542 0.30143 0.0
H2076 H 0.25068 0.3584 0.33292 0.0
H2077 H 0.22106 0.39943 0.34086 0.0
H2078 H 0.30804 0.40193 0.33034 0.0
H2079 H 0.29583 0.39465 0.31262 0.0
H2080 H 0.28876 0.37311 0.32595 0.0
H2081 H 0.27279 0.45178 0.33974 0.0
H2082 H 0.24218 0.4385 0.33937 0.0
H2083 H 0.25822 0.44536 0.32273 0.0
C2084 C 0.5649 0.86769 0.29499 0.0
C2085 C 0.5504 0.87332 0.30242 0.0
C2086 C 0.58093 0.86408 0.30239 0.0
C2087 C 0.58268 0.86606 0.31768 0.0
C2088 C 0.56749 0.87084 0.32533 0.0
C2089 C 0.55154 0.87436 0.31763 0.0
C2090 C 0.59656 0.85885 0.29374 0.0
C2091 C 0.56855 0.87284 0.34162 0.0
C2092 C 0.61819 0.84328 0.33513 0.0
C2093 C 0.6397 0.86251 0.33594 0.0
C2094 C 0.5991 0.84429 0.33005 0.0
C2095 C 0.60165 0.86495 0.32536 0.0
C2096 C 0.62322 0.88449 0.32668 0.0
C2097 C 0.64191 0.883 0.33189 0.0
C2098 C 0.57647 0.82305 0.32908 0.0
C2099 C 0.62685 0.90691 0.32194 0.0
H2100 H 0.56387 0.86631 0.28328 0.0
H2101 H 0.5405 0.87871 0.32351 0.0
H2102 H 0.61439 0.87257 0.29496 0.0
H2103 H 0.59574 0.84343 0.2979 0.0
H2104 H 0.59223 0.85664 0.28201 0.0
H2105 H 0.55523 0.87605 0.34603 0.0
H2106 H 0.56643 0.85729 0.34653 0.0
H2107 H 0.58547 0.88661 0.34498 0.0
H2108 H 0.61643 0.82731 0.33801 0.0
H2109 H 0.65853 0.89789 0.33241 0.0
H2110 H 0.57263 0.81792 0.31757 0.0
H2111 H 0.56263 0.82565 0.33322 0.0
H2112 H 0.57641 0.80926 0.3353 0.0
H2113 H 0.62462 0.90693 0.31002 0.0
H2114 H 0.6441 0.92072 0.32476 0.0
H2115 H 0.61403 0.91021 0.32703 0.0
C2116 C 0.11355 0.67995 0.30465 0.0
C2117 C 0.12785 0.67071 0.30523 0.0
C2118 C 0.1187 0.69937 0.31238 0.0
C2119 C 0.13859 0.70987 0.32102 0.0
C2120 C 0.15248 0.70002 0.32227 0.0
C2121 C 0.14698 0.6806 0.31435 0.0
C2122 C 0.10338 0.70924 0.31072 0.0
C2123 C 0.17377 0.71059 0.33143 0.0
C2124 C 0.16566 0.77268 0.3244 0.0
C2125 C 0.15804 0.77521 0.33803 0.0
C2126 C 0.15983 0.75161 0.31895 0.0
C2127 C 0.14609 0.73236 0.32734 0.0
C2128 C 0.1388 0.73475 0.34128 0.0
C2129 C 0.14472 0.75614 0.34643 0.0
C2130 C 0.16799 0.74996 0.30402 0.0
C2131 C 0.1243 0.71468 0.35062 0.0
H2132 H 0.09845 0.67218 0.29791 0.0
H2133 H 0.15822 0.67371 0.31485 0.0
H2134 H 0.09859 0.71264 0.32151 0.0
H2135 H 0.11262 0.72539 0.3049 0.0
H2136 H 0.08761 0.69813 0.3046 0.0
H2137 H 0.18113 0.69952 0.33275 0.0
H2138 H 0.18672 0.72634 0.32628 0.0
H2139 H 0.17014 0.71485 0.34232 0.0
H2140 H 0.17614 0.78727 0.31783 0.0
H2141 H 0.13847 0.75784 0.35686 0.0
H2142 H 0.15317 0.74033 0.29678 0.0
H2143 H 0.17759 0.74089 0.30458 0.0
H2144 H 0.17909 0.76656 0.29906 0.0
H2145 H 0.10733 0.70456 0.34554 0.0
H2146 H 0.12195 0.71942 0.36171 0.0
H2147 H 0.1321 0.70395 0.35148 0.0
C2148 C 0.80176 0.9851 0.40566 0.0
C2149 C 0.80713 0.00587 0.39974 0.0
C2150 C 0.78597 0.96502 0.39891 0.0
C2151 C 0.77517 0.96556 0.38588 0.0
C2152 C 0.78073 0.98644 0.37973 0.0
C2153 C 0.79656 0.00628 0.38672 0.0
C2154 C 0.78052 0.94317 0.4059 0.0
C2155 C 0.76977 0.98782 0.36581 0.0
C2156 C 0.74757 0.91311 0.36243 0.0
C2157 C 0.72449 0.90347 0.36618 0.0
C2158 C 0.76416 0.93338 0.36857 0.0
C2159 C 0.75767 0.94429 0.3789 0.0
C2160 C 0.73442 0.93465 0.38275 0.0
C2161 C 0.71817 0.91443 0.37637 0.0
C2162 C 0.78869 0.943 0.36411 0.0
C2163 C 0.72671 0.94561 0.39374 0.0
H2164 H 0.80952 0.9845 0.4158 0.0
H2165 H 0.80074 0.02217 0.38193 0.0
H2166 H 0.76224 0.93373 0.40887 0.0
H2167 H 0.78361 0.93278 0.39812 0.0
H2168 H 0.79082 0.94554 0.4158 0.0
H2169 H 0.77633 0.00529 0.36221 0.0
H2170 H 0.77282 0.97863 0.35708 0.0
H2171 H 0.75109 0.97979 0.36728 0.0
H2172 H 0.75281 0.90468 0.3548 0.0
H2173 H 0.70048 0.90718 0.37946 0.0
H2174 H 0.79909 0.94389 0.37364 0.0
H2175 H 0.7955 0.96025 0.36002 0.0
H2176 H 0.79085 0.93294 0.35555 0.0
H2177 H 0.73522 0.94705 0.40428 0.0
H2178 H 0.708 0.93617 0.39543 0.0
H2179 H 0.73168 0.96274 0.39015 0.0
C2180 C 0.03505 0.81224 0.40151 0.0
C2181 C 0.01488 0.80662 0.39397 0.0
C2182 C 0.05528 0.81749 0.39418 0.0
C2183 C 0.05561 0.81712 0.37882 0.0
C2184 C 0.03545 0.81185 0.37109 0.0
C2185 C 0.01537 0.80677 0.37873 0.0
C2186 C 0.07634 0.82326 0.40294 0.0
C2187 C 0.03501 0.81119 0.35474 0.0
C2188 C 0.11577 0.84895 0.36351 0.0
C2189 C 0.12119 0.83202 0.36207 0.0
C2190 C 0.09387 0.84417 0.3678 0.0
C2191 C 0.07709 0.82191 0.37111 0.0
C2192 C 0.08221 0.80462 0.36891 0.0
C2193 C 0.10428 0.80992 0.36463 0.0
C2194 C 0.08932 0.86319 0.36987 0.0
C2195 C 0.06492 0.78064 0.3721 0.0
H2196 H 0.03504 0.8126 0.41325 0.0
H2197 H 0.99991 0.80236 0.37278 0.0
H2198 H 0.08203 0.81107 0.40068 0.0
H2199 H 0.09039 0.83995 0.39977 0.0
H2200 H 0.07345 0.82328 0.41479 0.0
H2201 H 0.01829 0.80756 0.35028 0.0
H2202 H 0.0484 0.82736 0.35032 0.0
H2203 H 0.0388 0.79823 0.35089 0.0
H2204 H 0.12904 0.86613 0.36195 0.0
H2205 H 0.10868 0.79689 0.36405 0.0
H2206 H 0.08903 0.86636 0.38163 0.0
H2207 H 0.07249 0.85897 0.36535 0.0
H2208 H 0.10258 0.87876 0.36466 0.0
H2209 H 0.06266 0.77822 0.384 0.0
H2210 H 0.07026 0.76899 0.36779 0.0
H2211 H 0.04817 0.77628 0.36736 0.0
C2212 C 0.19276 0.20958 0.39744 0.0
C2213 C 0.20848 0.20498 0.39067 0.0
C2214 C 0.18864 0.22629 0.39212 0.0
C2215 C 0.20056 0.23881 0.37975 0.0
C2216 C 0.21656 0.23437 0.37294 0.0
C2217 C 0.22032 0.21755 0.37847 0.0
C2218 C 0.17141 0.23046 0.39969 0.0
C2219 C 0.22974 0.24741 0.35979 0.0
C2220 C 0.17566 0.26853 0.35806 0.0
C2221 C 0.18861 0.29054 0.36305 0.0
C2222 C 0.17942 0.25158 0.36334 0.0
C2223 C 0.19641 0.25664 0.37397 0.0
C2224 C 0.20948 0.27879 0.37908 0.0
C2225 C 0.20545 0.29544 0.37357 0.0
C2226 C 0.1651 0.22821 0.35757 0.0
C2227 C 0.22772 0.28492 0.39043 0.0
H2228 H 0.18333 0.19979 0.40675 0.0
H2229 H 0.23274 0.21437 0.37328 0.0
H2230 H 0.17958 0.24803 0.40336 0.0
H2231 H 0.15766 0.22779 0.39202 0.0
H2232 H 0.16366 0.21939 0.40922 0.0
H2233 H 0.2415 0.24187 0.35571 0.0
H2234 H 0.21781 0.24558 0.35095 0.0
H2235 H 0.23979 0.2654 0.36246 0.0
H2236 H 0.16235 0.26442 0.35015 0.0
H2237 H 0.21554 0.31233 0.37755 0.0
H2238 H 0.15551 0.21668 0.36657 0.0
H2239 H 0.17621 0.22237 0.3528 0.0
H2240 H 0.15281 0.22708 0.34917 0.0
H2241 H 0.22017 0.27503 0.40042 0.0
H2242 H 0.23641 0.3029 0.39326 0.0
H2243 H 0.24065 0.28084 0.38649 0.0
C2244 C 0.69936 0.55474 0.73203 0.0
C2245 C 0.68067 0.54148 0.72306 0.0
C2246 C 0.71949 0.57269 0.72638 0.0
C2247 C 0.72107 0.57771 0.71137 0.0
C2248 C 0.70231 0.56437 0.70225 0.0
C2249 C 0.68244 0.54647 0.70818 0.0
C2250 C 0.73906 0.58639 0.73651 0.0
C2251 C 0.70318 0.56899 0.68622 0.0
C2252 C 0.76437 0.63766 0.70126 0.0
C2253 C 0.78315 0.63586 0.69688 0.0
C2254 C 0.74384 0.61879 0.70544 0.0
C2255 C 0.74201 0.59749 0.7054 0.0
C2256 C 0.76069 0.59547 0.70045 0.0
C2257 C 0.78109 0.61469 0.69639 0.0
C2258 C 0.72436 0.62179 0.71042 0.0
C2259 C 0.75952 0.57316 0.69999 0.0
H2260 H 0.69839 0.55091 0.74349 0.0
H2261 H 0.66808 0.53657 0.70114 0.0
H2262 H 0.75457 0.58638 0.73274 0.0
H2263 H 0.74288 0.60395 0.73647 0.0
H2264 H 0.73541 0.58005 0.74782 0.0
H2265 H 0.68664 0.55815 0.68077 0.0
H2266 H 0.70812 0.58665 0.6843 0.0
H2267 H 0.7163 0.56615 0.68111 0.0
H2268 H 0.76595 0.65401 0.70177 0.0
H2269 H 0.79564 0.61317 0.69333 0.0
H2270 H 0.72092 0.61736 0.72206 0.0
H2271 H 0.70865 0.61044 0.70434 0.0
H2272 H 0.72794 0.63917 0.70894 0.0
H2273 H 0.75848 0.56689 0.7112 0.0
H2274 H 0.7746 0.5741 0.69458 0.0
H2275 H 0.74398 0.56082 0.69417 0.0
C2276 C 0.4609 0.14776 0.7313 0.0
C2277 C 0.47406 0.14236 0.72223 0.0
C2278 C 0.44296 0.15034 0.72574 0.0
C2279 C 0.43786 0.14741 0.71072 0.0
C2280 C 0.45125 0.14223 0.7015 0.0
C2281 C 0.46916 0.1399 0.70732 0.0
C2282 C 0.42918 0.15582 0.73603 0.0
C2283 C 0.44679 0.13925 0.68542 0.0
C2284 C 0.37692 0.13093 0.70035 0.0
C2285 C 0.37906 0.15132 0.69607 0.0
C2286 C 0.39597 0.12934 0.70466 0.0
C2287 C 0.41784 0.14867 0.70485 0.0
C2288 C 0.42019 0.16922 0.7001 0.0
C2289 C 0.40078 0.17034 0.69592 0.0
C2290 C 0.39258 0.10702 0.7094 0.0
C2291 C 0.44312 0.19021 0.69987 0.0
H2292 H 0.46428 0.14952 0.74285 0.0
H2293 H 0.47948 0.13629 0.7001 0.0
H2294 H 0.42918 0.17108 0.73234 0.0
H2295 H 0.41124 0.14206 0.73606 0.0
H2296 H 0.43581 0.15847 0.74729 0.0
H2297 H 0.45691 0.13279 0.67998 0.0
H2298 H 0.42849 0.12764 0.68327 0.0
H2299 H 0.45129 0.15557 0.68052 0.0
H2300 H 0.36015 0.11622 0.70059 0.0
H2301 H 0.40256 0.18626 0.69294 0.0
H2302 H 0.39733 0.10776 0.72099 0.0
H2303 H 0.40384 0.10284 0.70308 0.0
H2304 H 0.3747 0.09341 0.70802 0.0
H2305 H 0.44236 0.20441 0.69482 0.0
H2306 H 0.45553 0.18738 0.69379 0.0
H2307 H 0.4496 0.19485 0.7111 0.0
C2308 C 0.85854 0.31383 0.73979 0.0
C2309 C 0.87517 0.33519 0.73522 0.0
C2310 C 0.85429 0.29468 0.73203 0.0
C2311 C 0.86693 0.29684 0.71933 0.0
C2312 C 0.88323 0.31837 0.71439 0.0
C2313 C 0.88716 0.33727 0.72238 0.0
C2314 C 0.83667 0.27208 0.73766 0.0
C2315 C 0.89705 0.32142 0.7009 0.0
C2316 C 0.87351 0.24702 0.7095 0.0
C2317 C 0.85691 0.23651 0.6987 0.0
C2318 C 0.87717 0.26681 0.71608 0.0
C2319 C 0.86399 0.2765 0.71177 0.0
C2320 C 0.84751 0.26625 0.70067 0.0
C2321 C 0.8441 0.24635 0.69433 0.0
C2322 C 0.89487 0.27712 0.72789 0.0
C2323 C 0.83312 0.27602 0.69571 0.0
H2324 H 0.84889 0.31205 0.74954 0.0
H2325 H 0.90017 0.35364 0.71881 0.0
H2326 H 0.82407 0.26261 0.72906 0.0
H2327 H 0.84499 0.26235 0.74072 0.0
H2328 H 0.82749 0.27327 0.74727 0.0
H2329 H 0.90788 0.33925 0.69792 0.0
H2330 H 0.90818 0.31413 0.70263 0.0
H2331 H 0.88566 0.31246 0.69165 0.0
H2332 H 0.88354 0.23964 0.713 0.0
H2333 H 0.83102 0.23828 0.68615 0.0
H2334 H 0.88661 0.27729 0.73822 0.0
H2335 H 0.90732 0.29467 0.72513 0.0
H2336 H 0.90423 0.26795 0.72966 0.0
H2337 H 0.82204 0.27544 0.70472 0.0
H2338 H 0.8222 0.26692 0.68629 0.0
H2339 H 0.84411 0.29377 0.69268 0.0
C2340 C 0.21467 0.02639 0.62984 0.0
C2341 C 0.2105 0.00587 0.63556 0.0
C2342 C 0.23039 0.04671 0.63638 0.0
C2343 C 0.2423 0.04666 0.649 0.0
C2344 C 0.23789 0.02602 0.65498 0.0
C2345 C 0.22213 0.00594 0.6482 0.0
C2346 C 0.2346 0.06829 0.62957 0.0
C2347 C 0.25004 0.02516 0.66847 0.0
C2348 C 0.2992 0.09882 0.65712 0.0
C2349 C 0.29322 0.10959 0.66766 0.0
C2350 C 0.28287 0.07836 0.65105 0.0
C2351 C 0.2599 0.06822 0.65563 0.0
C2352 C 0.25376 0.07889 0.66635 0.0
C2353 C 0.27042 0.09945 0.67214 0.0
C2354 C 0.2902 0.06767 0.63963 0.0
C2355 C 0.22954 0.06873 0.6716 0.0
H2356 H 0.20609 0.02663 0.61999 0.0
H2357 H 0.21886 0.99023 0.65284 0.0
H2358 H 0.23174 0.07847 0.63765 0.0
H2359 H 0.25258 0.07813 0.62602 0.0
H2360 H 0.22342 0.06552 0.62007 0.0
H2361 H 0.24416 0.0078 0.67207 0.0
H2362 H 0.26862 0.03357 0.66643 0.0
H2363 H 0.24733 0.03425 0.67742 0.0
H2364 H 0.31669 0.10642 0.6535 0.0
H2365 H 0.26543 0.1077 0.68007 0.0
H2366 H 0.28076 0.0658 0.62941 0.0
H2367 H 0.28604 0.05074 0.64316 0.0
H2368 H 0.30872 0.07755 0.63733 0.0
H2369 H 0.21829 0.06743 0.66246 0.0
H2370 H 0.2277 0.07866 0.68039 0.0
H2371 H 0.22349 0.0516 0.67567 0.0
C2372 C 1.00247 0.20605 0.65924 0.0
C2373 C 1.00452 0.20376 0.64426 0.0
C2374 C 0.9823 0.20361 0.6653 0.0
C2375 C 0.96344 0.19854 0.65625 0.0
C2376 C 0.96519 0.19574 0.64117 0.0
C2377 C 0.98562 0.1984 0.63538 0.0
C2378 C 0.9812 0.20642 0.68143 0.0
C2379 C 0.94558 0.19038 0.63107 0.0
C2380 C 0.90324 0.17599 0.67128 0.0
C2381 C 0.90109 0.19511 0.67114 0.0
C2382 C 0.9237 0.17696 0.66707 0.0
C2383 C 0.94236 0.19745 0.66232 0.0
C2384 C 0.94042 0.2169 0.66262 0.0
C2385 C 0.91985 0.21546 0.66695 0.0
C2386 C 0.92498 0.15584 0.66718 0.0
C2387 C 0.95987 0.23918 0.6579 0.0
H2388 H 0.01668 0.20965 0.6663 0.0
H2389 H 0.98694 0.19676 0.6238 0.0
H2390 H 0.97524 0.21837 0.68375 0.0
H2391 H 0.96879 0.19018 0.68629 0.0
H2392 H 0.99793 0.2124 0.68679 0.0
H2393 H 0.9492 0.1877 0.61975 0.0
H2394 H 0.93006 0.17518 0.63484 0.0
H2395 H 0.9418 0.20422 0.63116 0.0
H2396 H 0.88872 0.16011 0.67421 0.0
H2397 H 0.91823 0.23026 0.66672 0.0
H2398 H 0.94052 0.15857 0.67295 0.0
H2399 H 0.92609 0.15101 0.65589 0.0
H2400 H 0.90991 0.1418 0.67247 0.0
H2401 H 0.97549 0.24312 0.66408 0.0
H2402 H 0.95612 0.25292 0.65949 0.0
H2403 H 0.96357 0.23852 0.64626 0.0
C2404 C 0.79987 0.7969 0.65356 0.0
C2405 C 0.8143 0.81088 0.6426 0.0
C2406 C 0.80262 0.77961 0.65939 0.0
C2407 C 0.8201 0.77602 0.65408 0.0
C2408 C 0.83463 0.78997 0.64295 0.0
C2409 C 0.83162 0.80725 0.6374 0.0
C2410 C 0.78691 0.76528 0.67134 0.0
C2411 C 0.85331 0.78656 0.63686 0.0
C2412 C 0.84123 0.74436 0.67725 0.0
C2413 C 0.8294 0.72285 0.6713 0.0
C2414 C 0.83812 0.76168 0.67192 0.0
C2415 C 0.82315 0.75762 0.66012 0.0
C2416 C 0.81128 0.73602 0.65399 0.0
C2417 C 0.81443 0.71891 0.65968 0.0
C2418 C 0.85101 0.7844 0.67887 0.0
C2419 C 0.79539 0.73102 0.64128 0.0
H2420 H 0.78664 0.79976 0.65777 0.0
H2421 H 0.84268 0.81779 0.62883 0.0
H2422 H 0.77767 0.74757 0.6679 0.0
H2423 H 0.79696 0.76636 0.68111 0.0
H2424 H 0.77424 0.77029 0.67433 0.0
H2425 H 0.86307 0.79873 0.62817 0.0
H2426 H 0.86528 0.78818 0.64561 0.0
H2427 H 0.84595 0.76949 0.63238 0.0
H2428 H 0.85318 0.7478 0.68599 0.0
H2429 H 0.80526 0.70245 0.6549 0.0
H2430 H 0.83895 0.78977 0.68258 0.0
H2431 H 0.86246 0.79682 0.6708 0.0
H2432 H 0.86136 0.78463 0.68827 0.0
H2433 H 0.78167 0.73458 0.6442 0.0
H2434 H 0.78749 0.71339 0.63771 0.0
H2435 H 0.80479 0.74197 0.63201 0.0
C2436 C 0.98357 0.78705 0.63662 0.0
C2437 C 1.00234 0.80036 0.64552 0.0
C2438 C 0.96336 0.76939 0.6424 0.0
C2439 C 0.96177 0.76469 0.65746 0.0
C2440 C 0.98061 0.77809 0.6665 0.0
C2441 C 1.00056 0.79572 0.66045 0.0
C2442 C 0.94369 0.75562 0.63234 0.0
C2443 C 0.97975 0.77379 0.68258 0.0
C2444 C 0.90182 0.72822 0.67268 0.0
C2445 C 0.89962 0.70699 0.67228 0.0
C2446 C 0.92223 0.74731 0.66848 0.0
C2447 C 0.9408 0.74509 0.66355 0.0
C2448 C 0.93886 0.72375 0.66366 0.0
C2449 C 0.91831 0.70501 0.66794 0.0
C2450 C 0.92353 0.76968 0.66875 0.0
C2451 C 0.95825 0.72055 0.65875 0.0
H2452 H 0.98458 0.79062 0.62512 0.0
H2453 H 0.01498 0.80568 0.66744 0.0
H2454 H 0.93977 0.73804 0.63248 0.0
H2455 H 0.92825 0.75578 0.63611 0.0
H2456 H 0.9473 0.7618 0.62099 0.0
H2457 H 0.99635 0.7846 0.68797 0.0
H2458 H 0.96678 0.77692 0.68762 0.0
H2459 H 0.97462 0.75612 0.68467 0.0
H2460 H 0.88734 0.72986 0.67575 0.0
H2461 H 0.91662 0.68861 0.66752 0.0
H2462 H 0.92446 0.77572 0.65749 0.0
H2463 H 0.93915 0.7821 0.67445 0.0
H2464 H 0.90854 0.76892 0.67418 0.0
H2465 H 0.96164 0.72475 0.64707 0.0
H2466 H 0.95459 0.70317 0.66037 0.0
H2467 H 0.97401 0.73196 0.66476 0.0
C2468 C 0.21864 0.20617 0.65234 0.0
C2469 C 0.21577 0.20359 0.63724 0.0
C2470 C 0.23544 0.20346 0.65959 0.0
C2471 C 0.24983 0.19801 0.6516 0.0
C2472 C 0.2467 0.19493 0.63641 0.0
C2473 C 0.22982 0.19777 0.62945 0.0
C2474 C 0.23785 0.2065 0.6758 0.0
C2475 C 0.26166 0.18925 0.62739 0.0
C2476 C 0.30977 0.21492 0.6644 0.0
C2477 C 0.30751 0.19453 0.6688 0.0
C2478 C 0.29096 0.21643 0.65946 0.0
C2479 C 0.26919 0.19701 0.6588 0.0
C2480 C 0.26661 0.17651 0.66385 0.0
C2481 C 0.28583 0.17546 0.66862 0.0
C2482 C 0.2946 0.23869 0.65434 0.0
C2483 C 0.24376 0.15545 0.66364 0.0
H2484 H 0.20769 0.21029 0.65854 0.0
H2485 H 0.2281 0.19604 0.61778 0.0
H2486 H 0.23358 0.19043 0.681 0.0
H2487 H 0.25569 0.21871 0.67873 0.0
H2488 H 0.22653 0.21228 0.68033 0.0
H2489 H 0.2564 0.18636 0.61583 0.0
H2490 H 0.27955 0.20304 0.62799 0.0
H2491 H 0.2612 0.17408 0.63173 0.0
H2492 H 0.32651 0.22968 0.66443 0.0
H2493 H 0.28396 0.15956 0.67173 0.0
H2494 H 0.28245 0.2426 0.65977 0.0
H2495 H 0.29132 0.238 0.64251 0.0
H2496 H 0.31218 0.25244 0.65648 0.0
H2497 H 0.23059 0.15844 0.6685 0.0
H2498 H 0.24403 0.14164 0.66963 0.0
H2499 H 0.23866 0.15012 0.65227 0.0
C2500 C 0.8297 0.03391 0.62847 0.0
C2501 C 0.81293 0.01251 0.63287 0.0
C2502 C 0.8335 0.05301 0.6361 0.0
C2503 C 0.82027 0.05076 0.64851 0.0
C2504 C 0.80379 0.02919 0.6533 0.0
C2505 C 0.80031 0.01035 0.64543 0.0
C2506 C 0.85131 0.07566 0.63065 0.0
C2507 C 0.78937 0.02606 0.66649 0.0
C2508 C 0.84218 0.10111 0.67356 0.0
C2509 C 0.82954 0.11099 0.6689 0.0
C2510 C 0.83896 0.08123 0.66731 0.0
C2511 C 0.82291 0.07106 0.65599 0.0
C2512 C 0.80991 0.0808 0.65136 0.0
C2513 C 0.81334 0.10056 0.65787 0.0
C2514 C 0.85312 0.07139 0.67263 0.0
C2515 C 0.79269 0.0706 0.63928 0.0
H2516 H 0.83983 0.03576 0.61894 0.0
H2517 H 0.78718 0.99394 0.64886 0.0
H2518 H 0.8431 0.08542 0.6274 0.0
H2519 H 0.8636 0.08506 0.63941 0.0
H2520 H 0.86083 0.07454 0.62121 0.0
H2521 H 0.77839 0.00821 0.66937 0.0
H2522 H 0.80035 0.03493 0.67592 0.0
H2523 H 0.77834 0.03339 0.66446 0.0
H2524 H 0.85495 0.10911 0.68192 0.0
H2525 H 0.80345 0.10797 0.65415 0.0
H2526 H 0.86455 0.07201 0.66384 0.0
H2527 H 0.84198 0.05362 0.67558 0.0
H2528 H 0.86366 0.08041 0.6822 0.0
H2529 H 0.80135 0.07046 0.62912 0.0
H2530 H 0.78344 0.07981 0.63725 0.0
H2531 H 0.7801 0.05304 0.64193 0.0
C2532 C 0.46529 0.33742 0.72101 0.0
C2533 C 0.47603 0.33591 0.73366 0.0
C2534 C 0.44971 0.3182 0.71332 0.0
C2535 C 0.44459 0.29685 0.71838 0.0
C2536 C 0.45578 0.29524 0.73091 0.0
C2537 C 0.47134 0.3147 0.73834 0.0
C2538 C 0.43827 0.32072 0.69999 0.0
C2539 C 0.45094 0.27288 0.73669 0.0
C2540 C 0.38734 0.24611 0.7089 0.0
C2541 C 0.39325 0.23574 0.69803 0.0
C2542 C 0.4038 0.26607 0.71544 0.0
C2543 C 0.42682 0.27614 0.71099 0.0
C2544 C 0.43286 0.26597 0.69987 0.0
C2545 C 0.41608 0.24587 0.69362 0.0
C2546 C 0.39656 0.27618 0.72731 0.0
C2547 C 0.45713 0.27611 0.69472 0.0
H2548 H 0.46854 0.35361 0.71733 0.0
H2549 H 0.4798 0.31327 0.74791 0.0
H2550 H 0.44051 0.31184 0.69071 0.0
H2551 H 0.41972 0.31302 0.70194 0.0
H2552 H 0.44509 0.33845 0.69693 0.0
H2553 H 0.46161 0.27446 0.74625 0.0
H2554 H 0.43278 0.26289 0.73985 0.0
H2555 H 0.45399 0.26346 0.72813 0.0
H2556 H 0.36983 0.23853 0.71247 0.0
H2557 H 0.421 0.23793 0.68542 0.0
H2558 H 0.40143 0.29356 0.72447 0.0
H2559 H 0.40548 0.27679 0.73754 0.0
H2560 H 0.37793 0.26661 0.7293 0.0
H2561 H 0.46376 0.29374 0.69152 0.0
H2562 H 0.45881 0.26697 0.68535 0.0
H2563 H 0.46801 0.27604 0.70368 0.0
C2564 C 0.70511 0.14789 0.73695 0.0
C2565 C 0.68475 0.14208 0.72958 0.0
C2566 C 0.72472 0.15139 0.72953 0.0
C2567 C 0.7242 0.14909 0.71425 0.0
C2568 C 0.70404 0.14416 0.70664 0.0
C2569 C 0.6846 0.14077 0.71437 0.0
C2570 C 0.74582 0.15684 0.73814 0.0
C2571 C 0.70285 0.14188 0.69036 0.0
C2572 C 0.78291 0.17146 0.69704 0.0
C2573 C 0.78487 0.15225 0.69666 0.0
C2574 C 0.7627 0.17054 0.7018 0.0
C2575 C 0.74418 0.14999 0.7066 0.0
C2576 C 0.74581 0.13041 0.70557 0.0
C2577 C 0.7661 0.13181 0.70069 0.0
C2578 C 0.76178 0.19182 0.70246 0.0
C2579 C 0.72655 0.10809 0.71041 0.0
H2580 H 0.70566 0.14949 0.74865 0.0
H2581 H 0.66903 0.1363 0.70853 0.0
H2582 H 0.74966 0.1431 0.73705 0.0
H2583 H 0.76064 0.17217 0.73383 0.0
H2584 H 0.74392 0.15931 0.74984 0.0
H2585 H 0.68611 0.13834 0.68598 0.0
H2586 H 0.71636 0.15744 0.68533 0.0
H2587 H 0.70597 0.12824 0.68707 0.0
H2588 H 0.79744 0.18739 0.69419 0.0
H2589 H 0.76759 0.11694 0.70049 0.0
H2590 H 0.76385 0.19755 0.71386 0.0
H2591 H 0.74509 0.18907 0.69858 0.0
H2592 H 0.77545 0.20527 0.69586 0.0
H2593 H 0.72441 0.10823 0.72233 0.0
H2594 H 0.72961 0.09421 0.70767 0.0
H2595 H 0.71034 0.10481 0.70532 0.0
C2596 C 0.85786 0.53971 0.73233 0.0
C2597 C 0.87319 0.53463 0.72551 0.0
C2598 C 0.85395 0.55651 0.72692 0.0
C2599 C 0.86569 0.56863 0.71439 0.0
C2600 C 0.88128 0.56369 0.7075 0.0
C2601 C 0.88483 0.54678 0.71312 0.0
C2602 C 0.83714 0.5612 0.73457 0.0
C2603 C 0.89425 0.5763 0.69418 0.0
C2604 C 0.84101 0.59869 0.69284 0.0
C2605 C 0.8543 0.62073 0.69769 0.0
C2606 C 0.84461 0.58162 0.69809 0.0
C2607 C 0.86181 0.58662 0.70856 0.0
C2608 C 0.87527 0.60882 0.71351 0.0
C2609 C 0.87137 0.62557 0.70803 0.0
C2610 C 0.82986 0.55821 0.69251 0.0
C2611 C 0.89376 0.61488 0.72466 0.0
H2612 H 0.84857 0.53024 0.74178 0.0
H2613 H 0.89693 0.54321 0.70788 0.0
H2614 H 0.84568 0.57885 0.73812 0.0
H2615 H 0.82332 0.55866 0.727 0.0
H2616 H 0.82943 0.55035 0.7442 0.0
H2617 H 0.90567 0.57037 0.69004 0.0
H2618 H 0.88219 0.57452 0.68545 0.0
H2619 H 0.90465 0.59432 0.69668 0.0
H2620 H 0.82752 0.59464 0.68506 0.0
H2621 H 0.88173 0.64249 0.7119 0.0
H2622 H 0.82029 0.54692 0.70161 0.0
H2623 H 0.84064 0.552 0.68772 0.0
H2624 H 0.81752 0.55716 0.68417 0.0
H2625 H 0.88634 0.60527 0.73477 0.0
H2626 H 0.90283 0.63293 0.72732 0.0
H2627 H 0.90633 0.61038 0.72064 0.0
C2628 C 0.4785 0.9671 0.18237 0.0
C2629 C 0.47468 0.94574 0.18586 0.0
C2630 C 0.48558 0.97624 0.16843 0.0
C2631 C 0.48907 0.96384 0.15755 0.0
C2632 C 0.48531 0.94229 0.16096 0.0
C2633 C 0.47821 0.93353 0.17503 0.0
C2634 C 0.48952 0.99933 0.16538 0.0
C2635 C 0.4888 0.92847 0.14974 0.0
C2636 C 0.48993 0.98274 0.11839 0.0
C2637 C 0.51332 0.9966 0.1159 0.0
C2638 C 0.48178 0.97142 0.13169 0.0
C2639 C 0.49737 0.97386 0.1428 0.0
C2640 C 0.521 0.98707 0.1401 0.0
C2641 C 0.52864 0.99822 0.12675 0.0
C2642 C 0.45646 0.9575 0.13406 0.0
C2643 C 0.53829 0.99005 0.1515 0.0
H2644 H 0.47623 0.9769 0.19065 0.0
H2645 H 0.47507 0.91692 0.17749 0.0
H2646 H 0.50754 0.01054 0.16229 0.0
H2647 H 0.47886 0.99883 0.1561 0.0
H2648 H 0.48553 0.00661 0.17487 0.0
H2649 H 0.48494 0.91194 0.15401 0.0
H2650 H 0.47778 0.92589 0.1402 0.0
H2651 H 0.50667 0.93742 0.14588 0.0
H2652 H 0.47793 0.98145 0.11014 0.0
H2653 H 0.54676 0.00854 0.12488 0.0
H2654 H 0.45117 0.96527 0.14258 0.0
H2655 H 0.45195 0.94062 0.13794 0.0
H2656 H 0.44663 0.95583 0.12404 0.0
H2657 H 0.53658 0.99892 0.16099 0.0
H2658 H 0.55602 0.99969 0.14742 0.0
H2659 H 0.53517 0.97359 0.15537 0.0
C2660 C 0.05245 0.54066 0.18231 0.0
C2661 C 0.06604 0.5312 0.18558 0.0
C2662 C 0.04257 0.53818 0.16852 0.0
C2663 C 0.04626 0.52587 0.15767 0.0
C2664 C 0.06046 0.51681 0.16076 0.0
C2665 C 0.07019 0.51962 0.17462 0.0
C2666 C 0.02761 0.54817 0.16569 0.0
C2667 C 0.06491 0.50362 0.14952 0.0
C2668 C 1.00083 0.4984 0.12848 0.0
C2669 C 0.01056 0.51296 0.11669 0.0
C2670 C 0.01235 0.50232 0.14177 0.0
C2671 C 0.0342 0.52135 0.14342 0.0
C2672 C 0.04429 0.53598 0.1315 0.0
C2673 C 0.03239 0.53157 0.11827 0.0
C2674 C 1.00103 0.48614 0.15411 0.0
C2675 C 0.0675 0.55648 0.1328 0.0
H2676 H 0.04892 0.54945 0.19069 0.0
H2677 H 0.08101 0.5126 0.17689 0.0
H2678 H 0.03331 0.55864 0.15577 0.0
H2679 H 0.00986 0.53467 0.16377 0.0
H2680 H 0.02766 0.55852 0.17488 0.0
H2681 H 0.07725 0.49863 0.15337 0.0
H2682 H 0.04875 0.48836 0.1467 0.0
H2683 H 0.07159 0.51354 0.13944 0.0
H2684 H 0.98412 0.48379 0.1273 0.0
H2685 H 0.03996 0.54302 0.10927 0.0
H2686 H 0.99875 0.49487 0.16347 0.0
H2687 H 0.012 0.47941 0.15779 0.0
H2688 H 0.98414 0.47197 0.15103 0.0
H2689 H 0.06717 0.56767 0.14126 0.0
H2690 H 0.07325 0.56588 0.12244 0.0
H2691 H 0.08019 0.55174 0.13624 0.0
C2692 C 0.47486 0.50912 0.18213 0.0
C2693 C 0.47174 0.52713 0.18568 0.0
C2694 C 0.48245 0.5072 0.16831 0.0
C2695 C 0.48713 0.52369 0.15765 0.0
C2696 C 0.48406 0.54195 0.16113 0.0
C2697 C 0.47645 0.54346 0.17507 0.0
C2698 C 0.48562 0.48754 0.16515 0.0
C2699 C 0.4888 0.55988 0.15011 0.0
C2700 C 0.52749 0.52788 0.12751 0.0
C2701 C 0.51243 0.51537 0.11632 0.0
C2702 C 0.51953 0.5313 0.14078 0.0
C2703 C 0.49586 0.52203 0.14304 0.0
C2704 C 0.48059 0.51011 0.13161 0.0
C2705 C 0.48904 0.50695 0.1184 0.0
C2706 C 0.53648 0.54428 0.15257 0.0
C2707 C 0.45524 0.49998 0.13351 0.0
H2708 H 0.47165 0.49657 0.19026 0.0
H2709 H 0.47386 0.55731 0.1776 0.0
H2710 H 0.47521 0.47823 0.15564 0.0
H2711 H 0.50367 0.49347 0.16239 0.0
H2712 H 0.48079 0.4759 0.17449 0.0
H2713 H 0.48536 0.57287 0.15443 0.0
H2714 H 0.50683 0.56798 0.14662 0.0
H2715 H 0.47815 0.5524 0.14033 0.0
H2716 H 0.54561 0.53483 0.12594 0.0
H2717 H 0.47724 0.49717 0.1099 0.0
H2718 H 0.53383 0.53319 0.16194 0.0
H2719 H 0.53388 0.55797 0.15648 0.0
H2720 H 0.55435 0.55151 0.14883 0.0
H2721 H 0.44911 0.48665 0.14184 0.0
H2722 H 0.44576 0.4927 0.12328 0.0
H2723 H 0.45119 0.51273 0.13742 0.0
C2724 C 0.9424 0.46744 0.85987 0.0
C2725 C 0.95382 0.48385 0.84924 0.0
C2726 C 0.95189 0.4693 0.87374 0.0
C2727 C 0.97336 0.48797 0.87708 0.0
C2728 C 0.98498 0.50452 0.86638 0.0
C2729 C 0.9751 0.50227 0.85264 0.0
C2730 C 0.9389 0.45133 0.88484 0.0
C2731 C 1.00798 0.5246 0.86942 0.0
C2732 C 0.99214 0.50536 0.91619 0.0
C2733 C 1.00732 0.4974 0.9184 0.0
C2734 C 0.98046 0.50186 0.90296 0.0
C2735 C 0.984 0.49012 0.89164 0.0
C2736 C 0.99872 0.48144 0.89398 0.0
C2737 C 0.01014 0.48515 0.9073 0.0
C2738 C 0.96488 0.51135 0.90093 0.0
C2739 C 1.00291 0.46871 0.88227 0.0
H2740 H 0.92585 0.45329 0.85742 0.0
H2741 H 0.98423 0.51486 0.84446 0.0
H2742 H 0.9492 0.44378 0.88837 0.0
H2743 H 0.93565 0.45867 0.89459 0.0
H2744 H 0.92237 0.43793 0.88059 0.0
H2745 H 0.01468 0.53613 0.86001 0.0
H2746 H 1.00686 0.5339 0.87886 0.0
H2747 H 0.02036 0.51916 0.87224 0.0
H2748 H 0.98995 0.51498 0.92463 0.0
H2749 H 0.02148 0.47856 0.90898 0.0
H2750 H 0.94791 0.4982 0.89713 0.0
H2751 H 0.97192 0.52451 0.89248 0.0
H2752 H 0.96268 0.51867 0.91108 0.0
H2753 H 0.98653 0.45461 0.87843 0.0
H2754 H 0.01394 0.46208 0.88604 0.0
H2755 H 0.01117 0.47978 0.87282 0.0
C2756 C 0.52534 0.47469 0.85189 0.0
C2757 C 0.54851 0.48259 0.84922 0.0
C2758 C 0.51769 0.47717 0.86559 0.0
C2759 C 0.53354 0.48786 0.87697 0.0
C2760 C 0.55685 0.49529 0.87447 0.0
C2761 C 0.56401 0.49253 0.8607 0.0
C2762 C 0.49268 0.46893 0.86774 0.0
C2763 C 0.57436 0.50671 0.88625 0.0
C2764 C 0.51736 0.51646 0.90609 0.0
C2765 C 0.51019 0.50108 0.91756 0.0
C2766 C 0.52526 0.51248 0.89298 0.0
C2767 C 0.52595 0.49252 0.89115 0.0
C2768 C 0.51912 0.47707 0.90278 0.0
C2769 C 0.51144 0.48158 0.91586 0.0
C2770 C 0.53265 0.52958 0.881 0.0
C2771 C 0.51947 0.45555 0.90129 0.0
H2772 H 0.51319 0.46718 0.84314 0.0
H2773 H 0.58189 0.49832 0.8589 0.0
H2774 H 0.48632 0.45793 0.8774 0.0
H2775 H 0.49008 0.48329 0.86976 0.0
H2776 H 0.48233 0.45962 0.85819 0.0
H2777 H 0.59161 0.51043 0.88286 0.0
H2778 H 0.57513 0.52257 0.88927 0.0
H2779 H 0.56944 0.49614 0.89612 0.0
H2780 H 0.51677 0.53171 0.90737 0.0
H2781 H 0.50577 0.46952 0.92461 0.0
H2782 H 0.52177 0.52209 0.87131 0.0
H2783 H 0.55041 0.53502 0.87777 0.0
H2784 H 0.53163 0.5445 0.88425 0.0
H2785 H 0.50769 0.44533 0.89251 0.0
H2786 H 0.51438 0.44564 0.91147 0.0
H2787 H 0.53673 0.45904 0.89821 0.0
C2788 C 0.55209 0.07554 0.85641 0.0
C2789 C 0.5335 0.07121 0.84751 0.0
C2790 C 0.54887 0.0659 0.87033 0.0
C2791 C 0.52653 0.0514 0.87548 0.0
C2792 C 0.50774 0.04693 0.86651 0.0
C2793 C 0.51144 0.05685 0.85273 0.0
C2794 C 0.56938 0.07123 0.87953 0.0
C2795 C 0.48364 0.0314 0.87142 0.0
C2796 C 0.51454 0.00742 0.90438 0.0
C2797 C 0.50984 0.01638 0.91668 0.0
C2798 C 0.5208 0.01898 0.89111 0.0
C2799 C 0.52259 0.0402 0.88999 0.0
C2800 C 0.51894 0.04983 0.90253 0.0
C2801 C 0.51263 0.03783 0.91571 0.0
C2802 C 0.52462 0.00804 0.87811 0.0
C2803 C 0.52079 0.07244 0.9019 0.0
H2804 H 0.56918 0.08675 0.85258 0.0
H2805 H 0.49694 0.05307 0.84589 0.0
H2806 H 0.5683 0.07844 0.89002 0.0
H2807 H 0.56973 0.05573 0.882 0.0
H2808 H 0.58559 0.08316 0.87412 0.0
H2809 H 0.47086 0.02996 0.8633 0.0
H2810 H 0.4812 0.01455 0.87346 0.0
H2811 H 0.48033 0.0374 0.88177 0.0
H2812 H 0.51292 0.99107 0.90505 0.0
H2813 H 0.50897 0.04491 0.92508 0.0
H2814 H 0.5413 0.01945 0.87306 0.0
H2815 H 0.51132 0.00443 0.86984 0.0
H2816 H 0.5241 0.99221 0.88096 0.0
H2817 H 0.53715 0.08477 0.89686 0.0
H2818 H 0.51959 0.07854 0.9128 0.0
H2819 H 0.50694 0.07155 0.89501 0.0
C2820 C 0.14692 0.26728 0.50846 0.0
C2821 C 0.14294 0.27923 0.51925 0.0
C2822 C 0.15387 0.27607 0.49438 0.0
C2823 C 0.15698 0.29737 0.49091 0.0
C2824 C 0.15307 0.30952 0.50176 0.0
C2825 C 0.14619 0.30038 0.51572 0.0
C2826 C 0.15785 0.26253 0.48319 0.0
C2827 C 0.1563 0.33234 0.49866 0.0
C2828 C 0.1959 0.33239 0.46005 0.0
C2829 C 0.18034 0.33032 0.44924 0.0
C2830 C 0.18857 0.32118 0.4734 0.0
C2831 C 0.16501 0.30741 0.47614 0.0
C2832 C 0.14922 0.30449 0.46505 0.0
C2833 C 0.15706 0.31591 0.45175 0.0
C2834 C 0.20608 0.32469 0.48478 0.0
C2835 C 0.12397 0.28998 0.46746 0.0
H2836 H 0.14424 0.25085 0.51095 0.0
H2837 H 0.14358 0.31 0.52397 0.0
H2838 H 0.14666 0.25953 0.47367 0.0
H2839 H 0.17567 0.27192 0.47927 0.0
H2840 H 0.15455 0.2462 0.48751 0.0
H2841 H 0.15206 0.33944 0.50814 0.0
H2842 H 0.17422 0.34391 0.49553 0.0
H2843 H 0.14544 0.33146 0.48939 0.0
H2844 H 0.21396 0.34313 0.45815 0.0
H2845 H 0.14487 0.31425 0.44353 0.0
H2846 H 0.20346 0.30842 0.48869 0.0
H2847 H 0.20411 0.33343 0.49425 0.0
H2848 H 0.22375 0.3347 0.48065 0.0
H2849 H 0.11999 0.27327 0.47138 0.0
H2850 H 0.11401 0.28795 0.45744 0.0
H2851 H 0.11834 0.29748 0.47596 0.0
C2852 C 0.75226 0.85524 0.50594 0.0
C2853 C 0.74543 0.86538 0.51642 0.0
C2854 C 0.74357 0.85154 0.49177 0.0
C2855 C 0.72766 0.85822 0.48785 0.0
C2856 C 0.72149 0.86942 0.49814 0.0
C2857 C 0.73043 0.87285 0.51231 0.0
C2858 C 0.75073 0.83963 0.48116 0.0
C2859 C 0.7047 0.87692 0.49439 0.0
C2860 C 0.71605 0.85708 0.44726 0.0
C2861 C 0.69706 0.8357 0.44564 0.0
C2862 C 0.72568 0.86514 0.46102 0.0
C2863 C 0.71607 0.85152 0.47344 0.0
C2864 C 0.69621 0.83042 0.47191 0.0
C2865 C 0.68698 0.82283 0.45808 0.0
C2866 C 0.74673 0.8878 0.46219 0.0
C2867 C 0.68527 0.81537 0.48482 0.0
H2868 H 0.76423 0.84985 0.50891 0.0
H2869 H 0.72497 0.88063 0.52031 0.0
H2870 H 0.73588 0.8232 0.47837 0.0
H2871 H 0.75687 0.84933 0.47096 0.0
H2872 H 0.76438 0.83688 0.48557 0.0
H2873 H 0.70371 0.88764 0.50296 0.0
H2874 H 0.70941 0.88625 0.484 0.0
H2875 H 0.68755 0.86214 0.49294 0.0
H2876 H 0.72396 0.86711 0.4377 0.0
H2877 H 0.67203 0.80647 0.45695 0.0
H2878 H 0.76154 0.88582 0.46498 0.0
H2879 H 0.7448 0.89761 0.471 0.0
H2880 H 0.7505 0.89737 0.45191 0.0
H2881 H 0.69706 0.81019 0.48938 0.0
H2882 H 0.66903 0.80017 0.48195 0.0
H2883 H 0.68186 0.82443 0.49346 0.0
C2884 C 0.12031 0.84547 0.50853 0.0
C2885 C 0.13649 0.85449 0.51973 0.0
C2886 C 0.12606 0.8411 0.49473 0.0
C2887 C 0.14856 0.84577 0.49197 0.0
C2888 C 0.16507 0.85523 0.50313 0.0
C2889 C 0.15886 0.85946 0.51682 0.0
C2890 C 0.10789 0.83099 0.4832 0.0
C2891 C 0.18927 0.86058 0.50068 0.0
C2892 C 0.15911 0.81358 0.46235 0.0
C2893 C 0.16775 0.82911 0.45095 0.0
C2894 C 0.15255 0.81868 0.47561 0.0
C2895 C 0.15463 0.83989 0.47764 0.0
C2896 C 0.16291 0.85551 0.4661 0.0
C2897 C 0.16932 0.84993 0.45291 0.0
C2898 C 0.14363 0.80142 0.48752 0.0
C2899 C 0.16543 0.87831 0.46777 0.0
H2900 H 0.1029 0.84125 0.51064 0.0
H2901 H 0.17162 0.86674 0.52526 0.0
H2902 H 0.11356 0.84131 0.47322 0.0
H2903 H 0.1049 0.8142 0.48029 0.0
H2904 H 0.09152 0.8294 0.48678 0.0
H2905 H 0.20029 0.86862 0.51026 0.0
H2906 H 0.18957 0.84506 0.49819 0.0
H2907 H 0.19661 0.87182 0.4912 0.0
H2908 H 0.15747 0.79731 0.46091 0.0
H2909 H 0.17615 0.86215 0.44426 0.0
H2910 H 0.12649 0.79793 0.49095 0.0
H2911 H 0.15493 0.80788 0.49714 0.0
H2912 H 0.1425 0.78552 0.48412 0.0
H2913 H 0.14895 0.87674 0.471 0.0
H2914 H 0.17133 0.88827 0.45764 0.0
H2915 H 0.17782 0.88756 0.47653 0.0
C2916 C 0.63222 0.8063 0.1859 0.0
C2917 C 0.61905 0.81622 0.1827 0.0
C2918 C 0.64265 0.80911 0.19954 0.0
C2919 C 0.6399 0.82219 0.21026 0.0
C2920 C 0.6261 0.83172 0.20725 0.0
C2921 C 0.61584 0.82859 0.19355 0.0
C2922 C 0.65717 0.79861 0.20231 0.0
C2923 C 0.62264 0.84571 0.21837 0.0
C2924 C 0.65477 0.81778 0.24962 0.0
C2925 C 0.6768 0.83623 0.25082 0.0
C2926 C 0.64253 0.81297 0.23652 0.0
C2927 C 0.65249 0.82699 0.22432 0.0
C2928 C 0.6746 0.84577 0.22553 0.0
C2929 C 0.68644 0.85014 0.23872 0.0
C2930 C 0.61905 0.79275 0.23567 0.0
C2931 C 0.68579 0.86128 0.21286 0.0
H2932 H 0.63499 0.79688 0.17759 0.0
H2933 H 0.60534 0.83597 0.19131 0.0
H2934 H 0.67514 0.81184 0.20388 0.0
H2935 H 0.65165 0.78856 0.21241 0.0
H2936 H 0.6564 0.78774 0.19324 0.0
H2937 H 0.61052 0.85104 0.2146 0.0
H2938 H 0.61615 0.83625 0.22863 0.0
H2939 H 0.63916 0.86079 0.22085 0.0
H2940 H 0.64727 0.80681 0.25885 0.0
H2941 H 0.70329 0.86462 0.2396 0.0
H2942 H 0.61869 0.78114 0.22728 0.0
H2943 H 0.60651 0.79778 0.2324 0.0
H2944 H 0.61357 0.7837 0.24616 0.0
H2945 H 0.68725 0.85189 0.20359 0.0
H2946 H 0.70304 0.87519 0.21558 0.0
H2947 H 0.67516 0.8684 0.20923 0.0
C2948 C 0.23434 0.8317 0.19263 0.0
C2949 C 0.21853 0.82021 0.18154 0.0
C2950 C 0.22733 0.83453 0.20643 0.0
C2951 C 0.20387 0.82562 0.20935 0.0
C2952 C 0.18777 0.81343 0.19837 0.0
C2953 C 0.19526 0.81089 0.18464 0.0
C2954 C 0.2451 0.84757 0.21779 0.0
C2955 C 0.1626 0.80361 0.20099 0.0
C2956 C 0.18335 0.81991 0.2486 0.0
C2957 C 0.18052 0.83856 0.25005 0.0
C2958 C 0.19107 0.81553 0.2355 0.0
C2959 C 0.19626 0.83021 0.22355 0.0
C2960 C 0.19395 0.84933 0.22509 0.0
C2961 C 0.18612 0.85323 0.23826 0.0
C2962 C 0.19323 0.79494 0.23433 0.0
C2963 C 0.19952 0.8656 0.21275 0.0
H2964 H 0.25233 0.83861 0.19051 0.0
H2965 H 0.18286 0.80217 0.17618 0.0
H2966 H 0.24463 0.86291 0.22054 0.0
H2967 H 0.24142 0.83761 0.22788 0.0
H2968 H 0.26255 0.8524 0.2141 0.0
H2969 H 0.15219 0.79335 0.19172 0.0
H2970 H 0.15741 0.79309 0.21088 0.0
H2971 H 0.15873 0.8172 0.20284 0.0
H2972 H 0.1789 0.80837 0.25759 0.0
H2973 H 0.18434 0.86787 0.23932 0.0
H2974 H 0.21072 0.79953 0.23097 0.0
H2975 H 0.18146 0.78374 0.22587 0.0
H2976 H 0.18929 0.78559 0.24472 0.0
H2977 H 0.21736 0.87214 0.20921 0.0
H2978 H 0.19726 0.8799 0.21577 0.0
H2979 H 0.18842 0.857 0.20332 0.0
C2980 C 0.21763 0.40914 0.1897 0.0
C2981 C 0.19909 0.40456 0.18066 0.0
C2982 C 0.21434 0.39957 0.20364 0.0
C2983 C 0.19199 0.38489 0.20871 0.0
C2984 C 0.17326 0.38017 0.19961 0.0
C2985 C 0.17702 0.39001 0.18579 0.0
C2986 C 0.2348 0.40516 0.21296 0.0
C2987 C 0.14915 0.36447 0.20443 0.0
C2988 C 0.18022 0.34118 0.2378 0.0
C2989 C 0.17533 0.3501 0.25004 0.0
C2990 C 0.18646 0.35266 0.22449 0.0
C2991 C 0.18801 0.37376 0.22327 0.0
C2992 C 0.18413 0.38336 0.23575 0.0
C2993 C 0.17787 0.37145 0.24896 0.0
C2994 C 0.19055 0.34177 0.21158 0.0
C2995 C 0.18568 0.40584 0.23499 0.0
H2996 H 0.23473 0.4205 0.18595 0.0
H2997 H 0.16256 0.38601 0.17887 0.0
H2998 H 0.23352 0.41237 0.2234 0.0
H2999 H 0.23531 0.38976 0.21554 0.0
H3000 H 0.25102 0.41717 0.20761 0.0
H3001 H 0.13641 0.36286 0.19623 0.0
H3002 H 0.14688 0.3477 0.20653 0.0
H3003 H 0.14563 0.37042 0.21473 0.0
H3004 H 0.17878 0.3249 0.23855 0.0
H3005 H 0.17405 0.3785 0.25828 0.0
H3006 H 0.20724 0.35328 0.20657 0.0
H3007 H 0.1773 0.33799 0.20324 0.0
H3008 H 0.19019 0.32604 0.21451 0.0
H3009 H 0.20204 0.41828 0.23002 0.0
H3010 H 0.18424 0.41192 0.24585 0.0
H3011 H 0.17184 0.40474 0.228 0.0
C3012 C 0.8102 0.59688 0.84323 0.0
C3013 C 0.80653 0.60902 0.85403 0.0
C3014 C 0.81723 0.60562 0.82914 0.0
C3015 C 0.82077 0.62708 0.82569 0.0
C3016 C 0.81712 0.63941 0.83655 0.0
C3017 C 0.81012 0.63029 0.85051 0.0
C3018 C 0.82088 0.59187 0.81794 0.0
C3019 C 0.82083 0.6624 0.83346 0.0
C3020 C 0.86036 0.66168 0.79495 0.0
C3021 C 0.84504 0.65996 0.78406 0.0
C3022 C 0.85271 0.6505 0.80829 0.0
C3023 C 0.82908 0.63713 0.81094 0.0
C3024 C 0.81351 0.63457 0.79979 0.0
C3025 C 0.82166 0.64594 0.78649 0.0
C3026 C 0.86999 0.65361 0.81973 0.0
C3027 C 0.78819 0.62048 0.8021 0.0
H3028 H 0.80724 0.58034 0.84571 0.0
H3029 H 0.80775 0.64004 0.85876 0.0
H3030 H 0.80989 0.58922 0.80837 0.0
H3031 H 0.83877 0.60093 0.81412 0.0
H3032 H 0.81711 0.57537 0.82222 0.0
H3033 H 0.81668 0.66961 0.84292 0.0
H3034 H 0.83883 0.67374 0.83041 0.0
H3035 H 0.81015 0.66178 0.82415 0.0
H3036 H 0.87847 0.67213 0.79312 0.0
H3037 H 0.80967 0.64457 0.77822 0.0
H3038 H 0.867 0.6372 0.82362 0.0
H3039 H 0.86814 0.66243 0.8292 0.0
H3040 H 0.88774 0.66337 0.81568 0.0
H3041 H 0.78381 0.60365 0.80602 0.0
H3042 H 0.7784 0.6187 0.79205 0.0
H3043 H 0.78275 0.62818 0.81058 0.0
C3044 C 0.38865 0.20707 0.8469 0.0
C3045 C 0.40218 0.19746 0.84991 0.0
C3046 C 0.3783 0.20452 0.83326 0.0
C3047 C 0.38146 0.19199 0.82232 0.0
C3048 C 0.39557 0.18275 0.82515 0.0
C3049 C 0.40577 0.18563 0.83885 0.0
C3050 C 0.36344 0.2147 0.8307 0.0
C3051 C 0.39946 0.16933 0.8138 0.0
C3052 C 0.33513 0.16464 0.79365 0.0
C3053 C 0.34466 0.17908 0.78178 0.0
C3054 C 0.347 0.16858 0.80681 0.0
C3055 C 0.36898 0.18748 0.80823 0.0
C3056 C 0.37884 0.202 0.79623 0.0
C3057 C 0.3666 0.19759 0.78315 0.0
C3058 C 0.33591 0.15252 0.81924 0.0
C3059 C 0.40219 0.22238 0.7973 0.0
H3060 H 0.38555 0.21606 0.85536 0.0
H3061 H 0.41652 0.17848 0.84094 0.0
H3062 H 0.36892 0.2251 0.82076 0.0
H3063 H 0.34559 0.2013 0.82898 0.0
H3064 H 0.36388 0.22516 0.83995 0.0
H3065 H 0.41176 0.16416 0.81744 0.0
H3066 H 0.38311 0.15417 0.81114 0.0
H3067 H 0.40593 0.17915 0.80367 0.0
H3068 H 0.31834 0.15011 0.79263 0.0
H3069 H 0.37401 0.20895 0.77409 0.0
H3070 H 0.33407 0.16141 0.82867 0.0
H3071 H 0.34682 0.14563 0.82273 0.0
H3072 H 0.31885 0.13847 0.81634 0.0
H3073 H 0.40225 0.23366 0.80583 0.0
H3074 H 0.40769 0.23173 0.78691 0.0
H3075 H 0.41486 0.21749 0.80051 0.0
C3076 C 0.788 0.18745 0.84005 0.0
C3077 C 0.8035 0.19719 0.85156 0.0
C3078 C 0.79512 0.18468 0.82627 0.0
C3079 C 0.81839 0.19191 0.82379 0.0
C3080 C 0.83425 0.20243 0.83519 0.0
C3081 C 0.82664 0.20491 0.8489 0.0
C3082 C 0.77761 0.17343 0.81447 0.0
C3083 C 0.85921 0.21047 0.83304 0.0
C3084 C 0.83427 0.16306 0.79468 0.0
C3085 C 0.84158 0.17846 0.78321 0.0
C3086 C 0.8264 0.16711 0.80777 0.0
C3087 C 0.82591 0.18717 0.80961 0.0
C3088 C 0.83287 0.20263 0.79798 0.0
C3089 C 0.84049 0.19804 0.7849 0.0
C3090 C 0.81884 0.14997 0.81974 0.0
C3091 C 0.83276 0.22427 0.79947 0.0
H3092 H 0.77015 0.1818 0.84184 0.0
H3093 H 0.83878 0.21227 0.85767 0.0
H3094 H 0.78264 0.18402 0.80461 0.0
H3095 H 0.77665 0.15749 0.81144 0.0
H3096 H 0.76041 0.16988 0.81785 0.0
H3097 H 0.8696 0.21973 0.8426 0.0
H3098 H 0.86167 0.19602 0.83103 0.0
H3099 H 0.86567 0.22147 0.82339 0.0
H3100 H 0.83475 0.14775 0.7934 0.0
H3101 H 0.84627 0.21011 0.77615 0.0
H3102 H 0.80112 0.14471 0.82297 0.0
H3103 H 0.82975 0.15736 0.82943 0.0
H3104 H 0.81966 0.13496 0.81648 0.0
H3105 H 0.81555 0.22094 0.80256 0.0
H3106 H 0.83792 0.23418 0.78929 0.0
H3107 H 0.84459 0.23442 0.80825 0.0
C3108 C 0.30934 0.16945 0.5178 0.0
C3109 C 0.28807 0.15118 0.51421 0.0
C3110 C 0.319 0.17137 0.53158 0.0
C3111 C 0.30715 0.15462 0.54213 0.0
C3112 C 0.28568 0.13609 0.53859 0.0
C3113 C 0.27643 0.13456 0.52468 0.0
C3114 C 0.34201 0.19131 0.53483 0.0
C3115 C 0.27246 0.11791 0.54953 0.0
C3116 C 0.34339 0.15106 0.57242 0.0
C3117 C 0.34054 0.16321 0.58357 0.0
C3118 C 0.33214 0.1476 0.55906 0.0
C3119 C 0.31754 0.15643 0.55673 0.0
C3120 C 0.31394 0.16804 0.56811 0.0
C3121 C 0.32547 0.1713 0.58138 0.0
C3122 C 0.3364 0.13502 0.54728 0.0
C3123 C 0.29847 0.17766 0.56611 0.0
H3124 H 0.31864 0.18221 0.50974 0.0
H3125 H 0.25988 0.12051 0.52208 0.0
H3126 H 0.34079 0.20047 0.54432 0.0
H3127 H 0.35427 0.18572 0.53767 0.0
H3128 H 0.34891 0.20301 0.52552 0.0
H3129 H 0.25596 0.10465 0.54513 0.0
H3130 H 0.28262 0.11022 0.55304 0.0
H3131 H 0.26909 0.12509 0.55931 0.0
H3132 H 0.35464 0.14436 0.57409 0.0
H3133 H 0.32325 0.18084 0.58986 0.0
H3134 H 0.34485 0.14624 0.53793 0.0
H3135 H 0.32004 0.12104 0.54331 0.0
H3136 H 0.34728 0.12822 0.55104 0.0
H3137 H 0.30569 0.191 0.55777 0.0
H3138 H 0.29615 0.1848 0.5763 0.0
H3139 H 0.28154 0.16464 0.56216 0.0
C3140 C 0.87878 0.17156 0.51891 0.0
C3141 C 0.8803 0.15275 0.515 0.0
C3142 C 0.87111 0.17343 0.53272 0.0
C3143 C 0.86471 0.15609 0.543 0.0
C3144 C 0.86617 0.13703 0.53915 0.0
C3145 C 0.87388 0.13557 0.52522 0.0
C3146 C 0.86967 0.19397 0.53625 0.0
C3147 C 0.8596 0.11818 0.54976 0.0
C3148 C 0.86259 0.17153 0.58254 0.0
C3149 C 0.83942 0.16452 0.58432 0.0
C3150 C 0.87097 0.16827 0.56933 0.0
C3151 C 0.85587 0.15774 0.55757 0.0
C3152 C 0.83236 0.14992 0.55949 0.0
C3153 C 0.82446 0.15333 0.57278 0.0
C3154 C 0.89613 0.17679 0.56781 0.0
C3155 C 0.81559 0.13851 0.54732 0.0
H3156 H 0.88332 0.18479 0.51108 0.0
H3157 H 0.87522 0.12108 0.52242 0.0
H3158 H 0.85182 0.18919 0.53879 0.0
H3159 H 0.88003 0.20225 0.54601 0.0
H3160 H 0.87569 0.20617 0.52719 0.0
H3161 H 0.86196 0.10464 0.54521 0.0
H3162 H 0.86996 0.12453 0.55977 0.0
H3163 H 0.84152 0.11106 0.55295 0.0
H3164 H 0.87435 0.1803 0.5913 0.0
H3165 H 0.80646 0.14741 0.5741 0.0
H3166 H 0.90351 0.19059 0.5598 0.0
H3167 H 0.89907 0.16341 0.56367 0.0
H3168 H 0.90535 0.18299 0.57825 0.0
H3169 H 0.81954 0.15031 0.53818 0.0
H3170 H 0.79774 0.13234 0.55077 0.0
H3171 H 0.81701 0.12423 0.54318 0.0
C3172 C 0.86192 0.7448 0.52659 0.0
C3173 C 0.86784 0.73499 0.51533 0.0
C3174 C 0.85718 0.73569 0.54068 0.0
C3175 C 0.85826 0.71617 0.54371 0.0
C3176 C 0.86486 0.70655 0.53253 0.0
C3177 C 0.86957 0.71605 0.51855 0.0
C3178 C 0.85027 0.74656 0.55222 0.0
C3179 C 0.86631 0.6858 0.53522 0.0
C3180 C 0.85962 0.69791 0.58281 0.0
C3181 C 0.83691 0.68113 0.58492 0.0
C3182 C 0.86677 0.7098 0.56961 0.0
C3183 C 0.85089 0.70484 0.5582 0.0
C3184 C 0.82785 0.68842 0.56046 0.0
C3185 C 0.82117 0.67691 0.57373 0.0
C3186 C 0.89146 0.72726 0.56773 0.0
C3187 C 0.81024 0.6826 0.54871 0.0
H3188 H 0.86022 0.75925 0.52428 0.0
H3189 H 0.8745 0.7085 0.51008 0.0
H3190 H 0.83226 0.73526 0.55528 0.0
H3191 H 0.8607 0.74955 0.56212 0.0
H3192 H 0.8521 0.76265 0.54854 0.0
H3193 H 0.87292 0.68107 0.52567 0.0
H3194 H 0.87753 0.68829 0.54464 0.0
H3195 H 0.84919 0.67171 0.53791 0.0
H3196 H 0.87197 0.70127 0.5913 0.0
H3197 H 0.8035 0.66433 0.5753 0.0
H3198 H 0.89294 0.74323 0.56413 0.0
H3199 H 0.8992 0.72195 0.55917 0.0
H3200 H 0.90138 0.73022 0.57788 0.0
H3201 H 0.80985 0.69774 0.54522 0.0
H3202 H 0.79291 0.6699 0.5523 0.0
H3203 H 0.81482 0.67608 0.53909 0.0
loop_
_geom_bond_atom_site_label_1
_geom_bond_atom_site_label_2
_geom_bond_distance
_geom_bond_site_symmetry_2
_ccdc_geom_bond_type
C0 C1 1.264 . S
C0 C5 1.479 . S
C0 C10 1.465 . S
C1 C0 1.264 . S
C1 C3 1.339 . S
C1 H28 0.931 . S
C2 C3 1.395 . S
C2 C4 1.320 . S
C3 C1 1.339 . S
C3 C2 1.395 . S
C3 H29 0.929 . S
C4 C2 1.320 . S
C4 C5 1.405 . S
C4 H30 0.930 . S
C5 C0 1.479 . S
C5 C4 1.405 . S
C5 H31 0.931 . S
U6 O7 2.454 . S
U6 O8 2.458 . S
U6 C9 2.984 . S
U6 C10 2.847 . S
U6 C23 2.882 . S
U6 O24 2.441 . S
U6 O25 2.420 . S
U6 O26 2.455 . S
U6 O27 2.449 . S
O7 U6 2.454 . S
O7 C9 1.353 . S
O8 U6 2.458 . S
O8 C9 1.286 . S
C9 U6 2.984 . S
C9 O7 1.353 . S
C9 O8 1.286 . S
C9 C11 1.363 . S
C10 C0 1.465 . S
C10 U6 2.847 . S
C10 O24 1.249 . S
C10 O25 1.202 . S
C11 C9 1.363 . S
C11 C13 1.408 . S
C11 C16 1.342 . S
C12 C13 1.310 . S
C12 C15 1.461 . S
C12 H32 0.932 . S
C13 C11 1.408 . S
C13 C12 1.310 . S
C13 H33 0.930 . S
C14 C15 1.474 . S
C14 C16 1.285 . S
C14 H34 0.929 . S
C15 C12 1.461 . S
C15 C14 1.474 . S
C16 C11 1.342 . S
C16 C14 1.285 . S
C16 H35 0.930 . S
C17 C20 1.424 . S
C17 C22 1.245 . S
C17 C23 1.428 . S
C18 C21 1.260 . S
C18 C22 1.477 . S
C18 H36 0.932 . S
C19 C20 1.384 . S
C19 C21 1.479 . S
C19 H37 0.929 . S
C20 C17 1.424 . S
C20 C19 1.384 . S
C20 H38 0.928 . S
C21 C18 1.260 . S
C21 C19 1.479 . S
C22 C17 1.245 . S
C22 C18 1.477 . S
C22 H39 0.932 . S
C23 U6 2.882 . S
C23 C17 1.428 . S
C23 O26 1.301 . S
C23 O27 1.282 . S
O24 U6 2.441 . S
O24 C10 1.249 . S
O25 U6 2.420 . S
O25 C10 1.202 . S
O26 U6 2.455 . S
O26 C23 1.301 . S
O27 U6 2.449 . S
O27 C23 1.282 . S
H28 C1 0.931 . S
H29 C3 0.929 . S
H30 C4 0.930 . S
H31 C5 0.931 . S
H32 C12 0.932 . S
H33 C13 0.930 . S
H34 C14 0.929 . S
H35 C16 0.930 . S
H36 C18 0.932 . S
H37 C19 0.929 . S
H38 C20 0.928 . S
H39 C22 0.932 . S
C40 C41 1.264 . S
C40 C45 1.479 . S
C40 C50 1.465 . S
C41 C40 1.264 . S
C41 C43 1.339 . S
C41 H68 0.931 . S
C42 C43 1.395 . S
C42 C44 1.320 . S
C43 C41 1.339 . S
C43 C42 1.395 . S
C43 H69 0.929 . S
C44 C42 1.320 . S
C44 C45 1.405 . S
C44 H70 0.930 . S
C45 C40 1.479 . S
C45 C44 1.405 . S
C45 H71 0.931 . S
U46 O47 2.454 . S
U46 O48 2.458 . S
U46 C49 2.984 . S
U46 C50 2.847 . S
U46 C63 2.882 . S
U46 O64 2.441 . S
U46 O65 2.420 . S
U46 O66 2.455 . S
U46 O67 2.449 . S
O47 U46 2.454 . S
O47 C49 1.353 . S
O48 U46 2.458 . S
O48 C49 1.286 . S
C49 U46 2.984 . S
C49 O47 1.353 . S
C49 O48 1.286 . S
C49 C51 1.363 . S
C50 C40 1.465 . S
C50 U46 2.847 . S
C50 O64 1.249 . S
C50 O65 1.202 . S
C51 C49 1.363 . S
C51 C53 1.408 . S
C51 C56 1.342 . S
C52 C53 1.310 . S
C52 C55 1.461 . S
C52 H72 0.932 . S
C53 C51 1.408 . S
C53 C52 1.310 . S
C53 H73 0.930 . S
C54 C55 1.474 . S
C54 C56 1.285 . S
C54 H74 0.929 . S
C55 C52 1.461 . S
C55 C54 1.474 . S
C56 C51 1.342 . S
C56 C54 1.285 . S
C56 H75 0.930 . S
C57 C60 1.424 . S
C57 C62 1.245 . S
C57 C63 1.428 . S
C58 C61 1.260 . S
C58 C62 1.477 . S
C58 H76 0.932 . S
C59 C60 1.384 . S
C59 C61 1.479 . S
C59 H77 0.929 . S
C60 C57 1.424 . S
C60 C59 1.384 . S
C60 H78 0.928 . S
C61 C58 1.260 . S
C61 C59 1.479 . S
C62 C57 1.245 . S
C62 C58 1.477 . S
C62 H79 0.932 . S
C63 U46 2.882 . S
C63 C57 1.428 . S
C63 O66 1.301 . S
C63 O67 1.282 . S
O64 U46 2.441 . S
O64 C50 1.249 . S
O65 U46 2.420 . S
O65 C50 1.202 . S
O66 U46 2.455 . S
O66 C63 1.301 . S
O67 U46 2.449 . S
O67 C63 1.282 . S
H68 C41 0.931 . S
H69 C43 0.929 . S
H70 C44 0.930 . S
H71 C45 0.931 . S
H72 C52 0.932 . S
H73 C53 0.930 . S
H74 C54 0.929 . S
H75 C56 0.930 . S
H76 C58 0.932 . S
H77 C59 0.929 . S
H78 C60 0.928 . S
H79 C62 0.932 . S
C80 C81 1.264 . S
C80 C85 1.479 . S
C80 C90 1.465 . S
C81 C80 1.264 . S
C81 C83 1.339 . S
C81 H108 0.931 . S
C82 C83 1.395 . S
C82 C84 1.320 . S
C83 C81 1.339 . S
C83 C82 1.395 . S
C83 H109 0.929 . S
C84 C82 1.320 . S
C84 C85 1.405 . S
C84 H110 0.930 . S
C85 C80 1.479 . S
C85 C84 1.405 . S
C85 H111 0.931 . S
U86 O87 2.454 . S
U86 O88 2.458 . S
U86 C89 2.984 . S
U86 C90 2.847 . S
U86 C103 2.882 . S
U86 O104 2.441 . S
U86 O105 2.420 . S
U86 O106 2.455 . S
U86 O107 2.449 . S
O87 U86 2.454 . S
O87 C89 1.353 . S
O88 U86 2.458 . S
O88 C89 1.286 . S
C89 U86 2.984 . S
C89 O87 1.353 . S
C89 O88 1.286 . S
C89 C91 1.363 . S
C90 C80 1.465 . S
C90 U86 2.847 . S
C90 O104 1.249 . S
C90 O105 1.202 . S
C91 C89 1.363 . S
C91 C93 1.408 . S
C91 C96 1.342 . S
C92 C93 1.310 . S
C92 C95 1.461 . S
C92 H112 0.932 . S
C93 C91 1.408 . S
C93 C92 1.310 . S
C93 H113 0.930 . S
C94 C95 1.474 . S
C94 C96 1.285 . S
C94 H114 0.929 . S
C95 C92 1.461 . S
C95 C94 1.474 . S
C96 C91 1.342 . S
C96 C94 1.285 . S
C96 H115 0.930 . S
C97 C100 1.424 . S
C97 C102 1.245 . S
C97 C103 1.428 . S
C98 C101 1.260 . S
C98 C102 1.477 . S
C98 H116 0.932 . S
C99 C100 1.384 . S
C99 C101 1.479 . S
C99 H117 0.929 . S
C100 C97 1.424 . S
C100 C99 1.384 . S
C100 H118 0.928 . S
C101 C98 1.260 . S
C101 C99 1.479 . S
C102 C97 1.245 . S
C102 C98 1.477 . S
C102 H119 0.932 . S
C103 U86 2.882 . S
C103 C97 1.428 . S
C103 O106 1.301 . S
C103 O107 1.282 . S
O104 U86 2.441 . S
O104 C90 1.249 . S
O105 U86 2.420 . S
O105 C90 1.202 . S
O106 U86 2.455 . S
O106 C103 1.301 . S
O107 U86 2.449 . S
O107 C103 1.282 . S
H108 C81 0.931 . S
H109 C83 0.929 . S
H110 C84 0.930 . S
H111 C85 0.931 . S
H112 C92 0.932 . S
H113 C93 0.930 . S
H114 C94 0.929 . S
H115 C96 0.930 . S
H116 C98 0.932 . S
H117 C99 0.929 . S
H118 C100 0.928 . S
H119 C102 0.932 . S
C120 C121 1.264 . S
C120 C125 1.479 . S
C120 C130 1.465 . S
C121 C120 1.264 . S
C121 C123 1.339 . S
C121 H148 0.931 . S
C122 C123 1.395 . S
C122 C124 1.320 . S
C123 C121 1.339 . S
C123 C122 1.395 . S
C123 H149 0.929 . S
C124 C122 1.320 . S
C124 C125 1.405 . S
C124 H150 0.930 . S
C125 C120 1.479 . S
C125 C124 1.405 . S
C125 H151 0.931 . S
U126 O127 2.454 . S
U126 O128 2.458 . S
U126 C129 2.984 . S
U126 C130 2.847 . S
U126 C143 2.882 . S
U126 O144 2.441 . S
U126 O145 2.420 . S
U126 O146 2.455 . S
U126 O147 2.449 . S
O127 U126 2.454 . S
O127 C129 1.353 . S
O128 U126 2.458 . S
O128 C129 1.286 . S
C129 U126 2.984 . S
C129 O127 1.353 . S
C129 O128 1.286 . S
C129 C131 1.363 . S
C130 C120 1.465 . S
C130 U126 2.847 . S
C130 O144 1.249 . S
C130 O145 1.202 . S
C131 C129 1.363 . S
C131 C133 1.408 . S
C131 C136 1.342 . S
C132 C133 1.310 . S
C132 C135 1.461 . S
C132 H152 0.932 . S
C133 C131 1.408 . S
C133 C132 1.310 . S
C133 H153 0.930 . S
C134 C135 1.474 . S
C134 C136 1.285 . S
C134 H154 0.929 . S
C135 C132 1.461 . S
C135 C134 1.474 . S
C136 C131 1.342 . S
C136 C134 1.285 . S
C136 H155 0.930 . S
C137 C140 1.424 . S
C137 C142 1.245 . S
C137 C143 1.428 . S
C138 C141 1.260 . S
C138 C142 1.477 . S
C138 H156 0.932 . S
C139 C140 1.384 . S
C139 C141 1.479 . S
C139 H157 0.929 . S
C140 C137 1.424 . S
C140 C139 1.384 . S
C140 H158 0.928 . S
C141 C138 1.260 . S
C141 C139 1.479 . S
C142 C137 1.245 . S
C142 C138 1.477 . S
C142 H159 0.932 . S
C143 U126 2.882 . S
C143 C137 1.428 . S
C143 O146 1.301 . S
C143 O147 1.282 . S
O144 U126 2.441 . S
O144 C130 1.249 . S
O145 U126 2.420 . S
O145 C130 1.202 . S
O146 U126 2.455 . S
O146 C143 1.301 . S
O147 U126 2.449 . S
O147 C143 1.282 . S
H148 C121 0.931 . S
H149 C123 0.929 . S
H150 C124 0.930 . S
H151 C125 0.931 . S
H152 C132 0.932 . S
H153 C133 0.930 . S
H154 C134 0.929 . S
H155 C136 0.930 . S
H156 C138 0.932 . S
H157 C139 0.929 . S
H158 C140 0.928 . S
H159 C142 0.932 . S
C160 C161 1.264 . S
C160 C165 1.479 . S
C160 C170 1.465 . S
C161 C160 1.264 . S
C161 C163 1.339 . S
C161 H188 0.931 . S
C162 C163 1.395 . S
C162 C164 1.320 . S
C163 C161 1.339 . S
C163 C162 1.395 . S
C163 H189 0.929 . S
C164 C162 1.320 . S
C164 C165 1.405 . S
C164 H190 0.930 . S
C165 C160 1.479 . S
C165 C164 1.405 . S
C165 H191 0.931 . S
U166 O167 2.454 . S
U166 O168 2.458 . S
U166 C169 2.984 . S
U166 C170 2.847 . S
U166 C183 2.882 . S
U166 O184 2.441 . S
U166 O185 2.420 . S
U166 O186 2.455 . S
U166 O187 2.449 . S
O167 U166 2.454 . S
O167 C169 1.353 . S
O168 U166 2.458 . S
O168 C169 1.286 . S
C169 U166 2.984 . S
C169 O167 1.353 . S
C169 O168 1.286 . S
C169 C171 1.363 . S
C170 C160 1.465 . S
C170 U166 2.847 . S
C170 O184 1.249 . S
C170 O185 1.202 . S
C171 C169 1.363 . S
C171 C173 1.408 . S
C171 C176 1.342 . S
C172 C173 1.310 . S
C172 C175 1.461 . S
C172 H192 0.932 . S
C173 C171 1.408 . S
C173 C172 1.310 . S
C173 H193 0.930 . S
C174 C175 1.474 . S
C174 C176 1.285 . S
C174 H194 0.929 . S
C175 C172 1.461 . S
C175 C174 1.474 . S
C176 C171 1.342 . S
C176 C174 1.285 . S
C176 H195 0.930 . S
C177 C180 1.424 . S
C177 C182 1.245 . S
C177 C183 1.428 . S
C178 C181 1.260 . S
C178 C182 1.477 . S
C178 H196 0.932 . S
C179 C180 1.384 . S
C179 C181 1.479 . S
C179 H197 0.929 . S
C180 C177 1.424 . S
C180 C179 1.384 . S
C180 H198 0.928 . S
C181 C178 1.260 . S
C181 C179 1.479 . S
C182 C177 1.245 . S
C182 C178 1.477 . S
C182 H199 0.932 . S
C183 U166 2.882 . S
C183 C177 1.428 . S
C183 O186 1.301 . S
C183 O187 1.282 . S
O184 U166 2.441 . S
O184 C170 1.249 . S
O185 U166 2.420 . S
O185 C170 1.202 . S
O186 U166 2.455 . S
O186 C183 1.301 . S
O187 U166 2.449 . S
O187 C183 1.282 . S
H188 C161 0.931 . S
H189 C163 0.929 . S
H190 C164 0.930 . S
H191 C165 0.931 . S
H192 C172 0.932 . S
H193 C173 0.930 . S
H194 C174 0.929 . S
H195 C176 0.930 . S
H196 C178 0.932 . S
H197 C179 0.929 . S
H198 C180 0.928 . S
H199 C182 0.932 . S
C200 C201 1.264 . S
C200 C205 1.479 . S
C200 C210 1.465 . S
C201 C200 1.264 . S
C201 C203 1.339 . S
C201 H228 0.931 . S
C202 C203 1.395 . S
C202 C204 1.320 . S
C203 C201 1.339 . S
C203 C202 1.395 . S
C203 H229 0.929 . S
C204 C202 1.320 . S
C204 C205 1.405 . S
C204 H230 0.930 . S
C205 C200 1.479 . S
C205 C204 1.405 . S
C205 H231 0.931 . S
U206 O207 2.454 . S
U206 O208 2.458 . S
U206 C209 2.984 . S
U206 C210 2.847 . S
U206 C223 2.882 . S
U206 O224 2.441 . S
U206 O225 2.420 . S
U206 O226 2.455 . S
U206 O227 2.449 . S
O207 U206 2.454 . S
O207 C209 1.353 . S
O208 U206 2.458 . S
O208 C209 1.286 . S
C209 U206 2.984 . S
C209 O207 1.353 . S
C209 O208 1.286 . S
C209 C211 1.363 . S
C210 C200 1.465 . S
C210 U206 2.847 . S
C210 O224 1.249 . S
C210 O225 1.202 . S
C211 C209 1.363 . S
C211 C213 1.408 . S
C211 C216 1.342 . S
C212 C213 1.310 . S
C212 C215 1.461 . S
C212 H232 0.932 . S
C213 C211 1.408 . S
C213 C212 1.310 . S
C213 H233 0.930 . S
C214 C215 1.474 . S
C214 C216 1.285 . S
C214 H234 0.929 . S
C215 C212 1.461 . S
C215 C214 1.474 . S
C216 C211 1.342 . S
C216 C214 1.285 . S
C216 H235 0.930 . S
C217 C220 1.424 . S
C217 C222 1.245 . S
C217 C223 1.428 . S
C218 C221 1.260 . S
C218 C222 1.477 . S
C218 H236 0.932 . S
C219 C220 1.384 . S
C219 C221 1.479 . S
C219 H237 0.929 . S
C220 C217 1.424 . S
C220 C219 1.384 . S
C220 H238 0.928 . S
C221 C218 1.260 . S
C221 C219 1.479 . S
C222 C217 1.245 . S
C222 C218 1.477 . S
C222 H239 0.932 . S
C223 U206 2.882 . S
C223 C217 1.428 . S
C223 O226 1.301 . S
C223 O227 1.282 . S
O224 U206 2.441 . S
O224 C210 1.249 . S
O225 U206 2.420 . S
O225 C210 1.202 . S
O226 U206 2.455 . S
O226 C223 1.301 . S
O227 U206 2.449 . S
O227 C223 1.282 . S
H228 C201 0.931 . S
H229 C203 0.929 . S
H230 C204 0.930 . S
H231 C205 0.931 . S
H232 C212 0.932 . S
H233 C213 0.930 . S
H234 C214 0.929 . S
H235 C216 0.930 . S
H236 C218 0.932 . S
H237 C219 0.929 . S
H238 C220 0.928 . S
H239 C222 0.932 . S
C240 C241 1.264 . S
C240 C245 1.479 . S
C240 C250 1.465 . S
C241 C240 1.264 . S
C241 C243 1.339 . S
C241 H268 0.931 . S
C242 C243 1.395 . S
C242 C244 1.320 . S
C243 C241 1.339 . S
C243 C242 1.395 . S
C243 H269 0.929 . S
C244 C242 1.320 . S
C244 C245 1.405 . S
C244 H270 0.930 . S
C245 C240 1.479 . S
C245 C244 1.405 . S
C245 H271 0.931 . S
U246 O247 2.454 . S
U246 O248 2.458 . S
U246 C249 2.984 . S
U246 C250 2.847 . S
U246 C263 2.882 . S
U246 O264 2.441 . S
U246 O265 2.420 . S
U246 O266 2.455 . S
U246 O267 2.449 . S
O247 U246 2.454 . S
O247 C249 1.353 . S
O248 U246 2.458 . S
O248 C249 1.286 . S
C249 U246 2.984 . S
C249 O247 1.353 . S
C249 O248 1.286 . S
C249 C251 1.363 . S
C250 C240 1.465 . S
C250 U246 2.847 . S
C250 O264 1.249 . S
C250 O265 1.202 . S
C251 C249 1.363 . S
C251 C253 1.408 . S
C251 C256 1.342 . S
C252 C253 1.310 . S
C252 C255 1.461 . S
C252 H272 0.932 . S
C253 C251 1.408 . S
C253 C252 1.310 . S
C253 H273 0.930 . S
C254 C255 1.474 . S
C254 C256 1.285 . S
C254 H274 0.929 . S
C255 C252 1.461 . S
C255 C254 1.474 . S
C256 C251 1.342 . S
C256 C254 1.285 . S
C256 H275 0.930 . S
C257 C260 1.424 . S
C257 C262 1.245 . S
C257 C263 1.428 . S
C258 C261 1.260 . S
C258 C262 1.477 . S
C258 H276 0.932 . S
C259 C260 1.384 . S
C259 C261 1.479 . S
C259 H277 0.929 . S
C260 C257 1.424 . S
C260 C259 1.384 . S
C260 H278 0.928 . S
C261 C258 1.260 . S
C261 C259 1.479 . S
C262 C257 1.245 . S
C262 C258 1.477 . S
C262 H279 0.932 . S
C263 U246 2.882 . S
C263 C257 1.428 . S
C263 O266 1.301 . S
C263 O267 1.282 . S
O264 U246 2.441 . S
O264 C250 1.249 . S
O265 U246 2.420 . S
O265 C250 1.202 . S
O266 U246 2.455 . S
O266 C263 1.301 . S
O267 U246 2.449 . S
O267 C263 1.282 . S
H268 C241 0.931 . S
H269 C243 0.929 . S
H270 C244 0.930 . S
H271 C245 0.931 . S
H272 C252 0.932 . S
H273 C253 0.930 . S
H274 C254 0.929 . S
H275 C256 0.930 . S
H276 C258 0.932 . S
H277 C259 0.929 . S
H278 C260 0.928 . S
H279 C262 0.932 . S
C280 C281 1.264 . S
C280 C285 1.479 . S
C280 C290 1.465 . S
C281 C280 1.264 . S
C281 C283 1.339 . S
C281 H308 0.931 . S
C282 C283 1.395 . S
C282 C284 1.320 . S
C283 C281 1.339 . S
C283 C282 1.395 . S
C283 H309 0.929 . S
C284 C282 1.320 . S
C284 C285 1.405 . S
C284 H310 0.930 . S
C285 C280 1.479 . S
C285 C284 1.405 . S
C285 H311 0.931 . S
U286 O287 2.454 . S
U286 O288 2.458 . S
U286 C289 2.984 . S
U286 C290 2.847 . S
U286 C303 2.882 . S
U286 O304 2.441 . S
U286 O305 2.420 . S
U286 O306 2.455 . S
U286 O307 2.449 . S
O287 U286 2.454 . S
O287 C289 1.353 . S
O288 U286 2.458 . S
O288 C289 1.286 . S
C289 U286 2.984 . S
C289 O287 1.353 . S
C289 O288 1.286 . S
C289 C291 1.363 . S
C290 C280 1.465 . S
C290 U286 2.847 . S
C290 O304 1.249 . S
C290 O305 1.202 . S
C291 C289 1.363 . S
C291 C293 1.408 . S
C291 C296 1.342 . S
C292 C293 1.310 . S
C292 C295 1.461 . S
C292 H312 0.932 . S
C293 C291 1.408 . S
C293 C292 1.310 . S
C293 H313 0.930 . S
C294 C295 1.474 . S
C294 C296 1.285 . S
C294 H314 0.929 . S
C295 C292 1.461 . S
C295 C294 1.474 . S
C296 C291 1.342 . S
C296 C294 1.285 . S
C296 H315 0.930 . S
C297 C300 1.424 . S
C297 C302 1.245 . S
C297 C303 1.428 . S
C298 C301 1.260 . S
C298 C302 1.477 . S
C298 H316 0.932 . S
C299 C300 1.384 . S
C299 C301 1.479 . S
C299 H317 0.929 . S
C300 C297 1.424 . S
C300 C299 1.384 . S
C300 H318 0.928 . S
C301 C298 1.260 . S
C301 C299 1.479 . S
C302 C297 1.245 . S
C302 C298 1.477 . S
C302 H319 0.932 . S
C303 U286 2.882 . S
C303 C297 1.428 . S
C303 O306 1.301 . S
C303 O307 1.282 . S
O304 U286 2.441 . S
O304 C290 1.249 . S
O305 U286 2.420 . S
O305 C290 1.202 . S
O306 U286 2.455 . S
O306 C303 1.301 . S
O307 U286 2.449 . S
O307 C303 1.282 . S
H308 C281 0.931 . S
H309 C283 0.929 . S
H310 C284 0.930 . S
H311 C285 0.931 . S
H312 C292 0.932 . S
H313 C293 0.930 . S
H314 C294 0.929 . S
H315 C296 0.930 . S
H316 C298 0.932 . S
H317 C299 0.929 . S
H318 C300 0.928 . S
H319 C302 0.932 . S
C320 C321 1.264 . S
C320 C325 1.479 . S
C320 C330 1.465 . S
C321 C320 1.264 . S
C321 C323 1.339 . S
C321 H348 0.931 . S
C322 C323 1.395 . S
C322 C324 1.320 . S
C323 C321 1.339 . S
C323 C322 1.395 . S
C323 H349 0.929 . S
C324 C322 1.320 . S
C324 C325 1.405 . S
C324 H350 0.930 . S
C325 C320 1.479 . S
C325 C324 1.405 . S
C325 H351 0.931 . S
U326 O327 2.454 . S
U326 O328 2.458 . S
U326 C329 2.984 . S
U326 C330 2.847 . S
U326 C343 2.882 . S
U326 O344 2.441 . S
U326 O345 2.420 . S
U326 O346 2.455 . S
U326 O347 2.449 . S
O327 U326 2.454 . S
O327 C329 1.353 . S
O328 U326 2.458 . S
O328 C329 1.286 . S
C329 U326 2.984 . S
C329 O327 1.353 . S
C329 O328 1.286 . S
C329 C331 1.363 . S
C330 C320 1.465 . S
C330 U326 2.847 . S
C330 O344 1.249 . S
C330 O345 1.202 . S
C331 C329 1.363 . S
C331 C333 1.408 . S
C331 C336 1.342 . S
C332 C333 1.310 . S
C332 C335 1.461 . S
C332 H352 0.932 . S
C333 C331 1.408 . S
C333 C332 1.310 . S
C333 H353 0.930 . S
C334 C335 1.474 . S
C334 C336 1.285 . S
C334 H354 0.929 . S
C335 C332 1.461 . S
C335 C334 1.474 . S
C336 C331 1.342 . S
C336 C334 1.285 . S
C336 H355 0.930 . S
C337 C340 1.424 . S
C337 C342 1.245 . S
C337 C343 1.428 . S
C338 C341 1.260 . S
C338 C342 1.477 . S
C338 H356 0.932 . S
C339 C340 1.384 . S
C339 C341 1.479 . S
C339 H357 0.929 . S
C340 C337 1.424 . S
C340 C339 1.384 . S
C340 H358 0.928 . S
C341 C338 1.260 . S
C341 C339 1.479 . S
C342 C337 1.245 . S
C342 C338 1.477 . S
C342 H359 0.932 . S
C343 U326 2.882 . S
C343 C337 1.428 . S
C343 O346 1.301 . S
C343 O347 1.282 . S
O344 U326 2.441 . S
O344 C330 1.249 . S
O345 U326 2.420 . S
O345 C330 1.202 . S
O346 U326 2.455 . S
O346 C343 1.301 . S
O347 U326 2.449 . S
O347 C343 1.282 . S
H348 C321 0.931 . S
H349 C323 0.929 . S
H350 C324 0.930 . S
H351 C325 0.931 . S
H352 C332 0.932 . S
H353 C333 0.930 . S
H354 C334 0.929 . S
H355 C336 0.930 . S
H356 C338 0.932 . S
H357 C339 0.929 . S
H358 C340 0.928 . S
H359 C342 0.932 . S
C360 C361 1.264 . S
C360 C365 1.479 . S
C360 C370 1.465 . S
C361 C360 1.264 . S
C361 C363 1.339 . S
C361 H388 0.931 . S
C362 C363 1.395 . S
C362 C364 1.320 . S
C363 C361 1.339 . S
C363 C362 1.395 . S
C363 H389 0.929 . S
C364 C362 1.320 . S
C364 C365 1.405 . S
C364 H390 0.930 . S
C365 C360 1.479 . S
C365 C364 1.405 . S
C365 H391 0.931 . S
U366 O367 2.454 . S
U366 O368 2.458 . S
U366 C369 2.984 . S
U366 C370 2.847 . S
U366 C383 2.882 . S
U366 O384 2.441 . S
U366 O385 2.420 . S
U366 O386 2.455 . S
U366 O387 2.449 . S
O367 U366 2.454 . S
O367 C369 1.353 . S
O368 U366 2.458 . S
O368 C369 1.286 . S
C369 U366 2.984 . S
C369 O367 1.353 . S
C369 O368 1.286 . S
C369 C371 1.363 . S
C370 C360 1.465 . S
C370 U366 2.847 . S
C370 O384 1.249 . S
C370 O385 1.202 . S
C371 C369 1.363 . S
C371 C373 1.408 . S
C371 C376 1.342 . S
C372 C373 1.310 . S
C372 C375 1.461 . S
C372 H392 0.932 . S
C373 C371 1.408 . S
C373 C372 1.310 . S
C373 H393 0.930 . S
C374 C375 1.474 . S
C374 C376 1.285 . S
C374 H394 0.929 . S
C375 C372 1.461 . S
C375 C374 1.474 . S
C376 C371 1.342 . S
C376 C374 1.285 . S
C376 H395 0.930 . S
C377 C380 1.424 . S
C377 C382 1.245 . S
C377 C383 1.428 . S
C378 C381 1.260 . S
C378 C382 1.477 . S
C378 H396 0.932 . S
C379 C380 1.384 . S
C379 C381 1.479 . S
C379 H397 0.929 . S
C380 C377 1.424 . S
C380 C379 1.384 . S
C380 H398 0.928 . S
C381 C378 1.260 . S
C381 C379 1.479 . S
C382 C377 1.245 . S
C382 C378 1.477 . S
C382 H399 0.932 . S
C383 U366 2.882 . S
C383 C377 1.428 . S
C383 O386 1.301 . S
C383 O387 1.282 . S
O384 U366 2.441 . S
O384 C370 1.249 . S
O385 U366 2.420 . S
O385 C370 1.202 . S
O386 U366 2.455 . S
O386 C383 1.301 . S
O387 U366 2.449 . S
O387 C383 1.282 . S
H388 C361 0.931 . S
H389 C363 0.929 . S
H390 C364 0.930 . S
H391 C365 0.931 . S
H392 C372 0.932 . S
H393 C373 0.930 . S
H394 C374 0.929 . S
H395 C376 0.930 . S
H396 C378 0.932 . S
H397 C379 0.929 . S
H398 C380 0.928 . S
H399 C382 0.932 . S
C400 C401 1.264 . S
C400 C405 1.479 . S
C400 C410 1.465 . S
C401 C400 1.264 . S
C401 C403 1.339 . S
C401 H428 0.931 . S
C402 C403 1.395 . S
C402 C404 1.320 . S
C403 C401 1.339 . S
C403 C402 1.395 . S
C403 H429 0.929 . S
C404 C402 1.320 . S
C404 C405 1.405 . S
C404 H430 0.930 . S
C405 C400 1.479 . S
C405 C404 1.405 . S
C405 H431 0.931 . S
U406 O407 2.454 . S
U406 O408 2.458 . S
U406 C409 2.984 . S
U406 C410 2.847 . S
U406 C423 2.882 . S
U406 O424 2.441 . S
U406 O425 2.420 . S
U406 O426 2.455 . S
U406 O427 2.449 . S
O407 U406 2.454 . S
O407 C409 1.353 . S
O408 U406 2.458 . S
O408 C409 1.286 . S
C409 U406 2.984 . S
C409 O407 1.353 . S
C409 O408 1.286 . S
C409 C411 1.363 . S
C410 C400 1.465 . S
C410 U406 2.847 . S
C410 O424 1.249 . S
C410 O425 1.202 . S
C411 C409 1.363 . S
C411 C413 1.408 . S
C411 C416 1.342 . S
C412 C413 1.310 . S
C412 C415 1.461 . S
C412 H432 0.932 . S
C413 C411 1.408 . S
C413 C412 1.310 . S
C413 H433 0.930 . S
C414 C415 1.474 . S
C414 C416 1.285 . S
C414 H434 0.929 . S
C415 C412 1.461 . S
C415 C414 1.474 . S
C416 C411 1.342 . S
C416 C414 1.285 . S
C416 H435 0.930 . S
C417 C420 1.424 . S
C417 C422 1.245 . S
C417 C423 1.428 . S
C418 C421 1.260 . S
C418 C422 1.477 . S
C418 H436 0.932 . S
C419 C420 1.384 . S
C419 C421 1.479 . S
C419 H437 0.929 . S
C420 C417 1.424 . S
C420 C419 1.384 . S
C420 H438 0.928 . S
C421 C418 1.260 . S
C421 C419 1.479 . S
C422 C417 1.245 . S
C422 C418 1.477 . S
C422 H439 0.932 . S
C423 U406 2.882 . S
C423 C417 1.428 . S
C423 O426 1.301 . S
C423 O427 1.282 . S
O424 U406 2.441 . S
O424 C410 1.249 . S
O425 U406 2.420 . S
O425 C410 1.202 . S
O426 U406 2.455 . S
O426 C423 1.301 . S
O427 U406 2.449 . S
O427 C423 1.282 . S
H428 C401 0.931 . S
H429 C403 0.929 . S
H430 C404 0.930 . S
H431 C405 0.931 . S
H432 C412 0.932 . S
H433 C413 0.930 . S
H434 C414 0.929 . S
H435 C416 0.930 . S
H436 C418 0.932 . S
H437 C419 0.929 . S
H438 C420 0.928 . S
H439 C422 0.932 . S
C440 C441 1.264 . S
C440 C445 1.479 . S
C440 C450 1.465 . S
C441 C440 1.264 . S
C441 C443 1.339 . S
C441 H468 0.931 . S
C442 C443 1.395 . S
C442 C444 1.320 . S
C443 C441 1.339 . S
C443 C442 1.395 . S
C443 H469 0.929 . S
C444 C442 1.320 . S
C444 C445 1.405 . S
C444 H470 0.930 . S
C445 C440 1.479 . S
C445 C444 1.405 . S
C445 H471 0.931 . S
U446 O447 2.454 . S
U446 O448 2.458 . S
U446 C449 2.984 . S
U446 C450 2.847 . S
U446 C463 2.882 . S
U446 O464 2.441 . S
U446 O465 2.420 . S
U446 O466 2.455 . S
U446 O467 2.449 . S
O447 U446 2.454 . S
O447 C449 1.353 . S
O448 U446 2.458 . S
O448 C449 1.286 . S
C449 U446 2.984 . S
C449 O447 1.353 . S
C449 O448 1.286 . S
C449 C451 1.363 . S
C450 C440 1.465 . S
C450 U446 2.847 . S
C450 O464 1.249 . S
C450 O465 1.202 . S
C451 C449 1.363 . S
C451 C453 1.408 . S
C451 C456 1.342 . S
C452 C453 1.310 . S
C452 C455 1.461 . S
C452 H472 0.932 . S
C453 C451 1.408 . S
C453 C452 1.310 . S
C453 H473 0.930 . S
C454 C455 1.474 . S
C454 C456 1.285 . S
C454 H474 0.929 . S
C455 C452 1.461 . S
C455 C454 1.474 . S
C456 C451 1.342 . S
C456 C454 1.285 . S
C456 H475 0.930 . S
C457 C460 1.424 . S
C457 C462 1.245 . S
C457 C463 1.428 . S
C458 C461 1.260 . S
C458 C462 1.477 . S
C458 H476 0.932 . S
C459 C460 1.384 . S
C459 C461 1.479 . S
C459 H477 0.929 . S
C460 C457 1.424 . S
C460 C459 1.384 . S
C460 H478 0.928 . S
C461 C458 1.260 . S
C461 C459 1.479 . S
C462 C457 1.245 . S
C462 C458 1.477 . S
C462 H479 0.932 . S
C463 U446 2.882 . S
C463 C457 1.428 . S
C463 O466 1.301 . S
C463 O467 1.282 . S
O464 U446 2.441 . S
O464 C450 1.249 . S
O465 U446 2.420 . S
O465 C450 1.202 . S
O466 U446 2.455 . S
O466 C463 1.301 . S
O467 U446 2.449 . S
O467 C463 1.282 . S
H468 C441 0.931 . S
H469 C443 0.929 . S
H470 C444 0.930 . S
H471 C445 0.931 . S
H472 C452 0.932 . S
H473 C453 0.930 . S
H474 C454 0.929 . S
H475 C456 0.930 . S
H476 C458 0.932 . S
H477 C459 0.929 . S
H478 C460 0.928 . S
H479 C462 0.932 . S
C480 C481 1.264 . S
C480 C485 1.479 . S
C480 C490 1.465 . S
C481 C480 1.264 . S
C481 C483 1.339 . S
C481 H508 0.931 . S
C482 C483 1.395 . S
C482 C484 1.320 . S
C483 C481 1.339 . S
C483 C482 1.395 . S
C483 H509 0.929 . S
C484 C482 1.320 . S
C484 C485 1.405 . S
C484 H510 0.930 . S
C485 C480 1.479 . S
C485 C484 1.405 . S
C485 H511 0.931 . S
U486 O487 2.454 . S
U486 O488 2.458 . S
U486 C489 2.984 . S
U486 C490 2.847 . S
U486 C503 2.882 . S
U486 O504 2.441 . S
U486 O505 2.420 . S
U486 O506 2.455 . S
U486 O507 2.449 . S
O487 U486 2.454 . S
O487 C489 1.353 . S
O488 U486 2.458 . S
O488 C489 1.286 . S
C489 U486 2.984 . S
C489 O487 1.353 . S
C489 O488 1.286 . S
C489 C491 1.363 . S
C490 C480 1.465 . S
C490 U486 2.847 . S
C490 O504 1.249 . S
C490 O505 1.202 . S
C491 C489 1.363 . S
C491 C493 1.408 . S
C491 C496 1.342 . S
C492 C493 1.310 . S
C492 C495 1.461 . S
C492 H512 0.932 . S
C493 C491 1.408 . S
C493 C492 1.310 . S
C493 H513 0.930 . S
C494 C495 1.474 . S
C494 C496 1.285 . S
C494 H514 0.929 . S
C495 C492 1.461 . S
C495 C494 1.474 . S
C496 C491 1.342 . S
C496 C494 1.285 . S
C496 H515 0.930 . S
C497 C500 1.424 . S
C497 C502 1.245 . S
C497 C503 1.428 . S
C498 C501 1.260 . S
C498 C502 1.477 . S
C498 H516 0.932 . S
C499 C500 1.384 . S
C499 C501 1.479 . S
C499 H517 0.929 . S
C500 C497 1.424 . S
C500 C499 1.384 . S
C500 H518 0.928 . S
C501 C498 1.260 . S
C501 C499 1.479 . S
C502 C497 1.245 . S
C502 C498 1.477 . S
C502 H519 0.932 . S
C503 U486 2.882 . S
C503 C497 1.428 . S
C503 O506 1.301 . S
C503 O507 1.282 . S
O504 U486 2.441 . S
O504 C490 1.249 . S
O505 U486 2.420 . S
O505 C490 1.202 . S
O506 U486 2.455 . S
O506 C503 1.301 . S
O507 U486 2.449 . S
O507 C503 1.282 . S
H508 C481 0.931 . S
H509 C483 0.929 . S
H510 C484 0.930 . S
H511 C485 0.931 . S
H512 C492 0.932 . S
H513 C493 0.930 . S
H514 C494 0.929 . S
H515 C496 0.930 . S
H516 C498 0.932 . S
H517 C499 0.929 . S
H518 C500 0.928 . S
H519 C502 0.932 . S
C520 C521 1.264 . S
C520 C525 1.479 . S
C520 C530 1.465 . S
C521 C520 1.264 . S
C521 C523 1.339 . S
C521 H548 0.931 . S
C522 C523 1.395 . S
C522 C524 1.320 . S
C523 C521 1.339 . S
C523 C522 1.395 . S
C523 H549 0.929 . S
C524 C522 1.320 . S
C524 C525 1.405 . S
C524 H550 0.930 . S
C525 C520 1.479 . S
C525 C524 1.405 . S
C525 H551 0.931 . S
U526 O527 2.454 . S
U526 O528 2.458 . S
U526 C529 2.984 . S
U526 C530 2.847 . S
U526 C543 2.882 . S
U526 O544 2.441 . S
U526 O545 2.420 . S
U526 O546 2.455 . S
U526 O547 2.449 . S
O527 U526 2.454 . S
O527 C529 1.353 . S
O528 U526 2.458 . S
O528 C529 1.286 . S
C529 U526 2.984 . S
C529 O527 1.353 . S
C529 O528 1.286 . S
C529 C531 1.363 . S
C530 C520 1.465 . S
C530 U526 2.847 . S
C530 O544 1.249 . S
C530 O545 1.202 . S
C531 C529 1.363 . S
C531 C533 1.408 . S
C531 C536 1.342 . S
C532 C533 1.310 . S
C532 C535 1.461 . S
C532 H552 0.932 . S
C533 C531 1.408 . S
C533 C532 1.310 . S
C533 H553 0.930 . S
C534 C535 1.474 . S
C534 C536 1.285 . S
C534 H554 0.929 . S
C535 C532 1.461 . S
C535 C534 1.474 . S
C536 C531 1.342 . S
C536 C534 1.285 . S
C536 H555 0.930 . S
C537 C540 1.424 . S
C537 C542 1.245 . S
C537 C543 1.428 . S
C538 C541 1.260 . S
C538 C542 1.477 . S
C538 H556 0.932 . S
C539 C540 1.384 . S
C539 C541 1.479 . S
C539 H557 0.929 . S
C540 C537 1.424 . S
C540 C539 1.384 . S
C540 H558 0.928 . S
C541 C538 1.260 . S
C541 C539 1.479 . S
C542 C537 1.245 . S
C542 C538 1.477 . S
C542 H559 0.932 . S
C543 U526 2.882 . S
C543 C537 1.428 . S
C543 O546 1.301 . S
C543 O547 1.282 . S
O544 U526 2.441 . S
O544 C530 1.249 . S
O545 U526 2.420 . S
O545 C530 1.202 . S
O546 U526 2.455 . S
O546 C543 1.301 . S
O547 U526 2.449 . S
O547 C543 1.282 . S
H548 C521 0.931 . S
H549 C523 0.929 . S
H550 C524 0.930 . S
H551 C525 0.931 . S
H552 C532 0.932 . S
H553 C533 0.930 . S
H554 C534 0.929 . S
H555 C536 0.930 . S
H556 C538 0.932 . S
H557 C539 0.929 . S
H558 C540 0.928 . S
H559 C542 0.932 . S
C560 C561 1.264 . S
C560 C565 1.479 . S
C560 C570 1.465 . S
C561 C560 1.264 . S
C561 C563 1.339 . S
C561 H588 0.931 . S
C562 C563 1.395 . S
C562 C564 1.320 . S
C563 C561 1.339 . S
C563 C562 1.395 . S
C563 H589 0.929 . S
C564 C562 1.320 . S
C564 C565 1.405 . S
C564 H590 0.930 . S
C565 C560 1.479 . S
C565 C564 1.405 . S
C565 H591 0.931 . S
U566 O567 2.454 . S
U566 O568 2.458 . S
U566 C569 2.984 . S
U566 C570 2.847 . S
U566 C583 2.882 . S
U566 O584 2.441 . S
U566 O585 2.420 . S
U566 O586 2.455 . S
U566 O587 2.449 . S
O567 U566 2.454 . S
O567 C569 1.353 . S
O568 U566 2.458 . S
O568 C569 1.286 . S
C569 U566 2.984 . S
C569 O567 1.353 . S
C569 O568 1.286 . S
C569 C571 1.363 . S
C570 C560 1.465 . S
C570 U566 2.847 . S
C570 O584 1.249 . S
C570 O585 1.202 . S
C571 C569 1.363 . S
C571 C573 1.408 . S
C571 C576 1.342 . S
C572 C573 1.310 . S
C572 C575 1.461 . S
C572 H592 0.932 . S
C573 C571 1.408 . S
C573 C572 1.310 . S
C573 H593 0.930 . S
C574 C575 1.474 . S
C574 C576 1.285 . S
C574 H594 0.929 . S
C575 C572 1.461 . S
C575 C574 1.474 . S
C576 C571 1.342 . S
C576 C574 1.285 . S
C576 H595 0.930 . S
C577 C580 1.424 . S
C577 C582 1.245 . S
C577 C583 1.428 . S
C578 C581 1.260 . S
C578 C582 1.477 . S
C578 H596 0.932 . S
C579 C580 1.384 . S
C579 C581 1.479 . S
C579 H597 0.929 . S
C580 C577 1.424 . S
C580 C579 1.384 . S
C580 H598 0.928 . S
C581 C578 1.260 . S
C581 C579 1.479 . S
C582 C577 1.245 . S
C582 C578 1.477 . S
C582 H599 0.932 . S
C583 U566 2.882 . S
C583 C577 1.428 . S
C583 O586 1.301 . S
C583 O587 1.282 . S
O584 U566 2.441 . S
O584 C570 1.249 . S
O585 U566 2.420 . S
O585 C570 1.202 . S
O586 U566 2.455 . S
O586 C583 1.301 . S
O587 U566 2.449 . S
O587 C583 1.282 . S
H588 C561 0.931 . S
H589 C563 0.929 . S
H590 C564 0.930 . S
H591 C565 0.931 . S
H592 C572 0.932 . S
H593 C573 0.930 . S
H594 C574 0.929 . S
H595 C576 0.930 . S
H596 C578 0.932 . S
H597 C579 0.929 . S
H598 C580 0.928 . S
H599 C582 0.932 . S
C600 C601 1.264 . S
C600 C605 1.479 . S
C600 C610 1.465 . S
C601 C600 1.264 . S
C601 C603 1.339 . S
C601 H628 0.931 . S
C602 C603 1.395 . S
C602 C604 1.320 . S
C603 C601 1.339 . S
C603 C602 1.395 . S
C603 H629 0.929 . S
C604 C602 1.320 . S
C604 C605 1.405 . S
C604 H630 0.930 . S
C605 C600 1.479 . S
C605 C604 1.405 . S
C605 H631 0.931 . S
U606 O607 2.454 . S
U606 O608 2.458 . S
U606 C609 2.984 . S
U606 C610 2.847 . S
U606 C623 2.882 . S
U606 O624 2.441 . S
U606 O625 2.420 . S
U606 O626 2.455 . S
U606 O627 2.449 . S
O607 U606 2.454 . S
O607 C609 1.353 . S
O608 U606 2.458 . S
O608 C609 1.286 . S
C609 U606 2.984 . S
C609 O607 1.353 . S
C609 O608 1.286 . S
C609 C611 1.363 . S
C610 C600 1.465 . S
C610 U606 2.847 . S
C610 O624 1.249 . S
C610 O625 1.202 . S
C611 C609 1.363 . S
C611 C613 1.408 . S
C611 C616 1.342 . S
C612 C613 1.310 . S
C612 C615 1.461 . S
C612 H632 0.932 . S
C613 C611 1.408 . S
C613 C612 1.310 . S
C613 H633 0.930 . S
C614 C615 1.474 . S
C614 C616 1.285 . S
C614 H634 0.929 . S
C615 C612 1.461 . S
C615 C614 1.474 . S
C616 C611 1.342 . S
C616 C614 1.285 . S
C616 H635 0.930 . S
C617 C620 1.424 . S
C617 C622 1.245 . S
C617 C623 1.428 . S
C618 C621 1.260 . S
C618 C622 1.477 . S
C618 H636 0.932 . S
C619 C620 1.384 . S
C619 C621 1.479 . S
C619 H637 0.929 . S
C620 C617 1.424 . S
C620 C619 1.384 . S
C620 H638 0.928 . S
C621 C618 1.260 . S
C621 C619 1.479 . S
C622 C617 1.245 . S
C622 C618 1.477 . S
C622 H639 0.932 . S
C623 U606 2.882 . S
C623 C617 1.428 . S
C623 O626 1.301 . S
C623 O627 1.282 . S
O624 U606 2.441 . S
O624 C610 1.249 . S
O625 U606 2.420 . S
O625 C610 1.202 . S
O626 U606 2.455 . S
O626 C623 1.301 . S
O627 U606 2.449 . S
O627 C623 1.282 . S
H628 C601 0.931 . S
H629 C603 0.929 . S
H630 C604 0.930 . S
H631 C605 0.931 . S
H632 C612 0.932 . S
H633 C613 0.930 . S
H634 C614 0.929 . S
H635 C616 0.930 . S
H636 C618 0.932 . S
H637 C619 0.929 . S
H638 C620 0.928 . S
H639 C622 0.932 . S
C640 C641 1.264 . S
C640 C645 1.479 . S
C640 C650 1.465 . S
C641 C640 1.264 . S
C641 C643 1.339 . S
C641 H668 0.931 . S
C642 C643 1.395 . S
C642 C644 1.320 . S
C643 C641 1.339 . S
C643 C642 1.395 . S
C643 H669 0.929 . S
C644 C642 1.320 . S
C644 C645 1.405 . S
C644 H670 0.930 . S
C645 C640 1.479 . S
C645 C644 1.405 . S
C645 H671 0.931 . S
U646 O647 2.454 . S
U646 O648 2.458 . S
U646 C649 2.984 . S
U646 C650 2.847 . S
U646 C663 2.882 . S
U646 O664 2.441 . S
U646 O665 2.420 . S
U646 O666 2.455 . S
U646 O667 2.449 . S
O647 U646 2.454 . S
O647 C649 1.353 . S
O648 U646 2.458 . S
O648 C649 1.286 . S
C649 U646 2.984 . S
C649 O647 1.353 . S
C649 O648 1.286 . S
C649 C651 1.363 . S
C650 C640 1.465 . S
C650 U646 2.847 . S
C650 O664 1.249 . S
C650 O665 1.202 . S
C651 C649 1.363 . S
C651 C653 1.408 . S
C651 C656 1.342 . S
C652 C653 1.310 . S
C652 C655 1.461 . S
C652 H672 0.932 . S
C653 C651 1.408 . S
C653 C652 1.310 . S
C653 H673 0.930 . S
C654 C655 1.474 . S
C654 C656 1.285 . S
C654 H674 0.929 . S
C655 C652 1.461 . S
C655 C654 1.474 . S
C656 C651 1.342 . S
C656 C654 1.285 . S
C656 H675 0.930 . S
C657 C660 1.424 . S
C657 C662 1.245 . S
C657 C663 1.428 . S
C658 C661 1.260 . S
C658 C662 1.477 . S
C658 H676 0.932 . S
C659 C660 1.384 . S
C659 C661 1.479 . S
C659 H677 0.929 . S
C660 C657 1.424 . S
C660 C659 1.384 . S
C660 H678 0.928 . S
C661 C658 1.260 . S
C661 C659 1.479 . S
C662 C657 1.245 . S
C662 C658 1.477 . S
C662 H679 0.932 . S
C663 U646 2.882 . S
C663 C657 1.428 . S
C663 O666 1.301 . S
C663 O667 1.282 . S
O664 U646 2.441 . S
O664 C650 1.249 . S
O665 U646 2.420 . S
O665 C650 1.202 . S
O666 U646 2.455 . S
O666 C663 1.301 . S
O667 U646 2.449 . S
O667 C663 1.282 . S
H668 C641 0.931 . S
H669 C643 0.929 . S
H670 C644 0.930 . S
H671 C645 0.931 . S
H672 C652 0.932 . S
H673 C653 0.930 . S
H674 C654 0.929 . S
H675 C656 0.930 . S
H676 C658 0.932 . S
H677 C659 0.929 . S
H678 C660 0.928 . S
H679 C662 0.932 . S
C680 C681 1.264 . S
C680 C685 1.479 . S
C680 C690 1.465 . S
C681 C680 1.264 . S
C681 C683 1.339 . S
C681 H708 0.931 . S
C682 C683 1.395 . S
C682 C684 1.320 . S
C683 C681 1.339 . S
C683 C682 1.395 . S
C683 H709 0.929 . S
C684 C682 1.320 . S
C684 C685 1.405 . S
C684 H710 0.930 . S
C685 C680 1.479 . S
C685 C684 1.405 . S
C685 H711 0.931 . S
U686 O687 2.454 . S
U686 O688 2.458 . S
U686 C689 2.984 . S
U686 C690 2.847 . S
U686 C703 2.882 . S
U686 O704 2.441 . S
U686 O705 2.420 . S
U686 O706 2.455 . S
U686 O707 2.449 . S
O687 U686 2.454 . S
O687 C689 1.353 . S
O688 U686 2.458 . S
O688 C689 1.286 . S
C689 U686 2.984 . S
C689 O687 1.353 . S
C689 O688 1.286 . S
C689 C691 1.363 . S
C690 C680 1.465 . S
C690 U686 2.847 . S
C690 O704 1.249 . S
C690 O705 1.202 . S
C691 C689 1.363 . S
C691 C693 1.408 . S
C691 C696 1.342 . S
C692 C693 1.310 . S
C692 C695 1.461 . S
C692 H712 0.932 . S
C693 C691 1.408 . S
C693 C692 1.310 . S
C693 H713 0.930 . S
C694 C695 1.474 . S
C694 C696 1.285 . S
C694 H714 0.929 . S
C695 C692 1.461 . S
C695 C694 1.474 . S
C696 C691 1.342 . S
C696 C694 1.285 . S
C696 H715 0.930 . S
C697 C700 1.424 . S
C697 C702 1.245 . S
C697 C703 1.428 . S
C698 C701 1.260 . S
C698 C702 1.477 . S
C698 H716 0.932 . S
C699 C700 1.384 . S
C699 C701 1.479 . S
C699 H717 0.929 . S
C700 C697 1.424 . S
C700 C699 1.384 . S
C700 H718 0.928 . S
C701 C698 1.260 . S
C701 C699 1.479 . S
C702 C697 1.245 . S
C702 C698 1.477 . S
C702 H719 0.932 . S
C703 U686 2.882 . S
C703 C697 1.428 . S
C703 O706 1.301 . S
C703 O707 1.282 . S
O704 U686 2.441 . S
O704 C690 1.249 . S
O705 U686 2.420 . S
O705 C690 1.202 . S
O706 U686 2.455 . S
O706 C703 1.301 . S
O707 U686 2.449 . S
O707 C703 1.282 . S
H708 C681 0.931 . S
H709 C683 0.929 . S
H710 C684 0.930 . S
H711 C685 0.931 . S
H712 C692 0.932 . S
H713 C693 0.930 . S
H714 C694 0.929 . S
H715 C696 0.930 . S
H716 C698 0.932 . S
H717 C699 0.929 . S
H718 C700 0.928 . S
H719 C702 0.932 . S
Gd720 N751 2.661 . S
Gd720 N757 2.601 . S
Gd720 O764 2.545 . S
Gd720 O765 2.606 1_545 S
Gd720 O767 2.429 . S
Gd720 O768 2.545 1_545 S
Gd720 O769 2.412 . S
Gd720 O771 2.350 1_554 S
Gd720 O772 2.324 1_545 S
Gd720 C779 2.828 . S
Gd721 N730 2.661 . S
Gd721 N734 2.601 . S
Gd721 O765 2.362 1_556 S
Gd721 O766 2.324 1_565 S
Gd721 O770 2.545 . S
Gd721 O771 2.613 1_565 S
Gd721 O773 2.429 . S
Gd721 O774 2.545 1_565 S
Gd721 O775 2.412 . S
Gd721 C788 2.828 . S
C722 C725 1.417 . S
C722 C727 1.431 . S
C722 C728 1.412 . S
C723 C726 1.437 . S
C723 C727 1.317 . S
C723 H742 0.929 . S
C724 C725 1.426 . S
C724 C726 1.413 . S
C724 N734 1.359 . S
C725 C722 1.417 . S
C725 C724 1.426 . S
C725 N730 1.350 . S
C726 C723 1.437 . S
C726 C724 1.413 . S
C726 C736 1.391 . S
C727 C722 1.431 . S
C727 C723 1.317 . S
C727 H738 0.930 . S
C728 C722 1.412 . S
C728 C729 1.355 . S
C728 H740 0.930 . S
C729 C728 1.355 . S
C729 C731 1.402 . S
C729 H741 0.930 . S
N730 Gd721 2.661 . S
N730 C725 1.350 . S
N730 C731 1.307 . S
C731 C729 1.402 . S
C731 N730 1.307 . S
C731 H732 0.930 . S
H732 C731 0.930 . S
C733 N734 1.334 . S
C733 C735 1.394 . S
C733 H737 0.930 . S
N734 Gd721 2.601 . S
N734 C724 1.359 . S
N734 C733 1.334 . S
C735 C733 1.394 . S
C735 C736 1.359 . S
C735 H747 0.930 . S
C736 C726 1.391 . S
C736 C735 1.359 . S
C736 H748 0.929 . S
H737 C733 0.930 . S
H738 C727 0.930 . S
H739 C756 0.930 . S
H740 C728 0.930 . S
H741 C729 0.930 . S
H742 C723 0.929 . S
H743 C761 0.930 . S
H744 C752 0.930 . S
H745 C753 0.930 . S
H746 C777 0.929 . S
H747 C735 0.930 . S
H748 C736 0.929 . S
H749 C778 0.930 . S
H750 C759 0.930 . S
N751 Gd720 2.661 . S
N751 C755 1.350 . S
N751 C756 1.307 . S
C752 H744 0.930 . S
C752 C753 1.355 . S
C752 C754 1.412 . S
C753 H745 0.930 . S
C753 C752 1.355 . S
C753 C756 1.402 . S
C754 C752 1.412 . S
C754 C755 1.417 . S
C754 C778 1.431 . S
C755 N751 1.350 . S
C755 C754 1.417 . S
C755 C758 1.426 . S
C756 H739 0.930 . S
C756 N751 1.307 . S
C756 C753 1.402 . S
N757 Gd720 2.601 . S
N757 C758 1.359 . S
N757 C761 1.334 . S
C758 C755 1.426 . S
C758 N757 1.359 . S
C758 C762 1.413 . S
C759 H750 0.930 . S
C759 C760 1.359 . S
C759 C761 1.394 . S
C760 C759 1.359 . S
C760 C762 1.391 . S
C760 H763 0.929 . S
C761 H743 0.930 . S
C761 N757 1.334 . S
C761 C759 1.394 . S
C762 C758 1.413 . S
C762 C760 1.391 . S
C762 C777 1.437 . S
H763 C760 0.929 . S
O764 Gd720 2.545 . S
O764 C779 1.258 . S
O765 Gd720 2.606 1_565 S
O765 Gd721 2.362 1_554 S
O765 C776 1.284 . S
O766 Gd721 2.324 1_545 S
O766 C786 1.254 . S
O767 Gd720 2.429 . S
O767 C786 1.268 1_554 S
O768 Gd720 2.545 1_565 S
O768 C776 1.250 . S
O769 Gd720 2.412 . S
O769 C779 1.252 . S
O770 Gd721 2.545 . S
O770 C788 1.258 . S
O771 Gd720 2.350 1_556 S
O771 Gd721 2.613 1_545 S
O771 C787 1.294 . S
O772 Gd720 2.324 1_565 S
O772 C795 1.254 . S
O773 Gd721 2.429 . S
O773 C795 1.268 1_556 S
O774 Gd721 2.545 1_545 S
O774 C787 1.250 . S
O775 Gd721 2.412 . S
O775 C788 1.252 . S
C776 O765 1.284 . S
C776 O768 1.250 . S
C777 H746 0.929 . S
C777 C762 1.437 . S
C777 C778 1.317 . S
C778 H749 0.930 . S
C778 C754 1.431 . S
C778 C777 1.317 . S
C779 Gd720 2.828 . S
C779 O764 1.258 . S
C779 O769 1.252 . S
C779 C780 1.497 . S
C780 C779 1.497 . S
C780 C781 1.395 . S
C780 C782 1.380 1_545 S
C781 C780 1.395 . S
C781 C784 1.398 . S
C781 H796 0.930 . S
C782 C780 1.380 1_565 S
C782 C783 1.391 . S
C782 H797 0.930 . S
C783 C782 1.391 . S
C783 C785 1.387 1_565 S
C784 C781 1.398 . S
C784 C785 1.380 . S
C784 H798 0.930 . S
C785 C783 1.387 1_545 S
C785 C784 1.380 . S
C785 H799 0.930 . S
C786 O766 1.254 . S
C786 O767 1.268 1_556 S
C787 O771 1.294 . S
C787 O774 1.250 . S
C788 Gd721 2.828 . S
C788 O770 1.258 . S
C788 O775 1.252 . S
C788 C789 1.497 . S
C789 C788 1.497 . S
C789 C790 1.395 . S
C789 C791 1.380 1_565 S
C790 C789 1.395 . S
C790 C793 1.398 . S
C790 H800 0.930 . S
C791 C789 1.380 1_545 S
C791 C792 1.391 . S
C791 H801 0.930 . S
C792 C791 1.391 . S
C792 C794 1.387 1_545 S
C793 C790 1.398 . S
C793 C794 1.380 . S
C793 H802 0.930 . S
C794 C792 1.387 1_565 S
C794 C793 1.380 . S
C794 H803 0.932 . S
C795 O772 1.254 . S
C795 O773 1.268 1_554 S
H796 C781 0.930 . S
H797 C782 0.930 . S
H798 C784 0.930 . S
H799 C785 0.930 . S
H800 C790 0.930 . S
H801 C791 0.930 . S
H802 C793 0.930 . S
H803 C794 0.932 . S
Gd804 N835 2.661 . S
Gd804 N841 2.601 . S
Gd804 O848 2.545 . S
Gd804 O849 2.606 1_655 S
Gd804 O851 2.429 . S
Gd804 O852 2.545 1_655 S
Gd804 O853 2.412 . S
Gd804 O855 2.340 1_554 S
Gd804 O856 2.324 1_655 S
Gd804 C863 2.828 . S
Gd805 N814 2.661 . S
Gd805 N818 2.601 . S
Gd805 O849 2.362 1_556 S
Gd805 O850 2.324 1_455 S
Gd805 O854 2.545 . S
Gd805 O855 2.619 1_455 S
Gd805 O857 2.468 . S
Gd805 O858 2.545 1_455 S
Gd805 O859 2.412 . S
Gd805 C872 2.828 . S
C806 C809 1.417 . S
C806 C811 1.431 . S
C806 C812 1.412 . S
C807 C810 1.437 . S
C807 C811 1.317 . S
C807 H826 0.929 . S
C808 C809 1.426 . S
C808 C810 1.413 . S
C808 N818 1.359 . S
C809 C806 1.417 . S
C809 C808 1.426 . S
C809 N814 1.350 . S
C810 C807 1.437 . S
C810 C808 1.413 . S
C810 C820 1.391 . S
C811 C806 1.431 . S
C811 C807 1.317 . S
C811 H822 0.930 . S
C812 C806 1.412 . S
C812 C813 1.355 . S
C812 H824 0.930 . S
C813 C812 1.355 . S
C813 C815 1.402 . S
C813 H825 0.930 . S
N814 Gd805 2.661 . S
N814 C809 1.350 . S
N814 C815 1.307 . S
C815 C813 1.402 . S
C815 N814 1.307 . S
C815 H816 0.930 . S
H816 C815 0.930 . S
C817 N818 1.334 . S
C817 C819 1.394 . S
C817 H821 0.930 . S
N818 Gd805 2.601 . S
N818 C808 1.359 . S
N818 C817 1.334 . S
C819 C817 1.394 . S
C819 C820 1.359 . S
C819 H831 0.930 . S
C820 C810 1.391 . S
C820 C819 1.359 . S
C820 H832 0.929 . S
H821 C817 0.930 . S
H822 C811 0.930 . S
H823 C840 0.930 . S
H824 C812 0.930 . S
H825 C813 0.930 . S
H826 C807 0.929 . S
H827 C845 0.930 . S
H828 C836 0.930 . S
H829 C837 0.930 . S
H830 C861 0.929 . S
H831 C819 0.930 . S
H832 C820 0.929 . S
H833 C862 0.930 . S
H834 C843 0.930 . S
N835 Gd804 2.661 . S
N835 C839 1.350 . S
N835 C840 1.307 . S
C836 H828 0.930 . S
C836 C837 1.355 . S
C836 C838 1.412 . S
C837 H829 0.930 . S
C837 C836 1.355 . S
C837 C840 1.402 . S
C838 C836 1.412 . S
C838 C839 1.417 . S
C838 C862 1.431 . S
C839 N835 1.350 . S
C839 C838 1.417 . S
C839 C842 1.426 . S
C840 H823 0.930 . S
C840 N835 1.307 . S
C840 C837 1.402 . S
N841 Gd804 2.601 . S
N841 C842 1.359 . S
N841 C845 1.334 . S
C842 C839 1.426 . S
C842 N841 1.359 . S
C842 C846 1.413 . S
C843 H834 0.930 . S
C843 C844 1.359 . S
C843 C845 1.394 . S
C844 C843 1.359 . S
C844 C846 1.391 . S
C844 H847 0.929 . S
C845 H827 0.930 . S
C845 N841 1.334 . S
C845 C843 1.394 . S
C846 C842 1.413 . S
C846 C844 1.391 . S
C846 C861 1.437 . S
H847 C844 0.929 . S
O848 Gd804 2.545 . S
O848 C863 1.258 . S
O849 Gd804 2.606 1_455 S
O849 Gd805 2.362 1_554 S
O849 C860 1.284 . S
O850 Gd805 2.324 1_655 S
O850 C870 1.254 . S
O851 Gd804 2.429 . S
O851 C870 1.268 1_554 S
O852 Gd804 2.545 1_455 S
O852 C860 1.250 . S
O853 Gd804 2.412 . S
O853 C863 1.252 . S
O854 Gd805 2.545 . S
O854 C872 1.258 . S
O855 Gd804 2.340 1_556 S
O855 Gd805 2.619 1_655 S
O855 C871 1.302 . S
O856 Gd804 2.324 1_455 S
O856 C879 1.254 . S
O857 Gd805 2.468 . S
O857 C879 1.199 1_556 S
O858 Gd805 2.545 1_655 S
O858 C871 1.250 . S
O859 Gd805 2.412 . S
O859 C872 1.252 . S
C860 O849 1.284 . S
C860 O852 1.250 . S
C861 H830 0.929 . S
C861 C846 1.437 . S
C861 C862 1.317 . S
C862 H833 0.930 . S
C862 C838 1.431 . S
C862 C861 1.317 . S
C863 Gd804 2.828 . S
C863 O848 1.258 . S
C863 O853 1.252 . S
C863 C864 1.497 . S
C864 C863 1.497 . S
C864 C865 1.395 . S
C864 C866 1.380 1_655 S
C865 C864 1.395 . S
C865 C868 1.398 . S
C865 H880 0.930 . S
C866 C864 1.380 1_455 S
C866 C867 1.391 . S
C866 H881 0.930 . S
C867 C866 1.391 . S
C867 C869 1.387 1_455 S
C868 C865 1.398 . S
C868 C869 1.380 . S
C868 H882 0.930 . S
C869 C867 1.387 1_655 S
C869 C868 1.380 . S
C869 H883 0.930 . S
C870 O850 1.254 . S
C870 O851 1.268 1_556 S
C871 O855 1.302 . S
C871 O858 1.250 . S
C872 Gd805 2.828 . S
C872 O854 1.258 . S
C872 O859 1.252 . S
C872 C873 1.497 . S
C873 C872 1.497 . S
C873 C874 1.395 . S
C873 C875 1.380 1_455 S
C874 C873 1.395 . S
C874 C877 1.398 . S
C874 H884 0.930 . S
C875 C873 1.380 1_655 S
C875 C876 1.391 . S
C875 H885 0.930 . S
C876 C875 1.391 . S
C876 C878 1.387 1_655 S
C877 C874 1.398 . S
C877 C878 1.380 . S
C877 H886 0.930 . S
C878 C876 1.387 1_455 S
C878 C877 1.380 . S
C878 H887 0.930 . S
C879 O856 1.254 . S
C879 O857 1.199 1_554 S
H880 C865 0.930 . S
H881 C866 0.930 . S
H882 C868 0.930 . S
H883 C869 0.930 . S
H884 C874 0.930 . S
H885 C875 0.930 . S
H886 C877 0.930 . S
H887 C878 0.930 . S
Gd888 N919 2.661 . S
Gd888 N925 2.601 . S
Gd888 O932 2.545 . S
Gd888 O933 2.642 . S
Gd888 O935 2.429 . S
Gd888 O936 2.545 . S
Gd888 O937 2.412 . S
Gd888 O939 2.362 1_556 S
Gd888 O940 2.324 . S
Gd888 C947 2.828 . S
Gd889 N898 2.661 . S
Gd889 N902 2.601 . S
Gd889 O933 2.302 1_554 S
Gd889 O934 2.324 . S
Gd889 O938 2.545 . S
Gd889 O939 2.606 . S
Gd889 O941 2.429 . S
Gd889 O942 2.545 . S
Gd889 O943 2.412 . S
Gd889 C956 2.828 . S
C890 C893 1.417 . S
C890 C895 1.431 . S
C890 C896 1.412 . S
C891 C894 1.437 . S
C891 C895 1.317 . S
C891 H910 0.929 . S
C892 C893 1.426 . S
C892 C894 1.413 . S
C892 N902 1.359 . S
C893 C890 1.417 . S
C893 C892 1.426 . S
C893 N898 1.350 . S
C894 C891 1.437 . S
C894 C892 1.413 . S
C894 C904 1.391 . S
C895 C890 1.431 . S
C895 C891 1.317 . S
C895 H906 0.930 . S
C896 C890 1.412 . S
C896 C897 1.355 . S
C896 H908 0.930 . S
C897 C896 1.355 . S
C897 C899 1.402 . S
C897 H909 0.930 . S
N898 Gd889 2.661 . S
N898 C893 1.350 . S
N898 C899 1.307 . S
C899 C897 1.402 . S
C899 N898 1.307 . S
C899 H900 0.930 . S
H900 C899 0.930 . S
C901 N902 1.334 . S
C901 C903 1.394 . S
C901 H905 0.930 . S
N902 Gd889 2.601 . S
N902 C892 1.359 . S
N902 C901 1.334 . S
C903 C901 1.394 . S
C903 C904 1.359 . S
C903 H915 0.930 . S
C904 C894 1.391 . S
C904 C903 1.359 . S
C904 H916 0.929 . S
H905 C901 0.930 . S
H906 C895 0.930 . S
H907 C924 0.930 . S
H908 C896 0.930 . S
H909 C897 0.930 . S
H910 C891 0.929 . S
H911 C929 0.930 . S
H912 C920 0.930 . S
H913 C921 0.930 . S
H914 C945 0.929 . S
H915 C903 0.930 . S
H916 C904 0.929 . S
H917 C946 0.930 . S
H918 C927 0.930 . S
N919 Gd888 2.661 . S
N919 C923 1.350 . S
N919 C924 1.307 . S
C920 H912 0.930 . S
C920 C921 1.355 . S
C920 C922 1.412 . S
C921 H913 0.930 . S
C921 C920 1.355 . S
C921 C924 1.402 . S
C922 C920 1.412 . S
C922 C923 1.417 . S
C922 C946 1.431 . S
C923 N919 1.350 . S
C923 C922 1.417 . S
C923 C926 1.426 . S
C924 H907 0.930 . S
C924 N919 1.307 . S
C924 C921 1.402 . S
N925 Gd888 2.601 . S
N925 C926 1.359 . S
N925 C929 1.334 . S
C926 C923 1.426 . S
C926 N925 1.359 . S
C926 C930 1.413 . S
C927 H918 0.930 . S
C927 C928 1.359 . S
C927 C929 1.394 . S
C928 C927 1.359 . S
C928 C930 1.391 . S
C928 H931 0.929 . S
C929 H911 0.930 . S
C929 N925 1.334 . S
C929 C927 1.394 . S
C930 C926 1.413 . S
C930 C928 1.391 . S
C930 C945 1.437 . S
H931 C928 0.929 . S
O932 Gd888 2.545 . S
O932 C947 1.258 . S
O933 Gd888 2.642 . S
O933 Gd889 2.302 1_556 S
O933 C944 1.334 . S
O934 Gd889 2.324 . S
O934 C954 1.254 . S
O935 Gd888 2.429 . S
O935 C954 1.268 1_556 S
O936 Gd888 2.545 . S
O936 C944 1.250 . S
O937 Gd888 2.412 . S
O937 C947 1.252 . S
O938 Gd889 2.545 . S
O938 C956 1.258 . S
O939 Gd888 2.362 1_554 S
O939 Gd889 2.606 . S
O939 C955 1.284 . S
O940 Gd888 2.324 . S
O940 C963 1.254 . S
O941 Gd889 2.429 . S
O941 C963 1.268 1_554 S
O942 Gd889 2.545 . S
O942 C955 1.250 . S
O943 Gd889 2.412 . S
O943 C956 1.252 . S
C944 O933 1.334 . S
C944 O936 1.250 . S
C945 H914 0.929 . S
C945 C930 1.437 . S
C945 C946 1.317 . S
C946 H917 0.930 . S
C946 C922 1.431 . S
C946 C945 1.317 . S
C947 Gd888 2.828 . S
C947 O932 1.258 . S
C947 O937 1.252 . S
C947 C948 1.497 . S
C948 C947 1.497 . S
C948 C949 1.395 . S
C948 C950 1.380 . S
C949 C948 1.395 . S
C949 C952 1.398 . S
C949 H964 0.930 . S
C950 C948 1.380 . S
C950 C951 1.391 . S
C950 H965 0.930 . S
C951 C950 1.391 . S
C951 C953 1.387 . S
C952 C949 1.398 . S
C952 C953 1.380 . S
C952 H966 0.930 . S
C953 C951 1.387 . S
C953 C952 1.380 . S
C953 H967 0.930 . S
C954 O934 1.254 . S
C954 O935 1.268 1_554 S
C955 O939 1.284 . S
C955 O942 1.250 . S
C956 Gd889 2.828 . S
C956 O938 1.258 . S
C956 O943 1.252 . S
C956 C957 1.497 . S
C957 C956 1.497 . S
C957 C958 1.395 . S
C957 C959 1.380 . S
C958 C957 1.395 . S
C958 C961 1.398 . S
C958 H968 0.930 . S
C959 C957 1.380 . S
C959 C960 1.391 . S
C959 H969 0.930 . S
C960 C959 1.391 . S
C960 C962 1.387 . S
C961 C958 1.398 . S
C961 C962 1.380 . S
C961 H970 0.930 . S
C962 C960 1.387 . S
C962 C961 1.380 . S
C962 H971 0.930 . S
C963 O940 1.254 . S
C963 O941 1.268 1_556 S
H964 C949 0.930 . S
H965 C950 0.930 . S
H966 C952 0.930 . S
H967 C953 0.930 . S
H968 C958 0.930 . S
H969 C959 0.930 . S
H970 C961 0.930 . S
H971 C962 0.930 . S
Gd972 N1003 2.661 . S
Gd972 N1009 2.601 . S
Gd972 O1016 2.545 . S
Gd972 O1017 2.606 . S
Gd972 O1019 2.429 . S
Gd972 O1020 2.545 . S
Gd972 O1021 2.412 . S
Gd972 O1023 2.362 . S
Gd972 O1024 2.324 . S
Gd972 C1031 2.828 . S
Gd973 N982 2.661 . S
Gd973 N986 2.601 . S
Gd973 O1017 2.362 . S
Gd973 O1018 2.324 . S
Gd973 O1022 2.545 . S
Gd973 O1023 2.606 . S
Gd973 O1025 2.429 . S
Gd973 O1026 2.545 . S
Gd973 O1027 2.412 . S
Gd973 C1040 2.828 . S
C974 C977 1.417 . S
C974 C979 1.431 . S
C974 C980 1.412 . S
C975 C978 1.437 . S
C975 C979 1.317 . S
C975 H994 0.929 . S
C976 C977 1.426 . S
C976 C978 1.413 . S
C976 N986 1.359 . S
C977 C974 1.417 . S
C977 C976 1.426 . S
C977 N982 1.350 . S
C978 C975 1.437 . S
C978 C976 1.413 . S
C978 C988 1.391 . S
C979 C974 1.431 . S
C979 C975 1.317 . S
C979 H990 0.930 . S
C980 C974 1.412 . S
C980 C981 1.355 . S
C980 H992 0.930 . S
C981 C980 1.355 . S
C981 C983 1.402 . S
C981 H993 0.930 . S
N982 Gd973 2.661 . S
N982 C977 1.350 . S
N982 C983 1.307 . S
C983 C981 1.402 . S
C983 N982 1.307 . S
C983 H984 0.930 . S
H984 C983 0.930 . S
C985 N986 1.334 . S
C985 C987 1.394 . S
C985 H989 0.930 . S
N986 Gd973 2.601 . S
N986 C976 1.359 . S
N986 C985 1.334 . S
C987 C985 1.394 . S
C987 C988 1.359 . S
C987 H999 0.930 . S
C988 C978 1.391 . S
C988 C987 1.359 . S
C988 H1000 0.929 . S
H989 C985 0.930 . S
H990 C979 0.930 . S
H991 C1008 0.930 . S
H992 C980 0.930 . S
H993 C981 0.930 . S
H994 C975 0.929 . S
H995 C1013 0.930 . S
H996 C1004 0.930 . S
H997 C1005 0.930 . S
H998 C1029 0.929 . S
H999 C987 0.930 . S
H1000 C988 0.929 . S
H1001 C1030 0.930 . S
H1002 C1011 0.930 . S
N1003 Gd972 2.661 . S
N1003 C1007 1.350 . S
N1003 C1008 1.307 . S
C1004 H996 0.930 . S
C1004 C1005 1.355 . S
C1004 C1006 1.412 . S
C1005 H997 0.930 . S
C1005 C1004 1.355 . S
C1005 C1008 1.402 . S
C1006 C1004 1.412 . S
C1006 C1007 1.417 . S
C1006 C1030 1.431 . S
C1007 N1003 1.350 . S
C1007 C1006 1.417 . S
C1007 C1010 1.426 . S
C1008 H991 0.930 . S
C1008 N1003 1.307 . S
C1008 C1005 1.402 . S
N1009 Gd972 2.601 . S
N1009 C1010 1.359 . S
N1009 C1013 1.334 . S
C1010 C1007 1.426 . S
C1010 N1009 1.359 . S
C1010 C1014 1.413 . S
C1011 H1002 0.930 . S
C1011 C1012 1.359 . S
C1011 C1013 1.394 . S
C1012 C1011 1.359 . S
C1012 C1014 1.391 . S
C1012 H1015 0.929 . S
C1013 H995 0.930 . S
C1013 N1009 1.334 . S
C1013 C1011 1.394 . S
C1014 C1010 1.413 . S
C1014 C1012 1.391 . S
C1014 C1029 1.437 . S
H1015 C1012 0.929 . S
O1016 Gd972 2.545 . S
O1016 C1031 1.258 . S
O1017 Gd972 2.606 . S
O1017 Gd973 2.362 . S
O1017 C1028 1.284 . S
O1018 Gd973 2.324 . S
O1018 C1038 1.254 . S
O1019 Gd972 2.429 . S
O1019 C1038 1.268 . S
O1020 Gd972 2.545 . S
O1020 C1028 1.250 . S
O1021 Gd972 2.412 . S
O1021 C1031 1.252 . S
O1022 Gd973 2.545 . S
O1022 C1040 1.258 . S
O1023 Gd972 2.362 . S
O1023 Gd973 2.606 . S
O1023 C1039 1.284 . S
O1024 Gd972 2.324 . S
O1024 C1047 1.254 . S
O1025 Gd973 2.429 . S
O1025 C1047 1.268 . S
O1026 Gd973 2.545 . S
O1026 C1039 1.250 . S
O1027 Gd973 2.412 . S
O1027 C1040 1.252 . S
C1028 O1017 1.284 . S
C1028 O1020 1.250 . S
C1029 H998 0.929 . S
C1029 C1014 1.437 . S
C1029 C1030 1.317 . S
C1030 H1001 0.930 . S
C1030 C1006 1.431 . S
C1030 C1029 1.317 . S
C1031 Gd972 2.828 . S
C1031 O1016 1.258 . S
C1031 O1021 1.252 . S
C1031 C1032 1.497 . S
C1032 C1031 1.497 . S
C1032 C1033 1.395 . S
C1032 C1034 1.380 . S
C1033 C1032 1.395 . S
C1033 C1036 1.398 . S
C1033 H1048 0.930 . S
C1034 C1032 1.380 . S
C1034 C1035 1.391 . S
C1034 H1049 0.930 . S
C1035 C1034 1.391 . S
C1035 C1037 1.387 . S
C1036 C1033 1.398 . S
C1036 C1037 1.380 . S
C1036 H1050 0.930 . S
C1037 C1035 1.387 . S
C1037 C1036 1.380 . S
C1037 H1051 0.930 . S
C1038 O1018 1.254 . S
C1038 O1019 1.268 . S
C1039 O1023 1.284 . S
C1039 O1026 1.250 . S
C1040 Gd973 2.828 . S
C1040 O1022 1.258 . S
C1040 O1027 1.252 . S
C1040 C1041 1.497 . S
C1041 C1040 1.497 . S
C1041 C1042 1.395 . S
C1041 C1043 1.380 . S
C1042 C1041 1.395 . S
C1042 C1045 1.398 . S
C1042 H1052 0.930 . S
C1043 C1041 1.380 . S
C1043 C1044 1.391 . S
C1043 H1053 0.930 . S
C1044 C1043 1.391 . S
C1044 C1046 1.387 . S
C1045 C1042 1.398 . S
C1045 C1046 1.380 . S
C1045 H1054 0.930 . S
C1046 C1044 1.387 . S
C1046 C1045 1.380 . S
C1046 H1055 0.930 . S
C1047 O1024 1.254 . S
C1047 O1025 1.268 . S
H1048 C1033 0.930 . S
H1049 C1034 0.930 . S
H1050 C1036 0.930 . S
H1051 C1037 0.930 . S
H1052 C1042 0.930 . S
H1053 C1043 0.930 . S
H1054 C1045 0.930 . S
H1055 C1046 0.930 . S
Gd1056 N1087 2.661 . S
Gd1056 N1093 2.601 . S
Gd1056 O1100 2.545 . S
Gd1056 O1101 2.606 . S
Gd1056 O1103 2.429 . S
Gd1056 O1104 2.545 . S
Gd1056 O1105 2.412 . S
Gd1056 O1107 2.362 . S
Gd1056 O1108 2.324 . S
Gd1056 C1115 2.828 . S
Gd1057 N1066 2.661 . S
Gd1057 N1070 2.601 . S
Gd1057 O1101 2.362 . S
Gd1057 O1102 2.324 . S
Gd1057 O1106 2.545 . S
Gd1057 O1107 2.606 . S
Gd1057 O1109 2.429 . S
Gd1057 O1110 2.545 . S
Gd1057 O1111 2.412 . S
Gd1057 C1124 2.828 . S
C1058 C1061 1.417 . S
C1058 C1063 1.431 . S
C1058 C1064 1.412 . S
C1059 C1062 1.437 . S
C1059 C1063 1.317 . S
C1059 H1078 0.929 . S
C1060 C1061 1.426 . S
C1060 C1062 1.413 . S
C1060 N1070 1.359 . S
C1061 C1058 1.417 . S
C1061 C1060 1.426 . S
C1061 N1066 1.350 . S
C1062 C1059 1.437 . S
C1062 C1060 1.413 . S
C1062 C1072 1.391 . S
C1063 C1058 1.431 . S
C1063 C1059 1.317 . S
C1063 H1074 0.930 . S
C1064 C1058 1.412 . S
C1064 C1065 1.355 . S
C1064 H1076 0.930 . S
C1065 C1064 1.355 . S
C1065 C1067 1.402 . S
C1065 H1077 0.930 . S
N1066 Gd1057 2.661 . S
N1066 C1061 1.350 . S
N1066 C1067 1.307 . S
C1067 C1065 1.402 . S
C1067 N1066 1.307 . S
C1067 H1068 0.930 . S
H1068 C1067 0.930 . S
C1069 N1070 1.334 . S
C1069 C1071 1.394 . S
C1069 H1073 0.930 . S
N1070 Gd1057 2.601 . S
N1070 C1060 1.359 . S
N1070 C1069 1.334 . S
C1071 C1069 1.394 . S
C1071 C1072 1.359 . S
C1071 H1083 0.930 . S
C1072 C1062 1.391 . S
C1072 C1071 1.359 . S
C1072 H1084 0.929 . S
H1073 C1069 0.930 . S
H1074 C1063 0.930 . S
H1075 C1092 0.930 . S
H1076 C1064 0.930 . S
H1077 C1065 0.930 . S
H1078 C1059 0.929 . S
H1079 C1097 0.930 . S
H1080 C1088 0.930 . S
H1081 C1089 0.930 . S
H1082 C1113 0.929 . S
H1083 C1071 0.930 . S
H1084 C1072 0.929 . S
H1085 C1114 0.930 . S
H1086 C1095 0.930 . S
N1087 Gd1056 2.661 . S
N1087 C1091 1.350 . S
N1087 C1092 1.307 . S
C1088 H1080 0.930 . S
C1088 C1089 1.355 . S
C1088 C1090 1.412 . S
C1089 H1081 0.930 . S
C1089 C1088 1.355 . S
C1089 C1092 1.402 . S
C1090 C1088 1.412 . S
C1090 C1091 1.417 . S
C1090 C1114 1.431 . S
C1091 N1087 1.350 . S
C1091 C1090 1.417 . S
C1091 C1094 1.426 . S
C1092 H1075 0.930 . S
C1092 N1087 1.307 . S
C1092 C1089 1.402 . S
N1093 Gd1056 2.601 . S
N1093 C1094 1.359 . S
N1093 C1097 1.334 . S
C1094 C1091 1.426 . S
C1094 N1093 1.359 . S
C1094 C1098 1.413 . S
C1095 H1086 0.930 . S
C1095 C1096 1.359 . S
C1095 C1097 1.394 . S
C1096 C1095 1.359 . S
C1096 C1098 1.391 . S
C1096 H1099 0.929 . S
C1097 H1079 0.930 . S
C1097 N1093 1.334 . S
C1097 C1095 1.394 . S
C1098 C1094 1.413 . S
C1098 C1096 1.391 . S
C1098 C1113 1.437 . S
H1099 C1096 0.929 . S
O1100 Gd1056 2.545 . S
O1100 C1115 1.258 . S
O1101 Gd1056 2.606 . S
O1101 Gd1057 2.362 . S
O1101 C1112 1.284 . S
O1102 Gd1057 2.324 . S
O1102 C1122 1.254 . S
O1103 Gd1056 2.429 . S
O1103 C1122 1.268 . S
O1104 Gd1056 2.545 . S
O1104 C1112 1.250 . S
O1105 Gd1056 2.412 . S
O1105 C1115 1.252 . S
O1106 Gd1057 2.545 . S
O1106 C1124 1.258 . S
O1107 Gd1056 2.362 . S
O1107 Gd1057 2.606 . S
O1107 C1123 1.284 . S
O1108 Gd1056 2.324 . S
O1108 C1131 1.254 . S
O1109 Gd1057 2.429 . S
O1109 C1131 1.268 . S
O1110 Gd1057 2.545 . S
O1110 C1123 1.250 . S
O1111 Gd1057 2.412 . S
O1111 C1124 1.252 . S
C1112 O1101 1.284 . S
C1112 O1104 1.250 . S
C1113 H1082 0.929 . S
C1113 C1098 1.437 . S
C1113 C1114 1.317 . S
C1114 H1085 0.930 . S
C1114 C1090 1.431 . S
C1114 C1113 1.317 . S
C1115 Gd1056 2.828 . S
C1115 O1100 1.258 . S
C1115 O1105 1.252 . S
C1115 C1116 1.497 . S
C1116 C1115 1.497 . S
C1116 C1117 1.395 . S
C1116 C1118 1.380 . S
C1117 C1116 1.395 . S
C1117 C1120 1.398 . S
C1117 H1132 0.930 . S
C1118 C1116 1.380 . S
C1118 C1119 1.391 . S
C1118 H1133 0.930 . S
C1119 C1118 1.391 . S
C1119 C1121 1.387 . S
C1120 C1117 1.398 . S
C1120 C1121 1.380 . S
C1120 H1134 0.930 . S
C1121 C1119 1.387 . S
C1121 C1120 1.380 . S
C1121 H1135 0.930 . S
C1122 O1102 1.254 . S
C1122 O1103 1.268 . S
C1123 O1107 1.284 . S
C1123 O1110 1.250 . S
C1124 Gd1057 2.828 . S
C1124 O1106 1.258 . S
C1124 O1111 1.252 . S
C1124 C1125 1.497 . S
C1125 C1124 1.497 . S
C1125 C1126 1.395 . S
C1125 C1127 1.380 . S
C1126 C1125 1.395 . S
C1126 C1129 1.398 . S
C1126 H1136 0.930 . S
C1127 C1125 1.380 . S
C1127 C1128 1.391 . S
C1127 H1137 0.930 . S
C1128 C1127 1.391 . S
C1128 C1130 1.387 . S
C1129 C1126 1.398 . S
C1129 C1130 1.380 . S
C1129 H1138 0.930 . S
C1130 C1128 1.387 . S
C1130 C1129 1.380 . S
C1130 H1139 0.930 . S
C1131 O1108 1.254 . S
C1131 O1109 1.268 . S
H1132 C1117 0.930 . S
H1133 C1118 0.930 . S
H1134 C1120 0.930 . S
H1135 C1121 0.930 . S
H1136 C1126 0.930 . S
H1137 C1127 0.930 . S
H1138 C1129 0.930 . S
H1139 C1130 0.930 . S
Gd1140 N1171 2.661 . S
Gd1140 N1177 2.601 . S
Gd1140 O1184 2.545 . S
Gd1140 O1185 2.606 . S
Gd1140 O1187 2.429 . S
Gd1140 O1188 2.545 . S
Gd1140 O1189 2.412 . S
Gd1140 O1191 2.362 . S
Gd1140 O1192 2.324 . S
Gd1140 C1199 2.828 . S
Gd1141 N1150 2.661 . S
Gd1141 N1154 2.601 . S
Gd1141 O1185 2.362 . S
Gd1141 O1186 2.324 . S
Gd1141 O1190 2.545 . S
Gd1141 O1191 2.606 . S
Gd1141 O1193 2.429 . S
Gd1141 O1194 2.545 . S
Gd1141 O1195 2.412 . S
Gd1141 C1208 2.828 . S
C1142 C1145 1.417 . S
C1142 C1147 1.431 . S
C1142 C1148 1.412 . S
C1143 C1146 1.437 . S
C1143 C1147 1.317 . S
C1143 H1162 0.929 . S
C1144 C1145 1.426 . S
C1144 C1146 1.413 . S
C1144 N1154 1.359 . S
C1145 C1142 1.417 . S
C1145 C1144 1.426 . S
C1145 N1150 1.350 . S
C1146 C1143 1.437 . S
C1146 C1144 1.413 . S
C1146 C1156 1.391 . S
C1147 C1142 1.431 . S
C1147 C1143 1.317 . S
C1147 H1158 0.930 . S
C1148 C1142 1.412 . S
C1148 C1149 1.355 . S
C1148 H1160 0.930 . S
C1149 C1148 1.355 . S
C1149 C1151 1.402 . S
C1149 H1161 0.930 . S
N1150 Gd1141 2.661 . S
N1150 C1145 1.350 . S
N1150 C1151 1.307 . S
C1151 C1149 1.402 . S
C1151 N1150 1.307 . S
C1151 H1152 0.930 . S
H1152 C1151 0.930 . S
C1153 N1154 1.334 . S
C1153 C1155 1.394 . S
C1153 H1157 0.930 . S
N1154 Gd1141 2.601 . S
N1154 C1144 1.359 . S
N1154 C1153 1.334 . S
C1155 C1153 1.394 . S
C1155 C1156 1.359 . S
C1155 H1167 0.930 . S
C1156 C1146 1.391 . S
C1156 C1155 1.359 . S
C1156 H1168 0.929 . S
H1157 C1153 0.930 . S
H1158 C1147 0.930 . S
H1159 C1176 0.930 . S
H1160 C1148 0.930 . S
H1161 C1149 0.930 . S
H1162 C1143 0.929 . S
H1163 C1181 0.930 . S
H1164 C1172 0.930 . S
H1165 C1173 0.930 . S
H1166 C1197 0.929 . S
H1167 C1155 0.930 . S
H1168 C1156 0.929 . S
H1169 C1198 0.930 . S
H1170 C1179 0.930 . S
N1171 Gd1140 2.661 . S
N1171 C1175 1.350 . S
N1171 C1176 1.307 . S
C1172 H1164 0.930 . S
C1172 C1173 1.355 . S
C1172 C1174 1.412 . S
C1173 H1165 0.930 . S
C1173 C1172 1.355 . S
C1173 C1176 1.402 . S
C1174 C1172 1.412 . S
C1174 C1175 1.417 . S
C1174 C1198 1.431 . S
C1175 N1171 1.350 . S
C1175 C1174 1.417 . S
C1175 C1178 1.426 . S
C1176 H1159 0.930 . S
C1176 N1171 1.307 . S
C1176 C1173 1.402 . S
N1177 Gd1140 2.601 . S
N1177 C1178 1.359 . S
N1177 C1181 1.334 . S
C1178 C1175 1.426 . S
C1178 N1177 1.359 . S
C1178 C1182 1.413 . S
C1179 H1170 0.930 . S
C1179 C1180 1.359 . S
C1179 C1181 1.394 . S
C1180 C1179 1.359 . S
C1180 C1182 1.391 . S
C1180 H1183 0.929 . S
C1181 H1163 0.930 . S
C1181 N1177 1.334 . S
C1181 C1179 1.394 . S
C1182 C1178 1.413 . S
C1182 C1180 1.391 . S
C1182 C1197 1.437 . S
H1183 C1180 0.929 . S
O1184 Gd1140 2.545 . S
O1184 C1199 1.258 . S
O1185 Gd1140 2.606 . S
O1185 Gd1141 2.362 . S
O1185 C1196 1.284 . S
O1186 Gd1141 2.324 . S
O1186 C1206 1.254 . S
O1187 Gd1140 2.429 . S
O1187 C1206 1.268 . S
O1188 Gd1140 2.545 . S
O1188 C1196 1.250 . S
O1189 Gd1140 2.412 . S
O1189 C1199 1.252 . S
O1190 Gd1141 2.545 . S
O1190 C1208 1.258 . S
O1191 Gd1140 2.362 . S
O1191 Gd1141 2.606 . S
O1191 C1207 1.284 . S
O1192 Gd1140 2.324 . S
O1192 C1215 1.254 . S
O1193 Gd1141 2.429 . S
O1193 C1215 1.268 . S
O1194 Gd1141 2.545 . S
O1194 C1207 1.250 . S
O1195 Gd1141 2.412 . S
O1195 C1208 1.252 . S
C1196 O1185 1.284 . S
C1196 O1188 1.250 . S
C1197 H1166 0.929 . S
C1197 C1182 1.437 . S
C1197 C1198 1.317 . S
C1198 H1169 0.930 . S
C1198 C1174 1.431 . S
C1198 C1197 1.317 . S
C1199 Gd1140 2.828 . S
C1199 O1184 1.258 . S
C1199 O1189 1.252 . S
C1199 C1200 1.497 . S
C1200 C1199 1.497 . S
C1200 C1201 1.395 . S
C1200 C1202 1.380 . S
C1201 C1200 1.395 . S
C1201 C1204 1.398 . S
C1201 H1216 0.930 . S
C1202 C1200 1.380 . S
C1202 C1203 1.391 . S
C1202 H1217 0.930 . S
C1203 C1202 1.391 . S
C1203 C1205 1.387 . S
C1204 C1201 1.398 . S
C1204 C1205 1.380 . S
C1204 H1218 0.930 . S
C1205 C1203 1.387 . S
C1205 C1204 1.380 . S
C1205 H1219 0.930 . S
C1206 O1186 1.254 . S
C1206 O1187 1.268 . S
C1207 O1191 1.284 . S
C1207 O1194 1.250 . S
C1208 Gd1141 2.828 . S
C1208 O1190 1.258 . S
C1208 O1195 1.252 . S
C1208 C1209 1.497 . S
C1209 C1208 1.497 . S
C1209 C1210 1.395 . S
C1209 C1211 1.380 . S
C1210 C1209 1.395 . S
C1210 C1213 1.398 . S
C1210 H1220 0.930 . S
C1211 C1209 1.380 . S
C1211 C1212 1.391 . S
C1211 H1221 0.930 . S
C1212 C1211 1.391 . S
C1212 C1214 1.387 . S
C1213 C1210 1.398 . S
C1213 C1214 1.380 . S
C1213 H1222 0.930 . S
C1214 C1212 1.387 . S
C1214 C1213 1.380 . S
C1214 H1223 0.930 . S
C1215 O1192 1.254 . S
C1215 O1193 1.268 . S
H1216 C1201 0.930 . S
H1217 C1202 0.930 . S
H1218 C1204 0.930 . S
H1219 C1205 0.930 . S
H1220 C1210 0.930 . S
H1221 C1211 0.930 . S
H1222 C1213 0.930 . S
H1223 C1214 0.930 . S
Gd1224 N1255 2.661 . S
Gd1224 N1261 2.601 . S
Gd1224 O1268 2.545 . S
Gd1224 O1269 2.606 . S
Gd1224 O1271 2.429 . S
Gd1224 O1272 2.545 . S
Gd1224 O1273 2.412 . S
Gd1224 O1275 2.362 . S
Gd1224 O1276 2.324 . S
Gd1224 C1283 2.828 . S
Gd1225 N1234 2.661 . S
Gd1225 N1238 2.601 . S
Gd1225 O1269 2.362 . S
Gd1225 O1270 2.324 . S
Gd1225 O1274 2.545 . S
Gd1225 O1275 2.606 . S
Gd1225 O1277 2.429 . S
Gd1225 O1278 2.545 . S
Gd1225 O1279 2.412 . S
Gd1225 C1292 2.828 . S
C1226 C1229 1.417 . S
C1226 C1231 1.431 . S
C1226 C1232 1.412 . S
C1227 C1230 1.437 . S
C1227 C1231 1.317 . S
C1227 H1246 0.929 . S
C1228 C1229 1.426 . S
C1228 C1230 1.413 . S
C1228 N1238 1.359 . S
C1229 C1226 1.417 . S
C1229 C1228 1.426 . S
C1229 N1234 1.350 . S
C1230 C1227 1.437 . S
C1230 C1228 1.413 . S
C1230 C1240 1.391 . S
C1231 C1226 1.431 . S
C1231 C1227 1.317 . S
C1231 H1242 0.930 . S
C1232 C1226 1.412 . S
C1232 C1233 1.355 . S
C1232 H1244 0.930 . S
C1233 C1232 1.355 . S
C1233 C1235 1.402 . S
C1233 H1245 0.930 . S
N1234 Gd1225 2.661 . S
N1234 C1229 1.350 . S
N1234 C1235 1.307 . S
C1235 C1233 1.402 . S
C1235 N1234 1.307 . S
C1235 H1236 0.930 . S
H1236 C1235 0.930 . S
C1237 N1238 1.334 . S
C1237 C1239 1.394 . S
C1237 H1241 0.930 . S
N1238 Gd1225 2.601 . S
N1238 C1228 1.359 . S
N1238 C1237 1.334 . S
C1239 C1237 1.394 . S
C1239 C1240 1.359 . S
C1239 H1251 0.930 . S
C1240 C1230 1.391 . S
C1240 C1239 1.359 . S
C1240 H1252 0.929 . S
H1241 C1237 0.930 . S
H1242 C1231 0.930 . S
H1243 C1260 0.930 . S
H1244 C1232 0.930 . S
H1245 C1233 0.930 . S
H1246 C1227 0.929 . S
H1247 C1265 0.930 . S
H1248 C1256 0.930 . S
H1249 C1257 0.930 . S
H1250 C1281 0.929 . S
H1251 C1239 0.930 . S
H1252 C1240 0.929 . S
H1253 C1282 0.930 . S
H1254 C1263 0.930 . S
N1255 Gd1224 2.661 . S
N1255 C1259 1.350 . S
N1255 C1260 1.307 . S
C1256 H1248 0.930 . S
C1256 C1257 1.355 . S
C1256 C1258 1.412 . S
C1257 H1249 0.930 . S
C1257 C1256 1.355 . S
C1257 C1260 1.402 . S
C1258 C1256 1.412 . S
C1258 C1259 1.417 . S
C1258 C1282 1.431 . S
C1259 N1255 1.350 . S
C1259 C1258 1.417 . S
C1259 C1262 1.426 . S
C1260 H1243 0.930 . S
C1260 N1255 1.307 . S
C1260 C1257 1.402 . S
N1261 Gd1224 2.601 . S
N1261 C1262 1.359 . S
N1261 C1265 1.334 . S
C1262 C1259 1.426 . S
C1262 N1261 1.359 . S
C1262 C1266 1.413 . S
C1263 H1254 0.930 . S
C1263 C1264 1.359 . S
C1263 C1265 1.394 . S
C1264 C1263 1.359 . S
C1264 C1266 1.391 . S
C1264 H1267 0.929 . S
C1265 H1247 0.930 . S
C1265 N1261 1.334 . S
C1265 C1263 1.394 . S
C1266 C1262 1.413 . S
C1266 C1264 1.391 . S
C1266 C1281 1.437 . S
H1267 C1264 0.929 . S
O1268 Gd1224 2.545 . S
O1268 C1283 1.258 . S
O1269 Gd1224 2.606 . S
O1269 Gd1225 2.362 . S
O1269 C1280 1.284 . S
O1270 Gd1225 2.324 . S
O1270 C1290 1.254 . S
O1271 Gd1224 2.429 . S
O1271 C1290 1.268 . S
O1272 Gd1224 2.545 . S
O1272 C1280 1.250 . S
O1273 Gd1224 2.412 . S
O1273 C1283 1.252 . S
O1274 Gd1225 2.545 . S
O1274 C1292 1.258 . S
O1275 Gd1224 2.362 . S
O1275 Gd1225 2.606 . S
O1275 C1291 1.284 . S
O1276 Gd1224 2.324 . S
O1276 C1299 1.254 . S
O1277 Gd1225 2.429 . S
O1277 C1299 1.268 . S
O1278 Gd1225 2.545 . S
O1278 C1291 1.250 . S
O1279 Gd1225 2.412 . S
O1279 C1292 1.252 . S
C1280 O1269 1.284 . S
C1280 O1272 1.250 . S
C1281 H1250 0.929 . S
C1281 C1266 1.437 . S
C1281 C1282 1.317 . S
C1282 H1253 0.930 . S
C1282 C1258 1.431 . S
C1282 C1281 1.317 . S
C1283 Gd1224 2.828 . S
C1283 O1268 1.258 . S
C1283 O1273 1.252 . S
C1283 C1284 1.497 . S
C1284 C1283 1.497 . S
C1284 C1285 1.395 . S
C1284 C1286 1.380 . S
C1285 C1284 1.395 . S
C1285 C1288 1.398 . S
C1285 H1300 0.930 . S
C1286 C1284 1.380 . S
C1286 C1287 1.391 . S
C1286 H1301 0.930 . S
C1287 C1286 1.391 . S
C1287 C1289 1.387 . S
C1288 C1285 1.398 . S
C1288 C1289 1.380 . S
C1288 H1302 0.930 . S
C1289 C1287 1.387 . S
C1289 C1288 1.380 . S
C1289 H1303 0.930 . S
C1290 O1270 1.254 . S
C1290 O1271 1.268 . S
C1291 O1275 1.284 . S
C1291 O1278 1.250 . S
C1292 Gd1225 2.828 . S
C1292 O1274 1.258 . S
C1292 O1279 1.252 . S
C1292 C1293 1.497 . S
C1293 C1292 1.497 . S
C1293 C1294 1.395 . S
C1293 C1295 1.380 . S
C1294 C1293 1.395 . S
C1294 C1297 1.398 . S
C1294 H1304 0.930 . S
C1295 C1293 1.380 . S
C1295 C1296 1.391 . S
C1295 H1305 0.930 . S
C1296 C1295 1.391 . S
C1296 C1298 1.387 . S
C1297 C1294 1.398 . S
C1297 C1298 1.380 . S
C1297 H1306 0.930 . S
C1298 C1296 1.387 . S
C1298 C1297 1.380 . S
C1298 H1307 0.930 . S
C1299 O1276 1.254 . S
C1299 O1277 1.268 . S
H1300 C1285 0.930 . S
H1301 C1286 0.930 . S
H1302 C1288 0.930 . S
H1303 C1289 0.930 . S
H1304 C1294 0.930 . S
H1305 C1295 0.930 . S
H1306 C1297 0.930 . S
H1307 C1298 0.930 . S
Gd1308 N1339 2.661 . S
Gd1308 N1345 2.601 . S
Gd1308 O1352 2.545 . S
Gd1308 O1353 2.606 . S
Gd1308 O1355 2.429 . S
Gd1308 O1356 2.545 . S
Gd1308 O1357 2.412 . S
Gd1308 O1359 2.362 . S
Gd1308 O1360 2.324 . S
Gd1308 C1367 2.828 . S
Gd1309 N1318 2.661 . S
Gd1309 N1322 2.601 . S
Gd1309 O1353 2.362 . S
Gd1309 O1354 2.324 . S
Gd1309 O1358 2.545 . S
Gd1309 O1359 2.606 . S
Gd1309 O1361 2.429 . S
Gd1309 O1362 2.545 . S
Gd1309 O1363 2.412 . S
Gd1309 C1376 2.828 . S
C1310 C1313 1.417 . S
C1310 C1315 1.431 . S
C1310 C1316 1.412 . S
C1311 C1314 1.437 . S
C1311 C1315 1.317 . S
C1311 H1330 0.929 . S
C1312 C1313 1.426 . S
C1312 C1314 1.413 . S
C1312 N1322 1.359 . S
C1313 C1310 1.417 . S
C1313 C1312 1.426 . S
C1313 N1318 1.350 . S
C1314 C1311 1.437 . S
C1314 C1312 1.413 . S
C1314 C1324 1.391 . S
C1315 C1310 1.431 . S
C1315 C1311 1.317 . S
C1315 H1326 0.930 . S
C1316 C1310 1.412 . S
C1316 C1317 1.355 . S
C1316 H1328 0.930 . S
C1317 C1316 1.355 . S
C1317 C1319 1.402 . S
C1317 H1329 0.930 . S
N1318 Gd1309 2.661 . S
N1318 C1313 1.350 . S
N1318 C1319 1.307 . S
C1319 C1317 1.402 . S
C1319 N1318 1.307 . S
C1319 H1320 0.930 . S
H1320 C1319 0.930 . S
C1321 N1322 1.334 . S
C1321 C1323 1.394 . S
C1321 H1325 0.930 . S
N1322 Gd1309 2.601 . S
N1322 C1312 1.359 . S
N1322 C1321 1.334 . S
C1323 C1321 1.394 . S
C1323 C1324 1.359 . S
C1323 H1335 0.930 . S
C1324 C1314 1.391 . S
C1324 C1323 1.359 . S
C1324 H1336 0.929 . S
H1325 C1321 0.930 . S
H1326 C1315 0.930 . S
H1327 C1344 0.930 . S
H1328 C1316 0.930 . S
H1329 C1317 0.930 . S
H1330 C1311 0.929 . S
H1331 C1349 0.930 . S
H1332 C1340 0.930 . S
H1333 C1341 0.930 . S
H1334 C1365 0.929 . S
H1335 C1323 0.930 . S
H1336 C1324 0.929 . S
H1337 C1366 0.930 . S
H1338 C1347 0.930 . S
N1339 Gd1308 2.661 . S
N1339 C1343 1.350 . S
N1339 C1344 1.307 . S
C1340 H1332 0.930 . S
C1340 C1341 1.355 . S
C1340 C1342 1.412 . S
C1341 H1333 0.930 . S
C1341 C1340 1.355 . S
C1341 C1344 1.402 . S
C1342 C1340 1.412 . S
C1342 C1343 1.417 . S
C1342 C1366 1.431 . S
C1343 N1339 1.350 . S
C1343 C1342 1.417 . S
C1343 C1346 1.426 . S
C1344 H1327 0.930 . S
C1344 N1339 1.307 . S
C1344 C1341 1.402 . S
N1345 Gd1308 2.601 . S
N1345 C1346 1.359 . S
N1345 C1349 1.334 . S
C1346 C1343 1.426 . S
C1346 N1345 1.359 . S
C1346 C1350 1.413 . S
C1347 H1338 0.930 . S
C1347 C1348 1.359 . S
C1347 C1349 1.394 . S
C1348 C1347 1.359 . S
C1348 C1350 1.391 . S
C1348 H1351 0.929 . S
C1349 H1331 0.930 . S
C1349 N1345 1.334 . S
C1349 C1347 1.394 . S
C1350 C1346 1.413 . S
C1350 C1348 1.391 . S
C1350 C1365 1.437 . S
H1351 C1348 0.929 . S
O1352 Gd1308 2.545 . S
O1352 C1367 1.258 . S
O1353 Gd1308 2.606 . S
O1353 Gd1309 2.362 . S
O1353 C1364 1.284 . S
O1354 Gd1309 2.324 . S
O1354 C1374 1.254 . S
O1355 Gd1308 2.429 . S
O1355 C1374 1.268 . S
O1356 Gd1308 2.545 . S
O1356 C1364 1.250 . S
O1357 Gd1308 2.412 . S
O1357 C1367 1.252 . S
O1358 Gd1309 2.545 . S
O1358 C1376 1.258 . S
O1359 Gd1308 2.362 . S
O1359 Gd1309 2.606 . S
O1359 C1375 1.284 . S
O1360 Gd1308 2.324 . S
O1360 C1383 1.254 . S
O1361 Gd1309 2.429 . S
O1361 C1383 1.268 . S
O1362 Gd1309 2.545 . S
O1362 C1375 1.250 . S
O1363 Gd1309 2.412 . S
O1363 C1376 1.252 . S
C1364 O1353 1.284 . S
C1364 O1356 1.250 . S
C1365 H1334 0.929 . S
C1365 C1350 1.437 . S
C1365 C1366 1.317 . S
C1366 H1337 0.930 . S
C1366 C1342 1.431 . S
C1366 C1365 1.317 . S
C1367 Gd1308 2.828 . S
C1367 O1352 1.258 . S
C1367 O1357 1.252 . S
C1367 C1368 1.497 . S
C1368 C1367 1.497 . S
C1368 C1369 1.395 . S
C1368 C1370 1.380 . S
C1369 C1368 1.395 . S
C1369 C1372 1.398 . S
C1369 H1384 0.930 . S
C1370 C1368 1.380 . S
C1370 C1371 1.391 . S
C1370 H1385 0.930 . S
C1371 C1370 1.391 . S
C1371 C1373 1.387 . S
C1372 C1369 1.398 . S
C1372 C1373 1.380 . S
C1372 H1386 0.930 . S
C1373 C1371 1.387 . S
C1373 C1372 1.380 . S
C1373 H1387 0.930 . S
C1374 O1354 1.254 . S
C1374 O1355 1.268 . S
C1375 O1359 1.284 . S
C1375 O1362 1.250 . S
C1376 Gd1309 2.828 . S
C1376 O1358 1.258 . S
C1376 O1363 1.252 . S
C1376 C1377 1.497 . S
C1377 C1376 1.497 . S
C1377 C1378 1.395 . S
C1377 C1379 1.380 . S
C1378 C1377 1.395 . S
C1378 C1381 1.398 . S
C1378 H1388 0.930 . S
C1379 C1377 1.380 . S
C1379 C1380 1.391 . S
C1379 H1389 0.930 . S
C1380 C1379 1.391 . S
C1380 C1382 1.387 . S
C1381 C1378 1.398 . S
C1381 C1382 1.380 . S
C1381 H1390 0.930 . S
C1382 C1380 1.387 . S
C1382 C1381 1.380 . S
C1382 H1391 0.930 . S
C1383 O1360 1.254 . S
C1383 O1361 1.268 . S
H1384 C1369 0.930 . S
H1385 C1370 0.930 . S
H1386 C1372 0.930 . S
H1387 C1373 0.930 . S
H1388 C1378 0.930 . S
H1389 C1379 0.930 . S
H1390 C1381 0.930 . S
H1391 C1382 0.930 . S
Gd1392 N1423 2.661 . S
Gd1392 N1429 2.601 . S
Gd1392 O1436 2.545 . S
Gd1392 O1437 2.606 . S
Gd1392 O1439 2.429 . S
Gd1392 O1440 2.545 . S
Gd1392 O1441 2.412 . S
Gd1392 O1443 2.362 . S
Gd1392 O1444 2.324 . S
Gd1392 C1451 2.828 . S
Gd1393 N1402 2.661 . S
Gd1393 N1406 2.601 . S
Gd1393 O1437 2.362 . S
Gd1393 O1438 2.324 . S
Gd1393 O1442 2.545 . S
Gd1393 O1443 2.606 . S
Gd1393 O1445 2.429 . S
Gd1393 O1446 2.545 . S
Gd1393 O1447 2.412 . S
Gd1393 C1460 2.828 . S
C1394 C1397 1.417 . S
C1394 C1399 1.431 . S
C1394 C1400 1.412 . S
C1395 C1398 1.437 . S
C1395 C1399 1.317 . S
C1395 H1414 0.929 . S
C1396 C1397 1.426 . S
C1396 C1398 1.413 . S
C1396 N1406 1.359 . S
C1397 C1394 1.417 . S
C1397 C1396 1.426 . S
C1397 N1402 1.350 . S
C1398 C1395 1.437 . S
C1398 C1396 1.413 . S
C1398 C1408 1.391 . S
C1399 C1394 1.431 . S
C1399 C1395 1.317 . S
C1399 H1410 0.930 . S
C1400 C1394 1.412 . S
C1400 C1401 1.355 . S
C1400 H1412 0.930 . S
C1401 C1400 1.355 . S
C1401 C1403 1.402 . S
C1401 H1413 0.930 . S
N1402 Gd1393 2.661 . S
N1402 C1397 1.350 . S
N1402 C1403 1.307 . S
C1403 C1401 1.402 . S
C1403 N1402 1.307 . S
C1403 H1404 0.930 . S
H1404 C1403 0.930 . S
C1405 N1406 1.334 . S
C1405 C1407 1.394 . S
C1405 H1409 0.930 . S
N1406 Gd1393 2.601 . S
N1406 C1396 1.359 . S
N1406 C1405 1.334 . S
C1407 C1405 1.394 . S
C1407 C1408 1.359 . S
C1407 H1419 0.930 . S
C1408 C1398 1.391 . S
C1408 C1407 1.359 . S
C1408 H1420 0.929 . S
H1409 C1405 0.930 . S
H1410 C1399 0.930 . S
H1411 C1428 0.930 . S
H1412 C1400 0.930 . S
H1413 C1401 0.930 . S
H1414 C1395 0.929 . S
H1415 C1433 0.930 . S
H1416 C1424 0.930 . S
H1417 C1425 0.930 . S
H1418 C1449 0.929 . S
H1419 C1407 0.930 . S
H1420 C1408 0.929 . S
H1421 C1450 0.930 . S
H1422 C1431 0.930 . S
N1423 Gd1392 2.661 . S
N1423 C1427 1.350 . S
N1423 C1428 1.307 . S
C1424 H1416 0.930 . S
C1424 C1425 1.355 . S
C1424 C1426 1.412 . S
C1425 H1417 0.930 . S
C1425 C1424 1.355 . S
C1425 C1428 1.402 . S
C1426 C1424 1.412 . S
C1426 C1427 1.417 . S
C1426 C1450 1.431 . S
C1427 N1423 1.350 . S
C1427 C1426 1.417 . S
C1427 C1430 1.426 . S
C1428 H1411 0.930 . S
C1428 N1423 1.307 . S
C1428 C1425 1.402 . S
N1429 Gd1392 2.601 . S
N1429 C1430 1.359 . S
N1429 C1433 1.334 . S
C1430 C1427 1.426 . S
C1430 N1429 1.359 . S
C1430 C1434 1.413 . S
C1431 H1422 0.930 . S
C1431 C1432 1.359 . S
C1431 C1433 1.394 . S
C1432 C1431 1.359 . S
C1432 C1434 1.391 . S
C1432 H1435 0.929 . S
C1433 H1415 0.930 . S
C1433 N1429 1.334 . S
C1433 C1431 1.394 . S
C1434 C1430 1.413 . S
C1434 C1432 1.391 . S
C1434 C1449 1.437 . S
H1435 C1432 0.929 . S
O1436 Gd1392 2.545 . S
O1436 C1451 1.258 . S
O1437 Gd1392 2.606 . S
O1437 Gd1393 2.362 . S
O1437 C1448 1.284 . S
O1438 Gd1393 2.324 . S
O1438 C1458 1.254 . S
O1439 Gd1392 2.429 . S
O1439 C1458 1.268 . S
O1440 Gd1392 2.545 . S
O1440 C1448 1.250 . S
O1441 Gd1392 2.412 . S
O1441 C1451 1.252 . S
O1442 Gd1393 2.545 . S
O1442 C1460 1.258 . S
O1443 Gd1392 2.362 . S
O1443 Gd1393 2.606 . S
O1443 C1459 1.284 . S
O1444 Gd1392 2.324 . S
O1444 C1467 1.254 . S
O1445 Gd1393 2.429 . S
O1445 C1467 1.268 . S
O1446 Gd1393 2.545 . S
O1446 C1459 1.250 . S
O1447 Gd1393 2.412 . S
O1447 C1460 1.252 . S
C1448 O1437 1.284 . S
C1448 O1440 1.250 . S
C1449 H1418 0.929 . S
C1449 C1434 1.437 . S
C1449 C1450 1.317 . S
C1450 H1421 0.930 . S
C1450 C1426 1.431 . S
C1450 C1449 1.317 . S
C1451 Gd1392 2.828 . S
C1451 O1436 1.258 . S
C1451 O1441 1.252 . S
C1451 C1452 1.497 . S
C1452 C1451 1.497 . S
C1452 C1453 1.395 . S
C1452 C1454 1.380 . S
C1453 C1452 1.395 . S
C1453 C1456 1.398 . S
C1453 H1468 0.930 . S
C1454 C1452 1.380 . S
C1454 C1455 1.391 . S
C1454 H1469 0.930 . S
C1455 C1454 1.391 . S
C1455 C1457 1.387 . S
C1456 C1453 1.398 . S
C1456 C1457 1.380 . S
C1456 H1470 0.930 . S
C1457 C1455 1.387 . S
C1457 C1456 1.380 . S
C1457 H1471 0.930 . S
C1458 O1438 1.254 . S
C1458 O1439 1.268 . S
C1459 O1443 1.284 . S
C1459 O1446 1.250 . S
C1460 Gd1393 2.828 . S
C1460 O1442 1.258 . S
C1460 O1447 1.252 . S
C1460 C1461 1.497 . S
C1461 C1460 1.497 . S
C1461 C1462 1.395 . S
C1461 C1463 1.380 . S
C1462 C1461 1.395 . S
C1462 C1465 1.398 . S
C1462 H1472 0.930 . S
C1463 C1461 1.380 . S
C1463 C1464 1.391 . S
C1463 H1473 0.930 . S
C1464 C1463 1.391 . S
C1464 C1466 1.387 . S
C1465 C1462 1.398 . S
C1465 C1466 1.380 . S
C1465 H1474 0.930 . S
C1466 C1464 1.387 . S
C1466 C1465 1.380 . S
C1466 H1475 0.930 . S
C1467 O1444 1.254 . S
C1467 O1445 1.268 . S
H1468 C1453 0.930 . S
H1469 C1454 0.930 . S
H1470 C1456 0.930 . S
H1471 C1457 0.930 . S
H1472 C1462 0.930 . S
H1473 C1463 0.930 . S
H1474 C1465 0.930 . S
H1475 C1466 0.930 . S
C1476 C1477 1.391 . S
C1476 C1478 1.394 . S
C1476 H1492 0.931 . S
C1477 C1476 1.391 . S
C1477 C1481 1.376 . S
C1478 C1476 1.394 . S
C1478 C1479 1.369 . S
C1478 C1482 1.531 . S
C1479 C1478 1.369 . S
C1479 C1480 1.410 . S
C1479 C1487 1.503 . S
C1480 C1479 1.410 . S
C1480 C1481 1.392 . S
C1480 C1483 1.511 . S
C1481 C1477 1.376 . S
C1481 C1480 1.392 . S
C1481 H1493 0.929 . S
C1482 C1478 1.531 . S
C1482 H1494 0.960 . S
C1482 H1495 0.962 . S
C1482 H1496 0.960 . S
C1483 C1480 1.511 . S
C1483 H1497 0.961 . S
C1483 H1498 0.961 . S
C1483 H1499 0.961 . S
C1484 C1485 1.370 . S
C1484 C1486 1.363 . S
C1484 H1500 0.931 . S
C1485 C1484 1.370 . S
C1485 C1489 1.408 . S
C1486 C1484 1.363 . S
C1486 C1487 1.370 . S
C1486 C1490 1.524 . S
C1487 C1479 1.503 . S
C1487 C1486 1.370 . S
C1487 C1488 1.403 . S
C1488 C1487 1.403 . S
C1488 C1489 1.404 . S
C1488 C1491 1.539 . S
C1489 C1485 1.408 . S
C1489 C1488 1.404 . S
C1489 H1501 0.930 . S
C1490 C1486 1.524 . S
C1490 H1502 0.956 . S
C1490 H1503 0.961 . S
C1490 H1504 0.961 . S
C1491 C1488 1.539 . S
C1491 H1505 0.958 . S
C1491 H1506 0.961 . S
C1491 H1507 0.960 . S
H1492 C1476 0.931 . S
H1493 C1481 0.929 . S
H1494 C1482 0.960 . S
H1495 C1482 0.962 . S
H1496 C1482 0.960 . S
H1497 C1483 0.961 . S
H1498 C1483 0.961 . S
H1499 C1483 0.961 . S
H1500 C1484 0.931 . S
H1501 C1489 0.930 . S
H1502 C1490 0.956 . S
H1503 C1490 0.961 . S
H1504 C1490 0.961 . S
H1505 C1491 0.958 . S
H1506 C1491 0.961 . S
H1507 C1491 0.960 . S
C1508 C1509 1.391 . S
C1508 C1510 1.394 . S
C1508 H1524 0.931 . S
C1509 C1508 1.391 . S
C1509 C1513 1.376 . S
C1510 C1508 1.394 . S
C1510 C1511 1.369 . S
C1510 C1514 1.531 . S
C1511 C1510 1.369 . S
C1511 C1512 1.410 . S
C1511 C1519 1.503 . S
C1512 C1511 1.410 . S
C1512 C1513 1.392 . S
C1512 C1515 1.511 . S
C1513 C1509 1.376 . S
C1513 C1512 1.392 . S
C1513 H1525 0.929 . S
C1514 C1510 1.531 . S
C1514 H1526 0.960 . S
C1514 H1527 0.962 . S
C1514 H1528 0.960 . S
C1515 C1512 1.511 . S
C1515 H1529 0.961 . S
C1515 H1530 0.961 . S
C1515 H1531 0.961 . S
C1516 C1517 1.370 . S
C1516 C1518 1.363 . S
C1516 H1532 0.931 . S
C1517 C1516 1.370 . S
C1517 C1521 1.408 . S
C1518 C1516 1.363 . S
C1518 C1519 1.370 . S
C1518 C1522 1.524 . S
C1519 C1511 1.503 . S
C1519 C1518 1.370 . S
C1519 C1520 1.403 . S
C1520 C1519 1.403 . S
C1520 C1521 1.404 . S
C1520 C1523 1.539 . S
C1521 C1517 1.408 . S
C1521 C1520 1.404 . S
C1521 H1533 0.930 . S
C1522 C1518 1.524 . S
C1522 H1534 0.956 . S
C1522 H1535 0.961 . S
C1522 H1536 0.961 . S
C1523 C1520 1.539 . S
C1523 H1537 0.958 . S
C1523 H1538 0.961 . S
C1523 H1539 0.960 . S
H1524 C1508 0.931 . S
H1525 C1513 0.929 . S
H1526 C1514 0.960 . S
H1527 C1514 0.962 . S
H1528 C1514 0.960 . S
H1529 C1515 0.961 . S
H1530 C1515 0.961 . S
H1531 C1515 0.961 . S
H1532 C1516 0.931 . S
H1533 C1521 0.930 . S
H1534 C1522 0.956 . S
H1535 C1522 0.961 . S
H1536 C1522 0.961 . S
H1537 C1523 0.958 . S
H1538 C1523 0.961 . S
H1539 C1523 0.960 . S
C1540 C1541 1.391 . S
C1540 C1542 1.394 . S
C1540 H1556 0.931 . S
C1541 C1540 1.391 . S
C1541 C1545 1.376 . S
C1542 C1540 1.394 . S
C1542 C1543 1.369 . S
C1542 C1546 1.531 . S
C1543 C1542 1.369 . S
C1543 C1544 1.410 . S
C1543 C1551 1.503 . S
C1544 C1543 1.410 . S
C1544 C1545 1.392 . S
C1544 C1547 1.511 . S
C1545 C1541 1.376 . S
C1545 C1544 1.392 . S
C1545 H1557 0.929 . S
C1546 C1542 1.531 . S
C1546 H1558 0.960 . S
C1546 H1559 0.962 . S
C1546 H1560 0.960 . S
C1547 C1544 1.511 . S
C1547 H1561 0.961 . S
C1547 H1562 0.961 . S
C1547 H1563 0.961 . S
C1548 C1549 1.370 . S
C1548 C1550 1.363 . S
C1548 H1564 0.931 . S
C1549 C1548 1.370 . S
C1549 C1553 1.408 . S
C1550 C1548 1.363 . S
C1550 C1551 1.370 . S
C1550 C1554 1.524 . S
C1551 C1543 1.503 . S
C1551 C1550 1.370 . S
C1551 C1552 1.403 . S
C1552 C1551 1.403 . S
C1552 C1553 1.404 . S
C1552 C1555 1.539 . S
C1553 C1549 1.408 . S
C1553 C1552 1.404 . S
C1553 H1565 0.930 . S
C1554 C1550 1.524 . S
C1554 H1566 0.956 . S
C1554 H1567 0.961 . S
C1554 H1568 0.961 1_554 S
C1555 C1552 1.539 . S
C1555 H1569 0.958 . S
C1555 H1570 0.961 . S
C1555 H1571 0.960 . S
H1556 C1540 0.931 . S
H1557 C1545 0.929 . S
H1558 C1546 0.960 . S
H1559 C1546 0.962 . S
H1560 C1546 0.960 . S
H1561 C1547 0.961 . S
H1562 C1547 0.961 . S
H1563 C1547 0.961 . S
H1564 C1548 0.931 . S
H1565 C1553 0.930 . S
H1566 C1554 0.956 . S
H1567 C1554 0.961 . S
H1568 C1554 0.961 1_556 S
H1569 C1555 0.958 . S
H1570 C1555 0.961 . S
H1571 C1555 0.960 . S
C1572 C1573 1.391 . S
C1572 C1574 1.394 . S
C1572 H1588 0.931 . S
C1573 C1572 1.391 . S
C1573 C1577 1.376 . S
C1574 C1572 1.394 . S
C1574 C1575 1.369 . S
C1574 C1578 1.531 . S
C1575 C1574 1.369 . S
C1575 C1576 1.410 . S
C1575 C1583 1.503 . S
C1576 C1575 1.410 . S
C1576 C1577 1.392 . S
C1576 C1579 1.511 . S
C1577 C1573 1.376 . S
C1577 C1576 1.392 . S
C1577 H1589 0.929 . S
C1578 C1574 1.531 . S
C1578 H1590 0.960 . S
C1578 H1591 0.962 . S
C1578 H1592 0.960 . S
C1579 C1576 1.511 . S
C1579 H1593 0.961 . S
C1579 H1594 0.961 . S
C1579 H1595 0.961 . S
C1580 C1581 1.370 . S
C1580 C1582 1.363 . S
C1580 H1596 0.931 1_556 S
C1581 C1580 1.370 . S
C1581 C1585 1.408 . S
C1582 C1580 1.363 . S
C1582 C1583 1.370 . S
C1582 C1586 1.524 . S
C1583 C1575 1.503 . S
C1583 C1582 1.370 . S
C1583 C1584 1.403 . S
C1584 C1583 1.403 . S
C1584 C1585 1.404 . S
C1584 C1587 1.539 . S
C1585 C1581 1.408 . S
C1585 C1584 1.404 . S
C1585 H1597 0.930 . S
C1586 C1582 1.524 . S
C1586 H1598 0.956 . S
C1586 H1599 0.961 . S
C1586 H1600 0.961 1_556 S
C1587 C1584 1.539 . S
C1587 H1601 0.958 . S
C1587 H1602 0.961 . S
C1587 H1603 0.960 . S
H1588 C1572 0.931 . S
H1589 C1577 0.929 . S
H1590 C1578 0.960 . S
H1591 C1578 0.962 . S
H1592 C1578 0.960 . S
H1593 C1579 0.961 . S
H1594 C1579 0.961 . S
H1595 C1579 0.961 . S
H1596 C1580 0.931 1_554 S
H1597 C1585 0.930 . S
H1598 C1586 0.956 . S
H1599 C1586 0.961 . S
H1600 C1586 0.961 1_554 S
H1601 C1587 0.958 . S
H1602 C1587 0.961 . S
H1603 C1587 0.960 . S
C1604 C1605 1.391 . S
C1604 C1606 1.394 . S
C1604 H1620 0.931 . S
C1605 C1604 1.391 . S
C1605 C1609 1.376 . S
C1606 C1604 1.394 . S
C1606 C1607 1.369 . S
C1606 C1610 1.531 . S
C1607 C1606 1.369 . S
C1607 C1608 1.410 . S
C1607 C1615 1.503 . S
C1608 C1607 1.410 . S
C1608 C1609 1.392 . S
C1608 C1611 1.511 . S
C1609 C1605 1.376 . S
C1609 C1608 1.392 . S
C1609 H1621 0.929 . S
C1610 C1606 1.531 . S
C1610 H1622 0.960 . S
C1610 H1623 0.962 . S
C1610 H1624 0.969 . S
C1611 C1608 1.511 . S
C1611 H1625 0.961 . S
C1611 H1626 0.961 . S
C1611 H1627 0.961 . S
C1612 C1613 1.370 . S
C1612 C1614 1.363 . S
C1612 H1628 0.931 . S
C1613 C1612 1.370 . S
C1613 C1617 1.408 . S
C1614 C1612 1.363 . S
C1614 C1615 1.370 . S
C1614 C1618 1.524 . S
C1615 C1607 1.503 . S
C1615 C1614 1.370 . S
C1615 C1616 1.403 . S
C1616 C1615 1.403 . S
C1616 C1617 1.404 . S
C1616 C1619 1.539 . S
C1617 C1613 1.408 . S
C1617 C1616 1.404 . S
C1617 H1629 0.930 . S
C1618 C1614 1.524 . S
C1618 H1630 0.956 . S
C1618 H1631 0.961 . S
C1618 H1632 0.961 . S
C1619 C1616 1.539 . S
C1619 H1633 0.958 . S
C1619 H1634 0.961 . S
C1619 H1635 0.960 . S
H1620 C1604 0.931 . S
H1621 C1609 0.929 . S
H1622 C1610 0.960 . S
H1623 C1610 0.962 . S
H1624 C1610 0.969 . S
H1625 C1611 0.961 . S
H1626 C1611 0.961 . S
H1627 C1611 0.961 . S
H1628 C1612 0.931 . S
H1629 C1617 0.930 . S
H1630 C1618 0.956 . S
H1631 C1618 0.961 . S
H1632 C1618 0.961 . S
H1633 C1619 0.958 . S
H1634 C1619 0.961 . S
H1635 C1619 0.960 . S
C1636 C1637 1.391 . S
C1636 C1638 1.394 . S
C1636 H1652 0.931 . S
C1637 C1636 1.391 . S
C1637 C1641 1.376 . S
C1638 C1636 1.394 . S
C1638 C1639 1.369 . S
C1638 C1642 1.531 . S
C1639 C1638 1.369 . S
C1639 C1640 1.410 . S
C1639 C1647 1.503 . S
C1640 C1639 1.410 . S
C1640 C1641 1.392 . S
C1640 C1643 1.511 . S
C1641 C1637 1.376 . S
C1641 C1640 1.392 . S
C1641 H1653 0.929 . S
C1642 C1638 1.531 . S
C1642 H1654 0.960 . S
C1642 H1655 0.962 . S
C1642 H1656 0.960 . S
C1643 C1640 1.511 . S
C1643 H1657 0.961 . S
C1643 H1658 0.961 . S
C1643 H1659 0.961 1_556 S
C1644 C1645 1.370 . S
C1644 C1646 1.363 . S
C1644 H1660 0.931 . S
C1645 C1644 1.370 . S
C1645 C1649 1.408 . S
C1646 C1644 1.363 . S
C1646 C1647 1.370 . S
C1646 C1650 1.524 . S
C1647 C1639 1.503 . S
C1647 C1646 1.370 . S
C1647 C1648 1.403 . S
C1648 C1647 1.403 . S
C1648 C1649 1.404 . S
C1648 C1651 1.504 1_556 S
C1649 C1645 1.408 . S
C1649 C1648 1.404 . S
C1649 H1661 0.930 1_556 S
C1650 C1646 1.524 . S
C1650 H1662 0.956 . S
C1650 H1663 0.961 . S
C1650 H1664 0.961 . S
C1651 C1648 1.504 1_554 S
C1651 H1665 0.934 1_554 S
C1651 H1666 1.027 . S
C1651 H1667 0.959 . S
H1652 C1636 0.931 . S
H1653 C1641 0.929 . S
H1654 C1642 0.960 . S
H1655 C1642 0.962 . S
H1656 C1642 0.960 . S
H1657 C1643 0.961 . S
H1658 C1643 0.961 . S
H1659 C1643 0.961 1_554 S
H1660 C1644 0.931 . S
H1661 C1649 0.930 1_554 S
H1662 C1650 0.956 . S
H1663 C1650 0.961 . S
H1664 C1650 0.961 . S
H1665 C1651 0.934 1_556 S
H1666 C1651 1.027 . S
H1667 C1651 0.959 . S
C1668 C1669 1.391 . S
C1668 C1670 1.394 . S
C1668 H1684 0.931 . S
C1669 C1668 1.391 . S
C1669 C1673 1.376 . S
C1670 C1668 1.394 . S
C1670 C1671 1.369 . S
C1670 C1674 1.531 . S
C1671 C1670 1.369 . S
C1671 C1672 1.410 . S
C1671 C1679 1.503 . S
C1672 C1671 1.410 . S
C1672 C1673 1.392 . S
C1672 C1675 1.511 . S
C1673 C1669 1.376 . S
C1673 C1672 1.392 . S
C1673 H1685 0.929 . S
C1674 C1670 1.531 . S
C1674 H1686 0.960 . S
C1674 H1687 0.962 . S
C1674 H1688 0.960 . S
C1675 C1672 1.511 . S
C1675 H1689 0.961 . S
C1675 H1690 0.961 . S
C1675 H1691 0.961 . S
C1676 C1677 1.370 . S
C1676 C1678 1.363 . S
C1676 H1692 0.931 . S
C1677 C1676 1.370 . S
C1677 C1681 1.408 . S
C1678 C1676 1.363 . S
C1678 C1679 1.370 . S
C1678 C1682 1.524 . S
C1679 C1671 1.503 . S
C1679 C1678 1.370 . S
C1679 C1680 1.403 . S
C1680 C1679 1.403 . S
C1680 C1681 1.404 . S
C1680 C1683 1.553 . S
C1681 C1677 1.408 . S
C1681 C1680 1.404 . S
C1681 H1693 0.930 1_556 S
C1682 C1678 1.524 . S
C1682 H1694 0.956 . S
C1682 H1695 0.961 . S
C1682 H1696 0.961 . S
C1683 C1680 1.553 . S
C1683 H1697 0.937 1_556 S
C1683 H1698 0.952 1_556 S
C1683 H1699 0.978 . S
H1684 C1668 0.931 . S
H1685 C1673 0.929 . S
H1686 C1674 0.960 . S
H1687 C1674 0.962 . S
H1688 C1674 0.960 . S
H1689 C1675 0.961 . S
H1690 C1675 0.961 . S
H1691 C1675 0.961 . S
H1692 C1676 0.931 . S
H1693 C1681 0.930 1_554 S
H1694 C1682 0.956 . S
H1695 C1682 0.961 . S
H1696 C1682 0.961 . S
H1697 C1683 0.937 1_554 S
H1698 C1683 0.952 1_554 S
H1699 C1683 0.978 . S
C1700 C1701 1.391 . S
C1700 C1702 1.394 . S
C1700 H1716 0.931 . S
C1701 C1700 1.391 . S
C1701 C1705 1.376 . S
C1702 C1700 1.394 . S
C1702 C1703 1.369 . S
C1702 C1706 1.531 . S
C1703 C1702 1.369 . S
C1703 C1704 1.410 . S
C1703 C1711 1.503 . S
C1704 C1703 1.410 . S
C1704 C1705 1.392 . S
C1704 C1707 1.511 . S
C1705 C1701 1.376 . S
C1705 C1704 1.392 . S
C1705 H1717 0.929 . S
C1706 C1702 1.531 . S
C1706 H1718 0.960 . S
C1706 H1719 0.962 . S
C1706 H1720 0.960 . S
C1707 C1704 1.511 . S
C1707 H1721 0.961 . S
C1707 H1722 0.961 . S
C1707 H1723 0.961 . S
C1708 C1709 1.370 . S
C1708 C1710 1.363 . S
C1708 H1724 0.931 . S
C1709 C1708 1.370 . S
C1709 C1713 1.408 . S
C1710 C1708 1.363 . S
C1710 C1711 1.370 . S
C1710 C1714 1.524 . S
C1711 C1703 1.503 . S
C1711 C1710 1.370 . S
C1711 C1712 1.403 . S
C1712 C1711 1.403 . S
C1712 C1713 1.404 . S
C1712 C1715 1.539 1_556 S
C1713 C1709 1.408 . S
C1713 C1712 1.404 . S
C1713 H1725 0.930 1_556 S
C1714 C1710 1.524 . S
C1714 H1726 0.956 . S
C1714 H1727 0.961 . S
C1714 H1728 0.961 . S
C1715 C1712 1.539 1_554 S
C1715 H1729 0.958 . S
C1715 H1730 0.961 . S
C1715 H1731 0.960 1_554 S
H1716 C1700 0.931 . S
H1717 C1705 0.929 . S
H1718 C1706 0.960 . S
H1719 C1706 0.962 . S
H1720 C1706 0.960 . S
H1721 C1707 0.961 . S
H1722 C1707 0.961 . S
H1723 C1707 0.961 . S
H1724 C1708 0.931 . S
H1725 C1713 0.930 1_554 S
H1726 C1714 0.956 . S
H1727 C1714 0.961 . S
H1728 C1714 0.961 . S
H1729 C1715 0.958 . S
H1730 C1715 0.961 . S
H1731 C1715 0.960 1_556 S
C1732 C1733 1.391 . S
C1732 C1734 1.394 . S
C1732 H1748 0.931 . S
C1733 C1732 1.391 . S
C1733 C1737 1.376 . S
C1734 C1732 1.394 . S
C1734 C1735 1.369 . S
C1734 C1738 1.531 . S
C1735 C1734 1.369 . S
C1735 C1736 1.410 . S
C1735 C1743 1.503 . S
C1736 C1735 1.410 . S
C1736 C1737 1.392 . S
C1736 C1739 1.511 . S
C1737 C1733 1.376 . S
C1737 C1736 1.392 . S
C1737 H1749 0.929 . S
C1738 C1734 1.531 . S
C1738 H1750 0.977 . S
C1738 H1751 0.962 . S
C1738 H1752 0.972 . S
C1739 C1736 1.511 . S
C1739 H1753 0.961 . S
C1739 H1754 0.961 . S
C1739 H1755 0.961 . S
C1740 C1741 1.370 . S
C1740 C1742 1.363 . S
C1740 H1756 0.931 . S
C1741 C1740 1.370 . S
C1741 C1745 1.408 . S
C1742 C1740 1.363 . S
C1742 C1743 1.370 . S
C1742 C1746 1.524 . S
C1743 C1735 1.503 . S
C1743 C1742 1.370 . S
C1743 C1744 1.403 . S
C1744 C1743 1.403 . S
C1744 C1745 1.404 . S
C1744 C1747 1.517 1_556 S
C1745 C1741 1.408 . S
C1745 C1744 1.404 . S
C1745 H1757 0.930 1_556 S
C1746 C1742 1.524 . S
C1746 H1758 0.956 . S
C1746 H1759 0.961 . S
C1746 H1760 0.961 . S
C1747 C1744 1.517 1_554 S
C1747 H1761 0.997 . S
C1747 H1762 0.976 . S
C1747 H1763 0.931 1_554 S
H1748 C1732 0.931 . S
H1749 C1737 0.929 . S
H1750 C1738 0.977 . S
H1751 C1738 0.962 . S
H1752 C1738 0.972 . S
H1753 C1739 0.961 . S
H1754 C1739 0.961 . S
H1755 C1739 0.961 . S
H1756 C1740 0.931 . S
H1757 C1745 0.930 1_554 S
H1758 C1746 0.956 . S
H1759 C1746 0.961 . S
H1760 C1746 0.961 . S
H1761 C1747 0.997 . S
H1762 C1747 0.976 . S
H1763 C1747 0.931 1_556 S
C1764 C1765 1.391 . S
C1764 C1766 1.394 . S
C1764 H1780 0.931 . S
C1765 C1764 1.391 . S
C1765 C1769 1.376 . S
C1766 C1764 1.394 . S
C1766 C1767 1.369 . S
C1766 C1770 1.531 . S
C1767 C1766 1.369 . S
C1767 C1768 1.410 . S
C1767 C1775 1.503 . S
C1768 C1767 1.410 . S
C1768 C1769 1.392 . S
C1768 C1771 1.511 . S
C1769 C1765 1.376 . S
C1769 C1768 1.392 . S
C1769 H1781 0.929 . S
C1770 C1766 1.531 . S
C1770 H1782 0.960 . S
C1770 H1783 0.962 . S
C1770 H1784 0.960 . S
C1771 C1768 1.511 . S
C1771 H1785 0.961 . S
C1771 H1786 0.961 . S
C1771 H1787 0.961 . S
C1772 C1773 1.370 . S
C1772 C1774 1.363 . S
C1772 H1788 0.931 . S
C1773 C1772 1.370 . S
C1773 C1777 1.408 . S
C1774 C1772 1.363 . S
C1774 C1775 1.370 . S
C1774 C1778 1.524 . S
C1775 C1767 1.503 . S
C1775 C1774 1.370 . S
C1775 C1776 1.403 . S
C1776 C1775 1.403 . S
C1776 C1777 1.404 . S
C1776 C1779 1.539 . S
C1777 C1773 1.408 . S
C1777 C1776 1.404 . S
C1777 H1789 0.933 1_554 S
C1778 C1774 1.524 . S
C1778 H1790 0.956 . S
C1778 H1791 0.961 . S
C1778 H1792 0.961 . S
C1779 C1776 1.539 . S
C1779 H1793 0.958 1_554 S
C1779 H1794 0.961 1_554 S
C1779 H1795 0.960 . S
H1780 C1764 0.931 . S
H1781 C1769 0.929 . S
H1782 C1770 0.960 . S
H1783 C1770 0.962 . S
H1784 C1770 0.960 . S
H1785 C1771 0.961 . S
H1786 C1771 0.961 . S
H1787 C1771 0.961 . S
H1788 C1772 0.931 . S
H1789 C1777 0.933 1_556 S
H1790 C1778 0.956 . S
H1791 C1778 0.961 . S
H1792 C1778 0.961 . S
H1793 C1779 0.958 1_556 S
H1794 C1779 0.961 1_556 S
H1795 C1779 0.960 . S
C1796 C1797 1.391 . S
C1796 C1798 1.394 . S
C1796 H1812 0.931 . S
C1797 C1796 1.391 . S
C1797 C1801 1.376 . S
C1798 C1796 1.394 . S
C1798 C1799 1.369 . S
C1798 C1802 1.531 . S
C1799 C1798 1.369 . S
C1799 C1800 1.410 . S
C1799 C1807 1.503 . S
C1800 C1799 1.410 . S
C1800 C1801 1.392 . S
C1800 C1803 1.511 . S
C1801 C1797 1.376 . S
C1801 C1800 1.392 . S
C1801 H1813 0.929 . S
C1802 C1798 1.531 . S
C1802 H1814 0.960 . S
C1802 H1815 0.962 . S
C1802 H1816 0.960 . S
C1803 C1800 1.511 . S
C1803 H1817 0.961 . S
C1803 H1818 0.961 . S
C1803 H1819 0.961 . S
C1804 C1805 1.370 . S
C1804 C1806 1.363 . S
C1804 H1820 0.931 . S
C1805 C1804 1.370 . S
C1805 C1809 1.408 . S
C1806 C1804 1.363 . S
C1806 C1807 1.370 . S
C1806 C1810 1.524 . S
C1807 C1799 1.503 . S
C1807 C1806 1.370 . S
C1807 C1808 1.403 . S
C1808 C1807 1.403 . S
C1808 C1809 1.404 . S
C1808 C1811 1.539 . S
C1809 C1805 1.408 . S
C1809 C1808 1.404 . S
C1809 H1821 0.934 . S
C1810 C1806 1.524 . S
C1810 H1822 0.956 . S
C1810 H1823 0.961 . S
C1810 H1824 0.961 . S
C1811 C1808 1.539 . S
C1811 H1825 0.958 1_554 S
C1811 H1826 0.961 1_554 S
C1811 H1827 0.960 . S
H1812 C1796 0.931 . S
H1813 C1801 0.929 . S
H1814 C1802 0.960 . S
H1815 C1802 0.962 . S
H1816 C1802 0.960 . S
H1817 C1803 0.961 . S
H1818 C1803 0.961 . S
H1819 C1803 0.961 . S
H1820 C1804 0.931 . S
H1821 C1809 0.934 . S
H1822 C1810 0.956 . S
H1823 C1810 0.961 . S
H1824 C1810 0.961 . S
H1825 C1811 0.958 1_556 S
H1826 C1811 0.961 1_556 S
H1827 C1811 0.960 . S
C1828 C1829 1.391 . S
C1828 C1830 1.394 . S
C1828 H1844 0.931 . S
C1829 C1828 1.391 . S
C1829 C1833 1.376 . S
C1830 C1828 1.394 . S
C1830 C1831 1.369 . S
C1830 C1834 1.531 . S
C1831 C1830 1.369 . S
C1831 C1832 1.410 . S
C1831 C1839 1.503 . S
C1832 C1831 1.410 . S
C1832 C1833 1.392 . S
C1832 C1835 1.511 . S
C1833 C1829 1.376 . S
C1833 C1832 1.392 . S
C1833 H1845 0.929 . S
C1834 C1830 1.531 . S
C1834 H1846 0.960 . S
C1834 H1847 0.962 . S
C1834 H1848 0.960 . S
C1835 C1832 1.511 . S
C1835 H1849 0.961 . S
C1835 H1850 0.961 . S
C1835 H1851 0.961 . S
C1836 C1837 1.370 . S
C1836 C1838 1.363 . S
C1836 H1852 0.931 . S
C1837 C1836 1.370 . S
C1837 C1841 1.408 . S
C1838 C1836 1.363 . S
C1838 C1839 1.370 . S
C1838 C1842 1.524 . S
C1839 C1831 1.503 . S
C1839 C1838 1.370 . S
C1839 C1840 1.403 . S
C1840 C1839 1.403 . S
C1840 C1841 1.404 . S
C1840 C1843 1.539 . S
C1841 C1837 1.408 . S
C1841 C1840 1.404 . S
C1841 H1853 0.930 . S
C1842 C1838 1.524 . S
C1842 H1854 0.956 . S
C1842 H1855 0.961 . S
C1842 H1856 0.961 . S
C1843 C1840 1.539 . S
C1843 H1857 0.958 . S
C1843 H1858 0.961 . S
C1843 H1859 0.960 . S
H1844 C1828 0.931 . S
H1845 C1833 0.929 . S
H1846 C1834 0.960 . S
H1847 C1834 0.962 . S
H1848 C1834 0.960 . S
H1849 C1835 0.961 . S
H1850 C1835 0.961 . S
H1851 C1835 0.961 . S
H1852 C1836 0.931 . S
H1853 C1841 0.930 . S
H1854 C1842 0.956 . S
H1855 C1842 0.961 . S
H1856 C1842 0.961 . S
H1857 C1843 0.958 . S
H1858 C1843 0.961 . S
H1859 C1843 0.960 . S
C1860 C1861 1.391 . S
C1860 C1862 1.394 . S
C1860 H1876 0.931 . S
C1861 C1860 1.391 . S
C1861 C1865 1.376 . S
C1862 C1860 1.394 . S
C1862 C1863 1.369 . S
C1862 C1866 1.531 . S
C1863 C1862 1.369 . S
C1863 C1864 1.410 . S
C1863 C1871 1.503 . S
C1864 C1863 1.410 . S
C1864 C1865 1.392 . S
C1864 C1867 1.511 . S
C1865 C1861 1.376 . S
C1865 C1864 1.392 . S
C1865 H1877 0.929 1_455 S
C1866 C1862 1.531 . S
C1866 H1878 0.960 . S
C1866 H1879 0.962 . S
C1866 H1880 0.960 . S
C1867 C1864 1.511 . S
C1867 H1881 0.961 . S
C1867 H1882 0.961 . S
C1867 H1883 0.961 . S
C1868 C1869 1.370 . S
C1868 C1870 1.363 . S
C1868 H1884 0.931 . S
C1869 C1868 1.370 . S
C1869 C1873 1.408 . S
C1870 C1868 1.363 . S
C1870 C1871 1.370 . S
C1870 C1874 1.524 . S
C1871 C1863 1.503 . S
C1871 C1870 1.370 . S
C1871 C1872 1.403 . S
C1872 C1871 1.403 . S
C1872 C1873 1.404 . S
C1872 C1875 1.539 . S
C1873 C1869 1.408 . S
C1873 C1872 1.404 . S
C1873 H1885 0.930 . S
C1874 C1870 1.524 . S
C1874 H1886 0.956 . S
C1874 H1887 0.961 . S
C1874 H1888 0.961 . S
C1875 C1872 1.539 . S
C1875 H1889 0.958 . S
C1875 H1890 0.961 . S
C1875 H1891 0.960 . S
H1876 C1860 0.931 . S
H1877 C1865 0.929 1_655 S
H1878 C1866 0.960 . S
H1879 C1866 0.962 . S
H1880 C1866 0.960 . S
H1881 C1867 0.961 . S
H1882 C1867 0.961 . S
H1883 C1867 0.961 . S
H1884 C1868 0.931 . S
H1885 C1873 0.930 . S
H1886 C1874 0.956 . S
H1887 C1874 0.961 . S
H1888 C1874 0.961 . S
H1889 C1875 0.958 . S
H1890 C1875 0.961 . S
H1891 C1875 0.960 . S
C1892 C1893 1.391 . S
C1892 C1894 1.394 . S
C1892 H1908 0.931 . S
C1893 C1892 1.391 . S
C1893 C1897 1.376 . S
C1894 C1892 1.394 . S
C1894 C1895 1.369 . S
C1894 C1898 1.531 . S
C1895 C1894 1.369 . S
C1895 C1896 1.410 . S
C1895 C1903 1.503 . S
C1896 C1895 1.410 . S
C1896 C1897 1.392 . S
C1896 C1899 1.511 . S
C1897 C1893 1.376 . S
C1897 C1896 1.392 . S
C1897 H1909 0.929 . S
C1898 C1894 1.531 . S
C1898 H1910 0.960 . S
C1898 H1911 0.962 . S
C1898 H1912 0.960 . S
C1899 C1896 1.511 . S
C1899 H1913 0.961 . S
C1899 H1914 0.961 . S
C1899 H1915 0.961 . S
C1900 C1901 1.370 . S
C1900 C1902 1.363 . S
C1900 H1916 0.931 . S
C1901 C1900 1.370 . S
C1901 C1905 1.408 . S
C1902 C1900 1.363 . S
C1902 C1903 1.370 . S
C1902 C1906 1.524 . S
C1903 C1895 1.503 . S
C1903 C1902 1.370 . S
C1903 C1904 1.403 . S
C1904 C1903 1.403 . S
C1904 C1905 1.404 . S
C1904 C1907 1.539 . S
C1905 C1901 1.408 . S
C1905 C1904 1.404 . S
C1905 H1917 0.930 . S
C1906 C1902 1.524 . S
C1906 H1918 0.956 . S
C1906 H1919 0.961 . S
C1906 H1920 0.961 . S
C1907 C1904 1.539 . S
C1907 H1921 0.958 . S
C1907 H1922 0.961 . S
C1907 H1923 0.960 . S
H1908 C1892 0.931 . S
H1909 C1897 0.929 . S
H1910 C1898 0.960 . S
H1911 C1898 0.962 . S
H1912 C1898 0.960 . S
H1913 C1899 0.961 . S
H1914 C1899 0.961 . S
H1915 C1899 0.961 . S
H1916 C1900 0.931 . S
H1917 C1905 0.930 . S
H1918 C1906 0.956 . S
H1919 C1906 0.961 . S
H1920 C1906 0.961 . S
H1921 C1907 0.958 . S
H1922 C1907 0.961 . S
H1923 C1907 0.960 . S
C1924 C1925 1.391 1_565 S
C1924 C1926 1.394 . S
C1924 H1940 0.931 1_565 S
C1925 C1924 1.391 1_545 S
C1925 C1929 1.376 1_545 S
C1926 C1924 1.394 . S
C1926 C1927 1.369 . S
C1926 C1930 1.531 . S
C1927 C1926 1.369 . S
C1927 C1928 1.410 . S
C1927 C1935 1.503 . S
C1928 C1927 1.410 . S
C1928 C1929 1.392 . S
C1928 C1931 1.511 . S
C1929 C1925 1.376 1_565 S
C1929 C1928 1.392 . S
C1929 H1941 0.929 1_565 S
C1930 C1926 1.531 . S
C1930 H1942 0.960 . S
C1930 H1943 0.962 . S
C1930 H1944 0.960 . S
C1931 C1928 1.511 . S
C1931 H1945 0.961 . S
C1931 H1946 0.961 . S
C1931 H1947 0.961 . S
C1932 C1933 1.370 . S
C1932 C1934 1.363 . S
C1932 H1948 0.931 . S
C1933 C1932 1.370 . S
C1933 C1937 1.408 . S
C1934 C1932 1.363 . S
C1934 C1935 1.370 . S
C1934 C1938 1.524 . S
C1935 C1927 1.503 . S
C1935 C1934 1.370 . S
C1935 C1936 1.403 . S
C1936 C1935 1.403 . S
C1936 C1937 1.404 . S
C1936 C1939 1.539 . S
C1937 C1933 1.408 . S
C1937 C1936 1.404 . S
C1937 H1949 0.930 . S
C1938 C1934 1.524 . S
C1938 H1950 0.956 . S
C1938 H1951 0.961 . S
C1938 H1952 0.961 . S
C1939 C1936 1.539 . S
C1939 H1953 0.958 . S
C1939 H1954 0.961 . S
C1939 H1955 0.960 . S
H1940 C1924 0.931 1_545 S
H1941 C1929 0.929 1_545 S
H1942 C1930 0.960 . S
H1943 C1930 0.962 . S
H1944 C1930 0.960 . S
H1945 C1931 0.961 . S
H1946 C1931 0.961 . S
H1947 C1931 0.961 . S
H1948 C1932 0.931 . S
H1949 C1937 0.930 . S
H1950 C1938 0.956 . S
H1951 C1938 0.961 . S
H1952 C1938 0.961 . S
H1953 C1939 0.958 . S
H1954 C1939 0.961 . S
H1955 C1939 0.960 . S
C1956 C1957 1.391 . S
C1956 C1958 1.394 . S
C1956 H1972 0.931 . S
C1957 C1956 1.391 . S
C1957 C1961 1.376 . S
C1958 C1956 1.394 . S
C1958 C1959 1.369 . S
C1958 C1962 1.531 . S
C1959 C1958 1.369 . S
C1959 C1960 1.410 . S
C1959 C1967 1.503 . S
C1960 C1959 1.410 . S
C1960 C1961 1.392 . S
C1960 C1963 1.511 . S
C1961 C1957 1.376 . S
C1961 C1960 1.392 . S
C1961 H1973 0.929 . S
C1962 C1958 1.531 . S
C1962 H1974 0.960 . S
C1962 H1975 0.962 . S
C1962 H1976 0.960 . S
C1963 C1960 1.511 . S
C1963 H1977 0.961 . S
C1963 H1978 0.961 . S
C1963 H1979 0.961 . S
C1964 C1965 1.370 . S
C1964 C1966 1.363 . S
C1964 H1980 0.931 . S
C1965 C1964 1.370 . S
C1965 C1969 1.408 . S
C1966 C1964 1.363 . S
C1966 C1967 1.370 . S
C1966 C1970 1.524 . S
C1967 C1959 1.503 . S
C1967 C1966 1.370 . S
C1967 C1968 1.403 . S
C1968 C1967 1.403 . S
C1968 C1969 1.404 . S
C1968 C1971 1.539 . S
C1969 C1965 1.408 . S
C1969 C1968 1.404 . S
C1969 H1981 0.930 . S
C1970 C1966 1.524 . S
C1970 H1982 0.956 . S
C1970 H1983 0.961 . S
C1970 H1984 0.961 . S
C1971 C1968 1.539 . S
C1971 H1985 0.958 . S
C1971 H1986 0.961 . S
C1971 H1987 0.960 . S
H1972 C1956 0.931 . S
H1973 C1961 0.929 . S
H1974 C1962 0.960 . S
H1975 C1962 0.962 . S
H1976 C1962 0.960 . S
H1977 C1963 0.961 . S
H1978 C1963 0.961 . S
H1979 C1963 0.961 . S
H1980 C1964 0.931 . S
H1981 C1969 0.930 . S
H1982 C1970 0.956 . S
H1983 C1970 0.961 . S
H1984 C1970 0.961 . S
H1985 C1971 0.958 . S
H1986 C1971 0.961 . S
H1987 C1971 0.960 . S
C1988 C1989 1.391 . S
C1988 C1990 1.394 . S
C1988 H2004 0.931 . S
C1989 C1988 1.391 . S
C1989 C1993 1.376 . S
C1990 C1988 1.394 . S
C1990 C1991 1.369 . S
C1990 C1994 1.531 . S
C1991 C1990 1.369 . S
C1991 C1992 1.410 . S
C1991 C1999 1.503 . S
C1992 C1991 1.410 . S
C1992 C1993 1.392 . S
C1992 C1995 1.511 . S
C1993 C1989 1.376 . S
C1993 C1992 1.392 . S
C1993 H2005 0.929 . S
C1994 C1990 1.531 . S
C1994 H2006 0.960 . S
C1994 H2007 0.962 . S
C1994 H2008 0.960 . S
C1995 C1992 1.511 . S
C1995 H2009 0.961 . S
C1995 H2010 0.961 . S
C1995 H2011 0.961 . S
C1996 C1997 1.370 . S
C1996 C1998 1.363 . S
C1996 H2012 0.931 . S
C1997 C1996 1.370 . S
C1997 C2001 1.408 . S
C1998 C1996 1.363 . S
C1998 C1999 1.370 . S
C1998 C2002 1.524 . S
C1999 C1991 1.503 . S
C1999 C1998 1.370 . S
C1999 C2000 1.403 . S
C2000 C1999 1.403 . S
C2000 C2001 1.404 . S
C2000 C2003 1.539 . S
C2001 C1997 1.408 . S
C2001 C2000 1.404 . S
C2001 H2013 0.930 . S
C2002 C1998 1.524 . S
C2002 H2014 0.956 . S
C2002 H2015 0.961 . S
C2002 H2016 0.961 . S
C2003 C2000 1.539 . S
C2003 H2017 0.958 . S
C2003 H2018 0.961 . S
C2003 H2019 0.960 . S
H2004 C1988 0.931 . S
H2005 C1993 0.929 . S
H2006 C1994 0.960 . S
H2007 C1994 0.962 . S
H2008 C1994 0.960 . S
H2009 C1995 0.961 . S
H2010 C1995 0.961 . S
H2011 C1995 0.961 . S
H2012 C1996 0.931 . S
H2013 C2001 0.930 . S
H2014 C2002 0.956 . S
H2015 C2002 0.961 . S
H2016 C2002 0.961 . S
H2017 C2003 0.958 . S
H2018 C2003 0.961 . S
H2019 C2003 0.960 . S
C2020 C2021 1.391 . S
C2020 C2022 1.394 . S
C2020 H2036 0.931 . S
C2021 C2020 1.391 . S
C2021 C2025 1.376 . S
C2022 C2020 1.394 . S
C2022 C2023 1.369 . S
C2022 C2026 1.531 . S
C2023 C2022 1.369 . S
C2023 C2024 1.410 . S
C2023 C2031 1.503 . S
C2024 C2023 1.410 . S
C2024 C2025 1.392 . S
C2024 C2027 1.511 . S
C2025 C2021 1.376 . S
C2025 C2024 1.392 . S
C2025 H2037 0.929 . S
C2026 C2022 1.531 . S
C2026 H2038 0.960 . S
C2026 H2039 0.962 . S
C2026 H2040 0.960 . S
C2027 C2024 1.511 . S
C2027 H2041 0.961 . S
C2027 H2042 0.961 . S
C2027 H2043 0.961 . S
C2028 C2029 1.370 . S
C2028 C2030 1.363 . S
C2028 H2044 0.931 . S
C2029 C2028 1.370 . S
C2029 C2033 1.408 . S
C2030 C2028 1.363 . S
C2030 C2031 1.370 . S
C2030 C2034 1.524 . S
C2031 C2023 1.503 . S
C2031 C2030 1.370 . S
C2031 C2032 1.403 . S
C2032 C2031 1.403 . S
C2032 C2033 1.404 . S
C2032 C2035 1.539 . S
C2033 C2029 1.408 . S
C2033 C2032 1.404 . S
C2033 H2045 0.930 . S
C2034 C2030 1.524 . S
C2034 H2046 0.956 . S
C2034 H2047 0.961 . S
C2034 H2048 0.961 . S
C2035 C2032 1.539 . S
C2035 H2049 0.958 . S
C2035 H2050 0.961 . S
C2035 H2051 0.960 . S
H2036 C2020 0.931 . S
H2037 C2025 0.929 . S
H2038 C2026 0.960 . S
H2039 C2026 0.962 . S
H2040 C2026 0.960 . S
H2041 C2027 0.961 . S
H2042 C2027 0.961 . S
H2043 C2027 0.961 . S
H2044 C2028 0.931 . S
H2045 C2033 0.930 . S
H2046 C2034 0.956 . S
H2047 C2034 0.961 . S
H2048 C2034 0.961 . S
H2049 C2035 0.958 . S
H2050 C2035 0.961 . S
H2051 C2035 0.960 . S
C2052 C2053 1.391 . S
C2052 C2054 1.394 . S
C2052 H2068 0.931 . S
C2053 C2052 1.391 . S
C2053 C2057 1.376 . S
C2054 C2052 1.394 . S
C2054 C2055 1.369 . S
C2054 C2058 1.531 . S
C2055 C2054 1.369 . S
C2055 C2056 1.410 . S
C2055 C2063 1.503 . S
C2056 C2055 1.410 . S
C2056 C2057 1.392 . S
C2056 C2059 1.511 . S
C2057 C2053 1.376 . S
C2057 C2056 1.392 . S
C2057 H2069 0.929 . S
C2058 C2054 1.531 . S
C2058 H2070 0.960 . S
C2058 H2071 0.962 . S
C2058 H2072 0.960 . S
C2059 C2056 1.511 . S
C2059 H2073 0.961 . S
C2059 H2074 0.961 . S
C2059 H2075 0.961 . S
C2060 C2061 1.370 . S
C2060 C2062 1.363 . S
C2060 H2076 0.931 . S
C2061 C2060 1.370 . S
C2061 C2065 1.408 . S
C2062 C2060 1.363 . S
C2062 C2063 1.370 . S
C2062 C2066 1.524 . S
C2063 C2055 1.503 . S
C2063 C2062 1.370 . S
C2063 C2064 1.403 . S
C2064 C2063 1.403 . S
C2064 C2065 1.404 . S
C2064 C2067 1.539 . S
C2065 C2061 1.408 . S
C2065 C2064 1.404 . S
C2065 H2077 0.930 . S
C2066 C2062 1.524 . S
C2066 H2078 0.956 . S
C2066 H2079 0.961 . S
C2066 H2080 0.961 . S
C2067 C2064 1.539 . S
C2067 H2081 0.958 . S
C2067 H2082 0.961 . S
C2067 H2083 0.960 . S
H2068 C2052 0.931 . S
H2069 C2057 0.929 . S
H2070 C2058 0.960 . S
H2071 C2058 0.962 . S
H2072 C2058 0.960 . S
H2073 C2059 0.961 . S
H2074 C2059 0.961 . S
H2075 C2059 0.961 . S
H2076 C2060 0.931 . S
H2077 C2065 0.930 . S
H2078 C2066 0.956 . S
H2079 C2066 0.961 . S
H2080 C2066 0.961 . S
H2081 C2067 0.958 . S
H2082 C2067 0.961 . S
H2083 C2067 0.960 . S
C2084 C2085 1.391 . S
C2084 C2086 1.394 . S
C2084 H2100 0.931 . S
C2085 C2084 1.391 . S
C2085 C2089 1.376 . S
C2086 C2084 1.394 . S
C2086 C2087 1.369 . S
C2086 C2090 1.531 . S
C2087 C2086 1.369 . S
C2087 C2088 1.410 . S
C2087 C2095 1.503 . S
C2088 C2087 1.410 . S
C2088 C2089 1.392 . S
C2088 C2091 1.511 . S
C2089 C2085 1.376 . S
C2089 C2088 1.392 . S
C2089 H2101 0.929 . S
C2090 C2086 1.531 . S
C2090 H2102 0.960 . S
C2090 H2103 0.962 . S
C2090 H2104 0.960 . S
C2091 C2088 1.511 . S
C2091 H2105 0.961 . S
C2091 H2106 0.961 . S
C2091 H2107 0.961 . S
C2092 C2093 1.370 . S
C2092 C2094 1.363 . S
C2092 H2108 0.931 . S
C2093 C2092 1.370 . S
C2093 C2097 1.408 . S
C2094 C2092 1.363 . S
C2094 C2095 1.370 . S
C2094 C2098 1.524 . S
C2095 C2087 1.503 . S
C2095 C2094 1.370 . S
C2095 C2096 1.403 . S
C2096 C2095 1.403 . S
C2096 C2097 1.404 . S
C2096 C2099 1.539 . S
C2097 C2093 1.408 . S
C2097 C2096 1.404 . S
C2097 H2109 0.930 . S
C2098 C2094 1.524 . S
C2098 H2110 0.956 . S
C2098 H2111 0.961 . S
C2098 H2112 0.961 . S
C2099 C2096 1.539 . S
C2099 H2113 0.958 . S
C2099 H2114 0.961 . S
C2099 H2115 0.960 . S
H2100 C2084 0.931 . S
H2101 C2089 0.929 . S
H2102 C2090 0.960 . S
H2103 C2090 0.962 . S
H2104 C2090 0.960 . S
H2105 C2091 0.961 . S
H2106 C2091 0.961 . S
H2107 C2091 0.961 . S
H2108 C2092 0.931 . S
H2109 C2097 0.930 . S
H2110 C2098 0.956 . S
H2111 C2098 0.961 . S
H2112 C2098 0.961 . S
H2113 C2099 0.958 . S
H2114 C2099 0.961 . S
H2115 C2099 0.960 . S
C2116 C2117 1.391 . S
C2116 C2118 1.394 . S
C2116 H2132 0.931 . S
C2117 C2116 1.391 . S
C2117 C2121 1.376 . S
C2118 C2116 1.394 . S
C2118 C2119 1.369 . S
C2118 C2122 1.531 . S
C2119 C2118 1.369 . S
C2119 C2120 1.410 . S
C2119 C2127 1.503 . S
C2120 C2119 1.410 . S
C2120 C2121 1.392 . S
C2120 C2123 1.511 . S
C2121 C2117 1.376 . S
C2121 C2120 1.392 . S
C2121 H2133 0.929 . S
C2122 C2118 1.531 . S
C2122 H2134 0.960 . S
C2122 H2135 0.962 . S
C2122 H2136 0.960 . S
C2123 C2120 1.511 . S
C2123 H2137 0.961 . S
C2123 H2138 0.961 . S
C2123 H2139 0.961 . S
C2124 C2125 1.370 . S
C2124 C2126 1.363 . S
C2124 H2140 0.931 . S
C2125 C2124 1.370 . S
C2125 C2129 1.408 . S
C2126 C2124 1.363 . S
C2126 C2127 1.370 . S
C2126 C2130 1.524 . S
C2127 C2119 1.503 . S
C2127 C2126 1.370 . S
C2127 C2128 1.403 . S
C2128 C2127 1.403 . S
C2128 C2129 1.404 . S
C2128 C2131 1.539 . S
C2129 C2125 1.408 . S
C2129 C2128 1.404 . S
C2129 H2141 0.930 . S
C2130 C2126 1.524 . S
C2130 H2142 0.956 . S
C2130 H2143 0.961 . S
C2130 H2144 0.961 . S
C2131 C2128 1.539 . S
C2131 H2145 0.958 . S
C2131 H2146 0.961 . S
C2131 H2147 0.960 . S
H2132 C2116 0.931 . S
H2133 C2121 0.929 . S
H2134 C2122 0.960 . S
H2135 C2122 0.962 . S
H2136 C2122 0.960 . S
H2137 C2123 0.961 . S
H2138 C2123 0.961 . S
H2139 C2123 0.961 . S
H2140 C2124 0.931 . S
H2141 C2129 0.930 . S
H2142 C2130 0.956 . S
H2143 C2130 0.961 . S
H2144 C2130 0.961 . S
H2145 C2131 0.958 . S
H2146 C2131 0.961 . S
H2147 C2131 0.960 . S
C2148 C2149 1.391 1_565 S
C2148 C2150 1.394 . S
C2148 H2164 0.931 . S
C2149 C2148 1.391 1_545 S
C2149 C2153 1.376 1_545 S
C2150 C2148 1.394 . S
C2150 C2151 1.369 . S
C2150 C2154 1.531 . S
C2151 C2150 1.369 . S
C2151 C2152 1.410 . S
C2151 C2159 1.503 . S
C2152 C2151 1.410 . S
C2152 C2153 1.392 . S
C2152 C2155 1.511 . S
C2153 C2149 1.376 1_565 S
C2153 C2152 1.392 . S
C2153 H2165 0.929 1_565 S
C2154 C2150 1.531 . S
C2154 H2166 0.960 . S
C2154 H2167 0.962 . S
C2154 H2168 0.960 . S
C2155 C2152 1.511 . S
C2155 H2169 0.961 . S
C2155 H2170 0.961 . S
C2155 H2171 0.961 . S
C2156 C2157 1.370 . S
C2156 C2158 1.363 . S
C2156 H2172 0.931 . S
C2157 C2156 1.370 . S
C2157 C2161 1.408 . S
C2158 C2156 1.363 . S
C2158 C2159 1.370 . S
C2158 C2162 1.524 . S
C2159 C2151 1.503 . S
C2159 C2158 1.370 . S
C2159 C2160 1.403 . S
C2160 C2159 1.403 . S
C2160 C2161 1.404 . S
C2160 C2163 1.539 . S
C2161 C2157 1.408 . S
C2161 C2160 1.404 . S
C2161 H2173 0.930 . S
C2162 C2158 1.524 . S
C2162 H2174 0.956 . S
C2162 H2175 0.961 . S
C2162 H2176 0.961 . S
C2163 C2160 1.539 . S
C2163 H2177 0.958 . S
C2163 H2178 0.961 . S
C2163 H2179 0.960 . S
H2164 C2148 0.931 . S
H2165 C2153 0.929 1_545 S
H2166 C2154 0.960 . S
H2167 C2154 0.962 . S
H2168 C2154 0.960 . S
H2169 C2155 0.961 . S
H2170 C2155 0.961 . S
H2171 C2155 0.961 . S
H2172 C2156 0.931 . S
H2173 C2161 0.930 . S
H2174 C2162 0.956 . S
H2175 C2162 0.961 . S
H2176 C2162 0.961 . S
H2177 C2163 0.958 . S
H2178 C2163 0.961 . S
H2179 C2163 0.960 . S
C2180 C2181 1.391 . S
C2180 C2182 1.394 . S
C2180 H2196 0.931 . S
C2181 C2180 1.391 . S
C2181 C2185 1.376 . S
C2182 C2180 1.394 . S
C2182 C2183 1.369 . S
C2182 C2186 1.531 . S
C2183 C2182 1.369 . S
C2183 C2184 1.410 . S
C2183 C2191 1.503 . S
C2184 C2183 1.410 . S
C2184 C2185 1.392 . S
C2184 C2187 1.511 . S
C2185 C2181 1.376 . S
C2185 C2184 1.392 . S
C2185 H2197 0.929 1_455 S
C2186 C2182 1.531 . S
C2186 H2198 0.960 . S
C2186 H2199 0.962 . S
C2186 H2200 0.960 . S
C2187 C2184 1.511 . S
C2187 H2201 0.961 . S
C2187 H2202 0.961 . S
C2187 H2203 0.961 . S
C2188 C2189 1.370 . S
C2188 C2190 1.363 . S
C2188 H2204 0.931 . S
C2189 C2188 1.370 . S
C2189 C2193 1.408 . S
C2190 C2188 1.363 . S
C2190 C2191 1.370 . S
C2190 C2194 1.524 . S
C2191 C2183 1.503 . S
C2191 C2190 1.370 . S
C2191 C2192 1.403 . S
C2192 C2191 1.403 . S
C2192 C2193 1.404 . S
C2192 C2195 1.539 . S
C2193 C2189 1.408 . S
C2193 C2192 1.404 . S
C2193 H2205 0.930 . S
C2194 C2190 1.524 . S
C2194 H2206 0.956 . S
C2194 H2207 0.961 . S
C2194 H2208 0.961 . S
C2195 C2192 1.539 . S
C2195 H2209 0.958 . S
C2195 H2210 0.961 . S
C2195 H2211 0.960 . S
H2196 C2180 0.931 . S
H2197 C2185 0.929 1_655 S
H2198 C2186 0.960 . S
H2199 C2186 0.962 . S
H2200 C2186 0.960 . S
H2201 C2187 0.961 . S
H2202 C2187 0.961 . S
H2203 C2187 0.961 . S
H2204 C2188 0.931 . S
H2205 C2193 0.930 . S
H2206 C2194 0.956 . S
H2207 C2194 0.961 . S
H2208 C2194 0.961 . S
H2209 C2195 0.958 . S
H2210 C2195 0.961 . S
H2211 C2195 0.960 . S
C2212 C2213 1.391 . S
C2212 C2214 1.394 . S
C2212 H2228 0.931 . S
C2213 C2212 1.391 . S
C2213 C2217 1.376 . S
C2214 C2212 1.394 . S
C2214 C2215 1.369 . S
C2214 C2218 1.531 . S
C2215 C2214 1.369 . S
C2215 C2216 1.410 . S
C2215 C2223 1.503 . S
C2216 C2215 1.410 . S
C2216 C2217 1.392 . S
C2216 C2219 1.511 . S
C2217 C2213 1.376 . S
C2217 C2216 1.392 . S
C2217 H2229 0.929 . S
C2218 C2214 1.531 . S
C2218 H2230 0.960 . S
C2218 H2231 0.962 . S
C2218 H2232 0.960 . S
C2219 C2216 1.511 . S
C2219 H2233 0.961 . S
C2219 H2234 0.961 . S
C2219 H2235 0.961 . S
C2220 C2221 1.370 . S
C2220 C2222 1.363 . S
C2220 H2236 0.931 . S
C2221 C2220 1.370 . S
C2221 C2225 1.408 . S
C2222 C2220 1.363 . S
C2222 C2223 1.370 . S
C2222 C2226 1.524 . S
C2223 C2215 1.503 . S
C2223 C2222 1.370 . S
C2223 C2224 1.403 . S
C2224 C2223 1.403 . S
C2224 C2225 1.404 . S
C2224 C2227 1.539 . S
C2225 C2221 1.408 . S
C2225 C2224 1.404 . S
C2225 H2237 0.930 . S
C2226 C2222 1.524 . S
C2226 H2238 0.956 . S
C2226 H2239 0.961 . S
C2226 H2240 0.961 . S
C2227 C2224 1.539 . S
C2227 H2241 0.958 . S
C2227 H2242 0.961 . S
C2227 H2243 0.960 . S
H2228 C2212 0.931 . S
H2229 C2217 0.929 . S
H2230 C2218 0.960 . S
H2231 C2218 0.962 . S
H2232 C2218 0.960 . S
H2233 C2219 0.961 . S
H2234 C2219 0.961 . S
H2235 C2219 0.961 . S
H2236 C2220 0.931 . S
H2237 C2225 0.930 . S
H2238 C2226 0.956 . S
H2239 C2226 0.961 . S
H2240 C2226 0.961 . S
H2241 C2227 0.958 . S
H2242 C2227 0.961 . S
H2243 C2227 0.960 . S
C2244 C2245 1.391 . S
C2244 C2246 1.394 . S
C2244 H2260 0.931 . S
C2245 C2244 1.391 . S
C2245 C2249 1.376 . S
C2246 C2244 1.394 . S
C2246 C2247 1.369 . S
C2246 C2250 1.531 . S
C2247 C2246 1.369 . S
C2247 C2248 1.410 . S
C2247 C2255 1.503 . S
C2248 C2247 1.410 . S
C2248 C2249 1.392 . S
C2248 C2251 1.511 . S
C2249 C2245 1.376 . S
C2249 C2248 1.392 . S
C2249 H2261 0.929 . S
C2250 C2246 1.531 . S
C2250 H2262 0.960 . S
C2250 H2263 0.962 . S
C2250 H2264 0.960 . S
C2251 C2248 1.511 . S
C2251 H2265 0.961 . S
C2251 H2266 0.961 . S
C2251 H2267 0.961 . S
C2252 C2253 1.370 . S
C2252 C2254 1.363 . S
C2252 H2268 0.931 . S
C2253 C2252 1.370 . S
C2253 C2257 1.408 . S
C2254 C2252 1.363 . S
C2254 C2255 1.370 . S
C2254 C2258 1.524 . S
C2255 C2247 1.503 . S
C2255 C2254 1.370 . S
C2255 C2256 1.403 . S
C2256 C2255 1.403 . S
C2256 C2257 1.404 . S
C2256 C2259 1.539 . S
C2257 C2253 1.408 . S
C2257 C2256 1.404 . S
C2257 H2269 0.930 . S
C2258 C2254 1.524 . S
C2258 H2270 0.956 . S
C2258 H2271 0.961 . S
C2258 H2272 0.961 . S
C2259 C2256 1.539 . S
C2259 H2273 0.958 . S
C2259 H2274 0.961 . S
C2259 H2275 0.960 . S
H2260 C2244 0.931 . S
H2261 C2249 0.929 . S
H2262 C2250 0.960 . S
H2263 C2250 0.962 . S
H2264 C2250 0.960 . S
H2265 C2251 0.961 . S
H2266 C2251 0.961 . S
H2267 C2251 0.961 . S
H2268 C2252 0.931 . S
H2269 C2257 0.930 . S
H2270 C2258 0.956 . S
H2271 C2258 0.961 . S
H2272 C2258 0.961 . S
H2273 C2259 0.958 . S
H2274 C2259 0.961 . S
H2275 C2259 0.960 . S
C2276 C2277 1.391 . S
C2276 C2278 1.394 . S
C2276 H2292 0.931 . S
C2277 C2276 1.391 . S
C2277 C2281 1.376 . S
C2278 C2276 1.394 . S
C2278 C2279 1.369 . S
C2278 C2282 1.531 . S
C2279 C2278 1.369 . S
C2279 C2280 1.410 . S
C2279 C2287 1.503 . S
C2280 C2279 1.410 . S
C2280 C2281 1.392 . S
C2280 C2283 1.511 . S
C2281 C2277 1.376 . S
C2281 C2280 1.392 . S
C2281 H2293 0.929 . S
C2282 C2278 1.531 . S
C2282 H2294 0.960 . S
C2282 H2295 0.962 . S
C2282 H2296 0.960 . S
C2283 C2280 1.511 . S
C2283 H2297 0.961 . S
C2283 H2298 0.961 . S
C2283 H2299 0.961 . S
C2284 C2285 1.370 . S
C2284 C2286 1.363 . S
C2284 H2300 0.931 . S
C2285 C2284 1.370 . S
C2285 C2289 1.408 . S
C2286 C2284 1.363 . S
C2286 C2287 1.370 . S
C2286 C2290 1.524 . S
C2287 C2279 1.503 . S
C2287 C2286 1.370 . S
C2287 C2288 1.403 . S
C2288 C2287 1.403 . S
C2288 C2289 1.404 . S
C2288 C2291 1.539 . S
C2289 C2285 1.408 . S
C2289 C2288 1.404 . S
C2289 H2301 0.930 . S
C2290 C2286 1.524 . S
C2290 H2302 0.956 . S
C2290 H2303 0.961 . S
C2290 H2304 0.961 . S
C2291 C2288 1.539 . S
C2291 H2305 0.958 . S
C2291 H2306 0.961 . S
C2291 H2307 0.960 . S
H2292 C2276 0.931 . S
H2293 C2281 0.929 . S
H2294 C2282 0.960 . S
H2295 C2282 0.962 . S
H2296 C2282 0.960 . S
H2297 C2283 0.961 . S
H2298 C2283 0.961 . S
H2299 C2283 0.961 . S
H2300 C2284 0.931 . S
H2301 C2289 0.930 . S
H2302 C2290 0.956 . S
H2303 C2290 0.961 . S
H2304 C2290 0.961 . S
H2305 C2291 0.958 . S
H2306 C2291 0.961 . S
H2307 C2291 0.960 . S
C2308 C2309 1.391 . S
C2308 C2310 1.394 . S
C2308 H2324 0.931 . S
C2309 C2308 1.391 . S
C2309 C2313 1.376 . S
C2310 C2308 1.394 . S
C2310 C2311 1.369 . S
C2310 C2314 1.531 . S
C2311 C2310 1.369 . S
C2311 C2312 1.410 . S
C2311 C2319 1.503 . S
C2312 C2311 1.410 . S
C2312 C2313 1.392 . S
C2312 C2315 1.511 . S
C2313 C2309 1.376 . S
C2313 C2312 1.392 . S
C2313 H2325 0.929 . S
C2314 C2310 1.531 . S
C2314 H2326 0.960 . S
C2314 H2327 0.962 . S
C2314 H2328 0.960 . S
C2315 C2312 1.511 . S
C2315 H2329 0.961 . S
C2315 H2330 0.961 . S
C2315 H2331 0.961 . S
C2316 C2317 1.370 . S
C2316 C2318 1.363 . S
C2316 H2332 0.931 . S
C2317 C2316 1.370 . S
C2317 C2321 1.408 . S
C2318 C2316 1.363 . S
C2318 C2319 1.370 . S
C2318 C2322 1.524 . S
C2319 C2311 1.503 . S
C2319 C2318 1.370 . S
C2319 C2320 1.403 . S
C2320 C2319 1.403 . S
C2320 C2321 1.404 . S
C2320 C2323 1.539 . S
C2321 C2317 1.408 . S
C2321 C2320 1.404 . S
C2321 H2333 0.930 . S
C2322 C2318 1.524 . S
C2322 H2334 0.956 . S
C2322 H2335 0.961 . S
C2322 H2336 0.961 . S
C2323 C2320 1.539 . S
C2323 H2337 0.958 . S
C2323 H2338 0.961 . S
C2323 H2339 0.960 . S
H2324 C2308 0.931 . S
H2325 C2313 0.929 . S
H2326 C2314 0.960 . S
H2327 C2314 0.962 . S
H2328 C2314 0.960 . S
H2329 C2315 0.961 . S
H2330 C2315 0.961 . S
H2331 C2315 0.961 . S
H2332 C2316 0.931 . S
H2333 C2321 0.930 . S
H2334 C2322 0.956 . S
H2335 C2322 0.961 . S
H2336 C2322 0.961 . S
H2337 C2323 0.958 . S
H2338 C2323 0.961 . S
H2339 C2323 0.960 . S
C2340 C2341 1.373 1_545 S
C2340 C2342 1.394 . S
C2340 H2356 0.932 . S
C2341 C2340 1.373 1_565 S
C2341 C2345 1.376 1_565 S
C2342 C2340 1.394 . S
C2342 C2343 1.369 . S
C2342 C2346 1.531 . S
C2343 C2342 1.369 . S
C2343 C2344 1.410 . S
C2343 C2351 1.503 . S
C2344 C2343 1.410 . S
C2344 C2345 1.392 . S
C2344 C2347 1.511 . S
C2345 C2341 1.376 1_545 S
C2345 C2344 1.392 . S
C2345 H2357 0.929 . S
C2346 C2342 1.531 . S
C2346 H2358 0.960 . S
C2346 H2359 0.962 . S
C2346 H2360 0.960 . S
C2347 C2344 1.511 . S
C2347 H2361 0.961 . S
C2347 H2362 0.961 . S
C2347 H2363 0.961 . S
C2348 C2349 1.370 . S
C2348 C2350 1.363 . S
C2348 H2364 0.931 . S
C2349 C2348 1.370 . S
C2349 C2353 1.408 . S
C2350 C2348 1.363 . S
C2350 C2351 1.370 . S
C2350 C2354 1.524 . S
C2351 C2343 1.503 . S
C2351 C2350 1.370 . S
C2351 C2352 1.403 . S
C2352 C2351 1.403 . S
C2352 C2353 1.404 . S
C2352 C2355 1.539 . S
C2353 C2349 1.408 . S
C2353 C2352 1.404 . S
C2353 H2365 0.930 . S
C2354 C2350 1.524 . S
C2354 H2366 0.956 . S
C2354 H2367 0.961 . S
C2354 H2368 0.961 . S
C2355 C2352 1.539 . S
C2355 H2369 0.958 . S
C2355 H2370 0.961 . S
C2355 H2371 0.960 . S
H2356 C2340 0.932 . S
H2357 C2345 0.929 . S
H2358 C2346 0.960 . S
H2359 C2346 0.962 . S
H2360 C2346 0.960 . S
H2361 C2347 0.961 . S
H2362 C2347 0.961 . S
H2363 C2347 0.961 . S
H2364 C2348 0.931 . S
H2365 C2353 0.930 . S
H2366 C2354 0.956 . S
H2367 C2354 0.961 . S
H2368 C2354 0.961 . S
H2369 C2355 0.958 . S
H2370 C2355 0.961 . S
H2371 C2355 0.960 . S
C2372 C2373 1.391 . S
C2372 C2374 1.394 . S
C2372 H2388 0.931 . S
C2373 C2372 1.391 . S
C2373 C2377 1.376 . S
C2374 C2372 1.394 . S
C2374 C2375 1.369 . S
C2374 C2378 1.531 . S
C2375 C2374 1.369 . S
C2375 C2376 1.410 . S
C2375 C2383 1.503 . S
C2376 C2375 1.410 . S
C2376 C2377 1.392 . S
C2376 C2379 1.511 . S
C2377 C2373 1.376 . S
C2377 C2376 1.392 . S
C2377 H2389 0.929 . S
C2378 C2374 1.531 . S
C2378 H2390 0.960 . S
C2378 H2391 0.962 . S
C2378 H2392 0.960 . S
C2379 C2376 1.511 . S
C2379 H2393 0.961 . S
C2379 H2394 0.961 . S
C2379 H2395 0.961 . S
C2380 C2381 1.370 . S
C2380 C2382 1.363 . S
C2380 H2396 0.931 . S
C2381 C2380 1.370 . S
C2381 C2385 1.408 . S
C2382 C2380 1.363 . S
C2382 C2383 1.370 . S
C2382 C2386 1.524 . S
C2383 C2375 1.503 . S
C2383 C2382 1.370 . S
C2383 C2384 1.403 . S
C2384 C2383 1.403 . S
C2384 C2385 1.404 . S
C2384 C2387 1.539 . S
C2385 C2381 1.408 . S
C2385 C2384 1.404 . S
C2385 H2397 0.930 . S
C2386 C2382 1.524 . S
C2386 H2398 0.956 . S
C2386 H2399 0.961 . S
C2386 H2400 0.961 . S
C2387 C2384 1.539 . S
C2387 H2401 0.958 . S
C2387 H2402 0.961 . S
C2387 H2403 0.960 . S
H2388 C2372 0.931 . S
H2389 C2377 0.929 . S
H2390 C2378 0.960 . S
H2391 C2378 0.962 . S
H2392 C2378 0.960 . S
H2393 C2379 0.961 . S
H2394 C2379 0.961 . S
H2395 C2379 0.961 . S
H2396 C2380 0.931 . S
H2397 C2385 0.930 . S
H2398 C2386 0.956 . S
H2399 C2386 0.961 . S
H2400 C2386 0.961 . S
H2401 C2387 0.958 . S
H2402 C2387 0.961 . S
H2403 C2387 0.960 . S
C2404 C2405 1.391 . S
C2404 C2406 1.394 . S
C2404 H2420 0.931 . S
C2405 C2404 1.391 . S
C2405 C2409 1.376 . S
C2406 C2404 1.394 . S
C2406 C2407 1.369 . S
C2406 C2410 1.531 . S
C2407 C2406 1.369 . S
C2407 C2408 1.410 . S
C2407 C2415 1.503 . S
C2408 C2407 1.410 . S
C2408 C2409 1.392 . S
C2408 C2411 1.511 . S
C2409 C2405 1.376 . S
C2409 C2408 1.392 . S
C2409 H2421 0.929 . S
C2410 C2406 1.531 . S
C2410 H2422 0.960 . S
C2410 H2423 0.962 . S
C2410 H2424 0.960 . S
C2411 C2408 1.511 . S
C2411 H2425 0.961 . S
C2411 H2426 0.961 . S
C2411 H2427 0.961 . S
C2412 C2413 1.370 . S
C2412 C2414 1.363 . S
C2412 H2428 0.931 . S
C2413 C2412 1.370 . S
C2413 C2417 1.408 . S
C2414 C2412 1.363 . S
C2414 C2415 1.370 . S
C2414 C2418 1.524 . S
C2415 C2407 1.503 . S
C2415 C2414 1.370 . S
C2415 C2416 1.403 . S
C2416 C2415 1.403 . S
C2416 C2417 1.404 . S
C2416 C2419 1.539 . S
C2417 C2413 1.408 . S
C2417 C2416 1.404 . S
C2417 H2429 0.930 . S
C2418 C2414 1.524 . S
C2418 H2430 0.956 . S
C2418 H2431 0.961 . S
C2418 H2432 0.961 . S
C2419 C2416 1.539 . S
C2419 H2433 0.958 . S
C2419 H2434 0.961 . S
C2419 H2435 0.960 . S
H2420 C2404 0.931 . S
H2421 C2409 0.929 . S
H2422 C2410 0.960 . S
H2423 C2410 0.962 . S
H2424 C2410 0.960 . S
H2425 C2411 0.961 . S
H2426 C2411 0.961 . S
H2427 C2411 0.961 . S
H2428 C2412 0.931 . S
H2429 C2417 0.930 . S
H2430 C2418 0.956 . S
H2431 C2418 0.961 . S
H2432 C2418 0.961 . S
H2433 C2419 0.958 . S
H2434 C2419 0.961 . S
H2435 C2419 0.960 . S
C2436 C2437 1.418 . S
C2436 C2438 1.394 . S
C2436 H2452 0.931 . S
C2437 C2436 1.418 . S
C2437 C2441 1.369 . S
C2438 C2436 1.394 . S
C2438 C2439 1.369 . S
C2438 C2442 1.531 . S
C2439 C2438 1.369 . S
C2439 C2440 1.410 . S
C2439 C2447 1.503 . S
C2440 C2439 1.410 . S
C2440 C2441 1.392 . S
C2440 C2443 1.511 . S
C2441 C2437 1.369 . S
C2441 C2440 1.392 . S
C2441 H2453 0.929 1_655 S
C2442 C2438 1.531 . S
C2442 H2454 0.960 . S
C2442 H2455 0.962 . S
C2442 H2456 0.960 . S
C2443 C2440 1.511 . S
C2443 H2457 0.961 . S
C2443 H2458 0.961 . S
C2443 H2459 0.961 . S
C2444 C2445 1.370 . S
C2444 C2446 1.363 . S
C2444 H2460 0.931 . S
C2445 C2444 1.370 . S
C2445 C2449 1.408 . S
C2446 C2444 1.363 . S
C2446 C2447 1.370 . S
C2446 C2450 1.524 . S
C2447 C2439 1.503 . S
C2447 C2446 1.370 . S
C2447 C2448 1.403 . S
C2448 C2447 1.403 . S
C2448 C2449 1.404 . S
C2448 C2451 1.539 . S
C2449 C2445 1.408 . S
C2449 C2448 1.404 . S
C2449 H2461 0.930 . S
C2450 C2446 1.524 . S
C2450 H2462 0.956 . S
C2450 H2463 0.961 . S
C2450 H2464 0.961 . S
C2451 C2448 1.539 . S
C2451 H2465 0.958 . S
C2451 H2466 0.961 . S
C2451 H2467 0.960 . S
H2452 C2436 0.931 . S
H2453 C2441 0.929 1_455 S
H2454 C2442 0.960 . S
H2455 C2442 0.962 . S
H2456 C2442 0.960 . S
H2457 C2443 0.961 . S
H2458 C2443 0.961 . S
H2459 C2443 0.961 . S
H2460 C2444 0.931 . S
H2461 C2449 0.930 . S
H2462 C2450 0.956 . S
H2463 C2450 0.961 . S
H2464 C2450 0.961 . S
H2465 C2451 0.958 . S
H2466 C2451 0.961 . S
H2467 C2451 0.960 . S
C2468 C2469 1.391 . S
C2468 C2470 1.394 . S
C2468 H2484 0.931 . S
C2469 C2468 1.391 . S
C2469 C2473 1.376 . S
C2470 C2468 1.394 . S
C2470 C2471 1.369 . S
C2470 C2474 1.531 . S
C2471 C2470 1.369 . S
C2471 C2472 1.410 . S
C2471 C2479 1.503 . S
C2472 C2471 1.410 . S
C2472 C2473 1.392 . S
C2472 C2475 1.511 . S
C2473 C2469 1.376 . S
C2473 C2472 1.392 . S
C2473 H2485 0.929 . S
C2474 C2470 1.531 . S
C2474 H2486 0.960 . S
C2474 H2487 0.962 . S
C2474 H2488 0.960 . S
C2475 C2472 1.511 . S
C2475 H2489 0.961 . S
C2475 H2490 0.961 . S
C2475 H2491 0.961 . S
C2476 C2477 1.370 . S
C2476 C2478 1.363 . S
C2476 H2492 0.931 . S
C2477 C2476 1.370 . S
C2477 C2481 1.408 . S
C2478 C2476 1.363 . S
C2478 C2479 1.370 . S
C2478 C2482 1.524 . S
C2479 C2471 1.503 . S
C2479 C2478 1.370 . S
C2479 C2480 1.403 . S
C2480 C2479 1.403 . S
C2480 C2481 1.404 . S
C2480 C2483 1.539 . S
C2481 C2477 1.408 . S
C2481 C2480 1.404 . S
C2481 H2493 0.930 . S
C2482 C2478 1.524 . S
C2482 H2494 0.956 . S
C2482 H2495 0.961 . S
C2482 H2496 0.961 . S
C2483 C2480 1.539 . S
C2483 H2497 0.958 . S
C2483 H2498 0.961 . S
C2483 H2499 0.960 . S
H2484 C2468 0.931 . S
H2485 C2473 0.929 . S
H2486 C2474 0.960 . S
H2487 C2474 0.962 . S
H2488 C2474 0.960 . S
H2489 C2475 0.961 . S
H2490 C2475 0.961 . S
H2491 C2475 0.961 . S
H2492 C2476 0.931 . S
H2493 C2481 0.930 . S
H2494 C2482 0.956 . S
H2495 C2482 0.961 . S
H2496 C2482 0.961 . S
H2497 C2483 0.958 . S
H2498 C2483 0.961 . S
H2499 C2483 0.960 . S
C2500 C2501 1.391 1_545 S
C2500 C2502 1.394 . S
C2500 H2516 0.931 . S
C2501 C2500 1.391 1_565 S
C2501 C2505 1.376 1_565 S
C2502 C2500 1.394 . S
C2502 C2503 1.369 . S
C2502 C2506 1.531 . S
C2503 C2502 1.369 . S
C2503 C2504 1.410 . S
C2503 C2511 1.503 . S
C2504 C2503 1.410 . S
C2504 C2505 1.392 . S
C2504 C2507 1.511 . S
C2505 C2501 1.376 1_545 S
C2505 C2504 1.392 . S
C2505 H2517 0.929 1_545 S
C2506 C2502 1.531 . S
C2506 H2518 0.960 . S
C2506 H2519 0.962 . S
C2506 H2520 0.960 . S
C2507 C2504 1.511 . S
C2507 H2521 0.961 . S
C2507 H2522 0.961 . S
C2507 H2523 0.961 . S
C2508 C2509 1.370 . S
C2508 C2510 1.363 . S
C2508 H2524 0.931 . S
C2509 C2508 1.370 . S
C2509 C2513 1.408 . S
C2510 C2508 1.363 . S
C2510 C2511 1.370 . S
C2510 C2514 1.524 . S
C2511 C2503 1.503 . S
C2511 C2510 1.370 . S
C2511 C2512 1.403 . S
C2512 C2511 1.403 . S
C2512 C2513 1.404 . S
C2512 C2515 1.539 . S
C2513 C2509 1.408 . S
C2513 C2512 1.404 . S
C2513 H2525 0.930 . S
C2514 C2510 1.524 . S
C2514 H2526 0.956 . S
C2514 H2527 0.961 . S
C2514 H2528 0.961 . S
C2515 C2512 1.539 . S
C2515 H2529 0.958 . S
C2515 H2530 0.961 . S
C2515 H2531 0.960 . S
H2516 C2500 0.931 . S
H2517 C2505 0.929 1_565 S
H2518 C2506 0.960 . S
H2519 C2506 0.962 . S
H2520 C2506 0.960 . S
H2521 C2507 0.961 . S
H2522 C2507 0.961 . S
H2523 C2507 0.961 . S
H2524 C2508 0.931 . S
H2525 C2513 0.930 . S
H2526 C2514 0.956 . S
H2527 C2514 0.961 . S
H2528 C2514 0.961 . S
H2529 C2515 0.958 . S
H2530 C2515 0.961 . S
H2531 C2515 0.960 . S
C2532 C2533 1.391 . S
C2532 C2534 1.394 . S
C2532 H2548 0.931 . S
C2533 C2532 1.391 . S
C2533 C2537 1.376 . S
C2534 C2532 1.394 . S
C2534 C2535 1.369 . S
C2534 C2538 1.531 . S
C2535 C2534 1.369 . S
C2535 C2536 1.410 . S
C2535 C2543 1.503 . S
C2536 C2535 1.410 . S
C2536 C2537 1.392 . S
C2536 C2539 1.511 . S
C2537 C2533 1.376 . S
C2537 C2536 1.392 . S
C2537 H2549 0.929 . S
C2538 C2534 1.531 . S
C2538 H2550 0.960 . S
C2538 H2551 0.962 . S
C2538 H2552 0.960 . S
C2539 C2536 1.511 . S
C2539 H2553 0.961 . S
C2539 H2554 0.961 . S
C2539 H2555 0.961 . S
C2540 C2541 1.370 . S
C2540 C2542 1.363 . S
C2540 H2556 0.931 . S
C2541 C2540 1.370 . S
C2541 C2545 1.408 . S
C2542 C2540 1.363 . S
C2542 C2543 1.370 . S
C2542 C2546 1.524 . S
C2543 C2535 1.503 . S
C2543 C2542 1.370 . S
C2543 C2544 1.403 . S
C2544 C2543 1.403 . S
C2544 C2545 1.404 . S
C2544 C2547 1.539 . S
C2545 C2541 1.408 . S
C2545 C2544 1.404 . S
C2545 H2557 0.930 . S
C2546 C2542 1.524 . S
C2546 H2558 0.956 . S
C2546 H2559 0.961 . S
C2546 H2560 0.961 . S
C2547 C2544 1.539 . S
C2547 H2561 0.958 . S
C2547 H2562 0.961 . S
C2547 H2563 0.960 . S
H2548 C2532 0.931 . S
H2549 C2537 0.929 . S
H2550 C2538 0.960 . S
H2551 C2538 0.962 . S
H2552 C2538 0.960 . S
H2553 C2539 0.961 . S
H2554 C2539 0.961 . S
H2555 C2539 0.961 . S
H2556 C2540 0.931 . S
H2557 C2545 0.930 . S
H2558 C2546 0.956 . S
H2559 C2546 0.961 . S
H2560 C2546 0.961 . S
H2561 C2547 0.958 . S
H2562 C2547 0.961 . S
H2563 C2547 0.960 . S
C2564 C2565 1.391 . S
C2564 C2566 1.394 . S
C2564 H2580 0.931 . S
C2565 C2564 1.391 . S
C2565 C2569 1.376 . S
C2566 C2564 1.394 . S
C2566 C2567 1.369 . S
C2566 C2570 1.531 . S
C2567 C2566 1.369 . S
C2567 C2568 1.410 . S
C2567 C2575 1.503 . S
C2568 C2567 1.410 . S
C2568 C2569 1.392 . S
C2568 C2571 1.511 . S
C2569 C2565 1.376 . S
C2569 C2568 1.392 . S
C2569 H2581 0.929 . S
C2570 C2566 1.531 . S
C2570 H2582 0.960 . S
C2570 H2583 0.962 . S
C2570 H2584 0.960 . S
C2571 C2568 1.511 . S
C2571 H2585 0.961 . S
C2571 H2586 0.961 . S
C2571 H2587 0.961 . S
C2572 C2573 1.370 . S
C2572 C2574 1.363 . S
C2572 H2588 0.931 . S
C2573 C2572 1.370 . S
C2573 C2577 1.408 . S
C2574 C2572 1.363 . S
C2574 C2575 1.370 . S
C2574 C2578 1.524 . S
C2575 C2567 1.503 . S
C2575 C2574 1.370 . S
C2575 C2576 1.403 . S
C2576 C2575 1.403 . S
C2576 C2577 1.404 . S
C2576 C2579 1.539 . S
C2577 C2573 1.408 . S
C2577 C2576 1.404 . S
C2577 H2589 0.930 . S
C2578 C2574 1.524 . S
C2578 H2590 0.956 . S
C2578 H2591 0.961 . S
C2578 H2592 0.961 . S
C2579 C2576 1.539 . S
C2579 H2593 0.958 . S
C2579 H2594 0.961 . S
C2579 H2595 0.960 . S
H2580 C2564 0.931 . S
H2581 C2569 0.929 . S
H2582 C2570 0.960 . S
H2583 C2570 0.962 . S
H2584 C2570 0.960 . S
H2585 C2571 0.961 . S
H2586 C2571 0.961 . S
H2587 C2571 0.961 . S
H2588 C2572 0.931 . S
H2589 C2577 0.930 . S
H2590 C2578 0.956 . S
H2591 C2578 0.961 . S
H2592 C2578 0.961 . S
H2593 C2579 0.958 . S
H2594 C2579 0.961 . S
H2595 C2579 0.960 . S
C2596 C2597 1.391 . S
C2596 C2598 1.394 . S
C2596 H2612 0.931 . S
C2597 C2596 1.391 . S
C2597 C2601 1.376 . S
C2598 C2596 1.394 . S
C2598 C2599 1.369 . S
C2598 C2602 1.531 . S
C2599 C2598 1.369 . S
C2599 C2600 1.410 . S
C2599 C2607 1.503 . S
C2600 C2599 1.410 . S
C2600 C2601 1.392 . S
C2600 C2603 1.511 . S
C2601 C2597 1.376 . S
C2601 C2600 1.392 . S
C2601 H2613 0.929 . S
C2602 C2598 1.531 . S
C2602 H2614 0.960 . S
C2602 H2615 0.962 . S
C2602 H2616 0.960 . S
C2603 C2600 1.511 . S
C2603 H2617 0.961 . S
C2603 H2618 0.961 . S
C2603 H2619 0.961 . S
C2604 C2605 1.370 . S
C2604 C2606 1.363 . S
C2604 H2620 0.931 . S
C2605 C2604 1.370 . S
C2605 C2609 1.408 . S
C2606 C2604 1.363 . S
C2606 C2607 1.370 . S
C2606 C2610 1.524 . S
C2607 C2599 1.503 . S
C2607 C2606 1.370 . S
C2607 C2608 1.403 . S
C2608 C2607 1.403 . S
C2608 C2609 1.404 . S
C2608 C2611 1.539 . S
C2609 C2605 1.408 . S
C2609 C2608 1.404 . S
C2609 H2621 0.930 . S
C2610 C2606 1.524 . S
C2610 H2622 0.956 . S
C2610 H2623 0.961 . S
C2610 H2624 0.961 . S
C2611 C2608 1.539 . S
C2611 H2625 0.958 . S
C2611 H2626 0.961 . S
C2611 H2627 0.960 . S
H2612 C2596 0.931 . S
H2613 C2601 0.929 . S
H2614 C2602 0.960 . S
H2615 C2602 0.962 . S
H2616 C2602 0.960 . S
H2617 C2603 0.961 . S
H2618 C2603 0.961 . S
H2619 C2603 0.961 . S
H2620 C2604 0.931 . S
H2621 C2609 0.930 . S
H2622 C2610 0.956 . S
H2623 C2610 0.961 . S
H2624 C2610 0.961 . S
H2625 C2611 0.958 . S
H2626 C2611 0.961 . S
H2627 C2611 0.960 . S
C2628 C2629 1.391 . S
C2628 C2630 1.394 . S
C2628 H2644 0.931 . S
C2629 C2628 1.391 . S
C2629 C2633 1.376 . S
C2630 C2628 1.394 . S
C2630 C2631 1.369 . S
C2630 C2634 1.531 . S
C2631 C2630 1.369 . S
C2631 C2632 1.410 . S
C2631 C2639 1.503 . S
C2632 C2631 1.410 . S
C2632 C2633 1.392 . S
C2632 C2635 1.511 . S
C2633 C2629 1.376 . S
C2633 C2632 1.392 . S
C2633 H2645 0.929 . S
C2634 C2630 1.531 . S
C2634 H2646 0.960 . S
C2634 H2647 0.962 . S
C2634 H2648 0.960 . S
C2635 C2632 1.511 . S
C2635 H2649 0.961 . S
C2635 H2650 0.961 . S
C2635 H2651 0.961 . S
C2636 C2637 1.370 . S
C2636 C2638 1.363 . S
C2636 H2652 0.931 . S
C2637 C2636 1.370 . S
C2637 C2641 1.408 . S
C2638 C2636 1.363 . S
C2638 C2639 1.370 . S
C2638 C2642 1.524 . S
C2639 C2631 1.503 . S
C2639 C2638 1.370 . S
C2639 C2640 1.403 . S
C2640 C2639 1.403 . S
C2640 C2641 1.404 . S
C2640 C2643 1.539 . S
C2641 C2637 1.408 . S
C2641 C2640 1.404 . S
C2641 H2653 0.930 . S
C2642 C2638 1.524 . S
C2642 H2654 0.956 . S
C2642 H2655 0.961 . S
C2642 H2656 0.961 . S
C2643 C2640 1.539 . S
C2643 H2657 0.958 1_565 S
C2643 H2658 0.961 . S
C2643 H2659 0.960 . S
H2644 C2628 0.931 . S
H2645 C2633 0.929 . S
H2646 C2634 0.960 . S
H2647 C2634 0.962 . S
H2648 C2634 0.960 . S
H2649 C2635 0.961 . S
H2650 C2635 0.961 . S
H2651 C2635 0.961 . S
H2652 C2636 0.931 . S
H2653 C2641 0.930 . S
H2654 C2642 0.956 . S
H2655 C2642 0.961 . S
H2656 C2642 0.961 . S
H2657 C2643 0.958 1_545 S
H2658 C2643 0.961 . S
H2659 C2643 0.960 . S
C2660 C2661 1.391 . S
C2660 C2662 1.394 . S
C2660 H2676 0.931 . S
C2661 C2660 1.391 . S
C2661 C2665 1.376 . S
C2662 C2660 1.394 . S
C2662 C2663 1.369 . S
C2662 C2666 1.531 . S
C2663 C2662 1.369 . S
C2663 C2664 1.410 . S
C2663 C2671 1.503 . S
C2664 C2663 1.410 . S
C2664 C2665 1.392 . S
C2664 C2667 1.511 . S
C2665 C2661 1.376 . S
C2665 C2664 1.392 . S
C2665 H2677 0.929 . S
C2666 C2662 1.531 . S
C2666 H2678 0.960 . S
C2666 H2679 0.962 . S
C2666 H2680 0.960 . S
C2667 C2664 1.511 . S
C2667 H2681 0.961 . S
C2667 H2682 0.961 . S
C2667 H2683 0.961 . S
C2668 C2669 1.370 . S
C2668 C2670 1.363 . S
C2668 H2684 0.931 1_455 S
C2669 C2668 1.370 . S
C2669 C2673 1.408 . S
C2670 C2668 1.363 . S
C2670 C2671 1.370 . S
C2670 C2674 1.524 . S
C2671 C2663 1.503 . S
C2671 C2670 1.370 . S
C2671 C2672 1.403 . S
C2672 C2671 1.403 . S
C2672 C2673 1.404 . S
C2672 C2675 1.539 . S
C2673 C2669 1.408 . S
C2673 C2672 1.404 . S
C2673 H2685 0.930 . S
C2674 C2670 1.524 . S
C2674 H2686 0.956 1_455 S
C2674 H2687 0.961 . S
C2674 H2688 0.961 1_455 S
C2675 C2672 1.539 . S
C2675 H2689 0.958 . S
C2675 H2690 0.961 . S
C2675 H2691 0.960 . S
H2676 C2660 0.931 . S
H2677 C2665 0.929 . S
H2678 C2666 0.960 . S
H2679 C2666 0.962 . S
H2680 C2666 0.960 . S
H2681 C2667 0.961 . S
H2682 C2667 0.961 . S
H2683 C2667 0.961 . S
H2684 C2668 0.931 1_655 S
H2685 C2673 0.930 . S
H2686 C2674 0.956 1_655 S
H2687 C2674 0.961 . S
H2688 C2674 0.961 1_655 S
H2689 C2675 0.958 . S
H2690 C2675 0.961 . S
H2691 C2675 0.960 . S
C2692 C2693 1.391 . S
C2692 C2694 1.394 . S
C2692 H2708 0.931 . S
C2693 C2692 1.391 . S
C2693 C2697 1.376 . S
C2694 C2692 1.394 . S
C2694 C2695 1.369 . S
C2694 C2698 1.531 . S
C2695 C2694 1.369 . S
C2695 C2696 1.410 . S
C2695 C2703 1.503 . S
C2696 C2695 1.410 . S
C2696 C2697 1.392 . S
C2696 C2699 1.511 . S
C2697 C2693 1.376 . S
C2697 C2696 1.392 . S
C2697 H2709 0.929 . S
C2698 C2694 1.531 . S
C2698 H2710 0.960 . S
C2698 H2711 0.962 . S
C2698 H2712 0.960 . S
C2699 C2696 1.511 . S
C2699 H2713 0.961 . S
C2699 H2714 0.961 . S
C2699 H2715 0.961 . S
C2700 C2701 1.370 . S
C2700 C2702 1.363 . S
C2700 H2716 0.931 . S
C2701 C2700 1.370 . S
C2701 C2705 1.408 . S
C2702 C2700 1.363 . S
C2702 C2703 1.370 . S
C2702 C2706 1.524 . S
C2703 C2695 1.503 . S
C2703 C2702 1.370 . S
C2703 C2704 1.403 . S
C2704 C2703 1.403 . S
C2704 C2705 1.404 . S
C2704 C2707 1.539 . S
C2705 C2701 1.408 . S
C2705 C2704 1.404 . S
C2705 H2717 0.930 . S
C2706 C2702 1.524 . S
C2706 H2718 0.956 . S
C2706 H2719 0.961 . S
C2706 H2720 0.961 . S
C2707 C2704 1.539 . S
C2707 H2721 0.958 . S
C2707 H2722 0.961 . S
C2707 H2723 0.960 . S
H2708 C2692 0.931 . S
H2709 C2697 0.929 . S
H2710 C2698 0.960 . S
H2711 C2698 0.962 . S
H2712 C2698 0.960 . S
H2713 C2699 0.961 . S
H2714 C2699 0.961 . S
H2715 C2699 0.961 . S
H2716 C2700 0.931 . S
H2717 C2705 0.930 . S
H2718 C2706 0.956 . S
H2719 C2706 0.961 . S
H2720 C2706 0.961 . S
H2721 C2707 0.958 . S
H2722 C2707 0.961 . S
H2723 C2707 0.960 . S
C2724 C2725 1.391 . S
C2724 C2726 1.394 . S
C2724 H2740 0.931 . S
C2725 C2724 1.391 . S
C2725 C2729 1.376 . S
C2726 C2724 1.394 . S
C2726 C2727 1.369 . S
C2726 C2730 1.531 . S
C2727 C2726 1.369 . S
C2727 C2728 1.410 . S
C2727 C2735 1.503 . S
C2728 C2727 1.410 . S
C2728 C2729 1.392 . S
C2728 C2731 1.511 1_655 S
C2729 C2725 1.376 . S
C2729 C2728 1.392 . S
C2729 H2741 0.929 . S
C2730 C2726 1.531 . S
C2730 H2742 0.960 . S
C2730 H2743 0.962 . S
C2730 H2744 0.960 . S
C2731 C2728 1.511 1_455 S
C2731 H2745 0.961 . S
C2731 H2746 0.961 . S
C2731 H2747 0.961 . S
C2732 C2733 1.370 . S
C2732 C2734 1.363 . S
C2732 H2748 0.931 . S
C2733 C2732 1.370 . S
C2733 C2737 1.408 . S
C2734 C2732 1.363 . S
C2734 C2735 1.370 . S
C2734 C2738 1.524 . S
C2735 C2727 1.503 . S
C2735 C2734 1.370 . S
C2735 C2736 1.403 . S
C2736 C2735 1.403 . S
C2736 C2737 1.404 . S
C2736 C2739 1.539 . S
C2737 C2733 1.408 . S
C2737 C2736 1.404 . S
C2737 H2749 0.930 . S
C2738 C2734 1.524 . S
C2738 H2750 0.956 . S
C2738 H2751 0.961 . S
C2738 H2752 0.961 . S
C2739 C2736 1.539 . S
C2739 H2753 0.958 . S
C2739 H2754 0.961 . S
C2739 H2755 0.960 . S
H2740 C2724 0.931 . S
H2741 C2729 0.929 . S
H2742 C2730 0.960 . S
H2743 C2730 0.962 . S
H2744 C2730 0.960 . S
H2745 C2731 0.961 . S
H2746 C2731 0.961 . S
H2747 C2731 0.961 . S
H2748 C2732 0.931 . S
H2749 C2737 0.930 . S
H2750 C2738 0.956 . S
H2751 C2738 0.961 . S
H2752 C2738 0.961 . S
H2753 C2739 0.958 . S
H2754 C2739 0.961 . S
H2755 C2739 0.960 . S
C2756 C2757 1.391 . S
C2756 C2758 1.394 . S
C2756 H2772 0.931 . S
C2757 C2756 1.391 . S
C2757 C2761 1.376 . S
C2758 C2756 1.394 . S
C2758 C2759 1.369 . S
C2758 C2762 1.531 . S
C2759 C2758 1.369 . S
C2759 C2760 1.410 . S
C2759 C2767 1.503 . S
C2760 C2759 1.410 . S
C2760 C2761 1.392 . S
C2760 C2763 1.511 . S
C2761 C2757 1.376 . S
C2761 C2760 1.392 . S
C2761 H2773 0.929 . S
C2762 C2758 1.531 . S
C2762 H2774 0.960 . S
C2762 H2775 0.962 . S
C2762 H2776 0.960 . S
C2763 C2760 1.511 . S
C2763 H2777 0.961 . S
C2763 H2778 0.961 . S
C2763 H2779 0.961 . S
C2764 C2765 1.370 . S
C2764 C2766 1.363 . S
C2764 H2780 0.931 . S
C2765 C2764 1.370 . S
C2765 C2769 1.408 . S
C2766 C2764 1.363 . S
C2766 C2767 1.370 . S
C2766 C2770 1.524 . S
C2767 C2759 1.503 . S
C2767 C2766 1.370 . S
C2767 C2768 1.403 . S
C2768 C2767 1.403 . S
C2768 C2769 1.404 . S
C2768 C2771 1.539 . S
C2769 C2765 1.408 . S
C2769 C2768 1.404 . S
C2769 H2781 0.930 . S
C2770 C2766 1.524 . S
C2770 H2782 0.956 . S
C2770 H2783 0.961 . S
C2770 H2784 0.961 . S
C2771 C2768 1.539 . S
C2771 H2785 0.958 . S
C2771 H2786 0.961 . S
C2771 H2787 0.960 . S
H2772 C2756 0.931 . S
H2773 C2761 0.929 . S
H2774 C2762 0.960 . S
H2775 C2762 0.962 . S
H2776 C2762 0.960 . S
H2777 C2763 0.961 . S
H2778 C2763 0.961 . S
H2779 C2763 0.961 . S
H2780 C2764 0.931 . S
H2781 C2769 0.930 . S
H2782 C2770 0.956 . S
H2783 C2770 0.961 . S
H2784 C2770 0.961 . S
H2785 C2771 0.958 . S
H2786 C2771 0.961 . S
H2787 C2771 0.960 . S
C2788 C2789 1.391 . S
C2788 C2790 1.394 . S
C2788 H2804 0.931 . S
C2789 C2788 1.391 . S
C2789 C2793 1.376 . S
C2790 C2788 1.394 . S
C2790 C2791 1.369 . S
C2790 C2794 1.531 . S
C2791 C2790 1.369 . S
C2791 C2792 1.410 . S
C2791 C2799 1.503 . S
C2792 C2791 1.410 . S
C2792 C2793 1.392 . S
C2792 C2795 1.511 . S
C2793 C2789 1.376 . S
C2793 C2792 1.392 . S
C2793 H2805 0.929 . S
C2794 C2790 1.531 . S
C2794 H2806 0.960 . S
C2794 H2807 0.962 . S
C2794 H2808 0.960 . S
C2795 C2792 1.511 . S
C2795 H2809 0.961 . S
C2795 H2810 0.961 . S
C2795 H2811 0.961 . S
C2796 C2797 1.370 . S
C2796 C2798 1.363 . S
C2796 H2812 0.931 . S
C2797 C2796 1.370 . S
C2797 C2801 1.408 . S
C2798 C2796 1.363 . S
C2798 C2799 1.370 . S
C2798 C2802 1.524 . S
C2799 C2791 1.503 . S
C2799 C2798 1.370 . S
C2799 C2800 1.403 . S
C2800 C2799 1.403 . S
C2800 C2801 1.404 . S
C2800 C2803 1.539 . S
C2801 C2797 1.408 . S
C2801 C2800 1.404 . S
C2801 H2813 0.930 . S
C2802 C2798 1.524 . S
C2802 H2814 0.956 . S
C2802 H2815 0.961 . S
C2802 H2816 0.914 1_545 S
C2803 C2800 1.539 . S
C2803 H2817 0.958 . S
C2803 H2818 0.961 . S
C2803 H2819 0.960 . S
H2804 C2788 0.931 . S
H2805 C2793 0.929 . S
H2806 C2794 0.960 . S
H2807 C2794 0.962 . S
H2808 C2794 0.960 . S
H2809 C2795 0.961 . S
H2810 C2795 0.961 . S
H2811 C2795 0.961 . S
H2812 C2796 0.931 . S
H2813 C2801 0.930 . S
H2814 C2802 0.956 . S
H2815 C2802 0.961 . S
H2816 C2802 0.914 1_565 S
H2817 C2803 0.958 . S
H2818 C2803 0.961 . S
H2819 C2803 0.960 . S
C2820 C2821 1.391 . S
C2820 C2822 1.394 . S
C2820 H2836 0.931 . S
C2821 C2820 1.391 . S
C2821 C2825 1.376 . S
C2822 C2820 1.394 . S
C2822 C2823 1.369 . S
C2822 C2826 1.531 . S
C2823 C2822 1.369 . S
C2823 C2824 1.410 . S
C2823 C2831 1.503 . S
C2824 C2823 1.410 . S
C2824 C2825 1.392 . S
C2824 C2827 1.511 . S
C2825 C2821 1.376 . S
C2825 C2824 1.392 . S
C2825 H2837 0.929 . S
C2826 C2822 1.531 . S
C2826 H2838 0.960 . S
C2826 H2839 0.962 . S
C2826 H2840 0.960 . S
C2827 C2824 1.511 . S
C2827 H2841 0.961 . S
C2827 H2842 0.961 . S
C2827 H2843 0.961 . S
C2828 C2829 1.370 . S
C2828 C2830 1.363 . S
C2828 H2844 0.931 . S
C2829 C2828 1.370 . S
C2829 C2833 1.408 . S
C2830 C2828 1.363 . S
C2830 C2831 1.370 . S
C2830 C2834 1.524 . S
C2831 C2823 1.503 . S
C2831 C2830 1.370 . S
C2831 C2832 1.403 . S
C2832 C2831 1.403 . S
C2832 C2833 1.404 . S
C2832 C2835 1.539 . S
C2833 C2829 1.408 . S
C2833 C2832 1.404 . S
C2833 H2845 0.930 . S
C2834 C2830 1.524 . S
C2834 H2846 0.956 . S
C2834 H2847 0.961 . S
C2834 H2848 0.961 . S
C2835 C2832 1.539 . S
C2835 H2849 0.958 . S
C2835 H2850 0.961 . S
C2835 H2851 0.960 . S
H2836 C2820 0.931 . S
H2837 C2825 0.929 . S
H2838 C2826 0.960 . S
H2839 C2826 0.962 . S
H2840 C2826 0.960 . S
H2841 C2827 0.961 . S
H2842 C2827 0.961 . S
H2843 C2827 0.961 . S
H2844 C2828 0.931 . S
H2845 C2833 0.930 . S
H2846 C2834 0.956 . S
H2847 C2834 0.961 . S
H2848 C2834 0.961 . S
H2849 C2835 0.958 . S
H2850 C2835 0.961 . S
H2851 C2835 0.960 . S
C2852 C2853 1.391 . S
C2852 C2854 1.394 . S
C2852 H2868 0.931 . S
C2853 C2852 1.391 . S
C2853 C2857 1.376 . S
C2854 C2852 1.394 . S
C2854 C2855 1.369 . S
C2854 C2858 1.531 . S
C2855 C2854 1.369 . S
C2855 C2856 1.410 . S
C2855 C2863 1.503 . S
C2856 C2855 1.410 . S
C2856 C2857 1.392 . S
C2856 C2859 1.511 . S
C2857 C2853 1.376 . S
C2857 C2856 1.392 . S
C2857 H2869 0.929 . S
C2858 C2854 1.531 . S
C2858 H2870 0.960 . S
C2858 H2871 0.962 . S
C2858 H2872 0.960 . S
C2859 C2856 1.511 . S
C2859 H2873 0.961 . S
C2859 H2874 0.961 . S
C2859 H2875 0.961 . S
C2860 C2861 1.370 . S
C2860 C2862 1.363 . S
C2860 H2876 0.931 . S
C2861 C2860 1.370 . S
C2861 C2865 1.408 . S
C2862 C2860 1.363 . S
C2862 C2863 1.370 . S
C2862 C2866 1.524 . S
C2863 C2855 1.503 . S
C2863 C2862 1.370 . S
C2863 C2864 1.403 . S
C2864 C2863 1.403 . S
C2864 C2865 1.404 . S
C2864 C2867 1.539 . S
C2865 C2861 1.408 . S
C2865 C2864 1.404 . S
C2865 H2877 0.930 . S
C2866 C2862 1.524 . S
C2866 H2878 0.956 . S
C2866 H2879 0.961 . S
C2866 H2880 0.961 . S
C2867 C2864 1.539 . S
C2867 H2881 0.958 . S
C2867 H2882 0.961 . S
C2867 H2883 0.960 . S
H2868 C2852 0.931 . S
H2869 C2857 0.929 . S
H2870 C2858 0.960 . S
H2871 C2858 0.962 . S
H2872 C2858 0.960 . S
H2873 C2859 0.961 . S
H2874 C2859 0.961 . S
H2875 C2859 0.961 . S
H2876 C2860 0.931 . S
H2877 C2865 0.930 . S
H2878 C2866 0.956 . S
H2879 C2866 0.961 . S
H2880 C2866 0.961 . S
H2881 C2867 0.958 . S
H2882 C2867 0.961 . S
H2883 C2867 0.960 . S
C2884 C2885 1.391 . S
C2884 C2886 1.394 . S
C2884 H2900 0.931 . S
C2885 C2884 1.391 . S
C2885 C2889 1.376 . S
C2886 C2884 1.394 . S
C2886 C2887 1.369 . S
C2886 C2890 1.531 . S
C2887 C2886 1.369 . S
C2887 C2888 1.410 . S
C2887 C2895 1.503 . S
C2888 C2887 1.410 . S
C2888 C2889 1.392 . S
C2888 C2891 1.511 . S
C2889 C2885 1.376 . S
C2889 C2888 1.392 . S
C2889 H2901 0.929 . S
C2890 C2886 1.531 . S
C2890 H2902 0.960 . S
C2890 H2903 0.962 . S
C2890 H2904 0.960 . S
C2891 C2888 1.511 . S
C2891 H2905 0.961 . S
C2891 H2906 0.961 . S
C2891 H2907 0.961 . S
C2892 C2893 1.370 . S
C2892 C2894 1.363 . S
C2892 H2908 0.931 . S
C2893 C2892 1.370 . S
C2893 C2897 1.408 . S
C2894 C2892 1.363 . S
C2894 C2895 1.370 . S
C2894 C2898 1.524 . S
C2895 C2887 1.503 . S
C2895 C2894 1.370 . S
C2895 C2896 1.403 . S
C2896 C2895 1.403 . S
C2896 C2897 1.404 . S
C2896 C2899 1.539 . S
C2897 C2893 1.408 . S
C2897 C2896 1.404 . S
C2897 H2909 0.930 . S
C2898 C2894 1.524 . S
C2898 H2910 0.956 . S
C2898 H2911 0.961 . S
C2898 H2912 0.961 . S
C2899 C2896 1.539 . S
C2899 H2913 0.958 . S
C2899 H2914 0.961 . S
C2899 H2915 0.960 . S
H2900 C2884 0.931 . S
H2901 C2889 0.929 . S
H2902 C2890 0.960 . S
H2903 C2890 0.962 . S
H2904 C2890 0.960 . S
H2905 C2891 0.961 . S
H2906 C2891 0.961 . S
H2907 C2891 0.961 . S
H2908 C2892 0.931 . S
H2909 C2897 0.930 . S
H2910 C2898 0.956 . S
H2911 C2898 0.961 . S
H2912 C2898 0.961 . S
H2913 C2899 0.958 . S
H2914 C2899 0.961 . S
H2915 C2899 0.960 . S
C2916 C2917 1.391 . S
C2916 C2918 1.394 . S
C2916 H2932 0.931 . S
C2917 C2916 1.391 . S
C2917 C2921 1.376 . S
C2918 C2916 1.394 . S
C2918 C2919 1.369 . S
C2918 C2922 1.531 . S
C2919 C2918 1.369 . S
C2919 C2920 1.410 . S
C2919 C2927 1.503 . S
C2920 C2919 1.410 . S
C2920 C2921 1.392 . S
C2920 C2923 1.511 . S
C2921 C2917 1.376 . S
C2921 C2920 1.392 . S
C2921 H2933 0.929 . S
C2922 C2918 1.531 . S
C2922 H2934 0.960 . S
C2922 H2935 0.962 . S
C2922 H2936 0.960 . S
C2923 C2920 1.511 . S
C2923 H2937 0.961 . S
C2923 H2938 0.961 . S
C2923 H2939 0.961 . S
C2924 C2925 1.370 . S
C2924 C2926 1.363 . S
C2924 H2940 0.931 . S
C2925 C2924 1.370 . S
C2925 C2929 1.408 . S
C2926 C2924 1.363 . S
C2926 C2927 1.370 . S
C2926 C2930 1.524 . S
C2927 C2919 1.503 . S
C2927 C2926 1.370 . S
C2927 C2928 1.403 . S
C2928 C2927 1.403 . S
C2928 C2929 1.404 . S
C2928 C2931 1.539 . S
C2929 C2925 1.408 . S
C2929 C2928 1.404 . S
C2929 H2941 0.930 . S
C2930 C2926 1.524 . S
C2930 H2942 0.956 . S
C2930 H2943 0.961 . S
C2930 H2944 0.961 . S
C2931 C2928 1.539 . S
C2931 H2945 0.958 . S
C2931 H2946 0.961 . S
C2931 H2947 0.960 . S
H2932 C2916 0.931 . S
H2933 C2921 0.929 . S
H2934 C2922 0.960 . S
H2935 C2922 0.962 . S
H2936 C2922 0.960 . S
H2937 C2923 0.961 . S
H2938 C2923 0.961 . S
H2939 C2923 0.961 . S
H2940 C2924 0.931 . S
H2941 C2929 0.930 . S
H2942 C2930 0.956 . S
H2943 C2930 0.961 . S
H2944 C2930 0.961 . S
H2945 C2931 0.958 . S
H2946 C2931 0.961 . S
H2947 C2931 0.960 . S
C2948 C2949 1.391 . S
C2948 C2950 1.394 . S
C2948 H2964 0.931 . S
C2949 C2948 1.391 . S
C2949 C2953 1.376 . S
C2950 C2948 1.394 . S
C2950 C2951 1.369 . S
C2950 C2954 1.531 . S
C2951 C2950 1.369 . S
C2951 C2952 1.410 . S
C2951 C2959 1.503 . S
C2952 C2951 1.410 . S
C2952 C2953 1.392 . S
C2952 C2955 1.511 . S
C2953 C2949 1.376 . S
C2953 C2952 1.392 . S
C2953 H2965 0.929 . S
C2954 C2950 1.531 . S
C2954 H2966 0.960 . S
C2954 H2967 0.962 . S
C2954 H2968 0.960 . S
C2955 C2952 1.511 . S
C2955 H2969 0.961 . S
C2955 H2970 0.961 . S
C2955 H2971 0.961 . S
C2956 C2957 1.370 . S
C2956 C2958 1.363 . S
C2956 H2972 0.931 . S
C2957 C2956 1.370 . S
C2957 C2961 1.408 . S
C2958 C2956 1.363 . S
C2958 C2959 1.370 . S
C2958 C2962 1.524 . S
C2959 C2951 1.503 . S
C2959 C2958 1.370 . S
C2959 C2960 1.403 . S
C2960 C2959 1.403 . S
C2960 C2961 1.404 . S
C2960 C2963 1.539 . S
C2961 C2957 1.408 . S
C2961 C2960 1.404 . S
C2961 H2973 0.930 . S
C2962 C2958 1.524 . S
C2962 H2974 0.956 . S
C2962 H2975 0.961 . S
C2962 H2976 0.961 . S
C2963 C2960 1.539 . S
C2963 H2977 0.958 . S
C2963 H2978 0.961 . S
C2963 H2979 0.960 . S
H2964 C2948 0.931 . S
H2965 C2953 0.929 . S
H2966 C2954 0.960 . S
H2967 C2954 0.962 . S
H2968 C2954 0.960 . S
H2969 C2955 0.961 . S
H2970 C2955 0.961 . S
H2971 C2955 0.961 . S
H2972 C2956 0.931 . S
H2973 C2961 0.930 . S
H2974 C2962 0.956 . S
H2975 C2962 0.961 . S
H2976 C2962 0.961 . S
H2977 C2963 0.958 . S
H2978 C2963 0.961 . S
H2979 C2963 0.960 . S
C2980 C2981 1.391 . S
C2980 C2982 1.394 . S
C2980 H2996 0.931 . S
C2981 C2980 1.391 . S
C2981 C2985 1.376 . S
C2982 C2980 1.394 . S
C2982 C2983 1.369 . S
C2982 C2986 1.531 . S
C2983 C2982 1.369 . S
C2983 C2984 1.410 . S
C2983 C2991 1.503 . S
C2984 C2983 1.410 . S
C2984 C2985 1.392 . S
C2984 C2987 1.511 . S
C2985 C2981 1.376 . S
C2985 C2984 1.392 . S
C2985 H2997 0.929 . S
C2986 C2982 1.531 . S
C2986 H2998 0.960 . S
C2986 H2999 0.962 . S
C2986 H3000 0.960 . S
C2987 C2984 1.511 . S
C2987 H3001 0.961 . S
C2987 H3002 0.961 . S
C2987 H3003 0.961 . S
C2988 C2989 1.370 . S
C2988 C2990 1.363 . S
C2988 H3004 0.931 . S
C2989 C2988 1.370 . S
C2989 C2993 1.408 . S
C2990 C2988 1.363 . S
C2990 C2991 1.370 . S
C2990 C2994 1.524 . S
C2991 C2983 1.503 . S
C2991 C2990 1.370 . S
C2991 C2992 1.403 . S
C2992 C2991 1.403 . S
C2992 C2993 1.404 . S
C2992 C2995 1.539 . S
C2993 C2989 1.408 . S
C2993 C2992 1.404 . S
C2993 H3005 0.930 . S
C2994 C2990 1.524 . S
C2994 H3006 0.956 . S
C2994 H3007 0.961 . S
C2994 H3008 0.961 . S
C2995 C2992 1.539 . S
C2995 H3009 0.958 . S
C2995 H3010 0.961 . S
C2995 H3011 0.960 . S
H2996 C2980 0.931 . S
H2997 C2985 0.929 . S
H2998 C2986 0.960 . S
H2999 C2986 0.962 . S
H3000 C2986 0.960 . S
H3001 C2987 0.961 . S
H3002 C2987 0.961 . S
H3003 C2987 0.961 . S
H3004 C2988 0.931 . S
H3005 C2993 0.930 . S
H3006 C2994 0.956 . S
H3007 C2994 0.961 . S
H3008 C2994 0.961 . S
H3009 C2995 0.958 . S
H3010 C2995 0.961 . S
H3011 C2995 0.960 . S
C3012 C3013 1.391 . S
C3012 C3014 1.394 . S
C3012 H3028 0.931 . S
C3013 C3012 1.391 . S
C3013 C3017 1.376 . S
C3014 C3012 1.394 . S
C3014 C3015 1.369 . S
C3014 C3018 1.531 . S
C3015 C3014 1.369 . S
C3015 C3016 1.410 . S
C3015 C3023 1.503 . S
C3016 C3015 1.410 . S
C3016 C3017 1.392 . S
C3016 C3019 1.511 . S
C3017 C3013 1.376 . S
C3017 C3016 1.392 . S
C3017 H3029 0.929 . S
C3018 C3014 1.531 . S
C3018 H3030 0.960 . S
C3018 H3031 0.962 . S
C3018 H3032 0.960 . S
C3019 C3016 1.511 . S
C3019 H3033 0.961 . S
C3019 H3034 0.961 . S
C3019 H3035 0.961 . S
C3020 C3021 1.370 . S
C3020 C3022 1.363 . S
C3020 H3036 0.931 . S
C3021 C3020 1.370 . S
C3021 C3025 1.408 . S
C3022 C3020 1.363 . S
C3022 C3023 1.370 . S
C3022 C3026 1.524 . S
C3023 C3015 1.503 . S
C3023 C3022 1.370 . S
C3023 C3024 1.403 . S
C3024 C3023 1.403 . S
C3024 C3025 1.404 . S
C3024 C3027 1.539 . S
C3025 C3021 1.408 . S
C3025 C3024 1.404 . S
C3025 H3037 0.930 . S
C3026 C3022 1.524 . S
C3026 H3038 0.956 . S
C3026 H3039 0.961 . S
C3026 H3040 0.961 . S
C3027 C3024 1.539 . S
C3027 H3041 0.958 . S
C3027 H3042 0.961 . S
C3027 H3043 0.960 . S
H3028 C3012 0.931 . S
H3029 C3017 0.929 . S
H3030 C3018 0.960 . S
H3031 C3018 0.962 . S
H3032 C3018 0.960 . S
H3033 C3019 0.961 . S
H3034 C3019 0.961 . S
H3035 C3019 0.961 . S
H3036 C3020 0.931 . S
H3037 C3025 0.930 . S
H3038 C3026 0.956 . S
H3039 C3026 0.961 . S
H3040 C3026 0.961 . S
H3041 C3027 0.958 . S
H3042 C3027 0.961 . S
H3043 C3027 0.960 . S
C3044 C3045 1.391 . S
C3044 C3046 1.394 . S
C3044 H3060 0.931 . S
C3045 C3044 1.391 . S
C3045 C3049 1.376 . S
C3046 C3044 1.394 . S
C3046 C3047 1.369 . S
C3046 C3050 1.531 . S
C3047 C3046 1.369 . S
C3047 C3048 1.410 . S
C3047 C3055 1.503 . S
C3048 C3047 1.410 . S
C3048 C3049 1.392 . S
C3048 C3051 1.511 . S
C3049 C3045 1.376 . S
C3049 C3048 1.392 . S
C3049 H3061 0.929 . S
C3050 C3046 1.531 . S
C3050 H3062 0.960 . S
C3050 H3063 0.962 . S
C3050 H3064 0.960 . S
C3051 C3048 1.511 . S
C3051 H3065 0.961 . S
C3051 H3066 0.961 . S
C3051 H3067 0.961 . S
C3052 C3053 1.370 . S
C3052 C3054 1.363 . S
C3052 H3068 0.931 . S
C3053 C3052 1.370 . S
C3053 C3057 1.408 . S
C3054 C3052 1.363 . S
C3054 C3055 1.370 . S
C3054 C3058 1.524 . S
C3055 C3047 1.503 . S
C3055 C3054 1.370 . S
C3055 C3056 1.403 . S
C3056 C3055 1.403 . S
C3056 C3057 1.404 . S
C3056 C3059 1.539 . S
C3057 C3053 1.408 . S
C3057 C3056 1.404 . S
C3057 H3069 0.930 . S
C3058 C3054 1.524 . S
C3058 H3070 0.956 . S
C3058 H3071 0.961 . S
C3058 H3072 0.961 . S
C3059 C3056 1.539 . S
C3059 H3073 0.958 . S
C3059 H3074 0.961 . S
C3059 H3075 0.960 . S
H3060 C3044 0.931 . S
H3061 C3049 0.929 . S
H3062 C3050 0.960 . S
H3063 C3050 0.962 . S
H3064 C3050 0.960 . S
H3065 C3051 0.961 . S
H3066 C3051 0.961 . S
H3067 C3051 0.961 . S
H3068 C3052 0.931 . S
H3069 C3057 0.930 . S
H3070 C3058 0.956 . S
H3071 C3058 0.961 . S
H3072 C3058 0.961 . S
H3073 C3059 0.958 . S
H3074 C3059 0.961 . S
H3075 C3059 0.960 . S
C3076 C3077 1.391 . S
C3076 C3078 1.394 . S
C3076 H3092 0.931 . S
C3077 C3076 1.391 . S
C3077 C3081 1.376 . S
C3078 C3076 1.394 . S
C3078 C3079 1.369 . S
C3078 C3082 1.531 . S
C3079 C3078 1.369 . S
C3079 C3080 1.410 . S
C3079 C3087 1.503 . S
C3080 C3079 1.410 . S
C3080 C3081 1.392 . S
C3080 C3083 1.511 . S
C3081 C3077 1.376 . S
C3081 C3080 1.392 . S
C3081 H3093 0.929 . S
C3082 C3078 1.531 . S
C3082 H3094 0.960 . S
C3082 H3095 0.962 . S
C3082 H3096 0.960 . S
C3083 C3080 1.511 . S
C3083 H3097 0.961 . S
C3083 H3098 0.961 . S
C3083 H3099 0.961 . S
C3084 C3085 1.370 . S
C3084 C3086 1.363 . S
C3084 H3100 0.931 . S
C3085 C3084 1.370 . S
C3085 C3089 1.408 . S
C3086 C3084 1.363 . S
C3086 C3087 1.370 . S
C3086 C3090 1.524 . S
C3087 C3079 1.503 . S
C3087 C3086 1.370 . S
C3087 C3088 1.403 . S
C3088 C3087 1.403 . S
C3088 C3089 1.404 . S
C3088 C3091 1.539 . S
C3089 C3085 1.408 . S
C3089 C3088 1.404 . S
C3089 H3101 0.930 . S
C3090 C3086 1.524 . S
C3090 H3102 0.956 . S
C3090 H3103 0.961 . S
C3090 H3104 0.961 . S
C3091 C3088 1.539 . S
C3091 H3105 0.958 . S
C3091 H3106 0.961 . S
C3091 H3107 0.960 . S
H3092 C3076 0.931 . S
H3093 C3081 0.929 . S
H3094 C3082 0.960 . S
H3095 C3082 0.962 . S
H3096 C3082 0.960 . S
H3097 C3083 0.961 . S
H3098 C3083 0.961 . S
H3099 C3083 0.961 . S
H3100 C3084 0.931 . S
H3101 C3089 0.930 . S
H3102 C3090 0.956 . S
H3103 C3090 0.961 . S
H3104 C3090 0.961 . S
H3105 C3091 0.958 . S
H3106 C3091 0.961 . S
H3107 C3091 0.960 . S
C3108 C3109 1.391 . S
C3108 C3110 1.394 . S
C3108 H3124 0.931 . S
C3109 C3108 1.391 . S
C3109 C3113 1.376 . S
C3110 C3108 1.394 . S
C3110 C3111 1.369 . S
C3110 C3114 1.531 . S
C3111 C3110 1.369 . S
C3111 C3112 1.410 . S
C3111 C3119 1.503 . S
C3112 C3111 1.410 . S
C3112 C3113 1.392 . S
C3112 C3115 1.511 . S
C3113 C3109 1.376 . S
C3113 C3112 1.392 . S
C3113 H3125 0.929 . S
C3114 C3110 1.531 . S
C3114 H3126 0.960 . S
C3114 H3127 0.962 . S
C3114 H3128 0.960 . S
C3115 C3112 1.511 . S
C3115 H3129 0.961 . S
C3115 H3130 0.961 . S
C3115 H3131 0.961 . S
C3116 C3117 1.370 . S
C3116 C3118 1.363 . S
C3116 H3132 0.931 . S
C3117 C3116 1.370 . S
C3117 C3121 1.408 . S
C3118 C3116 1.363 . S
C3118 C3119 1.370 . S
C3118 C3122 1.524 . S
C3119 C3111 1.503 . S
C3119 C3118 1.370 . S
C3119 C3120 1.403 . S
C3120 C3119 1.403 . S
C3120 C3121 1.404 . S
C3120 C3123 1.539 . S
C3121 C3117 1.408 . S
C3121 C3120 1.404 . S
C3121 H3133 0.930 . S
C3122 C3118 1.524 . S
C3122 H3134 0.956 . S
C3122 H3135 0.961 . S
C3122 H3136 0.961 . S
C3123 C3120 1.539 . S
C3123 H3137 0.958 . S
C3123 H3138 0.961 . S
C3123 H3139 0.960 . S
H3124 C3108 0.931 . S
H3125 C3113 0.929 . S
H3126 C3114 0.960 . S
H3127 C3114 0.962 . S
H3128 C3114 0.960 . S
H3129 C3115 0.961 . S
H3130 C3115 0.961 . S
H3131 C3115 0.961 . S
H3132 C3116 0.931 . S
H3133 C3121 0.930 . S
H3134 C3122 0.956 . S
H3135 C3122 0.961 . S
H3136 C3122 0.961 . S
H3137 C3123 0.958 . S
H3138 C3123 0.961 . S
H3139 C3123 0.960 . S
C3140 C3141 1.391 . S
C3140 C3142 1.394 . S
C3140 H3156 0.931 . S
C3141 C3140 1.391 . S
C3141 C3145 1.376 . S
C3142 C3140 1.394 . S
C3142 C3143 1.369 . S
C3142 C3146 1.531 . S
C3143 C3142 1.369 . S
C3143 C3144 1.410 . S
C3143 C3151 1.503 . S
C3144 C3143 1.410 . S
C3144 C3145 1.392 . S
C3144 C3147 1.511 . S
C3145 C3141 1.376 . S
C3145 C3144 1.392 . S
C3145 H3157 0.929 . S
C3146 C3142 1.531 . S
C3146 H3158 0.960 . S
C3146 H3159 0.962 . S
C3146 H3160 0.960 . S
C3147 C3144 1.511 . S
C3147 H3161 0.961 . S
C3147 H3162 0.961 . S
C3147 H3163 0.961 . S
C3148 C3149 1.370 . S
C3148 C3150 1.363 . S
C3148 H3164 0.931 . S
C3149 C3148 1.370 . S
C3149 C3153 1.408 . S
C3150 C3148 1.363 . S
C3150 C3151 1.370 . S
C3150 C3154 1.524 . S
C3151 C3143 1.503 . S
C3151 C3150 1.370 . S
C3151 C3152 1.403 . S
C3152 C3151 1.403 . S
C3152 C3153 1.404 . S
C3152 C3155 1.539 . S
C3153 C3149 1.408 . S
C3153 C3152 1.404 . S
C3153 H3165 0.930 . S
C3154 C3150 1.524 . S
C3154 H3166 0.956 . S
C3154 H3167 0.961 . S
C3154 H3168 0.961 . S
C3155 C3152 1.539 . S
C3155 H3169 0.958 . S
C3155 H3170 0.961 . S
C3155 H3171 0.960 . S
H3156 C3140 0.931 . S
H3157 C3145 0.929 . S
H3158 C3146 0.960 . S
H3159 C3146 0.962 . S
H3160 C3146 0.960 . S
H3161 C3147 0.961 . S
H3162 C3147 0.961 . S
H3163 C3147 0.961 . S
H3164 C3148 0.931 . S
H3165 C3153 0.930 . S
H3166 C3154 0.956 . S
H3167 C3154 0.961 . S
H3168 C3154 0.961 . S
H3169 C3155 0.958 . S
H3170 C3155 0.961 . S
H3171 C3155 0.960 . S
C3172 C3173 1.391 . S
C3172 C3174 1.394 . S
C3172 H3188 0.931 . S
C3173 C3172 1.391 . S
C3173 C3177 1.376 . S
C3174 C3172 1.394 . S
C3174 C3175 1.369 . S
C3174 C3178 1.531 . S
C3175 C3174 1.369 . S
C3175 C3176 1.410 . S
C3175 C3183 1.503 . S
C3176 C3175 1.410 . S
C3176 C3177 1.392 . S
C3176 C3179 1.511 . S
C3177 C3173 1.376 . S
C3177 C3176 1.392 . S
C3177 H3189 0.929 . S
C3178 C3174 1.531 . S
C3178 H3190 0.960 . S
C3178 H3191 0.962 . S
C3178 H3192 0.960 . S
C3179 C3176 1.511 . S
C3179 H3193 0.961 . S
C3179 H3194 0.961 . S
C3179 H3195 0.961 . S
C3180 C3181 1.370 . S
C3180 C3182 1.363 . S
C3180 H3196 0.931 . S
C3181 C3180 1.370 . S
C3181 C3185 1.408 . S
C3182 C3180 1.363 . S
C3182 C3183 1.370 . S
C3182 C3186 1.524 . S
C3183 C3175 1.503 . S
C3183 C3182 1.370 . S
C3183 C3184 1.403 . S
C3184 C3183 1.403 . S
C3184 C3185 1.404 . S
C3184 C3187 1.539 . S
C3185 C3181 1.408 . S
C3185 C3184 1.404 . S
C3185 H3197 0.930 . S
C3186 C3182 1.524 . S
C3186 H3198 0.956 . S
C3186 H3199 0.961 . S
C3186 H3200 0.961 . S
C3187 C3184 1.539 . S
C3187 H3201 0.958 . S
C3187 H3202 0.961 . S
C3187 H3203 0.960 . S
H3188 C3172 0.931 . S
H3189 C3177 0.929 . S
H3190 C3178 0.960 . S
H3191 C3178 0.962 . S
H3192 C3178 0.960 . S
H3193 C3179 0.961 . S
H3194 C3179 0.961 . S
H3195 C3179 0.961 . S
H3196 C3180 0.931 . S
H3197 C3185 0.930 . S
H3198 C3186 0.956 . S
H3199 C3186 0.961 . S
H3200 C3186 0.961 . S
H3201 C3187 0.958 . S
H3202 C3187 0.961 . S
H3203 C3187 0.960 . S
C1477 C522 1.451 . S
C1485 C776 1.357 . S
C1509 C562 1.443 . S
C1517 C860 1.376 . S
C1541 C495 1.462 . S
C1549 C954 1.451 . S
C1573 C455 1.418 . S
C1581 C870 1.409 . S
C1613 C944 1.306 . S
C1605 C362 1.381 . S
C1637 C402 1.423 . S
C1645 C786 1.380 . S
C1677 C787 1.416 . S
C1669 C442 1.434 . S
C1709 C871 1.378 . S
C1701 C375 1.430 . S
C1733 C415 1.482 . S
C1741 C963 1.444 . S
C1765 C535 1.438 . S
C1773 C879 1.396 . S
C1797 C575 1.365 . S
C1805 C955 1.313 . S
C1837 C795 1.415 . S
C1829 C482 1.397 . S
C1869 C1028 1.390 . S
C1861 C42 1.445 1_455 S
C1893 C82 1.441 . S
C1901 C1112 1.383 . S
C1925 C15 1.493 . S
C1933 C1206 1.427 . S
C1957 C695 1.444 . S
C1965 C1122 1.384 . S
C1989 C602 1.380 . S
C1997 C1196 1.308 . S
C2021 C642 1.425 . S
C2029 C1038 1.390 . S
C2053 C682 1.441 . S
C2061 C1039 1.416 . S
C2085 C615 1.432 . S
C2093 C1123 1.356 . S
C2125 C1215 1.432 . S
C2117 C655 1.491 . S
C2149 C55 1.427 . S
C2157 C1131 1.396 . S
C2189 C1207 1.284 . S
C2181 C95 1.367 1_455 S
C2213 C2 1.429 . S
C2221 C1047 1.399 . S
C2253 C1280 1.388 . S
C2245 C282 1.443 . S
C2277 C322 1.443 . S
C2285 C1364 1.397 . S
C2317 C1458 1.452 . S
C2309 C255 1.462 . S
C2349 C1374 1.384 . S
C2341 C215 1.461 . S
C2381 C1448 1.315 . S
C2373 C122 1.377 1_655 S
C2405 C162 1.429 . S
C2413 C1290 1.391 . S
C2437 C202 1.445 1_655 S
C2445 C1291 1.383 . S
C2469 C135 1.420 . S
C2477 C1375 1.362 . S
C2509 C1467 1.427 . S
C2501 C175 1.488 . S
C2533 C295 1.423 . S
C2541 C1383 1.408 . S
C2565 C335 1.365 . S
C2573 C1459 1.280 . S
C2597 C242 1.445 . S
C2605 C1299 1.392 . S
C2629 C621 1.401 . S
C2637 C783 1.307 . S
C2669 C867 1.376 . S
C2661 C661 1.505 . S
C2693 C701 1.462 . S
C2701 C960 1.355 . S
C2725 C261 1.509 . S
C2733 C876 1.369 . S
C2757 C301 1.463 . S
C2765 C951 1.350 . S
C2797 C792 1.329 . S
C2789 C341 1.424 . S
C2821 C141 1.426 . S
C2829 C1035 1.325 . S
C2853 C181 1.488 . S
C2861 C1119 1.333 . S
C2885 C221 1.470 . S
C2893 C1212 1.356 . S
C2917 C501 1.517 . S
C2925 C1128 1.352 . S
C2957 C1203 1.313 . S
C2949 C541 1.449 . S
C2981 C581 1.423 . S
C2989 C1044 1.329 . S
C3013 C381 1.419 . S
C3021 C1287 1.312 . S
C3045 C421 1.505 . S
C3053 C1371 1.376 . S
C3085 C1464 1.359 . S
C3077 C461 1.468 . S
C3109 C21 1.489 . S
C3117 C1380 1.380 . S
C3141 C61 1.446 . S
C3149 C1455 1.318 . S
C3173 C101 1.395 . S
C3181 C1296 1.290 . S
