# Generated by pormake.
# Topology pth, (4,4)-cn, num edge types: 1
# Building blocks:
#     Node 0, Type 0, BuildingBlock: QUQFOY_clean_sbu_3, # of connection points: 4
#     Node 1, Type 0, BuildingBlock: QUQFOY_clean_sbu_3, # of connection points: 4
#     Node 2, Type 0, BuildingBlock: QUQFOY_clean_sbu_3, # of connection points: 4
#     Node 3, Type 1, BuildingBlock: MUDLON_clean_sbu_0, # of connection points: 4
#     Node 4, Type 1, BuildingBlock: MUDLON_clean_sbu_0, # of connection points: 4
#     Node 5, Type 1, BuildingBlock: MUDLON_clean_sbu_0, # of connection points: 4
#     Edge 6, Type (0, 1), BuildingBlock: ZUJKAS_clean_linker_0, # of connection points: 2
#     Edge 7, Type (0, 1), BuildingBlock: ZUJKAS_clean_linker_0, # of connection points: 2
#     Edge 8, Type (0, 1), BuildingBlock: ZUJKAS_clean_linker_0, # of connection points: 2
#     Edge 9, Type (0, 1), BuildingBlock: ZUJKAS_clean_linker_0, # of connection points: 2
#     Edge 10, Type (0, 1), BuildingBlock: ZUJKAS_clean_linker_0, # of connection points: 2
#     Edge 11, Type (0, 1), BuildingBlock: ZUJKAS_clean_linker_0, # of connection points: 2
#     Edge 12, Type (0, 1), BuildingBlock: ZUJKAS_clean_linker_0, # of connection points: 2
#     Edge 13, Type (0, 1), BuildingBlock: ZUJKAS_clean_linker_0, # of connection points: 2
#     Edge 14, Type (0, 1), BuildingBlock: ZUJKAS_clean_linker_0, # of connection points: 2
#     Edge 15, Type (0, 1), BuildingBlock: ZUJKAS_clean_linker_0, # of connection points: 2
#     Edge 16, Type (0, 1), BuildingBlock: ZUJKAS_clean_linker_0, # of connection points: 2
#     Edge 17, Type (0, 1), BuildingBlock: ZUJKAS_clean_linker_0, # of connection points: 2
# Relax obj value: 0.015
# Max RMSD: 0.071
# Mean RMSD: 0.054
data_MOF--net-pth--node1-QUQFOY_clean_sbu_3--node2-MUDLON_clean_sbu_0--edge1-ZUJKAS_clean_linker_0
_symmetry_space_group_name_H-M    P1
_symmetry_Int_Tables_number       1
_symmetry_cell_setting            triclinic
loop_
_symmetry_equiv_pos_as_xyz
'x, y, z'
_cell_length_a     29.514999
_cell_length_b     29.313306
_cell_length_c     80.364379
_cell_angle_alpha  90.08793
_cell_angle_beta   90.690973
_cell_angle_gamma 120.64681
loop_
_atom_site_label
_atom_site_type_symbol
_atom_site_fract_x
_atom_site_fract_y
_atom_site_fract_z
_atom_type_partial_charge
C0 C 0.05269 0.1968 0.11605 0.0
O1 O 0.02837 0.20147 0.10364 0.0
Cd2 Cd 0.00909 0.14939 0.07872 0.0
O3 O 0.06457 0.16063 0.11612 0.0
Cd4 Cd 0.05001 0.08466 0.09794 0.0
C5 C 0.13142 0.16933 0.06888 0.0
O6 O 0.96268 0.05688 0.0853 0.0
O7 O 0.00791 0.02612 0.07409 0.0
O8 O 0.01731 0.02745 0.12221 0.0
C9 C 0.96492 0.02593 0.0747 0.0
O10 O 0.09354 0.17727 0.06587 0.0
C11 C 0.04934 0.01076 0.12156 0.0
O12 O 0.12829 0.13851 0.08059 0.0
O13 O 0.08303 0.02924 0.11002 0.0
C14 C 0.14484 0.15129 0.45375 0.0
O15 O 0.16501 0.18303 0.44168 0.0
Cd16 Cd 0.11694 0.17547 0.41651 0.0
O17 O 0.09585 0.11633 0.45351 0.0
Cd18 Cd 0.01534 0.08844 0.43571 0.0
C19 C 0.06672 0.04282 0.40698 0.0
O20 O 0.03818 0.17472 0.42367 0.0
O21 O 0.97043 0.10568 0.41293 0.0
O22 O 0.97261 0.09274 0.46088 0.0
C23 C 0.99967 0.15572 0.4134 0.0
O24 O 0.09865 0.09166 0.40409 0.0
C25 C 0.93215 0.04673 0.45959 0.0
O26 O 0.0322 0.02898 0.41829 0.0
O27 O 0.9306 0.01855 0.44729 0.0
C28 C 0.95961 0.11162 0.75028 0.0
O29 O 0.95947 0.13259 0.76411 0.0
Cd30 Cd 0.00958 0.13608 0.78816 0.0
O31 O 0.98804 0.09063 0.74843 0.0
Cd32 Cd 0.05289 0.07757 0.76533 0.0
C33 C 0.9637 0.00402 0.79528 0.0
O34 O 0.09603 0.16578 0.77801 0.0
O35 O 0.12126 0.11401 0.78783 0.0
O36 O 0.10917 0.09558 0.74105 0.0
C37 C 0.12667 0.1598 0.7877 0.0
O38 O 0.96658 0.04702 0.79989 0.0
C39 C 0.10653 0.05099 0.74081 0.0
O40 O 0.9891 0.00321 0.78267 0.0
O41 O 0.07869 0.01825 0.75195 0.0
Mg42 Mg 0.03279 0.57847 0.26863 0.0
C43 C 0.96841 0.50977 0.29803 0.0
O44 O 0.98058 0.5555 0.3048 0.0
C45 C 0.03694 0.6322 0.23765 0.0
O46 O 0.08346 0.63692 0.23938 0.0
C47 C 0.04657 0.50803 0.24789 0.0
O48 O 0.996 0.49087 0.24908 0.0
O49 O 0.07888 0.55033 0.25576 0.0
O50 O 0.97963 0.5082 0.28289 0.0
O51 O 0.06937 0.645 0.28623 0.0
C52 C 0.04005 0.66474 0.2883 0.0
O53 O 0.99582 0.64454 0.27965 0.0
O54 O 0.00205 0.6056 0.24843 0.0
Mg55 Mg 0.51671 0.05051 0.59887 0.0
C56 C 0.46533 0.06958 0.57065 0.0
O57 O 0.46108 0.02351 0.5676 0.0
C58 C 0.60329 0.06544 0.61968 0.0
O59 O 0.5813 0.01741 0.61328 0.0
C60 C 0.40522 0.98769 0.61288 0.0
O61 O 0.39153 0.99427 0.59787 0.0
O62 O 0.45296 0.00122 0.61581 0.0
O63 O 0.48998 0.09473 0.58381 0.0
O64 O 0.54891 0.01789 0.58121 0.0
C65 C 0.53373 0.97392 0.57381 0.0
O66 O 0.48626 0.93343 0.57634 0.0
O67 O 0.58391 0.09426 0.61585 0.0
Mg68 Mg 0.55915 0.56946 0.93293 0.0
C69 C 0.48738 0.55701 0.90306 0.0
O70 O 0.52928 0.60013 0.8978 0.0
C71 C 0.60842 0.63834 0.96152 0.0
O72 O 0.62217 0.60222 0.96217 0.0
C73 C 0.50865 0.4565 0.94618 0.0
O74 O 0.48881 0.44426 0.93101 0.0
O75 O 0.54267 0.50449 0.94966 0.0
O76 O 0.48838 0.53971 0.91748 0.0
O77 O 0.62747 0.59891 0.9169 0.0
C78 C 0.62611 0.58134 0.9023 0.0
O79 O 0.5833 0.5382 0.89711 0.0
O80 O 0.57816 0.63574 0.94966 0.0
H81 H 0.02271 0.26957 0.12157 0.0
H82 H 0.04353 0.32823 0.14554 0.0
H83 H 0.1362 0.26717 0.16721 0.0
H84 H 0.11425 0.20693 0.14335 0.0
H85 H 0.07397 0.27113 0.18966 0.0
H86 H 0.17399 0.46424 0.15819 0.0
H87 H 0.11091 0.4219 0.14859 0.0
H88 H 0.16078 0.40375 0.14792 0.0
C89 C 0.04791 0.26881 0.13134 0.0
C90 C 0.06687 0.23352 0.13049 0.0
C91 C 0.06027 0.30289 0.145 0.0
C92 C 0.09259 0.30323 0.15802 0.0
C93 C 0.11167 0.26809 0.15723 0.0
H94 H 0.1463 0.53916 0.23653 0.0
H95 H 0.16982 0.49094 0.21655 0.0
C96 C 0.09898 0.23359 0.1436 0.0
C97 C 0.10263 0.33735 0.17296 0.0
H98 H 0.13301 0.46207 0.18458 0.0
C99 C 0.08801 0.31314 0.18859 0.0
C100 C 0.12233 0.39254 0.17176 0.0
C101 C 0.14346 0.42216 0.15572 0.0
C102 C 0.08834 0.34157 0.20271 0.0
C103 C 0.10241 0.39529 0.20108 0.0
C104 C 0.12133 0.42066 0.1858 0.0
C105 C 0.0907 0.42324 0.21427 0.0
C106 C 0.07201 0.31323 0.21913 0.0
C107 C 0.03864 0.40141 0.21953 0.0
C108 C 0.02528 0.42859 0.2308 0.0
C109 C 0.06353 0.47871 0.23704 0.0
C110 C 0.11604 0.50049 0.23202 0.0
C111 C 0.12946 0.47306 0.2206 0.0
H112 H 0.08233 0.28174 0.21989 0.0
H113 H 0.09093 0.34107 0.22979 0.0
H114 H 0.02862 0.29379 0.22027 0.0
H115 H 0.00774 0.36383 0.21451 0.0
H116 H 0.98443 0.41052 0.23435 0.0
H117 H 0.83748 0.95235 0.45942 0.0
H118 H 0.76223 0.92725 0.4777 0.0
H119 H 0.8518 0.07522 0.50447 0.0
H120 H 0.9267 0.10057 0.48641 0.0
H121 H 0.75585 0.92256 0.51493 0.0
H122 H 0.71546 0.07122 0.48681 0.0
H123 H 0.75456 0.0483 0.47664 0.0
H124 H 0.78297 0.09713 0.49302 0.0
C125 C 0.84126 0.97928 0.4693 0.0
C126 C 0.88798 0.02865 0.47137 0.0
C127 C 0.79827 0.96486 0.47972 0.0
C128 C 0.80127 0.99973 0.49227 0.0
C129 C 0.84845 0.04807 0.49471 0.0
H130 H 0.63572 0.04903 0.56799 0.0
H131 H 0.69493 0.04716 0.5476 0.0
C132 C 0.8913 0.06241 0.48438 0.0
C133 C 0.75497 0.98716 0.50256 0.0
H134 H 0.67437 0.0345 0.51266 0.0
C135 C 0.73731 0.94634 0.5143 0.0
C136 C 0.73074 0.01809 0.50161 0.0
C137 C 0.74647 0.06085 0.48874 0.0
C138 C 0.69805 0.93776 0.52577 0.0
C139 C 0.67567 0.97046 0.5253 0.0
C140 C 0.69173 0.00959 0.51305 0.0
C141 C 0.63933 0.96856 0.53827 0.0
C142 C 0.68266 0.8957 0.53883 0.0
C143 C 0.58821 0.92465 0.53992 0.0
C144 C 0.5538 0.92553 0.55168 0.0
C145 C 0.57 0.97045 0.56189 0.0
C146 C 0.6216 0.01381 0.56032 0.0
C147 C 0.65568 0.01288 0.54864 0.0
H148 H 0.70891 0.87885 0.53897 0.0
H149 H 0.68372 0.91229 0.55136 0.0
H150 H 0.64173 0.86301 0.53633 0.0
H151 H 0.57457 0.89028 0.53188 0.0
H152 H 0.51435 0.89155 0.55254 0.0
H153 H 0.95466 0.90627 0.79162 0.0
H154 H 0.89963 0.82584 0.80773 0.0
H155 H 0.84295 0.91005 0.83664 0.0
H156 H 0.89735 0.9902 0.82072 0.0
H157 H 0.90019 0.81216 0.84348 0.0
H158 H 0.70739 0.77555 0.81947 0.0
H159 H 0.76859 0.8182 0.80905 0.0
H160 H 0.75045 0.8421 0.8269 0.0
C161 C 0.93032 0.90762 0.80136 0.0
C162 C 0.93034 0.95476 0.8048 0.0
C163 C 0.899 0.86165 0.81057 0.0
C164 C 0.86673 0.86183 0.82323 0.0
C165 C 0.86692 0.9088 0.82674 0.0
H166 H 0.71854 0.67406 0.90871 0.0
H167 H 0.77967 0.73649 0.88849 0.0
C168 C 0.89831 0.95471 0.81765 0.0
C169 C 0.8333 0.81344 0.83306 0.0
H170 H 0.70576 0.72889 0.84397 0.0
C171 C 0.85763 0.79348 0.84346 0.0
C172 C 0.77777 0.7887 0.83285 0.0
C173 C 0.74935 0.80684 0.82136 0.0
C174 C 0.82795 0.75088 0.85421 0.0
C175 C 0.77262 0.72807 0.85467 0.0
C176 C 0.7482 0.74657 0.84372 0.0
C177 C 0.73938 0.6871 0.86699 0.0
C178 C 0.85613 0.7309 0.86505 0.0
C179 C 0.69639 0.63831 0.86168 0.0
C180 C 0.66116 0.60245 0.87325 0.0
C181 C 0.66791 0.61496 0.89035 0.0
C182 C 0.71219 0.66299 0.89566 0.0
C183 C 0.74742 0.69871 0.8841 0.0
H184 H 0.89464 0.74077 0.85974 0.0
H185 H 0.86382 0.75008 0.8775 0.0
H186 H 0.83193 0.6873 0.86669 0.0
H187 H 0.68926 0.62861 0.84854 0.0
H188 H 0.62743 0.56598 0.86869 0.0
H189 H 0.97944 0.96378 0.14674 0.0
H190 H 0.97325 0.89686 0.16621 0.0
H191 H 0.10508 0.89927 0.14277 0.0
H192 H 0.11191 0.96669 0.1233 0.0
H193 H 0.95693 0.79503 0.15945 0.0
H194 H 0.1477 0.92285 0.19229 0.0
H195 H 0.11703 0.94946 0.17905 0.0
H196 H 0.15256 0.92091 0.17007 0.0
C197 C 0.00735 0.95032 0.14576 0.0
C198 C 0.04642 0.97085 0.13352 0.0
C199 C 0.0036 0.91192 0.15688 0.0
C200 C 0.03903 0.8935 0.15607 0.0
C201 C 0.07788 0.91359 0.1438 0.0
H202 H 0.09625 0.67485 0.21022 0.0
H203 H 0.09159 0.73462 0.19016 0.0
C204 C 0.08163 0.952 0.13265 0.0
C205 C 0.03503 0.85296 0.16799 0.0
H206 H 0.10323 0.83113 0.19845 0.0
C207 C 0.98876 0.8029 0.16805 0.0
C208 C 0.07649 0.86346 0.17925 0.0
C209 C 0.12609 0.9172 0.18033 0.0
C210 C 0.98353 0.76252 0.17872 0.0
C211 C 0.02536 0.77284 0.1898 0.0
C212 C 0.07125 0.82317 0.1899 0.0
C213 C 0.02359 0.73181 0.20107 0.0
C214 C 0.934 0.70876 0.1777 0.0
C215 C 0.98614 0.70933 0.21374 0.0
C216 C 0.98849 0.6746 0.22526 0.0
C217 C 0.02871 0.66239 0.22437 0.0
C218 C 0.06492 0.68362 0.21133 0.0
C219 C 0.06238 0.7179 0.19984 0.0
H220 H 0.91129 0.70362 0.16602 0.0
H221 H 0.94339 0.67663 0.17843 0.0
H222 H 0.90849 0.70435 0.18834 0.0
H223 H 0.95636 0.72016 0.21511 0.0
H224 H 0.96033 0.65924 0.23524 0.0
H225 H 0.24724 0.22784 0.46044 0.0
H226 H 0.30613 0.22699 0.48192 0.0
H227 H 0.1802 0.07781 0.49985 0.0
H228 H 0.12056 0.07897 0.47868 0.0
H229 H 0.24005 0.14495 0.52545 0.0
H230 H 0.36836 0.13224 0.47791 0.0
H231 H 0.36126 0.18929 0.47605 0.0
H232 H 0.30501 0.12405 0.47274 0.0
C233 C 0.23187 0.195 0.46903 0.0
C234 C 0.17925 0.15314 0.4677 0.0
C235 C 0.26572 0.19449 0.48126 0.0
C236 C 0.24794 0.15177 0.49227 0.0
C237 C 0.19488 0.11107 0.49144 0.0
H238 H 0.40996 0.02157 0.54238 0.0
H239 H 0.36077 0.04809 0.52443 0.0
C240 C 0.16083 0.11176 0.4793 0.0
C241 C 0.28497 0.14807 0.50414 0.0
H242 H 0.39461 0.1369 0.50593 0.0
C243 C 0.27407 0.14353 0.52122 0.0
C244 C 0.32911 0.14576 0.49856 0.0
C245 C 0.34152 0.1476 0.48032 0.0
C246 C 0.30552 0.13578 0.53284 0.0
C247 C 0.34959 0.13345 0.52725 0.0
C248 C 0.36112 0.13922 0.51022 0.0
C249 C 0.38083 0.11916 0.53845 0.0
C250 C 0.28996 0.1278 0.55089 0.0
C251 C 0.40922 0.15067 0.55229 0.0
C252 C 0.43754 0.13537 0.56276 0.0
C253 C 0.43811 0.0885 0.55945 0.0
C254 C 0.41044 0.05786 0.54538 0.0
C255 C 0.38222 0.07299 0.53504 0.0
H256 H 0.24946 0.12039 0.55261 0.0
H257 H 0.29215 0.09394 0.55613 0.0
H258 H 0.31761 0.16394 0.55812 0.0
H259 H 0.40953 0.18702 0.555 0.0
H260 H 0.45856 0.15991 0.57346 0.0
H261 H 0.142 0.25951 0.79047 0.0
H262 H 0.20163 0.33049 0.80958 0.0
H263 H 0.25336 0.22866 0.83022 0.0
H264 H 0.19414 0.15746 0.81098 0.0
H265 H 0.20391 0.33108 0.84426 0.0
H266 H 0.39189 0.36347 0.81872 0.0
H267 H 0.3298 0.32613 0.80767 0.0
H268 H 0.34632 0.29602 0.82431 0.0
C269 C 0.16626 0.25223 0.79901 0.0
C270 C 0.16351 0.20288 0.79915 0.0
C271 C 0.20023 0.29284 0.80995 0.0
C272 C 0.2324 0.28512 0.82119 0.0
C273 C 0.22959 0.23582 0.82144 0.0
H274 H 0.39683 0.46365 0.90961 0.0
H275 H 0.33252 0.40084 0.88949 0.0
C276 C 0.19556 0.19509 0.81049 0.0
C277 C 0.26815 0.32844 0.83281 0.0
H278 H 0.39745 0.40755 0.84416 0.0
C279 C 0.24625 0.34797 0.84421 0.0
C280 C 0.32343 0.35098 0.83256 0.0
C281 C 0.34944 0.33351 0.82006 0.0
C282 C 0.27809 0.38859 0.85561 0.0
C283 C 0.33319 0.4098 0.85574 0.0
C284 C 0.35516 0.39108 0.8441 0.0
C285 C 0.36885 0.45041 0.86809 0.0
C286 C 0.25252 0.40879 0.86732 0.0
C287 C 0.41058 0.49938 0.86279 0.0
C288 C 0.44757 0.53547 0.87428 0.0
C289 C 0.44382 0.523 0.89129 0.0
C290 C 0.40084 0.47468 0.89663 0.0
C291 C 0.36385 0.43872 0.88513 0.0
H292 H 0.21306 0.39936 0.86265 0.0
H293 H 0.24735 0.38957 0.87959 0.0
H294 H 0.27743 0.45235 0.86918 0.0
H295 H 0.41525 0.50912 0.84968 0.0
H296 H 0.48023 0.57215 0.86972 0.0
H297 H 0.9026 0.1615 0.74915 0.0
H298 H 0.84649 0.16089 0.72644 0.0
H299 H 0.88552 0.06307 0.69696 0.0
H300 H 0.94188 0.06328 0.71964 0.0
H301 H 0.87276 0.19287 0.69175 0.0
H302 H 0.7212 0.9801 0.69917 0.0
H303 H 0.76971 0.01789 0.71515 0.0
H304 H 0.78774 0.9942 0.69726 0.0
C305 C 0.89938 0.13981 0.73785 0.0
C306 C 0.92651 0.11205 0.73629 0.0
C307 C 0.86742 0.13975 0.72486 0.0
C308 C 0.86153 0.1116 0.7101 0.0
C309 C 0.88916 0.08459 0.70834 0.0
H310 H 0.66968 0.02771 0.62183 0.0
H311 H 0.73527 0.04536 0.64342 0.0
C312 C 0.9214 0.08483 0.72131 0.0
C313 C 0.82538 0.10937 0.69674 0.0
H314 H 0.71122 0.02404 0.67607 0.0
C315 C 0.83732 0.15607 0.68831 0.0
C316 C 0.77904 0.06139 0.69242 0.0
C317 C 0.76319 0.01053 0.70153 0.0
C318 C 0.80488 0.15562 0.67525 0.0
C319 C 0.75889 0.10738 0.67077 0.0
C320 C 0.7466 0.06098 0.67946 0.0
C321 C 0.72377 0.10289 0.65667 0.0
C322 C 0.82091 0.2063 0.66603 0.0
C323 C 0.69625 0.13044 0.65665 0.0
C324 C 0.65874 0.12074 0.64411 0.0
C325 C 0.64778 0.08274 0.63161 0.0
C326 C 0.67688 0.05689 0.63137 0.0
C327 C 0.71444 0.06692 0.64372 0.0
H328 H 0.86298 0.23657 0.66836 0.0
H329 H 0.81427 0.19875 0.65243 0.0
H330 H 0.79663 0.22296 0.67029 0.0
H331 H 0.70215 0.15775 0.66667 0.0
H332 H 0.63662 0.14093 0.64466 0.0
H333 H 0.86819 0.0181 0.07228 0.0
H334 H 0.79544 0.96178 0.053 0.0
H335 H 0.88903 0.9022 0.03184 0.0
H336 H 0.96166 0.95838 0.0508 0.0
H337 H 0.83745 0.9312 0.00796 0.0
H338 H 0.70089 0.79913 0.0566 0.0
H339 H 0.72716 0.86924 0.0591 0.0
H340 H 0.77031 0.84306 0.06071 0.0
C341 C 0.87318 0.99297 0.06351 0.0
C342 C 0.92063 0.99253 0.06312 0.0
C343 C 0.83156 0.96074 0.05254 0.0
C344 C 0.83671 0.9275 0.04108 0.0
C345 C 0.88423 0.92758 0.04057 0.0
H346 H 0.65951 0.64304 0.99029 0.0
H347 H 0.70628 0.71782 0.00934 0.0
C348 C 0.92568 0.95963 0.05147 0.0
C349 C 0.79286 0.89165 0.02967 0.0
H350 H 0.67417 0.77595 0.02876 0.0
C351 C 0.80123 0.89775 0.01245 0.0
C352 C 0.74579 0.84805 0.03563 0.0
C353 C 0.73528 0.83896 0.05401 0.0
C354 C 0.76512 0.85992 0.00106 0.0
C355 C 0.71905 0.81515 0.00705 0.0
C356 C 0.70934 0.81054 0.02421 0.0
C357 C 0.68534 0.76885 0.99612 0.0
C358 C 0.77824 0.86631 0.9828 0.0
C359 C 0.65677 0.77215 0.98251 0.0
C360 C 0.62977 0.72906 0.97146 0.0
C361 C 0.63119 0.68228 0.97388 0.0
C362 C 0.65797 0.67861 0.98794 0.0
C363 C 0.6846 0.72131 0.99892 0.0
H364 H 0.8188 0.89959 0.9805 0.0
H365 H 0.77435 0.8293 0.97763 0.0
H366 H 0.75019 0.87426 0.97592 0.0
H367 H 0.65628 0.8083 0.98026 0.0
H368 H 0.60933 0.733 0.96078 0.0
H369 H 0.99375 0.93644 0.40339 0.0
H370 H 0.99836 0.87262 0.38478 0.0
H371 H 0.15285 0.994 0.36932 0.0
H372 H 0.14796 0.05802 0.38742 0.0
H373 H 0.09194 0.94516 0.34324 0.0
H374 H 0.07697 0.79356 0.38745 0.0
H375 H 0.02363 0.80593 0.38926 0.0
H376 H 0.08981 0.85791 0.3942 0.0
C377 C 0.02893 0.94931 0.39617 0.0
C378 C 0.07032 0.00242 0.39684 0.0
C379 C 0.03171 0.91268 0.38562 0.0
C380 C 0.07629 0.92827 0.37578 0.0
C381 C 0.1181 0.98094 0.37679 0.0
H382 H 0.11941 0.70724 0.3122 0.0
H383 H 0.13424 0.77371 0.33367 0.0
C384 C 0.11515 0.01756 0.38715 0.0
C385 C 0.07789 0.89131 0.3634 0.0
H386 H 0.06342 0.76863 0.35855 0.0
C387 C 0.08627 0.90683 0.34666 0.0
C388 C 0.07133 0.84156 0.36783 0.0
C389 C 0.06548 0.82392 0.38569 0.0
C390 C 0.08643 0.87339 0.33419 0.0
C391 C 0.07682 0.82246 0.33847 0.0
C392 C 0.0704 0.80756 0.35527 0.0
C393 C 0.06921 0.78292 0.32552 0.0
C394 C 0.09661 0.89287 0.31648 0.0
C395 C 0.02768 0.76593 0.31396 0.0
C396 C 0.01931 0.72847 0.30176 0.0
C397 C 0.05205 0.70664 0.30087 0.0
C398 C 0.09377 0.72359 0.31248 0.0
C399 C 0.10211 0.7613 0.32477 0.0
H400 H 0.11904 0.93689 0.31601 0.0
H401 H 0.11885 0.87765 0.3097 0.0
H402 H 0.0584 0.87867 0.3099 0.0
H403 H 1.00121 0.78129 0.31447 0.0
H404 H 0.98663 0.71627 0.29311 0.0
H405 H 0.09098 0.95336 0.73232 0.0
H406 H 0.13671 0.93275 0.71102 0.0
H407 H 0.23299 0.0993 0.70003 0.0
H408 H 0.18584 0.11974 0.72073 0.0
H409 H 0.20097 0.04557 0.67246 0.0
H410 H 0.2782 0.94703 0.71293 0.0
H411 H 0.2078 0.91528 0.71336 0.0
H412 H 0.24781 0.98202 0.72122 0.0
C413 C 0.12205 0.98556 0.72539 0.0
C414 C 0.13485 0.0382 0.72823 0.0
C415 C 0.14852 0.97377 0.7133 0.0
C416 C 0.18917 0.01451 0.70408 0.0
C417 C 0.20193 0.06709 0.70697 0.0
H418 H 0.43062 0.00923 0.64597 0.0
H419 H 0.37467 0.01008 0.66795 0.0
C420 C 0.17495 0.07878 0.71883 0.0
C421 C 0.2173 0.00271 0.691 0.0
H422 H 0.2887 0.94253 0.68381 0.0
C423 C 0.22019 0.02307 0.67498 0.0
C424 C 0.24297 0.97383 0.69426 0.0
C425 C 0.24458 0.95375 0.71141 0.0
C426 C 0.24828 0.01599 0.66224 0.0
C427 C 0.27258 0.9857 0.66534 0.0
C428 C 0.26946 0.96502 0.68133 0.0
C429 C 0.30431 0.97823 0.65247 0.0
C430 C 0.25334 0.04307 0.64582 0.0
C431 C 0.283 0.95764 0.63661 0.0
C432 C 0.3152 0.9579 0.62391 0.0
C433 C 0.36908 0.97746 0.62693 0.0
C434 C 0.3893 0.99386 0.64318 0.0
C435 C 0.3573 0.99448 0.65579 0.0
H436 H 0.24562 0.07625 0.64707 0.0
H437 H 0.29327 0.059 0.64062 0.0
H438 H 0.22403 0.01402 0.6368 0.0
H439 H 0.24182 0.94308 0.63387 0.0
H440 H 0.29827 0.94446 0.61157 0.0
H441 H 0.16249 0.25618 0.04962 0.0
H442 H 0.2342 0.29498 0.02986 0.0
H443 H 0.27803 0.18021 0.04343 0.0
H444 H 0.20654 0.14165 0.06374 0.0
H445 H 0.36477 0.27965 0.03873 0.0
H446 H 0.2264 0.22624 0.98546 0.0
H447 H 0.21602 0.26477 0.00062 0.0
H448 H 0.20478 0.20019 0.00603 0.0
C449 C 0.18744 0.2392 0.0485 0.0
C450 C 0.17834 0.19533 0.05811 0.0
C451 C 0.22832 0.26131 0.03711 0.0
C452 C 0.26053 0.23955 0.03479 0.0
C453 C 0.25324 0.19726 0.04488 0.0
H454 H 0.44278 0.34899 0.94358 0.0
H455 H 0.38877 0.28853 0.96551 0.0
C456 C 0.21247 0.17533 0.05649 0.0
C457 C 0.30088 0.26088 0.02157 0.0
H458 H 0.316 0.29395 0.98051 0.0
C459 C 0.35417 0.28212 0.02594 0.0
C460 C 0.28705 0.26282 0.00477 0.0
C461 C 0.23039 0.23673 0.9989 0.0
C462 C 0.39411 0.30806 0.01414 0.0
C463 C 0.38043 0.31409 0.99765 0.0
C464 C 0.32691 0.29009 0.99314 0.0
C465 C 0.42025 0.34801 0.98512 0.0
C466 C 0.45045 0.32869 0.01952 0.0
C467 C 0.45725 0.40131 0.98885 0.0
C468 C 0.48887 0.43568 0.97639 0.0
C469 C 0.48329 0.41785 0.95981 0.0
C470 C 0.44798 0.364 0.95621 0.0
C471 C 0.41698 0.32941 0.96875 0.0
H472 H 0.45271 0.30399 0.0296 0.0
H473 H 0.47485 0.32945 0.009 0.0
H474 H 0.46742 0.36957 0.02454 0.0
H475 H 0.4597 0.4173 0.00119 0.0
H476 H 0.51529 0.47701 0.97959 0.0
H477 H 0.07062 0.25544 0.40286 0.0
H478 H 0.05499 0.31041 0.38349 0.0
H479 H 0.89071 0.18903 0.3798 0.0
H480 H 0.907 0.13272 0.39838 0.0
H481 H 0.92202 0.22444 0.35077 0.0
H482 H 0.99335 0.39984 0.3917 0.0
H483 H 0.04435 0.38478 0.3887 0.0
H484 H 0.98483 0.33805 0.39917 0.0
C485 C 0.03113 0.24069 0.39798 0.0
C486 C 0.98997 0.18995 0.40219 0.0
C487 C 0.02208 0.27234 0.38701 0.0
C488 C 0.97131 0.25466 0.38046 0.0
C489 C 0.93017 0.20386 0.38471 0.0
H490 H 0.92266 0.48928 0.32862 0.0
H491 H 0.91337 0.4215 0.34833 0.0
C492 C 0.93949 0.1717 0.39536 0.0
C493 C 0.96149 0.28812 0.36869 0.0
H494 H 0.98595 0.41389 0.3626 0.0
C495 C 0.93543 0.26571 0.35348 0.0
C496 C 0.97764 0.34168 0.37226 0.0
C497 C 1.00101 0.36723 0.38893 0.0
C498 C 0.92674 0.29566 0.34158 0.0
C499 C 0.94668 0.35034 0.34462 0.0
C500 C 0.97113 0.37224 0.36007 0.0
C501 C 0.94488 0.38625 0.33183 0.0
C502 C 0.89553 0.26789 0.32604 0.0
C503 C 0.96434 0.38844 0.31579 0.0
C504 C 0.96818 0.42613 0.30437 0.0
C505 C 0.95427 0.46371 0.30889 0.0
C506 C 0.93352 0.46076 0.32476 0.0
C507 C 0.9285 0.42218 0.33606 0.0
H508 H 0.86679 0.22543 0.32846 0.0
H509 H 0.87375 0.28669 0.32107 0.0
H510 H 0.92276 0.26931 0.31638 0.0
H511 H 0.97896 0.36264 0.31231 0.0
H512 H 0.98519 0.42785 0.29234 0.0
loop_
_geom_bond_atom_site_label_1
_geom_bond_atom_site_label_2
_geom_bond_distance
_geom_bond_site_symmetry_2
_ccdc_geom_bond_type
C0 O1 1.306 . S
C0 O3 1.160 . S
O1 C0 1.306 . S
O1 Cd2 2.228 1_455 S
Cd2 O1 2.228 1_655 S
Cd2 O6 2.273 . S
Cd2 O10 2.277 1_655 S
O3 C0 1.160 . S
O3 Cd4 2.203 . S
Cd4 O3 2.203 . S
Cd4 O6 2.411 1_455 S
Cd4 O7 2.333 . S
Cd4 O8 2.352 . S
Cd4 O12 2.277 . S
Cd4 O13 2.356 . S
C5 O10 1.209 . S
C5 O12 1.226 . S
O6 Cd2 2.273 . S
O6 Cd4 2.411 1_655 S
O6 C9 1.320 . S
O7 Cd4 2.333 . S
O7 C9 1.214 1_455 S
O8 Cd4 2.352 . S
O8 C11 1.258 1_545 S
C9 O6 1.320 . S
C9 O7 1.214 1_655 S
O10 Cd2 2.277 1_455 S
O10 C5 1.209 . S
C11 O8 1.258 1_565 S
C11 O13 1.282 1_565 S
O12 Cd4 2.277 . S
O12 C5 1.226 . S
O13 Cd4 2.356 . S
O13 C11 1.282 1_545 S
C14 O15 1.306 . S
C14 O17 1.160 . S
O15 C14 1.306 . S
O15 Cd16 2.228 . S
Cd16 O15 2.228 . S
Cd16 O20 2.273 . S
Cd16 O24 2.277 . S
O17 C14 1.160 . S
O17 Cd18 2.203 . S
Cd18 O17 2.203 . S
Cd18 O20 2.411 . S
Cd18 O21 2.333 1_455 S
Cd18 O22 2.352 1_455 S
Cd18 O26 2.277 1_445 S
Cd18 O27 2.356 1_455 S
C19 O24 1.209 1_565 S
C19 O26 1.226 1_455 S
O20 Cd16 2.273 . S
O20 Cd18 2.411 . S
O20 C23 1.320 . S
O21 Cd18 2.333 1_655 S
O21 C23 1.214 1_655 S
O22 Cd18 2.352 1_655 S
O22 C25 1.258 . S
C23 O20 1.320 . S
C23 O21 1.214 1_455 S
O24 Cd16 2.277 . S
O24 C19 1.209 1_545 S
C25 O22 1.258 . S
C25 O27 1.282 . S
O26 Cd18 2.277 1_665 S
O26 C19 1.226 1_655 S
O27 Cd18 2.356 1_655 S
O27 C25 1.282 . S
C28 O29 1.306 . S
C28 O31 1.160 . S
O29 C28 1.306 . S
O29 Cd30 2.228 . S
Cd30 O29 2.228 . S
Cd30 O34 2.273 1_655 S
Cd30 O38 2.277 . S
O31 C28 1.160 . S
O31 Cd32 2.203 1_655 S
Cd32 O31 2.203 1_455 S
Cd32 O34 2.411 . S
Cd32 O35 2.333 . S
Cd32 O36 2.352 . S
Cd32 O40 2.277 1_445 S
Cd32 O41 2.356 . S
C33 O38 1.209 . S
C33 O40 1.226 1_545 S
O34 Cd30 2.273 1_455 S
O34 Cd32 2.411 . S
O34 C37 1.320 . S
O35 Cd32 2.333 . S
O35 C37 1.214 . S
O36 Cd32 2.352 . S
O36 C39 1.258 . S
C37 O34 1.320 . S
C37 O35 1.214 . S
O38 Cd30 2.277 . S
O38 C33 1.209 . S
C39 O36 1.258 . S
C39 O41 1.282 . S
O40 Cd32 2.277 1_665 S
O40 C33 1.226 1_565 S
O41 Cd32 2.356 . S
O41 C39 1.282 . S
Mg42 O49 2.141 . S
Mg42 O50 2.048 . S
Mg42 O51 2.048 . S
Mg42 O54 2.141 . S
C43 O44 1.313 1_455 S
C43 O50 1.195 . S
O44 C43 1.313 1_655 S
C45 O46 1.245 1_455 S
C45 O54 1.289 . S
O46 C45 1.245 1_655 S
C47 O48 1.245 1_455 S
C47 O49 1.289 . S
O48 C47 1.245 1_655 S
O49 Mg42 2.141 . S
O49 C47 1.289 . S
O50 Mg42 2.048 . S
O50 C43 1.195 . S
O51 Mg42 2.048 . S
O51 C52 1.195 . S
C52 O51 1.195 . S
C52 O53 1.313 1_455 S
O53 C52 1.313 1_655 S
O54 Mg42 2.141 . S
O54 C45 1.289 . S
Mg55 O62 2.141 . S
Mg55 O63 2.048 . S
Mg55 O64 2.048 . S
Mg55 O67 2.141 . S
C56 O57 1.313 . S
C56 O63 1.195 . S
O57 C56 1.313 . S
C58 O59 1.245 . S
C58 O67 1.289 . S
O59 C58 1.245 . S
C60 O61 1.245 . S
C60 O62 1.289 . S
O61 C60 1.245 . S
O62 Mg55 2.141 . S
O62 C60 1.289 . S
O63 Mg55 2.048 . S
O63 C56 1.195 . S
O64 Mg55 2.048 . S
O64 C65 1.195 . S
C65 O64 1.195 . S
C65 O66 1.313 . S
O66 C65 1.313 . S
O67 Mg55 2.141 . S
O67 C58 1.289 . S
Mg68 O75 2.141 . S
Mg68 O76 2.048 . S
Mg68 O77 2.048 . S
Mg68 O80 2.141 . S
C69 O70 1.313 . S
C69 O76 1.195 . S
O70 C69 1.313 . S
C71 O72 1.245 . S
C71 O80 1.289 . S
O72 C71 1.245 . S
C73 O74 1.245 . S
C73 O75 1.289 . S
O74 C73 1.245 . S
O75 Mg68 2.141 . S
O75 C73 1.289 . S
O76 Mg68 2.048 . S
O76 C69 1.195 . S
O77 Mg68 2.048 . S
O77 C78 1.195 . S
C78 O77 1.195 . S
C78 O79 1.313 . S
O79 C78 1.313 . S
O80 Mg68 2.141 . S
O80 C71 1.289 . S
H81 C89 0.929 . S
H82 C91 0.930 . S
H83 C93 0.930 . S
H84 C96 0.929 . S
H85 C99 0.930 1_655 S
H86 C101 0.960 . S
H87 C101 0.960 . S
H88 C101 0.960 . S
C89 H81 0.929 . S
C89 C90 1.377 1_655 S
C89 C91 1.384 . S
C90 C89 1.377 1_455 S
C90 C96 1.390 . S
C91 H82 0.930 . S
C91 C89 1.384 . S
C91 C92 1.372 1_655 S
C92 C91 1.372 1_455 S
C92 C93 1.400 . S
C92 C97 1.490 . S
C93 H83 0.930 . S
C93 C92 1.400 . S
C93 C96 1.386 . S
H94 C110 0.930 . S
H95 C111 0.931 . S
C96 H84 0.929 . S
C96 C90 1.390 . S
C96 C93 1.386 . S
C97 C92 1.490 . S
C97 C99 1.395 . S
C97 C100 1.403 . S
H98 C104 0.930 . S
C99 H85 0.930 1_455 S
C99 C97 1.395 . S
C99 C102 1.403 . S
C100 C97 1.403 . S
C100 C101 1.524 . S
C100 C104 1.400 . S
C101 H86 0.960 . S
C101 H87 0.960 . S
C101 H88 0.960 . S
C101 C100 1.524 . S
C102 C99 1.403 . S
C102 C103 1.392 . S
C102 C106 1.495 1_455 S
C103 C102 1.392 . S
C103 C104 1.385 . S
C103 C105 1.478 . S
C104 H98 0.930 . S
C104 C100 1.400 . S
C104 C103 1.385 . S
C105 C103 1.478 . S
C105 C107 1.381 1_455 S
C105 C111 1.383 . S
C106 C102 1.495 1_655 S
C106 H112 0.959 . S
C106 H113 0.961 . S
C106 H114 0.960 . S
C107 C105 1.381 1_655 S
C107 C108 1.394 1_655 S
C107 H115 0.930 . S
C108 C107 1.394 1_455 S
C108 C109 1.383 . S
C108 H116 0.929 1_455 S
C109 C108 1.383 . S
C109 C110 1.377 . S
C110 H94 0.930 . S
C110 C109 1.377 . S
C110 C111 1.379 . S
C111 H95 0.931 . S
C111 C105 1.383 . S
C111 C110 1.379 . S
H112 C106 0.959 . S
H113 C106 0.961 . S
H114 C106 0.960 . S
H115 C107 0.930 . S
H116 C108 0.929 1_655 S
H117 C125 0.929 1_565 S
H118 C127 0.930 1_565 S
H119 C129 0.930 . S
H120 C132 0.929 . S
H121 C135 0.930 . S
H122 C137 0.960 . S
H123 C137 0.960 . S
H124 C137 0.960 . S
C125 H117 0.929 1_545 S
C125 C126 1.377 . S
C125 C127 1.384 . S
C126 C125 1.377 . S
C126 C132 1.390 . S
C127 H118 0.930 1_545 S
C127 C125 1.384 . S
C127 C128 1.372 . S
C128 C127 1.372 . S
C128 C129 1.400 . S
C128 C133 1.490 . S
C129 H119 0.930 . S
C129 C128 1.400 . S
C129 C132 1.386 . S
H130 C146 0.930 . S
H131 C147 0.931 . S
C132 H120 0.929 . S
C132 C126 1.390 . S
C132 C129 1.386 . S
C133 C128 1.490 . S
C133 C135 1.395 . S
C133 C136 1.403 . S
H134 C140 0.930 . S
C135 H121 0.930 . S
C135 C133 1.395 . S
C135 C138 1.403 . S
C136 C133 1.403 . S
C136 C137 1.524 . S
C136 C140 1.400 . S
C137 H122 0.960 . S
C137 H123 0.960 . S
C137 H124 0.960 . S
C137 C136 1.524 . S
C138 C135 1.403 . S
C138 C139 1.392 . S
C138 C142 1.495 1_545 S
C139 C138 1.392 . S
C139 C140 1.385 . S
C139 C141 1.478 . S
C140 H134 0.930 . S
C140 C136 1.400 . S
C140 C139 1.385 . S
C141 C139 1.478 . S
C141 C143 1.381 . S
C141 C147 1.383 . S
C142 C138 1.495 1_565 S
C142 H148 0.959 . S
C142 H149 0.961 1_565 S
C142 H150 0.960 . S
C143 C141 1.381 . S
C143 C144 1.394 . S
C143 H151 0.930 1_545 S
C144 C143 1.394 . S
C144 C145 1.383 . S
C144 H152 0.929 1_545 S
C145 C144 1.383 . S
C145 C146 1.377 . S
C146 H130 0.930 . S
C146 C145 1.377 . S
C146 C147 1.379 . S
C147 H131 0.931 . S
C147 C141 1.383 . S
C147 C146 1.379 . S
H148 C142 0.959 . S
H149 C142 0.961 1_545 S
H150 C142 0.960 . S
H151 C143 0.930 1_565 S
H152 C144 0.929 1_565 S
H153 C161 0.929 . S
H154 C163 0.930 . S
H155 C165 0.930 . S
H156 C168 0.929 1_545 S
H157 C171 0.930 . S
H158 C173 0.960 . S
H159 C173 0.960 . S
H160 C173 0.960 . S
C161 H153 0.929 . S
C161 C162 1.377 . S
C161 C163 1.384 . S
C162 C161 1.377 . S
C162 C168 1.390 . S
C163 H154 0.930 . S
C163 C161 1.384 . S
C163 C164 1.372 . S
C164 C163 1.372 . S
C164 C165 1.400 . S
C164 C169 1.490 . S
C165 H155 0.930 . S
C165 C164 1.400 . S
C165 C168 1.386 . S
H166 C182 0.930 . S
H167 C183 0.931 . S
C168 H156 0.929 1_565 S
C168 C162 1.390 . S
C168 C165 1.386 . S
C169 C164 1.490 . S
C169 C171 1.395 . S
C169 C172 1.403 . S
H170 C176 0.930 . S
C171 H157 0.930 . S
C171 C169 1.395 . S
C171 C174 1.403 . S
C172 C169 1.403 . S
C172 C173 1.524 . S
C172 C176 1.400 . S
C173 H158 0.960 . S
C173 H159 0.960 . S
C173 H160 0.960 . S
C173 C172 1.524 . S
C174 C171 1.403 . S
C174 C175 1.392 . S
C174 C178 1.495 . S
C175 C174 1.392 . S
C175 C176 1.385 . S
C175 C177 1.478 . S
C176 H170 0.930 . S
C176 C172 1.400 . S
C176 C175 1.385 . S
C177 C175 1.478 . S
C177 C179 1.381 . S
C177 C183 1.383 . S
C178 C174 1.495 . S
C178 H184 0.959 . S
C178 H185 0.961 . S
C178 H186 0.960 . S
C179 C177 1.381 . S
C179 C180 1.394 . S
C179 H187 0.930 . S
C180 C179 1.394 . S
C180 C181 1.383 . S
C180 H188 0.929 . S
C181 C180 1.383 . S
C181 C182 1.377 . S
C182 H166 0.930 . S
C182 C181 1.377 . S
C182 C183 1.379 . S
C183 H167 0.931 . S
C183 C177 1.383 . S
C183 C182 1.379 . S
H184 C178 0.959 . S
H185 C178 0.961 . S
H186 C178 0.960 . S
H187 C179 0.930 . S
H188 C180 0.929 . S
H189 C197 0.933 . S
H190 C199 0.930 . S
H191 C201 0.930 . S
H192 C204 0.929 . S
H193 C207 0.930 1_655 S
H194 C209 0.960 . S
H195 C209 0.960 . S
H196 C209 0.960 . S
C197 H189 0.933 . S
C197 C198 1.377 . S
C197 C199 1.384 . S
C198 C197 1.377 . S
C198 C204 1.390 . S
C199 H190 0.930 . S
C199 C197 1.384 . S
C199 C200 1.372 . S
C200 C199 1.372 . S
C200 C201 1.400 . S
C200 C205 1.490 . S
C201 H191 0.930 . S
C201 C200 1.400 . S
C201 C204 1.386 . S
H202 C218 0.930 . S
H203 C219 0.931 . S
C204 H192 0.929 . S
C204 C198 1.390 . S
C204 C201 1.386 . S
C205 C200 1.490 . S
C205 C207 1.395 . S
C205 C208 1.403 . S
H206 C212 0.930 . S
C207 H193 0.930 1_455 S
C207 C205 1.395 . S
C207 C210 1.401 . S
C208 C205 1.403 . S
C208 C209 1.524 . S
C208 C212 1.400 . S
C209 H194 0.960 . S
C209 H195 0.960 . S
C209 H196 0.960 . S
C209 C208 1.524 . S
C210 C207 1.401 . S
C210 C211 1.400 . S
C210 C214 1.490 1_455 S
C211 C210 1.400 . S
C211 C212 1.385 . S
C211 C213 1.478 . S
C212 H206 0.930 . S
C212 C208 1.400 . S
C212 C211 1.385 . S
C213 C211 1.478 . S
C213 C215 1.381 . S
C213 C219 1.383 . S
C214 C210 1.490 1_655 S
C214 H220 0.959 . S
C214 H221 0.961 . S
C214 H222 0.960 . S
C215 C213 1.381 . S
C215 C216 1.394 . S
C215 H223 0.930 . S
C216 C215 1.394 . S
C216 C217 1.383 . S
C216 H224 0.929 . S
C217 C216 1.383 . S
C217 C218 1.377 . S
C218 H202 0.930 . S
C218 C217 1.377 . S
C218 C219 1.379 . S
C219 H203 0.931 . S
C219 C213 1.383 . S
C219 C218 1.379 . S
H220 C214 0.959 . S
H221 C214 0.961 . S
H222 C214 0.960 . S
H223 C215 0.930 . S
H224 C216 0.929 . S
H225 C233 0.929 . S
H226 C235 0.930 . S
H227 C237 0.930 1_565 S
H228 C240 0.929 1_565 S
H229 C243 0.930 . S
H230 C245 0.960 . S
H231 C245 0.960 . S
H232 C245 0.960 . S
C233 H225 0.929 . S
C233 C234 1.377 . S
C233 C235 1.384 . S
C234 C233 1.377 . S
C234 C240 1.390 . S
C235 H226 0.930 . S
C235 C233 1.384 . S
C235 C236 1.372 . S
C236 C235 1.372 . S
C236 C237 1.400 . S
C236 C241 1.490 . S
C237 H227 0.930 1_545 S
C237 C236 1.400 . S
C237 C240 1.386 . S
H238 C254 0.930 1_565 S
H239 C255 0.931 1_565 S
C240 H228 0.929 1_545 S
C240 C234 1.390 . S
C240 C237 1.386 . S
C241 C236 1.490 . S
C241 C243 1.395 . S
C241 C244 1.403 . S
H242 C248 0.930 . S
C243 H229 0.930 . S
C243 C241 1.395 . S
C243 C246 1.403 . S
C244 C241 1.403 . S
C244 C245 1.524 . S
C244 C248 1.400 . S
C245 H230 0.960 . S
C245 H231 0.960 . S
C245 H232 0.960 . S
C245 C244 1.524 . S
C246 C243 1.403 . S
C246 C247 1.392 . S
C246 C250 1.495 . S
C247 C246 1.392 . S
C247 C248 1.385 . S
C247 C249 1.478 . S
C248 H242 0.930 . S
C248 C244 1.400 . S
C248 C247 1.385 . S
C249 C247 1.478 . S
C249 C251 1.381 . S
C249 C255 1.383 . S
C250 C246 1.495 . S
C250 H256 0.959 . S
C250 H257 0.961 . S
C250 H258 0.960 . S
C251 C249 1.381 . S
C251 C252 1.394 . S
C251 H259 0.930 . S
C252 C251 1.394 . S
C252 C253 1.383 . S
C252 H260 0.929 . S
C253 C252 1.383 . S
C253 C254 1.377 . S
C254 H238 0.930 1_545 S
C254 C253 1.377 . S
C254 C255 1.379 . S
C255 H239 0.931 1_545 S
C255 C249 1.383 . S
C255 C254 1.379 . S
H256 C250 0.959 . S
H257 C250 0.961 . S
H258 C250 0.960 . S
H259 C251 0.930 . S
H260 C252 0.929 . S
H261 C269 0.929 . S
H262 C271 0.930 . S
H263 C273 0.930 . S
H264 C276 0.929 . S
H265 C279 0.930 . S
H266 C281 0.960 . S
H267 C281 0.960 . S
H268 C281 0.960 . S
C269 H261 0.929 . S
C269 C270 1.377 . S
C269 C271 1.384 . S
C270 C269 1.377 . S
C270 C276 1.390 . S
C271 H262 0.930 . S
C271 C269 1.384 . S
C271 C272 1.372 . S
C272 C271 1.372 . S
C272 C273 1.400 . S
C272 C277 1.490 . S
C273 H263 0.930 . S
C273 C272 1.400 . S
C273 C276 1.386 . S
H274 C290 0.930 . S
H275 C291 0.931 . S
C276 H264 0.929 . S
C276 C270 1.390 . S
C276 C273 1.386 . S
C277 C272 1.490 . S
C277 C279 1.395 . S
C277 C280 1.403 . S
H278 C284 0.930 . S
C279 H265 0.930 . S
C279 C277 1.395 . S
C279 C282 1.403 . S
C280 C277 1.403 . S
C280 C281 1.524 . S
C280 C284 1.400 . S
C281 H266 0.960 . S
C281 H267 0.960 . S
C281 H268 0.960 . S
C281 C280 1.524 . S
C282 C279 1.403 . S
C282 C283 1.392 . S
C282 C286 1.495 . S
C283 C282 1.392 . S
C283 C284 1.385 . S
C283 C285 1.478 . S
C284 H278 0.930 . S
C284 C280 1.400 . S
C284 C283 1.385 . S
C285 C283 1.478 . S
C285 C287 1.381 . S
C285 C291 1.383 . S
C286 C282 1.495 . S
C286 H292 0.959 . S
C286 H293 0.961 . S
C286 H294 0.960 . S
C287 C285 1.381 . S
C287 C288 1.394 . S
C287 H295 0.930 . S
C288 C287 1.394 . S
C288 C289 1.383 . S
C288 H296 0.929 . S
C289 C288 1.383 . S
C289 C290 1.377 . S
C290 H274 0.930 . S
C290 C289 1.377 . S
C290 C291 1.379 . S
C291 H275 0.931 . S
C291 C285 1.383 . S
C291 C290 1.379 . S
H292 C286 0.959 . S
H293 C286 0.961 . S
H294 C286 0.960 . S
H295 C287 0.930 . S
H296 C288 0.929 . S
H297 C305 0.929 . S
H298 C307 0.930 . S
H299 C309 0.930 . S
H300 C312 0.929 . S
H301 C315 0.930 . S
H302 C317 0.960 . S
H303 C317 0.960 . S
H304 C317 0.960 . S
C305 H297 0.929 . S
C305 C306 1.377 . S
C305 C307 1.384 . S
C306 C305 1.377 . S
C306 C312 1.390 . S
C307 H298 0.930 . S
C307 C305 1.384 . S
C307 C308 1.372 . S
C308 C307 1.372 . S
C308 C309 1.400 . S
C308 C313 1.490 . S
C309 H299 0.930 . S
C309 C308 1.400 . S
C309 C312 1.386 . S
H310 C326 0.930 . S
H311 C327 0.931 . S
C312 H300 0.929 . S
C312 C306 1.390 . S
C312 C309 1.386 . S
C313 C308 1.490 . S
C313 C315 1.395 . S
C313 C316 1.403 . S
H314 C320 0.930 . S
C315 H301 0.930 . S
C315 C313 1.395 . S
C315 C318 1.403 . S
C316 C313 1.403 . S
C316 C317 1.524 1_545 S
C316 C320 1.400 . S
C317 H302 0.960 . S
C317 H303 0.960 . S
C317 H304 0.960 . S
C317 C316 1.524 1_565 S
C318 C315 1.403 . S
C318 C319 1.392 . S
C318 C322 1.495 . S
C319 C318 1.392 . S
C319 C320 1.385 . S
C319 C321 1.478 . S
C320 H314 0.930 . S
C320 C316 1.400 . S
C320 C319 1.385 . S
C321 C319 1.478 . S
C321 C323 1.381 . S
C321 C327 1.383 . S
C322 C318 1.495 . S
C322 H328 0.959 . S
C322 H329 0.961 . S
C322 H330 0.960 . S
C323 C321 1.381 . S
C323 C324 1.394 . S
C323 H331 0.930 . S
C324 C323 1.394 . S
C324 C325 1.383 . S
C324 H332 0.929 . S
C325 C324 1.383 . S
C325 C326 1.377 . S
C326 H310 0.930 . S
C326 C325 1.377 . S
C326 C327 1.379 . S
C327 H311 0.931 . S
C327 C321 1.383 . S
C327 C326 1.379 . S
H328 C322 0.959 . S
H329 C322 0.961 . S
H330 C322 0.960 . S
H331 C323 0.930 . S
H332 C324 0.929 . S
H333 C341 0.929 1_545 S
H334 C343 0.930 . S
H335 C345 0.930 . S
H336 C348 0.929 . S
H337 C351 0.930 . S
H338 C353 0.960 . S
H339 C353 0.960 . S
H340 C353 0.960 . S
C341 H333 0.929 1_565 S
C341 C342 1.377 . S
C341 C343 1.384 . S
C342 C341 1.377 . S
C342 C348 1.390 . S
C343 H334 0.930 . S
C343 C341 1.384 . S
C343 C344 1.372 . S
C344 C343 1.372 . S
C344 C345 1.400 . S
C344 C349 1.490 . S
C345 H335 0.930 . S
C345 C344 1.400 . S
C345 C348 1.386 . S
H346 C362 0.930 . S
H347 C363 0.972 . S
C348 H336 0.929 . S
C348 C342 1.390 . S
C348 C345 1.386 . S
C349 C344 1.490 . S
C349 C351 1.395 . S
C349 C352 1.403 . S
H350 C356 0.930 . S
C351 H337 0.930 . S
C351 C349 1.395 . S
C351 C354 1.357 1_554 S
C352 C349 1.403 . S
C352 C353 1.524 . S
C352 C356 1.400 . S
C353 H338 0.960 . S
C353 H339 0.960 . S
C353 H340 0.960 . S
C353 C352 1.524 . S
C354 C351 1.357 1_556 S
C354 C355 1.378 1_556 S
C354 C358 1.556 . S
C355 C354 1.378 1_554 S
C355 C356 1.385 . S
C355 C357 1.478 1_554 S
C356 H350 0.930 . S
C356 C352 1.400 . S
C356 C355 1.385 . S
C357 C355 1.478 1_556 S
C357 C359 1.381 . S
C357 C363 1.383 . S
C358 C354 1.556 . S
C358 H364 0.959 . S
C358 H365 0.961 . S
C358 H366 0.960 . S
C359 C357 1.381 . S
C359 C360 1.394 . S
C359 H367 0.930 . S
C360 C359 1.394 . S
C360 C361 1.383 . S
C360 H368 0.929 . S
C361 C360 1.383 . S
C361 C362 1.377 . S
C362 H346 0.930 . S
C362 C361 1.377 . S
C362 C363 1.379 . S
C363 H347 0.972 . S
C363 C357 1.383 . S
C363 C362 1.379 . S
H364 C358 0.959 . S
H365 C358 0.961 . S
H366 C358 0.960 . S
H367 C359 0.930 . S
H368 C360 0.929 . S
H369 C377 0.929 . S
H370 C379 0.930 . S
H371 C381 0.930 . S
H372 C384 0.929 . S
H373 C387 0.930 . S
H374 C389 0.961 . S
H375 C389 0.958 . S
H376 C389 0.961 1_455 S
C377 H369 0.929 . S
C377 C378 1.377 1_655 S
C377 C379 1.384 . S
C378 C377 1.377 1_455 S
C378 C384 1.390 . S
C379 H370 0.930 . S
C379 C377 1.384 . S
C379 C380 1.372 1_655 S
C380 C379 1.372 1_455 S
C380 C381 1.400 . S
C380 C385 1.490 . S
C381 H371 0.930 . S
C381 C380 1.400 . S
C381 C384 1.386 . S
H382 C398 0.930 . S
H383 C399 0.931 . S
C384 H372 0.929 . S
C384 C378 1.390 . S
C384 C381 1.386 . S
C385 C380 1.490 . S
C385 C387 1.395 . S
C385 C388 1.403 . S
H386 C392 0.930 . S
C387 H373 0.930 . S
C387 C385 1.395 . S
C387 C390 1.403 . S
C388 C385 1.403 . S
C388 C389 1.524 1_455 S
C388 C392 1.400 . S
C389 H374 0.961 . S
C389 H375 0.958 . S
C389 H376 0.961 1_655 S
C389 C388 1.524 1_655 S
C390 C387 1.403 . S
C390 C391 1.392 . S
C390 C394 1.495 . S
C391 C390 1.392 . S
C391 C392 1.385 . S
C391 C393 1.478 . S
C392 H386 0.930 . S
C392 C388 1.400 . S
C392 C391 1.385 . S
C393 C391 1.478 . S
C393 C395 1.381 . S
C393 C399 1.383 . S
C394 C390 1.495 . S
C394 H400 0.959 . S
C394 H401 0.961 . S
C394 H402 0.960 . S
C395 C393 1.381 . S
C395 C396 1.394 . S
C395 H403 0.930 1_455 S
C396 C395 1.394 . S
C396 C397 1.383 . S
C396 H404 0.929 1_455 S
C397 C396 1.383 . S
C397 C398 1.377 . S
C398 H382 0.930 . S
C398 C397 1.377 . S
C398 C399 1.379 . S
C399 H383 0.931 . S
C399 C393 1.383 . S
C399 C398 1.379 . S
H400 C394 0.959 . S
H401 C394 0.961 . S
H402 C394 0.960 . S
H403 C395 0.930 1_655 S
H404 C396 0.929 1_655 S
H405 C413 0.929 . S
H406 C415 0.930 . S
H407 C417 0.930 . S
H408 C420 0.929 . S
H409 C423 0.930 . S
H410 C425 0.960 . S
H411 C425 0.960 . S
H412 C425 0.960 . S
C413 H405 0.929 . S
C413 C414 1.377 . S
C413 C415 1.384 . S
C414 C413 1.377 . S
C414 C420 1.390 . S
C415 H406 0.930 . S
C415 C413 1.384 . S
C415 C416 1.372 . S
C416 C415 1.372 . S
C416 C417 1.400 . S
C416 C421 1.490 . S
C417 H407 0.930 . S
C417 C416 1.400 . S
C417 C420 1.386 . S
H418 C434 0.930 . S
H419 C435 0.931 . S
C420 H408 0.929 . S
C420 C414 1.390 . S
C420 C417 1.386 . S
C421 C416 1.490 . S
C421 C423 1.395 . S
C421 C424 1.403 . S
H422 C428 0.930 . S
C423 H409 0.930 . S
C423 C421 1.395 . S
C423 C426 1.403 . S
C424 C421 1.403 . S
C424 C425 1.524 . S
C424 C428 1.400 . S
C425 H410 0.960 . S
C425 H411 0.960 . S
C425 H412 0.960 . S
C425 C424 1.524 . S
C426 C423 1.403 . S
C426 C427 1.392 . S
C426 C430 1.495 . S
C427 C426 1.392 . S
C427 C428 1.385 . S
C427 C429 1.478 . S
C428 H422 0.930 . S
C428 C424 1.400 . S
C428 C427 1.385 . S
C429 C427 1.478 . S
C429 C431 1.381 . S
C429 C435 1.383 . S
C430 C426 1.495 . S
C430 H436 0.959 . S
C430 H437 0.961 . S
C430 H438 0.960 . S
C431 C429 1.381 . S
C431 C432 1.394 . S
C431 H439 0.930 . S
C432 C431 1.394 . S
C432 C433 1.383 . S
C432 H440 0.929 . S
C433 C432 1.383 . S
C433 C434 1.377 . S
C434 H418 0.930 . S
C434 C433 1.377 . S
C434 C435 1.379 . S
C435 H419 0.931 . S
C435 C429 1.383 . S
C435 C434 1.379 . S
H436 C430 0.959 . S
H437 C430 0.961 . S
H438 C430 0.960 . S
H439 C431 0.930 . S
H440 C432 0.929 . S
H441 C449 0.929 . S
H442 C451 0.930 . S
H443 C453 0.930 . S
H444 C456 0.929 . S
H445 C459 0.930 . S
H446 C461 0.960 1_556 S
H447 C461 0.960 . S
H448 C461 0.960 . S
C449 H441 0.929 . S
C449 C450 1.377 . S
C449 C451 1.384 . S
C450 C449 1.377 . S
C450 C456 1.390 . S
C451 H442 0.930 . S
C451 C449 1.384 . S
C451 C452 1.372 . S
C452 C451 1.372 . S
C452 C453 1.400 . S
C452 C457 1.490 . S
C453 H443 0.930 . S
C453 C452 1.400 . S
C453 C456 1.386 . S
H454 C470 0.930 . S
H455 C471 0.931 . S
C456 H444 0.929 . S
C456 C450 1.390 . S
C456 C453 1.386 . S
C457 C452 1.490 . S
C457 C459 1.395 . S
C457 C460 1.403 . S
H458 C464 0.930 1_556 S
C459 H445 0.930 . S
C459 C457 1.395 . S
C459 C462 1.403 . S
C460 C457 1.403 . S
C460 C461 1.524 . S
C460 C464 1.400 . S
C461 H446 0.960 1_554 S
C461 H447 0.960 . S
C461 H448 0.960 . S
C461 C460 1.524 . S
C462 C459 1.403 . S
C462 C463 1.392 . S
C462 C466 1.495 . S
C463 C462 1.392 . S
C463 C464 1.385 . S
C463 C465 1.478 1_554 S
C464 H458 0.930 1_554 S
C464 C460 1.400 . S
C464 C463 1.385 . S
C465 C463 1.478 1_556 S
C465 C467 1.381 . S
C465 C471 1.383 . S
C466 C462 1.495 . S
C466 H472 0.959 . S
C466 H473 0.961 . S
C466 H474 0.960 . S
C467 C465 1.381 . S
C467 C468 1.394 . S
C467 H475 0.940 . S
C468 C467 1.394 . S
C468 C469 1.383 . S
C468 H476 0.929 . S
C469 C468 1.383 . S
C469 C470 1.377 . S
C470 H454 0.930 . S
C470 C469 1.377 . S
C470 C471 1.379 . S
C471 H455 0.931 . S
C471 C465 1.383 . S
C471 C470 1.379 . S
H472 C466 0.959 . S
H473 C466 0.961 . S
H474 C466 0.960 . S
H475 C467 0.940 . S
H476 C468 0.929 . S
H477 C485 0.929 . S
H478 C487 0.930 . S
H479 C489 0.930 1_655 S
H480 C492 0.929 . S
H481 C495 0.930 . S
H482 C497 0.960 . S
H483 C497 0.960 . S
H484 C497 0.960 . S
C485 H477 0.929 . S
C485 C486 1.377 . S
C485 C487 1.384 . S
C486 C485 1.377 . S
C486 C492 1.390 1_455 S
C487 H478 0.930 . S
C487 C485 1.384 . S
C487 C488 1.372 . S
C488 C487 1.372 . S
C488 C489 1.400 . S
C488 C493 1.490 . S
C489 H479 0.930 1_455 S
C489 C488 1.400 . S
C489 C492 1.386 1_455 S
H490 C506 0.930 1_655 S
H491 C507 0.931 1_655 S
C492 H480 0.929 . S
C492 C486 1.390 1_655 S
C492 C489 1.386 1_655 S
C493 C488 1.490 . S
C493 C495 1.395 . S
C493 C496 1.403 . S
H494 C500 0.930 . S
C495 H481 0.930 . S
C495 C493 1.395 . S
C495 C498 1.403 . S
C496 C493 1.403 . S
C496 C497 1.524 . S
C496 C500 1.400 . S
C497 H482 0.960 . S
C497 H483 0.960 . S
C497 H484 0.960 . S
C497 C496 1.524 . S
C498 C495 1.403 . S
C498 C499 1.392 . S
C498 C502 1.495 . S
C499 C498 1.392 . S
C499 C500 1.385 . S
C499 C501 1.478 . S
C500 H494 0.930 . S
C500 C496 1.400 . S
C500 C499 1.385 . S
C501 C499 1.478 . S
C501 C503 1.381 . S
C501 C507 1.383 . S
C502 C498 1.495 . S
C502 H508 0.959 . S
C502 H509 0.961 . S
C502 H510 0.960 . S
C503 C501 1.381 . S
C503 C504 1.394 . S
C503 H511 0.930 . S
C504 C503 1.394 . S
C504 C505 1.383 . S
C504 H512 0.929 . S
C505 C504 1.383 . S
C505 C506 1.377 . S
C506 H490 0.930 1_455 S
C506 C505 1.377 . S
C506 C507 1.379 . S
C507 H491 0.931 1_455 S
C507 C501 1.383 . S
C507 C506 1.379 . S
H508 C502 0.959 . S
H509 C502 0.961 . S
H510 C502 0.960 . S
H511 C503 0.930 . S
H512 C504 0.929 . S
C109 C47 1.359 . S
C90 C0 1.378 . S
C126 C25 1.472 . S
C145 C65 1.457 . S
C162 C33 1.500 1_565 S
C181 C78 1.481 . S
C198 C11 1.344 . S
C217 C45 1.318 . S
C253 C56 1.472 . S
C234 C14 1.477 . S
C270 C37 1.487 . S
C289 C69 1.490 . S
C325 C58 1.398 . S
C306 C28 1.395 . S
C342 C9 1.414 1_565 S
C361 C71 1.397 . S
C397 C52 1.511 . S
C378 C19 1.517 . S
C433 C60 1.384 . S
C414 C39 1.392 . S
C469 C73 1.402 . S
C450 C5 1.419 . S
C486 C23 1.537 . S
C505 C43 1.532 . S
