# Generated by pormake.
# Topology nia, (6,6)-cn, num edge types: 1
# Building blocks:
#     Node 0, Type 0, BuildingBlock: BETGAK_clean_sbu_0, # of connection points: 6
#     Node 1, Type 0, BuildingBlock: BETGAK_clean_sbu_0, # of connection points: 6
#     Node 2, Type 1, BuildingBlock: MIDCAF_clean_sbu_0, # of connection points: 6
#     Node 3, Type 1, BuildingBlock: MIDCAF_clean_sbu_0, # of connection points: 6
#     Edge 4, Type (0, 1), BuildingBlock: TEMPAE_clean_linker_10, # of connection points: 2
#     Edge 5, Type (0, 1), BuildingBlock: TEMPAE_clean_linker_10, # of connection points: 2
#     Edge 6, Type (0, 1), BuildingBlock: TEMPAE_clean_linker_10, # of connection points: 2
#     Edge 7, Type (0, 1), BuildingBlock: TEMPAE_clean_linker_10, # of connection points: 2
#     Edge 8, Type (0, 1), BuildingBlock: TEMPAE_clean_linker_10, # of connection points: 2
#     Edge 9, Type (0, 1), BuildingBlock: TEMPAE_clean_linker_10, # of connection points: 2
#     Edge 10, Type (0, 1), BuildingBlock: TEMPAE_clean_linker_10, # of connection points: 2
#     Edge 11, Type (0, 1), BuildingBlock: TEMPAE_clean_linker_10, # of connection points: 2
#     Edge 12, Type (0, 1), BuildingBlock: TEMPAE_clean_linker_10, # of connection points: 2
#     Edge 13, Type (0, 1), BuildingBlock: TEMPAE_clean_linker_10, # of connection points: 2
#     Edge 14, Type (0, 1), BuildingBlock: TEMPAE_clean_linker_10, # of connection points: 2
#     Edge 15, Type (0, 1), BuildingBlock: TEMPAE_clean_linker_10, # of connection points: 2
# Relax obj value: 0.322
# Max RMSD: 0.268
# Mean RMSD: 0.247
data_MOF--net-nia--node1-BETGAK_clean_sbu_0--node2-MIDCAF_clean_sbu_0--edge1-TEMPAE_clean_linker_10
_symmetry_space_group_name_H-M    P1
_symmetry_Int_Tables_number       1
_symmetry_cell_setting            triclinic
loop_
_symmetry_equiv_pos_as_xyz
'x, y, z'
_cell_length_a     25.337187
_cell_length_b     28.823889
_cell_length_c     33.831138
_cell_angle_alpha  68.864381
_cell_angle_beta   102.28681
_cell_angle_gamma 127.75952
loop_
_atom_site_label
_atom_site_type_symbol
_atom_site_fract_x
_atom_site_fract_y
_atom_site_fract_z
_atom_type_partial_charge
La0 La 0.09675 0.04053 0.05846 0.0
La1 La 0.98161 0.93485 1.02996 0.0
C2 C 0.2086 0.12396 0.07959 0.0
C3 C 0.2308 0.16644 0.10391 0.0
C4 C 0.23983 0.22286 0.08397 0.0
C5 C 0.25646 0.26081 0.10772 0.0
C6 C 0.26464 0.24322 0.1518 0.0
C7 C 0.25773 0.18779 0.17157 0.0
C8 C 0.24141 0.14995 0.1478 0.0
C9 C 0.98684 0.97832 0.10346 0.0
C10 C 0.99303 0.05702 1.00423 0.0
C11 C 0.87079 0.85376 1.00593 0.0
C12 C 0.8509 0.81508 0.97941 0.0
C13 C 0.89932 0.81758 0.96315 0.0
C14 C 0.8812 0.78412 0.93552 0.0
C15 C 0.81422 0.74723 0.92391 0.0
C16 C 0.76562 0.74442 0.9405 0.0
C17 C 0.784 0.77851 0.96792 0.0
C18 C 0.09353 -0.0019 0.98607 0.0
C19 C 0.08082 0.91516 0.08826 0.0
O20 O 0.1758 0.06579 0.10122 0.0
O21 O 0.18145 0.13258 0.04269 0.0
O22 O 0.03355 0.03644 0.09678 0.0
O23 O 1.00521 0.956 0.08853 0.0
O24 O 0.05785 0.08695 1.01097 0.0
O25 O 0.95279 -0.00356 1.01762 0.0
O26 O 0.90439 0.91249 0.98584 0.0
O27 O 0.89749 0.84252 0.04244 0.0
O28 O 0.04768 0.93994 0.99309 0.0
O29 O 0.07327 0.01957 1.00016 0.0
O30 O 0.01699 0.88616 0.07838 0.0
O31 O 0.12233 0.9758 0.07537 0.0
H32 H 0.23271 0.2372 0.05017 0.0
H33 H 0.26098 0.30314 0.09172 0.0
H34 H 0.26463 0.17361 0.20541 0.0
H35 H 0.23591 0.10718 0.16397 0.0
H36 H 0.95114 0.84546 0.9717 0.0
H37 H 0.91943 0.78604 0.92396 0.0
H38 H 0.71362 0.71612 0.93211 0.0
H39 H 0.74615 0.77661 0.97995 0.0
La40 La 1.00645 0.01282 0.55628 0.0
La41 La 0.07893 0.96705 0.5331 0.0
C42 C 0.98196 0.08012 0.56691 0.0
C43 C 0.97307 0.09725 0.59992 0.0
C44 C 0.92579 0.05321 0.63289 0.0
C45 C 0.91229 0.07174 0.66012 0.0
C46 C 0.94571 0.13459 0.65482 0.0
C47 C 0.99535 0.17831 0.62312 0.0
C48 C 1.00867 0.1598 0.59592 0.0
C49 C 0.95558 0.89474 0.59156 0.0
C50 C 0.95895 0.96238 0.478 0.0
C51 C 0.10856 0.89999 0.5292 0.0
C52 C 0.13032 0.89009 0.49801 0.0
C53 C 0.13118 0.91826 0.45429 0.0
C54 C 0.1551 0.9097 0.42568 0.0
C55 C 0.17898 0.87337 0.44055 0.0
C56 C 0.17691 0.84474 0.48438 0.0
C57 C 0.15289 0.85309 0.51275 0.0
C58 C 0.12176 0.08103 0.4849 0.0
C59 C 0.12893 0.02074 0.61198 0.0
O60 O 0.04229 0.09826 0.56138 0.0
O61 O 0.93569 0.0246 0.56367 0.0
O62 O 0.92233 0.91749 0.58548 0.0
O63 O 0.01591 0.93863 0.58262 0.0
O64 O 0.96693 0.00221 0.49387 0.0
O65 O 0.99087 0.93647 0.49288 0.0
O66 O 0.04728 0.88411 0.52591 0.0
O67 O 0.15178 0.95266 0.53743 0.0
O68 O 0.14534 0.05296 0.48229 0.0
O69 O 0.07767 0.04392 0.51318 0.0
O70 O 0.13225 -0.0077 0.59021 0.0
O71 O 0.08456 0.0332 0.60409 0.0
H72 H 0.89758 0.00458 0.63675 0.0
H73 H 0.87342 0.03688 0.68398 0.0
H74 H 0.02275 0.22702 0.61859 0.0
H75 H 0.04537 0.19459 0.57074 0.0
H76 H 0.11404 0.94721 0.44243 0.0
H77 H 0.15612 0.93235 0.39212 0.0
H78 H 0.19358 0.81544 0.49682 0.0
H79 H 0.15241 0.83092 0.54638 0.0
Zn80 Zn 0.39385 0.68524 0.20439 0.0
Zn81 Zn 0.39859 0.64941 0.3652 0.0
Zn82 Zn 0.40215 0.6708 0.28481 0.0
C83 C 0.53366 0.73046 0.34002 0.0
C84 C 0.33567 0.53529 0.35955 0.0
O85 O 0.34426 0.71065 0.25283 0.0
O86 O 0.34623 0.72268 0.18468 0.0
C87 C 0.53032 0.75219 0.2218 0.0
O88 O 0.50846 0.72647 0.30302 0.0
O89 O 0.49597 0.70105 0.37207 0.0
O90 O 0.35326 0.56058 0.38806 0.0
O91 O 0.34918 0.56852 0.32023 0.0
O92 O 0.49018 0.73909 0.19151 0.0
O93 O 0.50762 0.73141 0.2597 0.0
O94 O 0.35436 0.58049 0.27661 0.0
O95 O 0.34412 0.59843 0.20703 0.0
C96 C 0.33567 0.56169 0.24363 0.0
O97 O 0.35144 0.70693 0.29602 0.0
O98 O 0.34887 0.68115 0.36599 0.0
C99 C 0.32844 0.7277 0.21407 0.0
C100 C 0.33534 0.70587 0.33023 0.0
Zn101 Zn 0.69269 0.30089 0.88607 0.0
Zn102 Zn 0.67663 0.32362 0.72666 0.0
Zn103 Zn 0.68057 0.31051 0.80575 0.0
C104 C 0.74972 0.44208 0.72819 0.0
C105 C 0.54503 0.25189 0.75344 0.0
O106 O 0.73941 0.27192 0.83804 0.0
O107 O 0.75138 0.2744 0.90413 0.0
C108 C 0.74133 0.42227 0.84263 0.0
O109 O 0.7333 0.41163 0.76774 0.0
O110 O 0.7331 0.41354 0.70189 0.0
O111 O 0.58011 0.28213 0.72011 0.0
O112 O 0.57311 0.25364 0.78994 0.0
O113 O 0.7329 0.38709 0.87989 0.0
O114 O 0.72618 0.40228 0.81055 0.0
O115 O 0.57678 0.24992 0.83332 0.0
O116 O 0.59645 0.24022 0.90165 0.0
C117 C 0.55526 0.22768 0.87175 0.0
O118 O 0.73211 0.27463 0.79514 0.0
O119 O 0.71108 0.27767 0.72768 0.0
C120 C 0.763 0.26297 0.8757 0.0
C121 C 0.73565 0.26354 0.76243 0.0
C122 C 0.08077 0.8219 0.11266 0.0
C123 C 0.10796 0.88063 0.11417 0.0
C124 C 0.11151 0.79237 0.13404 0.0
C125 C 0.16978 0.82189 0.158 0.0
C126 C 0.19418 0.87909 0.16208 0.0
C127 C 0.16363 0.90815 0.13965 0.0
C128 C 0.08374 0.7311 0.12929 0.0
C129 C 0.25437 0.91085 0.18871 0.0
C130 C 0.23915 0.73326 0.22832 0.0
C131 C 0.29012 0.75392 0.2023 0.0
C132 C 0.19973 0.75532 0.21485 0.0
C133 C 0.21054 0.79763 0.1739 0.0
C134 C 0.26204 0.81843 0.14764 0.0
C135 C 0.30124 0.79663 0.16224 0.0
C136 C 0.14542 0.73144 0.24407 0.0
C137 C 0.27532 0.86328 0.10373 0.0
H138 H 0.03744 0.80033 0.09324 0.0
H139 H 0.18396 0.95302 0.14171 0.0
H140 H 0.12024 0.7362 0.11176 0.0
H141 H 0.07583 0.6975 0.16095 0.0
H142 H 0.03573 0.71226 0.112 0.0
H143 H 0.25964 0.94877 0.19498 0.0
H144 H 0.25087 0.87737 0.21939 0.0
H145 H 0.30018 0.93025 0.17212 0.0
H146 H 0.22861 0.69848 0.25857 0.0
H147 H 0.34045 0.81257 0.14188 0.0
H148 H 0.09891 0.68917 0.23814 0.0
H149 H 0.13478 0.76523 0.23885 0.0
H150 H 0.15888 0.71918 0.2778 0.0
H151 H 0.2293 0.84458 0.08454 0.0
H152 H 0.31582 0.87324 0.08679 0.0
H153 H 0.28961 0.90721 0.10577 0.0
C154 C 0.23485 0.04232 0.6485 0.0
C155 C 0.17721 0.03954 0.64653 0.0
C156 C 0.28615 0.06874 0.67667 0.0
C157 C 0.27924 0.09217 0.70403 0.0
C158 C 0.21849 0.08401 0.70515 0.0
C159 C 0.16836 0.05845 0.67596 0.0
C160 C 0.35014 0.07647 0.67437 0.0
C161 C 0.2082 0.10574 0.73533 0.0
C162 C 0.43063 0.15384 0.77438 0.0
C163 C 0.47204 0.21443 0.74851 0.0
C164 C 0.3641 0.11422 0.76285 0.0
C165 C 0.34 0.13567 0.72409 0.0
C166 C 0.38014 0.19841 0.70011 0.0
C167 C 0.44544 0.23699 0.71284 0.0
C168 C 0.32183 0.04849 0.7904 0.0
C169 C 0.3568 0.22363 0.6586 0.0
H170 H 0.24186 0.0272 0.62627 0.0
H171 H 0.1232 0.05509 0.67536 0.0
H172 H 0.39064 0.12593 0.66085 0.0
H173 H 0.36558 0.06036 0.70651 0.0
H174 H 0.34525 0.05082 0.65433 0.0
H175 H 0.15497 0.0869 0.73737 0.0
H176 H 0.22556 0.0921 0.76749 0.0
H177 H 0.23813 0.15665 0.72452 0.0
H178 H 0.45121 0.13642 0.80207 0.0
H179 H 0.47742 0.28419 0.69316 0.0
H180 H 0.32552 0.01943 0.77845 0.0
H181 H 0.26852 0.03046 0.78976 0.0
H182 H 0.33915 0.04403 0.82374 0.0
H183 H 0.35185 0.20284 0.63485 0.0
H184 H 0.39204 0.2744 0.64572 0.0
H185 H 0.30709 0.21159 0.66257 0.0
C186 C 0.32422 0.3456 0.16252 0.0
C187 C 0.27759 0.28173 0.17702 0.0
C188 C 0.33111 0.38353 0.18284 0.0
C189 C 0.29026 0.35678 0.21853 0.0
C190 C 0.24604 0.2921 0.23494 0.0
C191 C 0.24014 0.25517 0.2139 0.0
C192 C 0.37951 0.45242 0.16461 0.0
C193 C 0.20276 0.26213 0.27334 0.0
C194 C 0.34722 0.47606 0.27067 0.0
C195 C 0.31152 0.49939 0.24701 0.0
C196 C 0.33662 0.42516 0.26482 0.0
C197 C 0.28896 0.39732 0.23491 0.0
C198 C 0.24794 0.41687 0.21452 0.0
C199 C 0.26031 0.46827 0.22049 0.0
C200 C 0.38159 0.40604 0.2871 0.0
C201 C 0.19566 0.38767 0.18299 0.0
H202 H 0.35412 0.36603 0.13451 0.0
H203 H 0.20396 0.20569 0.22515 0.0
H204 H 0.35146 0.47273 0.15172 0.0
H205 H 0.41263 0.47299 0.18976 0.0
H206 H 0.41104 0.46553 0.13878 0.0
H207 H 0.17649 0.21152 0.28483 0.0
H208 H 0.23351 0.28168 0.29935 0.0
H209 H 0.16493 0.27175 0.26552 0.0
H210 H 0.38707 0.50052 0.29109 0.0
H211 H 0.23257 0.4864 0.20247 0.0
H212 H 0.42569 0.43114 0.26659 0.0
H213 H 0.35589 0.35609 0.29352 0.0
H214 H 0.39984 0.41756 0.31746 0.0
H215 H 0.22059 0.4013 0.15348 0.0
H216 H 0.16186 0.40209 0.17478 0.0
H217 H 0.16516 0.33683 0.19566 0.0
C218 C 0.91703 0.20181 0.65898 0.0
C219 C 0.92482 0.15453 0.67959 0.0
C220 C 0.89155 0.21783 0.68049 0.0
C221 C 0.87303 0.18572 0.72381 0.0
C222 C 0.88348 0.13977 0.74534 0.0
C223 C 0.90905 0.12456 0.72295 0.0
C224 C 0.88144 0.26724 0.65618 0.0
C225 C 0.86629 0.10581 0.79171 0.0
C226 C 0.83608 0.26312 0.77269 0.0
C227 C 0.76806 0.23456 0.76375 0.0
C228 C 0.87063 0.24435 0.76323 0.0
C229 C 0.83602 0.19611 0.74443 0.0
C230 C 0.76606 0.16381 0.73905 0.0
C231 C 0.73314 0.18386 0.74838 0.0
C232 C 0.94502 0.27999 0.76981 0.0
C233 C 0.72673 0.1114 0.71992 0.0
H234 H 0.92822 0.22475 0.62539 0.0
H235 H 0.916 0.08869 0.73927 0.0
H236 H 0.82726 0.24655 0.6538 0.0
H237 H 0.90471 0.30203 0.67317 0.0
H238 H 0.90299 0.29095 0.62363 0.0
H239 H 0.87879 0.07231 0.80412 0.0
H240 H 0.89395 0.13922 0.81016 0.0
H241 H 0.81219 0.08078 0.7969 0.0
H242 H 0.86315 0.30268 0.78432 0.0
H243 H 0.68043 0.16186 0.7415 0.0
H244 H 0.97077 0.31708 0.74006 0.0
H245 H 0.96209 0.25028 0.77783 0.0
H246 H 0.96038 0.30167 0.79532 0.0
H247 H 0.73971 0.12967 0.68576 0.0
H248 H 0.672 0.08623 0.72293 0.0
H249 H 0.73954 0.07841 0.73535 0.0
C250 C 0.87355 0.88217 0.13022 0.0
C251 C 0.9248 0.94365 0.12807 0.0
C252 C 0.81269 0.85069 0.15099 0.0
C253 C 0.80315 0.88128 0.17041 0.0
C254 C 0.85611 0.94251 0.16996 0.0
C255 C 0.91605 0.97304 0.14858 0.0
C256 C 0.75749 0.78558 0.15048 0.0
C257 C 0.84873 0.97632 0.19109 0.0
C258 C 0.62534 0.83076 0.17076 0.0
C259 C 0.60267 0.79046 0.21187 0.0
C260 C 0.69067 0.86136 0.15744 0.0
C261 C 0.73536 0.85224 0.18604 0.0
C262 C 0.71398 0.81396 0.22833 0.0
C263 C 0.64745 0.78272 0.24057 0.0
C264 C 0.71109 0.90197 0.11217 0.0
C265 C 0.76027 0.80393 0.26019 0.0
H266 H 0.88026 0.85921 0.11459 0.0
H267 H 0.95585 0.02043 0.1474 0.0
H268 H 0.73815 0.75536 0.1831 0.0
H269 H 0.71539 0.78418 0.13132 0.0
H270 H 0.77432 0.76671 0.13694 0.0
H271 H 0.89524 0.02314 0.18904 0.0
H272 H 0.80774 0.98042 0.17619 0.0
H273 H 0.83516 0.9499 0.22497 0.0
H274 H 0.59112 0.83718 0.14836 0.0
H275 H 0.62991 0.75054 0.272 0.0
H276 H 0.72453 0.88354 0.09557 0.0
H277 H 0.75591 0.94898 0.11152 0.0
H278 H 0.67082 0.90532 0.0942 0.0
H279 H 0.76509 0.77165 0.2536 0.0
H280 H 0.74127 0.78415 0.29317 0.0
H281 H 0.81089 0.84765 0.25777 0.0
C282 C 0.9687 0.80898 0.61922 0.0
C283 C 0.93009 0.83013 0.6154 0.0
C284 C 0.94341 0.74697 0.64003 0.0
C285 C 0.87911 0.70574 0.65917 0.0
C286 C 0.84186 0.72803 0.65776 0.0
C287 C 0.8671 0.7895 0.63514 0.0
C288 C 0.98483 0.72529 0.64071 0.0
C289 C 0.77498 0.68669 0.6799 0.0
C290 C 0.77433 0.53563 0.6694 0.0
C291 C 0.78414 0.50977 0.71171 0.0
C292 C 0.80612 0.59917 0.65198 0.0
C293 C 0.8482 0.63843 0.67757 0.0
C294 C 0.85898 0.61282 0.7203 0.0
C295 C 0.82768 0.54891 0.73658 0.0
C296 C 0.7948 0.6243 0.60593 0.0
C297 C 0.90454 0.65228 0.74891 0.0
H298 H 0.01832 0.84066 0.60535 0.0
H299 H 0.83757 0.80586 0.63321 0.0
H300 H 0.99588 0.7076 0.67395 0.0
H301 H 0.95639 0.68684 0.62661 0.0
H302 H 0.03276 0.76253 0.62302 0.0
H303 H 0.73739 0.65274 0.66283 0.0
H304 H 0.7783 0.66067 0.71254 0.0
H305 H 0.75717 0.71286 0.68155 0.0
H306 H 0.74128 0.50596 0.64966 0.0
H307 H 0.83827 0.52986 0.76852 0.0
H308 H 0.84342 0.661 0.589 0.0
H309 H 0.76882 0.64522 0.60347 0.0
H310 H 0.76439 0.58821 0.58957 0.0
H311 H 0.95496 0.66396 0.74782 0.0
H312 H 0.88655 0.62696 0.78228 0.0
H313 H 0.90928 0.69575 0.73931 0.0
C314 C 0.17154 0.84923 0.37419 0.0
C315 C 0.20573 0.86422 0.41114 0.0
C316 C 0.1912 0.83111 0.35011 0.0
C317 C 0.24589 0.82761 0.36352 0.0
C318 C 0.2837 0.84761 0.39878 0.0
C319 C 0.26327 0.8658 0.42201 0.0
C320 C 0.15125 0.81236 0.31182 0.0
C321 C 0.34298 0.84555 0.41396 0.0
C322 C 0.2491 0.70118 0.35795 0.0
C323 C 0.30184 0.73368 0.32945 0.0
C324 C 0.22613 0.73031 0.36621 0.0
C325 C 0.25746 0.79394 0.3459 0.0
C326 C 0.30702 0.8258 0.31431 0.0
C327 C 0.32866 0.79509 0.30635 0.0
C328 C 0.17253 0.69409 0.39969 0.0
C329 C 0.34169 0.89347 0.29171 0.0
H330 H 0.12734 0.84843 0.36537 0.0
H331 H 0.29105 0.8791 0.44982 0.0
H332 H 0.12252 0.76189 0.31873 0.0
H333 H 0.11573 0.82487 0.30242 0.0
H334 H 0.18518 0.83458 0.28469 0.0
H335 H 0.37074 0.86815 0.43923 0.0
H336 H 0.32568 0.79697 0.42669 0.0
H337 H 0.37785 0.8684 0.38724 0.0
H338 H 0.22818 0.65351 0.3756 0.0
H339 H 0.36968 0.82027 0.28437 0.0
H340 H 0.13359 0.70212 0.38825 0.0
H341 H 0.1949 0.70962 0.42838 0.0
H342 H 0.14825 0.64391 0.40892 0.0
H343 H 0.30776 0.90709 0.28719 0.0
H344 H 0.36159 0.90622 0.26035 0.0
H345 H 0.38442 0.92019 0.31097 0.0
C346 C 0.16803 0.00415 0.94343 0.0
C347 C 0.15698 0.03325 0.96274 0.0
C348 C 0.2292 0.03521 0.92326 0.0
C349 C 0.2812 0.09658 0.92304 0.0
C350 C 0.26947 0.12678 0.94134 0.0
C351 C 0.20729 0.09491 0.96063 0.0
C352 C 0.23878 0.00188 0.90305 0.0
C353 C 0.32351 0.19203 0.94205 0.0
C354 C 0.46056 0.14973 0.92356 0.0
C355 C 0.48304 0.18958 0.88232 0.0
C356 C 0.39496 0.11872 0.93677 0.0
C357 C 0.34977 0.12679 0.90791 0.0
C358 C 0.37121 0.16503 0.86565 0.0
C359 C 0.43799 0.19695 0.85364 0.0
C360 C 0.37464 0.0786 0.98212 0.0
C361 C 0.32454 0.17404 0.83346 0.0
H362 H 0.12898 0.95665 0.94449 0.0
H363 H 0.19873 0.11777 0.97506 0.0
H364 H 0.25519 0.02906 0.86958 0.0
H365 H 0.2786 -0.00305 0.91967 0.0
H366 H 0.19239 0.95545 0.90388 0.0
H367 H 0.3055 0.21007 0.95548 0.0
H368 H 0.36587 0.19417 0.96138 0.0
H369 H 0.34296 0.22251 0.90951 0.0
H370 H 0.49501 0.14385 0.94607 0.0
H371 H 0.45546 0.22934 0.8223 0.0
H372 H 0.33075 0.03116 0.98296 0.0
H373 H 0.35974 0.09651 0.99817 0.0
H374 H 0.41547 0.07652 1.00045 0.0
H375 H 0.27458 0.12975 0.8356 0.0
H376 H 0.34415 0.19442 0.80059 0.0
H377 H 0.31801 0.20532 0.83996 0.0
C378 C 0.11451 0.16975 0.46468 0.0
C379 C 0.14643 0.14535 0.46118 0.0
C380 C 0.1412 0.23223 0.44479 0.0
C381 C 0.2004 0.27082 0.41999 0.0
C382 C 0.23046 0.24528 0.41438 0.0
C383 C 0.20342 0.18304 0.43527 0.0
C384 C 0.10739 0.25741 0.45151 0.0
C385 C 0.29296 0.2841 0.38787 0.0
C386 C 0.25237 0.43049 0.34863 0.0
C387 C 0.30195 0.46789 0.37301 0.0
C388 C 0.21928 0.36627 0.36299 0.0
C389 C 0.23456 0.33874 0.4034 0.0
C390 C 0.28398 0.37645 0.42827 0.0
C391 C 0.31716 0.44029 0.4127 0.0
C392 C 0.16703 0.32829 0.33518 0.0
C393 C 0.30154 0.34935 0.47166 0.0
H394 H 0.06911 0.14021 0.48334 0.0
H395 H 0.2279 0.16424 0.43197 0.0
H396 H 0.14208 0.29357 0.46747 0.0
H397 H 0.09456 0.27916 0.42048 0.0
H398 H 0.06114 0.22123 0.47109 0.0
H399 H 0.29871 0.25562 0.37663 0.0
H400 H 0.29277 0.31921 0.36005 0.0
H401 H 0.33709 0.30849 0.40722 0.0
H402 H 0.23828 0.45111 0.31884 0.0
H403 H 0.35516 0.46883 0.43192 0.0
H404 H 0.11738 0.31201 0.34409 0.0
H405 H 0.16504 0.28736 0.33907 0.0
H406 H 0.17637 0.35583 0.30122 0.0
H407 H 0.25605 0.31449 0.49199 0.0
H408 H 0.33914 0.38476 0.48773 0.0
H409 H 0.32172 0.32565 0.4689 0.0
C410 C 0.99466 0.14265 0.94759 0.0
C411 C 0.96341 0.09062 0.98293 0.0
C412 C 0.96385 0.1719 0.92554 0.0
C413 C 0.90174 0.14991 0.94023 0.0
C414 C 0.87048 0.09763 0.97622 0.0
C415 C 0.90122 0.0681 0.99671 0.0
C416 C 0.99678 0.22536 0.88599 0.0
C417 C 0.80476 0.07309 0.99332 0.0
C418 C 0.85464 0.2592 0.91681 0.0
C419 C 0.8035 0.239 0.88719 0.0
C420 C 0.88832 0.23186 0.9332 0.0
C421 C 0.87084 0.18318 0.91945 0.0
C422 C 0.82071 0.16396 0.88837 0.0
C423 C 0.78716 0.19175 0.87293 0.0
C424 C 0.94028 0.25302 0.96688 0.0
C425 C 0.79916 0.11173 0.873 0.0
H426 H 0.04212 0.15925 0.93643 0.0
H427 H 0.87699 0.02771 1.02403 0.0
H428 H 0.96207 0.21466 0.85901 0.0
H429 H 1.00755 0.26698 0.88992 0.0
H430 H 0.04405 0.2359 0.87796 0.0
H431 H 0.78818 0.03324 1.02244 0.0
H432 H 0.8091 0.10981 1.00072 0.0
H433 H 0.76564 0.05854 0.96897 0.0
H434 H 0.86709 0.29552 0.92815 0.0
H435 H 0.74604 0.17444 0.85127 0.0
H436 H 0.98814 0.26644 0.95722 0.0
H437 H 0.92369 0.21464 0.99686 0.0
H438 H 0.94947 0.29267 0.97318 0.0
H439 H 0.83956 0.10633 0.87545 0.0
H440 H 0.78231 0.11858 0.83962 0.0
H441 H 0.75621 0.06828 0.89258 0.0
C442 C 0.85729 0.94902 0.43922 0.0
C443 C 0.90965 0.94346 0.44397 0.0
C444 C 0.80383 0.92201 0.4123 0.0
C445 C 0.80338 0.88968 0.38893 0.0
C446 C 0.85945 0.88948 0.39027 0.0
C447 C 0.91161 0.91561 0.4183 0.0
C448 C 0.74493 0.92312 0.41206 0.0
C449 C 0.8622 0.85813 0.3642 0.0
C450 C 0.63014 0.7474 0.38573 0.0
C451 C 0.6063 0.76786 0.34715 0.0
C452 C 0.69567 0.78556 0.39833 0.0
C453 C 0.73918 0.84575 0.37132 0.0
C454 C 0.71724 0.86493 0.33061 0.0
C455 C 0.65038 0.82589 0.31917 0.0
C456 C 0.71652 0.76281 0.44203 0.0
C457 C 0.76275 0.92775 0.30019 0.0
H458 H 0.8557 0.97091 0.45867 0.0
H459 H 0.95284 0.91249 0.42108 0.0
H460 H 0.72956 0.93627 0.37912 0.0
H461 H 0.70189 0.8764 0.42857 0.0
H462 H 0.75602 0.95562 0.42818 0.0
H463 H 0.91292 0.87001 0.36376 0.0
H464 H 0.82663 0.80754 0.37746 0.0
H465 H 0.84701 0.87118 0.33115 0.0
H466 H 0.59626 0.70212 0.40718 0.0
H467 H 0.63196 0.84188 0.28936 0.0
H468 H 0.72683 0.79073 0.462 0.0
H469 H 0.76308 0.76798 0.44009 0.0
H470 H 0.67757 0.71377 0.45818 0.0
H471 H 0.76363 0.96202 0.30859 0.0
H472 H 0.74513 0.92915 0.26704 0.0
H473 H 0.81463 0.94164 0.30193 0.0
C474 C 0.83321 0.73256 0.86113 0.0
C475 C 0.79531 0.70835 0.89727 0.0
C476 C 0.82402 0.69378 0.84048 0.0
C477 C 0.77669 0.62953 0.85693 0.0
C478 C 0.7343 0.60554 0.89107 0.0
C479 C 0.74405 0.64538 0.91078 0.0
C480 C 0.8681 0.72109 0.80309 0.0
C481 C 0.68273 0.53723 0.90935 0.0
C482 C 0.72695 0.50629 0.81081 0.0
C483 C 0.7624 0.48425 0.83737 0.0
C484 C 0.73488 0.55746 0.81406 0.0
C485 C 0.77938 0.5867 0.84444 0.0
C486 C 0.81989 0.56798 0.86824 0.0
C487 C 0.81044 0.51657 0.86462 0.0
C488 C 0.69102 0.57607 0.78794 0.0
C489 C 0.869 0.59865 0.90039 0.0
H490 H 0.87199 0.78156 0.85013 0.0
H491 H 0.7147 0.62661 0.93871 0.0
H492 H 0.90596 0.71148 0.81297 0.0
H493 H 0.83812 0.6998 0.77759 0.0
H494 H 0.89453 0.77166 0.79008 0.0
H495 H 0.64881 0.5267 0.93241 0.0
H496 H 0.65228 0.51635 0.88377 0.0
H497 H 0.70826 0.51508 0.92584 0.0
H498 H 0.68957 0.48094 0.78981 0.0
H499 H 0.83807 0.49948 0.88487 0.0
H500 H 0.71654 0.62627 0.77983 0.0
H501 H 0.64527 0.55218 0.80646 0.0
H502 H 0.67546 0.56281 0.75824 0.0
H503 H 0.90133 0.64928 0.88615 0.0
H504 H 0.90134 0.58272 0.91291 0.0
H505 H 0.8414 0.5883 0.92738 0.0
loop_
_geom_bond_atom_site_label_1
_geom_bond_atom_site_label_2
_geom_bond_distance
_geom_bond_site_symmetry_2
_ccdc_geom_bond_type
La0 C2 2.928 . S
La0 O20 2.521 . S
La0 O21 2.628 . S
La0 O22 2.554 1_445 S
La0 O23 2.757 1_445 S
La0 O24 2.470 . S
La0 O29 2.482 1_554 S
La0 O31 2.503 1_545 S
La1 C11 2.928 . S
La1 O23 2.482 1_556 S
La1 O25 2.503 1_565 S
La1 O26 2.521 . S
La1 O27 2.628 . S
La1 O28 2.554 1_665 S
La1 O29 2.757 1_665 S
La1 O30 2.470 1_656 S
C2 La0 2.928 . S
C2 C3 1.503 . S
C2 O20 1.261 . S
C2 O21 1.243 . S
C3 C2 1.503 . S
C3 C4 1.394 . S
C3 C8 1.373 . S
C4 C3 1.394 . S
C4 C5 1.380 . S
C4 H32 0.930 . S
C5 C4 1.380 . S
C5 C6 1.376 . S
C5 H33 0.930 . S
C6 C5 1.376 . S
C6 C7 1.370 . S
C7 C6 1.370 . S
C7 C8 1.396 . S
C7 H34 0.929 . S
C8 C3 1.373 . S
C8 C7 1.396 . S
C8 H35 0.929 . S
C9 O22 1.240 . S
C9 O23 1.289 . S
C10 O24 1.258 1_656 S
C10 O25 1.256 . S
C11 La1 2.928 . S
C11 C12 1.503 . S
C11 O26 1.261 . S
C11 O27 1.243 . S
C12 C11 1.503 . S
C12 C13 1.394 . S
C12 C17 1.373 . S
C13 C12 1.394 . S
C13 C14 1.380 . S
C13 H36 0.930 . S
C14 C13 1.380 . S
C14 C15 1.376 . S
C14 H37 0.930 . S
C15 C14 1.376 . S
C15 C16 1.370 . S
C16 C15 1.370 . S
C16 C17 1.396 . S
C16 H38 0.929 . S
C17 C12 1.373 . S
C17 C16 1.396 . S
C17 H39 0.929 1_556 S
C18 O28 1.240 . S
C18 O29 1.289 . S
C19 O30 1.258 . S
C19 O31 1.256 . S
O20 La0 2.521 . S
O20 C2 1.261 . S
O21 La0 2.628 . S
O21 C2 1.243 . S
O22 La0 2.554 1_665 S
O22 C9 1.240 . S
O23 La0 2.757 1_665 S
O23 La1 2.482 1_554 S
O23 C9 1.289 . S
O24 La0 2.470 . S
O24 C10 1.258 1_454 S
O25 La1 2.503 1_545 S
O25 C10 1.256 . S
O26 La1 2.521 . S
O26 C11 1.261 . S
O27 La1 2.628 . S
O27 C11 1.243 . S
O28 La1 2.554 1_445 S
O28 C18 1.240 . S
O29 La0 2.482 1_556 S
O29 La1 2.757 1_445 S
O29 C18 1.289 . S
O30 La1 2.470 1_454 S
O30 C19 1.258 . S
O31 La0 2.503 1_565 S
O31 C19 1.256 . S
H32 C4 0.930 . S
H33 C5 0.930 . S
H34 C7 0.929 . S
H35 C8 0.929 . S
H36 C13 0.930 . S
H37 C14 0.930 . S
H38 C16 0.929 . S
H39 C17 0.929 1_554 S
La40 C42 2.928 1_455 S
La40 O60 2.521 1_455 S
La40 O61 2.628 1_455 S
La40 O62 2.554 1_445 S
La40 O63 2.757 1_545 S
La40 O64 2.470 1_445 S
La40 O69 2.482 . S
La40 O71 2.503 . S
La41 C51 2.928 . S
La41 O63 2.482 . S
La41 O65 2.503 1_455 S
La41 O66 2.521 1_565 S
La41 O67 2.628 . S
La41 O68 2.554 1_565 S
La41 O69 2.757 1_565 S
La41 O70 2.470 1_565 S
C42 La40 2.928 1_655 S
C42 C43 1.503 . S
C42 O60 1.261 . S
C42 O61 1.243 . S
C43 C42 1.503 . S
C43 C44 1.394 . S
C43 C48 1.373 . S
C44 C43 1.394 . S
C44 C45 1.380 . S
C44 H72 0.930 . S
C45 C44 1.380 . S
C45 C46 1.376 . S
C45 H73 0.930 . S
C46 C45 1.376 . S
C46 C47 1.370 . S
C47 C46 1.370 . S
C47 C48 1.396 . S
C47 H74 0.929 . S
C48 C43 1.373 . S
C48 C47 1.396 . S
C48 H75 0.929 . S
C49 O62 1.240 . S
C49 O63 1.289 1_655 S
C50 O64 1.258 . S
C50 O65 1.256 . S
C51 La41 2.928 . S
C51 C52 1.503 . S
C51 O66 1.261 1_565 S
C51 O67 1.243 . S
C52 C51 1.503 . S
C52 C53 1.394 . S
C52 C57 1.373 . S
C53 C52 1.394 . S
C53 C54 1.380 . S
C53 H76 0.930 1_565 S
C54 C53 1.380 . S
C54 C55 1.376 . S
C54 H77 0.930 1_565 S
C55 C54 1.376 . S
C55 C56 1.370 . S
C56 C55 1.370 . S
C56 C57 1.396 . S
C56 H78 0.929 . S
C57 C52 1.373 . S
C57 C56 1.396 . S
C57 H79 0.929 . S
C58 O68 1.240 . S
C58 O69 1.289 . S
C59 O70 1.258 . S
C59 O71 1.256 . S
O60 La40 2.521 1_655 S
O60 C42 1.261 . S
O61 La40 2.628 1_655 S
O61 C42 1.243 . S
O62 La40 2.554 1_665 S
O62 C49 1.240 . S
O63 La40 2.757 1_565 S
O63 La41 2.482 . S
O63 C49 1.289 1_455 S
O64 La40 2.470 1_665 S
O64 C50 1.258 . S
O65 La41 2.503 1_655 S
O65 C50 1.256 . S
O66 La41 2.521 1_545 S
O66 C51 1.261 1_545 S
O67 La41 2.628 . S
O67 C51 1.243 . S
O68 La41 2.554 1_545 S
O68 C58 1.240 . S
O69 La40 2.482 . S
O69 La41 2.757 1_545 S
O69 C58 1.289 . S
O70 La41 2.470 1_545 S
O70 C59 1.258 . S
O71 La40 2.503 . S
O71 C59 1.256 . S
H72 C44 0.930 . S
H73 C45 0.930 . S
H74 C47 0.929 . S
H75 C48 0.929 . S
H76 C53 0.930 1_545 S
H77 C54 0.930 1_545 S
H78 C56 0.929 . S
H79 C57 0.929 . S
Zn80 O86 1.920 . S
Zn80 O92 1.898 . S
Zn80 O95 1.905 . S
Zn81 O89 1.905 . S
Zn81 O90 1.898 . S
Zn81 O98 1.920 . S
Zn82 O85 2.080 . S
Zn82 O88 2.114 . S
Zn82 O91 2.120 . S
Zn82 O93 2.120 . S
Zn82 O94 2.114 . S
Zn82 O97 2.080 . S
C83 O88 1.166 . S
C83 O89 1.182 . S
C84 O90 1.167 . S
C84 O91 1.299 . S
O85 Zn82 2.080 . S
O85 C99 1.305 . S
O86 Zn80 1.920 . S
O86 C99 1.234 . S
C87 O92 1.167 . S
C87 O93 1.299 . S
O88 Zn82 2.114 . S
O88 C83 1.166 . S
O89 Zn81 1.905 . S
O89 C83 1.182 . S
O90 Zn81 1.898 . S
O90 C84 1.167 . S
O91 Zn82 2.120 . S
O91 C84 1.299 . S
O92 Zn80 1.898 . S
O92 C87 1.167 . S
O93 Zn82 2.120 . S
O93 C87 1.299 . S
O94 Zn82 2.114 . S
O94 C96 1.166 . S
O95 Zn80 1.905 . S
O95 C96 1.182 . S
C96 O94 1.166 . S
C96 O95 1.182 . S
O97 Zn82 2.080 . S
O97 C100 1.305 . S
O98 Zn81 1.920 . S
O98 C100 1.234 . S
C99 O85 1.305 . S
C99 O86 1.234 . S
C100 O97 1.305 . S
C100 O98 1.234 . S
Zn101 O107 1.920 . S
Zn101 O113 1.898 . S
Zn101 O116 1.905 . S
Zn102 O110 1.905 . S
Zn102 O111 1.898 . S
Zn102 O119 1.920 . S
Zn103 O106 2.080 . S
Zn103 O109 2.114 . S
Zn103 O112 2.120 . S
Zn103 O114 2.120 . S
Zn103 O115 2.114 . S
Zn103 O118 2.080 . S
C104 O109 1.166 . S
C104 O110 1.182 . S
C105 O111 1.167 . S
C105 O112 1.299 . S
O106 Zn103 2.080 . S
O106 C120 1.305 . S
O107 Zn101 1.920 . S
O107 C120 1.234 . S
C108 O113 1.167 . S
C108 O114 1.299 . S
O109 Zn103 2.114 . S
O109 C104 1.166 . S
O110 Zn102 1.905 . S
O110 C104 1.182 . S
O111 Zn102 1.898 . S
O111 C105 1.167 . S
O112 Zn103 2.120 . S
O112 C105 1.299 . S
O113 Zn101 1.898 . S
O113 C108 1.167 . S
O114 Zn103 2.120 . S
O114 C108 1.299 . S
O115 Zn103 2.114 . S
O115 C117 1.166 . S
O116 Zn101 1.905 . S
O116 C117 1.182 . S
C117 O115 1.166 . S
C117 O116 1.182 . S
O118 Zn103 2.080 . S
O118 C121 1.305 . S
O119 Zn102 1.920 . S
O119 C121 1.234 . S
C120 O106 1.305 . S
C120 O107 1.234 . S
C121 O118 1.305 . S
C121 O119 1.234 . S
C122 C123 1.391 . S
C122 C124 1.394 . S
C122 H138 0.931 . S
C123 C122 1.391 . S
C123 C127 1.376 . S
C124 C122 1.394 . S
C124 C125 1.369 . S
C124 C128 1.531 . S
C125 C124 1.369 . S
C125 C126 1.410 . S
C125 C133 1.503 . S
C126 C125 1.410 . S
C126 C127 1.392 . S
C126 C129 1.511 . S
C127 C123 1.376 . S
C127 C126 1.392 . S
C127 H139 0.929 . S
C128 C124 1.531 . S
C128 H140 0.960 . S
C128 H141 0.962 . S
C128 H142 0.960 . S
C129 C126 1.511 . S
C129 H143 0.961 . S
C129 H144 0.961 . S
C129 H145 0.961 . S
C130 C131 1.370 . S
C130 C132 1.363 . S
C130 H146 0.931 . S
C131 C130 1.370 . S
C131 C135 1.408 . S
C132 C130 1.363 . S
C132 C133 1.370 . S
C132 C136 1.524 . S
C133 C125 1.503 . S
C133 C132 1.370 . S
C133 C134 1.403 . S
C134 C133 1.403 . S
C134 C135 1.404 . S
C134 C137 1.539 . S
C135 C131 1.408 . S
C135 C134 1.404 . S
C135 H147 0.930 . S
C136 C132 1.524 . S
C136 H148 0.956 . S
C136 H149 0.961 . S
C136 H150 0.961 . S
C137 C134 1.539 . S
C137 H151 0.958 . S
C137 H152 0.961 . S
C137 H153 0.960 . S
H138 C122 0.931 . S
H139 C127 0.929 . S
H140 C128 0.960 . S
H141 C128 0.962 . S
H142 C128 0.960 . S
H143 C129 0.961 . S
H144 C129 0.961 . S
H145 C129 0.961 . S
H146 C130 0.931 . S
H147 C135 0.930 . S
H148 C136 0.956 . S
H149 C136 0.961 . S
H150 C136 0.961 . S
H151 C137 0.958 . S
H152 C137 0.961 . S
H153 C137 0.960 . S
C154 C155 1.391 . S
C154 C156 1.394 . S
C154 H170 0.931 . S
C155 C154 1.391 . S
C155 C159 1.376 . S
C156 C154 1.394 . S
C156 C157 1.369 . S
C156 C160 1.531 . S
C157 C156 1.369 . S
C157 C158 1.410 . S
C157 C165 1.503 . S
C158 C157 1.410 . S
C158 C159 1.392 . S
C158 C161 1.511 . S
C159 C155 1.376 . S
C159 C158 1.392 . S
C159 H171 0.929 . S
C160 C156 1.531 . S
C160 H172 0.960 . S
C160 H173 0.962 . S
C160 H174 0.960 . S
C161 C158 1.511 . S
C161 H175 0.961 . S
C161 H176 0.961 . S
C161 H177 0.961 . S
C162 C163 1.370 . S
C162 C164 1.363 . S
C162 H178 0.931 . S
C163 C162 1.370 . S
C163 C167 1.408 . S
C164 C162 1.363 . S
C164 C165 1.370 . S
C164 C168 1.524 . S
C165 C157 1.503 . S
C165 C164 1.370 . S
C165 C166 1.403 . S
C166 C165 1.403 . S
C166 C167 1.404 . S
C166 C169 1.539 . S
C167 C163 1.408 . S
C167 C166 1.404 . S
C167 H179 0.930 . S
C168 C164 1.524 . S
C168 H180 0.956 . S
C168 H181 0.961 . S
C168 H182 0.961 . S
C169 C166 1.539 . S
C169 H183 0.958 . S
C169 H184 0.961 . S
C169 H185 0.960 . S
H170 C154 0.931 . S
H171 C159 0.929 . S
H172 C160 0.960 . S
H173 C160 0.962 . S
H174 C160 0.960 . S
H175 C161 0.961 . S
H176 C161 0.961 . S
H177 C161 0.961 . S
H178 C162 0.931 . S
H179 C167 0.930 . S
H180 C168 0.956 . S
H181 C168 0.961 . S
H182 C168 0.961 . S
H183 C169 0.958 . S
H184 C169 0.961 . S
H185 C169 0.960 . S
C186 C187 1.391 . S
C186 C188 1.394 . S
C186 H202 0.931 . S
C187 C186 1.391 . S
C187 C191 1.376 . S
C188 C186 1.394 . S
C188 C189 1.369 . S
C188 C192 1.531 . S
C189 C188 1.369 . S
C189 C190 1.410 . S
C189 C197 1.503 . S
C190 C189 1.410 . S
C190 C191 1.392 . S
C190 C193 1.511 . S
C191 C187 1.376 . S
C191 C190 1.392 . S
C191 H203 0.929 . S
C192 C188 1.531 . S
C192 H204 0.960 . S
C192 H205 0.962 . S
C192 H206 0.960 . S
C193 C190 1.511 . S
C193 H207 0.961 . S
C193 H208 0.961 . S
C193 H209 0.961 . S
C194 C195 1.370 . S
C194 C196 1.363 . S
C194 H210 0.931 . S
C195 C194 1.370 . S
C195 C199 1.408 . S
C196 C194 1.363 . S
C196 C197 1.370 . S
C196 C200 1.524 . S
C197 C189 1.503 . S
C197 C196 1.370 . S
C197 C198 1.403 . S
C198 C197 1.403 . S
C198 C199 1.404 . S
C198 C201 1.539 . S
C199 C195 1.408 . S
C199 C198 1.404 . S
C199 H211 0.930 . S
C200 C196 1.524 . S
C200 H212 0.956 . S
C200 H213 0.961 . S
C200 H214 0.961 . S
C201 C198 1.539 . S
C201 H215 0.958 . S
C201 H216 0.961 . S
C201 H217 0.960 . S
H202 C186 0.931 . S
H203 C191 0.929 . S
H204 C192 0.960 . S
H205 C192 0.962 . S
H206 C192 0.960 . S
H207 C193 0.961 . S
H208 C193 0.961 . S
H209 C193 0.961 . S
H210 C194 0.931 . S
H211 C199 0.930 . S
H212 C200 0.956 . S
H213 C200 0.961 . S
H214 C200 0.961 . S
H215 C201 0.958 . S
H216 C201 0.961 . S
H217 C201 0.960 . S
C218 C219 1.391 . S
C218 C220 1.394 . S
C218 H234 0.931 . S
C219 C218 1.391 . S
C219 C223 1.376 . S
C220 C218 1.394 . S
C220 C221 1.369 . S
C220 C224 1.531 . S
C221 C220 1.369 . S
C221 C222 1.410 . S
C221 C229 1.503 . S
C222 C221 1.410 . S
C222 C223 1.392 . S
C222 C225 1.511 . S
C223 C219 1.376 . S
C223 C222 1.392 . S
C223 H235 0.929 . S
C224 C220 1.531 . S
C224 H236 0.960 . S
C224 H237 0.962 . S
C224 H238 0.960 . S
C225 C222 1.511 . S
C225 H239 0.961 . S
C225 H240 0.961 . S
C225 H241 0.961 . S
C226 C227 1.370 . S
C226 C228 1.363 . S
C226 H242 0.931 . S
C227 C226 1.370 . S
C227 C231 1.408 . S
C228 C226 1.363 . S
C228 C229 1.370 . S
C228 C232 1.524 . S
C229 C221 1.503 . S
C229 C228 1.370 . S
C229 C230 1.403 . S
C230 C229 1.403 . S
C230 C231 1.404 . S
C230 C233 1.539 . S
C231 C227 1.408 . S
C231 C230 1.404 . S
C231 H243 0.930 . S
C232 C228 1.524 . S
C232 H244 0.956 . S
C232 H245 0.961 . S
C232 H246 0.961 . S
C233 C230 1.539 . S
C233 H247 0.958 . S
C233 H248 0.961 . S
C233 H249 0.960 . S
H234 C218 0.931 . S
H235 C223 0.929 . S
H236 C224 0.960 . S
H237 C224 0.962 . S
H238 C224 0.960 . S
H239 C225 0.961 . S
H240 C225 0.961 . S
H241 C225 0.961 . S
H242 C226 0.931 . S
H243 C231 0.930 . S
H244 C232 0.956 . S
H245 C232 0.961 . S
H246 C232 0.961 . S
H247 C233 0.958 . S
H248 C233 0.961 . S
H249 C233 0.960 . S
C250 C251 1.391 . S
C250 C252 1.394 . S
C250 H266 0.931 . S
C251 C250 1.391 . S
C251 C255 1.376 . S
C252 C250 1.394 . S
C252 C253 1.369 . S
C252 C256 1.531 . S
C253 C252 1.369 . S
C253 C254 1.410 . S
C253 C261 1.503 . S
C254 C253 1.410 . S
C254 C255 1.392 . S
C254 C257 1.511 . S
C255 C251 1.376 . S
C255 C254 1.392 . S
C255 H267 0.929 . S
C256 C252 1.531 . S
C256 H268 0.960 . S
C256 H269 0.962 . S
C256 H270 0.960 . S
C257 C254 1.511 . S
C257 H271 0.961 . S
C257 H272 0.961 . S
C257 H273 0.961 . S
C258 C259 1.370 . S
C258 C260 1.363 . S
C258 H274 0.931 . S
C259 C258 1.370 . S
C259 C263 1.408 . S
C260 C258 1.363 . S
C260 C261 1.370 . S
C260 C264 1.524 . S
C261 C253 1.503 . S
C261 C260 1.370 . S
C261 C262 1.403 . S
C262 C261 1.403 . S
C262 C263 1.404 . S
C262 C265 1.539 . S
C263 C259 1.408 . S
C263 C262 1.404 . S
C263 H275 0.930 . S
C264 C260 1.524 . S
C264 H276 0.956 . S
C264 H277 0.961 . S
C264 H278 0.961 . S
C265 C262 1.539 . S
C265 H279 0.958 . S
C265 H280 0.961 . S
C265 H281 0.960 . S
H266 C250 0.931 . S
H267 C255 0.929 . S
H268 C256 0.960 . S
H269 C256 0.962 . S
H270 C256 0.960 . S
H271 C257 0.961 . S
H272 C257 0.961 . S
H273 C257 0.961 . S
H274 C258 0.931 . S
H275 C263 0.930 . S
H276 C264 0.956 . S
H277 C264 0.961 . S
H278 C264 0.961 . S
H279 C265 0.958 . S
H280 C265 0.961 . S
H281 C265 0.960 . S
C282 C283 1.391 . S
C282 C284 1.394 . S
C282 H298 0.931 . S
C283 C282 1.391 . S
C283 C287 1.376 . S
C284 C282 1.394 . S
C284 C285 1.369 . S
C284 C288 1.531 . S
C285 C284 1.369 . S
C285 C286 1.410 . S
C285 C293 1.503 . S
C286 C285 1.410 . S
C286 C287 1.392 . S
C286 C289 1.511 . S
C287 C283 1.376 . S
C287 C286 1.392 . S
C287 H299 0.929 . S
C288 C284 1.531 . S
C288 H300 0.960 . S
C288 H301 0.962 . S
C288 H302 0.960 . S
C289 C286 1.511 . S
C289 H303 0.961 . S
C289 H304 0.961 . S
C289 H305 0.961 . S
C290 C291 1.370 . S
C290 C292 1.363 . S
C290 H306 0.931 . S
C291 C290 1.370 . S
C291 C295 1.408 . S
C292 C290 1.363 . S
C292 C293 1.370 . S
C292 C296 1.524 . S
C293 C285 1.503 . S
C293 C292 1.370 . S
C293 C294 1.403 . S
C294 C293 1.403 . S
C294 C295 1.404 . S
C294 C297 1.539 . S
C295 C291 1.408 . S
C295 C294 1.404 . S
C295 H307 0.930 . S
C296 C292 1.524 . S
C296 H308 0.956 . S
C296 H309 0.961 . S
C296 H310 0.961 . S
C297 C294 1.539 . S
C297 H311 0.958 . S
C297 H312 0.961 . S
C297 H313 0.960 . S
H298 C282 0.931 . S
H299 C287 0.929 . S
H300 C288 0.960 . S
H301 C288 0.962 . S
H302 C288 0.960 . S
H303 C289 0.961 . S
H304 C289 0.961 . S
H305 C289 0.961 . S
H306 C290 0.931 . S
H307 C295 0.930 . S
H308 C296 0.956 . S
H309 C296 0.961 . S
H310 C296 0.961 . S
H311 C297 0.958 . S
H312 C297 0.961 . S
H313 C297 0.960 . S
C314 C315 1.391 . S
C314 C316 1.394 . S
C314 H330 0.931 . S
C315 C314 1.391 . S
C315 C319 1.376 . S
C316 C314 1.394 . S
C316 C317 1.369 . S
C316 C320 1.531 . S
C317 C316 1.369 . S
C317 C318 1.410 . S
C317 C325 1.503 . S
C318 C317 1.410 . S
C318 C319 1.392 . S
C318 C321 1.511 . S
C319 C315 1.376 . S
C319 C318 1.392 . S
C319 H331 0.929 . S
C320 C316 1.531 . S
C320 H332 0.960 . S
C320 H333 0.962 . S
C320 H334 0.960 . S
C321 C318 1.511 . S
C321 H335 0.961 . S
C321 H336 0.961 . S
C321 H337 0.961 . S
C322 C323 1.370 . S
C322 C324 1.363 . S
C322 H338 0.931 . S
C323 C322 1.370 . S
C323 C327 1.408 . S
C324 C322 1.363 . S
C324 C325 1.370 . S
C324 C328 1.524 . S
C325 C317 1.503 . S
C325 C324 1.370 . S
C325 C326 1.403 . S
C326 C325 1.403 . S
C326 C327 1.404 . S
C326 C329 1.539 . S
C327 C323 1.408 . S
C327 C326 1.404 . S
C327 H339 0.930 . S
C328 C324 1.524 . S
C328 H340 0.956 . S
C328 H341 0.961 . S
C328 H342 0.961 . S
C329 C326 1.539 . S
C329 H343 0.958 . S
C329 H344 0.961 . S
C329 H345 0.960 . S
H330 C314 0.931 . S
H331 C319 0.929 . S
H332 C320 0.960 . S
H333 C320 0.962 . S
H334 C320 0.960 . S
H335 C321 0.961 . S
H336 C321 0.961 . S
H337 C321 0.961 . S
H338 C322 0.931 . S
H339 C327 0.930 . S
H340 C328 0.956 . S
H341 C328 0.961 . S
H342 C328 0.961 . S
H343 C329 0.958 . S
H344 C329 0.961 . S
H345 C329 0.960 . S
C346 C347 1.391 . S
C346 C348 1.394 . S
C346 H362 0.931 . S
C347 C346 1.391 . S
C347 C351 1.376 . S
C348 C346 1.394 . S
C348 C349 1.369 . S
C348 C352 1.531 . S
C349 C348 1.369 . S
C349 C350 1.410 . S
C349 C357 1.503 . S
C350 C349 1.410 . S
C350 C351 1.392 . S
C350 C353 1.511 . S
C351 C347 1.376 . S
C351 C350 1.392 . S
C351 H363 0.929 . S
C352 C348 1.531 . S
C352 H364 0.960 . S
C352 H365 0.962 . S
C352 H366 0.960 . S
C353 C350 1.511 . S
C353 H367 0.961 . S
C353 H368 0.961 . S
C353 H369 0.961 . S
C354 C355 1.370 . S
C354 C356 1.363 . S
C354 H370 0.931 . S
C355 C354 1.370 . S
C355 C359 1.408 . S
C356 C354 1.363 . S
C356 C357 1.370 . S
C356 C360 1.524 . S
C357 C349 1.503 . S
C357 C356 1.370 . S
C357 C358 1.403 . S
C358 C357 1.403 . S
C358 C359 1.404 . S
C358 C361 1.539 . S
C359 C355 1.408 . S
C359 C358 1.404 . S
C359 H371 0.930 . S
C360 C356 1.524 . S
C360 H372 0.956 . S
C360 H373 0.961 . S
C360 H374 0.961 . S
C361 C358 1.539 . S
C361 H375 0.958 . S
C361 H376 0.961 . S
C361 H377 0.960 . S
H362 C346 0.931 . S
H363 C351 0.929 . S
H364 C352 0.960 . S
H365 C352 0.962 . S
H366 C352 0.960 . S
H367 C353 0.961 . S
H368 C353 0.961 . S
H369 C353 0.961 . S
H370 C354 0.931 . S
H371 C359 0.930 . S
H372 C360 0.956 . S
H373 C360 0.961 . S
H374 C360 0.961 . S
H375 C361 0.958 . S
H376 C361 0.961 . S
H377 C361 0.960 . S
C378 C379 1.391 . S
C378 C380 1.394 . S
C378 H394 0.931 . S
C379 C378 1.391 . S
C379 C383 1.376 . S
C380 C378 1.394 . S
C380 C381 1.369 . S
C380 C384 1.531 . S
C381 C380 1.369 . S
C381 C382 1.410 . S
C381 C389 1.503 . S
C382 C381 1.410 . S
C382 C383 1.392 . S
C382 C385 1.511 . S
C383 C379 1.376 . S
C383 C382 1.392 . S
C383 H395 0.929 . S
C384 C380 1.531 . S
C384 H396 0.960 . S
C384 H397 0.962 . S
C384 H398 0.960 . S
C385 C382 1.511 . S
C385 H399 0.961 . S
C385 H400 0.961 . S
C385 H401 0.961 . S
C386 C387 1.370 . S
C386 C388 1.363 . S
C386 H402 0.931 . S
C387 C386 1.370 . S
C387 C391 1.408 . S
C388 C386 1.363 . S
C388 C389 1.370 . S
C388 C392 1.524 . S
C389 C381 1.503 . S
C389 C388 1.370 . S
C389 C390 1.403 . S
C390 C389 1.403 . S
C390 C391 1.404 . S
C390 C393 1.539 . S
C391 C387 1.408 . S
C391 C390 1.404 . S
C391 H403 0.930 . S
C392 C388 1.524 . S
C392 H404 0.956 . S
C392 H405 0.961 . S
C392 H406 0.961 . S
C393 C390 1.539 . S
C393 H407 0.958 . S
C393 H408 0.961 . S
C393 H409 0.960 . S
H394 C378 0.931 . S
H395 C383 0.929 . S
H396 C384 0.960 . S
H397 C384 0.962 . S
H398 C384 0.960 . S
H399 C385 0.961 . S
H400 C385 0.961 . S
H401 C385 0.961 . S
H402 C386 0.931 . S
H403 C391 0.930 . S
H404 C392 0.956 . S
H405 C392 0.961 . S
H406 C392 0.961 . S
H407 C393 0.958 . S
H408 C393 0.961 . S
H409 C393 0.960 . S
C410 C411 1.391 . S
C410 C412 1.394 . S
C410 H426 0.931 . S
C411 C410 1.391 . S
C411 C415 1.376 . S
C412 C410 1.394 . S
C412 C413 1.369 . S
C412 C416 1.531 . S
C413 C412 1.369 . S
C413 C414 1.410 . S
C413 C421 1.503 . S
C414 C413 1.410 . S
C414 C415 1.392 . S
C414 C417 1.511 . S
C415 C411 1.376 . S
C415 C414 1.392 . S
C415 H427 0.929 . S
C416 C412 1.531 . S
C416 H428 0.960 . S
C416 H429 0.962 . S
C416 H430 0.960 . S
C417 C414 1.511 . S
C417 H431 0.961 . S
C417 H432 0.961 . S
C417 H433 0.961 . S
C418 C419 1.370 . S
C418 C420 1.363 . S
C418 H434 0.931 . S
C419 C418 1.370 . S
C419 C423 1.408 . S
C420 C418 1.363 . S
C420 C421 1.370 . S
C420 C424 1.524 . S
C421 C413 1.503 . S
C421 C420 1.370 . S
C421 C422 1.403 . S
C422 C421 1.403 . S
C422 C423 1.404 . S
C422 C425 1.539 . S
C423 C419 1.408 . S
C423 C422 1.404 . S
C423 H435 0.930 . S
C424 C420 1.524 . S
C424 H436 0.956 . S
C424 H437 0.961 . S
C424 H438 0.961 . S
C425 C422 1.539 . S
C425 H439 0.958 . S
C425 H440 0.961 . S
C425 H441 0.960 . S
H426 C410 0.931 . S
H427 C415 0.929 . S
H428 C416 0.960 . S
H429 C416 0.962 . S
H430 C416 0.960 . S
H431 C417 0.961 . S
H432 C417 0.961 . S
H433 C417 0.961 . S
H434 C418 0.931 . S
H435 C423 0.930 . S
H436 C424 0.956 . S
H437 C424 0.961 . S
H438 C424 0.961 . S
H439 C425 0.958 . S
H440 C425 0.961 . S
H441 C425 0.960 . S
C442 C443 1.391 . S
C442 C444 1.394 . S
C442 H458 0.931 . S
C443 C442 1.391 . S
C443 C447 1.376 . S
C444 C442 1.394 . S
C444 C445 1.369 . S
C444 C448 1.531 . S
C445 C444 1.369 . S
C445 C446 1.410 . S
C445 C453 1.503 . S
C446 C445 1.410 . S
C446 C447 1.392 . S
C446 C449 1.511 . S
C447 C443 1.376 . S
C447 C446 1.392 . S
C447 H459 0.929 1_565 S
C448 C444 1.531 . S
C448 H460 0.960 . S
C448 H461 0.962 . S
C448 H462 0.960 . S
C449 C446 1.511 . S
C449 H463 0.961 . S
C449 H464 0.961 . S
C449 H465 0.961 . S
C450 C451 1.370 . S
C450 C452 1.363 . S
C450 H466 0.931 . S
C451 C450 1.370 . S
C451 C455 1.408 . S
C452 C450 1.363 . S
C452 C453 1.370 . S
C452 C456 1.524 . S
C453 C445 1.503 . S
C453 C452 1.370 . S
C453 C454 1.403 . S
C454 C453 1.403 . S
C454 C455 1.404 . S
C454 C457 1.539 . S
C455 C451 1.408 . S
C455 C454 1.404 . S
C455 H467 0.930 . S
C456 C452 1.524 . S
C456 H468 0.956 . S
C456 H469 0.961 . S
C456 H470 0.961 . S
C457 C454 1.539 . S
C457 H471 0.958 . S
C457 H472 0.961 . S
C457 H473 0.960 . S
H458 C442 0.931 . S
H459 C447 0.929 1_545 S
H460 C448 0.960 . S
H461 C448 0.962 . S
H462 C448 0.960 . S
H463 C449 0.961 . S
H464 C449 0.961 . S
H465 C449 0.961 . S
H466 C450 0.931 . S
H467 C455 0.930 . S
H468 C456 0.956 . S
H469 C456 0.961 . S
H470 C456 0.961 . S
H471 C457 0.958 . S
H472 C457 0.961 . S
H473 C457 0.960 . S
C474 C475 1.391 . S
C474 C476 1.394 . S
C474 H490 0.931 . S
C475 C474 1.391 . S
C475 C479 1.376 . S
C476 C474 1.394 . S
C476 C477 1.369 . S
C476 C480 1.531 . S
C477 C476 1.369 . S
C477 C478 1.410 . S
C477 C485 1.503 . S
C478 C477 1.410 . S
C478 C479 1.392 . S
C478 C481 1.511 . S
C479 C475 1.376 . S
C479 C478 1.392 . S
C479 H491 0.929 . S
C480 C476 1.531 . S
C480 H492 0.960 . S
C480 H493 0.962 . S
C480 H494 0.960 . S
C481 C478 1.511 . S
C481 H495 0.961 . S
C481 H496 0.961 . S
C481 H497 0.961 . S
C482 C483 1.370 . S
C482 C484 1.363 . S
C482 H498 0.931 . S
C483 C482 1.370 . S
C483 C487 1.408 . S
C484 C482 1.363 . S
C484 C485 1.370 . S
C484 C488 1.524 . S
C485 C477 1.503 . S
C485 C484 1.370 . S
C485 C486 1.403 . S
C486 C485 1.403 . S
C486 C487 1.404 . S
C486 C489 1.539 . S
C487 C483 1.408 . S
C487 C486 1.404 . S
C487 H499 0.930 . S
C488 C484 1.524 . S
C488 H500 0.956 . S
C488 H501 0.961 . S
C488 H502 0.961 . S
C489 C486 1.539 . S
C489 H503 0.958 . S
C489 H504 0.961 . S
C489 H505 0.960 . S
H490 C474 0.931 . S
H491 C479 0.929 . S
H492 C480 0.960 . S
H493 C480 0.962 . S
H494 C480 0.960 . S
H495 C481 0.961 . S
H496 C481 0.961 . S
H497 C481 0.961 . S
H498 C482 0.931 . S
H499 C487 0.930 . S
H500 C488 0.956 . S
H501 C488 0.961 . S
H502 C488 0.961 . S
H503 C489 0.958 . S
H504 C489 0.961 . S
H505 C489 0.960 . S
C123 C19 1.874 . S
C131 C99 1.828 . S
C155 C59 1.161 . S
C163 C105 1.137 . S
C187 C6 0.880 . S
C195 C96 0.880 . S
C219 C46 1.429 . S
C227 C121 1.250 . S
C251 C9 2.123 . S
C259 C87 1.985 . S
C291 C104 2.281 . S
C283 C49 2.339 . S
C315 C55 1.253 . S
C323 C100 1.187 . S
C355 C117 1.762 . S
C347 C18 1.805 . S
C387 C84 2.083 . S
C379 C58 2.188 . S
C419 C120 2.064 . S
C411 C10 2.050 . S
C451 C83 1.370 . S
C443 C50 1.486 . S
C483 C108 0.856 . S
C475 C15 0.888 . S
