# Generated by pormake.
# Topology gar, (4,6)-cn, num edge types: 1
# Building blocks:
#     Node 0, Type 0, BuildingBlock: CEKHIL_clean_sbu_0, # of connection points: 4
#     Node 1, Type 0, BuildingBlock: CEKHIL_clean_sbu_0, # of connection points: 4
#     Node 2, Type 0, BuildingBlock: CEKHIL_clean_sbu_0, # of connection points: 4
#     Node 3, Type 0, BuildingBlock: CEKHIL_clean_sbu_0, # of connection points: 4
#     Node 4, Type 0, BuildingBlock: CEKHIL_clean_sbu_0, # of connection points: 4
#     Node 5, Type 0, BuildingBlock: CEKHIL_clean_sbu_0, # of connection points: 4
#     Node 6, Type 0, BuildingBlock: CEKHIL_clean_sbu_0, # of connection points: 4
#     Node 7, Type 0, BuildingBlock: CEKHIL_clean_sbu_0, # of connection points: 4
#     Node 8, Type 0, BuildingBlock: CEKHIL_clean_sbu_0, # of connection points: 4
#     Node 9, Type 0, BuildingBlock: CEKHIL_clean_sbu_0, # of connection points: 4
#     Node 10, Type 0, BuildingBlock: CEKHIL_clean_sbu_0, # of connection points: 4
#     Node 11, Type 0, BuildingBlock: CEKHIL_clean_sbu_0, # of connection points: 4
#     Node 12, Type 0, BuildingBlock: CEKHIL_clean_sbu_0, # of connection points: 4
#     Node 13, Type 0, BuildingBlock: CEKHIL_clean_sbu_0, # of connection points: 4
#     Node 14, Type 0, BuildingBlock: CEKHIL_clean_sbu_0, # of connection points: 4
#     Node 15, Type 0, BuildingBlock: CEKHIL_clean_sbu_0, # of connection points: 4
#     Node 16, Type 0, BuildingBlock: CEKHIL_clean_sbu_0, # of connection points: 4
#     Node 17, Type 0, BuildingBlock: CEKHIL_clean_sbu_0, # of connection points: 4
#     Node 18, Type 0, BuildingBlock: CEKHIL_clean_sbu_0, # of connection points: 4
#     Node 19, Type 0, BuildingBlock: CEKHIL_clean_sbu_0, # of connection points: 4
#     Node 20, Type 0, BuildingBlock: CEKHIL_clean_sbu_0, # of connection points: 4
#     Node 21, Type 0, BuildingBlock: CEKHIL_clean_sbu_0, # of connection points: 4
#     Node 22, Type 0, BuildingBlock: CEKHIL_clean_sbu_0, # of connection points: 4
#     Node 23, Type 0, BuildingBlock: CEKHIL_clean_sbu_0, # of connection points: 4
#     Node 24, Type 1, BuildingBlock: NUHQIS_clean_sbu_0, # of connection points: 6
#     Node 25, Type 1, BuildingBlock: NUHQIS_clean_sbu_0, # of connection points: 6
#     Node 26, Type 1, BuildingBlock: NUHQIS_clean_sbu_0, # of connection points: 6
#     Node 27, Type 1, BuildingBlock: NUHQIS_clean_sbu_0, # of connection points: 6
#     Node 28, Type 1, BuildingBlock: NUHQIS_clean_sbu_0, # of connection points: 6
#     Node 29, Type 1, BuildingBlock: NUHQIS_clean_sbu_0, # of connection points: 6
#     Node 30, Type 1, BuildingBlock: NUHQIS_clean_sbu_0, # of connection points: 6
#     Node 31, Type 1, BuildingBlock: NUHQIS_clean_sbu_0, # of connection points: 6
#     Node 32, Type 1, BuildingBlock: NUHQIS_clean_sbu_0, # of connection points: 6
#     Node 33, Type 1, BuildingBlock: NUHQIS_clean_sbu_0, # of connection points: 6
#     Node 34, Type 1, BuildingBlock: NUHQIS_clean_sbu_0, # of connection points: 6
#     Node 35, Type 1, BuildingBlock: NUHQIS_clean_sbu_0, # of connection points: 6
#     Node 36, Type 1, BuildingBlock: NUHQIS_clean_sbu_0, # of connection points: 6
#     Node 37, Type 1, BuildingBlock: NUHQIS_clean_sbu_0, # of connection points: 6
#     Node 38, Type 1, BuildingBlock: NUHQIS_clean_sbu_0, # of connection points: 6
#     Node 39, Type 1, BuildingBlock: NUHQIS_clean_sbu_0, # of connection points: 6
#     Edge 40, Type (0, 1), BuildingBlock: KIFKEQ_clean_linker_1, # of connection points: 2
#     Edge 41, Type (0, 1), BuildingBlock: KIFKEQ_clean_linker_1, # of connection points: 2
#     Edge 42, Type (0, 1), BuildingBlock: KIFKEQ_clean_linker_1, # of connection points: 2
#     Edge 43, Type (0, 1), BuildingBlock: KIFKEQ_clean_linker_1, # of connection points: 2
#     Edge 44, Type (0, 1), BuildingBlock: KIFKEQ_clean_linker_1, # of connection points: 2
#     Edge 45, Type (0, 1), BuildingBlock: KIFKEQ_clean_linker_1, # of connection points: 2
#     Edge 46, Type (0, 1), BuildingBlock: KIFKEQ_clean_linker_1, # of connection points: 2
#     Edge 47, Type (0, 1), BuildingBlock: KIFKEQ_clean_linker_1, # of connection points: 2
#     Edge 48, Type (0, 1), BuildingBlock: KIFKEQ_clean_linker_1, # of connection points: 2
#     Edge 49, Type (0, 1), BuildingBlock: KIFKEQ_clean_linker_1, # of connection points: 2
#     Edge 50, Type (0, 1), BuildingBlock: KIFKEQ_clean_linker_1, # of connection points: 2
#     Edge 51, Type (0, 1), BuildingBlock: KIFKEQ_clean_linker_1, # of connection points: 2
#     Edge 52, Type (0, 1), BuildingBlock: KIFKEQ_clean_linker_1, # of connection points: 2
#     Edge 53, Type (0, 1), BuildingBlock: KIFKEQ_clean_linker_1, # of connection points: 2
#     Edge 54, Type (0, 1), BuildingBlock: KIFKEQ_clean_linker_1, # of connection points: 2
#     Edge 55, Type (0, 1), BuildingBlock: KIFKEQ_clean_linker_1, # of connection points: 2
#     Edge 56, Type (0, 1), BuildingBlock: KIFKEQ_clean_linker_1, # of connection points: 2
#     Edge 57, Type (0, 1), BuildingBlock: KIFKEQ_clean_linker_1, # of connection points: 2
#     Edge 58, Type (0, 1), BuildingBlock: KIFKEQ_clean_linker_1, # of connection points: 2
#     Edge 59, Type (0, 1), BuildingBlock: KIFKEQ_clean_linker_1, # of connection points: 2
#     Edge 60, Type (0, 1), BuildingBlock: KIFKEQ_clean_linker_1, # of connection points: 2
#     Edge 61, Type (0, 1), BuildingBlock: KIFKEQ_clean_linker_1, # of connection points: 2
#     Edge 62, Type (0, 1), BuildingBlock: KIFKEQ_clean_linker_1, # of connection points: 2
#     Edge 63, Type (0, 1), BuildingBlock: KIFKEQ_clean_linker_1, # of connection points: 2
#     Edge 64, Type (0, 1), BuildingBlock: KIFKEQ_clean_linker_1, # of connection points: 2
#     Edge 65, Type (0, 1), BuildingBlock: KIFKEQ_clean_linker_1, # of connection points: 2
#     Edge 66, Type (0, 1), BuildingBlock: KIFKEQ_clean_linker_1, # of connection points: 2
#     Edge 67, Type (0, 1), BuildingBlock: KIFKEQ_clean_linker_1, # of connection points: 2
#     Edge 68, Type (0, 1), BuildingBlock: KIFKEQ_clean_linker_1, # of connection points: 2
#     Edge 69, Type (0, 1), BuildingBlock: KIFKEQ_clean_linker_1, # of connection points: 2
#     Edge 70, Type (0, 1), BuildingBlock: KIFKEQ_clean_linker_1, # of connection points: 2
#     Edge 71, Type (0, 1), BuildingBlock: KIFKEQ_clean_linker_1, # of connection points: 2
#     Edge 72, Type (0, 1), BuildingBlock: KIFKEQ_clean_linker_1, # of connection points: 2
#     Edge 73, Type (0, 1), BuildingBlock: KIFKEQ_clean_linker_1, # of connection points: 2
#     Edge 74, Type (0, 1), BuildingBlock: KIFKEQ_clean_linker_1, # of connection points: 2
#     Edge 75, Type (0, 1), BuildingBlock: KIFKEQ_clean_linker_1, # of connection points: 2
#     Edge 76, Type (0, 1), BuildingBlock: KIFKEQ_clean_linker_1, # of connection points: 2
#     Edge 77, Type (0, 1), BuildingBlock: KIFKEQ_clean_linker_1, # of connection points: 2
#     Edge 78, Type (0, 1), BuildingBlock: KIFKEQ_clean_linker_1, # of connection points: 2
#     Edge 79, Type (0, 1), BuildingBlock: KIFKEQ_clean_linker_1, # of connection points: 2
#     Edge 80, Type (0, 1), BuildingBlock: KIFKEQ_clean_linker_1, # of connection points: 2
#     Edge 81, Type (0, 1), BuildingBlock: KIFKEQ_clean_linker_1, # of connection points: 2
#     Edge 82, Type (0, 1), BuildingBlock: KIFKEQ_clean_linker_1, # of connection points: 2
#     Edge 83, Type (0, 1), BuildingBlock: KIFKEQ_clean_linker_1, # of connection points: 2
#     Edge 84, Type (0, 1), BuildingBlock: KIFKEQ_clean_linker_1, # of connection points: 2
#     Edge 85, Type (0, 1), BuildingBlock: KIFKEQ_clean_linker_1, # of connection points: 2
#     Edge 86, Type (0, 1), BuildingBlock: KIFKEQ_clean_linker_1, # of connection points: 2
#     Edge 87, Type (0, 1), BuildingBlock: KIFKEQ_clean_linker_1, # of connection points: 2
#     Edge 88, Type (0, 1), BuildingBlock: KIFKEQ_clean_linker_1, # of connection points: 2
#     Edge 89, Type (0, 1), BuildingBlock: KIFKEQ_clean_linker_1, # of connection points: 2
#     Edge 90, Type (0, 1), BuildingBlock: KIFKEQ_clean_linker_1, # of connection points: 2
#     Edge 91, Type (0, 1), BuildingBlock: KIFKEQ_clean_linker_1, # of connection points: 2
#     Edge 92, Type (0, 1), BuildingBlock: KIFKEQ_clean_linker_1, # of connection points: 2
#     Edge 93, Type (0, 1), BuildingBlock: KIFKEQ_clean_linker_1, # of connection points: 2
#     Edge 94, Type (0, 1), BuildingBlock: KIFKEQ_clean_linker_1, # of connection points: 2
#     Edge 95, Type (0, 1), BuildingBlock: KIFKEQ_clean_linker_1, # of connection points: 2
#     Edge 96, Type (0, 1), BuildingBlock: KIFKEQ_clean_linker_1, # of connection points: 2
#     Edge 97, Type (0, 1), BuildingBlock: KIFKEQ_clean_linker_1, # of connection points: 2
#     Edge 98, Type (0, 1), BuildingBlock: KIFKEQ_clean_linker_1, # of connection points: 2
#     Edge 99, Type (0, 1), BuildingBlock: KIFKEQ_clean_linker_1, # of connection points: 2
#     Edge 100, Type (0, 1), BuildingBlock: KIFKEQ_clean_linker_1, # of connection points: 2
#     Edge 101, Type (0, 1), BuildingBlock: KIFKEQ_clean_linker_1, # of connection points: 2
#     Edge 102, Type (0, 1), BuildingBlock: KIFKEQ_clean_linker_1, # of connection points: 2
#     Edge 103, Type (0, 1), BuildingBlock: KIFKEQ_clean_linker_1, # of connection points: 2
#     Edge 104, Type (0, 1), BuildingBlock: KIFKEQ_clean_linker_1, # of connection points: 2
#     Edge 105, Type (0, 1), BuildingBlock: KIFKEQ_clean_linker_1, # of connection points: 2
#     Edge 106, Type (0, 1), BuildingBlock: KIFKEQ_clean_linker_1, # of connection points: 2
#     Edge 107, Type (0, 1), BuildingBlock: KIFKEQ_clean_linker_1, # of connection points: 2
#     Edge 108, Type (0, 1), BuildingBlock: KIFKEQ_clean_linker_1, # of connection points: 2
#     Edge 109, Type (0, 1), BuildingBlock: KIFKEQ_clean_linker_1, # of connection points: 2
#     Edge 110, Type (0, 1), BuildingBlock: KIFKEQ_clean_linker_1, # of connection points: 2
#     Edge 111, Type (0, 1), BuildingBlock: KIFKEQ_clean_linker_1, # of connection points: 2
#     Edge 112, Type (0, 1), BuildingBlock: KIFKEQ_clean_linker_1, # of connection points: 2
#     Edge 113, Type (0, 1), BuildingBlock: KIFKEQ_clean_linker_1, # of connection points: 2
#     Edge 114, Type (0, 1), BuildingBlock: KIFKEQ_clean_linker_1, # of connection points: 2
#     Edge 115, Type (0, 1), BuildingBlock: KIFKEQ_clean_linker_1, # of connection points: 2
#     Edge 116, Type (0, 1), BuildingBlock: KIFKEQ_clean_linker_1, # of connection points: 2
#     Edge 117, Type (0, 1), BuildingBlock: KIFKEQ_clean_linker_1, # of connection points: 2
#     Edge 118, Type (0, 1), BuildingBlock: KIFKEQ_clean_linker_1, # of connection points: 2
#     Edge 119, Type (0, 1), BuildingBlock: KIFKEQ_clean_linker_1, # of connection points: 2
#     Edge 120, Type (0, 1), BuildingBlock: KIFKEQ_clean_linker_1, # of connection points: 2
#     Edge 121, Type (0, 1), BuildingBlock: KIFKEQ_clean_linker_1, # of connection points: 2
#     Edge 122, Type (0, 1), BuildingBlock: KIFKEQ_clean_linker_1, # of connection points: 2
#     Edge 123, Type (0, 1), BuildingBlock: KIFKEQ_clean_linker_1, # of connection points: 2
#     Edge 124, Type (0, 1), BuildingBlock: KIFKEQ_clean_linker_1, # of connection points: 2
#     Edge 125, Type (0, 1), BuildingBlock: KIFKEQ_clean_linker_1, # of connection points: 2
#     Edge 126, Type (0, 1), BuildingBlock: KIFKEQ_clean_linker_1, # of connection points: 2
#     Edge 127, Type (0, 1), BuildingBlock: KIFKEQ_clean_linker_1, # of connection points: 2
#     Edge 128, Type (0, 1), BuildingBlock: KIFKEQ_clean_linker_1, # of connection points: 2
#     Edge 129, Type (0, 1), BuildingBlock: KIFKEQ_clean_linker_1, # of connection points: 2
#     Edge 130, Type (0, 1), BuildingBlock: KIFKEQ_clean_linker_1, # of connection points: 2
#     Edge 131, Type (0, 1), BuildingBlock: KIFKEQ_clean_linker_1, # of connection points: 2
#     Edge 132, Type (0, 1), BuildingBlock: KIFKEQ_clean_linker_1, # of connection points: 2
#     Edge 133, Type (0, 1), BuildingBlock: KIFKEQ_clean_linker_1, # of connection points: 2
#     Edge 134, Type (0, 1), BuildingBlock: KIFKEQ_clean_linker_1, # of connection points: 2
#     Edge 135, Type (0, 1), BuildingBlock: KIFKEQ_clean_linker_1, # of connection points: 2
# Relax obj value: 0.216
# Max RMSD: 0.312
# Mean RMSD: 0.137
data_MOF--net-gar--node1-CEKHIL_clean_sbu_0--node2-NUHQIS_clean_sbu_0--edge1-KIFKEQ_clean_linker_1
_symmetry_space_group_name_H-M    P1
_symmetry_Int_Tables_number       1
_symmetry_cell_setting            triclinic
loop_
_symmetry_equiv_pos_as_xyz
'x, y, z'
_cell_length_a     57.764806
_cell_length_b     59.961293
_cell_length_c     56.272025
_cell_angle_alpha  92.691728
_cell_angle_beta   96.267205
_cell_angle_gamma 99.933402
loop_
_atom_site_label
_atom_site_type_symbol
_atom_site_fract_x
_atom_site_fract_y
_atom_site_fract_z
_atom_type_partial_charge
Co0 Co 0.09924 0.30018 0.42011 0.0
O1 O 0.13511 0.30408 0.42354 0.0
O2 O 0.11347 0.29094 0.39072 0.0
C3 C 0.09688 0.33788 0.43747 0.0
O4 O 0.06289 0.29574 0.40501 0.0
Co5 Co 0.06792 0.29925 0.45815 0.0
O6 O 0.04201 0.30479 0.43395 0.0
C7 C 0.08628 0.25646 0.4514 0.0
C8 C 0.13492 0.29698 0.40128 0.0
C9 C 0.04318 0.30039 0.41183 0.0
O10 O 0.09581 0.26604 0.43312 0.0
O11 O 0.07515 0.26801 0.46447 0.0
O12 O 0.10142 0.3339 0.41571 0.0
O13 O 0.09565 0.31944 0.44902 0.0
Co14 Co 0.06647 0.80445 0.65919 0.0
O15 O 1.03056 0.80199 0.65676 0.0
O16 O 0.05109 0.79613 0.6891 0.0
C17 C 0.07359 0.8417 0.64151 0.0
O18 O 0.10276 0.8064 0.67396 0.0
Co19 Co 0.09776 0.80676 0.62126 0.0
O20 O 0.12642 0.81201 0.64529 0.0
C21 C 0.07281 0.76025 0.62686 0.0
C22 C 1.03016 0.79779 0.67922 0.0
C23 C 0.12405 0.80965 0.66728 0.0
O24 O 0.06444 0.76929 0.64545 0.0
O25 O 0.08537 0.77326 0.61392 0.0
O26 O 0.06994 0.83894 0.66365 0.0
O27 O 0.07215 0.82203 0.63007 0.0
Co28 Co 0.60001 0.80119 0.92173 0.0
O29 O 0.63591 0.80518 0.92498 0.0
O30 O 0.61421 0.79189 0.89228 0.0
C31 C 0.59762 0.83894 0.939 0.0
O32 O 0.56351 0.79658 0.90696 0.0
Co33 Co 0.56909 0.80039 0.96016 0.0
O34 O 0.54294 0.80573 0.93614 0.0
C35 C 0.5875 0.75764 0.95333 0.0
C36 C 0.6357 0.79796 0.90276 0.0
C37 C 0.54387 0.80119 0.91399 0.0
O38 O 0.59678 0.76713 0.93488 0.0
O39 O 0.57652 0.76922 0.96652 0.0
O40 O 0.60196 0.83489 0.91719 0.0
O41 O 0.59663 0.82056 0.95063 0.0
Co42 Co 0.56657 0.30547 0.15931 0.0
O43 O 0.53066 0.30287 0.15684 0.0
O44 O 0.55122 0.29719 0.18925 0.0
C45 C 0.57361 0.34264 0.14164 0.0
O46 O 0.60292 0.30754 0.1738 0.0
Co47 Co 0.59761 0.30791 0.12085 0.0
O48 O 0.62627 0.31335 0.14484 0.0
C49 C 0.57315 0.26135 0.12714 0.0
C50 C 0.53026 0.29874 0.17931 0.0
C51 C 0.6241 0.31092 0.16686 0.0
O52 O 0.56475 0.27037 0.14571 0.0
O53 O 0.58547 0.27434 0.11399 0.0
O54 O 0.56995 0.33992 0.16378 0.0
O55 O 0.57211 0.32298 0.13019 0.0
Co56 Co 0.13579 0.86945 0.1855 0.0
O57 O 0.10302 0.85511 0.1821 0.0
O58 O 0.1275 0.85959 0.21591 0.0
C59 C 0.12983 0.89935 0.16448 0.0
O60 O 0.16985 0.88352 0.19694 0.0
Co61 Co 0.16498 0.87745 0.14326 0.0
O62 O 0.19179 0.89225 0.16712 0.0
C63 C 0.15223 0.83121 0.15897 0.0
C64 C 0.10643 0.85216 0.20487 0.0
C65 C 0.18952 0.89171 0.18935 0.0
O66 O 0.14514 0.83949 0.17776 0.0
O67 O 0.15877 0.84327 0.14189 0.0
O68 O 0.12674 0.89917 0.18702 0.0
O69 O 0.13531 0.88115 0.15507 0.0
Co70 Co 0.52535 0.74942 0.41544 0.0
O71 O 0.55761 0.76526 0.42159 0.0
O72 O 0.54407 0.7381 0.39288 0.0
C73 C 0.50915 0.78077 0.41791 0.0
O74 O 0.49353 0.73051 0.40198 0.0
Co75 Co 0.4894 0.74964 0.45206 0.0
O76 O 0.4657 0.73924 0.42378 0.0
C77 C 0.52913 0.72528 0.46099 0.0
C78 C 0.56164 0.75313 0.40327 0.0
C79 C 0.47175 0.73055 0.40484 0.0
O80 O 0.53265 0.72648 0.43884 0.0
O81 O 0.51397 0.7351 0.47029 0.0
O82 O 0.51678 0.77471 0.39813 0.0
O83 O 0.51278 0.76851 0.43578 0.0
Co84 Co 0.63146 0.37043 0.67665 0.0
O85 O 0.60001 0.3526 0.6718 0.0
O86 O 0.62244 0.36062 0.70679 0.0
C87 C 0.62308 0.39824 0.65353 0.0
O88 O 0.66386 0.3881 0.68963 0.0
Co89 Co 0.66284 0.38101 0.63631 0.0
O90 O 0.68627 0.39978 0.66104 0.0
C91 C 0.65352 0.33468 0.65289 0.0
C92 C 0.60258 0.3506 0.6948 0.0
C93 C 0.68308 0.39877 0.68303 0.0
O94 O 0.645 0.3423 0.67114 0.0
O95 O 0.65956 0.34696 0.63578 0.0
O96 O 0.6185 0.39833 0.67566 0.0
O97 O 0.63147 0.381 0.64583 0.0
Co98 Co 1.03052 0.25514 0.91242 0.0
O99 O 0.06289 0.27 0.91391 0.0
O100 O 0.04506 0.24242 0.88703 0.0
C101 C 1.01554 0.28687 0.91692 0.0
O102 O 0.9974 0.23687 0.90407 0.0
Co103 Co 1.00182 0.25739 0.95527 0.0
O104 O 0.97445 0.24811 0.93024 0.0
C105 C 0.04024 0.23108 0.95735 0.0
C106 C 0.06402 0.25695 0.89515 0.0
C107 C 0.97696 0.23854 0.91023 0.0
O108 O 0.04059 0.23253 0.93469 0.0
O109 O 1.02709 0.24114 0.96945 0.0
O110 O 1.02022 0.28005 0.896 0.0
O111 O 1.0217 0.27532 0.93468 0.0
Co112 Co 0.51983 0.12827 0.34077 0.0
O113 O 0.51705 0.15579 0.32485 0.0
O114 O 0.49135 0.12335 0.3189 0.0
C115 C 0.53108 0.14443 0.37805 0.0
O116 O 0.51487 0.097 0.35353 0.0
Co117 Co 0.56581 0.11757 0.36796 0.0
O118 O 0.54597 0.08945 0.37714 0.0
C119 C 0.55962 0.11608 0.3151 0.0
C120 C 0.49752 0.14416 0.31351 0.0
C121 C 0.52466 0.08398 0.36735 0.0
O122 O 0.5377 0.11782 0.31495 0.0
O123 O 0.57406 0.11772 0.33429 0.0
O124 O 0.50874 0.1404 0.36958 0.0
O125 O 0.54555 0.14013 0.36333 0.0
Co126 Co 0.35734 0.17342 0.5382 0.0
O127 O 0.39315 0.17779 0.54058 0.0
O128 O 0.37171 0.1461 0.54694 0.0
C129 C 0.35252 0.19049 0.50009 0.0
O130 O 0.32068 0.15826 0.53672 0.0
Co131 Co 0.32587 0.20861 0.53525 0.0
O132 O 0.2974 0.18437 0.53268 0.0
C133 C 0.34846 0.20258 0.58395 0.0
C134 C 0.39297 0.15669 0.54521 0.0
C135 C 0.2996 0.16379 0.53483 0.0
O136 O 0.35779 0.18603 0.57467 0.0
O137 O 0.33635 0.21411 0.57055 0.0
O138 O 0.35574 0.16967 0.50198 0.0
O139 O 0.35285 0.20067 0.52097 0.0
Co140 Co 0.24961 0.07306 0.86562 0.0
O141 O 0.25275 0.043 0.85502 0.0
O142 O 0.28193 0.07276 0.85999 0.0
C143 C 0.22861 0.06146 0.89548 0.0
O144 O 0.25368 0.10641 0.87654 0.0
Co145 Co 0.2012 0.08857 0.86755 0.0
O146 O 0.21962 0.11751 0.88293 0.0
C147 C 0.22241 0.08689 0.82163 0.0
C148 C 0.27499 0.05117 0.85441 0.0
C149 C 0.24198 0.12165 0.88288 0.0
O150 O 0.24107 0.08059 0.83173 0.0
O151 O 0.20467 0.08965 0.83255 0.0
O152 O 0.2516 0.06455 0.89876 0.0
O153 O 0.21915 0.06482 0.87446 0.0
Co154 Co 0.34493 0.9059 0.04634 0.0
O155 O 0.31162 0.9049 0.04985 0.0
O156 O 0.34083 0.93345 0.06249 0.0
C157 C 0.34026 0.89247 1.00744 0.0
O158 O 0.3801 0.91532 0.04605 0.0
Co159 Co 0.36943 0.86573 0.03594 0.0
O160 O 0.39905 0.88796 0.03465 0.0
C161 C 0.3579 0.87454 0.08496 0.0
C162 C 0.31844 0.92509 0.06058 0.0
C163 C 0.39902 0.9085 0.04137 0.0
O164 O 0.35032 0.89246 0.07822 0.0
O165 O 0.36503 0.8608 0.07047 0.0
O166 O 0.3395 0.91358 1.01316 0.0
O167 O 0.34217 0.87968 0.02524 0.0
Co168 Co 0.30866 0.42765 0.04379 0.0
O169 O 0.27282 0.42372 0.04065 0.0
O170 O 0.29539 0.45531 0.05348 0.0
C171 C 0.31164 0.4099 1.00539 0.0
O172 O 0.34563 0.44214 0.04752 0.0
Co173 Co 0.33922 0.39064 0.04282 0.0
O174 O 0.36609 0.41503 0.03837 0.0
C175 C 0.31681 0.39649 0.08721 0.0
C176 C 0.27371 0.44488 0.04773 0.0
C177 C 0.36548 0.43591 0.04301 0.0
O178 O 0.31026 0.41508 0.07907 0.0
O179 O 0.32695 0.38392 0.07423 0.0
O180 O 0.30754 0.43051 1.00794 0.0
O181 O 0.3122 0.40033 0.02546 0.0
Co182 Co 0.82031 0.20946 0.02391 0.0
O183 O 0.85459 0.21524 0.0253 0.0
O184 O 0.83267 0.18302 0.0332 0.0
C185 C 0.81326 0.22454 0.98812 0.0
O186 O 0.78564 0.19528 0.02334 0.0
Co187 Co 0.78822 0.24537 0.0224 0.0
O188 O 0.76181 0.21958 1.01208 0.0
C189 C 0.8165 0.23911 0.06814 0.0
C190 C 0.8535 0.19431 0.03098 0.0
C191 C 0.76505 0.19965 1.01653 0.0
O192 O 0.82236 0.22122 0.05862 0.0
O193 O 0.80448 0.25181 0.05616 0.0
O194 O 0.81756 0.204 0.98905 0.0
O195 O 0.81456 0.23567 1.0086 0.0
Co196 Co 0.14813 0.50714 0.25888 0.0
O197 O 0.15473 0.48212 0.27721 0.0
O198 O 0.17932 0.50156 0.25487 0.0
C199 C 0.1335 0.52638 0.28723 0.0
O200 O 0.14871 0.53461 0.23908 0.0
Co201 Co 0.09696 0.51641 0.24663 0.0
O202 O 0.1137 0.54628 0.23805 0.0
C203 C 0.11202 0.47855 0.22123 0.0
C204 C 0.1755 0.48577 0.26974 0.0
C205 C 0.13541 0.54938 0.23448 0.0
O206 O 0.13372 0.48602 0.22991 0.0
O207 O 0.09461 0.48654 0.22833 0.0
O208 O 0.15623 0.52774 0.28769 0.0
O209 O 0.12066 0.51138 0.27183 0.0
Co210 Co 0.80696 0.92716 0.54537 0.0
O211 O 0.77116 0.92325 0.54258 0.0
O212 O 0.79379 0.95488 0.55515 0.0
C213 C 0.80933 0.90942 0.50684 0.0
O214 O 0.844 0.94148 0.54866 0.0
Co215 Co 0.83711 0.88996 0.54393 0.0
O216 O 0.86406 0.91415 0.53917 0.0
C217 C 0.81544 0.89598 0.58873 0.0
C218 C 0.77208 0.94443 0.54957 0.0
C219 C 0.86369 0.93507 0.54386 0.0
O220 O 0.80888 0.91459 0.58068 0.0
O221 O 0.82533 0.88333 0.57557 0.0
O222 O 0.80554 0.93012 0.50955 0.0
O223 O 0.81001 0.89978 0.52689 0.0
Co224 Co 0.93907 0.02996 0.22163 0.0
O225 O 0.94335 0.06247 0.22667 0.0
O226 O 0.90875 0.03934 0.21842 0.0
C227 C 0.9645 1.02543 0.2534 0.0
O228 O 0.92677 0.99598 0.21699 0.0
Co229 Co 0.97899 1.00331 0.21223 0.0
O230 O 0.95654 0.97627 0.21873 0.0
C231 C 0.95882 0.02968 0.17447 0.0
C232 C 0.92039 0.05986 0.22353 0.0
C233 C 0.93469 0.97725 0.21833 0.0
O234 O 0.94203 0.03315 0.18661 0.0
O235 O 0.97558 1.01951 0.18224 0.0
O236 O 0.94284 0.02732 0.25611 0.0
O237 O 0.97038 0.02731 0.23201 0.0
Co238 Co 0.32501 0.7058 0.53102 0.0
O239 O 0.35918 0.71308 0.53286 0.0
O240 O 0.33866 0.68009 0.54066 0.0
C241 C 0.31845 0.72039 0.49504 0.0
O242 O 0.29058 0.69027 0.52993 0.0
Co243 Co 0.29139 0.73998 0.52838 0.0
O244 O 0.26536 0.71363 0.52003 0.0
C245 C 0.31791 0.73405 0.57508 0.0
C246 C 0.35909 0.69228 0.53846 0.0
C247 C 0.26948 0.69391 0.52413 0.0
O248 O 0.32621 0.7176 0.56554 0.0
O249 O 0.30477 0.74572 0.56303 0.0
O250 O 0.32296 0.69997 0.49643 0.0
O251 O 0.31877 0.73174 0.51524 0.0
Co252 Co 0.43203 0.5411 0.72979 0.0
O253 O 0.42932 0.57247 0.72752 0.0
O254 O 0.39919 0.5436 0.72312 0.0
C255 C 0.45784 0.54692 0.76335 0.0
O256 O 0.42717 0.50682 0.73211 0.0
Co257 Co 0.47929 0.52284 0.72931 0.0
O258 O 0.46189 0.49581 0.74249 0.0
C259 C 0.45344 0.53448 0.6842 0.0
C260 C 0.40657 0.56539 0.72401 0.0
C261 C 0.43937 0.49188 0.73941 0.0
O262 O 0.43569 0.53837 0.69465 0.0
O263 O 0.47229 0.52943 0.69509 0.0
O264 O 0.43528 0.54517 0.76473 0.0
O265 O 0.46401 0.54626 0.74205 0.0
Co266 Co 0.65128 1.00288 0.76514 0.0
O267 O 0.66196 0.97676 0.77799 0.0
O268 O 0.68015 0.99898 0.75274 0.0
C269 C 0.64374 1.01905 0.79958 0.0
O270 O 0.64695 0.03187 0.74947 0.0
Co271 Co 0.60009 1.01181 0.76741 0.0
O272 O 0.6151 0.0434 0.76212 0.0
C273 C 0.609 0.97846 0.73079 0.0
C274 C 0.68017 0.98206 0.76635 0.0
C275 C 0.63431 0.04719 0.75259 0.0
O276 O 0.6315 0.98399 0.73702 0.0
O277 O 0.59366 0.98612 0.74214 0.0
O278 O 0.66532 1.02115 0.79437 0.0
O279 O 0.62815 1.00492 0.78552 0.0
Co280 Co 0.85881 0.67351 0.04021 0.0
O281 O 0.89462 0.67806 0.04231 0.0
O282 O 0.87342 0.64624 0.04867 0.0
C283 C 0.85354 0.69062 1.00224 0.0
O284 O 0.82229 0.65828 0.03901 0.0
Co285 Co 0.82696 0.70829 0.03797 0.0
O286 O 0.7988 0.68367 0.03119 0.0
C287 C 0.84993 0.70206 0.08638 0.0
C288 C 0.89461 0.65696 0.04682 0.0
C289 C 0.80113 0.66335 0.03479 0.0
O290 O 0.85939 0.68585 0.07665 0.0
O291 O 0.83724 0.7135 0.07349 0.0
O292 O 0.85694 0.66985 1.00403 0.0
O293 O 0.85395 0.70079 0.02318 0.0
Co294 Co 1.01467 0.62749 0.85113 0.0
O295 O 1.01213 0.65295 0.83161 0.0
O296 O 0.98392 0.62308 0.83332 0.0
C297 C 1.032 0.64722 0.88535 0.0
O298 O 1.00917 0.59851 0.86836 0.0
Co299 Co 0.06172 0.61533 0.87428 0.0
O300 O 0.04196 0.5894 0.88756 0.0
C301 C 0.04758 0.60668 0.82221 0.0
C302 C 0.9908 0.64219 0.82413 0.0
C303 C 1.01967 0.58544 0.88146 0.0
O304 O 1.02698 0.61132 0.82444 0.0
O305 O 0.06441 0.60936 0.83946 0.0
O306 O 1.00917 0.64473 0.87977 0.0
O307 O 0.04347 0.63945 0.8694 0.0
Co308 Co 0.84008 0.40578 0.54212 0.0
O309 O 0.80681 0.40552 0.54486 0.0
O310 O 0.83618 0.43378 0.55772 0.0
C311 C 0.83565 0.39207 0.50321 0.0
O312 O 0.87556 0.41411 0.5426 0.0
Co313 Co 0.86237 0.36388 0.53211 0.0
O314 O 0.89259 0.38536 0.53084 0.0
C315 C 0.84846 0.37264 0.58011 0.0
C316 C 0.81366 0.4258 0.5553 0.0
C317 C 0.89382 0.40608 0.53781 0.0
O318 O 0.84424 0.39214 0.57414 0.0
O319 O 0.85377 0.35801 0.56527 0.0
O320 O 0.83583 0.41341 0.50867 0.0
O321 O 0.83655 0.3794 0.52117 0.0
Co322 Co 0.75938 0.5714 0.3652 0.0
O323 O 0.76372 0.54146 0.35563 0.0
O324 O 0.79197 0.57206 0.36042 0.0
C325 C 0.73816 0.56076 0.39515 0.0
O326 O 0.76218 0.60467 0.37555 0.0
Co327 Co 0.71009 0.58574 0.36512 0.0
O328 O 0.72756 0.61402 0.38282 0.0
C329 C 0.73257 0.58383 0.32005 0.0
C330 C 0.78587 0.55031 0.35543 0.0
C331 C 0.74989 0.61901 0.38283 0.0
O332 O 0.75116 0.57795 0.33086 0.0
O333 O 0.71448 0.58671 0.33032 0.0
O334 O 0.76114 0.56372 0.39858 0.0
O335 O 0.72889 0.56297 0.37368 0.0
Tb336 Tb 0.0797 0.06775 0.04218 0.0
Eu337 Eu 0.13104 0.08287 0.07637 0.0
C338 C 0.12507 0.05593 0.0233 0.0
C339 C 0.10253 0.03283 0.07244 0.0
C340 C 1.01954 0.076 0.02105 0.0
C341 C 1.00894 0.11358 0.02077 0.0
C342 C 1.02597 0.09961 0.02004 0.0
C343 C 0.99592 0.06663 0.02293 0.0
C344 C 0.97894 0.08057 0.02383 0.0
C345 C 0.98519 0.10424 0.02278 0.0
C346 C 1.03751 0.06125 0.02259 0.0
O347 O 0.07976 0.09577 0.06753 0.0
O348 O 0.10071 0.08368 0.09849 0.0
O349 O 0.12337 0.11476 0.06008 0.0
O350 O 0.09975 0.09647 0.02676 0.0
C351 C 0.08243 0.09245 0.0902 0.0
O352 O 0.15194 0.08015 0.11052 0.0
O353 O 0.16836 0.0988 0.0829 0.0
O354 O 0.13818 0.07018 0.04004 0.0
O355 O 0.10193 0.05002 0.02242 0.0
O356 O 0.08298 0.04077 0.06672 0.0
O357 O 0.12323 0.04523 0.07154 0.0
C358 C 0.11298 0.11479 0.03807 0.0
O359 O 0.0558 0.06685 1.01098 0.0
O360 O 0.04369 0.05566 0.04414 0.0
C361 C 0.1883 0.07211 0.10151 0.0
C362 C 0.2167 0.03835 0.10002 0.0
C363 C 0.22254 0.05664 0.11756 0.0
C364 C 0.20827 0.07335 0.11842 0.0
C365 C 0.18289 0.05413 0.0838 0.0
C366 C 0.19679 0.0374 0.08311 0.0
C367 C 0.17183 0.08827 0.10245 0.0
H368 H 1.0144 0.13168 0.01972 0.0
H369 H 0.04422 0.10729 1.01906 0.0
H370 H 0.9907 0.04853 0.02426 0.0
H371 H 0.96098 0.07278 0.02593 0.0
H372 H 0.23786 0.05776 0.13079 0.0
H373 H 0.21266 0.08702 0.13232 0.0
H374 H 0.1677 0.0529 0.0705 0.0
H375 H 0.19208 1.02381 0.06911 0.0
Tb376 Tb 0.35982 0.83004 0.31045 0.0
Eu377 Eu 0.31361 0.79432 0.28159 0.0
C378 C 0.31234 0.84559 0.29572 0.0
C379 C 0.32791 0.79264 0.33684 0.0
C380 C 0.40663 0.87997 0.33798 0.0
C381 C 0.40873 0.9207 0.33673 0.0
C382 C 0.39591 0.8986 0.33214 0.0
C383 C 0.43039 0.8837 0.348 0.0
C384 C 0.44323 0.90575 0.35253 0.0
C385 C 0.43251 0.92455 0.34718 0.0
C386 C 0.3931 0.85666 0.33573 0.0
O387 O 0.37111 0.79743 0.30926 0.0
O388 O 0.34354 0.77474 0.28124 0.0
O389 O 0.32697 0.81894 0.25543 0.0
O390 O 0.36516 0.83274 0.27259 0.0
C391 C 0.36381 0.77882 0.29521 0.0
O392 O 0.29546 0.77381 0.24985 0.0
O393 O 0.27599 0.78008 0.27979 0.0
O394 O 0.30257 0.82477 0.2991 0.0
O395 O 0.3353 0.85092 0.29578 0.0
O396 O 0.33755 0.81421 0.33662 0.0
O397 O 0.3206 0.77997 0.31699 0.0
C398 C 0.34849 0.82977 0.25415 0.0
O399 O 0.37092 0.85414 0.33938 0.0
O400 O 0.39631 0.84326 0.31793 0.0
C401 C 0.26072 0.74709 0.25411 0.0
C402 C 0.23104 0.70457 0.24285 0.0
C403 C 0.2556 0.70693 0.24198 0.0
C404 C 0.27035 0.72804 0.2476 0.0
C405 C 0.23628 0.74472 0.25503 0.0
C406 C 0.22158 0.72371 0.24949 0.0
C407 C 0.27521 0.7699 0.25861 0.0
H408 H 0.39982 0.93477 0.33261 0.0
H409 H 0.37753 0.89611 0.32451 0.0
H410 H 0.43893 0.86952 0.35272 0.0
H411 H 0.46158 0.90805 0.36021 0.0
H412 H 0.26343 0.69243 0.23721 0.0
H413 H 0.28919 0.72947 0.24671 0.0
H414 H 0.22849 0.75928 0.25975 0.0
H415 H 0.20273 0.72253 0.25002 0.0
Tb416 Tb 0.57033 0.03585 0.52875 0.0
Eu417 Eu 0.59653 0.06804 0.57499 0.0
C418 C 0.56945 1.01764 0.58041 0.0
C419 C 0.54291 0.07471 0.55299 0.0
C420 C 0.54033 0.98855 0.4843 0.0
C421 C 0.52844 0.94909 0.49216 0.0
C422 C 0.53606 0.97169 0.50052 0.0
C423 C 0.53723 0.98251 0.45966 0.0
C424 C 0.52987 0.95982 0.45126 0.0
C425 C 0.52535 0.94284 0.46744 0.0
C426 C 0.54683 1.01254 0.49277 0.0
O427 O 0.59061 0.06515 0.51462 0.0
O428 O 0.59273 0.09143 0.54566 0.0
O429 O 0.62402 0.04595 0.56454 0.0
O430 O 0.60327 1.02074 0.53454 0.0
C431 C 0.59232 0.08621 0.52287 0.0
O432 O 0.62985 0.08824 0.59109 0.0
O433 O 0.59979 0.08346 0.61153 0.0
O434 O 0.57537 0.0384 0.59009 0.0
O435 O 0.56941 1.01275 0.55746 0.0
O436 O 0.54309 0.05702 0.53775 0.0
O437 O 0.5618 0.08229 0.56868 0.0
C438 C 0.62298 0.02798 0.54937 0.0
O439 O 0.53784 1.01835 0.5119 0.0
O440 O 0.56904 1.02184 0.49346 0.0
C441 C 0.62579 0.11878 0.61694 0.0
C442 C 0.63676 0.16568 0.6293 0.0
C443 C 0.63136 0.15756 0.60517 0.0
C444 C 0.62575 0.13432 0.59904 0.0
C445 C 0.63086 0.12679 0.64108 0.0
C446 C 0.63618 0.15014 0.64726 0.0
C447 C 0.62124 0.09431 0.61041 0.0
H448 H 0.52474 0.93656 0.50512 0.0
H449 H 0.53829 0.97601 0.51965 0.0
H450 H 0.5404 0.99537 0.44691 0.0
H451 H 0.52802 0.95558 0.43215 0.0
H452 H 0.6313 0.16923 0.59104 0.0
H453 H 0.62163 0.12848 0.58029 0.0
H454 H 0.63093 0.11501 0.6551 0.0
H455 H 0.64027 0.15604 0.66598 0.0
Tb456 Tb 0.31273 0.30368 0.78957 0.0
Eu457 Eu 0.36484 0.2964 0.81081 0.0
C458 C 0.35743 0.33864 0.78019 0.0
C459 C 0.34262 0.27763 0.75559 0.0
C460 C 0.24892 0.29929 0.78503 0.0
C461 C 0.20734 0.29958 0.7874 0.0
C462 C 0.22772 0.30592 0.7762 0.0
C463 C 0.24957 0.28611 0.80493 0.0
C464 C 0.22927 0.2796 0.81595 0.0
C465 C 0.20799 0.2865 0.80754 0.0
C466 C 0.2707 0.30651 0.77424 0.0
O467 O 0.30759 0.27092 0.80539 0.0
O468 O 0.34084 0.27468 0.83222 0.0
O469 O 0.35444 0.32016 0.83987 0.0
O470 O 0.31458 0.31644 0.82783 0.0
C471 C 0.31915 0.26488 0.82471 0.0
O472 O 0.3907 0.27402 0.81707 0.0
O473 O 0.40019 0.30981 0.82858 0.0
O474 O 0.3707 0.32343 0.78488 0.0
O475 O 0.33524 0.33554 0.7843 0.0
O476 O 0.32771 0.29202 0.75715 0.0
O477 O 0.35582 0.2739 0.77526 0.0
C478 C 0.33321 0.32395 0.84395 0.0
O479 O 0.28562 0.32304 0.78619 0.0
O480 O 0.28121 0.29013 0.76763 0.0
C481 C 0.42858 0.2928 0.81119 0.0
C482 C 0.46636 0.29494 0.78325 0.0
C483 C 0.46294 0.27836 0.80005 0.0
C484 C 0.44412 0.2773 0.81391 0.0
C485 C 0.43205 0.30937 0.79451 0.0
C486 C 0.45081 0.31054 0.78084 0.0
C487 C 0.40787 0.29091 0.82445 0.0
H488 H 0.19128 0.30539 0.78068 0.0
H489 H 0.22702 0.31623 0.76093 0.0
H490 H 0.26586 0.28101 0.81211 0.0
H491 H 0.23032 0.26923 0.83115 0.0
H492 H 0.47455 0.26603 0.80221 0.0
H493 H 0.44152 0.26423 0.82651 0.0
H494 H 0.42017 0.32142 0.79188 0.0
H495 H 0.45323 0.32385 0.76851 0.0
Tb496 Tb 0.0832 0.03514 0.51643 0.0
Eu497 Eu 0.08287 0.05969 0.56684 0.0
C498 C 0.13257 0.06481 0.54188 0.0
C499 C 0.08585 1.00403 0.56321 0.0
C500 C 0.08406 1.01823 0.4509 0.0
C501 C 0.08162 1.00004 0.41116 0.0
C502 C 0.08595 0.99945 0.43597 0.0
C503 C 0.08057 0.03853 0.44081 0.0
C504 C 0.07615 0.03911 0.41597 0.0
C505 C 0.07518 1.01939 0.40105 0.0
C506 C 0.08044 1.01459 0.47587 0.0
O507 O 0.04659 1.02318 0.5255 0.0
O508 O 0.04303 0.04777 0.55649 0.0
O509 O 0.07857 0.08884 0.54178 0.0
O510 O 0.08151 0.07109 0.50568 0.0
C511 C 1.03342 0.03084 0.54075 0.0
O512 O 0.07832 0.05883 0.60479 0.0
O513 O 0.09005 0.09084 0.59021 0.0
O514 O 0.12241 0.06566 0.56172 0.0
O515 O 0.12017 0.05434 0.52215 0.0
O516 O 0.08841 1.00639 0.54015 0.0
O517 O 0.0835 1.02223 0.57647 0.0
C518 C 0.08017 0.09007 0.51852 0.0
O519 O 0.09898 1.01661 0.49182 0.0
O520 O 0.06344 1.02354 0.48371 0.0
C521 C 0.10919 0.08411 0.62708 0.0
C522 C 0.15028 0.09152 0.66012 0.0
C523 C 0.1479 0.07564 0.6405 0.0
C524 C 0.12753 0.07199 0.62411 0.0
C525 C 0.11169 0.10041 0.64623 0.0
C526 C 0.13213 0.10409 0.66269 0.0
C527 C 0.08801 0.08004 0.60956 0.0
H528 H 0.08139 0.98475 0.40001 0.0
H529 H 0.08871 0.98367 0.4435 0.0
H530 H 0.07912 0.05324 0.45212 0.0
H531 H 0.07122 0.05427 0.4087 0.0
H532 H 0.16165 0.06584 0.638 0.0
H533 H 0.12596 0.05948 0.60923 0.0
H534 H 0.09777 0.11004 0.6486 0.0
H535 H 0.13338 0.11622 0.67787 0.0
Tb536 Tb 0.32371 0.78217 0.80145 0.0
Eu537 Eu 0.3444 0.83086 0.78293 0.0
C538 C 0.32747 0.82669 0.83593 0.0
C539 C 0.28798 0.80797 0.76963 0.0
C540 C 0.30841 0.7203 0.79969 0.0
C541 C 0.31914 0.68294 0.79905 0.0
C542 C 0.31561 0.70236 0.81185 0.0
C543 C 0.3035 0.71807 0.7746 0.0
C544 C 0.30698 0.69866 0.76178 0.0
C545 C 0.31555 0.68118 0.77382 0.0
C546 C 0.30937 0.74227 0.81287 0.0
O547 O 0.32584 0.77526 0.7636 0.0
O548 O 0.35355 0.80545 0.75633 0.0
O549 O 0.37375 0.82409 0.81095 0.0
O550 O 0.36334 0.78557 0.80811 0.0
C551 C 0.34076 0.7854 0.74989 0.0
O552 O 0.33792 0.86217 0.76764 0.0
O553 O 0.37385 0.85613 0.77432 0.0
O554 O 0.33193 0.83974 0.81824 0.0
O555 O 0.32506 0.80448 0.83334 0.0
O556 O 0.29084 0.79492 0.78775 0.0
O557 O 0.30682 0.82064 0.76275 0.0
C558 C 0.37922 0.80411 0.81532 0.0
O559 O 0.33058 0.75357 0.81934 0.0
O560 O 0.29545 0.75535 0.80379 0.0
C561 C 0.36697 0.89361 0.78039 0.0
C562 C 0.36762 0.93588 0.80457 0.0
C563 C 0.36351 0.93324 0.77938 0.0
C564 C 0.36319 0.91226 0.76741 0.0
C565 C 0.37305 0.89655 0.8053 0.0
C566 C 0.3736 0.9176 0.81729 0.0
C567 C 0.36031 0.8708 0.76847 0.0
H568 H 0.32604 0.66994 0.80888 0.0
H569 H 0.31971 0.70387 0.83118 0.0
H570 H 0.29796 0.73173 0.76479 0.0
H571 H 0.30376 0.6977 0.7424 0.0
H572 H 0.35856 0.94679 0.76897 0.0
H573 H 0.35827 0.91019 0.74819 0.0
H574 H 0.37587 0.88225 0.81565 0.0
H575 H 0.37722 0.91915 0.83665 0.0
Tb576 Tb 0.6005 0.0459 0.05436 0.0
Eu577 Eu 0.56768 0.056 1.00777 0.0
C578 C 0.58884 1.00607 1.01114 0.0
C579 C 0.62313 0.07465 1.01547 0.0
C580 C 0.62672 0.05227 0.11694 0.0
C581 C 0.6208 0.04685 0.1584 0.0
C582 C 0.62489 0.03821 0.13609 0.0
C583 C 0.62576 0.07541 0.12072 0.0
C584 C 0.62183 0.08407 0.14304 0.0
C585 C 0.61857 0.06972 0.16188 0.0
C586 C 0.62621 0.04207 0.09263 0.0
O587 O 0.58981 0.0793 0.06596 0.0
O588 O 0.56935 0.08882 0.03181 0.0
O589 O 0.54108 0.04008 0.03025 0.0
O590 O 0.56584 0.02599 0.05814 0.0
C591 C 0.57869 0.09416 0.05438 0.0
O592 O 0.53994 0.07109 0.98828 0.0
O593 O 0.55968 0.05003 0.96921 0.0
O594 O 0.57548 1.01918 0.99957 0.0
O595 O 0.60097 1.01394 0.03217 0.0
O596 O 0.62495 0.05747 0.02866 0.0
O597 O 0.60241 0.07899 1.00772 0.0
C598 C 0.5446 0.02714 0.04782 0.0
O599 O 0.60688 0.02793 0.08483 0.0
O600 O 0.63277 0.05583 0.07642 0.0
C601 C 0.55006 0.08109 0.9501 0.0
C602 C 0.57262 0.10148 0.91295 0.0
C603 C 0.55076 0.08651 0.90791 0.0
C604 C 0.53963 0.07629 0.92642 0.0
C605 C 0.56974 0.0986 0.95547 0.0
C606 C 0.58089 0.1089 0.93695 0.0
C607 C 0.54477 0.06405 0.96742 0.0
H608 H 0.61816 0.03532 0.17251 0.0
H609 H 0.62539 1.02029 0.13343 0.0
H610 H 0.62705 0.08665 0.10622 0.0
H611 H 0.62063 0.10185 0.14532 0.0
H612 H 0.54374 0.08034 0.88971 0.0
H613 H 0.52445 0.06278 0.92201 0.0
H614 H 0.57797 0.10258 0.97377 0.0
H615 H 0.59739 0.12074 0.94142 0.0
Tb616 Tb 0.34503 0.31733 0.30728 0.0
Eu617 Eu 0.32152 0.27096 0.27892 0.0
C618 C 0.34295 0.27259 0.33698 0.0
C619 C 0.37838 0.29387 0.27408 0.0
C620 C 0.33992 0.3732 0.32597 0.0
C621 C 0.32779 0.40858 0.33785 0.0
C622 C 0.34459 0.39411 0.33945 0.0
C623 C 0.31855 0.36708 0.31087 0.0
C624 C 0.3019 0.38123 0.30942 0.0
C625 C 0.30612 0.40201 0.32304 0.0
C626 C 0.35611 0.35673 0.32764 0.0
O627 O 0.33376 0.32849 0.27091 0.0
O628 O 0.31421 0.29576 0.25026 0.0
O629 O 0.28875 0.27913 0.29523 0.0
O630 O 0.30753 0.31155 0.31711 0.0
C631 C 0.32222 0.31779 0.25079 0.0
O632 O 0.30261 0.24881 0.24818 0.0
O633 O 0.31805 0.23435 0.27916 0.0
O634 O 0.32863 0.26196 0.31839 0.0
O635 O 0.35435 0.29346 0.33478 0.0
O636 O 0.37739 0.30888 0.29204 0.0
O637 O 0.35919 0.27853 0.26669 0.0
C638 C 0.28816 0.29582 0.31128 0.0
O639 O 0.34866 0.33883 0.3387 0.0
O640 O 0.3632 0.35101 0.30746 0.0
C641 C 0.32261 0.21782 0.24246 0.0
C642 C 0.36127 0.19795 0.23162 0.0
C643 C 0.35855 0.21926 0.22338 0.0
C644 C 0.3395 0.22924 0.22901 0.0
C645 C 0.32349 0.19538 0.24772 0.0
C646 C 0.3427 0.18555 0.24249 0.0
C647 C 0.309 0.2307 0.25683 0.0
H648 H 0.33148 0.4246 0.34846 0.0
H649 H 0.36097 0.39911 0.35125 0.0
H650 H 0.31452 0.35113 0.30022 0.0
H651 H 0.28567 0.37591 0.29743 0.0
H652 H 0.37206 0.22901 0.21427 0.0
H653 H 0.33922 0.24664 0.22475 0.0
H654 H 0.31075 0.18636 0.25826 0.0
H655 H 0.34399 0.16916 0.24927 0.0
Tb656 Tb 0.58456 0.53671 1.01799 0.0
Eu657 Eu 0.58499 0.56061 0.06873 0.0
C658 C 0.6337 0.56636 0.04347 0.0
C659 C 0.58713 0.50509 0.06431 0.0
C660 C 0.58596 0.52284 0.95276 0.0
C661 C 0.57844 0.50915 0.91104 0.0
C662 C 0.5844 0.50534 0.93501 0.0
C663 C 0.58441 0.54486 0.94619 0.0
C664 C 0.57828 0.54866 0.92223 0.0
C665 C 0.57368 0.53045 0.9047 0.0
C666 C 0.58327 0.5168 0.97729 0.0
O667 O 0.54789 0.52494 0.02652 0.0
O668 O 0.54498 0.54887 0.05836 0.0
O669 O 0.58237 0.59044 0.04404 0.0
O670 O 0.58079 0.57214 1.00719 0.0
C671 C 0.53503 0.53236 0.04219 0.0
O672 O 0.58121 0.55908 0.10681 0.0
O673 O 0.59144 0.59152 0.09245 0.0
O674 O 0.62461 0.56427 0.06395 0.0
O675 O 0.62009 0.55866 0.02338 0.0
O676 O 0.59079 0.50807 0.04159 0.0
O677 O 0.5839 0.52288 0.0776 0.0
C678 C 0.58165 0.59141 0.02046 0.0
O679 O 0.60207 0.52051 0.99303 0.0
O680 O 0.56508 0.52306 0.98574 0.0
C681 C 0.61067 0.58508 0.13011 0.0
C682 C 0.65081 0.58694 0.1637 0.0
C683 C 0.62809 0.57877 0.16981 0.0
C684 C 0.60817 0.57794 0.15318 0.0
C685 C 0.63336 0.59388 0.12417 0.0
C686 C 0.65329 0.595 0.14095 0.0
C687 C 0.59002 0.58045 0.11173 0.0
H688 H 0.57549 0.49494 0.89778 0.0
H689 H 0.58563 0.48826 0.93983 0.0
H690 H 0.5856 0.55857 0.95975 0.0
H691 H 0.57477 0.56526 0.91791 0.0
H692 H 0.62576 0.5728 0.18742 0.0
H693 H 0.59088 0.57094 0.15803 0.0
H694 H 0.63582 0.59921 0.10634 0.0
H695 H 0.67066 0.60138 0.13591 0.0
Tb696 Tb 0.82561 0.28253 0.2957 0.0
Eu697 Eu 0.84515 0.3325 0.27975 0.0
C698 C 0.82751 0.32605 0.33185 0.0
C699 C 0.789 0.30893 0.26644 0.0
C700 C 0.82341 0.22205 0.30093 0.0
C701 C 0.81805 0.18249 0.28645 0.0
C702 C 0.80863 0.20102 0.29466 0.0
C703 C 0.84776 0.22426 0.29924 0.0
C704 C 0.85716 0.20582 0.29117 0.0
C705 C 0.8424 0.1848 0.28445 0.0
C706 C 0.81325 0.24222 0.30659 0.0
O707 O 0.83006 0.27642 0.2581 0.0
O708 O 0.85402 0.30934 0.25094 0.0
O709 O 0.87421 0.32465 0.30762 0.0
O710 O 0.86516 0.2862 0.30161 0.0
C711 C 0.84336 0.28858 0.24425 0.0
O712 O 0.83922 0.36533 0.26804 0.0
O713 O 0.87449 0.35723 0.27024 0.0
O714 O 0.83188 0.33999 0.31492 0.0
O715 O 0.82566 0.30396 0.32816 0.0
O716 O 0.7923 0.29533 0.28398 0.0
O717 O 0.80758 0.32212 0.25964 0.0
C718 C 0.88038 0.30466 0.31042 0.0
O719 O 0.82675 0.25796 0.32103 0.0
O720 O 0.80332 0.25076 0.28816 0.0
C721 C 0.87075 0.39516 0.27925 0.0
C722 C 0.87768 0.4374 0.30526 0.0
C723 C 0.87089 0.43556 0.28033 0.0
C724 C 0.86746 0.41459 0.26746 0.0
C725 C 0.8795 0.39714 0.30365 0.0
C726 C 0.88319 0.41818 0.31652 0.0
C727 C 0.86159 0.37289 0.26685 0.0
H728 H 0.8063 0.16643 0.28152 0.0
H729 H 0.78975 0.19909 0.29556 0.0
H730 H 0.8595 0.24041 0.30354 0.0
H731 H 0.87591 0.20825 0.28945 0.0
H732 H 0.86617 0.44983 0.27103 0.0
H733 H 0.86061 0.41328 0.24864 0.0
H734 H 0.88211 0.38223 0.31304 0.0
H735 H 0.88882 0.41909 0.3356 0.0
Tb736 Tb 0.09333 0.54229 0.55621 0.0
Eu737 Eu 0.07087 0.55587 0.50525 0.0
C738 C 0.08794 0.50498 0.50987 0.0
C739 C 0.12611 0.57079 0.52256 0.0
C740 C 0.10354 0.538 0.6209 0.0
C741 C 0.09365 0.52637 0.65979 0.0
C742 C 0.10155 0.52158 0.63783 0.0
C743 C 0.09784 0.55934 0.62624 0.0
C744 C 0.09005 0.56416 0.64811 0.0
C745 C 0.08759 0.54765 0.665 0.0
C746 C 0.10939 0.53215 0.59698 0.0
O747 O 0.0871 0.57761 0.56632 0.0
O748 O 0.06748 0.58639 0.53135 0.0
O749 O 0.04392 0.52895 0.51667 0.0
O750 O 0.05495 0.53377 0.55685 0.0
C751 C 0.07626 0.59218 0.5541 0.0
O752 O 0.04399 0.57149 0.48481 0.0
O753 O 0.06874 0.55527 0.46668 0.0
O754 O 0.08103 0.52051 0.49584 0.0
O755 O 0.09304 0.51027 0.53334 0.0
O756 O 0.12422 0.55507 0.53813 0.0
O757 O 0.10759 0.57544 0.50967 0.0
C758 C 1.03986 0.52461 0.5384 0.0
O759 O 0.0924 0.51915 0.58313 0.0
O760 O 0.11962 0.54891 0.58573 0.0
C761 C 0.05604 0.58616 0.44863 0.0
C762 C 0.06554 0.60651 0.40616 0.0
C763 C 0.042 0.60027 0.41115 0.0
C764 C 1.03729 0.58965 0.43211 0.0
C765 C 0.07918 0.59671 0.44603 0.0
C766 C 0.08394 0.60679 0.42485 0.0
C767 C 0.05212 0.56755 0.46456 0.0
H768 H 0.09178 0.51328 0.67243 0.0
H769 H 0.1056 0.50492 0.63385 0.0
H770 H 0.09907 0.57225 0.61339 0.0
H771 H 0.086 0.58087 0.6518 0.0
H772 H 1.02733 0.60079 0.39756 0.0
H773 H 1.01923 0.58208 0.43413 0.0
H774 H 0.09389 0.5947 0.45896 0.0
H775 H 0.10231 0.61181 0.42207 0.0
Tb776 Tb 0.8072 0.80205 0.29041 0.0
Eu777 Eu 0.86057 0.79753 0.31151 0.0
C778 C 0.84976 0.83777 0.27972 0.0
C779 C 0.83853 0.77673 0.2565 0.0
C780 C 0.74469 0.80354 0.29077 0.0
C781 C 0.70259 0.80103 0.29265 0.0
C782 C 0.7221 0.80481 0.27969 0.0
C783 C 0.74771 0.799 0.31502 0.0
C784 C 0.72828 0.79498 0.32788 0.0
C785 C 0.70539 0.79568 0.31681 0.0
C786 C 0.76496 0.80535 0.27695 0.0
O787 O 0.80194 0.77761 0.31743 0.0
O788 O 0.83813 0.76666 0.32268 0.0
O789 O 0.84559 0.81109 0.34438 0.0
O790 O 0.81455 0.82453 0.32451 0.0
C791 C 0.8159 0.76424 0.32624 0.0
O792 O 0.88773 0.77686 0.31873 0.0
O793 O 0.8958 0.81289 0.32867 0.0
O794 O 0.86195 0.83257 0.29898 0.0
O795 O 0.82993 0.82486 0.27046 0.0
O796 O 0.8173 0.77892 0.26234 0.0
O797 O 0.85764 0.7852 0.27155 0.0
C798 C 0.82865 0.82337 0.34461 0.0
O799 O 0.78179 0.82282 0.28309 0.0
O800 O 0.77336 0.78665 0.27454 0.0
C801 C 0.92587 0.7959 0.315 0.0
C802 C 0.9676 0.80048 0.29297 0.0
C803 C 0.96845 0.79888 0.3179 0.0
C804 C 0.94766 0.79657 0.32884 0.0
C805 C 0.9249 0.79726 0.29012 0.0
C806 C 0.9456 0.79948 0.27918 0.0
C807 C 0.90419 0.79417 0.32647 0.0
H808 H 0.6853 0.8021 0.28366 0.0
H809 H 0.7195 0.80833 0.26098 0.0
H810 H 0.76506 0.79795 0.32387 0.0
H811 H 0.73116 0.79059 0.34628 0.0
H812 H 0.98517 0.79947 0.32892 0.0
H813 H 0.94861 0.7955 0.34808 0.0
H814 H 0.90815 0.79688 0.27923 0.0
H815 H 0.94445 0.80105 0.26 0.0
Tb816 Tb 0.85005 0.33621 0.80736 0.0
Eu817 Eu 0.80986 0.29593 0.7763 0.0
C818 C 0.80414 0.34877 0.78016 0.0
C819 C 0.81369 0.30195 0.83361 0.0
C820 C 0.89516 0.38758 0.83705 0.0
C821 C 0.89601 0.42771 0.8466 0.0
C822 C 0.88328 0.40601 0.83906 0.0
C823 C 0.91988 0.39126 0.84218 0.0
C824 C 0.93257 0.41286 0.84974 0.0
C825 C 0.92078 0.4313 0.85239 0.0
C826 C 0.88245 0.36401 0.83236 0.0
O827 O 0.86617 0.30654 0.79999 0.0
O828 O 0.83431 0.27768 0.79803 0.0
O829 O 0.83858 0.3083 0.75335 0.0
O830 O 0.85024 0.34462 0.7701 0.0
C831 C 0.85708 0.28521 0.80243 0.0
O832 O 0.80154 0.26611 0.751 0.0
O833 O 0.77333 0.28264 0.76198 0.0
O834 O 0.80049 0.32941 0.76731 0.0
O835 O 0.81963 0.35312 0.7995 0.0
O836 O 0.83471 0.31462 0.83377 0.0
O837 O 0.79928 0.29588 0.81373 0.0
C838 C 0.84773 0.32972 0.75168 0.0
O839 O 0.86067 0.35928 0.83732 0.0
O840 O 0.88567 0.35273 0.81298 0.0
C841 C 0.76368 0.24317 0.75048 0.0
C842 C 0.73307 0.201 0.74866 0.0
C843 C 0.74933 0.20525 0.73188 0.0
C844 C 0.76442 0.22618 0.73274 0.0
C845 C 0.74774 0.23885 0.76757 0.0
C846 C 0.73248 0.21794 0.7666 0.0
C847 C 0.77873 0.26553 0.74983 0.0
H848 H 0.88638 0.44154 0.84857 0.0
H849 H 0.86418 0.40357 0.83538 0.0
H850 H 0.92937 0.37724 0.84091 0.0
H851 H 0.95164 0.41508 0.8536 0.0
H852 H 0.75002 0.19255 0.71775 0.0
H853 H 0.77646 0.22924 0.71929 0.0
H854 H 0.74685 0.25166 0.78151 0.0
H855 H 0.72029 0.21497 0.77992 0.0
Tb856 Tb 0.84617 0.81649 0.8086 0.0
Eu857 Eu 0.82209 0.7703 0.78033 0.0
C858 C 0.84351 0.77182 0.83853 0.0
C859 C 0.87885 0.79284 0.77497 0.0
C860 C 0.84567 0.87446 0.82338 0.0
C861 C 0.84003 0.91364 0.82749 0.0
C862 C 0.85346 0.89677 0.83327 0.0
C863 C 0.82446 0.86922 0.80792 0.0
C864 C 0.81147 0.88593 0.80182 0.0
C865 C 0.81912 0.90827 0.81141 0.0
C866 C 0.85905 0.85611 0.82815 0.0
O867 O 0.83496 0.82772 0.77222 0.0
O868 O 0.81433 0.79525 0.75195 0.0
O869 O 0.78971 0.77854 0.79736 0.0
O870 O 0.80856 0.81147 0.81833 0.0
C871 C 0.82279 0.81718 0.75232 0.0
O872 O 0.80214 0.74825 0.74999 0.0
O873 O 0.81948 0.73372 0.77985 0.0
O874 O 0.82949 0.76109 0.81977 0.0
O875 O 0.85474 0.79279 0.83651 0.0
O876 O 0.87828 0.80716 0.79365 0.0
O877 O 0.85931 0.77817 0.7671 0.0
C878 C 0.7892 0.79559 0.81302 0.0
O879 O 0.84795 0.83933 0.83864 0.0
O880 O 0.8679 0.84867 0.80971 0.0
C881 C 0.82282 0.71818 0.74235 0.0
C882 C 0.86188 0.69912 0.73158 0.0
C883 C 0.86 0.72119 0.72529 0.0
C884 C 0.84058 0.73069 0.73068 0.0
C885 C 0.823 0.69516 0.74537 0.0
C886 C 0.84239 0.68564 0.73997 0.0
C887 C 0.80945 0.73022 0.75783 0.0
H888 H 0.84602 0.93081 0.83528 0.0
H889 H 0.86975 0.90108 0.84533 0.0
H890 H 0.81779 0.85208 0.80051 0.0
H891 H 0.79513 0.88127 0.78985 0.0
H892 H 0.87456 0.73177 0.71836 0.0
H893 H 0.84078 0.7485 0.72809 0.0
H894 H 0.80957 0.68527 0.75451 0.0
H895 H 0.84326 0.66858 0.74505 0.0
Tb896 Tb 0.5814 0.56988 0.53412 0.0
Eu897 Eu 0.62524 0.57892 0.57788 0.0
C898 C 0.63193 0.56654 0.52278 0.0
C899 C 0.59977 0.52966 0.55912 0.0
C900 C 0.52679 0.58269 0.50497 0.0
C901 C 0.48631 0.58627 0.50995 0.0
C902 C 0.50303 0.57279 0.5055 0.0
C903 C 0.53338 0.60648 0.50806 0.0
C904 C 0.51656 0.62 0.51218 0.0
C905 C 0.49299 0.60996 0.51374 0.0
C906 C 0.54485 0.56799 0.50495 0.0
O907 O 0.57079 0.58715 0.56444 0.0
O908 O 0.59036 0.56975 0.5928 0.0
O909 O 0.61515 0.613 0.5722 0.0
O910 O 0.60266 0.60335 0.53244 0.0
C911 C 0.57166 0.57817 0.58505 0.0
O912 O 0.63842 0.5725 0.61429 0.0
O913 O 0.66224 0.5914 0.59222 0.0
O914 O 0.64032 0.57932 0.54255 0.0
O915 O 0.6094 0.5574 0.51799 0.0
O916 O 0.5808 0.53785 0.5515 0.0
O917 O 0.6204 0.54283 0.56397 0.0
C918 C 0.60942 0.61869 0.5504 0.0
O919 O 0.56592 0.57736 0.5005 0.0
O920 O 0.54587 0.55539 0.52315 0.0
C921 C 0.67578 0.56188 0.61268 0.0
C922 C 0.70478 0.52898 0.60711 0.0
C923 C 0.68007 0.52252 0.60532 0.0
C924 C 0.66575 0.53875 0.60806 0.0
C925 C 0.7005 0.56828 0.61556 0.0
C926 C 0.7149 0.55196 0.6129 0.0
C927 C 0.66045 0.57925 0.61082 0.0
H928 H 0.46819 0.57813 0.51083 0.0
H929 H 0.4976 0.55451 0.50347 0.0
H930 H 0.55166 0.61463 0.50822 0.0
H931 H 0.5222 0.63821 0.51518 0.0
H932 H 0.67173 0.50494 0.60123 0.0
H933 H 0.64673 0.53322 0.60558 0.0
H934 H 0.70863 0.586 0.61881 0.0
H935 H 0.73388 0.5575 0.61421 0.0
Tb936 Tb 0.07344 0.53876 0.02674 0.0
Eu937 Eu 0.0978 0.56745 0.07569 0.0
C938 C 0.07176 0.51616 0.07597 0.0
C939 C 0.04518 0.57584 0.05289 0.0
C940 C 0.0444 0.4949 0.9783 0.0
C941 C 0.05122 0.45622 0.97618 0.0
C942 C 0.05863 0.47888 0.98446 0.0
C943 C 1.02302 0.48821 0.96339 0.0
C944 C 1.01547 0.4655 0.95527 0.0
C945 C 1.0293 0.44918 0.96196 0.0
C946 C 0.05027 0.51809 0.98913 0.0
O947 O 0.09468 0.56891 1.01529 0.0
O948 O 0.09657 0.59308 0.04817 0.0
O949 O 0.12563 0.54592 0.0647 0.0
O950 O 0.10632 0.52345 0.03184 0.0
C951 C 0.09715 0.58947 0.02524 0.0
O952 O 0.13065 0.58597 0.09487 0.0
O953 O 0.09903 0.58041 0.11292 0.0
O954 O 0.0756 0.53632 0.08717 0.0
O955 O 0.07328 0.51333 0.05303 0.0
O956 O 0.04575 0.55889 0.03686 0.0
O957 O 0.06368 0.58264 0.06924 0.0
C958 C 0.1253 0.52933 0.048 0.0
O959 O 0.04133 0.52113 1.00905 0.0
O960 O 0.07227 0.5283 0.99037 0.0
C961 C 0.12523 0.61535 0.12134 0.0
C962 C 0.13589 0.66197 0.13511 0.0
C963 C 0.12923 0.65449 0.11093 0.0
C964 C 0.12378 0.63139 0.10413 0.0
C965 C 0.13154 0.62269 0.14559 0.0
C966 C 0.1367 0.64593 0.15249 0.0
C967 C 0.12083 0.59111 0.11374 0.0
H968 H 0.06254 0.44415 0.98119 0.0
H969 H 0.07514 0.48379 0.9961 0.0
H970 H 1.01177 0.50044 0.95868 0.0
H971 H 0.99845 0.46064 0.94451 0.0
H972 H 0.12811 0.66655 0.09729 0.0
H973 H 0.11873 0.62604 0.08534 0.0
H974 H 0.13271 0.6105 0.15909 0.0
H975 H 0.14178 0.65137 0.17125 0.0
H976 H 0.07688 0.21443 0.94046 0.0
H977 H 1.03994 0.21748 1.00306 0.0
H978 H 0.10244 0.19122 0.96088 0.0
H979 H 0.06512 0.19381 0.02318 0.0
H980 H 0.117 0.15734 0.05957 0.0
H981 H 0.10502 0.19004 0.0404 0.0
H982 H 0.09477 0.15236 0.97153 0.0
H983 H 0.10713 0.12018 0.99051 0.0
C984 C 0.07418 0.21014 0.95856 0.0
C985 C 0.05609 0.21747 0.97 0.0
C986 C 0.08892 0.19694 0.97028 0.0
C987 C 0.0858 0.19069 0.99362 0.0
C988 C 0.06826 0.19868 1.00536 0.0
C989 C 0.05361 0.212 0.9937 0.0
C990 C 0.11305 0.15645 0.04024 0.0
C991 C 0.11261 0.1362 0.02651 0.0
C992 C 0.10596 0.17503 0.02931 0.0
C993 C 0.09854 0.1736 1.00454 0.0
C994 C 0.10044 0.15409 0.99062 0.0
C995 C 0.1074 0.13557 1.00151 0.0
H996 H 0.23583 0.89334 0.18188 0.0
H997 H 0.19126 0.90099 0.2375 0.0
H998 H 0.26822 0.88982 0.21216 0.0
H999 H 0.22384 0.89796 0.26781 0.0
H1000 H 0.32432 0.88287 0.27039 0.0
H1001 H 0.29709 0.90312 0.24749 0.0
H1002 H 0.23828 0.86305 0.27621 0.0
H1003 H 0.26536 0.84312 0.29916 0.0
C1004 C 0.23321 0.89519 0.20059 0.0
C1005 C 0.2108 0.8969 0.20726 0.0
C1006 C 0.25184 0.89321 0.21801 0.0
C1007 C 0.24841 0.89308 0.24239 0.0
C1008 C 0.22684 0.89745 0.24914 0.0
C1009 C 0.2082 0.89929 0.23176 0.0
C1010 C 0.30564 0.87893 0.2724 0.0
C1011 C 0.29693 0.86128 0.28644 0.0
C1012 C 0.29005 0.89041 0.25913 0.0
C1013 C 0.26551 0.88462 0.25988 0.0
C1014 C 0.25708 0.86817 0.27539 0.0
C1015 C 0.2726 0.8566 0.28847 0.0
H1016 H 0.49196 0.79669 0.45712 0.0
H1017 H 0.51039 0.81495 0.3873 0.0
H1018 H 0.49009 0.83614 0.46774 0.0
H1019 H 0.50861 0.85454 0.39809 0.0
H1020 H 0.49539 0.9246 0.42711 0.0
H1021 H 0.48452 0.88451 0.41283 0.0
H1022 H 0.52749 0.86653 0.47417 0.0
H1023 H 0.53906 0.90619 0.48792 0.0
C1024 C 0.495 0.80903 0.44382 0.0
C1025 C 0.50189 0.80291 0.42161 0.0
C1026 C 0.49395 0.83158 0.44992 0.0
C1027 C 0.4997 0.84835 0.4339 0.0
C1028 C 0.50413 0.84189 0.41075 0.0
C1029 C 0.50521 0.81926 0.40463 0.0
C1030 C 0.50261 0.91208 0.43747 0.0
C1031 C 0.51802 0.91862 0.45877 0.0
C1032 C 0.49622 0.88918 0.42937 0.0
C1033 C 0.50485 0.87249 0.44265 0.0
C1034 C 0.52007 0.87902 0.46394 0.0
C1035 C 0.52669 0.90179 0.47182 0.0
H1036 H 0.56263 0.32202 0.67437 0.0
H1037 H 0.60007 0.35036 0.74272 0.0
H1038 H 0.53045 0.30262 0.69467 0.0
H1039 H 0.56765 0.33193 0.76291 0.0
H1040 H 0.51203 0.28987 0.79719 0.0
H1041 H 0.54579 0.29794 0.77453 0.0
H1042 H 0.49963 0.31346 0.71413 0.0
H1043 H 0.46586 0.30389 0.73611 0.0
C1044 C 0.56396 0.32408 0.69373 0.0
C1045 C 0.5837 0.33785 0.70697 0.0
C1046 C 0.54553 0.31303 0.70537 0.0
C1047 C 0.54636 0.31579 0.73044 0.0
C1048 C 0.56653 0.32905 0.74365 0.0
C1049 C 0.58505 0.33984 0.73205 0.0
C1050 C 0.50903 0.29436 0.77884 0.0
C1051 C 0.48635 0.29666 0.7686 0.0
C1052 C 0.52842 0.29928 0.76594 0.0
C1053 C 0.52553 0.30677 0.74265 0.0
C1054 C 0.50259 0.30765 0.73195 0.0
C1055 C 0.48322 0.3025 0.74471 0.0
H1056 H 0.07744 0.85304 0.59332 0.0
H1057 H 0.07542 0.88587 0.6623 0.0
H1058 H 0.08044 0.88968 0.57536 0.0
H1059 H 0.07872 0.92254 0.64479 0.0
H1060 H 0.07934 0.99151 0.61023 0.0
H1061 H 0.07664 0.95494 0.62784 0.0
H1062 H 0.08758 0.92387 0.5603 0.0
H1063 H 0.08993 0.96066 0.54281 0.0
C1064 C 0.07771 0.86801 0.60496 0.0
C1065 C 0.07612 0.86541 0.62979 0.0
C1066 C 0.07952 0.8897 0.59443 0.0
C1067 C 0.07992 0.9107 0.60784 0.0
C1068 C 0.07841 0.90789 0.63278 0.0
C1069 C 0.07655 0.88622 0.64324 0.0
C1070 C 0.0813 0.97702 0.5989 0.0
C1071 C 0.08505 0.98022 0.5746 0.0
C1072 C 0.07974 0.95533 0.60927 0.0
C1073 C 0.0818 0.9348 0.59627 0.0
C1074 C 0.08563 0.93815 0.57187 0.0
C1075 C 0.08714 0.95989 0.56149 0.0
H1076 H 0.50871 0.82552 0.92048 0.0
H1077 H 0.5257 0.77738 0.86889 0.0
H1078 H 0.47094 0.82553 0.8968 0.0
H1079 H 0.4871 0.77717 0.84488 0.0
H1080 H 0.40289 0.76694 0.82117 0.0
H1081 H 0.44233 0.76598 0.84244 0.0
H1082 H 0.45155 0.83773 0.86102 0.0
H1083 H 0.41264 0.83869 0.83974 0.0
C1084 C 0.50458 0.8149 0.90393 0.0
C1085 C 0.52102 0.80154 0.89699 0.0
C1086 C 0.48256 0.81499 0.89008 0.0
C1087 C 0.47521 0.80141 0.86846 0.0
C1088 C 0.49157 0.78789 0.86134 0.0
C1089 C 0.51405 0.78814 0.87512 0.0
C1090 C 0.41328 0.78258 0.82972 0.0
C1091 C 0.40389 0.80291 0.82843 0.0
C1092 C 0.43624 0.78206 0.84195 0.0
C1093 C 0.45082 0.80174 0.85394 0.0
C1094 C 0.44132 0.82198 0.85254 0.0
C1095 C 0.41868 0.82258 0.84005 0.0
H1096 H 0.56793 0.2418 0.08114 0.0
H1097 H 0.57261 0.22055 0.15311 0.0
H1098 H 0.56917 0.20376 0.06558 0.0
H1099 H 0.57358 0.18152 0.13731 0.0
H1100 H 0.59374 0.11389 0.10208 0.0
H1101 H 0.59073 0.15138 0.12013 0.0
H1102 H 0.55539 0.16685 0.05314 0.0
H1103 H 0.55871 0.12991 0.03535 0.0
C1104 C 0.56871 0.22894 0.09395 0.0
C1105 C 0.56962 0.23534 0.11879 0.0
C1106 C 0.56943 0.20644 0.08474 0.0
C1107 C 0.57142 0.18814 0.09956 0.0
C1108 C 0.57215 0.19433 0.1246 0.0
C1109 C 0.5712 0.21712 0.1339 0.0
C1110 C 0.58529 0.12518 0.09102 0.0
C1111 C 0.57661 0.11785 0.0667 0.0
C1112 C 0.58342 0.14715 0.10162 0.0
C1113 C 0.5729 0.16353 0.08865 0.0
C1114 C 0.56411 0.15593 0.06441 0.0
C1115 C 0.56588 0.13406 0.05393 0.0
H1116 H 0.13913 0.28025 0.35477 0.0
H1117 H 0.18324 0.31305 0.41747 0.0
H1118 H 0.17413 0.28029 0.33382 0.0
H1119 H 0.21844 0.31308 0.39666 0.0
H1120 H 0.28009 0.32568 0.34851 0.0
H1121 H 0.24501 0.32596 0.36936 0.0
H1122 H 0.2083 0.26751 0.32465 0.0
H1123 H 0.24335 0.26741 0.30383 0.0
C1124 C 0.15628 0.28744 0.36436 0.0
C1125 C 0.15754 0.29656 0.38833 0.0
C1126 C 0.17683 0.2874 0.35214 0.0
C1127 C 0.2002 0.29668 0.3629 0.0
C1128 C 0.20139 0.30587 0.38693 0.0
C1129 C 0.18081 0.30573 0.39922 0.0
C1130 C 0.26459 0.31284 0.34289 0.0
C1131 C 0.26538 0.29658 0.32391 0.0
C1132 C 0.24407 0.31287 0.35522 0.0
C1133 C 0.22275 0.29673 0.34936 0.0
C1134 C 0.22357 0.28061 0.33018 0.0
C1135 C 0.24414 0.28047 0.318 0.0
H1136 H 0.96006 0.07445 0.16956 0.0
H1137 H 0.96841 1.01238 0.13218 0.0
H1138 H 0.98784 0.09615 0.14567 0.0
H1139 H 0.99577 0.03409 0.10813 0.0
H1140 H 0.07487 0.07249 0.13195 0.0
H1141 H 1.03648 0.06092 0.14628 0.0
H1142 H 1.00317 0.09583 0.09059 0.0
H1143 H 0.04158 0.10779 0.07621 0.0
C1144 C 0.96644 0.06562 0.15505 0.0
C1145 C 0.9625 0.04179 0.15284 0.0
C1146 C 0.98248 0.07803 0.14158 0.0
C1147 C 0.99407 0.06658 0.12558 0.0
C1148 C 0.98698 0.04313 0.12052 0.0
C1149 C 0.97119 0.03075 0.1341 0.0
C1150 C 0.05958 0.07836 0.12323 0.0
C1151 C 0.06121 0.09079 0.10282 0.0
C1152 C 1.03765 0.07162 0.1313 0.0
C1153 C 1.01712 0.07732 0.11919 0.0
C1154 C 1.01887 0.09127 0.10004 0.0
C1155 C 0.04085 0.09807 0.09195 0.0
H1156 H 0.30414 0.69969 0.45034 0.0
H1157 H 0.32901 0.76534 0.48771 0.0
H1158 H 0.30382 0.71721 0.41216 0.0
H1159 H 0.33059 0.78283 0.44974 0.0
H1160 H 0.31814 0.81258 0.37841 0.0
H1161 H 0.31262 0.79511 0.41613 0.0
H1162 H 0.32749 0.73236 0.38517 0.0
H1163 H 0.33106 0.74949 0.3472 0.0
C1164 C 0.30961 0.7179 0.45032 0.0
C1165 C 0.31657 0.73114 0.47196 0.0
C1166 C 0.30972 0.72801 0.4284 0.0
C1167 C 0.3175 0.75157 0.42752 0.0
C1168 C 0.32407 0.76478 0.44938 0.0
C1169 C 0.32331 0.75472 0.47129 0.0
C1170 C 0.32005 0.79501 0.37977 0.0
C1171 C 0.3249 0.78235 0.35991 0.0
C1172 C 0.31707 0.78495 0.40147 0.0
C1173 C 0.31957 0.76215 0.40403 0.0
C1174 C 0.32472 0.74969 0.38401 0.0
C1175 C 0.32702 0.75956 0.36218 0.0
H1176 H 0.56368 0.95833 0.71361 0.0
H1177 H 0.63448 0.97303 0.69332 0.0
H1178 H 0.54746 0.95542 0.67157 0.0
H1179 H 0.61822 0.97029 0.65144 0.0
H1180 H 0.54582 1.0163 0.61933 0.0
H1181 H 0.55077 0.99264 0.65271 0.0
H1182 H 0.59276 0.95481 0.61282 0.0
H1183 H 0.5873 0.9785 0.579 0.0
C1184 C 0.57585 0.95998 0.70017 0.0
C1185 C 0.60034 0.96689 0.70683 0.0
C1186 C 0.56651 0.95828 0.67607 0.0
C1187 C 0.58152 0.96343 0.65832 0.0
C1188 C 0.60614 0.9664 0.66472 0.0
C1189 C 0.61551 0.96807 0.68885 0.0
C1190 C 0.55522 1.00229 0.61733 0.0
C1191 C 0.56633 0.99928 0.5968 0.0
C1192 C 0.55797 0.98859 0.63638 0.0
C1193 C 0.57233 0.97192 0.63547 0.0
C1194 C 0.58163 0.96753 0.614 0.0
C1195 C 0.57843 0.98101 0.59466 0.0
H1196 H 0.30032 0.42071 0.95805 0.0
H1197 H 0.33121 0.37128 0.99763 0.0
H1198 H 0.30509 0.40063 0.92022 0.0
H1199 H 0.33651 0.35153 0.95997 0.0
H1200 H 0.36342 0.3326 0.88699 0.0
H1201 H 0.35851 0.35279 0.92455 0.0
H1202 H 0.29118 0.36569 0.89296 0.0
H1203 H 0.29588 0.34503 0.85555 0.0
C1204 C 0.30829 0.40565 0.95886 0.0
C1205 C 0.31532 0.39795 0.98149 0.0
C1206 C 0.31094 0.39389 0.9369 0.0
C1207 C 0.32129 0.37407 0.93632 0.0
C1208 C 0.32864 0.36664 0.95903 0.0
C1209 C 0.32549 0.37808 0.98093 0.0
C1210 C 0.34747 0.33964 0.88788 0.0
C1211 C 0.33013 0.3368 0.86759 0.0
C1212 C 0.34456 0.3513 0.90976 0.0
C1213 C 0.32437 0.36129 0.9125 0.0
C1214 C 0.30714 0.35867 0.89209 0.0
C1215 C 0.30982 0.34655 0.87037 0.0
H1216 H 0.95599 1.01411 0.2984 0.0
H1217 H 1.0122 0.02994 0.25381 0.0
H1218 H 0.98524 1.01077 0.33226 0.0
H1219 H 0.04141 0.02681 0.28778 0.0
H1220 H 0.08075 0.05017 0.36653 0.0
H1221 H 0.05482 0.04988 0.32894 0.0
H1222 H 1.01549 0.98481 0.34298 0.0
H1223 H 0.04103 0.9851 0.38038 0.0
C1224 C 0.97455 1.01674 0.29583 0.0
C1225 C 0.98185 1.02226 0.27354 0.0
C1226 C 0.99125 1.01475 0.31512 0.0
C1227 C 1.01551 1.01852 0.31251 0.0
C1228 C 1.02281 1.02392 0.2902 0.0
C1229 C 1.00609 0.02559 0.27081 0.0
C1230 C 0.06685 0.03564 0.36129 0.0
C1231 C 0.06296 1.01766 0.37634 0.0
C1232 C 0.0521 0.03544 0.33983 0.0
C1233 C 1.03308 1.01741 0.33332 0.0
C1234 C 1.02992 0.99897 0.34777 0.0
C1235 C 0.04475 0.99905 0.36901 0.0
H1236 H 0.29025 0.75216 0.60393 0.0
H1237 H 0.35711 0.7289 0.60541 0.0
H1238 H 0.29831 0.76236 0.64686 0.0
H1239 H 0.36541 0.73982 0.64867 0.0
H1240 H 0.37208 0.79755 0.71714 0.0
H1241 H 0.36861 0.78296 0.67513 0.0
H1242 H 0.30564 0.73582 0.68514 0.0
H1243 H 0.30916 0.74983 0.72691 0.0
C1244 C 0.30673 0.74929 0.61341 0.0
C1245 C 0.32305 0.7397 0.60127 0.0
C1246 C 0.31127 0.75507 0.63799 0.0
C1247 C 0.33245 0.75186 0.65097 0.0
C1248 C 0.34897 0.74248 0.63896 0.0
C1249 C 0.34416 0.73615 0.61432 0.0
C1250 C 0.35776 0.78378 0.7105 0.0
C1251 C 0.34084 0.77497 0.72542 0.0
C1252 C 0.35586 0.77541 0.68652 0.0
C1253 C 0.33681 0.75836 0.677 0.0
C1254 C 0.32046 0.749 0.6921 0.0
C1255 C 0.32255 0.75705 0.71606 0.0
H1256 H 0.67184 0.05593 0.82486 0.0
H1257 H 0.59932 1.02098 0.81 0.0
H1258 H 0.65896 0.0856 0.84897 0.0
H1259 H 0.58658 0.05054 0.83362 0.0
H1260 H 0.56306 0.10727 0.86483 0.0
H1261 H 0.5843 0.09269 0.83405 0.0
H1262 H 0.6407 0.08491 0.88824 0.0
H1263 H 0.61958 0.09892 0.91888 0.0
C1264 C 0.6532 0.05456 0.82677 0.0
C1265 C 0.63657 0.03609 0.81564 0.0
C1266 C 0.64585 0.07164 0.84031 0.0
C1267 C 0.62174 0.07063 0.84265 0.0
C1268 C 0.60521 0.05213 0.83153 0.0
C1269 C 0.61255 0.035 0.8183 0.0
C1270 C 0.58042 0.1033 0.87006 0.0
C1271 C 0.58915 0.10346 0.8944 0.0
C1272 C 0.59254 0.09492 0.85245 0.0
C1273 C 0.61369 0.08697 0.85897 0.0
C1274 C 0.62432 0.09075 0.88275 0.0
C1275 C 0.61215 0.09895 0.90037 0.0
H1276 H 0.31951 0.41887 0.1341 0.0
H1277 H 0.30724 0.35226 0.0981 0.0
H1278 H 0.31955 0.40139 0.17304 0.0
H1279 H 0.30803 0.33511 0.13598 0.0
H1280 H 0.29763 0.30247 0.20586 0.0
H1281 H 0.29371 0.32199 0.1691 0.0
H1282 H 0.3364 0.38283 0.20506 0.0
H1283 H 0.33957 0.3632 0.24227 0.0
C1284 C 0.31633 0.40055 0.13421 0.0
C1285 C 0.31304 0.38732 0.11214 0.0
C1286 C 0.31672 0.3903 0.15688 0.0
C1287 C 0.31375 0.36629 0.1587 0.0
C1288 C 0.30997 0.35338 0.13646 0.0
C1289 C 0.30963 0.3635 0.11416 0.0
C1290 C 0.30616 0.32006 0.2062 0.0
C1291 C 0.31899 0.33082 0.22777 0.0
C1292 C 0.30412 0.3315 0.18461 0.0
C1293 C 0.31497 0.35448 0.18296 0.0
C1294 C 0.32748 0.36539 0.20475 0.0
C1295 C 0.32942 0.35392 0.22646 0.0
H1296 H 0.32896 0.95838 0.09618 0.0
H1297 H 0.27103 0.92259 0.04616 0.0
H1298 H 0.30388 0.98404 0.10919 0.0
H1299 H 0.24595 0.94902 0.05839 0.0
H1300 H 0.20168 0.99245 0.09497 0.0
H1301 H 0.22526 0.96313 0.08839 0.0
H1302 H 0.28825 1.01479 0.09398 0.0
H1303 H 0.26469 0.04386 0.10128 0.0
C1304 C 0.31076 0.95599 0.08799 0.0
C1305 C 0.30198 0.93864 0.06999 0.0
C1306 C 0.29641 0.97083 0.09533 0.0
C1307 C 0.27297 0.96896 0.08457 0.0
C1308 C 0.26386 0.95092 0.06723 0.0
C1309 C 0.2782 0.93579 0.06013 0.0
C1310 C 0.22063 0.99744 0.09502 0.0
C1311 C 0.23139 1.02043 0.09861 0.0
C1312 C 0.23412 0.98066 0.0911 0.0
C1313 C 0.25868 0.98651 0.09049 0.0
C1314 C 0.26947 1.00952 0.09472 0.0
C1315 C 0.25599 0.02625 0.09888 0.0
H1316 H 0.79063 0.62531 0.06219 0.0
H1317 H 0.75801 0.66262 1.00849 0.0
H1318 H 0.75168 0.60154 0.06493 0.0
H1319 H 0.71966 0.63898 1.01089 0.0
H1320 H 0.65545 0.58086 1.00399 0.0
H1321 H 0.69526 0.60181 1.00175 0.0
H1322 H 0.71113 0.60136 0.07831 0.0
H1323 H 0.67087 0.58051 0.08058 0.0
C1324 C 0.77538 0.62827 0.05059 0.0
C1325 C 0.77808 0.64606 0.03487 0.0
C1326 C 0.75276 0.6147 0.05236 0.0
C1327 C 0.73185 0.61794 0.03814 0.0
C1328 C 0.73486 0.63538 0.02209 0.0
C1329 C 0.75719 0.64914 0.0207 0.0
C1330 C 0.6673 0.58503 0.02048 0.0
C1331 C 0.65931 0.5786 0.04248 0.0
C1332 C 0.69042 0.59735 1.0192 0.0
C1333 C 0.70711 0.6037 0.03981 0.0
C1334 C 0.69932 0.59687 0.06184 0.0
C1335 C 0.67593 0.58484 0.06318 0.0
H1336 H 0.83308 0.56371 0.3515 0.0
H1337 H 0.77823 0.50442 0.34954 0.0
H1338 H 0.86198 0.53915 0.345 0.0
H1339 H 0.80679 0.4802 0.34302 0.0
H1340 H 0.85946 0.43838 0.34795 0.0
H1341 H 0.84218 0.4687 0.36467 0.0
H1342 H 0.86845 0.51238 0.31107 0.0
H1343 H 0.887 0.4823 0.29489 0.0
C1344 C 0.82723 0.54548 0.34971 0.0
C1345 C 0.80341 0.53594 0.35096 0.0
C1346 C 0.84374 0.53149 0.34606 0.0
C1347 C 0.8367 0.5078 0.34393 0.0
C1348 C 0.81288 0.49839 0.34521 0.0
C1349 C 0.79643 0.51229 0.34865 0.0
C1350 C 0.86263 0.45471 0.34033 0.0
C1351 C 0.87415 0.45769 0.31963 0.0
C1352 C 0.85241 0.47203 0.34978 0.0
C1353 C 0.85332 0.49256 0.33865 0.0
C1354 C 0.86728 0.49661 0.31985 0.0
C1355 C 0.87772 0.4793 0.31047 0.0
H1356 H 0.90517 0.44634 0.56458 0.0
H1357 H 0.93475 0.40137 0.51894 0.0
H1358 H 0.94187 0.47391 0.56789 0.0
H1359 H 0.97156 0.42916 0.52229 0.0
H1360 H 1.0111 0.49833 0.50276 0.0
H1361 H 0.97809 0.4683 0.50573 0.0
H1362 H 0.98717 0.48055 0.58265 0.0
H1363 H 1.02111 0.51106 0.57985 0.0
C1364 C 0.91957 0.44225 0.55537 0.0
C1365 C 0.9169 0.42178 0.54114 0.0
C1366 C 0.94068 0.45797 0.55754 0.0
C1367 C 0.95949 0.45371 0.5453 0.0
C1368 C 0.95722 0.4329 0.53181 0.0
C1369 C 0.93618 0.417 0.52989 0.0
C1370 C 1.00623 0.49485 0.52044 0.0
C1371 C 1.0188 0.5073 0.54112 0.0
C1372 C 0.98738 0.47736 0.52208 0.0
C1373 C 0.98028 0.47186 0.54439 0.0
C1374 C 0.99242 0.48443 0.5652 0.0
C1375 C 1.01173 0.5019 0.5636 0.0
H1376 H 0.48813 0.18713 0.31371 0.0
H1377 H 0.47334 0.12277 0.27253 0.0
H1378 H 0.4583 0.20085 0.28716 0.0
H1379 H 0.44487 0.13684 0.24463 0.0
H1380 H 0.40552 0.22468 0.23907 0.0
H1381 H 0.44256 0.21281 0.25188 0.0
H1382 H 0.40702 0.14272 0.24385 0.0
H1383 H 0.37067 0.15448 0.22851 0.0
C1384 C 0.47894 0.17621 0.29847 0.0
C1385 C 0.48263 0.15384 0.29532 0.0
C1386 C 0.46192 0.18407 0.28303 0.0
C1387 C 0.44871 0.16988 0.26373 0.0
C1388 C 0.45398 0.14806 0.25964 0.0
C1389 C 0.47044 0.14001 0.27551 0.0
C1390 C 0.40572 0.20666 0.23895 0.0
C1391 C 0.38474 0.19056 0.23328 0.0
C1392 C 0.42703 0.19985 0.24688 0.0
C1393 C 0.42784 0.17683 0.24988 0.0
C1394 C 0.40737 0.16064 0.24197 0.0
C1395 C 0.38623 0.16742 0.23346 0.0
H1396 H 0.39594 0.11054 0.54589 0.0
H1397 H 0.44163 0.17549 0.54839 0.0
H1398 H 0.43045 0.09164 0.54754 0.0
H1399 H 0.47633 0.15666 0.55038 0.0
H1400 H 0.53823 0.11715 0.57358 0.0
H1401 H 0.50387 0.13633 0.57189 0.0
H1402 H 0.46198 0.07943 0.52852 0.0
H1403 H 0.49647 0.06045 0.53 0.0
C1404 C 0.41332 0.12101 0.5469 0.0
C1405 C 0.41523 0.14496 0.54705 0.0
C1406 C 0.4335 0.10997 0.5477 0.0
C1407 C 0.45711 0.12211 0.54911 0.0
C1408 C 0.45901 0.14613 0.54954 0.0
C1409 C 0.43875 0.15716 0.54831 0.0
C1410 C 0.52176 0.10853 0.56363 0.0
C1411 C 0.52089 0.08677 0.55205 0.0
C1412 C 0.5017 0.1198 0.56251 0.0
C1413 C 0.47921 0.10992 0.55008 0.0
C1414 C 0.47835 0.08807 0.53861 0.0
C1415 C 0.49853 0.07698 0.53937 0.0
H1416 H 0.72939 0.6563 0.39107 0.0
H1417 H 0.79668 0.6364 0.38268 0.0
H1418 H 0.74632 0.6954 0.38491 0.0
H1419 H 0.81312 0.6749 0.37545 0.0
H1420 H 0.84066 0.74477 0.3609 0.0
H1421 H 0.82567 0.71368 0.38454 0.0
H1422 H 0.75505 0.71189 0.34885 0.0
H1423 H 0.76995 0.7438 0.32627 0.0
C1424 C 0.74793 0.66032 0.38851 0.0
C1425 C 0.76148 0.64309 0.38663 0.0
C1426 C 0.75757 0.68271 0.38474 0.0
C1427 C 0.78085 0.68821 0.37891 0.0
C1428 C 0.79511 0.67142 0.37984 0.0
C1429 C 0.78558 0.64916 0.38384 0.0
C1430 C 0.8219 0.73782 0.3583 0.0
C1431 C 0.80651 0.7463 0.34139 0.0
C1432 C 0.81329 0.72003 0.37187 0.0
C1433 C 0.7892 0.71002 0.36843 0.0
C1434 C 0.77366 0.71931 0.35228 0.0
C1435 C 0.78221 0.73742 0.33906 0.0
H1436 H 1.03474 0.54525 0.88961 0.0
H1437 H 0.97215 0.57591 0.8834 0.0
H1438 H 1.00989 0.50768 0.88661 0.0
H1439 H 0.94736 0.53851 0.88103 0.0
H1440 H 0.91493 0.47236 0.83593 0.0
H1441 H 0.93829 0.50951 0.84883 0.0
H1442 H 0.98095 0.47919 0.9017 0.0
H1443 H 0.95753 0.44186 0.88863 0.0
C1444 C 1.01571 0.54401 0.88845 0.0
C1445 C 1.0054 0.56352 0.88634 0.0
C1446 C 1.00143 0.52246 0.88669 0.0
C1447 C 0.9766 0.52006 0.88295 0.0
C1448 C 0.96641 0.53972 0.88316 0.0
C1449 C 0.98063 0.56118 0.88473 0.0
C1450 C 0.92904 0.47363 0.85055 0.0
C1451 C 0.93438 0.45412 0.86115 0.0
C1452 C 0.94243 0.49497 0.85804 0.0
C1453 C 0.96147 0.4974 0.87642 0.0
C1454 C 0.96658 0.47792 0.88735 0.0
C1455 C 0.95318 0.45653 0.8798 0.0
H1456 H 0.11303 0.93721 0.1784 0.0
H1457 H 0.1335 0.90285 0.11692 0.0
H1458 H 0.1027 0.96708 0.15336 0.0
H1459 H 0.12287 0.93249 0.0919 0.0
H1460 H 0.06975 1.00887 0.09786 0.0
H1461 H 0.0741 0.97458 0.11893 0.0
H1462 H 0.1397 0.97256 0.0893 0.0
H1463 H 0.13526 1.00627 0.06831 0.0
C1464 C 0.1153 0.93604 0.15955 0.0
C1465 C 0.12429 0.91782 0.14965 0.0
C1466 C 0.1091 0.95297 0.14517 0.0
C1467 C 0.11185 0.95205 0.12066 0.0
C1468 C 0.12068 0.93372 0.11077 0.0
C1469 C 0.12682 0.91678 0.12511 0.0
C1470 C 0.08471 1.00067 0.09544 0.0
C1471 C 0.1022 1.0102 0.08159 0.0
C1472 C 0.08735 0.98126 0.10766 0.0
C1473 C 0.10733 0.971 0.10587 0.0
C1474 C 0.12403 0.97991 0.09089 0.0
C1475 C 0.12152 0.9993 0.07895 0.0
H1476 H 0.93033 0.23663 0.91638 0.0
H1477 H 0.97645 0.22824 0.86228 0.0
H1478 H 0.89871 0.2399 0.88518 0.0
H1479 H 0.9447 0.23151 0.83115 0.0
H1480 H 0.90488 0.29024 0.80296 0.0
H1481 H 0.9313 0.26917 0.82544 0.0
H1482 H 0.87111 0.22514 0.84737 0.0
H1483 H 0.84452 0.24623 0.8247 0.0
C1484 C 0.93348 0.23465 0.89783 0.0
C1485 C 0.95611 0.2328 0.89187 0.0
C1486 C 0.91529 0.23641 0.87993 0.0
C1487 C 0.91947 0.23643 0.8558 0.0
C1488 C 0.94118 0.23188 0.84967 0.0
C1489 C 0.95932 0.22993 0.86756 0.0
C1490 C 0.89726 0.27573 0.81209 0.0
C1491 C 0.87269 0.27002 0.81228 0.0
C1492 C 0.91237 0.26351 0.82478 0.0
C1493 C 0.90321 0.24552 0.83816 0.0
C1494 C 0.87858 0.23895 0.83721 0.0
C1495 C 0.86342 0.251 0.8242 0.0
H1496 H 0.65199 0.30536 0.68867 0.0
H1497 H 0.6587 0.30895 0.61313 0.0
H1498 H 0.65145 0.26465 0.68508 0.0
H1499 H 0.65719 0.26819 0.60932 0.0
H1500 H 0.66898 0.1965 0.61073 0.0
H1501 H 0.67677 0.23763 0.61846 0.0
H1502 H 0.62487 0.2315 0.6688 0.0
H1503 H 0.61789 0.19033 0.66162 0.0
C1504 C 0.65341 0.29747 0.6713 0.0
C1505 C 0.65528 0.31038 0.65115 0.0
C1506 C 0.65295 0.2741 0.66922 0.0
C1507 C 0.65408 0.26307 0.64688 0.0
C1508 C 0.65664 0.27612 0.62689 0.0
C1509 C 0.65738 0.29952 0.62903 0.0
C1510 C 0.65944 0.20403 0.62359 0.0
C1511 C 0.64275 0.19036 0.63549 0.0
C1512 C 0.66379 0.22756 0.62795 0.0
C1513 C 0.65129 0.23794 0.64408 0.0
C1514 C 0.63508 0.22412 0.65652 0.0
C1515 C 0.63097 0.20054 0.65236 0.0
H1516 H 0.59637 0.79035 0.41319 0.0
H1517 H 0.57797 0.72687 0.37021 0.0
H1518 H 0.63127 0.80071 0.39276 0.0
H1519 H 0.61354 0.73667 0.35048 0.0
H1520 H 0.66138 0.7718 0.29983 0.0
H1521 H 0.62773 0.76129 0.32186 0.0
H1522 H 0.66912 0.79406 0.38672 0.0
H1523 H 0.70219 0.80607 0.36427 0.0
C1524 C 0.60009 0.77838 0.39972 0.0
C1525 C 0.58439 0.75786 0.39319 0.0
C1526 C 0.62017 0.78429 0.38803 0.0
C1527 C 0.62518 0.76965 0.36975 0.0
C1528 C 0.60996 0.74864 0.36402 0.0
C1529 C 0.58969 0.74288 0.37549 0.0
C1530 C 0.66319 0.77718 0.31868 0.0
C1531 C 0.68456 0.78985 0.3302 0.0
C1532 C 0.64399 0.77075 0.33147 0.0
C1533 C 0.6457 0.77659 0.35619 0.0
C1534 C 0.66702 0.78939 0.36768 0.0
C1535 C 0.68614 0.79605 0.35483 0.0
H1536 H 0.06932 0.23596 0.49076 0.0
H1537 H 0.10398 0.21782 0.43069 0.0
H1538 H 0.06774 0.19844 0.50463 0.0
H1539 H 0.10276 0.17929 0.44517 0.0
H1540 H 0.08573 0.10331 0.4708 0.0
H1541 H 0.08808 0.14091 0.45428 0.0
H1542 H 0.08018 0.16994 0.52374 0.0
H1543 H 0.07749 0.13275 0.53976 0.0
C1544 C 0.07694 0.22414 0.48023 0.0
C1545 C 0.08692 0.23136 0.45914 0.0
C1546 C 0.07615 0.20187 0.48863 0.0
C1547 C 0.08529 0.1844 0.47681 0.0
C1548 C 0.09526 0.19135 0.45546 0.0
C1549 C 0.09612 0.21401 0.44696 0.0
C1550 C 0.08428 0.1176 0.48268 0.0
C1551 C 0.08108 0.11384 0.50707 0.0
C1552 C 0.08582 0.13974 0.47304 0.0
C1553 C 0.08418 0.15985 0.487 0.0
C1554 C 0.08112 0.15586 0.51139 0.0
C1555 C 0.07965 0.13389 0.52096 0.0
H1556 H 0.67003 0.32191 0.15655 0.0
H1557 H 0.6322 0.3004 0.21574 0.0
H1558 H 0.70725 0.32104 0.18026 0.0
H1559 H 0.67029 0.3 0.24023 0.0
H1560 H 0.74446 0.28353 0.2728 0.0
H1561 H 0.70531 0.28423 0.251 0.0
H1562 H 0.73715 0.33698 0.20908 0.0
H1563 H 0.77584 0.33582 0.23032 0.0
C1564 C 0.66943 0.31716 0.17483 0.0
C1565 C 0.64727 0.31135 0.18375 0.0
C1566 C 0.69132 0.31683 0.1888 0.0
C1567 C 0.69277 0.31067 0.21282 0.0
C1568 C 0.67061 0.30478 0.22195 0.0
C1569 C 0.64844 0.30518 0.20782 0.0
C1570 C 0.74319 0.29532 0.25893 0.0
C1571 C 0.76403 0.30953 0.25362 0.0
C1572 C 0.7204 0.29583 0.24631 0.0
C1573 C 0.71718 0.3105 0.22758 0.0
C1574 C 0.7381 0.3249 0.22267 0.0
C1575 C 0.76073 0.32438 0.23523 0.0
H1576 H 0.59625 0.85531 0.98701 0.0
H1577 H 0.59507 0.87944 0.91629 0.0
H1578 H 0.59427 0.89355 1.00354 0.0
H1579 H 0.59292 0.91757 0.93261 0.0
H1580 H 0.57216 0.98419 0.96508 0.0
H1581 H 0.57395 0.94593 0.94868 0.0
H1582 H 0.60999 0.93219 1.01599 0.0
H1583 H 0.60829 0.97049 0.0322 0.0
C1584 C 0.59553 0.86861 0.97473 0.0
C1585 C 0.59587 0.86326 0.94988 0.0
C1586 C 0.59449 0.89109 0.98441 0.0
C1587 C 0.59337 0.90992 0.96993 0.0
C1588 C 0.59348 0.90438 0.94503 0.0
C1589 C 0.59485 0.88201 0.93543 0.0
C1590 C 0.58059 0.97321 0.97658 0.0
C1591 C 0.5901 0.98154 1.00039 0.0
C1592 C 0.58175 0.95076 0.96695 0.0
C1593 C 0.59218 0.9347 0.98049 0.0
C1594 C 0.60151 0.94304 1.00438 0.0
C1595 C 0.60065 0.9656 1.01388 0.0
H1596 H 0.9815 0.79469 0.66242 0.0
H1597 H 1.02681 0.79809 0.7288 0.0
H1598 H 0.94697 0.79336 0.68465 0.0
H1599 H 0.99246 0.79714 0.75112 0.0
H1600 H 0.92702 0.81371 0.78857 0.0
H1601 H 0.96178 0.81449 0.76667 0.0
H1602 H 0.9179 0.77423 0.70784 0.0
H1603 H 0.88344 0.77341 0.72977 0.0
C1604 C 0.98437 0.79511 0.68178 0.0
C1605 C 1.00781 0.7964 0.69322 0.0
C1606 C 0.96415 0.79427 0.69485 0.0
C1607 C 0.96589 0.79513 0.72039 0.0
C1608 C 0.98943 0.7966 0.73177 0.0
C1609 C 1.00956 0.79702 0.71869 0.0
C1610 C 0.92457 0.80485 0.77102 0.0
C1611 C 0.90154 0.79329 0.76162 0.0
C1612 C 0.94493 0.80523 0.75818 0.0
C1613 C 0.94369 0.79447 0.73477 0.0
C1614 C 0.92056 0.78307 0.7254 0.0
C1615 C 0.90036 0.78238 0.73837 0.0
H1616 H 0.24034 0.06848 0.94389 0.0
H1617 H 0.18333 0.0393 0.88935 0.0
H1618 H 0.21379 0.06096 0.97454 0.0
H1619 H 0.15708 0.03047 0.91989 0.0
H1620 H 0.11158 0.05445 0.97554 0.0
H1621 H 0.13678 0.0509 0.94412 0.0
H1622 H 0.19118 0.03519 0.99662 0.0
H1623 H 0.16629 0.0401 0.02806 0.0
C1624 C 0.22226 0.06 0.93859 0.0
C1625 C 0.21371 0.05479 0.91437 0.0
C1626 C 0.20704 0.05546 0.95611 0.0
C1627 C 0.18316 0.04521 0.94969 0.0
C1628 C 0.17514 0.03885 0.92545 0.0
C1629 C 0.1902 0.04383 0.90797 0.0
C1630 C 0.12866 0.0496 0.98013 0.0
C1631 C 0.13722 0.04778 1.00406 0.0
C1632 C 0.14316 0.04753 0.96217 0.0
C1633 C 0.16627 0.04318 0.96789 0.0
C1634 C 0.17381 0.03924 0.99168 0.0
C1635 C 0.15951 0.04181 1.00965 0.0
H1636 H 0.83687 0.331 0.59745 0.0
H1637 H 0.86021 0.40182 0.62004 0.0
H1638 H 0.83801 0.32159 0.63902 0.0
H1639 H 0.86314 0.39244 0.66176 0.0
H1640 H 0.84442 0.3712 0.73514 0.0
H1641 H 0.84419 0.38189 0.69401 0.0
H1642 H 0.86128 0.31682 0.67301 0.0
H1643 H 0.85945 0.30564 0.71385 0.0
C1644 C 0.84246 0.34455 0.61139 0.0
C1645 C 0.84835 0.36714 0.60549 0.0
C1646 C 0.84342 0.33916 0.63535 0.0
C1647 C 0.85097 0.35615 0.65412 0.0
C1648 C 0.85685 0.37882 0.64805 0.0
C1649 C 0.85527 0.38426 0.62406 0.0
C1650 C 0.84835 0.3593 0.72173 0.0
C1651 C 0.85178 0.33753 0.72767 0.0
C1652 C 0.84832 0.36545 0.69803 0.0
C1653 C 0.85241 0.35019 0.67976 0.0
C1654 C 0.85723 0.32885 0.68619 0.0
C1655 C 0.85655 0.32249 0.70974 0.0
H1656 H 0.50662 0.13199 0.41591 0.0
H1657 H 0.57524 0.16261 0.39788 0.0
H1658 H 0.5249 0.12543 0.45579 0.0
H1659 H 0.59338 0.15575 0.43738 0.0
H1660 H 0.60617 0.08885 0.47828 0.0
H1661 H 0.59227 0.11188 0.44692 0.0
H1662 H 0.55421 0.14372 0.49673 0.0
H1663 H 0.56875 0.1212 0.52843 0.0
C1664 C 0.52536 0.13823 0.42083 0.0
C1665 C 0.53962 0.14744 0.40379 0.0
C1666 C 0.53583 0.13445 0.44359 0.0
C1667 C 0.56055 0.13982 0.44934 0.0
C1668 C 0.57432 0.15134 0.43322 0.0
C1669 C 0.56391 0.15524 0.41067 0.0
C1670 C 0.59554 0.10133 0.48271 0.0
C1671 C 0.58865 0.10336 0.50571 0.0
C1672 C 0.5876 0.11449 0.46484 0.0
C1673 C 0.5722 0.1295 0.46955 0.0
C1674 C 0.56615 0.13232 0.49281 0.0
C1675 C 0.57462 0.11956 0.51089 0.0
H1676 H 0.88675 0.72783 0.11827 0.0
H1677 H 0.81503 0.69287 0.11584 0.0
H1678 H 0.88451 0.74508 0.15823 0.0
H1679 H 0.81268 0.70937 0.15576 0.0
H1680 H 0.80372 0.75744 0.21911 0.0
H1681 H 0.80759 0.73868 0.18069 0.0
H1682 H 0.88326 0.74854 0.1993 0.0
H1683 H 0.87923 0.76783 0.23753 0.0
C1684 C 0.87073 0.72299 0.12656 0.0
C1685 C 0.85142 0.70793 0.11356 0.0
C1686 C 0.86926 0.73322 0.14977 0.0
C1687 C 0.84825 0.72925 0.16124 0.0
C1688 C 0.82921 0.71371 0.14828 0.0
C1689 C 0.8307 0.70361 0.12516 0.0
C1690 C 0.82127 0.75566 0.2152 0.0
C1691 C 0.84105 0.76449 0.23221 0.0
C1692 C 0.82359 0.74453 0.19279 0.0
C1693 C 0.84586 0.74142 0.18587 0.0
C1694 C 0.86566 0.75036 0.20298 0.0
C1695 C 0.86333 0.76151 0.2254 0.0
H1696 H 0.19979 0.1178 0.80046 0.0
H1697 H 0.24191 0.06701 0.78559 0.0
H1698 H 0.19143 0.12209 0.75804 0.0
H1699 H 0.23362 0.07144 0.74249 0.0
H1700 H 0.17722 0.13013 0.68302 0.0
H1701 H 0.20453 0.13256 0.7198 0.0
H1702 H 0.19551 0.05939 0.7169 0.0
H1703 H 0.16862 0.05702 0.68022 0.0
C1704 C 0.20762 0.10782 0.78803 0.0
C1705 C 0.22101 0.09168 0.79618 0.0
C1706 C 0.20314 0.11053 0.76368 0.0
C1707 C 0.2118 0.09703 0.74688 0.0
C1708 C 0.22662 0.08196 0.75509 0.0
C1709 C 0.23135 0.07943 0.77966 0.0
C1710 C 0.18156 0.11464 0.69001 0.0
C1711 C 0.17046 0.09339 0.67911 0.0
C1712 C 0.19724 0.11602 0.71094 0.0
C1713 C 0.20184 0.09615 0.72142 0.0
C1714 C 0.19251 0.07501 0.7092 0.0
C1715 C 0.17696 0.07365 0.68821 0.0
H1716 H 0.8216 0.34796 0.48608 0.0
H1717 H 0.84569 0.41483 0.46339 0.0
H1718 H 0.81758 0.33231 0.44493 0.0
H1719 H 0.84328 0.39912 0.42223 0.0
H1720 H 0.81955 0.36832 0.34634 0.0
H1721 H 0.82034 0.38418 0.38721 0.0
H1722 H 0.83681 0.3217 0.41433 0.0
H1723 H 0.83449 0.30561 0.37368 0.0
C1724 C 0.82636 0.35929 0.47227 0.0
C1725 C 0.83399 0.38263 0.47804 0.0
C1726 C 0.82424 0.35029 0.44853 0.0
C1727 C 0.83023 0.36427 0.42984 0.0
C1728 C 0.83802 0.3877 0.43578 0.0
C1729 C 0.83964 0.39677 0.4595 0.0
C1730 C 0.82302 0.35791 0.36108 0.0
C1731 C 0.82669 0.33559 0.35664 0.0
C1732 C 0.82375 0.3671 0.38465 0.0
C1733 C 0.82867 0.35437 0.40449 0.0
C1734 C 0.83237 0.33202 0.39984 0.0
C1735 C 0.83116 0.32273 0.37634 0.0
H1736 H 0.60544 0.11622 0.3074 0.0
H1737 H 0.53405 0.10468 0.27096 0.0
H1738 H 0.62021 0.10636 0.27026 0.0
H1739 H 0.5489 0.09426 0.23386 0.0
H1740 H 0.58641 0.09747 0.16687 0.0
H1741 H 0.57276 0.11027 0.20369 0.0
H1742 H 0.61881 0.07253 0.24444 0.0
H1743 H 0.63333 0.06062 0.20769 0.0
C1744 C 0.59288 0.11156 0.2915 0.0
C1745 C 0.56854 0.11115 0.29218 0.0
C1746 C 0.60134 0.10578 0.27023 0.0
C1747 C 0.5857 0.09938 0.24921 0.0
C1748 C 0.56141 0.09935 0.24974 0.0
C1749 C 0.55292 0.10524 0.27102 0.0
C1750 C 0.59397 0.09226 0.18374 0.0
C1751 C 0.61108 0.07815 0.18442 0.0
C1752 C 0.58588 0.09933 0.20478 0.0
C1753 C 0.59467 0.09236 0.22693 0.0
C1754 C 0.61191 0.07839 0.22765 0.0
C1755 C 0.62005 0.07138 0.2066 0.0
H1756 H 0.85282 0.73634 0.99391 0.0
H1757 H 0.85044 0.67248 0.95483 0.0
H1758 H 0.85098 0.75524 0.95618 0.0
H1759 H 0.84863 0.69123 0.91705 0.0
H1760 H 0.82664 0.72693 0.84834 0.0
H1761 H 0.82878 0.70824 0.88602 0.0
H1762 H 0.86771 0.77044 0.92246 0.0
H1763 H 0.86545 0.78912 0.88459 0.0
C1764 C 0.85186 0.72613 0.97733 0.0
C1765 C 0.85174 0.70249 0.97819 0.0
C1766 C 0.85095 0.73717 0.95527 0.0
C1767 C 0.84962 0.72528 0.93253 0.0
C1768 C 0.84933 0.70155 0.9335 0.0
C1769 C 0.85048 0.69057 0.95557 0.0
C1770 C 0.83584 0.7368 0.86425 0.0
C1771 C 0.84593 0.75992 0.86255 0.0
C1772 C 0.83719 0.72584 0.8863 0.0
C1773 C 0.84848 0.7373 0.90833 0.0
C1774 C 0.85855 0.7605 0.9066 0.0
C1775 C 0.85742 0.77141 0.88444 0.0
H1776 H 0.89941 0.21198 0.02436 0.0
H1777 H 0.85474 0.1507 0.04136 0.0
H1778 H 0.93242 0.19127 0.02295 0.0
H1779 H 0.88748 0.13025 0.03995 0.0
H1780 H 0.93901 0.09539 1.00243 0.0
H1781 H 0.90854 0.11827 1.00622 0.0
H1782 H 0.95938 0.16986 0.04905 0.0
H1783 H 0.98998 0.14665 0.04585 0.0
C1784 C 0.89672 0.19422 0.0281 0.0
C1785 C 0.87441 0.18295 0.03279 0.0
C1786 C 0.9156 0.18239 0.02732 0.0
C1787 C 0.91241 0.15907 0.031 0.0
C1788 C 0.89036 0.1481 0.03659 0.0
C1789 C 0.87163 0.1599 0.03753 0.0
C1790 C 0.94374 0.11148 1.01289 0.0
C1791 C 0.96697 0.119 0.02404 0.0
C1792 C 0.92625 0.12463 1.01499 0.0
C1793 C 0.93151 0.14577 0.02813 0.0
C1794 C 0.95484 0.15369 0.03872 0.0
C1795 C 0.97237 0.1404 0.0368 0.0
H1796 H 0.37942 0.48317 0.05741 0.0
H1797 H 0.40696 0.42643 0.02895 0.0
H1798 H 0.41868 0.50739 0.05728 0.0
H1799 H 0.44527 0.44992 0.02919 0.0
H1800 H 0.5089 0.49791 1.01082 0.0
H1801 H 0.46875 0.47743 1.01083 0.0
H1802 H 0.46071 0.51843 0.07337 0.0
H1803 H 0.50126 0.53941 0.07305 0.0
C1804 C 0.39358 0.47571 0.05107 0.0
C1805 C 0.38923 0.45242 0.04313 0.0
C1806 C 0.41642 0.48969 0.05111 0.0
C1807 C 0.43588 0.48111 0.04296 0.0
C1808 C 0.43127 0.45787 0.03514 0.0
C1809 C 0.40882 0.44407 0.03522 0.0
C1810 C 0.49874 0.50283 0.02463 0.0
C1811 C 0.50905 0.52063 0.04195 0.0
C1812 C 0.47537 0.49074 0.02479 0.0
C1813 C 0.46076 0.49561 0.04233 0.0
C1814 C 0.47082 0.51385 0.05938 0.0
C1815 C 0.49439 0.52599 0.05925 0.0
H1816 H 0.41718 0.61146 0.72454 0.0
H1817 H 0.35849 0.5558 0.72354 0.0
H1818 H 0.39109 0.63827 0.73131 0.0
H1819 H 0.33218 0.58278 0.72997 0.0
H1820 H 0.30985 0.63615 0.78293 0.0
H1821 H 0.32886 0.60727 0.76513 0.0
H1822 H 0.35742 0.65493 0.71594 0.0
H1823 H 0.33927 0.68406 0.73435 0.0
C1824 C 0.39858 0.60497 0.72522 0.0
C1825 C 0.38994 0.58153 0.72378 0.0
C1826 C 0.38356 0.62036 0.72895 0.0
C1827 C 0.35958 0.61264 0.73135 0.0
C1828 C 0.35064 0.58921 0.7285 0.0
C1829 C 0.36568 0.57379 0.72468 0.0
C1830 C 0.31998 0.64038 0.76815 0.0
C1831 C 0.32328 0.66248 0.76028 0.0
C1832 C 0.33065 0.62375 0.75775 0.0
C1833 C 0.34483 0.62889 0.73926 0.0
C1834 C 0.34685 0.65055 0.73036 0.0
C1835 C 0.33621 0.66717 0.74076 0.0
H1836 H 0.22237 0.69398 0.51089 0.0
H1837 H 0.27082 0.64984 0.53458 0.0
H1838 H 0.18938 0.66245 0.50948 0.0
H1839 H 0.23773 0.6182 0.53283 0.0
H1840 H 0.16717 0.57628 0.55372 0.0
H1841 H 0.20275 0.60507 0.55332 0.0
H1842 H 0.1729 0.62688 0.48649 0.0
H1843 H 0.13746 0.59852 0.48701 0.0
C1844 C 0.22604 0.67755 0.51569 0.0
C1845 C 0.24933 0.67454 0.52283 0.0
C1846 C 0.2071 0.65939 0.51473 0.0
C1847 C 0.21089 0.63772 0.52092 0.0
C1848 C 0.23415 0.63468 0.52812 0.0
C1849 C 0.25314 0.65284 0.52899 0.0
C1850 C 0.16843 0.58693 0.53873 0.0
C1851 C 0.14936 0.5852 0.52053 0.0
C1852 C 0.18881 0.60346 0.5385 0.0
C1853 C 0.1905 0.61857 0.52007 0.0
C1854 C 0.17195 0.61592 0.50125 0.0
C1855 C 0.15168 0.5995 0.50148 0.0
H1856 H 0.72092 0.99002 0.74517 0.0
H1857 H 0.68755 0.95088 0.79874 0.0
H1858 H 0.75769 0.97621 0.75668 0.0
H1859 H 0.72419 0.93704 0.81008 0.0
H1860 H 0.79793 0.93299 0.84146 0.0
H1861 H 0.76511 0.9528 0.82992 0.0
H1862 H 0.77265 0.93966 0.75526 0.0
H1863 H 0.80545 0.92009 0.76688 0.0
C1864 C 0.72135 0.97827 0.75919 0.0
C1865 C 0.70134 0.9715 0.77103 0.0
C1866 C 0.74241 0.97045 0.76583 0.0
C1867 C 0.7439 0.95587 0.78455 0.0
C1868 C 0.72372 0.94869 0.79596 0.0
C1869 C 0.70263 0.95636 0.78923 0.0
C1870 C 0.79303 0.93509 0.82266 0.0
C1871 C 0.80409 0.92512 0.80503 0.0
C1872 C 0.77409 0.94609 0.81603 0.0
C1873 C 0.76611 0.94741 0.79168 0.0
C1874 C 0.77844 0.93895 0.77414 0.0
C1875 C 0.79719 0.9278 0.78076 0.0
H1876 H 0.76932 0.98934 0.56395 0.0
H1877 H 0.72351 0.9273 0.53599 0.0
H1878 H 0.73519 1.0085 0.5637 0.0
H1879 H 0.68912 0.94624 0.53597 0.0
H1880 H 0.6287 0.98868 0.52246 0.0
H1881 H 0.66277 0.96934 0.52254 0.0
H1882 H 0.70191 1.01887 0.57675 0.0
H1883 H 0.66796 0.03823 0.5763 0.0
C1884 C 0.75196 0.97952 0.55784 0.0
C1885 C 0.74998 0.95631 0.55009 0.0
C1886 C 0.73188 0.9907 0.55777 0.0
C1887 C 0.70827 0.97953 0.54983 0.0
C1888 C 0.70637 0.95623 0.54206 0.0
C1889 C 0.72648 0.94503 0.54223 0.0
C1890 C 0.64452 0.99564 0.53446 0.0
C1891 C 0.64475 1.01554 0.54931 0.0
C1892 C 0.66448 0.98423 0.53465 0.0
C1893 C 0.68622 0.99194 0.54965 0.0
C1894 C 0.68633 1.0119 0.56448 0.0
C1895 C 0.66636 1.02322 0.56434 0.0
H1896 H 0.45787 0.45853 0.76212 0.0
H1897 H 0.39252 0.47363 0.72701 0.0
H1898 H 0.43735 0.42129 0.7702 0.0
H1899 H 0.3721 0.43598 0.73443 0.0
H1900 H 0.33928 0.37776 0.7777 0.0
H1901 H 0.35872 0.4145 0.76668 0.0
H1902 H 0.41919 0.38523 0.75106 0.0
H1903 H 0.40008 0.34869 0.76283 0.0
C1904 C 0.43916 0.45382 0.7559 0.0
C1905 C 0.42684 0.46908 0.74392 0.0
C1906 C 0.4274 0.43238 0.7604 0.0
C1907 C 0.40308 0.42557 0.75285 0.0
C1908 C 0.39078 0.44078 0.74075 0.0
C1909 C 0.40251 0.46233 0.73641 0.0
C1910 C 0.35664 0.37912 0.77171 0.0
C1911 C 0.36821 0.36036 0.77132 0.0
C1912 C 0.36775 0.40018 0.76529 0.0
C1913 C 0.3906 0.40288 0.75815 0.0
C1914 C 0.4018 0.38387 0.75696 0.0
C1915 C 0.39077 0.36288 0.76357 0.0
H1916 H 0.11658 0.58823 0.23208 0.0
H1917 H 0.1799 0.56152 0.22148 0.0
H1918 H 0.13794 0.62657 0.22905 0.0
H1919 H 0.20123 0.59985 0.21889 0.0
H1920 H 0.2317 0.67279 0.20634 0.0
H1921 H 0.20608 0.6356 0.19806 0.0
H1922 H 0.1692 0.649 0.25848 0.0
H1923 H 0.1947 0.68587 0.26679 0.0
C1924 C 0.13487 0.59044 0.22857 0.0
C1925 C 0.14664 0.57182 0.22746 0.0
C1926 C 0.14714 0.61243 0.227 0.0
C1927 C 0.17136 0.61622 0.2242 0.0
C1928 C 0.18257 0.59748 0.22103 0.0
C1929 C 0.17035 0.5755 0.22267 0.0
C1930 C 0.21812 0.66773 0.21783 0.0
C1931 C 0.21525 0.68223 0.23725 0.0
C1932 C 0.2034 0.64653 0.21301 0.0
C1933 C 0.18552 0.63947 0.22749 0.0
C1934 C 0.18245 0.65415 0.24664 0.0
C1935 C 0.19714 0.67525 0.25148 0.0
H1936 H 0.55645 0.69499 0.44765 0.0
H1937 H 0.5351 0.7273 0.50993 0.0
H1938 H 0.58032 0.67424 0.47356 0.0
H1939 H 0.55979 0.70724 0.53591 0.0
H1940 H 0.57749 0.64062 0.56807 0.0
H1941 H 0.56005 0.66999 0.54809 0.0
H1942 H 0.61488 0.67694 0.50096 0.0
H1943 H 0.63126 0.64651 0.5202 0.0
C1944 C 0.55703 0.69783 0.46688 0.0
C1945 C 0.54369 0.71262 0.47669 0.0
C1946 C 0.57098 0.68615 0.48179 0.0
C1947 C 0.57221 0.68924 0.5069 0.0
C1948 C 0.5591 0.7043 0.51669 0.0
C1949 C 0.54492 0.71577 0.50177 0.0
C1950 C 0.58638 0.64925 0.5542 0.0
C1951 C 0.60576 0.64163 0.54571 0.0
C1952 C 0.57633 0.66598 0.54259 0.0
C1953 C 0.58576 0.67548 0.52252 0.0
C1954 C 0.60679 0.66951 0.51589 0.0
C1955 C 0.61648 0.65246 0.52717 0.0
H1956 H 0.68415 0.39544 0.73146 0.0
H1957 H 0.72873 0.41804 0.67721 0.0
H1958 H 0.71888 0.39347 0.759 0.0
H1959 H 0.76367 0.41697 0.70531 0.0
H1960 H 0.79907 0.35737 0.73385 0.0
H1961 H 0.77422 0.3811 0.71426 0.0
H1962 H 0.75732 0.40453 0.78307 0.0
H1963 H 0.78286 0.38027 0.80293 0.0
C1964 C 0.70139 0.40089 0.72566 0.0
C1965 C 0.7036 0.40595 0.70173 0.0
C1966 C 0.72142 0.39996 0.74165 0.0
C1967 C 0.74405 0.40429 0.7341 0.0
C1968 C 0.74639 0.41283 0.71142 0.0
C1969 C 0.72633 0.41353 0.69531 0.0
C1970 C 0.79059 0.36805 0.74491 0.0
C1971 C 0.7926 0.36679 0.76986 0.0
C1972 C 0.77648 0.38193 0.73366 0.0
C1973 C 0.76364 0.39477 0.74703 0.0
C1974 C 0.76691 0.39475 0.77226 0.0
C1975 C 0.78151 0.38096 0.78364 0.0
H1976 H 1.01658 0.32101 0.88676 0.0
H1977 H 0.99778 0.30215 0.9562 0.0
H1978 H 1.01338 0.36003 0.89705 0.0
H1979 H 0.99329 0.34107 0.96618 0.0
H1980 H 1.03327 0.4133 0.9891 0.0
H1981 H 1.02274 0.37333 0.97676 0.0
H1982 H 0.99313 0.38959 0.90709 0.0
H1983 H 1.00528 0.42991 0.91902 0.0
C1984 C 1.01097 0.32509 0.90394 0.0
C1985 C 1.00799 0.30877 0.92094 0.0
C1986 C 1.00897 0.34747 0.90981 0.0
C1987 C 1.0036 0.35382 0.93267 0.0
C1988 C 0.99818 0.33688 0.94869 0.0
C1989 C 1.0006 0.31457 0.94296 0.0
C1990 C 1.02467 0.40839 0.97108 0.0
C1991 C 1.02065 0.4248 0.95487 0.0
C1992 C 1.01813 0.38539 0.96413 0.0
C1993 C 1.00707 0.37817 0.94088 0.0
C1994 C 1.0019 0.39458 0.92503 0.0
C1995 C 1.0087 0.41768 0.93193 0.0
H1996 H 0.06009 0.83791 0.18726 0.0
H1997 H 0.10923 0.84194 0.25166 0.0
H1998 H 1.02767 0.82249 0.20938 0.0
H1999 H 0.07686 0.826 0.27367 0.0
H2000 H 1.00843 0.82994 0.3086 0.0
H2001 H 0.04307 0.83958 0.28756 0.0
H2002 H 1.01106 0.78977 0.23007 0.0
H2003 H 0.97625 0.78024 0.25113 0.0
C2004 C 0.064 0.83523 0.20607 0.0
C2005 C 0.08712 0.84131 0.21779 0.0
C2006 C 0.04546 0.82623 0.2187 0.0
C2007 C 0.04972 0.82309 0.24329 0.0
C2008 C 0.073 0.82853 0.25482 0.0
C2009 C 0.09152 0.83758 0.2422 0.0
C2010 C 1.009 0.82073 0.29171 0.0
C2011 C 0.98961 0.80445 0.28142 0.0
C2012 C 1.02885 0.82623 0.27965 0.0
C2013 C 1.02972 0.81552 0.25709 0.0
C2014 C 1.01071 0.79858 0.24724 0.0
C2015 C 0.99083 0.79312 0.25929 0.0
H2016 H 0.57611 0.38677 0.16262 0.0
H2017 H 0.57729 0.35392 0.09344 0.0
H2018 H 0.5798 0.42351 0.14521 0.0
H2019 H 0.58054 0.39065 0.07557 0.0
H2020 H 0.59313 0.4622 0.04413 0.0
H2021 H 0.59055 0.42525 0.06145 0.0
H2022 H 0.57517 0.45524 0.12773 0.0
H2023 H 0.57823 0.49194 0.11041 0.0
C2024 C 0.57711 0.38713 0.14353 0.0
C2025 C 0.57635 0.36633 0.12998 0.0
C2026 C 0.57915 0.40881 0.13315 0.0
C2027 C 0.58052 0.41161 0.1082 0.0
C2028 C 0.57981 0.39062 0.09467 0.0
C2029 C 0.57782 0.36891 0.10513 0.0
C2030 C 0.58932 0.46114 0.0625 0.0
C2031 C 0.58613 0.48119 0.0754 0.0
C2032 C 0.58765 0.43933 0.07274 0.0
C2033 C 0.58255 0.4357 0.09675 0.0
C2034 C 0.57937 0.45593 0.10951 0.0
C2035 C 0.5811 0.47767 0.0993 0.0
H2036 H 1.00715 0.32353 0.41867 0.0
H2037 H 1.02645 0.27817 0.36567 0.0
H2038 H 0.96986 0.32388 0.3943 0.0
H2039 H 0.98834 0.27835 0.34092 0.0
H2040 H 0.90464 0.2678 0.31472 0.0
H2041 H 0.94367 0.26654 0.33672 0.0
H2042 H 0.95125 0.3374 0.35903 0.0
H2043 H 0.91273 0.33866 0.33707 0.0
C2044 C 1.00363 0.31358 0.40168 0.0
C2045 C 1.02056 0.30088 0.39456 0.0
C2046 C 0.98189 0.31389 0.38742 0.0
C2047 C 0.97535 0.30122 0.36516 0.0
C2048 C 0.99219 0.28835 0.35786 0.0
C2049 C 1.01438 0.28837 0.37209 0.0
C2050 C 0.9146 0.28319 0.32424 0.0
C2051 C 0.90488 0.30335 0.3238 0.0
C2052 C 0.93731 0.2825 0.33691 0.0
C2053 C 0.95129 0.30182 0.35017 0.0
C2054 C 0.94146 0.32191 0.34958 0.0
C2055 C 0.91907 0.32269 0.33668 0.0
H2056 H 0.07014 0.71894 0.65235 0.0
H2057 H 0.06888 0.74103 0.58075 0.0
H2058 H 0.07044 0.67982 0.63638 0.0
H2059 H 0.06941 0.70284 0.56503 0.0
H2060 H 0.05796 0.62875 0.53416 0.0
H2061 H 0.05514 0.66601 0.55178 0.0
H2062 H 0.08715 0.64924 0.61979 0.0
H2063 H 0.08974 0.61162 0.60193 0.0
C2064 C 0.06939 0.71571 0.63317 0.0
C2065 C 0.06901 0.73423 0.61825 0.0
C2066 C 0.06993 0.69284 0.62377 0.0
C2067 C 0.06991 0.68681 0.59878 0.0
C2068 C 0.06909 0.7054 0.58413 0.0
C2069 C 0.0688 0.72799 0.59345 0.0
C2070 C 0.06446 0.63269 0.55293 0.0
C2071 C 0.07416 0.61607 0.56605 0.0
C2072 C 0.06299 0.65473 0.56333 0.0
C2073 C 0.07101 0.66207 0.58783 0.0
C2074 C 0.08045 0.64527 0.60109 0.0
C2075 C 0.08207 0.62319 0.59058 0.0
H2076 H 0.68406 0.81398 0.91892 0.0
H2077 H 0.63999 0.78094 0.85631 0.0
H2078 H 0.7193 0.81374 0.89822 0.0
H2079 H 0.67503 0.78071 0.83547 0.0
H2080 H 0.74422 0.76748 0.80561 0.0
H2081 H 0.70915 0.76788 0.82632 0.0
H2082 H 0.74617 0.82616 0.87107 0.0
H2083 H 0.78128 0.8256 0.8503 0.0
C2084 C 0.68164 0.80656 0.90071 0.0
C2085 C 0.65834 0.79741 0.88982 0.0
C2086 C 0.70225 0.80654 0.88848 0.0
C2087 C 0.70111 0.7972 0.86451 0.0
C2088 C 0.67772 0.78794 0.85375 0.0
C2089 C 0.65713 0.78814 0.86591 0.0
C2090 C 0.74508 0.78058 0.81976 0.0
C2091 C 0.76643 0.79656 0.82567 0.0
C2092 C 0.72449 0.78088 0.83188 0.0
C2093 C 0.72372 0.79706 0.85103 0.0
C2094 C 0.74516 0.81305 0.85693 0.0
C2095 C 0.7657 0.81286 0.84464 0.0
H2096 H 0.45816 0.5047 0.64846 0.0
H2097 H 0.45389 0.57475 0.66461 0.0
H2098 H 0.48283 0.51586 0.61704 0.0
H2099 H 0.479 0.58607 0.63346 0.0
H2100 H 0.53103 0.59537 0.57512 0.0
H2101 H 0.49306 0.58342 0.59053 0.0
H2102 H 0.5245 0.53688 0.63461 0.0
H2103 H 0.56223 0.54875 0.6195 0.0
C2104 C 0.46122 0.52232 0.64418 0.0
C2105 C 0.45454 0.53894 0.65902 0.0
C2106 C 0.47559 0.52875 0.62645 0.0
C2107 C 0.48345 0.55185 0.62357 0.0
C2108 C 0.47331 0.56816 0.63551 0.0
C2109 C 0.45875 0.56167 0.65319 0.0
C2110 C 0.52983 0.58271 0.58827 0.0
C2111 C 0.54964 0.57305 0.59625 0.0
C2112 C 0.50809 0.57579 0.59686 0.0
C2113 C 0.50577 0.55885 0.61322 0.0
C2114 C 0.52567 0.54953 0.62146 0.0
C2115 C 0.54739 0.55661 0.61314 0.0
H2116 H 0.80482 0.26743 0.98209 0.0
H2117 H 0.81089 0.20579 0.94226 0.0
H2118 H 0.80046 0.28626 0.94481 0.0
H2119 H 0.80675 0.22476 0.90486 0.0
H2120 H 0.78393 0.26208 0.83959 0.0
H2121 H 0.78004 0.24285 0.87685 0.0
H2122 H 0.82777 0.29929 0.91593 0.0
H2123 H 0.83153 0.3184 0.87901 0.0
C2124 C 0.80503 0.25782 0.96535 0.0
C2125 C 0.80842 0.23515 0.96519 0.0
C2126 C 0.80261 0.26866 0.94396 0.0
C2127 C 0.80343 0.2571 0.92182 0.0
C2128 C 0.80583 0.23412 0.92156 0.0
C2129 C 0.80835 0.22328 0.94302 0.0
C2130 C 0.79315 0.27057 0.85624 0.0
C2131 C 0.80803 0.29179 0.85632 0.0
C2132 C 0.79112 0.25945 0.87754 0.0
C2133 C 0.80367 0.26947 0.89939 0.0
C2134 C 0.81766 0.29114 0.89953 0.0
C2135 C 0.81989 0.30208 0.87829 0.0
H2136 H 0.07093 0.44999 0.20393 0.0
H2137 H 0.14081 0.47645 0.18613 0.0
H2138 H 0.05595 0.44517 0.16152 0.0
H2139 H 0.12583 0.47176 0.14387 0.0
H2140 H 0.09451 0.48032 0.07208 0.0
H2141 H 0.10247 0.45527 0.10401 0.0
H2142 H 0.05429 0.48355 0.14525 0.0
H2143 H 0.04695 0.50873 0.11381 0.0
C2144 C 0.08338 0.45359 0.19094 0.0
C2145 C 0.1068 0.46456 0.19831 0.0
C2146 C 0.07476 0.45084 0.16663 0.0
C2147 C 0.08949 0.45899 0.14951 0.0
C2148 C 0.11393 0.46558 0.15667 0.0
C2149 C 0.12258 0.46829 0.18102 0.0
C2150 C 0.08485 0.48036 0.08755 0.0
C2151 C 0.07028 0.49651 0.09073 0.0
C2152 C 0.08946 0.46609 0.1058 0.0
C2153 C 0.07912 0.46749 0.12717 0.0
C2154 C 0.06236 0.48181 0.12893 0.0
C2155 C 0.05823 0.49639 0.11101 0.0
H2156 H 0.82162 0.86721 0.49818 0.0
H2157 H 0.80399 0.9237 0.46006 0.0
H2158 H 0.82586 0.84734 0.46039 0.0
H2159 H 0.80832 0.90388 0.42202 0.0
H2160 H 0.79858 0.85428 0.3532 0.0
H2161 H 0.79413 0.87471 0.39079 0.0
H2162 H 0.84755 0.84279 0.42803 0.0
H2163 H 0.85182 0.82243 0.3906 0.0
C2164 C 0.8187 0.87558 0.48176 0.0
C2165 C 0.81245 0.8974 0.4828 0.0
C2166 C 0.82129 0.86407 0.45973 0.0
C2167 C 0.81757 0.87357 0.43729 0.0
C2168 C 0.81121 0.89543 0.43837 0.0
C2169 C 0.80884 0.90705 0.4605 0.0
C2170 C 0.80945 0.85154 0.36934 0.0
C2171 C 0.82564 0.83635 0.36818 0.0
C2172 C 0.80698 0.86352 0.39122 0.0
C2173 C 0.82036 0.86083 0.4133 0.0
C2174 C 0.83647 0.84553 0.41204 0.0
C2175 C 0.83909 0.83375 0.39017 0.0
H2176 H 0.44965 0.53677 0.80891 0.0
H2177 H 0.5056 0.55624 0.76483 0.0
H2178 H 0.47927 0.53333 0.84248 0.0
H2179 H 0.53506 0.55276 0.79828 0.0
H2180 H 0.53535 0.50072 0.88373 0.0
H2181 H 0.50788 0.50608 0.84952 0.0
H2182 H 0.55098 0.57072 0.84014 0.0
H2183 H 0.57898 0.56519 0.87443 0.0
C2184 C 0.46824 0.54051 0.80649 0.0
C2185 C 0.47535 0.54662 0.7843 0.0
C2186 C 0.48515 0.53842 0.82559 0.0
C2187 C 0.5094 0.54263 0.82282 0.0
C2188 C 0.5165 0.54952 0.80088 0.0
C2189 C 0.49962 0.55139 0.78176 0.0
C2190 C 0.53938 0.51582 0.87404 0.0
C2191 C 0.55945 0.53248 0.88166 0.0
C2192 C 0.5234 0.51904 0.85471 0.0
C2193 C 0.52715 0.53895 0.8425 0.0
C2194 C 0.5477 0.55523 0.84936 0.0
C2195 C 0.56367 0.55208 0.86891 0.0
H2196 H 0.83272 0.21317 0.10342 0.0
H2197 H 0.81617 0.27972 0.092 0.0
H2198 H 0.84253 0.22392 0.14643 0.0
H2199 H 0.82586 0.29027 0.13457 0.0
H2200 H 0.86369 0.31076 0.20816 0.0
H2201 H 0.86012 0.29788 0.166 0.0
H2202 H 0.8209 0.23315 0.18121 0.0
H2203 H 0.82456 0.24593 0.22355 0.0
C2204 C 0.83131 0.2301 0.10999 0.0
C2205 C 0.82356 0.24553 0.09417 0.0
C2206 C 0.83683 0.23621 0.13464 0.0
C2207 C 0.83508 0.25799 0.14394 0.0
C2208 C 0.82774 0.27347 0.12802 0.0
C2209 C 0.82198 0.26732 0.10356 0.0
C2210 C 0.85462 0.29364 0.20268 0.0
C2211 C 0.84422 0.27949 0.21933 0.0
C2212 C 0.85245 0.28631 0.17842 0.0
C2213 C 0.83997 0.26458 0.17016 0.0
C2214 C 0.83071 0.24995 0.18697 0.0
C2215 C 0.83273 0.25734 0.21126 0.0
H2216 H 0.08906 0.53594 0.27818 0.0
H2217 H 0.15466 0.55605 0.32478 0.0
H2218 H 0.07175 0.564 0.29896 0.0
H2219 H 0.13665 0.58296 0.34712 0.0
H2220 H 0.10337 0.63037 0.38622 0.0
H2221 H 0.1199 0.61622 0.35157 0.0
H2222 H 0.05715 0.5646 0.33525 0.0
H2223 H 0.04088 0.57852 0.36895 0.0
C2224 C 0.09982 0.54634 0.29292 0.0
C2225 C 0.12317 0.54359 0.30002 0.0
C2226 C 0.08983 0.56245 0.30493 0.0
C2227 C 0.10261 0.57563 0.32497 0.0
C2228 C 0.12631 0.57342 0.33156 0.0
C2229 C 0.13655 0.5577 0.31903 0.0
C2230 C 0.09282 0.61648 0.3747 0.0
C2231 C 0.07111 0.60519 0.38097 0.0
C2232 C 0.10237 0.60826 0.35494 0.0
C2233 C 0.09028 0.58874 0.34107 0.0
C2234 C 0.06715 0.57963 0.34539 0.0
C2235 C 0.05764 0.58782 0.36497 0.0
H2236 H 0.80572 0.85177 0.59969 0.0
H2237 H 0.81905 0.9184 0.63575 0.0
H2238 H 0.80699 0.83462 0.63757 0.0
H2239 H 0.81958 0.90093 0.6747 0.0
H2240 H 0.84021 0.86257 0.74367 0.0
H2241 H 0.83662 0.88224 0.70651 0.0
H2242 H 0.79324 0.82157 0.67095 0.0
H2243 H 0.79756 0.802 0.70763 0.0
C2244 C 0.80844 0.86302 0.61577 0.0
C2245 C 0.81198 0.88685 0.61375 0.0
C2246 C 0.80907 0.8529 0.63808 0.0
C2247 C 0.8133 0.86581 0.66034 0.0
C2248 C 0.81642 0.88983 0.65853 0.0
C2249 C 0.81573 0.90008 0.63585 0.0
C2250 C 0.82984 0.85332 0.72796 0.0
C2251 C 0.81934 0.83025 0.72935 0.0
C2252 C 0.82764 0.86483 0.70627 0.0
C2253 C 0.8148 0.85398 0.68459 0.0
C2254 C 0.80389 0.83103 0.68634 0.0
C2255 C 0.80617 0.81956 0.7079 0.0
H2256 H 0.82415 0.46889 0.57566 0.0
H2257 H 0.76545 0.41387 0.55488 0.0
H2258 H 0.79727 0.49227 0.58937 0.0
H2259 H 0.73837 0.43722 0.56931 0.0
H2260 H 0.69615 0.49629 0.57017 0.0
H2261 H 0.7216 0.4701 0.559 0.0
H2262 H 0.77263 0.49701 0.61992 0.0
H2263 H 0.74726 0.5235 0.63084 0.0
C2264 C 0.80547 0.46169 0.5742 0.0
C2265 C 0.79693 0.43951 0.5641 0.0
C2266 C 0.79004 0.47508 0.58228 0.0
C2267 C 0.76562 0.46665 0.58059 0.0
C2268 C 0.75705 0.44435 0.57066 0.0
C2269 C 0.77256 0.43092 0.56248 0.0
C2270 C 0.71266 0.4964 0.58139 0.0
C2271 C 0.71973 0.51205 0.60137 0.0
C2272 C 0.72725 0.48133 0.57499 0.0
C2273 C 0.74926 0.48147 0.58846 0.0
C2274 C 0.75601 0.49671 0.60885 0.0
C2275 C 0.74147 0.51188 0.61516 0.0
H2276 H 0.28618 0.11647 0.52149 0.0
H2277 H 0.25945 0.17258 0.55234 0.0
H2278 H 0.24739 0.0918 0.52308 0.0
H2279 H 0.22151 0.14827 0.55429 0.0
H2280 H 0.16101 0.09567 0.57597 0.0
H2281 H 0.20081 0.11725 0.57471 0.0
H2282 H 0.20362 0.08402 0.50581 0.0
H2283 H 0.1634 0.0626 0.5069 0.0
C2284 C 0.27231 0.12362 0.52885 0.0
C2285 C 0.27657 0.1469 0.53677 0.0
C2286 C 0.24976 0.10941 0.52962 0.0
C2287 C 0.23067 0.11765 0.53893 0.0
C2288 C 0.2353 0.14077 0.54721 0.0
C2289 C 0.25741 0.15495 0.54594 0.0
C2290 C 0.16998 0.09271 0.56051 0.0
C2291 C 0.15833 0.07703 0.54157 0.0
C2292 C 0.19308 0.10536 0.5597 0.0
C2293 C 0.2061 0.10282 0.54009 0.0
C2294 C 0.19472 0.08667 0.5214 0.0
C2295 C 0.17136 0.07429 0.522 0.0
H2296 H 0.32244 0.06285 0.85036 0.0
H2297 H 0.26506 1.00547 0.84582 0.0
H2298 H 0.3498 0.03709 0.8423 0.0
H2299 H 0.29211 0.98007 0.83774 0.0
H2300 H 0.34468 0.93636 0.8444 0.0
H2301 H 0.32609 0.9665 0.85952 0.0
H2302 H 0.35592 1.01055 0.80787 0.0
H2303 H 0.37563 0.98057 0.79326 0.0
C2304 C 0.31569 0.0448 0.84761 0.0
C2305 C 0.29163 0.03616 0.84873 0.0
C2306 C 0.33132 0.03011 0.84303 0.0
C2307 C 0.32314 1.00658 0.83978 0.0
C2308 C 0.29905 0.99808 0.84073 0.0
C2309 C 0.28349 1.01268 0.84512 0.0
C2310 C 0.34816 0.9527 0.83681 0.0
C2311 C 0.36142 0.95589 0.81732 0.0
C2312 C 0.33719 0.96989 0.84531 0.0
C2313 C 0.33908 0.99063 0.83444 0.0
C2314 C 0.35407 0.99467 0.81648 0.0
C2315 C 0.36518 0.97743 0.808 0.0
H2316 H 0.44358 0.90366 0.03089 0.0
H2317 H 0.40507 0.9515 0.06151 0.0
H2318 H 0.47966 0.93259 0.0371 0.0
H2319 H 0.44082 0.97978 0.06805 0.0
H2320 H 0.49845 0.03148 0.04017 0.0
H2321 H 0.46406 1.00204 0.04115 0.0
H2322 H 0.50932 0.95639 0.06844 0.0
H2323 H 0.54406 0.98601 0.06713 0.0
C2324 C 0.44281 0.9202 0.03903 0.0
C2325 C 0.42133 0.92532 0.04531 0.0
C2326 C 0.46349 0.93668 0.0428 0.0
C2327 C 0.46299 0.95849 0.05294 0.0
C2328 C 0.44169 0.96327 0.05986 0.0
C2329 C 0.42115 0.94697 0.05604 0.0
C2330 C 0.50107 1.01533 0.04685 0.0
C2331 C 0.52394 1.01104 0.05351 0.0
C2332 C 0.48135 0.99845 0.04745 0.0
C2333 C 0.48402 0.97683 0.05469 0.0
C2334 C 0.5068 0.97282 0.0625 0.0
C2335 C 0.52662 0.98986 0.06206 0.0
H2336 H 0.94571 0.62293 0.80715 0.0
H2337 H 1.00005 0.68041 0.79909 0.0
H2338 H 0.91862 0.63683 0.77806 0.0
H2339 H 0.97284 0.69422 0.76911 0.0
H2340 H 0.90339 0.72474 0.752 0.0
H2341 H 0.93799 0.71088 0.76936 0.0
H2342 H 0.90842 0.64369 0.73726 0.0
H2343 H 0.87325 0.65758 0.72032 0.0
C2344 C 0.95199 0.63846 0.79893 0.0
C2345 C 0.97496 0.6507 0.80563 0.0
C2346 C 0.93649 0.6463 0.78192 0.0
C2347 C 0.94355 0.66657 0.771 0.0
C2348 C 0.96679 0.6786 0.77727 0.0
C2349 C 0.98236 0.67073 0.79444 0.0
C2350 C 0.9046 0.70719 0.74782 0.0
C2351 C 0.88538 0.69214 0.73509 0.0
C2352 C 0.92454 0.69921 0.75786 0.0
C2353 C 0.92574 0.67603 0.75526 0.0
C2354 C 0.90771 0.66152 0.74021 0.0
C2355 C 0.88764 0.66947 0.73035 0.0
H2356 H 0.89784 0.61081 0.04646 0.0
H2357 H 0.94325 0.67604 0.05048 0.0
H2358 H 0.93251 0.59213 0.04769 0.0
H2359 H 0.9781 0.65741 0.05213 0.0
H2360 H 0.04004 0.61758 0.0749 0.0
H2361 H 1.00555 0.63658 0.07359 0.0
H2362 H 0.96436 0.5808 0.02807 0.0
H2363 H 0.99899 0.56203 0.02912 0.0
C2364 C 0.91519 0.62139 0.04773 0.0
C2365 C 0.91697 0.64535 0.04841 0.0
C2366 C 0.93546 0.61047 0.04829 0.0
C2367 C 0.95903 0.62275 0.05003 0.0
C2368 C 0.96081 0.64678 0.05101 0.0
C2369 C 0.94046 0.65769 0.04998 0.0
C2370 C 1.0237 0.60917 0.06455 0.0
C2371 C 1.02307 0.58779 0.05222 0.0
C2372 C 1.00357 0.62034 0.06365 0.0
C2373 C 0.98123 0.61071 0.05074 0.0
C2374 C 0.98061 0.58922 0.03855 0.0
C2375 C 1.00087 0.57827 0.03906 0.0
H2376 H 0.28958 0.13757 0.88615 0.0
H2377 H 0.22216 0.16002 0.88351 0.0
H2378 H 0.30824 0.17505 0.87668 0.0
H2379 H 0.24104 0.19768 0.87437 0.0
H2380 H 0.27421 0.24038 0.81512 0.0
H2381 H 0.25594 0.20887 0.8364 0.0
H2382 H 0.3195 0.21602 0.88638 0.0
H2383 H 0.33796 0.24743 0.86496 0.0
C2384 C 0.27886 0.15068 0.88435 0.0
C2385 C 0.25426 0.1456 0.88506 0.0
C2386 C 0.28961 0.17224 0.87896 0.0
C2387 C 0.27598 0.18915 0.87422 0.0
C2388 C 0.25187 0.18479 0.8774 0.0
C2389 C 0.24111 0.16325 0.88289 0.0
C2390 C 0.28426 0.23538 0.83073 0.0
C2391 C 0.30765 0.24628 0.83814 0.0
C2392 C 0.27368 0.21745 0.84311 0.0
C2393 C 0.28626 0.20999 0.86314 0.0
C2394 C 0.30942 0.22128 0.87093 0.0
C2395 C 0.31998 0.23926 0.8586 0.0
H2396 H 0.54097 0.0458 0.38225 0.0
H2397 H 0.47695 0.07052 0.35828 0.0
H2398 H 0.51838 1.00708 0.37975 0.0
H2399 H 0.45454 0.03215 0.35615 0.0
H2400 H 0.43149 0.96093 0.31982 0.0
H2401 H 0.4533 0.99941 0.32836 0.0
H2402 H 0.48644 0.98012 0.39498 0.0
H2403 H 0.46433 0.94145 0.38655 0.0
C2404 C 0.52204 0.04306 0.37695 0.0
C2405 C 0.51085 0.06119 0.37006 0.0
C2406 C 0.5091 1.02089 0.37553 0.0
C2407 C 0.48476 1.01651 0.36725 0.0
C2408 C 0.47338 0.03488 0.36197 0.0
C2409 C 0.48624 0.05691 0.36331 0.0
C2410 C 0.44316 0.9649 0.33645 0.0
C2411 C 0.44603 0.94807 0.35251 0.0
C2412 C 0.45568 0.987 0.34137 0.0
C2413 C 0.47146 0.9929 0.36247 0.0
C2414 C 0.47454 0.97608 0.3785 0.0
C2415 C 0.4619 0.95392 0.37361 0.0
H2416 H 0.63036 0.40077 0.60672 0.0
H2417 H 0.60205 0.43455 0.66354 0.0
H2418 H 0.62021 0.42893 0.57949 0.0
H2419 H 0.59221 0.463 0.63629 0.0
H2420 H 0.56372 0.50353 0.57822 0.0
H2421 H 0.56646 0.46883 0.59899 0.0
H2422 H 0.63604 0.46936 0.57727 0.0
H2423 H 0.63317 0.50359 0.55656 0.0
C2424 C 0.62199 0.41423 0.61341 0.0
C2425 C 0.6172 0.41561 0.63733 0.0
C2426 C 0.61613 0.43031 0.59778 0.0
C2427 C 0.60534 0.4481 0.60573 0.0
C2428 C 0.60016 0.44926 0.62955 0.0
C2429 C 0.60607 0.43316 0.64523 0.0
C2430 C 0.57915 0.49567 0.5772 0.0
C2431 C 0.59823 0.50613 0.56585 0.0
C2432 C 0.58088 0.47605 0.58933 0.0
C2433 C 0.60157 0.46655 0.58995 0.0
C2434 C 0.6198 0.47614 0.57698 0.0
C2435 C 0.61817 0.49576 0.56513 0.0
H2436 H 0.47845 0.72125 0.3582 0.0
H2437 H 0.42361 0.72477 0.40402 0.0
H2438 H 0.45002 0.72232 0.32313 0.0
H2439 H 0.39538 0.72598 0.36903 0.0
H2440 H 0.41072 0.78178 0.29386 0.0
H2441 H 0.43539 0.75828 0.31492 0.0
H2442 H 0.37278 0.71236 0.32889 0.0
H2443 H 0.34804 0.73598 0.30727 0.0
C2444 C 0.46017 0.72139 0.36081 0.0
C2445 C 0.45346 0.72361 0.38399 0.0
C2446 C 0.44389 0.72203 0.34066 0.0
C2447 C 0.4206 0.7247 0.34333 0.0
C2448 C 0.41318 0.72388 0.36631 0.0
C2449 C 0.42947 0.72339 0.38645 0.0
C2450 C 0.4023 0.76601 0.30031 0.0
C2451 C 0.37759 0.76063 0.29903 0.0
C2452 C 0.41641 0.75248 0.31239 0.0
C2453 C 0.40602 0.73359 0.32385 0.0
C2454 C 0.38124 0.72688 0.32033 0.0
C2455 C 0.3671 0.74026 0.3078 0.0
H2456 H 0.15 0.80177 0.19467 0.0
H2457 H 0.15492 0.80488 0.11876 0.0
H2458 H 0.14915 0.76101 0.19115 0.0
H2459 H 0.1531 0.76407 0.11504 0.0
H2460 H 0.16725 0.69336 0.1164 0.0
H2461 H 0.17401 0.73445 0.12407 0.0
H2462 H 0.12342 0.727 0.17572 0.0
H2463 H 0.11752 0.6858 0.16862 0.0
C2464 C 0.15084 0.79375 0.1772 0.0
C2465 C 0.15251 0.80658 0.15697 0.0
C2466 C 0.15023 0.77034 0.17517 0.0
C2467 C 0.15102 0.75919 0.15282 0.0
C2468 C 0.15292 0.77211 0.13264 0.0
C2469 C 0.15381 0.79553 0.13473 0.0
C2470 C 0.15783 0.7006 0.12959 0.0
C2471 C 0.14176 0.68656 0.14182 0.0
C2472 C 0.16155 0.72411 0.13388 0.0
C2473 C 0.14899 0.73411 0.15024 0.0
C2474 C 0.13358 0.71992 0.16317 0.0
C2475 C 0.13011 0.69633 0.15909 0.0
H2476 H 0.07212 0.23186 0.85604 0.0
H2477 H 0.10446 0.28789 0.90671 0.0
H2478 H 0.10725 0.23756 0.83492 0.0
H2479 H 0.1391 0.29396 0.88535 0.0
H2480 H 0.20667 0.28659 0.85586 0.0
H2481 H 0.17235 0.2771 0.87721 0.0
H2482 H 0.12697 0.26509 0.80984 0.0
H2483 H 0.16161 0.27341 0.78833 0.0
C2484 C 0.08674 0.24533 0.86269 0.0
C2485 C 0.08558 0.25942 0.88301 0.0
C2486 C 0.10676 0.2487 0.85051 0.0
C2487 C 0.12593 0.26623 0.85844 0.0
C2488 C 0.1248 0.28009 0.87897 0.0
C2489 C 0.10488 0.27668 0.89116 0.0
C2490 C 0.18943 0.28155 0.84554 0.0
C2491 C 0.18688 0.2807 0.82037 0.0
C2492 C 0.16972 0.27638 0.85781 0.0
C2493 C 0.14693 0.27045 0.84523 0.0
C2494 C 0.14434 0.26938 0.82004 0.0
C2495 C 0.16413 0.27445 0.80773 0.0
H2496 H 0.60288 0.7183 0.93127 0.0
H2497 H 0.57322 0.73802 0.99419 0.0
H2498 H 0.60164 0.67976 0.94575 0.0
H2499 H 0.57165 0.70049 1.00811 0.0
H2500 H 0.58237 0.63462 0.04243 0.0
H2501 H 0.58503 0.67179 0.02635 0.0
H2502 H 0.58597 0.64169 0.95555 0.0
H2503 H 0.58361 0.60409 0.97208 0.0
C2504 C 0.59616 0.71485 0.94818 0.0
C2505 C 0.58832 0.73261 0.96114 0.0
C2506 C 0.59527 0.69219 0.95668 0.0
C2507 C 0.58667 0.68568 0.9788 0.0
C2508 C 0.57895 0.70358 0.99144 0.0
C2509 C 0.57973 0.72585 0.98303 0.0
C2510 C 0.58296 0.63552 0.02334 0.0
C2511 C 0.58245 0.61518 1.00907 0.0
C2512 C 0.58441 0.65748 1.01375 0.0
C2513 C 0.58555 0.66114 0.98896 0.0
C2514 C 0.58526 0.64075 0.97461 0.0
C2515 C 0.58371 0.61863 0.98428 0.0
H2516 H 0.17022 0.81967 0.65731 0.0
H2517 H 0.13165 0.80003 0.71654 0.0
H2518 H 0.20719 0.81889 0.68154 0.0
H2519 H 0.16946 0.79972 0.74155 0.0
H2520 H 0.24301 0.78349 0.7761 0.0
H2521 H 0.20417 0.78409 0.7536 0.0
H2522 H 0.23719 0.83485 0.71017 0.0
H2523 H 0.27559 0.83379 0.73214 0.0
C2524 C 0.16939 0.81535 0.6757 0.0
C2525 C 0.14709 0.81004 0.68445 0.0
C2526 C 0.19115 0.81507 0.68998 0.0
C2527 C 0.19234 0.80947 0.71419 0.0
C2528 C 0.17002 0.80406 0.72315 0.0
C2529 C 0.14799 0.80441 0.7087 0.0
C2530 C 0.24207 0.79482 0.76175 0.0
C2531 C 0.26317 0.80851 0.75627 0.0
C2532 C 0.21944 0.79527 0.7487 0.0
C2533 C 0.21662 0.80936 0.72935 0.0
C2534 C 0.2378 0.82322 0.72425 0.0
C2535 C 0.26028 0.82277 0.73722 0.0
H2536 H 0.09094 0.35328 0.48465 0.0
H2537 H 0.09919 0.37937 0.4157 0.0
H2538 H 0.08885 0.3914 0.50121 0.0
H2539 H 0.09739 0.41747 0.43206 0.0
H2540 H 0.08007 0.48604 0.46189 0.0
H2541 H 0.08174 0.44786 0.44549 0.0
H2542 H 0.10125 0.42853 0.51664 0.0
H2543 H 0.09927 0.46666 0.53289 0.0
C2544 C 0.09236 0.36702 0.47278 0.0
C2545 C 0.09526 0.36222 0.44839 0.0
C2546 C 0.09127 0.38948 0.4825 0.0
C2547 C 0.09289 0.4089 0.46855 0.0
C2548 C 0.0957 0.4039 0.4441 0.0
C2549 C 0.09688 0.38151 0.43446 0.0
C2550 C 0.08482 0.47382 0.47426 0.0
C2551 C 0.08958 0.48055 0.49916 0.0
C2552 C 0.08592 0.45136 0.46464 0.0
C2553 C 0.09173 0.43372 0.47916 0.0
C2554 C 0.09643 0.44055 0.50412 0.0
C2555 C 0.09543 0.46304 0.5137 0.0
H2556 H 0.48148 0.29389 0.16226 0.0
H2557 H 0.52691 0.30074 0.22892 0.0
H2558 H 0.4468 0.29246 0.18433 0.0
H2559 H 0.4924 0.29985 0.25104 0.0
H2560 H 0.42587 0.31715 0.28653 0.0
H2561 H 0.46081 0.31785 0.26489 0.0
H2562 H 0.41857 0.27263 0.20877 0.0
H2563 H 0.38396 0.2717 0.23054 0.0
C2564 C 0.48435 0.29508 0.18165 0.0
C2565 C 0.50787 0.29733 0.19323 0.0
C2566 C 0.46405 0.29419 0.19461 0.0
C2567 C 0.46578 0.29604 0.22014 0.0
C2568 C 0.48939 0.29851 0.23166 0.0
C2569 C 0.5096 0.29889 0.21871 0.0
C2570 C 0.42382 0.30717 0.26966 0.0
C2571 C 0.40119 0.29425 0.26093 0.0
C2572 C 0.44428 0.30752 0.25698 0.0
C2573 C 0.44351 0.29538 0.23438 0.0
C2574 C 0.4208 0.28258 0.22568 0.0
C2575 C 0.40053 0.2819 0.23854 0.0
H2576 H 0.7524 0.55941 0.44304 0.0
H2577 H 0.69042 0.55559 0.39142 0.0
H2578 H 0.72725 0.55716 0.47548 0.0
H2579 H 0.66563 0.55404 0.42353 0.0
H2580 H 0.6234 0.53643 0.48357 0.0
H2581 H 0.65024 0.53111 0.45413 0.0
H2582 H 0.70435 0.58248 0.49347 0.0
H2583 H 0.67784 0.58735 0.52325 0.0
C2584 C 0.73345 0.55797 0.43865 0.0
C2585 C 0.72336 0.55786 0.4148 0.0
C2586 C 0.71909 0.55677 0.45716 0.0
C2587 C 0.69449 0.55545 0.45202 0.0
C2588 C 0.68446 0.55468 0.42807 0.0
C2589 C 0.69873 0.5558 0.40967 0.0
C2590 C 0.64107 0.54648 0.48601 0.0
C2591 C 0.64841 0.56251 0.50554 0.0
C2592 C 0.65643 0.54343 0.46916 0.0
C2593 C 0.67933 0.55649 0.47143 0.0
C2594 C 0.68692 0.57197 0.4914 0.0
C2595 C 0.67163 0.5749 0.50833 0.0
H2596 H 0.3769 0.84116 0.10784 0.0
H2597 H 0.34143 0.89769 0.12076 0.0
H2598 H 0.37761 0.8333 0.15008 0.0
H2599 H 0.34241 0.88988 0.16289 0.0
H2600 H 0.31706 0.84619 0.22382 0.0
H2601 H 0.32165 0.85885 0.184 0.0
H2602 H 0.39434 0.84891 0.19234 0.0
H2603 H 0.38962 0.83602 0.23272 0.0
C2604 C 0.36934 0.85198 0.11964 0.0
C2605 C 0.35884 0.86991 0.11074 0.0
C2606 C 0.37 0.8476 0.14392 0.0
C2607 C 0.36005 0.86094 0.15981 0.0
C2608 C 0.35004 0.87915 0.15104 0.0
C2609 C 0.34948 0.88361 0.12685 0.0
C2610 C 0.33412 0.84687 0.21729 0.0
C2611 C 0.35295 0.83993 0.23128 0.0
C2612 C 0.3368 0.8543 0.1945 0.0
C2613 C 0.35833 0.85483 0.18496 0.0
C2614 C 0.37747 0.84851 0.19918 0.0
C2615 C 0.37486 0.84132 0.2223 0.0
H2616 H 1.012 0.64158 0.9271 0.0
H2617 H 0.07845 0.66271 0.89915 0.0
H2618 H 1.03347 0.63681 0.96588 0.0
H2619 H 0.09986 0.65806 0.93785 0.0
H2620 H 0.11214 0.59357 0.98127 0.0
H2621 H 0.09953 0.61812 0.95107 0.0
H2622 H 0.06421 0.65109 1.0027 0.0
H2623 H 0.07724 0.62667 0.03318 0.0
C2624 C 1.03112 0.64624 0.92958 0.0
C2625 C 0.04362 0.65206 0.9101 0.0
C2626 C 0.04344 0.64353 0.95178 0.0
C2627 C 0.06833 0.64667 0.95465 0.0
C2628 C 0.08069 0.65524 0.93598 0.0
C2629 C 0.06842 0.65792 0.91387 0.0
C2630 C 0.10249 0.60664 0.98641 0.0
C2631 C 0.09559 0.60816 1.00945 0.0
C2632 C 0.09531 0.62078 0.96917 0.0
C2633 C 0.08076 0.63642 0.97456 0.0
C2634 C 0.07538 0.63915 0.99812 0.0
C2635 C 0.08299 0.62528 1.01555 0.0
H2636 H 0.38594 0.2093 0.62306 0.0
H2637 H 0.31204 0.21229 0.60705 0.0
H2638 H 0.38546 0.2266 0.66378 0.0
H2639 H 0.31136 0.22893 0.64692 0.0
H2640 H 0.31726 0.27984 0.71092 0.0
H2641 H 0.3199 0.26112 0.6722 0.0
H2642 H 0.37527 0.22847 0.70443 0.0
H2643 H 0.37277 0.24771 0.74339 0.0
C2644 C 0.36941 0.21303 0.62818 0.0
C2645 C 0.34898 0.20894 0.61106 0.0
C2646 C 0.36911 0.22327 0.65179 0.0
C2647 C 0.34843 0.23006 0.65941 0.0
C2648 C 0.328 0.22501 0.64242 0.0
C2649 C 0.32833 0.21494 0.61916 0.0
C2650 C 0.33006 0.26868 0.71002 0.0
C2651 C 0.34464 0.26559 0.73107 0.0
C2652 C 0.33152 0.25756 0.68741 0.0
C2653 C 0.34768 0.24255 0.68426 0.0
C2654 C 0.36256 0.2397 0.70531 0.0
C2655 C 0.36102 0.25082 0.72805 0.0
H2656 H 0.74526 0.5576 0.28431 0.0
H2657 H 0.71681 0.61826 0.29825 0.0
H2658 H 0.7342 0.55954 0.24114 0.0
H2659 H 0.7061 0.62042 0.25557 0.0
H2660 H 0.6868 0.62215 0.17903 0.0
H2661 H 0.71689 0.62337 0.21357 0.0
H2662 H 0.69147 0.55244 0.22214 0.0
H2663 H 0.66166 0.55129 0.18776 0.0
C2664 C 0.73742 0.57173 0.27804 0.0
C2665 C 0.73145 0.58756 0.2944 0.0
C2666 C 0.73109 0.57285 0.25345 0.0
C2667 C 0.71918 0.59005 0.24505 0.0
C2668 C 0.71545 0.60709 0.26143 0.0
C2669 C 0.72135 0.60574 0.28588 0.0
C2670 C 0.6882 0.60672 0.18793 0.0
C2671 C 0.67171 0.58676 0.18121 0.0
C2672 C 0.70537 0.6074 0.2076 0.0
C2673 C 0.70639 0.58805 0.2206 0.0
C2674 C 0.69128 0.56757 0.21237 0.0
C2675 C 0.67401 0.56697 0.19292 0.0
H2676 H 0.33027 0.91413 0.96679 0.0
H2677 H 0.34599 0.85044 0.99068 0.0
H2678 H 0.32564 0.89887 0.92524 0.0
H2679 H 0.34221 0.83538 0.9492 0.0
H2680 H 0.31165 0.80604 0.87494 0.0
H2681 H 0.31412 0.82233 0.91571 0.0
H2682 H 0.3458 0.8875 0.89348 0.0
H2683 H 0.34258 0.8713 0.85242 0.0
C2684 C 0.33294 0.89691 0.96316 0.0
C2685 C 0.33842 0.88348 0.98209 0.0
C2686 C 0.3304 0.88817 0.93927 0.0
C2687 C 0.3334 0.86578 0.93365 0.0
C2688 C 0.33924 0.85251 0.95269 0.0
C2689 C 0.34161 0.86121 0.97656 0.0
C2690 C 0.31894 0.82391 0.87865 0.0
C2691 C 0.32693 0.8373 0.8603 0.0
C2692 C 0.32058 0.83324 0.90218 0.0
C2693 C 0.33047 0.85623 0.90817 0.0
C2694 C 0.33788 0.8698 0.88965 0.0
C2695 C 0.33606 0.86048 0.86602 0.0
H2696 H 1.01512 0.58948 0.78373 0.0
H2697 H 0.09016 0.60181 0.8081 0.0
H2698 H 1.02274 0.57205 0.74598 0.0
H2699 H 0.09774 0.58505 0.77031 0.0
H2700 H 0.10416 0.53706 0.70963 0.0
H2701 H 0.09234 0.54897 0.74782 0.0
H2702 H 0.04059 0.5831 0.71046 0.0
H2703 H 0.05152 0.57017 0.6723 0.0
C2704 C 1.03323 0.58863 0.78098 0.0
C2705 C 0.05203 0.59701 0.79891 0.0
C2706 C 1.03758 0.57866 0.75937 0.0
C2707 C 0.06082 0.57701 0.75527 0.0
C2708 C 0.07958 0.58558 0.77314 0.0
C2709 C 0.07524 0.59539 0.79473 0.0
C2710 C 0.0899 0.54667 0.70958 0.0
C2711 C 0.07898 0.55295 0.68803 0.0
C2712 C 0.08333 0.55372 0.73144 0.0
C2713 C 0.06579 0.56726 0.73214 0.0
C2714 C 0.0541 0.57262 0.71053 0.0
C2715 C 0.06058 0.56547 0.68869 0.0
H2716 H 0.35208 0.23624 0.49201 0.0
H2717 H 0.34953 0.17252 0.45257 0.0
H2718 H 0.35044 0.25537 0.45444 0.0
H2719 H 0.34791 0.19152 0.41492 0.0
H2720 H 0.32596 0.22773 0.34656 0.0
H2721 H 0.32807 0.20881 0.38408 0.0
H2722 H 0.36738 0.2707 0.42083 0.0
H2723 H 0.36516 0.28964 0.38308 0.0
C2724 C 0.35112 0.2261 0.47537 0.0
C2725 C 0.35089 0.20243 0.47609 0.0
C2726 C 0.35034 0.23729 0.45341 0.0
C2727 C 0.34901 0.22551 0.43062 0.0
C2728 C 0.34862 0.20175 0.43142 0.0
C2729 C 0.34965 0.19062 0.45342 0.0
C2730 C 0.33525 0.23748 0.36251 0.0
C2731 C 0.34545 0.2606 0.36092 0.0
C2732 C 0.33657 0.22639 0.38446 0.0
C2733 C 0.34795 0.23769 0.40652 0.0
C2734 C 0.35815 0.26089 0.40492 0.0
C2735 C 0.35704 0.27194 0.38284 0.0
H2736 H 0.3624 0.64822 0.54492 0.0
H2737 H 0.40446 0.71295 0.53388 0.0
H2738 H 0.39619 0.62991 0.54106 0.0
H2739 H 0.43883 0.6947 0.53092 0.0
H2740 H 0.48339 0.64881 0.49427 0.0
H2741 H 0.45272 0.67021 0.50339 0.0
H2742 H 0.43353 0.62449 0.55809 0.0
H2743 H 0.46354 0.60275 0.54822 0.0
C2744 C 0.37905 0.65865 0.54219 0.0
C2745 C 0.3807 0.68203 0.5396 0.0
C2746 C 0.39855 0.64814 0.54009 0.0
C2747 C 0.42034 0.66076 0.53558 0.0
C2748 C 0.42225 0.68436 0.53398 0.0
C2749 C 0.40261 0.69488 0.5359 0.0
C2750 C 0.47265 0.64349 0.50832 0.0
C2751 C 0.47552 0.62393 0.52025 0.0
C2752 C 0.45518 0.65582 0.51369 0.0
C2753 C 0.44041 0.649 0.53136 0.0
C2754 C 0.4441 0.62994 0.54397 0.0
C2755 C 0.46132 0.61748 0.53837 0.0
H2756 H 0.87783 0.98265 0.55672 0.0
H2757 H 0.90523 0.92488 0.53063 0.0
H2758 H 0.91712 1.00657 0.5559 0.0
H2759 H 0.94358 0.94809 0.53022 0.0
H2760 H 1.00765 0.99499 0.51077 0.0
H2761 H 0.9675 0.97458 0.51124 0.0
H2762 H 0.95892 1.01819 0.57155 0.0
H2763 H 0.99939 0.03905 0.57071 0.0
C2764 C 0.89197 0.97489 0.55078 0.0
C2765 C 0.88754 0.9514 0.54369 0.0
C2766 C 0.91483 0.98871 0.55041 0.0
C2767 C 0.93428 0.97976 0.54269 0.0
C2768 C 0.92961 0.95632 0.53576 0.0
C2769 C 0.90712 0.94269 0.53624 0.0
C2770 C 0.99736 1.00047 0.52417 0.0
C2771 C 1.00749 1.01898 0.5407 0.0
C2772 C 0.97398 0.98845 0.52461 0.0
C2773 C 0.9592 0.99409 0.54168 0.0
C2774 C 0.96912 1.01299 0.55794 0.0
C2775 C 0.99267 1.02507 0.55751 0.0
H2776 H 0.94012 0.10429 0.2347 0.0
H2777 H 0.87284 0.05846 0.22294 0.0
H2778 H 0.92034 0.13469 0.24768 0.0
H2779 H 0.85312 0.08878 0.23638 0.0
H2780 H 0.82436 0.15556 0.24541 0.0
H2781 H 0.84268 0.12593 0.22772 0.0
H2782 H 0.90168 0.14171 0.28362 0.0
H2783 H 0.88343 0.17119 0.30121 0.0
C2784 C 0.92108 0.10077 0.23464 0.0
C2785 C 0.90806 0.07895 0.22803 0.0
C2786 C 0.90978 0.11813 0.24224 0.0
C2787 C 0.88524 0.11401 0.24343 0.0
C2788 C 0.87204 0.09249 0.2356 0.0
C2789 C 0.88335 0.07512 0.22796 0.0
C2790 C 0.8411 0.15247 0.25405 0.0
C2791 C 0.85252 0.16574 0.27463 0.0
C2792 C 0.85162 0.13559 0.24387 0.0
C2793 C 0.87376 0.13172 0.2541 0.0
C2794 C 0.88489 0.14467 0.27497 0.0
C2795 C 0.87439 0.16148 0.28512 0.0
H2796 H 0.72386 0.19432 0.98614 0.0
H2797 H 0.76012 0.16225 0.04236 0.0
H2798 H 0.69074 0.16262 0.9823 0.0
H2799 H 0.72652 0.13135 0.03991 0.0
H2800 H 0.66992 0.06989 0.02237 0.0
H2801 H 0.70459 0.09901 0.01989 0.0
H2802 H 0.65866 0.1466 0.99971 0.0
H2803 H 0.6245 0.11727 1.00059 0.0
C2804 C 0.72457 0.1806 0.9979 0.0
C2805 C 0.74453 0.1808 1.01458 0.0
C2806 C 0.70552 0.1624 0.99583 0.0
C2807 C 0.70567 0.1442 1.01085 0.0
C2808 C 0.72576 0.1446 0.02759 0.0
C2809 C 0.74501 0.16251 0.02922 0.0
C2810 C 0.66734 0.08648 1.01699 0.0
C2811 C 0.64444 0.09119 1.01168 0.0
C2812 C 0.68723 0.10334 1.01582 0.0
C2813 C 0.68467 0.12547 1.00985 0.0
C2814 C 0.66164 0.12984 1.00396 0.0
C2815 C 0.64188 0.11291 1.00462 0.0
H2816 H 0.17516 0.45753 0.30641 0.0
H2817 H 0.21911 0.48756 0.25477 0.0
H2818 H 0.20746 0.43973 0.32355 0.0
H2819 H 0.25115 0.46918 0.27134 0.0
H2820 H 0.31155 0.44745 0.31597 0.0
H2821 H 0.28003 0.46911 0.30558 0.0
H2822 H 0.22764 0.40995 0.31365 0.0
H2823 H 0.25899 0.38886 0.32493 0.0
C2824 C 0.19164 0.46012 0.29855 0.0
C2825 C 0.19454 0.47382 0.27915 0.0
C2826 C 0.21018 0.44994 0.30838 0.0
C2827 C 0.23198 0.45308 0.29891 0.0
C2828 C 0.2348 0.46675 0.27942 0.0
C2829 C 0.21632 0.47706 0.26971 0.0
C2830 C 0.29329 0.43936 0.31614 0.0
C2831 C 0.28769 0.41644 0.32099 0.0
C2832 C 0.27523 0.45162 0.30987 0.0
C2833 C 0.25127 0.44117 0.30839 0.0
C2834 C 0.24583 0.41863 0.3147 0.0
C2835 C 0.26381 0.40646 0.321 0.0
H2836 H 0.27096 0.48939 0.06351 0.0
H2837 H 0.22521 0.42831 0.03274 0.0
H2838 H 0.23696 0.50873 0.06338 0.0
H2839 H 0.19095 0.44749 0.03273 0.0
H2840 H 0.13161 0.49145 1.01911 0.0
H2841 H 0.16551 0.47181 1.0191 0.0
H2842 H 0.20319 0.51819 0.07687 0.0
H2843 H 0.16941 0.5378 0.07661 0.0
C2844 C 0.25365 0.47982 0.05678 0.0
C2845 C 0.25164 0.45681 0.04823 0.0
C2846 C 0.23365 0.49111 0.05678 0.0
C2847 C 0.21011 0.48028 0.04807 0.0
C2848 C 0.20817 0.45719 0.03947 0.0
C2849 C 0.2282 0.44586 0.03962 0.0
C2850 C 0.14708 0.49765 0.03187 0.0
C2851 C 0.14697 0.51676 0.04779 0.0
C2852 C 0.16691 0.48607 0.032 0.0
C2853 C 0.18818 0.49283 0.04796 0.0
C2854 C 0.18797 0.51199 0.06385 0.0
C2855 C 0.1681 0.52346 0.06381 0.0
H2856 H 0.89204 0.97386 0.23561 0.0
H2857 H 0.94011 0.93346 0.20899 0.0
H2858 H 0.86804 0.93949 0.24772 0.0
H2859 H 0.91565 0.89914 0.22076 0.0
H2860 H 0.8417 0.84642 0.23256 0.0
H2861 H 0.8592 0.88026 0.21332 0.0
H2862 H 0.89548 0.90937 0.28171 0.0
H2863 H 0.87865 0.87557 0.30091 0.0
C2864 C 0.89709 0.95762 0.23169 0.0
C2865 C 0.91805 0.95633 0.22152 0.0
C2866 C 0.88337 0.93806 0.23862 0.0
C2867 C 0.89012 0.91694 0.23498 0.0
C2868 C 0.91014 0.91536 0.22346 0.0
C2869 C 0.92412 0.93496 0.21689 0.0
C2870 C 0.85326 0.86015 0.24347 0.0
C2871 C 0.85893 0.85843 0.26818 0.0
C2872 C 0.86321 0.87936 0.23248 0.0
C2873 C 0.87844 0.89718 0.24621 0.0
C2874 C 0.88362 0.89573 0.27093 0.0
C2875 C 0.87411 0.87642 0.28181 0.0
H2876 H 0.66403 0.06042 0.71951 0.0
H2877 H 0.62722 0.08655 0.77443 0.0
H2878 H 0.68574 0.09848 0.71587 0.0
H2879 H 0.64956 0.12448 0.77152 0.0
H2880 H 0.68548 0.1935 0.75157 0.0
H2881 H 0.65853 0.15703 0.74884 0.0
H2882 H 0.71724 0.12246 0.74049 0.0
H2883 H 0.74386 0.15884 0.74263 0.0
C2884 C 0.66038 0.07439 0.73057 0.0
C2885 C 0.64403 0.07055 0.74729 0.0
C2886 C 0.67295 0.09615 0.72866 0.0
C2887 C 0.66973 0.11447 0.74373 0.0
C2888 C 0.65236 0.11082 0.7595 0.0
C2889 C 0.63953 0.08907 0.76117 0.0
C2890 C 0.69254 0.17805 0.7492 0.0
C2891 C 0.71672 0.17895 0.7473 0.0
C2892 C 0.67713 0.15718 0.74761 0.0
C2893 C 0.68567 0.1368 0.74428 0.0
C2894 C 0.70992 0.13781 0.74246 0.0
C2895 C 0.72524 0.15864 0.74384 0.0
loop_
_geom_bond_atom_site_label_1
_geom_bond_atom_site_label_2
_geom_bond_distance
_geom_bond_site_symmetry_2
_ccdc_geom_bond_type
Co0 O1 2.216 . S
Co0 O2 2.091 . S
Co0 O4 2.004 . S
Co0 O10 2.021 . S
Co0 O12 2.137 . S
Co0 O13 2.244 . S
O1 Co0 2.216 . S
O1 C8 1.247 . S
O2 Co0 2.091 . S
O2 C8 1.261 . S
C3 O12 1.247 . S
C3 O13 1.272 . S
O4 Co0 2.004 . S
O4 C9 1.259 . S
Co5 O6 2.072 . S
Co5 O11 2.052 . S
Co5 O13 2.135 . S
O6 Co5 2.072 . S
O6 C9 1.242 . S
C7 O10 1.238 . S
C7 O11 1.241 . S
C8 O1 1.247 . S
C8 O2 1.261 . S
C9 O4 1.259 . S
C9 O6 1.242 . S
O10 Co0 2.021 . S
O10 C7 1.238 . S
O11 Co5 2.052 . S
O11 C7 1.241 . S
O12 Co0 2.137 . S
O12 C3 1.247 . S
O13 Co0 2.244 . S
O13 C3 1.272 . S
O13 Co5 2.135 . S
Co14 O15 2.216 . S
Co14 O16 2.091 . S
Co14 O18 2.004 . S
Co14 O24 2.021 . S
Co14 O26 2.137 . S
Co14 O27 2.244 . S
O15 Co14 2.216 . S
O15 C22 1.247 . S
O16 Co14 2.091 . S
O16 C22 1.261 . S
C17 O26 1.247 . S
C17 O27 1.272 . S
O18 Co14 2.004 . S
O18 C23 1.259 . S
Co19 O20 2.061 . S
Co19 O25 2.052 . S
Co19 O27 2.135 . S
O20 Co19 2.061 . S
O20 C23 1.235 . S
C21 O24 1.238 . S
C21 O25 1.241 . S
C22 O15 1.247 . S
C22 O16 1.261 . S
C23 O18 1.259 . S
C23 O20 1.235 . S
O24 Co14 2.021 . S
O24 C21 1.238 . S
O25 Co19 2.052 . S
O25 C21 1.241 . S
O26 Co14 2.137 . S
O26 C17 1.247 . S
O27 Co14 2.244 . S
O27 C17 1.272 . S
O27 Co19 2.135 . S
Co28 O29 2.216 . S
Co28 O30 2.091 . S
Co28 O32 2.004 . S
Co28 O38 2.021 . S
Co28 O40 2.137 . S
Co28 O41 2.244 . S
O29 Co28 2.216 . S
O29 C36 1.247 . S
O30 Co28 2.091 . S
O30 C36 1.261 . S
C31 O40 1.247 . S
C31 O41 1.272 . S
O32 Co28 2.004 . S
O32 C37 1.259 . S
Co33 O34 2.061 . S
Co33 O39 2.052 . S
Co33 O41 2.135 . S
O34 Co33 2.061 . S
O34 C37 1.235 . S
C35 O38 1.238 . S
C35 O39 1.241 . S
C36 O29 1.247 . S
C36 O30 1.261 . S
C37 O32 1.259 . S
C37 O34 1.235 . S
O38 Co28 2.021 . S
O38 C35 1.238 . S
O39 Co33 2.052 . S
O39 C35 1.241 . S
O40 Co28 2.137 . S
O40 C31 1.247 . S
O41 Co28 2.244 . S
O41 C31 1.272 . S
O41 Co33 2.135 . S
Co42 O43 2.216 . S
Co42 O44 2.091 . S
Co42 O46 2.004 . S
Co42 O52 2.021 . S
Co42 O54 2.137 . S
Co42 O55 2.244 . S
O43 Co42 2.216 . S
O43 C50 1.247 . S
O44 Co42 2.091 . S
O44 C50 1.261 . S
C45 O54 1.247 . S
C45 O55 1.272 . S
O46 Co42 2.004 . S
O46 C51 1.259 . S
Co47 O48 2.061 . S
Co47 O53 2.052 . S
Co47 O55 2.135 . S
O48 Co47 2.061 . S
O48 C51 1.235 . S
C49 O52 1.238 . S
C49 O53 1.241 . S
C50 O43 1.247 . S
C50 O44 1.261 . S
C51 O46 1.259 . S
C51 O48 1.235 . S
O52 Co42 2.021 . S
O52 C49 1.238 . S
O53 Co47 2.052 . S
O53 C49 1.241 . S
O54 Co42 2.137 . S
O54 C45 1.247 . S
O55 Co42 2.244 . S
O55 C45 1.272 . S
O55 Co47 2.135 . S
Co56 O57 2.216 . S
Co56 O58 2.091 . S
Co56 O60 2.004 . S
Co56 O66 2.021 . S
Co56 O68 2.137 . S
Co56 O69 2.244 . S
O57 Co56 2.216 . S
O57 C64 1.247 . S
O58 Co56 2.091 . S
O58 C64 1.261 . S
C59 O68 1.247 . S
C59 O69 1.272 . S
O60 Co56 2.004 . S
O60 C65 1.259 . S
Co61 O62 2.061 . S
Co61 O67 2.052 . S
Co61 O69 2.135 . S
O62 Co61 2.061 . S
O62 C65 1.235 . S
C63 O66 1.238 . S
C63 O67 1.241 . S
C64 O57 1.247 . S
C64 O58 1.261 . S
C65 O60 1.259 . S
C65 O62 1.235 . S
O66 Co56 2.021 . S
O66 C63 1.238 . S
O67 Co61 2.052 . S
O67 C63 1.241 . S
O68 Co56 2.137 . S
O68 C59 1.247 . S
O69 Co56 2.244 . S
O69 C59 1.272 . S
O69 Co61 2.135 . S
Co70 O71 2.216 . S
Co70 O72 2.091 . S
Co70 O74 2.004 . S
Co70 O80 2.021 . S
Co70 O82 2.137 . S
Co70 O83 2.244 . S
O71 Co70 2.216 . S
O71 C78 1.247 . S
O72 Co70 2.091 . S
O72 C78 1.261 . S
C73 O82 1.247 . S
C73 O83 1.272 . S
O74 Co70 2.004 . S
O74 C79 1.259 . S
Co75 O76 2.061 . S
Co75 O81 2.052 . S
Co75 O83 2.135 . S
O76 Co75 2.061 . S
O76 C79 1.235 . S
C77 O80 1.238 . S
C77 O81 1.241 . S
C78 O71 1.247 . S
C78 O72 1.261 . S
C79 O74 1.259 . S
C79 O76 1.235 . S
O80 Co70 2.021 . S
O80 C77 1.238 . S
O81 Co75 2.052 . S
O81 C77 1.241 . S
O82 Co70 2.137 . S
O82 C73 1.247 . S
O83 Co70 2.244 . S
O83 C73 1.272 . S
O83 Co75 2.135 . S
Co84 O85 2.216 . S
Co84 O86 2.091 . S
Co84 O88 2.004 . S
Co84 O94 2.021 . S
Co84 O96 2.137 . S
Co84 O97 2.244 . S
O85 Co84 2.216 . S
O85 C92 1.247 . S
O86 Co84 2.091 . S
O86 C92 1.261 . S
C87 O96 1.247 . S
C87 O97 1.272 . S
O88 Co84 2.004 . S
O88 C93 1.259 . S
Co89 O90 2.061 . S
Co89 O95 2.052 . S
Co89 O97 2.135 . S
O90 Co89 2.061 . S
O90 C93 1.235 . S
C91 O94 1.238 . S
C91 O95 1.241 . S
C92 O85 1.247 . S
C92 O86 1.261 . S
C93 O88 1.259 . S
C93 O90 1.235 . S
O94 Co84 2.021 . S
O94 C91 1.238 . S
O95 Co89 2.052 . S
O95 C91 1.241 . S
O96 Co84 2.137 . S
O96 C87 1.247 . S
O97 Co84 2.244 . S
O97 C87 1.272 . S
O97 Co89 2.135 . S
Co98 O99 2.216 . S
Co98 O100 2.091 . S
Co98 O102 2.004 1_455 S
Co98 O108 2.021 1_455 S
Co98 O110 2.137 . S
Co98 O111 2.244 1_455 S
O99 Co98 2.216 . S
O99 C106 1.247 . S
O100 Co98 2.091 . S
O100 C106 1.261 . S
C101 O110 1.247 . S
C101 O111 1.272 1_455 S
O102 Co98 2.004 1_655 S
O102 C107 1.259 . S
Co103 O104 2.061 . S
Co103 O109 2.052 . S
Co103 O111 2.135 . S
O104 Co103 2.061 . S
O104 C107 1.235 . S
C105 O108 1.244 . S
C105 O109 1.241 . S
C106 O99 1.247 . S
C106 O100 1.261 . S
C107 O102 1.259 . S
C107 O104 1.235 . S
O108 Co98 2.021 1_655 S
O108 C105 1.244 . S
O109 Co103 2.052 . S
O109 C105 1.241 . S
O110 Co98 2.137 . S
O110 C101 1.247 . S
O111 Co98 2.244 1_655 S
O111 C101 1.272 1_655 S
O111 Co103 2.135 . S
Co112 O113 2.216 . S
Co112 O114 2.091 . S
Co112 O116 2.004 . S
Co112 O122 2.021 . S
Co112 O124 2.137 . S
Co112 O125 2.244 . S
O113 Co112 2.216 . S
O113 C120 1.247 . S
O114 Co112 2.091 . S
O114 C120 1.261 . S
C115 O124 1.247 . S
C115 O125 1.272 . S
O116 Co112 2.004 . S
O116 C121 1.259 . S
Co117 O118 2.061 . S
Co117 O123 2.052 . S
Co117 O125 2.135 . S
O118 Co117 2.061 . S
O118 C121 1.235 . S
C119 O122 1.238 . S
C119 O123 1.241 . S
C120 O113 1.247 . S
C120 O114 1.261 . S
C121 O116 1.259 . S
C121 O118 1.235 . S
O122 Co112 2.021 . S
O122 C119 1.238 . S
O123 Co117 2.052 . S
O123 C119 1.241 . S
O124 Co112 2.137 . S
O124 C115 1.247 . S
O125 Co112 2.244 . S
O125 C115 1.272 . S
O125 Co117 2.135 . S
Co126 O127 2.216 . S
Co126 O128 2.091 . S
Co126 O130 2.004 . S
Co126 O136 2.021 . S
Co126 O138 2.137 . S
Co126 O139 2.244 . S
O127 Co126 2.216 . S
O127 C134 1.247 . S
O128 Co126 2.091 . S
O128 C134 1.261 . S
C129 O138 1.247 . S
C129 O139 1.272 . S
O130 Co126 2.004 . S
O130 C135 1.259 . S
Co131 O132 2.061 . S
Co131 O137 2.052 . S
Co131 O139 2.135 . S
O132 Co131 2.061 . S
O132 C135 1.235 . S
C133 O136 1.238 . S
C133 O137 1.241 . S
C134 O127 1.247 . S
C134 O128 1.261 . S
C135 O130 1.259 . S
C135 O132 1.235 . S
O136 Co126 2.021 . S
O136 C133 1.238 . S
O137 Co131 2.052 . S
O137 C133 1.241 . S
O138 Co126 2.137 . S
O138 C129 1.247 . S
O139 Co126 2.244 . S
O139 C129 1.272 . S
O139 Co131 2.135 . S
Co140 O141 2.216 . S
Co140 O142 2.091 . S
Co140 O144 2.004 . S
Co140 O150 2.021 . S
Co140 O152 2.137 . S
Co140 O153 2.244 . S
O141 Co140 2.216 . S
O141 C148 1.247 . S
O142 Co140 2.091 . S
O142 C148 1.261 . S
C143 O152 1.247 . S
C143 O153 1.272 . S
O144 Co140 2.004 . S
O144 C149 1.259 . S
Co145 O146 2.061 . S
Co145 O151 2.052 . S
Co145 O153 2.135 . S
O146 Co145 2.061 . S
O146 C149 1.235 . S
C147 O150 1.238 . S
C147 O151 1.241 . S
C148 O141 1.247 . S
C148 O142 1.261 . S
C149 O144 1.259 . S
C149 O146 1.235 . S
O150 Co140 2.021 . S
O150 C147 1.238 . S
O151 Co145 2.052 . S
O151 C147 1.241 . S
O152 Co140 2.137 . S
O152 C143 1.247 . S
O153 Co140 2.244 . S
O153 C143 1.272 . S
O153 Co145 2.135 . S
Co154 O155 2.216 . S
Co154 O156 2.091 . S
Co154 O158 2.004 . S
Co154 O164 2.021 . S
Co154 O166 2.137 . S
Co154 O167 2.244 . S
O155 Co154 2.216 . S
O155 C162 1.247 . S
O156 Co154 2.091 . S
O156 C162 1.261 . S
C157 O166 1.247 . S
C157 O167 1.272 . S
O158 Co154 2.004 . S
O158 C163 1.259 . S
Co159 O160 2.061 . S
Co159 O165 2.052 . S
Co159 O167 2.135 . S
O160 Co159 2.061 . S
O160 C163 1.235 . S
C161 O164 1.238 . S
C161 O165 1.241 . S
C162 O155 1.247 . S
C162 O156 1.261 . S
C163 O158 1.259 . S
C163 O160 1.235 . S
O164 Co154 2.021 . S
O164 C161 1.238 . S
O165 Co159 2.052 . S
O165 C161 1.241 . S
O166 Co154 2.137 . S
O166 C157 1.247 . S
O167 Co154 2.244 . S
O167 C157 1.272 . S
O167 Co159 2.135 . S
Co168 O169 2.216 . S
Co168 O170 2.091 . S
Co168 O172 2.004 . S
Co168 O178 2.021 . S
Co168 O180 2.137 1_554 S
Co168 O181 2.244 . S
O169 Co168 2.216 . S
O169 C176 1.247 . S
O170 Co168 2.091 . S
O170 C176 1.261 . S
C171 O180 1.247 . S
C171 O181 1.272 1_556 S
O172 Co168 2.004 . S
O172 C177 1.259 . S
Co173 O174 2.061 . S
Co173 O179 2.052 . S
Co173 O181 2.135 . S
O174 Co173 2.061 . S
O174 C177 1.235 . S
C175 O178 1.238 . S
C175 O179 1.241 . S
C176 O169 1.247 . S
C176 O170 1.261 . S
C177 O172 1.259 . S
C177 O174 1.235 . S
O178 Co168 2.021 . S
O178 C175 1.238 . S
O179 Co173 2.052 . S
O179 C175 1.241 . S
O180 Co168 2.137 1_556 S
O180 C171 1.247 . S
O181 Co168 2.244 . S
O181 C171 1.272 1_554 S
O181 Co173 2.135 . S
Co182 O183 2.216 1_556 S
Co182 O184 2.089 1_556 S
Co182 O186 2.004 . S
Co182 O192 2.021 1_556 S
Co182 O194 2.137 . S
Co182 O195 2.244 . S
O183 Co182 2.216 1_554 S
O183 C190 1.247 . S
O184 Co182 2.089 1_554 S
O184 C190 1.260 . S
C185 O194 1.247 . S
C185 O195 1.272 . S
O186 Co182 2.004 . S
O186 C191 1.259 . S
Co187 O188 2.057 . S
Co187 O193 2.016 1_556 S
Co187 O195 2.162 . S
O188 Co187 2.057 . S
O188 C191 1.235 . S
C189 O192 1.238 . S
C189 O193 1.241 . S
C190 O183 1.247 . S
C190 O184 1.260 . S
C191 O186 1.259 . S
C191 O188 1.235 . S
O192 Co182 2.021 1_554 S
O192 C189 1.238 . S
O193 Co187 2.016 1_554 S
O193 C189 1.241 . S
O194 Co182 2.137 . S
O194 C185 1.247 . S
O195 Co182 2.244 . S
O195 C185 1.272 . S
O195 Co187 2.162 . S
Co196 O197 2.216 . S
Co196 O198 2.091 . S
Co196 O200 2.004 . S
Co196 O206 2.021 . S
Co196 O208 2.137 . S
Co196 O209 2.244 . S
O197 Co196 2.216 . S
O197 C204 1.247 . S
O198 Co196 2.091 . S
O198 C204 1.261 . S
C199 O208 1.247 . S
C199 O209 1.272 . S
O200 Co196 2.004 . S
O200 C205 1.259 . S
Co201 O202 2.061 . S
Co201 O207 2.052 . S
Co201 O209 2.135 . S
O202 Co201 2.061 . S
O202 C205 1.235 . S
C203 O206 1.238 . S
C203 O207 1.241 . S
C204 O197 1.247 . S
C204 O198 1.261 . S
C205 O200 1.259 . S
C205 O202 1.235 . S
O206 Co196 2.021 . S
O206 C203 1.238 . S
O207 Co201 2.052 . S
O207 C203 1.241 . S
O208 Co196 2.137 . S
O208 C199 1.247 . S
O209 Co196 2.244 . S
O209 C199 1.272 . S
O209 Co201 2.135 . S
Co210 O211 2.216 . S
Co210 O212 2.091 . S
Co210 O214 2.004 . S
Co210 O220 2.021 . S
Co210 O222 2.137 . S
Co210 O223 2.244 . S
O211 Co210 2.216 . S
O211 C218 1.247 . S
O212 Co210 2.091 . S
O212 C218 1.261 . S
C213 O222 1.247 . S
C213 O223 1.272 . S
O214 Co210 2.004 . S
O214 C219 1.259 . S
Co215 O216 2.061 . S
Co215 O221 2.052 . S
Co215 O223 2.135 . S
O216 Co215 2.061 . S
O216 C219 1.235 . S
C217 O220 1.238 . S
C217 O221 1.241 . S
C218 O211 1.247 . S
C218 O212 1.261 . S
C219 O214 1.259 . S
C219 O216 1.235 . S
O220 Co210 2.021 . S
O220 C217 1.238 . S
O221 Co215 2.052 . S
O221 C217 1.241 . S
O222 Co210 2.137 . S
O222 C213 1.247 . S
O223 Co210 2.244 . S
O223 C213 1.272 . S
O223 Co215 2.135 . S
Co224 O225 2.216 . S
Co224 O226 2.091 . S
Co224 O228 2.004 1_545 S
Co224 O234 2.021 . S
Co224 O236 2.137 . S
Co224 O237 2.244 1_545 S
O225 Co224 2.216 . S
O225 C232 1.247 . S
O226 Co224 2.091 . S
O226 C232 1.261 . S
C227 O236 1.247 . S
C227 O237 1.272 1_545 S
O228 Co224 2.004 1_565 S
O228 C233 1.259 . S
Co229 O230 2.061 . S
Co229 O235 2.052 . S
Co229 O237 2.135 . S
O230 Co229 2.061 . S
O230 C233 1.235 . S
C231 O234 1.238 1_565 S
C231 O235 1.241 . S
C232 O225 1.247 . S
C232 O226 1.261 . S
C233 O228 1.259 . S
C233 O230 1.235 . S
O234 Co224 2.021 . S
O234 C231 1.238 1_545 S
O235 Co229 2.052 . S
O235 C231 1.241 . S
O236 Co224 2.137 . S
O236 C227 1.247 . S
O237 Co224 2.244 1_565 S
O237 C227 1.272 1_565 S
O237 Co229 2.135 . S
Co238 O239 2.216 . S
Co238 O240 2.091 . S
Co238 O242 2.004 . S
Co238 O248 2.021 . S
Co238 O250 2.137 . S
Co238 O251 2.244 . S
O239 Co238 2.216 . S
O239 C246 1.247 . S
O240 Co238 2.091 . S
O240 C246 1.261 . S
C241 O250 1.247 . S
C241 O251 1.272 . S
O242 Co238 2.004 . S
O242 C247 1.259 . S
Co243 O244 2.061 . S
Co243 O249 2.052 . S
Co243 O251 2.135 . S
O244 Co243 2.061 . S
O244 C247 1.235 . S
C245 O248 1.238 . S
C245 O249 1.241 . S
C246 O239 1.247 . S
C246 O240 1.261 . S
C247 O242 1.259 . S
C247 O244 1.235 . S
O248 Co238 2.021 . S
O248 C245 1.238 . S
O249 Co243 2.052 . S
O249 C245 1.241 . S
O250 Co238 2.137 . S
O250 C241 1.247 . S
O251 Co238 2.244 . S
O251 C241 1.272 . S
O251 Co243 2.135 . S
Co252 O253 2.216 . S
Co252 O254 2.091 . S
Co252 O256 2.004 . S
Co252 O262 2.021 . S
Co252 O264 2.137 . S
Co252 O265 2.244 . S
O253 Co252 2.216 . S
O253 C260 1.247 . S
O254 Co252 2.091 . S
O254 C260 1.261 . S
C255 O264 1.247 . S
C255 O265 1.272 . S
O256 Co252 2.004 . S
O256 C261 1.259 . S
Co257 O258 2.061 . S
Co257 O263 2.052 . S
Co257 O265 2.135 . S
O258 Co257 2.061 . S
O258 C261 1.235 . S
C259 O262 1.238 . S
C259 O263 1.241 . S
C260 O253 1.247 . S
C260 O254 1.261 . S
C261 O256 1.259 . S
C261 O258 1.235 . S
O262 Co252 2.021 . S
O262 C259 1.238 . S
O263 Co257 2.052 . S
O263 C259 1.241 . S
O264 Co252 2.137 . S
O264 C255 1.247 . S
O265 Co252 2.244 . S
O265 C255 1.272 . S
O265 Co257 2.135 . S
Co266 O267 2.216 1_545 S
Co266 O268 2.091 1_545 S
Co266 O270 2.004 . S
Co266 O276 2.021 . S
Co266 O278 2.137 . S
Co266 O279 2.244 . S
O267 Co266 2.216 1_565 S
O267 C274 1.247 . S
O268 Co266 2.091 1_565 S
O268 C274 1.261 . S
C269 O278 1.247 . S
C269 O279 1.272 . S
O270 Co266 2.004 . S
O270 C275 1.259 . S
Co271 O272 2.061 . S
Co271 O277 2.052 . S
Co271 O279 2.135 . S
O272 Co271 2.061 . S
O272 C275 1.235 . S
C273 O276 1.238 . S
C273 O277 1.241 . S
C274 O267 1.247 . S
C274 O268 1.261 . S
C275 O270 1.259 . S
C275 O272 1.235 . S
O276 Co266 2.021 . S
O276 C273 1.238 . S
O277 Co271 2.052 . S
O277 C273 1.241 . S
O278 Co266 2.137 . S
O278 C269 1.247 . S
O279 Co266 2.244 . S
O279 C269 1.272 . S
O279 Co271 2.135 . S
Co280 O281 2.216 . S
Co280 O282 2.091 . S
Co280 O284 2.004 . S
Co280 O290 2.021 . S
Co280 O292 2.137 1_554 S
Co280 O293 2.248 . S
O281 Co280 2.216 . S
O281 C288 1.247 . S
O282 Co280 2.091 . S
O282 C288 1.261 . S
C283 O292 1.247 . S
C283 O293 1.264 1_556 S
O284 Co280 2.004 . S
O284 C289 1.259 . S
Co285 O286 2.061 . S
Co285 O291 2.052 . S
Co285 O293 2.139 . S
O286 Co285 2.061 . S
O286 C289 1.235 . S
C287 O290 1.238 . S
C287 O291 1.241 . S
C288 O281 1.247 . S
C288 O282 1.261 . S
C289 O284 1.259 . S
C289 O286 1.235 . S
O290 Co280 2.021 . S
O290 C287 1.238 . S
O291 Co285 2.052 . S
O291 C287 1.241 . S
O292 Co280 2.137 1_556 S
O292 C283 1.247 . S
O293 Co280 2.248 . S
O293 C283 1.264 1_554 S
O293 Co285 2.139 . S
Co294 O295 2.216 . S
Co294 O296 2.091 . S
Co294 O298 2.004 . S
Co294 O304 2.021 . S
Co294 O306 2.137 . S
Co294 O307 2.244 1_655 S
O295 Co294 2.216 . S
O295 C302 1.247 . S
O296 Co294 2.091 . S
O296 C302 1.261 . S
C297 O306 1.247 1_455 S
C297 O307 1.272 . S
O298 Co294 2.004 . S
O298 C303 1.259 . S
Co299 O300 2.061 1_455 S
Co299 O305 2.052 . S
Co299 O307 2.135 . S
O300 Co299 2.061 1_655 S
O300 C303 1.235 . S
C301 O304 1.238 1_455 S
C301 O305 1.241 . S
C302 O295 1.247 . S
C302 O296 1.261 . S
C303 O298 1.259 . S
C303 O300 1.235 . S
O304 Co294 2.021 . S
O304 C301 1.238 1_655 S
O305 Co299 2.052 . S
O305 C301 1.241 . S
O306 Co294 2.137 . S
O306 C297 1.247 1_655 S
O307 Co294 2.244 1_455 S
O307 C297 1.272 . S
O307 Co299 2.135 . S
Co308 O309 2.216 . S
Co308 O310 2.091 . S
Co308 O312 2.004 . S
Co308 O318 2.021 . S
Co308 O320 2.137 . S
Co308 O321 2.244 . S
O309 Co308 2.216 . S
O309 C316 1.247 . S
O310 Co308 2.091 . S
O310 C316 1.261 . S
C311 O320 1.247 . S
C311 O321 1.272 . S
O312 Co308 2.004 . S
O312 C317 1.259 . S
Co313 O314 2.061 . S
Co313 O319 2.052 . S
Co313 O321 2.135 . S
O314 Co313 2.061 . S
O314 C317 1.235 . S
C315 O318 1.238 . S
C315 O319 1.241 . S
C316 O309 1.247 . S
C316 O310 1.261 . S
C317 O312 1.259 . S
C317 O314 1.235 . S
O318 Co308 2.021 . S
O318 C315 1.238 . S
O319 Co313 2.052 . S
O319 C315 1.241 . S
O320 Co308 2.137 . S
O320 C311 1.247 . S
O321 Co308 2.244 . S
O321 C311 1.272 . S
O321 Co313 2.135 . S
Co322 O323 2.216 . S
Co322 O324 2.091 . S
Co322 O326 2.004 . S
Co322 O332 2.021 . S
Co322 O334 2.137 . S
Co322 O335 2.244 . S
O323 Co322 2.216 . S
O323 C330 1.247 . S
O324 Co322 2.091 . S
O324 C330 1.261 . S
C325 O334 1.247 . S
C325 O335 1.272 . S
O326 Co322 2.004 . S
O326 C331 1.259 . S
Co327 O328 2.061 . S
Co327 O333 2.052 . S
Co327 O335 2.135 . S
O328 Co327 2.061 . S
O328 C331 1.235 . S
C329 O332 1.238 . S
C329 O333 1.241 . S
C330 O323 1.247 . S
C330 O324 1.261 . S
C331 O326 1.259 . S
C331 O328 1.235 . S
O332 Co322 2.021 . S
O332 C329 1.238 . S
O333 Co327 2.052 . S
O333 C329 1.241 . S
O334 Co322 2.137 . S
O334 C325 1.247 . S
O335 Co322 2.244 . S
O335 C325 1.272 . S
O335 Co327 2.135 . S
Tb336 C346 2.825 1_454 S
Tb336 O347 2.347 . S
Tb336 O350 2.366 . S
Tb336 O355 2.418 1_554 S
Tb336 O356 2.384 1_545 S
Tb336 O359 2.479 1_454 S
Tb336 O360 2.471 1_455 S
Eu337 O348 2.418 . S
Eu337 O349 2.384 . S
Eu337 O352 2.479 . S
Eu337 O353 2.471 . S
Eu337 O354 2.347 . S
Eu337 O357 2.366 . S
Eu337 C367 2.825 . S
C338 O354 1.259 1_556 S
C338 O355 1.265 . S
C339 O356 1.255 . S
C339 O357 1.265 1_565 S
C340 C342 1.380 . S
C340 C343 1.374 1_556 S
C340 C346 1.507 . S
C341 C342 1.384 . S
C341 C345 1.387 . S
C341 H368 0.930 . S
C342 C340 1.380 . S
C342 C341 1.384 . S
C342 H369 0.931 . S
C343 C340 1.374 1_554 S
C343 C344 1.390 1_554 S
C343 H370 0.930 . S
C344 C343 1.390 1_556 S
C344 C345 1.391 . S
C344 H371 0.930 1_556 S
C345 C341 1.387 . S
C345 C344 1.391 . S
C346 Tb336 2.825 1_656 S
C346 C340 1.507 . S
C346 O359 1.238 . S
C346 O360 1.247 1_556 S
O347 Tb336 2.347 . S
O347 C351 1.259 . S
O348 Eu337 2.418 . S
O348 C351 1.265 . S
O349 Eu337 2.384 . S
O349 C358 1.255 . S
O350 Tb336 2.366 . S
O350 C358 1.265 . S
C351 O347 1.259 . S
C351 O348 1.265 . S
O352 Eu337 2.479 . S
O352 C367 1.238 . S
O353 Eu337 2.471 . S
O353 C367 1.247 . S
O354 Eu337 2.347 . S
O354 C338 1.259 1_554 S
O355 Tb336 2.418 1_556 S
O355 C338 1.265 . S
O356 Tb336 2.384 1_565 S
O356 C339 1.255 . S
O357 Eu337 2.366 . S
O357 C339 1.265 1_545 S
C358 O349 1.255 . S
C358 O350 1.265 . S
O359 Tb336 2.479 1_656 S
O359 C346 1.238 . S
O360 Tb336 2.471 1_655 S
O360 C346 1.247 1_554 S
C361 C364 1.380 . S
C361 C365 1.374 . S
C361 C367 1.507 . S
C362 C363 1.420 . S
C362 C366 1.392 1_545 S
C363 C362 1.420 . S
C363 C364 1.384 . S
C363 H372 0.930 . S
C364 C361 1.380 . S
C364 C363 1.384 . S
C364 H373 0.931 . S
C365 C361 1.374 . S
C365 C366 1.390 1_545 S
C365 H374 0.930 . S
C366 C362 1.392 1_565 S
C366 C365 1.390 1_565 S
C366 H375 0.930 . S
C367 Eu337 2.825 . S
C367 O352 1.238 . S
C367 O353 1.247 . S
C367 C361 1.507 . S
H368 C341 0.930 . S
H369 C342 0.931 . S
H370 C343 0.930 . S
H371 C344 0.930 1_554 S
H372 C363 0.930 . S
H373 C364 0.931 . S
H374 C365 0.930 . S
H375 C366 0.930 . S
Tb376 C386 2.825 . S
Tb376 O387 2.347 . S
Tb376 O390 2.366 . S
Tb376 O395 2.418 . S
Tb376 O396 2.384 . S
Tb376 O399 2.479 . S
Tb376 O400 2.471 . S
Eu377 O388 2.418 . S
Eu377 O389 2.384 . S
Eu377 O392 2.479 . S
Eu377 O393 2.471 . S
Eu377 O394 2.347 . S
Eu377 O397 2.366 . S
Eu377 C407 2.825 . S
C378 O394 1.259 . S
C378 O395 1.265 . S
C379 O396 1.255 . S
C379 O397 1.265 . S
C380 C382 1.380 . S
C380 C383 1.374 . S
C380 C386 1.507 . S
C381 C382 1.384 . S
C381 C385 1.387 . S
C381 H408 0.930 . S
C382 C380 1.380 . S
C382 C381 1.384 . S
C382 H409 0.931 . S
C383 C380 1.374 . S
C383 C384 1.390 . S
C383 H410 0.930 . S
C384 C383 1.390 . S
C384 C385 1.391 . S
C384 H411 0.930 . S
C385 C381 1.387 . S
C385 C384 1.391 . S
C386 Tb376 2.825 . S
C386 C380 1.507 . S
C386 O399 1.238 . S
C386 O400 1.247 . S
O387 Tb376 2.347 . S
O387 C391 1.259 . S
O388 Eu377 2.418 . S
O388 C391 1.265 . S
O389 Eu377 2.384 . S
O389 C398 1.255 . S
O390 Tb376 2.366 . S
O390 C398 1.265 . S
C391 O387 1.259 . S
C391 O388 1.265 . S
O392 Eu377 2.479 . S
O392 C407 1.238 . S
O393 Eu377 2.471 . S
O393 C407 1.247 . S
O394 Eu377 2.347 . S
O394 C378 1.259 . S
O395 Tb376 2.418 . S
O395 C378 1.265 . S
O396 Tb376 2.384 . S
O396 C379 1.255 . S
O397 Eu377 2.366 . S
O397 C379 1.265 . S
C398 O389 1.255 . S
C398 O390 1.265 . S
O399 Tb376 2.479 . S
O399 C386 1.238 . S
O400 Tb376 2.471 . S
O400 C386 1.247 . S
C401 C404 1.380 . S
C401 C405 1.374 . S
C401 C407 1.507 . S
C402 C403 1.387 . S
C402 C406 1.391 . S
C403 C402 1.387 . S
C403 C404 1.384 . S
C403 H412 0.930 . S
C404 C401 1.380 . S
C404 C403 1.384 . S
C404 H413 0.931 . S
C405 C401 1.374 . S
C405 C406 1.390 . S
C405 H414 0.930 . S
C406 C402 1.391 . S
C406 C405 1.390 . S
C406 H415 0.930 . S
C407 Eu377 2.825 . S
C407 O392 1.238 . S
C407 O393 1.247 . S
C407 C401 1.507 . S
H408 C381 0.930 . S
H409 C382 0.931 . S
H410 C383 0.930 . S
H411 C384 0.930 . S
H412 C403 0.930 . S
H413 C404 0.931 . S
H414 C405 0.930 . S
H415 C406 0.930 . S
Tb416 C426 2.791 1_545 S
Tb416 O427 2.371 . S
Tb416 O430 2.357 1_545 S
Tb416 O435 2.414 . S
Tb416 O436 2.415 . S
Tb416 O439 2.442 1_545 S
Tb416 O440 2.447 1_545 S
Eu417 O428 2.418 . S
Eu417 O429 2.384 . S
Eu417 O432 2.479 . S
Eu417 O433 2.471 . S
Eu417 O434 2.347 . S
Eu417 O437 2.366 . S
Eu417 C447 2.825 . S
C418 O434 1.259 . S
C418 O435 1.265 . S
C419 O436 1.255 . S
C419 O437 1.265 . S
C420 C422 1.380 . S
C420 C423 1.374 . S
C420 C426 1.507 . S
C421 C422 1.384 . S
C421 C425 1.387 . S
C421 H448 0.930 . S
C422 C420 1.380 . S
C422 C421 1.384 . S
C422 H449 0.931 . S
C423 C420 1.374 . S
C423 C424 1.390 . S
C423 H450 0.930 . S
C424 C423 1.390 . S
C424 C425 1.391 . S
C424 H451 0.930 . S
C425 C421 1.387 . S
C425 C424 1.391 . S
C426 Tb416 2.791 1_565 S
C426 C420 1.507 . S
C426 O439 1.238 . S
C426 O440 1.247 . S
O427 Tb416 2.371 . S
O427 C431 1.259 . S
O428 Eu417 2.418 . S
O428 C431 1.265 . S
O429 Eu417 2.384 . S
O429 C438 1.255 . S
O430 Tb416 2.357 1_565 S
O430 C438 1.265 1_565 S
C431 O427 1.259 . S
C431 O428 1.265 . S
O432 Eu417 2.479 . S
O432 C447 1.238 . S
O433 Eu417 2.471 . S
O433 C447 1.247 . S
O434 Eu417 2.347 . S
O434 C418 1.259 . S
O435 Tb416 2.414 . S
O435 C418 1.265 . S
O436 Tb416 2.415 . S
O436 C419 1.255 . S
O437 Eu417 2.366 . S
O437 C419 1.265 . S
C438 O429 1.255 . S
C438 O430 1.265 1_545 S
O439 Tb416 2.442 1_565 S
O439 C426 1.238 . S
O440 Tb416 2.447 1_565 S
O440 C426 1.247 . S
C441 C444 1.380 . S
C441 C445 1.374 . S
C441 C447 1.507 . S
C442 C443 1.387 . S
C442 C446 1.391 . S
C443 C442 1.387 . S
C443 C444 1.384 . S
C443 H452 0.930 . S
C444 C441 1.380 . S
C444 C443 1.384 . S
C444 H453 0.931 . S
C445 C441 1.374 . S
C445 C446 1.390 . S
C445 H454 0.930 . S
C446 C442 1.391 . S
C446 C445 1.390 . S
C446 H455 0.930 . S
C447 Eu417 2.825 . S
C447 O432 1.238 . S
C447 O433 1.247 . S
C447 C441 1.507 . S
H448 C421 0.930 . S
H449 C422 0.931 . S
H450 C423 0.930 . S
H451 C424 0.930 . S
H452 C443 0.930 . S
H453 C444 0.931 . S
H454 C445 0.930 . S
H455 C446 0.930 . S
Tb456 C466 2.825 . S
Tb456 O467 2.347 . S
Tb456 O470 2.366 . S
Tb456 O475 2.418 . S
Tb456 O476 2.384 . S
Tb456 O479 2.479 . S
Tb456 O480 2.471 . S
Eu457 O468 2.418 . S
Eu457 O469 2.384 . S
Eu457 O472 2.479 . S
Eu457 O473 2.471 . S
Eu457 O474 2.347 . S
Eu457 O477 2.366 . S
Eu457 C487 2.825 . S
C458 O474 1.259 . S
C458 O475 1.265 . S
C459 O476 1.255 . S
C459 O477 1.265 . S
C460 C462 1.380 . S
C460 C463 1.374 . S
C460 C466 1.507 . S
C461 C462 1.384 . S
C461 C465 1.387 . S
C461 H488 0.930 . S
C462 C460 1.380 . S
C462 C461 1.384 . S
C462 H489 0.931 . S
C463 C460 1.374 . S
C463 C464 1.390 . S
C463 H490 0.930 . S
C464 C463 1.390 . S
C464 C465 1.391 . S
C464 H491 0.930 . S
C465 C461 1.387 . S
C465 C464 1.391 . S
C466 Tb456 2.825 . S
C466 C460 1.507 . S
C466 O479 1.238 . S
C466 O480 1.247 . S
O467 Tb456 2.347 . S
O467 C471 1.259 . S
O468 Eu457 2.418 . S
O468 C471 1.265 . S
O469 Eu457 2.384 . S
O469 C478 1.255 . S
O470 Tb456 2.366 . S
O470 C478 1.265 . S
C471 O467 1.259 . S
C471 O468 1.265 . S
O472 Eu457 2.479 . S
O472 C487 1.238 . S
O473 Eu457 2.471 . S
O473 C487 1.247 . S
O474 Eu457 2.347 . S
O474 C458 1.259 . S
O475 Tb456 2.418 . S
O475 C458 1.265 . S
O476 Tb456 2.384 . S
O476 C459 1.255 . S
O477 Eu457 2.366 . S
O477 C459 1.265 . S
C478 O469 1.255 . S
C478 O470 1.265 . S
O479 Tb456 2.479 . S
O479 C466 1.238 . S
O480 Tb456 2.471 . S
O480 C466 1.247 . S
C481 C484 1.380 . S
C481 C485 1.374 . S
C481 C487 1.507 . S
C482 C483 1.387 . S
C482 C486 1.391 . S
C483 C482 1.387 . S
C483 C484 1.384 . S
C483 H492 0.930 . S
C484 C481 1.380 . S
C484 C483 1.384 . S
C484 H493 0.931 . S
C485 C481 1.374 . S
C485 C486 1.390 . S
C485 H494 0.930 . S
C486 C482 1.391 . S
C486 C485 1.390 . S
C486 H495 0.930 . S
C487 Eu457 2.825 . S
C487 O472 1.238 . S
C487 O473 1.247 . S
C487 C481 1.507 . S
H488 C461 0.930 . S
H489 C462 0.931 . S
H490 C463 0.930 . S
H491 C464 0.930 . S
H492 C483 0.930 . S
H493 C484 0.931 . S
H494 C485 0.930 . S
H495 C486 0.930 . S
Tb496 C506 2.825 . S
Tb496 O507 2.347 . S
Tb496 O510 2.366 . S
Tb496 O515 2.418 . S
Tb496 O516 2.384 1_545 S
Tb496 O519 2.479 . S
Tb496 O520 2.471 . S
Eu497 O508 2.418 . S
Eu497 O509 2.384 . S
Eu497 O512 2.479 . S
Eu497 O513 2.471 . S
Eu497 O514 2.347 . S
Eu497 O517 2.366 . S
Eu497 C527 2.825 . S
C498 O514 1.259 . S
C498 O515 1.265 . S
C499 O516 1.255 . S
C499 O517 1.265 1_565 S
C500 C502 1.380 . S
C500 C503 1.374 1_455 S
C500 C506 1.507 . S
C501 C502 1.384 . S
C501 C505 1.342 1_455 S
C501 H528 0.930 . S
C502 C500 1.380 . S
C502 C501 1.384 . S
C502 H529 0.931 . S
C503 C500 1.374 1_655 S
C503 C504 1.390 . S
C503 H530 0.930 . S
C504 C503 1.390 . S
C504 C505 1.421 . S
C504 H531 0.930 . S
C505 C501 1.342 1_655 S
C505 C504 1.421 . S
C506 Tb496 2.825 . S
C506 C500 1.507 . S
C506 O519 1.238 . S
C506 O520 1.247 . S
O507 Tb496 2.347 . S
O507 C511 1.259 . S
O508 Eu497 2.418 . S
O508 C511 1.265 . S
O509 Eu497 2.384 . S
O509 C518 1.255 . S
O510 Tb496 2.366 . S
O510 C518 1.265 . S
C511 O507 1.259 . S
C511 O508 1.265 . S
O512 Eu497 2.479 . S
O512 C527 1.238 . S
O513 Eu497 2.471 . S
O513 C527 1.247 . S
O514 Eu497 2.347 . S
O514 C498 1.259 . S
O515 Tb496 2.418 . S
O515 C498 1.265 . S
O516 Tb496 2.384 1_565 S
O516 C499 1.255 . S
O517 Eu497 2.366 . S
O517 C499 1.265 1_545 S
C518 O509 1.255 . S
C518 O510 1.265 . S
O519 Tb496 2.479 . S
O519 C506 1.238 . S
O520 Tb496 2.471 . S
O520 C506 1.247 . S
C521 C524 1.380 . S
C521 C525 1.374 . S
C521 C527 1.507 . S
C522 C523 1.387 . S
C522 C526 1.391 . S
C523 C522 1.387 . S
C523 C524 1.384 . S
C523 H532 0.930 . S
C524 C521 1.380 . S
C524 C523 1.384 . S
C524 H533 0.931 . S
C525 C521 1.374 . S
C525 C526 1.390 . S
C525 H534 0.930 . S
C526 C522 1.391 . S
C526 C525 1.390 . S
C526 H535 0.930 . S
C527 Eu497 2.825 . S
C527 O512 1.238 . S
C527 O513 1.247 . S
C527 C521 1.507 . S
H528 C501 0.930 . S
H529 C502 0.931 . S
H530 C503 0.930 . S
H531 C504 0.930 . S
H532 C523 0.930 . S
H533 C524 0.931 . S
H534 C525 0.930 . S
H535 C526 0.930 . S
Tb536 C546 2.825 . S
Tb536 O547 2.347 . S
Tb536 O550 2.366 . S
Tb536 O555 2.418 . S
Tb536 O556 2.384 . S
Tb536 O559 2.479 . S
Tb536 O560 2.471 . S
Eu537 O548 2.418 . S
Eu537 O549 2.384 . S
Eu537 O552 2.479 . S
Eu537 O553 2.471 . S
Eu537 O554 2.347 . S
Eu537 O557 2.366 . S
Eu537 C567 2.825 . S
C538 O554 1.259 . S
C538 O555 1.265 . S
C539 O556 1.255 . S
C539 O557 1.265 . S
C540 C542 1.380 . S
C540 C543 1.374 . S
C540 C546 1.507 . S
C541 C542 1.384 . S
C541 C545 1.387 . S
C541 H568 0.930 . S
C542 C540 1.380 . S
C542 C541 1.384 . S
C542 H569 0.931 . S
C543 C540 1.374 . S
C543 C544 1.390 . S
C543 H570 0.930 . S
C544 C543 1.390 . S
C544 C545 1.391 . S
C544 H571 0.930 . S
C545 C541 1.387 . S
C545 C544 1.391 . S
C546 Tb536 2.825 . S
C546 C540 1.507 . S
C546 O559 1.238 . S
C546 O560 1.247 . S
O547 Tb536 2.347 . S
O547 C551 1.259 . S
O548 Eu537 2.418 . S
O548 C551 1.265 . S
O549 Eu537 2.384 . S
O549 C558 1.255 . S
O550 Tb536 2.366 . S
O550 C558 1.265 . S
C551 O547 1.259 . S
C551 O548 1.265 . S
O552 Eu537 2.479 . S
O552 C567 1.238 . S
O553 Eu537 2.471 . S
O553 C567 1.247 . S
O554 Eu537 2.347 . S
O554 C538 1.259 . S
O555 Tb536 2.418 . S
O555 C538 1.265 . S
O556 Tb536 2.384 . S
O556 C539 1.255 . S
O557 Eu537 2.366 . S
O557 C539 1.265 . S
C558 O549 1.255 . S
C558 O550 1.265 . S
O559 Tb536 2.479 . S
O559 C546 1.238 . S
O560 Tb536 2.471 . S
O560 C546 1.247 . S
C561 C564 1.380 . S
C561 C565 1.374 . S
C561 C567 1.507 . S
C562 C563 1.387 . S
C562 C566 1.391 . S
C563 C562 1.387 . S
C563 C564 1.384 . S
C563 H572 0.930 . S
C564 C561 1.380 . S
C564 C563 1.384 . S
C564 H573 0.931 . S
C565 C561 1.374 . S
C565 C566 1.390 . S
C565 H574 0.930 . S
C566 C562 1.391 . S
C566 C565 1.390 . S
C566 H575 0.930 . S
C567 Eu537 2.825 . S
C567 O552 1.238 . S
C567 O553 1.247 . S
C567 C561 1.507 . S
H568 C541 0.930 . S
H569 C542 0.931 . S
H570 C543 0.930 . S
H571 C544 0.930 . S
H572 C563 0.930 . S
H573 C564 0.931 . S
H574 C565 0.930 . S
H575 C566 0.930 . S
Tb576 C586 2.825 . S
Tb576 O587 2.347 . S
Tb576 O590 2.366 . S
Tb576 O595 2.418 1_545 S
Tb576 O596 2.384 . S
Tb576 O599 2.479 . S
Tb576 O600 2.471 . S
Eu577 O588 2.418 1_556 S
Eu577 O589 2.384 1_556 S
Eu577 O592 2.479 . S
Eu577 O593 2.471 . S
Eu577 O594 2.347 1_556 S
Eu577 O597 2.366 1_556 S
Eu577 C607 2.825 . S
C578 O594 1.259 1_565 S
C578 O595 1.265 . S
C579 O596 1.255 . S
C579 O597 1.264 . S
C580 C582 1.334 1_545 S
C580 C583 1.374 . S
C580 C586 1.507 . S
C581 C582 1.393 . S
C581 C585 1.387 1_565 S
C581 H608 0.930 . S
C582 C580 1.334 1_565 S
C582 C581 1.393 . S
C582 H609 0.970 . S
C583 C580 1.374 . S
C583 C584 1.390 . S
C583 H610 0.930 . S
C584 C583 1.390 . S
C584 C585 1.391 . S
C584 H611 0.930 . S
C585 C581 1.387 1_545 S
C585 C584 1.391 . S
C586 Tb576 2.825 . S
C586 C580 1.507 . S
C586 O599 1.238 . S
C586 O600 1.247 . S
O587 Tb576 2.347 . S
O587 C591 1.259 . S
O588 Eu577 2.418 1_554 S
O588 C591 1.265 . S
O589 Eu577 2.384 1_554 S
O589 C598 1.255 . S
O590 Tb576 2.366 . S
O590 C598 1.265 . S
C591 O587 1.259 . S
C591 O588 1.265 . S
O592 Eu577 2.479 . S
O592 C607 1.238 . S
O593 Eu577 2.471 . S
O593 C607 1.247 . S
O594 Eu577 2.347 1_554 S
O594 C578 1.259 1_545 S
O595 Tb576 2.418 1_565 S
O595 C578 1.265 . S
O596 Tb576 2.384 . S
O596 C579 1.255 . S
O597 Eu577 2.366 1_554 S
O597 C579 1.264 . S
C598 O589 1.255 . S
C598 O590 1.265 . S
O599 Tb576 2.479 . S
O599 C586 1.238 . S
O600 Tb576 2.471 . S
O600 C586 1.247 . S
C601 C604 1.380 . S
C601 C605 1.374 . S
C601 C607 1.507 . S
C602 C603 1.387 . S
C602 C606 1.391 . S
C603 C602 1.387 . S
C603 C604 1.384 . S
C603 H612 0.930 . S
C604 C601 1.380 . S
C604 C603 1.384 . S
C604 H613 0.931 . S
C605 C601 1.374 . S
C605 C606 1.390 . S
C605 H614 0.930 . S
C606 C602 1.391 . S
C606 C605 1.390 . S
C606 H615 0.930 . S
C607 Eu577 2.825 . S
C607 O592 1.238 . S
C607 O593 1.247 . S
C607 C601 1.507 . S
H608 C581 0.930 . S
H609 C582 0.970 . S
H610 C583 0.930 . S
H611 C584 0.930 . S
H612 C603 0.930 . S
H613 C604 0.931 . S
H614 C605 0.930 . S
H615 C606 0.930 . S
Tb616 C626 2.825 . S
Tb616 O627 2.347 . S
Tb616 O630 2.366 . S
Tb616 O635 2.418 . S
Tb616 O636 2.384 . S
Tb616 O639 2.479 . S
Tb616 O640 2.471 . S
Eu617 O628 2.418 . S
Eu617 O629 2.384 . S
Eu617 O632 2.479 . S
Eu617 O633 2.471 . S
Eu617 O634 2.347 . S
Eu617 O637 2.366 . S
Eu617 C647 2.825 . S
C618 O634 1.259 . S
C618 O635 1.265 . S
C619 O636 1.255 . S
C619 O637 1.265 . S
C620 C622 1.380 . S
C620 C623 1.374 . S
C620 C626 1.507 . S
C621 C622 1.384 . S
C621 C625 1.387 . S
C621 H648 0.930 . S
C622 C620 1.380 . S
C622 C621 1.384 . S
C622 H649 0.931 . S
C623 C620 1.374 . S
C623 C624 1.390 . S
C623 H650 0.930 . S
C624 C623 1.390 . S
C624 C625 1.391 . S
C624 H651 0.930 . S
C625 C621 1.387 . S
C625 C624 1.391 . S
C626 Tb616 2.825 . S
C626 C620 1.507 . S
C626 O639 1.238 . S
C626 O640 1.247 . S
O627 Tb616 2.347 . S
O627 C631 1.259 . S
O628 Eu617 2.418 . S
O628 C631 1.265 . S
O629 Eu617 2.384 . S
O629 C638 1.255 . S
O630 Tb616 2.366 . S
O630 C638 1.265 . S
C631 O627 1.259 . S
C631 O628 1.265 . S
O632 Eu617 2.479 . S
O632 C647 1.238 . S
O633 Eu617 2.471 . S
O633 C647 1.247 . S
O634 Eu617 2.347 . S
O634 C618 1.259 . S
O635 Tb616 2.418 . S
O635 C618 1.265 . S
O636 Tb616 2.384 . S
O636 C619 1.255 . S
O637 Eu617 2.366 . S
O637 C619 1.265 . S
C638 O629 1.255 . S
C638 O630 1.265 . S
O639 Tb616 2.479 . S
O639 C626 1.238 . S
O640 Tb616 2.471 . S
O640 C626 1.247 . S
C641 C644 1.380 . S
C641 C645 1.374 . S
C641 C647 1.507 . S
C642 C643 1.387 . S
C642 C646 1.391 . S
C643 C642 1.387 . S
C643 C644 1.384 . S
C643 H652 0.930 . S
C644 C641 1.380 . S
C644 C643 1.384 . S
C644 H653 0.931 . S
C645 C641 1.374 . S
C645 C646 1.390 . S
C645 H654 0.930 . S
C646 C642 1.391 . S
C646 C645 1.390 . S
C646 H655 0.930 . S
C647 Eu617 2.825 . S
C647 O632 1.238 . S
C647 O633 1.247 . S
C647 C641 1.507 . S
H648 C621 0.930 . S
H649 C622 0.931 . S
H650 C623 0.930 . S
H651 C624 0.930 . S
H652 C643 0.930 . S
H653 C644 0.931 . S
H654 C645 0.930 . S
H655 C646 0.930 . S
Tb656 C666 2.825 . S
Tb656 O667 2.347 1_556 S
Tb656 O670 2.366 . S
Tb656 O675 2.418 . S
Tb656 O676 2.384 1_556 S
Tb656 O679 2.479 . S
Tb656 O680 2.471 . S
Eu657 O668 2.418 . S
Eu657 O669 2.384 . S
Eu657 O672 2.479 . S
Eu657 O673 2.471 . S
Eu657 O674 2.347 . S
Eu657 O677 2.366 . S
Eu657 C687 2.825 . S
C658 O674 1.259 . S
C658 O675 1.265 1_554 S
C659 O676 1.255 . S
C659 O677 1.265 . S
C660 C662 1.380 . S
C660 C663 1.374 . S
C660 C666 1.507 . S
C661 C662 1.384 . S
C661 C665 1.387 . S
C661 H688 0.930 . S
C662 C660 1.380 . S
C662 C661 1.384 . S
C662 H689 0.931 . S
C663 C660 1.374 . S
C663 C664 1.390 . S
C663 H690 0.930 . S
C664 C663 1.390 . S
C664 C665 1.391 . S
C664 H691 0.930 . S
C665 C661 1.387 . S
C665 C664 1.391 . S
C666 Tb656 2.825 . S
C666 C660 1.507 . S
C666 O679 1.238 . S
C666 O680 1.247 . S
O667 Tb656 2.347 1_554 S
O667 C671 1.259 . S
O668 Eu657 2.418 . S
O668 C671 1.265 . S
O669 Eu657 2.384 . S
O669 C678 1.255 . S
O670 Tb656 2.366 . S
O670 C678 1.265 1_556 S
C671 O667 1.259 . S
C671 O668 1.265 . S
O672 Eu657 2.479 . S
O672 C687 1.238 . S
O673 Eu657 2.471 . S
O673 C687 1.247 . S
O674 Eu657 2.347 . S
O674 C658 1.259 . S
O675 Tb656 2.418 . S
O675 C658 1.265 1_556 S
O676 Tb656 2.384 1_554 S
O676 C659 1.255 . S
O677 Eu657 2.366 . S
O677 C659 1.265 . S
C678 O669 1.255 . S
C678 O670 1.265 1_554 S
O679 Tb656 2.479 . S
O679 C666 1.238 . S
O680 Tb656 2.471 . S
O680 C666 1.247 . S
C681 C684 1.380 . S
C681 C685 1.374 . S
C681 C687 1.507 . S
C682 C683 1.387 . S
C682 C686 1.391 . S
C683 C682 1.387 . S
C683 C684 1.384 . S
C683 H692 0.930 . S
C684 C681 1.380 . S
C684 C683 1.384 . S
C684 H693 0.931 . S
C685 C681 1.374 . S
C685 C686 1.390 . S
C685 H694 0.930 . S
C686 C682 1.391 . S
C686 C685 1.390 . S
C686 H695 0.930 . S
C687 Eu657 2.825 . S
C687 O672 1.238 . S
C687 O673 1.247 . S
C687 C681 1.507 . S
H688 C661 0.930 . S
H689 C662 0.931 . S
H690 C663 0.930 . S
H691 C664 0.930 . S
H692 C683 0.930 . S
H693 C684 0.931 . S
H694 C685 0.930 . S
H695 C686 0.930 . S
Tb696 C706 2.825 . S
Tb696 O707 2.347 . S
Tb696 O710 2.366 . S
Tb696 O715 2.418 . S
Tb696 O716 2.384 . S
Tb696 O719 2.479 . S
Tb696 O720 2.471 . S
Eu697 O708 2.418 . S
Eu697 O709 2.384 . S
Eu697 O712 2.479 . S
Eu697 O713 2.471 . S
Eu697 O714 2.347 . S
Eu697 O717 2.366 . S
Eu697 C727 2.825 . S
C698 O714 1.259 . S
C698 O715 1.265 . S
C699 O716 1.255 . S
C699 O717 1.265 . S
C700 C702 1.380 . S
C700 C703 1.374 . S
C700 C706 1.507 . S
C701 C702 1.384 . S
C701 C705 1.387 . S
C701 H728 0.930 . S
C702 C700 1.380 . S
C702 C701 1.384 . S
C702 H729 0.931 . S
C703 C700 1.374 . S
C703 C704 1.390 . S
C703 H730 0.930 . S
C704 C703 1.390 . S
C704 C705 1.391 . S
C704 H731 0.930 . S
C705 C701 1.387 . S
C705 C704 1.391 . S
C706 Tb696 2.825 . S
C706 C700 1.507 . S
C706 O719 1.238 . S
C706 O720 1.247 . S
O707 Tb696 2.347 . S
O707 C711 1.259 . S
O708 Eu697 2.418 . S
O708 C711 1.265 . S
O709 Eu697 2.384 . S
O709 C718 1.255 . S
O710 Tb696 2.366 . S
O710 C718 1.265 . S
C711 O707 1.259 . S
C711 O708 1.265 . S
O712 Eu697 2.479 . S
O712 C727 1.238 . S
O713 Eu697 2.471 . S
O713 C727 1.247 . S
O714 Eu697 2.347 . S
O714 C698 1.259 . S
O715 Tb696 2.418 . S
O715 C698 1.265 . S
O716 Tb696 2.384 . S
O716 C699 1.255 . S
O717 Eu697 2.366 . S
O717 C699 1.265 . S
C718 O709 1.255 . S
C718 O710 1.265 . S
O719 Tb696 2.479 . S
O719 C706 1.238 . S
O720 Tb696 2.471 . S
O720 C706 1.247 . S
C721 C724 1.380 . S
C721 C725 1.374 . S
C721 C727 1.507 . S
C722 C723 1.387 . S
C722 C726 1.391 . S
C723 C722 1.387 . S
C723 C724 1.384 . S
C723 H732 0.930 . S
C724 C721 1.380 . S
C724 C723 1.384 . S
C724 H733 0.931 . S
C725 C721 1.374 . S
C725 C726 1.390 . S
C725 H734 0.930 . S
C726 C722 1.391 . S
C726 C725 1.390 . S
C726 H735 0.930 . S
C727 Eu697 2.825 . S
C727 O712 1.238 . S
C727 O713 1.247 . S
C727 C721 1.507 . S
H728 C701 0.930 . S
H729 C702 0.931 . S
H730 C703 0.930 . S
H731 C704 0.930 . S
H732 C723 0.930 . S
H733 C724 0.931 . S
H734 C725 0.930 . S
H735 C726 0.930 . S
Tb736 C746 2.825 . S
Tb736 O747 2.347 . S
Tb736 O750 2.366 . S
Tb736 O755 2.418 . S
Tb736 O756 2.384 . S
Tb736 O759 2.479 . S
Tb736 O760 2.471 . S
Eu737 O748 2.418 . S
Eu737 O749 2.384 . S
Eu737 O752 2.479 . S
Eu737 O753 2.471 . S
Eu737 O754 2.347 . S
Eu737 O757 2.366 . S
Eu737 C767 2.825 . S
C738 O754 1.259 . S
C738 O755 1.265 . S
C739 O756 1.255 . S
C739 O757 1.265 . S
C740 C742 1.380 . S
C740 C743 1.374 . S
C740 C746 1.507 . S
C741 C742 1.384 . S
C741 C745 1.387 . S
C741 H768 0.930 . S
C742 C740 1.380 . S
C742 C741 1.384 . S
C742 H769 0.931 . S
C743 C740 1.374 . S
C743 C744 1.390 . S
C743 H770 0.930 . S
C744 C743 1.390 . S
C744 C745 1.391 . S
C744 H771 0.912 1_455 S
C745 C741 1.387 . S
C745 C744 1.391 . S
C746 Tb736 2.825 . S
C746 C740 1.507 . S
C746 O759 1.238 . S
C746 O760 1.247 . S
O747 Tb736 2.347 . S
O747 C751 1.259 . S
O748 Eu737 2.418 . S
O748 C751 1.265 . S
O749 Eu737 2.384 . S
O749 C758 1.255 . S
O750 Tb736 2.366 . S
O750 C758 1.265 . S
C751 O747 1.259 . S
C751 O748 1.265 . S
O752 Eu737 2.479 . S
O752 C767 1.238 . S
O753 Eu737 2.471 . S
O753 C767 1.247 . S
O754 Eu737 2.347 . S
O754 C738 1.259 . S
O755 Tb736 2.418 . S
O755 C738 1.265 . S
O756 Tb736 2.384 . S
O756 C739 1.255 . S
O757 Eu737 2.366 . S
O757 C739 1.265 . S
C758 O749 1.255 . S
C758 O750 1.265 . S
O759 Tb736 2.479 . S
O759 C746 1.238 . S
O760 Tb736 2.471 . S
O760 C746 1.247 . S
C761 C764 1.380 . S
C761 C765 1.374 . S
C761 C767 1.507 . S
C762 C763 1.387 . S
C762 C766 1.391 . S
C763 C762 1.387 . S
C763 C764 1.384 . S
C763 H772 0.930 . S
C764 C761 1.380 . S
C764 C763 1.384 . S
C764 H773 0.931 . S
C765 C761 1.374 . S
C765 C766 1.390 . S
C765 H774 0.930 . S
C766 C762 1.391 . S
C766 C765 1.390 . S
C766 H775 0.930 . S
C767 Eu737 2.825 . S
C767 O752 1.238 . S
C767 O753 1.247 . S
C767 C761 1.507 . S
H768 C741 0.930 . S
H769 C742 0.931 . S
H770 C743 0.930 . S
H771 C744 0.912 1_655 S
H772 C763 0.930 . S
H773 C764 0.931 . S
H774 C765 0.930 . S
H775 C766 0.930 . S
Tb776 C786 2.825 . S
Tb776 O787 2.347 . S
Tb776 O790 2.366 . S
Tb776 O795 2.418 . S
Tb776 O796 2.384 . S
Tb776 O799 2.479 . S
Tb776 O800 2.471 . S
Eu777 O788 2.418 . S
Eu777 O789 2.384 . S
Eu777 O792 2.479 . S
Eu777 O793 2.471 . S
Eu777 O794 2.347 . S
Eu777 O797 2.366 . S
Eu777 C807 2.825 . S
C778 O794 1.259 . S
C778 O795 1.265 . S
C779 O796 1.255 . S
C779 O797 1.265 . S
C780 C782 1.380 . S
C780 C783 1.374 . S
C780 C786 1.507 . S
C781 C782 1.384 . S
C781 C785 1.387 . S
C781 H808 0.930 . S
C782 C780 1.380 . S
C782 C781 1.384 . S
C782 H809 0.931 . S
C783 C780 1.374 . S
C783 C784 1.390 . S
C783 H810 0.930 . S
C784 C783 1.390 . S
C784 C785 1.391 . S
C784 H811 0.930 . S
C785 C781 1.387 . S
C785 C784 1.391 . S
C786 Tb776 2.825 . S
C786 C780 1.507 . S
C786 O799 1.238 . S
C786 O800 1.247 . S
O787 Tb776 2.347 . S
O787 C791 1.259 . S
O788 Eu777 2.418 . S
O788 C791 1.265 . S
O789 Eu777 2.384 . S
O789 C798 1.255 . S
O790 Tb776 2.366 . S
O790 C798 1.265 . S
C791 O787 1.259 . S
C791 O788 1.265 . S
O792 Eu777 2.479 . S
O792 C807 1.238 . S
O793 Eu777 2.471 . S
O793 C807 1.247 . S
O794 Eu777 2.347 . S
O794 C778 1.259 . S
O795 Tb776 2.418 . S
O795 C778 1.265 . S
O796 Tb776 2.384 . S
O796 C779 1.255 . S
O797 Eu777 2.366 . S
O797 C779 1.265 . S
C798 O789 1.255 . S
C798 O790 1.265 . S
O799 Tb776 2.479 . S
O799 C786 1.238 . S
O800 Tb776 2.471 . S
O800 C786 1.247 . S
C801 C804 1.380 . S
C801 C805 1.374 . S
C801 C807 1.507 . S
C802 C803 1.387 . S
C802 C806 1.391 . S
C803 C802 1.387 . S
C803 C804 1.384 . S
C803 H812 0.930 . S
C804 C801 1.380 . S
C804 C803 1.384 . S
C804 H813 0.931 . S
C805 C801 1.374 . S
C805 C806 1.390 . S
C805 H814 0.930 . S
C806 C802 1.391 . S
C806 C805 1.390 . S
C806 H815 0.930 . S
C807 Eu777 2.825 . S
C807 O792 1.238 . S
C807 O793 1.247 . S
C807 C801 1.507 . S
H808 C781 0.930 . S
H809 C782 0.931 . S
H810 C783 0.930 . S
H811 C784 0.930 . S
H812 C803 0.930 . S
H813 C804 0.931 . S
H814 C805 0.930 . S
H815 C806 0.930 . S
Tb816 C826 2.825 . S
Tb816 O827 2.347 . S
Tb816 O830 2.366 . S
Tb816 O835 2.418 . S
Tb816 O836 2.384 . S
Tb816 O839 2.479 . S
Tb816 O840 2.471 . S
Eu817 O828 2.418 . S
Eu817 O829 2.384 . S
Eu817 O832 2.479 . S
Eu817 O833 2.471 . S
Eu817 O834 2.347 . S
Eu817 O837 2.366 . S
Eu817 C847 2.825 . S
C818 O834 1.259 . S
C818 O835 1.265 . S
C819 O836 1.255 . S
C819 O837 1.265 . S
C820 C822 1.380 . S
C820 C823 1.374 . S
C820 C826 1.507 . S
C821 C822 1.384 . S
C821 C825 1.387 . S
C821 H848 0.930 . S
C822 C820 1.380 . S
C822 C821 1.384 . S
C822 H849 0.931 . S
C823 C820 1.374 . S
C823 C824 1.390 . S
C823 H850 0.930 . S
C824 C823 1.390 . S
C824 C825 1.391 . S
C824 H851 0.930 . S
C825 C821 1.387 . S
C825 C824 1.391 . S
C826 Tb816 2.825 . S
C826 C820 1.507 . S
C826 O839 1.238 . S
C826 O840 1.247 . S
O827 Tb816 2.347 . S
O827 C831 1.259 . S
O828 Eu817 2.418 . S
O828 C831 1.265 . S
O829 Eu817 2.384 . S
O829 C838 1.255 . S
O830 Tb816 2.366 . S
O830 C838 1.265 . S
C831 O827 1.259 . S
C831 O828 1.265 . S
O832 Eu817 2.479 . S
O832 C847 1.238 . S
O833 Eu817 2.471 . S
O833 C847 1.247 . S
O834 Eu817 2.347 . S
O834 C818 1.259 . S
O835 Tb816 2.418 . S
O835 C818 1.265 . S
O836 Tb816 2.384 . S
O836 C819 1.255 . S
O837 Eu817 2.366 . S
O837 C819 1.265 . S
C838 O829 1.255 . S
C838 O830 1.265 . S
O839 Tb816 2.479 . S
O839 C826 1.238 . S
O840 Tb816 2.471 . S
O840 C826 1.247 . S
C841 C844 1.380 . S
C841 C845 1.374 . S
C841 C847 1.507 . S
C842 C843 1.387 . S
C842 C846 1.391 . S
C843 C842 1.387 . S
C843 C844 1.384 . S
C843 H852 0.930 . S
C844 C841 1.380 . S
C844 C843 1.384 . S
C844 H853 0.931 . S
C845 C841 1.374 . S
C845 C846 1.390 . S
C845 H854 0.930 . S
C846 C842 1.391 . S
C846 C845 1.390 . S
C846 H855 0.930 . S
C847 Eu817 2.825 . S
C847 O832 1.238 . S
C847 O833 1.247 . S
C847 C841 1.507 . S
H848 C821 0.930 . S
H849 C822 0.931 . S
H850 C823 0.930 . S
H851 C824 0.930 . S
H852 C843 0.930 . S
H853 C844 0.931 . S
H854 C845 0.930 . S
H855 C846 0.930 . S
Tb856 C866 2.825 . S
Tb856 O867 2.347 . S
Tb856 O870 2.366 . S
Tb856 O875 2.418 . S
Tb856 O876 2.384 . S
Tb856 O879 2.479 . S
Tb856 O880 2.471 . S
Eu857 O868 2.418 . S
Eu857 O869 2.384 . S
Eu857 O872 2.479 . S
Eu857 O873 2.471 . S
Eu857 O874 2.347 . S
Eu857 O877 2.366 . S
Eu857 C887 2.825 . S
C858 O874 1.259 . S
C858 O875 1.265 . S
C859 O876 1.255 . S
C859 O877 1.265 . S
C860 C862 1.380 . S
C860 C863 1.374 . S
C860 C866 1.507 . S
C861 C862 1.384 . S
C861 C865 1.387 . S
C861 H888 0.930 . S
C862 C860 1.380 . S
C862 C861 1.384 . S
C862 H889 0.931 . S
C863 C860 1.374 . S
C863 C864 1.390 . S
C863 H890 0.930 . S
C864 C863 1.390 . S
C864 C865 1.391 . S
C864 H891 0.930 . S
C865 C861 1.387 . S
C865 C864 1.391 . S
C866 Tb856 2.825 . S
C866 C860 1.507 . S
C866 O879 1.238 . S
C866 O880 1.247 . S
O867 Tb856 2.347 . S
O867 C871 1.259 . S
O868 Eu857 2.418 . S
O868 C871 1.265 . S
O869 Eu857 2.384 . S
O869 C878 1.255 . S
O870 Tb856 2.366 . S
O870 C878 1.265 . S
C871 O867 1.259 . S
C871 O868 1.265 . S
O872 Eu857 2.479 . S
O872 C887 1.238 . S
O873 Eu857 2.471 . S
O873 C887 1.247 . S
O874 Eu857 2.347 . S
O874 C858 1.259 . S
O875 Tb856 2.418 . S
O875 C858 1.265 . S
O876 Tb856 2.384 . S
O876 C859 1.255 . S
O877 Eu857 2.366 . S
O877 C859 1.265 . S
C878 O869 1.255 . S
C878 O870 1.265 . S
O879 Tb856 2.479 . S
O879 C866 1.238 . S
O880 Tb856 2.471 . S
O880 C866 1.247 . S
C881 C884 1.380 . S
C881 C885 1.374 . S
C881 C887 1.507 . S
C882 C883 1.387 . S
C882 C886 1.391 . S
C883 C882 1.387 . S
C883 C884 1.384 . S
C883 H892 0.930 . S
C884 C881 1.380 . S
C884 C883 1.384 . S
C884 H893 0.931 . S
C885 C881 1.374 . S
C885 C886 1.390 . S
C885 H894 0.930 . S
C886 C882 1.391 . S
C886 C885 1.390 . S
C886 H895 0.930 . S
C887 Eu857 2.825 . S
C887 O872 1.238 . S
C887 O873 1.247 . S
C887 C881 1.507 . S
H888 C861 0.930 . S
H889 C862 0.931 . S
H890 C863 0.930 . S
H891 C864 0.930 . S
H892 C883 0.930 . S
H893 C884 0.931 . S
H894 C885 0.930 . S
H895 C886 0.930 . S
Tb896 C906 2.825 . S
Tb896 O907 2.347 . S
Tb896 O910 2.366 . S
Tb896 O915 2.418 . S
Tb896 O916 2.384 . S
Tb896 O919 2.479 . S
Tb896 O920 2.471 . S
Eu897 O908 2.418 . S
Eu897 O909 2.384 . S
Eu897 O912 2.479 . S
Eu897 O913 2.471 . S
Eu897 O914 2.347 . S
Eu897 O917 2.366 . S
Eu897 C927 2.825 . S
C898 O914 1.259 . S
C898 O915 1.265 . S
C899 O916 1.255 . S
C899 O917 1.265 . S
C900 C902 1.380 . S
C900 C903 1.374 . S
C900 C906 1.507 . S
C901 C902 1.384 . S
C901 C905 1.387 . S
C901 H928 0.930 . S
C902 C900 1.380 . S
C902 C901 1.384 . S
C902 H929 0.931 . S
C903 C900 1.374 . S
C903 C904 1.390 . S
C903 H930 0.930 . S
C904 C903 1.390 . S
C904 C905 1.391 . S
C904 H931 0.930 . S
C905 C901 1.387 . S
C905 C904 1.391 . S
C906 Tb896 2.825 . S
C906 C900 1.507 . S
C906 O919 1.238 . S
C906 O920 1.247 . S
O907 Tb896 2.347 . S
O907 C911 1.259 . S
O908 Eu897 2.418 . S
O908 C911 1.265 . S
O909 Eu897 2.384 . S
O909 C918 1.255 . S
O910 Tb896 2.366 . S
O910 C918 1.265 . S
C911 O907 1.259 . S
C911 O908 1.265 . S
O912 Eu897 2.479 . S
O912 C927 1.238 . S
O913 Eu897 2.471 . S
O913 C927 1.247 . S
O914 Eu897 2.347 . S
O914 C898 1.259 . S
O915 Tb896 2.418 . S
O915 C898 1.265 . S
O916 Tb896 2.384 . S
O916 C899 1.255 . S
O917 Eu897 2.366 . S
O917 C899 1.265 . S
C918 O909 1.255 . S
C918 O910 1.265 . S
O919 Tb896 2.479 . S
O919 C906 1.238 . S
O920 Tb896 2.471 . S
O920 C906 1.247 . S
C921 C924 1.380 . S
C921 C925 1.374 . S
C921 C927 1.507 . S
C922 C923 1.387 . S
C922 C926 1.391 . S
C923 C922 1.387 . S
C923 C924 1.384 . S
C923 H932 0.930 . S
C924 C921 1.380 . S
C924 C923 1.384 . S
C924 H933 0.931 . S
C925 C921 1.374 . S
C925 C926 1.390 . S
C925 H934 0.930 . S
C926 C922 1.391 . S
C926 C925 1.390 . S
C926 H935 0.930 . S
C927 Eu897 2.825 . S
C927 O912 1.238 . S
C927 O913 1.247 . S
C927 C921 1.507 . S
H928 C901 0.930 . S
H929 C902 0.931 . S
H930 C903 0.930 . S
H931 C904 0.930 . S
H932 C923 0.930 . S
H933 C924 0.931 . S
H934 C925 0.930 . S
H935 C926 0.930 . S
Tb936 C946 2.825 . S
Tb936 O947 2.347 1_554 S
Tb936 O950 2.366 . S
Tb936 O955 2.418 . S
Tb936 O956 2.384 . S
Tb936 O959 2.479 . S
Tb936 O960 2.471 1_554 S
Eu937 O948 2.418 1_554 S
Eu937 O949 2.384 . S
Eu937 O952 2.479 . S
Eu937 O953 2.471 . S
Eu937 O954 2.347 . S
Eu937 O957 2.366 . S
Eu937 C967 2.825 . S
C938 O954 1.259 . S
C938 O955 1.265 . S
C939 O956 1.255 . S
C939 O957 1.265 . S
C940 C942 1.380 1_556 S
C940 C943 1.374 . S
C940 C946 1.507 1_556 S
C941 C942 1.384 1_556 S
C941 C945 1.387 . S
C941 H968 0.930 1_556 S
C942 C940 1.380 1_554 S
C942 C941 1.384 1_554 S
C942 H969 0.931 . S
C943 C940 1.374 . S
C943 C944 1.390 . S
C943 H970 0.930 . S
C944 C943 1.390 . S
C944 C945 1.391 . S
C944 H971 0.930 . S
C945 C941 1.387 . S
C945 C944 1.391 . S
C946 Tb936 2.825 . S
C946 C940 1.507 1_554 S
C946 O959 1.238 . S
C946 O960 1.247 1_554 S
O947 Tb936 2.347 1_556 S
O947 C951 1.259 . S
O948 Eu937 2.418 1_556 S
O948 C951 1.265 . S
O949 Eu937 2.384 . S
O949 C958 1.255 . S
O950 Tb936 2.366 . S
O950 C958 1.265 . S
C951 O947 1.259 . S
C951 O948 1.265 . S
O952 Eu937 2.479 . S
O952 C967 1.238 . S
O953 Eu937 2.471 . S
O953 C967 1.247 . S
O954 Eu937 2.347 . S
O954 C938 1.259 . S
O955 Tb936 2.418 . S
O955 C938 1.265 . S
O956 Tb936 2.384 . S
O956 C939 1.255 . S
O957 Eu937 2.366 . S
O957 C939 1.265 . S
C958 O949 1.255 . S
C958 O950 1.265 . S
O959 Tb936 2.479 . S
O959 C946 1.238 . S
O960 Tb936 2.471 1_556 S
O960 C946 1.247 1_556 S
C961 C964 1.380 . S
C961 C965 1.374 . S
C961 C967 1.507 . S
C962 C963 1.387 . S
C962 C966 1.391 . S
C963 C962 1.387 . S
C963 C964 1.384 . S
C963 H972 0.930 . S
C964 C961 1.380 . S
C964 C963 1.384 . S
C964 H973 0.931 . S
C965 C961 1.374 . S
C965 C966 1.390 . S
C965 H974 0.930 . S
C966 C962 1.391 . S
C966 C965 1.390 . S
C966 H975 0.930 . S
C967 Eu937 2.825 . S
C967 O952 1.238 . S
C967 O953 1.247 . S
C967 C961 1.507 . S
H968 C941 0.930 1_554 S
H969 C942 0.931 . S
H970 C943 0.930 . S
H971 C944 0.930 . S
H972 C963 0.930 . S
H973 C964 0.931 . S
H974 C965 0.930 . S
H975 C966 0.930 . S
H976 C984 0.950 . S
H977 C989 0.950 . S
H978 C986 0.950 . S
H979 C988 0.950 . S
H980 C990 0.950 . S
H981 C992 0.938 1_655 S
H982 C994 0.950 . S
H983 C995 0.950 . S
C984 H976 0.950 . S
C984 C985 1.386 . S
C984 C986 1.391 . S
C985 C984 1.386 . S
C985 C989 1.393 1_455 S
C986 H978 0.950 . S
C986 C984 1.391 . S
C986 C987 1.400 . S
C987 C986 1.400 . S
C987 C988 1.398 1_455 S
C987 C993 1.491 . S
C988 H979 0.950 . S
C988 C987 1.398 1_655 S
C988 C989 1.391 . S
C989 H977 0.950 . S
C989 C985 1.393 1_655 S
C989 C988 1.391 . S
C990 H980 0.950 . S
C990 C991 1.386 1_556 S
C990 C992 1.391 . S
C991 C990 1.386 1_554 S
C991 C995 1.393 . S
C992 H981 0.938 1_455 S
C992 C990 1.391 . S
C992 C993 1.400 . S
C993 C987 1.491 . S
C993 C992 1.400 . S
C993 C994 1.398 . S
C994 H982 0.950 . S
C994 C993 1.398 . S
C994 C995 1.391 1_556 S
C995 H983 0.950 . S
C995 C991 1.393 . S
C995 C994 1.391 1_554 S
H996 C1004 0.950 . S
H997 C1009 0.950 . S
H998 C1006 0.950 . S
H999 C1008 0.950 . S
H1000 C1010 0.950 . S
H1001 C1012 0.950 . S
H1002 C1014 0.950 . S
H1003 C1015 0.950 . S
C1004 H996 0.950 . S
C1004 C1005 1.386 . S
C1004 C1006 1.391 . S
C1005 C1004 1.386 . S
C1005 C1009 1.393 . S
C1006 H998 0.950 . S
C1006 C1004 1.391 . S
C1006 C1007 1.400 . S
C1007 C1006 1.400 . S
C1007 C1008 1.398 . S
C1007 C1013 1.491 . S
C1008 H999 0.950 . S
C1008 C1007 1.398 . S
C1008 C1009 1.391 . S
C1009 H997 0.950 . S
C1009 C1005 1.393 . S
C1009 C1008 1.391 . S
C1010 H1000 0.950 . S
C1010 C1011 1.386 . S
C1010 C1012 1.391 . S
C1011 C1010 1.386 . S
C1011 C1015 1.393 . S
C1012 H1001 0.950 . S
C1012 C1010 1.391 . S
C1012 C1013 1.400 . S
C1013 C1007 1.491 . S
C1013 C1012 1.400 . S
C1013 C1014 1.398 . S
C1014 H1002 0.950 . S
C1014 C1013 1.398 . S
C1014 C1015 1.391 . S
C1015 H1003 0.950 . S
C1015 C1011 1.393 . S
C1015 C1014 1.391 . S
H1016 C1024 0.950 . S
H1017 C1029 0.950 . S
H1018 C1026 0.950 . S
H1019 C1028 0.950 . S
H1020 C1030 0.950 . S
H1021 C1032 0.950 . S
H1022 C1034 0.950 . S
H1023 C1035 0.950 . S
C1024 H1016 0.950 . S
C1024 C1025 1.386 . S
C1024 C1026 1.391 . S
C1025 C1024 1.386 . S
C1025 C1029 1.393 . S
C1026 H1018 0.950 . S
C1026 C1024 1.391 . S
C1026 C1027 1.400 . S
C1027 C1026 1.400 . S
C1027 C1028 1.398 . S
C1027 C1033 1.491 . S
C1028 H1019 0.950 . S
C1028 C1027 1.398 . S
C1028 C1029 1.391 . S
C1029 H1017 0.950 . S
C1029 C1025 1.393 . S
C1029 C1028 1.391 . S
C1030 H1020 0.950 . S
C1030 C1031 1.386 . S
C1030 C1032 1.391 . S
C1031 C1030 1.386 . S
C1031 C1035 1.393 . S
C1032 H1021 0.950 . S
C1032 C1030 1.391 . S
C1032 C1033 1.400 . S
C1033 C1027 1.491 . S
C1033 C1032 1.400 . S
C1033 C1034 1.398 . S
C1034 H1022 0.950 . S
C1034 C1033 1.398 . S
C1034 C1035 1.391 . S
C1035 H1023 0.950 . S
C1035 C1031 1.393 . S
C1035 C1034 1.391 . S
H1036 C1044 0.950 . S
H1037 C1049 0.950 . S
H1038 C1046 0.950 . S
H1039 C1048 0.950 . S
H1040 C1050 0.950 . S
H1041 C1052 0.950 . S
H1042 C1054 0.950 . S
H1043 C1055 0.950 . S
C1044 H1036 0.950 . S
C1044 C1045 1.386 . S
C1044 C1046 1.391 . S
C1045 C1044 1.386 . S
C1045 C1049 1.393 . S
C1046 H1038 0.950 . S
C1046 C1044 1.391 . S
C1046 C1047 1.400 . S
C1047 C1046 1.400 . S
C1047 C1048 1.398 . S
C1047 C1053 1.491 . S
C1048 H1039 0.950 . S
C1048 C1047 1.398 . S
C1048 C1049 1.391 . S
C1049 H1037 0.950 . S
C1049 C1045 1.393 . S
C1049 C1048 1.391 . S
C1050 H1040 0.950 . S
C1050 C1051 1.386 . S
C1050 C1052 1.391 . S
C1051 C1050 1.386 . S
C1051 C1055 1.393 . S
C1052 H1041 0.950 . S
C1052 C1050 1.391 . S
C1052 C1053 1.400 . S
C1053 C1047 1.491 . S
C1053 C1052 1.400 . S
C1053 C1054 1.398 . S
C1054 H1042 0.950 . S
C1054 C1053 1.398 . S
C1054 C1055 1.391 . S
C1055 H1043 0.950 . S
C1055 C1051 1.393 . S
C1055 C1054 1.391 . S
H1056 C1064 0.950 . S
H1057 C1069 0.950 . S
H1058 C1066 0.950 . S
H1059 C1068 0.950 . S
H1060 C1070 0.950 . S
H1061 C1072 0.950 . S
H1062 C1074 0.950 . S
H1063 C1075 0.950 . S
C1064 H1056 0.950 . S
C1064 C1065 1.386 . S
C1064 C1066 1.391 . S
C1065 C1064 1.386 . S
C1065 C1069 1.393 . S
C1066 H1058 0.950 . S
C1066 C1064 1.391 . S
C1066 C1067 1.400 . S
C1067 C1066 1.400 . S
C1067 C1068 1.398 . S
C1067 C1073 1.491 . S
C1068 H1059 0.950 . S
C1068 C1067 1.398 . S
C1068 C1069 1.391 . S
C1069 H1057 0.950 . S
C1069 C1065 1.393 . S
C1069 C1068 1.391 . S
C1070 H1060 0.950 . S
C1070 C1071 1.386 . S
C1070 C1072 1.391 . S
C1071 C1070 1.386 . S
C1071 C1075 1.393 . S
C1072 H1061 0.950 . S
C1072 C1070 1.391 . S
C1072 C1073 1.400 . S
C1073 C1067 1.491 . S
C1073 C1072 1.400 . S
C1073 C1074 1.398 . S
C1074 H1062 0.950 . S
C1074 C1073 1.398 . S
C1074 C1075 1.391 . S
C1075 H1063 0.950 . S
C1075 C1071 1.393 . S
C1075 C1074 1.391 . S
H1076 C1084 0.950 . S
H1077 C1089 0.950 . S
H1078 C1086 0.950 . S
H1079 C1088 0.950 . S
H1080 C1090 0.950 . S
H1081 C1092 0.950 . S
H1082 C1094 0.950 . S
H1083 C1095 0.950 . S
C1084 H1076 0.950 . S
C1084 C1085 1.386 . S
C1084 C1086 1.391 . S
C1085 C1084 1.386 . S
C1085 C1089 1.393 . S
C1086 H1078 0.950 . S
C1086 C1084 1.391 . S
C1086 C1087 1.400 . S
C1087 C1086 1.400 . S
C1087 C1088 1.398 . S
C1087 C1093 1.491 . S
C1088 H1079 0.950 . S
C1088 C1087 1.398 . S
C1088 C1089 1.391 . S
C1089 H1077 0.950 . S
C1089 C1085 1.393 . S
C1089 C1088 1.391 . S
C1090 H1080 0.950 . S
C1090 C1091 1.386 . S
C1090 C1092 1.391 . S
C1091 C1090 1.386 . S
C1091 C1095 1.393 . S
C1092 H1081 0.950 . S
C1092 C1090 1.391 . S
C1092 C1093 1.400 . S
C1093 C1087 1.491 . S
C1093 C1092 1.400 . S
C1093 C1094 1.398 . S
C1094 H1082 0.950 . S
C1094 C1093 1.398 . S
C1094 C1095 1.391 . S
C1095 H1083 0.950 . S
C1095 C1091 1.393 . S
C1095 C1094 1.391 . S
H1096 C1104 0.950 . S
H1097 C1109 0.950 . S
H1098 C1106 0.950 . S
H1099 C1108 0.950 . S
H1100 C1110 0.950 . S
H1101 C1112 0.950 . S
H1102 C1114 0.950 . S
H1103 C1115 0.950 . S
C1104 H1096 0.950 . S
C1104 C1105 1.386 . S
C1104 C1106 1.391 . S
C1105 C1104 1.386 . S
C1105 C1109 1.393 . S
C1106 H1098 0.950 . S
C1106 C1104 1.391 . S
C1106 C1107 1.400 . S
C1107 C1106 1.400 . S
C1107 C1108 1.398 . S
C1107 C1113 1.491 . S
C1108 H1099 0.950 . S
C1108 C1107 1.398 . S
C1108 C1109 1.391 . S
C1109 H1097 0.950 . S
C1109 C1105 1.393 . S
C1109 C1108 1.391 . S
C1110 H1100 0.950 . S
C1110 C1111 1.386 . S
C1110 C1112 1.391 . S
C1111 C1110 1.386 . S
C1111 C1115 1.393 . S
C1112 H1101 0.950 . S
C1112 C1110 1.391 . S
C1112 C1113 1.400 . S
C1113 C1107 1.491 . S
C1113 C1112 1.400 . S
C1113 C1114 1.398 . S
C1114 H1102 0.950 . S
C1114 C1113 1.398 . S
C1114 C1115 1.391 . S
C1115 H1103 0.950 . S
C1115 C1111 1.393 . S
C1115 C1114 1.391 . S
H1116 C1124 0.950 . S
H1117 C1129 0.950 . S
H1118 C1126 0.950 . S
H1119 C1128 0.950 . S
H1120 C1130 0.950 . S
H1121 C1132 0.950 . S
H1122 C1134 0.950 . S
H1123 C1135 0.950 . S
C1124 H1116 0.950 . S
C1124 C1125 1.386 . S
C1124 C1126 1.391 . S
C1125 C1124 1.386 . S
C1125 C1129 1.393 . S
C1126 H1118 0.950 . S
C1126 C1124 1.391 . S
C1126 C1127 1.400 . S
C1127 C1126 1.400 . S
C1127 C1128 1.398 . S
C1127 C1133 1.491 . S
C1128 H1119 0.950 . S
C1128 C1127 1.398 . S
C1128 C1129 1.391 . S
C1129 H1117 0.950 . S
C1129 C1125 1.393 . S
C1129 C1128 1.391 . S
C1130 H1120 0.950 . S
C1130 C1131 1.386 . S
C1130 C1132 1.391 . S
C1131 C1130 1.386 . S
C1131 C1135 1.393 . S
C1132 H1121 0.950 . S
C1132 C1130 1.391 . S
C1132 C1133 1.400 . S
C1133 C1127 1.491 . S
C1133 C1132 1.400 . S
C1133 C1134 1.398 . S
C1134 H1122 0.950 . S
C1134 C1133 1.398 . S
C1134 C1135 1.391 . S
C1135 H1123 0.950 . S
C1135 C1131 1.393 . S
C1135 C1134 1.391 . S
H1136 C1144 0.950 . S
H1137 C1149 0.950 . S
H1138 C1146 0.950 . S
H1139 C1148 0.950 1_565 S
H1140 C1150 0.950 . S
H1141 C1152 0.950 . S
H1142 C1154 0.950 . S
H1143 C1155 0.953 . S
C1144 H1136 0.950 . S
C1144 C1145 1.386 . S
C1144 C1146 1.391 . S
C1145 C1144 1.386 . S
C1145 C1149 1.393 1_545 S
C1146 H1138 0.950 . S
C1146 C1144 1.391 . S
C1146 C1147 1.400 . S
C1147 C1146 1.400 . S
C1147 C1148 1.398 . S
C1147 C1153 1.491 . S
C1148 H1139 0.950 1_545 S
C1148 C1147 1.398 . S
C1148 C1149 1.391 1_545 S
C1149 H1137 0.950 . S
C1149 C1145 1.393 1_565 S
C1149 C1148 1.391 1_565 S
C1150 H1140 0.950 . S
C1150 C1151 1.386 . S
C1150 C1152 1.391 . S
C1151 C1150 1.386 . S
C1151 C1155 1.377 1_455 S
C1152 H1141 0.950 . S
C1152 C1150 1.391 . S
C1152 C1153 1.400 1_455 S
C1153 C1147 1.491 . S
C1153 C1152 1.400 1_655 S
C1153 C1154 1.398 . S
C1154 H1142 0.950 . S
C1154 C1153 1.398 . S
C1154 C1155 1.403 . S
C1155 H1143 0.953 . S
C1155 C1151 1.377 1_655 S
C1155 C1154 1.403 . S
H1156 C1164 0.950 . S
H1157 C1169 0.950 . S
H1158 C1166 0.950 . S
H1159 C1168 0.950 . S
H1160 C1170 0.950 . S
H1161 C1172 0.950 . S
H1162 C1174 0.950 . S
H1163 C1175 0.950 . S
C1164 H1156 0.950 . S
C1164 C1165 1.386 . S
C1164 C1166 1.391 . S
C1165 C1164 1.386 . S
C1165 C1169 1.393 . S
C1166 H1158 0.950 . S
C1166 C1164 1.391 . S
C1166 C1167 1.400 . S
C1167 C1166 1.400 . S
C1167 C1168 1.398 . S
C1167 C1173 1.491 . S
C1168 H1159 0.950 . S
C1168 C1167 1.398 . S
C1168 C1169 1.391 . S
C1169 H1157 0.950 . S
C1169 C1165 1.393 . S
C1169 C1168 1.391 . S
C1170 H1160 0.950 . S
C1170 C1171 1.386 . S
C1170 C1172 1.391 . S
C1171 C1170 1.386 . S
C1171 C1175 1.393 . S
C1172 H1161 0.950 . S
C1172 C1170 1.391 . S
C1172 C1173 1.400 . S
C1173 C1167 1.491 . S
C1173 C1172 1.400 . S
C1173 C1174 1.398 . S
C1174 H1162 0.950 . S
C1174 C1173 1.398 . S
C1174 C1175 1.391 . S
C1175 H1163 0.950 . S
C1175 C1171 1.393 . S
C1175 C1174 1.391 . S
H1176 C1184 0.950 . S
H1177 C1189 0.950 . S
H1178 C1186 0.950 . S
H1179 C1188 0.950 . S
H1180 C1190 0.950 . S
H1181 C1192 0.950 . S
H1182 C1194 0.950 . S
H1183 C1195 0.950 1_565 S
C1184 H1176 0.950 . S
C1184 C1185 1.413 . S
C1184 C1186 1.391 . S
C1185 C1184 1.413 . S
C1185 C1189 1.349 1_565 S
C1186 H1178 0.950 . S
C1186 C1184 1.391 . S
C1186 C1187 1.400 1_565 S
C1187 C1186 1.400 1_545 S
C1187 C1188 1.398 . S
C1187 C1193 1.491 . S
C1188 H1179 0.950 . S
C1188 C1187 1.398 . S
C1188 C1189 1.391 . S
C1189 H1177 0.950 . S
C1189 C1185 1.349 1_545 S
C1189 C1188 1.391 . S
C1190 H1180 0.950 . S
C1190 C1191 1.386 . S
C1190 C1192 1.391 . S
C1191 C1190 1.386 . S
C1191 C1195 1.393 . S
C1192 H1181 0.950 . S
C1192 C1190 1.391 . S
C1192 C1193 1.400 . S
C1193 C1187 1.491 . S
C1193 C1192 1.400 . S
C1193 C1194 1.398 1_545 S
C1194 H1182 0.950 . S
C1194 C1193 1.398 1_565 S
C1194 C1195 1.391 1_565 S
C1195 H1183 0.950 1_545 S
C1195 C1191 1.393 . S
C1195 C1194 1.391 1_545 S
H1196 C1204 0.950 . S
H1197 C1209 0.950 . S
H1198 C1206 0.950 . S
H1199 C1208 0.950 . S
H1200 C1210 0.950 . S
H1201 C1212 0.950 . S
H1202 C1214 0.950 . S
H1203 C1215 0.950 . S
C1204 H1196 0.950 . S
C1204 C1205 1.386 . S
C1204 C1206 1.391 . S
C1205 C1204 1.386 . S
C1205 C1209 1.393 . S
C1206 H1198 0.950 . S
C1206 C1204 1.391 . S
C1206 C1207 1.400 . S
C1207 C1206 1.400 . S
C1207 C1208 1.398 . S
C1207 C1213 1.491 . S
C1208 H1199 0.950 . S
C1208 C1207 1.398 . S
C1208 C1209 1.391 . S
C1209 H1197 0.950 . S
C1209 C1205 1.393 . S
C1209 C1208 1.391 . S
C1210 H1200 0.950 . S
C1210 C1211 1.386 . S
C1210 C1212 1.391 . S
C1211 C1210 1.386 . S
C1211 C1215 1.393 . S
C1212 H1201 0.950 . S
C1212 C1210 1.391 . S
C1212 C1213 1.400 . S
C1213 C1207 1.491 . S
C1213 C1212 1.400 . S
C1213 C1214 1.398 . S
C1214 H1202 0.950 . S
C1214 C1213 1.398 . S
C1214 C1215 1.391 . S
C1215 H1203 0.950 . S
C1215 C1211 1.393 . S
C1215 C1214 1.391 . S
H1216 C1224 0.950 . S
H1217 C1229 0.950 . S
H1218 C1226 0.950 . S
H1219 C1228 0.950 . S
H1220 C1230 0.950 . S
H1221 C1232 0.950 . S
H1222 C1234 0.967 . S
H1223 C1235 0.950 . S
C1224 H1216 0.950 . S
C1224 C1225 1.386 1_565 S
C1224 C1226 1.391 . S
C1225 C1224 1.386 1_545 S
C1225 C1229 1.393 . S
C1226 H1218 0.950 . S
C1226 C1224 1.391 . S
C1226 C1227 1.400 1_565 S
C1227 C1226 1.400 1_545 S
C1227 C1228 1.398 . S
C1227 C1233 1.491 . S
C1228 H1219 0.950 . S
C1228 C1227 1.398 . S
C1228 C1229 1.391 . S
C1229 H1217 0.950 . S
C1229 C1225 1.393 . S
C1229 C1228 1.391 . S
C1230 H1220 0.950 . S
C1230 C1231 1.386 1_455 S
C1230 C1232 1.391 1_455 S
C1231 C1230 1.386 1_655 S
C1231 C1235 1.393 . S
C1232 H1221 0.950 . S
C1232 C1230 1.391 1_655 S
C1232 C1233 1.400 . S
C1233 C1227 1.491 . S
C1233 C1232 1.400 . S
C1233 C1234 1.398 . S
C1234 H1222 0.967 . S
C1234 C1233 1.398 . S
C1234 C1235 1.391 . S
C1235 H1223 0.950 . S
C1235 C1231 1.393 . S
C1235 C1234 1.391 . S
H1236 C1244 0.950 . S
H1237 C1249 0.950 . S
H1238 C1246 0.950 . S
H1239 C1248 0.950 . S
H1240 C1250 0.950 . S
H1241 C1252 0.950 . S
H1242 C1254 0.950 . S
H1243 C1255 0.950 . S
C1244 H1236 0.950 . S
C1244 C1245 1.386 . S
C1244 C1246 1.391 . S
C1245 C1244 1.386 . S
C1245 C1249 1.393 . S
C1246 H1238 0.950 . S
C1246 C1244 1.391 . S
C1246 C1247 1.400 . S
C1247 C1246 1.400 . S
C1247 C1248 1.398 . S
C1247 C1253 1.491 . S
C1248 H1239 0.950 . S
C1248 C1247 1.398 . S
C1248 C1249 1.391 . S
C1249 H1237 0.950 . S
C1249 C1245 1.393 . S
C1249 C1248 1.391 . S
C1250 H1240 0.950 . S
C1250 C1251 1.386 . S
C1250 C1252 1.391 . S
C1251 C1250 1.386 . S
C1251 C1255 1.393 . S
C1252 H1241 0.950 . S
C1252 C1250 1.391 . S
C1252 C1253 1.400 . S
C1253 C1247 1.491 . S
C1253 C1252 1.400 . S
C1253 C1254 1.398 . S
C1254 H1242 0.950 . S
C1254 C1253 1.398 . S
C1254 C1255 1.391 . S
C1255 H1243 0.950 . S
C1255 C1251 1.393 . S
C1255 C1254 1.391 . S
H1256 C1264 0.950 . S
H1257 C1269 0.950 . S
H1258 C1266 0.950 . S
H1259 C1268 0.950 . S
H1260 C1270 0.950 . S
H1261 C1272 0.950 . S
H1262 C1274 0.950 . S
H1263 C1275 0.950 . S
C1264 H1256 0.950 . S
C1264 C1265 1.418 . S
C1264 C1266 1.391 . S
C1265 C1264 1.418 . S
C1265 C1269 1.388 1_545 S
C1266 H1258 0.950 . S
C1266 C1264 1.391 . S
C1266 C1267 1.400 . S
C1267 C1266 1.400 . S
C1267 C1268 1.398 . S
C1267 C1273 1.491 . S
C1268 H1259 0.950 . S
C1268 C1267 1.398 . S
C1268 C1269 1.391 1_545 S
C1269 H1257 0.950 . S
C1269 C1265 1.388 1_565 S
C1269 C1268 1.391 1_565 S
C1270 H1260 0.950 . S
C1270 C1271 1.386 . S
C1270 C1272 1.391 . S
C1271 C1270 1.386 . S
C1271 C1275 1.393 . S
C1272 H1261 0.950 . S
C1272 C1270 1.391 . S
C1272 C1273 1.400 . S
C1273 C1267 1.491 . S
C1273 C1272 1.400 . S
C1273 C1274 1.398 . S
C1274 H1262 0.950 . S
C1274 C1273 1.398 . S
C1274 C1275 1.391 . S
C1275 H1263 0.950 . S
C1275 C1271 1.393 . S
C1275 C1274 1.391 . S
H1276 C1284 0.950 . S
H1277 C1289 0.950 . S
H1278 C1286 0.950 . S
H1279 C1288 0.950 . S
H1280 C1290 0.950 . S
H1281 C1292 0.950 . S
H1282 C1294 0.950 . S
H1283 C1295 0.950 . S
C1284 H1276 0.950 . S
C1284 C1285 1.386 . S
C1284 C1286 1.391 . S
C1285 C1284 1.386 . S
C1285 C1289 1.393 . S
C1286 H1278 0.950 . S
C1286 C1284 1.391 . S
C1286 C1287 1.400 . S
C1287 C1286 1.400 . S
C1287 C1288 1.398 . S
C1287 C1293 1.491 . S
C1288 H1279 0.950 . S
C1288 C1287 1.398 . S
C1288 C1289 1.391 . S
C1289 H1277 0.950 . S
C1289 C1285 1.393 . S
C1289 C1288 1.391 . S
C1290 H1280 0.950 . S
C1290 C1291 1.386 . S
C1290 C1292 1.391 . S
C1291 C1290 1.386 . S
C1291 C1295 1.393 . S
C1292 H1281 0.950 . S
C1292 C1290 1.391 . S
C1292 C1293 1.400 . S
C1293 C1287 1.491 . S
C1293 C1292 1.400 . S
C1293 C1294 1.398 . S
C1294 H1282 0.950 . S
C1294 C1293 1.398 . S
C1294 C1295 1.391 . S
C1295 H1283 0.950 . S
C1295 C1291 1.393 . S
C1295 C1294 1.391 . S
H1296 C1304 0.950 . S
H1297 C1309 0.950 . S
H1298 C1306 0.950 . S
H1299 C1308 0.950 . S
H1300 C1310 0.950 . S
H1301 C1312 0.950 . S
H1302 C1314 0.950 . S
H1303 C1315 0.950 . S
C1304 H1296 0.950 . S
C1304 C1305 1.386 . S
C1304 C1306 1.391 . S
C1305 C1304 1.386 . S
C1305 C1309 1.393 . S
C1306 H1298 0.950 . S
C1306 C1304 1.391 . S
C1306 C1307 1.400 . S
C1307 C1306 1.400 . S
C1307 C1308 1.398 . S
C1307 C1313 1.491 . S
C1308 H1299 0.950 . S
C1308 C1307 1.398 . S
C1308 C1309 1.391 . S
C1309 H1297 0.950 . S
C1309 C1305 1.393 . S
C1309 C1308 1.391 . S
C1310 H1300 0.950 . S
C1310 C1311 1.386 . S
C1310 C1312 1.391 . S
C1311 C1310 1.386 . S
C1311 C1315 1.393 . S
C1312 H1301 0.950 . S
C1312 C1310 1.391 . S
C1312 C1313 1.400 . S
C1313 C1307 1.491 . S
C1313 C1312 1.400 . S
C1313 C1314 1.398 . S
C1314 H1302 0.950 . S
C1314 C1313 1.398 . S
C1314 C1315 1.391 . S
C1315 H1303 0.950 . S
C1315 C1311 1.393 . S
C1315 C1314 1.391 . S
H1316 C1324 0.950 . S
H1317 C1329 0.990 . S
H1318 C1326 0.950 . S
H1319 C1328 0.944 1_556 S
H1320 C1330 0.950 1_556 S
H1321 C1332 0.950 1_556 S
H1322 C1334 0.950 . S
H1323 C1335 0.950 . S
C1324 H1316 0.950 . S
C1324 C1325 1.386 . S
C1324 C1326 1.391 . S
C1325 C1324 1.386 . S
C1325 C1329 1.364 1_554 S
C1326 H1318 0.950 . S
C1326 C1324 1.391 . S
C1326 C1327 1.400 . S
C1327 C1326 1.400 . S
C1327 C1328 1.406 . S
C1327 C1333 1.491 . S
C1328 H1319 0.944 1_554 S
C1328 C1327 1.406 . S
C1328 C1329 1.380 1_554 S
C1329 H1317 0.990 . S
C1329 C1325 1.364 1_556 S
C1329 C1328 1.380 1_556 S
C1330 H1320 0.950 1_554 S
C1330 C1331 1.386 . S
C1330 C1332 1.391 . S
C1331 C1330 1.386 . S
C1331 C1335 1.393 . S
C1332 H1321 0.950 1_554 S
C1332 C1330 1.391 . S
C1332 C1333 1.400 . S
C1333 C1327 1.491 . S
C1333 C1332 1.400 . S
C1333 C1334 1.398 . S
C1334 H1322 0.950 . S
C1334 C1333 1.398 . S
C1334 C1335 1.391 . S
C1335 H1323 0.950 . S
C1335 C1331 1.393 . S
C1335 C1334 1.391 . S
H1336 C1344 0.950 . S
H1337 C1349 0.950 . S
H1338 C1346 0.950 . S
H1339 C1348 0.950 . S
H1340 C1350 0.950 . S
H1341 C1352 0.950 . S
H1342 C1354 0.950 . S
H1343 C1355 0.950 . S
C1344 H1336 0.950 . S
C1344 C1345 1.386 . S
C1344 C1346 1.391 . S
C1345 C1344 1.386 . S
C1345 C1349 1.393 . S
C1346 H1338 0.950 . S
C1346 C1344 1.391 . S
C1346 C1347 1.400 . S
C1347 C1346 1.400 . S
C1347 C1348 1.398 . S
C1347 C1353 1.491 . S
C1348 H1339 0.950 . S
C1348 C1347 1.398 . S
C1348 C1349 1.391 . S
C1349 H1337 0.950 . S
C1349 C1345 1.393 . S
C1349 C1348 1.391 . S
C1350 H1340 0.950 . S
C1350 C1351 1.386 . S
C1350 C1352 1.391 . S
C1351 C1350 1.386 . S
C1351 C1355 1.393 . S
C1352 H1341 0.950 . S
C1352 C1350 1.391 . S
C1352 C1353 1.400 . S
C1353 C1347 1.491 . S
C1353 C1352 1.400 . S
C1353 C1354 1.398 . S
C1354 H1342 0.950 . S
C1354 C1353 1.398 . S
C1354 C1355 1.391 . S
C1355 H1343 0.950 . S
C1355 C1351 1.393 . S
C1355 C1354 1.391 . S
H1356 C1364 0.950 . S
H1357 C1369 0.950 . S
H1358 C1366 0.950 . S
H1359 C1368 0.950 . S
H1360 C1370 0.950 . S
H1361 C1372 0.950 . S
H1362 C1374 0.950 . S
H1363 C1375 0.950 . S
C1364 H1356 0.950 . S
C1364 C1365 1.386 . S
C1364 C1366 1.391 . S
C1365 C1364 1.386 . S
C1365 C1369 1.393 . S
C1366 H1358 0.950 . S
C1366 C1364 1.391 . S
C1366 C1367 1.400 . S
C1367 C1366 1.400 . S
C1367 C1368 1.398 . S
C1367 C1373 1.491 . S
C1368 H1359 0.950 . S
C1368 C1367 1.398 . S
C1368 C1369 1.391 . S
C1369 H1357 0.950 . S
C1369 C1365 1.393 . S
C1369 C1368 1.391 . S
C1370 H1360 0.950 . S
C1370 C1371 1.386 . S
C1370 C1372 1.391 . S
C1371 C1370 1.386 . S
C1371 C1375 1.393 . S
C1372 H1361 0.950 . S
C1372 C1370 1.391 . S
C1372 C1373 1.400 . S
C1373 C1367 1.491 . S
C1373 C1372 1.400 . S
C1373 C1374 1.398 . S
C1374 H1362 0.950 . S
C1374 C1373 1.398 . S
C1374 C1375 1.391 . S
C1375 H1363 0.950 . S
C1375 C1371 1.393 . S
C1375 C1374 1.391 . S
H1376 C1384 0.950 . S
H1377 C1389 0.950 . S
H1378 C1386 0.950 . S
H1379 C1388 0.950 . S
H1380 C1390 0.950 . S
H1381 C1392 0.950 . S
H1382 C1394 0.950 . S
H1383 C1395 0.950 . S
C1384 H1376 0.950 . S
C1384 C1385 1.386 . S
C1384 C1386 1.391 . S
C1385 C1384 1.386 . S
C1385 C1389 1.393 . S
C1386 H1378 0.950 . S
C1386 C1384 1.391 . S
C1386 C1387 1.400 . S
C1387 C1386 1.400 . S
C1387 C1388 1.398 . S
C1387 C1393 1.491 . S
C1388 H1379 0.950 . S
C1388 C1387 1.398 . S
C1388 C1389 1.391 . S
C1389 H1377 0.950 . S
C1389 C1385 1.393 . S
C1389 C1388 1.391 . S
C1390 H1380 0.950 . S
C1390 C1391 1.386 . S
C1390 C1392 1.391 . S
C1391 C1390 1.386 . S
C1391 C1395 1.393 . S
C1392 H1381 0.950 . S
C1392 C1390 1.391 . S
C1392 C1393 1.400 . S
C1393 C1387 1.491 . S
C1393 C1392 1.400 . S
C1393 C1394 1.398 . S
C1394 H1382 0.950 . S
C1394 C1393 1.398 . S
C1394 C1395 1.391 . S
C1395 H1383 0.950 . S
C1395 C1391 1.393 . S
C1395 C1394 1.391 . S
H1396 C1404 0.950 . S
H1397 C1409 0.950 . S
H1398 C1406 0.950 . S
H1399 C1408 0.950 . S
H1400 C1410 0.950 . S
H1401 C1412 0.950 . S
H1402 C1414 0.950 . S
H1403 C1415 0.950 . S
C1404 H1396 0.950 . S
C1404 C1405 1.386 . S
C1404 C1406 1.391 . S
C1405 C1404 1.386 . S
C1405 C1409 1.393 . S
C1406 H1398 0.950 . S
C1406 C1404 1.391 . S
C1406 C1407 1.400 . S
C1407 C1406 1.400 . S
C1407 C1408 1.398 . S
C1407 C1413 1.491 . S
C1408 H1399 0.950 . S
C1408 C1407 1.398 . S
C1408 C1409 1.391 . S
C1409 H1397 0.950 . S
C1409 C1405 1.393 . S
C1409 C1408 1.391 . S
C1410 H1400 0.950 . S
C1410 C1411 1.386 . S
C1410 C1412 1.391 . S
C1411 C1410 1.386 . S
C1411 C1415 1.393 . S
C1412 H1401 0.950 . S
C1412 C1410 1.391 . S
C1412 C1413 1.400 . S
C1413 C1407 1.491 . S
C1413 C1412 1.400 . S
C1413 C1414 1.398 . S
C1414 H1402 0.950 . S
C1414 C1413 1.398 . S
C1414 C1415 1.391 . S
C1415 H1403 0.950 . S
C1415 C1411 1.393 . S
C1415 C1414 1.391 . S
H1416 C1424 0.950 . S
H1417 C1429 0.950 . S
H1418 C1426 0.950 . S
H1419 C1428 0.950 . S
H1420 C1430 0.950 . S
H1421 C1432 0.950 . S
H1422 C1434 0.950 . S
H1423 C1435 0.950 . S
C1424 H1416 0.950 . S
C1424 C1425 1.386 . S
C1424 C1426 1.391 . S
C1425 C1424 1.386 . S
C1425 C1429 1.393 . S
C1426 H1418 0.950 . S
C1426 C1424 1.391 . S
C1426 C1427 1.400 . S
C1427 C1426 1.400 . S
C1427 C1428 1.398 . S
C1427 C1433 1.491 . S
C1428 H1419 0.950 . S
C1428 C1427 1.398 . S
C1428 C1429 1.391 . S
C1429 H1417 0.950 . S
C1429 C1425 1.393 . S
C1429 C1428 1.391 . S
C1430 H1420 0.950 . S
C1430 C1431 1.386 . S
C1430 C1432 1.391 . S
C1431 C1430 1.386 . S
C1431 C1435 1.393 . S
C1432 H1421 0.950 . S
C1432 C1430 1.391 . S
C1432 C1433 1.400 . S
C1433 C1427 1.491 . S
C1433 C1432 1.400 . S
C1433 C1434 1.398 . S
C1434 H1422 0.950 . S
C1434 C1433 1.398 . S
C1434 C1435 1.391 . S
C1435 H1423 0.950 . S
C1435 C1431 1.393 . S
C1435 C1434 1.391 . S
H1436 C1444 0.950 . S
H1437 C1449 0.950 . S
H1438 C1446 0.950 . S
H1439 C1448 0.950 . S
H1440 C1450 0.950 . S
H1441 C1452 0.950 . S
H1442 C1454 0.950 . S
H1443 C1455 0.950 . S
C1444 H1436 0.950 . S
C1444 C1445 1.386 . S
C1444 C1446 1.391 . S
C1445 C1444 1.386 . S
C1445 C1449 1.393 . S
C1446 H1438 0.950 . S
C1446 C1444 1.391 . S
C1446 C1447 1.400 . S
C1447 C1446 1.400 . S
C1447 C1448 1.398 . S
C1447 C1453 1.491 . S
C1448 H1439 0.950 . S
C1448 C1447 1.398 . S
C1448 C1449 1.391 . S
C1449 H1437 0.950 . S
C1449 C1445 1.393 . S
C1449 C1448 1.391 . S
C1450 H1440 0.950 . S
C1450 C1451 1.386 . S
C1450 C1452 1.391 . S
C1451 C1450 1.386 . S
C1451 C1455 1.393 . S
C1452 H1441 0.950 . S
C1452 C1450 1.391 . S
C1452 C1453 1.400 . S
C1453 C1447 1.491 . S
C1453 C1452 1.400 . S
C1453 C1454 1.398 . S
C1454 H1442 0.950 . S
C1454 C1453 1.398 . S
C1454 C1455 1.391 . S
C1455 H1443 0.950 . S
C1455 C1451 1.393 . S
C1455 C1454 1.391 . S
H1456 C1464 0.950 . S
H1457 C1469 0.950 . S
H1458 C1466 0.950 . S
H1459 C1468 0.950 . S
H1460 C1470 0.950 . S
H1461 C1472 0.950 . S
H1462 C1474 0.950 . S
H1463 C1475 0.950 . S
C1464 H1456 0.950 . S
C1464 C1465 1.386 . S
C1464 C1466 1.391 . S
C1465 C1464 1.386 . S
C1465 C1469 1.393 . S
C1466 H1458 0.950 . S
C1466 C1464 1.391 . S
C1466 C1467 1.400 . S
C1467 C1466 1.400 . S
C1467 C1468 1.398 . S
C1467 C1473 1.491 . S
C1468 H1459 0.950 . S
C1468 C1467 1.398 . S
C1468 C1469 1.391 . S
C1469 H1457 0.950 . S
C1469 C1465 1.393 . S
C1469 C1468 1.391 . S
C1470 H1460 0.950 . S
C1470 C1471 1.386 . S
C1470 C1472 1.391 . S
C1471 C1470 1.386 . S
C1471 C1475 1.393 . S
C1472 H1461 0.950 . S
C1472 C1470 1.391 . S
C1472 C1473 1.400 . S
C1473 C1467 1.491 . S
C1473 C1472 1.400 . S
C1473 C1474 1.398 . S
C1474 H1462 0.950 . S
C1474 C1473 1.398 . S
C1474 C1475 1.391 . S
C1475 H1463 0.950 . S
C1475 C1471 1.393 . S
C1475 C1474 1.391 . S
H1476 C1484 0.950 . S
H1477 C1489 0.950 . S
H1478 C1486 0.950 . S
H1479 C1488 0.950 . S
H1480 C1490 0.950 . S
H1481 C1492 0.950 . S
H1482 C1494 0.950 . S
H1483 C1495 0.950 . S
C1484 H1476 0.950 . S
C1484 C1485 1.386 . S
C1484 C1486 1.391 . S
C1485 C1484 1.386 . S
C1485 C1489 1.393 . S
C1486 H1478 0.950 . S
C1486 C1484 1.391 . S
C1486 C1487 1.400 . S
C1487 C1486 1.400 . S
C1487 C1488 1.398 . S
C1487 C1493 1.491 . S
C1488 H1479 0.950 . S
C1488 C1487 1.398 . S
C1488 C1489 1.391 . S
C1489 H1477 0.950 . S
C1489 C1485 1.393 . S
C1489 C1488 1.391 . S
C1490 H1480 0.950 . S
C1490 C1491 1.386 . S
C1490 C1492 1.391 . S
C1491 C1490 1.386 . S
C1491 C1495 1.393 . S
C1492 H1481 0.950 . S
C1492 C1490 1.391 . S
C1492 C1493 1.400 . S
C1493 C1487 1.491 . S
C1493 C1492 1.400 . S
C1493 C1494 1.398 . S
C1494 H1482 0.950 . S
C1494 C1493 1.398 . S
C1494 C1495 1.391 . S
C1495 H1483 0.950 . S
C1495 C1491 1.393 . S
C1495 C1494 1.391 . S
H1496 C1504 0.950 . S
H1497 C1509 0.950 . S
H1498 C1506 0.950 . S
H1499 C1508 0.950 . S
H1500 C1510 0.950 . S
H1501 C1512 0.950 . S
H1502 C1514 0.950 . S
H1503 C1515 0.950 . S
C1504 H1496 0.950 . S
C1504 C1505 1.386 . S
C1504 C1506 1.391 . S
C1505 C1504 1.386 . S
C1505 C1509 1.393 . S
C1506 H1498 0.950 . S
C1506 C1504 1.391 . S
C1506 C1507 1.400 . S
C1507 C1506 1.400 . S
C1507 C1508 1.398 . S
C1507 C1513 1.491 . S
C1508 H1499 0.950 . S
C1508 C1507 1.398 . S
C1508 C1509 1.391 . S
C1509 H1497 0.950 . S
C1509 C1505 1.393 . S
C1509 C1508 1.391 . S
C1510 H1500 0.950 . S
C1510 C1511 1.386 . S
C1510 C1512 1.391 . S
C1511 C1510 1.386 . S
C1511 C1515 1.393 . S
C1512 H1501 0.950 . S
C1512 C1510 1.391 . S
C1512 C1513 1.400 . S
C1513 C1507 1.491 . S
C1513 C1512 1.400 . S
C1513 C1514 1.398 . S
C1514 H1502 0.950 . S
C1514 C1513 1.398 . S
C1514 C1515 1.391 . S
C1515 H1503 0.950 . S
C1515 C1511 1.393 . S
C1515 C1514 1.391 . S
H1516 C1524 0.950 . S
H1517 C1529 0.950 . S
H1518 C1526 0.950 . S
H1519 C1528 0.950 . S
H1520 C1530 0.950 . S
H1521 C1532 0.950 . S
H1522 C1534 0.950 . S
H1523 C1535 0.950 . S
C1524 H1516 0.950 . S
C1524 C1525 1.386 . S
C1524 C1526 1.391 . S
C1525 C1524 1.386 . S
C1525 C1529 1.393 . S
C1526 H1518 0.950 . S
C1526 C1524 1.391 . S
C1526 C1527 1.400 . S
C1527 C1526 1.400 . S
C1527 C1528 1.398 . S
C1527 C1533 1.491 . S
C1528 H1519 0.950 . S
C1528 C1527 1.398 . S
C1528 C1529 1.391 . S
C1529 H1517 0.950 . S
C1529 C1525 1.393 . S
C1529 C1528 1.391 . S
C1530 H1520 0.950 . S
C1530 C1531 1.386 . S
C1530 C1532 1.391 . S
C1531 C1530 1.386 . S
C1531 C1535 1.393 . S
C1532 H1521 0.950 . S
C1532 C1530 1.391 . S
C1532 C1533 1.400 . S
C1533 C1527 1.491 . S
C1533 C1532 1.400 . S
C1533 C1534 1.398 . S
C1534 H1522 0.950 . S
C1534 C1533 1.398 . S
C1534 C1535 1.391 . S
C1535 H1523 0.950 . S
C1535 C1531 1.393 . S
C1535 C1534 1.391 . S
H1536 C1544 0.950 . S
H1537 C1549 0.950 . S
H1538 C1546 0.950 . S
H1539 C1548 0.950 . S
H1540 C1550 0.950 . S
H1541 C1552 0.950 . S
H1542 C1554 0.950 . S
H1543 C1555 0.950 . S
C1544 H1536 0.950 . S
C1544 C1545 1.386 . S
C1544 C1546 1.391 . S
C1545 C1544 1.386 . S
C1545 C1549 1.393 . S
C1546 H1538 0.950 . S
C1546 C1544 1.391 . S
C1546 C1547 1.400 . S
C1547 C1546 1.400 . S
C1547 C1548 1.398 . S
C1547 C1553 1.491 . S
C1548 H1539 0.950 . S
C1548 C1547 1.398 . S
C1548 C1549 1.391 . S
C1549 H1537 0.950 . S
C1549 C1545 1.393 . S
C1549 C1548 1.391 . S
C1550 H1540 0.950 . S
C1550 C1551 1.386 . S
C1550 C1552 1.391 . S
C1551 C1550 1.386 . S
C1551 C1555 1.393 . S
C1552 H1541 0.950 . S
C1552 C1550 1.391 . S
C1552 C1553 1.400 . S
C1553 C1547 1.491 . S
C1553 C1552 1.400 . S
C1553 C1554 1.398 . S
C1554 H1542 0.950 . S
C1554 C1553 1.398 . S
C1554 C1555 1.391 . S
C1555 H1543 0.950 . S
C1555 C1551 1.393 . S
C1555 C1554 1.391 . S
H1556 C1564 0.950 . S
H1557 C1569 0.950 . S
H1558 C1566 0.950 . S
H1559 C1568 0.950 . S
H1560 C1570 0.950 . S
H1561 C1572 0.950 . S
H1562 C1574 0.950 . S
H1563 C1575 0.950 . S
C1564 H1556 0.950 . S
C1564 C1565 1.386 . S
C1564 C1566 1.391 . S
C1565 C1564 1.386 . S
C1565 C1569 1.393 . S
C1566 H1558 0.950 . S
C1566 C1564 1.391 . S
C1566 C1567 1.400 . S
C1567 C1566 1.400 . S
C1567 C1568 1.398 . S
C1567 C1573 1.491 . S
C1568 H1559 0.950 . S
C1568 C1567 1.398 . S
C1568 C1569 1.391 . S
C1569 H1557 0.950 . S
C1569 C1565 1.393 . S
C1569 C1568 1.391 . S
C1570 H1560 0.950 . S
C1570 C1571 1.386 . S
C1570 C1572 1.391 . S
C1571 C1570 1.386 . S
C1571 C1575 1.393 . S
C1572 H1561 0.950 . S
C1572 C1570 1.391 . S
C1572 C1573 1.400 . S
C1573 C1567 1.491 . S
C1573 C1572 1.400 . S
C1573 C1574 1.398 . S
C1574 H1562 0.950 . S
C1574 C1573 1.398 . S
C1574 C1575 1.391 . S
C1575 H1563 0.950 . S
C1575 C1571 1.393 . S
C1575 C1574 1.391 . S
H1576 C1584 0.950 . S
H1577 C1589 0.950 . S
H1578 C1586 0.950 . S
H1579 C1588 0.950 . S
H1580 C1590 0.950 . S
H1581 C1592 0.950 . S
H1582 C1594 0.950 . S
H1583 C1595 0.976 . S
C1584 H1576 0.950 . S
C1584 C1585 1.386 . S
C1584 C1586 1.391 . S
C1585 C1584 1.386 . S
C1585 C1589 1.393 . S
C1586 H1578 0.950 . S
C1586 C1584 1.391 . S
C1586 C1587 1.400 . S
C1587 C1586 1.400 . S
C1587 C1588 1.398 . S
C1587 C1593 1.491 . S
C1588 H1579 0.950 . S
C1588 C1587 1.398 . S
C1588 C1589 1.391 . S
C1589 H1577 0.950 . S
C1589 C1585 1.393 . S
C1589 C1588 1.391 . S
C1590 H1580 0.950 . S
C1590 C1591 1.386 . S
C1590 C1592 1.391 . S
C1591 C1590 1.386 . S
C1591 C1595 1.379 1_556 S
C1592 H1581 0.950 . S
C1592 C1590 1.391 . S
C1592 C1593 1.400 . S
C1593 C1587 1.491 . S
C1593 C1592 1.400 . S
C1593 C1594 1.398 . S
C1594 H1582 0.950 . S
C1594 C1593 1.398 . S
C1594 C1595 1.379 1_556 S
C1595 H1583 0.976 . S
C1595 C1591 1.379 1_554 S
C1595 C1594 1.379 1_554 S
H1596 C1604 0.950 . S
H1597 C1609 0.950 . S
H1598 C1606 0.950 . S
H1599 C1608 0.950 . S
H1600 C1610 0.950 . S
H1601 C1612 0.950 . S
H1602 C1614 0.950 . S
H1603 C1615 0.950 . S
C1604 H1596 0.950 . S
C1604 C1605 1.386 . S
C1604 C1606 1.391 . S
C1605 C1604 1.386 . S
C1605 C1609 1.393 . S
C1606 H1598 0.950 . S
C1606 C1604 1.391 . S
C1606 C1607 1.400 . S
C1607 C1606 1.400 . S
C1607 C1608 1.398 . S
C1607 C1613 1.491 . S
C1608 H1599 0.950 . S
C1608 C1607 1.398 . S
C1608 C1609 1.391 . S
C1609 H1597 0.950 . S
C1609 C1605 1.393 . S
C1609 C1608 1.391 . S
C1610 H1600 0.950 . S
C1610 C1611 1.386 . S
C1610 C1612 1.391 . S
C1611 C1610 1.386 . S
C1611 C1615 1.393 . S
C1612 H1601 0.950 . S
C1612 C1610 1.391 . S
C1612 C1613 1.400 . S
C1613 C1607 1.491 . S
C1613 C1612 1.400 . S
C1613 C1614 1.398 . S
C1614 H1602 0.950 . S
C1614 C1613 1.398 . S
C1614 C1615 1.391 . S
C1615 H1603 0.950 . S
C1615 C1611 1.393 . S
C1615 C1614 1.391 . S
H1616 C1624 0.950 . S
H1617 C1629 0.950 . S
H1618 C1626 0.950 . S
H1619 C1628 0.950 . S
H1620 C1630 0.950 . S
H1621 C1632 0.950 . S
H1622 C1634 0.950 . S
H1623 C1635 0.950 . S
C1624 H1616 0.950 . S
C1624 C1625 1.386 . S
C1624 C1626 1.391 . S
C1625 C1624 1.386 . S
C1625 C1629 1.393 . S
C1626 H1618 0.950 . S
C1626 C1624 1.391 . S
C1626 C1627 1.400 . S
C1627 C1626 1.400 . S
C1627 C1628 1.398 . S
C1627 C1633 1.491 . S
C1628 H1619 0.950 . S
C1628 C1627 1.398 . S
C1628 C1629 1.391 . S
C1629 H1617 0.950 . S
C1629 C1625 1.393 . S
C1629 C1628 1.391 . S
C1630 H1620 0.950 . S
C1630 C1631 1.386 . S
C1630 C1632 1.391 . S
C1631 C1630 1.386 . S
C1631 C1635 1.393 . S
C1632 H1621 0.950 . S
C1632 C1630 1.391 . S
C1632 C1633 1.400 . S
C1633 C1627 1.491 . S
C1633 C1632 1.400 . S
C1633 C1634 1.398 . S
C1634 H1622 0.950 . S
C1634 C1633 1.398 . S
C1634 C1635 1.391 . S
C1635 H1623 0.950 . S
C1635 C1631 1.393 . S
C1635 C1634 1.391 . S
H1636 C1644 0.950 . S
H1637 C1649 0.950 . S
H1638 C1646 0.950 . S
H1639 C1648 0.950 . S
H1640 C1650 0.950 . S
H1641 C1652 0.950 . S
H1642 C1654 0.950 . S
H1643 C1655 0.950 . S
C1644 H1636 0.950 . S
C1644 C1645 1.386 . S
C1644 C1646 1.391 . S
C1645 C1644 1.386 . S
C1645 C1649 1.393 . S
C1646 H1638 0.950 . S
C1646 C1644 1.391 . S
C1646 C1647 1.400 . S
C1647 C1646 1.400 . S
C1647 C1648 1.398 . S
C1647 C1653 1.491 . S
C1648 H1639 0.950 . S
C1648 C1647 1.398 . S
C1648 C1649 1.391 . S
C1649 H1637 0.950 . S
C1649 C1645 1.393 . S
C1649 C1648 1.391 . S
C1650 H1640 0.950 . S
C1650 C1651 1.386 . S
C1650 C1652 1.391 . S
C1651 C1650 1.386 . S
C1651 C1655 1.393 . S
C1652 H1641 0.950 . S
C1652 C1650 1.391 . S
C1652 C1653 1.400 . S
C1653 C1647 1.491 . S
C1653 C1652 1.400 . S
C1653 C1654 1.398 . S
C1654 H1642 0.950 . S
C1654 C1653 1.398 . S
C1654 C1655 1.391 . S
C1655 H1643 0.950 . S
C1655 C1651 1.393 . S
C1655 C1654 1.391 . S
H1656 C1664 0.950 . S
H1657 C1669 0.950 . S
H1658 C1666 0.950 . S
H1659 C1668 0.950 . S
H1660 C1670 0.950 . S
H1661 C1672 0.950 . S
H1662 C1674 0.950 . S
H1663 C1675 0.950 . S
C1664 H1656 0.950 . S
C1664 C1665 1.386 . S
C1664 C1666 1.391 . S
C1665 C1664 1.386 . S
C1665 C1669 1.393 . S
C1666 H1658 0.950 . S
C1666 C1664 1.391 . S
C1666 C1667 1.400 . S
C1667 C1666 1.400 . S
C1667 C1668 1.398 . S
C1667 C1673 1.491 . S
C1668 H1659 0.950 . S
C1668 C1667 1.398 . S
C1668 C1669 1.391 . S
C1669 H1657 0.950 . S
C1669 C1665 1.393 . S
C1669 C1668 1.391 . S
C1670 H1660 0.950 . S
C1670 C1671 1.386 . S
C1670 C1672 1.391 . S
C1671 C1670 1.386 . S
C1671 C1675 1.393 . S
C1672 H1661 0.950 . S
C1672 C1670 1.391 . S
C1672 C1673 1.400 . S
C1673 C1667 1.491 . S
C1673 C1672 1.400 . S
C1673 C1674 1.398 . S
C1674 H1662 0.950 . S
C1674 C1673 1.398 . S
C1674 C1675 1.391 . S
C1675 H1663 0.950 . S
C1675 C1671 1.393 . S
C1675 C1674 1.391 . S
H1676 C1684 0.950 . S
H1677 C1689 0.950 . S
H1678 C1686 0.950 . S
H1679 C1688 0.950 . S
H1680 C1690 0.950 . S
H1681 C1692 0.950 . S
H1682 C1694 0.950 . S
H1683 C1695 0.950 . S
C1684 H1676 0.950 . S
C1684 C1685 1.386 . S
C1684 C1686 1.391 . S
C1685 C1684 1.386 . S
C1685 C1689 1.393 . S
C1686 H1678 0.950 . S
C1686 C1684 1.391 . S
C1686 C1687 1.400 . S
C1687 C1686 1.400 . S
C1687 C1688 1.398 . S
C1687 C1693 1.491 . S
C1688 H1679 0.950 . S
C1688 C1687 1.398 . S
C1688 C1689 1.391 . S
C1689 H1677 0.950 . S
C1689 C1685 1.393 . S
C1689 C1688 1.391 . S
C1690 H1680 0.950 . S
C1690 C1691 1.386 . S
C1690 C1692 1.391 . S
C1691 C1690 1.386 . S
C1691 C1695 1.393 . S
C1692 H1681 0.950 . S
C1692 C1690 1.391 . S
C1692 C1693 1.400 . S
C1693 C1687 1.491 . S
C1693 C1692 1.400 . S
C1693 C1694 1.398 . S
C1694 H1682 0.950 . S
C1694 C1693 1.398 . S
C1694 C1695 1.391 . S
C1695 H1683 0.950 . S
C1695 C1691 1.393 . S
C1695 C1694 1.391 . S
H1696 C1704 0.950 . S
H1697 C1709 0.950 . S
H1698 C1706 0.950 . S
H1699 C1708 0.950 . S
H1700 C1710 0.950 . S
H1701 C1712 0.950 . S
H1702 C1714 0.950 . S
H1703 C1715 0.950 . S
C1704 H1696 0.950 . S
C1704 C1705 1.386 . S
C1704 C1706 1.391 . S
C1705 C1704 1.386 . S
C1705 C1709 1.393 . S
C1706 H1698 0.950 . S
C1706 C1704 1.391 . S
C1706 C1707 1.400 . S
C1707 C1706 1.400 . S
C1707 C1708 1.398 . S
C1707 C1713 1.491 . S
C1708 H1699 0.950 . S
C1708 C1707 1.398 . S
C1708 C1709 1.391 . S
C1709 H1697 0.950 . S
C1709 C1705 1.393 . S
C1709 C1708 1.391 . S
C1710 H1700 0.950 . S
C1710 C1711 1.386 . S
C1710 C1712 1.391 . S
C1711 C1710 1.386 . S
C1711 C1715 1.393 . S
C1712 H1701 0.950 . S
C1712 C1710 1.391 . S
C1712 C1713 1.400 . S
C1713 C1707 1.491 . S
C1713 C1712 1.400 . S
C1713 C1714 1.398 . S
C1714 H1702 0.950 . S
C1714 C1713 1.398 . S
C1714 C1715 1.391 . S
C1715 H1703 0.950 . S
C1715 C1711 1.393 . S
C1715 C1714 1.391 . S
H1716 C1724 0.950 . S
H1717 C1729 0.950 . S
H1718 C1726 0.950 . S
H1719 C1728 0.950 . S
H1720 C1730 0.950 . S
H1721 C1732 0.950 . S
H1722 C1734 0.950 . S
H1723 C1735 0.950 . S
C1724 H1716 0.950 . S
C1724 C1725 1.386 . S
C1724 C1726 1.391 . S
C1725 C1724 1.386 . S
C1725 C1729 1.393 . S
C1726 H1718 0.950 . S
C1726 C1724 1.391 . S
C1726 C1727 1.400 . S
C1727 C1726 1.400 . S
C1727 C1728 1.398 . S
C1727 C1733 1.491 . S
C1728 H1719 0.950 . S
C1728 C1727 1.398 . S
C1728 C1729 1.391 . S
C1729 H1717 0.950 . S
C1729 C1725 1.393 . S
C1729 C1728 1.391 . S
C1730 H1720 0.950 . S
C1730 C1731 1.386 . S
C1730 C1732 1.391 . S
C1731 C1730 1.386 . S
C1731 C1735 1.393 . S
C1732 H1721 0.950 . S
C1732 C1730 1.391 . S
C1732 C1733 1.400 . S
C1733 C1727 1.491 . S
C1733 C1732 1.400 . S
C1733 C1734 1.398 . S
C1734 H1722 0.950 . S
C1734 C1733 1.398 . S
C1734 C1735 1.391 . S
C1735 H1723 0.950 . S
C1735 C1731 1.393 . S
C1735 C1734 1.391 . S
H1736 C1744 0.950 . S
H1737 C1749 0.950 . S
H1738 C1746 0.950 . S
H1739 C1748 0.950 . S
H1740 C1750 0.950 . S
H1741 C1752 0.950 . S
H1742 C1754 0.950 . S
H1743 C1755 0.950 1_565 S
C1744 H1736 0.950 . S
C1744 C1745 1.386 . S
C1744 C1746 1.391 . S
C1745 C1744 1.386 . S
C1745 C1749 1.393 . S
C1746 H1738 0.950 . S
C1746 C1744 1.391 . S
C1746 C1747 1.400 . S
C1747 C1746 1.400 . S
C1747 C1748 1.398 . S
C1747 C1753 1.491 . S
C1748 H1739 0.950 . S
C1748 C1747 1.398 . S
C1748 C1749 1.391 . S
C1749 H1737 0.950 . S
C1749 C1745 1.393 . S
C1749 C1748 1.391 . S
C1750 H1740 0.950 . S
C1750 C1751 1.386 . S
C1750 C1752 1.391 . S
C1751 C1750 1.386 . S
C1751 C1755 1.393 . S
C1752 H1741 0.950 . S
C1752 C1750 1.391 . S
C1752 C1753 1.400 . S
C1753 C1747 1.491 . S
C1753 C1752 1.400 . S
C1753 C1754 1.398 . S
C1754 H1742 0.950 . S
C1754 C1753 1.398 . S
C1754 C1755 1.391 . S
C1755 H1743 0.950 1_545 S
C1755 C1751 1.393 . S
C1755 C1754 1.391 . S
H1756 C1764 0.950 . S
H1757 C1769 0.950 . S
H1758 C1766 0.950 . S
H1759 C1768 0.950 . S
H1760 C1770 0.950 . S
H1761 C1772 0.950 . S
H1762 C1774 0.950 . S
H1763 C1775 0.950 . S
C1764 H1756 0.950 . S
C1764 C1765 1.386 . S
C1764 C1766 1.391 . S
C1765 C1764 1.386 . S
C1765 C1769 1.393 . S
C1766 H1758 0.950 . S
C1766 C1764 1.391 . S
C1766 C1767 1.400 . S
C1767 C1766 1.400 . S
C1767 C1768 1.398 . S
C1767 C1773 1.491 . S
C1768 H1759 0.950 . S
C1768 C1767 1.398 . S
C1768 C1769 1.391 . S
C1769 H1757 0.950 . S
C1769 C1765 1.393 . S
C1769 C1768 1.391 . S
C1770 H1760 0.950 . S
C1770 C1771 1.386 . S
C1770 C1772 1.391 . S
C1771 C1770 1.386 . S
C1771 C1775 1.393 . S
C1772 H1761 0.950 . S
C1772 C1770 1.391 . S
C1772 C1773 1.400 . S
C1773 C1767 1.491 . S
C1773 C1772 1.400 . S
C1773 C1774 1.398 . S
C1774 H1762 0.950 . S
C1774 C1773 1.398 . S
C1774 C1775 1.391 . S
C1775 H1763 0.950 . S
C1775 C1771 1.393 . S
C1775 C1774 1.391 . S
H1776 C1784 0.950 . S
H1777 C1789 0.950 . S
H1778 C1786 0.950 . S
H1779 C1788 0.950 . S
H1780 C1790 0.950 1_554 S
H1781 C1792 0.947 . S
H1782 C1794 0.950 . S
H1783 C1795 0.950 . S
C1784 H1776 0.950 . S
C1784 C1785 1.386 1_556 S
C1784 C1786 1.391 . S
C1785 C1784 1.386 1_554 S
C1785 C1789 1.392 . S
C1786 H1778 0.950 . S
C1786 C1784 1.391 . S
C1786 C1787 1.400 . S
C1787 C1786 1.400 . S
C1787 C1788 1.398 1_556 S
C1787 C1793 1.491 . S
C1788 H1779 0.950 . S
C1788 C1787 1.398 1_554 S
C1788 C1789 1.391 . S
C1789 H1777 0.950 . S
C1789 C1785 1.392 . S
C1789 C1788 1.391 . S
C1790 H1780 0.950 1_556 S
C1790 C1791 1.386 . S
C1790 C1792 1.392 1_556 S
C1791 C1790 1.386 . S
C1791 C1795 1.393 . S
C1792 H1781 0.947 . S
C1792 C1790 1.392 1_554 S
C1792 C1793 1.402 1_554 S
C1793 C1787 1.491 . S
C1793 C1792 1.402 1_556 S
C1793 C1794 1.398 . S
C1794 H1782 0.950 . S
C1794 C1793 1.398 . S
C1794 C1795 1.391 . S
C1795 H1783 0.950 . S
C1795 C1791 1.393 . S
C1795 C1794 1.391 . S
H1796 C1804 0.950 . S
H1797 C1809 0.950 . S
H1798 C1806 0.950 . S
H1799 C1808 0.950 . S
H1800 C1810 0.950 . S
H1801 C1812 0.950 . S
H1802 C1814 0.950 . S
H1803 C1815 0.950 . S
C1804 H1796 0.950 . S
C1804 C1805 1.386 . S
C1804 C1806 1.391 . S
C1805 C1804 1.386 . S
C1805 C1809 1.393 . S
C1806 H1798 0.950 . S
C1806 C1804 1.391 . S
C1806 C1807 1.400 . S
C1807 C1806 1.400 . S
C1807 C1808 1.398 . S
C1807 C1813 1.491 . S
C1808 H1799 0.950 . S
C1808 C1807 1.398 . S
C1808 C1809 1.391 . S
C1809 H1797 0.950 . S
C1809 C1805 1.393 . S
C1809 C1808 1.391 . S
C1810 H1800 0.950 . S
C1810 C1811 1.386 . S
C1810 C1812 1.391 . S
C1811 C1810 1.386 . S
C1811 C1815 1.393 . S
C1812 H1801 0.950 . S
C1812 C1810 1.391 . S
C1812 C1813 1.400 . S
C1813 C1807 1.491 . S
C1813 C1812 1.400 . S
C1813 C1814 1.398 . S
C1814 H1802 0.950 . S
C1814 C1813 1.398 . S
C1814 C1815 1.391 . S
C1815 H1803 0.950 . S
C1815 C1811 1.393 . S
C1815 C1814 1.391 . S
H1816 C1824 0.950 . S
H1817 C1829 0.950 . S
H1818 C1826 0.950 . S
H1819 C1828 0.950 . S
H1820 C1830 0.950 . S
H1821 C1832 0.950 . S
H1822 C1834 0.950 . S
H1823 C1835 0.950 . S
C1824 H1816 0.950 . S
C1824 C1825 1.386 . S
C1824 C1826 1.391 . S
C1825 C1824 1.386 . S
C1825 C1829 1.393 . S
C1826 H1818 0.950 . S
C1826 C1824 1.391 . S
C1826 C1827 1.400 . S
C1827 C1826 1.400 . S
C1827 C1828 1.398 . S
C1827 C1833 1.491 . S
C1828 H1819 0.950 . S
C1828 C1827 1.398 . S
C1828 C1829 1.391 . S
C1829 H1817 0.950 . S
C1829 C1825 1.393 . S
C1829 C1828 1.391 . S
C1830 H1820 0.950 . S
C1830 C1831 1.386 . S
C1830 C1832 1.391 . S
C1831 C1830 1.386 . S
C1831 C1835 1.393 . S
C1832 H1821 0.950 . S
C1832 C1830 1.391 . S
C1832 C1833 1.400 . S
C1833 C1827 1.491 . S
C1833 C1832 1.400 . S
C1833 C1834 1.398 . S
C1834 H1822 0.950 . S
C1834 C1833 1.398 . S
C1834 C1835 1.391 . S
C1835 H1823 0.950 . S
C1835 C1831 1.393 . S
C1835 C1834 1.391 . S
H1836 C1844 0.950 . S
H1837 C1849 0.950 . S
H1838 C1846 0.950 . S
H1839 C1848 0.950 . S
H1840 C1850 0.950 . S
H1841 C1852 0.950 . S
H1842 C1854 0.950 . S
H1843 C1855 0.950 . S
C1844 H1836 0.950 . S
C1844 C1845 1.386 . S
C1844 C1846 1.391 . S
C1845 C1844 1.386 . S
C1845 C1849 1.393 . S
C1846 H1838 0.950 . S
C1846 C1844 1.391 . S
C1846 C1847 1.400 . S
C1847 C1846 1.400 . S
C1847 C1848 1.398 . S
C1847 C1853 1.491 . S
C1848 H1839 0.950 . S
C1848 C1847 1.398 . S
C1848 C1849 1.391 . S
C1849 H1837 0.950 . S
C1849 C1845 1.393 . S
C1849 C1848 1.391 . S
C1850 H1840 0.950 . S
C1850 C1851 1.386 . S
C1850 C1852 1.391 . S
C1851 C1850 1.386 . S
C1851 C1855 1.393 . S
C1852 H1841 0.950 . S
C1852 C1850 1.391 . S
C1852 C1853 1.400 . S
C1853 C1847 1.491 . S
C1853 C1852 1.400 . S
C1853 C1854 1.398 . S
C1854 H1842 0.950 . S
C1854 C1853 1.398 . S
C1854 C1855 1.391 . S
C1855 H1843 0.950 . S
C1855 C1851 1.393 . S
C1855 C1854 1.391 . S
H1856 C1864 0.950 . S
H1857 C1869 0.950 . S
H1858 C1866 0.950 . S
H1859 C1868 0.950 . S
H1860 C1870 0.950 . S
H1861 C1872 0.950 . S
H1862 C1874 0.950 . S
H1863 C1875 0.950 . S
C1864 H1856 0.950 . S
C1864 C1865 1.386 . S
C1864 C1866 1.391 . S
C1865 C1864 1.386 . S
C1865 C1869 1.393 . S
C1866 H1858 0.950 . S
C1866 C1864 1.391 . S
C1866 C1867 1.400 . S
C1867 C1866 1.400 . S
C1867 C1868 1.398 . S
C1867 C1873 1.491 . S
C1868 H1859 0.950 . S
C1868 C1867 1.398 . S
C1868 C1869 1.391 . S
C1869 H1857 0.950 . S
C1869 C1865 1.393 . S
C1869 C1868 1.391 . S
C1870 H1860 0.950 . S
C1870 C1871 1.386 . S
C1870 C1872 1.391 . S
C1871 C1870 1.386 . S
C1871 C1875 1.393 . S
C1872 H1861 0.950 . S
C1872 C1870 1.391 . S
C1872 C1873 1.400 . S
C1873 C1867 1.491 . S
C1873 C1872 1.400 . S
C1873 C1874 1.398 . S
C1874 H1862 0.950 . S
C1874 C1873 1.398 . S
C1874 C1875 1.391 . S
C1875 H1863 0.950 . S
C1875 C1871 1.393 . S
C1875 C1874 1.391 . S
H1876 C1884 0.950 . S
H1877 C1889 0.950 . S
H1878 C1886 0.950 . S
H1879 C1888 0.950 . S
H1880 C1890 0.950 . S
H1881 C1892 0.950 . S
H1882 C1894 0.950 . S
H1883 C1895 0.950 1_545 S
C1884 H1876 0.950 . S
C1884 C1885 1.386 . S
C1884 C1886 1.391 . S
C1885 C1884 1.386 . S
C1885 C1889 1.393 . S
C1886 H1878 0.950 . S
C1886 C1884 1.391 . S
C1886 C1887 1.400 . S
C1887 C1886 1.400 . S
C1887 C1888 1.398 . S
C1887 C1893 1.491 . S
C1888 H1879 0.950 . S
C1888 C1887 1.398 . S
C1888 C1889 1.391 . S
C1889 H1877 0.950 . S
C1889 C1885 1.393 . S
C1889 C1888 1.391 . S
C1890 H1880 0.950 . S
C1890 C1891 1.386 . S
C1890 C1892 1.391 . S
C1891 C1890 1.386 . S
C1891 C1895 1.393 . S
C1892 H1881 0.950 . S
C1892 C1890 1.391 . S
C1892 C1893 1.400 . S
C1893 C1887 1.491 . S
C1893 C1892 1.400 . S
C1893 C1894 1.398 . S
C1894 H1882 0.950 . S
C1894 C1893 1.398 . S
C1894 C1895 1.391 . S
C1895 H1883 0.950 1_565 S
C1895 C1891 1.393 . S
C1895 C1894 1.391 . S
H1896 C1904 0.950 . S
H1897 C1909 0.950 . S
H1898 C1906 0.950 . S
H1899 C1908 0.950 . S
H1900 C1910 0.950 . S
H1901 C1912 0.950 . S
H1902 C1914 0.950 . S
H1903 C1915 0.950 . S
C1904 H1896 0.950 . S
C1904 C1905 1.386 . S
C1904 C1906 1.391 . S
C1905 C1904 1.386 . S
C1905 C1909 1.393 . S
C1906 H1898 0.950 . S
C1906 C1904 1.391 . S
C1906 C1907 1.400 . S
C1907 C1906 1.400 . S
C1907 C1908 1.398 . S
C1907 C1913 1.491 . S
C1908 H1899 0.950 . S
C1908 C1907 1.398 . S
C1908 C1909 1.391 . S
C1909 H1897 0.950 . S
C1909 C1905 1.393 . S
C1909 C1908 1.391 . S
C1910 H1900 0.950 . S
C1910 C1911 1.386 . S
C1910 C1912 1.391 . S
C1911 C1910 1.386 . S
C1911 C1915 1.393 . S
C1912 H1901 0.950 . S
C1912 C1910 1.391 . S
C1912 C1913 1.400 . S
C1913 C1907 1.491 . S
C1913 C1912 1.400 . S
C1913 C1914 1.398 . S
C1914 H1902 0.950 . S
C1914 C1913 1.398 . S
C1914 C1915 1.391 . S
C1915 H1903 0.950 . S
C1915 C1911 1.393 . S
C1915 C1914 1.391 . S
H1916 C1924 0.950 . S
H1917 C1929 0.950 . S
H1918 C1926 0.950 . S
H1919 C1928 0.950 . S
H1920 C1930 0.950 . S
H1921 C1932 0.950 . S
H1922 C1934 0.950 . S
H1923 C1935 0.950 . S
C1924 H1916 0.950 . S
C1924 C1925 1.386 . S
C1924 C1926 1.391 . S
C1925 C1924 1.386 . S
C1925 C1929 1.393 . S
C1926 H1918 0.950 . S
C1926 C1924 1.391 . S
C1926 C1927 1.400 . S
C1927 C1926 1.400 . S
C1927 C1928 1.398 . S
C1927 C1933 1.491 . S
C1928 H1919 0.950 . S
C1928 C1927 1.398 . S
C1928 C1929 1.391 . S
C1929 H1917 0.950 . S
C1929 C1925 1.393 . S
C1929 C1928 1.391 . S
C1930 H1920 0.950 . S
C1930 C1931 1.386 . S
C1930 C1932 1.391 . S
C1931 C1930 1.386 . S
C1931 C1935 1.393 . S
C1932 H1921 0.950 . S
C1932 C1930 1.391 . S
C1932 C1933 1.400 . S
C1933 C1927 1.491 . S
C1933 C1932 1.400 . S
C1933 C1934 1.398 . S
C1934 H1922 0.950 . S
C1934 C1933 1.398 . S
C1934 C1935 1.391 . S
C1935 H1923 0.950 . S
C1935 C1931 1.393 . S
C1935 C1934 1.391 . S
H1936 C1944 0.950 . S
H1937 C1949 0.950 . S
H1938 C1946 0.950 . S
H1939 C1948 0.950 . S
H1940 C1950 0.950 . S
H1941 C1952 0.950 . S
H1942 C1954 0.950 . S
H1943 C1955 0.950 . S
C1944 H1936 0.950 . S
C1944 C1945 1.386 . S
C1944 C1946 1.391 . S
C1945 C1944 1.386 . S
C1945 C1949 1.393 . S
C1946 H1938 0.950 . S
C1946 C1944 1.391 . S
C1946 C1947 1.400 . S
C1947 C1946 1.400 . S
C1947 C1948 1.398 . S
C1947 C1953 1.491 . S
C1948 H1939 0.950 . S
C1948 C1947 1.398 . S
C1948 C1949 1.391 . S
C1949 H1937 0.950 . S
C1949 C1945 1.393 . S
C1949 C1948 1.391 . S
C1950 H1940 0.950 . S
C1950 C1951 1.386 . S
C1950 C1952 1.391 . S
C1951 C1950 1.386 . S
C1951 C1955 1.393 . S
C1952 H1941 0.950 . S
C1952 C1950 1.391 . S
C1952 C1953 1.400 . S
C1953 C1947 1.491 . S
C1953 C1952 1.400 . S
C1953 C1954 1.398 . S
C1954 H1942 0.950 . S
C1954 C1953 1.398 . S
C1954 C1955 1.391 . S
C1955 H1943 0.950 . S
C1955 C1951 1.393 . S
C1955 C1954 1.391 . S
H1956 C1964 0.950 . S
H1957 C1969 0.950 . S
H1958 C1966 0.950 . S
H1959 C1968 0.950 . S
H1960 C1970 0.950 . S
H1961 C1972 0.950 . S
H1962 C1974 0.950 . S
H1963 C1975 0.950 . S
C1964 H1956 0.950 . S
C1964 C1965 1.386 . S
C1964 C1966 1.391 . S
C1965 C1964 1.386 . S
C1965 C1969 1.393 . S
C1966 H1958 0.950 . S
C1966 C1964 1.391 . S
C1966 C1967 1.400 . S
C1967 C1966 1.400 . S
C1967 C1968 1.398 . S
C1967 C1973 1.491 . S
C1968 H1959 0.950 . S
C1968 C1967 1.398 . S
C1968 C1969 1.391 . S
C1969 H1957 0.950 . S
C1969 C1965 1.393 . S
C1969 C1968 1.391 . S
C1970 H1960 0.950 . S
C1970 C1971 1.386 . S
C1970 C1972 1.391 . S
C1971 C1970 1.386 . S
C1971 C1975 1.393 . S
C1972 H1961 0.950 . S
C1972 C1970 1.391 . S
C1972 C1973 1.400 . S
C1973 C1967 1.491 . S
C1973 C1972 1.400 . S
C1973 C1974 1.398 . S
C1974 H1962 0.950 . S
C1974 C1973 1.398 . S
C1974 C1975 1.391 . S
C1975 H1963 0.950 . S
C1975 C1971 1.393 . S
C1975 C1974 1.391 . S
H1976 C1984 0.950 . S
H1977 C1989 0.950 . S
H1978 C1986 0.950 . S
H1979 C1988 0.950 . S
H1980 C1990 0.950 1_655 S
H1981 C1992 0.950 1_655 S
H1982 C1994 0.950 . S
H1983 C1995 0.950 . S
C1984 H1976 0.950 . S
C1984 C1985 1.386 . S
C1984 C1986 1.391 . S
C1985 C1984 1.386 . S
C1985 C1989 1.393 1_455 S
C1986 H1978 0.950 . S
C1986 C1984 1.391 . S
C1986 C1987 1.400 . S
C1987 C1986 1.400 . S
C1987 C1988 1.398 1_455 S
C1987 C1993 1.491 . S
C1988 H1979 0.950 . S
C1988 C1987 1.398 1_655 S
C1988 C1989 1.391 . S
C1989 H1977 0.950 . S
C1989 C1985 1.393 1_655 S
C1989 C1988 1.391 . S
C1990 H1980 0.950 1_455 S
C1990 C1991 1.386 . S
C1990 C1992 1.391 . S
C1991 C1990 1.386 . S
C1991 C1995 1.393 . S
C1992 H1981 0.950 1_455 S
C1992 C1990 1.391 . S
C1992 C1993 1.400 . S
C1993 C1987 1.491 . S
C1993 C1992 1.400 . S
C1993 C1994 1.398 . S
C1994 H1982 0.950 . S
C1994 C1993 1.398 . S
C1994 C1995 1.391 . S
C1995 H1983 0.950 . S
C1995 C1991 1.393 . S
C1995 C1994 1.391 . S
H1996 C2004 0.950 . S
H1997 C2009 0.950 . S
H1998 C2006 0.950 . S
H1999 C2008 0.950 . S
H2000 C2010 0.950 . S
H2001 C2012 0.950 . S
H2002 C2014 0.950 . S
H2003 C2015 0.950 . S
C2004 H1996 0.950 . S
C2004 C2005 1.386 . S
C2004 C2006 1.391 1_455 S
C2005 C2004 1.386 . S
C2005 C2009 1.393 . S
C2006 H1998 0.950 . S
C2006 C2004 1.391 1_655 S
C2006 C2007 1.400 . S
C2007 C2006 1.400 . S
C2007 C2008 1.398 1_655 S
C2007 C2013 1.491 . S
C2008 H1999 0.950 . S
C2008 C2007 1.398 1_455 S
C2008 C2009 1.391 . S
C2009 H1997 0.950 . S
C2009 C2005 1.393 . S
C2009 C2008 1.391 . S
C2010 H2000 0.950 . S
C2010 C2011 1.386 . S
C2010 C2012 1.391 . S
C2011 C2010 1.386 . S
C2011 C2015 1.393 . S
C2012 H2001 0.950 . S
C2012 C2010 1.391 . S
C2012 C2013 1.400 . S
C2013 C2007 1.491 . S
C2013 C2012 1.400 . S
C2013 C2014 1.398 . S
C2014 H2002 0.950 . S
C2014 C2013 1.398 . S
C2014 C2015 1.391 . S
C2015 H2003 0.950 . S
C2015 C2011 1.393 . S
C2015 C2014 1.391 . S
H2016 C2024 0.950 . S
H2017 C2029 0.950 . S
H2018 C2026 0.950 . S
H2019 C2028 0.950 . S
H2020 C2030 0.950 . S
H2021 C2032 0.950 . S
H2022 C2034 0.950 . S
H2023 C2035 0.950 . S
C2024 H2016 0.950 . S
C2024 C2025 1.386 . S
C2024 C2026 1.391 . S
C2025 C2024 1.386 . S
C2025 C2029 1.393 . S
C2026 H2018 0.950 . S
C2026 C2024 1.391 . S
C2026 C2027 1.400 . S
C2027 C2026 1.400 . S
C2027 C2028 1.398 . S
C2027 C2033 1.491 . S
C2028 H2019 0.950 . S
C2028 C2027 1.398 . S
C2028 C2029 1.391 . S
C2029 H2017 0.950 . S
C2029 C2025 1.393 . S
C2029 C2028 1.391 . S
C2030 H2020 0.950 . S
C2030 C2031 1.386 . S
C2030 C2032 1.391 . S
C2031 C2030 1.386 . S
C2031 C2035 1.393 . S
C2032 H2021 0.950 . S
C2032 C2030 1.391 . S
C2032 C2033 1.400 . S
C2033 C2027 1.491 . S
C2033 C2032 1.400 . S
C2033 C2034 1.398 . S
C2034 H2022 0.950 . S
C2034 C2033 1.398 . S
C2034 C2035 1.391 . S
C2035 H2023 0.950 . S
C2035 C2031 1.393 . S
C2035 C2034 1.391 . S
H2036 C2044 0.950 . S
H2037 C2049 0.950 . S
H2038 C2046 0.950 . S
H2039 C2048 0.950 . S
H2040 C2050 0.950 . S
H2041 C2052 0.950 . S
H2042 C2054 0.950 . S
H2043 C2055 0.950 . S
C2044 H2036 0.950 . S
C2044 C2045 1.386 . S
C2044 C2046 1.391 . S
C2045 C2044 1.386 . S
C2045 C2049 1.393 . S
C2046 H2038 0.950 . S
C2046 C2044 1.391 . S
C2046 C2047 1.400 . S
C2047 C2046 1.400 . S
C2047 C2048 1.398 . S
C2047 C2053 1.491 . S
C2048 H2039 0.950 . S
C2048 C2047 1.398 . S
C2048 C2049 1.391 . S
C2049 H2037 0.950 . S
C2049 C2045 1.393 . S
C2049 C2048 1.391 . S
C2050 H2040 0.950 . S
C2050 C2051 1.386 . S
C2050 C2052 1.391 . S
C2051 C2050 1.386 . S
C2051 C2055 1.393 . S
C2052 H2041 0.950 . S
C2052 C2050 1.391 . S
C2052 C2053 1.400 . S
C2053 C2047 1.491 . S
C2053 C2052 1.400 . S
C2053 C2054 1.398 . S
C2054 H2042 0.950 . S
C2054 C2053 1.398 . S
C2054 C2055 1.391 . S
C2055 H2043 0.950 . S
C2055 C2051 1.393 . S
C2055 C2054 1.391 . S
H2056 C2064 0.950 . S
H2057 C2069 0.950 . S
H2058 C2066 0.950 . S
H2059 C2068 0.950 . S
H2060 C2070 0.950 . S
H2061 C2072 0.950 . S
H2062 C2074 0.950 . S
H2063 C2075 0.950 . S
C2064 H2056 0.950 . S
C2064 C2065 1.386 . S
C2064 C2066 1.391 . S
C2065 C2064 1.386 . S
C2065 C2069 1.393 . S
C2066 H2058 0.950 . S
C2066 C2064 1.391 . S
C2066 C2067 1.400 . S
C2067 C2066 1.400 . S
C2067 C2068 1.398 . S
C2067 C2073 1.491 . S
C2068 H2059 0.950 . S
C2068 C2067 1.398 . S
C2068 C2069 1.391 . S
C2069 H2057 0.950 . S
C2069 C2065 1.393 . S
C2069 C2068 1.391 . S
C2070 H2060 0.950 . S
C2070 C2071 1.386 . S
C2070 C2072 1.391 . S
C2071 C2070 1.386 . S
C2071 C2075 1.393 . S
C2072 H2061 0.950 . S
C2072 C2070 1.391 . S
C2072 C2073 1.400 . S
C2073 C2067 1.491 . S
C2073 C2072 1.400 . S
C2073 C2074 1.398 . S
C2074 H2062 0.950 . S
C2074 C2073 1.398 . S
C2074 C2075 1.391 . S
C2075 H2063 0.950 . S
C2075 C2071 1.393 . S
C2075 C2074 1.391 . S
H2076 C2084 0.950 . S
H2077 C2089 0.950 . S
H2078 C2086 0.950 . S
H2079 C2088 0.950 . S
H2080 C2090 0.950 . S
H2081 C2092 0.950 . S
H2082 C2094 0.950 . S
H2083 C2095 0.950 . S
C2084 H2076 0.950 . S
C2084 C2085 1.386 . S
C2084 C2086 1.391 . S
C2085 C2084 1.386 . S
C2085 C2089 1.393 . S
C2086 H2078 0.950 . S
C2086 C2084 1.391 . S
C2086 C2087 1.400 . S
C2087 C2086 1.400 . S
C2087 C2088 1.398 . S
C2087 C2093 1.491 . S
C2088 H2079 0.950 . S
C2088 C2087 1.398 . S
C2088 C2089 1.391 . S
C2089 H2077 0.950 . S
C2089 C2085 1.393 . S
C2089 C2088 1.391 . S
C2090 H2080 0.950 . S
C2090 C2091 1.386 . S
C2090 C2092 1.391 . S
C2091 C2090 1.386 . S
C2091 C2095 1.393 . S
C2092 H2081 0.950 . S
C2092 C2090 1.391 . S
C2092 C2093 1.400 . S
C2093 C2087 1.491 . S
C2093 C2092 1.400 . S
C2093 C2094 1.398 . S
C2094 H2082 0.950 . S
C2094 C2093 1.398 . S
C2094 C2095 1.391 . S
C2095 H2083 0.950 . S
C2095 C2091 1.393 . S
C2095 C2094 1.391 . S
H2096 C2104 0.950 . S
H2097 C2109 0.950 . S
H2098 C2106 0.950 . S
H2099 C2108 0.950 . S
H2100 C2110 0.950 . S
H2101 C2112 0.950 . S
H2102 C2114 0.950 . S
H2103 C2115 0.950 . S
C2104 H2096 0.950 . S
C2104 C2105 1.386 . S
C2104 C2106 1.391 . S
C2105 C2104 1.386 . S
C2105 C2109 1.393 . S
C2106 H2098 0.950 . S
C2106 C2104 1.391 . S
C2106 C2107 1.400 . S
C2107 C2106 1.400 . S
C2107 C2108 1.398 . S
C2107 C2113 1.491 . S
C2108 H2099 0.950 . S
C2108 C2107 1.398 . S
C2108 C2109 1.391 . S
C2109 H2097 0.950 . S
C2109 C2105 1.393 . S
C2109 C2108 1.391 . S
C2110 H2100 0.950 . S
C2110 C2111 1.386 . S
C2110 C2112 1.391 . S
C2111 C2110 1.386 . S
C2111 C2115 1.393 . S
C2112 H2101 0.950 . S
C2112 C2110 1.391 . S
C2112 C2113 1.400 . S
C2113 C2107 1.491 . S
C2113 C2112 1.400 . S
C2113 C2114 1.398 . S
C2114 H2102 0.950 . S
C2114 C2113 1.398 . S
C2114 C2115 1.391 . S
C2115 H2103 0.950 . S
C2115 C2111 1.393 . S
C2115 C2114 1.391 . S
H2116 C2124 0.950 . S
H2117 C2129 0.950 . S
H2118 C2126 0.950 . S
H2119 C2128 0.950 . S
H2120 C2130 0.950 . S
H2121 C2132 0.950 . S
H2122 C2134 0.950 . S
H2123 C2135 0.950 . S
C2124 H2116 0.950 . S
C2124 C2125 1.386 . S
C2124 C2126 1.391 . S
C2125 C2124 1.386 . S
C2125 C2129 1.393 . S
C2126 H2118 0.950 . S
C2126 C2124 1.391 . S
C2126 C2127 1.400 . S
C2127 C2126 1.400 . S
C2127 C2128 1.398 . S
C2127 C2133 1.491 . S
C2128 H2119 0.950 . S
C2128 C2127 1.398 . S
C2128 C2129 1.391 . S
C2129 H2117 0.950 . S
C2129 C2125 1.393 . S
C2129 C2128 1.391 . S
C2130 H2120 0.950 . S
C2130 C2131 1.386 . S
C2130 C2132 1.391 . S
C2131 C2130 1.386 . S
C2131 C2135 1.393 . S
C2132 H2121 0.950 . S
C2132 C2130 1.391 . S
C2132 C2133 1.400 . S
C2133 C2127 1.491 . S
C2133 C2132 1.400 . S
C2133 C2134 1.398 . S
C2134 H2122 0.950 . S
C2134 C2133 1.398 . S
C2134 C2135 1.391 . S
C2135 H2123 0.950 . S
C2135 C2131 1.393 . S
C2135 C2134 1.391 . S
H2136 C2144 0.950 . S
H2137 C2149 0.950 . S
H2138 C2146 0.950 . S
H2139 C2148 0.950 . S
H2140 C2150 0.950 . S
H2141 C2152 0.950 . S
H2142 C2154 0.950 . S
H2143 C2155 0.950 . S
C2144 H2136 0.950 . S
C2144 C2145 1.386 . S
C2144 C2146 1.391 . S
C2145 C2144 1.386 . S
C2145 C2149 1.393 . S
C2146 H2138 0.950 . S
C2146 C2144 1.391 . S
C2146 C2147 1.400 . S
C2147 C2146 1.400 . S
C2147 C2148 1.398 . S
C2147 C2153 1.491 . S
C2148 H2139 0.950 . S
C2148 C2147 1.398 . S
C2148 C2149 1.391 . S
C2149 H2137 0.950 . S
C2149 C2145 1.393 . S
C2149 C2148 1.391 . S
C2150 H2140 0.950 . S
C2150 C2151 1.386 . S
C2150 C2152 1.391 . S
C2151 C2150 1.386 . S
C2151 C2155 1.393 . S
C2152 H2141 0.950 . S
C2152 C2150 1.391 . S
C2152 C2153 1.400 . S
C2153 C2147 1.491 . S
C2153 C2152 1.400 . S
C2153 C2154 1.398 . S
C2154 H2142 0.950 . S
C2154 C2153 1.398 . S
C2154 C2155 1.391 . S
C2155 H2143 0.950 . S
C2155 C2151 1.393 . S
C2155 C2154 1.391 . S
H2156 C2164 0.950 . S
H2157 C2169 0.950 . S
H2158 C2166 0.950 . S
H2159 C2168 0.950 . S
H2160 C2170 0.950 . S
H2161 C2172 0.950 . S
H2162 C2174 0.950 . S
H2163 C2175 0.950 . S
C2164 H2156 0.950 . S
C2164 C2165 1.386 . S
C2164 C2166 1.391 . S
C2165 C2164 1.386 . S
C2165 C2169 1.393 . S
C2166 H2158 0.950 . S
C2166 C2164 1.391 . S
C2166 C2167 1.400 . S
C2167 C2166 1.400 . S
C2167 C2168 1.398 . S
C2167 C2173 1.491 . S
C2168 H2159 0.950 . S
C2168 C2167 1.398 . S
C2168 C2169 1.391 . S
C2169 H2157 0.950 . S
C2169 C2165 1.393 . S
C2169 C2168 1.391 . S
C2170 H2160 0.950 . S
C2170 C2171 1.386 . S
C2170 C2172 1.391 . S
C2171 C2170 1.386 . S
C2171 C2175 1.393 . S
C2172 H2161 0.950 . S
C2172 C2170 1.391 . S
C2172 C2173 1.400 . S
C2173 C2167 1.491 . S
C2173 C2172 1.400 . S
C2173 C2174 1.398 . S
C2174 H2162 0.950 . S
C2174 C2173 1.398 . S
C2174 C2175 1.391 . S
C2175 H2163 0.950 . S
C2175 C2171 1.393 . S
C2175 C2174 1.391 . S
H2176 C2184 0.950 . S
H2177 C2189 0.950 . S
H2178 C2186 0.950 . S
H2179 C2188 0.950 . S
H2180 C2190 0.950 . S
H2181 C2192 0.950 . S
H2182 C2194 0.950 . S
H2183 C2195 0.950 . S
C2184 H2176 0.950 . S
C2184 C2185 1.386 . S
C2184 C2186 1.391 . S
C2185 C2184 1.386 . S
C2185 C2189 1.393 . S
C2186 H2178 0.950 . S
C2186 C2184 1.391 . S
C2186 C2187 1.400 . S
C2187 C2186 1.400 . S
C2187 C2188 1.398 . S
C2187 C2193 1.491 . S
C2188 H2179 0.950 . S
C2188 C2187 1.398 . S
C2188 C2189 1.391 . S
C2189 H2177 0.950 . S
C2189 C2185 1.393 . S
C2189 C2188 1.391 . S
C2190 H2180 0.950 . S
C2190 C2191 1.386 . S
C2190 C2192 1.391 . S
C2191 C2190 1.386 . S
C2191 C2195 1.393 . S
C2192 H2181 0.950 . S
C2192 C2190 1.391 . S
C2192 C2193 1.400 . S
C2193 C2187 1.491 . S
C2193 C2192 1.400 . S
C2193 C2194 1.398 . S
C2194 H2182 0.950 . S
C2194 C2193 1.398 . S
C2194 C2195 1.391 . S
C2195 H2183 0.950 . S
C2195 C2191 1.393 . S
C2195 C2194 1.391 . S
H2196 C2204 0.950 . S
H2197 C2209 0.950 . S
H2198 C2206 0.950 . S
H2199 C2208 0.950 . S
H2200 C2210 0.950 . S
H2201 C2212 0.950 . S
H2202 C2214 0.950 . S
H2203 C2215 0.950 . S
C2204 H2196 0.950 . S
C2204 C2205 1.386 . S
C2204 C2206 1.391 . S
C2205 C2204 1.386 . S
C2205 C2209 1.393 . S
C2206 H2198 0.950 . S
C2206 C2204 1.391 . S
C2206 C2207 1.400 . S
C2207 C2206 1.400 . S
C2207 C2208 1.398 . S
C2207 C2213 1.491 . S
C2208 H2199 0.950 . S
C2208 C2207 1.398 . S
C2208 C2209 1.391 . S
C2209 H2197 0.950 . S
C2209 C2205 1.393 . S
C2209 C2208 1.391 . S
C2210 H2200 0.950 . S
C2210 C2211 1.386 . S
C2210 C2212 1.391 . S
C2211 C2210 1.386 . S
C2211 C2215 1.393 . S
C2212 H2201 0.950 . S
C2212 C2210 1.391 . S
C2212 C2213 1.400 . S
C2213 C2207 1.491 . S
C2213 C2212 1.400 . S
C2213 C2214 1.398 . S
C2214 H2202 0.950 . S
C2214 C2213 1.398 . S
C2214 C2215 1.391 . S
C2215 H2203 0.950 . S
C2215 C2211 1.393 . S
C2215 C2214 1.391 . S
H2216 C2224 0.950 . S
H2217 C2229 0.950 . S
H2218 C2226 0.950 . S
H2219 C2228 0.950 . S
H2220 C2230 0.950 . S
H2221 C2232 0.950 . S
H2222 C2234 0.950 . S
H2223 C2235 0.950 . S
C2224 H2216 0.950 . S
C2224 C2225 1.386 . S
C2224 C2226 1.391 . S
C2225 C2224 1.386 . S
C2225 C2229 1.393 . S
C2226 H2218 0.950 . S
C2226 C2224 1.391 . S
C2226 C2227 1.400 . S
C2227 C2226 1.400 . S
C2227 C2228 1.398 . S
C2227 C2233 1.491 . S
C2228 H2219 0.950 . S
C2228 C2227 1.398 . S
C2228 C2229 1.391 . S
C2229 H2217 0.950 . S
C2229 C2225 1.393 . S
C2229 C2228 1.391 . S
C2230 H2220 0.950 . S
C2230 C2231 1.386 . S
C2230 C2232 1.391 . S
C2231 C2230 1.386 . S
C2231 C2235 1.393 . S
C2232 H2221 0.950 . S
C2232 C2230 1.391 . S
C2232 C2233 1.400 . S
C2233 C2227 1.491 . S
C2233 C2232 1.400 . S
C2233 C2234 1.398 . S
C2234 H2222 0.950 . S
C2234 C2233 1.398 . S
C2234 C2235 1.391 . S
C2235 H2223 0.950 . S
C2235 C2231 1.393 . S
C2235 C2234 1.391 . S
H2236 C2244 0.950 . S
H2237 C2249 0.950 . S
H2238 C2246 0.950 . S
H2239 C2248 0.950 . S
H2240 C2250 0.950 . S
H2241 C2252 0.950 . S
H2242 C2254 0.950 . S
H2243 C2255 0.950 . S
C2244 H2236 0.950 . S
C2244 C2245 1.386 . S
C2244 C2246 1.391 . S
C2245 C2244 1.386 . S
C2245 C2249 1.393 . S
C2246 H2238 0.950 . S
C2246 C2244 1.391 . S
C2246 C2247 1.400 . S
C2247 C2246 1.400 . S
C2247 C2248 1.398 . S
C2247 C2253 1.491 . S
C2248 H2239 0.950 . S
C2248 C2247 1.398 . S
C2248 C2249 1.391 . S
C2249 H2237 0.950 . S
C2249 C2245 1.393 . S
C2249 C2248 1.391 . S
C2250 H2240 0.950 . S
C2250 C2251 1.386 . S
C2250 C2252 1.391 . S
C2251 C2250 1.386 . S
C2251 C2255 1.393 . S
C2252 H2241 0.950 . S
C2252 C2250 1.391 . S
C2252 C2253 1.400 . S
C2253 C2247 1.491 . S
C2253 C2252 1.400 . S
C2253 C2254 1.398 . S
C2254 H2242 0.950 . S
C2254 C2253 1.398 . S
C2254 C2255 1.391 . S
C2255 H2243 0.950 . S
C2255 C2251 1.393 . S
C2255 C2254 1.391 . S
H2256 C2264 0.950 . S
H2257 C2269 0.950 . S
H2258 C2266 0.950 . S
H2259 C2268 0.950 . S
H2260 C2270 0.950 . S
H2261 C2272 0.950 . S
H2262 C2274 0.950 . S
H2263 C2275 0.950 . S
C2264 H2256 0.950 . S
C2264 C2265 1.386 . S
C2264 C2266 1.391 . S
C2265 C2264 1.386 . S
C2265 C2269 1.393 . S
C2266 H2258 0.950 . S
C2266 C2264 1.391 . S
C2266 C2267 1.400 . S
C2267 C2266 1.400 . S
C2267 C2268 1.398 . S
C2267 C2273 1.491 . S
C2268 H2259 0.950 . S
C2268 C2267 1.398 . S
C2268 C2269 1.391 . S
C2269 H2257 0.950 . S
C2269 C2265 1.393 . S
C2269 C2268 1.391 . S
C2270 H2260 0.950 . S
C2270 C2271 1.386 . S
C2270 C2272 1.391 . S
C2271 C2270 1.386 . S
C2271 C2275 1.393 . S
C2272 H2261 0.950 . S
C2272 C2270 1.391 . S
C2272 C2273 1.400 . S
C2273 C2267 1.491 . S
C2273 C2272 1.400 . S
C2273 C2274 1.398 . S
C2274 H2262 0.950 . S
C2274 C2273 1.398 . S
C2274 C2275 1.391 . S
C2275 H2263 0.950 . S
C2275 C2271 1.393 . S
C2275 C2274 1.391 . S
H2276 C2284 0.950 . S
H2277 C2289 0.950 . S
H2278 C2286 0.950 . S
H2279 C2288 0.950 . S
H2280 C2290 0.950 . S
H2281 C2292 0.950 . S
H2282 C2294 0.950 . S
H2283 C2295 0.950 . S
C2284 H2276 0.950 . S
C2284 C2285 1.386 . S
C2284 C2286 1.391 . S
C2285 C2284 1.386 . S
C2285 C2289 1.393 . S
C2286 H2278 0.950 . S
C2286 C2284 1.391 . S
C2286 C2287 1.400 . S
C2287 C2286 1.400 . S
C2287 C2288 1.398 . S
C2287 C2293 1.491 . S
C2288 H2279 0.950 . S
C2288 C2287 1.398 . S
C2288 C2289 1.391 . S
C2289 H2277 0.950 . S
C2289 C2285 1.393 . S
C2289 C2288 1.391 . S
C2290 H2280 0.950 . S
C2290 C2291 1.386 . S
C2290 C2292 1.391 . S
C2291 C2290 1.386 . S
C2291 C2295 1.393 . S
C2292 H2281 0.950 . S
C2292 C2290 1.391 . S
C2292 C2293 1.400 . S
C2293 C2287 1.491 . S
C2293 C2292 1.400 . S
C2293 C2294 1.398 . S
C2294 H2282 0.950 . S
C2294 C2293 1.398 . S
C2294 C2295 1.391 . S
C2295 H2283 0.950 . S
C2295 C2291 1.393 . S
C2295 C2294 1.391 . S
H2296 C2304 0.950 . S
H2297 C2309 0.950 . S
H2298 C2306 0.950 . S
H2299 C2308 0.950 . S
H2300 C2310 0.950 . S
H2301 C2312 0.950 . S
H2302 C2314 0.950 . S
H2303 C2315 0.950 . S
C2304 H2296 0.950 . S
C2304 C2305 1.386 . S
C2304 C2306 1.391 1_545 S
C2305 C2304 1.386 . S
C2305 C2309 1.393 1_545 S
C2306 H2298 0.950 . S
C2306 C2304 1.391 1_565 S
C2306 C2307 1.400 . S
C2307 C2306 1.400 . S
C2307 C2308 1.398 . S
C2307 C2313 1.491 . S
C2308 H2299 0.950 . S
C2308 C2307 1.398 . S
C2308 C2309 1.391 . S
C2309 H2297 0.950 . S
C2309 C2305 1.393 1_565 S
C2309 C2308 1.391 . S
C2310 H2300 0.950 . S
C2310 C2311 1.386 . S
C2310 C2312 1.391 . S
C2311 C2310 1.386 . S
C2311 C2315 1.393 . S
C2312 H2301 0.950 . S
C2312 C2310 1.391 . S
C2312 C2313 1.400 . S
C2313 C2307 1.491 . S
C2313 C2312 1.400 . S
C2313 C2314 1.398 . S
C2314 H2302 0.950 . S
C2314 C2313 1.398 . S
C2314 C2315 1.391 . S
C2315 H2303 0.950 . S
C2315 C2311 1.393 . S
C2315 C2314 1.391 . S
H2316 C2324 0.950 . S
H2317 C2329 0.950 . S
H2318 C2326 0.950 . S
H2319 C2328 0.950 . S
H2320 C2330 0.950 . S
H2321 C2332 0.950 . S
H2322 C2334 0.950 . S
H2323 C2335 0.950 . S
C2324 H2316 0.950 . S
C2324 C2325 1.386 . S
C2324 C2326 1.391 . S
C2325 C2324 1.386 . S
C2325 C2329 1.393 . S
C2326 H2318 0.950 . S
C2326 C2324 1.391 . S
C2326 C2327 1.400 . S
C2327 C2326 1.400 . S
C2327 C2328 1.398 . S
C2327 C2333 1.491 . S
C2328 H2319 0.950 . S
C2328 C2327 1.398 . S
C2328 C2329 1.391 . S
C2329 H2317 0.950 . S
C2329 C2325 1.393 . S
C2329 C2328 1.391 . S
C2330 H2320 0.950 . S
C2330 C2331 1.388 . S
C2330 C2332 1.391 1_545 S
C2331 C2330 1.388 . S
C2331 C2335 1.387 1_545 S
C2332 H2321 0.950 . S
C2332 C2330 1.391 1_565 S
C2332 C2333 1.400 . S
C2333 C2327 1.491 . S
C2333 C2332 1.400 . S
C2333 C2334 1.398 . S
C2334 H2322 0.950 . S
C2334 C2333 1.398 . S
C2334 C2335 1.391 . S
C2335 H2323 0.950 . S
C2335 C2331 1.387 1_565 S
C2335 C2334 1.391 . S
H2336 C2344 0.950 . S
H2337 C2349 0.950 . S
H2338 C2346 0.950 . S
H2339 C2348 0.950 . S
H2340 C2350 0.950 . S
H2341 C2352 0.950 . S
H2342 C2354 0.950 . S
H2343 C2355 0.950 . S
C2344 H2336 0.950 . S
C2344 C2345 1.386 . S
C2344 C2346 1.391 . S
C2345 C2344 1.386 . S
C2345 C2349 1.393 . S
C2346 H2338 0.950 . S
C2346 C2344 1.391 . S
C2346 C2347 1.400 . S
C2347 C2346 1.400 . S
C2347 C2348 1.398 . S
C2347 C2353 1.491 . S
C2348 H2339 0.950 . S
C2348 C2347 1.398 . S
C2348 C2349 1.391 . S
C2349 H2337 0.950 . S
C2349 C2345 1.393 . S
C2349 C2348 1.391 . S
C2350 H2340 0.950 . S
C2350 C2351 1.386 . S
C2350 C2352 1.391 . S
C2351 C2350 1.386 . S
C2351 C2355 1.393 . S
C2352 H2341 0.950 . S
C2352 C2350 1.391 . S
C2352 C2353 1.400 . S
C2353 C2347 1.491 . S
C2353 C2352 1.400 . S
C2353 C2354 1.398 . S
C2354 H2342 0.950 . S
C2354 C2353 1.398 . S
C2354 C2355 1.391 . S
C2355 H2343 0.950 . S
C2355 C2351 1.393 . S
C2355 C2354 1.391 . S
H2356 C2364 0.950 . S
H2357 C2369 0.950 . S
H2358 C2366 0.950 . S
H2359 C2368 0.950 . S
H2360 C2370 0.950 . S
H2361 C2372 0.950 . S
H2362 C2374 0.950 . S
H2363 C2375 0.950 . S
C2364 H2356 0.950 . S
C2364 C2365 1.386 . S
C2364 C2366 1.391 . S
C2365 C2364 1.386 . S
C2365 C2369 1.393 . S
C2366 H2358 0.950 . S
C2366 C2364 1.391 . S
C2366 C2367 1.400 . S
C2367 C2366 1.400 . S
C2367 C2368 1.398 . S
C2367 C2373 1.491 . S
C2368 H2359 0.950 . S
C2368 C2367 1.398 . S
C2368 C2369 1.391 . S
C2369 H2357 0.950 . S
C2369 C2365 1.393 . S
C2369 C2368 1.391 . S
C2370 H2360 0.950 . S
C2370 C2371 1.386 . S
C2370 C2372 1.391 . S
C2371 C2370 1.386 . S
C2371 C2375 1.393 . S
C2372 H2361 0.950 . S
C2372 C2370 1.391 . S
C2372 C2373 1.400 . S
C2373 C2367 1.491 . S
C2373 C2372 1.400 . S
C2373 C2374 1.398 . S
C2374 H2362 0.950 . S
C2374 C2373 1.398 . S
C2374 C2375 1.391 . S
C2375 H2363 0.950 . S
C2375 C2371 1.393 . S
C2375 C2374 1.391 . S
H2376 C2384 0.950 . S
H2377 C2389 0.950 . S
H2378 C2386 0.950 . S
H2379 C2388 0.950 . S
H2380 C2390 0.950 . S
H2381 C2392 0.950 . S
H2382 C2394 0.950 . S
H2383 C2395 0.950 . S
C2384 H2376 0.950 . S
C2384 C2385 1.386 . S
C2384 C2386 1.391 . S
C2385 C2384 1.386 . S
C2385 C2389 1.393 . S
C2386 H2378 0.950 . S
C2386 C2384 1.391 . S
C2386 C2387 1.400 . S
C2387 C2386 1.400 . S
C2387 C2388 1.398 . S
C2387 C2393 1.491 . S
C2388 H2379 0.950 . S
C2388 C2387 1.398 . S
C2388 C2389 1.391 . S
C2389 H2377 0.950 . S
C2389 C2385 1.393 . S
C2389 C2388 1.391 . S
C2390 H2380 0.950 . S
C2390 C2391 1.386 . S
C2390 C2392 1.391 . S
C2391 C2390 1.386 . S
C2391 C2395 1.393 . S
C2392 H2381 0.950 . S
C2392 C2390 1.391 . S
C2392 C2393 1.400 . S
C2393 C2387 1.491 . S
C2393 C2392 1.400 . S
C2393 C2394 1.398 . S
C2394 H2382 0.950 . S
C2394 C2393 1.398 . S
C2394 C2395 1.391 . S
C2395 H2383 0.950 . S
C2395 C2391 1.393 . S
C2395 C2394 1.391 . S
H2396 C2404 0.950 . S
H2397 C2409 0.950 . S
H2398 C2406 0.950 . S
H2399 C2408 0.950 . S
H2400 C2410 0.950 . S
H2401 C2412 0.950 . S
H2402 C2414 0.950 . S
H2403 C2415 0.950 . S
C2404 H2396 0.950 . S
C2404 C2405 1.386 1_565 S
C2404 C2406 1.391 . S
C2405 C2404 1.386 1_545 S
C2405 C2409 1.393 . S
C2406 H2398 0.950 . S
C2406 C2404 1.391 . S
C2406 C2407 1.400 . S
C2407 C2406 1.400 . S
C2407 C2408 1.398 . S
C2407 C2413 1.491 . S
C2408 H2399 0.950 . S
C2408 C2407 1.398 . S
C2408 C2409 1.391 1_565 S
C2409 H2397 0.950 . S
C2409 C2405 1.393 . S
C2409 C2408 1.391 1_545 S
C2410 H2400 0.950 . S
C2410 C2411 1.386 . S
C2410 C2412 1.391 . S
C2411 C2410 1.386 . S
C2411 C2415 1.393 . S
C2412 H2401 0.950 . S
C2412 C2410 1.391 . S
C2412 C2413 1.400 . S
C2413 C2407 1.491 . S
C2413 C2412 1.400 . S
C2413 C2414 1.398 . S
C2414 H2402 0.950 . S
C2414 C2413 1.398 . S
C2414 C2415 1.391 . S
C2415 H2403 0.950 . S
C2415 C2411 1.393 . S
C2415 C2414 1.391 . S
H2416 C2424 0.950 . S
H2417 C2429 0.950 . S
H2418 C2426 0.950 . S
H2419 C2428 0.950 . S
H2420 C2430 0.950 . S
H2421 C2432 0.950 . S
H2422 C2434 0.950 . S
H2423 C2435 0.950 . S
C2424 H2416 0.950 . S
C2424 C2425 1.386 . S
C2424 C2426 1.391 . S
C2425 C2424 1.386 . S
C2425 C2429 1.393 . S
C2426 H2418 0.950 . S
C2426 C2424 1.391 . S
C2426 C2427 1.400 . S
C2427 C2426 1.400 . S
C2427 C2428 1.398 . S
C2427 C2433 1.491 . S
C2428 H2419 0.950 . S
C2428 C2427 1.398 . S
C2428 C2429 1.391 . S
C2429 H2417 0.950 . S
C2429 C2425 1.393 . S
C2429 C2428 1.391 . S
C2430 H2420 0.950 . S
C2430 C2431 1.386 . S
C2430 C2432 1.391 . S
C2431 C2430 1.386 . S
C2431 C2435 1.393 . S
C2432 H2421 0.950 . S
C2432 C2430 1.391 . S
C2432 C2433 1.400 . S
C2433 C2427 1.491 . S
C2433 C2432 1.400 . S
C2433 C2434 1.398 . S
C2434 H2422 0.950 . S
C2434 C2433 1.398 . S
C2434 C2435 1.391 . S
C2435 H2423 0.950 . S
C2435 C2431 1.393 . S
C2435 C2434 1.391 . S
H2436 C2444 0.950 . S
H2437 C2449 0.950 . S
H2438 C2446 0.950 . S
H2439 C2448 0.950 . S
H2440 C2450 0.950 . S
H2441 C2452 0.950 . S
H2442 C2454 0.950 . S
H2443 C2455 0.950 . S
C2444 H2436 0.950 . S
C2444 C2445 1.386 . S
C2444 C2446 1.391 . S
C2445 C2444 1.386 . S
C2445 C2449 1.393 . S
C2446 H2438 0.950 . S
C2446 C2444 1.391 . S
C2446 C2447 1.400 . S
C2447 C2446 1.400 . S
C2447 C2448 1.398 . S
C2447 C2453 1.491 . S
C2448 H2439 0.950 . S
C2448 C2447 1.398 . S
C2448 C2449 1.391 . S
C2449 H2437 0.950 . S
C2449 C2445 1.393 . S
C2449 C2448 1.391 . S
C2450 H2440 0.950 . S
C2450 C2451 1.386 . S
C2450 C2452 1.391 . S
C2451 C2450 1.386 . S
C2451 C2455 1.393 . S
C2452 H2441 0.950 . S
C2452 C2450 1.391 . S
C2452 C2453 1.400 . S
C2453 C2447 1.491 . S
C2453 C2452 1.400 . S
C2453 C2454 1.398 . S
C2454 H2442 0.950 . S
C2454 C2453 1.398 . S
C2454 C2455 1.391 . S
C2455 H2443 0.950 . S
C2455 C2451 1.393 . S
C2455 C2454 1.391 . S
H2456 C2464 0.950 . S
H2457 C2469 0.950 . S
H2458 C2466 0.950 . S
H2459 C2468 0.950 . S
H2460 C2470 0.950 . S
H2461 C2472 0.950 . S
H2462 C2474 0.950 . S
H2463 C2475 0.950 . S
C2464 H2456 0.950 . S
C2464 C2465 1.386 . S
C2464 C2466 1.391 . S
C2465 C2464 1.386 . S
C2465 C2469 1.393 . S
C2466 H2458 0.950 . S
C2466 C2464 1.391 . S
C2466 C2467 1.400 . S
C2467 C2466 1.400 . S
C2467 C2468 1.398 . S
C2467 C2473 1.491 . S
C2468 H2459 0.950 . S
C2468 C2467 1.398 . S
C2468 C2469 1.391 . S
C2469 H2457 0.950 . S
C2469 C2465 1.393 . S
C2469 C2468 1.391 . S
C2470 H2460 0.950 . S
C2470 C2471 1.386 . S
C2470 C2472 1.391 . S
C2471 C2470 1.386 . S
C2471 C2475 1.393 . S
C2472 H2461 0.950 . S
C2472 C2470 1.391 . S
C2472 C2473 1.400 . S
C2473 C2467 1.491 . S
C2473 C2472 1.400 . S
C2473 C2474 1.398 . S
C2474 H2462 0.950 . S
C2474 C2473 1.398 . S
C2474 C2475 1.391 . S
C2475 H2463 0.950 . S
C2475 C2471 1.393 . S
C2475 C2474 1.391 . S
H2476 C2484 0.950 . S
H2477 C2489 0.950 . S
H2478 C2486 0.950 . S
H2479 C2488 0.950 . S
H2480 C2490 0.950 . S
H2481 C2492 0.950 . S
H2482 C2494 0.950 . S
H2483 C2495 0.950 . S
C2484 H2476 0.950 . S
C2484 C2485 1.386 . S
C2484 C2486 1.391 . S
C2485 C2484 1.386 . S
C2485 C2489 1.393 . S
C2486 H2478 0.950 . S
C2486 C2484 1.391 . S
C2486 C2487 1.400 . S
C2487 C2486 1.400 . S
C2487 C2488 1.398 . S
C2487 C2493 1.491 . S
C2488 H2479 0.950 . S
C2488 C2487 1.398 . S
C2488 C2489 1.391 . S
C2489 H2477 0.950 . S
C2489 C2485 1.393 . S
C2489 C2488 1.391 . S
C2490 H2480 0.950 . S
C2490 C2491 1.386 . S
C2490 C2492 1.391 . S
C2491 C2490 1.386 . S
C2491 C2495 1.393 . S
C2492 H2481 0.950 . S
C2492 C2490 1.391 . S
C2492 C2493 1.400 . S
C2493 C2487 1.491 . S
C2493 C2492 1.400 . S
C2493 C2494 1.398 . S
C2494 H2482 0.950 . S
C2494 C2493 1.398 . S
C2494 C2495 1.391 . S
C2495 H2483 0.950 . S
C2495 C2491 1.393 . S
C2495 C2494 1.391 . S
H2496 C2504 0.950 . S
H2497 C2509 0.950 . S
H2498 C2506 0.950 . S
H2499 C2508 0.950 . S
H2500 C2510 0.950 1_554 S
H2501 C2512 0.950 . S
H2502 C2514 0.950 . S
H2503 C2515 0.950 . S
C2504 H2496 0.950 . S
C2504 C2505 1.386 . S
C2504 C2506 1.391 . S
C2505 C2504 1.386 . S
C2505 C2509 1.393 . S
C2506 H2498 0.950 . S
C2506 C2504 1.391 . S
C2506 C2507 1.400 . S
C2507 C2506 1.400 . S
C2507 C2508 1.398 . S
C2507 C2513 1.491 . S
C2508 H2499 0.950 . S
C2508 C2507 1.398 . S
C2508 C2509 1.391 . S
C2509 H2497 0.950 . S
C2509 C2505 1.393 . S
C2509 C2508 1.391 . S
C2510 H2500 0.950 1_556 S
C2510 C2511 1.386 . S
C2510 C2512 1.391 . S
C2511 C2510 1.386 . S
C2511 C2515 1.393 . S
C2512 H2501 0.950 . S
C2512 C2510 1.391 . S
C2512 C2513 1.400 . S
C2513 C2507 1.491 . S
C2513 C2512 1.400 . S
C2513 C2514 1.398 . S
C2514 H2502 0.950 . S
C2514 C2513 1.398 . S
C2514 C2515 1.391 . S
C2515 H2503 0.950 . S
C2515 C2511 1.393 . S
C2515 C2514 1.391 . S
H2516 C2524 0.950 . S
H2517 C2529 0.950 . S
H2518 C2526 0.950 . S
H2519 C2528 0.950 . S
H2520 C2530 0.950 . S
H2521 C2532 0.950 . S
H2522 C2534 0.950 . S
H2523 C2535 0.950 . S
C2524 H2516 0.950 . S
C2524 C2525 1.386 . S
C2524 C2526 1.391 . S
C2525 C2524 1.386 . S
C2525 C2529 1.393 . S
C2526 H2518 0.950 . S
C2526 C2524 1.391 . S
C2526 C2527 1.400 . S
C2527 C2526 1.400 . S
C2527 C2528 1.398 . S
C2527 C2533 1.491 . S
C2528 H2519 0.950 . S
C2528 C2527 1.398 . S
C2528 C2529 1.391 . S
C2529 H2517 0.950 . S
C2529 C2525 1.393 . S
C2529 C2528 1.391 . S
C2530 H2520 0.950 . S
C2530 C2531 1.386 . S
C2530 C2532 1.391 . S
C2531 C2530 1.386 . S
C2531 C2535 1.393 . S
C2532 H2521 0.950 . S
C2532 C2530 1.391 . S
C2532 C2533 1.400 . S
C2533 C2527 1.491 . S
C2533 C2532 1.400 . S
C2533 C2534 1.398 . S
C2534 H2522 0.950 . S
C2534 C2533 1.398 . S
C2534 C2535 1.391 . S
C2535 H2523 0.950 . S
C2535 C2531 1.393 . S
C2535 C2534 1.391 . S
H2536 C2544 0.950 . S
H2537 C2549 0.950 . S
H2538 C2546 0.950 . S
H2539 C2548 0.950 . S
H2540 C2550 0.950 . S
H2541 C2552 0.950 . S
H2542 C2554 0.950 . S
H2543 C2555 0.950 . S
C2544 H2536 0.950 . S
C2544 C2545 1.386 . S
C2544 C2546 1.391 . S
C2545 C2544 1.386 . S
C2545 C2549 1.393 . S
C2546 H2538 0.950 . S
C2546 C2544 1.391 . S
C2546 C2547 1.400 . S
C2547 C2546 1.400 . S
C2547 C2548 1.398 . S
C2547 C2553 1.491 . S
C2548 H2539 0.950 . S
C2548 C2547 1.398 . S
C2548 C2549 1.391 . S
C2549 H2537 0.950 . S
C2549 C2545 1.393 . S
C2549 C2548 1.391 . S
C2550 H2540 0.950 . S
C2550 C2551 1.386 . S
C2550 C2552 1.391 . S
C2551 C2550 1.386 . S
C2551 C2555 1.393 . S
C2552 H2541 0.950 . S
C2552 C2550 1.391 . S
C2552 C2553 1.400 . S
C2553 C2547 1.491 . S
C2553 C2552 1.400 . S
C2553 C2554 1.398 . S
C2554 H2542 0.950 . S
C2554 C2553 1.398 . S
C2554 C2555 1.391 . S
C2555 H2543 0.950 . S
C2555 C2551 1.393 . S
C2555 C2554 1.391 . S
H2556 C2564 0.950 . S
H2557 C2569 0.950 . S
H2558 C2566 0.950 . S
H2559 C2568 0.950 . S
H2560 C2570 0.950 . S
H2561 C2572 0.950 . S
H2562 C2574 0.950 . S
H2563 C2575 0.950 . S
C2564 H2556 0.950 . S
C2564 C2565 1.386 . S
C2564 C2566 1.391 . S
C2565 C2564 1.386 . S
C2565 C2569 1.393 . S
C2566 H2558 0.950 . S
C2566 C2564 1.391 . S
C2566 C2567 1.400 . S
C2567 C2566 1.400 . S
C2567 C2568 1.398 . S
C2567 C2573 1.491 . S
C2568 H2559 0.950 . S
C2568 C2567 1.398 . S
C2568 C2569 1.391 . S
C2569 H2557 0.950 . S
C2569 C2565 1.393 . S
C2569 C2568 1.391 . S
C2570 H2560 0.950 . S
C2570 C2571 1.386 . S
C2570 C2572 1.391 . S
C2571 C2570 1.386 . S
C2571 C2575 1.393 . S
C2572 H2561 0.950 . S
C2572 C2570 1.391 . S
C2572 C2573 1.400 . S
C2573 C2567 1.491 . S
C2573 C2572 1.400 . S
C2573 C2574 1.398 . S
C2574 H2562 0.950 . S
C2574 C2573 1.398 . S
C2574 C2575 1.391 . S
C2575 H2563 0.950 . S
C2575 C2571 1.393 . S
C2575 C2574 1.391 . S
H2576 C2584 0.950 . S
H2577 C2589 0.950 . S
H2578 C2586 0.950 . S
H2579 C2588 0.950 . S
H2580 C2590 0.950 . S
H2581 C2592 0.950 . S
H2582 C2594 0.950 . S
H2583 C2595 0.950 . S
C2584 H2576 0.950 . S
C2584 C2585 1.386 . S
C2584 C2586 1.391 . S
C2585 C2584 1.386 . S
C2585 C2589 1.393 . S
C2586 H2578 0.950 . S
C2586 C2584 1.391 . S
C2586 C2587 1.400 . S
C2587 C2586 1.400 . S
C2587 C2588 1.398 . S
C2587 C2593 1.491 . S
C2588 H2579 0.950 . S
C2588 C2587 1.398 . S
C2588 C2589 1.391 . S
C2589 H2577 0.950 . S
C2589 C2585 1.393 . S
C2589 C2588 1.391 . S
C2590 H2580 0.950 . S
C2590 C2591 1.386 . S
C2590 C2592 1.391 . S
C2591 C2590 1.386 . S
C2591 C2595 1.393 . S
C2592 H2581 0.950 . S
C2592 C2590 1.391 . S
C2592 C2593 1.400 . S
C2593 C2587 1.491 . S
C2593 C2592 1.400 . S
C2593 C2594 1.398 . S
C2594 H2582 0.950 . S
C2594 C2593 1.398 . S
C2594 C2595 1.391 . S
C2595 H2583 0.950 . S
C2595 C2591 1.393 . S
C2595 C2594 1.391 . S
H2596 C2604 0.950 . S
H2597 C2609 0.950 . S
H2598 C2606 0.950 . S
H2599 C2608 0.950 . S
H2600 C2610 0.950 . S
H2601 C2612 0.950 . S
H2602 C2614 0.950 . S
H2603 C2615 0.950 . S
C2604 H2596 0.950 . S
C2604 C2605 1.386 . S
C2604 C2606 1.391 . S
C2605 C2604 1.386 . S
C2605 C2609 1.393 . S
C2606 H2598 0.950 . S
C2606 C2604 1.391 . S
C2606 C2607 1.400 . S
C2607 C2606 1.400 . S
C2607 C2608 1.398 . S
C2607 C2613 1.491 . S
C2608 H2599 0.950 . S
C2608 C2607 1.398 . S
C2608 C2609 1.391 . S
C2609 H2597 0.950 . S
C2609 C2605 1.393 . S
C2609 C2608 1.391 . S
C2610 H2600 0.950 . S
C2610 C2611 1.386 . S
C2610 C2612 1.391 . S
C2611 C2610 1.386 . S
C2611 C2615 1.393 . S
C2612 H2601 0.950 . S
C2612 C2610 1.391 . S
C2612 C2613 1.400 . S
C2613 C2607 1.491 . S
C2613 C2612 1.400 . S
C2613 C2614 1.398 . S
C2614 H2602 0.950 . S
C2614 C2613 1.398 . S
C2614 C2615 1.391 . S
C2615 H2603 0.950 . S
C2615 C2611 1.393 . S
C2615 C2614 1.391 . S
H2616 C2624 0.950 . S
H2617 C2629 0.950 . S
H2618 C2626 0.950 1_655 S
H2619 C2628 0.950 . S
H2620 C2630 0.950 . S
H2621 C2632 0.950 . S
H2622 C2634 0.957 . S
H2623 C2635 0.950 . S
C2624 H2616 0.950 . S
C2624 C2625 1.386 1_655 S
C2624 C2626 1.391 1_655 S
C2625 C2624 1.386 1_455 S
C2625 C2629 1.393 . S
C2626 H2618 0.950 1_455 S
C2626 C2624 1.391 1_455 S
C2626 C2627 1.400 . S
C2627 C2626 1.400 . S
C2627 C2628 1.398 . S
C2627 C2633 1.491 . S
C2628 H2619 0.950 . S
C2628 C2627 1.398 . S
C2628 C2629 1.391 . S
C2629 H2617 0.950 . S
C2629 C2625 1.393 . S
C2629 C2628 1.391 . S
C2630 H2620 0.950 . S
C2630 C2631 1.386 . S
C2630 C2632 1.391 . S
C2631 C2630 1.386 . S
C2631 C2635 1.393 . S
C2632 H2621 0.950 . S
C2632 C2630 1.391 . S
C2632 C2633 1.400 . S
C2633 C2627 1.491 . S
C2633 C2632 1.400 . S
C2633 C2634 1.398 . S
C2634 H2622 0.957 . S
C2634 C2633 1.398 . S
C2634 C2635 1.391 . S
C2635 H2623 0.950 . S
C2635 C2631 1.393 . S
C2635 C2634 1.391 . S
H2636 C2644 0.950 . S
H2637 C2649 0.950 . S
H2638 C2646 0.950 . S
H2639 C2648 0.950 . S
H2640 C2650 0.950 . S
H2641 C2652 0.950 . S
H2642 C2654 0.950 . S
H2643 C2655 0.950 . S
C2644 H2636 0.950 . S
C2644 C2645 1.386 . S
C2644 C2646 1.391 . S
C2645 C2644 1.386 . S
C2645 C2649 1.393 . S
C2646 H2638 0.950 . S
C2646 C2644 1.391 . S
C2646 C2647 1.400 . S
C2647 C2646 1.400 . S
C2647 C2648 1.398 . S
C2647 C2653 1.491 . S
C2648 H2639 0.950 . S
C2648 C2647 1.398 . S
C2648 C2649 1.391 . S
C2649 H2637 0.950 . S
C2649 C2645 1.393 . S
C2649 C2648 1.391 . S
C2650 H2640 0.950 . S
C2650 C2651 1.386 . S
C2650 C2652 1.391 . S
C2651 C2650 1.386 . S
C2651 C2655 1.393 . S
C2652 H2641 0.950 . S
C2652 C2650 1.391 . S
C2652 C2653 1.400 . S
C2653 C2647 1.491 . S
C2653 C2652 1.400 . S
C2653 C2654 1.398 . S
C2654 H2642 0.950 . S
C2654 C2653 1.398 . S
C2654 C2655 1.391 . S
C2655 H2643 0.950 . S
C2655 C2651 1.393 . S
C2655 C2654 1.391 . S
H2656 C2664 0.950 . S
H2657 C2669 0.950 . S
H2658 C2666 0.950 . S
H2659 C2668 0.950 . S
H2660 C2670 0.950 . S
H2661 C2672 0.950 . S
H2662 C2674 0.950 . S
H2663 C2675 0.950 . S
C2664 H2656 0.950 . S
C2664 C2665 1.386 . S
C2664 C2666 1.391 . S
C2665 C2664 1.386 . S
C2665 C2669 1.393 . S
C2666 H2658 0.950 . S
C2666 C2664 1.391 . S
C2666 C2667 1.400 . S
C2667 C2666 1.400 . S
C2667 C2668 1.398 . S
C2667 C2673 1.491 . S
C2668 H2659 0.950 . S
C2668 C2667 1.398 . S
C2668 C2669 1.391 . S
C2669 H2657 0.950 . S
C2669 C2665 1.393 . S
C2669 C2668 1.391 . S
C2670 H2660 0.950 . S
C2670 C2671 1.386 . S
C2670 C2672 1.391 . S
C2671 C2670 1.386 . S
C2671 C2675 1.393 . S
C2672 H2661 0.950 . S
C2672 C2670 1.391 . S
C2672 C2673 1.400 . S
C2673 C2667 1.491 . S
C2673 C2672 1.400 . S
C2673 C2674 1.398 . S
C2674 H2662 0.950 . S
C2674 C2673 1.398 . S
C2674 C2675 1.391 . S
C2675 H2663 0.950 . S
C2675 C2671 1.393 . S
C2675 C2674 1.391 . S
H2676 C2684 0.950 . S
H2677 C2689 0.950 . S
H2678 C2686 0.950 . S
H2679 C2688 0.950 . S
H2680 C2690 0.950 . S
H2681 C2692 0.950 . S
H2682 C2694 0.950 . S
H2683 C2695 0.950 . S
C2684 H2676 0.950 . S
C2684 C2685 1.386 . S
C2684 C2686 1.391 . S
C2685 C2684 1.386 . S
C2685 C2689 1.393 . S
C2686 H2678 0.950 . S
C2686 C2684 1.391 . S
C2686 C2687 1.400 . S
C2687 C2686 1.400 . S
C2687 C2688 1.398 . S
C2687 C2693 1.491 . S
C2688 H2679 0.950 . S
C2688 C2687 1.398 . S
C2688 C2689 1.391 . S
C2689 H2677 0.950 . S
C2689 C2685 1.393 . S
C2689 C2688 1.391 . S
C2690 H2680 0.950 . S
C2690 C2691 1.386 . S
C2690 C2692 1.391 . S
C2691 C2690 1.386 . S
C2691 C2695 1.393 . S
C2692 H2681 0.950 . S
C2692 C2690 1.391 . S
C2692 C2693 1.400 . S
C2693 C2687 1.491 . S
C2693 C2692 1.400 . S
C2693 C2694 1.398 . S
C2694 H2682 0.950 . S
C2694 C2693 1.398 . S
C2694 C2695 1.391 . S
C2695 H2683 0.950 . S
C2695 C2691 1.393 . S
C2695 C2694 1.391 . S
H2696 C2704 0.950 . S
H2697 C2709 0.950 . S
H2698 C2706 0.950 . S
H2699 C2708 0.950 . S
H2700 C2710 0.950 . S
H2701 C2712 0.950 . S
H2702 C2714 0.950 . S
H2703 C2715 0.950 . S
C2704 H2696 0.950 . S
C2704 C2705 1.386 1_655 S
C2704 C2706 1.391 . S
C2705 C2704 1.386 1_455 S
C2705 C2709 1.393 . S
C2706 H2698 0.950 . S
C2706 C2704 1.391 . S
C2706 C2707 1.400 1_655 S
C2707 C2706 1.400 1_455 S
C2707 C2708 1.398 . S
C2707 C2713 1.491 . S
C2708 H2699 0.950 . S
C2708 C2707 1.398 . S
C2708 C2709 1.391 . S
C2709 H2697 0.950 . S
C2709 C2705 1.393 . S
C2709 C2708 1.391 . S
C2710 H2700 0.950 . S
C2710 C2711 1.386 . S
C2710 C2712 1.391 . S
C2711 C2710 1.386 . S
C2711 C2715 1.393 1_455 S
C2712 H2701 0.950 . S
C2712 C2710 1.391 . S
C2712 C2713 1.400 . S
C2713 C2707 1.491 . S
C2713 C2712 1.400 . S
C2713 C2714 1.398 1_455 S
C2714 H2702 0.950 . S
C2714 C2713 1.398 1_655 S
C2714 C2715 1.391 . S
C2715 H2703 0.950 . S
C2715 C2711 1.393 1_655 S
C2715 C2714 1.391 . S
H2716 C2724 0.950 . S
H2717 C2729 0.950 . S
H2718 C2726 0.950 . S
H2719 C2728 0.950 . S
H2720 C2730 0.950 . S
H2721 C2732 0.950 . S
H2722 C2734 0.950 . S
H2723 C2735 0.950 . S
C2724 H2716 0.950 . S
C2724 C2725 1.386 . S
C2724 C2726 1.391 . S
C2725 C2724 1.386 . S
C2725 C2729 1.393 . S
C2726 H2718 0.950 . S
C2726 C2724 1.391 . S
C2726 C2727 1.400 . S
C2727 C2726 1.400 . S
C2727 C2728 1.398 . S
C2727 C2733 1.491 . S
C2728 H2719 0.950 . S
C2728 C2727 1.398 . S
C2728 C2729 1.391 . S
C2729 H2717 0.950 . S
C2729 C2725 1.393 . S
C2729 C2728 1.391 . S
C2730 H2720 0.950 . S
C2730 C2731 1.386 . S
C2730 C2732 1.391 . S
C2731 C2730 1.386 . S
C2731 C2735 1.393 . S
C2732 H2721 0.950 . S
C2732 C2730 1.391 . S
C2732 C2733 1.400 . S
C2733 C2727 1.491 . S
C2733 C2732 1.400 . S
C2733 C2734 1.398 . S
C2734 H2722 0.950 . S
C2734 C2733 1.398 . S
C2734 C2735 1.391 . S
C2735 H2723 0.950 . S
C2735 C2731 1.393 . S
C2735 C2734 1.391 . S
H2736 C2744 0.950 . S
H2737 C2749 0.950 . S
H2738 C2746 0.950 . S
H2739 C2748 0.950 . S
H2740 C2750 0.950 . S
H2741 C2752 0.950 . S
H2742 C2754 0.950 . S
H2743 C2755 0.950 . S
C2744 H2736 0.950 . S
C2744 C2745 1.386 . S
C2744 C2746 1.391 . S
C2745 C2744 1.386 . S
C2745 C2749 1.393 . S
C2746 H2738 0.950 . S
C2746 C2744 1.391 . S
C2746 C2747 1.400 . S
C2747 C2746 1.400 . S
C2747 C2748 1.398 . S
C2747 C2753 1.491 . S
C2748 H2739 0.950 . S
C2748 C2747 1.398 . S
C2748 C2749 1.391 . S
C2749 H2737 0.950 . S
C2749 C2745 1.393 . S
C2749 C2748 1.391 . S
C2750 H2740 0.950 . S
C2750 C2751 1.386 . S
C2750 C2752 1.391 . S
C2751 C2750 1.386 . S
C2751 C2755 1.393 . S
C2752 H2741 0.950 . S
C2752 C2750 1.391 . S
C2752 C2753 1.400 . S
C2753 C2747 1.491 . S
C2753 C2752 1.400 . S
C2753 C2754 1.398 . S
C2754 H2742 0.950 . S
C2754 C2753 1.398 . S
C2754 C2755 1.391 . S
C2755 H2743 0.950 . S
C2755 C2751 1.393 . S
C2755 C2754 1.391 . S
H2756 C2764 0.950 . S
H2757 C2769 0.950 . S
H2758 C2766 0.950 . S
H2759 C2768 0.950 . S
H2760 C2770 0.950 . S
H2761 C2772 0.950 . S
H2762 C2774 0.950 1_545 S
H2763 C2775 0.950 . S
C2764 H2756 0.950 . S
C2764 C2765 1.386 . S
C2764 C2766 1.391 . S
C2765 C2764 1.386 . S
C2765 C2769 1.393 . S
C2766 H2758 0.950 . S
C2766 C2764 1.391 . S
C2766 C2767 1.400 . S
C2767 C2766 1.400 . S
C2767 C2768 1.398 . S
C2767 C2773 1.491 . S
C2768 H2759 0.950 . S
C2768 C2767 1.398 . S
C2768 C2769 1.391 . S
C2769 H2757 0.950 . S
C2769 C2765 1.393 . S
C2769 C2768 1.391 . S
C2770 H2760 0.950 . S
C2770 C2771 1.429 . S
C2770 C2772 1.391 . S
C2771 C2770 1.429 . S
C2771 C2775 1.365 1_565 S
C2772 H2761 0.950 . S
C2772 C2770 1.391 . S
C2772 C2773 1.400 . S
C2773 C2767 1.491 . S
C2773 C2772 1.400 . S
C2773 C2774 1.398 . S
C2774 H2762 0.950 1_565 S
C2774 C2773 1.398 . S
C2774 C2775 1.391 1_565 S
C2775 H2763 0.950 . S
C2775 C2771 1.365 1_545 S
C2775 C2774 1.391 1_545 S
H2776 C2784 0.950 . S
H2777 C2789 0.950 . S
H2778 C2786 0.950 . S
H2779 C2788 0.950 . S
H2780 C2790 0.950 . S
H2781 C2792 0.950 . S
H2782 C2794 0.950 . S
H2783 C2795 0.950 . S
C2784 H2776 0.950 . S
C2784 C2785 1.386 . S
C2784 C2786 1.391 . S
C2785 C2784 1.386 . S
C2785 C2789 1.393 . S
C2786 H2778 0.950 . S
C2786 C2784 1.391 . S
C2786 C2787 1.400 . S
C2787 C2786 1.400 . S
C2787 C2788 1.398 . S
C2787 C2793 1.491 . S
C2788 H2779 0.950 . S
C2788 C2787 1.398 . S
C2788 C2789 1.391 . S
C2789 H2777 0.950 . S
C2789 C2785 1.393 . S
C2789 C2788 1.391 . S
C2790 H2780 0.950 . S
C2790 C2791 1.386 . S
C2790 C2792 1.391 . S
C2791 C2790 1.386 . S
C2791 C2795 1.393 . S
C2792 H2781 0.950 . S
C2792 C2790 1.391 . S
C2792 C2793 1.400 . S
C2793 C2787 1.491 . S
C2793 C2792 1.400 . S
C2793 C2794 1.398 . S
C2794 H2782 0.950 . S
C2794 C2793 1.398 . S
C2794 C2795 1.391 . S
C2795 H2783 0.950 . S
C2795 C2791 1.393 . S
C2795 C2794 1.391 . S
H2796 C2804 0.950 . S
H2797 C2809 0.950 . S
H2798 C2806 0.950 . S
H2799 C2808 0.947 1_554 S
H2800 C2810 0.950 . S
H2801 C2812 0.950 . S
H2802 C2814 0.950 . S
H2803 C2815 0.950 . S
C2804 H2796 0.950 . S
C2804 C2805 1.386 . S
C2804 C2806 1.391 . S
C2805 C2804 1.386 . S
C2805 C2809 1.393 . S
C2806 H2798 0.950 . S
C2806 C2804 1.391 . S
C2806 C2807 1.395 1_556 S
C2807 C2806 1.395 1_554 S
C2807 C2808 1.388 1_554 S
C2807 C2813 1.502 . S
C2808 H2799 0.947 1_556 S
C2808 C2807 1.388 1_556 S
C2808 C2809 1.399 . S
C2809 H2797 0.950 . S
C2809 C2805 1.393 . S
C2809 C2808 1.399 . S
C2810 H2800 0.950 . S
C2810 C2811 1.386 . S
C2810 C2812 1.391 . S
C2811 C2810 1.386 . S
C2811 C2815 1.393 . S
C2812 H2801 0.950 . S
C2812 C2810 1.391 . S
C2812 C2813 1.400 . S
C2813 C2807 1.502 . S
C2813 C2812 1.400 . S
C2813 C2814 1.398 . S
C2814 H2802 0.950 . S
C2814 C2813 1.398 . S
C2814 C2815 1.391 . S
C2815 H2803 0.950 . S
C2815 C2811 1.393 . S
C2815 C2814 1.391 . S
H2816 C2824 0.950 . S
H2817 C2829 0.950 . S
H2818 C2826 0.950 . S
H2819 C2828 0.950 . S
H2820 C2830 0.950 . S
H2821 C2832 0.950 . S
H2822 C2834 0.950 . S
H2823 C2835 0.950 . S
C2824 H2816 0.950 . S
C2824 C2825 1.386 . S
C2824 C2826 1.391 . S
C2825 C2824 1.386 . S
C2825 C2829 1.393 . S
C2826 H2818 0.950 . S
C2826 C2824 1.391 . S
C2826 C2827 1.400 . S
C2827 C2826 1.400 . S
C2827 C2828 1.398 . S
C2827 C2833 1.491 . S
C2828 H2819 0.950 . S
C2828 C2827 1.398 . S
C2828 C2829 1.391 . S
C2829 H2817 0.950 . S
C2829 C2825 1.393 . S
C2829 C2828 1.391 . S
C2830 H2820 0.950 . S
C2830 C2831 1.386 . S
C2830 C2832 1.391 . S
C2831 C2830 1.386 . S
C2831 C2835 1.393 . S
C2832 H2821 0.950 . S
C2832 C2830 1.391 . S
C2832 C2833 1.400 . S
C2833 C2827 1.491 . S
C2833 C2832 1.400 . S
C2833 C2834 1.398 . S
C2834 H2822 0.950 . S
C2834 C2833 1.398 . S
C2834 C2835 1.391 . S
C2835 H2823 0.950 . S
C2835 C2831 1.393 . S
C2835 C2834 1.391 . S
H2836 C2844 0.950 . S
H2837 C2849 0.950 . S
H2838 C2846 0.950 . S
H2839 C2848 0.950 . S
H2840 C2850 0.950 . S
H2841 C2852 0.950 . S
H2842 C2854 0.950 . S
H2843 C2855 0.950 . S
C2844 H2836 0.950 . S
C2844 C2845 1.386 . S
C2844 C2846 1.391 . S
C2845 C2844 1.386 . S
C2845 C2849 1.393 . S
C2846 H2838 0.950 . S
C2846 C2844 1.391 . S
C2846 C2847 1.400 . S
C2847 C2846 1.400 . S
C2847 C2848 1.398 . S
C2847 C2853 1.491 . S
C2848 H2839 0.950 . S
C2848 C2847 1.398 . S
C2848 C2849 1.391 . S
C2849 H2837 0.950 . S
C2849 C2845 1.393 . S
C2849 C2848 1.391 . S
C2850 H2840 0.950 . S
C2850 C2851 1.386 . S
C2850 C2852 1.391 . S
C2851 C2850 1.386 . S
C2851 C2855 1.393 . S
C2852 H2841 0.950 . S
C2852 C2850 1.391 . S
C2852 C2853 1.400 . S
C2853 C2847 1.491 . S
C2853 C2852 1.400 . S
C2853 C2854 1.398 . S
C2854 H2842 0.950 . S
C2854 C2853 1.398 . S
C2854 C2855 1.391 . S
C2855 H2843 0.950 . S
C2855 C2851 1.393 . S
C2855 C2854 1.391 . S
H2856 C2864 0.950 . S
H2857 C2869 0.950 . S
H2858 C2866 0.950 . S
H2859 C2868 0.950 . S
H2860 C2870 0.950 . S
H2861 C2872 0.950 . S
H2862 C2874 0.950 . S
H2863 C2875 0.950 . S
C2864 H2856 0.950 . S
C2864 C2865 1.386 . S
C2864 C2866 1.391 . S
C2865 C2864 1.386 . S
C2865 C2869 1.393 . S
C2866 H2858 0.950 . S
C2866 C2864 1.391 . S
C2866 C2867 1.400 . S
C2867 C2866 1.400 . S
C2867 C2868 1.398 . S
C2867 C2873 1.491 . S
C2868 H2859 0.950 . S
C2868 C2867 1.398 . S
C2868 C2869 1.391 . S
C2869 H2857 0.950 . S
C2869 C2865 1.393 . S
C2869 C2868 1.391 . S
C2870 H2860 0.950 . S
C2870 C2871 1.386 . S
C2870 C2872 1.391 . S
C2871 C2870 1.386 . S
C2871 C2875 1.393 . S
C2872 H2861 0.950 . S
C2872 C2870 1.391 . S
C2872 C2873 1.400 . S
C2873 C2867 1.491 . S
C2873 C2872 1.400 . S
C2873 C2874 1.398 . S
C2874 H2862 0.950 . S
C2874 C2873 1.398 . S
C2874 C2875 1.391 . S
C2875 H2863 0.950 . S
C2875 C2871 1.393 . S
C2875 C2874 1.391 . S
H2876 C2884 0.950 . S
H2877 C2889 0.950 . S
H2878 C2886 0.950 . S
H2879 C2888 0.950 . S
H2880 C2890 0.950 . S
H2881 C2892 0.950 . S
H2882 C2894 0.950 . S
H2883 C2895 0.950 . S
C2884 H2876 0.950 . S
C2884 C2885 1.386 . S
C2884 C2886 1.391 . S
C2885 C2884 1.386 . S
C2885 C2889 1.393 . S
C2886 H2878 0.950 . S
C2886 C2884 1.391 . S
C2886 C2887 1.400 . S
C2887 C2886 1.400 . S
C2887 C2888 1.398 . S
C2887 C2893 1.491 . S
C2888 H2879 0.950 . S
C2888 C2887 1.398 . S
C2888 C2889 1.391 . S
C2889 H2877 0.950 . S
C2889 C2885 1.393 . S
C2889 C2888 1.391 . S
C2890 H2880 0.950 . S
C2890 C2891 1.386 . S
C2890 C2892 1.391 . S
C2891 C2890 1.386 . S
C2891 C2895 1.393 . S
C2892 H2881 0.950 . S
C2892 C2890 1.391 . S
C2892 C2893 1.400 . S
C2893 C2887 1.491 . S
C2893 C2892 1.400 . S
C2893 C2894 1.398 . S
C2894 H2882 0.950 . S
C2894 C2893 1.398 . S
C2894 C2895 1.391 . S
C2895 H2883 0.950 . S
C2895 C2891 1.393 . S
C2895 C2894 1.391 . S
C985 C105 1.833 1_455 S
C991 C358 1.832 . S
C1005 C65 1.223 . S
C1011 C378 1.208 . S
C1025 C73 0.687 . S
C1031 C425 0.689 . S
C1051 C482 1.039 . S
C1045 C92 1.065 . S
C1065 C17 2.682 . S
C1071 C499 2.671 . S
C1091 C558 1.812 . S
C1085 C37 1.811 . S
C1111 C591 2.745 . S
C1105 C49 2.674 . S
C1125 C8 2.506 . S
C1131 C638 2.480 . S
C1151 C351 1.566 . S
C1145 C231 1.500 1_545 S
C1165 C241 1.441 . S
C1171 C379 1.429 . S
C1191 C418 0.480 . S
C1185 C273 0.470 1_565 S
C1211 C478 2.159 . S
C1205 C171 2.151 . S
C1225 C227 0.418 . S
C1231 C505 0.469 . S
C1251 C551 2.305 . S
C1245 C245 2.296 . S
C1271 C602 0.500 . S
C1265 C269 0.476 . S
C1291 C631 2.336 . S
C1285 C175 2.274 . S
C1311 C362 1.732 1_565 S
C1305 C162 1.792 . S
C1325 C289 2.241 . S
C1331 C658 2.219 . S
C1351 C722 1.305 . S
C1345 C330 1.323 . S
C1371 C758 1.410 1_655 S
C1365 C317 1.428 . S
C1385 C120 1.345 . S
C1391 C642 1.347 . S
C1405 C134 2.599 . S
C1411 C419 2.599 . S
C1425 C331 1.403 . S
C1431 C791 1.420 . S
C1451 C825 0.374 . S
C1445 C303 0.280 . S
C1471 C339 1.842 . S
C1465 C59 1.863 . S
C1491 C831 1.243 . S
C1485 C107 1.246 . S
C1505 C91 0.750 . S
C1511 C442 0.749 . S
C1525 C78 1.088 . S
C1531 C785 1.078 . S
C1551 C518 2.728 . S
C1545 C7 2.708 . S
C1565 C51 1.847 . S
C1571 C699 1.836 . S
C1591 C578 2.789 1_556 S
C1585 C31 2.795 . S
C1611 C859 2.482 . S
C1605 C22 2.503 1_655 S
C1631 C338 1.566 . S
C1625 C143 1.563 . S
C1651 C838 1.510 . S
C1645 C315 1.511 . S
C1665 C115 0.510 . S
C1671 C431 0.504 . S
C1685 C287 2.104 . S
C1691 C779 2.198 . S
C1705 C147 0.479 . S
C1711 C522 0.498 . S
C1731 C698 2.355 . S
C1725 C311 2.358 . S
C1745 C119 0.523 . S
C1751 C585 0.476 . S
C1765 C283 2.376 . S
C1771 C858 2.366 . S
C1785 C190 1.750 . S
C1791 C345 1.737 . S
C1805 C177 2.264 . S
C1811 C671 2.251 . S
C1825 C260 1.319 . S
C1831 C545 1.327 . S
C1845 C247 1.453 . S
C1851 C739 1.429 . S
C1871 C865 1.305 . S
C1865 C274 1.284 . S
C1885 C218 2.635 . S
C1891 C438 2.634 1_565 S
C1911 C458 1.465 . S
C1905 C261 1.427 . S
C1931 C402 0.341 . S
C1925 C205 0.301 . S
C1945 C77 1.837 . S
C1951 C918 1.835 . S
C1971 C818 1.182 . S
C1965 C93 1.199 . S
C1985 C101 0.690 . S
C1991 C945 0.702 . S
C2005 C64 1.065 . S
C2011 C802 1.037 . S
C2025 C45 2.684 . S
C2031 C659 2.665 . S
C2051 C718 1.810 . S
C2045 C9 1.813 1_655 S
C2071 C751 2.741 . S
C2065 C21 2.683 . S
C2091 C878 2.483 . S
C2085 C36 2.508 . S
C2111 C911 1.571 . S
C2105 C259 1.520 . S
C2125 C185 1.439 . S
C2131 C819 1.438 . S
C2151 C938 0.465 . S
C2145 C203 0.497 . S
C2171 C798 2.158 . S
C2165 C213 2.158 . S
C2191 C665 0.468 . S
C2185 C255 0.420 . S
C2205 C189 2.297 . S
C2211 C711 2.301 . S
C2231 C762 0.559 . S
C2225 C199 0.505 . S
C2245 C217 2.269 . S
C2251 C871 2.339 . S
C2271 C922 1.775 . S
C2265 C316 1.804 . S
C2285 C135 2.247 . S
C2291 C498 2.218 . S
C2311 C562 1.310 . S
C2305 C148 1.326 . S
C2331 C598 1.414 . S
C2325 C163 1.415 . S
C2351 C882 1.357 . S
C2345 C302 1.342 . S
C2365 C288 2.597 . S
C2371 C939 2.600 1_655 S
C2391 C471 1.411 . S
C2385 C149 1.386 . S
C2411 C385 0.384 . S
C2405 C121 0.287 . S
C2425 C87 1.852 . S
C2431 C899 1.844 . S
C2451 C391 1.246 . S
C2445 C79 1.246 . S
C2465 C63 0.751 . S
C2471 C962 0.748 . S
C2485 C106 1.068 . S
C2491 C465 1.062 . S
C2505 C35 2.712 . S
C2511 C678 2.733 1_556 S
C2531 C539 1.837 . S
C2525 C23 1.847 . S
C2545 C3 2.792 . S
C2551 C738 2.785 . S
C2565 C50 2.501 . S
C2571 C619 2.478 . S
C2591 C898 1.570 . S
C2585 C325 1.556 . S
C2605 C161 1.523 . S
C2611 C398 1.518 . S
C2631 C951 0.499 . S
C2625 C297 0.497 . S
C2645 C133 2.106 . S
C2651 C459 2.197 . S
C2665 C329 0.446 . S
C2671 C682 0.484 . S
C2691 C538 2.355 . S
C2685 C157 2.358 1_556 S
C2705 C301 0.596 . S
C2711 C745 0.566 . S
C2731 C618 2.366 . S
C2725 C129 2.376 . S
C2751 C905 1.728 . S
C2745 C246 1.744 . S
C2771 C511 2.237 1_665 S
C2765 C219 2.264 . S
C2785 C232 1.308 . S
C2791 C705 1.318 . S
C2811 C579 1.433 . S
C2805 C191 1.457 . S
C2825 C204 1.295 . S
C2831 C625 1.326 . S
C2845 C176 2.635 . S
C2851 C958 2.634 . S
C2871 C778 1.470 . S
C2865 C233 1.443 . S
C2891 C842 0.402 . S
C2885 C275 0.341 . S
