# Generated by pormake.
# Topology gar, (4,6)-cn, num edge types: 1
# Building blocks:
#     Node 0, Type 0, BuildingBlock: GALJAG_clean_sbu_0, # of connection points: 4
#     Node 1, Type 0, BuildingBlock: GALJAG_clean_sbu_0, # of connection points: 4
#     Node 2, Type 0, BuildingBlock: GALJAG_clean_sbu_0, # of connection points: 4
#     Node 3, Type 0, BuildingBlock: GALJAG_clean_sbu_0, # of connection points: 4
#     Node 4, Type 0, BuildingBlock: GALJAG_clean_sbu_0, # of connection points: 4
#     Node 5, Type 0, BuildingBlock: GALJAG_clean_sbu_0, # of connection points: 4
#     Node 6, Type 0, BuildingBlock: GALJAG_clean_sbu_0, # of connection points: 4
#     Node 7, Type 0, BuildingBlock: GALJAG_clean_sbu_0, # of connection points: 4
#     Node 8, Type 0, BuildingBlock: GALJAG_clean_sbu_0, # of connection points: 4
#     Node 9, Type 0, BuildingBlock: GALJAG_clean_sbu_0, # of connection points: 4
#     Node 10, Type 0, BuildingBlock: GALJAG_clean_sbu_0, # of connection points: 4
#     Node 11, Type 0, BuildingBlock: GALJAG_clean_sbu_0, # of connection points: 4
#     Node 12, Type 0, BuildingBlock: GALJAG_clean_sbu_0, # of connection points: 4
#     Node 13, Type 0, BuildingBlock: GALJAG_clean_sbu_0, # of connection points: 4
#     Node 14, Type 0, BuildingBlock: GALJAG_clean_sbu_0, # of connection points: 4
#     Node 15, Type 0, BuildingBlock: GALJAG_clean_sbu_0, # of connection points: 4
#     Node 16, Type 0, BuildingBlock: GALJAG_clean_sbu_0, # of connection points: 4
#     Node 17, Type 0, BuildingBlock: GALJAG_clean_sbu_0, # of connection points: 4
#     Node 18, Type 0, BuildingBlock: GALJAG_clean_sbu_0, # of connection points: 4
#     Node 19, Type 0, BuildingBlock: GALJAG_clean_sbu_0, # of connection points: 4
#     Node 20, Type 0, BuildingBlock: GALJAG_clean_sbu_0, # of connection points: 4
#     Node 21, Type 0, BuildingBlock: GALJAG_clean_sbu_0, # of connection points: 4
#     Node 22, Type 0, BuildingBlock: GALJAG_clean_sbu_0, # of connection points: 4
#     Node 23, Type 0, BuildingBlock: GALJAG_clean_sbu_0, # of connection points: 4
#     Node 24, Type 1, BuildingBlock: KUMBUR_clean_sbu_0, # of connection points: 6
#     Node 25, Type 1, BuildingBlock: KUMBUR_clean_sbu_0, # of connection points: 6
#     Node 26, Type 1, BuildingBlock: KUMBUR_clean_sbu_0, # of connection points: 6
#     Node 27, Type 1, BuildingBlock: KUMBUR_clean_sbu_0, # of connection points: 6
#     Node 28, Type 1, BuildingBlock: KUMBUR_clean_sbu_0, # of connection points: 6
#     Node 29, Type 1, BuildingBlock: KUMBUR_clean_sbu_0, # of connection points: 6
#     Node 30, Type 1, BuildingBlock: KUMBUR_clean_sbu_0, # of connection points: 6
#     Node 31, Type 1, BuildingBlock: KUMBUR_clean_sbu_0, # of connection points: 6
#     Node 32, Type 1, BuildingBlock: KUMBUR_clean_sbu_0, # of connection points: 6
#     Node 33, Type 1, BuildingBlock: KUMBUR_clean_sbu_0, # of connection points: 6
#     Node 34, Type 1, BuildingBlock: KUMBUR_clean_sbu_0, # of connection points: 6
#     Node 35, Type 1, BuildingBlock: KUMBUR_clean_sbu_0, # of connection points: 6
#     Node 36, Type 1, BuildingBlock: KUMBUR_clean_sbu_0, # of connection points: 6
#     Node 37, Type 1, BuildingBlock: KUMBUR_clean_sbu_0, # of connection points: 6
#     Node 38, Type 1, BuildingBlock: KUMBUR_clean_sbu_0, # of connection points: 6
#     Node 39, Type 1, BuildingBlock: KUMBUR_clean_sbu_0, # of connection points: 6
#     Edge 40, Type (0, 1), BuildingBlock: UVAHIK_clean_linker_0, # of connection points: 2
#     Edge 41, Type (0, 1), BuildingBlock: UVAHIK_clean_linker_0, # of connection points: 2
#     Edge 42, Type (0, 1), BuildingBlock: UVAHIK_clean_linker_0, # of connection points: 2
#     Edge 43, Type (0, 1), BuildingBlock: UVAHIK_clean_linker_0, # of connection points: 2
#     Edge 44, Type (0, 1), BuildingBlock: UVAHIK_clean_linker_0, # of connection points: 2
#     Edge 45, Type (0, 1), BuildingBlock: UVAHIK_clean_linker_0, # of connection points: 2
#     Edge 46, Type (0, 1), BuildingBlock: UVAHIK_clean_linker_0, # of connection points: 2
#     Edge 47, Type (0, 1), BuildingBlock: UVAHIK_clean_linker_0, # of connection points: 2
#     Edge 48, Type (0, 1), BuildingBlock: UVAHIK_clean_linker_0, # of connection points: 2
#     Edge 49, Type (0, 1), BuildingBlock: UVAHIK_clean_linker_0, # of connection points: 2
#     Edge 50, Type (0, 1), BuildingBlock: UVAHIK_clean_linker_0, # of connection points: 2
#     Edge 51, Type (0, 1), BuildingBlock: UVAHIK_clean_linker_0, # of connection points: 2
#     Edge 52, Type (0, 1), BuildingBlock: UVAHIK_clean_linker_0, # of connection points: 2
#     Edge 53, Type (0, 1), BuildingBlock: UVAHIK_clean_linker_0, # of connection points: 2
#     Edge 54, Type (0, 1), BuildingBlock: UVAHIK_clean_linker_0, # of connection points: 2
#     Edge 55, Type (0, 1), BuildingBlock: UVAHIK_clean_linker_0, # of connection points: 2
#     Edge 56, Type (0, 1), BuildingBlock: UVAHIK_clean_linker_0, # of connection points: 2
#     Edge 57, Type (0, 1), BuildingBlock: UVAHIK_clean_linker_0, # of connection points: 2
#     Edge 58, Type (0, 1), BuildingBlock: UVAHIK_clean_linker_0, # of connection points: 2
#     Edge 59, Type (0, 1), BuildingBlock: UVAHIK_clean_linker_0, # of connection points: 2
#     Edge 60, Type (0, 1), BuildingBlock: UVAHIK_clean_linker_0, # of connection points: 2
#     Edge 61, Type (0, 1), BuildingBlock: UVAHIK_clean_linker_0, # of connection points: 2
#     Edge 62, Type (0, 1), BuildingBlock: UVAHIK_clean_linker_0, # of connection points: 2
#     Edge 63, Type (0, 1), BuildingBlock: UVAHIK_clean_linker_0, # of connection points: 2
#     Edge 64, Type (0, 1), BuildingBlock: UVAHIK_clean_linker_0, # of connection points: 2
#     Edge 65, Type (0, 1), BuildingBlock: UVAHIK_clean_linker_0, # of connection points: 2
#     Edge 66, Type (0, 1), BuildingBlock: UVAHIK_clean_linker_0, # of connection points: 2
#     Edge 67, Type (0, 1), BuildingBlock: UVAHIK_clean_linker_0, # of connection points: 2
#     Edge 68, Type (0, 1), BuildingBlock: UVAHIK_clean_linker_0, # of connection points: 2
#     Edge 69, Type (0, 1), BuildingBlock: UVAHIK_clean_linker_0, # of connection points: 2
#     Edge 70, Type (0, 1), BuildingBlock: UVAHIK_clean_linker_0, # of connection points: 2
#     Edge 71, Type (0, 1), BuildingBlock: UVAHIK_clean_linker_0, # of connection points: 2
#     Edge 72, Type (0, 1), BuildingBlock: UVAHIK_clean_linker_0, # of connection points: 2
#     Edge 73, Type (0, 1), BuildingBlock: UVAHIK_clean_linker_0, # of connection points: 2
#     Edge 74, Type (0, 1), BuildingBlock: UVAHIK_clean_linker_0, # of connection points: 2
#     Edge 75, Type (0, 1), BuildingBlock: UVAHIK_clean_linker_0, # of connection points: 2
#     Edge 76, Type (0, 1), BuildingBlock: UVAHIK_clean_linker_0, # of connection points: 2
#     Edge 77, Type (0, 1), BuildingBlock: UVAHIK_clean_linker_0, # of connection points: 2
#     Edge 78, Type (0, 1), BuildingBlock: UVAHIK_clean_linker_0, # of connection points: 2
#     Edge 79, Type (0, 1), BuildingBlock: UVAHIK_clean_linker_0, # of connection points: 2
#     Edge 80, Type (0, 1), BuildingBlock: UVAHIK_clean_linker_0, # of connection points: 2
#     Edge 81, Type (0, 1), BuildingBlock: UVAHIK_clean_linker_0, # of connection points: 2
#     Edge 82, Type (0, 1), BuildingBlock: UVAHIK_clean_linker_0, # of connection points: 2
#     Edge 83, Type (0, 1), BuildingBlock: UVAHIK_clean_linker_0, # of connection points: 2
#     Edge 84, Type (0, 1), BuildingBlock: UVAHIK_clean_linker_0, # of connection points: 2
#     Edge 85, Type (0, 1), BuildingBlock: UVAHIK_clean_linker_0, # of connection points: 2
#     Edge 86, Type (0, 1), BuildingBlock: UVAHIK_clean_linker_0, # of connection points: 2
#     Edge 87, Type (0, 1), BuildingBlock: UVAHIK_clean_linker_0, # of connection points: 2
#     Edge 88, Type (0, 1), BuildingBlock: UVAHIK_clean_linker_0, # of connection points: 2
#     Edge 89, Type (0, 1), BuildingBlock: UVAHIK_clean_linker_0, # of connection points: 2
#     Edge 90, Type (0, 1), BuildingBlock: UVAHIK_clean_linker_0, # of connection points: 2
#     Edge 91, Type (0, 1), BuildingBlock: UVAHIK_clean_linker_0, # of connection points: 2
#     Edge 92, Type (0, 1), BuildingBlock: UVAHIK_clean_linker_0, # of connection points: 2
#     Edge 93, Type (0, 1), BuildingBlock: UVAHIK_clean_linker_0, # of connection points: 2
#     Edge 94, Type (0, 1), BuildingBlock: UVAHIK_clean_linker_0, # of connection points: 2
#     Edge 95, Type (0, 1), BuildingBlock: UVAHIK_clean_linker_0, # of connection points: 2
#     Edge 96, Type (0, 1), BuildingBlock: UVAHIK_clean_linker_0, # of connection points: 2
#     Edge 97, Type (0, 1), BuildingBlock: UVAHIK_clean_linker_0, # of connection points: 2
#     Edge 98, Type (0, 1), BuildingBlock: UVAHIK_clean_linker_0, # of connection points: 2
#     Edge 99, Type (0, 1), BuildingBlock: UVAHIK_clean_linker_0, # of connection points: 2
#     Edge 100, Type (0, 1), BuildingBlock: UVAHIK_clean_linker_0, # of connection points: 2
#     Edge 101, Type (0, 1), BuildingBlock: UVAHIK_clean_linker_0, # of connection points: 2
#     Edge 102, Type (0, 1), BuildingBlock: UVAHIK_clean_linker_0, # of connection points: 2
#     Edge 103, Type (0, 1), BuildingBlock: UVAHIK_clean_linker_0, # of connection points: 2
#     Edge 104, Type (0, 1), BuildingBlock: UVAHIK_clean_linker_0, # of connection points: 2
#     Edge 105, Type (0, 1), BuildingBlock: UVAHIK_clean_linker_0, # of connection points: 2
#     Edge 106, Type (0, 1), BuildingBlock: UVAHIK_clean_linker_0, # of connection points: 2
#     Edge 107, Type (0, 1), BuildingBlock: UVAHIK_clean_linker_0, # of connection points: 2
#     Edge 108, Type (0, 1), BuildingBlock: UVAHIK_clean_linker_0, # of connection points: 2
#     Edge 109, Type (0, 1), BuildingBlock: UVAHIK_clean_linker_0, # of connection points: 2
#     Edge 110, Type (0, 1), BuildingBlock: UVAHIK_clean_linker_0, # of connection points: 2
#     Edge 111, Type (0, 1), BuildingBlock: UVAHIK_clean_linker_0, # of connection points: 2
#     Edge 112, Type (0, 1), BuildingBlock: UVAHIK_clean_linker_0, # of connection points: 2
#     Edge 113, Type (0, 1), BuildingBlock: UVAHIK_clean_linker_0, # of connection points: 2
#     Edge 114, Type (0, 1), BuildingBlock: UVAHIK_clean_linker_0, # of connection points: 2
#     Edge 115, Type (0, 1), BuildingBlock: UVAHIK_clean_linker_0, # of connection points: 2
#     Edge 116, Type (0, 1), BuildingBlock: UVAHIK_clean_linker_0, # of connection points: 2
#     Edge 117, Type (0, 1), BuildingBlock: UVAHIK_clean_linker_0, # of connection points: 2
#     Edge 118, Type (0, 1), BuildingBlock: UVAHIK_clean_linker_0, # of connection points: 2
#     Edge 119, Type (0, 1), BuildingBlock: UVAHIK_clean_linker_0, # of connection points: 2
#     Edge 120, Type (0, 1), BuildingBlock: UVAHIK_clean_linker_0, # of connection points: 2
#     Edge 121, Type (0, 1), BuildingBlock: UVAHIK_clean_linker_0, # of connection points: 2
#     Edge 122, Type (0, 1), BuildingBlock: UVAHIK_clean_linker_0, # of connection points: 2
#     Edge 123, Type (0, 1), BuildingBlock: UVAHIK_clean_linker_0, # of connection points: 2
#     Edge 124, Type (0, 1), BuildingBlock: UVAHIK_clean_linker_0, # of connection points: 2
#     Edge 125, Type (0, 1), BuildingBlock: UVAHIK_clean_linker_0, # of connection points: 2
#     Edge 126, Type (0, 1), BuildingBlock: UVAHIK_clean_linker_0, # of connection points: 2
#     Edge 127, Type (0, 1), BuildingBlock: UVAHIK_clean_linker_0, # of connection points: 2
#     Edge 128, Type (0, 1), BuildingBlock: UVAHIK_clean_linker_0, # of connection points: 2
#     Edge 129, Type (0, 1), BuildingBlock: UVAHIK_clean_linker_0, # of connection points: 2
#     Edge 130, Type (0, 1), BuildingBlock: UVAHIK_clean_linker_0, # of connection points: 2
#     Edge 131, Type (0, 1), BuildingBlock: UVAHIK_clean_linker_0, # of connection points: 2
#     Edge 132, Type (0, 1), BuildingBlock: UVAHIK_clean_linker_0, # of connection points: 2
#     Edge 133, Type (0, 1), BuildingBlock: UVAHIK_clean_linker_0, # of connection points: 2
#     Edge 134, Type (0, 1), BuildingBlock: UVAHIK_clean_linker_0, # of connection points: 2
#     Edge 135, Type (0, 1), BuildingBlock: UVAHIK_clean_linker_0, # of connection points: 2
# Relax obj value: 0.129
# Max RMSD: 0.309
# Mean RMSD: 0.166
data_MOF--net-gar--node1-GALJAG_clean_sbu_0--node2-KUMBUR_clean_sbu_0--edge1-UVAHIK_clean_linker_0
_symmetry_space_group_name_H-M    P1
_symmetry_Int_Tables_number       1
_symmetry_cell_setting            triclinic
loop_
_symmetry_equiv_pos_as_xyz
'x, y, z'
_cell_length_a     76.80745
_cell_length_b     71.858868
_cell_length_c     71.822313
_cell_angle_alpha  99.768207
_cell_angle_beta   93.030995
_cell_angle_gamma 101.54626
loop_
_atom_site_label
_atom_site_type_symbol
_atom_site_fract_x
_atom_site_fract_y
_atom_site_fract_z
_atom_type_partial_charge
In0 In 0.10099 0.31785 0.39517 0.0
O1 O 0.11168 0.3061 0.36835 0.0
O2 O 0.13027 0.32517 0.38983 0.0
C3 C 0.06747 0.31673 0.38255 0.0
C4 C 0.09879 0.28782 0.41283 0.0
C5 C 0.10761 0.3554 0.40818 0.0
O6 O 0.07876 0.31179 0.37167 0.0
O7 O 0.07292 0.32171 0.39991 0.0
O8 O 0.10858 0.34354 0.4192 0.0
O9 O 0.104 0.34818 0.39078 0.0
C10 C 0.12752 0.31493 0.37345 0.0
O11 O 0.10538 0.30481 0.42149 0.0
O12 O 0.09348 0.28634 0.39569 0.0
In13 In 0.00534 0.76813 0.66605 0.0
O14 O 0.00501 0.77788 0.63779 0.0
O15 O 0.01254 0.79932 0.663 0.0
C16 C 0.99583 0.73022 0.65458 0.0
C17 C 0.0394 0.77189 0.67722 0.0
C18 C 0.9769 0.77161 0.68447 0.0
O19 O 0.99265 0.74196 0.64426 0.0
O20 O 0.00398 0.73761 0.67066 0.0
O21 O 0.99152 0.77133 0.69325 0.0
O22 O 0.97719 0.77113 0.6669 0.0
C23 C 0.01007 0.79556 0.64513 0.0
O24 O 0.02922 0.77999 0.68762 0.0
O25 O 0.03232 0.76207 0.66141 0.0
In26 In 0.59843 0.81645 0.89714 0.0
O27 O 0.60861 0.80131 0.8717 0.0
O28 O 0.62717 0.8233 0.89104 0.0
C29 C 0.56593 0.81478 0.88121 0.0
C30 C 0.598 0.78839 0.91682 0.0
C31 C 0.60669 0.85399 0.91157 0.0
O32 O 0.5798 0.81796 0.87275 0.0
O33 O 0.56814 0.81137 0.89771 0.0
O34 O 0.6064 0.84149 0.92208 0.0
O35 O 0.60341 0.84737 0.89408 0.0
C36 C 0.62431 0.81112 0.87573 0.0
O37 O 0.5973 0.8053 0.92473 0.0
O38 O 0.59895 0.78586 0.89916 0.0
In39 In 0.50394 0.26649 0.16727 0.0
O40 O 0.49171 0.24063 0.14496 0.0
O41 O 0.5012 0.23578 0.17192 0.0
C42 C 0.50956 0.29393 0.14644 0.0
C43 C 0.47545 0.27114 0.1854 0.0
C44 C 0.53805 0.26956 0.17838 0.0
O45 O 0.50278 0.27654 0.13916 0.0
O46 O 0.51327 0.29743 0.16417 0.0
O47 O 0.528 0.27793 0.18875 0.0
O48 O 0.53076 0.25963 0.16269 0.0
C49 C 0.49378 0.22866 0.15546 0.0
O50 O 0.48978 0.27011 0.19429 0.0
O51 O 0.47606 0.27078 0.16789 0.0
In52 In 0.08159 0.81195 0.11985 0.0
O53 O 0.08406 0.78729 0.09484 0.0
O54 O 0.071 0.77974 0.11853 0.0
C55 C 0.0823 0.84351 0.10245 0.0
C56 C 0.05116 0.81097 0.13785 0.0
C57 C 0.1133 0.81673 0.14147 0.0
O58 O 0.07672 0.82633 0.09376 0.0
O59 O 0.08817 0.84467 0.11943 0.0
O60 O 0.0997 0.82199 0.14782 0.0
O61 O 0.11125 0.80968 0.12394 0.0
C62 C 0.07612 0.77385 0.10265 0.0
O63 O 0.06607 0.81099 0.14613 0.0
O64 O 0.05155 0.81178 0.12046 0.0
In65 In 0.51625 0.76742 0.42738 0.0
O66 O 0.5324 0.76311 0.40101 0.0
O67 O 0.54686 0.77593 0.42751 0.0
C68 C 0.48309 0.76685 0.40925 0.0
C69 C 0.51757 0.73598 0.44451 0.0
C70 C 0.52185 0.8038 0.4481 0.0
O71 O 0.49578 0.76205 0.40043 0.0
O72 O 0.48682 0.77097 0.42694 0.0
O73 O 0.51456 0.78909 0.4545 0.0
O74 O 0.52641 0.80011 0.43144 0.0
C75 C 0.54756 0.77016 0.41001 0.0
O76 O 0.51832 0.75274 0.45365 0.0
O77 O 0.51526 0.73477 0.4268 0.0
In78 In 0.58168 0.31213 0.62023 0.0
O79 O 0.58449 0.28746 0.59535 0.0
O80 O 0.57077 0.27992 0.61863 0.0
C81 C 0.58233 0.34352 0.60252 0.0
C82 C 0.55137 0.31143 0.63849 0.0
C83 C 0.61335 0.3168 0.64197 0.0
O84 O 0.57582 0.32634 0.59433 0.0
O85 O 0.58915 0.34477 0.61917 0.0
O86 O 0.59964 0.32175 0.64836 0.0
O87 O 0.61144 0.31013 0.62435 0.0
C88 C 0.5762 0.27402 0.60293 0.0
O89 O 0.56627 0.31122 0.64665 0.0
O90 O 0.55174 0.3124 0.62113 0.0
In91 In 0.01691 0.26905 0.92697 0.0
O92 O 0.01783 0.25409 0.95319 0.0
O93 O 0.01732 0.23677 0.92619 0.0
C94 C 0.01968 0.30545 0.94731 0.0
C95 C 0.04856 0.27121 0.91021 0.0
C96 C 0.98393 0.26642 0.90766 0.0
O97 O 0.01924 0.29098 0.95528 0.0
O98 O 0.01907 0.30153 0.92948 0.0
O99 O 0.99866 0.27121 0.90092 0.0
O100 O 0.98561 0.26172 0.92373 0.0
C101 C 0.01838 0.23763 0.94394 0.0
O102 O 0.03381 0.26142 0.90196 0.0
O103 O 0.04733 0.28001 0.92669 0.0
In104 In 0.42174 0.04597 0.3036 0.0
O105 O 0.44191 0.05554 0.28347 0.0
O106 O 0.41747 0.03581 0.27233 0.0
C107 C 0.44239 0.05316 0.33524 0.0
C108 C 0.40074 0.0706 0.30342 0.0
C109 C 0.40523 0.01131 0.30794 0.0
O110 O 0.44568 0.04238 0.32068 0.0
O111 O 0.42982 0.06165 0.33307 0.0
O112 O 0.39976 0.02631 0.31446 0.0
O113 O 0.41915 0.01391 0.29931 0.0
C114 C 0.43212 0.04559 0.26908 0.0
O115 O 0.39483 0.05262 0.30142 0.0
O116 O 0.41753 0.07623 0.30539 0.0
In117 In 0.29489 0.19093 0.50997 0.0
O118 O 0.29513 0.21856 0.5325 0.0
O119 O 0.29872 0.19304 0.54185 0.0
C120 C 0.29631 0.20342 0.47622 0.0
C121 C 0.32318 0.17405 0.51185 0.0
C122 C 0.26139 0.16888 0.50552 0.0
O123 O 0.3014 0.21501 0.49179 0.0
O124 O 0.29067 0.18618 0.47795 0.0
O125 O 0.27489 0.16231 0.50095 0.0
O126 O 0.26467 0.18675 0.51238 0.0
C127 C 0.29758 0.21043 0.54647 0.0
O128 O 0.30746 0.16583 0.51376 0.0
O129 O 0.32486 0.19105 0.50868 0.0
In130 In 0.17233 0.01256 0.77341 0.0
O131 O 0.14695 1.00334 0.74947 0.0
O132 O 0.17046 0.01894 0.74184 0.0
C133 C 0.1549 0.01478 0.80834 0.0
C134 C 0.1912 0.98089 0.77051 0.0
C135 C 0.19211 0.05098 0.77911 0.0
O136 O 0.1469 0.01234 0.79193 0.0
O137 O 0.17143 0.01568 0.80725 0.0
O138 O 0.19919 0.03644 0.77828 0.0
O139 O 0.17528 0.04628 0.77771 0.0
C140 C 0.15427 0.01139 0.7366 0.0
O141 O 0.19807 0.9982 0.76956 0.0
O142 O 0.17467 0.97911 0.77252 0.0
In143 In 0.31337 0.9269 0.01772 0.0
O144 O 0.30066 0.9053 0.03491 0.0
O145 O 0.3183 0.93151 0.04907 0.0
C146 C 0.31114 0.90372 0.98478 0.0
C147 C 0.29058 0.95003 0.01958 0.0
C148 C 0.34807 0.93859 0.01747 0.0
O149 O 0.31078 0.8974 1.00017 0.0
O150 O 0.31109 0.92142 0.98608 0.0
O151 O 0.33702 0.94637 0.00967 0.0
O152 O 0.34168 0.92525 0.02603 0.0
C153 C 0.3084 0.91559 0.05033 0.0
O154 O 0.30665 0.95593 0.0262 0.0
O155 O 0.2861 0.93252 0.0116 0.0
In156 In 0.30762 0.39379 0.03865 0.0
O157 O 0.30323 0.36617 0.0512 0.0
O158 O 0.30432 0.39272 0.06993 0.0
C159 C 0.30738 0.37412 1.00302 0.0
C160 C 0.27766 0.40849 0.03843 0.0
C161 C 0.34153 0.41562 0.04224 0.0
O162 O 0.30532 0.36568 0.01707 0.0
O163 O 0.30938 0.39225 0.00702 0.0
O164 O 0.32803 0.42134 0.03664 0.0
O165 O 0.33793 0.39916 0.04679 0.0
C166 C 0.30216 0.37459 0.06788 0.0
O167 O 0.2917 0.41695 0.04887 0.0
O168 O 0.27879 0.39283 0.0281 0.0
In169 In 0.78527 0.13585 0.02608 0.0
O170 O 0.80163 0.11347 0.03098 0.0
O171 O 0.81414 0.1387 0.02122 0.0
C172 C 0.75207 0.11601 0.02709 0.0
C173 C 0.78815 0.16293 0.05688 0.0
C174 C 0.78251 0.15367 0.99692 0.0
O175 O 0.76063 0.11267 0.01279 0.0
O176 O 0.76076 0.1279 0.0409 0.0
O177 O 0.78731 0.16233 0.0137 0.0
O178 O 0.77939 0.1354 0.99441 0.0
C179 C 0.81577 0.1233 0.02648 0.0
O180 O 0.78402 0.16554 0.04047 0.0
O181 O 0.79131 0.14649 0.05787 0.0
In182 In 0.19526 0.54263 0.24383 0.0
O183 O 0.21403 0.52278 0.23573 0.0
O184 O 0.1906 0.51278 0.24917 0.0
C185 C 0.21714 0.57617 0.24552 0.0
C186 C 0.17431 0.53024 0.21216 0.0
C187 C 0.18178 0.55197 0.27638 0.0
O188 O 0.22221 0.5624 0.25153 0.0
O189 O 0.20137 0.57249 0.23786 0.0
O190 O 0.1749 0.5543 0.2608 0.0
O191 O 0.19556 0.54492 0.27549 0.0
C192 C 0.20401 0.50894 0.24125 0.0
O193 O 0.16877 0.52925 0.22824 0.0
O194 O 0.19032 0.53881 0.21201 0.0
In195 In 0.80778 0.89588 0.53835 0.0
O196 O 0.80499 0.8685 0.55093 0.0
O197 O 0.80351 0.89454 0.56931 0.0
C198 C 0.80684 0.87701 0.50241 0.0
C199 C 0.77768 0.91004 0.53882 0.0
C200 C 0.84171 0.91735 0.54241 0.0
O201 O 0.80585 0.86838 0.51635 0.0
O202 O 0.80813 0.89502 0.50663 0.0
O203 O 0.82833 0.92358 0.53733 0.0
O204 O 0.83795 0.90056 0.54614 0.0
C205 C 0.80274 0.8766 0.56737 0.0
O206 O 0.79233 0.91957 0.54748 0.0
O207 O 0.77828 0.89352 0.52988 0.0
In208 In 0.9312 0.06858 0.27748 0.0
O209 O 0.95659 0.07877 0.26051 0.0
O210 O 0.93458 0.05991 0.24452 0.0
C211 C 0.95149 0.06776 0.31225 0.0
C212 C 0.91343 0.10104 0.27689 0.0
C213 C 0.91015 0.0305 0.27537 0.0
O214 O 0.95715 0.06544 0.29596 0.0
O215 O 0.93613 0.07162 0.31133 0.0
O216 O 0.90581 0.04568 0.2837 0.0
O217 O 0.92443 0.03449 0.26756 0.0
C218 C 0.9503 0.06939 0.24414 0.0
O219 O 0.90716 0.08373 0.26867 0.0
O220 O 0.92848 0.10217 0.28569 0.0
In221 In 0.2834 0.64049 0.52625 0.0
O222 O 0.29853 0.6165 0.52647 0.0
O223 O 0.31266 0.64508 0.52516 0.0
C224 C 0.24907 0.62439 0.5239 0.0
C225 C 0.28456 0.65831 0.56166 0.0
C226 C 0.2853 0.65786 0.49662 0.0
O227 O 0.26027 0.61409 0.51903 0.0
O228 O 0.25538 0.64216 0.52925 0.0
O229 O 0.29146 0.66655 0.51312 0.0
O230 O 0.27838 0.64008 0.49494 0.0
C231 C 0.31333 0.62787 0.52593 0.0
O232 O 0.28206 0.66625 0.5477 0.0
O233 O 0.28732 0.6414 0.55794 0.0
In234 In 0.43145 0.56922 0.77701 0.0
O235 O 0.4071 0.5843 0.76879 0.0
O236 O 0.42895 0.60299 0.78467 0.0
C237 C 0.41079 0.5309 0.77425 0.0
C238 C 0.45062 0.56992 0.74375 0.0
C239 C 0.4515 0.56802 0.81187 0.0
O240 O 0.40617 0.54589 0.78267 0.0
O241 O 0.42516 0.53522 0.76666 0.0
O242 O 0.45757 0.56682 0.79577 0.0
O243 O 0.43582 0.57101 0.81079 0.0
C244 C 0.41362 0.60174 0.77641 0.0
O245 O 0.45693 0.57919 0.76015 0.0
O246 O 0.43481 0.56062 0.74404 0.0
In247 In 0.69678 0.04002 0.74417 0.0
O248 O 0.7169 0.02158 0.73593 0.0
O249 O 0.695 0.01109 0.75126 0.0
C250 C 0.71684 0.07466 0.74514 0.0
C251 C 0.6747 0.02646 0.71311 0.0
C252 C 0.6828 0.04923 0.77654 0.0
O253 O 0.72312 0.06145 0.75087 0.0
O254 O 0.70084 0.0699 0.73813 0.0
O255 O 0.67567 0.0506 0.76073 0.0
O256 O 0.69713 0.0432 0.77605 0.0
C257 C 0.7084 0.00786 0.74296 0.0
O258 O 0.67035 0.02421 0.72937 0.0
O259 O 0.69022 0.03616 0.71246 0.0
In260 In 0.79507 0.69033 0.00959 0.0
O261 O 0.80873 0.66482 0.00456 0.0
O262 O 0.82535 0.69264 0.01374 0.0
C263 C 0.762 0.66773 0.00731 0.0
C264 C 0.79699 0.70879 0.04624 0.0
C265 C 0.79533 0.70419 0.97647 0.0
O266 O 0.77571 0.66105 1.00377 0.0
O267 O 0.76491 0.68591 0.01221 0.0
O268 O 0.80286 0.71464 0.99187 0.0
O269 O 0.78768 0.68745 0.97808 0.0
C270 C 0.82433 0.67471 0.00909 0.0
O271 O 0.7949 0.71728 0.03246 0.0
O272 O 0.79806 0.69137 0.0414 0.0
In273 In 0.92042 0.54738 0.80412 0.0
O274 O 0.89389 0.55531 0.80385 0.0
O275 O 0.91722 0.57811 0.80783 0.0
C276 C 0.90422 0.51171 0.80571 0.0
C277 C 0.9304 0.54926 0.76977 0.0
C278 C 0.94267 0.5512 0.83405 0.0
O279 O 0.8989 0.52619 0.81401 0.0
O280 O 0.91771 0.51534 0.7966 0.0
O281 O 0.94597 0.54379 0.81779 0.0
O282 O 0.92894 0.55825 0.8348 0.0
C283 C 0.90041 0.57321 0.80639 0.0
O284 O 0.93943 0.55976 0.78438 0.0
O285 O 0.91644 0.53789 0.77261 0.0
In286 In 0.81261 0.42561 0.51883 0.0
O287 O 0.80679 0.40424 0.53786 0.0
O288 O 0.81644 0.43415 0.55048 0.0
C289 C 0.80905 0.40331 0.48524 0.0
C290 C 0.78617 0.44384 0.5195 0.0
C291 C 0.84725 0.43796 0.5192 0.0
O292 O 0.80793 0.39644 0.50029 0.0
O293 O 0.81058 0.42132 0.48717 0.0
O294 O 0.83623 0.4476 0.51451 0.0
O295 O 0.8409 0.42228 0.52429 0.0
C296 C 0.81162 0.41687 0.55276 0.0
O297 O 0.80214 0.45262 0.5194 0.0
O298 O 0.78364 0.42586 0.51906 0.0
In299 In 0.67234 0.51147 0.27392 0.0
O300 O 0.69823 0.49743 0.26967 0.0
O301 O 0.67494 0.47812 0.2726 0.0
C302 C 0.69238 0.54967 0.27948 0.0
C303 C 0.65417 0.51039 0.23714 0.0
C304 C 0.65511 0.51372 0.30906 0.0
O305 O 0.69934 0.53515 0.2798 0.0
O306 O 0.67556 0.54505 0.27702 0.0
O307 O 0.64706 0.51188 0.29276 0.0
O308 O 0.67151 0.51408 0.30772 0.0
C309 C 0.69147 0.48006 0.27056 0.0
O310 O 0.64782 0.50012 0.24896 0.0
O311 O 0.66951 0.5202 0.2434 0.0
Tb312 Tb 0.03535 0.03329 0.01824 0.0
C313 C 0.08805 0.0999 0.06465 0.0
C314 C 0.09236 0.12271 0.04321 0.0
C315 C 0.09827 0.13426 0.07721 0.0
C316 C 0.08723 0.10363 0.04645 0.0
C317 C 0.09415 0.11511 0.08022 0.0
C318 C 0.09736 0.13805 0.05872 0.0
C319 C 0.09468 0.09121 0.10004 0.0
N320 N 0.0848 0.08118 0.06686 0.0
C321 C 0.08898 0.07664 0.0841 0.0
C322 C 0.097 0.11055 0.09816 0.0
Tb323 Tb 0.07732 0.05831 0.03973 0.0
N324 N 0.08317 0.08837 0.03184 0.0
C325 C 0.08524 0.09114 0.01364 0.0
C326 C 0.09331 0.12569 0.02451 0.0
C327 C 0.09001 0.10979 0.00968 0.0
H328 H 0.0877 0.06174 0.0856 0.0
H329 H 0.09123 0.11188 0.99519 0.0
H330 H 0.10127 0.15281 0.05653 0.0
H331 H 0.09753 0.08751 0.11371 0.0
H332 H 0.08292 0.07904 1.00204 0.0
H333 H 0.01575 0.99345 0.07566 0.0
H334 H 0.09723 0.14011 0.02142 0.0
H335 H 0.03579 0.0157 0.97123 0.0
H336 H 0.02761 0.02145 0.06325 0.0
H337 H 0.03087 0.98481 0.95036 0.0
H338 H 0.1029 0.14615 0.08899 0.0
H339 H 0.00857 0.96138 0.05512 0.0
H340 H 0.00769 0.94133 0.02339 0.0
H341 H 0.10176 0.12181 0.11046 0.0
H342 H 0.01275 0.93886 0.98977 0.0
N343 N 0.02659 0.00729 0.03403 0.0
C344 C 0.02396 0.00845 0.05303 0.0
C345 C 0.01357 0.97405 0.04909 0.0
C346 C 0.01645 0.97249 0.02997 0.0
C347 C 0.01748 0.99209 0.06066 0.0
C348 C 0.02315 0.98946 0.02273 0.0
H349 H 0.02175 0.95475 0.96274 0.0
N350 N 0.0329 1.00437 0.99714 0.0
C351 C 0.03005 0.98538 0.96544 0.0
C352 C 0.02653 0.98797 1.00386 0.0
C353 C 0.03352 1.00313 0.97781 0.0
C354 C 0.02479 0.9685 0.97245 0.0
C355 C 0.02256 0.96962 0.99171 0.0
O356 O 0.02181 0.03742 0.99366 0.0
O357 O 0.05491 0.06016 0.02119 0.0
O358 O 0.05835 0.06426 0.06202 0.0
O359 O 0.03058 0.04602 0.04781 0.0
O360 O 0.02921 0.06184 0.02627 0.0
O361 O 0.00739 0.02482 0.01511 0.0
O362 O 0.09716 0.04432 0.04841 0.0
O363 O 0.06052 0.02945 0.03014 0.0
O364 O 0.05372 0.03678 0.99495 0.0
O365 O 0.08216 0.04657 0.01006 0.0
O366 O 0.07186 0.03713 0.0579 0.0
O367 O 0.10368 0.06768 0.03331 0.0
C368 C 0.04477 0.07204 0.02508 0.0
C369 C 0.99187 0.03992 0.99465 0.0
C370 C 0.97027 0.05927 1.00408 0.0
C371 C 0.98436 0.05079 0.00898 0.0
C372 C 0.96369 0.05677 0.985 0.0
C373 C 0.98516 0.03751 0.97564 0.0
C374 C 0.97111 0.0459 0.97086 0.0
C375 C 0.04091 0.05716 0.06288 0.0
C376 C 0.00626 0.03025 0.99875 0.0
C377 C 0.01587 0.95294 0.99892 0.0
C378 C 0.01288 0.95437 0.01801 0.0
C379 C 0.06271 0.0231 0.04545 0.0
C380 C 0.1265 0.06233 0.0537 0.0
C381 C 0.13876 0.05041 0.0522 0.0
C382 C 0.15564 0.05647 0.06221 0.0
C383 C 0.15979 0.07436 0.07473 0.0
C384 C 0.13081 0.08037 0.06588 0.0
C385 C 0.14734 0.0862 0.0766 0.0
C386 C 0.07136 0.04001 0.99426 0.0
C387 C 0.10973 0.0554 0.04172 0.0
H388 H 0.98934 0.05261 0.02373 0.0
H389 H 0.95263 0.06306 0.9811 0.0
H390 H 0.99073 0.02898 0.9645 0.0
H391 H 0.9659 0.04388 0.95619 0.0
H392 H 0.13521 0.03642 0.04283 0.0
H393 H 0.17278 0.07945 0.08259 0.0
H394 H 0.12161 0.08998 0.06696 0.0
H395 H 0.15067 0.10009 0.08603 0.0
Tb396 Tb 0.3006 0.79138 0.27247 0.0
C397 C 0.28058 0.85638 0.33115 0.0
C398 C 0.30951 0.87299 0.34662 0.0
C399 C 0.28444 0.88877 0.3499 0.0
C400 C 0.2982 0.8563 0.33566 0.0
C401 C 0.27351 0.87268 0.33809 0.0
C402 C 0.30245 0.88896 0.35409 0.0
C403 C 0.24534 0.85625 0.32107 0.0
N404 N 0.27054 0.84078 0.31929 0.0
C405 C 0.2529 0.8405 0.31458 0.0
C406 C 0.25568 0.87243 0.33292 0.0
Tb407 Tb 0.28246 0.81345 0.31342 0.0
N408 N 0.30452 0.84052 0.32808 0.0
C409 C 0.32274 0.84197 0.32941 0.0
C410 C 0.32773 0.87354 0.34916 0.0
C411 C 0.3344 0.85815 0.34012 0.0
H412 H 0.24409 0.82774 0.30659 0.0
H413 H 0.34863 0.85879 0.34118 0.0
H414 H 0.3109 0.90172 0.36274 0.0
H415 H 0.23138 0.85566 0.31727 0.0
H416 H 0.3289 0.83111 0.32195 0.0
H417 H 0.24182 0.74024 0.23744 0.0
H418 H 0.33683 0.8861 0.35737 0.0
H419 H 0.34258 0.78778 0.27841 0.0
H420 H 0.25756 0.76985 0.2583 0.0
H421 H 0.36055 0.76326 0.27003 0.0
H422 H 0.2792 0.9013 0.35551 0.0
H423 H 0.2578 0.71451 0.2261 0.0
H424 H 0.28601 0.70188 0.22721 0.0
H425 H 0.24975 0.88459 0.33806 0.0
H426 H 0.318 0.70753 0.23744 0.0
N427 N 0.28301 0.76195 0.25856 0.0
C428 C 0.26512 0.75922 0.25331 0.0
C429 C 0.26493 0.72762 0.23538 0.0
C430 C 0.28295 0.72998 0.24153 0.0
C431 C 0.25591 0.74215 0.24163 0.0
C432 C 0.2917 0.74754 0.25319 0.0
H433 H 0.3459 0.73031 0.25355 0.0
N434 N 0.31766 0.7684 0.26873 0.0
C435 C 0.34619 0.75943 0.26699 0.0
C436 C 0.30962 0.75077 0.25877 0.0
C437 C 0.33591 0.77321 0.27189 0.0
C438 C 0.33789 0.74087 0.25771 0.0
C439 C 0.31944 0.73648 0.25303 0.0
O440 O 0.32214 0.80397 0.25943 0.0
O441 O 0.29523 0.81756 0.28845 0.0
O442 O 0.26613 0.81641 0.28754 0.0
O443 O 0.27671 0.79965 0.26124 0.0
O444 O 0.32094 0.8171 0.28329 0.0
O445 O 0.29646 0.79185 0.24288 0.0
O446 O 0.25557 0.80152 0.31574 0.0
O447 O 0.28118 0.78799 0.29245 0.0
O448 O 0.31545 0.78606 0.2976 0.0
O449 O 0.30698 0.80486 0.32452 0.0
O450 O 0.28129 0.78489 0.32063 0.0
O451 O 0.27346 0.81608 0.34067 0.0
C452 C 0.31025 0.82817 0.28874 0.0
C453 C 0.32234 0.80412 0.22671 0.0
C454 C 0.32815 0.82411 0.203 0.0
C455 C 0.31706 0.81672 0.21595 0.0
C456 C 0.34437 0.81829 0.20031 0.0
C457 C 0.33851 0.79818 0.22403 0.0
C458 C 0.34941 0.80514 0.21067 0.0
C459 C 0.26495 0.80914 0.26897 0.0
C460 C 0.31291 0.80115 0.24326 0.0
C461 C 0.3107 0.71868 0.24199 0.0
C462 C 0.29251 0.7155 0.2361 0.0
C463 C 0.27991 0.77593 0.30338 0.0
C464 C 0.24696 0.79438 0.3451 0.0
C465 C 0.25488 0.78231 0.35455 0.0
C466 C 0.24463 0.77029 0.36517 0.0
C467 C 0.22647 0.77054 0.36637 0.0
C468 C 0.22884 0.79457 0.34638 0.0
C469 C 0.21864 0.78269 0.35701 0.0
C470 C 0.31768 0.79396 0.31599 0.0
C471 C 0.25716 0.80728 0.33407 0.0
H472 H 0.30484 0.82179 0.21854 0.0
H473 H 0.35303 0.82382 0.19017 0.0
H474 H 0.34295 0.78878 0.23271 0.0
H475 H 0.36195 0.80072 0.20867 0.0
H476 H 0.2689 0.78222 0.35366 0.0
H477 H 0.21843 0.76159 0.37479 0.0
H478 H 0.22262 0.80401 0.33922 0.0
H479 H 0.20469 0.78297 0.35808 0.0
Tb480 Tb 0.56688 0.04028 0.52874 0.0
C481 C 0.5001 1.0013 0.56303 0.0
C482 C 0.48465 0.97484 0.53855 0.0
C483 C 0.48044 0.97373 0.57167 0.0
C484 C 0.49645 0.99297 0.5441 0.0
C485 C 0.49189 0.99198 0.57704 0.0
C486 C 0.47686 0.96515 0.55245 0.0
C487 C 0.50569 0.02013 0.60042 0.0
N488 N 0.51097 0.01909 0.56761 0.0
C489 C 0.51339 0.02886 0.58598 0.0
C490 C 0.49499 1.00154 0.59596 0.0
Tb491 Tb 0.52187 0.03272 0.54286 0.0
N492 N 0.50389 1.00301 0.5311 0.0
C493 C 0.49937 0.99601 0.51214 0.0
C494 C 0.48068 0.96724 0.51919 0.0
C495 C 0.48798 0.97795 0.50593 0.0
H496 H 0.52149 0.04331 0.58959 0.0
H497 H 0.48478 0.97235 0.49091 0.0
H498 H 0.46778 0.9512 0.54847 0.0
H499 H 0.50789 0.02781 0.61495 0.0
H500 H 0.50468 1.00408 0.50161 0.0
H501 H 0.60219 0.10475 0.57658 0.0
H502 H 0.47173 0.95334 0.51434 0.0
H503 H 0.56801 0.02614 0.48153 0.0
H504 H 0.58382 0.07188 0.56805 0.0
H505 H 0.58012 0.04034 0.45517 0.0
H506 H 0.47402 0.9663 0.58223 0.0
H507 H 0.61358 0.12231 0.55144 0.0
H508 H 0.61668 0.12212 0.51678 0.0
H509 H 0.48889 0.9949 0.60714 0.0
H510 H 0.61077 0.10455 0.4838 0.0
N511 N 0.58412 0.07074 0.53826 0.0
C512 C 0.58863 0.07924 0.55688 0.0
C513 C 0.60544 0.10783 0.54759 0.0
C514 C 0.6016 0.09871 0.52859 0.0
C515 C 0.59908 0.09796 0.56181 0.0
C516 C 0.59085 0.07989 0.52434 0.0
H517 H 0.59729 0.07405 0.46074 0.0
N518 N 0.57749 0.05176 0.5025 0.0
C519 C 0.58219 0.04892 0.46934 0.0
C520 C 0.58748 0.07006 0.50584 0.0
C521 C 0.57526 0.04092 0.48452 0.0
C522 C 0.59187 0.06794 0.47254 0.0
C523 C 0.5948 0.0787 0.49098 0.0
O524 O 0.57845 0.01605 0.52235 0.0
O525 O 0.54272 0.01927 0.53117 0.0
O526 O 0.53753 0.02036 0.56152 0.0
O527 O 0.5652 0.03969 0.55896 0.0
O528 O 0.55565 0.01494 0.50728 0.0
O529 O 0.5923 0.04101 0.54206 0.0
O530 O 0.5089 0.05462 0.55403 0.0
O531 O 0.54584 0.05341 0.54018 0.0
O532 O 0.55184 0.05226 0.50939 0.0
O533 O 0.52321 0.03525 0.51306 0.0
O534 O 0.53286 0.05926 0.56361 0.0
O535 O 0.49804 0.03502 0.5281 0.0
C536 C 0.54231 0.00759 0.51569 0.0
C537 C 0.60947 0.02165 0.52419 0.0
C538 C 0.63373 1.00456 0.52003 0.0
C539 C 0.61914 0.00855 0.52976 0.0
C540 C 0.63858 0.01366 0.50472 0.0
C541 C 0.61474 0.03097 0.50911 0.0
C542 C 0.62917 0.0269 0.49937 0.0
C543 C 0.55421 0.02838 0.56798 0.0
C544 C 0.59304 0.02395 0.53302 0.0
C545 C 0.6051 0.09763 0.49503 0.0
C546 C 0.60847 0.10763 0.51381 0.0
C547 C 0.54603 0.06617 0.55471 0.0
C548 C 0.47795 0.04888 0.54732 0.0
C549 C 0.46723 0.06054 0.54073 0.0
C550 C 0.45109 0.06229 0.54866 0.0
C551 C 0.44595 0.05206 0.56328 0.0
C552 C 0.47228 0.0385 0.56153 0.0
C553 C 0.45637 0.0401 0.56945 0.0
C554 C 0.53478 0.04572 0.50393 0.0
C555 C 0.49582 0.04945 0.54075 0.0
H556 H 0.61516 1.00124 0.54138 0.0
H557 H 0.64979 0.01067 0.49706 0.0
H558 H 0.60764 0.04118 0.5047 0.0
H559 H 0.63302 0.03397 0.48761 0.0
H560 H 0.47163 0.06838 0.52961 0.0
H561 H 0.43402 0.05351 0.57027 0.0
H562 H 0.4803 0.02957 0.56691 0.0
H563 H 0.45227 0.03235 0.58071 0.0
Tb564 Tb 0.28188 0.29503 0.77572 0.0
C565 C 0.34113 0.2645 0.8112 0.0
C566 C 0.3534 0.29016 0.83772 0.0
C567 C 0.35439 0.257 0.83976 0.0
C568 C 0.34451 0.28375 0.81934 0.0
C569 C 0.34676 0.25098 0.82094 0.0
C570 C 0.35766 0.27659 0.84817 0.0
C571 C 0.33972 0.22752 0.79181 0.0
N572 N 0.3341 0.25941 0.7929 0.0
C573 C 0.33428 0.24147 0.78279 0.0
C574 C 0.34555 0.23215 0.81111 0.0
Tb575 Tb 0.32546 0.28315 0.77921 0.0
N576 N 0.34064 0.29638 0.80854 0.0
C577 C 0.347 0.31582 0.81468 0.0
C578 C 0.35859 0.31003 0.8446 0.0
C579 C 0.35578 0.3229 0.83284 0.0
H580 H 0.32971 0.23778 0.76787 0.0
H581 H 0.36025 0.33831 0.83777 0.0
H582 H 0.36425 0.2812 0.8624 0.0
H583 H 0.33934 0.2132 0.78389 0.0
H584 H 0.34497 0.32618 0.80603 0.0
H585 H 0.24959 0.23828 0.71707 0.0
H586 H 0.36542 0.31556 0.85864 0.0
H587 H 0.27581 0.33962 0.78616 0.0
H588 H 0.26388 0.25119 0.74899 0.0
H589 H 0.26627 0.36371 0.76934 0.0
H590 H 0.35855 0.24678 0.84761 0.0
H591 H 0.24378 0.26035 0.69569 0.0
H592 H 0.24374 0.29437 0.69142 0.0
H593 H 0.34982 0.22135 0.81805 0.0
H594 H 0.24826 0.32885 0.70576 0.0
N595 N 0.26707 0.28091 0.74631 0.0
C596 C 0.26153 0.26133 0.74024 0.0
C597 C 0.25016 0.26625 0.70987 0.0
C598 C 0.25447 0.28617 0.71662 0.0
C599 C 0.25334 0.25376 0.72191 0.0
C600 C 0.26284 0.29306 0.73516 0.0
H601 H 0.25625 0.35483 0.73505 0.0
N602 N 0.27209 0.31772 0.76144 0.0
C603 C 0.26613 0.34933 0.7617 0.0
C604 C 0.26548 0.31228 0.74306 0.0
C605 C 0.27149 0.33566 0.77118 0.0
C606 C 0.26056 0.34429 0.74235 0.0
C607 C 0.25973 0.32539 0.73288 0.0
O608 O 0.2675 0.3057 0.79801 0.0
O609 O 0.30395 0.29196 0.79409 0.0
O610 O 0.30694 0.25836 0.78763 0.0
O611 O 0.27924 0.26416 0.77828 0.0
O612 O 0.29316 0.31595 0.80105 0.0
O613 O 0.25711 0.27826 0.78062 0.0
O614 O 0.33947 0.27273 0.75652 0.0
O615 O 0.30359 0.2865 0.76043 0.0
O616 O 0.30048 0.32091 0.76939 0.0
O617 O 0.32847 0.31435 0.77671 0.0
O618 O 0.31393 0.26207 0.75421 0.0
O619 O 0.35126 0.29867 0.77583 0.0
C620 C 0.30485 0.307 0.80646 0.0
C621 C 0.23607 0.29489 0.79533 0.0
C622 C 0.20745 0.29328 0.80969 0.0
C623 C 0.22475 0.28913 0.80931 0.0
C624 C 0.20192 0.30349 0.79626 0.0
C625 C 0.22995 0.30487 0.78206 0.0
C626 C 0.21308 0.30926 0.78264 0.0
C627 C 0.28925 0.25268 0.78395 0.0
C628 C 0.2543 0.29084 0.79477 0.0
C629 C 0.25253 0.31895 0.71394 0.0
C630 C 0.24994 0.29933 0.70579 0.0
C631 C 0.30265 0.27121 0.74822 0.0
C632 C 0.37093 0.28019 0.76111 0.0
C633 C 0.38326 0.28526 0.74787 0.0
C634 C 0.39931 0.27832 0.74723 0.0
C635 C 0.40216 0.26553 0.75939 0.0
C636 C 0.37498 0.26857 0.77382 0.0
C637 C 0.39024 0.26096 0.77269 0.0
C638 C 0.31825 0.32631 0.77236 0.0
C639 C 0.35363 0.28639 0.76119 0.0
H640 H 0.22925 0.28131 0.8196 0.0
H641 H 0.18883 0.30697 0.79628 0.0
H642 H 0.23819 0.30928 0.77119 0.0
H643 H 0.20857 0.31709 0.77238 0.0
H644 H 0.38048 0.29474 0.7384 0.0
H645 H 0.41374 0.25906 0.75879 0.0
H646 H 0.36635 0.26523 0.78462 0.0
H647 H 0.3929 0.25151 0.78223 0.0
Tb648 Tb 0.05031 0.0572 0.52923 0.0
C649 C 0.07223 0.99839 0.47297 0.0
C650 C 0.04635 0.99009 0.45006 0.0
C651 C 0.07519 0.98565 0.43996 0.0
C652 C 0.05429 0.99733 0.46873 0.0
C653 C 0.0828 0.99201 0.45876 0.0
C654 C 0.05699 0.98472 0.43562 0.0
C655 C 0.10683 0.99604 0.48318 0.0
N656 N 0.07896 1.00408 0.49136 0.0
C657 C 0.09575 1.00204 0.49678 0.0
C658 C 0.10043 0.9913 0.46404 0.0
Tb659 Tb 0.05952 0.01263 0.51266 0.0
N660 N 0.04438 1.00208 0.48317 0.0
C661 C 0.02621 0.99886 0.48005 0.0
C662 C 0.02788 0.98779 0.44663 0.0
C663 C 0.01774 0.992 0.46174 0.0
H664 H 0.10072 1.00551 0.51158 0.0
H665 H 1.00339 0.98986 0.45933 0.0
H666 H 0.05116 0.97924 0.42117 0.0
H667 H 0.12026 0.99497 0.48748 0.0
H668 H 0.01818 1.00178 0.49158 0.0
H669 H 0.10923 0.08854 0.57914 0.0
H670 H 0.02127 0.9823 0.43249 0.0
H671 H 0.00692 0.05685 0.53679 0.0
H672 H 0.09345 0.07713 0.54815 0.0
H673 H 0.98908 0.06008 0.56362 0.0
H674 H 0.08311 0.98082 0.42881 0.0
H675 H 0.09301 0.08873 0.60784 0.0
H676 H 0.06404 0.08382 0.62212 0.0
H677 H 0.10897 0.98645 0.45356 0.0
H678 H 0.03134 0.07591 0.61794 0.0
N679 N 0.06746 0.06926 0.55799 0.0
C680 C 0.08559 0.07655 0.55998 0.0
C681 C 0.08574 0.08332 0.59401 0.0
C682 C 0.06722 0.07709 0.59209 0.0
C683 C 0.0949 0.08331 0.57786 0.0
C684 C 0.05832 0.07005 0.57372 0.0
H685 H 1.0034 0.06723 0.59632 0.0
N686 N 0.03169 0.05972 0.55353 0.0
C687 C 1.0033 0.06116 0.56609 0.0
C688 C 0.03988 0.06516 0.57141 0.0
C689 C 0.01365 0.059 0.55081 0.0
C690 C 0.01143 0.0652 0.58448 0.0
C691 C 0.02994 0.06778 0.58735 0.0
O692 O 0.03133 0.07227 0.52078 0.0
O693 O 0.04491 0.03378 0.50448 0.0
O694 O 0.08126 0.03311 0.50343 0.0
O695 O 0.07742 0.06213 0.52081 0.0
O696 O 0.05397 0.06083 0.49979 0.0
O697 O 0.05851 0.0874 0.53224 0.0
O698 O 0.06947 0.99311 0.52682 0.0
O699 O 0.0592 0.03297 0.53921 0.0
O700 O 0.02505 0.03565 0.52413 0.0
O701 O 0.03496 0.00817 0.52704 0.0
O702 O 0.08198 0.02269 0.53452 0.0
O703 O 0.04483 0.98401 0.50896 0.0
C704 C 0.04794 0.04342 0.49097 0.0
C705 C 0.03837 0.10689 0.52327 0.0
C706 C 0.04455 0.13626 0.51041 0.0
C707 C 0.0492 0.11909 0.51333 0.0
C708 C 0.02919 0.14134 0.51766 0.0
C709 C 0.02284 0.11176 0.53018 0.0
C710 C 0.01834 0.12905 0.52748 0.0
C711 C 0.0868 0.05185 0.51002 0.0
C712 C 0.04278 0.08859 0.52546 0.0
C713 C 0.03878 0.07395 0.6056 0.0
C714 C 0.05739 0.0785 0.60798 0.0
C715 C 0.07458 0.03263 0.54719 0.0
C716 C 0.06056 0.96006 0.51413 0.0
C717 C 0.05731 0.9471 0.52655 0.0
C718 C 0.0608 0.92862 0.52188 0.0
C719 C 0.06779 0.92314 0.50463 0.0
C720 C 0.06762 0.95467 0.49691 0.0
C721 C 0.07133 0.93624 0.49226 0.0
C722 C 0.02215 0.01788 0.52749 0.0
C723 C 0.05626 0.97892 0.51996 0.0
H724 H 0.06101 0.1151 0.5076 0.0
H725 H 0.02544 0.1546 0.5154 0.0
H726 H 0.01426 0.10222 0.53766 0.0
H727 H 0.00638 0.13286 0.53286 0.0
H728 H 0.05168 0.95127 0.53979 0.0
H729 H 0.07054 0.90883 0.50082 0.0
H730 H 0.07012 0.96449 0.48708 0.0
H731 H 0.07681 0.93206 0.47899 0.0
Tb732 Tb 0.33037 0.8106 0.76358 0.0
C733 C 0.28647 0.75263 0.79612 0.0
C734 C 0.29292 0.72325 0.77866 0.0
C735 C 0.28672 0.72502 0.8116 0.0
C736 C 0.29098 0.74253 0.77959 0.0
C737 C 0.28342 0.74359 0.812 0.0
C738 C 0.29153 0.71488 0.79495 0.0
C739 C 0.27071 0.77011 0.82607 0.0
N740 N 0.28288 0.77032 0.79583 0.0
C741 C 0.27381 0.77836 0.80997 0.0
C742 C 0.27598 0.75288 0.82732 0.0
Tb743 Tb 0.28912 0.78279 0.76877 0.0
N744 N 0.29157 0.75082 0.76393 0.0
C745 C 0.29222 0.7397 0.74651 0.0
C746 C 0.29516 0.71254 0.76116 0.0
C747 C 0.29433 0.72065 0.74495 0.0
H748 H 0.26947 0.79166 0.80924 0.0
H749 H 0.29531 0.71222 0.73119 0.0
H750 H 0.29323 0.70021 0.79454 0.0
H751 H 0.26417 0.77701 0.83745 0.0
H752 H 0.29131 0.74515 0.73352 0.0
H753 H 0.31814 0.8764 0.80453 0.0
H754 H 0.2967 0.69772 0.75987 0.0
H755 H 0.3503 0.80354 0.72386 0.0
H756 H 0.32156 0.8426 0.79918 0.0
H757 H 0.35782 0.82076 0.69733 0.0
H758 H 0.28471 0.718 0.82376 0.0
H759 H 0.32221 0.89517 0.77863 0.0
H760 H 0.33036 0.89682 0.74541 0.0
H761 H 0.27335 0.74636 0.83971 0.0
H762 H 0.34082 0.88152 0.71601 0.0
N763 N 0.32693 0.84187 0.77034 0.0
C764 C 0.32325 0.85053 0.78773 0.0
C765 C 0.32362 0.88027 0.77617 0.0
C766 C 0.3282 0.87161 0.75867 0.0
C767 C 0.32135 0.86974 0.79083 0.0
C768 C 0.32983 0.85216 0.75619 0.0
H769 H 0.3512 0.85317 0.69796 0.0
N770 N 0.33795 0.82515 0.73828 0.0
C771 C 0.3513 0.8272 0.70898 0.0
C772 C 0.3355 0.84351 0.73958 0.0
C773 C 0.34688 0.81741 0.72389 0.0
C774 C 0.34754 0.84549 0.7094 0.0
C775 C 0.34 0.8541 0.72507 0.0
O776 O 0.35665 0.80696 0.76136 0.0
O777 O 0.3178 0.78201 0.76935 0.0
O778 O 0.29948 0.80067 0.79642 0.0
O779 O 0.32953 0.80626 0.79262 0.0
O780 O 0.33579 0.78278 0.74946 0.0
O781 O 0.35064 0.82869 0.78318 0.0
O782 O 0.26427 0.78889 0.77502 0.0
O783 O 0.30307 0.81305 0.77014 0.0
O784 O 0.31582 0.8045 0.73584 0.0
O785 O 0.2947 0.77781 0.73941 0.0
O786 O 0.27954 0.80397 0.75422 0.0
O787 O 0.26642 0.76548 0.75235 0.0
C788 C 0.32635 0.77117 0.75876 0.0
C789 C 0.37978 0.83385 0.77334 0.0
C790 C 0.41132 0.8445 0.7838 0.0
C791 C 0.39417 0.83465 0.78627 0.0
C792 C 0.41374 0.85443 0.76854 0.0
C793 C 0.38221 0.844 0.75832 0.0
C794 C 0.39916 0.85432 0.756 0.0
C795 C 0.31631 0.80602 0.80343 0.0
C796 C 0.36303 0.82095 0.77549 0.0
C797 C 0.3376 0.87319 0.72708 0.0
C798 C 0.33169 0.88192 0.74384 0.0
C799 C 0.2916 0.81921 0.76027 0.0
C800 C 0.23845 0.76453 0.76469 0.0
C801 C 0.22387 0.76746 0.75409 0.0
C802 C 0.20662 0.75792 0.75625 0.0
C803 C 0.20399 0.74525 0.76923 0.0
C804 C 0.23594 0.75193 0.77768 0.0
C805 C 0.21865 0.74237 0.77997 0.0
C806 C 0.30323 0.78933 0.729 0.0
C807 C 0.25586 0.77516 0.76146 0.0
H808 H 0.39198 0.82714 0.7981 0.0
H809 H 0.42687 0.8619 0.76604 0.0
H810 H 0.37125 0.84388 0.74834 0.0
H811 H 0.40107 0.86193 0.74423 0.0
H812 H 0.22597 0.77714 0.74395 0.0
H813 H 0.19067 0.73786 0.77121 0.0
H814 H 0.24717 0.74944 0.78589 0.0
H815 H 0.2166 0.73271 0.79007 0.0
Tb816 Tb 0.54367 0.04427 0.02924 0.0
C817 C 0.49865 0.06756 0.96599 0.0
C818 C 0.48269 0.03723 0.94702 0.0
C819 C 0.47118 0.06632 0.94689 0.0
C820 C 0.49713 0.04799 0.95996 0.0
C821 C 0.48585 0.07704 0.95933 0.0
C822 C 0.46961 0.04645 0.94074 0.0
C823 C 0.50384 0.10726 0.97631 0.0
N824 N 0.5132 0.0775 0.9776 0.0
C825 C 0.5163 0.09725 0.98226 0.0
C826 C 0.48847 0.0971 0.96488 0.0
Tb827 Tb 0.53381 0.06035 0.98505 0.0
N828 N 0.51021 0.03969 0.96607 0.0
C829 C 0.5097 0.02053 0.95925 0.0
C830 C 0.48208 0.01767 0.94029 0.0
C831 C 0.49575 0.00935 0.94631 0.0
H832 H 0.52836 0.10518 0.99081 0.0
H833 H 0.49546 0.99422 0.94117 0.0
H834 H 0.45844 0.03842 0.93083 0.0
H835 H 0.5062 0.12282 0.98033 0.0
H836 H 0.51964 0.01331 0.96386 0.0
H837 H 0.58888 0.10736 0.07049 0.0
H838 H 0.47128 0.00895 0.93029 0.0
H839 H 0.54346 0.99809 0.02738 0.0
H840 H 0.56068 0.08933 0.0533 0.0
H841 H 0.56445 0.97803 0.03547 0.0
H842 H 0.4612 0.07334 0.94163 0.0
H843 H 0.61375 0.09092 0.0749 0.0
H844 H 0.62463 0.05986 0.07131 0.0
H845 H 0.47895 0.10491 0.96005 0.0
H846 H 0.61789 0.02438 0.06199 0.0
N847 N 0.56918 0.06257 0.04686 0.0
C848 C 0.5712 0.08171 0.05477 0.0
C849 C 0.60131 0.08283 0.06714 0.0
C850 C 0.59878 0.06299 0.06026 0.0
C851 C 0.5873 0.09213 0.06473 0.0
C852 C 0.58233 0.05318 0.05018 0.0
H853 H 0.59522 0.99365 0.04916 0.0
N854 N 0.56233 0.02467 0.03606 0.0
C855 C 0.56869 0.99361 0.03797 0.0
C856 C 0.57872 0.03343 0.04468 0.0
C857 C 0.55684 1.00499 0.03346 0.0
C858 C 0.58607 1.00247 0.04564 0.0
C859 C 0.59119 0.02265 0.04941 0.0
O860 O 0.52641 0.02547 0.04275 0.0
O861 O 0.52527 0.04457 0.00627 0.0
O862 O 0.51817 0.07301 0.00603 0.0
O863 O 0.53577 0.07238 0.0334 0.0
O864 O 0.5219 0.01996 0.01593 0.0
O865 O 0.53581 0.05554 0.05561 0.0
O866 O 0.54846 0.08155 0.97206 0.0
O867 O 0.55276 0.0602 0.0078 0.0
O868 O 0.55727 0.02877 0.00838 0.0
O869 O 0.54447 0.03388 0.97975 0.0
O870 O 0.55481 0.08551 0.99837 0.0
O871 O 0.54358 0.05095 0.95932 0.0
C872 C 0.51464 0.02873 0.00443 0.0
C873 C 0.52912 0.03316 0.07582 0.0
C874 C 0.51798 0.03058 0.10627 0.0
C875 C 0.51624 0.0355 0.08841 0.0
C876 C 0.53262 0.02301 0.11149 0.0
C877 C 0.54375 0.02554 0.08094 0.0
C878 C 0.54541 0.02038 0.09874 0.0
C879 C 0.52411 0.07951 0.02399 0.0
C880 C 0.52663 0.03876 0.05751 0.0
C881 C 0.608 0.03237 0.05848 0.0
C882 C 0.61183 0.05255 0.0638 0.0
C883 C 0.56224 0.07687 0.00983 0.0
C884 C 0.54691 0.07325 0.93874 0.0
C885 C 0.5557 0.0645 0.92452 0.0
C886 C 0.55807 0.07187 0.90787 0.0
C887 C 0.54909 0.08637 0.90437 0.0
C888 C 0.53798 0.08776 0.93541 0.0
C889 C 0.53871 0.09392 0.91797 0.0
C890 C 0.55412 0.02493 0.9897 0.0
C891 C 0.55002 0.0687 0.95743 0.0
H892 H 0.50502 0.04155 0.08444 0.0
H893 H 0.53409 0.01913 0.12533 0.0
H894 H 0.55384 0.02364 0.07134 0.0
H895 H 0.55667 0.01446 0.1027 0.0
H896 H 0.56213 0.05295 0.92723 0.0
H897 H 0.55075 0.09255 0.89167 0.0
H898 H 0.53102 0.09471 0.94634 0.0
H899 H 0.53207 0.10531 0.91542 0.0
Tb900 Tb 0.29098 0.2861 0.26864 0.0
C901 C 0.22508 0.23272 0.23798 0.0
C902 C 0.21139 0.21965 0.26392 0.0
C903 C 0.19273 0.22143 0.23637 0.0
C904 C 0.22684 0.22757 0.25554 0.0
C905 C 0.20792 0.22943 0.22813 0.0
C906 C 0.19446 0.21658 0.25424 0.0
C907 C 0.2218 0.23978 0.20146 0.0
N908 N 0.24009 0.23989 0.23004 0.0
C909 C 0.23843 0.24238 0.21146 0.0
C910 C 0.20645 0.23344 0.20988 0.0
Tb911 Tb 0.26706 0.23917 0.24587 0.0
N912 N 0.24351 0.23024 0.26442 0.0
C913 C 0.24498 0.22637 0.28253 0.0
C914 C 0.21328 0.21491 0.28181 0.0
C915 C 0.23013 0.21854 0.29123 0.0
H916 H 0.24966 0.24509 0.20329 0.0
H917 H 0.23174 0.21557 0.30544 0.0
H918 H 0.1826 0.21035 0.26042 0.0
H919 H 0.22091 0.24189 0.1869 0.0
H920 H 0.25714 0.22977 0.29134 0.0
H921 H 0.33552 0.3004 0.21447 0.0
H922 H 0.20179 0.20882 0.28863 0.0
H923 H 0.29746 0.29723 0.31511 0.0
H924 H 0.3069 0.28947 0.22665 0.0
H925 H 0.32273 0.31091 0.33961 0.0
H926 H 0.17957 0.21869 0.22891 0.0
H927 H 0.36296 0.31151 0.2364 0.0
H928 H 0.37723 0.31872 0.26978 0.0
H929 H 0.19357 0.23091 0.20186 0.0
H930 H 0.3738 0.32138 0.30396 0.0
N931 N 0.3175 0.29354 0.25539 0.0
C932 C 0.31852 0.29405 0.23652 0.0
C933 C 0.35032 0.30649 0.24186 0.0
C934 C 0.3492 0.30663 0.26123 0.0
C935 C 0.33487 0.30032 0.22947 0.0
C936 C 0.33237 0.30011 0.26763 0.0
H937 H 0.35348 0.31878 0.33015 0.0
N938 N 0.31388 0.29615 0.29216 0.0
C939 C 0.32515 0.30808 0.32479 0.0
C940 C 0.3305 0.3014 0.28672 0.0
C941 C 0.3109 0.30025 0.31089 0.0
C942 C 0.34248 0.31247 0.3194 0.0
C943 C 0.3453 0.3095 0.30014 0.0
O944 O 0.28123 0.30767 0.28581 0.0
O945 O 0.26526 0.26709 0.25987 0.0
O946 O 0.27339 0.25785 0.22464 0.0
O947 O 0.27769 0.28878 0.24195 0.0
O948 O 0.27034 0.28021 0.28776 0.0
O949 O 0.29364 0.31316 0.26038 0.0
O950 O 0.26863 0.22505 0.21814 0.0
O951 O 0.29175 0.2602 0.24892 0.0
O952 O 0.29738 0.26652 0.28705 0.0
O953 O 0.27937 0.23594 0.27373 0.0
O954 O 0.29314 0.23171 0.2489 0.0
O955 O 0.25868 0.20902 0.23957 0.0
C956 C 0.25819 0.26971 0.27512 0.0
C957 C 0.29317 0.3401 0.28409 0.0
C958 C 0.28911 0.37283 0.28743 0.0
C959 C 0.28507 0.35378 0.27784 0.0
C960 C 0.30172 0.37856 0.3032 0.0
C961 C 0.30613 0.3457 0.29965 0.0
C962 C 0.31041 0.36496 0.30916 0.0
C963 C 0.2737 0.27649 0.22578 0.0
C964 C 0.28606 0.32013 0.27495 0.0
C965 C 0.36224 0.31524 0.29388 0.0
C966 C 0.36419 0.31376 0.27443 0.0
C967 C 0.30237 0.24902 0.24997 0.0
C968 C 0.27176 0.19305 0.21433 0.0
C969 C 0.28299 0.18621 0.2262 0.0
C970 C 0.29063 0.1708 0.2189 0.0
C971 C 0.28742 0.16245 0.19957 0.0
C972 C 0.26872 0.18489 0.19496 0.0
C973 C 0.27662 0.16966 0.18759 0.0
C974 C 0.29053 0.2481 0.2876 0.0
C975 C 0.26252 0.20808 0.222 0.0
H976 H 0.27484 0.34941 0.26597 0.0
H977 H 0.3046 0.3933 0.31094 0.0
H978 H 0.3127 0.33537 0.30464 0.0
H979 H 0.32016 0.36924 0.32136 0.0
H980 H 0.28527 0.19234 0.24122 0.0
H981 H 0.29324 0.15039 0.19383 0.0
H982 H 0.26006 0.19014 0.18561 0.0
H983 H 0.27416 0.16327 0.17268 0.0
Tb984 Tb 0.55084 0.55536 0.02677 0.0
C985 C 0.57149 0.49579 0.97313 0.0
C986 C 0.54564 0.48788 0.9502 0.0
C987 C 0.57449 0.48365 0.94 0.0
C988 C 0.55354 0.49482 0.96891 0.0
C989 C 0.58206 0.48962 0.95884 0.0
C990 C 0.55631 0.48282 0.93568 0.0
C991 C 0.60601 0.49302 0.98321 0.0
N992 N 0.5782 0.50118 0.99156 0.0
C993 C 0.5949 0.49874 0.9969 0.0
C994 C 0.59966 0.48874 0.96406 0.0
Tb995 Tb 0.55882 0.51024 0.01281 0.0
N996 N 0.5436 0.49933 0.98339 0.0
C997 C 0.52541 0.496 0.98029 0.0
C998 C 0.52715 0.48557 0.94677 0.0
C999 C 0.51697 0.48939 0.96194 0.0
H1000 H 0.5998 0.50182 0.01172 0.0
H1001 H 0.50262 0.48721 0.95953 0.0
H1002 H 0.55051 0.47761 0.92118 0.0
H1003 H 0.61939 0.49174 0.98746 0.0
H1004 H 0.51738 0.49872 0.99187 0.0
H1005 H 0.61254 0.58787 0.07226 0.0
H1006 H 0.52057 0.48031 0.9326 0.0
H1007 H 0.50748 0.55277 0.03675 0.0
H1008 H 0.59533 0.5675 0.04469 0.0
H1009 H 0.49154 0.56275 0.06345 0.0
H1010 H 0.58243 0.47902 0.92878 0.0
H1011 H 0.5977 0.6025 0.09879 0.0
H1012 H 0.56961 0.6061 0.11323 0.0
H1013 H 0.60821 0.48406 0.9535 0.0
H1014 H 0.53692 0.59812 0.11141 0.0
N1015 N 0.56958 0.57044 0.05392 0.0
C1016 C 0.58794 0.57385 0.05537 0.0
C1017 C 0.58972 0.59361 0.08634 0.0
C1018 C 0.57114 0.58982 0.08528 0.0
C1019 C 0.59813 0.58539 0.07142 0.0
C1020 C 0.56127 0.57807 0.06873 0.0
H1021 H 0.50794 0.58149 0.09336 0.0
N1022 N 0.5337 0.56236 0.05164 0.0
C1023 C 0.50597 0.56553 0.06505 0.0
C1024 C 0.54285 0.57346 0.06776 0.0
C1025 C 0.51534 0.55918 0.04998 0.0
C1026 C 0.51526 0.57623 0.08182 0.0
C1027 C 0.53386 0.58066 0.08323 0.0
O1028 O 0.53122 0.56921 0.01762 0.0
O1029 O 0.54459 0.53095 1.00304 0.0
O1030 O 0.58159 0.52956 1.00395 0.0
O1031 O 0.57759 0.55999 0.0174 0.0
O1032 O 0.55526 0.55715 0.99711 0.0
O1033 O 0.55886 0.58451 0.02478 0.0
O1034 O 0.56817 0.49057 0.02717 0.0
O1035 O 0.55879 0.53149 0.03901 0.0
O1036 O 0.52534 0.53406 0.02241 0.0
O1037 O 0.5349 0.50737 0.02826 0.0
O1038 O 0.58127 0.52093 0.03436 0.0
O1039 O 0.54361 0.4818 0.00936 0.0
C1040 C 0.54811 0.53979 0.98902 0.0
C1041 C 0.53737 0.60362 0.02254 0.0
C1042 C 0.54009 0.6354 0.01439 0.0
C1043 C 0.54612 0.61824 0.01375 0.0
C1044 C 0.52552 0.63815 0.02482 0.0
C1045 C 0.52282 0.60633 0.03285 0.0
C1046 C 0.51706 0.62372 0.03414 0.0
C1047 C 0.58705 0.54849 0.0084 0.0
C1048 C 0.54287 0.58526 0.0184 0.0
C1049 C 0.54363 0.59244 0.09952 0.0
C1050 C 0.56222 0.59706 0.10051 0.0
C1051 C 0.57401 0.53072 0.04732 0.0
C1052 C 0.55905 0.45762 0.01452 0.0
C1053 C 0.55455 0.44413 0.02622 0.0
C1054 C 0.55959 0.42637 0.02247 0.0
C1055 C 0.56927 0.42201 0.0069 0.0
C1056 C 0.56822 0.45307 0.99855 0.0
C1057 C 0.57342 0.43532 0.99485 0.0
C1058 C 0.52215 0.51699 0.02742 0.0
C1059 C 0.55484 0.47652 0.02038 0.0
H1060 H 0.55745 0.61596 0.00591 0.0
H1061 H 0.52038 0.6512 0.0254 0.0
H1062 H 0.51575 0.59503 0.03952 0.0
H1063 H 0.50574 0.62584 0.04197 0.0
H1064 H 0.5474 0.4476 0.03856 0.0
H1065 H 0.57336 0.4083 1.00399 0.0
H1066 H 0.57145 0.4631 0.98906 0.0
H1067 H 0.5807 0.43192 0.98268 0.0
Tb1068 Tb 0.83082 0.31014 0.26356 0.0
C1069 C 0.78545 0.25383 0.29872 0.0
C1070 C 0.79286 0.22402 0.28355 0.0
C1071 C 0.78516 0.22749 0.31609 0.0
C1072 C 0.79083 0.24306 0.28312 0.0
C1073 C 0.78157 0.24569 0.31498 0.0
C1074 C 0.79087 0.21669 0.30039 0.0
C1075 C 0.76748 0.2721 0.32611 0.0
N1076 N 0.78173 0.27117 0.29698 0.0
C1077 C 0.77162 0.2796 0.30977 0.0
C1078 C 0.77299 0.2554 0.32903 0.0
Tb1079 Tb 0.78968 0.28221 0.26966 0.0
N1080 N 0.79195 0.25035 0.26689 0.0
C1081 C 0.79301 0.23837 0.2501 0.0
C1082 C 0.7957 0.21248 0.26675 0.0
C1083 C 0.79525 0.2195 0.24987 0.0
H1084 H 0.76761 0.29283 0.30796 0.0
H1085 H 0.79661 0.2104 0.23661 0.0
H1086 H 0.7927 0.20224 0.30107 0.0
H1087 H 0.76017 0.27932 0.33651 0.0
H1088 H 0.79233 0.24302 0.23667 0.0
H1089 H 0.82055 0.37777 0.30223 0.0
H1090 H 0.79733 0.1978 0.2665 0.0
H1091 H 0.84749 0.29936 0.22239 0.0
H1092 H 0.82262 0.34353 0.29794 0.0
H1093 H 0.85571 0.31535 0.19525 0.0
H1094 H 0.78261 0.22119 0.32861 0.0
H1095 H 0.82566 0.39556 0.27569 0.0
H1096 H 0.834 0.39568 0.24228 0.0
H1097 H 0.7697 0.24957 0.34166 0.0
H1098 H 0.84338 0.37862 0.21307 0.0
N1099 N 0.82827 0.34169 0.26908 0.0
C1100 C 0.82477 0.35107 0.28623 0.0
C1101 C 0.82646 0.38047 0.27369 0.0
C1102 C 0.83071 0.37098 0.2564 0.0
C1103 C 0.82361 0.3705 0.28872 0.0
C1104 C 0.8315 0.35133 0.25452 0.0
H1105 H 0.85165 0.34869 0.19544 0.0
N1106 N 0.83798 0.32306 0.23724 0.0
C1107 C 0.85019 0.32286 0.20712 0.0
C1108 C 0.83652 0.34169 0.23801 0.0
C1109 C 0.84554 0.31386 0.22248 0.0
C1110 C 0.84784 0.34167 0.20727 0.0
C1111 C 0.84125 0.35146 0.223 0.0
O1112 O 0.85688 0.30571 0.2608 0.0
O1113 O 0.81842 0.28183 0.27017 0.0
O1114 O 0.80039 0.29851 0.29788 0.0
O1115 O 0.83016 0.30911 0.29335 0.0
O1116 O 0.83637 0.28208 0.25032 0.0
O1117 O 0.85168 0.32797 0.28255 0.0
O1118 O 0.76443 0.28846 0.27327 0.0
O1119 O 0.80373 0.3125 0.27091 0.0
O1120 O 0.81466 0.30448 0.23676 0.0
O1121 O 0.79698 0.27596 0.24099 0.0
O1122 O 0.77982 0.30377 0.2559 0.0
O1123 O 0.76784 0.26423 0.25225 0.0
C1124 C 0.82706 0.27079 0.25996 0.0
C1125 C 0.88065 0.33214 0.27231 0.0
C1126 C 0.91243 0.34248 0.28161 0.0
C1127 C 0.8958 0.33096 0.28328 0.0
C1128 C 0.91385 0.35535 0.26882 0.0
C1129 C 0.88214 0.34488 0.2594 0.0
C1130 C 0.89873 0.35643 0.25768 0.0
C1131 C 0.81715 0.30631 0.30435 0.0
C1132 C 0.86373 0.31967 0.2748 0.0
C1133 C 0.83992 0.37087 0.2245 0.0
C1134 C 0.83462 0.3806 0.24116 0.0
C1135 C 0.79209 0.31887 0.26151 0.0
C1136 C 0.73915 0.26356 0.26293 0.0
C1137 C 0.72453 0.2669 0.25263 0.0
C1138 C 0.70723 0.25739 0.25478 0.0
C1139 C 0.70461 0.24449 0.26754 0.0
C1140 C 0.73656 0.25072 0.27569 0.0
C1141 C 0.71925 0.24128 0.27803 0.0
C1142 C 0.80376 0.28796 0.23012 0.0
C1143 C 0.7567 0.27413 0.25991 0.0
H1144 H 0.89462 0.32112 0.29328 0.0
H1145 H 0.92665 0.36429 0.26728 0.0
H1146 H 0.87065 0.34595 0.25074 0.0
H1147 H 0.89987 0.36621 0.24767 0.0
H1148 H 0.72663 0.27684 0.24273 0.0
H1149 H 0.69127 0.23713 0.26953 0.0
H1150 H 0.74778 0.24798 0.28372 0.0
H1151 H 0.71718 0.23144 0.28796 0.0
Tb1152 Tb 0.04243 0.5432 0.52876 0.0
C1153 C 0.99746 0.56776 0.46575 0.0
C1154 C 0.98099 0.5379 0.4464 0.0
C1155 C 0.97041 0.56757 0.44646 0.0
C1156 C 0.99546 0.54817 0.45954 0.0
C1157 C 0.9851 0.57778 0.45912 0.0
C1158 C 0.96836 0.54766 0.4401 0.0
C1159 C 1.00359 0.60747 0.47663 0.0
N1160 N 0.01206 0.5772 0.47753 0.0
C1161 C 0.0156 0.59692 0.48254 0.0
C1162 C 0.98821 0.59785 0.46493 0.0
Tb1163 Tb 0.03208 0.55927 0.48468 0.0
N1164 N 0.00816 0.53938 0.46565 0.0
C1165 C 0.00727 0.5202 0.45863 0.0
C1166 C 0.97995 0.51829 0.4395 0.0
C1167 C 0.99324 0.50945 0.44553 0.0
H1168 H 0.02768 0.60445 0.49128 0.0
H1169 H 0.99263 0.49429 0.44023 0.0
H1170 H 0.95717 0.54002 0.43003 0.0
H1171 H 0.00631 0.62303 0.48088 0.0
H1172 H 0.01697 0.51267 0.46321 0.0
H1173 H 0.08682 0.60642 0.57072 0.0
H1174 H 0.9691 0.50992 0.42934 0.0
H1175 H 0.0434 0.49698 0.52475 0.0
H1176 H 0.05881 0.58821 0.5531 0.0
H1177 H 0.06508 0.47727 0.53179 0.0
H1178 H 0.96077 0.57501 0.44119 0.0
H1179 H 0.11195 0.59032 0.57505 0.0
H1180 H 0.12337 0.55958 0.57088 0.0
H1181 H 0.97905 0.60608 0.46013 0.0
H1182 H 0.11738 0.52424 0.56051 0.0
N1183 N 0.0677 0.56168 0.54657 0.0
C1184 C 0.06946 0.58074 0.55463 0.0
C1185 C 0.09958 0.58214 0.56718 0.0
C1186 C 0.09735 0.5624 0.55998 0.0
C1187 C 0.08543 0.59125 0.56481 0.0
C1188 C 0.08101 0.55246 0.54977 0.0
H1189 H 0.09548 0.49333 0.54632 0.0
N1190 N 0.06157 0.52382 0.53477 0.0
C1191 C 0.06888 0.49288 0.53509 0.0
C1192 C 0.07778 0.53276 0.54377 0.0
C1193 C 0.05664 0.50405 0.53116 0.0
C1194 C 0.08604 0.502 0.54326 0.0
C1195 C 0.09059 0.52219 0.54799 0.0
O1196 O 0.02514 0.52391 0.54161 0.0
O1197 O 0.0239 0.54322 0.50581 0.0
O1198 O 0.01622 0.57152 0.50568 0.0
O1199 O 0.03383 0.57095 0.53313 0.0
O1200 O 0.02095 0.51859 0.51533 0.0
O1201 O 0.0352 0.55353 0.55582 0.0
O1202 O 0.04716 0.57993 0.47142 0.0
O1203 O 0.05098 0.55968 0.50759 0.0
O1204 O 0.05686 0.52916 0.50787 0.0
O1205 O 0.04228 0.53241 0.47945 0.0
O1206 O 0.05287 0.58473 0.49785 0.0
O1207 O 0.04176 0.54921 0.45907 0.0
C1208 C 0.01342 0.52726 0.50393 0.0
C1209 C 0.02773 0.52978 0.57469 0.0
C1210 C 0.01566 0.52568 0.60441 0.0
C1211 C 0.01578 0.53353 0.58796 0.0
C1212 C 0.02763 0.5139 0.60763 0.0
C1213 C 0.04001 0.51837 0.57801 0.0
C1214 C 0.0399 0.51041 0.59447 0.0
C1215 C 0.02203 0.57791 0.5237 0.0
C1216 C 0.02573 0.53663 0.55694 0.0
C1217 C 0.10725 0.53206 0.55734 0.0
C1218 C 0.11065 0.55217 0.56326 0.0
C1219 C 0.0603 0.57641 0.5096 0.0
C1220 C 0.04547 0.57117 0.43819 0.0
C1221 C 0.05477 0.5628 0.42423 0.0
C1222 C 0.05699 0.57007 0.40751 0.0
C1223 C 0.04743 0.584 0.40366 0.0
C1224 C 0.03598 0.58512 0.43452 0.0
C1225 C 0.03662 0.59113 0.41701 0.0
C1226 C 0.05301 0.52452 0.48933 0.0
C1227 C 0.04851 0.56681 0.45695 0.0
H1228 H 0.00622 0.54227 0.58528 0.0
H1229 H 0.02767 0.50775 0.6204 0.0
H1230 H 0.04942 0.51537 0.56788 0.0
H1231 H 0.04925 0.50147 0.59698 0.0
H1232 H 0.06166 0.55169 0.42721 0.0
H1233 H 0.04896 0.59006 0.39089 0.0
H1234 H 0.02862 0.59175 0.44525 0.0
H1235 H 0.02953 0.60209 0.4142 0.0
Tb1236 Tb 0.78079 0.79308 0.27674 0.0
C1237 C 0.84033 0.76438 0.30969 0.0
C1238 C 0.85158 0.79011 0.33651 0.0
C1239 C 0.85371 0.75718 0.33835 0.0
C1240 C 0.84311 0.78357 0.31798 0.0
C1241 C 0.84628 0.75106 0.31946 0.0
C1242 C 0.85631 0.7767 0.34689 0.0
C1243 C 0.83985 0.72762 0.29027 0.0
N1244 N 0.83341 0.75917 0.29135 0.0
C1245 C 0.83414 0.74139 0.2812 0.0
C1246 C 0.84553 0.73232 0.30961 0.0
Tb1247 Tb 0.82469 0.78289 0.27764 0.0
N1248 N 0.83865 0.79606 0.30733 0.0
C1249 C 0.84351 0.81555 0.31393 0.0
C1250 C 0.85564 0.80997 0.34373 0.0
C1251 C 0.85191 0.82276 0.33224 0.0
H1252 H 0.82983 0.73773 0.26622 0.0
H1253 H 0.85536 0.83819 0.3375 0.0
H1254 H 0.86261 0.78138 0.36124 0.0
H1255 H 0.83986 0.7134 0.28234 0.0
H1256 H 0.84071 0.82565 0.30532 0.0
H1257 H 0.74632 0.73787 0.2173 0.0
H1258 H 0.86212 0.81559 0.35791 0.0
H1259 H 0.77655 0.83956 0.2861 0.0
H1260 H 0.75897 0.7497 0.24967 0.0
H1261 H 0.77081 0.86407 0.26796 0.0
H1262 H 0.85812 0.74711 0.34621 0.0
H1263 H 0.74466 0.76053 0.19535 0.0
H1264 H 0.74848 0.79469 0.19053 0.0
H1265 H 0.85004 0.72167 0.31658 0.0
H1266 H 0.75535 0.82932 0.20434 0.0
N1267 N 0.76616 0.77954 0.24697 0.0
C1268 C 0.75894 0.76021 0.24077 0.0
C1269 C 0.75053 0.76602 0.20979 0.0
C1270 C 0.75638 0.78582 0.21652 0.0
C1271 C 0.75142 0.75321 0.22213 0.0
C1272 C 0.76406 0.79223 0.23544 0.0
H1273 H 0.76329 0.85529 0.23327 0.0
N1274 N 0.77398 0.81711 0.26175 0.0
C1275 C 0.77031 0.84947 0.26068 0.0
C1276 C 0.76818 0.81169 0.24308 0.0
C1277 C 0.77366 0.83546 0.27088 0.0
C1278 C 0.76611 0.84447 0.24113 0.0
C1279 C 0.7644 0.82526 0.23218 0.0
O1280 O 0.76798 0.8083 0.29779 0.0
O1281 O 0.80599 0.79621 0.2936 0.0
O1282 O 0.80635 0.75695 0.28496 0.0
O1283 O 0.77817 0.76164 0.27573 0.0
O1284 O 0.78299 0.78485 0.30434 0.0
O1285 O 0.75407 0.78131 0.28073 0.0
O1286 O 0.83897 0.77485 0.25421 0.0
O1287 O 0.80202 0.78584 0.25962 0.0
O1288 O 0.80049 0.82163 0.28062 0.0
O1289 O 0.82714 0.81305 0.27261 0.0
O1290 O 0.81282 0.76159 0.25306 0.0
O1291 O 0.8513 0.79764 0.27666 0.0
C1292 C 0.79985 0.79024 0.308 0.0
C1293 C 0.73599 0.80122 0.29682 0.0
C1294 C 0.70762 0.79988 0.31164 0.0
C1295 C 0.72411 0.79405 0.30974 0.0
C1296 C 0.70339 0.81308 0.30073 0.0
C1297 C 0.73114 0.81413 0.28594 0.0
C1298 C 0.71505 0.82013 0.28804 0.0
C1299 C 0.7887 0.75055 0.28113 0.0
C1300 C 0.75325 0.79506 0.29484 0.0
C1301 C 0.75803 0.81907 0.21299 0.0
C1302 C 0.75407 0.79936 0.20515 0.0
C1303 C 0.80117 0.7705 0.24741 0.0
C1304 C 0.87033 0.77996 0.25978 0.0
C1305 C 0.88268 0.7851 0.24659 0.0
C1306 C 0.8984 0.77758 0.24546 0.0
C1307 C 0.90082 0.76406 0.25695 0.0
C1308 C 0.87407 0.76771 0.27197 0.0
C1309 C 0.8889 0.75941 0.27021 0.0
C1310 C 0.81731 0.82632 0.27618 0.0
C1311 C 0.85358 0.78726 0.26073 0.0
H1312 H 0.72758 0.78388 0.31809 0.0
H1313 H 0.69091 0.81785 0.30194 0.0
H1314 H 0.73972 0.81951 0.27574 0.0
H1315 H 0.71151 0.83022 0.27966 0.0
H1316 H 0.88026 0.7952 0.23765 0.0
H1317 H 0.91215 0.7572 0.25592 0.0
H1318 H 0.86564 0.76456 0.28296 0.0
H1319 H 0.8913 0.74948 0.27934 0.0
Tb1320 Tb 0.80171 0.29266 0.77307 0.0
C1321 C 0.77953 0.3546 0.83401 0.0
C1322 C 0.80803 0.37087 0.85069 0.0
C1323 C 0.78247 0.38577 0.85483 0.0
C1324 C 0.79712 0.35462 0.83867 0.0
C1325 C 0.77201 0.37028 0.84185 0.0
C1326 C 0.80049 0.3861 0.85921 0.0
C1327 C 0.74445 0.35443 0.82325 0.0
N1328 N 0.77004 0.33966 0.82096 0.0
C1329 C 0.75246 0.33928 0.81593 0.0
C1330 C 0.75425 0.37003 0.8363 0.0
Tb1331 Tb 0.78233 0.31274 0.81386 0.0
N1332 N 0.80388 0.33969 0.8298 0.0
C1333 C 0.82217 0.34188 0.83074 0.0
C1334 C 0.82633 0.37186 0.85305 0.0
C1335 C 0.83347 0.35756 0.84259 0.0
H1336 H 0.74403 0.32672 0.80723 0.0
H1337 H 0.84777 0.35871 0.84342 0.0
H1338 H 0.80862 0.3985 0.86869 0.0
H1339 H 0.73053 0.35378 0.81919 0.0
H1340 H 0.82859 0.33195 0.82222 0.0
H1341 H 0.74279 0.24192 0.73777 0.0
H1342 H 0.83515 0.3841 0.86207 0.0
H1343 H 0.84369 0.28817 0.77941 0.0
H1344 H 0.75866 0.27158 0.75838 0.0
H1345 H 0.86105 0.26299 0.77227 0.0
H1346 H 0.77688 0.39781 0.86116 0.0
H1347 H 0.75843 0.21566 0.72728 0.0
H1348 H 0.78608 0.20232 0.72961 0.0
H1349 H 0.74798 0.38171 0.84207 0.0
H1350 H 0.81796 0.20755 0.74022 0.0
N1351 N 0.7839 0.26327 0.75931 0.0
C1352 C 0.7661 0.26074 0.75378 0.0
C1353 C 0.7656 0.22877 0.73652 0.0
C1354 C 0.78347 0.23089 0.74302 0.0
C1355 C 0.75679 0.24363 0.74224 0.0
C1356 C 0.79239 0.24859 0.75437 0.0
H1357 H 0.84597 0.23002 0.75628 0.0
N1358 N 0.81845 0.26921 0.77009 0.0
C1359 C 0.8467 0.25942 0.76912 0.0
C1360 C 0.81023 0.25154 0.76027 0.0
C1361 C 0.83672 0.27357 0.77348 0.0
C1362 C 0.83816 0.24088 0.76006 0.0
C1363 C 0.81978 0.23687 0.75508 0.0
O1364 O 0.82365 0.30388 0.75957 0.0
O1365 O 0.79529 0.31814 0.78926 0.0
O1366 O 0.76619 0.31605 0.78795 0.0
O1367 O 0.77813 0.3014 0.76146 0.0
O1368 O 0.82095 0.31951 0.78343 0.0
O1369 O 0.79745 0.29283 0.74357 0.0
O1370 O 0.75546 0.29922 0.81459 0.0
O1371 O 0.78224 0.28773 0.79267 0.0
O1372 O 0.81765 0.28925 0.79834 0.0
O1373 O 0.80685 0.30479 0.82565 0.0
O1374 O 0.78251 0.28428 0.82075 0.0
O1375 O 0.77192 0.31428 0.8403 0.0
C1376 C 0.80977 0.32973 0.78948 0.0
C1377 C 0.82296 0.30392 0.72651 0.0
C1378 C 0.82483 0.31947 0.69933 0.0
C1379 C 0.81576 0.31436 0.71459 0.0
C1380 C 0.841 0.31382 0.69575 0.0
C1381 C 0.83926 0.29849 0.72321 0.0
C1382 C 0.84819 0.30335 0.70772 0.0
C1383 C 0.76569 0.30983 0.76923 0.0
C1384 C 0.81427 0.30053 0.74339 0.0
C1385 C 0.81086 0.21899 0.74432 0.0
C1386 C 0.79274 0.21604 0.73821 0.0
C1387 C 0.78187 0.27561 0.80346 0.0
C1388 C 0.74678 0.29038 0.84339 0.0
C1389 C 0.75604 0.2804 0.85418 0.0
C1390 C 0.74674 0.26842 0.86535 0.0
C1391 C 0.72822 0.26625 0.86572 0.0
C1392 C 0.72822 0.28809 0.84364 0.0
C1393 C 0.71897 0.27603 0.85478 0.0
C1394 C 0.81871 0.29572 0.81694 0.0
C1395 C 0.75618 0.30439 0.83294 0.0
H1396 H 0.80344 0.31905 0.71753 0.0
H1397 H 0.84826 0.31798 0.68405 0.0
H1398 H 0.8451 0.29072 0.73269 0.0
H1399 H 0.86081 0.2993 0.70518 0.0
H1400 H 0.77041 0.2823 0.85434 0.0
H1401 H 0.72099 0.25711 0.87455 0.0
H1402 H 0.72096 0.29593 0.83549 0.0
H1403 H 0.70468 0.27444 0.85513 0.0
Tb1404 Tb 0.79939 0.78976 0.76764 0.0
C1405 C 0.72796 0.73963 0.73703 0.0
C1406 C 0.71287 0.73443 0.76506 0.0
C1407 C 0.69544 0.73062 0.73502 0.0
C1408 C 0.7288 0.73867 0.75609 0.0
C1409 C 0.7112 0.73529 0.72624 0.0
C1410 C 0.69627 0.73031 0.75441 0.0
C1411 C 0.72655 0.73856 0.69832 0.0
N1412 N 0.74347 0.74403 0.7289 0.0
C1413 C 0.74275 0.74251 0.70945 0.0
C1414 C 0.71067 0.73507 0.70676 0.0
Tb1415 Tb 0.76934 0.74483 0.7476 0.0
N1416 N 0.74512 0.74223 0.76593 0.0
C1417 C 0.746 0.74339 0.78527 0.0
C1418 C 0.71398 0.73458 0.78451 0.0
C1419 C 0.73062 0.73941 0.79469 0.0
H1420 H 0.75466 0.7436 0.70203 0.0
H1421 H 0.73165 0.7404 0.80994 0.0
H1422 H 0.68398 0.72682 0.76105 0.0
H1423 H 0.72636 0.73761 0.6831 0.0
H1424 H 0.75824 0.74848 0.7941 0.0
H1425 H 0.83461 0.79623 0.70382 0.0
H1426 H 0.70208 0.73151 0.79188 0.0
H1427 H 0.81558 0.79453 0.81257 0.0
H1428 H 0.80946 0.78447 0.72041 0.0
H1429 H 0.84447 0.80323 0.83107 0.0
H1430 H 0.68254 0.72713 0.72691 0.0
H1431 H 0.86421 0.80964 0.72126 0.0
H1432 H 0.88364 0.81482 0.75136 0.0
H1433 H 0.6981 0.73162 0.69802 0.0
H1434 H 0.88656 0.81482 0.78557 0.0
N1435 N 0.82297 0.79367 0.74838 0.0
C1436 C 0.82151 0.79157 0.72894 0.0
C1437 C 0.85286 0.80488 0.72891 0.0
C1438 C 0.85488 0.80497 0.74831 0.0
C1439 C 0.83617 0.79759 0.71909 0.0
C1440 C 0.83955 0.79924 0.75776 0.0
H1441 H 0.87216 0.81022 0.81524 0.0
N1442 N 0.82621 0.79377 0.78554 0.0
C1443 C 0.84386 0.8017 0.81578 0.0
C1444 C 0.84124 0.79896 0.77688 0.0
C1445 C 0.82739 0.79632 0.80499 0.0
C1446 C 0.85941 0.80571 0.80682 0.0
C1447 C 0.85824 0.80481 0.78722 0.0
O1448 O 0.79435 0.80501 0.7936 0.0
O1449 O 0.77299 0.77167 0.76681 0.0
O1450 O 0.77158 0.76552 0.72772 0.0
O1451 O 0.78937 0.79594 0.74105 0.0
O1452 O 0.77478 0.79988 0.76389 0.0
O1453 O 0.80907 0.81982 0.77348 0.0
O1454 O 0.77245 0.72813 0.72164 0.0
O1455 O 0.79571 0.76262 0.74876 0.0
O1456 O 0.7993 0.76871 0.78722 0.0
O1457 O 0.77916 0.73927 0.77488 0.0
O1458 O 0.79379 0.73384 0.74988 0.0
O1459 O 0.75793 0.71515 0.743 0.0
C1460 C 0.76392 0.78398 0.76452 0.0
C1461 C 0.79326 0.83744 0.79498 0.0
C1462 C 0.7734 0.85759 0.78688 0.0
C1463 C 0.78311 0.84344 0.78129 0.0
C1464 C 0.77424 0.86618 0.80608 0.0
C1465 C 0.79417 0.84615 0.81413 0.0
C1466 C 0.78474 0.86057 0.81963 0.0
C1467 C 0.77854 0.78388 0.72725 0.0
C1468 C 0.8024 0.82159 0.78992 0.0
C1469 C 0.87346 0.81033 0.77786 0.0
C1470 C 0.87178 0.81046 0.75844 0.0
C1471 C 0.80466 0.75002 0.75023 0.0
C1472 C 0.76889 0.69466 0.7191 0.0
C1473 C 0.78081 0.688 0.73031 0.0
C1474 C 0.78576 0.67058 0.72356 0.0
C1475 C 0.77891 0.65989 0.70555 0.0
C1476 C 0.76219 0.68408 0.701 0.0
C1477 C 0.76722 0.66673 0.69425 0.0
C1478 C 0.79093 0.7508 0.78836 0.0
C1479 C 0.76301 0.71244 0.72582 0.0
H1480 H 0.7825 0.837 0.76643 0.0
H1481 H 0.76697 0.87741 0.8105 0.0
H1482 H 0.80206 0.84167 0.82483 0.0
H1483 H 0.78549 0.8673 0.83441 0.0
H1484 H 0.78587 0.69602 0.74438 0.0
H1485 H 0.78265 0.64632 0.70028 0.0
H1486 H 0.75298 0.6892 0.69217 0.0
H1487 H 0.76198 0.65854 0.68033 0.0
Tb1488 Tb 0.5382 0.53438 0.51923 0.0
C1489 C 0.59195 0.6019 0.56673 0.0
C1490 C 0.59894 0.62438 0.54532 0.0
C1491 C 0.60274 0.63618 0.57933 0.0
C1492 C 0.59269 0.60542 0.54852 0.0
C1493 C 0.59758 0.61714 0.58239 0.0
C1494 C 0.60339 0.63981 0.5608 0.0
C1495 C 0.59565 0.59335 0.60263 0.0
N1496 N 0.58774 0.58325 0.56903 0.0
C1497 C 0.59042 0.57875 0.58663 0.0
C1498 C 0.59896 0.61266 0.60054 0.0
Tb1499 Tb 0.5802 0.56001 0.54204 0.0
N1500 N 0.58915 0.59002 0.53404 0.0
C1501 C 0.59315 0.59261 0.51615 0.0
C1502 C 0.60159 0.62714 0.5268 0.0
C1503 C 0.59898 0.61113 0.5122 0.0
H1504 H 0.58806 0.56385 0.5884 0.0
H1505 H 0.60155 0.613 0.49789 0.0
H1506 H 0.60812 0.65446 0.55862 0.0
H1507 H 0.59726 0.58968 0.61653 0.0
H1508 H 0.59141 0.58058 0.50454 0.0
H1509 H 0.51782 0.48563 0.56825 0.0
H1510 H 0.60637 0.64145 0.52375 0.0
H1511 H 0.53087 0.52772 0.47283 0.0
H1512 H 0.5311 0.51602 0.55962 0.0
H1513 H 0.51803 0.5013 0.44618 0.0
H1514 H 0.607 0.64809 0.59117 0.0
H1515 H 0.50598 0.45681 0.54356 0.0
H1516 H 0.49917 0.44235 0.50908 0.0
H1517 H 0.60331 0.62394 0.61292 0.0
H1518 H 0.49935 0.44652 0.47578 0.0
N1519 N 0.52769 0.50553 0.52949 0.0
C1520 C 0.52606 0.50409 0.5482 0.0
C1521 C 0.51199 0.47033 0.53947 0.0
C1522 C 0.51286 0.47187 0.52042 0.0
C1523 C 0.51856 0.48656 0.55341 0.0
C1524 C 0.52089 0.48983 0.51587 0.0
H1525 H 0.50635 0.46841 0.4522 0.0
N1526 N 0.52802 0.50981 0.49374 0.0
C1527 C 0.51899 0.4984 0.46046 0.0
C1528 C 0.52115 0.49205 0.49729 0.0
C1529 C 0.52643 0.51331 0.47562 0.0
C1530 C 0.51243 0.47989 0.46391 0.0
C1531 C 0.51318 0.47657 0.48253 0.0
O1532 O 0.51906 0.54418 0.50373 0.0
O1533 O 0.55568 0.56264 0.528 0.0
O1534 O 0.56095 0.56754 0.56313 0.0
O1535 O 0.53541 0.54486 0.54994 0.0
O1536 O 0.54396 0.55536 0.5007 0.0
O1537 O 0.51495 0.53863 0.53189 0.0
O1538 O 0.59933 0.54832 0.55546 0.0
O1539 O 0.56311 0.53148 0.53241 0.0
O1540 O 0.5572 0.52725 0.49788 0.0
O1541 O 0.58326 0.54942 0.51103 0.0
O1542 O 0.57495 0.53816 0.55964 0.0
O1543 O 0.60574 0.56298 0.53218 0.0
C1544 C 0.55387 0.56908 0.51277 0.0
C1545 C 0.48957 0.53649 0.5114 0.0
C1546 C 0.45975 0.54242 0.51238 0.0
C1547 C 0.47797 0.54817 0.51796 0.0
C1548 C 0.45307 0.52455 0.50032 0.0
C1549 C 0.48301 0.5187 0.49924 0.0
C1550 C 0.46473 0.51275 0.49377 0.0
C1551 C 0.54438 0.55796 0.56446 0.0
C1552 C 0.50842 0.544 0.51713 0.0
C1553 C 0.50555 0.45856 0.4869 0.0
C1554 C 0.50543 0.45621 0.50584 0.0
C1555 C 0.56523 0.5245 0.5473 0.0
C1556 C 0.6292 0.56303 0.55468 0.0
C1557 C 0.64229 0.5522 0.55225 0.0
C1558 C 0.6593 0.55938 0.56157 0.0
C1559 C 0.66331 0.57749 0.57357 0.0
C1560 C 0.63312 0.58121 0.56665 0.0
C1561 C 0.65014 0.58834 0.57617 0.0
C1562 C 0.57387 0.53652 0.49646 0.0
C1563 C 0.61161 0.55434 0.54491 0.0
H1564 H 0.48319 0.5619 0.5274 0.0
H1565 H 0.43897 0.51993 0.49572 0.0
H1566 H 0.4919 0.50958 0.49392 0.0
H1567 H 0.45962 0.49908 0.48431 0.0
H1568 H 0.63929 0.53814 0.54297 0.0
H1569 H 0.67651 0.5831 0.58088 0.0
H1570 H 0.6232 0.58986 0.56864 0.0
H1571 H 0.65313 0.6023 0.58549 0.0
Tb1572 Tb 0.06608 0.53901 0.02889 0.0
C1573 C 1.00063 0.50025 0.06307 0.0
C1574 C 0.98551 0.47451 0.03778 0.0
C1575 C 0.9833 0.47072 0.07062 0.0
C1576 C 0.9966 0.49296 0.04399 0.0
C1577 C 0.99368 0.48947 0.07666 0.0
C1578 C 0.97925 0.46323 0.05119 0.0
C1579 C 0.00647 0.51719 0.101 0.0
N1580 N 0.01065 0.51839 0.06829 0.0
C1581 C 0.01304 0.5273 0.08695 0.0
C1582 C 0.99695 0.49808 0.09586 0.0
Tb1583 Tb 0.02145 0.53351 0.04441 0.0
N1584 N 1.00274 0.50443 0.03156 0.0
C1585 C 0.99707 0.49879 0.01266 0.0
C1586 C 0.98058 0.46824 0.01835 0.0
C1587 C 0.98613 0.48059 0.00579 0.0
H1588 H 0.02049 0.54202 0.091 0.0
H1589 H 0.98208 0.47606 0.99076 0.0
H1590 H 0.97087 0.44894 0.04669 0.0
H1591 H 0.00875 0.52412 0.11577 0.0
H1592 H 1.00123 0.50795 1.00258 0.0
H1593 H 0.10248 0.60434 0.07473 0.0
H1594 H 0.97213 0.45414 0.01299 0.0
H1595 H 0.06969 0.52236 0.98312 0.0
H1596 H 0.08456 0.57114 0.0673 0.0
H1597 H 0.08109 0.5354 0.95568 0.0
H1598 H 0.97798 0.46209 0.08083 0.0
H1599 H 0.11236 0.6215 0.04879 0.0
H1600 H 0.11439 0.6204 0.01378 0.0
H1601 H 0.99183 0.4903 0.10676 0.0
H1602 H 0.10853 0.60157 0.98124 0.0
N1603 N 0.08344 0.56957 0.03737 0.0
C1604 C 0.08865 0.57838 0.0558 0.0
C1605 C 0.10437 0.60691 0.04543 0.0
C1606 C 0.10007 0.59734 0.02661 0.0
C1607 C 0.09888 0.59726 0.0601 0.0
C1608 C 0.08956 0.57841 0.02304 0.0
H1609 H 0.09627 0.56975 0.95944 0.0
N1610 N 0.07698 0.54938 1.00236 0.0
C1611 C 0.08245 0.54479 0.96939 0.0
C1612 C 0.08624 0.56793 0.00484 0.0
C1613 C 0.07582 0.53748 0.98507 0.0
C1614 C 0.091 0.56418 0.97157 0.0
C1615 C 0.09334 0.57592 0.98954 0.0
O1616 O 0.07743 0.51458 0.02233 0.0
O1617 O 0.04152 0.51946 0.03223 0.0
O1618 O 0.03715 0.52041 0.06216 0.0
O1619 O 0.065 0.5391 0.05933 0.0
O1620 O 0.05379 0.51288 0.00834 0.0
O1621 O 0.09109 0.53909 0.04269 0.0
O1622 O 0.00906 0.55467 0.05841 0.0
O1623 O 0.04567 0.55338 0.04063 0.0
O1624 O 0.05113 0.54968 0.00829 0.0
O1625 O 0.02195 0.53692 0.01488 0.0
O1626 O 0.03391 0.55954 0.06501 0.0
O1627 O 0.99849 0.53871 0.03052 0.0
C1628 C 0.04025 0.50704 0.0172 0.0
C1629 C 0.10861 0.52032 0.02473 0.0
C1630 C 0.13286 0.50323 0.01961 0.0
C1631 C 0.11789 0.50639 0.02916 0.0
C1632 C 0.13843 0.51405 0.00564 0.0
C1633 C 0.11479 0.53143 0.0112 0.0
C1634 C 0.12951 0.52818 1.00159 0.0
C1635 C 0.05382 0.52825 0.06856 0.0
C1636 C 0.09191 0.5222 0.03332 0.0
C1637 C 0.10309 0.5951 0.99283 0.0
C1638 C 0.10643 0.60581 0.01135 0.0
C1639 C 0.0466 0.56617 0.05534 0.0
C1640 C 0.97844 0.5513 0.05053 0.0
C1641 C 0.96862 0.5638 0.04408 0.0
C1642 C 0.95195 0.56495 0.05062 0.0
C1643 C 0.94504 0.55349 0.0636 0.0
C1644 C 0.97139 0.53976 0.06341 0.0
C1645 C 0.95473 0.54089 0.06991 0.0
C1646 C 0.03368 0.54524 0.00438 0.0
C1647 C 0.99649 0.5518 0.04473 0.0
H1648 H 0.11331 0.49781 0.0397 0.0
H1649 H 0.14992 0.51181 0.99813 0.0
H1650 H 0.10824 0.54254 0.00794 0.0
H1651 H 0.13403 0.53665 0.991 0.0
H1652 H 0.97405 0.57284 0.03421 0.0
H1653 H 0.93217 0.55429 0.06879 0.0
H1654 H 0.9788 0.53013 0.06863 0.0
H1655 H 0.94939 0.5321 0.07996 0.0
C1656 C 0.02497 0.20434 0.94221 0.0
C1657 C 0.0213 0.2211 0.95311 0.0
C1658 C 0.02868 0.1892 0.95078 0.0
C1659 C 0.02389 0.16842 0.99518 0.0
H1660 H 0.05893 0.14026 0.97504 0.0
C1661 C 0.04351 0.1072 0.0304 0.0
C1662 C 0.04591 0.09062 0.01819 0.0
C1663 C 0.042 0.124 0.02338 0.0
C1664 C 0.04897 0.14781 0.98079 0.0
H1665 H 0.0186 0.23484 0.98176 0.0
H1666 H 0.02495 0.20846 0.99672 0.0
H1667 H 0.05312 0.16737 0.96119 0.0
H1668 H 0.04796 0.07839 0.98895 0.0
H1669 H 0.04547 0.10756 0.97663 0.0
H1670 H 0.01966 0.14875 0.01469 0.0
C1671 C 0.02488 0.20693 0.98146 0.0
C1672 C 0.0456 0.16344 0.97278 0.0
C1673 C 0.02127 0.22215 0.97287 0.0
C1674 C 0.04664 0.09115 0.99877 0.0
C1675 C 0.0452 0.10793 0.99174 0.0
C1676 C 0.02727 0.15278 1.00319 0.0
C1677 C 0.02877 0.19021 0.97057 0.0
C1678 C 0.03286 0.17392 0.97969 0.0
C1679 C 0.0426 0.12459 1.00387 0.0
C1680 C 0.03974 0.14206 0.99601 0.0
H1681 H 0.02519 0.20299 0.92698 0.0
H1682 H 0.03132 0.17656 0.94178 0.0
H1683 H 0.01385 0.17587 1.00084 0.0
H1684 H 0.04252 0.10706 0.04537 0.0
H1685 H 0.0402 0.13649 0.03326 0.0
C1686 C 0.14366 0.80902 0.14708 0.0
C1687 C 0.12979 0.81766 0.15395 0.0
C1688 C 0.15857 0.80883 0.15924 0.0
C1689 C 0.18336 0.83242 0.20638 0.0
H1690 H 0.20243 0.78599 0.20109 0.0
C1691 C 0.23731 0.82236 0.26205 0.0
C1692 C 0.25001 0.8116 0.25581 0.0
C1693 C 0.2229 0.82352 0.24967 0.0
C1694 C 0.19753 0.79924 0.20268 0.0
H1695 H 0.12097 0.83313 0.17905 0.0
H1696 H 0.14683 0.83284 0.20015 0.0
H1697 H 0.17749 0.78746 0.17944 0.0
H1698 H 0.25749 0.79411 0.231 0.0
H1699 H 0.23302 0.79666 0.20953 0.0
H1700 H 0.20346 0.84427 0.22953 0.0
C1701 C 0.14633 0.8263 0.18535 0.0
C1702 C 0.18311 0.80006 0.19018 0.0
C1703 C 0.1314 0.8264 0.17322 0.0
C1704 C 0.24804 0.80247 0.23659 0.0
C1705 C 0.23376 0.80376 0.22419 0.0
C1706 C 0.19785 0.83164 0.21883 0.0
C1707 C 0.1601 0.81736 0.17862 0.0
C1708 C 0.17576 0.81665 0.19182 0.0
C1709 C 0.22079 0.81413 0.23051 0.0
C1710 C 0.20522 0.81503 0.21722 0.0
H1711 H 0.14287 0.80212 0.13235 0.0
H1712 H 0.16894 0.80202 0.15341 0.0
H1713 H 0.1783 0.84557 0.20801 0.0
H1714 H 0.23837 0.82992 0.27648 0.0
H1715 H 0.21323 0.83156 0.25527 0.0
C1716 C 0.51479 0.82829 0.47462 0.0
C1717 C 0.52424 0.82389 0.45875 0.0
C1718 C 0.51586 0.8476 0.48335 0.0
C1719 C 0.52243 0.89502 0.47057 0.0
H1720 H 0.53315 0.9176 0.52393 0.0
C1721 C 0.53758 0.97694 0.49291 0.0
C1722 C 0.53586 0.98623 0.51134 0.0
C1723 C 0.53494 0.95694 0.48824 0.0
C1724 C 0.52978 0.91156 0.50902 0.0
H1725 H 0.54305 0.83616 0.44038 0.0
H1726 H 0.54491 0.86965 0.45552 0.0
H1727 H 0.53155 0.88297 0.51328 0.0
H1728 H 0.53002 0.98146 0.53952 0.0
H1729 H 0.52316 0.94601 0.53082 0.0
H1730 H 0.51948 0.92264 0.46598 0.0
C1731 C 0.53647 0.85826 0.46106 0.0
C1732 C 0.52902 0.89168 0.50293 0.0
C1733 C 0.53539 0.83908 0.45238 0.0
C1734 C 0.53086 0.97476 0.52501 0.0
C1735 C 0.52735 0.95439 0.52006 0.0
C1736 C 0.52265 0.91457 0.47664 0.0
C1737 C 0.52639 0.8628 0.47632 0.0
C1738 C 0.52586 0.88337 0.48354 0.0
C1739 C 0.52955 0.94512 0.50156 0.0
C1740 C 0.52699 0.92347 0.49586 0.0
H1741 H 0.50606 0.81689 0.47985 0.0
H1742 H 0.50788 0.85068 0.49502 0.0
H1743 H 0.51952 0.88895 0.45559 0.0
H1744 H 0.54186 0.98529 0.48211 0.0
H1745 H 0.53776 0.95093 0.47416 0.0
C1746 C 0.51874 0.31213 0.63965 0.0
C1747 C 0.53469 0.30937 0.64825 0.0
C1748 C 0.50289 0.3093 0.6487 0.0
C1749 C 0.48207 0.28376 0.68538 0.0
H1750 H 0.44966 0.31897 0.68741 0.0
C1751 C 0.43156 0.28621 0.74068 0.0
C1752 C 0.41346 0.28425 0.73444 0.0
C1753 C 0.44495 0.28953 0.72852 0.0
C1754 C 0.45847 0.30888 0.68672 0.0
H1755 H 0.54651 0.3016 0.67311 0.0
H1756 H 0.51907 0.29665 0.68879 0.0
H1757 H 0.47596 0.3242 0.66936 0.0
H1758 H 0.39563 0.28575 0.71052 0.0
H1759 H 0.41939 0.29237 0.68935 0.0
H1760 H 0.46496 0.26878 0.70312 0.0
C1761 C 0.51867 0.30088 0.67503 0.0
C1762 C 0.47353 0.31186 0.6764 0.0
C1763 C 0.53448 0.30389 0.66611 0.0
C1764 C 0.40935 0.28708 0.71588 0.0
C1765 C 0.42294 0.29079 0.70371 0.0
C1766 C 0.46716 0.28088 0.69572 0.0
C1767 C 0.50261 0.30338 0.66642 0.0
C1768 C 0.48574 0.29955 0.67596 0.0
C1769 C 0.44083 0.2915 0.70979 0.0
C1770 C 0.45538 0.29361 0.69686 0.0
H1771 H 0.51848 0.31637 0.62589 0.0
H1772 H 0.49079 0.3113 0.64162 0.0
H1773 H 0.49086 0.27368 0.68496 0.0
H1774 H 0.43549 0.28495 0.75503 0.0
H1775 H 0.45864 0.29047 0.73378 0.0
C1776 C 0.02443 0.82875 0.64164 0.0
C1777 C 0.01366 0.81066 0.63368 0.0
C1778 C 0.02883 0.84275 0.63048 0.0
C1779 C 0.01526 0.85771 0.58683 0.0
H1780 H 0.06559 0.88049 0.58723 0.0
C1781 C 0.04379 0.89777 0.52885 0.0
C1782 C 0.05632 0.91511 0.53493 0.0
C1783 C 0.03803 0.88595 0.54179 0.0
C1784 C 0.05148 0.87445 0.58718 0.0
H1785 H 0.99857 0.79304 0.60819 0.0
H1786 H 0.00613 0.81772 0.58865 0.0
H1787 H 0.05598 0.85832 0.60872 0.0
H1788 H 0.07274 0.93394 0.55896 0.0
H1789 H 0.0629 0.91305 0.58162 0.0
H1790 H 0.01078 0.87371 0.56514 0.0
C1791 C 0.01115 0.82101 0.60348 0.0
C1792 C 0.046 0.86181 0.59945 0.0
C1793 C 0.00694 0.80691 0.61458 0.0
C1794 C 0.06319 0.92045 0.55402 0.0
C1795 C 0.05757 0.90856 0.56691 0.0
C1796 C 0.02074 0.8704 0.57458 0.0
C1797 C 0.02233 0.83892 0.6113 0.0
C1798 C 0.02788 0.85321 0.5992 0.0
C1799 C 0.04486 0.89128 0.56092 0.0
C1800 C 0.03891 0.87867 0.57452 0.0
H1801 H 0.02982 0.8319 0.65635 0.0
H1802 H 0.03741 0.85652 0.63679 0.0
H1803 H 1.00119 0.85138 0.5866 0.0
H1804 H 0.0381 0.89366 0.51424 0.0
H1805 H 0.0283 0.87261 0.53683 0.0
C1806 C 0.53277 0.80707 0.87564 0.0
C1807 C 0.54932 0.81857 0.87366 0.0
C1808 C 0.51719 0.81108 0.86786 0.0
C1809 C 0.50287 0.83756 0.83199 0.0
H1810 H 0.45786 0.82881 0.85454 0.0
C1811 C 0.44084 0.85936 0.80233 0.0
C1812 C 0.42658 0.8434 0.79668 0.0
C1813 C 0.45534 0.85793 0.8141 0.0
C1814 C 0.47045 0.83142 0.84827 0.0
H1815 H 0.56293 0.84385 0.86352 0.0
H1816 H 0.5359 0.85157 0.85102 0.0
H1817 H 0.48452 0.82293 0.8708 0.0
H1818 H 0.41643 0.81338 0.7989 0.0
H1819 H 0.44143 0.81129 0.81998 0.0
H1820 H 0.48885 0.8463 0.80965 0.0
C1821 C 0.53475 0.83887 0.85749 0.0
C1822 C 0.4856 0.82789 0.8574 0.0
C1823 C 0.55022 0.83452 0.8647 0.0
C1824 C 0.42695 0.82614 0.80335 0.0
C1825 C 0.44124 0.82487 0.81539 0.0
C1826 C 0.48787 0.84144 0.82312 0.0
C1827 C 0.51809 0.82695 0.85855 0.0
C1828 C 0.50195 0.83085 0.84928 0.0
C1829 C 0.4556 0.84065 0.8206 0.0
C1830 C 0.47158 0.83828 0.83113 0.0
H1831 H 0.53196 0.79477 0.88269 0.0
H1832 H 0.50455 0.80153 0.86876 0.0
H1833 H 0.51511 0.83946 0.82504 0.0
H1834 H 0.44083 0.87291 0.79764 0.0
H1835 H 0.46643 0.87023 0.818 0.0
C1836 C 0.47623 0.19978 0.13398 0.0
C1837 C 0.49046 0.20806 0.14783 0.0
C1838 C 0.47596 0.18201 0.1226 0.0
C1839 C 0.50619 0.16698 0.09663 0.0
H1840 H 0.48132 0.11326 0.085 0.0
C1841 C 0.53022 0.11062 0.04559 0.0
C1842 C 0.51773 0.09548 0.03445 0.0
C1843 C 0.52455 0.12417 0.0586 0.0
C1844 C 0.48806 0.12834 0.08792 0.0
H1845 H 0.51462 0.204 0.1621 0.0
H1846 H 0.51459 0.17321 0.14142 0.0
H1847 H 0.47473 0.13458 0.1131 0.0
H1848 H 0.48969 0.08296 0.02668 0.0
H1849 H 0.47953 0.10706 0.04965 0.0
H1850 H 0.51919 0.16128 0.07146 0.0
C1851 C 0.5034 0.18009 0.13987 0.0
C1852 C 0.48449 0.14031 0.10405 0.0
C1853 C 0.50344 0.19765 0.15157 0.0
C1854 C 0.49944 0.09465 0.03533 0.0
C1855 C 0.4937 0.10823 0.0485 0.0
C1856 C 0.50954 0.1552 0.08046 0.0
C1857 C 0.49013 0.17276 0.1248 0.0
C1858 C 0.49381 0.15954 0.10854 0.0
C1859 C 0.50628 0.12276 0.06056 0.0
C1860 C 0.50076 0.13571 0.07615 0.0
H1861 H 0.46613 0.20772 0.131 0.0
H1862 H 0.46581 0.17658 0.1108 0.0
H1863 H 0.51318 0.182 0.09982 0.0
H1864 H 0.54439 0.11158 0.04473 0.0
H1865 H 0.53456 0.13512 0.06778 0.0
C1866 C 0.14141 0.29662 0.34874 0.0
C1867 C 0.14127 0.3142 0.36043 0.0
C1868 C 0.15239 0.29606 0.33406 0.0
C1869 C 0.19211 0.32201 0.31697 0.0
H1870 H 0.17498 0.28102 0.2734 0.0
C1871 C 0.23585 0.28655 0.26385 0.0
C1872 C 0.24045 0.2739 0.2753 0.0
C1873 C 0.22113 0.29481 0.26735 0.0
C1874 C 0.17972 0.29306 0.28503 0.0
H1875 H 0.15251 0.34495 0.36674 0.0
H1876 H 0.17168 0.34413 0.34047 0.0
H1877 H 0.15392 0.29144 0.29504 0.0
H1878 H 0.23336 0.25944 0.29872 0.0
H1879 H 0.20661 0.27238 0.30365 0.0
H1880 H 0.21807 0.32275 0.30736 0.0
C1881 C 0.16345 0.33076 0.34278 0.0
C1882 C 0.16782 0.29879 0.2976 0.0
C1883 C 0.15267 0.33122 0.35783 0.0
C1884 C 0.22962 0.26853 0.28931 0.0
C1885 C 0.21451 0.27606 0.29221 0.0
C1886 C 0.20393 0.31656 0.30413 0.0
C1887 C 0.16302 0.3132 0.33048 0.0
C1888 C 0.17419 0.31215 0.31445 0.0
C1889 C 0.2107 0.28985 0.28183 0.0
C1890 C 0.19792 0.30113 0.28894 0.0
H1891 H 0.13277 0.28334 0.35078 0.0
H1892 H 0.15241 0.28216 0.32541 0.0
H1893 H 0.19739 0.3324 0.32976 0.0
H1894 H 0.24442 0.29129 0.25332 0.0
H1895 H 0.21849 0.30577 0.25958 0.0
C1896 C 0.95256 0.05753 0.2085 0.0
C1897 C 0.96034 0.06915 0.22602 0.0
C1898 C 0.96162 0.05696 0.19167 0.0
C1899 C 1.0029 0.08216 0.16952 0.0
H1900 H 0.9889 0.03703 0.12976 0.0
C1901 C 0.04171 0.07151 0.09908 0.0
C1902 C 0.03224 0.06071 0.08186 0.0
C1903 C 0.03364 0.07325 0.11665 0.0
C1904 C 0.99302 0.05 0.14043 0.0
H1905 H 0.98447 0.08949 0.23868 0.0
H1906 H 1.00021 0.08846 0.2098 0.0
H1907 H 0.97436 0.03847 0.15897 0.0
H1908 H 0.00602 0.04374 0.0707 0.0
H1909 H 0.99232 0.04662 0.10051 0.0
H1910 H 0.02186 0.09346 0.15084 0.0
C1911 C 0.98686 0.07974 0.20883 0.0
C1912 C 0.98446 0.05088 0.15759 0.0
C1913 C 0.97775 0.08028 0.22573 0.0
C1914 C 0.01416 0.05211 0.08325 0.0
C1915 C 0.00619 0.05365 0.10074 0.0
C1916 C 0.01156 0.08123 0.15232 0.0
C1917 C 0.97911 0.06797 0.19122 0.0
C1918 C 0.98894 0.06704 0.17268 0.0
C1919 C 0.01566 0.06411 0.11807 0.0
C1920 C 0.00676 0.06518 0.13713 0.0
H1921 H 0.93925 0.0487 0.20772 0.0
H1922 H 0.95456 0.0479 0.17884 0.0
H1923 H 0.00704 0.0951 0.18022 0.0
H1924 H 0.05553 0.07855 0.0991 0.0
H1925 H 0.04176 0.08147 0.12927 0.0
C1926 C 0.29596 0.68668 0.48252 0.0
C1927 C 0.28509 0.66821 0.48087 0.0
C1928 C 0.29461 0.69743 0.46836 0.0
C1929 C 0.27701 0.69366 0.41891 0.0
H1930 H 0.27506 0.74739 0.43568 0.0
C1931 C 0.24448 0.73852 0.37447 0.0
C1932 C 0.25295 0.75789 0.37547 0.0
C1933 C 0.25144 0.72723 0.38559 0.0
C1934 C 0.27594 0.73251 0.4308 0.0
H1935 H 0.26441 0.64628 0.46339 0.0
H1936 H 0.26166 0.66531 0.43877 0.0
H1937 H 0.28111 0.72806 0.459 0.0
H1938 H 0.27566 0.78055 0.38803 0.0
H1939 H 0.28789 0.76067 0.4076 0.0
H1940 H 0.27103 0.698 0.39075 0.0
C1941 C 0.27157 0.67127 0.45071 0.0
C1942 C 0.27938 0.72146 0.44411 0.0
C1943 C 0.27309 0.66042 0.46477 0.0
C1944 C 0.26893 0.7656 0.38706 0.0
C1945 C 0.27586 0.75433 0.39827 0.0
C1946 C 0.27344 0.70469 0.40561 0.0
C1947 C 0.28221 0.68993 0.45249 0.0
C1948 C 0.27975 0.70189 0.43828 0.0
C1949 C 0.26693 0.7352 0.39788 0.0
C1950 C 0.27269 0.72411 0.4115 0.0
H1951 H 0.30535 0.69292 0.49486 0.0
H1952 H 0.30312 0.71168 0.46994 0.0
H1953 H 0.27746 0.67865 0.41407 0.0
H1954 H 0.23225 0.73227 0.36542 0.0
H1955 H 0.24427 0.71254 0.38521 0.0
C1956 C 0.64706 1.0048 0.69691 0.0
C1957 C 0.66178 0.01985 0.69658 0.0
C1958 C 0.6326 1.0013 0.68339 0.0
C1959 C 0.60907 0.02978 0.66262 0.0
H1960 H 0.58748 0.9871 0.62213 0.0
C1961 C 0.57573 0.03942 0.59614 0.0
C1962 C 0.56078 0.02605 0.58666 0.0
C1963 C 0.58342 0.0366 0.61294 0.0
C1964 C 0.59299 0.99878 0.63387 0.0
H1965 H 0.67397 0.04187 0.68126 0.0
H1966 H 0.64829 0.03604 0.65778 0.0
H1967 H 0.61292 0.98428 0.64284 0.0
H1968 H 0.54134 0.99986 0.58767 0.0
H1969 H 0.55532 0.99464 0.61741 0.0
H1970 H 0.58977 0.04464 0.6534 0.0
C1971 C 0.64809 0.02692 0.66837 0.0
C1972 C 0.60762 0.99727 0.6454 0.0
C1973 C 0.66269 0.03022 0.6817 0.0
C1974 C 0.55297 0.01028 0.59476 0.0
C1975 C 0.56087 0.00732 0.61166 0.0
C1976 C 0.59437 0.03119 0.65135 0.0
C1977 C 0.63277 0.01302 0.66973 0.0
C1978 C 0.61614 0.01315 0.65915 0.0
C1979 C 0.57632 0.02034 0.6206 0.0
C1980 C 0.58687 0.01612 0.63627 0.0
H1981 H 0.64629 0.99654 0.70825 0.0
H1982 H 0.6208 0.99055 0.68452 0.0
H1983 H 0.61541 0.04199 0.67352 0.0
H1984 H 0.58191 0.05183 0.59038 0.0
H1985 H 0.59557 0.04664 0.61936 0.0
C1986 C 0.30423 0.34358 0.97886 0.0
C1987 C 0.30804 0.36388 0.98348 0.0
C1988 C 0.30553 0.3342 0.96035 0.0
C1989 C 0.32775 0.34283 0.91738 0.0
H1990 H 0.28996 0.30176 0.88981 0.0
C1991 C 0.31469 0.32863 0.83718 0.0
C1992 C 0.3101 0.30967 0.8269 0.0
C1993 C 0.31703 0.33215 0.85689 0.0
C1994 C 0.30081 0.3129 0.89747 0.0
H1995 H 0.31586 0.39024 0.97231 0.0
H1996 H 0.31816 0.374 0.94026 0.0
H1997 H 0.28825 0.31403 0.92354 0.0
H1998 H 0.30396 0.2794 0.82904 0.0
H1999 H 0.3078 0.28559 0.86403 0.0
H2000 H 0.33998 0.34229 0.89127 0.0
C2001 C 0.31437 0.36527 0.95089 0.0
C2002 C 0.2998 0.31997 0.91674 0.0
C2003 C 0.31292 0.37458 0.96924 0.0
C2004 C 0.30793 0.29414 0.83671 0.0
C2005 C 0.30997 0.29769 0.85664 0.0
C2006 C 0.32876 0.3358 0.89823 0.0
C2007 C 0.31089 0.34499 0.94625 0.0
C2008 C 0.31299 0.33546 0.9267 0.0
C2009 C 0.31438 0.31678 0.86689 0.0
C2010 C 0.31502 0.32121 0.8879 0.0
H2011 H 0.30034 0.33496 0.98955 0.0
H2012 H 0.30273 0.31856 0.95717 0.0
H2013 H 0.33832 0.35448 0.92478 0.0
H2014 H 0.31612 0.34081 0.82989 0.0
H2015 H 0.32013 0.347 0.86435 0.0
C2016 C 0.97767 0.05847 0.33042 0.0
C2017 C 0.96153 0.06517 0.3306 0.0
C2018 C 0.98657 0.05535 0.34723 0.0
C2019 C 0.98724 0.06476 0.40215 0.0
H2020 H 0.01874 0.02872 0.39866 0.0
C2021 C 0.01922 0.04516 0.47177 0.0
C2022 C 0.03646 0.04097 0.47214 0.0
C2023 C 0.00998 0.04722 0.45472 0.0
C2024 C 0.01016 0.03903 0.40017 0.0
H2025 H 0.94252 0.07372 0.34971 0.0
H2026 H 0.95764 0.06836 0.37852 0.0
H2027 H 1.00367 0.0341 0.36993 0.0
H2028 H 0.05726 0.03612 0.45396 0.0
H2029 H 0.04117 0.03886 0.42444 0.0
H2030 H 0.99369 0.06958 0.43242 0.0
C2031 C 0.96378 0.06562 0.36541 0.0
C2032 C 1.00135 0.04223 0.38334 0.0
C2033 C 0.95486 0.06867 0.34858 0.0
C2034 C 0.04387 0.03873 0.45448 0.0
C2035 C 0.03452 0.04046 0.43734 0.0
C2036 C 0.99597 0.06148 0.41897 0.0
C2037 C 0.97993 0.05877 0.36533 0.0
C2038 C 0.98958 0.05523 0.38372 0.0
C2039 C 0.01742 0.0452 0.43697 0.0
C2040 C 0.00773 0.04852 0.41856 0.0
H2041 H 0.98347 0.05545 0.31711 0.0
H2042 H 0.99892 0.05038 0.34589 0.0
H2043 H 0.9788 0.0752 0.40376 0.0
H2044 H 0.01307 0.04761 0.48494 0.0
H2045 H 0.99691 0.05062 0.45559 0.0
C2046 C 0.26744 0.67549 0.58369 0.0
C2047 C 0.28255 0.66768 0.58063 0.0
C2048 C 0.26656 0.68748 0.60074 0.0
C2049 C 0.28993 0.70777 0.64838 0.0
H2050 H 0.27585 0.75458 0.63883 0.0
C2051 C 0.31404 0.77789 0.69862 0.0
C2052 C 0.30006 0.78292 0.70869 0.0
C2053 C 0.31026 0.76552 0.68119 0.0
C2054 C 0.2797 0.74152 0.64157 0.0
H2055 H 0.30802 0.66476 0.5927 0.0
H2056 H 0.30706 0.6867 0.62242 0.0
H2057 H 0.27087 0.72625 0.61352 0.0
H2058 H 0.27151 0.78069 0.70834 0.0
H2059 H 0.26486 0.75908 0.67738 0.0
H2060 H 0.29958 0.72358 0.67619 0.0
C2061 C 0.29563 0.68318 0.612 0.0
C2062 C 0.2767 0.72527 0.62728 0.0
C2063 C 0.29628 0.67076 0.59506 0.0
C2064 C 0.28242 0.7771 0.70048 0.0
C2065 C 0.27864 0.76481 0.68293 0.0
C2066 C 0.29318 0.72411 0.66252 0.0
C2067 C 0.28105 0.69222 0.61463 0.0
C2068 C 0.28206 0.70835 0.6305 0.0
C2069 C 0.2925 0.75819 0.67384 0.0
C2070 C 0.28837 0.74109 0.659 0.0
H2071 H 0.25663 0.67289 0.57261 0.0
H2072 H 0.25498 0.69385 0.60263 0.0
H2073 H 0.29392 0.69485 0.6513 0.0
H2074 H 0.32759 0.78158 0.70505 0.0
H2075 H 0.32103 0.76033 0.67427 0.0
C2076 C 0.66056 0.06358 0.79415 0.0
C2077 C 0.67443 0.05358 0.79406 0.0
C2078 C 0.65138 0.06636 0.81013 0.0
C2079 C 0.63684 0.04317 0.84839 0.0
H2080 H 0.61978 0.09038 0.86331 0.0
C2081 C 0.58782 0.06326 0.9048 0.0
C2082 C 0.57204 0.06642 0.89603 0.0
C2083 C 0.60177 0.05975 0.89421 0.0
C2084 C 0.62456 0.07719 0.85927 0.0
H2085 H 0.6901 0.03905 0.81054 0.0
H2086 H 0.67366 0.04376 0.83874 0.0
H2087 H 0.6446 0.09052 0.84341 0.0
H2088 H 0.55844 0.06776 0.86919 0.0
H2089 H 0.58361 0.06276 0.85076 0.0
H2090 H 0.61642 0.02987 0.86415 0.0
C2091 C 0.67007 0.04951 0.82641 0.0
C2092 C 0.63873 0.07728 0.84809 0.0
C2093 C 0.67943 0.04688 0.81039 0.0
C2094 C 0.57044 0.06559 0.87635 0.0
C2095 C 0.58466 0.06253 0.86582 0.0
C2096 C 0.62274 0.04315 0.85982 0.0
C2097 C 0.65588 0.0591 0.82625 0.0
C2098 C 0.64443 0.06009 0.84189 0.0
C2099 C 0.60039 0.05991 0.87484 0.0
C2100 C 0.61618 0.05999 0.86458 0.0
H2101 H 0.65649 0.06888 0.78171 0.0
H2102 H 0.64024 0.07348 0.80955 0.0
H2103 H 0.641 0.02973 0.84365 0.0
H2104 H 0.58987 0.0644 0.92001 0.0
H2105 H 0.61401 0.05805 0.90131 0.0
C2106 C 0.29533 0.37388 0.10149 0.0
C2107 C 0.29813 0.36401 0.08366 0.0
C2108 C 0.2912 0.36388 0.11632 0.0
C2109 C 0.27522 0.31448 0.12661 0.0
H2110 H 0.29573 0.33906 0.17746 0.0
C2111 C 0.27549 0.27452 0.19065 0.0
C2112 C 0.2727 0.28477 0.20833 0.0
C2113 C 0.27689 0.28355 0.17481 0.0
C2114 C 0.28972 0.33207 0.16338 0.0
H2115 H 0.2987 0.33589 0.06733 0.0
H2116 H 0.292 0.31849 0.09332 0.0
H2117 H 0.3019 0.35609 0.15127 0.0
H2118 H 0.26825 0.31219 0.22301 0.0
H2119 H 0.27064 0.32781 0.19547 0.0
H2120 H 0.26337 0.29026 0.13888 0.0
C2121 C 0.29265 0.33391 0.09581 0.0
C2122 C 0.29323 0.34186 0.14833 0.0
C2123 C 0.29666 0.34391 0.08094 0.0
C2124 C 0.27058 0.30392 0.20964 0.0
C2125 C 0.27203 0.31293 0.19388 0.0
C2126 C 0.27181 0.30461 0.1417 0.0
C2127 C 0.2899 0.34377 0.11372 0.0
C2128 C 0.28601 0.33324 0.12973 0.0
C2129 C 0.27561 0.30301 0.17639 0.0
C2130 C 0.27898 0.31334 0.16026 0.0
H2131 H 0.29619 0.38935 0.10398 0.0
H2132 H 0.28885 0.37194 0.12977 0.0
H2133 H 0.26922 0.30747 0.11255 0.0
H2134 H 0.27736 0.25982 0.18922 0.0
H2135 H 0.27975 0.27556 0.16154 0.0
C2136 C 0.27932 0.97538 0.03985 0.0
C2137 C 0.27755 0.96205 0.02287 0.0
C2138 C 0.26588 0.98531 0.0442 0.0
C2139 C 0.21829 0.98314 0.03106 0.0
H2140 H 0.22982 0.03551 0.05986 0.0
C2141 C 0.17034 0.03536 0.03984 0.0
C2142 C 0.16901 0.04448 0.05852 0.0
C2143 C 0.18288 0.02406 0.03608 0.0
C2144 C 0.22648 0.02081 0.05199 0.0
H2145 H 0.26112 0.94895 0.99671 0.0
H2146 H 0.23802 0.96736 1.00364 0.0
H2147 H 0.2538 0.01926 0.05076 0.0
H2148 H 0.17958 0.04869 0.08789 0.0
H2149 H 0.20216 0.02934 0.08108 0.0
H2150 H 0.19091 0.98531 0.03158 0.0
C2151 C 0.24935 0.96957 0.01401 0.0
C2152 C 0.24015 0.01148 0.0468 0.0
C2153 C 0.26259 0.95921 0.00992 0.0
C2154 C 0.18049 0.04205 0.07336 0.0
C2155 C 0.19325 0.03093 0.06953 0.0
C2156 C 0.20463 0.99266 0.03594 0.0
C2157 C 0.25071 0.98245 0.03137 0.0
C2158 C 0.2362 0.99252 0.03636 0.0
C2159 C 0.19451 0.02197 0.05086 0.0
C2160 C 0.2087 0.0115 0.0465 0.0
H2161 H 0.29069 0.97746 0.05015 0.0
H2162 H 0.26718 0.99478 0.05787 0.0
H2163 H 0.21477 0.9684 0.02334 0.0
H2164 H 0.16193 0.03728 0.02803 0.0
H2165 H 0.18389 0.01748 0.02155 0.0
C2166 C 0.73016 0.66156 0.0151 0.0
C2167 C 0.74398 0.65514 0.00565 0.0
C2168 C 0.71328 0.64939 0.01392 0.0
C2169 C 0.6894 0.59726 0.99854 0.0
H2170 H 0.64799 0.61987 0.00556 0.0
C2171 C 0.62004 0.55106 0.00761 0.0
C2172 C 0.60468 0.55787 1.0034 0.0
C2173 C 0.63703 0.56209 0.00611 0.0
C2174 C 0.65925 0.6131 1.00313 0.0
H2175 H 0.75086 0.63119 0.98704 0.0
H2176 H 0.72132 0.6104 0.98398 0.0
H2177 H 0.6768 0.64059 0.00554 0.0
H2178 H 0.59485 0.58079 0.99315 0.0
H2179 H 0.6241 0.59923 0.98908 0.0
H2180 H 0.67159 0.56967 0.99484 0.0
C2181 C 0.7235 0.62445 0.99307 0.0
C2182 C 0.67605 0.62518 1.0036 0.0
C2183 C 0.74049 0.63646 0.99466 0.0
C2184 C 0.60653 0.57527 0.99659 0.0
C2185 C 0.6234 0.586 0.99457 0.0
C2186 C 0.67249 0.58513 0.99756 0.0
C2187 C 0.70961 0.6306 1.00283 0.0
C2188 C 0.69149 0.61753 1.00157 0.0
C2189 C 0.63902 0.58 0.99995 0.0
C2190 C 0.65711 0.59283 1.00003 0.0
H2191 H 0.7325 0.67587 0.02377 0.0
H2192 H 0.70326 0.65471 0.02206 0.0
H2193 H 0.70082 0.5906 0.99719 0.0
H2194 H 0.61899 0.53782 0.01318 0.0
H2195 H 0.64855 0.55689 0.01064 0.0
C2196 C 0.69489 0.4452 0.27368 0.0
C2197 C 0.70219 0.46372 0.26972 0.0
C2198 C 0.70501 0.43041 0.27334 0.0
C2199 C 0.74906 0.41626 0.25745 0.0
H2200 H 0.73668 0.3761 0.28708 0.0
C2201 C 0.78546 0.34923 0.25032 0.0
C2202 C 0.78624 0.3385 0.26506 0.0
C2203 C 0.7762 0.36475 0.2514 0.0
C2204 C 0.74068 0.38715 0.27871 0.0
H2205 H 0.72667 0.48027 0.26213 0.0
H2206 H 0.74397 0.45508 0.26141 0.0
H2207 H 0.71947 0.40126 0.28793 0.0
H2208 H 0.77641 0.336 0.29236 0.0
H2209 H 0.76073 0.36279 0.29451 0.0
H2210 H 0.7704 0.40234 0.24841 0.0
C2211 C 0.73026 0.45166 0.26475 0.0
C2212 C 0.73041 0.4018 0.27902 0.0
C2213 C 0.72019 0.46647 0.26527 0.0
C2214 C 0.77699 0.34412 0.28092 0.0
C2215 C 0.76753 0.35951 0.28195 0.0
C2216 C 0.75927 0.40158 0.25707 0.0
C2217 C 0.72308 0.43308 0.26883 0.0
C2218 C 0.73423 0.41693 0.26843 0.0
C2219 C 0.76659 0.37025 0.2671 0.0
C2220 C 0.75549 0.38647 0.2677 0.0
H2221 H 0.68121 0.44208 0.27724 0.0
H2222 H 0.69839 0.41666 0.27642 0.0
H2223 H 0.75282 0.42705 0.24875 0.0
H2224 H 0.79162 0.34518 0.23745 0.0
H2225 H 0.77602 0.37189 0.23932 0.0
C2226 C 0.87664 0.45056 0.53681 0.0
C2227 C 0.86614 0.44524 0.51947 0.0
C2228 C 0.89297 0.46346 0.53815 0.0
C2229 C 0.91184 0.50221 0.51355 0.0
H2230 H 0.95669 0.50258 0.54098 0.0
C2231 C 0.98117 0.51544 0.49318 0.0
C2232 C 0.99471 0.52749 0.50596 0.0
C2233 C 0.96349 0.51433 0.497 0.0
C2234 C 0.94401 0.50302 0.53388 0.0
H2235 H 0.8648 0.44618 0.48951 0.0
H2236 H 0.89394 0.46775 0.49149 0.0
H2237 H 0.9307 0.47755 0.54303 0.0
H2238 H 1.00067 0.54739 0.53296 0.0
H2239 H 0.9699 0.54419 0.54027 0.0
H2240 H 0.92585 0.52628 0.50259 0.0
C2241 C 0.88927 0.46301 0.50424 0.0
C2242 C 0.92926 0.48861 0.53488 0.0
C2243 C 0.87283 0.45055 0.50301 0.0
C2244 C 0.9904 0.53861 0.52246 0.0
C2245 C 0.97283 0.53698 0.52664 0.0
C2246 C 0.92669 0.51631 0.51219 0.0
C2247 C 0.89872 0.4707 0.52205 0.0
C2248 C 0.9134 0.48753 0.52385 0.0
C2249 C 0.95942 0.52427 0.51424 0.0
C2250 C 0.94299 0.51606 0.52157 0.0
H2251 H 0.87145 0.44635 0.54957 0.0
H2252 H 0.90027 0.46895 0.55196 0.0
H2253 H 0.89943 0.50203 0.50554 0.0
H2254 H 0.98415 0.50584 0.48112 0.0
H2255 H 0.95319 0.50391 0.48763 0.0
C2256 C 0.39565 0.10349 0.30267 0.0
C2257 C 0.3888 0.08372 0.30184 0.0
C2258 C 0.38441 0.11524 0.29789 0.0
C2259 C 0.34746 0.10994 0.26469 0.0
H2260 H 0.3395 0.15909 0.29056 0.0
C2261 C 0.29549 0.14335 0.2334 0.0
C2262 C 0.30102 0.16271 0.2318 0.0
C2263 C 0.30551 0.13535 0.24524 0.0
C2264 C 0.34176 0.14544 0.28322 0.0
H2265 H 0.36487 0.06089 0.29705 0.0
H2266 H 0.34535 0.08142 0.28853 0.0
H2267 H 0.35912 0.1422 0.30634 0.0
H2268 H 0.32036 0.18946 0.24189 0.0
H2269 H 0.33859 0.17511 0.26216 0.0
H2270 H 0.33068 0.11309 0.24145 0.0
C2271 C 0.35932 0.08777 0.29281 0.0
C2272 C 0.35286 0.13587 0.2922 0.0
C2273 C 0.37047 0.07609 0.29763 0.0
C2274 C 0.31616 0.17434 0.24283 0.0
C2275 C 0.32639 0.16624 0.2545 0.0
C2276 C 0.33656 0.11948 0.25572 0.0
C2277 C 0.36637 0.10717 0.29223 0.0
C2278 C 0.35542 0.11793 0.28304 0.0
C2279 C 0.32135 0.14655 0.25532 0.0
C2280 C 0.33334 0.13709 0.26504 0.0
H2281 H 0.40977 0.10963 0.30602 0.0
H2282 H 0.38998 0.13022 0.29739 0.0
H2283 H 0.34973 0.09631 0.25726 0.0
H2284 H 0.2835 0.1344 0.22537 0.0
H2285 H 0.30116 0.12023 0.24608 0.0
C2286 C 0.35533 0.17203 0.50907 0.0
C2287 C 0.33831 0.16458 0.51429 0.0
C2288 C 0.36951 0.16291 0.51202 0.0
C2289 C 0.38344 0.13055 0.54183 0.0
H2290 H 0.4143 0.11773 0.50274 0.0
C2291 C 0.42113 0.07015 0.54251 0.0
C2292 C 0.43978 0.07508 0.54228 0.0
C2293 C 0.41052 0.0828 0.53841 0.0
C2294 C 0.40591 0.12148 0.51383 0.0
H2295 H 0.32274 0.14178 0.52655 0.0
H2296 H 0.34726 0.12608 0.53173 0.0
H2297 H 0.39233 0.13726 0.49712 0.0
H2298 H 0.4617 0.09706 0.53651 0.0
H2299 H 0.44285 0.11879 0.52848 0.0
H2300 H 0.39643 0.11422 0.55823 0.0
C2301 C 0.3498 0.13895 0.52548 0.0
C2302 C 0.39341 0.13265 0.51066 0.0
C2303 C 0.33569 0.14788 0.52236 0.0
C2304 C 0.44741 0.09262 0.53673 0.0
C2305 C 0.43667 0.10516 0.53223 0.0
C2306 C 0.39577 0.11934 0.54491 0.0
C2307 C 0.36689 0.14642 0.52052 0.0
C2308 C 0.38173 0.13684 0.52447 0.0
C2309 C 0.4182 0.10053 0.53354 0.0
C2310 C 0.40679 0.11431 0.53079 0.0
H2311 H 0.35768 0.18486 0.50274 0.0
H2312 H 0.38256 0.16895 0.50804 0.0
H2313 H 0.37491 0.13392 0.55291 0.0
H2314 H 0.41463 0.05655 0.54606 0.0
H2315 H 0.39624 0.07879 0.53919 0.0
C2316 C 0.72142 0.57562 0.28615 0.0
C2317 C 0.70288 0.57025 0.28084 0.0
C2318 C 0.73108 0.5948 0.2869 0.0
C2319 C 0.72814 0.6411 0.26922 0.0
H2320 H 0.76824 0.6645 0.30649 0.0
C2321 C 0.76112 0.7232 0.27781 0.0
C2322 C 0.77971 0.72986 0.28246 0.0
C2323 C 0.75244 0.70398 0.27801 0.0
C2324 C 0.75723 0.65824 0.29578 0.0
H2325 H 0.68022 0.58148 0.27217 0.0
H2326 H 0.69679 0.61446 0.27337 0.0
H2327 H 0.75216 0.63138 0.3061 0.0
H2328 H 0.80317 0.72077 0.29241 0.0
H2329 H 0.78823 0.68732 0.2926 0.0
H2330 H 0.73316 0.66777 0.25879 0.0
C2331 C 0.70407 0.60392 0.2769 0.0
C2332 C 0.74789 0.63903 0.29555 0.0
C2333 C 0.69442 0.58485 0.27636 0.0
C2334 C 0.78906 0.71641 0.28814 0.0
C2335 C 0.78032 0.69707 0.28846 0.0
C2336 C 0.73746 0.66023 0.26942 0.0
C2337 C 0.72266 0.60939 0.28212 0.0
C2338 C 0.73303 0.63002 0.28233 0.0
C2339 C 0.7618 0.69031 0.28312 0.0
C2340 C 0.75216 0.66937 0.28277 0.0
H2341 H 0.72853 0.56494 0.28972 0.0
H2342 H 0.7453 0.59805 0.29087 0.0
H2343 H 0.71717 0.6349 0.25845 0.0
H2344 H 0.753 0.73289 0.27401 0.0
H2345 H 0.73817 0.69995 0.27436 0.0
C2346 C 0.89724 0.47733 0.79062 0.0
C2347 C 0.89404 0.4921 0.80456 0.0
C2348 C 0.88543 0.45957 0.78682 0.0
C2349 C 0.83873 0.4385 0.79023 0.0
H2350 H 0.85489 0.39061 0.77738 0.0
C2351 C 0.80242 0.36234 0.79236 0.0
C2352 C 0.8103 0.348 0.78284 0.0
C2353 C 0.80718 0.38117 0.78914 0.0
C2354 C 0.85011 0.40392 0.78036 0.0
H2355 H 0.87723 0.49969 0.82674 0.0
H2356 H 0.85676 0.46814 0.82049 0.0
H2357 H 0.87657 0.42032 0.78782 0.0
H2358 H 0.82471 0.34044 0.75837 0.0
H2359 H 0.8318 0.37279 0.7517 0.0
H2360 H 0.81206 0.42161 0.78354 0.0
C2361 C 0.868 0.47059 0.81206 0.0
C2362 C 0.86257 0.42089 0.78658 0.0
C2363 C 0.87974 0.48849 0.81572 0.0
C2364 C 0.81941 0.35152 0.76693 0.0
C2365 C 0.82324 0.37 0.76288 0.0
C2366 C 0.82613 0.42135 0.7841 0.0
C2367 C 0.87044 0.45629 0.79713 0.0
C2368 C 0.85702 0.4383 0.79153 0.0
C2369 C 0.81916 0.38527 0.77558 0.0
C2370 C 0.83179 0.40395 0.77906 0.0
H2371 H 0.90822 0.47982 0.78185 0.0
H2372 H 0.88756 0.44877 0.77517 0.0
H2373 H 0.83419 0.45189 0.79381 0.0
H2374 H 0.79388 0.35949 0.80322 0.0
H2375 H 0.80326 0.39263 0.79875 0.0
C2376 C 0.08728 0.87962 0.1049 0.0
C2377 C 0.08103 0.86098 0.09407 0.0
C2378 C 0.08528 0.89613 0.09771 0.0
C2379 C 0.06 0.91265 0.05931 0.0
H2380 H 0.09457 0.96054 0.0771 0.0
C2381 C 0.06282 0.98751 0.0329 0.0
C2382 C 0.06271 1.00282 0.04797 0.0
C2383 C 0.06434 0.96914 0.03654 0.0
C2384 C 0.08481 0.94727 0.07194 0.0
H2385 H 0.06778 0.84528 0.06694 0.0
H2386 H 0.06467 0.87405 0.05415 0.0
H2387 H 0.09922 0.93097 0.08685 0.0
H2388 H 0.06466 0.01084 0.07862 0.0
H2389 H 0.0682 0.97951 0.08484 0.0
H2390 H 0.04586 0.92934 0.04407 0.0
C2391 C 0.0709 0.87597 0.06841 0.0
C2392 C 0.08735 0.93023 0.07771 0.0
C2393 C 0.07284 0.85938 0.07568 0.0
C2394 C 0.06451 0.99938 0.06663 0.0
C2395 C 0.06655 0.98139 0.07024 0.0
C2396 C 0.05762 0.92973 0.05328 0.0
C2397 C 0.07705 0.89469 0.07933 0.0
C2398 C 0.07482 0.91263 0.07186 0.0
C2399 C 0.06661 0.96604 0.05532 0.0
C2400 C 0.06985 0.94733 0.05981 0.0
H2401 H 0.09353 0.88148 0.11916 0.0
H2402 H 0.08988 0.91006 0.10689 0.0
H2403 H 0.04988 0.89961 0.05457 0.0
H2404 H 0.06207 0.98981 0.0184 0.0
H2405 H 0.06443 0.9576 0.02472 0.0
C2406 C 0.94998 0.2608 0.90499 0.0
C2407 C 0.96643 0.268 0.89823 0.0
C2408 C 0.93377 0.26344 0.89669 0.0
C2409 C 0.91567 0.2946 0.86662 0.0
H2410 H 0.87216 0.25526 0.86107 0.0
C2411 C 0.85193 0.30006 0.82206 0.0
C2412 C 0.835 0.29352 0.82807 0.0
C2413 C 0.8675 0.29711 0.83122 0.0
C2414 C 0.8841 0.26656 0.86271 0.0
H2415 H 0.97843 0.28367 0.87727 0.0
H2416 H 0.95047 0.28825 0.86292 0.0
H2417 H 0.89976 0.24951 0.87534 0.0
H2418 H 0.82126 0.27874 0.84861 0.0
H2419 H 0.8485 0.27346 0.86474 0.0
H2420 H 0.90011 0.31163 0.85397 0.0
C2421 C 0.94996 0.28061 0.8747 0.0
C2422 C 0.90005 0.26323 0.87093 0.0
C2423 C 0.9661 0.2778 0.88285 0.0
C2424 C 0.83409 0.28408 0.84372 0.0
C2425 C 0.84974 0.28089 0.85282 0.0
C2426 C 0.89977 0.29791 0.85841 0.0
C2427 C 0.93346 0.27361 0.88151 0.0
C2428 C 0.91619 0.27716 0.87296 0.0
C2429 C 0.86676 0.28735 0.84671 0.0
C2430 C 0.88367 0.28393 0.85618 0.0
H2431 H 0.94964 0.25325 0.91683 0.0
H2432 H 0.9215 0.2579 0.90253 0.0
H2433 H 0.92758 0.30594 0.86821 0.0
H2434 H 0.85315 0.30756 0.81018 0.0
H2435 H 0.88015 0.30218 0.82583 0.0
C2436 C 0.57888 0.24594 0.57714 0.0
C2437 C 0.57327 0.25294 0.59483 0.0
C2438 C 0.57607 0.22588 0.57018 0.0
C2439 C 0.54943 0.17843 0.57861 0.0
H2440 H 0.58463 0.156 0.55112 0.0
C2441 C 0.55243 0.09891 0.57474 0.0
C2442 C 0.55207 0.0875 0.55674 0.0
C2443 C 0.55545 0.11905 0.57714 0.0
C2444 C 0.57461 0.16209 0.55863 0.0
H2445 H 0.56042 0.24422 0.61906 0.0
H2446 H 0.55603 0.20988 0.60744 0.0
H2447 H 0.58871 0.19128 0.55944 0.0
H2448 H 0.55462 0.0885 0.527 0.0
H2449 H 0.56079 0.12402 0.53135 0.0
H2450 H 0.53577 0.14933 0.57853 0.0
C2451 C 0.56215 0.21958 0.5985 0.0
C2452 C 0.57689 0.18234 0.56337 0.0
C2453 C 0.56483 0.23945 0.60532 0.0
C2454 C 0.55527 0.09685 0.54113 0.0
C2455 C 0.55868 0.11718 0.54361 0.0
C2456 C 0.54733 0.15833 0.57416 0.0
C2457 C 0.56759 0.21236 0.58077 0.0
C2458 C 0.56452 0.19085 0.57385 0.0
C2459 C 0.55836 0.12847 0.56162 0.0
C2460 C 0.56004 0.14988 0.56445 0.0
H2461 H 0.58543 0.25592 0.56867 0.0
H2462 H 0.58037 0.22102 0.55642 0.0
H2463 H 0.53922 0.1842 0.58606 0.0
H2464 H 0.54984 0.09218 0.58701 0.0
H2465 H 0.55525 0.1273 0.5912 0.0
C2466 C 0.56549 0.76259 0.38213 0.0
C2467 C 0.56481 0.77166 0.40097 0.0
C2468 C 0.58179 0.76403 0.37381 0.0
C2469 C 0.62793 0.79442 0.37849 0.0
H2470 H 0.63801 0.75087 0.34422 0.0
C2471 C 0.69503 0.80103 0.34349 0.0
C2472 C 0.69418 0.79224 0.32432 0.0
C2473 C 0.68038 0.79687 0.35424 0.0
C2474 C 0.63543 0.7633 0.35359 0.0
H2475 H 0.58094 0.78931 0.42581 0.0
H2476 H 0.6092 0.79193 0.41136 0.0
H2477 H 0.61028 0.74724 0.35962 0.0
H2478 H 0.67748 0.77191 0.30159 0.0
H2479 H 0.65208 0.76456 0.3201 0.0
H2480 H 0.6528 0.81064 0.37222 0.0
C2481 C 0.59715 0.78376 0.40289 0.0
C2482 C 0.61942 0.76119 0.36247 0.0
C2483 C 0.5809 0.78217 0.41125 0.0
C2484 C 0.67865 0.77865 0.31641 0.0
C2485 C 0.66403 0.77446 0.32712 0.0
C2486 C 0.64388 0.79657 0.36954 0.0
C2487 C 0.5979 0.77474 0.38401 0.0
C2488 C 0.61531 0.77676 0.37496 0.0
C2489 C 0.6644 0.7839 0.34609 0.0
C2490 C 0.64788 0.78111 0.35676 0.0
H2491 H 0.5534 0.75433 0.37379 0.0
H2492 H 0.58169 0.75701 0.35921 0.0
H2493 H 0.62526 0.80686 0.3878 0.0
H2494 H 0.70671 0.81179 0.3499 0.0
H2495 H 0.68147 0.80422 0.36885 0.0
C2496 C 0.09023 0.25241 0.41062 0.0
C2497 C 0.09697 0.27075 0.42176 0.0
C2498 C 0.08765 0.23605 0.41886 0.0
C2499 C 0.09954 0.21763 0.46146 0.0
H2500 H 0.05392 0.18185 0.44731 0.0
C2501 C 0.0652 0.16681 0.50804 0.0
C2502 C 0.05533 0.14862 0.49922 0.0
C2503 C 0.07381 0.17951 0.49714 0.0
C2504 C 0.06688 0.19145 0.4511 0.0
H2505 H 0.10658 0.28651 0.4501 0.0
H2506 H 0.10173 0.25775 0.46472 0.0
H2507 H 0.06179 0.20911 0.43125 0.0
H2508 H 0.04725 0.12869 0.47259 0.0
H2509 H 0.0621 0.15116 0.45329 0.0
H2510 H 0.10423 0.20028 0.4819 0.0
C2511 C 0.09874 0.25605 0.44955 0.0
C2512 C 0.07137 0.20709 0.44196 0.0
C2513 C 0.1014 0.27249 0.44125 0.0
C2514 C 0.05482 0.14278 0.47953 0.0
C2515 C 0.06325 0.15557 0.46858 0.0
C2516 C 0.09502 0.20199 0.47068 0.0
C2517 C 0.09166 0.23773 0.43842 0.0
C2518 C 0.08761 0.22049 0.44726 0.0
C2519 C 0.07241 0.17423 0.47729 0.0
C2520 C 0.07852 0.18898 0.46578 0.0
H2521 H 0.08678 0.25066 0.39551 0.0
H2522 H 0.08239 0.22209 0.40993 0.0
H2523 H 0.11226 0.22762 0.4656 0.0
H2524 H 0.06577 0.17139 0.52327 0.0
H2525 H 0.08066 0.19387 0.50417 0.0
C2526 C 0.56559 0.25664 0.17612 0.0
C2527 C 0.55695 0.27117 0.18398 0.0
C2528 C 0.58352 0.25789 0.1815 0.0
C2529 C 0.61832 0.28226 0.22023 0.0
H2530 H 0.64856 0.25799 0.1866 0.0
C2531 C 0.69019 0.28032 0.24408 0.0
C2532 C 0.69207 0.26122 0.24374 0.0
C2533 C 0.67557 0.28399 0.23408 0.0
C2534 C 0.64026 0.26496 0.19601 0.0
H2535 H 0.56016 0.29873 0.20288 0.0
H2536 H 0.59178 0.30148 0.21168 0.0
H2537 H 0.61912 0.26073 0.17416 0.0
H2538 H 0.68102 0.23111 0.23195 0.0
H2539 H 0.65537 0.23756 0.21425 0.0
H2540 H 0.63959 0.2866 0.24198 0.0
C2541 C 0.58463 0.28873 0.20193 0.0
C2542 C 0.62338 0.26639 0.189 0.0
C2543 C 0.56656 0.28723 0.19688 0.0
C2544 C 0.67961 0.24591 0.23261 0.0
C2545 C 0.66516 0.2496 0.22234 0.0
C2546 C 0.6353 0.28121 0.22708 0.0
C2547 C 0.59327 0.27393 0.19452 0.0
C2548 C 0.61201 0.27458 0.20118 0.0
C2549 C 0.66287 0.26863 0.22337 0.0
C2550 C 0.64618 0.27214 0.21516 0.0
H2551 H 0.55836 0.24407 0.16616 0.0
H2552 H 0.58955 0.246 0.17581 0.0
H2553 H 0.60988 0.28831 0.23014 0.0
H2554 H 0.69975 0.29235 0.2525 0.0
H2555 H 0.67397 0.29875 0.23503 0.0
C2556 C 0.60864 0.88119 0.93858 0.0
C2557 C 0.60764 0.87445 0.919 0.0
C2558 C 0.60528 0.89934 0.94536 0.0
C2559 C 0.59827 0.94482 0.93153 0.0
H2560 H 0.5662 0.94336 0.97149 0.0
C2561 C 0.557 1.00236 0.95999 0.0
C2562 C 0.56195 0.00967 0.97939 0.0
C2563 C 0.56332 0.98661 0.95091 0.0
C2564 C 0.57508 0.94381 0.96025 0.0
H2565 H 0.60402 0.88182 0.89114 0.0
H2566 H 0.5977 0.91318 0.90296 0.0
H2567 H 0.57761 0.91474 0.95959 0.0
H2568 H 0.57885 0.00756 1.00387 0.0
H2569 H 0.58894 0.97951 0.9883 0.0
H2570 H 0.59527 0.97396 0.93214 0.0
C2571 C 0.60122 0.90468 0.9131 0.0
C2572 C 0.58181 0.92763 0.95365 0.0
C2573 C 0.60477 0.88667 0.90634 0.0
C2574 C 0.57407 1.00171 0.98921 0.0
C2575 C 0.58004 0.98584 0.98029 0.0
C2576 C 0.59132 0.96097 0.93802 0.0
C2577 C 0.60072 0.91082 0.93262 0.0
C2578 C 0.59375 0.92811 0.9395 0.0
C2579 C 0.57447 0.97806 0.96123 0.0
C2580 C 0.57999 0.96057 0.95262 0.0
H2581 H 0.61098 0.87207 0.94859 0.0
H2582 H 0.60543 0.90401 0.96053 0.0
H2583 H 0.60742 0.94553 0.92058 0.0
H2584 H 0.54798 0.00844 0.95193 0.0
H2585 H 0.55908 0.98074 0.93608 0.0
C2586 C 0.95935 0.76871 0.71243 0.0
C2587 C 0.96015 0.77051 0.69334 0.0
C2588 C 0.94295 0.76616 0.72016 0.0
C2589 C 0.89767 0.77381 0.71152 0.0
H2590 H 0.88429 0.73628 0.74401 0.0
C2591 C 0.82584 0.74924 0.7261 0.0
C2592 C 0.82275 0.75097 0.74524 0.0
C2593 C 0.84312 0.75077 0.72089 0.0
C2594 C 0.88801 0.74691 0.73509 0.0
H2595 H 0.94465 0.77073 0.6672 0.0
H2596 H 0.91621 0.76597 0.68052 0.0
H2597 H 0.91416 0.74109 0.73274 0.0
H2598 H 0.83432 0.75367 0.77394 0.0
H2599 H 0.86507 0.75662 0.76481 0.0
H2600 H 0.87131 0.7786 0.71262 0.0
C2601 C 0.92815 0.767 0.6897 0.0
C2602 C 0.90503 0.74972 0.72874 0.0
C2603 C 0.94445 0.76968 0.68207 0.0
C2604 C 0.83676 0.7528 0.75913 0.0
C2605 C 0.85416 0.75432 0.75392 0.0
C2606 C 0.88065 0.77066 0.71746 0.0
C2607 C 0.92726 0.76537 0.70883 0.0
C2608 C 0.90988 0.76309 0.71675 0.0
C2609 C 0.85741 0.75372 0.73479 0.0
C2610 C 0.87568 0.7572 0.72923 0.0
H2611 H 0.97132 0.76905 0.72128 0.0
H2612 H 0.94256 0.76498 0.73497 0.0
H2613 H 0.90117 0.78447 0.70257 0.0
H2614 H 0.81493 0.74726 0.71525 0.0
H2615 H 0.84535 0.74996 0.70603 0.0
C2616 C 0.15478 0.01574 0.84468 0.0
C2617 C 0.14588 0.01681 0.82721 0.0
C2618 C 0.14665 0.01783 0.86216 0.0
C2619 C 0.10692 0.03481 0.88591 0.0
H2620 H 0.12173 0.01093 0.92674 0.0
C2621 C 0.07005 0.03719 0.95751 0.0
C2622 C 0.07953 0.03704 0.97495 0.0
C2623 C 0.07781 0.03474 0.93982 0.0
C2624 C 0.1174 0.01803 0.91575 0.0
H2625 H 0.12081 0.02119 0.81548 0.0
H2626 H 0.10684 0.02496 0.84543 0.0
H2627 H 0.13517 0.00674 0.89672 0.0
H2628 H 0.10522 0.03396 0.98639 0.0
H2629 H 0.11847 0.02948 0.95613 0.0
H2630 H 0.08908 0.04602 0.90498 0.0
C2631 C 0.12029 0.0225 0.84582 0.0
C2632 C 0.12528 0.01558 0.89814 0.0
C2633 C 0.12836 0.02016 0.82829 0.0
C2634 C 0.0972 0.03422 0.97361 0.0
C2635 C 0.10487 0.03147 0.95591 0.0
C2636 C 0.099 0.03722 0.90352 0.0
C2637 C 0.12914 0.02139 0.86339 0.0
C2638 C 0.12036 0.02393 0.8826 0.0
C2639 C 0.09548 0.03172 0.9384 0.0
C2640 C 0.104 0.02895 0.91907 0.0
H2641 H 0.16821 0.01321 0.84489 0.0
H2642 H 0.15442 0.01698 0.87487 0.0
H2643 H 0.10258 0.04193 0.87495 0.0
H2644 H 0.05656 0.03951 0.9575 0.0
H2645 H 0.0697 0.03498 0.92712 0.0
C2646 C 0.81369 0.3924 0.57237 0.0
C2647 C 0.81306 0.41152 0.57131 0.0
C2648 C 0.81588 0.38718 0.58987 0.0
C2649 C 0.80496 0.39534 0.63668 0.0
H2650 H 0.84023 0.36475 0.64381 0.0
C2651 C 0.81703 0.3507 0.69628 0.0
C2652 C 0.81815 0.33188 0.68789 0.0
C2653 C 0.81451 0.36393 0.68484 0.0
C2654 C 0.83047 0.37348 0.64209 0.0
H2655 H 0.81426 0.44029 0.5873 0.0
H2656 H 0.81754 0.43078 0.61839 0.0
H2657 H 0.8426 0.38386 0.61875 0.0
H2658 H 0.81537 0.31115 0.66173 0.0
H2659 H 0.81077 0.33429 0.64162 0.0
H2660 H 0.79226 0.38384 0.65945 0.0
C2661 C 0.81653 0.42008 0.60557 0.0
C2662 C 0.83191 0.38444 0.62796 0.0
C2663 C 0.81462 0.42542 0.58794 0.0
C2664 C 0.81483 0.32574 0.66828 0.0
C2665 C 0.81214 0.33886 0.6569 0.0
C2666 C 0.80353 0.3843 0.65095 0.0
C2667 C 0.81728 0.40096 0.60651 0.0
C2668 C 0.8187 0.39465 0.62462 0.0
C2669 C 0.81301 0.35822 0.66511 0.0
C2670 C 0.81583 0.37265 0.65298 0.0
H2671 H 0.81274 0.38151 0.55969 0.0
H2672 H 0.81623 0.37227 0.59043 0.0
H2673 H 0.79462 0.40311 0.63409 0.0
H2674 H 0.81949 0.35552 0.7115 0.0
H2675 H 0.8152 0.37887 0.69126 0.0
C2676 C 0.45939 0.03846 0.35662 0.0
C2677 C 0.44972 0.05257 0.35407 0.0
C2678 C 0.46456 0.03638 0.37479 0.0
C2679 C 0.47974 0.06663 0.41824 0.0
H2680 H 0.47988 0.01922 0.4372 0.0
C2681 C 0.5191 0.06469 0.48711 0.0
C2682 C 0.52788 0.04942 0.48645 0.0
C2683 C 0.50747 0.06505 0.47186 0.0
C2684 C 0.47993 0.0325 0.43194 0.0
H2685 H 0.4371 0.07497 0.3681 0.0
H2686 H 0.44678 0.0717 0.40001 0.0
H2687 H 0.46023 0.01851 0.40898 0.0
H2688 H 0.53236 0.02288 0.47012 0.0
H2689 H 0.5126 0.02397 0.44266 0.0
H2690 H 0.50018 0.08046 0.44017 0.0
C2691 C 0.45013 0.06223 0.38794 0.0
C2692 C 0.46863 0.03211 0.4161 0.0
C2693 C 0.44492 0.06428 0.3698 0.0
C2694 C 0.52589 0.035 0.47033 0.0
C2695 C 0.51437 0.03542 0.45499 0.0
C2696 C 0.49114 0.06698 0.43386 0.0
C2697 C 0.46017 0.04848 0.39046 0.0
C2698 C 0.46886 0.04912 0.40901 0.0
C2699 C 0.5047 0.05013 0.45596 0.0
C2700 C 0.4916 0.04986 0.4405 0.0
H2701 H 0.46281 0.02894 0.34463 0.0
H2702 H 0.47259 0.02591 0.3766 0.0
H2703 H 0.48029 0.0798 0.41263 0.0
H2704 H 0.52027 0.07551 0.49989 0.0
H2705 H 0.50001 0.07642 0.4729 0.0
C2706 C 0.79677 0.73747 0.07211 0.0
C2707 C 0.79787 0.71803 0.06655 0.0
C2708 C 0.7974 0.74568 0.09144 0.0
C2709 C 0.81043 0.73704 0.13976 0.0
H2710 H 0.7795 0.77167 0.15736 0.0
C2711 C 0.79346 0.74846 0.21652 0.0
C2712 C 0.7967 0.76752 0.22665 0.0
C2713 C 0.79334 0.74467 0.19682 0.0
C2714 C 0.78835 0.76219 0.1526 0.0
H2715 H 0.80047 0.69203 0.07698 0.0
H2716 H 0.8012 0.70601 0.11023 0.0
H2717 H 0.78045 0.76083 0.12319 0.0
H2718 H 0.80217 0.79765 0.22398 0.0
H2719 H 0.80123 0.79095 0.18903 0.0
H2720 H 0.8178 0.73779 0.16908 0.0
C2721 C 0.80024 0.71519 0.09989 0.0
C2722 C 0.78895 0.75599 0.13303 0.0
C2723 C 0.79966 0.70707 0.08071 0.0
C2724 C 0.79915 0.78281 0.2165 0.0
C2725 C 0.79876 0.77898 0.19656 0.0
C2726 C 0.80966 0.74302 0.1592 0.0
C2727 C 0.79918 0.73464 0.10563 0.0
C2728 C 0.79972 0.74296 0.12633 0.0
C2729 C 0.79644 0.75985 0.18661 0.0
C2730 C 0.79835 0.75534 0.16588 0.0
H2731 H 0.79541 0.74632 0.06155 0.0
H2732 H 0.79669 0.76073 0.09526 0.0
H2733 H 0.81931 0.72752 0.13527 0.0
H2734 H 0.79179 0.73641 0.224 0.0
H2735 H 0.79132 0.7298 0.18958 0.0
C2736 C 0.15421 0.02351 0.70469 0.0
C2737 C 0.14492 0.01292 0.71738 0.0
C2738 C 0.1459 0.02572 0.68719 0.0
C2739 C 0.10254 0.00818 0.65258 0.0
H2740 H 0.1247 0.05034 0.62887 0.0
C2741 C 0.069 0.0266 0.58168 0.0
C2742 C 0.08049 0.03313 0.56824 0.0
C2743 C 0.07581 0.02428 0.59998 0.0
C2744 C 0.11821 0.03827 0.63497 0.0
H2745 H 0.11881 0.99624 0.72044 0.0
H2746 H 0.10436 1.0001 0.69044 0.0
H2747 H 0.13791 0.0461 0.65885 0.0
H2748 H 0.10845 0.04205 0.5644 0.0
H2749 H 0.12001 0.03883 0.59569 0.0
H2750 H 0.08255 1.00079 0.62856 0.0
C2751 C 0.11835 0.00673 0.69382 0.0
C2752 C 0.12601 0.0357 0.65257 0.0
C2753 C 0.12673 1.00451 0.71141 0.0
C2754 C 0.09896 0.03739 0.57418 0.0
C2755 C 0.10568 0.03548 0.59243 0.0
C2756 C 0.09461 0.01091 0.63499 0.0
C2757 C 0.12762 0.01755 0.68112 0.0
C2758 C 0.11861 0.02045 0.66198 0.0
C2759 C 0.09442 0.02862 0.60589 0.0
C2760 C 0.10231 0.02595 0.62552 0.0
H2761 H 0.16816 0.03031 0.70832 0.0
H2762 H 0.15417 0.03382 0.67834 0.0
H2763 H 0.09605 0.99607 0.65859 0.0
H2764 H 0.05475 0.02262 0.57784 0.0
H2765 H 0.06637 0.01901 0.60954 0.0
C2766 C 0.8202 0.37604 0.46836 0.0
C2767 C 0.81266 0.39212 0.46763 0.0
C2768 C 0.82671 0.36717 0.45235 0.0
C2769 C 0.83771 0.37278 0.40373 0.0
H2770 H 0.8233 0.31685 0.39427 0.0
C2771 C 0.83892 0.32554 0.33095 0.0
C2772 C 0.8218 0.31411 0.32462 0.0
C2773 C 0.84298 0.33438 0.34988 0.0
C2774 C 0.82768 0.33244 0.39689 0.0
H2775 H 0.80583 0.41171 0.44997 0.0
H2776 H 0.81586 0.39514 0.42134 0.0
H2777 H 0.82015 0.33498 0.42503 0.0
H2778 H 0.79581 0.3031 0.33331 0.0
H2779 H 0.80285 0.31803 0.36618 0.0
H2780 H 0.8435 0.37004 0.37472 0.0
C2781 C 0.81749 0.38989 0.43446 0.0
C2782 C 0.82602 0.34285 0.41452 0.0
C2783 C 0.81137 0.39908 0.45066 0.0
C2784 C 0.80908 0.31135 0.33764 0.0
C2785 C 0.81318 0.31993 0.35654 0.0
C2786 C 0.83914 0.36231 0.38593 0.0
C2787 C 0.82527 0.37389 0.43523 0.0
C2788 C 0.83033 0.36312 0.41785 0.0
C2789 C 0.83008 0.33164 0.36272 0.0
C2790 C 0.83333 0.34215 0.38225 0.0
H2791 H 0.8218 0.3708 0.4815 0.0
H2792 H 0.83292 0.35508 0.45342 0.0
H2793 H 0.84149 0.38841 0.40613 0.0
H2794 H 0.84909 0.32817 0.32127 0.0
H2795 H 0.85604 0.34354 0.35442 0.0
C2796 C 0.45264 0.05789 0.24629 0.0
C2797 C 0.43692 0.04578 0.24974 0.0
C2798 C 0.45685 0.05826 0.22775 0.0
C2799 C 0.44918 0.02795 0.18108 0.0
H2800 H 0.47459 0.07494 0.16664 0.0
C2801 C 0.48653 0.02659 0.11428 0.0
C2802 C 0.50476 0.03422 0.11957 0.0
C2803 C 0.47399 0.03033 0.12692 0.0
C2804 C 0.4672 0.0618 0.17038 0.0
H2805 H 0.41321 0.02465 0.23684 0.0
H2806 H 0.42057 0.02541 0.20443 0.0
H2807 H 0.45987 0.0769 0.19603 0.0
H2808 H 0.52431 0.05243 0.14135 0.0
H2809 H 0.50235 0.05894 0.16359 0.0
H2810 H 0.45721 0.0128 0.15589 0.0
C2811 C 0.42962 0.03454 0.21598 0.0
C2812 C 0.45894 0.06288 0.18717 0.0
C2813 C 0.42544 0.03411 0.23449 0.0
C2814 C 0.5103 0.04617 0.13724 0.0
C2815 C 0.49777 0.05014 0.14974 0.0
C2816 C 0.45729 0.02689 0.16421 0.0
C2817 C 0.44537 0.04658 0.21247 0.0
C2818 C 0.45063 0.04588 0.19306 0.0
C2819 C 0.47958 0.04201 0.14476 0.0
C2820 C 0.46705 0.04373 0.15927 0.0
H2821 H 0.46167 0.06699 0.25786 0.0
H2822 H 0.46931 0.06734 0.22542 0.0
H2823 H 0.44297 0.01461 0.18536 0.0
H2824 H 0.48208 0.01748 0.10055 0.0
H2825 H 0.46 0.02385 0.12295 0.0
C2826 C 0.78538 0.69793 0.94195 0.0
C2827 C 0.79545 0.71041 0.95777 0.0
C2828 C 0.78544 0.70305 0.92406 0.0
C2829 C 0.81159 0.73309 0.89469 0.0
H2830 H 0.76667 0.72318 0.86372 0.0
C2831 C 0.80763 0.75397 0.82033 0.0
C2832 C 0.79358 0.7441 0.8067 0.0
C2833 C 0.80826 0.7503 0.83882 0.0
C2834 C 0.77942 0.72572 0.87192 0.0
H2835 H 0.81365 0.73808 0.96713 0.0
H2836 H 0.81384 0.74707 0.93557 0.0
H2837 H 0.76693 0.71688 0.89587 0.0
H2838 H 0.77036 0.72047 0.8014 0.0
H2839 H 0.77215 0.71293 0.83307 0.0
H2840 H 0.82425 0.7412 0.87066 0.0
C2841 C 0.80587 0.73328 0.93717 0.0
C2842 C 0.77952 0.72227 0.89051 0.0
C2843 C 0.80569 0.7282 0.95523 0.0
C2844 C 0.78114 0.72887 0.81158 0.0
C2845 C 0.78202 0.72474 0.82997 0.0
C2846 C 0.81154 0.73625 0.87596 0.0
C2847 C 0.79565 0.72076 0.9214 0.0
C2848 C 0.7956 0.72577 0.90209 0.0
C2849 C 0.79527 0.73584 0.8441 0.0
C2850 C 0.79545 0.7325 0.86419 0.0
H2851 H 0.77743 0.68406 0.94334 0.0
H2852 H 0.77767 0.69293 0.9122 0.0
H2853 H 0.82422 0.73576 0.90319 0.0
H2854 H 0.8182 0.76465 0.81684 0.0
H2855 H 0.81879 0.75922 0.849 0.0
C2856 C 0.84827 0.13062 0.02368 0.0
C2857 C 0.83325 0.11824 0.02838 0.0
C2858 C 0.86509 0.12662 0.02608 0.0
C2859 C 0.89128 0.09821 0.04976 0.0
H2860 H 0.92021 0.1043 0.00768 0.0
C2861 C 0.94829 0.06013 0.02798 0.0
C2862 C 0.96153 0.07016 0.01849 0.0
C2863 C 0.93524 0.06929 0.03576 0.0
C2864 C 0.91251 0.10298 0.01979 0.0
H2865 H 0.82393 0.09217 0.03954 0.0
H2866 H 0.85357 0.08477 0.04323 0.0
H2867 H 0.89123 0.11262 0.00683 0.0
H2868 H 0.97316 0.09786 0.01161 0.0
H2869 H 0.95058 0.11406 0.02557 0.0
H2870 H 0.9125 0.08756 0.06217 0.0
C2871 C 0.85226 0.09774 0.03798 0.0
C2872 C 0.89585 0.10766 0.01925 0.0
C2873 C 0.83533 0.10182 0.03566 0.0
C2874 C 0.96301 0.08997 0.01895 0.0
C2875 C 0.95008 0.09915 0.02683 0.0
C2876 C 0.90802 0.09334 0.05023 0.0
C2877 C 0.86726 0.11006 0.03306 0.0
C2878 C 0.88505 0.10531 0.03418 0.0
C2879 C 0.93539 0.08849 0.034 0.0
C2880 C 0.91874 0.09569 0.03521 0.0
H2881 H 0.84707 0.14352 0.01823 0.0
H2882 H 0.87644 0.13654 0.02245 0.0
H2883 H 0.88322 0.0964 0.06152 0.0
H2884 H 0.94693 0.04476 0.02758 0.0
H2885 H 0.92403 0.06075 0.04118 0.0
C2886 C 0.37467 0.42108 0.05052 0.0
C2887 C 0.36007 0.42668 0.04209 0.0
C2888 C 0.39219 0.431 0.04945 0.0
C2889 C 0.41916 0.46291 0.02106 0.0
H2890 H 0.45439 0.4741 0.06435 0.0
C2891 C 0.4888 0.51285 0.02185 0.0
C2892 C 0.5036 0.50731 0.02993 0.0
C2893 C 0.47137 0.5031 0.02354 0.0
C2894 C 0.44479 0.47092 0.05204 0.0
H2895 H 0.35248 0.44711 0.02591 0.0
H2896 H 0.38292 0.46434 0.02401 0.0
H2897 H 0.42405 0.45693 0.06696 0.0
H2898 H 0.51161 0.48708 0.04611 0.0
H2899 H 0.48129 0.47014 0.04911 0.0
H2900 H 0.43987 0.47687 0.00613 0.0
C2901 C 0.3809 0.45226 0.03141 0.0
C2902 C 0.42735 0.46105 0.05354 0.0
C2903 C 0.3634 0.44248 0.03265 0.0
C2904 C 0.50052 0.4918 0.03979 0.0
C2905 C 0.4831 0.48214 0.0416 0.0
C2906 C 0.43658 0.47278 0.01956 0.0
C2907 C 0.39557 0.44663 0.03972 0.0
C2908 C 0.41426 0.45695 0.0381 0.0
C2909 C 0.46826 0.48758 0.03343 0.0
C2910 C 0.44965 0.47699 0.03504 0.0
H2911 H 0.37256 0.40893 0.05785 0.0
H2912 H 0.40312 0.42612 0.05589 0.0
H2913 H 0.40957 0.45971 0.00874 0.0
H2914 H 0.49067 0.52451 0.01388 0.0
H2915 H 0.46031 0.50782 0.01718 0.0
C2916 C 0.41169 0.63833 0.78487 0.0
C2917 C 0.40422 0.6191 0.77545 0.0
C2918 C 0.40306 0.65419 0.78381 0.0
C2919 C 0.3644 0.66921 0.75621 0.0
H2920 H 0.37448 0.715 0.79548 0.0
C2921 C 0.3375 0.74008 0.74654 0.0
C2922 C 0.33288 0.75263 0.7621 0.0
C2923 C 0.3453 0.724 0.74869 0.0
C2924 C 0.37125 0.7024 0.78428 0.0
H2925 H 0.38094 0.60261 0.75732 0.0
H2926 H 0.36617 0.62952 0.75545 0.0
H2927 H 0.38918 0.68812 0.79801 0.0
H2928 H 0.33418 0.75741 0.79275 0.0
H2929 H 0.34807 0.72992 0.79661 0.0
H2930 H 0.34654 0.68351 0.74246 0.0
C2931 C 0.37895 0.63269 0.76371 0.0
C2932 C 0.38 0.68668 0.78565 0.0
C2933 C 0.38753 0.61684 0.76488 0.0
C2934 C 0.33695 0.74821 0.78017 0.0
C2935 C 0.34522 0.73228 0.78238 0.0
C2936 C 0.35586 0.685 0.75473 0.0
C2937 C 0.38635 0.65201 0.77311 0.0
C2938 C 0.37688 0.66942 0.77168 0.0
C2939 C 0.3497 0.71958 0.76667 0.0
C2940 C 0.35892 0.70219 0.76869 0.0
H2941 H 0.42443 0.64126 0.7932 0.0
H2942 H 0.40981 0.66837 0.79129 0.0
H2943 H 0.36128 0.65682 0.7448 0.0
H2944 H 0.33508 0.74277 0.73234 0.0
H2945 H 0.34841 0.71528 0.73599 0.0
C2946 C 0.21964 0.6292 0.53294 0.0
C2947 C 0.22996 0.61683 0.52402 0.0
C2948 C 0.20141 0.62294 0.53291 0.0
C2949 C 0.16375 0.58938 0.50585 0.0
H2950 H 0.13934 0.60448 0.55019 0.0
C2951 C 0.08894 0.56586 0.5081 0.0
C2952 C 0.07969 0.58058 0.51346 0.0
C2953 C 0.10732 0.56946 0.51091 0.0
C2954 C 0.14607 0.60035 0.53775 0.0
H2955 H 0.22954 0.58819 0.50831 0.0
H2956 H 0.19712 0.57703 0.50823 0.0
H2957 H 0.17195 0.61038 0.55271 0.0
H2958 H 0.08227 0.61095 0.52496 0.0
H2959 H 0.11511 0.61752 0.52989 0.0
H2960 H 0.13785 0.57937 0.49092 0.0
C2961 C 0.20335 0.59161 0.5152 0.0
C2962 C 0.1646 0.60358 0.53916 0.0
C2963 C 0.22178 0.59792 0.51528 0.0
C2964 C 0.08921 0.59932 0.52112 0.0
C2965 C 0.10781 0.603 0.52401 0.0
C2966 C 0.14524 0.58603 0.50448 0.0
C2967 C 0.19308 0.60416 0.52402 0.0
C2968 C 0.17357 0.59839 0.52314 0.0
C2969 C 0.11688 0.58804 0.51873 0.0
C2970 C 0.13635 0.59171 0.52036 0.0
H2971 H 0.22561 0.64388 0.53986 0.0
H2972 H 0.19376 0.63302 0.53945 0.0
H2973 H 0.17038 0.58557 0.49324 0.0
H2974 H 0.0822 0.55166 0.50109 0.0
H2975 H 0.11411 0.55777 0.50667 0.0
C2976 C 0.72893 0.98565 0.73407 0.0
C2977 C 0.71285 0.9889 0.74094 0.0
C2978 C 0.73309 0.96752 0.73322 0.0
C2979 C 0.72452 0.92882 0.75915 0.0
H2980 H 0.74479 0.89886 0.71908 0.0
C2981 C 0.74456 0.86282 0.77431 0.0
C2982 C 0.76281 0.86404 0.77273 0.0
C2983 C 0.73533 0.87306 0.76402 0.0
C2984 C 0.73899 0.90706 0.73026 0.0
H2985 H 0.68791 0.97576 0.75095 0.0
H2986 H 0.69519 0.94432 0.74941 0.0
H2987 H 0.73534 0.92839 0.71362 0.0
H2988 H 0.78546 0.87472 0.75791 0.0
H2989 H 0.7695 0.89352 0.74049 0.0
H2990 H 0.72872 0.90842 0.77615 0.0
C2991 C 0.70466 0.95572 0.74498 0.0
C2992 C 0.73373 0.92388 0.72719 0.0
C2993 C 0.70059 0.97371 0.74596 0.0
C2994 C 0.77135 0.87382 0.75932 0.0
C2995 C 0.76219 0.88439 0.74926 0.0
C2996 C 0.72973 0.91218 0.76221 0.0
C2997 C 0.72113 0.95266 0.73916 0.0
C2998 C 0.72647 0.93478 0.74166 0.0
C2999 C 0.74444 0.88503 0.75252 0.0
C3000 C 0.73701 0.90113 0.74783 0.0
H3001 H 0.73844 0.99719 0.72993 0.0
H3002 H 0.74593 0.96539 0.72881 0.0
H3003 H 0.71938 0.93733 0.77068 0.0
H3004 H 0.73778 0.85502 0.78443 0.0
H3005 H 0.72152 0.87308 0.76643 0.0
C3006 C 0.74553 0.90677 0.52802 0.0
C3007 C 0.76111 0.91757 0.53897 0.0
C3008 C 0.72998 0.91404 0.5277 0.0
C3009 C 0.70752 0.95011 0.55363 0.0
H3010 H 0.68297 0.94715 0.50432 0.0
C3011 C 0.65793 0.99811 0.5407 0.0
C3012 C 0.64436 0.9913 0.52589 0.0
C3013 C 0.67023 0.98688 0.5441 0.0
C3014 C 0.68935 0.94776 0.51828 0.0
H3015 H 0.77252 0.94426 0.5585 0.0
H3016 H 0.74534 0.95702 0.55789 0.0
H3017 H 0.70832 0.93194 0.50672 0.0
H3018 H 0.63211 0.96726 0.50367 0.0
H3019 H 0.65312 0.94713 0.51003 0.0
H3020 H 0.6886 0.966 0.56522 0.0
C3021 C 0.74513 0.94287 0.54965 0.0
C3022 C 0.70398 0.93909 0.51963 0.0
C3023 C 0.76073 0.93563 0.54989 0.0
C3024 C 0.64255 0.9727 0.51518 0.0
C3025 C 0.6547 0.96133 0.51872 0.0
C3026 C 0.69276 0.95865 0.55232 0.0
C3027 C 0.72963 0.93223 0.53841 0.0
C3028 C 0.71339 0.9404 0.53727 0.0
C3029 C 0.66908 0.96855 0.53279 0.0
C3030 C 0.68364 0.95784 0.53458 0.0
H3031 H 0.74539 0.89275 0.51952 0.0
H3032 H 0.71819 0.90541 0.51906 0.0
H3033 H 0.71436 0.95113 0.56747 0.0
H3034 H 0.65957 0.01253 0.54898 0.0
H3035 H 0.68119 0.99305 0.5549 0.0
C3036 C 0.40726 0.49412 0.76449 0.0
C3037 C 0.40083 0.51001 0.77381 0.0
C3038 C 0.39853 0.47469 0.7644 0.0
C3039 C 0.36104 0.44342 0.78679 0.0
H3040 H 0.37002 0.40234 0.74857 0.0
C3041 C 0.31883 0.36284 0.77649 0.0
C3042 C 0.32744 0.34724 0.77179 0.0
C3043 C 0.3277 0.38233 0.77699 0.0
C3044 C 0.36734 0.41348 0.75953 0.0
H3045 H 0.37959 0.51704 0.79046 0.0
H3046 H 0.36419 0.48372 0.78994 0.0
H3047 H 0.38468 0.43562 0.74864 0.0
H3048 H 0.35274 0.34082 0.76398 0.0
H3049 H 0.36788 0.37435 0.76422 0.0
H3050 H 0.34325 0.42102 0.79724 0.0
C3051 C 0.37629 0.48599 0.78284 0.0
C3052 C 0.37597 0.43298 0.75967 0.0
C3053 C 0.38513 0.50547 0.78302 0.0
C3054 C 0.34538 0.35213 0.76752 0.0
C3055 C 0.35414 0.37158 0.76762 0.0
C3056 C 0.35221 0.42393 0.78646 0.0
C3057 C 0.38271 0.46993 0.77354 0.0
C3058 C 0.37316 0.44863 0.77334 0.0
C3059 C 0.34558 0.38725 0.77247 0.0
C3060 C 0.35514 0.4084 0.77284 0.0
H3061 H 0.41931 0.49667 0.75729 0.0
H3062 H 0.40457 0.46342 0.75729 0.0
H3063 H 0.3584 0.45434 0.79796 0.0
H3064 H 0.30527 0.3601 0.78031 0.0
H3065 H 0.32036 0.3936 0.78076 0.0
C3066 C 0.22123 0.61042 0.24256 0.0
C3067 C 0.2278 0.59582 0.24944 0.0
C3068 C 0.22991 0.62956 0.24835 0.0
C3069 C 0.25908 0.66191 0.28703 0.0
H3070 H 0.26111 0.69664 0.25121 0.0
C3071 C 0.28995 0.74499 0.30102 0.0
C3072 C 0.27659 0.75511 0.29794 0.0
C3073 C 0.28641 0.72496 0.29553 0.0
C3074 C 0.261 0.6871 0.26123 0.0
H3075 H 0.24859 0.58945 0.26746 0.0
H3076 H 0.26413 0.62318 0.2773 0.0
H3077 H 0.25171 0.66221 0.23972 0.0
H3078 H 0.24884 0.75288 0.28882 0.0
H3079 H 0.24267 0.71771 0.27873 0.0
H3080 H 0.26847 0.68723 0.30847 0.0
C3081 C 0.25219 0.61974 0.26758 0.0
C3082 C 0.25542 0.66743 0.25475 0.0
C3083 C 0.24345 0.60052 0.26179 0.0
C3084 C 0.25941 0.74517 0.29058 0.0
C3085 C 0.2559 0.72524 0.28495 0.0
C3086 C 0.26511 0.68171 0.29343 0.0
C3087 C 0.24537 0.63437 0.261 0.0
C3088 C 0.25387 0.65473 0.26766 0.0
C3089 C 0.26944 0.71513 0.28723 0.0
C3090 C 0.26567 0.69434 0.28054 0.0
H3091 H 0.20906 0.60715 0.23319 0.0
H3092 H 0.22418 0.64063 0.24338 0.0
H3093 H 0.25774 0.65237 0.29727 0.0
H3094 H 0.3031 0.75248 0.30737 0.0
H3095 H 0.2969 0.7172 0.29744 0.0
C3096 C 0.52584 0.70359 0.4429 0.0
C3097 C 0.52087 0.71964 0.45365 0.0
C3098 C 0.53052 0.68899 0.45161 0.0
C3099 C 0.52621 0.66641 0.49449 0.0
H3100 H 0.56734 0.64689 0.4776 0.0
C3101 C 0.55055 0.60366 0.52443 0.0
C3102 C 0.55437 0.58933 0.51026 0.0
C3103 C 0.54801 0.62143 0.52 0.0
C3104 C 0.55575 0.65205 0.48246 0.0
H3105 H 0.51649 0.73256 0.48207 0.0
H3106 H 0.52422 0.70678 0.49723 0.0
H3107 H 0.55894 0.67334 0.46463 0.0
H3108 H 0.55888 0.58252 0.48063 0.0
H3109 H 0.55485 0.61307 0.47306 0.0
H3110 H 0.52281 0.64464 0.51198 0.0
C3111 C 0.52463 0.70559 0.48203 0.0
C3112 C 0.5509 0.66726 0.47496 0.0
C3113 C 0.52024 0.7204 0.47334 0.0
C3114 C 0.55613 0.59335 0.4919 0.0
C3115 C 0.55387 0.61098 0.48757 0.0
C3116 C 0.53102 0.65103 0.50194 0.0
C3117 C 0.53014 0.68981 0.47133 0.0
C3118 C 0.53585 0.67443 0.48053 0.0
C3119 C 0.54946 0.62522 0.50139 0.0
C3120 C 0.54565 0.64332 0.4957 0.0
H3121 H 0.52659 0.70255 0.42775 0.0
H3122 H 0.53445 0.67698 0.44283 0.0
H3123 H 0.51453 0.67152 0.49913 0.0
H3124 H 0.54881 0.60085 0.53864 0.0
H3125 H 0.5447 0.63206 0.53105 0.0
C3126 C 0.6309 0.325 0.67404 0.0
C3127 C 0.62984 0.31767 0.65446 0.0
C3128 C 0.64588 0.3249 0.68609 0.0
C3129 C 0.68487 0.30122 0.68917 0.0
H3130 H 0.70188 0.34315 0.73177 0.0
C3131 C 0.74991 0.30503 0.73639 0.0
C3132 C 0.75079 0.31235 0.75602 0.0
C3133 C 0.73559 0.30621 0.72394 0.0
C3134 C 0.69724 0.33114 0.72012 0.0
H3135 H 0.644 0.30462 0.63225 0.0
H3136 H 0.67021 0.30463 0.65315 0.0
H3137 H 0.67659 0.34427 0.7104 0.0
H3138 H 0.737 0.32718 0.77739 0.0
H3139 H 0.71197 0.32871 0.75607 0.0
H3140 H 0.70539 0.288 0.69896 0.0
C3141 C 0.65933 0.31027 0.65931 0.0
C3142 C 0.68264 0.33181 0.70776 0.0
C3143 C 0.64433 0.31041 0.64724 0.0
C3144 C 0.73693 0.32117 0.76261 0.0
C3145 C 0.72252 0.32224 0.75018 0.0
C3146 C 0.69944 0.30053 0.70156 0.0
C3147 C 0.66033 0.31742 0.67898 0.0
C3148 C 0.67618 0.31685 0.69206 0.0
C3149 C 0.72152 0.31467 0.73061 0.0
C3150 C 0.70591 0.31548 0.71728 0.0
H3151 H 0.61998 0.33062 0.68016 0.0
H3152 H 0.64591 0.33029 0.70111 0.0
H3153 H 0.6802 0.28923 0.67752 0.0
H3154 H 0.76024 0.29817 0.73053 0.0
H3155 H 0.73567 0.30055 0.70899 0.0
C3156 C 0.01621 0.33934 0.94751 0.0
C3157 C 0.02018 0.32539 0.95764 0.0
C3158 C 0.01629 0.3581 0.95679 0.0
C3159 C 0.03415 0.39438 0.99996 0.0
H3160 H 0.99792 0.41968 0.98251 0.0
C3161 C 0.03306 0.47541 0.02893 0.0
C3162 C 0.03237 0.48608 0.0143 0.0
C3163 C 0.02934 0.45506 0.02475 0.0
C3164 C 0.00811 0.41283 0.9876 0.0
H3165 H 0.02762 0.32038 0.9856 0.0
H3166 H 0.02802 0.35347 1.00192 0.0
H3167 H 0.99623 0.38555 0.97012 0.0
H3168 H 0.02699 0.48396 0.98408 0.0
H3169 H 0.0198 0.44876 0.9769 0.0
H3170 H 0.04618 0.42196 0.01718 0.0
C3171 C 0.02474 0.34975 0.98671 0.0
C3172 C 0.00721 0.39326 0.98043 0.0
C3173 C 0.02444 0.33078 0.97739 0.0
C3174 C 0.02729 0.47608 0.99565 0.0
C3175 C 0.0232 0.4559 0.99155 0.0
C3176 C 0.03502 0.41403 0.00721 0.0
C3177 C 0.02049 0.36363 0.97652 0.0
C3178 C 0.02047 0.38386 0.98607 0.0
C3179 C 0.02461 0.44508 0.00593 0.0
C3180 C 0.02225 0.42362 1.00073 0.0
H3181 H 0.01286 0.33571 0.9323 0.0
H3182 H 0.01326 0.3684 0.94838 0.0
H3183 H 0.04464 0.38768 0.00458 0.0
H3184 H 0.03739 0.48275 0.04337 0.0
H3185 H 0.03053 0.44715 0.03615 0.0
C3186 C 0.01845 0.81131 0.13878 0.0
C3187 C 0.03447 0.80897 0.14758 0.0
C3188 C 1.00262 0.80859 0.14786 0.0
C3189 C 0.98207 0.7839 0.18512 0.0
H3190 H 0.94927 0.81863 0.18624 0.0
C3191 C 0.93073 0.78549 0.23948 0.0
C3192 C 0.91274 0.78381 0.23304 0.0
C3193 C 0.94432 0.78903 0.2276 0.0
C3194 C 0.95819 0.80868 0.18582 0.0
H3195 H 0.04646 0.8021 0.17285 0.0
H3196 H 0.01905 0.79734 0.18859 0.0
H3197 H 0.97561 0.82378 0.16825 0.0
H3198 H 0.89527 0.78609 0.20917 0.0
H3199 H 0.91937 0.79298 0.18843 0.0
H3200 H 0.96501 0.76907 0.20297 0.0
C3201 C 0.01858 0.80115 0.17465 0.0
C3202 C 0.97328 0.81161 0.17553 0.0
C3203 C 0.03437 0.80404 0.16568 0.0
C3204 C 0.90891 0.78716 0.21463 0.0
C3205 C 0.9227 0.79104 0.20272 0.0
C3206 C 0.96713 0.78105 0.1954 0.0
C3207 C 1.00245 0.80322 0.16583 0.0
C3208 C 0.98561 0.79947 0.1754 0.0
C3209 C 0.94049 0.79143 0.20896 0.0
C3210 C 0.9552 0.79361 0.19622 0.0
H3211 H 0.01811 0.81513 0.12483 0.0
H3212 H 0.99044 0.81024 0.14063 0.0
H3213 H 0.99098 0.77395 0.18494 0.0
H3214 H 0.9344 0.78378 0.25376 0.0
H3215 H 0.95792 0.78975 0.23301 0.0
C3216 C 0.5286 0.32415 0.1408 0.0
C3217 C 0.51378 0.3089 0.13499 0.0
C3218 C 0.53339 0.33786 0.12941 0.0
C3219 C 0.51744 0.3624 0.09525 0.0
H3220 H 0.5631 0.36418 0.07418 0.0
C3221 C 0.53672 0.40394 0.03542 0.0
C3222 C 0.55468 0.41269 0.03515 0.0
C3223 C 0.5317 0.39203 0.04846 0.0
C3224 C 0.55049 0.36419 0.08023 0.0
H3225 H 0.49197 0.29607 0.11333 0.0
H3226 H 0.50005 0.32068 0.0936 0.0
H3227 H 0.55408 0.34234 0.09607 0.0
H3228 H 0.58144 0.41697 0.04842 0.0
H3229 H 0.57272 0.3966 0.0718 0.0
H3230 H 0.51395 0.38462 0.08002 0.0
C3231 C 0.50801 0.32177 0.10681 0.0
C3232 C 0.54532 0.35159 0.09261 0.0
C3233 C 0.50348 0.30775 0.11797 0.0
C3234 C 0.56758 0.40982 0.04821 0.0
C3235 C 0.56255 0.3982 0.06151 0.0
C3236 C 0.52276 0.37532 0.08317 0.0
C3237 C 0.52313 0.33669 0.11238 0.0
C3238 C 0.52872 0.35052 0.09999 0.0
C3239 C 0.54456 0.38907 0.0617 0.0
C3240 C 0.53926 0.37617 0.07534 0.0
H3241 H 0.53678 0.32514 0.15384 0.0
H3242 H 0.54513 0.34931 0.13382 0.0
H3243 H 0.50462 0.36176 0.10101 0.0
H3244 H 0.5266 0.40635 0.02554 0.0
H3245 H 0.51779 0.38503 0.048 0.0
C3246 C 0.04133 0.30628 0.35861 0.0
C3247 C 0.04991 0.31856 0.37523 0.0
C3248 C 0.02532 0.30912 0.35073 0.0
C3249 C 1.00286 0.34556 0.3429 0.0
H3250 H 0.95903 0.3064 0.33513 0.0
C3251 C 0.9387 0.35692 0.30518 0.0
C3252 C 0.92816 0.3407 0.2932 0.0
C3253 C 0.95289 0.35485 0.31708 0.0
C3254 C 0.97121 0.31739 0.33697 0.0
H3255 H 0.04895 0.34344 0.39664 0.0
H3256 H 0.02109 0.34884 0.38234 0.0
H3257 H 0.98524 0.30111 0.35251 0.0
H3258 H 0.92413 0.30977 0.28375 0.0
H3259 H 0.94937 0.30619 0.30373 0.0
H3260 H 0.98941 0.36141 0.32646 0.0
C3261 C 0.02656 0.3368 0.37579 0.0
C3262 C 0.98609 0.3144 0.34705 0.0
C3263 C 0.04232 0.33364 0.38396 0.0
C3264 C 0.9321 0.32245 0.29299 0.0
C3265 C 0.94642 0.32041 0.3046 0.0
C3266 C 0.9881 0.34841 0.33247 0.0
C3267 C 0.01803 0.32457 0.35913 0.0
C3268 C 1.00199 0.32838 0.34989 0.0
C3269 C 0.9569 0.33655 0.31692 0.0
C3270 C 0.97217 0.33423 0.32917 0.0
H3271 H 0.04709 0.29465 0.35165 0.0
H3272 H 0.01892 0.29967 0.33776 0.0
H3273 H 0.01515 0.35642 0.34487 0.0
H3274 H 0.93567 0.37108 0.3057 0.0
H3275 H 0.96051 0.36753 0.32658 0.0
C3276 C 0.97767 0.70059 0.63477 0.0
C3277 C 0.9929 0.70966 0.64703 0.0
C3278 C 0.9771 0.68276 0.62335 0.0
C3279 C 0.0047 0.66763 0.59361 0.0
H3280 H 0.98308 0.61308 0.58727 0.0
C3281 C 0.02832 0.60969 0.54412 0.0
C3282 C 0.01571 0.59394 0.53407 0.0
C3283 C 0.02288 0.62365 0.55687 0.0
C3284 C 0.98885 0.62835 0.58875 0.0
H3285 H 0.01883 0.70706 0.6584 0.0
H3286 H 0.01818 0.67616 0.63762 0.0
H3287 H 0.97799 0.63549 0.61538 0.0
H3288 H 0.98766 0.58053 0.52813 0.0
H3289 H 0.97795 0.60516 0.55094 0.0
H3290 H 0.01553 0.66083 0.56718 0.0
C3291 C 0.00649 0.68246 0.63739 0.0
C3292 C 0.98613 0.64098 0.60482 0.0
C3293 C 0.00687 0.70007 0.64915 0.0
C3294 C 0.99748 0.59271 0.53592 0.0
C3295 C 0.992 0.60661 0.54894 0.0
C3296 C 0.00727 0.65513 0.57755 0.0
C3297 C 0.99194 0.67426 0.6239 0.0
C3298 C 0.99435 0.66055 0.60737 0.0
C3299 C 0.00476 0.62192 0.55978 0.0
C3300 C 0.99966 0.63537 0.57518 0.0
H3301 H 0.96681 0.70792 0.63305 0.0
H3302 H 0.96593 0.67663 0.61276 0.0
H3303 H 0.01086 0.68285 0.59537 0.0
H3304 H 0.04243 0.61084 0.54258 0.0
H3305 H 0.03297 0.63525 0.56516 0.0
C3306 C 0.63764 0.79183 0.85106 0.0
C3307 C 0.63772 0.80965 0.86248 0.0
C3308 C 0.64956 0.79063 0.83729 0.0
C3309 C 0.69218 0.8168 0.8255 0.0
H3310 H 0.68143 0.77679 0.78031 0.0
C3311 C 0.74676 0.78684 0.79187 0.0
C3312 C 0.74709 0.78463 0.77223 0.0
C3313 C 0.73164 0.79036 0.80015 0.0
C3314 C 0.68445 0.78826 0.79267 0.0
H3315 H 0.64943 0.8403 0.86848 0.0
H3316 H 0.66985 0.83847 0.84375 0.0
H3317 H 0.65741 0.78374 0.79956 0.0
H3318 H 0.73269 0.78476 0.74555 0.0
H3319 H 0.70572 0.79118 0.76024 0.0
H3320 H 0.71909 0.82151 0.81851 0.0
C3321 C 0.66113 0.82528 0.8458 0.0
C3322 C 0.67083 0.79208 0.8038 0.0
C3323 C 0.64955 0.82635 0.85996 0.0
C3324 C 0.73228 0.78603 0.76076 0.0
C3325 C 0.71702 0.78967 0.76909 0.0
C3326 C 0.70563 0.81326 0.81422 0.0
C3327 C 0.66134 0.80737 0.83444 0.0
C3328 C 0.67476 0.8058 0.82075 0.0
C3329 C 0.7169 0.7924 0.78889 0.0
C3330 C 0.702 0.79837 0.79829 0.0
H3331 H 0.62846 0.77883 0.85291 0.0
H3332 H 0.64974 0.77654 0.82916 0.0
H3333 H 0.69573 0.82736 0.83851 0.0
H3334 H 0.75837 0.78624 0.80084 0.0
H3335 H 0.73166 0.79204 0.81543 0.0
C3336 C 0.47825 0.58059 0.72559 0.0
C3337 C 0.46076 0.5696 0.72571 0.0
C3338 C 0.48749 0.57999 0.7088 0.0
C3339 C 0.48585 0.55088 0.65796 0.0
H3340 H 0.52244 0.59409 0.65099 0.0
C3341 C 0.51785 0.55023 0.58456 0.0
C3342 C 0.53524 0.56088 0.58318 0.0
C3343 C 0.50935 0.5518 0.60173 0.0
C3344 C 0.51242 0.58165 0.65251 0.0
H3345 H 0.43966 0.54933 0.70724 0.0
H3346 H 0.45528 0.54838 0.6785 0.0
H3347 H 0.50723 0.59577 0.68004 0.0
H3348 H 0.55675 0.58214 0.60005 0.0
H3349 H 0.54233 0.58465 0.62975 0.0
H3350 H 0.49106 0.53665 0.63065 0.0
C3351 C 0.46224 0.55739 0.6914 0.0
C3352 C 0.50351 0.58263 0.66953 0.0
C3353 C 0.45303 0.55804 0.70814 0.0
C3354 C 0.54353 0.57346 0.60007 0.0
C3355 C 0.53501 0.57501 0.61736 0.0
C3356 C 0.49475 0.54989 0.64101 0.0
C3357 C 0.47981 0.56829 0.69114 0.0
C3358 C 0.48983 0.5673 0.67277 0.0
C3359 C 0.51766 0.56408 0.6188 0.0
C3360 C 0.50826 0.56526 0.63761 0.0
H3361 H 0.48493 0.58972 0.73859 0.0
H3362 H 0.5009 0.5886 0.70986 0.0
H3363 H 0.47593 0.53836 0.65946 0.0
H3364 H 0.5106 0.5404 0.57223 0.0
H3365 H 0.49597 0.54332 0.60138 0.0
C3366 C 0.77761 0.1558 0.96273 0.0
C3367 C 0.78009 0.16459 0.98193 0.0
C3368 C 0.77544 0.1668 0.94885 0.0
C3369 C 0.76122 0.21088 0.94261 0.0
H3370 H 0.79055 0.21114 0.90024 0.0
C3371 C 0.7606 0.26664 0.89651 0.0
C3372 C 0.75636 0.25866 0.87727 0.0
C3373 C 0.76679 0.25581 0.90869 0.0
C3374 C 0.78229 0.21112 0.912 0.0
H3375 H 0.78199 0.19148 1.00186 0.0
H3376 H 0.77819 0.21047 0.97776 0.0
H3377 H 0.79293 0.18902 0.92232 0.0
H3378 H 0.75646 0.23434 0.85497 0.0
H3379 H 0.76696 0.215 0.87643 0.0
H3380 H 0.75048 0.23279 0.93247 0.0
C3381 C 0.77791 0.19521 0.97337 0.0
C3382 C 0.78354 0.19843 0.92447 0.0
C3383 C 0.7802 0.18435 0.98712 0.0
C3384 C 0.75963 0.2405 0.86991 0.0
C3385 C 0.76572 0.22959 0.88211 0.0
C3386 C 0.75998 0.2235 0.93023 0.0
C3387 C 0.77551 0.18655 0.95417 0.0
C3388 C 0.77315 0.19844 0.93995 0.0
C3389 C 0.76854 0.23686 0.90169 0.0
C3390 C 0.77064 0.22388 0.91498 0.0
H3391 H 0.77745 0.14056 0.95849 0.0
H3392 H 0.7735 0.15991 0.93404 0.0
H3393 H 0.7529 0.2109 0.95433 0.0
H3394 H 0.75826 0.28079 0.90223 0.0
H3395 H 0.76923 0.26181 0.92371 0.0
C3396 C 0.16408 0.53158 0.17935 0.0
C3397 C 0.16253 0.52233 0.195 0.0
C3398 C 0.1502 0.52689 0.16503 0.0
C3399 C 0.11039 0.49776 0.14129 0.0
H3400 H 0.08971 0.54287 0.15452 0.0
C3401 C 0.05357 0.50925 0.09428 0.0
C3402 C 0.05999 0.52618 0.08733 0.0
C3403 C 0.06175 0.50626 0.11095 0.0
C3404 C 0.09515 0.53004 0.15095 0.0
H3405 H 0.14711 0.49929 0.20708 0.0
H3406 H 0.12282 0.491 0.18179 0.0
H3407 H 0.11643 0.54025 0.17291 0.0
H3408 H 0.07811 0.55422 0.09301 0.0
H3409 H 0.09253 0.54898 0.12175 0.0
H3410 H 0.0899 0.48822 0.1184 0.0
C3411 C 0.13455 0.50187 0.18071 0.0
C3412 C 0.11044 0.52868 0.16124 0.0
C3413 C 0.14825 0.50677 0.19516 0.0
C3414 C 0.07332 0.54084 0.09794 0.0
C3415 C 0.08133 0.53797 0.11457 0.0
C3416 C 0.09515 0.49924 0.13077 0.0
C3417 C 0.13506 0.51271 0.16628 0.0
C3418 C 0.1184 0.5129 0.15597 0.0
C3419 C 0.07611 0.52035 0.12075 0.0
C3420 C 0.08793 0.5158 0.1351 0.0
H3421 H 0.17512 0.54354 0.17904 0.0
H3422 H 0.15054 0.53542 0.15392 0.0
H3423 H 0.11639 0.48538 0.13743 0.0
H3424 H 0.04306 0.49791 0.08627 0.0
H3425 H 0.05758 0.49261 0.11561 0.0
C3426 C 0.80581 0.84694 0.47853 0.0
C3427 C 0.80709 0.86701 0.48274 0.0
C3428 C 0.80682 0.83774 0.45995 0.0
C3429 C 0.82293 0.84789 0.41432 0.0
H3430 H 0.79065 0.79928 0.39283 0.0
C3431 C 0.80906 0.8185 0.33409 0.0
C3432 C 0.80652 0.79852 0.32775 0.0
C3433 C 0.81171 0.82618 0.35347 0.0
C3434 C 0.79998 0.81268 0.39873 0.0
H3435 H 0.81004 0.89313 0.47083 0.0
H3436 H 0.81157 0.8771 0.43846 0.0
H3437 H 0.7895 0.81391 0.42583 0.0
H3438 H 0.80423 0.77076 0.33631 0.0
H3439 H 0.80916 0.78418 0.37036 0.0
H3440 H 0.83314 0.84685 0.38708 0.0
C3441 C 0.81013 0.86849 0.4495 0.0
C3442 C 0.79929 0.82108 0.41763 0.0
C3443 C 0.80911 0.87766 0.46803 0.0
C3444 C 0.80668 0.78629 0.34098 0.0
C3445 C 0.80931 0.79395 0.36039 0.0
C3446 C 0.8236 0.83951 0.39543 0.0
C3447 C 0.80917 0.84846 0.44526 0.0
C3448 C 0.81058 0.83891 0.42555 0.0
C3449 C 0.81147 0.81395 0.36684 0.0
C3450 C 0.81198 0.82194 0.38736 0.0
H3451 H 0.80423 0.83838 0.48961 0.0
H3452 H 0.80611 0.8223 0.45715 0.0
H3453 H 0.83205 0.86146 0.42012 0.0
H3454 H 0.80829 0.82808 0.32407 0.0
H3455 H 0.81302 0.8416 0.35798 0.0
C3456 C 0.45416 0.56695 0.84789 0.0
C3457 C 0.46146 0.56508 0.83014 0.0
C3458 C 0.46304 0.56352 0.86459 0.0
C3459 C 0.50224 0.5421 0.88206 0.0
H3460 H 0.4916 0.56507 0.93173 0.0
C3461 C 0.54427 0.53694 0.9528 0.0
C3462 C 0.53653 0.5376 0.97028 0.0
C3463 C 0.53489 0.53911 0.93586 0.0
C3464 C 0.49475 0.55819 0.9181 0.0
H3465 H 0.48453 0.55792 0.81694 0.0
H3466 H 0.49991 0.55227 0.84548 0.0
H3467 H 0.47671 0.57137 0.90341 0.0
H3468 H 0.51243 0.54189 0.98301 0.0
H3469 H 0.49615 0.54553 0.95395 0.0
H3470 H 0.52045 0.52911 0.89686 0.0
C3471 C 0.48709 0.55618 0.84674 0.0
C3472 C 0.48601 0.56188 0.90146 0.0
C3473 C 0.47821 0.55965 0.83007 0.0
C3474 C 0.51888 0.54063 0.96994 0.0
C3475 C 0.50956 0.54309 0.95307 0.0
C3476 C 0.51103 0.53849 0.89871 0.0
C3477 C 0.4798 0.55793 0.8646 0.0
C3478 C 0.48942 0.55395 0.88283 0.0
C3479 C 0.51735 0.54267 0.93551 0.0
C3480 C 0.50758 0.5464 0.9173 0.0
H3481 H 0.44134 0.57096 0.84893 0.0
H3482 H 0.45639 0.56496 0.87749 0.0
H3483 H 0.50542 0.53518 0.86848 0.0
H3484 H 0.55795 0.53526 0.95229 0.0
H3485 H 0.54185 0.53878 0.92315 0.0
C3486 C 0.79137 0.17416 0.09181 0.0
C3487 C 0.78757 0.17751 0.07354 0.0
C3488 C 0.78987 0.18781 0.10754 0.0
C3489 C 0.79161 0.23919 0.12181 0.0
H3490 H 0.77462 0.22308 0.16766 0.0
C3491 C 0.79325 0.28755 0.19688 0.0
C3492 C 0.80267 0.28019 0.21013 0.0
C3493 C 0.78899 0.27709 0.17841 0.0
C3494 C 0.7791 0.22774 0.15481 0.0
H3495 H 0.77908 0.19745 0.05717 0.0
H3496 H 0.77637 0.2212 0.0847 0.0
H3497 H 0.77054 0.19939 0.13826 0.0
H3498 H 0.81627 0.25758 0.21493 0.0
H3499 H 0.80907 0.23943 0.18268 0.0
H3500 H 0.80079 0.26742 0.13875 0.0
C3501 C 0.78065 0.20818 0.08686 0.0
C3502 C 0.77691 0.21425 0.13813 0.0
C3503 C 0.78223 0.19461 0.07117 0.0
C3504 C 0.80889 0.26326 0.20474 0.0
C3505 C 0.80468 0.2529 0.18647 0.0
C3506 C 0.7937 0.25273 0.13853 0.0
C3507 C 0.78448 0.2049 0.10515 0.0
C3508 C 0.78384 0.21971 0.12173 0.0
C3509 C 0.79415 0.25937 0.17348 0.0
C3510 C 0.78812 0.24682 0.1552 0.0
H3511 H 0.79545 0.16103 0.09394 0.0
H3512 H 0.79322 0.18514 0.12155 0.0
H3513 H 0.79711 0.24371 0.10932 0.0
H3514 H 0.78833 0.30062 0.2011 0.0
H3515 H 0.78096 0.28223 0.16835 0.0
C3516 C 0.1791 0.54953 0.31027 0.0
C3517 C 0.17369 0.55623 0.29409 0.0
C3518 C 0.17003 0.55195 0.3265 0.0
C3519 C 0.13832 0.57866 0.34901 0.0
H3520 H 0.11704 0.53045 0.36427 0.0
C3521 C 0.06977 0.5639 0.37623 0.0
C3522 C 0.07132 0.56517 0.39597 0.0
C3523 C 0.08425 0.56136 0.36595 0.0
C3524 C 0.12309 0.54396 0.36018 0.0
H3525 H 0.1553 0.57137 0.28225 0.0
H3526 H 0.13947 0.57555 0.31047 0.0
H3527 H 0.14162 0.53134 0.34372 0.0
H3528 H 0.08931 0.56446 0.42033 0.0
H3529 H 0.114 0.55907 0.40207 0.0
H3530 H 0.11905 0.59092 0.3645 0.0
C3531 C 0.15077 0.56862 0.31075 0.0
C3532 C 0.13719 0.54456 0.34873 0.0
C3533 C 0.15969 0.56608 0.29456 0.0
C3534 C 0.08734 0.56297 0.40507 0.0
C3535 C 0.10159 0.56001 0.39474 0.0
C3536 C 0.12417 0.57798 0.36024 0.0
C3537 C 0.15566 0.56129 0.3267 0.0
C3538 C 0.14437 0.56176 0.34248 0.0
C3539 C 0.10022 0.55973 0.37529 0.0
C3540 C 0.11616 0.5605 0.36524 0.0
H3541 H 0.18989 0.54184 0.31015 0.0
H3542 H 0.17393 0.54617 0.33868 0.0
H3543 H 0.14387 0.5921 0.34451 0.0
H3544 H 0.05759 0.56535 0.36884 0.0
H3545 H 0.08323 0.56128 0.35083 0.0
C3546 C 0.79349 0.87473 0.59995 0.0
C3547 C 0.79881 0.86577 0.5829 0.0
C3548 C 0.78925 0.86434 0.61444 0.0
C3549 C 0.79678 0.82129 0.6324 0.0
H3550 H 0.75715 0.82928 0.6619 0.0
C3551 C 0.77732 0.77907 0.69205 0.0
C3552 C 0.77597 0.79081 0.70941 0.0
C3553 C 0.77776 0.78662 0.67537 0.0
C3554 C 0.76826 0.82694 0.65378 0.0
H3555 H 0.80384 0.83893 0.56759 0.0
H3556 H 0.79646 0.82076 0.59294 0.0
H3557 H 0.76294 0.84572 0.63505 0.0
H3558 H 0.77331 0.81923 0.72307 0.0
H3559 H 0.77374 0.83241 0.69382 0.0
H3560 H 0.8022 0.80266 0.65126 0.0
C3561 C 0.79568 0.83585 0.59516 0.0
C3562 C 0.77162 0.83639 0.63847 0.0
C3563 C 0.79984 0.84623 0.58062 0.0
C3564 C 0.77428 0.80992 0.70978 0.0
C3565 C 0.77446 0.8174 0.69307 0.0
C3566 C 0.79336 0.81178 0.64765 0.0
C3567 C 0.7903 0.84478 0.61221 0.0
C3568 C 0.78608 0.83388 0.62778 0.0
C3569 C 0.77666 0.80597 0.67579 0.0
C3570 C 0.77921 0.8147 0.65863 0.0
H3571 H 0.79249 0.88976 0.60206 0.0
H3572 H 0.78539 0.87171 0.62751 0.0
H3573 H 0.80816 0.81925 0.62462 0.0
H3574 H 0.7791 0.76442 0.69151 0.0
H3575 H 0.77941 0.77749 0.66223 0.0
C3576 C 0.75632 0.44607 0.52937 0.0
C3577 C 0.77164 0.45401 0.52129 0.0
C3578 C 0.74298 0.4564 0.53256 0.0
C3579 C 0.72327 0.49362 0.5181 0.0
H3580 H 0.7127 0.50502 0.57057 0.0
C3581 C 0.68552 0.55236 0.54561 0.0
C3582 C 0.67268 0.54774 0.55814 0.0
C3583 C 0.69673 0.5398 0.54019 0.0
C3584 C 0.71531 0.50168 0.55583 0.0
H3585 H 0.78509 0.47834 0.50957 0.0
H3586 H 0.76134 0.49636 0.5148 0.0
H3587 H 0.73372 0.48437 0.56195 0.0
H3588 H 0.66082 0.52667 0.57457 0.0
H3589 H 0.68072 0.5047 0.56537 0.0
H3590 H 0.70483 0.5109 0.51193 0.0
C3591 C 0.75979 0.48224 0.51872 0.0
C3592 C 0.7273 0.48996 0.55095 0.0
C3593 C 0.77331 0.47206 0.51585 0.0
C3594 C 0.67104 0.53056 0.56524 0.0
C3595 C 0.6823 0.51805 0.55992 0.0
C3596 C 0.71113 0.50524 0.52295 0.0
C3597 C 0.74474 0.47456 0.52737 0.0
C3598 C 0.73142 0.48604 0.53212 0.0
C3599 C 0.69518 0.52256 0.5473 0.0
C3600 C 0.70724 0.50951 0.54189 0.0
H3601 H 0.75492 0.43221 0.53381 0.0
H3602 H 0.73141 0.45036 0.53929 0.0
H3603 H 0.72629 0.49055 0.50347 0.0
H3604 H 0.68652 0.56537 0.53966 0.0
H3605 H 0.70665 0.5436 0.53052 0.0
C3606 C 0.23983 0.13779 0.4922 0.0
C3607 C 0.24332 0.15637 0.50349 0.0
C3608 C 0.22304 0.12547 0.49109 0.0
C3609 C 0.18394 0.11699 0.5185 0.0
H3610 H 0.15939 0.08555 0.47156 0.0
C3611 C 0.11004 0.08232 0.51328 0.0
C3612 C 0.10454 0.0624 0.50588 0.0
C3613 C 0.1272 0.09233 0.51156 0.0
C3614 C 0.16623 0.09405 0.48478 0.0
H3615 H 0.23189 0.17678 0.52214 0.0
H3616 H 0.20263 0.15528 0.52035 0.0
H3617 H 0.18887 0.10643 0.47124 0.0
H3618 H 0.11262 0.03795 0.48927 0.0
H3619 H 0.14283 0.05572 0.48601 0.0
H3620 H 0.16131 0.10495 0.53202 0.0
C3621 C 0.21288 0.15016 0.51241 0.0
C3622 C 0.18307 0.10603 0.48462 0.0
C3623 C 0.2296 0.16254 0.51335 0.0
C3624 C 0.11646 0.0531 0.49556 0.0
C3625 C 0.13374 0.0633 0.49359 0.0
C3626 C 0.16719 0.10512 0.51865 0.0
C3627 C 0.20945 0.13138 0.50146 0.0
C3628 C 0.19196 0.1179 0.50145 0.0
C3629 C 0.13939 0.08291 0.50207 0.0
C3630 C 0.15798 0.09379 0.50177 0.0
H3631 H 0.25014 0.13268 0.48435 0.0
H3632 H 0.22087 0.11111 0.48257 0.0
H3633 H 0.1906 0.12552 0.53179 0.0
H3634 H 0.10121 0.09031 0.52081 0.0
H3635 H 0.13099 0.10754 0.51783 0.0
C3636 C 0.19472 0.94618 0.7743 0.0
C3637 C 0.20182 0.96444 0.76964 0.0
C3638 C 0.20479 0.93133 0.77388 0.0
C3639 C 0.24784 0.91617 0.75614 0.0
H3640 H 0.23728 0.87756 0.78779 0.0
C3641 C 0.28384 0.84887 0.74863 0.0
C3642 C 0.28547 0.83871 0.76368 0.0
C3643 C 0.27461 0.86441 0.74986 0.0
C3644 C 0.24076 0.88816 0.77883 0.0
H3645 H 0.22589 0.98043 0.76067 0.0
H3646 H 0.24307 0.95512 0.75975 0.0
H3647 H 0.22013 0.90281 0.78889 0.0
H3648 H 0.27724 0.83729 0.7918 0.0
H3649 H 0.2616 0.86415 0.79421 0.0
H3650 H 0.26859 0.90172 0.74623 0.0
C3651 C 0.22957 0.95197 0.76375 0.0
C3652 C 0.23052 0.90286 0.7793 0.0
C3653 C 0.21957 0.96685 0.76439 0.0
C3654 C 0.2771 0.84491 0.78004 0.0
C3655 C 0.26768 0.86036 0.78124 0.0
C3656 C 0.258 0.90143 0.75559 0.0
C3657 C 0.2226 0.93367 0.76855 0.0
C3658 C 0.2337 0.91744 0.76799 0.0
C3659 C 0.2659 0.87054 0.76609 0.0
C3660 C 0.25487 0.88686 0.76692 0.0
H3661 H 0.18124 0.94332 0.77849 0.0
H3662 H 0.19835 0.9178 0.77757 0.0
H3663 H 0.25108 0.92652 0.74687 0.0
H3664 H 0.28936 0.8444 0.73545 0.0
H3665 H 0.27376 0.8711 0.73754 0.0
C3666 C 0.37381 0.952 1.0018 0.0
C3667 C 0.367 0.94612 0.01799 0.0
C3668 C 0.3902 0.96461 1.00341 0.0
C3669 C 0.43011 0.98943 0.03449 0.0
H3670 H 0.4271 0.02783 1.00295 0.0
C3671 C 0.49138 0.04039 0.02236 0.0
C3672 C 0.4959 0.02906 0.0061 0.0
C3673 C 0.47377 0.03842 0.0265 0.0
C3674 C 0.42784 0.01766 0.01236 0.0
H3675 H 0.37224 0.94631 0.04796 0.0
H3676 H 0.40095 0.96915 0.05101 0.0
H3677 H 0.40048 1.00377 0.00569 0.0
H3678 H 0.4857 0.00682 0.98162 0.0
H3679 H 0.45466 1.00434 0.988 0.0
H3680 H 0.45765 1.00303 0.04059 0.0
C3681 C 0.39373 0.96403 0.03712 0.0
C3682 C 0.41286 1.00367 0.01361 0.0
C3683 C 0.37744 0.95097 0.03539 0.0
C3684 C 0.48252 0.01655 0.99347 0.0
C3685 C 0.46481 0.01511 0.99723 0.0
C3686 C 0.44498 1.00374 0.03362 0.0
C3687 C 0.39954 0.97186 0.02135 0.0
C3688 C 0.41427 0.98871 0.02358 0.0
C3689 C 0.46055 0.02523 0.01427 0.0
C3690 C 0.44409 0.01704 0.02157 0.0
H3691 H 0.36592 0.94794 0.98821 0.0
H3692 H 0.39494 0.96976 0.99088 0.0
H3693 H 0.43144 0.97815 0.0424 0.0
H3694 H 0.50155 0.04951 0.03277 0.0
H3695 H 0.47068 0.04579 0.03999 0.0
C3696 C 0.89642 0.60563 0.80226 0.0
C3697 C 0.88908 0.58701 0.80531 0.0
C3698 C 0.88523 0.61725 0.79708 0.0
C3699 C 0.8434 0.60989 0.77004 0.0
H3700 H 0.84512 0.66442 0.78746 0.0
C3701 C 0.79135 0.64532 0.74096 0.0
C3702 C 0.79751 0.66316 0.73568 0.0
C3703 C 0.8026 0.63779 0.75195 0.0
C3704 C 0.84465 0.64923 0.78241 0.0
H3705 H 0.86464 0.56647 0.8073 0.0
H3706 H 0.8451 0.58689 0.79839 0.0
H3707 H 0.86511 0.64827 0.80353 0.0
H3708 H 0.81961 0.68771 0.73803 0.0
H3709 H 0.83979 0.67407 0.75675 0.0
H3710 H 0.82348 0.6107 0.74865 0.0
C3711 C 0.85941 0.59235 0.79971 0.0
C3712 C 0.85596 0.64007 0.79161 0.0
C3713 C 0.87055 0.58075 0.8048 0.0
C3714 C 0.8148 0.67379 0.74196 0.0
C3715 C 0.8262 0.6661 0.75272 0.0
C3716 C 0.83227 0.61902 0.76081 0.0
C3717 C 0.86671 0.61027 0.79503 0.0
C3718 C 0.85512 0.62029 0.78562 0.0
C3719 C 0.82025 0.64786 0.75746 0.0
C3720 C 0.83258 0.63867 0.7671 0.0
H3721 H 0.91072 0.61068 0.80259 0.0
H3722 H 0.89104 0.63103 0.7934 0.0
H3723 H 0.84297 0.59472 0.76487 0.0
H3724 H 0.77787 0.6372 0.73651 0.0
H3725 H 0.79758 0.62392 0.75586 0.0
C3726 C 0.8552 0.67489 0.02226 0.0
C3727 C 0.83989 0.66566 0.01008 0.0
C3728 C 0.86896 0.66517 0.0249 0.0
C3729 C 0.87602 0.61515 0.01983 0.0
H3730 H 0.92605 0.64022 0.03025 0.0
C3731 C 0.92958 0.5713 0.02766 0.0
C3732 C 0.94164 0.578 0.04384 0.0
C3733 C 0.91866 0.58307 0.02201 0.0
C3734 C 0.9121 0.63308 0.0274 0.0
H3735 H 0.82739 0.63968 0.99012 0.0
H3736 H 0.85165 0.62306 0.99398 0.0
H3737 H 0.90416 0.65898 0.02273 0.0
H3738 H 0.95253 0.60217 0.06647 0.0
H3739 H 0.93331 0.62293 0.05665 0.0
H3740 H 0.8839 0.58931 0.02444 0.0
C3741 C 0.85282 0.63746 1.00214 0.0
C3742 C 0.89956 0.64381 0.02315 0.0
C3743 C 0.83897 0.64701 0.9998 0.0
C3744 C 0.94321 0.59683 0.05395 0.0
C3745 C 0.93233 0.60867 0.04827 0.0
C3746 C 0.88852 0.60445 0.02387 0.0
C3747 C 0.86774 0.64615 0.01516 0.0
C3748 C 0.88135 0.63494 0.01929 0.0
C3749 C 0.91967 0.60173 0.03248 0.0
C3750 C 0.90668 0.61327 0.02769 0.0
H3751 H 0.85618 0.68925 0.03041 0.0
H3752 H 0.88016 0.67227 0.03514 0.0
H3753 H 0.86209 0.60791 0.0175 0.0
H3754 H 0.92833 0.55682 0.01966 0.0
H3755 H 0.9092 0.57746 0.00964 0.0
C3756 C 0.19352 0.08693 0.77988 0.0
C3757 C 0.20245 0.07169 0.78075 0.0
C3758 C 0.20297 0.10616 0.78074 0.0
C3759 C 0.2486 0.13967 0.79405 0.0
H3760 H 0.22874 0.17228 0.76486 0.0
C3761 C 0.28887 0.21789 0.78923 0.0
C3762 C 0.27972 0.23214 0.7852 0.0
C3763 C 0.27981 0.19856 0.78902 0.0
C3764 C 0.23455 0.16371 0.77346 0.0
H3765 H 0.22877 0.06538 0.78338 0.0
H3766 H 0.2452 0.09866 0.78492 0.0
H3767 H 0.21279 0.13935 0.7641 0.0
H3768 H 0.25311 0.2365 0.77858 0.0
H3769 H 0.2375 0.20375 0.77895 0.0
H3770 H 0.27028 0.16406 0.80361 0.0
C3771 C 0.23077 0.09584 0.78369 0.0
C3772 C 0.22525 0.14448 0.77296 0.0
C3773 C 0.22128 0.07655 0.78271 0.0
C3774 C 0.26097 0.22624 0.78155 0.0
C3775 C 0.25188 0.20706 0.78156 0.0
C3776 C 0.25786 0.15898 0.79469 0.0
C3777 C 0.22185 0.11113 0.7826 0.0
C3778 C 0.23202 0.13195 0.78323 0.0
C3779 C 0.26104 0.19257 0.78504 0.0
C3780 C 0.25109 0.17157 0.78441 0.0
H3781 H 0.17907 0.08399 0.77839 0.0
H3782 H 0.19535 0.11722 0.78014 0.0
H3783 H 0.25439 0.13088 0.80244 0.0
H3784 H 0.30313 0.22153 0.79242 0.0
H3785 H 0.28773 0.18827 0.79168 0.0
C3786 C 0.37935 0.98986 0.31782 0.0
C3787 C 0.39475 0.99211 0.30803 0.0
C3788 C 0.36752 0.97205 0.31495 0.0
C3789 C 0.36378 0.92097 0.29619 0.0
H3790 H 0.31428 0.92049 0.28123 0.0
C3791 C 0.32471 0.85133 0.26942 0.0
C3792 C 0.31228 0.84675 0.28246 0.0
C3793 C 0.32905 0.87 0.26603 0.0
C3794 C 0.32809 0.92057 0.28526 0.0
H3795 H 0.41062 0.97763 0.2886 0.0
H3796 H 0.38992 0.94663 0.28344 0.0
H3797 H 0.33529 0.95142 0.29306 0.0
H3798 H 0.29111 0.85628 0.29733 0.0
H3799 H 0.30156 0.89021 0.29525 0.0
H3800 H 0.35697 0.89048 0.28871 0.0
C3801 C 0.38701 0.95848 0.2934 0.0
C3802 C 0.33997 0.93808 0.29224 0.0
C3803 C 0.39883 0.97619 0.29634 0.0
C3804 C 0.30215 0.86017 0.28927 0.0
C3805 C 0.30752 0.87932 0.2872 0.0
C3806 C 0.35206 0.90367 0.28921 0.0
C3807 C 0.37108 0.95646 0.3023 0.0
C3808 C 0.35794 0.93828 0.29738 0.0
C3809 C 0.32228 0.88448 0.27706 0.0
C3810 C 0.33426 0.90334 0.28326 0.0
H3811 H 0.37608 1.00202 0.32705 0.0
H3812 H 0.35542 0.97059 0.32217 0.0
H3813 H 0.37749 0.92082 0.30046 0.0
H3814 H 0.33197 0.84096 0.26275 0.0
H3815 H 0.33989 0.87368 0.25734 0.0
C3816 C 0.5894 0.37955 0.60362 0.0
C3817 C 0.58107 0.36091 0.59397 0.0
C3818 C 0.58752 0.39605 0.59631 0.0
C3819 C 0.55919 0.41349 0.56126 0.0
H3820 H 0.59765 0.45887 0.57243 0.0
C3821 C 0.56193 0.4882 0.53404 0.0
C3822 C 0.56492 0.50398 0.54929 0.0
C3823 C 0.56307 0.46953 0.53721 0.0
C3824 C 0.5868 0.44629 0.56909 0.0
H3825 H 0.56417 0.34519 0.56885 0.0
H3826 H 0.56111 0.37388 0.55589 0.0
H3827 H 0.60172 0.42904 0.5821 0.0
H3828 H 0.57159 0.51227 0.57973 0.0
H3829 H 0.57449 0.48053 0.58488 0.0
H3830 H 0.54443 0.43111 0.54805 0.0
C3831 C 0.56898 0.37584 0.5693 0.0
C3832 C 0.58903 0.42914 0.57484 0.0
C3833 C 0.57088 0.35928 0.57665 0.0
C3834 C 0.56917 0.50058 0.56758 0.0
C3835 C 0.57085 0.48231 0.5706 0.0
C3836 C 0.55705 0.43067 0.55525 0.0
C3837 C 0.57725 0.39457 0.57901 0.0
C3838 C 0.57515 0.41249 0.57143 0.0
C3839 C 0.56795 0.46652 0.55554 0.0
C3840 C 0.57073 0.4474 0.55943 0.0
H3841 H 0.59726 0.38145 0.61704 0.0
H3842 H 0.59387 0.41005 0.60455 0.0
H3843 H 0.54805 0.4012 0.55846 0.0
H3844 H 0.55895 0.49031 0.51974 0.0
H3845 H 0.56075 0.45762 0.52528 0.0
C3846 C 0.45983 0.75996 0.38095 0.0
C3847 C 0.46576 0.76887 0.39985 0.0
C3848 C 0.44369 0.76236 0.37227 0.0
C3849 C 0.41132 0.79519 0.37545 0.0
H3850 H 0.37861 0.75122 0.34499 0.0
C3851 C 0.34098 0.80217 0.34461 0.0
C3852 C 0.33334 0.79019 0.32731 0.0
C3853 C 0.35682 0.79955 0.35383 0.0
C3854 C 0.3876 0.76387 0.35311 0.0
H3855 H 0.45924 0.78758 0.42426 0.0
H3856 H 0.4315 0.79209 0.40912 0.0
H3857 H 0.40663 0.74702 0.35925 0.0
H3858 H 0.33625 0.76522 0.30706 0.0
H3859 H 0.36382 0.76142 0.32208 0.0
H3860 H 0.39263 0.81221 0.36896 0.0
C3861 C 0.43921 0.78309 0.40096 0.0
C3862 C 0.4038 0.76136 0.36144 0.0
C3863 C 0.45512 0.78037 0.40973 0.0
C3864 C 0.34181 0.77519 0.31997 0.0
C3865 C 0.35767 0.77274 0.32895 0.0
C3866 C 0.39523 0.79778 0.36688 0.0
C3867 C 0.43315 0.77411 0.38209 0.0
C3868 C 0.41594 0.77694 0.37282 0.0
C3869 C 0.36564 0.78488 0.34607 0.0
C3870 C 0.38295 0.78217 0.35554 0.0
H3871 H 0.46763 0.75103 0.37286 0.0
H3872 H 0.43961 0.75526 0.35771 0.0
H3873 H 0.42034 0.80764 0.3839 0.0
H3874 H 0.33494 0.81385 0.35088 0.0
H3875 H 0.36207 0.80909 0.36712 0.0
C3876 C 0.06526 0.73928 0.10532 0.0
C3877 C 0.07321 0.75278 0.09458 0.0
C3878 C 0.0626 0.71942 0.09851 0.0
C3879 C 0.07665 0.68224 0.0627 0.0
H3880 H 0.03634 0.64911 0.07913 0.0
C3881 C 0.05501 0.59658 0.04121 0.0
C3882 C 0.05255 0.58747 0.05705 0.0
C3883 C 0.05832 0.61691 0.04347 0.0
C3884 C 0.04766 0.65815 0.07439 0.0
H3885 H 0.08454 0.75576 0.06799 0.0
H3886 H 0.0795 0.72086 0.05576 0.0
H3887 H 0.03965 0.68396 0.08663 0.0
H3888 H 0.05165 0.5925 0.08752 0.0
H3889 H 0.05689 0.62758 0.09137 0.0
H3890 H 0.08429 0.65593 0.05015 0.0
C3891 C 0.07557 0.72572 0.0697 0.0
C3892 C 0.04969 0.67823 0.07883 0.0
C3893 C 0.07837 0.74578 0.07665 0.0
C3894 C 0.05362 0.59907 0.07507 0.0
C3895 C 0.05655 0.61918 0.07728 0.0
C3896 C 0.07443 0.66199 0.05798 0.0
C3897 C 0.06757 0.7122 0.08054 0.0
C3898 C 0.06451 0.69069 0.07362 0.0
C3899 C 0.05866 0.62838 0.06153 0.0
C3900 C 0.06017 0.64975 0.06425 0.0
H3901 H 0.06122 0.74404 0.11924 0.0
H3902 H 0.05687 0.70971 0.10763 0.0
H3903 H 0.08825 0.69121 0.05842 0.0
H3904 H 0.05385 0.58805 0.02708 0.0
H3905 H 0.05983 0.62359 0.03106 0.0
C3906 C 0.08175 0.28426 0.91095 0.0
C3907 C 0.06592 0.27222 0.90144 0.0
C3908 C 0.09807 0.28531 0.90275 0.0
C3909 C 0.12091 0.25934 0.86473 0.0
H3910 H 0.15362 0.30896 0.87026 0.0
C3911 C 0.17876 0.27303 0.81645 0.0
C3912 C 0.19445 0.28687 0.82332 0.0
C3913 C 0.16445 0.26983 0.82771 0.0
C3914 C 0.14486 0.29488 0.86878 0.0
H3915 H 0.05506 0.25169 0.87579 0.0
H3916 H 0.08336 0.25358 0.86144 0.0
H3917 H 0.12616 0.30642 0.88603 0.0
H3918 H 0.20753 0.30795 0.8477 0.0
H3919 H 0.18269 0.30219 0.86763 0.0
H3920 H 0.13952 0.24781 0.84736 0.0
C3921 C 0.08327 0.26213 0.87536 0.0
C3922 C 0.12897 0.29342 0.87786 0.0
C3923 C 0.06693 0.26114 0.88354 0.0
C3924 C 0.19574 0.29695 0.84209 0.0
C3925 C 0.18134 0.29383 0.8534 0.0
C3926 C 0.13681 0.26078 0.85569 0.0
C3927 C 0.09914 0.27429 0.88478 0.0
C3928 C 0.11658 0.27567 0.87579 0.0
C3929 C 0.16524 0.28054 0.84622 0.0
C3930 C 0.14898 0.27864 0.85731 0.0
H3931 H 0.08154 0.29295 0.92479 0.0
H3932 H 0.10992 0.29465 0.91065 0.0
H3933 H 0.11201 0.24531 0.86307 0.0
H3934 H 0.17724 0.26528 0.80194 0.0
H3935 H 0.15237 0.25965 0.82144 0.0
C3936 C 0.59911 0.75437 0.91797 0.0
C3937 C 0.59617 0.77226 0.92698 0.0
C3938 C 0.595 0.73824 0.92652 0.0
C3939 C 0.5642 0.72001 0.95873 0.0
H3940 H 0.5945 0.68385 0.96495 0.0
C3941 C 0.55127 0.66965 0.01108 0.0
C3942 C 0.54867 0.6499 1.00352 0.0
C3943 C 0.5586 0.6833 1.00052 0.0
C3944 C 0.58592 0.69378 0.96306 0.0
H3945 H 0.58755 0.78778 0.9522 0.0
H3946 H 0.58036 0.75955 0.9672 0.0
H3947 H 0.60499 0.71092 0.94865 0.0
H3948 H 0.55223 0.62891 0.97908 0.0
H3949 H 0.56552 0.65303 0.96087 0.0
H3950 H 0.54532 0.70327 0.97339 0.0
C3951 C 0.5857 0.75799 0.95349 0.0
C3952 C 0.59187 0.70915 0.95381 0.0
C3953 C 0.58992 0.77411 0.94501 0.0
C3954 C 0.55422 0.64405 0.98543 0.0
C3955 C 0.56179 0.65776 0.97496 0.0
C3956 C 0.55834 0.7048 0.96797 0.0
C3957 C 0.58777 0.73988 0.94407 0.0
C3958 C 0.58121 0.72264 0.95213 0.0
C3959 C 0.56361 0.67742 0.98232 0.0
C3960 C 0.56934 0.69195 0.97066 0.0
H3961 H 0.60403 0.75269 0.90405 0.0
H3962 H 0.59667 0.72438 0.91906 0.0
H3963 H 0.55557 0.72994 0.95705 0.0
H3964 H 0.54754 0.67458 0.02511 0.0
H3965 H 0.56014 0.69851 0.00645 0.0
C3966 C 0.06658 0.75847 0.67552 0.0
C3967 C 0.05816 0.77327 0.68308 0.0
C3968 C 0.08437 0.75941 0.68118 0.0
C3969 C 0.11882 0.78332 0.72016 0.0
H3970 H 0.14912 0.7586 0.68693 0.0
C3971 C 0.19005 0.78078 0.7448 0.0
C3972 C 0.19157 0.76165 0.74501 0.0
C3973 C 0.17575 0.78447 0.73437 0.0
C3974 C 0.14079 0.7657 0.69622 0.0
H3975 H 0.06149 0.80094 0.70183 0.0
H3976 H 0.09295 0.80317 0.71112 0.0
H3977 H 0.11996 0.76184 0.67412 0.0
H3978 H 0.18021 0.73148 0.73377 0.0
H3979 H 0.15498 0.738 0.71539 0.0
H3980 H 0.13979 0.78731 0.74215 0.0
C3981 C 0.08573 0.79048 0.70135 0.0
C3982 C 0.12409 0.76742 0.68901 0.0
C3983 C 0.06778 0.78928 0.69603 0.0
C3984 C 0.17905 0.7463 0.73403 0.0
C3985 C 0.16486 0.75002 0.72336 0.0
C3986 C 0.13564 0.782 0.72721 0.0
C3987 C 0.09416 0.77542 0.69417 0.0
C3988 C 0.11273 0.77577 0.70105 0.0
C3989 C 0.16297 0.76911 0.72383 0.0
C3990 C 0.1465 0.77278 0.71541 0.0
H3991 H 0.05929 0.7459 0.66559 0.0
H3992 H 0.09025 0.74732 0.67573 0.0
H3993 H 0.11035 0.78948 0.72995 0.0
H3994 H 0.19969 0.79284 0.75308 0.0
H3995 H 0.17442 0.79928 0.73488 0.0
C3996 C 0.11392 0.38438 0.43391 0.0
C3997 C 0.10762 0.3757 0.41517 0.0
C3998 C 0.11107 0.40263 0.44126 0.0
C3999 C 0.09506 0.44454 0.42796 0.0
H4000 H 0.07906 0.44878 0.47853 0.0
C4001 C 0.05487 0.49998 0.46082 0.0
C4002 C 0.06145 0.50971 0.47925 0.0
C4003 C 0.06208 0.48472 0.45221 0.0
C4004 C 0.08362 0.44777 0.46444 0.0
H4005 H 0.09411 0.37929 0.3891 0.0
H4006 H 0.08844 0.41058 0.40209 0.0
H4007 H 0.09008 0.42042 0.46513 0.0
H4008 H 0.08171 0.51232 0.50243 0.0
H4009 H 0.09383 0.4854 0.4876 0.0
H4010 H 0.08774 0.47165 0.42716 0.0
C4011 C 0.09606 0.40379 0.41101 0.0
C4012 C 0.09009 0.43168 0.45684 0.0
C4013 C 0.09925 0.38579 0.40359 0.0
C4014 C 0.0759 0.50464 0.48851 0.0
C4015 C 0.08293 0.48934 0.48002 0.0
C4016 C 0.08832 0.46052 0.43549 0.0
C4017 C 0.10155 0.41218 0.43005 0.0
C4018 C 0.0959 0.42992 0.43852 0.0
C4019 C 0.07588 0.47911 0.46199 0.0
C4020 C 0.08264 0.4622 0.45378 0.0
H4021 H 0.1205 0.37682 0.44302 0.0
H4022 H 0.11578 0.40897 0.45588 0.0
H4023 H 0.09958 0.44365 0.41387 0.0
H4024 H 0.04391 0.50376 0.45326 0.0
H4025 H 0.05652 0.47691 0.43822 0.0
C4026 C 0.45755 0.2695 0.21327 0.0
C4027 C 0.45863 0.27083 0.1941 0.0
C4028 C 0.44111 0.26783 0.2209 0.0
C4029 C 0.39641 0.27712 0.21221 0.0
H4030 H 0.38187 0.23945 0.24427 0.0
C4031 C 0.32404 0.25206 0.22635 0.0
C4032 C 0.3207 0.25253 0.24534 0.0
C4033 C 0.34147 0.25484 0.2214 0.0
C4034 C 0.38592 0.25018 0.23554 0.0
H4035 H 0.44354 0.27116 0.16774 0.0
H4036 H 0.41496 0.26804 0.18098 0.0
H4037 H 0.41167 0.24338 0.233 0.0
H4038 H 0.33215 0.25478 0.27401 0.0
H4039 H 0.3631 0.25982 0.26534 0.0
H4040 H 0.37047 0.28337 0.21408 0.0
C4041 C 0.42677 0.26871 0.19024 0.0
C4042 C 0.4029 0.25245 0.22914 0.0
C4043 C 0.44312 0.27046 0.18266 0.0
C4044 C 0.33474 0.25482 0.25933 0.0
C4045 C 0.35226 0.25757 0.25438 0.0
C4046 C 0.37944 0.27472 0.21843 0.0
C4047 C 0.42561 0.26748 0.20943 0.0
C4048 C 0.40818 0.26581 0.21726 0.0
C4049 C 0.35569 0.25779 0.2354 0.0
C4050 C 0.37404 0.26113 0.22999 0.0
H4051 H 0.46933 0.26954 0.22227 0.0
H4052 H 0.44052 0.26694 0.23577 0.0
H4053 H 0.40028 0.28773 0.2033 0.0
H4054 H 0.31316 0.24978 0.2154 0.0
H4055 H 0.34385 0.25464 0.20664 0.0
C4056 C 0.65528 0.51372 0.34525 0.0
C4057 C 0.64633 0.51558 0.3281 0.0
C4058 C 0.64744 0.51561 0.36291 0.0
C4059 C 0.60856 0.53316 0.38807 0.0
H4060 H 0.62353 0.50795 0.42778 0.0
C4061 C 0.57225 0.53315 0.45983 0.0
C4062 C 0.58204 0.53341 0.47719 0.0
C4063 C 0.57989 0.53115 0.44207 0.0
C4064 C 0.61916 0.51538 0.41709 0.0
H4065 H 0.62149 0.52122 0.31718 0.0
H4066 H 0.60802 0.52464 0.34745 0.0
H4067 H 0.63639 0.50411 0.39738 0.0
H4068 H 0.6082 0.53168 0.48851 0.0
H4069 H 0.62122 0.52748 0.45791 0.0
H4070 H 0.59117 0.54424 0.40781 0.0
C4071 C 0.62128 0.52169 0.34744 0.0
C4072 C 0.62672 0.51317 0.39927 0.0
C4073 C 0.62906 0.51955 0.32971 0.0
C4074 C 0.59994 0.53146 0.47575 0.0
C4075 C 0.60747 0.52896 0.45791 0.0
C4076 C 0.60093 0.53528 0.40586 0.0
C4077 C 0.63019 0.51975 0.36468 0.0
C4078 C 0.62174 0.52202 0.38412 0.0
C4079 C 0.59773 0.52886 0.44047 0.0
C4080 C 0.60601 0.5265 0.421 0.0
H4081 H 0.66853 0.5107 0.34506 0.0
H4082 H 0.65526 0.51413 0.37533 0.0
H4083 H 0.6042 0.54068 0.37746 0.0
H4084 H 0.55864 0.53502 0.45995 0.0
H4085 H 0.57156 0.53118 0.42945 0.0
C4086 C 0.31818 0.91979 0.08443 0.0
C4087 C 0.30711 0.90907 0.06843 0.0
C4088 C 0.31816 0.91281 0.10132 0.0
C4089 C 0.30822 0.86708 0.11778 0.0
H4090 H 0.31236 0.89922 0.16775 0.0
C4091 C 0.30578 0.83285 0.18199 0.0
C4092 C 0.32257 0.83782 0.19231 0.0
C4093 C 0.30118 0.84463 0.16997 0.0
C4094 C 0.31108 0.8902 0.15382 0.0
H4095 H 0.28695 0.8832 0.05744 0.0
H4096 H 0.28654 0.8712 0.08716 0.0
H4097 H 0.30953 0.9136 0.13936 0.0
H4098 H 0.34689 0.85973 0.20012 0.0
H4099 H 0.33884 0.88044 0.17864 0.0
H4100 H 0.3098 0.84376 0.1321 0.0
C4101 C 0.29545 0.88478 0.08656 0.0
C4102 C 0.30959 0.89835 0.13769 0.0
C4103 C 0.2956 0.89166 0.06963 0.0
C4104 C 0.33406 0.85552 0.19183 0.0
C4105 C 0.32937 0.86743 0.17989 0.0
C4106 C 0.30946 0.85896 0.1338 0.0
C4107 C 0.30697 0.89512 0.1024 0.0
C4108 C 0.30811 0.88678 0.11957 0.0
C4109 C 0.31328 0.86152 0.16829 0.0
C4110 C 0.31084 0.87044 0.15185 0.0
H4111 H 0.32726 0.93325 0.08377 0.0
H4112 H 0.32734 0.9209 0.11326 0.0
H4113 H 0.30769 0.858 0.104 0.0
H4114 H 0.29668 0.81931 0.18239 0.0
H4115 H 0.28871 0.83993 0.16104 0.0
C4116 C 0.96097 0.53291 0.8496 0.0
C4117 C 0.9515 0.54777 0.85104 0.0
C4118 C 0.96737 0.52766 0.86586 0.0
C4119 C 0.96588 0.53374 0.91734 0.0
H4120 H 0.01709 0.53842 0.91697 0.0
C4121 C 0.01295 0.55661 0.9845 0.0
C4122 C 0.02658 0.54652 0.98594 0.0
C4123 C 1.00264 0.55373 0.96744 0.0
C4124 C 1.00277 0.53665 0.91719 0.0
H4125 H 0.94068 0.56847 0.87014 0.0
H4126 H 0.95295 0.56006 0.89882 0.0
H4127 H 0.99931 0.53646 0.88763 0.0
H4128 H 0.04002 0.52517 0.97168 0.0
H4129 H 0.02221 0.52027 0.9416 0.0
H4130 H 0.9696 0.53466 0.94719 0.0
C4131 C 0.9549 0.55211 0.88513 0.0
C4132 C 0.9926 0.53543 0.90043 0.0
C4133 C 0.94829 0.55721 0.86884 0.0
C4134 C 0.03018 0.53383 0.97035 0.0
C4135 C 0.01978 0.53077 0.95336 0.0
C4136 C 0.97609 0.53485 0.93416 0.0
C4137 C 0.96463 0.53745 0.88366 0.0
C4138 C 0.97423 0.53458 0.90054 0.0
C4139 C 0.00578 0.54045 0.95194 0.0
C4140 C 0.99465 0.53692 0.93418 0.0
H4141 H 0.96307 0.52503 0.83594 0.0
H4142 H 0.9748 0.51624 0.86457 0.0
H4143 H 0.95165 0.53298 0.91754 0.0
H4144 H 0.00983 0.56602 0.99677 0.0
H4145 H 0.99205 0.56155 0.96646 0.0
C4146 C 0.29694 0.23908 0.57237 0.0
C4147 C 0.29863 0.21984 0.56678 0.0
C4148 C 0.29759 0.24727 0.59174 0.0
C4149 C 0.31177 0.23913 0.63998 0.0
H4150 H 0.27975 0.27224 0.65816 0.0
C4151 C 0.296 0.24933 0.71709 0.0
C4152 C 0.29839 0.26827 0.72736 0.0
C4153 C 0.29563 0.24573 0.69737 0.0
C4154 C 0.2889 0.26319 0.65325 0.0
H4155 H 0.30232 0.19417 0.57726 0.0
H4156 H 0.3031 0.20807 0.61049 0.0
H4157 H 0.28055 0.26168 0.6239 0.0
H4158 H 0.30181 0.29836 0.72485 0.0
H4159 H 0.30065 0.29196 0.68984 0.0
H4160 H 0.31965 0.24003 0.66921 0.0
C4161 C 0.30165 0.21715 0.60016 0.0
C4162 C 0.28942 0.25715 0.63361 0.0
C4163 C 0.30105 0.20906 0.58097 0.0
C4164 C 0.29962 0.28359 0.71729 0.0
C4165 C 0.29907 0.27992 0.69731 0.0
C4166 C 0.31111 0.24496 0.65947 0.0
C4167 C 0.29999 0.23639 0.60594 0.0
C4168 C 0.30058 0.24464 0.6267 0.0
C4169 C 0.29766 0.26096 0.68722 0.0
C4170 C 0.29942 0.25672 0.66639 0.0
H4171 H 0.29507 0.24778 0.56181 0.0
H4172 H 0.29639 0.26216 0.59558 0.0
H4173 H 0.32096 0.23002 0.63534 0.0
H4174 H 0.29508 0.23724 0.72446 0.0
H4175 H 0.29423 0.23096 0.69005 0.0
C4176 C 0.65126 0.52675 0.20798 0.0
C4177 C 0.6446 0.51179 0.21796 0.0
C4178 C 0.64263 0.52868 0.19052 0.0
C4179 C 0.60862 0.50156 0.14873 0.0
H4180 H 0.61033 0.55239 0.1366 0.0
C4181 C 0.58806 0.51341 0.071 0.0
C4182 C 0.57861 0.528 0.06807 0.0
C4183 C 0.59454 0.51119 0.08926 0.0
C4184 C 0.60954 0.53799 0.13959 0.0
H4185 H 0.62295 0.48694 0.21615 0.0
H4186 H 0.60824 0.48992 0.18581 0.0
H4187 H 0.62432 0.54904 0.16703 0.0
H4188 H 0.56809 0.55072 0.0843 0.0
H4189 H 0.58079 0.5483 0.11564 0.0
H4190 H 0.59419 0.49053 0.12108 0.0
C4191 C 0.62029 0.50043 0.19158 0.0
C4192 C 0.61784 0.536 0.15726 0.0
C4193 C 0.62879 0.4987 0.20928 0.0
C4194 C 0.57577 0.53993 0.08501 0.0
C4195 C 0.58302 0.53829 0.10338 0.0
C4196 C 0.60067 0.50354 0.13089 0.0
C4197 C 0.62688 0.51557 0.18167 0.0
C4198 C 0.61764 0.51772 0.16244 0.0
C4199 C 0.59268 0.52384 0.10603 0.0
C4200 C 0.60085 0.52181 0.12576 0.0
H4201 H 0.66329 0.53729 0.2138 0.0
H4202 H 0.64861 0.54048 0.18377 0.0
H4203 H 0.60797 0.48713 0.15155 0.0
H4204 H 0.59073 0.50346 0.05895 0.0
H4205 H 0.60166 0.49974 0.0901 0.0
C4206 C 0.32196 0.87594 0.96799 0.0
C4207 C 0.31507 0.89246 0.96728 0.0
C4208 C 0.32822 0.8667 0.95196 0.0
C4209 C 0.34007 0.87183 0.90349 0.0
H4210 H 0.32108 0.81649 0.89277 0.0
C4211 C 0.33878 0.82237 0.83054 0.0
C4212 C 0.32089 0.814 0.82369 0.0
C4213 C 0.34307 0.83127 0.84945 0.0
C4214 C 0.3268 0.83187 0.89578 0.0
H4215 H 0.30932 0.91251 0.94956 0.0
H4216 H 0.31919 0.89558 0.92108 0.0
H4217 H 0.31939 0.83472 0.92402 0.0
H4218 H 0.29363 0.80923 0.83126 0.0
H4219 H 0.30121 0.82348 0.86434 0.0
H4220 H 0.34597 0.86891 0.87446 0.0
C4221 C 0.32037 0.89016 0.93417 0.0
C4222 C 0.32594 0.84231 0.91365 0.0
C4223 C 0.31437 0.89959 0.95032 0.0
C4224 C 0.3075 0.81461 0.83611 0.0
C4225 C 0.31184 0.82298 0.85505 0.0
C4226 C 0.34086 0.86132 0.8855 0.0
C4227 C 0.32734 0.87363 0.93489 0.0
C4228 C 0.33185 0.86247 0.91741 0.0
C4229 C 0.3296 0.83143 0.86177 0.0
C4230 C 0.33346 0.84145 0.88143 0.0
H4231 H 0.32305 0.87049 0.98108 0.0
H4232 H 0.33371 0.85411 0.95292 0.0
H4233 H 0.34498 0.88735 0.90619 0.0
H4234 H 0.34944 0.8225 0.82127 0.0
H4235 H 0.35681 0.83804 0.85444 0.0
C4236 C 0.94771 0.56618 0.74726 0.0
C4237 C 0.93583 0.54993 0.75076 0.0
C4238 C 0.95323 0.56657 0.7292 0.0
C4239 C 0.94465 0.54036 0.67923 0.0
H4240 H 0.99548 0.56005 0.67908 0.0
C4241 C 0.99099 0.51568 0.62403 0.0
C4242 C 1.00322 0.53037 0.61826 0.0
C4243 C 0.97942 0.52042 0.63747 0.0
C4244 C 0.98121 0.55484 0.6789 0.0
H4245 H 0.92018 0.52143 0.73856 0.0
H4246 H 0.9306 0.52159 0.70721 0.0
H4247 H 0.98176 0.56417 0.70865 0.0
H4248 H 0.01265 0.56131 0.62094 0.0
H4249 H 0.99276 0.5696 0.64503 0.0
H4250 H 0.9447 0.5297 0.64947 0.0
C4251 C 0.93512 0.53436 0.71808 0.0
C4252 C 0.97331 0.55727 0.69579 0.0
C4253 C 0.92931 0.53416 0.73604 0.0
C4254 C 1.00335 0.54981 0.62542 0.0
C4255 C 0.99198 0.55454 0.63899 0.0
C4256 C 0.95268 0.53761 0.66232 0.0
C4257 C 0.94729 0.55049 0.71455 0.0
C4258 C 0.95501 0.5498 0.69619 0.0
C4259 C 0.98024 0.53986 0.64535 0.0
C4260 C 0.97104 0.54465 0.6622 0.0
H4261 H 0.95272 0.57856 0.75845 0.0
H4262 H 0.96238 0.57933 0.7268 0.0
H4263 H 0.93047 0.5347 0.6791 0.0
H4264 H 0.99056 0.50062 0.61831 0.0
H4265 H 0.97051 0.50894 0.64242 0.0
C4266 C 0.30412 0.22788 0.45475 0.0
C4267 C 0.29671 0.20901 0.45721 0.0
C4268 C 0.30436 0.2325 0.43648 0.0
C4269 C 0.282 0.2154 0.38769 0.0
H4270 H 0.32472 0.24504 0.37194 0.0
C4271 C 0.28635 0.22326 0.30919 0.0
C4272 C 0.29492 0.24133 0.30556 0.0
C4273 C 0.28762 0.21905 0.32756 0.0
C4274 C 0.31254 0.23695 0.37607 0.0
H4275 H 0.28387 0.18022 0.44238 0.0
H4276 H 0.28429 0.18822 0.41091 0.0
H4277 H 0.32413 0.23975 0.40453 0.0
H4278 H 0.31427 0.26737 0.31792 0.0
H4279 H 0.31539 0.26102 0.34972 0.0
H4280 H 0.27018 0.21288 0.35953 0.0
C4281 C 0.28974 0.19955 0.42297 0.0
C4282 C 0.31225 0.23392 0.39485 0.0
C4283 C 0.2896 0.19494 0.44107 0.0
C4284 C 0.30635 0.25403 0.32032 0.0
C4285 C 0.30737 0.25007 0.33867 0.0
C4286 C 0.2822 0.2186 0.36901 0.0
C4287 C 0.29705 0.21837 0.42037 0.0
C4288 C 0.29705 0.22289 0.40083 0.0
C4289 C 0.29761 0.23274 0.34277 0.0
C4290 C 0.29753 0.22925 0.3628 0.0
H4291 H 0.30975 0.23903 0.46689 0.0
H4292 H 0.31004 0.24717 0.43498 0.0
H4293 H 0.26995 0.2071 0.39189 0.0
H4294 H 0.27816 0.21257 0.29806 0.0
H4295 H 0.28051 0.20514 0.32985 0.0
C4296 C 0.34587 0.63479 0.52378 0.0
C4297 C 0.33046 0.62217 0.52733 0.0
C4298 C 0.36246 0.63023 0.52618 0.0
C4299 C 0.38638 0.59959 0.54887 0.0
H4300 H 0.41481 0.60146 0.5059 0.0
C4301 C 0.43225 0.54856 0.52678 0.0
C4302 C 0.44801 0.55549 0.51892 0.0
C4303 C 0.42098 0.56093 0.53255 0.0
C4304 C 0.4073 0.60136 0.51825 0.0
H4305 H 0.32005 0.59506 0.53624 0.0
H4306 H 0.34924 0.58682 0.54013 0.0
H4307 H 0.38826 0.61498 0.50641 0.0
H4308 H 0.4649 0.58074 0.51152 0.0
H4309 H 0.44498 0.60239 0.52146 0.0
H4310 H 0.40501 0.58498 0.56018 0.0
C4311 C 0.34845 0.60036 0.53577 0.0
C4312 C 0.39209 0.60902 0.5185 0.0
C4313 C 0.33179 0.6049 0.53329 0.0
C4314 C 0.45273 0.5751 0.51753 0.0
C4315 C 0.44143 0.58745 0.52322 0.0
C4316 C 0.40162 0.59188 0.54861 0.0
C4317 C 0.36386 0.61302 0.53221 0.0
C4318 C 0.38122 0.6076 0.5335 0.0
C4319 C 0.4253 0.58034 0.53039 0.0
C4320 C 0.4118 0.59213 0.53297 0.0
H4321 H 0.34514 0.64825 0.5192 0.0
H4322 H 0.37419 0.64018 0.52337 0.0
H4323 H 0.37829 0.59868 0.56072 0.0
H4324 H 0.42858 0.53355 0.52825 0.0
H4325 H 0.40847 0.55508 0.53781 0.0
C4326 C 0.87481 0.92092 0.54877 0.0
C4327 C 0.86031 0.9282 0.5425 0.0
C4328 C 0.89239 0.93057 0.54766 0.0
C4329 C 0.91888 0.96576 0.5222 0.0
H4330 H 0.95587 0.97027 0.56258 0.0
C4331 C 0.98886 0.01465 0.52393 0.0
C4332 C 0.00374 0.00777 0.52984 0.0
C4333 C 0.97151 1.00482 0.52569 0.0
C4334 C 0.94576 0.96896 0.55107 0.0
H4335 H 0.85291 0.95143 0.53033 0.0
H4336 H 0.88348 0.96832 0.52851 0.0
H4337 H 0.92546 0.95348 0.56542 0.0
H4338 H 0.01196 0.98496 0.54208 0.0
H4339 H 0.98172 0.96774 0.54501 0.0
H4340 H 0.93913 0.9812 0.50783 0.0
C4341 C 0.88133 0.95505 0.53412 0.0
C4342 C 0.92829 0.95932 0.5527 0.0
C4343 C 0.86378 0.94547 0.53533 0.0
C4344 C 1.00082 0.99074 0.53748 0.0
C4345 C 0.98346 0.98092 0.53928 0.0
C4346 C 0.93632 0.97538 0.52057 0.0
C4347 C 0.89589 0.94767 0.54014 0.0
C4348 C 0.91459 0.95768 0.53834 0.0
C4349 C 0.96855 0.98779 0.53336 0.0
C4350 C 0.95 0.97722 0.53502 0.0
H4351 H 0.87258 0.9076 0.55431 0.0
H4352 H 0.90323 0.92435 0.55227 0.0
H4353 H 0.90878 0.96444 0.51067 0.0
H4354 H 0.99057 0.02746 0.51761 0.0
H4355 H 0.9604 0.01066 0.52112 0.0
C4356 C 0.91082 0.13723 0.28673 0.0
C4357 C 0.90406 0.11838 0.27602 0.0
C4358 C 0.90219 0.15309 0.28579 0.0
C4359 C 0.86554 0.16928 0.25642 0.0
H4360 H 0.87239 0.2129 0.2979 0.0
C4361 C 0.83863 0.24012 0.24783 0.0
C4362 C 0.83335 0.25218 0.26331 0.0
C4363 C 0.84634 0.22401 0.24994 0.0
C4364 C 0.87006 0.20091 0.28606 0.0
H4365 H 0.88211 0.10254 0.25568 0.0
H4366 H 0.86736 0.12948 0.25397 0.0
H4367 H 0.88697 0.18592 0.3003 0.0
H4368 H 0.83323 0.256 0.29384 0.0
H4369 H 0.84677 0.22826 0.29765 0.0
H4370 H 0.84862 0.18418 0.2422 0.0
C4371 C 0.87955 0.13234 0.2632 0.0
C4372 C 0.87877 0.18515 0.28737 0.0
C4373 C 0.8881 0.11648 0.26427 0.0
C4374 C 0.83655 0.24719 0.2813 0.0
C4375 C 0.84464 0.23113 0.2835 0.0
C4376 C 0.85701 0.18508 0.25504 0.0
C4377 C 0.88624 0.15129 0.27391 0.0
C4378 C 0.87681 0.16869 0.27259 0.0
C4379 C 0.84984 0.21897 0.26783 0.0
C4380 C 0.85894 0.2015 0.26978 0.0
H4381 H 0.92297 0.13984 0.29602 0.0
H4382 H 0.90836 0.167 0.29431 0.0
H4383 H 0.86338 0.15753 0.24438 0.0
H4384 H 0.83692 0.24328 0.23372 0.0
H4385 H 0.85008 0.21579 0.23729 0.0
C4386 C 0.72352 0.12137 0.03853 0.0
C4387 C 0.7327 0.10976 0.02676 0.0
C4388 C 0.70503 0.11715 0.03734 0.0
C4389 C 0.66571 0.09013 0.00548 0.0
H4390 H 0.64121 0.10176 0.0506 0.0
C4391 C 0.59078 0.0659 0.00911 0.0
C4392 C 0.58165 0.0809 0.01371 0.0
C4393 C 0.60921 0.06951 0.01164 0.0
C4394 C 0.648 0.09865 0.03795 0.0
H4395 H 0.73 0.08457 0.00465 0.0
H4396 H 0.69736 0.07632 1.00328 0.0
H4397 H 0.67364 0.106 0.05339 0.0
H4398 H 0.58447 0.11155 0.02397 0.0
H4399 H 0.61732 0.11798 0.02874 0.0
H4400 H 0.63981 0.082 0.99027 0.0
C4401 C 0.7045 0.08905 0.01307 0.0
C4402 C 0.66649 0.10106 0.03946 0.0
C4403 C 0.72313 0.0936 0.01395 0.0
C4404 C 0.59131 0.09976 0.02062 0.0
C4405 C 0.60992 0.10338 0.02338 0.0
C4406 C 0.64721 0.08739 1.00405 0.0
C4407 C 0.69528 0.10093 0.02466 0.0
C4408 C 0.67557 0.09703 0.02321 0.0
C4409 C 0.61887 0.08824 0.01866 0.0
C4410 C 0.63833 0.09182 0.02024 0.0
H4411 H 0.73059 0.13425 0.0482 0.0
H4412 H 0.69842 0.12697 0.04602 0.0
H4413 H 0.67227 0.08721 0.99265 0.0
H4414 H 0.58387 0.05144 1.00304 0.0
H4415 H 0.61596 0.0577 0.00789 0.0
C4416 C 0.19467 0.4747 0.2438 0.0
C4417 C 0.20722 0.48945 0.23845 0.0
C4418 C 0.19841 0.45657 0.24329 0.0
C4419 C 0.22946 0.4252 0.23055 0.0
H4420 H 0.2335 0.42464 0.28454 0.0
C4421 C 0.28259 0.39447 0.2661 0.0
C4422 C 0.27832 0.38563 0.28165 0.0
C4423 C 0.2703 0.40312 0.25781 0.0
C4424 C 0.23202 0.4241 0.26936 0.0
H4425 H 0.23249 0.49661 0.22646 0.0
H4426 H 0.23936 0.46481 0.22615 0.0
H4427 H 0.21639 0.44554 0.2726 0.0
H4428 H 0.25799 0.37762 0.30026 0.0
H4429 H 0.23631 0.3927 0.28579 0.0
H4430 H 0.24567 0.40411 0.22748 0.0
C4431 C 0.22657 0.46726 0.23046 0.0
C4432 C 0.2222 0.43605 0.26253 0.0
C4433 C 0.22281 0.48546 0.23095 0.0
C4434 C 0.26167 0.38519 0.28875 0.0
C4435 C 0.24928 0.39356 0.28033 0.0
C4436 C 0.2391 0.41293 0.23737 0.0
C4437 C 0.21474 0.45309 0.23747 0.0
C4438 C 0.22136 0.43712 0.24322 0.0
C4439 C 0.25351 0.40264 0.26482 0.0
C4440 C 0.24097 0.41285 0.25694 0.0
H4441 H 0.18234 0.47738 0.24925 0.0
H4442 H 0.18921 0.44574 0.24879 0.0
H4443 H 0.22894 0.42603 0.21561 0.0
H4444 H 0.29519 0.39417 0.26007 0.0
H4445 H 0.27398 0.41024 0.24603 0.0
C4446 C 0.25917 0.43178 0.052 0.0
C4447 C 0.26122 0.41628 0.03806 0.0
C4448 C 0.24367 0.43923 0.05133 0.0
C4449 C 0.20811 0.44383 0.01753 0.0
H4450 H 0.18299 0.45637 0.06185 0.0
C4451 C 0.14502 0.47373 0.01007 0.0
C4452 C 0.14321 0.4891 0.02419 0.0
C4453 C 0.15747 0.46254 0.01301 0.0
C4454 C 0.18993 0.45312 0.04936 0.0
H4455 H 0.24858 0.39629 0.01266 0.0
H4456 H 0.22172 0.40946 0.01134 0.0
H4457 H 0.20909 0.44199 0.06466 0.0
H4458 H 0.15224 0.50439 0.05274 0.0
H4459 H 0.1745 0.48531 0.0578 0.0
H4460 H 0.18962 0.45551 1.0023 0.0
C4461 C 0.23206 0.41585 0.02278 0.0
C4462 C 0.20486 0.44485 0.05098 0.0
C4463 C 0.24742 0.40827 0.02357 0.0
C4464 C 0.15336 0.49247 0.04172 0.0
C4465 C 0.16608 0.48149 0.04457 0.0
C4466 C 0.19336 0.45227 0.01595 0.0
C4467 C 0.23005 0.43149 0.03658 0.0
C4468 C 0.21409 0.4401 0.03506 0.0
C4469 C 0.16872 0.46678 0.03 0.0
C4470 C 0.184 0.45701 0.03181 0.0
H4471 H 0.26955 0.43818 0.06339 0.0
H4472 H 0.24254 0.45136 0.06209 0.0
H4473 H 0.21511 0.44065 0.00507 0.0
H4474 H 0.13723 0.47084 0.99647 0.0
H4475 H 0.15868 0.45096 1.00168 0.0
C4476 C 0.90593 0.9936 0.26576 0.0
C4477 C 0.89997 0.00975 0.27527 0.0
C4478 C 0.89699 0.9743 0.26596 0.0
C4479 C 0.86077 0.94379 0.29027 0.0
H4480 H 0.86614 0.90264 0.25004 0.0
C4481 C 0.81883 0.86329 0.2839 0.0
C4482 C 0.82624 0.8475 0.27607 0.0
C4483 C 0.82752 0.8828 0.28397 0.0
C4484 C 0.8645 0.91374 0.26163 0.0
H4485 H 0.87935 0.01735 0.29259 0.0
H4486 H 0.86366 0.98419 0.29269 0.0
H4487 H 0.88104 0.93572 0.2497 0.0
H4488 H 0.8493 0.84089 0.26236 0.0
H4489 H 0.86419 0.87425 0.26249 0.0
H4490 H 0.84398 0.92164 0.302 0.0
C4491 C 0.87552 0.98624 0.28517 0.0
C4492 C 0.87326 0.93313 0.26147 0.0
C4493 C 0.88453 1.00558 0.285 0.0
C4494 C 0.84283 0.85228 0.26843 0.0
C4495 C 0.85145 0.87173 0.2684 0.0
C4496 C 0.8519 0.92438 0.29035 0.0
C4497 C 0.88147 0.96995 0.27566 0.0
C4498 C 0.87174 0.94881 0.27581 0.0
C4499 C 0.84407 0.8876 0.27616 0.0
C4500 C 0.85354 0.90876 0.27606 0.0
H4501 H 0.91776 0.99585 0.25817 0.0
H4502 H 0.90262 0.96277 0.25866 0.0
H4503 H 0.85916 0.95482 0.30192 0.0
H4504 H 0.80634 0.86066 0.29027 0.0
H4505 H 0.82102 0.89416 0.29004 0.0
C4506 C 0.71781 0.109 0.74398 0.0
C4507 C 0.72652 0.09477 0.74854 0.0
C4508 C 0.72594 0.12838 0.74929 0.0
C4509 C 0.7601 0.16128 0.78356 0.0
H4510 H 0.75213 0.19723 0.75119 0.0
C4511 C 0.79029 0.24378 0.79949 0.0
C4512 C 0.77741 0.25482 0.79775 0.0
C4513 C 0.78573 0.22381 0.79336 0.0
C4514 C 0.75474 0.18735 0.7602 0.0
H4515 H 0.75059 0.08939 0.76184 0.0
H4516 H 0.76517 0.12351 0.77061 0.0
H4517 H 0.74229 0.16286 0.73937 0.0
H4518 H 0.74969 0.25436 0.7902 0.0
H4519 H 0.74166 0.21937 0.77926 0.0
H4520 H 0.77281 0.18611 0.80426 0.0
C4521 C 0.75193 0.11962 0.76322 0.0
C4522 C 0.7489 0.16769 0.75357 0.0
C4523 C 0.7437 0.10016 0.75803 0.0
C4524 C 0.75981 0.2459 0.79105 0.0
C4525 C 0.75528 0.22605 0.78484 0.0
C4526 C 0.76636 0.18104 0.79001 0.0
C4527 C 0.74302 0.13388 0.75905 0.0
C4528 C 0.75113 0.1545 0.76535 0.0
C4529 C 0.76826 0.21495 0.78572 0.0
C4530 C 0.7634 0.19415 0.77845 0.0
H4531 H 0.70444 0.10522 0.73687 0.0
H4532 H 0.71857 0.13906 0.74625 0.0
H4533 H 0.7617 0.15142 0.79307 0.0
H4534 H 0.80387 0.25062 0.80506 0.0
H4535 H 0.79588 0.21537 0.79415 0.0
loop_
_geom_bond_atom_site_label_1
_geom_bond_atom_site_label_2
_geom_bond_distance
_geom_bond_site_symmetry_2
_ccdc_geom_bond_type
In0 O1 2.294 . S
In0 O2 2.326 . S
In0 O6 2.266 . S
In0 O7 2.326 . S
In0 O8 2.266 . S
In0 O9 2.326 . S
In0 O11 2.294 . S
In0 O12 2.326 . S
O1 In0 2.294 . S
O1 C10 1.240 . S
O2 In0 2.326 . S
O2 C10 1.252 . S
C3 O6 1.252 . S
C3 O7 1.260 . S
C4 O11 1.240 . S
C4 O12 1.252 . S
C5 O8 1.252 . S
C5 O9 1.260 . S
O6 In0 2.266 . S
O6 C3 1.252 . S
O7 In0 2.326 . S
O7 C3 1.260 . S
O8 In0 2.266 . S
O8 C5 1.252 . S
O9 In0 2.326 . S
O9 C5 1.260 . S
C10 O1 1.240 . S
C10 O2 1.252 . S
O11 In0 2.294 . S
O11 C4 1.240 . S
O12 In0 2.326 . S
O12 C4 1.252 . S
In13 O14 2.295 . S
In13 O15 2.326 . S
In13 O19 2.266 1_455 S
In13 O20 2.326 1_455 S
In13 O21 2.260 1_455 S
In13 O22 2.316 1_455 S
In13 O24 2.300 . S
In13 O25 2.336 . S
O14 In13 2.295 . S
O14 C23 1.240 . S
O15 In13 2.326 . S
O15 C23 1.252 . S
C16 O19 1.252 . S
C16 O20 1.260 . S
C17 O24 1.240 . S
C17 O25 1.252 . S
C18 O21 1.252 . S
C18 O22 1.260 . S
O19 In13 2.266 1_655 S
O19 C16 1.252 . S
O20 In13 2.326 1_655 S
O20 C16 1.260 . S
O21 In13 2.260 1_655 S
O21 C18 1.252 . S
O22 In13 2.316 1_655 S
O22 C18 1.260 . S
C23 O14 1.240 . S
C23 O15 1.252 . S
O24 In13 2.300 . S
O24 C17 1.240 . S
O25 In13 2.336 . S
O25 C17 1.252 . S
In26 O27 2.294 . S
In26 O28 2.326 . S
In26 O32 2.266 . S
In26 O33 2.326 . S
In26 O34 2.266 . S
In26 O35 2.326 . S
In26 O37 2.294 . S
In26 O38 2.326 . S
O27 In26 2.294 . S
O27 C36 1.240 . S
O28 In26 2.326 . S
O28 C36 1.252 . S
C29 O32 1.252 . S
C29 O33 1.260 . S
C30 O37 1.240 . S
C30 O38 1.252 . S
C31 O34 1.252 . S
C31 O35 1.260 . S
O32 In26 2.266 . S
O32 C29 1.252 . S
O33 In26 2.326 . S
O33 C29 1.260 . S
O34 In26 2.266 . S
O34 C31 1.252 . S
O35 In26 2.326 . S
O35 C31 1.260 . S
C36 O27 1.240 . S
C36 O28 1.252 . S
O37 In26 2.294 . S
O37 C30 1.240 . S
O38 In26 2.326 . S
O38 C30 1.252 . S
In39 O40 2.294 . S
In39 O41 2.326 . S
In39 O45 2.266 . S
In39 O46 2.326 . S
In39 O47 2.266 . S
In39 O48 2.326 . S
In39 O50 2.294 . S
In39 O51 2.326 . S
O40 In39 2.294 . S
O40 C49 1.240 . S
O41 In39 2.326 . S
O41 C49 1.252 . S
C42 O45 1.252 . S
C42 O46 1.260 . S
C43 O50 1.240 . S
C43 O51 1.252 . S
C44 O47 1.252 . S
C44 O48 1.260 . S
O45 In39 2.266 . S
O45 C42 1.252 . S
O46 In39 2.326 . S
O46 C42 1.260 . S
O47 In39 2.266 . S
O47 C44 1.252 . S
O48 In39 2.326 . S
O48 C44 1.260 . S
C49 O40 1.240 . S
C49 O41 1.252 . S
O50 In39 2.294 . S
O50 C43 1.240 . S
O51 In39 2.326 . S
O51 C43 1.252 . S
In52 O53 2.294 . S
In52 O54 2.326 . S
In52 O58 2.266 . S
In52 O59 2.326 . S
In52 O60 2.266 . S
In52 O61 2.326 . S
In52 O63 2.294 . S
In52 O64 2.326 . S
O53 In52 2.294 . S
O53 C62 1.240 . S
O54 In52 2.326 . S
O54 C62 1.252 . S
C55 O58 1.252 . S
C55 O59 1.260 . S
C56 O63 1.240 . S
C56 O64 1.252 . S
C57 O60 1.252 . S
C57 O61 1.260 . S
O58 In52 2.266 . S
O58 C55 1.252 . S
O59 In52 2.326 . S
O59 C55 1.260 . S
O60 In52 2.266 . S
O60 C57 1.252 . S
O61 In52 2.326 . S
O61 C57 1.260 . S
C62 O53 1.240 . S
C62 O54 1.252 . S
O63 In52 2.294 . S
O63 C56 1.240 . S
O64 In52 2.326 . S
O64 C56 1.252 . S
In65 O66 2.294 . S
In65 O67 2.326 . S
In65 O71 2.266 . S
In65 O72 2.326 . S
In65 O73 2.266 . S
In65 O74 2.326 . S
In65 O76 2.294 . S
In65 O77 2.326 . S
O66 In65 2.294 . S
O66 C75 1.240 . S
O67 In65 2.326 . S
O67 C75 1.252 . S
C68 O71 1.252 . S
C68 O72 1.260 . S
C69 O76 1.240 . S
C69 O77 1.252 . S
C70 O73 1.252 . S
C70 O74 1.260 . S
O71 In65 2.266 . S
O71 C68 1.252 . S
O72 In65 2.326 . S
O72 C68 1.260 . S
O73 In65 2.266 . S
O73 C70 1.252 . S
O74 In65 2.326 . S
O74 C70 1.260 . S
C75 O66 1.240 . S
C75 O67 1.252 . S
O76 In65 2.294 . S
O76 C69 1.240 . S
O77 In65 2.326 . S
O77 C69 1.252 . S
In78 O79 2.294 . S
In78 O80 2.326 . S
In78 O84 2.266 . S
In78 O85 2.326 . S
In78 O86 2.266 . S
In78 O87 2.326 . S
In78 O89 2.294 . S
In78 O90 2.326 . S
O79 In78 2.294 . S
O79 C88 1.240 . S
O80 In78 2.326 . S
O80 C88 1.252 . S
C81 O84 1.252 . S
C81 O85 1.260 . S
C82 O89 1.240 . S
C82 O90 1.252 . S
C83 O86 1.252 . S
C83 O87 1.260 . S
O84 In78 2.266 . S
O84 C81 1.252 . S
O85 In78 2.326 . S
O85 C81 1.260 . S
O86 In78 2.266 . S
O86 C83 1.252 . S
O87 In78 2.326 . S
O87 C83 1.260 . S
C88 O79 1.240 . S
C88 O80 1.252 . S
O89 In78 2.294 . S
O89 C82 1.240 . S
O90 In78 2.326 . S
O90 C82 1.252 . S
In91 O92 2.294 . S
In91 O93 2.326 . S
In91 O97 2.266 . S
In91 O98 2.326 . S
In91 O99 2.266 1_455 S
In91 O100 2.326 1_455 S
In91 O102 2.294 . S
In91 O103 2.326 . S
O92 In91 2.294 . S
O92 C101 1.240 . S
O93 In91 2.326 . S
O93 C101 1.252 . S
C94 O97 1.252 . S
C94 O98 1.260 . S
C95 O102 1.240 . S
C95 O103 1.252 . S
C96 O99 1.252 . S
C96 O100 1.260 . S
O97 In91 2.266 . S
O97 C94 1.252 . S
O98 In91 2.326 . S
O98 C94 1.260 . S
O99 In91 2.266 1_655 S
O99 C96 1.252 . S
O100 In91 2.326 1_655 S
O100 C96 1.260 . S
C101 O92 1.240 . S
C101 O93 1.252 . S
O102 In91 2.294 . S
O102 C95 1.240 . S
O103 In91 2.326 . S
O103 C95 1.252 . S
In104 O105 2.294 . S
In104 O106 2.326 . S
In104 O110 2.266 . S
In104 O111 2.326 . S
In104 O112 2.266 . S
In104 O113 2.326 1_545 S
In104 O115 2.294 . S
In104 O116 2.326 . S
O105 In104 2.294 . S
O105 C114 1.240 . S
O106 In104 2.326 . S
O106 C114 1.252 . S
C107 O110 1.252 . S
C107 O111 1.260 . S
C108 O115 1.240 . S
C108 O116 1.252 . S
C109 O112 1.252 1_565 S
C109 O113 1.260 . S
O110 In104 2.266 . S
O110 C107 1.252 . S
O111 In104 2.326 . S
O111 C107 1.260 . S
O112 In104 2.266 . S
O112 C109 1.252 1_545 S
O113 In104 2.326 1_565 S
O113 C109 1.260 . S
C114 O105 1.240 . S
C114 O106 1.252 . S
O115 In104 2.294 . S
O115 C108 1.240 . S
O116 In104 2.326 . S
O116 C108 1.252 . S
In117 O118 2.294 . S
In117 O119 2.326 . S
In117 O123 2.266 . S
In117 O124 2.326 . S
In117 O125 2.266 . S
In117 O126 2.326 . S
In117 O128 2.294 . S
In117 O129 2.326 . S
O118 In117 2.294 . S
O118 C127 1.240 . S
O119 In117 2.326 . S
O119 C127 1.252 . S
C120 O123 1.252 . S
C120 O124 1.260 . S
C121 O128 1.240 . S
C121 O129 1.252 . S
C122 O125 1.252 . S
C122 O126 1.260 . S
O123 In117 2.266 . S
O123 C120 1.252 . S
O124 In117 2.326 . S
O124 C120 1.260 . S
O125 In117 2.266 . S
O125 C122 1.252 . S
O126 In117 2.326 . S
O126 C122 1.260 . S
C127 O118 1.240 . S
C127 O119 1.252 . S
O128 In117 2.294 . S
O128 C121 1.240 . S
O129 In117 2.326 . S
O129 C121 1.252 . S
In130 O131 2.294 1_545 S
In130 O132 2.326 1_545 S
In130 O136 2.266 . S
In130 O137 2.326 . S
In130 O138 2.264 . S
In130 O139 2.322 . S
In130 O141 2.296 1_545 S
In130 O142 2.330 1_545 S
O131 In130 2.294 1_565 S
O131 C140 1.240 . S
O132 In130 2.326 1_565 S
O132 C140 1.252 . S
C133 O136 1.252 . S
C133 O137 1.260 . S
C134 O141 1.240 . S
C134 O142 1.252 . S
C135 O138 1.252 . S
C135 O139 1.260 . S
O136 In130 2.266 . S
O136 C133 1.252 . S
O137 In130 2.326 . S
O137 C133 1.260 . S
O138 In130 2.264 . S
O138 C135 1.252 . S
O139 In130 2.322 . S
O139 C135 1.260 . S
C140 O131 1.240 . S
C140 O132 1.252 . S
O141 In130 2.296 1_565 S
O141 C134 1.240 . S
O142 In130 2.330 1_565 S
O142 C134 1.252 . S
In143 O144 2.294 . S
In143 O145 2.326 . S
In143 O149 2.266 1_554 S
In143 O150 2.326 1_554 S
In143 O151 2.266 . S
In143 O152 2.326 . S
In143 O154 2.294 . S
In143 O155 2.326 . S
O144 In143 2.294 . S
O144 C153 1.240 . S
O145 In143 2.326 . S
O145 C153 1.252 . S
C146 O149 1.252 . S
C146 O150 1.260 . S
C147 O154 1.240 . S
C147 O155 1.252 . S
C148 O151 1.252 . S
C148 O152 1.260 . S
O149 In143 2.266 1_556 S
O149 C146 1.252 . S
O150 In143 2.326 1_556 S
O150 C146 1.260 . S
O151 In143 2.266 . S
O151 C148 1.252 . S
O152 In143 2.326 . S
O152 C148 1.260 . S
C153 O144 1.240 . S
C153 O145 1.252 . S
O154 In143 2.294 . S
O154 C147 1.240 . S
O155 In143 2.326 . S
O155 C147 1.252 . S
In156 O157 2.294 . S
In156 O158 2.326 . S
In156 O162 2.266 . S
In156 O163 2.326 . S
In156 O164 2.266 . S
In156 O165 2.326 . S
In156 O167 2.294 . S
In156 O168 2.326 . S
O157 In156 2.294 . S
O157 C166 1.240 . S
O158 In156 2.326 . S
O158 C166 1.252 . S
C159 O162 1.252 . S
C159 O163 1.260 . S
C160 O167 1.240 . S
C160 O168 1.252 . S
C161 O164 1.252 . S
C161 O165 1.260 . S
O162 In156 2.266 . S
O162 C159 1.252 . S
O163 In156 2.326 . S
O163 C159 1.260 . S
O164 In156 2.266 . S
O164 C161 1.252 . S
O165 In156 2.326 . S
O165 C161 1.260 . S
C166 O157 1.240 . S
C166 O158 1.252 . S
O167 In156 2.294 . S
O167 C160 1.240 . S
O168 In156 2.326 . S
O168 C160 1.252 . S
In169 O170 2.294 . S
In169 O171 2.326 . S
In169 O175 2.266 . S
In169 O176 2.326 . S
In169 O177 2.266 . S
In169 O178 2.326 1_554 S
In169 O180 2.294 . S
In169 O181 2.326 . S
O170 In169 2.294 . S
O170 C179 1.240 . S
O171 In169 2.326 . S
O171 C179 1.252 . S
C172 O175 1.252 . S
C172 O176 1.260 . S
C173 O180 1.240 . S
C173 O181 1.252 . S
C174 O177 1.252 1_556 S
C174 O178 1.260 . S
O175 In169 2.266 . S
O175 C172 1.252 . S
O176 In169 2.326 . S
O176 C172 1.260 . S
O177 In169 2.266 . S
O177 C174 1.252 1_554 S
O178 In169 2.326 1_556 S
O178 C174 1.260 . S
C179 O170 1.240 . S
C179 O171 1.252 . S
O180 In169 2.294 . S
O180 C173 1.240 . S
O181 In169 2.326 . S
O181 C173 1.252 . S
In182 O183 2.294 . S
In182 O184 2.326 . S
In182 O188 2.266 . S
In182 O189 2.326 . S
In182 O190 2.266 . S
In182 O191 2.326 . S
In182 O193 2.294 . S
In182 O194 2.326 . S
O183 In182 2.294 . S
O183 C192 1.240 . S
O184 In182 2.326 . S
O184 C192 1.252 . S
C185 O188 1.252 . S
C185 O189 1.260 . S
C186 O193 1.240 . S
C186 O194 1.252 . S
C187 O190 1.252 . S
C187 O191 1.260 . S
O188 In182 2.266 . S
O188 C185 1.252 . S
O189 In182 2.326 . S
O189 C185 1.260 . S
O190 In182 2.266 . S
O190 C187 1.252 . S
O191 In182 2.326 . S
O191 C187 1.260 . S
C192 O183 1.240 . S
C192 O184 1.252 . S
O193 In182 2.294 . S
O193 C186 1.240 . S
O194 In182 2.326 . S
O194 C186 1.252 . S
In195 O196 2.294 . S
In195 O197 2.326 . S
In195 O201 2.266 . S
In195 O202 2.326 . S
In195 O203 2.266 . S
In195 O204 2.326 . S
In195 O206 2.294 . S
In195 O207 2.326 . S
O196 In195 2.294 . S
O196 C205 1.240 . S
O197 In195 2.326 . S
O197 C205 1.252 . S
C198 O201 1.252 . S
C198 O202 1.260 . S
C199 O206 1.240 . S
C199 O207 1.252 . S
C200 O203 1.252 . S
C200 O204 1.260 . S
O201 In195 2.266 . S
O201 C198 1.252 . S
O202 In195 2.326 . S
O202 C198 1.260 . S
O203 In195 2.266 . S
O203 C200 1.252 . S
O204 In195 2.326 . S
O204 C200 1.260 . S
C205 O196 1.240 . S
C205 O197 1.252 . S
O206 In195 2.294 . S
O206 C199 1.240 . S
O207 In195 2.326 . S
O207 C199 1.252 . S
In208 O209 2.294 . S
In208 O210 2.326 . S
In208 O214 2.266 . S
In208 O215 2.326 . S
In208 O216 2.266 . S
In208 O217 2.326 . S
In208 O219 2.294 . S
In208 O220 2.326 . S
O209 In208 2.294 . S
O209 C218 1.240 . S
O210 In208 2.326 . S
O210 C218 1.252 . S
C211 O214 1.252 . S
C211 O215 1.260 . S
C212 O219 1.240 . S
C212 O220 1.252 . S
C213 O216 1.252 . S
C213 O217 1.260 . S
O214 In208 2.266 . S
O214 C211 1.252 . S
O215 In208 2.326 . S
O215 C211 1.260 . S
O216 In208 2.266 . S
O216 C213 1.252 . S
O217 In208 2.326 . S
O217 C213 1.260 . S
C218 O209 1.240 . S
C218 O210 1.252 . S
O219 In208 2.294 . S
O219 C212 1.240 . S
O220 In208 2.326 . S
O220 C212 1.252 . S
In221 O222 2.294 . S
In221 O223 2.326 . S
In221 O227 2.266 . S
In221 O228 2.326 . S
In221 O229 2.266 . S
In221 O230 2.326 . S
In221 O232 2.294 . S
In221 O233 2.326 . S
O222 In221 2.294 . S
O222 C231 1.240 . S
O223 In221 2.326 . S
O223 C231 1.252 . S
C224 O227 1.252 . S
C224 O228 1.260 . S
C225 O232 1.240 . S
C225 O233 1.252 . S
C226 O229 1.252 . S
C226 O230 1.260 . S
O227 In221 2.266 . S
O227 C224 1.252 . S
O228 In221 2.326 . S
O228 C224 1.260 . S
O229 In221 2.266 . S
O229 C226 1.252 . S
O230 In221 2.326 . S
O230 C226 1.260 . S
C231 O222 1.240 . S
C231 O223 1.252 . S
O232 In221 2.294 . S
O232 C225 1.240 . S
O233 In221 2.326 . S
O233 C225 1.252 . S
In234 O235 2.294 . S
In234 O236 2.326 . S
In234 O240 2.266 . S
In234 O241 2.326 . S
In234 O242 2.266 . S
In234 O243 2.326 . S
In234 O245 2.294 . S
In234 O246 2.326 . S
O235 In234 2.294 . S
O235 C244 1.240 . S
O236 In234 2.326 . S
O236 C244 1.252 . S
C237 O240 1.252 . S
C237 O241 1.260 . S
C238 O245 1.240 . S
C238 O246 1.252 . S
C239 O242 1.252 . S
C239 O243 1.260 . S
O240 In234 2.266 . S
O240 C237 1.252 . S
O241 In234 2.326 . S
O241 C237 1.260 . S
O242 In234 2.266 . S
O242 C239 1.252 . S
O243 In234 2.326 . S
O243 C239 1.260 . S
C244 O235 1.240 . S
C244 O236 1.252 . S
O245 In234 2.294 . S
O245 C238 1.240 . S
O246 In234 2.326 . S
O246 C238 1.252 . S
In247 O248 2.294 . S
In247 O249 2.326 . S
In247 O253 2.266 . S
In247 O254 2.326 . S
In247 O255 2.266 . S
In247 O256 2.326 . S
In247 O258 2.294 . S
In247 O259 2.326 . S
O248 In247 2.294 . S
O248 C257 1.240 . S
O249 In247 2.326 . S
O249 C257 1.252 . S
C250 O253 1.252 . S
C250 O254 1.260 . S
C251 O258 1.240 . S
C251 O259 1.252 . S
C252 O255 1.252 . S
C252 O256 1.260 . S
O253 In247 2.266 . S
O253 C250 1.252 . S
O254 In247 2.326 . S
O254 C250 1.260 . S
O255 In247 2.266 . S
O255 C252 1.252 . S
O256 In247 2.326 . S
O256 C252 1.260 . S
C257 O248 1.240 . S
C257 O249 1.252 . S
O258 In247 2.294 . S
O258 C251 1.240 . S
O259 In247 2.326 . S
O259 C251 1.252 . S
In260 O261 2.294 . S
In260 O262 2.326 . S
In260 O266 2.266 1_554 S
In260 O267 2.325 1_554 S
In260 O268 2.264 1_554 S
In260 O269 2.322 1_554 S
In260 O271 2.296 . S
In260 O272 2.330 . S
O261 In260 2.294 . S
O261 C270 1.240 . S
O262 In260 2.326 . S
O262 C270 1.252 . S
C263 O266 1.252 . S
C263 O267 1.260 . S
C264 O271 1.240 . S
C264 O272 1.252 . S
C265 O268 1.252 . S
C265 O269 1.260 . S
O266 In260 2.266 1_556 S
O266 C263 1.252 . S
O267 In260 2.325 1_556 S
O267 C263 1.260 . S
O268 In260 2.264 1_556 S
O268 C265 1.252 . S
O269 In260 2.322 1_556 S
O269 C265 1.260 . S
C270 O261 1.240 . S
C270 O262 1.252 . S
O271 In260 2.296 . S
O271 C264 1.240 . S
O272 In260 2.330 . S
O272 C264 1.252 . S
In273 O274 2.294 . S
In273 O275 2.326 . S
In273 O279 2.266 . S
In273 O280 2.326 . S
In273 O281 2.266 . S
In273 O282 2.326 . S
In273 O284 2.294 . S
In273 O285 2.326 . S
O274 In273 2.294 . S
O274 C283 1.240 . S
O275 In273 2.326 . S
O275 C283 1.252 . S
C276 O279 1.252 . S
C276 O280 1.260 . S
C277 O284 1.240 . S
C277 O285 1.252 . S
C278 O281 1.252 . S
C278 O282 1.260 . S
O279 In273 2.266 . S
O279 C276 1.252 . S
O280 In273 2.326 . S
O280 C276 1.260 . S
O281 In273 2.266 . S
O281 C278 1.252 . S
O282 In273 2.326 . S
O282 C278 1.260 . S
C283 O274 1.240 . S
C283 O275 1.252 . S
O284 In273 2.294 . S
O284 C277 1.240 . S
O285 In273 2.326 . S
O285 C277 1.252 . S
In286 O287 2.294 . S
In286 O288 2.326 . S
In286 O292 2.266 . S
In286 O293 2.326 . S
In286 O294 2.266 . S
In286 O295 2.326 . S
In286 O297 2.294 . S
In286 O298 2.326 . S
O287 In286 2.294 . S
O287 C296 1.240 . S
O288 In286 2.326 . S
O288 C296 1.252 . S
C289 O292 1.252 . S
C289 O293 1.260 . S
C290 O297 1.240 . S
C290 O298 1.252 . S
C291 O294 1.252 . S
C291 O295 1.260 . S
O292 In286 2.266 . S
O292 C289 1.252 . S
O293 In286 2.326 . S
O293 C289 1.260 . S
O294 In286 2.266 . S
O294 C291 1.252 . S
O295 In286 2.326 . S
O295 C291 1.260 . S
C296 O287 1.240 . S
C296 O288 1.252 . S
O297 In286 2.294 . S
O297 C290 1.240 . S
O298 In286 2.326 . S
O298 C290 1.252 . S
In299 O300 2.294 . S
In299 O301 2.326 . S
In299 O305 2.266 . S
In299 O306 2.326 . S
In299 O307 2.266 . S
In299 O308 2.326 . S
In299 O310 2.294 . S
In299 O311 2.326 . S
O300 In299 2.294 . S
O300 C309 1.240 . S
O301 In299 2.326 . S
O301 C309 1.252 . S
C302 O305 1.252 . S
C302 O306 1.260 . S
C303 O310 1.240 . S
C303 O311 1.252 . S
C304 O307 1.252 . S
C304 O308 1.260 . S
O305 In299 2.266 . S
O305 C302 1.252 . S
O306 In299 2.326 . S
O306 C302 1.260 . S
O307 In299 2.266 . S
O307 C304 1.252 . S
O308 In299 2.326 . S
O308 C304 1.260 . S
C309 O300 1.240 . S
C309 O301 1.252 . S
O310 In299 2.294 . S
O310 C303 1.240 . S
O311 In299 2.326 . S
O311 C303 1.252 . S
Tb312 N343 2.660 . S
Tb312 N350 2.600 1_554 S
Tb312 O356 2.546 1_554 S
Tb312 O357 2.610 . S
Tb312 O359 2.320 . S
Tb312 O360 2.552 . S
Tb312 O361 2.413 . S
Tb312 O363 2.362 . S
Tb312 O364 2.421 1_554 S
Tb312 C376 2.833 1_455 S
C313 C316 1.432 . S
C313 C317 1.414 . S
C313 N320 1.359 . S
C314 C316 1.417 . S
C314 C318 1.432 . S
C314 C326 1.410 . S
C315 C317 1.444 . S
C315 C318 1.317 . S
C315 H338 0.929 . S
C316 C313 1.432 . S
C316 C314 1.417 . S
C316 N324 1.360 . S
C317 C313 1.414 . S
C317 C315 1.444 . S
C317 C322 1.385 . S
C318 C314 1.432 . S
C318 C315 1.317 . S
C318 H330 0.930 . S
C319 C321 1.392 . S
C319 C322 1.370 . S
C319 H331 0.931 . S
N320 C313 1.359 . S
N320 C321 1.327 . S
N320 Tb323 2.600 . S
C321 C319 1.392 . S
C321 N320 1.327 . S
C321 H328 0.930 . S
C322 C317 1.385 . S
C322 C319 1.370 . S
C322 H341 0.930 . S
Tb323 N320 2.600 . S
Tb323 N324 2.660 . S
Tb323 O357 2.362 . S
Tb323 O358 2.421 . S
Tb323 O362 2.546 . S
Tb323 O363 2.610 . S
Tb323 O365 2.320 . S
Tb323 O366 2.552 . S
Tb323 O367 2.413 . S
Tb323 C387 2.833 . S
N324 C316 1.360 . S
N324 Tb323 2.660 . S
N324 C325 1.305 . S
C325 N324 1.305 . S
C325 C327 1.407 . S
C325 H332 0.930 . S
C326 C314 1.410 . S
C326 C327 1.345 . S
C326 H334 0.930 . S
C327 C325 1.407 . S
C327 C326 1.345 . S
C327 H329 0.930 1_554 S
H328 C321 0.930 . S
H329 C327 0.930 1_556 S
H330 C318 0.930 . S
H331 C319 0.931 . S
H332 C325 0.930 . S
H333 C347 0.930 . S
H334 C326 0.930 . S
H335 C353 0.930 . S
H336 C344 0.930 . S
H337 C351 0.931 . S
H338 C315 0.929 . S
H339 C345 0.919 1_655 S
H340 C378 0.930 . S
H341 C322 0.930 . S
H342 C377 0.929 . S
N343 Tb312 2.660 . S
N343 C344 1.305 . S
N343 C348 1.360 1_545 S
C344 H336 0.930 . S
C344 N343 1.305 . S
C344 C347 1.407 1_545 S
C345 H339 0.919 1_455 S
C345 C346 1.410 . S
C345 C347 1.345 . S
C346 C345 1.410 . S
C346 C348 1.417 . S
C346 C378 1.432 1_455 S
C347 H333 0.930 . S
C347 C344 1.407 1_565 S
C347 C345 1.345 . S
C348 N343 1.360 1_565 S
C348 C346 1.417 . S
C348 C352 1.432 . S
H349 C354 0.930 1_655 S
N350 Tb312 2.600 1_556 S
N350 C352 1.359 1_546 S
N350 C353 1.327 . S
C351 H337 0.931 . S
C351 C353 1.392 1_565 S
C351 C354 1.370 . S
C352 C348 1.432 . S
C352 N350 1.359 1_564 S
C352 C355 1.414 1_554 S
C353 H335 0.930 . S
C353 N350 1.327 . S
C353 C351 1.392 1_545 S
C354 H349 0.930 1_455 S
C354 C351 1.370 . S
C354 C355 1.385 . S
C355 C352 1.414 1_556 S
C355 C354 1.385 . S
C355 C377 1.444 1_455 S
O356 Tb312 2.546 1_556 S
O356 C376 1.251 1_456 S
O357 Tb312 2.610 . S
O357 Tb323 2.362 . S
O357 C368 1.283 . S
O358 Tb323 2.421 . S
O358 C375 1.262 . S
O359 Tb312 2.320 . S
O359 C375 1.260 . S
O360 Tb312 2.552 . S
O360 C368 1.243 . S
O361 Tb312 2.413 . S
O361 C376 1.256 1_455 S
O362 Tb323 2.546 . S
O362 C387 1.251 . S
O363 Tb312 2.362 . S
O363 Tb323 2.610 . S
O363 C379 1.283 . S
O364 Tb312 2.421 1_556 S
O364 C386 1.262 . S
O365 Tb323 2.320 . S
O365 C386 1.260 1_554 S
O366 Tb323 2.552 . S
O366 C379 1.243 . S
O367 Tb323 2.413 . S
O367 C387 1.256 . S
C368 O357 1.283 . S
C368 O360 1.243 . S
C369 C371 1.382 . S
C369 C373 1.393 1_554 S
C369 C376 1.500 . S
C370 C371 1.400 . S
C370 C372 1.384 1_554 S
C371 C369 1.382 . S
C371 C370 1.400 . S
C371 H388 0.930 . S
C372 C370 1.384 1_556 S
C372 C374 1.392 . S
C372 H389 0.931 . S
C373 C369 1.393 1_556 S
C373 C374 1.401 . S
C373 H390 0.930 . S
C374 C372 1.392 . S
C374 C373 1.401 . S
C374 H391 0.930 . S
C375 O358 1.262 . S
C375 O359 1.260 . S
C376 Tb312 2.833 1_655 S
C376 O356 1.251 1_654 S
C376 O361 1.256 1_655 S
C376 C369 1.500 . S
C377 H342 0.929 . S
C377 C355 1.444 1_655 S
C377 C378 1.317 1_556 S
C378 H340 0.930 . S
C378 C346 1.432 1_655 S
C378 C377 1.317 1_554 S
C379 O363 1.283 . S
C379 O366 1.243 . S
C380 C381 1.382 . S
C380 C384 1.393 . S
C380 C387 1.500 . S
C381 C380 1.382 . S
C381 C382 1.400 . S
C381 H392 0.930 . S
C382 C381 1.400 . S
C382 C383 1.384 . S
C383 C382 1.384 . S
C383 C385 1.392 . S
C383 H393 0.931 . S
C384 C380 1.393 . S
C384 C385 1.401 . S
C384 H394 0.930 . S
C385 C383 1.392 . S
C385 C384 1.401 . S
C385 H395 0.930 . S
C386 O364 1.262 . S
C386 O365 1.260 1_556 S
C387 Tb323 2.833 . S
C387 O362 1.251 . S
C387 O367 1.256 . S
C387 C380 1.500 . S
H388 C371 0.930 . S
H389 C372 0.931 . S
H390 C373 0.930 . S
H391 C374 0.930 . S
H392 C381 0.930 . S
H393 C383 0.931 . S
H394 C384 0.930 . S
H395 C385 0.930 . S
Tb396 N427 2.660 . S
Tb396 N434 2.600 . S
Tb396 O440 2.546 . S
Tb396 O441 2.610 . S
Tb396 O443 2.320 . S
Tb396 O444 2.552 . S
Tb396 O445 2.413 . S
Tb396 O447 2.362 . S
Tb396 O448 2.421 . S
Tb396 C460 2.833 . S
C397 C400 1.432 . S
C397 C401 1.414 . S
C397 N404 1.359 . S
C398 C400 1.417 . S
C398 C402 1.432 . S
C398 C410 1.410 . S
C399 C401 1.444 . S
C399 C402 1.317 . S
C399 H422 0.929 . S
C400 C397 1.432 . S
C400 C398 1.417 . S
C400 N408 1.360 . S
C401 C397 1.414 . S
C401 C399 1.444 . S
C401 C406 1.385 . S
C402 C398 1.432 . S
C402 C399 1.317 . S
C402 H414 0.930 . S
C403 C405 1.392 . S
C403 C406 1.370 . S
C403 H415 0.931 . S
N404 C397 1.359 . S
N404 C405 1.327 . S
N404 Tb407 2.600 . S
C405 C403 1.392 . S
C405 N404 1.327 . S
C405 H412 0.930 . S
C406 C401 1.385 . S
C406 C403 1.370 . S
C406 H425 0.930 . S
Tb407 N404 2.600 . S
Tb407 N408 2.660 . S
Tb407 O441 2.362 . S
Tb407 O442 2.421 . S
Tb407 O446 2.546 . S
Tb407 O447 2.610 . S
Tb407 O449 2.320 . S
Tb407 O450 2.552 . S
Tb407 O451 2.413 . S
Tb407 C471 2.833 . S
N408 C400 1.360 . S
N408 Tb407 2.660 . S
N408 C409 1.305 . S
C409 N408 1.305 . S
C409 C411 1.407 . S
C409 H416 0.930 . S
C410 C398 1.410 . S
C410 C411 1.345 . S
C410 H418 0.930 . S
C411 C409 1.407 . S
C411 C410 1.345 . S
C411 H413 0.930 . S
H412 C405 0.930 . S
H413 C411 0.930 . S
H414 C402 0.930 . S
H415 C403 0.931 . S
H416 C409 0.930 . S
H417 C431 0.930 . S
H418 C410 0.930 . S
H419 C437 0.930 . S
H420 C428 0.930 . S
H421 C435 0.931 . S
H422 C399 0.929 . S
H423 C429 0.930 . S
H424 C462 0.930 . S
H425 C406 0.930 . S
H426 C461 0.929 . S
N427 Tb396 2.660 . S
N427 C428 1.305 . S
N427 C432 1.360 . S
C428 H420 0.930 . S
C428 N427 1.305 . S
C428 C431 1.407 . S
C429 H423 0.930 . S
C429 C430 1.410 . S
C429 C431 1.345 . S
C430 C429 1.410 . S
C430 C432 1.417 . S
C430 C462 1.432 . S
C431 H417 0.930 . S
C431 C428 1.407 . S
C431 C429 1.345 . S
C432 N427 1.360 . S
C432 C430 1.417 . S
C432 C436 1.432 . S
H433 C438 0.930 . S
N434 Tb396 2.600 . S
N434 C436 1.359 . S
N434 C437 1.327 . S
C435 H421 0.931 . S
C435 C437 1.392 . S
C435 C438 1.370 . S
C436 C432 1.432 . S
C436 N434 1.359 . S
C436 C439 1.414 . S
C437 H419 0.930 . S
C437 N434 1.327 . S
C437 C435 1.392 . S
C438 H433 0.930 . S
C438 C435 1.370 . S
C438 C439 1.385 . S
C439 C436 1.414 . S
C439 C438 1.385 . S
C439 C461 1.444 . S
O440 Tb396 2.546 . S
O440 C460 1.251 . S
O441 Tb396 2.610 . S
O441 Tb407 2.362 . S
O441 C452 1.283 . S
O442 Tb407 2.421 . S
O442 C459 1.262 . S
O443 Tb396 2.320 . S
O443 C459 1.260 . S
O444 Tb396 2.552 . S
O444 C452 1.243 . S
O445 Tb396 2.413 . S
O445 C460 1.256 . S
O446 Tb407 2.546 . S
O446 C471 1.251 . S
O447 Tb396 2.362 . S
O447 Tb407 2.610 . S
O447 C463 1.283 . S
O448 Tb396 2.421 . S
O448 C470 1.262 . S
O449 Tb407 2.320 . S
O449 C470 1.260 . S
O450 Tb407 2.552 . S
O450 C463 1.243 . S
O451 Tb407 2.413 . S
O451 C471 1.256 . S
C452 O441 1.283 . S
C452 O444 1.243 . S
C453 C455 1.382 . S
C453 C457 1.393 . S
C453 C460 1.500 . S
C454 C455 1.400 . S
C454 C456 1.384 . S
C455 C453 1.382 . S
C455 C454 1.400 . S
C455 H472 0.930 . S
C456 C454 1.384 . S
C456 C458 1.392 . S
C456 H473 0.931 . S
C457 C453 1.393 . S
C457 C458 1.401 . S
C457 H474 0.930 . S
C458 C456 1.392 . S
C458 C457 1.401 . S
C458 H475 0.930 . S
C459 O442 1.262 . S
C459 O443 1.260 . S
C460 Tb396 2.833 . S
C460 O440 1.251 . S
C460 O445 1.256 . S
C460 C453 1.500 . S
C461 H426 0.929 . S
C461 C439 1.444 . S
C461 C462 1.317 . S
C462 H424 0.930 . S
C462 C430 1.432 . S
C462 C461 1.317 . S
C463 O447 1.283 . S
C463 O450 1.243 . S
C464 C465 1.382 . S
C464 C468 1.393 . S
C464 C471 1.500 . S
C465 C464 1.382 . S
C465 C466 1.400 . S
C465 H476 0.930 . S
C466 C465 1.400 . S
C466 C467 1.384 . S
C467 C466 1.384 . S
C467 C469 1.392 . S
C467 H477 0.931 . S
C468 C464 1.393 . S
C468 C469 1.401 . S
C468 H478 0.930 . S
C469 C467 1.392 . S
C469 C468 1.401 . S
C469 H479 0.930 . S
C470 O448 1.262 . S
C470 O449 1.260 . S
C471 Tb407 2.833 . S
C471 O446 1.251 . S
C471 O451 1.256 . S
C471 C464 1.500 . S
H472 C455 0.930 . S
H473 C456 0.931 . S
H474 C457 0.930 . S
H475 C458 0.930 . S
H476 C465 0.930 . S
H477 C467 0.931 . S
H478 C468 0.930 . S
H479 C469 0.930 . S
Tb480 N511 2.660 . S
Tb480 N518 2.600 . S
Tb480 O524 2.546 . S
Tb480 O525 2.610 . S
Tb480 O527 2.320 . S
Tb480 O528 2.552 1_545 S
Tb480 O529 2.413 . S
Tb480 O531 2.362 . S
Tb480 O532 2.421 . S
Tb480 C544 2.833 . S
C481 C484 1.432 . S
C481 C485 1.414 . S
C481 N488 1.349 1_565 S
C482 C484 1.417 . S
C482 C486 1.432 . S
C482 C494 1.410 . S
C483 C485 1.444 . S
C483 C486 1.317 . S
C483 H506 0.929 . S
C484 C481 1.432 . S
C484 C482 1.417 . S
C484 N492 1.360 . S
C485 C481 1.414 . S
C485 C483 1.444 . S
C485 C490 1.385 . S
C486 C482 1.432 . S
C486 C483 1.317 . S
C486 H498 0.930 . S
C487 C489 1.392 1_565 S
C487 C490 1.370 . S
C487 H499 0.928 1_565 S
N488 C481 1.349 1_545 S
N488 C489 1.328 . S
N488 Tb491 2.610 . S
C489 C487 1.392 1_545 S
C489 N488 1.328 . S
C489 H496 0.930 . S
C490 C485 1.385 . S
C490 C487 1.370 . S
C490 H509 0.930 . S
Tb491 N488 2.610 . S
Tb491 N492 2.660 1_545 S
Tb491 O525 2.362 . S
Tb491 O526 2.421 . S
Tb491 O530 2.546 . S
Tb491 O531 2.610 . S
Tb491 O533 2.320 . S
Tb491 O534 2.552 . S
Tb491 O535 2.413 . S
Tb491 C555 2.833 . S
N492 C484 1.360 . S
N492 Tb491 2.660 1_565 S
N492 C493 1.305 . S
C493 N492 1.305 . S
C493 C495 1.407 . S
C493 H500 0.930 . S
C494 C482 1.410 . S
C494 C495 1.345 . S
C494 H502 0.930 . S
C495 C493 1.407 . S
C495 C494 1.345 . S
C495 H497 0.930 . S
H496 C489 0.930 . S
H497 C495 0.930 . S
H498 C486 0.930 . S
H499 C487 0.928 1_545 S
H500 C493 0.930 . S
H501 C515 0.930 . S
H502 C494 0.930 . S
H503 C521 0.930 . S
H504 C512 0.930 . S
H505 C519 0.931 . S
H506 C483 0.929 . S
H507 C513 0.930 . S
H508 C546 0.930 . S
H509 C490 0.930 . S
H510 C545 0.929 . S
N511 Tb480 2.660 . S
N511 C512 1.305 . S
N511 C516 1.360 . S
C512 H504 0.930 . S
C512 N511 1.305 . S
C512 C515 1.407 . S
C513 H507 0.930 . S
C513 C514 1.410 . S
C513 C515 1.345 . S
C514 C513 1.410 . S
C514 C516 1.417 . S
C514 C546 1.432 . S
C515 H501 0.930 . S
C515 C512 1.407 . S
C515 C513 1.345 . S
C516 N511 1.360 . S
C516 C514 1.417 . S
C516 C520 1.432 . S
H517 C522 0.930 . S
N518 Tb480 2.600 . S
N518 C520 1.359 . S
N518 C521 1.327 . S
C519 H505 0.931 . S
C519 C521 1.392 . S
C519 C522 1.370 . S
C520 C516 1.432 . S
C520 N518 1.359 . S
C520 C523 1.414 . S
C521 H503 0.930 . S
C521 N518 1.327 . S
C521 C519 1.392 . S
C522 H517 0.930 . S
C522 C519 1.370 . S
C522 C523 1.385 . S
C523 C520 1.414 . S
C523 C522 1.385 . S
C523 C545 1.444 . S
O524 Tb480 2.546 . S
O524 C544 1.251 . S
O525 Tb480 2.610 . S
O525 Tb491 2.362 . S
O525 C536 1.283 1_545 S
O526 Tb491 2.421 . S
O526 C543 1.262 . S
O527 Tb480 2.320 . S
O527 C543 1.260 . S
O528 Tb480 2.552 1_565 S
O528 C536 1.243 . S
O529 Tb480 2.413 . S
O529 C544 1.256 . S
O530 Tb491 2.546 . S
O530 C555 1.251 . S
O531 Tb480 2.362 . S
O531 Tb491 2.610 . S
O531 C547 1.283 . S
O532 Tb480 2.421 . S
O532 C554 1.262 . S
O533 Tb491 2.320 . S
O533 C554 1.260 . S
O534 Tb491 2.552 . S
O534 C547 1.243 . S
O535 Tb491 2.413 . S
O535 C555 1.256 . S
C536 O525 1.283 1_565 S
C536 O528 1.243 . S
C537 C539 1.382 1_545 S
C537 C541 1.393 . S
C537 C544 1.500 . S
C538 C539 1.400 . S
C538 C540 1.384 . S
C539 C537 1.382 1_565 S
C539 C538 1.400 . S
C539 H556 0.930 . S
C540 C538 1.384 . S
C540 C542 1.392 . S
C540 H557 0.931 . S
C541 C537 1.393 . S
C541 C542 1.401 1_545 S
C541 H558 0.930 . S
C542 C540 1.392 . S
C542 C541 1.401 1_565 S
C542 H559 0.930 . S
C543 O526 1.262 . S
C543 O527 1.260 . S
C544 Tb480 2.833 . S
C544 O524 1.251 . S
C544 O529 1.256 . S
C544 C537 1.500 . S
C545 H510 0.929 . S
C545 C523 1.444 . S
C545 C546 1.317 . S
C546 H508 0.930 . S
C546 C514 1.432 . S
C546 C545 1.317 . S
C547 O531 1.283 . S
C547 O534 1.243 . S
C548 C549 1.382 . S
C548 C552 1.393 . S
C548 C555 1.500 . S
C549 C548 1.382 . S
C549 C550 1.400 . S
C549 H560 0.930 . S
C550 C549 1.400 . S
C550 C551 1.384 . S
C551 C550 1.384 . S
C551 C553 1.392 . S
C551 H561 0.931 . S
C552 C548 1.393 . S
C552 C553 1.401 . S
C552 H562 0.930 . S
C553 C551 1.392 . S
C553 C552 1.401 . S
C553 H563 0.930 . S
C554 O532 1.262 . S
C554 O533 1.260 . S
C555 Tb491 2.833 . S
C555 O530 1.251 . S
C555 O535 1.256 . S
C555 C548 1.500 . S
H556 C539 0.930 . S
H557 C540 0.931 . S
H558 C541 0.930 . S
H559 C542 0.930 . S
H560 C549 0.930 . S
H561 C551 0.931 . S
H562 C552 0.930 . S
H563 C553 0.930 . S
Tb564 N595 2.660 . S
Tb564 N602 2.600 . S
Tb564 O608 2.546 . S
Tb564 O609 2.610 . S
Tb564 O611 2.320 . S
Tb564 O612 2.552 . S
Tb564 O613 2.413 . S
Tb564 O615 2.362 . S
Tb564 O616 2.421 . S
Tb564 C628 2.833 . S
C565 C568 1.432 . S
C565 C569 1.414 . S
C565 N572 1.359 . S
C566 C568 1.417 . S
C566 C570 1.432 . S
C566 C578 1.410 . S
C567 C569 1.444 . S
C567 C570 1.317 . S
C567 H590 0.929 . S
C568 C565 1.432 . S
C568 C566 1.417 . S
C568 N576 1.360 . S
C569 C565 1.414 . S
C569 C567 1.444 . S
C569 C574 1.385 . S
C570 C566 1.432 . S
C570 C567 1.317 . S
C570 H582 0.930 . S
C571 C573 1.392 . S
C571 C574 1.370 . S
C571 H583 0.931 . S
N572 C565 1.359 . S
N572 C573 1.327 . S
N572 Tb575 2.600 . S
C573 C571 1.392 . S
C573 N572 1.327 . S
C573 H580 0.930 . S
C574 C569 1.385 . S
C574 C571 1.370 . S
C574 H593 0.930 . S
Tb575 N572 2.600 . S
Tb575 N576 2.660 . S
Tb575 O609 2.362 . S
Tb575 O610 2.421 . S
Tb575 O614 2.546 . S
Tb575 O615 2.610 . S
Tb575 O617 2.320 . S
Tb575 O618 2.552 . S
Tb575 O619 2.413 . S
Tb575 C639 2.833 . S
N576 C568 1.360 . S
N576 Tb575 2.660 . S
N576 C577 1.305 . S
C577 N576 1.305 . S
C577 C579 1.407 . S
C577 H584 0.930 . S
C578 C566 1.410 . S
C578 C579 1.345 . S
C578 H586 0.930 . S
C579 C577 1.407 . S
C579 C578 1.345 . S
C579 H581 0.930 . S
H580 C573 0.930 . S
H581 C579 0.930 . S
H582 C570 0.930 . S
H583 C571 0.931 . S
H584 C577 0.930 . S
H585 C599 0.930 . S
H586 C578 0.930 . S
H587 C605 0.930 . S
H588 C596 0.930 . S
H589 C603 0.931 . S
H590 C567 0.929 . S
H591 C597 0.930 . S
H592 C630 0.930 . S
H593 C574 0.930 . S
H594 C629 0.929 . S
N595 Tb564 2.660 . S
N595 C596 1.305 . S
N595 C600 1.360 . S
C596 H588 0.930 . S
C596 N595 1.305 . S
C596 C599 1.407 . S
C597 H591 0.930 . S
C597 C598 1.410 . S
C597 C599 1.345 . S
C598 C597 1.410 . S
C598 C600 1.417 . S
C598 C630 1.432 . S
C599 H585 0.930 . S
C599 C596 1.407 . S
C599 C597 1.345 . S
C600 N595 1.360 . S
C600 C598 1.417 . S
C600 C604 1.432 . S
H601 C606 0.930 . S
N602 Tb564 2.600 . S
N602 C604 1.359 . S
N602 C605 1.327 . S
C603 H589 0.931 . S
C603 C605 1.392 . S
C603 C606 1.370 . S
C604 C600 1.432 . S
C604 N602 1.359 . S
C604 C607 1.414 . S
C605 H587 0.930 . S
C605 N602 1.327 . S
C605 C603 1.392 . S
C606 H601 0.930 . S
C606 C603 1.370 . S
C606 C607 1.385 . S
C607 C604 1.414 . S
C607 C606 1.385 . S
C607 C629 1.444 . S
O608 Tb564 2.546 . S
O608 C628 1.251 . S
O609 Tb564 2.610 . S
O609 Tb575 2.362 . S
O609 C620 1.283 . S
O610 Tb575 2.421 . S
O610 C627 1.262 . S
O611 Tb564 2.320 . S
O611 C627 1.260 . S
O612 Tb564 2.552 . S
O612 C620 1.243 . S
O613 Tb564 2.413 . S
O613 C628 1.256 . S
O614 Tb575 2.546 . S
O614 C639 1.251 . S
O615 Tb564 2.362 . S
O615 Tb575 2.610 . S
O615 C631 1.283 . S
O616 Tb564 2.421 . S
O616 C638 1.262 . S
O617 Tb575 2.320 . S
O617 C638 1.260 . S
O618 Tb575 2.552 . S
O618 C631 1.243 . S
O619 Tb575 2.413 . S
O619 C639 1.256 . S
C620 O609 1.283 . S
C620 O612 1.243 . S
C621 C623 1.382 . S
C621 C625 1.393 . S
C621 C628 1.500 . S
C622 C623 1.400 . S
C622 C624 1.384 . S
C623 C621 1.382 . S
C623 C622 1.400 . S
C623 H640 0.930 . S
C624 C622 1.384 . S
C624 C626 1.392 . S
C624 H641 0.931 . S
C625 C621 1.393 . S
C625 C626 1.401 . S
C625 H642 0.930 . S
C626 C624 1.392 . S
C626 C625 1.401 . S
C626 H643 0.930 . S
C627 O610 1.262 . S
C627 O611 1.260 . S
C628 Tb564 2.833 . S
C628 O608 1.251 . S
C628 O613 1.256 . S
C628 C621 1.500 . S
C629 H594 0.929 . S
C629 C607 1.444 . S
C629 C630 1.317 . S
C630 H592 0.930 . S
C630 C598 1.432 . S
C630 C629 1.317 . S
C631 O615 1.283 . S
C631 O618 1.243 . S
C632 C633 1.382 . S
C632 C636 1.393 . S
C632 C639 1.500 . S
C633 C632 1.382 . S
C633 C634 1.400 . S
C633 H644 0.930 . S
C634 C633 1.400 . S
C634 C635 1.384 . S
C635 C634 1.384 . S
C635 C637 1.392 . S
C635 H645 0.931 . S
C636 C632 1.393 . S
C636 C637 1.401 . S
C636 H646 0.930 . S
C637 C635 1.392 . S
C637 C636 1.401 . S
C637 H647 0.930 . S
C638 O616 1.262 . S
C638 O617 1.260 . S
C639 Tb575 2.833 . S
C639 O614 1.251 . S
C639 O619 1.256 . S
C639 C632 1.500 . S
H640 C623 0.930 . S
H641 C624 0.931 . S
H642 C625 0.930 . S
H643 C626 0.930 . S
H644 C633 0.930 . S
H645 C635 0.931 . S
H646 C636 0.930 . S
H647 C637 0.930 . S
Tb648 N679 2.660 . S
Tb648 N686 2.600 . S
Tb648 O692 2.546 . S
Tb648 O693 2.610 . S
Tb648 O695 2.320 . S
Tb648 O696 2.552 . S
Tb648 O697 2.413 . S
Tb648 O699 2.362 . S
Tb648 O700 2.421 . S
Tb648 C712 2.833 . S
C649 C652 1.432 . S
C649 C653 1.414 . S
C649 N656 1.359 . S
C650 C652 1.417 . S
C650 C654 1.432 . S
C650 C662 1.410 . S
C651 C653 1.444 . S
C651 C654 1.317 . S
C651 H674 0.929 . S
C652 C649 1.432 . S
C652 C650 1.417 . S
C652 N660 1.360 . S
C653 C649 1.414 . S
C653 C651 1.444 . S
C653 C658 1.385 . S
C654 C650 1.432 . S
C654 C651 1.317 . S
C654 H666 0.930 . S
C655 C657 1.392 . S
C655 C658 1.370 . S
C655 H667 0.931 . S
N656 C649 1.359 . S
N656 C657 1.327 . S
N656 Tb659 2.601 . S
C657 C655 1.392 . S
C657 N656 1.327 . S
C657 H664 0.930 . S
C658 C653 1.385 . S
C658 C655 1.370 . S
C658 H677 0.930 . S
Tb659 N656 2.601 . S
Tb659 N660 2.660 . S
Tb659 O693 2.359 1_565 S
Tb659 O694 2.419 1_565 S
Tb659 O698 2.548 . S
Tb659 O699 2.608 1_565 S
Tb659 O701 2.325 . S
Tb659 O702 2.552 1_565 S
Tb659 O703 2.416 . S
Tb659 C723 2.836 . S
N660 C652 1.360 . S
N660 Tb659 2.660 . S
N660 C661 1.305 . S
C661 N660 1.305 . S
C661 C663 1.407 . S
C661 H668 0.930 . S
C662 C650 1.410 . S
C662 C663 1.345 . S
C662 H670 0.930 . S
C663 C661 1.407 . S
C663 C662 1.345 . S
C663 H665 0.930 1_455 S
H664 C657 0.930 . S
H665 C663 0.930 1_655 S
H666 C654 0.930 . S
H667 C655 0.931 . S
H668 C661 0.930 . S
H669 C683 0.930 . S
H670 C662 0.930 . S
H671 C689 0.930 . S
H672 C680 0.930 . S
H673 C687 0.931 1_655 S
H674 C651 0.929 . S
H675 C681 0.930 . S
H676 C714 0.930 . S
H677 C658 0.930 . S
H678 C713 0.929 . S
N679 Tb648 2.660 . S
N679 C680 1.305 . S
N679 C684 1.360 . S
C680 H672 0.930 . S
C680 N679 1.305 . S
C680 C683 1.407 . S
C681 H675 0.930 . S
C681 C682 1.410 . S
C681 C683 1.345 . S
C682 C681 1.410 . S
C682 C684 1.417 . S
C682 C714 1.432 . S
C683 H669 0.930 . S
C683 C680 1.407 . S
C683 C681 1.345 . S
C684 N679 1.360 . S
C684 C682 1.417 . S
C684 C688 1.432 . S
H685 C690 0.930 . S
N686 Tb648 2.600 . S
N686 C688 1.359 . S
N686 C689 1.327 . S
C687 H673 0.931 1_455 S
C687 C689 1.392 . S
C687 C690 1.370 . S
C688 C684 1.432 . S
C688 N686 1.359 . S
C688 C691 1.414 . S
C689 H671 0.930 . S
C689 N686 1.327 . S
C689 C687 1.392 . S
C690 H685 0.930 . S
C690 C687 1.370 . S
C690 C691 1.385 . S
C691 C688 1.414 . S
C691 C690 1.385 . S
C691 C713 1.444 . S
O692 Tb648 2.546 . S
O692 C712 1.251 . S
O693 Tb648 2.610 . S
O693 Tb659 2.359 1_545 S
O693 C704 1.283 . S
O694 Tb659 2.419 1_545 S
O694 C711 1.262 . S
O695 Tb648 2.320 . S
O695 C711 1.260 . S
O696 Tb648 2.552 . S
O696 C704 1.243 . S
O697 Tb648 2.413 . S
O697 C712 1.256 . S
O698 Tb659 2.548 . S
O698 C723 1.251 . S
O699 Tb648 2.362 . S
O699 Tb659 2.608 1_545 S
O699 C715 1.283 . S
O700 Tb648 2.421 . S
O700 C722 1.262 . S
O701 Tb659 2.325 . S
O701 C722 1.239 1_565 S
O702 Tb659 2.552 1_545 S
O702 C715 1.243 . S
O703 Tb659 2.416 . S
O703 C723 1.256 . S
C704 O693 1.283 . S
C704 O696 1.243 . S
C705 C707 1.382 . S
C705 C709 1.393 . S
C705 C712 1.500 . S
C706 C707 1.400 . S
C706 C708 1.384 . S
C707 C705 1.382 . S
C707 C706 1.400 . S
C707 H724 0.930 . S
C708 C706 1.384 . S
C708 C710 1.392 . S
C708 H725 0.931 . S
C709 C705 1.393 . S
C709 C710 1.401 . S
C709 H726 0.930 . S
C710 C708 1.392 . S
C710 C709 1.401 . S
C710 H727 0.930 . S
C711 O694 1.262 . S
C711 O695 1.260 . S
C712 Tb648 2.833 . S
C712 O692 1.251 . S
C712 O697 1.256 . S
C712 C705 1.500 . S
C713 H678 0.929 . S
C713 C691 1.444 . S
C713 C714 1.317 . S
C714 H676 0.930 . S
C714 C682 1.432 . S
C714 C713 1.317 . S
C715 O699 1.283 . S
C715 O702 1.243 . S
C716 C717 1.382 . S
C716 C720 1.393 . S
C716 C723 1.500 . S
C717 C716 1.382 . S
C717 C718 1.400 . S
C717 H728 0.930 . S
C718 C717 1.400 . S
C718 C719 1.384 . S
C719 C718 1.384 . S
C719 C721 1.392 . S
C719 H729 0.931 . S
C720 C716 1.393 . S
C720 C721 1.401 . S
C720 H730 0.930 . S
C721 C719 1.392 . S
C721 C720 1.401 . S
C721 H731 0.930 . S
C722 O700 1.262 . S
C722 O701 1.239 1_545 S
C723 Tb659 2.836 . S
C723 O698 1.251 . S
C723 O703 1.256 . S
C723 C716 1.500 . S
H724 C707 0.930 . S
H725 C708 0.931 . S
H726 C709 0.930 . S
H727 C710 0.930 . S
H728 C717 0.930 . S
H729 C719 0.931 . S
H730 C720 0.930 . S
H731 C721 0.930 . S
Tb732 N763 2.660 . S
Tb732 N770 2.600 . S
Tb732 O776 2.546 . S
Tb732 O777 2.610 . S
Tb732 O779 2.320 . S
Tb732 O780 2.552 . S
Tb732 O781 2.413 . S
Tb732 O783 2.362 . S
Tb732 O784 2.421 . S
Tb732 C796 2.833 . S
C733 C736 1.432 . S
C733 C737 1.414 . S
C733 N740 1.359 . S
C734 C736 1.417 . S
C734 C738 1.432 . S
C734 C746 1.410 . S
C735 C737 1.444 . S
C735 C738 1.317 . S
C735 H758 0.929 . S
C736 C733 1.432 . S
C736 C734 1.417 . S
C736 N744 1.360 . S
C737 C733 1.414 . S
C737 C735 1.444 . S
C737 C742 1.385 . S
C738 C734 1.432 . S
C738 C735 1.317 . S
C738 H750 0.930 . S
C739 C741 1.392 . S
C739 C742 1.370 . S
C739 H751 0.931 . S
N740 C733 1.359 . S
N740 C741 1.327 . S
N740 Tb743 2.600 . S
C741 C739 1.392 . S
C741 N740 1.327 . S
C741 H748 0.930 . S
C742 C737 1.385 . S
C742 C739 1.370 . S
C742 H761 0.930 . S
Tb743 N740 2.600 . S
Tb743 N744 2.660 . S
Tb743 O777 2.362 . S
Tb743 O778 2.421 . S
Tb743 O782 2.546 . S
Tb743 O783 2.610 . S
Tb743 O785 2.320 . S
Tb743 O786 2.552 . S
Tb743 O787 2.413 . S
Tb743 C807 2.833 . S
N744 C736 1.360 . S
N744 Tb743 2.660 . S
N744 C745 1.305 . S
C745 N744 1.305 . S
C745 C747 1.407 . S
C745 H752 0.930 . S
C746 C734 1.410 . S
C746 C747 1.345 . S
C746 H754 0.930 . S
C747 C745 1.407 . S
C747 C746 1.345 . S
C747 H749 0.930 . S
H748 C741 0.930 . S
H749 C747 0.930 . S
H750 C738 0.930 . S
H751 C739 0.931 . S
H752 C745 0.930 . S
H753 C767 0.930 . S
H754 C746 0.930 . S
H755 C773 0.930 . S
H756 C764 0.930 . S
H757 C771 0.931 . S
H758 C735 0.929 . S
H759 C765 0.930 . S
H760 C798 0.930 . S
H761 C742 0.930 . S
H762 C797 0.929 . S
N763 Tb732 2.660 . S
N763 C764 1.305 . S
N763 C768 1.360 . S
C764 H756 0.930 . S
C764 N763 1.305 . S
C764 C767 1.407 . S
C765 H759 0.930 . S
C765 C766 1.410 . S
C765 C767 1.345 . S
C766 C765 1.410 . S
C766 C768 1.417 . S
C766 C798 1.432 . S
C767 H753 0.930 . S
C767 C764 1.407 . S
C767 C765 1.345 . S
C768 N763 1.360 . S
C768 C766 1.417 . S
C768 C772 1.432 . S
H769 C774 0.930 . S
N770 Tb732 2.600 . S
N770 C772 1.359 . S
N770 C773 1.327 . S
C771 H757 0.931 . S
C771 C773 1.392 . S
C771 C774 1.370 . S
C772 C768 1.432 . S
C772 N770 1.359 . S
C772 C775 1.414 . S
C773 H755 0.930 . S
C773 N770 1.327 . S
C773 C771 1.392 . S
C774 H769 0.930 . S
C774 C771 1.370 . S
C774 C775 1.385 . S
C775 C772 1.414 . S
C775 C774 1.385 . S
C775 C797 1.444 . S
O776 Tb732 2.546 . S
O776 C796 1.251 . S
O777 Tb732 2.610 . S
O777 Tb743 2.362 . S
O777 C788 1.283 . S
O778 Tb743 2.421 . S
O778 C795 1.262 . S
O779 Tb732 2.320 . S
O779 C795 1.260 . S
O780 Tb732 2.552 . S
O780 C788 1.243 . S
O781 Tb732 2.413 . S
O781 C796 1.256 . S
O782 Tb743 2.546 . S
O782 C807 1.251 . S
O783 Tb732 2.362 . S
O783 Tb743 2.610 . S
O783 C799 1.283 . S
O784 Tb732 2.421 . S
O784 C806 1.262 . S
O785 Tb743 2.320 . S
O785 C806 1.260 . S
O786 Tb743 2.552 . S
O786 C799 1.243 . S
O787 Tb743 2.413 . S
O787 C807 1.256 . S
C788 O777 1.283 . S
C788 O780 1.243 . S
C789 C791 1.382 . S
C789 C793 1.393 . S
C789 C796 1.500 . S
C790 C791 1.400 . S
C790 C792 1.384 . S
C791 C789 1.382 . S
C791 C790 1.400 . S
C791 H808 0.930 . S
C792 C790 1.384 . S
C792 C794 1.392 . S
C792 H809 0.931 . S
C793 C789 1.393 . S
C793 C794 1.401 . S
C793 H810 0.930 . S
C794 C792 1.392 . S
C794 C793 1.401 . S
C794 H811 0.930 . S
C795 O778 1.262 . S
C795 O779 1.260 . S
C796 Tb732 2.833 . S
C796 O776 1.251 . S
C796 O781 1.256 . S
C796 C789 1.500 . S
C797 H762 0.929 . S
C797 C775 1.444 . S
C797 C798 1.317 . S
C798 H760 0.930 . S
C798 C766 1.432 . S
C798 C797 1.317 . S
C799 O783 1.283 . S
C799 O786 1.243 . S
C800 C801 1.382 . S
C800 C804 1.393 . S
C800 C807 1.500 . S
C801 C800 1.382 . S
C801 C802 1.400 . S
C801 H812 0.930 . S
C802 C801 1.400 . S
C802 C803 1.384 . S
C803 C802 1.384 . S
C803 C805 1.392 . S
C803 H813 0.931 . S
C804 C800 1.393 . S
C804 C805 1.401 . S
C804 H814 0.930 . S
C805 C803 1.392 . S
C805 C804 1.401 . S
C805 H815 0.930 . S
C806 O784 1.262 . S
C806 O785 1.260 . S
C807 Tb743 2.833 . S
C807 O782 1.251 . S
C807 O787 1.256 . S
C807 C800 1.500 . S
H808 C791 0.930 . S
H809 C792 0.931 . S
H810 C793 0.930 . S
H811 C794 0.930 . S
H812 C801 0.930 . S
H813 C803 0.931 . S
H814 C804 0.930 . S
H815 C805 0.930 . S
Tb816 N847 2.660 . S
Tb816 N854 2.600 . S
Tb816 O860 2.546 . S
Tb816 O861 2.610 . S
Tb816 O863 2.320 . S
Tb816 O864 2.552 . S
Tb816 O865 2.413 . S
Tb816 O867 2.362 . S
Tb816 O868 2.421 . S
Tb816 C880 2.833 . S
C817 C820 1.432 . S
C817 C821 1.414 . S
C817 N824 1.359 . S
C818 C820 1.417 . S
C818 C822 1.432 . S
C818 C830 1.410 . S
C819 C821 1.444 . S
C819 C822 1.317 . S
C819 H842 0.929 . S
C820 C817 1.432 . S
C820 C818 1.417 . S
C820 N828 1.360 . S
C821 C817 1.414 . S
C821 C819 1.444 . S
C821 C826 1.385 . S
C822 C818 1.432 . S
C822 C819 1.317 . S
C822 H834 0.930 . S
C823 C825 1.392 . S
C823 C826 1.370 . S
C823 H835 0.931 . S
N824 C817 1.359 . S
N824 C825 1.327 . S
N824 Tb827 2.600 . S
C825 C823 1.392 . S
C825 N824 1.327 . S
C825 H832 0.930 . S
C826 C821 1.385 . S
C826 C823 1.370 . S
C826 H845 0.930 . S
Tb827 N824 2.600 . S
Tb827 N828 2.660 . S
Tb827 O861 2.362 1_556 S
Tb827 O862 2.421 1_556 S
Tb827 O866 2.546 . S
Tb827 O867 2.610 1_556 S
Tb827 O869 2.320 . S
Tb827 O870 2.552 . S
Tb827 O871 2.413 . S
Tb827 C891 2.833 . S
N828 C820 1.360 . S
N828 Tb827 2.660 . S
N828 C829 1.305 . S
C829 N828 1.305 . S
C829 C831 1.407 1_545 S
C829 H836 0.930 . S
C830 C818 1.410 . S
C830 C831 1.345 1_545 S
C830 H838 0.930 1_545 S
C831 C829 1.407 1_565 S
C831 C830 1.345 1_565 S
C831 H833 0.930 . S
H832 C825 0.930 . S
H833 C831 0.930 . S
H834 C822 0.930 . S
H835 C823 0.931 . S
H836 C829 0.930 . S
H837 C851 0.930 . S
H838 C830 0.930 1_565 S
H839 C857 0.930 1_565 S
H840 C848 0.930 . S
H841 C855 0.931 . S
H842 C819 0.929 . S
H843 C849 0.930 . S
H844 C882 0.930 . S
H845 C826 0.930 . S
H846 C881 0.929 . S
N847 Tb816 2.660 . S
N847 C848 1.305 . S
N847 C852 1.360 . S
C848 H840 0.930 . S
C848 N847 1.305 . S
C848 C851 1.407 . S
C849 H843 0.930 . S
C849 C850 1.410 . S
C849 C851 1.345 . S
C850 C849 1.410 . S
C850 C852 1.417 . S
C850 C882 1.432 . S
C851 H837 0.930 . S
C851 C848 1.407 . S
C851 C849 1.345 . S
C852 N847 1.360 . S
C852 C850 1.417 . S
C852 C856 1.432 . S
H853 C858 0.887 1_565 S
N854 Tb816 2.600 . S
N854 C856 1.359 . S
N854 C857 1.327 . S
C855 H841 0.931 . S
C855 C857 1.392 1_565 S
C855 C858 1.370 1_565 S
C856 C852 1.432 . S
C856 N854 1.359 . S
C856 C859 1.414 . S
C857 H839 0.930 1_545 S
C857 N854 1.327 . S
C857 C855 1.392 1_545 S
C858 H853 0.887 1_545 S
C858 C855 1.370 1_545 S
C858 C859 1.385 . S
C859 C856 1.414 . S
C859 C858 1.385 . S
C859 C881 1.444 . S
O860 Tb816 2.546 . S
O860 C880 1.251 . S
O861 Tb816 2.610 . S
O861 Tb827 2.362 1_554 S
O861 C872 1.283 . S
O862 Tb827 2.421 1_554 S
O862 C879 1.262 . S
O863 Tb816 2.320 . S
O863 C879 1.260 . S
O864 Tb816 2.552 . S
O864 C872 1.243 . S
O865 Tb816 2.413 . S
O865 C880 1.256 . S
O866 Tb827 2.546 . S
O866 C891 1.251 . S
O867 Tb816 2.362 . S
O867 Tb827 2.610 1_554 S
O867 C883 1.283 . S
O868 Tb816 2.421 . S
O868 C890 1.262 1_554 S
O869 Tb827 2.320 . S
O869 C890 1.260 . S
O870 Tb827 2.552 . S
O870 C883 1.243 1_556 S
O871 Tb827 2.413 . S
O871 C891 1.256 . S
C872 O861 1.283 . S
C872 O864 1.243 . S
C873 C875 1.382 . S
C873 C877 1.393 . S
C873 C880 1.500 . S
C874 C875 1.400 . S
C874 C876 1.384 . S
C875 C873 1.382 . S
C875 C874 1.400 . S
C875 H892 0.930 . S
C876 C874 1.384 . S
C876 C878 1.392 . S
C876 H893 0.931 . S
C877 C873 1.393 . S
C877 C878 1.401 . S
C877 H894 0.930 1_545 S
C878 C876 1.392 . S
C878 C877 1.401 . S
C878 H895 0.930 1_545 S
C879 O862 1.262 . S
C879 O863 1.260 . S
C880 Tb816 2.833 . S
C880 O860 1.251 . S
C880 O865 1.256 . S
C880 C873 1.500 . S
C881 H846 0.929 . S
C881 C859 1.444 . S
C881 C882 1.317 . S
C882 H844 0.930 . S
C882 C850 1.432 . S
C882 C881 1.317 . S
C883 O867 1.283 . S
C883 O870 1.243 1_554 S
C884 C885 1.382 . S
C884 C888 1.393 . S
C884 C891 1.500 . S
C885 C884 1.382 . S
C885 C886 1.400 . S
C885 H896 0.930 . S
C886 C885 1.400 . S
C886 C887 1.384 . S
C887 C886 1.384 . S
C887 C889 1.392 . S
C887 H897 0.931 . S
C888 C884 1.393 . S
C888 C889 1.401 . S
C888 H898 0.930 . S
C889 C887 1.392 . S
C889 C888 1.401 . S
C889 H899 0.930 . S
C890 O868 1.262 1_556 S
C890 O869 1.260 . S
C891 Tb827 2.833 . S
C891 O866 1.251 . S
C891 O871 1.256 . S
C891 C884 1.500 . S
H892 C875 0.930 . S
H893 C876 0.931 . S
H894 C877 0.930 1_565 S
H895 C878 0.930 1_565 S
H896 C885 0.930 . S
H897 C887 0.931 . S
H898 C888 0.930 . S
H899 C889 0.930 . S
Tb900 N931 2.660 . S
Tb900 N938 2.600 . S
Tb900 O944 2.546 . S
Tb900 O945 2.610 . S
Tb900 O947 2.320 . S
Tb900 O948 2.552 . S
Tb900 O949 2.413 . S
Tb900 O951 2.362 . S
Tb900 O952 2.421 . S
Tb900 C964 2.833 . S
C901 C904 1.432 . S
C901 C905 1.414 . S
C901 N908 1.359 . S
C902 C904 1.417 . S
C902 C906 1.432 . S
C902 C914 1.410 . S
C903 C905 1.444 . S
C903 C906 1.317 . S
C903 H926 0.929 . S
C904 C901 1.432 . S
C904 C902 1.417 . S
C904 N912 1.360 . S
C905 C901 1.414 . S
C905 C903 1.444 . S
C905 C910 1.385 . S
C906 C902 1.432 . S
C906 C903 1.317 . S
C906 H918 0.930 . S
C907 C909 1.392 . S
C907 C910 1.370 . S
C907 H919 0.931 . S
N908 C901 1.359 . S
N908 C909 1.327 . S
N908 Tb911 2.600 . S
C909 C907 1.392 . S
C909 N908 1.327 . S
C909 H916 0.930 . S
C910 C905 1.385 . S
C910 C907 1.370 . S
C910 H929 0.930 . S
Tb911 N908 2.600 . S
Tb911 N912 2.660 . S
Tb911 O945 2.362 . S
Tb911 O946 2.421 . S
Tb911 O950 2.546 . S
Tb911 O951 2.610 . S
Tb911 O953 2.320 . S
Tb911 O954 2.552 . S
Tb911 O955 2.413 . S
Tb911 C975 2.833 . S
N912 C904 1.360 . S
N912 Tb911 2.660 . S
N912 C913 1.305 . S
C913 N912 1.305 . S
C913 C915 1.407 . S
C913 H920 0.930 . S
C914 C902 1.410 . S
C914 C915 1.345 . S
C914 H922 0.930 . S
C915 C913 1.407 . S
C915 C914 1.345 . S
C915 H917 0.930 . S
H916 C909 0.930 . S
H917 C915 0.930 . S
H918 C906 0.930 . S
H919 C907 0.931 . S
H920 C913 0.930 . S
H921 C935 0.930 . S
H922 C914 0.930 . S
H923 C941 0.930 . S
H924 C932 0.930 . S
H925 C939 0.931 . S
H926 C903 0.929 . S
H927 C933 0.930 . S
H928 C966 0.930 . S
H929 C910 0.930 . S
H930 C965 0.929 . S
N931 Tb900 2.660 . S
N931 C932 1.305 . S
N931 C936 1.360 . S
C932 H924 0.930 . S
C932 N931 1.305 . S
C932 C935 1.407 . S
C933 H927 0.930 . S
C933 C934 1.410 . S
C933 C935 1.345 . S
C934 C933 1.410 . S
C934 C936 1.417 . S
C934 C966 1.432 . S
C935 H921 0.930 . S
C935 C932 1.407 . S
C935 C933 1.345 . S
C936 N931 1.360 . S
C936 C934 1.417 . S
C936 C940 1.432 . S
H937 C942 0.930 . S
N938 Tb900 2.600 . S
N938 C940 1.359 . S
N938 C941 1.327 . S
C939 H925 0.931 . S
C939 C941 1.392 . S
C939 C942 1.370 . S
C940 C936 1.432 . S
C940 N938 1.359 . S
C940 C943 1.414 . S
C941 H923 0.930 . S
C941 N938 1.327 . S
C941 C939 1.392 . S
C942 H937 0.930 . S
C942 C939 1.370 . S
C942 C943 1.385 . S
C943 C940 1.414 . S
C943 C942 1.385 . S
C943 C965 1.444 . S
O944 Tb900 2.546 . S
O944 C964 1.251 . S
O945 Tb900 2.610 . S
O945 Tb911 2.362 . S
O945 C956 1.283 . S
O946 Tb911 2.421 . S
O946 C963 1.262 . S
O947 Tb900 2.320 . S
O947 C963 1.260 . S
O948 Tb900 2.552 . S
O948 C956 1.243 . S
O949 Tb900 2.413 . S
O949 C964 1.256 . S
O950 Tb911 2.546 . S
O950 C975 1.251 . S
O951 Tb900 2.362 . S
O951 Tb911 2.610 . S
O951 C967 1.283 . S
O952 Tb900 2.421 . S
O952 C974 1.262 . S
O953 Tb911 2.320 . S
O953 C974 1.260 . S
O954 Tb911 2.552 . S
O954 C967 1.243 . S
O955 Tb911 2.413 . S
O955 C975 1.256 . S
C956 O945 1.283 . S
C956 O948 1.243 . S
C957 C959 1.382 . S
C957 C961 1.393 . S
C957 C964 1.500 . S
C958 C959 1.400 . S
C958 C960 1.384 . S
C959 C957 1.382 . S
C959 C958 1.400 . S
C959 H976 0.930 . S
C960 C958 1.384 . S
C960 C962 1.392 . S
C960 H977 0.931 . S
C961 C957 1.393 . S
C961 C962 1.401 . S
C961 H978 0.930 . S
C962 C960 1.392 . S
C962 C961 1.401 . S
C962 H979 0.930 . S
C963 O946 1.262 . S
C963 O947 1.260 . S
C964 Tb900 2.833 . S
C964 O944 1.251 . S
C964 O949 1.256 . S
C964 C957 1.500 . S
C965 H930 0.929 . S
C965 C943 1.444 . S
C965 C966 1.317 . S
C966 H928 0.930 . S
C966 C934 1.432 . S
C966 C965 1.317 . S
C967 O951 1.283 . S
C967 O954 1.243 . S
C968 C969 1.382 . S
C968 C972 1.393 . S
C968 C975 1.500 . S
C969 C968 1.382 . S
C969 C970 1.400 . S
C969 H980 0.930 . S
C970 C969 1.400 . S
C970 C971 1.384 . S
C971 C970 1.384 . S
C971 C973 1.392 . S
C971 H981 0.931 . S
C972 C968 1.393 . S
C972 C973 1.401 . S
C972 H982 0.930 . S
C973 C971 1.392 . S
C973 C972 1.401 . S
C973 H983 0.930 . S
C974 O952 1.262 . S
C974 O953 1.260 . S
C975 Tb911 2.833 . S
C975 O950 1.251 . S
C975 O955 1.256 . S
C975 C968 1.500 . S
H976 C959 0.930 . S
H977 C960 0.931 . S
H978 C961 0.930 . S
H979 C962 0.930 . S
H980 C969 0.930 . S
H981 C971 0.931 . S
H982 C972 0.930 . S
H983 C973 0.930 . S
Tb984 N1015 2.660 . S
Tb984 N1022 2.600 . S
Tb984 O1028 2.546 . S
Tb984 O1029 2.610 1_554 S
Tb984 O1031 2.320 . S
Tb984 O1032 2.552 1_554 S
Tb984 O1033 2.413 . S
Tb984 O1035 2.362 . S
Tb984 O1036 2.421 . S
Tb984 C1048 2.833 . S
C985 C988 1.432 . S
C985 C989 1.414 . S
C985 N992 1.359 . S
C986 C988 1.417 . S
C986 C990 1.432 . S
C986 C998 1.410 . S
C987 C989 1.444 . S
C987 C990 1.317 . S
C987 H1010 0.929 . S
C988 C985 1.432 . S
C988 C986 1.417 . S
C988 N996 1.360 . S
C989 C985 1.414 . S
C989 C987 1.444 . S
C989 C994 1.385 . S
C990 C986 1.432 . S
C990 C987 1.317 . S
C990 H1002 0.930 . S
C991 C993 1.392 . S
C991 C994 1.370 . S
C991 H1003 0.931 . S
N992 C985 1.359 . S
N992 C993 1.327 . S
N992 Tb995 2.600 1_556 S
C993 C991 1.392 . S
C993 N992 1.327 . S
C993 H1000 0.930 . S
C994 C989 1.385 . S
C994 C991 1.370 . S
C994 H1013 0.930 . S
Tb995 N992 2.600 1_554 S
Tb995 N996 2.660 1_554 S
Tb995 O1029 2.362 1_554 S
Tb995 O1030 2.421 . S
Tb995 O1034 2.546 . S
Tb995 O1035 2.610 . S
Tb995 O1037 2.320 . S
Tb995 O1038 2.552 . S
Tb995 O1039 2.413 . S
Tb995 C1059 2.833 . S
N996 C988 1.360 . S
N996 Tb995 2.660 1_556 S
N996 C997 1.305 . S
C997 N996 1.305 . S
C997 C999 1.407 . S
C997 H1004 0.930 . S
C998 C986 1.410 . S
C998 C999 1.345 . S
C998 H1006 0.930 . S
C999 C997 1.407 . S
C999 C998 1.345 . S
C999 H1001 0.930 . S
H1000 C993 0.930 . S
H1001 C999 0.930 . S
H1002 C990 0.930 . S
H1003 C991 0.931 . S
H1004 C997 0.930 . S
H1005 C1019 0.930 . S
H1006 C998 0.930 . S
H1007 C1025 0.930 . S
H1008 C1016 0.930 . S
H1009 C1023 0.931 . S
H1010 C987 0.929 . S
H1011 C1017 0.930 . S
H1012 C1050 0.930 . S
H1013 C994 0.930 . S
H1014 C1049 0.929 . S
N1015 Tb984 2.660 . S
N1015 C1016 1.305 . S
N1015 C1020 1.360 . S
C1016 H1008 0.930 . S
C1016 N1015 1.305 . S
C1016 C1019 1.407 . S
C1017 H1011 0.930 . S
C1017 C1018 1.410 . S
C1017 C1019 1.345 . S
C1018 C1017 1.410 . S
C1018 C1020 1.417 . S
C1018 C1050 1.432 . S
C1019 H1005 0.930 . S
C1019 C1016 1.407 . S
C1019 C1017 1.345 . S
C1020 N1015 1.360 . S
C1020 C1018 1.417 . S
C1020 C1024 1.432 . S
H1021 C1026 0.930 . S
N1022 Tb984 2.600 . S
N1022 C1024 1.359 . S
N1022 C1025 1.327 . S
C1023 H1009 0.931 . S
C1023 C1025 1.392 . S
C1023 C1026 1.370 . S
C1024 C1020 1.432 . S
C1024 N1022 1.359 . S
C1024 C1027 1.414 . S
C1025 H1007 0.930 . S
C1025 N1022 1.327 . S
C1025 C1023 1.392 . S
C1026 H1021 0.930 . S
C1026 C1023 1.370 . S
C1026 C1027 1.385 . S
C1027 C1024 1.414 . S
C1027 C1026 1.385 . S
C1027 C1049 1.444 . S
O1028 Tb984 2.546 . S
O1028 C1048 1.251 . S
O1029 Tb984 2.610 1_556 S
O1029 Tb995 2.362 1_556 S
O1029 C1040 1.283 . S
O1030 Tb995 2.421 . S
O1030 C1047 1.262 . S
O1031 Tb984 2.320 . S
O1031 C1047 1.260 . S
O1032 Tb984 2.552 1_556 S
O1032 C1040 1.243 . S
O1033 Tb984 2.413 . S
O1033 C1048 1.256 . S
O1034 Tb995 2.546 . S
O1034 C1059 1.251 . S
O1035 Tb984 2.362 . S
O1035 Tb995 2.610 . S
O1035 C1051 1.283 . S
O1036 Tb984 2.421 . S
O1036 C1058 1.262 . S
O1037 Tb995 2.320 . S
O1037 C1058 1.260 . S
O1038 Tb995 2.552 . S
O1038 C1051 1.243 . S
O1039 Tb995 2.413 . S
O1039 C1059 1.256 . S
C1040 O1029 1.283 . S
C1040 O1032 1.243 . S
C1041 C1043 1.382 1_554 S
C1041 C1045 1.393 . S
C1041 C1048 1.500 . S
C1042 C1043 1.400 . S
C1042 C1044 1.384 . S
C1043 C1041 1.382 1_556 S
C1043 C1042 1.400 . S
C1043 H1060 0.930 . S
C1044 C1042 1.384 . S
C1044 C1046 1.392 1_556 S
C1044 H1061 0.931 . S
C1045 C1041 1.393 . S
C1045 C1046 1.401 . S
C1045 H1062 0.930 . S
C1046 C1044 1.392 1_554 S
C1046 C1045 1.401 . S
C1046 H1063 0.930 . S
C1047 O1030 1.262 . S
C1047 O1031 1.260 . S
C1048 Tb984 2.833 . S
C1048 O1028 1.251 . S
C1048 O1033 1.256 . S
C1048 C1041 1.500 . S
C1049 H1014 0.929 . S
C1049 C1027 1.444 . S
C1049 C1050 1.317 . S
C1050 H1012 0.930 . S
C1050 C1018 1.432 . S
C1050 C1049 1.317 . S
C1051 O1035 1.283 . S
C1051 O1038 1.243 . S
C1052 C1053 1.382 . S
C1052 C1056 1.393 . S
C1052 C1059 1.500 . S
C1053 C1052 1.382 . S
C1053 C1054 1.400 . S
C1053 H1064 0.930 . S
C1054 C1053 1.400 . S
C1054 C1055 1.384 . S
C1055 C1054 1.384 . S
C1055 C1057 1.392 . S
C1055 H1065 0.931 . S
C1056 C1052 1.393 . S
C1056 C1057 1.401 . S
C1056 H1066 0.930 . S
C1057 C1055 1.392 . S
C1057 C1056 1.401 . S
C1057 H1067 0.930 . S
C1058 O1036 1.262 . S
C1058 O1037 1.260 . S
C1059 Tb995 2.833 . S
C1059 O1034 1.251 . S
C1059 O1039 1.256 . S
C1059 C1052 1.500 . S
H1060 C1043 0.930 . S
H1061 C1044 0.931 . S
H1062 C1045 0.930 . S
H1063 C1046 0.930 . S
H1064 C1053 0.930 . S
H1065 C1055 0.931 . S
H1066 C1056 0.930 . S
H1067 C1057 0.930 . S
Tb1068 N1099 2.660 . S
Tb1068 N1106 2.600 . S
Tb1068 O1112 2.546 . S
Tb1068 O1113 2.610 . S
Tb1068 O1115 2.320 . S
Tb1068 O1116 2.552 . S
Tb1068 O1117 2.413 . S
Tb1068 O1119 2.362 . S
Tb1068 O1120 2.421 . S
Tb1068 C1132 2.833 . S
C1069 C1072 1.432 . S
C1069 C1073 1.414 . S
C1069 N1076 1.359 . S
C1070 C1072 1.417 . S
C1070 C1074 1.432 . S
C1070 C1082 1.410 . S
C1071 C1073 1.444 . S
C1071 C1074 1.317 . S
C1071 H1094 0.929 . S
C1072 C1069 1.432 . S
C1072 C1070 1.417 . S
C1072 N1080 1.360 . S
C1073 C1069 1.414 . S
C1073 C1071 1.444 . S
C1073 C1078 1.385 . S
C1074 C1070 1.432 . S
C1074 C1071 1.317 . S
C1074 H1086 0.930 . S
C1075 C1077 1.392 . S
C1075 C1078 1.370 . S
C1075 H1087 0.931 . S
N1076 C1069 1.359 . S
N1076 C1077 1.327 . S
N1076 Tb1079 2.600 . S
C1077 C1075 1.392 . S
C1077 N1076 1.327 . S
C1077 H1084 0.930 . S
C1078 C1073 1.385 . S
C1078 C1075 1.370 . S
C1078 H1097 0.930 . S
Tb1079 N1076 2.600 . S
Tb1079 N1080 2.660 . S
Tb1079 O1113 2.362 . S
Tb1079 O1114 2.421 . S
Tb1079 O1118 2.546 . S
Tb1079 O1119 2.610 . S
Tb1079 O1121 2.320 . S
Tb1079 O1122 2.552 . S
Tb1079 O1123 2.413 . S
Tb1079 C1143 2.833 . S
N1080 C1072 1.360 . S
N1080 Tb1079 2.660 . S
N1080 C1081 1.305 . S
C1081 N1080 1.305 . S
C1081 C1083 1.407 . S
C1081 H1088 0.930 . S
C1082 C1070 1.410 . S
C1082 C1083 1.345 . S
C1082 H1090 0.930 . S
C1083 C1081 1.407 . S
C1083 C1082 1.345 . S
C1083 H1085 0.930 . S
H1084 C1077 0.930 . S
H1085 C1083 0.930 . S
H1086 C1074 0.930 . S
H1087 C1075 0.931 . S
H1088 C1081 0.930 . S
H1089 C1103 0.930 . S
H1090 C1082 0.930 . S
H1091 C1109 0.930 . S
H1092 C1100 0.930 . S
H1093 C1107 0.931 . S
H1094 C1071 0.929 . S
H1095 C1101 0.930 . S
H1096 C1134 0.930 . S
H1097 C1078 0.930 . S
H1098 C1133 0.929 . S
N1099 Tb1068 2.660 . S
N1099 C1100 1.305 . S
N1099 C1104 1.360 . S
C1100 H1092 0.930 . S
C1100 N1099 1.305 . S
C1100 C1103 1.407 . S
C1101 H1095 0.930 . S
C1101 C1102 1.410 . S
C1101 C1103 1.345 . S
C1102 C1101 1.410 . S
C1102 C1104 1.417 . S
C1102 C1134 1.432 . S
C1103 H1089 0.930 . S
C1103 C1100 1.407 . S
C1103 C1101 1.345 . S
C1104 N1099 1.360 . S
C1104 C1102 1.417 . S
C1104 C1108 1.432 . S
H1105 C1110 0.930 . S
N1106 Tb1068 2.600 . S
N1106 C1108 1.359 . S
N1106 C1109 1.327 . S
C1107 H1093 0.931 . S
C1107 C1109 1.392 . S
C1107 C1110 1.370 . S
C1108 C1104 1.432 . S
C1108 N1106 1.359 . S
C1108 C1111 1.414 . S
C1109 H1091 0.930 . S
C1109 N1106 1.327 . S
C1109 C1107 1.392 . S
C1110 H1105 0.930 . S
C1110 C1107 1.370 . S
C1110 C1111 1.385 . S
C1111 C1108 1.414 . S
C1111 C1110 1.385 . S
C1111 C1133 1.444 . S
O1112 Tb1068 2.546 . S
O1112 C1132 1.251 . S
O1113 Tb1068 2.610 . S
O1113 Tb1079 2.362 . S
O1113 C1124 1.283 . S
O1114 Tb1079 2.421 . S
O1114 C1131 1.262 . S
O1115 Tb1068 2.320 . S
O1115 C1131 1.260 . S
O1116 Tb1068 2.552 . S
O1116 C1124 1.243 . S
O1117 Tb1068 2.413 . S
O1117 C1132 1.256 . S
O1118 Tb1079 2.546 . S
O1118 C1143 1.251 . S
O1119 Tb1068 2.362 . S
O1119 Tb1079 2.610 . S
O1119 C1135 1.283 . S
O1120 Tb1068 2.421 . S
O1120 C1142 1.262 . S
O1121 Tb1079 2.320 . S
O1121 C1142 1.260 . S
O1122 Tb1079 2.552 . S
O1122 C1135 1.243 . S
O1123 Tb1079 2.413 . S
O1123 C1143 1.256 . S
C1124 O1113 1.283 . S
C1124 O1116 1.243 . S
C1125 C1127 1.382 . S
C1125 C1129 1.393 . S
C1125 C1132 1.500 . S
C1126 C1127 1.400 . S
C1126 C1128 1.384 . S
C1127 C1125 1.382 . S
C1127 C1126 1.400 . S
C1127 H1144 0.930 . S
C1128 C1126 1.384 . S
C1128 C1130 1.392 . S
C1128 H1145 0.931 . S
C1129 C1125 1.393 . S
C1129 C1130 1.401 . S
C1129 H1146 0.930 . S
C1130 C1128 1.392 . S
C1130 C1129 1.401 . S
C1130 H1147 0.930 . S
C1131 O1114 1.262 . S
C1131 O1115 1.260 . S
C1132 Tb1068 2.833 . S
C1132 O1112 1.251 . S
C1132 O1117 1.256 . S
C1132 C1125 1.500 . S
C1133 H1098 0.929 . S
C1133 C1111 1.444 . S
C1133 C1134 1.317 . S
C1134 H1096 0.930 . S
C1134 C1102 1.432 . S
C1134 C1133 1.317 . S
C1135 O1119 1.283 . S
C1135 O1122 1.243 . S
C1136 C1137 1.382 . S
C1136 C1140 1.393 . S
C1136 C1143 1.500 . S
C1137 C1136 1.382 . S
C1137 C1138 1.400 . S
C1137 H1148 0.930 . S
C1138 C1137 1.400 . S
C1138 C1139 1.384 . S
C1139 C1138 1.384 . S
C1139 C1141 1.392 . S
C1139 H1149 0.931 . S
C1140 C1136 1.393 . S
C1140 C1141 1.401 . S
C1140 H1150 0.930 . S
C1141 C1139 1.392 . S
C1141 C1140 1.401 . S
C1141 H1151 0.930 . S
C1142 O1120 1.262 . S
C1142 O1121 1.260 . S
C1143 Tb1079 2.833 . S
C1143 O1118 1.251 . S
C1143 O1123 1.256 . S
C1143 C1136 1.500 . S
H1144 C1127 0.930 . S
H1145 C1128 0.931 . S
H1146 C1129 0.930 . S
H1147 C1130 0.930 . S
H1148 C1137 0.930 . S
H1149 C1139 0.931 . S
H1150 C1140 0.930 . S
H1151 C1141 0.930 . S
Tb1152 N1183 2.660 . S
Tb1152 N1190 2.600 . S
Tb1152 O1196 2.546 . S
Tb1152 O1197 2.610 . S
Tb1152 O1199 2.320 . S
Tb1152 O1200 2.552 . S
Tb1152 O1201 2.413 . S
Tb1152 O1203 2.362 . S
Tb1152 O1204 2.421 . S
Tb1152 C1216 2.833 . S
C1153 C1156 1.432 . S
C1153 C1157 1.414 . S
C1153 N1160 1.359 1_655 S
C1154 C1156 1.417 . S
C1154 C1158 1.432 . S
C1154 C1166 1.410 . S
C1155 C1157 1.444 . S
C1155 C1158 1.317 . S
C1155 H1178 0.929 . S
C1156 C1153 1.432 . S
C1156 C1154 1.417 . S
C1156 N1164 1.360 1_655 S
C1157 C1153 1.414 . S
C1157 C1155 1.444 . S
C1157 C1162 1.385 . S
C1158 C1154 1.432 . S
C1158 C1155 1.317 . S
C1158 H1170 0.930 . S
C1159 C1161 1.392 1_655 S
C1159 C1162 1.370 . S
C1159 H1171 0.931 . S
N1160 C1153 1.359 1_455 S
N1160 C1161 1.327 . S
N1160 Tb1163 2.600 . S
C1161 C1159 1.392 1_455 S
C1161 N1160 1.327 . S
C1161 H1168 0.930 . S
C1162 C1157 1.385 . S
C1162 C1159 1.370 . S
C1162 H1181 0.930 . S
Tb1163 N1160 2.600 . S
Tb1163 N1164 2.660 . S
Tb1163 O1197 2.362 . S
Tb1163 O1198 2.421 . S
Tb1163 O1202 2.546 . S
Tb1163 O1203 2.610 . S
Tb1163 O1205 2.320 . S
Tb1163 O1206 2.552 . S
Tb1163 O1207 2.413 . S
Tb1163 C1227 2.833 . S
N1164 C1156 1.360 1_455 S
N1164 Tb1163 2.660 . S
N1164 C1165 1.305 . S
C1165 N1164 1.305 . S
C1165 C1167 1.407 1_455 S
C1165 H1172 0.930 . S
C1166 C1154 1.410 . S
C1166 C1167 1.345 . S
C1166 H1174 0.930 . S
C1167 C1165 1.407 1_655 S
C1167 C1166 1.345 . S
C1167 H1169 0.930 . S
H1168 C1161 0.930 . S
H1169 C1167 0.930 . S
H1170 C1158 0.930 . S
H1171 C1159 0.931 . S
H1172 C1165 0.930 . S
H1173 C1187 0.930 . S
H1174 C1166 0.930 . S
H1175 C1193 0.930 . S
H1176 C1184 0.930 . S
H1177 C1191 0.931 . S
H1178 C1155 0.929 . S
H1179 C1185 0.930 . S
H1180 C1218 0.930 . S
H1181 C1162 0.930 . S
H1182 C1217 0.929 . S
N1183 Tb1152 2.660 . S
N1183 C1184 1.305 . S
N1183 C1188 1.360 . S
C1184 H1176 0.930 . S
C1184 N1183 1.305 . S
C1184 C1187 1.407 . S
C1185 H1179 0.930 . S
C1185 C1186 1.410 . S
C1185 C1187 1.345 . S
C1186 C1185 1.410 . S
C1186 C1188 1.417 . S
C1186 C1218 1.432 . S
C1187 H1173 0.930 . S
C1187 C1184 1.407 . S
C1187 C1185 1.345 . S
C1188 N1183 1.360 . S
C1188 C1186 1.417 . S
C1188 C1192 1.432 . S
H1189 C1194 0.930 . S
N1190 Tb1152 2.600 . S
N1190 C1192 1.359 . S
N1190 C1193 1.327 . S
C1191 H1177 0.931 . S
C1191 C1193 1.392 . S
C1191 C1194 1.370 . S
C1192 C1188 1.432 . S
C1192 N1190 1.359 . S
C1192 C1195 1.414 . S
C1193 H1175 0.930 . S
C1193 N1190 1.327 . S
C1193 C1191 1.392 . S
C1194 H1189 0.930 . S
C1194 C1191 1.370 . S
C1194 C1195 1.385 . S
C1195 C1192 1.414 . S
C1195 C1194 1.385 . S
C1195 C1217 1.444 . S
O1196 Tb1152 2.546 . S
O1196 C1216 1.251 . S
O1197 Tb1152 2.610 . S
O1197 Tb1163 2.362 . S
O1197 C1208 1.283 . S
O1198 Tb1163 2.421 . S
O1198 C1215 1.262 . S
O1199 Tb1152 2.320 . S
O1199 C1215 1.260 . S
O1200 Tb1152 2.552 . S
O1200 C1208 1.243 . S
O1201 Tb1152 2.413 . S
O1201 C1216 1.256 . S
O1202 Tb1163 2.546 . S
O1202 C1227 1.251 . S
O1203 Tb1152 2.362 . S
O1203 Tb1163 2.610 . S
O1203 C1219 1.283 . S
O1204 Tb1152 2.421 . S
O1204 C1226 1.262 . S
O1205 Tb1163 2.320 . S
O1205 C1226 1.260 . S
O1206 Tb1163 2.552 . S
O1206 C1219 1.243 . S
O1207 Tb1163 2.413 . S
O1207 C1227 1.256 . S
C1208 O1197 1.283 . S
C1208 O1200 1.243 . S
C1209 C1211 1.382 . S
C1209 C1213 1.393 . S
C1209 C1216 1.500 . S
C1210 C1211 1.400 1_655 S
C1210 C1212 1.394 . S
C1211 C1209 1.382 . S
C1211 C1210 1.400 1_455 S
C1211 H1228 0.930 . S
C1212 C1210 1.394 . S
C1212 C1214 1.370 1_655 S
C1212 H1229 0.944 . S
C1213 C1209 1.393 . S
C1213 C1214 1.401 . S
C1213 H1230 0.930 . S
C1214 C1212 1.370 1_455 S
C1214 C1213 1.401 . S
C1214 H1231 0.930 . S
C1215 O1198 1.262 . S
C1215 O1199 1.260 . S
C1216 Tb1152 2.833 . S
C1216 O1196 1.251 . S
C1216 O1201 1.256 . S
C1216 C1209 1.500 . S
C1217 H1182 0.929 . S
C1217 C1195 1.444 . S
C1217 C1218 1.317 . S
C1218 H1180 0.930 . S
C1218 C1186 1.432 . S
C1218 C1217 1.317 . S
C1219 O1203 1.283 . S
C1219 O1206 1.243 . S
C1220 C1221 1.382 . S
C1220 C1224 1.393 . S
C1220 C1227 1.500 . S
C1221 C1220 1.382 . S
C1221 C1222 1.400 . S
C1221 H1232 0.930 . S
C1222 C1221 1.400 . S
C1222 C1223 1.384 . S
C1223 C1222 1.384 . S
C1223 C1225 1.392 . S
C1223 H1233 0.931 . S
C1224 C1220 1.393 . S
C1224 C1225 1.401 . S
C1224 H1234 0.930 . S
C1225 C1223 1.392 . S
C1225 C1224 1.401 . S
C1225 H1235 0.930 . S
C1226 O1204 1.262 . S
C1226 O1205 1.260 . S
C1227 Tb1163 2.833 . S
C1227 O1202 1.251 . S
C1227 O1207 1.256 . S
C1227 C1220 1.500 . S
H1228 C1211 0.930 . S
H1229 C1212 0.944 . S
H1230 C1213 0.930 . S
H1231 C1214 0.930 . S
H1232 C1221 0.930 . S
H1233 C1223 0.931 . S
H1234 C1224 0.930 . S
H1235 C1225 0.930 . S
Tb1236 N1267 2.660 . S
Tb1236 N1274 2.600 . S
Tb1236 O1280 2.546 . S
Tb1236 O1281 2.610 . S
Tb1236 O1283 2.320 . S
Tb1236 O1284 2.552 . S
Tb1236 O1285 2.413 . S
Tb1236 O1287 2.362 . S
Tb1236 O1288 2.421 . S
Tb1236 C1300 2.833 . S
C1237 C1240 1.432 . S
C1237 C1241 1.414 . S
C1237 N1244 1.359 . S
C1238 C1240 1.417 . S
C1238 C1242 1.432 . S
C1238 C1250 1.410 . S
C1239 C1241 1.444 . S
C1239 C1242 1.317 . S
C1239 H1262 0.929 . S
C1240 C1237 1.432 . S
C1240 C1238 1.417 . S
C1240 N1248 1.360 . S
C1241 C1237 1.414 . S
C1241 C1239 1.444 . S
C1241 C1246 1.385 . S
C1242 C1238 1.432 . S
C1242 C1239 1.317 . S
C1242 H1254 0.930 . S
C1243 C1245 1.392 . S
C1243 C1246 1.370 . S
C1243 H1255 0.931 . S
N1244 C1237 1.359 . S
N1244 C1245 1.327 . S
N1244 Tb1247 2.600 . S
C1245 C1243 1.392 . S
C1245 N1244 1.327 . S
C1245 H1252 0.930 . S
C1246 C1241 1.385 . S
C1246 C1243 1.370 . S
C1246 H1265 0.930 . S
Tb1247 N1244 2.600 . S
Tb1247 N1248 2.660 . S
Tb1247 O1281 2.362 . S
Tb1247 O1282 2.421 . S
Tb1247 O1286 2.546 . S
Tb1247 O1287 2.610 . S
Tb1247 O1289 2.320 . S
Tb1247 O1290 2.552 . S
Tb1247 O1291 2.413 . S
Tb1247 C1311 2.833 . S
N1248 C1240 1.360 . S
N1248 Tb1247 2.660 . S
N1248 C1249 1.305 . S
C1249 N1248 1.305 . S
C1249 C1251 1.407 . S
C1249 H1256 0.930 . S
C1250 C1238 1.410 . S
C1250 C1251 1.345 . S
C1250 H1258 0.930 . S
C1251 C1249 1.407 . S
C1251 C1250 1.345 . S
C1251 H1253 0.930 . S
H1252 C1245 0.930 . S
H1253 C1251 0.930 . S
H1254 C1242 0.930 . S
H1255 C1243 0.931 . S
H1256 C1249 0.930 . S
H1257 C1271 0.930 . S
H1258 C1250 0.930 . S
H1259 C1277 0.930 . S
H1260 C1268 0.930 . S
H1261 C1275 0.931 . S
H1262 C1239 0.929 . S
H1263 C1269 0.930 . S
H1264 C1302 0.930 . S
H1265 C1246 0.930 . S
H1266 C1301 0.929 . S
N1267 Tb1236 2.660 . S
N1267 C1268 1.305 . S
N1267 C1272 1.360 . S
C1268 H1260 0.930 . S
C1268 N1267 1.305 . S
C1268 C1271 1.407 . S
C1269 H1263 0.930 . S
C1269 C1270 1.410 . S
C1269 C1271 1.345 . S
C1270 C1269 1.410 . S
C1270 C1272 1.417 . S
C1270 C1302 1.432 . S
C1271 H1257 0.930 . S
C1271 C1268 1.407 . S
C1271 C1269 1.345 . S
C1272 N1267 1.360 . S
C1272 C1270 1.417 . S
C1272 C1276 1.432 . S
H1273 C1278 0.930 . S
N1274 Tb1236 2.600 . S
N1274 C1276 1.359 . S
N1274 C1277 1.327 . S
C1275 H1261 0.931 . S
C1275 C1277 1.392 . S
C1275 C1278 1.370 . S
C1276 C1272 1.432 . S
C1276 N1274 1.359 . S
C1276 C1279 1.414 . S
C1277 H1259 0.930 . S
C1277 N1274 1.327 . S
C1277 C1275 1.392 . S
C1278 H1273 0.930 . S
C1278 C1275 1.370 . S
C1278 C1279 1.385 . S
C1279 C1276 1.414 . S
C1279 C1278 1.385 . S
C1279 C1301 1.444 . S
O1280 Tb1236 2.546 . S
O1280 C1300 1.251 . S
O1281 Tb1236 2.610 . S
O1281 Tb1247 2.362 . S
O1281 C1292 1.283 . S
O1282 Tb1247 2.421 . S
O1282 C1299 1.262 . S
O1283 Tb1236 2.320 . S
O1283 C1299 1.260 . S
O1284 Tb1236 2.552 . S
O1284 C1292 1.243 . S
O1285 Tb1236 2.413 . S
O1285 C1300 1.256 . S
O1286 Tb1247 2.546 . S
O1286 C1311 1.251 . S
O1287 Tb1236 2.362 . S
O1287 Tb1247 2.610 . S
O1287 C1303 1.283 . S
O1288 Tb1236 2.421 . S
O1288 C1310 1.262 . S
O1289 Tb1247 2.320 . S
O1289 C1310 1.260 . S
O1290 Tb1247 2.552 . S
O1290 C1303 1.243 . S
O1291 Tb1247 2.413 . S
O1291 C1311 1.256 . S
C1292 O1281 1.283 . S
C1292 O1284 1.243 . S
C1293 C1295 1.382 . S
C1293 C1297 1.393 . S
C1293 C1300 1.500 . S
C1294 C1295 1.400 . S
C1294 C1296 1.384 . S
C1295 C1293 1.382 . S
C1295 C1294 1.400 . S
C1295 H1312 0.930 . S
C1296 C1294 1.384 . S
C1296 C1298 1.392 . S
C1296 H1313 0.931 . S
C1297 C1293 1.393 . S
C1297 C1298 1.401 . S
C1297 H1314 0.930 . S
C1298 C1296 1.392 . S
C1298 C1297 1.401 . S
C1298 H1315 0.930 . S
C1299 O1282 1.262 . S
C1299 O1283 1.260 . S
C1300 Tb1236 2.833 . S
C1300 O1280 1.251 . S
C1300 O1285 1.256 . S
C1300 C1293 1.500 . S
C1301 H1266 0.929 . S
C1301 C1279 1.444 . S
C1301 C1302 1.317 . S
C1302 H1264 0.930 . S
C1302 C1270 1.432 . S
C1302 C1301 1.317 . S
C1303 O1287 1.283 . S
C1303 O1290 1.243 . S
C1304 C1305 1.382 . S
C1304 C1308 1.393 . S
C1304 C1311 1.500 . S
C1305 C1304 1.382 . S
C1305 C1306 1.400 . S
C1305 H1316 0.930 . S
C1306 C1305 1.400 . S
C1306 C1307 1.384 . S
C1307 C1306 1.384 . S
C1307 C1309 1.392 . S
C1307 H1317 0.931 . S
C1308 C1304 1.393 . S
C1308 C1309 1.401 . S
C1308 H1318 0.930 . S
C1309 C1307 1.392 . S
C1309 C1308 1.401 . S
C1309 H1319 0.930 . S
C1310 O1288 1.262 . S
C1310 O1289 1.260 . S
C1311 Tb1247 2.833 . S
C1311 O1286 1.251 . S
C1311 O1291 1.256 . S
C1311 C1304 1.500 . S
H1312 C1295 0.930 . S
H1313 C1296 0.931 . S
H1314 C1297 0.930 . S
H1315 C1298 0.930 . S
H1316 C1305 0.930 . S
H1317 C1307 0.931 . S
H1318 C1308 0.930 . S
H1319 C1309 0.930 . S
Tb1320 N1351 2.660 . S
Tb1320 N1358 2.600 . S
Tb1320 O1364 2.546 . S
Tb1320 O1365 2.610 . S
Tb1320 O1367 2.320 . S
Tb1320 O1368 2.552 . S
Tb1320 O1369 2.413 . S
Tb1320 O1371 2.362 . S
Tb1320 O1372 2.421 . S
Tb1320 C1384 2.833 . S
C1321 C1324 1.432 . S
C1321 C1325 1.414 . S
C1321 N1328 1.359 . S
C1322 C1324 1.417 . S
C1322 C1326 1.432 . S
C1322 C1334 1.410 . S
C1323 C1325 1.444 . S
C1323 C1326 1.317 . S
C1323 H1346 0.929 . S
C1324 C1321 1.432 . S
C1324 C1322 1.417 . S
C1324 N1332 1.360 . S
C1325 C1321 1.414 . S
C1325 C1323 1.444 . S
C1325 C1330 1.385 . S
C1326 C1322 1.432 . S
C1326 C1323 1.317 . S
C1326 H1338 0.930 . S
C1327 C1329 1.392 . S
C1327 C1330 1.370 . S
C1327 H1339 0.931 . S
N1328 C1321 1.359 . S
N1328 C1329 1.327 . S
N1328 Tb1331 2.600 . S
C1329 C1327 1.392 . S
C1329 N1328 1.327 . S
C1329 H1336 0.930 . S
C1330 C1325 1.385 . S
C1330 C1327 1.370 . S
C1330 H1349 0.930 . S
Tb1331 N1328 2.600 . S
Tb1331 N1332 2.660 . S
Tb1331 O1365 2.362 . S
Tb1331 O1366 2.421 . S
Tb1331 O1370 2.546 . S
Tb1331 O1371 2.610 . S
Tb1331 O1373 2.320 . S
Tb1331 O1374 2.552 . S
Tb1331 O1375 2.413 . S
Tb1331 C1395 2.833 . S
N1332 C1324 1.360 . S
N1332 Tb1331 2.660 . S
N1332 C1333 1.305 . S
C1333 N1332 1.305 . S
C1333 C1335 1.407 . S
C1333 H1340 0.930 . S
C1334 C1322 1.410 . S
C1334 C1335 1.345 . S
C1334 H1342 0.930 . S
C1335 C1333 1.407 . S
C1335 C1334 1.345 . S
C1335 H1337 0.930 . S
H1336 C1329 0.930 . S
H1337 C1335 0.930 . S
H1338 C1326 0.930 . S
H1339 C1327 0.931 . S
H1340 C1333 0.930 . S
H1341 C1355 0.930 . S
H1342 C1334 0.930 . S
H1343 C1361 0.930 . S
H1344 C1352 0.930 . S
H1345 C1359 0.931 . S
H1346 C1323 0.929 . S
H1347 C1353 0.930 . S
H1348 C1386 0.930 . S
H1349 C1330 0.930 . S
H1350 C1385 0.929 . S
N1351 Tb1320 2.660 . S
N1351 C1352 1.305 . S
N1351 C1356 1.360 . S
C1352 H1344 0.930 . S
C1352 N1351 1.305 . S
C1352 C1355 1.407 . S
C1353 H1347 0.930 . S
C1353 C1354 1.410 . S
C1353 C1355 1.345 . S
C1354 C1353 1.410 . S
C1354 C1356 1.417 . S
C1354 C1386 1.432 . S
C1355 H1341 0.930 . S
C1355 C1352 1.407 . S
C1355 C1353 1.345 . S
C1356 N1351 1.360 . S
C1356 C1354 1.417 . S
C1356 C1360 1.432 . S
H1357 C1362 0.930 . S
N1358 Tb1320 2.600 . S
N1358 C1360 1.359 . S
N1358 C1361 1.327 . S
C1359 H1345 0.931 . S
C1359 C1361 1.392 . S
C1359 C1362 1.370 . S
C1360 C1356 1.432 . S
C1360 N1358 1.359 . S
C1360 C1363 1.414 . S
C1361 H1343 0.930 . S
C1361 N1358 1.327 . S
C1361 C1359 1.392 . S
C1362 H1357 0.930 . S
C1362 C1359 1.370 . S
C1362 C1363 1.385 . S
C1363 C1360 1.414 . S
C1363 C1362 1.385 . S
C1363 C1385 1.444 . S
O1364 Tb1320 2.546 . S
O1364 C1384 1.251 . S
O1365 Tb1320 2.610 . S
O1365 Tb1331 2.362 . S
O1365 C1376 1.283 . S
O1366 Tb1331 2.421 . S
O1366 C1383 1.262 . S
O1367 Tb1320 2.320 . S
O1367 C1383 1.260 . S
O1368 Tb1320 2.552 . S
O1368 C1376 1.243 . S
O1369 Tb1320 2.413 . S
O1369 C1384 1.256 . S
O1370 Tb1331 2.546 . S
O1370 C1395 1.251 . S
O1371 Tb1320 2.362 . S
O1371 Tb1331 2.610 . S
O1371 C1387 1.283 . S
O1372 Tb1320 2.421 . S
O1372 C1394 1.262 . S
O1373 Tb1331 2.320 . S
O1373 C1394 1.260 . S
O1374 Tb1331 2.552 . S
O1374 C1387 1.243 . S
O1375 Tb1331 2.413 . S
O1375 C1395 1.256 . S
C1376 O1365 1.283 . S
C1376 O1368 1.243 . S
C1377 C1379 1.382 . S
C1377 C1381 1.393 . S
C1377 C1384 1.500 . S
C1378 C1379 1.400 . S
C1378 C1380 1.384 . S
C1379 C1377 1.382 . S
C1379 C1378 1.400 . S
C1379 H1396 0.930 . S
C1380 C1378 1.384 . S
C1380 C1382 1.392 . S
C1380 H1397 0.931 . S
C1381 C1377 1.393 . S
C1381 C1382 1.401 . S
C1381 H1398 0.930 . S
C1382 C1380 1.392 . S
C1382 C1381 1.401 . S
C1382 H1399 0.930 . S
C1383 O1366 1.262 . S
C1383 O1367 1.260 . S
C1384 Tb1320 2.833 . S
C1384 O1364 1.251 . S
C1384 O1369 1.256 . S
C1384 C1377 1.500 . S
C1385 H1350 0.929 . S
C1385 C1363 1.444 . S
C1385 C1386 1.317 . S
C1386 H1348 0.930 . S
C1386 C1354 1.432 . S
C1386 C1385 1.317 . S
C1387 O1371 1.283 . S
C1387 O1374 1.243 . S
C1388 C1389 1.382 . S
C1388 C1392 1.393 . S
C1388 C1395 1.500 . S
C1389 C1388 1.382 . S
C1389 C1390 1.400 . S
C1389 H1400 0.930 . S
C1390 C1389 1.400 . S
C1390 C1391 1.384 . S
C1391 C1390 1.384 . S
C1391 C1393 1.392 . S
C1391 H1401 0.931 . S
C1392 C1388 1.393 . S
C1392 C1393 1.401 . S
C1392 H1402 0.930 . S
C1393 C1391 1.392 . S
C1393 C1392 1.401 . S
C1393 H1403 0.930 . S
C1394 O1372 1.262 . S
C1394 O1373 1.260 . S
C1395 Tb1331 2.833 . S
C1395 O1370 1.251 . S
C1395 O1375 1.256 . S
C1395 C1388 1.500 . S
H1396 C1379 0.930 . S
H1397 C1380 0.931 . S
H1398 C1381 0.930 . S
H1399 C1382 0.930 . S
H1400 C1389 0.930 . S
H1401 C1391 0.931 . S
H1402 C1392 0.930 . S
H1403 C1393 0.930 . S
Tb1404 N1435 2.660 . S
Tb1404 N1442 2.600 . S
Tb1404 O1448 2.546 . S
Tb1404 O1449 2.610 . S
Tb1404 O1451 2.320 . S
Tb1404 O1452 2.552 . S
Tb1404 O1453 2.413 . S
Tb1404 O1455 2.362 . S
Tb1404 O1456 2.421 . S
Tb1404 C1468 2.833 . S
C1405 C1408 1.432 . S
C1405 C1409 1.414 . S
C1405 N1412 1.359 . S
C1406 C1408 1.417 . S
C1406 C1410 1.432 . S
C1406 C1418 1.410 . S
C1407 C1409 1.444 . S
C1407 C1410 1.317 . S
C1407 H1430 0.929 . S
C1408 C1405 1.432 . S
C1408 C1406 1.417 . S
C1408 N1416 1.360 . S
C1409 C1405 1.414 . S
C1409 C1407 1.444 . S
C1409 C1414 1.385 . S
C1410 C1406 1.432 . S
C1410 C1407 1.317 . S
C1410 H1422 0.930 . S
C1411 C1413 1.392 . S
C1411 C1414 1.370 . S
C1411 H1423 0.931 . S
N1412 C1405 1.359 . S
N1412 C1413 1.327 . S
N1412 Tb1415 2.600 . S
C1413 C1411 1.392 . S
C1413 N1412 1.327 . S
C1413 H1420 0.930 . S
C1414 C1409 1.385 . S
C1414 C1411 1.370 . S
C1414 H1433 0.930 . S
Tb1415 N1412 2.600 . S
Tb1415 N1416 2.660 . S
Tb1415 O1449 2.362 . S
Tb1415 O1450 2.421 . S
Tb1415 O1454 2.546 . S
Tb1415 O1455 2.610 . S
Tb1415 O1457 2.320 . S
Tb1415 O1458 2.552 . S
Tb1415 O1459 2.413 . S
Tb1415 C1479 2.833 . S
N1416 C1408 1.360 . S
N1416 Tb1415 2.660 . S
N1416 C1417 1.305 . S
C1417 N1416 1.305 . S
C1417 C1419 1.407 . S
C1417 H1424 0.930 . S
C1418 C1406 1.410 . S
C1418 C1419 1.345 . S
C1418 H1426 0.930 . S
C1419 C1417 1.407 . S
C1419 C1418 1.345 . S
C1419 H1421 0.930 . S
H1420 C1413 0.930 . S
H1421 C1419 0.930 . S
H1422 C1410 0.930 . S
H1423 C1411 0.931 . S
H1424 C1417 0.930 . S
H1425 C1439 0.930 . S
H1426 C1418 0.930 . S
H1427 C1445 0.930 . S
H1428 C1436 0.930 . S
H1429 C1443 0.931 . S
H1430 C1407 0.929 . S
H1431 C1437 0.930 . S
H1432 C1470 0.930 . S
H1433 C1414 0.930 . S
H1434 C1469 0.929 . S
N1435 Tb1404 2.660 . S
N1435 C1436 1.305 . S
N1435 C1440 1.360 . S
C1436 H1428 0.930 . S
C1436 N1435 1.305 . S
C1436 C1439 1.407 . S
C1437 H1431 0.930 . S
C1437 C1438 1.410 . S
C1437 C1439 1.345 . S
C1438 C1437 1.410 . S
C1438 C1440 1.417 . S
C1438 C1470 1.432 . S
C1439 H1425 0.930 . S
C1439 C1436 1.407 . S
C1439 C1437 1.345 . S
C1440 N1435 1.360 . S
C1440 C1438 1.417 . S
C1440 C1444 1.432 . S
H1441 C1446 0.930 . S
N1442 Tb1404 2.600 . S
N1442 C1444 1.359 . S
N1442 C1445 1.327 . S
C1443 H1429 0.931 . S
C1443 C1445 1.392 . S
C1443 C1446 1.370 . S
C1444 C1440 1.432 . S
C1444 N1442 1.359 . S
C1444 C1447 1.414 . S
C1445 H1427 0.930 . S
C1445 N1442 1.327 . S
C1445 C1443 1.392 . S
C1446 H1441 0.930 . S
C1446 C1443 1.370 . S
C1446 C1447 1.385 . S
C1447 C1444 1.414 . S
C1447 C1446 1.385 . S
C1447 C1469 1.444 . S
O1448 Tb1404 2.546 . S
O1448 C1468 1.251 . S
O1449 Tb1404 2.610 . S
O1449 Tb1415 2.362 . S
O1449 C1460 1.283 . S
O1450 Tb1415 2.421 . S
O1450 C1467 1.262 . S
O1451 Tb1404 2.320 . S
O1451 C1467 1.260 . S
O1452 Tb1404 2.552 . S
O1452 C1460 1.243 . S
O1453 Tb1404 2.413 . S
O1453 C1468 1.256 . S
O1454 Tb1415 2.546 . S
O1454 C1479 1.251 . S
O1455 Tb1404 2.362 . S
O1455 Tb1415 2.610 . S
O1455 C1471 1.283 . S
O1456 Tb1404 2.421 . S
O1456 C1478 1.262 . S
O1457 Tb1415 2.320 . S
O1457 C1478 1.260 . S
O1458 Tb1415 2.552 . S
O1458 C1471 1.243 . S
O1459 Tb1415 2.413 . S
O1459 C1479 1.256 . S
C1460 O1449 1.283 . S
C1460 O1452 1.243 . S
C1461 C1463 1.382 . S
C1461 C1465 1.393 . S
C1461 C1468 1.500 . S
C1462 C1463 1.400 . S
C1462 C1464 1.384 . S
C1463 C1461 1.382 . S
C1463 C1462 1.400 . S
C1463 H1480 0.930 . S
C1464 C1462 1.384 . S
C1464 C1466 1.392 . S
C1464 H1481 0.931 . S
C1465 C1461 1.393 . S
C1465 C1466 1.401 . S
C1465 H1482 0.930 . S
C1466 C1464 1.392 . S
C1466 C1465 1.401 . S
C1466 H1483 0.930 . S
C1467 O1450 1.262 . S
C1467 O1451 1.260 . S
C1468 Tb1404 2.833 . S
C1468 O1448 1.251 . S
C1468 O1453 1.256 . S
C1468 C1461 1.500 . S
C1469 H1434 0.929 . S
C1469 C1447 1.444 . S
C1469 C1470 1.317 . S
C1470 H1432 0.930 . S
C1470 C1438 1.432 . S
C1470 C1469 1.317 . S
C1471 O1455 1.283 . S
C1471 O1458 1.243 . S
C1472 C1473 1.382 . S
C1472 C1476 1.393 . S
C1472 C1479 1.500 . S
C1473 C1472 1.382 . S
C1473 C1474 1.400 . S
C1473 H1484 0.930 . S
C1474 C1473 1.400 . S
C1474 C1475 1.384 . S
C1475 C1474 1.384 . S
C1475 C1477 1.392 . S
C1475 H1485 0.931 . S
C1476 C1472 1.393 . S
C1476 C1477 1.401 . S
C1476 H1486 0.930 . S
C1477 C1475 1.392 . S
C1477 C1476 1.401 . S
C1477 H1487 0.930 . S
C1478 O1456 1.262 . S
C1478 O1457 1.260 . S
C1479 Tb1415 2.833 . S
C1479 O1454 1.251 . S
C1479 O1459 1.256 . S
C1479 C1472 1.500 . S
H1480 C1463 0.930 . S
H1481 C1464 0.931 . S
H1482 C1465 0.930 . S
H1483 C1466 0.930 . S
H1484 C1473 0.930 . S
H1485 C1475 0.931 . S
H1486 C1476 0.930 . S
H1487 C1477 0.930 . S
Tb1488 N1519 2.660 . S
Tb1488 N1526 2.600 . S
Tb1488 O1532 2.546 . S
Tb1488 O1533 2.610 . S
Tb1488 O1535 2.320 . S
Tb1488 O1536 2.552 . S
Tb1488 O1537 2.413 . S
Tb1488 O1539 2.362 . S
Tb1488 O1540 2.421 . S
Tb1488 C1552 2.833 . S
C1489 C1492 1.432 . S
C1489 C1493 1.414 . S
C1489 N1496 1.359 . S
C1490 C1492 1.417 . S
C1490 C1494 1.432 . S
C1490 C1502 1.410 . S
C1491 C1493 1.444 . S
C1491 C1494 1.317 . S
C1491 H1514 0.929 . S
C1492 C1489 1.432 . S
C1492 C1490 1.417 . S
C1492 N1500 1.360 . S
C1493 C1489 1.414 . S
C1493 C1491 1.444 . S
C1493 C1498 1.385 . S
C1494 C1490 1.432 . S
C1494 C1491 1.317 . S
C1494 H1506 0.930 . S
C1495 C1497 1.392 . S
C1495 C1498 1.370 . S
C1495 H1507 0.931 . S
N1496 C1489 1.359 . S
N1496 C1497 1.327 . S
N1496 Tb1499 2.600 . S
C1497 C1495 1.392 . S
C1497 N1496 1.327 . S
C1497 H1504 0.930 . S
C1498 C1493 1.385 . S
C1498 C1495 1.370 . S
C1498 H1517 0.930 . S
Tb1499 N1496 2.600 . S
Tb1499 N1500 2.660 . S
Tb1499 O1533 2.362 . S
Tb1499 O1534 2.421 . S
Tb1499 O1538 2.546 . S
Tb1499 O1539 2.610 . S
Tb1499 O1541 2.320 . S
Tb1499 O1542 2.552 . S
Tb1499 O1543 2.413 . S
Tb1499 C1563 2.833 . S
N1500 C1492 1.360 . S
N1500 Tb1499 2.660 . S
N1500 C1501 1.305 . S
C1501 N1500 1.305 . S
C1501 C1503 1.407 . S
C1501 H1508 0.930 . S
C1502 C1490 1.410 . S
C1502 C1503 1.345 . S
C1502 H1510 0.930 . S
C1503 C1501 1.407 . S
C1503 C1502 1.345 . S
C1503 H1505 0.930 . S
H1504 C1497 0.930 . S
H1505 C1503 0.930 . S
H1506 C1494 0.930 . S
H1507 C1495 0.931 . S
H1508 C1501 0.930 . S
H1509 C1523 0.930 . S
H1510 C1502 0.930 . S
H1511 C1529 0.930 . S
H1512 C1520 0.930 . S
H1513 C1527 0.931 . S
H1514 C1491 0.929 . S
H1515 C1521 0.930 . S
H1516 C1554 0.930 . S
H1517 C1498 0.930 . S
H1518 C1553 0.929 . S
N1519 Tb1488 2.660 . S
N1519 C1520 1.305 . S
N1519 C1524 1.360 . S
C1520 H1512 0.930 . S
C1520 N1519 1.305 . S
C1520 C1523 1.407 . S
C1521 H1515 0.930 . S
C1521 C1522 1.410 . S
C1521 C1523 1.345 . S
C1522 C1521 1.410 . S
C1522 C1524 1.417 . S
C1522 C1554 1.432 . S
C1523 H1509 0.930 . S
C1523 C1520 1.407 . S
C1523 C1521 1.345 . S
C1524 N1519 1.360 . S
C1524 C1522 1.417 . S
C1524 C1528 1.432 . S
H1525 C1530 0.930 . S
N1526 Tb1488 2.600 . S
N1526 C1528 1.359 . S
N1526 C1529 1.327 . S
C1527 H1513 0.931 . S
C1527 C1529 1.392 . S
C1527 C1530 1.370 . S
C1528 C1524 1.432 . S
C1528 N1526 1.359 . S
C1528 C1531 1.414 . S
C1529 H1511 0.930 . S
C1529 N1526 1.327 . S
C1529 C1527 1.392 . S
C1530 H1525 0.930 . S
C1530 C1527 1.370 . S
C1530 C1531 1.385 . S
C1531 C1528 1.414 . S
C1531 C1530 1.385 . S
C1531 C1553 1.444 . S
O1532 Tb1488 2.546 . S
O1532 C1552 1.251 . S
O1533 Tb1488 2.610 . S
O1533 Tb1499 2.362 . S
O1533 C1544 1.283 . S
O1534 Tb1499 2.421 . S
O1534 C1551 1.262 . S
O1535 Tb1488 2.320 . S
O1535 C1551 1.260 . S
O1536 Tb1488 2.552 . S
O1536 C1544 1.243 . S
O1537 Tb1488 2.413 . S
O1537 C1552 1.256 . S
O1538 Tb1499 2.546 . S
O1538 C1563 1.251 . S
O1539 Tb1488 2.362 . S
O1539 Tb1499 2.610 . S
O1539 C1555 1.283 . S
O1540 Tb1488 2.421 . S
O1540 C1562 1.262 . S
O1541 Tb1499 2.320 . S
O1541 C1562 1.260 . S
O1542 Tb1499 2.552 . S
O1542 C1555 1.243 . S
O1543 Tb1499 2.413 . S
O1543 C1563 1.256 . S
C1544 O1533 1.283 . S
C1544 O1536 1.243 . S
C1545 C1547 1.382 . S
C1545 C1549 1.393 . S
C1545 C1552 1.500 . S
C1546 C1547 1.400 . S
C1546 C1548 1.384 . S
C1547 C1545 1.382 . S
C1547 C1546 1.400 . S
C1547 H1564 0.930 . S
C1548 C1546 1.384 . S
C1548 C1550 1.392 . S
C1548 H1565 0.931 . S
C1549 C1545 1.393 . S
C1549 C1550 1.401 . S
C1549 H1566 0.930 . S
C1550 C1548 1.392 . S
C1550 C1549 1.401 . S
C1550 H1567 0.930 . S
C1551 O1534 1.262 . S
C1551 O1535 1.260 . S
C1552 Tb1488 2.833 . S
C1552 O1532 1.251 . S
C1552 O1537 1.256 . S
C1552 C1545 1.500 . S
C1553 H1518 0.929 . S
C1553 C1531 1.444 . S
C1553 C1554 1.317 . S
C1554 H1516 0.930 . S
C1554 C1522 1.432 . S
C1554 C1553 1.317 . S
C1555 O1539 1.283 . S
C1555 O1542 1.243 . S
C1556 C1557 1.382 . S
C1556 C1560 1.393 . S
C1556 C1563 1.500 . S
C1557 C1556 1.382 . S
C1557 C1558 1.400 . S
C1557 H1568 0.930 . S
C1558 C1557 1.400 . S
C1558 C1559 1.384 . S
C1559 C1558 1.384 . S
C1559 C1561 1.392 . S
C1559 H1569 0.931 . S
C1560 C1556 1.393 . S
C1560 C1561 1.401 . S
C1560 H1570 0.930 . S
C1561 C1559 1.392 . S
C1561 C1560 1.401 . S
C1561 H1571 0.930 . S
C1562 O1540 1.262 . S
C1562 O1541 1.260 . S
C1563 Tb1499 2.833 . S
C1563 O1538 1.251 . S
C1563 O1543 1.256 . S
C1563 C1556 1.500 . S
H1564 C1547 0.930 . S
H1565 C1548 0.931 . S
H1566 C1549 0.930 . S
H1567 C1550 0.930 . S
H1568 C1557 0.930 . S
H1569 C1559 0.931 . S
H1570 C1560 0.930 . S
H1571 C1561 0.930 . S
Tb1572 N1603 2.660 . S
Tb1572 N1610 2.600 1_554 S
Tb1572 O1616 2.546 1_554 S
Tb1572 O1617 2.610 . S
Tb1572 O1619 2.320 . S
Tb1572 O1620 2.552 . S
Tb1572 O1621 2.413 . S
Tb1572 O1623 2.362 . S
Tb1572 O1624 2.421 1_554 S
Tb1572 C1636 2.833 . S
C1573 C1576 1.432 . S
C1573 C1577 1.414 . S
C1573 N1580 1.359 . S
C1574 C1576 1.417 . S
C1574 C1578 1.432 . S
C1574 C1586 1.410 . S
C1575 C1577 1.444 . S
C1575 C1578 1.317 . S
C1575 H1598 0.929 . S
C1576 C1573 1.432 . S
C1576 C1574 1.417 . S
C1576 N1584 1.360 . S
C1577 C1573 1.414 . S
C1577 C1575 1.444 . S
C1577 C1582 1.385 . S
C1578 C1574 1.432 . S
C1578 C1575 1.317 . S
C1578 H1590 0.930 . S
C1579 C1581 1.392 1_655 S
C1579 C1582 1.370 . S
C1579 H1591 0.931 . S
N1580 C1573 1.359 . S
N1580 C1581 1.327 1_655 S
N1580 Tb1583 2.600 1_655 S
C1581 C1579 1.392 1_455 S
C1581 N1580 1.327 1_455 S
C1581 H1588 0.930 . S
C1582 C1577 1.385 . S
C1582 C1579 1.370 . S
C1582 H1601 0.930 . S
Tb1583 N1580 2.600 1_455 S
Tb1583 N1584 2.660 1_455 S
Tb1583 O1617 2.362 . S
Tb1583 O1618 2.421 . S
Tb1583 O1622 2.546 1_455 S
Tb1583 O1623 2.610 . S
Tb1583 O1625 2.320 . S
Tb1583 O1626 2.552 . S
Tb1583 O1627 2.413 1_455 S
Tb1583 C1647 2.833 1_455 S
N1584 C1576 1.360 . S
N1584 Tb1583 2.660 1_655 S
N1584 C1585 1.305 . S
C1585 N1584 1.305 . S
C1585 C1587 1.407 1_554 S
C1585 H1592 0.899 1_554 S
C1586 C1574 1.410 . S
C1586 C1587 1.345 1_554 S
C1586 H1594 0.930 . S
C1587 C1585 1.407 1_556 S
C1587 C1586 1.345 1_556 S
C1587 H1589 0.930 . S
H1588 C1581 0.930 . S
H1589 C1587 0.930 . S
H1590 C1578 0.930 . S
H1591 C1579 0.931 . S
H1592 C1585 0.899 1_556 S
H1593 C1607 0.930 . S
H1594 C1586 0.930 . S
H1595 C1613 0.930 . S
H1596 C1604 0.930 . S
H1597 C1611 0.931 . S
H1598 C1575 0.929 . S
H1599 C1605 0.930 . S
H1600 C1638 0.930 . S
H1601 C1582 0.930 . S
H1602 C1637 0.892 1_556 S
N1603 Tb1572 2.660 . S
N1603 C1604 1.305 . S
N1603 C1608 1.360 . S
C1604 H1596 0.930 . S
C1604 N1603 1.305 . S
C1604 C1607 1.407 . S
C1605 H1599 0.930 . S
C1605 C1606 1.410 . S
C1605 C1607 1.345 . S
C1606 C1605 1.410 . S
C1606 C1608 1.417 . S
C1606 C1638 1.432 . S
C1607 H1593 0.930 . S
C1607 C1604 1.407 . S
C1607 C1605 1.345 . S
C1608 N1603 1.360 . S
C1608 C1606 1.417 . S
C1608 C1612 1.432 . S
H1609 C1614 0.930 . S
N1610 Tb1572 2.600 1_556 S
N1610 C1612 1.359 1_556 S
N1610 C1613 1.327 . S
C1611 H1597 0.931 . S
C1611 C1613 1.392 . S
C1611 C1614 1.370 . S
C1612 C1608 1.432 . S
C1612 N1610 1.359 1_554 S
C1612 C1615 1.414 1_554 S
C1613 H1595 0.930 . S
C1613 N1610 1.327 . S
C1613 C1611 1.392 . S
C1614 H1609 0.930 . S
C1614 C1611 1.370 . S
C1614 C1615 1.385 . S
C1615 C1612 1.414 1_556 S
C1615 C1614 1.385 . S
C1615 C1637 1.433 1_556 S
O1616 Tb1572 2.546 1_556 S
O1616 C1636 1.251 1_556 S
O1617 Tb1572 2.610 . S
O1617 Tb1583 2.362 . S
O1617 C1628 1.283 . S
O1618 Tb1583 2.421 . S
O1618 C1635 1.262 . S
O1619 Tb1572 2.320 . S
O1619 C1635 1.260 . S
O1620 Tb1572 2.552 . S
O1620 C1628 1.243 . S
O1621 Tb1572 2.413 . S
O1621 C1636 1.256 . S
O1622 Tb1583 2.546 1_655 S
O1622 C1647 1.251 . S
O1623 Tb1572 2.362 . S
O1623 Tb1583 2.610 . S
O1623 C1639 1.283 . S
O1624 Tb1572 2.421 1_556 S
O1624 C1646 1.262 . S
O1625 Tb1583 2.320 . S
O1625 C1646 1.260 1_554 S
O1626 Tb1583 2.552 . S
O1626 C1639 1.243 . S
O1627 Tb1583 2.413 1_655 S
O1627 C1647 1.256 . S
C1628 O1617 1.283 . S
C1628 O1620 1.243 . S
C1629 C1631 1.382 . S
C1629 C1633 1.393 1_554 S
C1629 C1636 1.500 . S
C1630 C1631 1.400 . S
C1630 C1632 1.384 1_554 S
C1631 C1629 1.382 . S
C1631 C1630 1.400 . S
C1631 H1648 0.930 . S
C1632 C1630 1.384 1_556 S
C1632 C1634 1.392 . S
C1632 H1649 0.931 . S
C1633 C1629 1.393 1_556 S
C1633 C1634 1.401 . S
C1633 H1650 0.930 . S
C1634 C1632 1.392 . S
C1634 C1633 1.401 . S
C1634 H1651 0.930 . S
C1635 O1618 1.262 . S
C1635 O1619 1.260 . S
C1636 Tb1572 2.833 . S
C1636 O1616 1.251 1_554 S
C1636 O1621 1.256 . S
C1636 C1629 1.500 . S
C1637 H1602 0.892 1_554 S
C1637 C1615 1.433 1_554 S
C1637 C1638 1.368 . S
C1638 H1600 0.930 . S
C1638 C1606 1.432 . S
C1638 C1637 1.368 . S
C1639 O1623 1.283 . S
C1639 O1626 1.243 . S
C1640 C1641 1.382 . S
C1640 C1644 1.393 . S
C1640 C1647 1.500 . S
C1641 C1640 1.382 . S
C1641 C1642 1.400 . S
C1641 H1652 0.930 . S
C1642 C1641 1.400 . S
C1642 C1643 1.384 . S
C1643 C1642 1.384 . S
C1643 C1645 1.392 . S
C1643 H1653 0.931 . S
C1644 C1640 1.393 . S
C1644 C1645 1.401 . S
C1644 H1654 0.930 . S
C1645 C1643 1.392 . S
C1645 C1644 1.401 . S
C1645 H1655 0.930 . S
C1646 O1624 1.262 . S
C1646 O1625 1.260 1_556 S
C1647 Tb1583 2.833 1_655 S
C1647 O1622 1.251 . S
C1647 O1627 1.256 . S
C1647 C1640 1.500 . S
H1648 C1631 0.930 . S
H1649 C1632 0.931 . S
H1650 C1633 0.930 . S
H1651 C1634 0.930 . S
H1652 C1641 0.930 . S
H1653 C1643 0.931 . S
H1654 C1644 0.930 . S
H1655 C1645 0.930 . S
C1656 C1657 1.349 . S
C1656 C1658 1.327 . S
C1656 H1681 0.950 . S
C1657 C1656 1.349 . S
C1657 C1673 1.349 . S
C1658 C1656 1.327 . S
C1658 C1677 1.429 . S
C1658 H1682 0.950 . S
C1659 C1676 1.574 1_556 S
C1659 C1678 1.367 . S
C1659 H1683 0.949 1_556 S
H1660 C1664 0.949 . S
C1661 C1662 1.349 . S
C1661 C1663 1.327 . S
C1661 H1684 0.950 . S
C1662 C1661 1.349 . S
C1662 C1674 1.349 . S
C1663 C1661 1.327 . S
C1663 C1679 1.429 . S
C1663 H1685 0.950 . S
C1664 H1660 0.949 . S
C1664 C1672 1.574 . S
C1664 C1680 1.387 . S
H1665 C1673 0.950 . S
H1666 C1671 0.950 . S
H1667 C1672 0.949 . S
H1668 C1674 0.950 . S
H1669 C1675 0.950 1_556 S
H1670 C1676 0.949 . S
C1671 H1666 0.950 . S
C1671 C1673 1.327 . S
C1671 C1677 1.429 . S
C1672 C1664 1.574 . S
C1672 H1667 0.949 . S
C1672 C1678 1.368 . S
C1673 C1657 1.349 . S
C1673 H1665 0.950 . S
C1673 C1671 1.327 . S
C1674 C1662 1.349 . S
C1674 H1668 0.950 . S
C1674 C1675 1.327 . S
C1675 H1669 0.950 1_554 S
C1675 C1674 1.327 . S
C1675 C1679 1.429 . S
C1676 C1659 1.574 1_554 S
C1676 H1670 0.949 . S
C1676 C1680 1.359 1_554 S
C1677 C1658 1.429 . S
C1677 C1671 1.429 . S
C1677 C1678 1.523 . S
C1678 C1659 1.367 . S
C1678 C1672 1.368 . S
C1678 C1677 1.523 . S
C1679 C1663 1.429 . S
C1679 C1675 1.429 . S
C1679 C1680 1.511 1_554 S
C1680 C1664 1.387 . S
C1680 C1676 1.359 1_556 S
C1680 C1679 1.511 1_556 S
H1681 C1656 0.950 . S
H1682 C1658 0.950 . S
H1683 C1659 0.949 1_554 S
H1684 C1661 0.950 . S
H1685 C1663 0.950 . S
C1686 C1687 1.349 . S
C1686 C1688 1.327 . S
C1686 H1711 0.950 . S
C1687 C1686 1.349 . S
C1687 C1703 1.349 . S
C1688 C1686 1.327 . S
C1688 C1707 1.429 . S
C1688 H1712 0.950 . S
C1689 C1706 1.574 . S
C1689 C1708 1.368 . S
C1689 H1713 0.949 . S
H1690 C1694 0.949 . S
C1691 C1692 1.349 . S
C1691 C1693 1.327 . S
C1691 H1714 0.950 . S
C1692 C1691 1.349 . S
C1692 C1704 1.349 . S
C1693 C1691 1.327 . S
C1693 C1709 1.429 . S
C1693 H1715 0.950 . S
C1694 H1690 0.949 . S
C1694 C1702 1.574 . S
C1694 C1710 1.368 . S
H1695 C1703 0.950 . S
H1696 C1701 0.950 . S
H1697 C1702 0.949 . S
H1698 C1704 0.950 . S
H1699 C1705 0.950 . S
H1700 C1706 0.949 . S
C1701 H1696 0.950 . S
C1701 C1703 1.327 . S
C1701 C1707 1.429 . S
C1702 C1694 1.574 . S
C1702 H1697 0.949 . S
C1702 C1708 1.368 . S
C1703 C1687 1.349 . S
C1703 H1695 0.950 . S
C1703 C1701 1.327 . S
C1704 C1692 1.349 . S
C1704 H1698 0.950 . S
C1704 C1705 1.327 . S
C1705 H1699 0.950 . S
C1705 C1704 1.327 . S
C1705 C1709 1.429 . S
C1706 C1689 1.574 . S
C1706 H1700 0.949 . S
C1706 C1710 1.368 . S
C1707 C1688 1.429 . S
C1707 C1701 1.429 . S
C1707 C1708 1.523 . S
C1708 C1689 1.368 . S
C1708 C1702 1.368 . S
C1708 C1707 1.523 . S
C1709 C1693 1.429 . S
C1709 C1705 1.429 . S
C1709 C1710 1.523 . S
C1710 C1694 1.368 . S
C1710 C1706 1.368 . S
C1710 C1709 1.523 . S
H1711 C1686 0.950 . S
H1712 C1688 0.950 . S
H1713 C1689 0.949 . S
H1714 C1691 0.950 . S
H1715 C1693 0.950 . S
C1716 C1717 1.349 . S
C1716 C1718 1.327 . S
C1716 H1741 0.950 . S
C1717 C1716 1.349 . S
C1717 C1733 1.349 . S
C1718 C1716 1.327 . S
C1718 C1737 1.429 . S
C1718 H1742 0.950 . S
C1719 C1736 1.574 . S
C1719 C1738 1.368 . S
C1719 H1743 0.949 . S
H1720 C1724 0.949 . S
C1721 C1722 1.349 . S
C1721 C1723 1.327 . S
C1721 H1744 0.950 . S
C1722 C1721 1.349 . S
C1722 C1734 1.349 . S
C1723 C1721 1.327 . S
C1723 C1739 1.429 . S
C1723 H1745 0.950 . S
C1724 H1720 0.949 . S
C1724 C1732 1.574 . S
C1724 C1740 1.368 . S
H1725 C1733 0.950 . S
H1726 C1731 0.950 . S
H1727 C1732 0.949 . S
H1728 C1734 0.950 . S
H1729 C1735 0.950 . S
H1730 C1736 0.949 . S
C1731 H1726 0.950 . S
C1731 C1733 1.327 . S
C1731 C1737 1.429 . S
C1732 C1724 1.574 . S
C1732 H1727 0.949 . S
C1732 C1738 1.368 . S
C1733 C1717 1.349 . S
C1733 H1725 0.950 . S
C1733 C1731 1.327 . S
C1734 C1722 1.349 . S
C1734 H1728 0.950 . S
C1734 C1735 1.327 . S
C1735 H1729 0.950 . S
C1735 C1734 1.327 . S
C1735 C1739 1.429 . S
C1736 C1719 1.574 . S
C1736 H1730 0.949 . S
C1736 C1740 1.368 . S
C1737 C1718 1.429 . S
C1737 C1731 1.429 . S
C1737 C1738 1.523 . S
C1738 C1719 1.368 . S
C1738 C1732 1.368 . S
C1738 C1737 1.523 . S
C1739 C1723 1.429 . S
C1739 C1735 1.429 . S
C1739 C1740 1.523 . S
C1740 C1724 1.368 . S
C1740 C1736 1.368 . S
C1740 C1739 1.523 . S
H1741 C1716 0.950 . S
H1742 C1718 0.950 . S
H1743 C1719 0.949 . S
H1744 C1721 0.950 . S
H1745 C1723 0.950 . S
C1746 C1747 1.349 . S
C1746 C1748 1.327 . S
C1746 H1771 0.950 . S
C1747 C1746 1.349 . S
C1747 C1763 1.349 . S
C1748 C1746 1.327 . S
C1748 C1767 1.429 . S
C1748 H1772 0.950 . S
C1749 C1766 1.574 . S
C1749 C1768 1.368 . S
C1749 H1773 0.949 . S
H1750 C1754 0.949 . S
C1751 C1752 1.349 . S
C1751 C1753 1.327 . S
C1751 H1774 0.950 . S
C1752 C1751 1.349 . S
C1752 C1764 1.349 . S
C1753 C1751 1.327 . S
C1753 C1769 1.429 . S
C1753 H1775 0.950 . S
C1754 H1750 0.949 . S
C1754 C1762 1.574 . S
C1754 C1770 1.368 . S
H1755 C1763 0.950 . S
H1756 C1761 0.950 . S
H1757 C1762 0.949 . S
H1758 C1764 0.950 . S
H1759 C1765 0.950 . S
H1760 C1766 0.949 . S
C1761 H1756 0.950 . S
C1761 C1763 1.327 . S
C1761 C1767 1.429 . S
C1762 C1754 1.574 . S
C1762 H1757 0.949 . S
C1762 C1768 1.368 . S
C1763 C1747 1.349 . S
C1763 H1755 0.950 . S
C1763 C1761 1.327 . S
C1764 C1752 1.349 . S
C1764 H1758 0.950 . S
C1764 C1765 1.327 . S
C1765 H1759 0.950 . S
C1765 C1764 1.327 . S
C1765 C1769 1.429 . S
C1766 C1749 1.574 . S
C1766 H1760 0.949 . S
C1766 C1770 1.368 . S
C1767 C1748 1.429 . S
C1767 C1761 1.429 . S
C1767 C1768 1.523 . S
C1768 C1749 1.368 . S
C1768 C1762 1.368 . S
C1768 C1767 1.523 . S
C1769 C1753 1.429 . S
C1769 C1765 1.429 . S
C1769 C1770 1.523 . S
C1770 C1754 1.368 . S
C1770 C1766 1.368 . S
C1770 C1769 1.523 . S
H1771 C1746 0.950 . S
H1772 C1748 0.950 . S
H1773 C1749 0.949 . S
H1774 C1751 0.950 . S
H1775 C1753 0.950 . S
C1776 C1777 1.349 . S
C1776 C1778 1.327 . S
C1776 H1801 0.950 . S
C1777 C1776 1.349 . S
C1777 C1793 1.349 1_455 S
C1778 C1776 1.327 . S
C1778 C1797 1.429 . S
C1778 H1802 0.950 . S
C1779 C1796 1.574 . S
C1779 C1798 1.368 . S
C1779 H1803 0.916 1_455 S
H1780 C1784 0.949 . S
C1781 C1782 1.349 . S
C1781 C1783 1.327 . S
C1781 H1804 0.950 . S
C1782 C1781 1.349 . S
C1782 C1794 1.349 . S
C1783 C1781 1.327 . S
C1783 C1799 1.429 . S
C1783 H1805 0.950 . S
C1784 H1780 0.949 . S
C1784 C1792 1.574 . S
C1784 C1800 1.368 . S
H1785 C1793 0.950 . S
H1786 C1791 0.950 1_655 S
H1787 C1792 0.949 . S
H1788 C1794 0.950 . S
H1789 C1795 0.950 . S
H1790 C1796 0.949 . S
C1791 H1786 0.950 1_455 S
C1791 C1793 1.327 1_455 S
C1791 C1797 1.429 . S
C1792 C1784 1.574 . S
C1792 H1787 0.949 . S
C1792 C1798 1.368 . S
C1793 C1777 1.349 1_655 S
C1793 H1785 0.950 . S
C1793 C1791 1.327 1_655 S
C1794 C1782 1.349 . S
C1794 H1788 0.950 . S
C1794 C1795 1.327 . S
C1795 H1789 0.950 . S
C1795 C1794 1.327 . S
C1795 C1799 1.429 . S
C1796 C1779 1.574 . S
C1796 H1790 0.949 . S
C1796 C1800 1.368 . S
C1797 C1778 1.429 . S
C1797 C1791 1.429 . S
C1797 C1798 1.523 . S
C1798 C1779 1.368 . S
C1798 C1792 1.368 . S
C1798 C1797 1.523 . S
C1799 C1783 1.429 . S
C1799 C1795 1.429 . S
C1799 C1800 1.523 . S
C1800 C1784 1.368 . S
C1800 C1796 1.368 . S
C1800 C1799 1.523 . S
H1801 C1776 0.950 . S
H1802 C1778 0.950 . S
H1803 C1779 0.916 1_655 S
H1804 C1781 0.950 . S
H1805 C1783 0.950 . S
C1806 C1807 1.349 . S
C1806 C1808 1.327 . S
C1806 H1831 0.950 . S
C1807 C1806 1.349 . S
C1807 C1823 1.349 . S
C1808 C1806 1.327 . S
C1808 C1827 1.429 . S
C1808 H1832 0.950 . S
C1809 C1826 1.574 . S
C1809 C1828 1.368 . S
C1809 H1833 0.949 . S
H1810 C1814 0.949 . S
C1811 C1812 1.349 . S
C1811 C1813 1.327 . S
C1811 H1834 0.950 . S
C1812 C1811 1.349 . S
C1812 C1824 1.349 . S
C1813 C1811 1.327 . S
C1813 C1829 1.429 . S
C1813 H1835 0.950 . S
C1814 H1810 0.949 . S
C1814 C1822 1.574 . S
C1814 C1830 1.368 . S
H1815 C1823 0.950 . S
H1816 C1821 0.950 . S
H1817 C1822 0.949 . S
H1818 C1824 0.950 . S
H1819 C1825 0.950 . S
H1820 C1826 0.949 . S
C1821 H1816 0.950 . S
C1821 C1823 1.327 . S
C1821 C1827 1.429 . S
C1822 C1814 1.574 . S
C1822 H1817 0.949 . S
C1822 C1828 1.368 . S
C1823 C1807 1.349 . S
C1823 H1815 0.950 . S
C1823 C1821 1.327 . S
C1824 C1812 1.349 . S
C1824 H1818 0.950 . S
C1824 C1825 1.327 . S
C1825 H1819 0.950 . S
C1825 C1824 1.327 . S
C1825 C1829 1.429 . S
C1826 C1809 1.574 . S
C1826 H1820 0.949 . S
C1826 C1830 1.368 . S
C1827 C1808 1.429 . S
C1827 C1821 1.429 . S
C1827 C1828 1.523 . S
C1828 C1809 1.368 . S
C1828 C1822 1.368 . S
C1828 C1827 1.523 . S
C1829 C1813 1.429 . S
C1829 C1825 1.429 . S
C1829 C1830 1.523 . S
C1830 C1814 1.368 . S
C1830 C1826 1.368 . S
C1830 C1829 1.523 . S
H1831 C1806 0.950 . S
H1832 C1808 0.950 . S
H1833 C1809 0.949 . S
H1834 C1811 0.950 . S
H1835 C1813 0.950 . S
C1836 C1837 1.349 . S
C1836 C1838 1.327 . S
C1836 H1861 0.950 . S
C1837 C1836 1.349 . S
C1837 C1853 1.349 . S
C1838 C1836 1.327 . S
C1838 C1857 1.429 . S
C1838 H1862 0.950 . S
C1839 C1856 1.574 . S
C1839 C1858 1.368 . S
C1839 H1863 0.949 . S
H1840 C1844 0.949 . S
C1841 C1842 1.349 . S
C1841 C1843 1.327 . S
C1841 H1864 0.950 . S
C1842 C1841 1.349 . S
C1842 C1854 1.349 . S
C1843 C1841 1.327 . S
C1843 C1859 1.429 . S
C1843 H1865 0.950 . S
C1844 H1840 0.949 . S
C1844 C1852 1.574 . S
C1844 C1860 1.368 . S
H1845 C1853 0.950 . S
H1846 C1851 0.950 . S
H1847 C1852 0.949 . S
H1848 C1854 0.950 . S
H1849 C1855 0.950 . S
H1850 C1856 0.949 . S
C1851 H1846 0.950 . S
C1851 C1853 1.327 . S
C1851 C1857 1.429 . S
C1852 C1844 1.574 . S
C1852 H1847 0.949 . S
C1852 C1858 1.368 . S
C1853 C1837 1.349 . S
C1853 H1845 0.950 . S
C1853 C1851 1.327 . S
C1854 C1842 1.349 . S
C1854 H1848 0.950 . S
C1854 C1855 1.327 . S
C1855 H1849 0.950 . S
C1855 C1854 1.327 . S
C1855 C1859 1.429 . S
C1856 C1839 1.574 . S
C1856 H1850 0.949 . S
C1856 C1860 1.368 . S
C1857 C1838 1.429 . S
C1857 C1851 1.429 . S
C1857 C1858 1.523 . S
C1858 C1839 1.368 . S
C1858 C1852 1.368 . S
C1858 C1857 1.523 . S
C1859 C1843 1.429 . S
C1859 C1855 1.429 . S
C1859 C1860 1.523 . S
C1860 C1844 1.368 . S
C1860 C1856 1.368 . S
C1860 C1859 1.523 . S
H1861 C1836 0.950 . S
H1862 C1838 0.950 . S
H1863 C1839 0.949 . S
H1864 C1841 0.950 . S
H1865 C1843 0.950 . S
C1866 C1867 1.349 . S
C1866 C1868 1.327 . S
C1866 H1891 0.950 . S
C1867 C1866 1.349 . S
C1867 C1883 1.349 . S
C1868 C1866 1.327 . S
C1868 C1887 1.429 . S
C1868 H1892 0.950 . S
C1869 C1886 1.574 . S
C1869 C1888 1.368 . S
C1869 H1893 0.949 . S
H1870 C1874 0.949 . S
C1871 C1872 1.349 . S
C1871 C1873 1.327 . S
C1871 H1894 0.950 . S
C1872 C1871 1.349 . S
C1872 C1884 1.349 . S
C1873 C1871 1.327 . S
C1873 C1889 1.429 . S
C1873 H1895 0.950 . S
C1874 H1870 0.949 . S
C1874 C1882 1.574 . S
C1874 C1890 1.368 . S
H1875 C1883 0.950 . S
H1876 C1881 0.950 . S
H1877 C1882 0.949 . S
H1878 C1884 0.950 . S
H1879 C1885 0.950 . S
H1880 C1886 0.949 . S
C1881 H1876 0.950 . S
C1881 C1883 1.327 . S
C1881 C1887 1.429 . S
C1882 C1874 1.574 . S
C1882 H1877 0.949 . S
C1882 C1888 1.368 . S
C1883 C1867 1.349 . S
C1883 H1875 0.950 . S
C1883 C1881 1.327 . S
C1884 C1872 1.349 . S
C1884 H1878 0.950 . S
C1884 C1885 1.327 . S
C1885 H1879 0.950 . S
C1885 C1884 1.327 . S
C1885 C1889 1.429 . S
C1886 C1869 1.574 . S
C1886 H1880 0.949 . S
C1886 C1890 1.368 . S
C1887 C1868 1.429 . S
C1887 C1881 1.429 . S
C1887 C1888 1.523 . S
C1888 C1869 1.368 . S
C1888 C1882 1.368 . S
C1888 C1887 1.523 . S
C1889 C1873 1.429 . S
C1889 C1885 1.429 . S
C1889 C1890 1.523 . S
C1890 C1874 1.368 . S
C1890 C1886 1.368 . S
C1890 C1889 1.523 . S
H1891 C1866 0.950 . S
H1892 C1868 0.950 . S
H1893 C1869 0.949 . S
H1894 C1871 0.950 . S
H1895 C1873 0.950 . S
C1896 C1897 1.349 . S
C1896 C1898 1.327 . S
C1896 H1921 0.950 . S
C1897 C1896 1.349 . S
C1897 C1913 1.349 . S
C1898 C1896 1.327 . S
C1898 C1917 1.429 . S
C1898 H1922 0.950 . S
C1899 C1916 1.574 . S
C1899 C1918 1.368 1_455 S
C1899 H1923 0.949 . S
H1900 C1904 0.949 . S
C1901 C1902 1.349 . S
C1901 C1903 1.327 . S
C1901 H1924 0.950 . S
C1902 C1901 1.349 . S
C1902 C1914 1.349 . S
C1903 C1901 1.327 . S
C1903 C1919 1.429 . S
C1903 H1925 0.950 . S
C1904 H1900 0.949 . S
C1904 C1912 1.574 . S
C1904 C1920 1.368 1_655 S
H1905 C1913 0.950 . S
H1906 C1911 0.950 . S
H1907 C1912 0.949 . S
H1908 C1914 0.950 . S
H1909 C1915 0.950 . S
H1910 C1916 0.949 . S
C1911 H1906 0.950 . S
C1911 C1913 1.327 . S
C1911 C1917 1.429 . S
C1912 C1904 1.574 . S
C1912 H1907 0.949 . S
C1912 C1918 1.368 . S
C1913 C1897 1.349 . S
C1913 H1905 0.950 . S
C1913 C1911 1.327 . S
C1914 C1902 1.349 . S
C1914 H1908 0.950 . S
C1914 C1915 1.327 . S
C1915 H1909 0.950 . S
C1915 C1914 1.327 . S
C1915 C1919 1.429 . S
C1916 C1899 1.574 . S
C1916 H1910 0.949 . S
C1916 C1920 1.368 . S
C1917 C1898 1.429 . S
C1917 C1911 1.429 . S
C1917 C1918 1.523 . S
C1918 C1899 1.368 1_655 S
C1918 C1912 1.368 . S
C1918 C1917 1.523 . S
C1919 C1903 1.429 . S
C1919 C1915 1.429 . S
C1919 C1920 1.523 . S
C1920 C1904 1.368 1_455 S
C1920 C1916 1.368 . S
C1920 C1919 1.523 . S
H1921 C1896 0.950 . S
H1922 C1898 0.950 . S
H1923 C1899 0.949 . S
H1924 C1901 0.950 . S
H1925 C1903 0.950 . S
C1926 C1927 1.349 . S
C1926 C1928 1.327 . S
C1926 H1951 0.950 . S
C1927 C1926 1.349 . S
C1927 C1943 1.349 . S
C1928 C1926 1.327 . S
C1928 C1947 1.429 . S
C1928 H1952 0.950 . S
C1929 C1946 1.574 . S
C1929 C1948 1.368 . S
C1929 H1953 0.949 . S
H1930 C1934 0.949 . S
C1931 C1932 1.349 . S
C1931 C1933 1.327 . S
C1931 H1954 0.950 . S
C1932 C1931 1.349 . S
C1932 C1944 1.349 . S
C1933 C1931 1.327 . S
C1933 C1949 1.429 . S
C1933 H1955 0.950 . S
C1934 H1930 0.949 . S
C1934 C1942 1.574 . S
C1934 C1950 1.368 . S
H1935 C1943 0.950 . S
H1936 C1941 0.950 . S
H1937 C1942 0.949 . S
H1938 C1944 0.950 . S
H1939 C1945 0.950 . S
H1940 C1946 0.949 . S
C1941 H1936 0.950 . S
C1941 C1943 1.327 . S
C1941 C1947 1.429 . S
C1942 C1934 1.574 . S
C1942 H1937 0.949 . S
C1942 C1948 1.368 . S
C1943 C1927 1.349 . S
C1943 H1935 0.950 . S
C1943 C1941 1.327 . S
C1944 C1932 1.349 . S
C1944 H1938 0.950 . S
C1944 C1945 1.327 . S
C1945 H1939 0.950 . S
C1945 C1944 1.327 . S
C1945 C1949 1.429 . S
C1946 C1929 1.574 . S
C1946 H1940 0.949 . S
C1946 C1950 1.368 . S
C1947 C1928 1.429 . S
C1947 C1941 1.429 . S
C1947 C1948 1.523 . S
C1948 C1929 1.368 . S
C1948 C1942 1.368 . S
C1948 C1947 1.523 . S
C1949 C1933 1.429 . S
C1949 C1945 1.429 . S
C1949 C1950 1.523 . S
C1950 C1934 1.368 . S
C1950 C1946 1.368 . S
C1950 C1949 1.523 . S
H1951 C1926 0.950 . S
H1952 C1928 0.950 . S
H1953 C1929 0.949 . S
H1954 C1931 0.950 . S
H1955 C1933 0.950 . S
C1956 C1957 1.349 . S
C1956 C1958 1.327 . S
C1956 H1981 0.950 . S
C1957 C1956 1.349 . S
C1957 C1973 1.349 . S
C1958 C1956 1.327 . S
C1958 C1977 1.429 . S
C1958 H1982 0.950 . S
C1959 C1976 1.574 . S
C1959 C1978 1.368 . S
C1959 H1983 0.949 . S
H1960 C1964 0.949 1_565 S
C1961 C1962 1.349 . S
C1961 C1963 1.327 . S
C1961 H1984 0.950 . S
C1962 C1961 1.349 . S
C1962 C1974 1.349 . S
C1963 C1961 1.327 . S
C1963 C1979 1.429 . S
C1963 H1985 0.950 . S
C1964 H1960 0.949 1_545 S
C1964 C1972 1.574 . S
C1964 C1980 1.368 . S
H1965 C1973 0.950 . S
H1966 C1971 0.950 . S
H1967 C1972 0.984 . S
H1968 C1974 0.950 1_565 S
H1969 C1975 0.950 1_565 S
H1970 C1976 0.949 . S
C1971 H1966 0.950 . S
C1971 C1973 1.327 . S
C1971 C1977 1.429 . S
C1972 C1964 1.574 . S
C1972 H1967 0.984 . S
C1972 C1978 1.368 . S
C1973 C1957 1.349 . S
C1973 H1965 0.950 . S
C1973 C1971 1.327 . S
C1974 C1962 1.349 . S
C1974 H1968 0.950 1_545 S
C1974 C1975 1.327 . S
C1975 H1969 0.950 1_545 S
C1975 C1974 1.327 . S
C1975 C1979 1.429 . S
C1976 C1959 1.574 . S
C1976 H1970 0.949 . S
C1976 C1980 1.368 . S
C1977 C1958 1.429 . S
C1977 C1971 1.429 . S
C1977 C1978 1.523 . S
C1978 C1959 1.368 . S
C1978 C1972 1.368 . S
C1978 C1977 1.523 . S
C1979 C1963 1.429 . S
C1979 C1975 1.429 . S
C1979 C1980 1.523 . S
C1980 C1964 1.368 . S
C1980 C1976 1.368 . S
C1980 C1979 1.523 . S
H1981 C1956 0.950 . S
H1982 C1958 0.950 . S
H1983 C1959 0.949 . S
H1984 C1961 0.950 . S
H1985 C1963 0.950 . S
C1986 C1987 1.349 . S
C1986 C1988 1.327 . S
C1986 H2011 0.950 . S
C1987 C1986 1.349 . S
C1987 C2003 1.349 . S
C1988 C1986 1.327 . S
C1988 C2007 1.429 . S
C1988 H2012 0.950 . S
C1989 C2006 1.574 . S
C1989 C2008 1.368 . S
C1989 H2013 0.949 . S
H1990 C1994 0.949 . S
C1991 C1992 1.349 . S
C1991 C1993 1.327 . S
C1991 H2014 0.950 . S
C1992 C1991 1.349 . S
C1992 C2004 1.349 . S
C1993 C1991 1.327 . S
C1993 C2009 1.429 . S
C1993 H2015 0.950 . S
C1994 H1990 0.949 . S
C1994 C2002 1.574 . S
C1994 C2010 1.368 . S
H1995 C2003 0.950 . S
H1996 C2001 0.950 . S
H1997 C2002 0.949 . S
H1998 C2004 0.950 . S
H1999 C2005 0.950 . S
H2000 C2006 0.949 . S
C2001 H1996 0.950 . S
C2001 C2003 1.327 . S
C2001 C2007 1.429 . S
C2002 C1994 1.574 . S
C2002 H1997 0.949 . S
C2002 C2008 1.368 . S
C2003 C1987 1.349 . S
C2003 H1995 0.950 . S
C2003 C2001 1.327 . S
C2004 C1992 1.349 . S
C2004 H1998 0.950 . S
C2004 C2005 1.327 . S
C2005 H1999 0.950 . S
C2005 C2004 1.327 . S
C2005 C2009 1.429 . S
C2006 C1989 1.574 . S
C2006 H2000 0.949 . S
C2006 C2010 1.368 . S
C2007 C1988 1.429 . S
C2007 C2001 1.429 . S
C2007 C2008 1.523 . S
C2008 C1989 1.368 . S
C2008 C2002 1.368 . S
C2008 C2007 1.523 . S
C2009 C1993 1.429 . S
C2009 C2005 1.429 . S
C2009 C2010 1.523 . S
C2010 C1994 1.368 . S
C2010 C2006 1.368 . S
C2010 C2009 1.523 . S
H2011 C1986 0.950 . S
H2012 C1988 0.950 . S
H2013 C1989 0.949 . S
H2014 C1991 0.950 . S
H2015 C1993 0.950 . S
C2016 C2017 1.349 . S
C2016 C2018 1.327 . S
C2016 H2041 0.950 . S
C2017 C2016 1.349 . S
C2017 C2033 1.349 . S
C2018 C2016 1.327 . S
C2018 C2037 1.429 . S
C2018 H2042 0.950 . S
C2019 C2036 1.549 1_655 S
C2019 C2038 1.368 . S
C2019 H2043 0.949 . S
H2020 C2024 0.949 . S
C2021 C2022 1.349 . S
C2021 C2023 1.327 . S
C2021 H2044 0.950 . S
C2022 C2021 1.349 . S
C2022 C2034 1.349 . S
C2023 C2021 1.327 . S
C2023 C2039 1.429 . S
C2023 H2045 0.950 . S
C2024 H2020 0.949 . S
C2024 C2032 1.574 . S
C2024 C2040 1.368 . S
H2025 C2033 0.950 . S
H2026 C2031 0.950 . S
H2027 C2032 0.949 . S
H2028 C2034 0.950 . S
H2029 C2035 0.950 . S
H2030 C2036 0.947 . S
C2031 H2026 0.950 . S
C2031 C2033 1.327 . S
C2031 C2037 1.429 . S
C2032 C2024 1.574 . S
C2032 H2027 0.949 . S
C2032 C2038 1.368 1_455 S
C2033 C2017 1.349 . S
C2033 H2025 0.950 . S
C2033 C2031 1.327 . S
C2034 C2022 1.349 . S
C2034 H2028 0.950 . S
C2034 C2035 1.327 . S
C2035 H2029 0.950 . S
C2035 C2034 1.327 . S
C2035 C2039 1.429 . S
C2036 C2019 1.549 1_455 S
C2036 H2030 0.947 . S
C2036 C2040 1.403 . S
C2037 C2018 1.429 . S
C2037 C2031 1.429 . S
C2037 C2038 1.523 . S
C2038 C2019 1.368 . S
C2038 C2032 1.368 1_655 S
C2038 C2037 1.523 . S
C2039 C2023 1.429 . S
C2039 C2035 1.429 . S
C2039 C2040 1.523 . S
C2040 C2024 1.368 . S
C2040 C2036 1.403 . S
C2040 C2039 1.523 . S
H2041 C2016 0.950 . S
H2042 C2018 0.950 . S
H2043 C2019 0.949 . S
H2044 C2021 0.950 . S
H2045 C2023 0.950 . S
C2046 C2047 1.349 . S
C2046 C2048 1.327 . S
C2046 H2071 0.950 . S
C2047 C2046 1.349 . S
C2047 C2063 1.349 . S
C2048 C2046 1.327 . S
C2048 C2067 1.429 . S
C2048 H2072 0.950 . S
C2049 C2066 1.574 . S
C2049 C2068 1.368 . S
C2049 H2073 0.949 . S
H2050 C2054 0.949 . S
C2051 C2052 1.349 . S
C2051 C2053 1.327 . S
C2051 H2074 0.950 . S
C2052 C2051 1.349 . S
C2052 C2064 1.349 . S
C2053 C2051 1.327 . S
C2053 C2069 1.429 . S
C2053 H2075 0.950 . S
C2054 H2050 0.949 . S
C2054 C2062 1.574 . S
C2054 C2070 1.368 . S
H2055 C2063 0.950 . S
H2056 C2061 0.950 . S
H2057 C2062 0.949 . S
H2058 C2064 0.950 . S
H2059 C2065 0.950 . S
H2060 C2066 0.949 . S
C2061 H2056 0.950 . S
C2061 C2063 1.327 . S
C2061 C2067 1.429 . S
C2062 C2054 1.574 . S
C2062 H2057 0.949 . S
C2062 C2068 1.368 . S
C2063 C2047 1.349 . S
C2063 H2055 0.950 . S
C2063 C2061 1.327 . S
C2064 C2052 1.349 . S
C2064 H2058 0.950 . S
C2064 C2065 1.327 . S
C2065 H2059 0.950 . S
C2065 C2064 1.327 . S
C2065 C2069 1.429 . S
C2066 C2049 1.574 . S
C2066 H2060 0.949 . S
C2066 C2070 1.368 . S
C2067 C2048 1.429 . S
C2067 C2061 1.429 . S
C2067 C2068 1.523 . S
C2068 C2049 1.368 . S
C2068 C2062 1.368 . S
C2068 C2067 1.523 . S
C2069 C2053 1.429 . S
C2069 C2065 1.429 . S
C2069 C2070 1.523 . S
C2070 C2054 1.368 . S
C2070 C2066 1.368 . S
C2070 C2069 1.523 . S
H2071 C2046 0.950 . S
H2072 C2048 0.950 . S
H2073 C2049 0.949 . S
H2074 C2051 0.950 . S
H2075 C2053 0.950 . S
C2076 C2077 1.349 . S
C2076 C2078 1.327 . S
C2076 H2101 0.950 . S
C2077 C2076 1.349 . S
C2077 C2093 1.349 . S
C2078 C2076 1.327 . S
C2078 C2097 1.429 . S
C2078 H2102 0.950 . S
C2079 C2096 1.574 . S
C2079 C2098 1.368 . S
C2079 H2103 0.949 . S
H2080 C2084 0.949 . S
C2081 C2082 1.349 . S
C2081 C2083 1.327 . S
C2081 H2104 0.950 . S
C2082 C2081 1.349 . S
C2082 C2094 1.349 . S
C2083 C2081 1.327 . S
C2083 C2099 1.429 . S
C2083 H2105 0.950 . S
C2084 H2080 0.949 . S
C2084 C2092 1.574 . S
C2084 C2100 1.368 . S
H2085 C2093 0.950 . S
H2086 C2091 0.950 . S
H2087 C2092 0.949 . S
H2088 C2094 0.950 . S
H2089 C2095 0.950 . S
H2090 C2096 0.949 . S
C2091 H2086 0.950 . S
C2091 C2093 1.327 . S
C2091 C2097 1.429 . S
C2092 C2084 1.574 . S
C2092 H2087 0.949 . S
C2092 C2098 1.368 . S
C2093 C2077 1.349 . S
C2093 H2085 0.950 . S
C2093 C2091 1.327 . S
C2094 C2082 1.349 . S
C2094 H2088 0.950 . S
C2094 C2095 1.327 . S
C2095 H2089 0.950 . S
C2095 C2094 1.327 . S
C2095 C2099 1.429 . S
C2096 C2079 1.574 . S
C2096 H2090 0.949 . S
C2096 C2100 1.368 . S
C2097 C2078 1.429 . S
C2097 C2091 1.429 . S
C2097 C2098 1.523 . S
C2098 C2079 1.368 . S
C2098 C2092 1.368 . S
C2098 C2097 1.523 . S
C2099 C2083 1.429 . S
C2099 C2095 1.429 . S
C2099 C2100 1.523 . S
C2100 C2084 1.368 . S
C2100 C2096 1.368 . S
C2100 C2099 1.523 . S
H2101 C2076 0.950 . S
H2102 C2078 0.950 . S
H2103 C2079 0.949 . S
H2104 C2081 0.950 . S
H2105 C2083 0.950 . S
C2106 C2107 1.349 . S
C2106 C2108 1.327 . S
C2106 H2131 0.950 . S
C2107 C2106 1.349 . S
C2107 C2123 1.349 . S
C2108 C2106 1.327 . S
C2108 C2127 1.429 . S
C2108 H2132 0.950 . S
C2109 C2126 1.574 . S
C2109 C2128 1.368 . S
C2109 H2133 0.949 . S
H2110 C2114 0.949 . S
C2111 C2112 1.349 . S
C2111 C2113 1.327 . S
C2111 H2134 0.950 . S
C2112 C2111 1.349 . S
C2112 C2124 1.349 . S
C2113 C2111 1.327 . S
C2113 C2129 1.429 . S
C2113 H2135 0.950 . S
C2114 H2110 0.949 . S
C2114 C2122 1.574 . S
C2114 C2130 1.368 . S
H2115 C2123 0.950 . S
H2116 C2121 0.950 . S
H2117 C2122 0.949 . S
H2118 C2124 0.950 . S
H2119 C2125 0.950 . S
H2120 C2126 0.949 . S
C2121 H2116 0.950 . S
C2121 C2123 1.327 . S
C2121 C2127 1.429 . S
C2122 C2114 1.574 . S
C2122 H2117 0.949 . S
C2122 C2128 1.368 . S
C2123 C2107 1.349 . S
C2123 H2115 0.950 . S
C2123 C2121 1.327 . S
C2124 C2112 1.349 . S
C2124 H2118 0.950 . S
C2124 C2125 1.327 . S
C2125 H2119 0.950 . S
C2125 C2124 1.327 . S
C2125 C2129 1.429 . S
C2126 C2109 1.574 . S
C2126 H2120 0.949 . S
C2126 C2130 1.368 . S
C2127 C2108 1.429 . S
C2127 C2121 1.429 . S
C2127 C2128 1.523 . S
C2128 C2109 1.368 . S
C2128 C2122 1.368 . S
C2128 C2127 1.523 . S
C2129 C2113 1.429 . S
C2129 C2125 1.429 . S
C2129 C2130 1.523 . S
C2130 C2114 1.368 . S
C2130 C2126 1.368 . S
C2130 C2129 1.523 . S
H2131 C2106 0.950 . S
H2132 C2108 0.950 . S
H2133 C2109 0.949 . S
H2134 C2111 0.950 . S
H2135 C2113 0.950 . S
C2136 C2137 1.349 . S
C2136 C2138 1.327 . S
C2136 H2161 0.950 . S
C2137 C2136 1.349 . S
C2137 C2153 1.349 . S
C2138 C2136 1.327 . S
C2138 C2157 1.429 . S
C2138 H2162 0.950 . S
C2139 C2156 1.574 . S
C2139 C2158 1.368 . S
C2139 H2163 0.949 . S
H2140 C2144 0.949 1_545 S
C2141 C2142 1.349 . S
C2141 C2143 1.327 1_545 S
C2141 H2164 0.950 . S
C2142 C2141 1.349 . S
C2142 C2154 1.349 . S
C2143 C2141 1.327 1_565 S
C2143 C2159 1.429 1_565 S
C2143 H2165 0.950 . S
C2144 H2140 0.949 1_565 S
C2144 C2152 1.574 . S
C2144 C2160 1.368 . S
H2145 C2153 0.950 1_556 S
H2146 C2151 0.953 . S
H2147 C2152 0.949 . S
H2148 C2154 0.950 . S
H2149 C2155 0.950 . S
H2150 C2156 0.949 . S
C2151 H2146 0.953 . S
C2151 C2153 1.327 . S
C2151 C2157 1.429 . S
C2152 C2144 1.574 . S
C2152 H2147 0.949 . S
C2152 C2158 1.368 . S
C2153 C2137 1.349 . S
C2153 H2145 0.950 1_554 S
C2153 C2151 1.327 . S
C2154 C2142 1.349 . S
C2154 H2148 0.950 . S
C2154 C2155 1.327 . S
C2155 H2149 0.950 . S
C2155 C2154 1.327 . S
C2155 C2159 1.429 . S
C2156 C2139 1.574 . S
C2156 H2150 0.949 . S
C2156 C2160 1.368 . S
C2157 C2138 1.429 . S
C2157 C2151 1.429 . S
C2157 C2158 1.523 . S
C2158 C2139 1.368 . S
C2158 C2152 1.368 . S
C2158 C2157 1.523 . S
C2159 C2143 1.429 1_545 S
C2159 C2155 1.429 . S
C2159 C2160 1.523 1_545 S
C2160 C2144 1.368 . S
C2160 C2156 1.368 . S
C2160 C2159 1.523 1_565 S
H2161 C2136 0.950 . S
H2162 C2138 0.950 . S
H2163 C2139 0.949 . S
H2164 C2141 0.950 . S
H2165 C2143 0.950 . S
C2166 C2167 1.349 . S
C2166 C2168 1.327 . S
C2166 H2191 0.951 . S
C2167 C2166 1.349 . S
C2167 C2183 1.349 . S
C2168 C2166 1.327 . S
C2168 C2187 1.429 . S
C2168 H2192 0.948 1_556 S
C2169 C2186 1.574 . S
C2169 C2188 1.368 . S
C2169 H2193 0.949 . S
H2170 C2174 0.938 1_554 S
C2171 C2172 1.349 . S
C2171 C2173 1.327 . S
C2171 H2194 0.950 . S
C2172 C2171 1.349 . S
C2172 C2184 1.349 1_556 S
C2173 C2171 1.327 . S
C2173 C2189 1.429 . S
C2173 H2195 0.950 . S
C2174 H2170 0.938 1_556 S
C2174 C2182 1.587 . S
C2174 C2190 1.372 . S
H2175 C2183 0.950 . S
H2176 C2181 0.950 . S
H2177 C2182 0.951 1_554 S
H2178 C2184 0.951 . S
H2179 C2185 0.950 1_554 S
H2180 C2186 0.949 . S
C2181 H2176 0.950 . S
C2181 C2183 1.327 . S
C2181 C2187 1.429 . S
C2182 C2174 1.587 . S
C2182 H2177 0.951 1_556 S
C2182 C2188 1.368 . S
C2183 C2167 1.349 . S
C2183 H2175 0.950 . S
C2183 C2181 1.327 . S
C2184 C2172 1.349 1_554 S
C2184 H2178 0.951 . S
C2184 C2185 1.325 1_554 S
C2185 H2179 0.950 1_556 S
C2185 C2184 1.325 1_556 S
C2185 C2189 1.430 . S
C2186 C2169 1.574 . S
C2186 H2180 0.949 . S
C2186 C2190 1.368 . S
C2187 C2168 1.429 . S
C2187 C2181 1.429 . S
C2187 C2188 1.523 . S
C2188 C2169 1.368 . S
C2188 C2182 1.368 . S
C2188 C2187 1.523 . S
C2189 C2173 1.429 . S
C2189 C2185 1.430 . S
C2189 C2190 1.523 . S
C2190 C2174 1.372 . S
C2190 C2186 1.368 . S
C2190 C2189 1.523 . S
H2191 C2166 0.951 . S
H2192 C2168 0.948 1_554 S
H2193 C2169 0.949 . S
H2194 C2171 0.950 . S
H2195 C2173 0.950 . S
C2196 C2197 1.349 . S
C2196 C2198 1.327 . S
C2196 H2221 0.950 . S
C2197 C2196 1.349 . S
C2197 C2213 1.349 . S
C2198 C2196 1.327 . S
C2198 C2217 1.429 . S
C2198 H2222 0.950 . S
C2199 C2216 1.574 . S
C2199 C2218 1.368 . S
C2199 H2223 0.949 . S
H2200 C2204 0.949 . S
C2201 C2202 1.349 . S
C2201 C2203 1.327 . S
C2201 H2224 0.950 . S
C2202 C2201 1.349 . S
C2202 C2214 1.349 . S
C2203 C2201 1.327 . S
C2203 C2219 1.429 . S
C2203 H2225 0.950 . S
C2204 H2200 0.949 . S
C2204 C2212 1.574 . S
C2204 C2220 1.368 . S
H2205 C2213 0.950 . S
H2206 C2211 0.950 . S
H2207 C2212 0.949 . S
H2208 C2214 0.950 . S
H2209 C2215 0.950 . S
H2210 C2216 0.949 . S
C2211 H2206 0.950 . S
C2211 C2213 1.327 . S
C2211 C2217 1.429 . S
C2212 C2204 1.574 . S
C2212 H2207 0.949 . S
C2212 C2218 1.368 . S
C2213 C2197 1.349 . S
C2213 H2205 0.950 . S
C2213 C2211 1.327 . S
C2214 C2202 1.349 . S
C2214 H2208 0.950 . S
C2214 C2215 1.327 . S
C2215 H2209 0.950 . S
C2215 C2214 1.327 . S
C2215 C2219 1.429 . S
C2216 C2199 1.574 . S
C2216 H2210 0.949 . S
C2216 C2220 1.368 . S
C2217 C2198 1.429 . S
C2217 C2211 1.429 . S
C2217 C2218 1.523 . S
C2218 C2199 1.368 . S
C2218 C2212 1.368 . S
C2218 C2217 1.523 . S
C2219 C2203 1.429 . S
C2219 C2215 1.429 . S
C2219 C2220 1.523 . S
C2220 C2204 1.368 . S
C2220 C2216 1.368 . S
C2220 C2219 1.523 . S
H2221 C2196 0.950 . S
H2222 C2198 0.950 . S
H2223 C2199 0.949 . S
H2224 C2201 0.950 . S
H2225 C2203 0.950 . S
C2226 C2227 1.349 . S
C2226 C2228 1.327 . S
C2226 H2251 0.950 . S
C2227 C2226 1.349 . S
C2227 C2243 1.349 . S
C2228 C2226 1.327 . S
C2228 C2247 1.429 . S
C2228 H2252 0.950 . S
C2229 C2246 1.574 . S
C2229 C2248 1.368 . S
C2229 H2253 0.949 . S
H2230 C2234 0.949 . S
C2231 C2232 1.347 . S
C2231 C2233 1.327 . S
C2231 H2254 0.950 . S
C2232 C2231 1.347 . S
C2232 C2244 1.349 . S
C2233 C2231 1.327 . S
C2233 C2249 1.429 . S
C2233 H2255 0.950 . S
C2234 H2230 0.949 . S
C2234 C2242 1.574 . S
C2234 C2250 1.368 . S
H2235 C2243 0.950 . S
H2236 C2241 0.950 . S
H2237 C2242 0.949 . S
H2238 C2244 0.950 1_455 S
H2239 C2245 0.950 . S
H2240 C2246 0.949 . S
C2241 H2236 0.950 . S
C2241 C2243 1.327 . S
C2241 C2247 1.429 . S
C2242 C2234 1.574 . S
C2242 H2237 0.949 . S
C2242 C2248 1.368 . S
C2243 C2227 1.349 . S
C2243 H2235 0.950 . S
C2243 C2241 1.327 . S
C2244 C2232 1.349 . S
C2244 H2238 0.950 1_655 S
C2244 C2245 1.327 . S
C2245 H2239 0.950 . S
C2245 C2244 1.327 . S
C2245 C2249 1.429 . S
C2246 C2229 1.574 . S
C2246 H2240 0.949 . S
C2246 C2250 1.368 . S
C2247 C2228 1.429 . S
C2247 C2241 1.429 . S
C2247 C2248 1.523 . S
C2248 C2229 1.368 . S
C2248 C2242 1.368 . S
C2248 C2247 1.523 . S
C2249 C2233 1.429 . S
C2249 C2245 1.429 . S
C2249 C2250 1.523 . S
C2250 C2234 1.368 . S
C2250 C2246 1.368 . S
C2250 C2249 1.523 . S
H2251 C2226 0.950 . S
H2252 C2228 0.950 . S
H2253 C2229 0.949 . S
H2254 C2231 0.950 . S
H2255 C2233 0.950 . S
C2256 C2257 1.349 . S
C2256 C2258 1.327 . S
C2256 H2281 0.950 . S
C2257 C2256 1.349 . S
C2257 C2273 1.349 . S
C2258 C2256 1.327 . S
C2258 C2277 1.429 . S
C2258 H2282 0.950 . S
C2259 C2276 1.574 . S
C2259 C2278 1.368 . S
C2259 H2283 0.949 . S
H2260 C2264 0.949 . S
C2261 C2262 1.349 . S
C2261 C2263 1.327 . S
C2261 H2284 0.950 . S
C2262 C2261 1.349 . S
C2262 C2274 1.349 . S
C2263 C2261 1.327 . S
C2263 C2279 1.429 . S
C2263 H2285 0.950 . S
C2264 H2260 0.949 . S
C2264 C2272 1.574 . S
C2264 C2280 1.368 . S
H2265 C2273 0.950 . S
H2266 C2271 0.950 . S
H2267 C2272 0.949 . S
H2268 C2274 0.950 . S
H2269 C2275 0.950 . S
H2270 C2276 0.949 . S
C2271 H2266 0.950 . S
C2271 C2273 1.327 . S
C2271 C2277 1.429 . S
C2272 C2264 1.574 . S
C2272 H2267 0.949 . S
C2272 C2278 1.368 . S
C2273 C2257 1.349 . S
C2273 H2265 0.950 . S
C2273 C2271 1.327 . S
C2274 C2262 1.349 . S
C2274 H2268 0.950 . S
C2274 C2275 1.327 . S
C2275 H2269 0.950 . S
C2275 C2274 1.327 . S
C2275 C2279 1.429 . S
C2276 C2259 1.574 . S
C2276 H2270 0.949 . S
C2276 C2280 1.368 . S
C2277 C2258 1.429 . S
C2277 C2271 1.429 . S
C2277 C2278 1.523 . S
C2278 C2259 1.368 . S
C2278 C2272 1.368 . S
C2278 C2277 1.523 . S
C2279 C2263 1.429 . S
C2279 C2275 1.429 . S
C2279 C2280 1.523 . S
C2280 C2264 1.368 . S
C2280 C2276 1.368 . S
C2280 C2279 1.523 . S
H2281 C2256 0.950 . S
H2282 C2258 0.950 . S
H2283 C2259 0.949 . S
H2284 C2261 0.950 . S
H2285 C2263 0.950 . S
C2286 C2287 1.349 . S
C2286 C2288 1.327 . S
C2286 H2311 0.950 . S
C2287 C2286 1.349 . S
C2287 C2303 1.349 . S
C2288 C2286 1.327 . S
C2288 C2307 1.429 . S
C2288 H2312 0.950 . S
C2289 C2306 1.574 . S
C2289 C2308 1.368 . S
C2289 H2313 0.949 . S
H2290 C2294 0.949 . S
C2291 C2292 1.349 . S
C2291 C2293 1.327 . S
C2291 H2314 0.950 . S
C2292 C2291 1.349 . S
C2292 C2304 1.349 . S
C2293 C2291 1.327 . S
C2293 C2309 1.429 . S
C2293 H2315 0.950 . S
C2294 H2290 0.949 . S
C2294 C2302 1.574 . S
C2294 C2310 1.368 . S
H2295 C2303 0.950 . S
H2296 C2301 0.950 . S
H2297 C2302 0.949 . S
H2298 C2304 0.950 . S
H2299 C2305 0.950 . S
H2300 C2306 0.949 . S
C2301 H2296 0.950 . S
C2301 C2303 1.327 . S
C2301 C2307 1.429 . S
C2302 C2294 1.574 . S
C2302 H2297 0.949 . S
C2302 C2308 1.368 . S
C2303 C2287 1.349 . S
C2303 H2295 0.950 . S
C2303 C2301 1.327 . S
C2304 C2292 1.349 . S
C2304 H2298 0.950 . S
C2304 C2305 1.327 . S
C2305 H2299 0.950 . S
C2305 C2304 1.327 . S
C2305 C2309 1.429 . S
C2306 C2289 1.574 . S
C2306 H2300 0.949 . S
C2306 C2310 1.368 . S
C2307 C2288 1.429 . S
C2307 C2301 1.429 . S
C2307 C2308 1.523 . S
C2308 C2289 1.368 . S
C2308 C2302 1.368 . S
C2308 C2307 1.523 . S
C2309 C2293 1.429 . S
C2309 C2305 1.429 . S
C2309 C2310 1.523 . S
C2310 C2294 1.368 . S
C2310 C2306 1.368 . S
C2310 C2309 1.523 . S
H2311 C2286 0.950 . S
H2312 C2288 0.950 . S
H2313 C2289 0.949 . S
H2314 C2291 0.950 . S
H2315 C2293 0.950 . S
C2316 C2317 1.349 . S
C2316 C2318 1.327 . S
C2316 H2341 0.950 . S
C2317 C2316 1.349 . S
C2317 C2333 1.349 . S
C2318 C2316 1.327 . S
C2318 C2337 1.429 . S
C2318 H2342 0.950 . S
C2319 C2336 1.574 . S
C2319 C2338 1.368 . S
C2319 H2343 0.949 . S
H2320 C2324 0.949 . S
C2321 C2322 1.349 . S
C2321 C2323 1.327 . S
C2321 H2344 0.950 . S
C2322 C2321 1.349 . S
C2322 C2334 1.349 . S
C2323 C2321 1.327 . S
C2323 C2339 1.429 . S
C2323 H2345 0.950 . S
C2324 H2320 0.949 . S
C2324 C2332 1.574 . S
C2324 C2340 1.368 . S
H2325 C2333 0.950 . S
H2326 C2331 0.950 . S
H2327 C2332 0.949 . S
H2328 C2334 0.950 . S
H2329 C2335 0.950 . S
H2330 C2336 0.949 . S
C2331 H2326 0.950 . S
C2331 C2333 1.327 . S
C2331 C2337 1.429 . S
C2332 C2324 1.574 . S
C2332 H2327 0.949 . S
C2332 C2338 1.368 . S
C2333 C2317 1.349 . S
C2333 H2325 0.950 . S
C2333 C2331 1.327 . S
C2334 C2322 1.349 . S
C2334 H2328 0.950 . S
C2334 C2335 1.327 . S
C2335 H2329 0.950 . S
C2335 C2334 1.327 . S
C2335 C2339 1.429 . S
C2336 C2319 1.574 . S
C2336 H2330 0.949 . S
C2336 C2340 1.368 . S
C2337 C2318 1.429 . S
C2337 C2331 1.429 . S
C2337 C2338 1.523 . S
C2338 C2319 1.368 . S
C2338 C2332 1.368 . S
C2338 C2337 1.523 . S
C2339 C2323 1.429 . S
C2339 C2335 1.429 . S
C2339 C2340 1.523 . S
C2340 C2324 1.368 . S
C2340 C2336 1.368 . S
C2340 C2339 1.523 . S
H2341 C2316 0.950 . S
H2342 C2318 0.950 . S
H2343 C2319 0.949 . S
H2344 C2321 0.950 . S
H2345 C2323 0.950 . S
C2346 C2347 1.349 . S
C2346 C2348 1.327 . S
C2346 H2371 0.950 . S
C2347 C2346 1.349 . S
C2347 C2363 1.349 . S
C2348 C2346 1.327 . S
C2348 C2367 1.429 . S
C2348 H2372 0.950 . S
C2349 C2366 1.574 . S
C2349 C2368 1.368 . S
C2349 H2373 0.949 . S
H2350 C2354 0.949 . S
C2351 C2352 1.349 . S
C2351 C2353 1.327 . S
C2351 H2374 0.950 . S
C2352 C2351 1.349 . S
C2352 C2364 1.349 . S
C2353 C2351 1.327 . S
C2353 C2369 1.429 . S
C2353 H2375 0.950 . S
C2354 H2350 0.949 . S
C2354 C2362 1.574 . S
C2354 C2370 1.368 . S
H2355 C2363 0.950 . S
H2356 C2361 0.950 . S
H2357 C2362 0.949 . S
H2358 C2364 0.950 . S
H2359 C2365 0.950 . S
H2360 C2366 0.949 . S
C2361 H2356 0.950 . S
C2361 C2363 1.327 . S
C2361 C2367 1.429 . S
C2362 C2354 1.574 . S
C2362 H2357 0.949 . S
C2362 C2368 1.368 . S
C2363 C2347 1.349 . S
C2363 H2355 0.950 . S
C2363 C2361 1.327 . S
C2364 C2352 1.349 . S
C2364 H2358 0.950 . S
C2364 C2365 1.327 . S
C2365 H2359 0.950 . S
C2365 C2364 1.327 . S
C2365 C2369 1.429 . S
C2366 C2349 1.574 . S
C2366 H2360 0.949 . S
C2366 C2370 1.368 . S
C2367 C2348 1.429 . S
C2367 C2361 1.429 . S
C2367 C2368 1.523 . S
C2368 C2349 1.368 . S
C2368 C2362 1.368 . S
C2368 C2367 1.523 . S
C2369 C2353 1.429 . S
C2369 C2365 1.429 . S
C2369 C2370 1.523 . S
C2370 C2354 1.368 . S
C2370 C2366 1.368 . S
C2370 C2369 1.523 . S
H2371 C2346 0.950 . S
H2372 C2348 0.950 . S
H2373 C2349 0.949 . S
H2374 C2351 0.950 . S
H2375 C2353 0.950 . S
C2376 C2377 1.349 . S
C2376 C2378 1.327 . S
C2376 H2401 0.950 . S
C2377 C2376 1.349 . S
C2377 C2393 1.349 . S
C2378 C2376 1.327 . S
C2378 C2397 1.429 . S
C2378 H2402 0.950 . S
C2379 C2396 1.574 . S
C2379 C2398 1.368 . S
C2379 H2403 0.949 . S
H2380 C2384 0.949 . S
C2381 C2382 1.349 . S
C2381 C2383 1.327 . S
C2381 H2404 0.950 . S
C2382 C2381 1.349 . S
C2382 C2394 1.349 . S
C2383 C2381 1.327 . S
C2383 C2399 1.429 . S
C2383 H2405 0.950 . S
C2384 H2380 0.949 . S
C2384 C2392 1.574 . S
C2384 C2400 1.368 . S
H2385 C2393 0.950 . S
H2386 C2391 0.950 . S
H2387 C2392 0.949 . S
H2388 C2394 0.950 1_545 S
H2389 C2395 0.950 . S
H2390 C2396 0.949 . S
C2391 H2386 0.950 . S
C2391 C2393 1.327 . S
C2391 C2397 1.429 . S
C2392 C2384 1.574 . S
C2392 H2387 0.949 . S
C2392 C2398 1.368 . S
C2393 C2377 1.349 . S
C2393 H2385 0.950 . S
C2393 C2391 1.327 . S
C2394 C2382 1.349 . S
C2394 H2388 0.950 1_565 S
C2394 C2395 1.327 . S
C2395 H2389 0.950 . S
C2395 C2394 1.327 . S
C2395 C2399 1.429 . S
C2396 C2379 1.574 . S
C2396 H2390 0.949 . S
C2396 C2400 1.368 . S
C2397 C2378 1.429 . S
C2397 C2391 1.429 . S
C2397 C2398 1.523 . S
C2398 C2379 1.368 . S
C2398 C2392 1.368 . S
C2398 C2397 1.523 . S
C2399 C2383 1.429 . S
C2399 C2395 1.429 . S
C2399 C2400 1.523 . S
C2400 C2384 1.368 . S
C2400 C2396 1.368 . S
C2400 C2399 1.523 . S
H2401 C2376 0.950 . S
H2402 C2378 0.950 . S
H2403 C2379 0.949 . S
H2404 C2381 0.950 . S
H2405 C2383 0.950 . S
C2406 C2407 1.349 . S
C2406 C2408 1.327 . S
C2406 H2431 0.950 . S
C2407 C2406 1.349 . S
C2407 C2423 1.349 . S
C2408 C2406 1.327 . S
C2408 C2427 1.429 . S
C2408 H2432 0.950 . S
C2409 C2426 1.574 . S
C2409 C2428 1.368 . S
C2409 H2433 0.949 . S
H2410 C2414 0.949 . S
C2411 C2412 1.349 . S
C2411 C2413 1.327 . S
C2411 H2434 0.950 . S
C2412 C2411 1.349 . S
C2412 C2424 1.349 . S
C2413 C2411 1.327 . S
C2413 C2429 1.429 . S
C2413 H2435 0.950 . S
C2414 H2410 0.949 . S
C2414 C2422 1.574 . S
C2414 C2430 1.368 . S
H2415 C2423 0.950 . S
H2416 C2421 0.950 . S
H2417 C2422 0.949 . S
H2418 C2424 0.950 . S
H2419 C2425 0.950 . S
H2420 C2426 0.949 . S
C2421 H2416 0.950 . S
C2421 C2423 1.327 . S
C2421 C2427 1.429 . S
C2422 C2414 1.574 . S
C2422 H2417 0.949 . S
C2422 C2428 1.368 . S
C2423 C2407 1.349 . S
C2423 H2415 0.950 . S
C2423 C2421 1.327 . S
C2424 C2412 1.349 . S
C2424 H2418 0.950 . S
C2424 C2425 1.327 . S
C2425 H2419 0.950 . S
C2425 C2424 1.327 . S
C2425 C2429 1.429 . S
C2426 C2409 1.574 . S
C2426 H2420 0.949 . S
C2426 C2430 1.368 . S
C2427 C2408 1.429 . S
C2427 C2421 1.429 . S
C2427 C2428 1.523 . S
C2428 C2409 1.368 . S
C2428 C2422 1.368 . S
C2428 C2427 1.523 . S
C2429 C2413 1.429 . S
C2429 C2425 1.429 . S
C2429 C2430 1.523 . S
C2430 C2414 1.368 . S
C2430 C2426 1.368 . S
C2430 C2429 1.523 . S
H2431 C2406 0.950 . S
H2432 C2408 0.950 . S
H2433 C2409 0.949 . S
H2434 C2411 0.950 . S
H2435 C2413 0.950 . S
C2436 C2437 1.349 . S
C2436 C2438 1.327 . S
C2436 H2461 0.950 . S
C2437 C2436 1.349 . S
C2437 C2453 1.349 . S
C2438 C2436 1.327 . S
C2438 C2457 1.429 . S
C2438 H2462 0.950 . S
C2439 C2456 1.574 . S
C2439 C2458 1.368 . S
C2439 H2463 0.949 . S
H2440 C2444 0.949 . S
C2441 C2442 1.349 . S
C2441 C2443 1.327 . S
C2441 H2464 0.950 . S
C2442 C2441 1.349 . S
C2442 C2454 1.349 . S
C2443 C2441 1.327 . S
C2443 C2459 1.429 . S
C2443 H2465 0.950 . S
C2444 H2440 0.949 . S
C2444 C2452 1.574 . S
C2444 C2460 1.368 . S
H2445 C2453 0.950 . S
H2446 C2451 0.950 . S
H2447 C2452 0.949 . S
H2448 C2454 0.950 . S
H2449 C2455 0.950 . S
H2450 C2456 0.949 . S
C2451 H2446 0.950 . S
C2451 C2453 1.327 . S
C2451 C2457 1.429 . S
C2452 C2444 1.574 . S
C2452 H2447 0.949 . S
C2452 C2458 1.368 . S
C2453 C2437 1.349 . S
C2453 H2445 0.950 . S
C2453 C2451 1.327 . S
C2454 C2442 1.349 . S
C2454 H2448 0.950 . S
C2454 C2455 1.327 . S
C2455 H2449 0.950 . S
C2455 C2454 1.327 . S
C2455 C2459 1.429 . S
C2456 C2439 1.574 . S
C2456 H2450 0.949 . S
C2456 C2460 1.368 . S
C2457 C2438 1.429 . S
C2457 C2451 1.429 . S
C2457 C2458 1.523 . S
C2458 C2439 1.368 . S
C2458 C2452 1.368 . S
C2458 C2457 1.523 . S
C2459 C2443 1.429 . S
C2459 C2455 1.429 . S
C2459 C2460 1.523 . S
C2460 C2444 1.368 . S
C2460 C2456 1.368 . S
C2460 C2459 1.523 . S
H2461 C2436 0.950 . S
H2462 C2438 0.950 . S
H2463 C2439 0.949 . S
H2464 C2441 0.950 . S
H2465 C2443 0.950 . S
C2466 C2467 1.349 . S
C2466 C2468 1.327 . S
C2466 H2491 0.950 . S
C2467 C2466 1.349 . S
C2467 C2483 1.349 . S
C2468 C2466 1.327 . S
C2468 C2487 1.429 . S
C2468 H2492 0.950 . S
C2469 C2486 1.574 . S
C2469 C2488 1.368 . S
C2469 H2493 0.949 . S
H2470 C2474 0.949 . S
C2471 C2472 1.349 . S
C2471 C2473 1.327 . S
C2471 H2494 0.950 . S
C2472 C2471 1.349 . S
C2472 C2484 1.349 . S
C2473 C2471 1.327 . S
C2473 C2489 1.429 . S
C2473 H2495 0.950 . S
C2474 H2470 0.949 . S
C2474 C2482 1.574 . S
C2474 C2490 1.368 . S
H2475 C2483 0.950 . S
H2476 C2481 0.950 . S
H2477 C2482 0.949 . S
H2478 C2484 0.950 . S
H2479 C2485 0.950 . S
H2480 C2486 0.949 . S
C2481 H2476 0.950 . S
C2481 C2483 1.327 . S
C2481 C2487 1.429 . S
C2482 C2474 1.574 . S
C2482 H2477 0.949 . S
C2482 C2488 1.368 . S
C2483 C2467 1.349 . S
C2483 H2475 0.950 . S
C2483 C2481 1.327 . S
C2484 C2472 1.349 . S
C2484 H2478 0.950 . S
C2484 C2485 1.327 . S
C2485 H2479 0.950 . S
C2485 C2484 1.327 . S
C2485 C2489 1.429 . S
C2486 C2469 1.574 . S
C2486 H2480 0.949 . S
C2486 C2490 1.368 . S
C2487 C2468 1.429 . S
C2487 C2481 1.429 . S
C2487 C2488 1.523 . S
C2488 C2469 1.368 . S
C2488 C2482 1.368 . S
C2488 C2487 1.523 . S
C2489 C2473 1.429 . S
C2489 C2485 1.429 . S
C2489 C2490 1.523 . S
C2490 C2474 1.368 . S
C2490 C2486 1.368 . S
C2490 C2489 1.523 . S
H2491 C2466 0.950 . S
H2492 C2468 0.950 . S
H2493 C2469 0.949 . S
H2494 C2471 0.950 . S
H2495 C2473 0.950 . S
C2496 C2497 1.349 . S
C2496 C2498 1.327 . S
C2496 H2521 0.950 . S
C2497 C2496 1.349 . S
C2497 C2513 1.349 . S
C2498 C2496 1.327 . S
C2498 C2517 1.429 . S
C2498 H2522 0.950 . S
C2499 C2516 1.574 . S
C2499 C2518 1.368 . S
C2499 H2523 0.949 . S
H2500 C2504 0.949 . S
C2501 C2502 1.349 . S
C2501 C2503 1.327 . S
C2501 H2524 0.950 . S
C2502 C2501 1.349 . S
C2502 C2514 1.349 . S
C2503 C2501 1.327 . S
C2503 C2519 1.429 . S
C2503 H2525 0.950 . S
C2504 H2500 0.949 . S
C2504 C2512 1.574 . S
C2504 C2520 1.368 . S
H2505 C2513 0.950 . S
H2506 C2511 0.950 . S
H2507 C2512 0.949 . S
H2508 C2514 0.950 . S
H2509 C2515 0.950 . S
H2510 C2516 0.949 . S
C2511 H2506 0.950 . S
C2511 C2513 1.327 . S
C2511 C2517 1.429 . S
C2512 C2504 1.574 . S
C2512 H2507 0.949 . S
C2512 C2518 1.368 . S
C2513 C2497 1.349 . S
C2513 H2505 0.950 . S
C2513 C2511 1.327 . S
C2514 C2502 1.349 . S
C2514 H2508 0.950 . S
C2514 C2515 1.327 . S
C2515 H2509 0.950 . S
C2515 C2514 1.327 . S
C2515 C2519 1.429 . S
C2516 C2499 1.574 . S
C2516 H2510 0.949 . S
C2516 C2520 1.368 . S
C2517 C2498 1.429 . S
C2517 C2511 1.429 . S
C2517 C2518 1.523 . S
C2518 C2499 1.368 . S
C2518 C2512 1.368 . S
C2518 C2517 1.523 . S
C2519 C2503 1.429 . S
C2519 C2515 1.429 . S
C2519 C2520 1.523 . S
C2520 C2504 1.368 . S
C2520 C2516 1.368 . S
C2520 C2519 1.523 . S
H2521 C2496 0.950 . S
H2522 C2498 0.950 . S
H2523 C2499 0.949 . S
H2524 C2501 0.950 . S
H2525 C2503 0.950 . S
C2526 C2527 1.349 . S
C2526 C2528 1.327 . S
C2526 H2551 0.950 . S
C2527 C2526 1.349 . S
C2527 C2543 1.349 . S
C2528 C2526 1.327 . S
C2528 C2547 1.429 . S
C2528 H2552 0.950 . S
C2529 C2546 1.574 . S
C2529 C2548 1.368 . S
C2529 H2553 0.949 . S
H2530 C2534 0.949 . S
C2531 C2532 1.349 . S
C2531 C2533 1.327 . S
C2531 H2554 0.950 . S
C2532 C2531 1.349 . S
C2532 C2544 1.349 . S
C2533 C2531 1.327 . S
C2533 C2549 1.429 . S
C2533 H2555 0.950 . S
C2534 H2530 0.949 . S
C2534 C2542 1.574 . S
C2534 C2550 1.368 . S
H2535 C2543 0.950 . S
H2536 C2541 0.950 . S
H2537 C2542 0.949 . S
H2538 C2544 0.950 . S
H2539 C2545 0.950 . S
H2540 C2546 0.949 . S
C2541 H2536 0.950 . S
C2541 C2543 1.327 . S
C2541 C2547 1.429 . S
C2542 C2534 1.574 . S
C2542 H2537 0.949 . S
C2542 C2548 1.368 . S
C2543 C2527 1.349 . S
C2543 H2535 0.950 . S
C2543 C2541 1.327 . S
C2544 C2532 1.349 . S
C2544 H2538 0.950 . S
C2544 C2545 1.327 . S
C2545 H2539 0.950 . S
C2545 C2544 1.327 . S
C2545 C2549 1.429 . S
C2546 C2529 1.574 . S
C2546 H2540 0.949 . S
C2546 C2550 1.368 . S
C2547 C2528 1.429 . S
C2547 C2541 1.429 . S
C2547 C2548 1.523 . S
C2548 C2529 1.368 . S
C2548 C2542 1.368 . S
C2548 C2547 1.523 . S
C2549 C2533 1.429 . S
C2549 C2545 1.429 . S
C2549 C2550 1.523 . S
C2550 C2534 1.368 . S
C2550 C2546 1.368 . S
C2550 C2549 1.523 . S
H2551 C2526 0.950 . S
H2552 C2528 0.950 . S
H2553 C2529 0.949 . S
H2554 C2531 0.950 . S
H2555 C2533 0.950 . S
C2556 C2557 1.349 . S
C2556 C2558 1.327 . S
C2556 H2581 0.950 . S
C2557 C2556 1.349 . S
C2557 C2573 1.349 . S
C2558 C2556 1.327 . S
C2558 C2577 1.429 . S
C2558 H2582 0.950 . S
C2559 C2576 1.574 . S
C2559 C2578 1.368 . S
C2559 H2583 0.949 . S
H2560 C2564 0.949 . S
C2561 C2562 1.349 . S
C2561 C2563 1.327 1_545 S
C2561 H2584 0.950 . S
C2562 C2561 1.349 . S
C2562 C2574 1.349 1_545 S
C2563 C2561 1.327 1_565 S
C2563 C2579 1.429 . S
C2563 H2585 0.950 . S
C2564 H2560 0.949 . S
C2564 C2572 1.574 . S
C2564 C2580 1.368 . S
H2565 C2573 0.950 . S
H2566 C2571 0.950 . S
H2567 C2572 0.949 . S
H2568 C2574 0.950 1_554 S
H2569 C2575 0.950 . S
H2570 C2576 0.949 . S
C2571 H2566 0.950 . S
C2571 C2573 1.327 . S
C2571 C2577 1.429 . S
C2572 C2564 1.574 . S
C2572 H2567 0.949 . S
C2572 C2578 1.368 . S
C2573 C2557 1.349 . S
C2573 H2565 0.950 . S
C2573 C2571 1.327 . S
C2574 C2562 1.349 1_565 S
C2574 H2568 0.950 1_556 S
C2574 C2575 1.327 . S
C2575 H2569 0.950 . S
C2575 C2574 1.327 . S
C2575 C2579 1.429 . S
C2576 C2559 1.574 . S
C2576 H2570 0.949 . S
C2576 C2580 1.368 . S
C2577 C2558 1.429 . S
C2577 C2571 1.429 . S
C2577 C2578 1.523 . S
C2578 C2559 1.368 . S
C2578 C2572 1.368 . S
C2578 C2577 1.523 . S
C2579 C2563 1.429 . S
C2579 C2575 1.429 . S
C2579 C2580 1.523 . S
C2580 C2564 1.368 . S
C2580 C2576 1.368 . S
C2580 C2579 1.523 . S
H2581 C2556 0.950 . S
H2582 C2558 0.950 . S
H2583 C2559 0.949 . S
H2584 C2561 0.950 . S
H2585 C2563 0.950 . S
C2586 C2587 1.349 . S
C2586 C2588 1.327 . S
C2586 H2611 0.950 . S
C2587 C2586 1.349 . S
C2587 C2603 1.349 . S
C2588 C2586 1.327 . S
C2588 C2607 1.429 . S
C2588 H2612 0.950 . S
C2589 C2606 1.574 . S
C2589 C2608 1.368 . S
C2589 H2613 0.949 . S
H2590 C2594 0.949 . S
C2591 C2592 1.349 . S
C2591 C2593 1.327 . S
C2591 H2614 0.950 . S
C2592 C2591 1.349 . S
C2592 C2604 1.349 . S
C2593 C2591 1.327 . S
C2593 C2609 1.429 . S
C2593 H2615 0.950 . S
C2594 H2590 0.949 . S
C2594 C2602 1.574 . S
C2594 C2610 1.368 . S
H2595 C2603 0.950 . S
H2596 C2601 0.950 . S
H2597 C2602 0.949 . S
H2598 C2604 0.950 . S
H2599 C2605 0.950 . S
H2600 C2606 0.949 . S
C2601 H2596 0.950 . S
C2601 C2603 1.327 . S
C2601 C2607 1.429 . S
C2602 C2594 1.574 . S
C2602 H2597 0.949 . S
C2602 C2608 1.368 . S
C2603 C2587 1.349 . S
C2603 H2595 0.950 . S
C2603 C2601 1.327 . S
C2604 C2592 1.349 . S
C2604 H2598 0.950 . S
C2604 C2605 1.327 . S
C2605 H2599 0.950 . S
C2605 C2604 1.327 . S
C2605 C2609 1.429 . S
C2606 C2589 1.574 . S
C2606 H2600 0.949 . S
C2606 C2610 1.368 . S
C2607 C2588 1.429 . S
C2607 C2601 1.429 . S
C2607 C2608 1.523 . S
C2608 C2589 1.368 . S
C2608 C2602 1.368 . S
C2608 C2607 1.523 . S
C2609 C2593 1.429 . S
C2609 C2605 1.429 . S
C2609 C2610 1.523 . S
C2610 C2594 1.368 . S
C2610 C2606 1.368 . S
C2610 C2609 1.523 . S
H2611 C2586 0.950 . S
H2612 C2588 0.950 . S
H2613 C2589 0.949 . S
H2614 C2591 0.950 . S
H2615 C2593 0.950 . S
C2616 C2617 1.349 1_565 S
C2616 C2618 1.329 . S
C2616 H2641 0.950 . S
C2617 C2616 1.349 1_545 S
C2617 C2633 1.349 . S
C2618 C2616 1.329 . S
C2618 C2637 1.389 1_565 S
C2618 H2642 0.991 . S
C2619 C2636 1.574 . S
C2619 C2638 1.368 . S
C2619 H2643 0.949 . S
H2620 C2624 0.949 1_565 S
C2621 C2622 1.349 . S
C2621 C2623 1.327 . S
C2621 H2644 0.950 . S
C2622 C2621 1.349 . S
C2622 C2634 1.349 . S
C2623 C2621 1.327 . S
C2623 C2639 1.429 . S
C2623 H2645 0.950 . S
C2624 H2620 0.949 1_545 S
C2624 C2632 1.574 . S
C2624 C2640 1.368 . S
H2625 C2633 0.950 . S
H2626 C2631 0.950 . S
H2627 C2632 0.949 1_565 S
H2628 C2634 0.950 . S
H2629 C2635 0.950 . S
H2630 C2636 0.949 . S
C2631 H2626 0.950 . S
C2631 C2633 1.327 . S
C2631 C2637 1.429 . S
C2632 C2624 1.574 . S
C2632 H2627 0.949 1_545 S
C2632 C2638 1.368 . S
C2633 C2617 1.349 . S
C2633 H2625 0.950 . S
C2633 C2631 1.327 . S
C2634 C2622 1.349 . S
C2634 H2628 0.950 . S
C2634 C2635 1.327 . S
C2635 H2629 0.950 . S
C2635 C2634 1.327 . S
C2635 C2639 1.429 . S
C2636 C2619 1.574 . S
C2636 H2630 0.949 . S
C2636 C2640 1.368 . S
C2637 C2618 1.389 1_545 S
C2637 C2631 1.429 . S
C2637 C2638 1.523 . S
C2638 C2619 1.368 . S
C2638 C2632 1.368 . S
C2638 C2637 1.523 . S
C2639 C2623 1.429 . S
C2639 C2635 1.429 . S
C2639 C2640 1.523 . S
C2640 C2624 1.368 . S
C2640 C2636 1.368 . S
C2640 C2639 1.523 . S
H2641 C2616 0.950 . S
H2642 C2618 0.991 . S
H2643 C2619 0.949 . S
H2644 C2621 0.950 . S
H2645 C2623 0.950 . S
C2646 C2647 1.349 . S
C2646 C2648 1.327 . S
C2646 H2671 0.950 . S
C2647 C2646 1.349 . S
C2647 C2663 1.349 . S
C2648 C2646 1.327 . S
C2648 C2667 1.429 . S
C2648 H2672 0.950 . S
C2649 C2666 1.574 . S
C2649 C2668 1.368 . S
C2649 H2673 0.949 . S
H2650 C2654 0.949 . S
C2651 C2652 1.349 . S
C2651 C2653 1.327 . S
C2651 H2674 0.950 . S
C2652 C2651 1.349 . S
C2652 C2664 1.349 . S
C2653 C2651 1.327 . S
C2653 C2669 1.429 . S
C2653 H2675 0.950 . S
C2654 H2650 0.949 . S
C2654 C2662 1.574 . S
C2654 C2670 1.368 . S
H2655 C2663 0.950 . S
H2656 C2661 0.950 . S
H2657 C2662 0.949 . S
H2658 C2664 0.950 . S
H2659 C2665 0.950 . S
H2660 C2666 0.949 . S
C2661 H2656 0.950 . S
C2661 C2663 1.327 . S
C2661 C2667 1.429 . S
C2662 C2654 1.574 . S
C2662 H2657 0.949 . S
C2662 C2668 1.368 . S
C2663 C2647 1.349 . S
C2663 H2655 0.950 . S
C2663 C2661 1.327 . S
C2664 C2652 1.349 . S
C2664 H2658 0.950 . S
C2664 C2665 1.327 . S
C2665 H2659 0.950 . S
C2665 C2664 1.327 . S
C2665 C2669 1.429 . S
C2666 C2649 1.574 . S
C2666 H2660 0.949 . S
C2666 C2670 1.368 . S
C2667 C2648 1.429 . S
C2667 C2661 1.429 . S
C2667 C2668 1.523 . S
C2668 C2649 1.368 . S
C2668 C2662 1.368 . S
C2668 C2667 1.523 . S
C2669 C2653 1.429 . S
C2669 C2665 1.429 . S
C2669 C2670 1.523 . S
C2670 C2654 1.368 . S
C2670 C2666 1.368 . S
C2670 C2669 1.523 . S
H2671 C2646 0.950 . S
H2672 C2648 0.950 . S
H2673 C2649 0.949 . S
H2674 C2651 0.950 . S
H2675 C2653 0.950 . S
C2676 C2677 1.349 . S
C2676 C2678 1.327 . S
C2676 H2701 0.989 . S
C2677 C2676 1.349 . S
C2677 C2693 1.349 . S
C2678 C2676 1.327 . S
C2678 C2697 1.429 . S
C2678 H2702 0.987 . S
C2679 C2696 1.574 . S
C2679 C2698 1.368 . S
C2679 H2703 0.949 . S
H2680 C2684 0.949 . S
C2681 C2682 1.349 . S
C2681 C2683 1.327 . S
C2681 H2704 0.950 . S
C2682 C2681 1.349 . S
C2682 C2694 1.349 . S
C2683 C2681 1.327 . S
C2683 C2699 1.429 . S
C2683 H2705 0.950 . S
C2684 H2680 0.949 . S
C2684 C2692 1.574 . S
C2684 C2700 1.368 . S
H2685 C2693 0.950 . S
H2686 C2691 0.950 . S
H2687 C2692 0.987 . S
H2688 C2694 0.950 . S
H2689 C2695 0.950 . S
H2690 C2696 0.949 . S
C2691 H2686 0.950 . S
C2691 C2693 1.327 . S
C2691 C2697 1.429 . S
C2692 C2684 1.574 . S
C2692 H2687 0.987 . S
C2692 C2698 1.368 . S
C2693 C2677 1.349 . S
C2693 H2685 0.950 . S
C2693 C2691 1.327 . S
C2694 C2682 1.349 . S
C2694 H2688 0.950 . S
C2694 C2695 1.327 . S
C2695 H2689 0.950 . S
C2695 C2694 1.327 . S
C2695 C2699 1.429 . S
C2696 C2679 1.574 . S
C2696 H2690 0.949 . S
C2696 C2700 1.368 . S
C2697 C2678 1.429 . S
C2697 C2691 1.429 . S
C2697 C2698 1.523 . S
C2698 C2679 1.368 . S
C2698 C2692 1.368 . S
C2698 C2697 1.523 . S
C2699 C2683 1.429 . S
C2699 C2695 1.429 . S
C2699 C2700 1.523 . S
C2700 C2684 1.368 . S
C2700 C2696 1.368 . S
C2700 C2699 1.523 . S
H2701 C2676 0.989 . S
H2702 C2678 0.987 . S
H2703 C2679 0.949 . S
H2704 C2681 0.950 . S
H2705 C2683 0.950 . S
C2706 C2707 1.349 . S
C2706 C2708 1.327 . S
C2706 H2731 0.950 . S
C2707 C2706 1.349 . S
C2707 C2723 1.349 . S
C2708 C2706 1.327 . S
C2708 C2727 1.429 . S
C2708 H2732 0.950 . S
C2709 C2726 1.574 . S
C2709 C2728 1.368 . S
C2709 H2733 0.949 . S
H2710 C2714 0.949 . S
C2711 C2712 1.349 . S
C2711 C2713 1.327 . S
C2711 H2734 0.950 . S
C2712 C2711 1.349 . S
C2712 C2724 1.349 . S
C2713 C2711 1.327 . S
C2713 C2729 1.429 . S
C2713 H2735 0.950 . S
C2714 H2710 0.949 . S
C2714 C2722 1.574 . S
C2714 C2730 1.368 . S
H2715 C2723 0.950 . S
H2716 C2721 0.950 . S
H2717 C2722 0.949 . S
H2718 C2724 0.950 . S
H2719 C2725 0.950 . S
H2720 C2726 0.949 . S
C2721 H2716 0.950 . S
C2721 C2723 1.327 . S
C2721 C2727 1.429 . S
C2722 C2714 1.574 . S
C2722 H2717 0.949 . S
C2722 C2728 1.368 . S
C2723 C2707 1.349 . S
C2723 H2715 0.950 . S
C2723 C2721 1.327 . S
C2724 C2712 1.349 . S
C2724 H2718 0.950 . S
C2724 C2725 1.327 . S
C2725 H2719 0.950 . S
C2725 C2724 1.327 . S
C2725 C2729 1.429 . S
C2726 C2709 1.574 . S
C2726 H2720 0.949 . S
C2726 C2730 1.368 . S
C2727 C2708 1.429 . S
C2727 C2721 1.429 . S
C2727 C2728 1.523 . S
C2728 C2709 1.368 . S
C2728 C2722 1.368 . S
C2728 C2727 1.523 . S
C2729 C2713 1.429 . S
C2729 C2725 1.429 . S
C2729 C2730 1.523 . S
C2730 C2714 1.368 . S
C2730 C2726 1.368 . S
C2730 C2729 1.523 . S
H2731 C2706 0.950 . S
H2732 C2708 0.950 . S
H2733 C2709 0.949 . S
H2734 C2711 0.950 . S
H2735 C2713 0.950 . S
C2736 C2737 1.349 1_545 S
C2736 C2738 1.327 . S
C2736 H2761 0.950 . S
C2737 C2736 1.349 1_565 S
C2737 C2753 1.349 . S
C2738 C2736 1.327 . S
C2738 C2757 1.429 1_545 S
C2738 H2762 0.950 . S
C2739 C2756 1.574 . S
C2739 C2758 1.368 1_565 S
C2739 H2763 0.949 . S
H2740 C2744 0.949 . S
C2741 C2742 1.349 . S
C2741 C2743 1.327 1_545 S
C2741 H2764 0.950 1_545 S
C2742 C2741 1.349 . S
C2742 C2754 1.349 . S
C2743 C2741 1.327 1_565 S
C2743 C2759 1.429 1_565 S
C2743 H2765 0.950 . S
C2744 H2740 0.949 . S
C2744 C2752 1.574 . S
C2744 C2760 1.368 . S
H2745 C2753 0.950 . S
H2746 C2751 0.950 . S
H2747 C2752 0.949 . S
H2748 C2754 0.950 . S
H2749 C2755 0.950 . S
H2750 C2756 0.949 . S
C2751 H2746 0.950 . S
C2751 C2753 1.327 . S
C2751 C2757 1.429 . S
C2752 C2744 1.574 . S
C2752 H2747 0.949 . S
C2752 C2758 1.368 . S
C2753 C2737 1.349 . S
C2753 H2745 0.950 . S
C2753 C2751 1.327 . S
C2754 C2742 1.349 . S
C2754 H2748 0.950 . S
C2754 C2755 1.327 . S
C2755 H2749 0.950 . S
C2755 C2754 1.327 . S
C2755 C2759 1.429 . S
C2756 C2739 1.574 . S
C2756 H2750 0.949 . S
C2756 C2760 1.368 1_565 S
C2757 C2738 1.429 1_565 S
C2757 C2751 1.429 . S
C2757 C2758 1.523 1_565 S
C2758 C2739 1.368 1_545 S
C2758 C2752 1.368 . S
C2758 C2757 1.523 1_545 S
C2759 C2743 1.429 1_545 S
C2759 C2755 1.429 . S
C2759 C2760 1.523 . S
C2760 C2744 1.368 . S
C2760 C2756 1.368 1_545 S
C2760 C2759 1.523 . S
H2761 C2736 0.950 . S
H2762 C2738 0.950 . S
H2763 C2739 0.949 . S
H2764 C2741 0.950 1_565 S
H2765 C2743 0.950 . S
C2766 C2767 1.349 . S
C2766 C2768 1.327 . S
C2766 H2791 0.950 . S
C2767 C2766 1.349 . S
C2767 C2783 1.349 . S
C2768 C2766 1.327 . S
C2768 C2787 1.429 . S
C2768 H2792 0.950 . S
C2769 C2786 1.574 . S
C2769 C2788 1.368 . S
C2769 H2793 0.949 . S
H2770 C2774 0.949 . S
C2771 C2772 1.349 . S
C2771 C2773 1.327 . S
C2771 H2794 0.950 . S
C2772 C2771 1.349 . S
C2772 C2784 1.349 . S
C2773 C2771 1.327 . S
C2773 C2789 1.429 . S
C2773 H2795 0.950 . S
C2774 H2770 0.949 . S
C2774 C2782 1.574 . S
C2774 C2790 1.368 . S
H2775 C2783 0.950 . S
H2776 C2781 0.950 . S
H2777 C2782 0.949 . S
H2778 C2784 0.950 . S
H2779 C2785 0.950 . S
H2780 C2786 0.949 . S
C2781 H2776 0.950 . S
C2781 C2783 1.327 . S
C2781 C2787 1.429 . S
C2782 C2774 1.574 . S
C2782 H2777 0.949 . S
C2782 C2788 1.368 . S
C2783 C2767 1.349 . S
C2783 H2775 0.950 . S
C2783 C2781 1.327 . S
C2784 C2772 1.349 . S
C2784 H2778 0.950 . S
C2784 C2785 1.327 . S
C2785 H2779 0.950 . S
C2785 C2784 1.327 . S
C2785 C2789 1.429 . S
C2786 C2769 1.574 . S
C2786 H2780 0.949 . S
C2786 C2790 1.368 . S
C2787 C2768 1.429 . S
C2787 C2781 1.429 . S
C2787 C2788 1.523 . S
C2788 C2769 1.368 . S
C2788 C2782 1.368 . S
C2788 C2787 1.523 . S
C2789 C2773 1.429 . S
C2789 C2785 1.429 . S
C2789 C2790 1.523 . S
C2790 C2774 1.368 . S
C2790 C2786 1.368 . S
C2790 C2789 1.523 . S
H2791 C2766 0.950 . S
H2792 C2768 0.950 . S
H2793 C2769 0.949 . S
H2794 C2771 0.950 . S
H2795 C2773 0.950 . S
C2796 C2797 1.349 . S
C2796 C2798 1.327 . S
C2796 H2821 0.950 . S
C2797 C2796 1.349 . S
C2797 C2813 1.349 . S
C2798 C2796 1.327 . S
C2798 C2817 1.429 . S
C2798 H2822 0.950 . S
C2799 C2816 1.574 . S
C2799 C2818 1.368 . S
C2799 H2823 0.949 . S
H2800 C2804 0.949 . S
C2801 C2802 1.349 . S
C2801 C2803 1.327 . S
C2801 H2824 0.950 . S
C2802 C2801 1.349 . S
C2802 C2814 1.349 . S
C2803 C2801 1.327 . S
C2803 C2819 1.429 . S
C2803 H2825 0.950 . S
C2804 H2800 0.949 . S
C2804 C2812 1.574 . S
C2804 C2820 1.368 . S
H2805 C2813 0.950 . S
H2806 C2811 0.950 . S
H2807 C2812 0.949 . S
H2808 C2814 0.950 . S
H2809 C2815 0.950 . S
H2810 C2816 0.949 . S
C2811 H2806 0.950 . S
C2811 C2813 1.327 . S
C2811 C2817 1.429 . S
C2812 C2804 1.574 . S
C2812 H2807 0.949 . S
C2812 C2818 1.368 . S
C2813 C2797 1.349 . S
C2813 H2805 0.950 . S
C2813 C2811 1.327 . S
C2814 C2802 1.349 . S
C2814 H2808 0.950 . S
C2814 C2815 1.327 . S
C2815 H2809 0.950 . S
C2815 C2814 1.327 . S
C2815 C2819 1.429 . S
C2816 C2799 1.574 . S
C2816 H2810 0.949 . S
C2816 C2820 1.368 . S
C2817 C2798 1.429 . S
C2817 C2811 1.429 . S
C2817 C2818 1.523 . S
C2818 C2799 1.368 . S
C2818 C2812 1.368 . S
C2818 C2817 1.523 . S
C2819 C2803 1.429 . S
C2819 C2815 1.429 . S
C2819 C2820 1.523 . S
C2820 C2804 1.368 . S
C2820 C2816 1.368 . S
C2820 C2819 1.523 . S
H2821 C2796 0.950 . S
H2822 C2798 0.950 . S
H2823 C2799 0.949 . S
H2824 C2801 0.950 . S
H2825 C2803 0.950 . S
C2826 C2827 1.349 . S
C2826 C2828 1.327 . S
C2826 H2851 0.950 . S
C2827 C2826 1.349 . S
C2827 C2843 1.349 . S
C2828 C2826 1.327 . S
C2828 C2847 1.429 . S
C2828 H2852 0.950 . S
C2829 C2846 1.574 . S
C2829 C2848 1.368 . S
C2829 H2853 0.949 . S
H2830 C2834 0.949 . S
C2831 C2832 1.349 . S
C2831 C2833 1.327 . S
C2831 H2854 0.950 . S
C2832 C2831 1.349 . S
C2832 C2844 1.349 . S
C2833 C2831 1.327 . S
C2833 C2849 1.429 . S
C2833 H2855 0.950 . S
C2834 H2830 0.949 . S
C2834 C2842 1.574 . S
C2834 C2850 1.368 . S
H2835 C2843 0.950 . S
H2836 C2841 0.950 . S
H2837 C2842 0.949 . S
H2838 C2844 0.950 . S
H2839 C2845 0.950 . S
H2840 C2846 0.949 . S
C2841 H2836 0.950 . S
C2841 C2843 1.327 . S
C2841 C2847 1.429 . S
C2842 C2834 1.574 . S
C2842 H2837 0.949 . S
C2842 C2848 1.368 . S
C2843 C2827 1.349 . S
C2843 H2835 0.950 . S
C2843 C2841 1.327 . S
C2844 C2832 1.349 . S
C2844 H2838 0.950 . S
C2844 C2845 1.327 . S
C2845 H2839 0.950 . S
C2845 C2844 1.327 . S
C2845 C2849 1.429 . S
C2846 C2829 1.574 . S
C2846 H2840 0.949 . S
C2846 C2850 1.368 . S
C2847 C2828 1.429 . S
C2847 C2841 1.429 . S
C2847 C2848 1.523 . S
C2848 C2829 1.368 . S
C2848 C2842 1.368 . S
C2848 C2847 1.523 . S
C2849 C2833 1.429 . S
C2849 C2845 1.429 . S
C2849 C2850 1.523 . S
C2850 C2834 1.368 . S
C2850 C2846 1.368 . S
C2850 C2849 1.523 . S
H2851 C2826 0.950 . S
H2852 C2828 0.950 . S
H2853 C2829 0.949 . S
H2854 C2831 0.950 . S
H2855 C2833 0.950 . S
C2856 C2857 1.349 . S
C2856 C2858 1.327 . S
C2856 H2881 0.950 . S
C2857 C2856 1.349 . S
C2857 C2873 1.349 . S
C2858 C2856 1.327 . S
C2858 C2877 1.429 . S
C2858 H2882 0.950 . S
C2859 C2876 1.574 . S
C2859 C2878 1.368 . S
C2859 H2883 0.949 . S
H2860 C2864 0.949 . S
C2861 C2862 1.349 . S
C2861 C2863 1.327 . S
C2861 H2884 0.950 . S
C2862 C2861 1.349 . S
C2862 C2874 1.349 . S
C2863 C2861 1.327 . S
C2863 C2879 1.429 . S
C2863 H2885 0.950 . S
C2864 H2860 0.949 . S
C2864 C2872 1.574 . S
C2864 C2880 1.368 . S
H2865 C2873 0.950 . S
H2866 C2871 0.950 . S
H2867 C2872 0.949 . S
H2868 C2874 0.950 . S
H2869 C2875 0.950 . S
H2870 C2876 0.949 . S
C2871 H2866 0.950 . S
C2871 C2873 1.327 . S
C2871 C2877 1.429 . S
C2872 C2864 1.574 . S
C2872 H2867 0.949 . S
C2872 C2878 1.368 . S
C2873 C2857 1.349 . S
C2873 H2865 0.950 . S
C2873 C2871 1.327 . S
C2874 C2862 1.349 . S
C2874 H2868 0.950 . S
C2874 C2875 1.327 . S
C2875 H2869 0.950 . S
C2875 C2874 1.327 . S
C2875 C2879 1.429 . S
C2876 C2859 1.574 . S
C2876 H2870 0.949 . S
C2876 C2880 1.368 . S
C2877 C2858 1.429 . S
C2877 C2871 1.429 . S
C2877 C2878 1.523 . S
C2878 C2859 1.368 . S
C2878 C2872 1.368 . S
C2878 C2877 1.523 . S
C2879 C2863 1.429 . S
C2879 C2875 1.429 . S
C2879 C2880 1.523 . S
C2880 C2864 1.368 . S
C2880 C2876 1.368 . S
C2880 C2879 1.523 . S
H2881 C2856 0.950 . S
H2882 C2858 0.950 . S
H2883 C2859 0.949 . S
H2884 C2861 0.950 . S
H2885 C2863 0.950 . S
C2886 C2887 1.349 . S
C2886 C2888 1.327 . S
C2886 H2911 0.950 . S
C2887 C2886 1.349 . S
C2887 C2903 1.349 . S
C2888 C2886 1.327 . S
C2888 C2907 1.429 . S
C2888 H2912 0.950 . S
C2889 C2906 1.574 . S
C2889 C2908 1.368 . S
C2889 H2913 0.949 . S
H2890 C2894 0.949 . S
C2891 C2892 1.349 . S
C2891 C2893 1.327 . S
C2891 H2914 0.986 . S
C2892 C2891 1.349 . S
C2892 C2904 1.349 . S
C2893 C2891 1.327 . S
C2893 C2909 1.429 . S
C2893 H2915 0.950 . S
C2894 H2890 0.949 . S
C2894 C2902 1.574 . S
C2894 C2910 1.368 . S
H2895 C2903 0.950 . S
H2896 C2901 0.950 . S
H2897 C2902 0.949 . S
H2898 C2904 0.950 . S
H2899 C2905 0.950 . S
H2900 C2906 0.949 . S
C2901 H2896 0.950 . S
C2901 C2903 1.327 . S
C2901 C2907 1.429 . S
C2902 C2894 1.574 . S
C2902 H2897 0.949 . S
C2902 C2908 1.368 . S
C2903 C2887 1.349 . S
C2903 H2895 0.950 . S
C2903 C2901 1.327 . S
C2904 C2892 1.349 . S
C2904 H2898 0.950 . S
C2904 C2905 1.327 . S
C2905 H2899 0.950 . S
C2905 C2904 1.327 . S
C2905 C2909 1.429 . S
C2906 C2889 1.574 . S
C2906 H2900 0.949 . S
C2906 C2910 1.368 . S
C2907 C2888 1.429 . S
C2907 C2901 1.429 . S
C2907 C2908 1.523 . S
C2908 C2889 1.368 . S
C2908 C2902 1.368 . S
C2908 C2907 1.523 . S
C2909 C2893 1.429 . S
C2909 C2905 1.429 . S
C2909 C2910 1.523 . S
C2910 C2894 1.368 . S
C2910 C2906 1.368 . S
C2910 C2909 1.523 . S
H2911 C2886 0.950 . S
H2912 C2888 0.950 . S
H2913 C2889 0.949 . S
H2914 C2891 0.986 . S
H2915 C2893 0.950 . S
C2916 C2917 1.349 . S
C2916 C2918 1.327 . S
C2916 H2941 0.950 . S
C2917 C2916 1.349 . S
C2917 C2933 1.349 . S
C2918 C2916 1.327 . S
C2918 C2937 1.429 . S
C2918 H2942 0.950 . S
C2919 C2936 1.574 . S
C2919 C2938 1.368 . S
C2919 H2943 0.949 . S
H2920 C2924 0.949 . S
C2921 C2922 1.349 . S
C2921 C2923 1.327 . S
C2921 H2944 0.950 . S
C2922 C2921 1.349 . S
C2922 C2934 1.349 . S
C2923 C2921 1.327 . S
C2923 C2939 1.429 . S
C2923 H2945 0.950 . S
C2924 H2920 0.949 . S
C2924 C2932 1.574 . S
C2924 C2940 1.368 . S
H2925 C2933 0.950 . S
H2926 C2931 0.950 . S
H2927 C2932 0.949 . S
H2928 C2934 0.950 . S
H2929 C2935 0.950 . S
H2930 C2936 0.949 . S
C2931 H2926 0.950 . S
C2931 C2933 1.327 . S
C2931 C2937 1.429 . S
C2932 C2924 1.574 . S
C2932 H2927 0.949 . S
C2932 C2938 1.368 . S
C2933 C2917 1.349 . S
C2933 H2925 0.950 . S
C2933 C2931 1.327 . S
C2934 C2922 1.349 . S
C2934 H2928 0.950 . S
C2934 C2935 1.327 . S
C2935 H2929 0.950 . S
C2935 C2934 1.327 . S
C2935 C2939 1.429 . S
C2936 C2919 1.574 . S
C2936 H2930 0.949 . S
C2936 C2940 1.368 . S
C2937 C2918 1.429 . S
C2937 C2931 1.429 . S
C2937 C2938 1.523 . S
C2938 C2919 1.368 . S
C2938 C2932 1.368 . S
C2938 C2937 1.523 . S
C2939 C2923 1.429 . S
C2939 C2935 1.429 . S
C2939 C2940 1.523 . S
C2940 C2924 1.368 . S
C2940 C2936 1.368 . S
C2940 C2939 1.523 . S
H2941 C2916 0.950 . S
H2942 C2918 0.950 . S
H2943 C2919 0.949 . S
H2944 C2921 0.950 . S
H2945 C2923 0.950 . S
C2946 C2947 1.349 . S
C2946 C2948 1.327 . S
C2946 H2971 0.950 . S
C2947 C2946 1.349 . S
C2947 C2963 1.349 . S
C2948 C2946 1.327 . S
C2948 C2967 1.429 . S
C2948 H2972 0.950 . S
C2949 C2966 1.574 . S
C2949 C2968 1.368 . S
C2949 H2973 0.949 . S
H2950 C2954 0.949 . S
C2951 C2952 1.349 . S
C2951 C2953 1.327 . S
C2951 H2974 0.950 . S
C2952 C2951 1.349 . S
C2952 C2964 1.349 . S
C2953 C2951 1.327 . S
C2953 C2969 1.429 . S
C2953 H2975 0.950 . S
C2954 H2950 0.949 . S
C2954 C2962 1.574 . S
C2954 C2970 1.368 . S
H2955 C2963 0.950 . S
H2956 C2961 0.950 . S
H2957 C2962 0.949 . S
H2958 C2964 0.950 . S
H2959 C2965 0.950 . S
H2960 C2966 0.949 . S
C2961 H2956 0.950 . S
C2961 C2963 1.327 . S
C2961 C2967 1.429 . S
C2962 C2954 1.574 . S
C2962 H2957 0.949 . S
C2962 C2968 1.368 . S
C2963 C2947 1.349 . S
C2963 H2955 0.950 . S
C2963 C2961 1.327 . S
C2964 C2952 1.349 . S
C2964 H2958 0.950 . S
C2964 C2965 1.327 . S
C2965 H2959 0.950 . S
C2965 C2964 1.327 . S
C2965 C2969 1.429 . S
C2966 C2949 1.574 . S
C2966 H2960 0.949 . S
C2966 C2970 1.368 . S
C2967 C2948 1.429 . S
C2967 C2961 1.429 . S
C2967 C2968 1.523 . S
C2968 C2949 1.368 . S
C2968 C2962 1.368 . S
C2968 C2967 1.523 . S
C2969 C2953 1.429 . S
C2969 C2965 1.429 . S
C2969 C2970 1.523 . S
C2970 C2954 1.368 . S
C2970 C2966 1.368 . S
C2970 C2969 1.523 . S
H2971 C2946 0.950 . S
H2972 C2948 0.950 . S
H2973 C2949 0.949 . S
H2974 C2951 0.950 . S
H2975 C2953 0.950 . S
C2976 C2977 1.371 . S
C2976 C2978 1.327 . S
C2976 H3001 0.965 . S
C2977 C2976 1.371 . S
C2977 C2993 1.383 . S
C2978 C2976 1.327 . S
C2978 C2997 1.429 . S
C2978 H3002 0.950 . S
C2979 C2996 1.574 . S
C2979 C2998 1.368 . S
C2979 H3003 0.949 . S
H2980 C2984 0.949 . S
C2981 C2982 1.349 . S
C2981 C2983 1.327 . S
C2981 H3004 0.950 . S
C2982 C2981 1.349 . S
C2982 C2994 1.349 . S
C2983 C2981 1.327 . S
C2983 C2999 1.429 . S
C2983 H3005 0.950 . S
C2984 H2980 0.949 . S
C2984 C2992 1.574 . S
C2984 C3000 1.368 . S
H2985 C2993 0.950 . S
H2986 C2991 0.950 . S
H2987 C2992 0.949 . S
H2988 C2994 0.950 . S
H2989 C2995 0.950 . S
H2990 C2996 0.949 . S
C2991 H2986 0.950 . S
C2991 C2993 1.327 . S
C2991 C2997 1.429 . S
C2992 C2984 1.574 . S
C2992 H2987 0.949 . S
C2992 C2998 1.368 . S
C2993 C2977 1.383 . S
C2993 H2985 0.950 . S
C2993 C2991 1.327 . S
C2994 C2982 1.349 . S
C2994 H2988 0.950 . S
C2994 C2995 1.327 . S
C2995 H2989 0.950 . S
C2995 C2994 1.327 . S
C2995 C2999 1.429 . S
C2996 C2979 1.574 . S
C2996 H2990 0.949 . S
C2996 C3000 1.368 . S
C2997 C2978 1.429 . S
C2997 C2991 1.429 . S
C2997 C2998 1.523 . S
C2998 C2979 1.368 . S
C2998 C2992 1.368 . S
C2998 C2997 1.523 . S
C2999 C2983 1.429 . S
C2999 C2995 1.429 . S
C2999 C3000 1.523 . S
C3000 C2984 1.368 . S
C3000 C2996 1.368 . S
C3000 C2999 1.523 . S
H3001 C2976 0.965 . S
H3002 C2978 0.950 . S
H3003 C2979 0.949 . S
H3004 C2981 0.950 . S
H3005 C2983 0.950 . S
C3006 C3007 1.349 . S
C3006 C3008 1.327 . S
C3006 H3031 0.950 . S
C3007 C3006 1.349 . S
C3007 C3023 1.349 . S
C3008 C3006 1.327 . S
C3008 C3027 1.429 . S
C3008 H3032 0.950 . S
C3009 C3026 1.574 . S
C3009 C3028 1.368 . S
C3009 H3033 0.949 . S
H3010 C3014 0.949 . S
C3011 C3012 1.349 . S
C3011 C3013 1.327 . S
C3011 H3034 0.950 . S
C3012 C3011 1.349 . S
C3012 C3024 1.349 . S
C3013 C3011 1.327 . S
C3013 C3029 1.429 . S
C3013 H3035 0.950 . S
C3014 H3010 0.949 . S
C3014 C3022 1.574 . S
C3014 C3030 1.368 . S
H3015 C3023 0.950 . S
H3016 C3021 0.950 . S
H3017 C3022 0.949 . S
H3018 C3024 0.950 . S
H3019 C3025 0.950 . S
H3020 C3026 0.949 . S
C3021 H3016 0.950 . S
C3021 C3023 1.327 . S
C3021 C3027 1.429 . S
C3022 C3014 1.574 . S
C3022 H3017 0.949 . S
C3022 C3028 1.368 . S
C3023 C3007 1.349 . S
C3023 H3015 0.950 . S
C3023 C3021 1.327 . S
C3024 C3012 1.349 . S
C3024 H3018 0.950 . S
C3024 C3025 1.327 . S
C3025 H3019 0.950 . S
C3025 C3024 1.327 . S
C3025 C3029 1.429 . S
C3026 C3009 1.574 . S
C3026 H3020 0.949 . S
C3026 C3030 1.368 . S
C3027 C3008 1.429 . S
C3027 C3021 1.429 . S
C3027 C3028 1.523 . S
C3028 C3009 1.368 . S
C3028 C3022 1.368 . S
C3028 C3027 1.523 . S
C3029 C3013 1.429 . S
C3029 C3025 1.429 . S
C3029 C3030 1.523 . S
C3030 C3014 1.368 . S
C3030 C3026 1.368 . S
C3030 C3029 1.523 . S
H3031 C3006 0.950 . S
H3032 C3008 0.950 . S
H3033 C3009 0.949 . S
H3034 C3011 0.950 . S
H3035 C3013 0.950 . S
C3036 C3037 1.349 . S
C3036 C3038 1.327 . S
C3036 H3061 0.950 . S
C3037 C3036 1.349 . S
C3037 C3053 1.349 . S
C3038 C3036 1.327 . S
C3038 C3057 1.429 . S
C3038 H3062 0.950 . S
C3039 C3056 1.574 . S
C3039 C3058 1.368 . S
C3039 H3063 0.949 . S
H3040 C3044 0.949 . S
C3041 C3042 1.349 . S
C3041 C3043 1.327 . S
C3041 H3064 0.950 . S
C3042 C3041 1.349 . S
C3042 C3054 1.349 . S
C3043 C3041 1.327 . S
C3043 C3059 1.429 . S
C3043 H3065 0.950 . S
C3044 H3040 0.949 . S
C3044 C3052 1.574 . S
C3044 C3060 1.368 . S
H3045 C3053 0.950 . S
H3046 C3051 0.950 . S
H3047 C3052 0.949 . S
H3048 C3054 0.950 . S
H3049 C3055 0.950 . S
H3050 C3056 0.949 . S
C3051 H3046 0.950 . S
C3051 C3053 1.327 . S
C3051 C3057 1.429 . S
C3052 C3044 1.574 . S
C3052 H3047 0.949 . S
C3052 C3058 1.368 . S
C3053 C3037 1.349 . S
C3053 H3045 0.950 . S
C3053 C3051 1.327 . S
C3054 C3042 1.349 . S
C3054 H3048 0.950 . S
C3054 C3055 1.327 . S
C3055 H3049 0.950 . S
C3055 C3054 1.327 . S
C3055 C3059 1.429 . S
C3056 C3039 1.574 . S
C3056 H3050 0.949 . S
C3056 C3060 1.368 . S
C3057 C3038 1.429 . S
C3057 C3051 1.429 . S
C3057 C3058 1.523 . S
C3058 C3039 1.368 . S
C3058 C3052 1.368 . S
C3058 C3057 1.523 . S
C3059 C3043 1.429 . S
C3059 C3055 1.429 . S
C3059 C3060 1.523 . S
C3060 C3044 1.368 . S
C3060 C3056 1.368 . S
C3060 C3059 1.523 . S
H3061 C3036 0.950 . S
H3062 C3038 0.950 . S
H3063 C3039 0.949 . S
H3064 C3041 0.950 . S
H3065 C3043 0.950 . S
C3066 C3067 1.349 . S
C3066 C3068 1.327 . S
C3066 H3091 0.950 . S
C3067 C3066 1.349 . S
C3067 C3083 1.349 . S
C3068 C3066 1.327 . S
C3068 C3087 1.429 . S
C3068 H3092 0.950 . S
C3069 C3086 1.574 . S
C3069 C3088 1.368 . S
C3069 H3093 0.949 . S
H3070 C3074 0.949 . S
C3071 C3072 1.349 . S
C3071 C3073 1.327 . S
C3071 H3094 0.950 . S
C3072 C3071 1.349 . S
C3072 C3084 1.349 . S
C3073 C3071 1.327 . S
C3073 C3089 1.429 . S
C3073 H3095 0.950 . S
C3074 H3070 0.949 . S
C3074 C3082 1.574 . S
C3074 C3090 1.368 . S
H3075 C3083 0.950 . S
H3076 C3081 0.950 . S
H3077 C3082 0.949 . S
H3078 C3084 0.950 . S
H3079 C3085 0.950 . S
H3080 C3086 0.949 . S
C3081 H3076 0.950 . S
C3081 C3083 1.327 . S
C3081 C3087 1.429 . S
C3082 C3074 1.574 . S
C3082 H3077 0.949 . S
C3082 C3088 1.368 . S
C3083 C3067 1.349 . S
C3083 H3075 0.950 . S
C3083 C3081 1.327 . S
C3084 C3072 1.349 . S
C3084 H3078 0.950 . S
C3084 C3085 1.327 . S
C3085 H3079 0.950 . S
C3085 C3084 1.327 . S
C3085 C3089 1.429 . S
C3086 C3069 1.574 . S
C3086 H3080 0.949 . S
C3086 C3090 1.368 . S
C3087 C3068 1.429 . S
C3087 C3081 1.429 . S
C3087 C3088 1.523 . S
C3088 C3069 1.368 . S
C3088 C3082 1.368 . S
C3088 C3087 1.523 . S
C3089 C3073 1.429 . S
C3089 C3085 1.429 . S
C3089 C3090 1.523 . S
C3090 C3074 1.368 . S
C3090 C3086 1.368 . S
C3090 C3089 1.523 . S
H3091 C3066 0.950 . S
H3092 C3068 0.950 . S
H3093 C3069 0.949 . S
H3094 C3071 0.950 . S
H3095 C3073 0.950 . S
C3096 C3097 1.349 . S
C3096 C3098 1.327 . S
C3096 H3121 0.950 . S
C3097 C3096 1.349 . S
C3097 C3113 1.349 . S
C3098 C3096 1.327 . S
C3098 C3117 1.429 . S
C3098 H3122 0.950 . S
C3099 C3116 1.574 . S
C3099 C3118 1.368 . S
C3099 H3123 0.949 . S
H3100 C3104 0.949 . S
C3101 C3102 1.349 . S
C3101 C3103 1.327 . S
C3101 H3124 0.950 . S
C3102 C3101 1.349 . S
C3102 C3114 1.349 . S
C3103 C3101 1.327 . S
C3103 C3119 1.429 . S
C3103 H3125 0.950 . S
C3104 H3100 0.949 . S
C3104 C3112 1.574 . S
C3104 C3120 1.368 . S
H3105 C3113 0.950 . S
H3106 C3111 0.950 . S
H3107 C3112 0.949 . S
H3108 C3114 0.950 . S
H3109 C3115 0.950 . S
H3110 C3116 0.949 . S
C3111 H3106 0.950 . S
C3111 C3113 1.327 . S
C3111 C3117 1.429 . S
C3112 C3104 1.574 . S
C3112 H3107 0.949 . S
C3112 C3118 1.368 . S
C3113 C3097 1.349 . S
C3113 H3105 0.950 . S
C3113 C3111 1.327 . S
C3114 C3102 1.349 . S
C3114 H3108 0.950 . S
C3114 C3115 1.327 . S
C3115 H3109 0.950 . S
C3115 C3114 1.327 . S
C3115 C3119 1.429 . S
C3116 C3099 1.574 . S
C3116 H3110 0.949 . S
C3116 C3120 1.368 . S
C3117 C3098 1.429 . S
C3117 C3111 1.429 . S
C3117 C3118 1.523 . S
C3118 C3099 1.368 . S
C3118 C3112 1.368 . S
C3118 C3117 1.523 . S
C3119 C3103 1.429 . S
C3119 C3115 1.429 . S
C3119 C3120 1.523 . S
C3120 C3104 1.368 . S
C3120 C3116 1.368 . S
C3120 C3119 1.523 . S
H3121 C3096 0.950 . S
H3122 C3098 0.950 . S
H3123 C3099 0.949 . S
H3124 C3101 0.950 . S
H3125 C3103 0.950 . S
C3126 C3127 1.349 . S
C3126 C3128 1.327 . S
C3126 H3151 0.950 . S
C3127 C3126 1.349 . S
C3127 C3143 1.349 . S
C3128 C3126 1.327 . S
C3128 C3147 1.429 . S
C3128 H3152 0.950 . S
C3129 C3146 1.574 . S
C3129 C3148 1.368 . S
C3129 H3153 0.949 . S
H3130 C3134 0.949 . S
C3131 C3132 1.349 . S
C3131 C3133 1.327 . S
C3131 H3154 0.950 . S
C3132 C3131 1.349 . S
C3132 C3144 1.349 . S
C3133 C3131 1.327 . S
C3133 C3149 1.429 . S
C3133 H3155 0.950 . S
C3134 H3130 0.949 . S
C3134 C3142 1.574 . S
C3134 C3150 1.368 . S
H3135 C3143 0.950 . S
H3136 C3141 0.950 . S
H3137 C3142 0.949 . S
H3138 C3144 0.950 . S
H3139 C3145 0.950 . S
H3140 C3146 0.949 . S
C3141 H3136 0.950 . S
C3141 C3143 1.327 . S
C3141 C3147 1.429 . S
C3142 C3134 1.574 . S
C3142 H3137 0.949 . S
C3142 C3148 1.368 . S
C3143 C3127 1.349 . S
C3143 H3135 0.950 . S
C3143 C3141 1.327 . S
C3144 C3132 1.349 . S
C3144 H3138 0.950 . S
C3144 C3145 1.327 . S
C3145 H3139 0.950 . S
C3145 C3144 1.327 . S
C3145 C3149 1.429 . S
C3146 C3129 1.574 . S
C3146 H3140 0.949 . S
C3146 C3150 1.368 . S
C3147 C3128 1.429 . S
C3147 C3141 1.429 . S
C3147 C3148 1.523 . S
C3148 C3129 1.368 . S
C3148 C3142 1.368 . S
C3148 C3147 1.523 . S
C3149 C3133 1.429 . S
C3149 C3145 1.429 . S
C3149 C3150 1.523 . S
C3150 C3134 1.368 . S
C3150 C3146 1.368 . S
C3150 C3149 1.523 . S
H3151 C3126 0.950 . S
H3152 C3128 0.950 . S
H3153 C3129 0.949 . S
H3154 C3131 0.950 . S
H3155 C3133 0.950 . S
C3156 C3157 1.349 . S
C3156 C3158 1.327 . S
C3156 H3181 0.950 1_455 S
C3157 C3156 1.349 . S
C3157 C3173 1.349 . S
C3158 C3156 1.327 . S
C3158 C3177 1.429 . S
C3158 H3182 0.969 . S
C3159 C3176 1.567 1_556 S
C3159 C3178 1.390 . S
C3159 H3183 0.936 1_556 S
H3160 C3164 0.949 . S
C3161 C3162 1.349 . S
C3161 C3163 1.327 . S
C3161 H3184 0.950 . S
C3162 C3161 1.349 . S
C3162 C3174 1.349 . S
C3163 C3161 1.327 . S
C3163 C3179 1.429 . S
C3163 H3185 0.950 . S
C3164 H3160 0.949 . S
C3164 C3172 1.574 . S
C3164 C3180 1.394 . S
H3165 C3173 0.950 . S
H3166 C3171 0.950 . S
H3167 C3172 0.949 . S
H3168 C3174 0.950 . S
H3169 C3175 0.910 1_556 S
H3170 C3176 0.949 . S
C3171 H3166 0.950 . S
C3171 C3173 1.327 . S
C3171 C3177 1.429 . S
C3172 C3164 1.574 . S
C3172 H3167 0.949 . S
C3172 C3178 1.368 . S
C3173 C3157 1.349 . S
C3173 H3165 0.950 . S
C3173 C3171 1.327 . S
C3174 C3162 1.349 . S
C3174 H3168 0.950 . S
C3174 C3175 1.343 . S
C3175 H3169 0.910 1_554 S
C3175 C3174 1.343 . S
C3175 C3179 1.456 . S
C3176 C3159 1.567 1_554 S
C3176 H3170 0.949 . S
C3176 C3180 1.350 1_554 S
C3177 C3158 1.429 . S
C3177 C3171 1.429 . S
C3177 C3178 1.523 . S
C3178 C3159 1.390 . S
C3178 C3172 1.368 . S
C3178 C3177 1.523 . S
C3179 C3163 1.429 . S
C3179 C3175 1.456 . S
C3179 C3180 1.515 1_554 S
C3180 C3164 1.394 . S
C3180 C3176 1.350 1_556 S
C3180 C3179 1.515 1_556 S
H3181 C3156 0.950 1_655 S
H3182 C3158 0.969 . S
H3183 C3159 0.936 1_554 S
H3184 C3161 0.950 . S
H3185 C3163 0.950 . S
C3186 C3187 1.349 . S
C3186 C3188 1.327 1_455 S
C3186 H3211 0.950 . S
C3187 C3186 1.349 . S
C3187 C3203 1.349 . S
C3188 C3186 1.327 1_655 S
C3188 C3207 1.429 . S
C3188 H3212 0.950 . S
C3189 C3206 1.574 . S
C3189 C3208 1.368 . S
C3189 H3213 0.949 . S
H3190 C3194 0.949 . S
C3191 C3192 1.349 . S
C3191 C3193 1.327 . S
C3191 H3214 0.950 . S
C3192 C3191 1.349 . S
C3192 C3204 1.349 . S
C3193 C3191 1.327 . S
C3193 C3209 1.429 . S
C3193 H3215 0.950 . S
C3194 H3190 0.949 . S
C3194 C3202 1.574 . S
C3194 C3210 1.368 . S
H3195 C3203 0.950 . S
H3196 C3201 0.950 . S
H3197 C3202 0.949 . S
H3198 C3204 0.950 . S
H3199 C3205 0.950 . S
H3200 C3206 0.949 . S
C3201 H3196 0.950 . S
C3201 C3203 1.327 . S
C3201 C3207 1.429 1_455 S
C3202 C3194 1.574 . S
C3202 H3197 0.949 . S
C3202 C3208 1.368 . S
C3203 C3187 1.349 . S
C3203 H3195 0.950 . S
C3203 C3201 1.327 . S
C3204 C3192 1.349 . S
C3204 H3198 0.950 . S
C3204 C3205 1.327 . S
C3205 H3199 0.950 . S
C3205 C3204 1.327 . S
C3205 C3209 1.429 . S
C3206 C3189 1.574 . S
C3206 H3200 0.949 . S
C3206 C3210 1.368 . S
C3207 C3188 1.429 . S
C3207 C3201 1.429 1_655 S
C3207 C3208 1.523 . S
C3208 C3189 1.368 . S
C3208 C3202 1.368 . S
C3208 C3207 1.523 . S
C3209 C3193 1.429 . S
C3209 C3205 1.429 . S
C3209 C3210 1.523 . S
C3210 C3194 1.368 . S
C3210 C3206 1.368 . S
C3210 C3209 1.523 . S
H3211 C3186 0.950 . S
H3212 C3188 0.950 . S
H3213 C3189 0.949 . S
H3214 C3191 0.950 . S
H3215 C3193 0.950 . S
C3216 C3217 1.349 . S
C3216 C3218 1.327 . S
C3216 H3241 0.950 . S
C3217 C3216 1.349 . S
C3217 C3233 1.349 . S
C3218 C3216 1.327 . S
C3218 C3237 1.429 . S
C3218 H3242 0.950 . S
C3219 C3236 1.574 . S
C3219 C3238 1.368 . S
C3219 H3243 0.949 . S
H3220 C3224 0.949 . S
C3221 C3222 1.349 . S
C3221 C3223 1.327 . S
C3221 H3244 0.950 . S
C3222 C3221 1.349 . S
C3222 C3234 1.349 . S
C3223 C3221 1.327 . S
C3223 C3239 1.429 . S
C3223 H3245 0.950 . S
C3224 H3220 0.949 . S
C3224 C3232 1.574 . S
C3224 C3240 1.368 . S
H3225 C3233 0.950 . S
H3226 C3231 0.950 . S
H3227 C3232 0.949 . S
H3228 C3234 0.950 . S
H3229 C3235 0.950 . S
H3230 C3236 0.949 . S
C3231 H3226 0.950 . S
C3231 C3233 1.327 . S
C3231 C3237 1.429 . S
C3232 C3224 1.574 . S
C3232 H3227 0.949 . S
C3232 C3238 1.368 . S
C3233 C3217 1.349 . S
C3233 H3225 0.950 . S
C3233 C3231 1.327 . S
C3234 C3222 1.349 . S
C3234 H3228 0.950 . S
C3234 C3235 1.327 . S
C3235 H3229 0.950 . S
C3235 C3234 1.327 . S
C3235 C3239 1.429 . S
C3236 C3219 1.574 . S
C3236 H3230 0.949 . S
C3236 C3240 1.368 . S
C3237 C3218 1.429 . S
C3237 C3231 1.429 . S
C3237 C3238 1.523 . S
C3238 C3219 1.368 . S
C3238 C3232 1.368 . S
C3238 C3237 1.523 . S
C3239 C3223 1.429 . S
C3239 C3235 1.429 . S
C3239 C3240 1.523 . S
C3240 C3224 1.368 . S
C3240 C3236 1.368 . S
C3240 C3239 1.523 . S
H3241 C3216 0.950 . S
H3242 C3218 0.950 . S
H3243 C3219 0.949 . S
H3244 C3221 0.950 . S
H3245 C3223 0.950 . S
C3246 C3247 1.349 . S
C3246 C3248 1.327 . S
C3246 H3271 0.950 . S
C3247 C3246 1.349 . S
C3247 C3263 1.349 . S
C3248 C3246 1.327 . S
C3248 C3267 1.429 . S
C3248 H3272 0.950 . S
C3249 C3266 1.574 . S
C3249 C3268 1.368 1_655 S
C3249 H3273 0.949 1_655 S
H3250 C3254 0.949 . S
C3251 C3252 1.349 . S
C3251 C3253 1.327 . S
C3251 H3274 0.950 . S
C3252 C3251 1.349 . S
C3252 C3264 1.349 . S
C3253 C3251 1.327 . S
C3253 C3269 1.429 . S
C3253 H3275 0.950 . S
C3254 H3250 0.949 . S
C3254 C3262 1.574 . S
C3254 C3270 1.368 . S
H3255 C3263 0.950 . S
H3256 C3261 0.950 . S
H3257 C3262 0.949 . S
H3258 C3264 0.950 . S
H3259 C3265 0.950 . S
H3260 C3266 0.949 . S
C3261 H3256 0.950 . S
C3261 C3263 1.327 . S
C3261 C3267 1.429 . S
C3262 C3254 1.574 . S
C3262 H3257 0.949 . S
C3262 C3268 1.368 1_655 S
C3263 C3247 1.349 . S
C3263 H3255 0.950 . S
C3263 C3261 1.327 . S
C3264 C3252 1.349 . S
C3264 H3258 0.950 . S
C3264 C3265 1.327 . S
C3265 H3259 0.950 . S
C3265 C3264 1.327 . S
C3265 C3269 1.429 . S
C3266 C3249 1.574 . S
C3266 H3260 0.949 . S
C3266 C3270 1.368 . S
C3267 C3248 1.429 . S
C3267 C3261 1.429 . S
C3267 C3268 1.523 . S
C3268 C3249 1.368 1_455 S
C3268 C3262 1.368 1_455 S
C3268 C3267 1.523 . S
C3269 C3253 1.429 . S
C3269 C3265 1.429 . S
C3269 C3270 1.523 . S
C3270 C3254 1.368 . S
C3270 C3266 1.368 . S
C3270 C3269 1.523 . S
H3271 C3246 0.950 . S
H3272 C3248 0.950 . S
H3273 C3249 0.949 1_455 S
H3274 C3251 0.950 . S
H3275 C3253 0.950 . S
C3276 C3277 1.349 . S
C3276 C3278 1.327 . S
C3276 H3301 0.950 . S
C3277 C3276 1.349 . S
C3277 C3293 1.349 1_655 S
C3278 C3276 1.327 . S
C3278 C3297 1.429 . S
C3278 H3302 0.950 . S
C3279 C3296 1.574 . S
C3279 C3298 1.368 . S
C3279 H3303 0.949 . S
H3280 C3284 0.949 . S
C3281 C3282 1.349 . S
C3281 C3283 1.327 . S
C3281 H3304 0.950 . S
C3282 C3281 1.349 . S
C3282 C3294 1.349 . S
C3283 C3281 1.327 . S
C3283 C3299 1.429 . S
C3283 H3305 0.950 . S
C3284 H3280 0.949 . S
C3284 C3292 1.574 . S
C3284 C3300 1.368 1_655 S
H3285 C3293 0.950 . S
H3286 C3291 0.950 . S
H3287 C3292 0.949 . S
H3288 C3294 0.943 1_655 S
H3289 C3295 0.950 1_655 S
H3290 C3296 0.949 . S
C3291 H3286 0.950 . S
C3291 C3293 1.327 . S
C3291 C3297 1.429 1_455 S
C3292 C3284 1.574 . S
C3292 H3287 0.949 . S
C3292 C3298 1.368 1_655 S
C3293 C3277 1.349 1_455 S
C3293 H3285 0.950 . S
C3293 C3291 1.327 . S
C3294 C3282 1.349 . S
C3294 H3288 0.943 1_455 S
C3294 C3295 1.327 . S
C3295 H3289 0.950 1_455 S
C3295 C3294 1.327 . S
C3295 C3299 1.429 . S
C3296 C3279 1.574 . S
C3296 H3290 0.949 . S
C3296 C3300 1.368 . S
C3297 C3278 1.429 . S
C3297 C3291 1.429 1_655 S
C3297 C3298 1.523 1_655 S
C3298 C3279 1.368 . S
C3298 C3292 1.368 1_455 S
C3298 C3297 1.523 1_455 S
C3299 C3283 1.429 . S
C3299 C3295 1.429 . S
C3299 C3300 1.523 . S
C3300 C3284 1.368 1_455 S
C3300 C3296 1.368 . S
C3300 C3299 1.523 . S
H3301 C3276 0.950 . S
H3302 C3278 0.950 . S
H3303 C3279 0.949 . S
H3304 C3281 0.950 . S
H3305 C3283 0.950 . S
C3306 C3307 1.349 . S
C3306 C3308 1.327 . S
C3306 H3331 0.950 . S
C3307 C3306 1.349 . S
C3307 C3323 1.349 . S
C3308 C3306 1.327 . S
C3308 C3327 1.429 . S
C3308 H3332 0.950 . S
C3309 C3326 1.574 . S
C3309 C3328 1.368 . S
C3309 H3333 0.949 . S
H3310 C3314 0.949 . S
C3311 C3312 1.349 . S
C3311 C3313 1.327 . S
C3311 H3334 0.950 . S
C3312 C3311 1.349 . S
C3312 C3324 1.349 . S
C3313 C3311 1.327 . S
C3313 C3329 1.429 . S
C3313 H3335 0.950 . S
C3314 H3310 0.949 . S
C3314 C3322 1.574 . S
C3314 C3330 1.368 . S
H3315 C3323 0.950 . S
H3316 C3321 0.950 . S
H3317 C3322 0.949 . S
H3318 C3324 0.950 . S
H3319 C3325 0.950 . S
H3320 C3326 0.949 . S
C3321 H3316 0.950 . S
C3321 C3323 1.327 . S
C3321 C3327 1.429 . S
C3322 C3314 1.574 . S
C3322 H3317 0.949 . S
C3322 C3328 1.368 . S
C3323 C3307 1.349 . S
C3323 H3315 0.950 . S
C3323 C3321 1.327 . S
C3324 C3312 1.349 . S
C3324 H3318 0.950 . S
C3324 C3325 1.327 . S
C3325 H3319 0.950 . S
C3325 C3324 1.327 . S
C3325 C3329 1.429 . S
C3326 C3309 1.574 . S
C3326 H3320 0.949 . S
C3326 C3330 1.368 . S
C3327 C3308 1.429 . S
C3327 C3321 1.429 . S
C3327 C3328 1.523 . S
C3328 C3309 1.368 . S
C3328 C3322 1.368 . S
C3328 C3327 1.523 . S
C3329 C3313 1.429 . S
C3329 C3325 1.429 . S
C3329 C3330 1.523 . S
C3330 C3314 1.368 . S
C3330 C3326 1.368 . S
C3330 C3329 1.523 . S
H3331 C3306 0.950 . S
H3332 C3308 0.950 . S
H3333 C3309 0.949 . S
H3334 C3311 0.950 . S
H3335 C3313 0.950 . S
C3336 C3337 1.349 . S
C3336 C3338 1.327 . S
C3336 H3361 0.950 . S
C3337 C3336 1.349 . S
C3337 C3353 1.349 . S
C3338 C3336 1.327 . S
C3338 C3357 1.429 . S
C3338 H3362 0.950 . S
C3339 C3356 1.574 . S
C3339 C3358 1.368 . S
C3339 H3363 0.949 . S
H3340 C3344 0.949 . S
C3341 C3342 1.349 . S
C3341 C3343 1.327 . S
C3341 H3364 0.950 . S
C3342 C3341 1.349 . S
C3342 C3354 1.349 . S
C3343 C3341 1.327 . S
C3343 C3359 1.429 . S
C3343 H3365 0.950 . S
C3344 H3340 0.949 . S
C3344 C3352 1.574 . S
C3344 C3360 1.368 . S
H3345 C3353 0.950 . S
H3346 C3351 0.950 . S
H3347 C3352 0.949 . S
H3348 C3354 0.950 . S
H3349 C3355 0.950 . S
H3350 C3356 0.949 . S
C3351 H3346 0.950 . S
C3351 C3353 1.327 . S
C3351 C3357 1.429 . S
C3352 C3344 1.574 . S
C3352 H3347 0.949 . S
C3352 C3358 1.368 . S
C3353 C3337 1.349 . S
C3353 H3345 0.950 . S
C3353 C3351 1.327 . S
C3354 C3342 1.349 . S
C3354 H3348 0.950 . S
C3354 C3355 1.327 . S
C3355 H3349 0.950 . S
C3355 C3354 1.327 . S
C3355 C3359 1.429 . S
C3356 C3339 1.574 . S
C3356 H3350 0.949 . S
C3356 C3360 1.368 . S
C3357 C3338 1.429 . S
C3357 C3351 1.429 . S
C3357 C3358 1.523 . S
C3358 C3339 1.368 . S
C3358 C3352 1.368 . S
C3358 C3357 1.523 . S
C3359 C3343 1.429 . S
C3359 C3355 1.429 . S
C3359 C3360 1.523 . S
C3360 C3344 1.368 . S
C3360 C3356 1.368 . S
C3360 C3359 1.523 . S
H3361 C3336 0.950 . S
H3362 C3338 0.950 . S
H3363 C3339 0.949 . S
H3364 C3341 0.950 . S
H3365 C3343 0.950 . S
C3366 C3367 1.349 . S
C3366 C3368 1.327 . S
C3366 H3391 0.950 . S
C3367 C3366 1.349 . S
C3367 C3383 1.349 . S
C3368 C3366 1.327 . S
C3368 C3387 1.429 . S
C3368 H3392 0.950 . S
C3369 C3386 1.574 . S
C3369 C3388 1.368 . S
C3369 H3393 0.949 . S
H3370 C3374 0.949 . S
C3371 C3372 1.349 . S
C3371 C3373 1.327 . S
C3371 H3394 0.950 . S
C3372 C3371 1.349 . S
C3372 C3384 1.349 . S
C3373 C3371 1.327 . S
C3373 C3389 1.429 . S
C3373 H3395 0.950 . S
C3374 H3370 0.949 . S
C3374 C3382 1.574 . S
C3374 C3390 1.368 . S
H3375 C3383 0.950 1_554 S
H3376 C3381 0.950 . S
H3377 C3382 0.949 . S
H3378 C3384 0.950 . S
H3379 C3385 0.950 . S
H3380 C3386 0.949 . S
C3381 H3376 0.950 . S
C3381 C3383 1.327 . S
C3381 C3387 1.429 . S
C3382 C3374 1.574 . S
C3382 H3377 0.949 . S
C3382 C3388 1.368 . S
C3383 C3367 1.349 . S
C3383 H3375 0.950 1_556 S
C3383 C3381 1.327 . S
C3384 C3372 1.349 . S
C3384 H3378 0.950 . S
C3384 C3385 1.327 . S
C3385 H3379 0.950 . S
C3385 C3384 1.327 . S
C3385 C3389 1.429 . S
C3386 C3369 1.574 . S
C3386 H3380 0.949 . S
C3386 C3390 1.368 . S
C3387 C3368 1.429 . S
C3387 C3381 1.429 . S
C3387 C3388 1.523 . S
C3388 C3369 1.368 . S
C3388 C3382 1.368 . S
C3388 C3387 1.523 . S
C3389 C3373 1.429 . S
C3389 C3385 1.429 . S
C3389 C3390 1.523 . S
C3390 C3374 1.368 . S
C3390 C3386 1.368 . S
C3390 C3389 1.523 . S
H3391 C3366 0.950 . S
H3392 C3368 0.950 . S
H3393 C3369 0.949 . S
H3394 C3371 0.950 . S
H3395 C3373 0.950 . S
C3396 C3397 1.349 . S
C3396 C3398 1.327 . S
C3396 H3421 0.950 . S
C3397 C3396 1.349 . S
C3397 C3413 1.349 . S
C3398 C3396 1.327 . S
C3398 C3417 1.429 . S
C3398 H3422 0.950 . S
C3399 C3416 1.574 . S
C3399 C3418 1.368 . S
C3399 H3423 0.949 . S
H3400 C3404 0.949 . S
C3401 C3402 1.349 . S
C3401 C3403 1.327 . S
C3401 H3424 0.950 . S
C3402 C3401 1.349 . S
C3402 C3414 1.349 . S
C3403 C3401 1.327 . S
C3403 C3419 1.429 . S
C3403 H3425 0.950 . S
C3404 H3400 0.949 . S
C3404 C3412 1.574 . S
C3404 C3420 1.368 . S
H3405 C3413 0.950 . S
H3406 C3411 0.950 . S
H3407 C3412 0.949 . S
H3408 C3414 0.950 . S
H3409 C3415 0.950 . S
H3410 C3416 0.949 . S
C3411 H3406 0.950 . S
C3411 C3413 1.327 . S
C3411 C3417 1.429 . S
C3412 C3404 1.574 . S
C3412 H3407 0.949 . S
C3412 C3418 1.368 . S
C3413 C3397 1.349 . S
C3413 H3405 0.950 . S
C3413 C3411 1.327 . S
C3414 C3402 1.349 . S
C3414 H3408 0.950 . S
C3414 C3415 1.327 . S
C3415 H3409 0.950 . S
C3415 C3414 1.327 . S
C3415 C3419 1.429 . S
C3416 C3399 1.574 . S
C3416 H3410 0.949 . S
C3416 C3420 1.368 . S
C3417 C3398 1.429 . S
C3417 C3411 1.429 . S
C3417 C3418 1.523 . S
C3418 C3399 1.368 . S
C3418 C3412 1.368 . S
C3418 C3417 1.523 . S
C3419 C3403 1.429 . S
C3419 C3415 1.429 . S
C3419 C3420 1.523 . S
C3420 C3404 1.368 . S
C3420 C3416 1.368 . S
C3420 C3419 1.523 . S
H3421 C3396 0.950 . S
H3422 C3398 0.950 . S
H3423 C3399 0.949 . S
H3424 C3401 0.950 . S
H3425 C3403 0.950 . S
C3426 C3427 1.349 . S
C3426 C3428 1.327 . S
C3426 H3451 0.950 . S
C3427 C3426 1.349 . S
C3427 C3443 1.349 . S
C3428 C3426 1.327 . S
C3428 C3447 1.429 . S
C3428 H3452 0.950 . S
C3429 C3446 1.574 . S
C3429 C3448 1.368 . S
C3429 H3453 0.949 . S
H3430 C3434 0.949 . S
C3431 C3432 1.349 . S
C3431 C3433 1.327 . S
C3431 H3454 0.950 . S
C3432 C3431 1.349 . S
C3432 C3444 1.349 . S
C3433 C3431 1.327 . S
C3433 C3449 1.429 . S
C3433 H3455 0.950 . S
C3434 H3430 0.949 . S
C3434 C3442 1.574 . S
C3434 C3450 1.368 . S
H3435 C3443 0.950 . S
H3436 C3441 0.950 . S
H3437 C3442 0.949 . S
H3438 C3444 0.950 . S
H3439 C3445 0.950 . S
H3440 C3446 0.949 . S
C3441 H3436 0.950 . S
C3441 C3443 1.327 . S
C3441 C3447 1.429 . S
C3442 C3434 1.574 . S
C3442 H3437 0.949 . S
C3442 C3448 1.368 . S
C3443 C3427 1.349 . S
C3443 H3435 0.950 . S
C3443 C3441 1.327 . S
C3444 C3432 1.349 . S
C3444 H3438 0.950 . S
C3444 C3445 1.327 . S
C3445 H3439 0.950 . S
C3445 C3444 1.327 . S
C3445 C3449 1.429 . S
C3446 C3429 1.574 . S
C3446 H3440 0.949 . S
C3446 C3450 1.368 . S
C3447 C3428 1.429 . S
C3447 C3441 1.429 . S
C3447 C3448 1.523 . S
C3448 C3429 1.368 . S
C3448 C3442 1.368 . S
C3448 C3447 1.523 . S
C3449 C3433 1.429 . S
C3449 C3445 1.429 . S
C3449 C3450 1.523 . S
C3450 C3434 1.368 . S
C3450 C3446 1.368 . S
C3450 C3449 1.523 . S
H3451 C3426 0.950 . S
H3452 C3428 0.950 . S
H3453 C3429 0.949 . S
H3454 C3431 0.950 . S
H3455 C3433 0.950 . S
C3456 C3457 1.349 . S
C3456 C3458 1.327 . S
C3456 H3481 0.950 . S
C3457 C3456 1.349 . S
C3457 C3473 1.349 . S
C3458 C3456 1.327 . S
C3458 C3477 1.429 . S
C3458 H3482 0.950 . S
C3459 C3476 1.574 . S
C3459 C3478 1.368 . S
C3459 H3483 0.949 . S
H3460 C3464 0.949 . S
C3461 C3462 1.349 . S
C3461 C3463 1.327 . S
C3461 H3484 0.950 . S
C3462 C3461 1.349 . S
C3462 C3474 1.349 . S
C3463 C3461 1.327 . S
C3463 C3479 1.429 . S
C3463 H3485 0.950 . S
C3464 H3460 0.949 . S
C3464 C3472 1.574 . S
C3464 C3480 1.368 . S
H3465 C3473 0.950 . S
H3466 C3471 0.950 . S
H3467 C3472 0.949 . S
H3468 C3474 0.950 . S
H3469 C3475 0.950 . S
H3470 C3476 0.949 . S
C3471 H3466 0.950 . S
C3471 C3473 1.327 . S
C3471 C3477 1.429 . S
C3472 C3464 1.574 . S
C3472 H3467 0.949 . S
C3472 C3478 1.368 . S
C3473 C3457 1.349 . S
C3473 H3465 0.950 . S
C3473 C3471 1.327 . S
C3474 C3462 1.349 . S
C3474 H3468 0.950 . S
C3474 C3475 1.327 . S
C3475 H3469 0.950 . S
C3475 C3474 1.327 . S
C3475 C3479 1.429 . S
C3476 C3459 1.574 . S
C3476 H3470 0.949 . S
C3476 C3480 1.368 . S
C3477 C3458 1.429 . S
C3477 C3471 1.429 . S
C3477 C3478 1.523 . S
C3478 C3459 1.368 . S
C3478 C3472 1.368 . S
C3478 C3477 1.523 . S
C3479 C3463 1.429 . S
C3479 C3475 1.429 . S
C3479 C3480 1.523 . S
C3480 C3464 1.368 . S
C3480 C3476 1.368 . S
C3480 C3479 1.523 . S
H3481 C3456 0.950 . S
H3482 C3458 0.950 . S
H3483 C3459 0.949 . S
H3484 C3461 0.950 . S
H3485 C3463 0.950 . S
C3486 C3487 1.349 . S
C3486 C3488 1.327 . S
C3486 H3511 0.950 . S
C3487 C3486 1.349 . S
C3487 C3503 1.349 . S
C3488 C3486 1.327 . S
C3488 C3507 1.429 . S
C3488 H3512 0.950 . S
C3489 C3506 1.574 . S
C3489 C3508 1.368 . S
C3489 H3513 0.949 . S
H3490 C3494 0.949 . S
C3491 C3492 1.349 . S
C3491 C3493 1.327 . S
C3491 H3514 0.950 . S
C3492 C3491 1.349 . S
C3492 C3504 1.349 . S
C3493 C3491 1.327 . S
C3493 C3509 1.429 . S
C3493 H3515 0.950 . S
C3494 H3490 0.949 . S
C3494 C3502 1.574 . S
C3494 C3510 1.368 . S
H3495 C3503 0.950 . S
H3496 C3501 0.950 . S
H3497 C3502 0.949 . S
H3498 C3504 0.950 . S
H3499 C3505 0.950 . S
H3500 C3506 0.949 . S
C3501 H3496 0.950 . S
C3501 C3503 1.327 . S
C3501 C3507 1.429 . S
C3502 C3494 1.574 . S
C3502 H3497 0.949 . S
C3502 C3508 1.368 . S
C3503 C3487 1.349 . S
C3503 H3495 0.950 . S
C3503 C3501 1.327 . S
C3504 C3492 1.349 . S
C3504 H3498 0.950 . S
C3504 C3505 1.327 . S
C3505 H3499 0.950 . S
C3505 C3504 1.327 . S
C3505 C3509 1.429 . S
C3506 C3489 1.574 . S
C3506 H3500 0.949 . S
C3506 C3510 1.368 . S
C3507 C3488 1.429 . S
C3507 C3501 1.429 . S
C3507 C3508 1.523 . S
C3508 C3489 1.368 . S
C3508 C3502 1.368 . S
C3508 C3507 1.523 . S
C3509 C3493 1.429 . S
C3509 C3505 1.429 . S
C3509 C3510 1.523 . S
C3510 C3494 1.368 . S
C3510 C3506 1.368 . S
C3510 C3509 1.523 . S
H3511 C3486 0.950 . S
H3512 C3488 0.950 . S
H3513 C3489 0.949 . S
H3514 C3491 0.950 . S
H3515 C3493 0.950 . S
C3516 C3517 1.349 . S
C3516 C3518 1.327 . S
C3516 H3541 0.950 . S
C3517 C3516 1.349 . S
C3517 C3533 1.349 . S
C3518 C3516 1.327 . S
C3518 C3537 1.429 . S
C3518 H3542 0.950 . S
C3519 C3536 1.574 . S
C3519 C3538 1.368 . S
C3519 H3543 0.949 . S
H3520 C3524 0.949 . S
C3521 C3522 1.349 . S
C3521 C3523 1.327 . S
C3521 H3544 0.950 . S
C3522 C3521 1.349 . S
C3522 C3534 1.349 . S
C3523 C3521 1.327 . S
C3523 C3539 1.429 . S
C3523 H3545 0.950 . S
C3524 H3520 0.949 . S
C3524 C3532 1.574 . S
C3524 C3540 1.368 . S
H3525 C3533 0.950 . S
H3526 C3531 0.950 . S
H3527 C3532 0.949 . S
H3528 C3534 0.950 . S
H3529 C3535 0.950 . S
H3530 C3536 0.949 . S
C3531 H3526 0.950 . S
C3531 C3533 1.327 . S
C3531 C3537 1.429 . S
C3532 C3524 1.574 . S
C3532 H3527 0.949 . S
C3532 C3538 1.368 . S
C3533 C3517 1.349 . S
C3533 H3525 0.950 . S
C3533 C3531 1.327 . S
C3534 C3522 1.349 . S
C3534 H3528 0.950 . S
C3534 C3535 1.327 . S
C3535 H3529 0.950 . S
C3535 C3534 1.327 . S
C3535 C3539 1.429 . S
C3536 C3519 1.574 . S
C3536 H3530 0.949 . S
C3536 C3540 1.368 . S
C3537 C3518 1.429 . S
C3537 C3531 1.429 . S
C3537 C3538 1.523 . S
C3538 C3519 1.368 . S
C3538 C3532 1.368 . S
C3538 C3537 1.523 . S
C3539 C3523 1.429 . S
C3539 C3535 1.429 . S
C3539 C3540 1.523 . S
C3540 C3524 1.368 . S
C3540 C3536 1.368 . S
C3540 C3539 1.523 . S
H3541 C3516 0.950 . S
H3542 C3518 0.950 . S
H3543 C3519 0.949 . S
H3544 C3521 0.950 . S
H3545 C3523 0.950 . S
C3546 C3547 1.349 . S
C3546 C3548 1.327 . S
C3546 H3571 0.950 . S
C3547 C3546 1.349 . S
C3547 C3563 1.349 . S
C3548 C3546 1.327 . S
C3548 C3567 1.429 . S
C3548 H3572 0.950 . S
C3549 C3566 1.574 . S
C3549 C3568 1.368 . S
C3549 H3573 0.949 . S
H3550 C3554 0.949 . S
C3551 C3552 1.349 . S
C3551 C3553 1.327 . S
C3551 H3574 0.950 . S
C3552 C3551 1.349 . S
C3552 C3564 1.349 . S
C3553 C3551 1.327 . S
C3553 C3569 1.429 . S
C3553 H3575 0.950 . S
C3554 H3550 0.949 . S
C3554 C3562 1.574 . S
C3554 C3570 1.368 . S
H3555 C3563 0.950 . S
H3556 C3561 0.950 . S
H3557 C3562 0.949 . S
H3558 C3564 0.950 . S
H3559 C3565 0.950 . S
H3560 C3566 0.949 . S
C3561 H3556 0.950 . S
C3561 C3563 1.327 . S
C3561 C3567 1.429 . S
C3562 C3554 1.574 . S
C3562 H3557 0.949 . S
C3562 C3568 1.368 . S
C3563 C3547 1.349 . S
C3563 H3555 0.950 . S
C3563 C3561 1.327 . S
C3564 C3552 1.349 . S
C3564 H3558 0.950 . S
C3564 C3565 1.327 . S
C3565 H3559 0.950 . S
C3565 C3564 1.327 . S
C3565 C3569 1.429 . S
C3566 C3549 1.574 . S
C3566 H3560 0.949 . S
C3566 C3570 1.368 . S
C3567 C3548 1.429 . S
C3567 C3561 1.429 . S
C3567 C3568 1.523 . S
C3568 C3549 1.368 . S
C3568 C3562 1.368 . S
C3568 C3567 1.523 . S
C3569 C3553 1.429 . S
C3569 C3565 1.429 . S
C3569 C3570 1.523 . S
C3570 C3554 1.368 . S
C3570 C3566 1.368 . S
C3570 C3569 1.523 . S
H3571 C3546 0.950 . S
H3572 C3548 0.950 . S
H3573 C3549 0.949 . S
H3574 C3551 0.950 . S
H3575 C3553 0.950 . S
C3576 C3577 1.349 . S
C3576 C3578 1.327 . S
C3576 H3601 0.950 . S
C3577 C3576 1.349 . S
C3577 C3593 1.349 . S
C3578 C3576 1.327 . S
C3578 C3597 1.429 . S
C3578 H3602 0.950 . S
C3579 C3596 1.574 . S
C3579 C3598 1.368 . S
C3579 H3603 0.949 . S
H3580 C3584 0.949 . S
C3581 C3582 1.349 . S
C3581 C3583 1.327 . S
C3581 H3604 0.950 . S
C3582 C3581 1.349 . S
C3582 C3594 1.349 . S
C3583 C3581 1.327 . S
C3583 C3599 1.429 . S
C3583 H3605 0.950 . S
C3584 H3580 0.949 . S
C3584 C3592 1.574 . S
C3584 C3600 1.368 . S
H3585 C3593 0.950 . S
H3586 C3591 0.950 . S
H3587 C3592 0.949 . S
H3588 C3594 0.950 . S
H3589 C3595 0.950 . S
H3590 C3596 0.949 . S
C3591 H3586 0.950 . S
C3591 C3593 1.327 . S
C3591 C3597 1.429 . S
C3592 C3584 1.574 . S
C3592 H3587 0.949 . S
C3592 C3598 1.368 . S
C3593 C3577 1.349 . S
C3593 H3585 0.950 . S
C3593 C3591 1.327 . S
C3594 C3582 1.349 . S
C3594 H3588 0.950 . S
C3594 C3595 1.327 . S
C3595 H3589 0.950 . S
C3595 C3594 1.327 . S
C3595 C3599 1.429 . S
C3596 C3579 1.574 . S
C3596 H3590 0.949 . S
C3596 C3600 1.368 . S
C3597 C3578 1.429 . S
C3597 C3591 1.429 . S
C3597 C3598 1.523 . S
C3598 C3579 1.368 . S
C3598 C3592 1.368 . S
C3598 C3597 1.523 . S
C3599 C3583 1.429 . S
C3599 C3595 1.429 . S
C3599 C3600 1.523 . S
C3600 C3584 1.368 . S
C3600 C3596 1.368 . S
C3600 C3599 1.523 . S
H3601 C3576 0.950 . S
H3602 C3578 0.950 . S
H3603 C3579 0.949 . S
H3604 C3581 0.950 . S
H3605 C3583 0.950 . S
C3606 C3607 1.349 . S
C3606 C3608 1.327 . S
C3606 H3631 0.950 . S
C3607 C3606 1.349 . S
C3607 C3623 1.349 . S
C3608 C3606 1.327 . S
C3608 C3627 1.429 . S
C3608 H3632 0.950 . S
C3609 C3626 1.574 . S
C3609 C3628 1.368 . S
C3609 H3633 0.949 . S
H3610 C3614 0.949 . S
C3611 C3612 1.349 . S
C3611 C3613 1.327 . S
C3611 H3634 0.950 . S
C3612 C3611 1.349 . S
C3612 C3624 1.349 . S
C3613 C3611 1.327 . S
C3613 C3629 1.429 . S
C3613 H3635 0.950 . S
C3614 H3610 0.949 . S
C3614 C3622 1.574 . S
C3614 C3630 1.368 . S
H3615 C3623 0.950 . S
H3616 C3621 0.950 . S
H3617 C3622 0.949 . S
H3618 C3624 0.950 . S
H3619 C3625 0.950 . S
H3620 C3626 0.949 . S
C3621 H3616 0.950 . S
C3621 C3623 1.327 . S
C3621 C3627 1.429 . S
C3622 C3614 1.574 . S
C3622 H3617 0.949 . S
C3622 C3628 1.368 . S
C3623 C3607 1.349 . S
C3623 H3615 0.950 . S
C3623 C3621 1.327 . S
C3624 C3612 1.349 . S
C3624 H3618 0.950 . S
C3624 C3625 1.327 . S
C3625 H3619 0.950 . S
C3625 C3624 1.327 . S
C3625 C3629 1.429 . S
C3626 C3609 1.574 . S
C3626 H3620 0.949 . S
C3626 C3630 1.368 . S
C3627 C3608 1.429 . S
C3627 C3621 1.429 . S
C3627 C3628 1.523 . S
C3628 C3609 1.368 . S
C3628 C3622 1.368 . S
C3628 C3627 1.523 . S
C3629 C3613 1.429 . S
C3629 C3625 1.429 . S
C3629 C3630 1.523 . S
C3630 C3614 1.368 . S
C3630 C3626 1.368 . S
C3630 C3629 1.523 . S
H3631 C3606 0.950 . S
H3632 C3608 0.950 . S
H3633 C3609 0.949 . S
H3634 C3611 0.950 . S
H3635 C3613 0.950 . S
C3636 C3637 1.349 . S
C3636 C3638 1.327 . S
C3636 H3661 0.950 . S
C3637 C3636 1.349 . S
C3637 C3653 1.349 . S
C3638 C3636 1.327 . S
C3638 C3657 1.429 . S
C3638 H3662 0.950 . S
C3639 C3656 1.574 . S
C3639 C3658 1.368 . S
C3639 H3663 0.949 . S
H3640 C3644 0.949 . S
C3641 C3642 1.349 . S
C3641 C3643 1.327 . S
C3641 H3664 0.950 . S
C3642 C3641 1.349 . S
C3642 C3654 1.349 . S
C3643 C3641 1.327 . S
C3643 C3659 1.429 . S
C3643 H3665 0.950 . S
C3644 H3640 0.949 . S
C3644 C3652 1.574 . S
C3644 C3660 1.368 . S
H3645 C3653 0.950 . S
H3646 C3651 0.950 . S
H3647 C3652 0.949 . S
H3648 C3654 0.950 . S
H3649 C3655 0.950 . S
H3650 C3656 0.949 . S
C3651 H3646 0.950 . S
C3651 C3653 1.327 . S
C3651 C3657 1.429 . S
C3652 C3644 1.574 . S
C3652 H3647 0.949 . S
C3652 C3658 1.368 . S
C3653 C3637 1.349 . S
C3653 H3645 0.950 . S
C3653 C3651 1.327 . S
C3654 C3642 1.349 . S
C3654 H3648 0.950 . S
C3654 C3655 1.327 . S
C3655 H3649 0.950 . S
C3655 C3654 1.327 . S
C3655 C3659 1.429 . S
C3656 C3639 1.574 . S
C3656 H3650 0.949 . S
C3656 C3660 1.368 . S
C3657 C3638 1.429 . S
C3657 C3651 1.429 . S
C3657 C3658 1.523 . S
C3658 C3639 1.368 . S
C3658 C3652 1.368 . S
C3658 C3657 1.523 . S
C3659 C3643 1.429 . S
C3659 C3655 1.429 . S
C3659 C3660 1.523 . S
C3660 C3644 1.368 . S
C3660 C3656 1.368 . S
C3660 C3659 1.523 . S
H3661 C3636 0.950 . S
H3662 C3638 0.950 . S
H3663 C3639 0.949 . S
H3664 C3641 0.950 . S
H3665 C3643 0.950 . S
C3666 C3667 1.349 . S
C3666 C3668 1.328 . S
C3666 H3691 0.950 1_554 S
C3667 C3666 1.349 . S
C3667 C3683 1.349 . S
C3668 C3666 1.328 . S
C3668 C3687 1.430 . S
C3668 H3692 0.948 1_554 S
C3669 C3686 1.574 . S
C3669 C3688 1.368 . S
C3669 H3693 0.949 . S
H3670 C3674 0.969 . S
C3671 C3672 1.349 . S
C3671 C3673 1.327 . S
C3671 H3694 0.950 . S
C3672 C3671 1.349 . S
C3672 C3684 1.349 1_554 S
C3673 C3671 1.327 . S
C3673 C3689 1.429 . S
C3673 H3695 0.950 . S
C3674 H3670 0.969 . S
C3674 C3682 1.561 1_545 S
C3674 C3690 1.362 1_556 S
H3675 C3683 0.950 . S
H3676 C3681 0.950 . S
H3677 C3682 0.949 . S
H3678 C3684 0.950 . S
H3679 C3685 0.950 . S
H3680 C3686 0.949 . S
C3681 H3676 0.950 . S
C3681 C3683 1.327 . S
C3681 C3687 1.429 . S
C3682 C3674 1.561 1_565 S
C3682 H3677 0.949 . S
C3682 C3688 1.368 1_556 S
C3683 C3667 1.349 . S
C3683 H3675 0.950 . S
C3683 C3681 1.327 . S
C3684 C3672 1.349 1_556 S
C3684 H3678 0.950 . S
C3684 C3685 1.327 . S
C3685 H3679 0.950 . S
C3685 C3684 1.327 . S
C3685 C3689 1.429 1_556 S
C3686 C3669 1.574 . S
C3686 H3680 0.949 . S
C3686 C3690 1.363 1_565 S
C3687 C3668 1.430 . S
C3687 C3681 1.429 . S
C3687 C3688 1.523 . S
C3688 C3669 1.368 . S
C3688 C3682 1.368 1_554 S
C3688 C3687 1.523 . S
C3689 C3673 1.429 . S
C3689 C3685 1.429 1_554 S
C3689 C3690 1.526 . S
C3690 C3674 1.362 1_554 S
C3690 C3686 1.363 1_545 S
C3690 C3689 1.526 . S
H3691 C3666 0.950 1_556 S
H3692 C3668 0.948 1_556 S
H3693 C3669 0.949 . S
H3694 C3671 0.950 . S
H3695 C3673 0.950 . S
C3696 C3697 1.349 . S
C3696 C3698 1.327 . S
C3696 H3721 0.950 . S
C3697 C3696 1.349 . S
C3697 C3713 1.349 . S
C3698 C3696 1.327 . S
C3698 C3717 1.429 . S
C3698 H3722 0.950 . S
C3699 C3716 1.574 . S
C3699 C3718 1.368 . S
C3699 H3723 0.949 . S
H3700 C3704 0.949 . S
C3701 C3702 1.349 . S
C3701 C3703 1.327 . S
C3701 H3724 0.950 . S
C3702 C3701 1.349 . S
C3702 C3714 1.349 . S
C3703 C3701 1.327 . S
C3703 C3719 1.429 . S
C3703 H3725 0.950 . S
C3704 H3700 0.949 . S
C3704 C3712 1.574 . S
C3704 C3720 1.368 . S
H3705 C3713 0.950 . S
H3706 C3711 0.950 . S
H3707 C3712 0.949 . S
H3708 C3714 0.950 . S
H3709 C3715 0.950 . S
H3710 C3716 0.949 . S
C3711 H3706 0.950 . S
C3711 C3713 1.327 . S
C3711 C3717 1.429 . S
C3712 C3704 1.574 . S
C3712 H3707 0.949 . S
C3712 C3718 1.368 . S
C3713 C3697 1.349 . S
C3713 H3705 0.950 . S
C3713 C3711 1.327 . S
C3714 C3702 1.349 . S
C3714 H3708 0.950 . S
C3714 C3715 1.327 . S
C3715 H3709 0.950 . S
C3715 C3714 1.327 . S
C3715 C3719 1.429 . S
C3716 C3699 1.574 . S
C3716 H3710 0.949 . S
C3716 C3720 1.368 . S
C3717 C3698 1.429 . S
C3717 C3711 1.429 . S
C3717 C3718 1.523 . S
C3718 C3699 1.368 . S
C3718 C3712 1.368 . S
C3718 C3717 1.523 . S
C3719 C3703 1.429 . S
C3719 C3715 1.429 . S
C3719 C3720 1.523 . S
C3720 C3704 1.368 . S
C3720 C3716 1.368 . S
C3720 C3719 1.523 . S
H3721 C3696 0.950 . S
H3722 C3698 0.950 . S
H3723 C3699 0.949 . S
H3724 C3701 0.950 . S
H3725 C3703 0.950 . S
C3726 C3727 1.349 . S
C3726 C3728 1.327 . S
C3726 H3751 0.950 . S
C3727 C3726 1.349 . S
C3727 C3743 1.349 1_554 S
C3728 C3726 1.327 . S
C3728 C3747 1.429 . S
C3728 H3752 0.950 . S
C3729 C3746 1.574 . S
C3729 C3748 1.368 . S
C3729 H3753 0.949 . S
H3730 C3734 0.949 . S
C3731 C3732 1.349 . S
C3731 C3733 1.327 . S
C3731 H3754 0.950 . S
C3732 C3731 1.349 . S
C3732 C3744 1.349 . S
C3733 C3731 1.327 . S
C3733 C3749 1.429 . S
C3733 H3755 0.950 . S
C3734 H3730 0.949 . S
C3734 C3742 1.574 . S
C3734 C3750 1.368 . S
H3735 C3743 0.950 . S
H3736 C3741 0.950 1_556 S
H3737 C3742 0.949 . S
H3738 C3744 0.950 . S
H3739 C3745 0.950 . S
H3740 C3746 0.949 . S
C3741 H3736 0.950 1_554 S
C3741 C3743 1.327 1_554 S
C3741 C3747 1.429 . S
C3742 C3734 1.574 . S
C3742 H3737 0.949 . S
C3742 C3748 1.368 . S
C3743 C3727 1.349 1_556 S
C3743 H3735 0.950 . S
C3743 C3741 1.327 1_556 S
C3744 C3732 1.349 . S
C3744 H3738 0.950 . S
C3744 C3745 1.327 . S
C3745 H3739 0.950 . S
C3745 C3744 1.327 . S
C3745 C3749 1.429 . S
C3746 C3729 1.574 . S
C3746 H3740 0.949 . S
C3746 C3750 1.368 . S
C3747 C3728 1.429 . S
C3747 C3741 1.429 . S
C3747 C3748 1.523 . S
C3748 C3729 1.368 . S
C3748 C3742 1.368 . S
C3748 C3747 1.523 . S
C3749 C3733 1.429 . S
C3749 C3745 1.429 . S
C3749 C3750 1.523 . S
C3750 C3734 1.368 . S
C3750 C3746 1.368 . S
C3750 C3749 1.523 . S
H3751 C3726 0.950 . S
H3752 C3728 0.950 . S
H3753 C3729 0.949 . S
H3754 C3731 0.950 . S
H3755 C3733 0.950 . S
C3756 C3757 1.349 . S
C3756 C3758 1.327 . S
C3756 H3781 0.950 . S
C3757 C3756 1.349 . S
C3757 C3773 1.349 . S
C3758 C3756 1.327 . S
C3758 C3777 1.429 . S
C3758 H3782 0.950 . S
C3759 C3776 1.574 . S
C3759 C3778 1.368 . S
C3759 H3783 0.949 . S
H3760 C3764 0.949 . S
C3761 C3762 1.349 . S
C3761 C3763 1.327 . S
C3761 H3784 0.950 . S
C3762 C3761 1.349 . S
C3762 C3774 1.349 . S
C3763 C3761 1.327 . S
C3763 C3779 1.429 . S
C3763 H3785 0.950 . S
C3764 H3760 0.949 . S
C3764 C3772 1.574 . S
C3764 C3780 1.368 . S
H3765 C3773 0.950 . S
H3766 C3771 0.950 . S
H3767 C3772 0.949 . S
H3768 C3774 0.950 . S
H3769 C3775 0.950 . S
H3770 C3776 0.949 . S
C3771 H3766 0.950 . S
C3771 C3773 1.327 . S
C3771 C3777 1.429 . S
C3772 C3764 1.574 . S
C3772 H3767 0.949 . S
C3772 C3778 1.368 . S
C3773 C3757 1.349 . S
C3773 H3765 0.950 . S
C3773 C3771 1.327 . S
C3774 C3762 1.349 . S
C3774 H3768 0.950 . S
C3774 C3775 1.327 . S
C3775 H3769 0.950 . S
C3775 C3774 1.327 . S
C3775 C3779 1.429 . S
C3776 C3759 1.574 . S
C3776 H3770 0.949 . S
C3776 C3780 1.368 . S
C3777 C3758 1.429 . S
C3777 C3771 1.429 . S
C3777 C3778 1.523 . S
C3778 C3759 1.368 . S
C3778 C3772 1.368 . S
C3778 C3777 1.523 . S
C3779 C3763 1.429 . S
C3779 C3775 1.429 . S
C3779 C3780 1.523 . S
C3780 C3764 1.368 . S
C3780 C3776 1.368 . S
C3780 C3779 1.523 . S
H3781 C3756 0.950 . S
H3782 C3758 0.950 . S
H3783 C3759 0.949 . S
H3784 C3761 0.950 . S
H3785 C3763 0.950 . S
C3786 C3787 1.349 . S
C3786 C3788 1.327 . S
C3786 H3811 0.950 . S
C3787 C3786 1.349 . S
C3787 C3803 1.349 . S
C3788 C3786 1.327 . S
C3788 C3807 1.429 . S
C3788 H3812 0.950 . S
C3789 C3806 1.574 . S
C3789 C3808 1.368 . S
C3789 H3813 0.949 . S
H3790 C3794 0.949 . S
C3791 C3792 1.349 . S
C3791 C3793 1.327 . S
C3791 H3814 0.950 . S
C3792 C3791 1.349 . S
C3792 C3804 1.349 . S
C3793 C3791 1.327 . S
C3793 C3809 1.429 . S
C3793 H3815 0.950 . S
C3794 H3790 0.949 . S
C3794 C3802 1.574 . S
C3794 C3810 1.368 . S
H3795 C3803 0.950 . S
H3796 C3801 0.950 . S
H3797 C3802 0.949 . S
H3798 C3804 0.950 . S
H3799 C3805 0.950 . S
H3800 C3806 0.949 . S
C3801 H3796 0.950 . S
C3801 C3803 1.327 . S
C3801 C3807 1.429 . S
C3802 C3794 1.574 . S
C3802 H3797 0.949 . S
C3802 C3808 1.368 . S
C3803 C3787 1.349 . S
C3803 H3795 0.950 . S
C3803 C3801 1.327 . S
C3804 C3792 1.349 . S
C3804 H3798 0.950 . S
C3804 C3805 1.327 . S
C3805 H3799 0.950 . S
C3805 C3804 1.327 . S
C3805 C3809 1.429 . S
C3806 C3789 1.574 . S
C3806 H3800 0.949 . S
C3806 C3810 1.368 . S
C3807 C3788 1.429 . S
C3807 C3801 1.429 . S
C3807 C3808 1.523 . S
C3808 C3789 1.368 . S
C3808 C3802 1.368 . S
C3808 C3807 1.523 . S
C3809 C3793 1.429 . S
C3809 C3805 1.429 . S
C3809 C3810 1.523 . S
C3810 C3794 1.368 . S
C3810 C3806 1.368 . S
C3810 C3809 1.523 . S
H3811 C3786 0.950 . S
H3812 C3788 0.950 . S
H3813 C3789 0.949 . S
H3814 C3791 0.950 . S
H3815 C3793 0.950 . S
C3816 C3817 1.349 . S
C3816 C3818 1.327 . S
C3816 H3841 0.950 . S
C3817 C3816 1.349 . S
C3817 C3833 1.349 . S
C3818 C3816 1.327 . S
C3818 C3837 1.429 . S
C3818 H3842 0.950 . S
C3819 C3836 1.574 . S
C3819 C3838 1.368 . S
C3819 H3843 0.949 . S
H3820 C3824 0.949 . S
C3821 C3822 1.349 . S
C3821 C3823 1.327 . S
C3821 H3844 0.950 . S
C3822 C3821 1.349 . S
C3822 C3834 1.349 . S
C3823 C3821 1.327 . S
C3823 C3839 1.429 . S
C3823 H3845 0.950 . S
C3824 H3820 0.949 . S
C3824 C3832 1.574 . S
C3824 C3840 1.368 . S
H3825 C3833 0.950 . S
H3826 C3831 0.950 . S
H3827 C3832 0.949 . S
H3828 C3834 0.950 . S
H3829 C3835 0.950 . S
H3830 C3836 0.949 . S
C3831 H3826 0.950 . S
C3831 C3833 1.327 . S
C3831 C3837 1.429 . S
C3832 C3824 1.574 . S
C3832 H3827 0.949 . S
C3832 C3838 1.368 . S
C3833 C3817 1.349 . S
C3833 H3825 0.950 . S
C3833 C3831 1.327 . S
C3834 C3822 1.349 . S
C3834 H3828 0.950 . S
C3834 C3835 1.327 . S
C3835 H3829 0.950 . S
C3835 C3834 1.327 . S
C3835 C3839 1.429 . S
C3836 C3819 1.574 . S
C3836 H3830 0.949 . S
C3836 C3840 1.368 . S
C3837 C3818 1.429 . S
C3837 C3831 1.429 . S
C3837 C3838 1.523 . S
C3838 C3819 1.368 . S
C3838 C3832 1.368 . S
C3838 C3837 1.523 . S
C3839 C3823 1.429 . S
C3839 C3835 1.429 . S
C3839 C3840 1.523 . S
C3840 C3824 1.368 . S
C3840 C3836 1.368 . S
C3840 C3839 1.523 . S
H3841 C3816 0.950 . S
H3842 C3818 0.950 . S
H3843 C3819 0.949 . S
H3844 C3821 0.950 . S
H3845 C3823 0.950 . S
C3846 C3847 1.349 . S
C3846 C3848 1.327 . S
C3846 H3871 0.950 . S
C3847 C3846 1.349 . S
C3847 C3863 1.349 . S
C3848 C3846 1.327 . S
C3848 C3867 1.429 . S
C3848 H3872 0.950 . S
C3849 C3866 1.574 . S
C3849 C3868 1.368 . S
C3849 H3873 0.949 . S
H3850 C3854 0.949 . S
C3851 C3852 1.349 . S
C3851 C3853 1.327 . S
C3851 H3874 0.950 . S
C3852 C3851 1.349 . S
C3852 C3864 1.349 . S
C3853 C3851 1.327 . S
C3853 C3869 1.429 . S
C3853 H3875 0.950 . S
C3854 H3850 0.949 . S
C3854 C3862 1.574 . S
C3854 C3870 1.368 . S
H3855 C3863 0.950 . S
H3856 C3861 0.950 . S
H3857 C3862 0.949 . S
H3858 C3864 0.950 . S
H3859 C3865 0.950 . S
H3860 C3866 0.949 . S
C3861 H3856 0.950 . S
C3861 C3863 1.327 . S
C3861 C3867 1.429 . S
C3862 C3854 1.574 . S
C3862 H3857 0.949 . S
C3862 C3868 1.368 . S
C3863 C3847 1.349 . S
C3863 H3855 0.950 . S
C3863 C3861 1.327 . S
C3864 C3852 1.349 . S
C3864 H3858 0.950 . S
C3864 C3865 1.327 . S
C3865 H3859 0.950 . S
C3865 C3864 1.327 . S
C3865 C3869 1.429 . S
C3866 C3849 1.574 . S
C3866 H3860 0.949 . S
C3866 C3870 1.368 . S
C3867 C3848 1.429 . S
C3867 C3861 1.429 . S
C3867 C3868 1.523 . S
C3868 C3849 1.368 . S
C3868 C3862 1.368 . S
C3868 C3867 1.523 . S
C3869 C3853 1.429 . S
C3869 C3865 1.429 . S
C3869 C3870 1.523 . S
C3870 C3854 1.368 . S
C3870 C3866 1.368 . S
C3870 C3869 1.523 . S
H3871 C3846 0.950 . S
H3872 C3848 0.950 . S
H3873 C3849 0.949 . S
H3874 C3851 0.950 . S
H3875 C3853 0.950 . S
C3876 C3877 1.349 . S
C3876 C3878 1.327 . S
C3876 H3901 0.950 . S
C3877 C3876 1.349 . S
C3877 C3893 1.349 . S
C3878 C3876 1.327 . S
C3878 C3897 1.429 . S
C3878 H3902 0.950 . S
C3879 C3896 1.574 . S
C3879 C3898 1.368 . S
C3879 H3903 0.949 . S
H3880 C3884 0.949 . S
C3881 C3882 1.349 . S
C3881 C3883 1.327 . S
C3881 H3904 0.950 . S
C3882 C3881 1.349 . S
C3882 C3894 1.349 . S
C3883 C3881 1.327 . S
C3883 C3899 1.429 . S
C3883 H3905 0.950 . S
C3884 H3880 0.949 . S
C3884 C3892 1.574 . S
C3884 C3900 1.368 . S
H3885 C3893 0.950 . S
H3886 C3891 0.950 . S
H3887 C3892 0.949 . S
H3888 C3894 0.950 . S
H3889 C3895 0.950 . S
H3890 C3896 0.949 . S
C3891 H3886 0.950 . S
C3891 C3893 1.327 . S
C3891 C3897 1.429 . S
C3892 C3884 1.574 . S
C3892 H3887 0.949 . S
C3892 C3898 1.368 . S
C3893 C3877 1.349 . S
C3893 H3885 0.950 . S
C3893 C3891 1.327 . S
C3894 C3882 1.349 . S
C3894 H3888 0.950 . S
C3894 C3895 1.327 . S
C3895 H3889 0.950 . S
C3895 C3894 1.327 . S
C3895 C3899 1.429 . S
C3896 C3879 1.574 . S
C3896 H3890 0.949 . S
C3896 C3900 1.368 . S
C3897 C3878 1.429 . S
C3897 C3891 1.429 . S
C3897 C3898 1.523 . S
C3898 C3879 1.368 . S
C3898 C3892 1.368 . S
C3898 C3897 1.523 . S
C3899 C3883 1.429 . S
C3899 C3895 1.429 . S
C3899 C3900 1.523 . S
C3900 C3884 1.368 . S
C3900 C3896 1.368 . S
C3900 C3899 1.523 . S
H3901 C3876 0.950 . S
H3902 C3878 0.950 . S
H3903 C3879 0.949 . S
H3904 C3881 0.950 . S
H3905 C3883 0.950 . S
C3906 C3907 1.349 . S
C3906 C3908 1.327 . S
C3906 H3931 0.950 . S
C3907 C3906 1.349 . S
C3907 C3923 1.349 . S
C3908 C3906 1.327 . S
C3908 C3927 1.429 . S
C3908 H3932 0.950 . S
C3909 C3926 1.574 . S
C3909 C3928 1.368 . S
C3909 H3933 0.949 . S
H3910 C3914 0.949 . S
C3911 C3912 1.349 . S
C3911 C3913 1.327 . S
C3911 H3934 0.950 . S
C3912 C3911 1.349 . S
C3912 C3924 1.349 . S
C3913 C3911 1.327 . S
C3913 C3929 1.429 . S
C3913 H3935 0.950 . S
C3914 H3910 0.949 . S
C3914 C3922 1.574 . S
C3914 C3930 1.368 . S
H3915 C3923 0.950 . S
H3916 C3921 0.950 . S
H3917 C3922 0.949 . S
H3918 C3924 0.950 . S
H3919 C3925 0.950 . S
H3920 C3926 0.949 . S
C3921 H3916 0.950 . S
C3921 C3923 1.327 . S
C3921 C3927 1.429 . S
C3922 C3914 1.574 . S
C3922 H3917 0.949 . S
C3922 C3928 1.368 . S
C3923 C3907 1.349 . S
C3923 H3915 0.950 . S
C3923 C3921 1.327 . S
C3924 C3912 1.349 . S
C3924 H3918 0.950 . S
C3924 C3925 1.327 . S
C3925 H3919 0.950 . S
C3925 C3924 1.327 . S
C3925 C3929 1.429 . S
C3926 C3909 1.574 . S
C3926 H3920 0.949 . S
C3926 C3930 1.368 . S
C3927 C3908 1.429 . S
C3927 C3921 1.429 . S
C3927 C3928 1.523 . S
C3928 C3909 1.368 . S
C3928 C3922 1.368 . S
C3928 C3927 1.523 . S
C3929 C3913 1.429 . S
C3929 C3925 1.429 . S
C3929 C3930 1.523 . S
C3930 C3914 1.368 . S
C3930 C3926 1.368 . S
C3930 C3929 1.523 . S
H3931 C3906 0.950 . S
H3932 C3908 0.950 . S
H3933 C3909 0.949 . S
H3934 C3911 0.950 . S
H3935 C3913 0.950 . S
C3936 C3937 1.349 . S
C3936 C3938 1.327 . S
C3936 H3961 0.950 . S
C3937 C3936 1.349 . S
C3937 C3953 1.349 . S
C3938 C3936 1.327 . S
C3938 C3957 1.429 . S
C3938 H3962 0.950 . S
C3939 C3956 1.574 . S
C3939 C3958 1.368 . S
C3939 H3963 0.949 . S
H3940 C3944 0.949 . S
C3941 C3942 1.349 . S
C3941 C3943 1.327 . S
C3941 H3964 0.950 . S
C3942 C3941 1.349 . S
C3942 C3954 1.349 . S
C3943 C3941 1.327 . S
C3943 C3959 1.429 . S
C3943 H3965 0.950 . S
C3944 H3940 0.949 . S
C3944 C3952 1.574 . S
C3944 C3960 1.368 . S
H3945 C3953 0.950 . S
H3946 C3951 0.950 . S
H3947 C3952 0.949 . S
H3948 C3954 0.950 . S
H3949 C3955 0.950 . S
H3950 C3956 0.949 . S
C3951 H3946 0.950 . S
C3951 C3953 1.327 . S
C3951 C3957 1.429 . S
C3952 C3944 1.574 . S
C3952 H3947 0.949 . S
C3952 C3958 1.368 . S
C3953 C3937 1.349 . S
C3953 H3945 0.950 . S
C3953 C3951 1.327 . S
C3954 C3942 1.349 . S
C3954 H3948 0.950 . S
C3954 C3955 1.327 . S
C3955 H3949 0.950 . S
C3955 C3954 1.327 . S
C3955 C3959 1.429 . S
C3956 C3939 1.574 . S
C3956 H3950 0.949 . S
C3956 C3960 1.368 . S
C3957 C3938 1.429 . S
C3957 C3951 1.429 . S
C3957 C3958 1.523 . S
C3958 C3939 1.368 . S
C3958 C3952 1.368 . S
C3958 C3957 1.523 . S
C3959 C3943 1.429 . S
C3959 C3955 1.429 . S
C3959 C3960 1.523 . S
C3960 C3944 1.368 . S
C3960 C3956 1.368 . S
C3960 C3959 1.523 . S
H3961 C3936 0.950 . S
H3962 C3938 0.950 . S
H3963 C3939 0.949 . S
H3964 C3941 0.950 . S
H3965 C3943 0.950 . S
C3966 C3967 1.349 . S
C3966 C3968 1.327 . S
C3966 H3991 0.950 . S
C3967 C3966 1.349 . S
C3967 C3983 1.349 . S
C3968 C3966 1.327 . S
C3968 C3987 1.429 . S
C3968 H3992 0.950 . S
C3969 C3986 1.574 . S
C3969 C3988 1.368 . S
C3969 H3993 0.949 . S
H3970 C3974 0.949 . S
C3971 C3972 1.349 . S
C3971 C3973 1.327 . S
C3971 H3994 0.950 . S
C3972 C3971 1.349 . S
C3972 C3984 1.349 . S
C3973 C3971 1.327 . S
C3973 C3989 1.429 . S
C3973 H3995 0.950 . S
C3974 H3970 0.949 . S
C3974 C3982 1.574 . S
C3974 C3990 1.368 . S
H3975 C3983 0.950 . S
H3976 C3981 0.950 . S
H3977 C3982 0.949 . S
H3978 C3984 0.950 . S
H3979 C3985 0.950 . S
H3980 C3986 0.949 . S
C3981 H3976 0.950 . S
C3981 C3983 1.327 . S
C3981 C3987 1.429 . S
C3982 C3974 1.574 . S
C3982 H3977 0.949 . S
C3982 C3988 1.368 . S
C3983 C3967 1.349 . S
C3983 H3975 0.950 . S
C3983 C3981 1.327 . S
C3984 C3972 1.349 . S
C3984 H3978 0.950 . S
C3984 C3985 1.327 . S
C3985 H3979 0.950 . S
C3985 C3984 1.327 . S
C3985 C3989 1.429 . S
C3986 C3969 1.574 . S
C3986 H3980 0.949 . S
C3986 C3990 1.368 . S
C3987 C3968 1.429 . S
C3987 C3981 1.429 . S
C3987 C3988 1.523 . S
C3988 C3969 1.368 . S
C3988 C3982 1.368 . S
C3988 C3987 1.523 . S
C3989 C3973 1.429 . S
C3989 C3985 1.429 . S
C3989 C3990 1.523 . S
C3990 C3974 1.368 . S
C3990 C3986 1.368 . S
C3990 C3989 1.523 . S
H3991 C3966 0.950 . S
H3992 C3968 0.950 . S
H3993 C3969 0.949 . S
H3994 C3971 0.950 . S
H3995 C3973 0.950 . S
C3996 C3997 1.349 . S
C3996 C3998 1.327 . S
C3996 H4021 0.950 . S
C3997 C3996 1.349 . S
C3997 C4013 1.349 . S
C3998 C3996 1.327 . S
C3998 C4017 1.429 . S
C3998 H4022 0.950 . S
C3999 C4016 1.574 . S
C3999 C4018 1.368 . S
C3999 H4023 0.949 . S
H4000 C4004 0.949 . S
C4001 C4002 1.349 . S
C4001 C4003 1.327 . S
C4001 H4024 0.950 . S
C4002 C4001 1.349 . S
C4002 C4014 1.349 . S
C4003 C4001 1.327 . S
C4003 C4019 1.429 . S
C4003 H4025 0.950 . S
C4004 H4000 0.949 . S
C4004 C4012 1.574 . S
C4004 C4020 1.368 . S
H4005 C4013 0.950 . S
H4006 C4011 0.950 . S
H4007 C4012 0.949 . S
H4008 C4014 0.950 . S
H4009 C4015 0.950 . S
H4010 C4016 0.949 . S
C4011 H4006 0.950 . S
C4011 C4013 1.327 . S
C4011 C4017 1.429 . S
C4012 C4004 1.574 . S
C4012 H4007 0.949 . S
C4012 C4018 1.368 . S
C4013 C3997 1.349 . S
C4013 H4005 0.950 . S
C4013 C4011 1.327 . S
C4014 C4002 1.349 . S
C4014 H4008 0.950 . S
C4014 C4015 1.327 . S
C4015 H4009 0.950 . S
C4015 C4014 1.327 . S
C4015 C4019 1.429 . S
C4016 C3999 1.574 . S
C4016 H4010 0.949 . S
C4016 C4020 1.368 . S
C4017 C3998 1.429 . S
C4017 C4011 1.429 . S
C4017 C4018 1.523 . S
C4018 C3999 1.368 . S
C4018 C4012 1.368 . S
C4018 C4017 1.523 . S
C4019 C4003 1.429 . S
C4019 C4015 1.429 . S
C4019 C4020 1.523 . S
C4020 C4004 1.368 . S
C4020 C4016 1.368 . S
C4020 C4019 1.523 . S
H4021 C3996 0.950 . S
H4022 C3998 0.950 . S
H4023 C3999 0.949 . S
H4024 C4001 0.950 . S
H4025 C4003 0.950 . S
C4026 C4027 1.349 . S
C4026 C4028 1.327 . S
C4026 H4051 0.950 . S
C4027 C4026 1.349 . S
C4027 C4043 1.349 . S
C4028 C4026 1.327 . S
C4028 C4047 1.429 . S
C4028 H4052 0.950 . S
C4029 C4046 1.574 . S
C4029 C4048 1.368 . S
C4029 H4053 0.949 . S
H4030 C4034 0.949 . S
C4031 C4032 1.349 . S
C4031 C4033 1.327 . S
C4031 H4054 0.950 . S
C4032 C4031 1.349 . S
C4032 C4044 1.349 . S
C4033 C4031 1.327 . S
C4033 C4049 1.429 . S
C4033 H4055 0.950 . S
C4034 H4030 0.949 . S
C4034 C4042 1.574 . S
C4034 C4050 1.368 . S
H4035 C4043 0.950 . S
H4036 C4041 0.950 . S
H4037 C4042 0.949 . S
H4038 C4044 0.950 . S
H4039 C4045 0.950 . S
H4040 C4046 0.949 . S
C4041 H4036 0.950 . S
C4041 C4043 1.327 . S
C4041 C4047 1.429 . S
C4042 C4034 1.574 . S
C4042 H4037 0.949 . S
C4042 C4048 1.368 . S
C4043 C4027 1.349 . S
C4043 H4035 0.950 . S
C4043 C4041 1.327 . S
C4044 C4032 1.349 . S
C4044 H4038 0.950 . S
C4044 C4045 1.327 . S
C4045 H4039 0.950 . S
C4045 C4044 1.327 . S
C4045 C4049 1.429 . S
C4046 C4029 1.574 . S
C4046 H4040 0.949 . S
C4046 C4050 1.368 . S
C4047 C4028 1.429 . S
C4047 C4041 1.429 . S
C4047 C4048 1.523 . S
C4048 C4029 1.368 . S
C4048 C4042 1.368 . S
C4048 C4047 1.523 . S
C4049 C4033 1.429 . S
C4049 C4045 1.429 . S
C4049 C4050 1.523 . S
C4050 C4034 1.368 . S
C4050 C4046 1.368 . S
C4050 C4049 1.523 . S
H4051 C4026 0.950 . S
H4052 C4028 0.950 . S
H4053 C4029 0.949 . S
H4054 C4031 0.950 . S
H4055 C4033 0.950 . S
C4056 C4057 1.349 . S
C4056 C4058 1.327 . S
C4056 H4081 0.950 . S
C4057 C4056 1.349 . S
C4057 C4073 1.349 . S
C4058 C4056 1.327 . S
C4058 C4077 1.429 . S
C4058 H4082 0.950 . S
C4059 C4076 1.574 . S
C4059 C4078 1.368 . S
C4059 H4083 0.949 . S
H4060 C4064 0.949 . S
C4061 C4062 1.349 . S
C4061 C4063 1.327 . S
C4061 H4084 0.950 . S
C4062 C4061 1.349 . S
C4062 C4074 1.349 . S
C4063 C4061 1.327 . S
C4063 C4079 1.429 . S
C4063 H4085 0.950 . S
C4064 H4060 0.949 . S
C4064 C4072 1.574 . S
C4064 C4080 1.368 . S
H4065 C4073 0.950 . S
H4066 C4071 0.950 . S
H4067 C4072 0.949 . S
H4068 C4074 0.950 . S
H4069 C4075 0.950 . S
H4070 C4076 0.949 . S
C4071 H4066 0.950 . S
C4071 C4073 1.327 . S
C4071 C4077 1.429 . S
C4072 C4064 1.574 . S
C4072 H4067 0.949 . S
C4072 C4078 1.368 . S
C4073 C4057 1.349 . S
C4073 H4065 0.950 . S
C4073 C4071 1.327 . S
C4074 C4062 1.349 . S
C4074 H4068 0.950 . S
C4074 C4075 1.327 . S
C4075 H4069 0.950 . S
C4075 C4074 1.327 . S
C4075 C4079 1.429 . S
C4076 C4059 1.574 . S
C4076 H4070 0.949 . S
C4076 C4080 1.368 . S
C4077 C4058 1.429 . S
C4077 C4071 1.429 . S
C4077 C4078 1.523 . S
C4078 C4059 1.368 . S
C4078 C4072 1.368 . S
C4078 C4077 1.523 . S
C4079 C4063 1.429 . S
C4079 C4075 1.429 . S
C4079 C4080 1.523 . S
C4080 C4064 1.368 . S
C4080 C4076 1.368 . S
C4080 C4079 1.523 . S
H4081 C4056 0.950 . S
H4082 C4058 0.950 . S
H4083 C4059 0.949 . S
H4084 C4061 0.950 . S
H4085 C4063 0.950 . S
C4086 C4087 1.349 . S
C4086 C4088 1.327 . S
C4086 H4111 0.950 . S
C4087 C4086 1.349 . S
C4087 C4103 1.349 . S
C4088 C4086 1.327 . S
C4088 C4107 1.429 . S
C4088 H4112 0.950 . S
C4089 C4106 1.574 . S
C4089 C4108 1.368 . S
C4089 H4113 0.949 . S
H4090 C4094 0.949 . S
C4091 C4092 1.349 . S
C4091 C4093 1.327 . S
C4091 H4114 0.950 . S
C4092 C4091 1.349 . S
C4092 C4104 1.349 . S
C4093 C4091 1.327 . S
C4093 C4109 1.429 . S
C4093 H4115 0.950 . S
C4094 H4090 0.949 . S
C4094 C4102 1.574 . S
C4094 C4110 1.368 . S
H4095 C4103 0.950 . S
H4096 C4101 0.950 . S
H4097 C4102 0.949 . S
H4098 C4104 0.950 . S
H4099 C4105 0.950 . S
H4100 C4106 0.949 . S
C4101 H4096 0.950 . S
C4101 C4103 1.327 . S
C4101 C4107 1.429 . S
C4102 C4094 1.574 . S
C4102 H4097 0.949 . S
C4102 C4108 1.368 . S
C4103 C4087 1.349 . S
C4103 H4095 0.950 . S
C4103 C4101 1.327 . S
C4104 C4092 1.349 . S
C4104 H4098 0.950 . S
C4104 C4105 1.327 . S
C4105 H4099 0.950 . S
C4105 C4104 1.327 . S
C4105 C4109 1.429 . S
C4106 C4089 1.574 . S
C4106 H4100 0.949 . S
C4106 C4110 1.368 . S
C4107 C4088 1.429 . S
C4107 C4101 1.429 . S
C4107 C4108 1.523 . S
C4108 C4089 1.368 . S
C4108 C4102 1.368 . S
C4108 C4107 1.523 . S
C4109 C4093 1.429 . S
C4109 C4105 1.429 . S
C4109 C4110 1.523 . S
C4110 C4094 1.368 . S
C4110 C4106 1.368 . S
C4110 C4109 1.523 . S
H4111 C4086 0.950 . S
H4112 C4088 0.950 . S
H4113 C4089 0.949 . S
H4114 C4091 0.950 . S
H4115 C4093 0.950 . S
C4116 C4117 1.349 . S
C4116 C4118 1.327 . S
C4116 H4141 0.950 . S
C4117 C4116 1.349 . S
C4117 C4133 1.349 . S
C4118 C4116 1.327 . S
C4118 C4137 1.429 . S
C4118 H4142 0.950 . S
C4119 C4136 1.574 . S
C4119 C4138 1.368 . S
C4119 H4143 0.949 . S
H4120 C4124 0.949 . S
C4121 C4122 1.349 1_655 S
C4121 C4123 1.327 . S
C4121 H4144 0.950 . S
C4122 C4121 1.349 1_455 S
C4122 C4134 1.349 . S
C4123 C4121 1.327 . S
C4123 C4139 1.429 . S
C4123 H4145 0.950 . S
C4124 H4120 0.949 . S
C4124 C4132 1.574 . S
C4124 C4140 1.368 . S
H4125 C4133 0.950 . S
H4126 C4131 0.950 . S
H4127 C4132 0.949 . S
H4128 C4134 0.950 . S
H4129 C4135 0.950 . S
H4130 C4136 0.949 . S
C4131 H4126 0.950 . S
C4131 C4133 1.327 . S
C4131 C4137 1.429 . S
C4132 C4124 1.574 . S
C4132 H4127 0.949 . S
C4132 C4138 1.368 . S
C4133 C4117 1.349 . S
C4133 H4125 0.950 . S
C4133 C4131 1.327 . S
C4134 C4122 1.349 . S
C4134 H4128 0.950 . S
C4134 C4135 1.327 . S
C4135 H4129 0.950 . S
C4135 C4134 1.327 . S
C4135 C4139 1.429 1_455 S
C4136 C4119 1.574 . S
C4136 H4130 0.949 . S
C4136 C4140 1.368 . S
C4137 C4118 1.429 . S
C4137 C4131 1.429 . S
C4137 C4138 1.523 . S
C4138 C4119 1.368 . S
C4138 C4132 1.368 . S
C4138 C4137 1.523 . S
C4139 C4123 1.429 . S
C4139 C4135 1.429 1_655 S
C4139 C4140 1.523 . S
C4140 C4124 1.368 . S
C4140 C4136 1.368 . S
C4140 C4139 1.523 . S
H4141 C4116 0.950 . S
H4142 C4118 0.950 . S
H4143 C4119 0.949 . S
H4144 C4121 0.950 . S
H4145 C4123 0.950 . S
C4146 C4147 1.349 . S
C4146 C4148 1.327 . S
C4146 H4171 0.950 . S
C4147 C4146 1.349 . S
C4147 C4163 1.349 . S
C4148 C4146 1.327 . S
C4148 C4167 1.429 . S
C4148 H4172 0.950 . S
C4149 C4166 1.574 . S
C4149 C4168 1.368 . S
C4149 H4173 0.949 . S
H4150 C4154 0.949 . S
C4151 C4152 1.349 . S
C4151 C4153 1.327 . S
C4151 H4174 0.950 . S
C4152 C4151 1.349 . S
C4152 C4164 1.349 . S
C4153 C4151 1.327 . S
C4153 C4169 1.429 . S
C4153 H4175 0.950 . S
C4154 H4150 0.949 . S
C4154 C4162 1.574 . S
C4154 C4170 1.368 . S
H4155 C4163 0.950 . S
H4156 C4161 0.950 . S
H4157 C4162 0.949 . S
H4158 C4164 0.950 . S
H4159 C4165 0.950 . S
H4160 C4166 0.949 . S
C4161 H4156 0.950 . S
C4161 C4163 1.327 . S
C4161 C4167 1.429 . S
C4162 C4154 1.574 . S
C4162 H4157 0.949 . S
C4162 C4168 1.368 . S
C4163 C4147 1.349 . S
C4163 H4155 0.950 . S
C4163 C4161 1.327 . S
C4164 C4152 1.349 . S
C4164 H4158 0.950 . S
C4164 C4165 1.327 . S
C4165 H4159 0.950 . S
C4165 C4164 1.327 . S
C4165 C4169 1.429 . S
C4166 C4149 1.574 . S
C4166 H4160 0.949 . S
C4166 C4170 1.368 . S
C4167 C4148 1.429 . S
C4167 C4161 1.429 . S
C4167 C4168 1.523 . S
C4168 C4149 1.368 . S
C4168 C4162 1.368 . S
C4168 C4167 1.523 . S
C4169 C4153 1.429 . S
C4169 C4165 1.429 . S
C4169 C4170 1.523 . S
C4170 C4154 1.368 . S
C4170 C4166 1.368 . S
C4170 C4169 1.523 . S
H4171 C4146 0.950 . S
H4172 C4148 0.950 . S
H4173 C4149 0.949 . S
H4174 C4151 0.950 . S
H4175 C4153 0.950 . S
C4176 C4177 1.349 . S
C4176 C4178 1.327 . S
C4176 H4201 0.950 . S
C4177 C4176 1.349 . S
C4177 C4193 1.349 . S
C4178 C4176 1.327 . S
C4178 C4197 1.429 . S
C4178 H4202 0.950 . S
C4179 C4196 1.574 . S
C4179 C4198 1.368 . S
C4179 H4203 0.949 . S
H4180 C4184 0.949 . S
C4181 C4182 1.349 . S
C4181 C4183 1.327 . S
C4181 H4204 0.950 . S
C4182 C4181 1.349 . S
C4182 C4194 1.349 . S
C4183 C4181 1.327 . S
C4183 C4199 1.429 . S
C4183 H4205 0.950 . S
C4184 H4180 0.949 . S
C4184 C4192 1.574 . S
C4184 C4200 1.368 . S
H4185 C4193 0.950 . S
H4186 C4191 0.950 . S
H4187 C4192 0.949 . S
H4188 C4194 0.950 . S
H4189 C4195 0.950 . S
H4190 C4196 0.949 . S
C4191 H4186 0.950 . S
C4191 C4193 1.327 . S
C4191 C4197 1.429 . S
C4192 C4184 1.574 . S
C4192 H4187 0.949 . S
C4192 C4198 1.368 . S
C4193 C4177 1.349 . S
C4193 H4185 0.950 . S
C4193 C4191 1.327 . S
C4194 C4182 1.349 . S
C4194 H4188 0.950 . S
C4194 C4195 1.327 . S
C4195 H4189 0.950 . S
C4195 C4194 1.327 . S
C4195 C4199 1.429 . S
C4196 C4179 1.574 . S
C4196 H4190 0.949 . S
C4196 C4200 1.368 . S
C4197 C4178 1.429 . S
C4197 C4191 1.429 . S
C4197 C4198 1.523 . S
C4198 C4179 1.368 . S
C4198 C4192 1.368 . S
C4198 C4197 1.523 . S
C4199 C4183 1.429 . S
C4199 C4195 1.429 . S
C4199 C4200 1.523 . S
C4200 C4184 1.368 . S
C4200 C4196 1.368 . S
C4200 C4199 1.523 . S
H4201 C4176 0.950 . S
H4202 C4178 0.950 . S
H4203 C4179 0.949 . S
H4204 C4181 0.950 . S
H4205 C4183 0.950 . S
C4206 C4207 1.349 . S
C4206 C4208 1.327 . S
C4206 H4231 0.950 . S
C4207 C4206 1.349 . S
C4207 C4223 1.349 . S
C4208 C4206 1.327 . S
C4208 C4227 1.429 . S
C4208 H4232 0.950 . S
C4209 C4226 1.574 . S
C4209 C4228 1.368 . S
C4209 H4233 0.949 . S
H4210 C4214 0.949 . S
C4211 C4212 1.349 . S
C4211 C4213 1.327 . S
C4211 H4234 0.950 . S
C4212 C4211 1.349 . S
C4212 C4224 1.349 . S
C4213 C4211 1.327 . S
C4213 C4229 1.429 . S
C4213 H4235 0.950 . S
C4214 H4210 0.949 . S
C4214 C4222 1.574 . S
C4214 C4230 1.368 . S
H4215 C4223 0.950 . S
H4216 C4221 0.950 . S
H4217 C4222 0.949 . S
H4218 C4224 0.950 . S
H4219 C4225 0.950 . S
H4220 C4226 0.949 . S
C4221 H4216 0.950 . S
C4221 C4223 1.327 . S
C4221 C4227 1.429 . S
C4222 C4214 1.574 . S
C4222 H4217 0.949 . S
C4222 C4228 1.368 . S
C4223 C4207 1.349 . S
C4223 H4215 0.950 . S
C4223 C4221 1.327 . S
C4224 C4212 1.349 . S
C4224 H4218 0.950 . S
C4224 C4225 1.327 . S
C4225 H4219 0.950 . S
C4225 C4224 1.327 . S
C4225 C4229 1.429 . S
C4226 C4209 1.574 . S
C4226 H4220 0.949 . S
C4226 C4230 1.368 . S
C4227 C4208 1.429 . S
C4227 C4221 1.429 . S
C4227 C4228 1.523 . S
C4228 C4209 1.368 . S
C4228 C4222 1.368 . S
C4228 C4227 1.523 . S
C4229 C4213 1.429 . S
C4229 C4225 1.429 . S
C4229 C4230 1.523 . S
C4230 C4214 1.368 . S
C4230 C4226 1.368 . S
C4230 C4229 1.523 . S
H4231 C4206 0.950 . S
H4232 C4208 0.950 . S
H4233 C4209 0.949 . S
H4234 C4211 0.950 . S
H4235 C4213 0.950 . S
C4236 C4237 1.349 . S
C4236 C4238 1.327 . S
C4236 H4261 0.950 . S
C4237 C4236 1.349 . S
C4237 C4253 1.349 . S
C4238 C4236 1.327 . S
C4238 C4257 1.429 . S
C4238 H4262 0.950 . S
C4239 C4256 1.574 . S
C4239 C4258 1.368 . S
C4239 H4263 0.949 . S
H4240 C4244 0.949 . S
C4241 C4242 1.349 . S
C4241 C4243 1.327 . S
C4241 H4264 0.950 . S
C4242 C4241 1.349 . S
C4242 C4254 1.349 . S
C4243 C4241 1.327 . S
C4243 C4259 1.429 . S
C4243 H4265 0.950 . S
C4244 H4240 0.949 . S
C4244 C4252 1.574 . S
C4244 C4260 1.368 . S
H4245 C4253 0.950 . S
H4246 C4251 0.950 . S
H4247 C4252 0.949 . S
H4248 C4254 0.950 1_455 S
H4249 C4255 0.950 . S
H4250 C4256 0.949 . S
C4251 H4246 0.950 . S
C4251 C4253 1.327 . S
C4251 C4257 1.429 . S
C4252 C4244 1.574 . S
C4252 H4247 0.949 . S
C4252 C4258 1.368 . S
C4253 C4237 1.349 . S
C4253 H4245 0.950 . S
C4253 C4251 1.327 . S
C4254 C4242 1.349 . S
C4254 H4248 0.950 1_655 S
C4254 C4255 1.327 . S
C4255 H4249 0.950 . S
C4255 C4254 1.327 . S
C4255 C4259 1.429 . S
C4256 C4239 1.574 . S
C4256 H4250 0.949 . S
C4256 C4260 1.368 . S
C4257 C4238 1.429 . S
C4257 C4251 1.429 . S
C4257 C4258 1.523 . S
C4258 C4239 1.368 . S
C4258 C4252 1.368 . S
C4258 C4257 1.523 . S
C4259 C4243 1.429 . S
C4259 C4255 1.429 . S
C4259 C4260 1.523 . S
C4260 C4244 1.368 . S
C4260 C4256 1.368 . S
C4260 C4259 1.523 . S
H4261 C4236 0.950 . S
H4262 C4238 0.950 . S
H4263 C4239 0.949 . S
H4264 C4241 0.950 . S
H4265 C4243 0.950 . S
C4266 C4267 1.349 . S
C4266 C4268 1.327 . S
C4266 H4291 0.950 . S
C4267 C4266 1.349 . S
C4267 C4283 1.349 . S
C4268 C4266 1.327 . S
C4268 C4287 1.429 . S
C4268 H4292 0.950 . S
C4269 C4286 1.574 . S
C4269 C4288 1.368 . S
C4269 H4293 0.949 . S
H4270 C4274 0.949 . S
C4271 C4272 1.349 . S
C4271 C4273 1.327 . S
C4271 H4294 0.950 . S
C4272 C4271 1.349 . S
C4272 C4284 1.349 . S
C4273 C4271 1.327 . S
C4273 C4289 1.429 . S
C4273 H4295 0.950 . S
C4274 H4270 0.949 . S
C4274 C4282 1.574 . S
C4274 C4290 1.368 . S
H4275 C4283 0.950 . S
H4276 C4281 0.950 . S
H4277 C4282 0.949 . S
H4278 C4284 0.950 . S
H4279 C4285 0.950 . S
H4280 C4286 0.949 . S
C4281 H4276 0.950 . S
C4281 C4283 1.327 . S
C4281 C4287 1.429 . S
C4282 C4274 1.574 . S
C4282 H4277 0.949 . S
C4282 C4288 1.368 . S
C4283 C4267 1.349 . S
C4283 H4275 0.950 . S
C4283 C4281 1.327 . S
C4284 C4272 1.349 . S
C4284 H4278 0.950 . S
C4284 C4285 1.327 . S
C4285 H4279 0.950 . S
C4285 C4284 1.327 . S
C4285 C4289 1.429 . S
C4286 C4269 1.574 . S
C4286 H4280 0.949 . S
C4286 C4290 1.368 . S
C4287 C4268 1.429 . S
C4287 C4281 1.429 . S
C4287 C4288 1.523 . S
C4288 C4269 1.368 . S
C4288 C4282 1.368 . S
C4288 C4287 1.523 . S
C4289 C4273 1.429 . S
C4289 C4285 1.429 . S
C4289 C4290 1.523 . S
C4290 C4274 1.368 . S
C4290 C4286 1.368 . S
C4290 C4289 1.523 . S
H4291 C4266 0.950 . S
H4292 C4268 0.950 . S
H4293 C4269 0.949 . S
H4294 C4271 0.950 . S
H4295 C4273 0.950 . S
C4296 C4297 1.349 . S
C4296 C4298 1.327 . S
C4296 H4321 0.950 . S
C4297 C4296 1.349 . S
C4297 C4313 1.349 . S
C4298 C4296 1.327 . S
C4298 C4317 1.429 . S
C4298 H4322 0.950 . S
C4299 C4316 1.574 . S
C4299 C4318 1.368 . S
C4299 H4323 0.949 . S
H4300 C4304 0.949 . S
C4301 C4302 1.349 . S
C4301 C4303 1.327 . S
C4301 H4324 0.950 . S
C4302 C4301 1.349 . S
C4302 C4314 1.349 . S
C4303 C4301 1.327 . S
C4303 C4319 1.429 . S
C4303 H4325 0.950 . S
C4304 H4300 0.949 . S
C4304 C4312 1.574 . S
C4304 C4320 1.368 . S
H4305 C4313 0.950 . S
H4306 C4311 0.950 . S
H4307 C4312 0.949 . S
H4308 C4314 0.950 . S
H4309 C4315 0.950 . S
H4310 C4316 0.949 . S
C4311 H4306 0.950 . S
C4311 C4313 1.327 . S
C4311 C4317 1.429 . S
C4312 C4304 1.574 . S
C4312 H4307 0.949 . S
C4312 C4318 1.368 . S
C4313 C4297 1.349 . S
C4313 H4305 0.950 . S
C4313 C4311 1.327 . S
C4314 C4302 1.349 . S
C4314 H4308 0.950 . S
C4314 C4315 1.327 . S
C4315 H4309 0.950 . S
C4315 C4314 1.327 . S
C4315 C4319 1.429 . S
C4316 C4299 1.574 . S
C4316 H4310 0.949 . S
C4316 C4320 1.368 . S
C4317 C4298 1.429 . S
C4317 C4311 1.429 . S
C4317 C4318 1.523 . S
C4318 C4299 1.368 . S
C4318 C4312 1.368 . S
C4318 C4317 1.523 . S
C4319 C4303 1.429 . S
C4319 C4315 1.429 . S
C4319 C4320 1.523 . S
C4320 C4304 1.368 . S
C4320 C4316 1.368 . S
C4320 C4319 1.523 . S
H4321 C4296 0.950 . S
H4322 C4298 0.950 . S
H4323 C4299 0.949 . S
H4324 C4301 0.950 . S
H4325 C4303 0.950 . S
C4326 C4327 1.349 . S
C4326 C4328 1.327 . S
C4326 H4351 0.950 . S
C4327 C4326 1.349 . S
C4327 C4343 1.349 . S
C4328 C4326 1.327 . S
C4328 C4347 1.429 . S
C4328 H4352 0.950 . S
C4329 C4346 1.574 . S
C4329 C4348 1.368 . S
C4329 H4353 0.949 . S
H4330 C4334 0.949 . S
C4331 C4332 1.349 . S
C4331 C4333 1.327 . S
C4331 H4354 0.950 1_565 S
C4332 C4331 1.349 . S
C4332 C4344 1.349 . S
C4333 C4331 1.327 . S
C4333 C4349 1.429 . S
C4333 H4355 0.950 . S
C4334 H4330 0.949 . S
C4334 C4342 1.574 . S
C4334 C4350 1.368 . S
H4335 C4343 0.950 . S
H4336 C4341 0.950 . S
H4337 C4342 0.949 . S
H4338 C4344 0.950 1_455 S
H4339 C4345 0.950 . S
H4340 C4346 0.949 . S
C4341 H4336 0.950 . S
C4341 C4343 1.327 . S
C4341 C4347 1.429 . S
C4342 C4334 1.574 . S
C4342 H4337 0.949 . S
C4342 C4348 1.368 . S
C4343 C4327 1.349 . S
C4343 H4335 0.950 . S
C4343 C4341 1.327 . S
C4344 C4332 1.349 . S
C4344 H4338 0.950 1_655 S
C4344 C4345 1.327 . S
C4345 H4339 0.950 . S
C4345 C4344 1.327 . S
C4345 C4349 1.429 . S
C4346 C4329 1.574 . S
C4346 H4340 0.949 . S
C4346 C4350 1.368 . S
C4347 C4328 1.429 . S
C4347 C4341 1.429 . S
C4347 C4348 1.523 . S
C4348 C4329 1.368 . S
C4348 C4342 1.368 . S
C4348 C4347 1.523 . S
C4349 C4333 1.429 . S
C4349 C4345 1.429 . S
C4349 C4350 1.523 . S
C4350 C4334 1.368 . S
C4350 C4346 1.368 . S
C4350 C4349 1.523 . S
H4351 C4326 0.950 . S
H4352 C4328 0.950 . S
H4353 C4329 0.949 . S
H4354 C4331 0.950 1_545 S
H4355 C4333 0.950 . S
C4356 C4357 1.349 . S
C4356 C4358 1.327 . S
C4356 H4381 0.950 . S
C4357 C4356 1.349 . S
C4357 C4373 1.349 . S
C4358 C4356 1.327 . S
C4358 C4377 1.429 . S
C4358 H4382 0.950 . S
C4359 C4376 1.574 . S
C4359 C4378 1.368 . S
C4359 H4383 0.949 . S
H4360 C4364 0.949 . S
C4361 C4362 1.349 . S
C4361 C4363 1.327 . S
C4361 H4384 0.950 . S
C4362 C4361 1.349 . S
C4362 C4374 1.349 . S
C4363 C4361 1.327 . S
C4363 C4379 1.429 . S
C4363 H4385 0.950 . S
C4364 H4360 0.949 . S
C4364 C4372 1.574 . S
C4364 C4380 1.368 . S
H4365 C4373 0.950 . S
H4366 C4371 0.950 . S
H4367 C4372 0.949 . S
H4368 C4374 0.950 . S
H4369 C4375 0.950 . S
H4370 C4376 0.949 . S
C4371 H4366 0.950 . S
C4371 C4373 1.327 . S
C4371 C4377 1.429 . S
C4372 C4364 1.574 . S
C4372 H4367 0.949 . S
C4372 C4378 1.368 . S
C4373 C4357 1.349 . S
C4373 H4365 0.950 . S
C4373 C4371 1.327 . S
C4374 C4362 1.349 . S
C4374 H4368 0.950 . S
C4374 C4375 1.327 . S
C4375 H4369 0.950 . S
C4375 C4374 1.327 . S
C4375 C4379 1.429 . S
C4376 C4359 1.574 . S
C4376 H4370 0.949 . S
C4376 C4380 1.368 . S
C4377 C4358 1.429 . S
C4377 C4371 1.429 . S
C4377 C4378 1.523 . S
C4378 C4359 1.368 . S
C4378 C4372 1.368 . S
C4378 C4377 1.523 . S
C4379 C4363 1.429 . S
C4379 C4375 1.429 . S
C4379 C4380 1.523 . S
C4380 C4364 1.368 . S
C4380 C4376 1.368 . S
C4380 C4379 1.523 . S
H4381 C4356 0.950 . S
H4382 C4358 0.950 . S
H4383 C4359 0.949 . S
H4384 C4361 0.950 . S
H4385 C4363 0.950 . S
C4386 C4387 1.349 . S
C4386 C4388 1.327 . S
C4386 H4411 0.950 . S
C4387 C4386 1.349 . S
C4387 C4403 1.349 . S
C4388 C4386 1.327 . S
C4388 C4407 1.429 . S
C4388 H4412 0.950 . S
C4389 C4406 1.574 . S
C4389 C4408 1.368 1_556 S
C4389 H4413 0.949 . S
H4390 C4394 0.949 . S
C4391 C4392 1.349 1_556 S
C4391 C4393 1.327 . S
C4391 H4414 0.950 . S
C4392 C4391 1.349 1_554 S
C4392 C4404 1.349 . S
C4393 C4391 1.327 . S
C4393 C4409 1.429 1_556 S
C4393 H4415 0.950 . S
C4394 H4390 0.949 . S
C4394 C4402 1.574 . S
C4394 C4410 1.368 . S
H4395 C4403 0.950 1_556 S
H4396 C4401 0.916 1_556 S
H4397 C4402 0.949 . S
H4398 C4404 0.950 . S
H4399 C4405 0.950 . S
H4400 C4406 0.949 . S
C4401 H4396 0.916 1_554 S
C4401 C4403 1.326 . S
C4401 C4407 1.465 . S
C4402 C4394 1.574 . S
C4402 H4397 0.949 . S
C4402 C4408 1.368 . S
C4403 C4387 1.349 . S
C4403 H4395 0.950 1_554 S
C4403 C4401 1.326 . S
C4404 C4392 1.349 . S
C4404 H4398 0.950 . S
C4404 C4405 1.327 . S
C4405 H4399 0.950 . S
C4405 C4404 1.327 . S
C4405 C4409 1.429 . S
C4406 C4389 1.574 . S
C4406 H4400 0.949 . S
C4406 C4410 1.368 1_556 S
C4407 C4388 1.429 . S
C4407 C4401 1.465 . S
C4407 C4408 1.523 . S
C4408 C4389 1.368 1_554 S
C4408 C4402 1.368 . S
C4408 C4407 1.523 . S
C4409 C4393 1.429 1_554 S
C4409 C4405 1.429 . S
C4409 C4410 1.523 . S
C4410 C4394 1.368 . S
C4410 C4406 1.368 1_554 S
C4410 C4409 1.523 . S
H4411 C4386 0.950 . S
H4412 C4388 0.950 . S
H4413 C4389 0.949 . S
H4414 C4391 0.950 . S
H4415 C4393 0.950 . S
C4416 C4417 1.349 . S
C4416 C4418 1.327 . S
C4416 H4441 0.950 . S
C4417 C4416 1.349 . S
C4417 C4433 1.349 . S
C4418 C4416 1.327 . S
C4418 C4437 1.429 . S
C4418 H4442 0.950 . S
C4419 C4436 1.574 . S
C4419 C4438 1.368 . S
C4419 H4443 0.949 . S
H4420 C4424 0.949 . S
C4421 C4422 1.349 . S
C4421 C4423 1.327 . S
C4421 H4444 0.950 . S
C4422 C4421 1.349 . S
C4422 C4434 1.349 . S
C4423 C4421 1.327 . S
C4423 C4439 1.429 . S
C4423 H4445 0.950 . S
C4424 H4420 0.949 . S
C4424 C4432 1.574 . S
C4424 C4440 1.368 . S
H4425 C4433 0.950 . S
H4426 C4431 0.950 . S
H4427 C4432 0.949 . S
H4428 C4434 0.950 . S
H4429 C4435 0.950 . S
H4430 C4436 0.949 . S
C4431 H4426 0.950 . S
C4431 C4433 1.327 . S
C4431 C4437 1.429 . S
C4432 C4424 1.574 . S
C4432 H4427 0.949 . S
C4432 C4438 1.368 . S
C4433 C4417 1.349 . S
C4433 H4425 0.950 . S
C4433 C4431 1.327 . S
C4434 C4422 1.349 . S
C4434 H4428 0.950 . S
C4434 C4435 1.327 . S
C4435 H4429 0.950 . S
C4435 C4434 1.327 . S
C4435 C4439 1.429 . S
C4436 C4419 1.574 . S
C4436 H4430 0.949 . S
C4436 C4440 1.368 . S
C4437 C4418 1.429 . S
C4437 C4431 1.429 . S
C4437 C4438 1.523 . S
C4438 C4419 1.368 . S
C4438 C4432 1.368 . S
C4438 C4437 1.523 . S
C4439 C4423 1.429 . S
C4439 C4435 1.429 . S
C4439 C4440 1.523 . S
C4440 C4424 1.368 . S
C4440 C4436 1.368 . S
C4440 C4439 1.523 . S
H4441 C4416 0.950 . S
H4442 C4418 0.950 . S
H4443 C4419 0.949 . S
H4444 C4421 0.950 . S
H4445 C4423 0.950 . S
C4446 C4447 1.349 . S
C4446 C4448 1.327 . S
C4446 H4471 0.950 . S
C4447 C4446 1.349 . S
C4447 C4463 1.349 . S
C4448 C4446 1.327 . S
C4448 C4467 1.429 . S
C4448 H4472 0.950 . S
C4449 C4466 1.574 . S
C4449 C4468 1.368 . S
C4449 H4473 0.949 . S
H4450 C4454 0.949 . S
C4451 C4452 1.349 . S
C4451 C4453 1.327 . S
C4451 H4474 0.950 1_554 S
C4452 C4451 1.349 . S
C4452 C4464 1.349 . S
C4453 C4451 1.327 . S
C4453 C4469 1.429 . S
C4453 H4475 0.950 1_554 S
C4454 H4450 0.949 . S
C4454 C4462 1.574 . S
C4454 C4470 1.368 . S
H4455 C4463 0.950 . S
H4456 C4461 0.950 . S
H4457 C4462 0.949 . S
H4458 C4464 0.950 . S
H4459 C4465 0.950 . S
H4460 C4466 0.994 . S
C4461 H4456 0.950 . S
C4461 C4463 1.327 . S
C4461 C4467 1.429 . S
C4462 C4454 1.574 . S
C4462 H4457 0.949 . S
C4462 C4468 1.368 . S
C4463 C4447 1.349 . S
C4463 H4455 0.950 . S
C4463 C4461 1.327 . S
C4464 C4452 1.349 . S
C4464 H4458 0.950 . S
C4464 C4465 1.327 . S
C4465 H4459 0.950 . S
C4465 C4464 1.327 . S
C4465 C4469 1.429 . S
C4466 C4449 1.574 . S
C4466 H4460 0.994 . S
C4466 C4470 1.368 . S
C4467 C4448 1.429 . S
C4467 C4461 1.429 . S
C4467 C4468 1.523 . S
C4468 C4449 1.368 . S
C4468 C4462 1.368 . S
C4468 C4467 1.523 . S
C4469 C4453 1.429 . S
C4469 C4465 1.429 . S
C4469 C4470 1.523 . S
C4470 C4454 1.368 . S
C4470 C4466 1.368 . S
C4470 C4469 1.523 . S
H4471 C4446 0.950 . S
H4472 C4448 0.950 . S
H4473 C4449 0.949 . S
H4474 C4451 0.950 1_556 S
H4475 C4453 0.950 1_556 S
C4476 C4477 1.349 . S
C4476 C4478 1.327 . S
C4476 H4501 0.950 . S
C4477 C4476 1.349 . S
C4477 C4493 1.349 . S
C4478 C4476 1.327 . S
C4478 C4497 1.429 . S
C4478 H4502 0.950 . S
C4479 C4496 1.574 . S
C4479 C4498 1.368 . S
C4479 H4503 0.949 . S
H4480 C4484 0.949 . S
C4481 C4482 1.349 . S
C4481 C4483 1.327 . S
C4481 H4504 0.950 . S
C4482 C4481 1.349 . S
C4482 C4494 1.349 . S
C4483 C4481 1.327 . S
C4483 C4499 1.429 . S
C4483 H4505 0.950 . S
C4484 H4480 0.949 . S
C4484 C4492 1.574 . S
C4484 C4500 1.368 . S
H4485 C4493 0.950 1_545 S
H4486 C4491 0.950 . S
H4487 C4492 0.949 . S
H4488 C4494 0.950 . S
H4489 C4495 0.950 . S
H4490 C4496 0.949 . S
C4491 H4486 0.950 . S
C4491 C4493 1.327 . S
C4491 C4497 1.429 . S
C4492 C4484 1.574 . S
C4492 H4487 0.949 . S
C4492 C4498 1.368 . S
C4493 C4477 1.349 . S
C4493 H4485 0.950 1_565 S
C4493 C4491 1.327 . S
C4494 C4482 1.349 . S
C4494 H4488 0.950 . S
C4494 C4495 1.327 . S
C4495 H4489 0.950 . S
C4495 C4494 1.327 . S
C4495 C4499 1.429 . S
C4496 C4479 1.574 . S
C4496 H4490 0.949 . S
C4496 C4500 1.368 . S
C4497 C4478 1.429 . S
C4497 C4491 1.429 . S
C4497 C4498 1.523 . S
C4498 C4479 1.368 . S
C4498 C4492 1.368 . S
C4498 C4497 1.523 . S
C4499 C4483 1.429 . S
C4499 C4495 1.429 . S
C4499 C4500 1.523 . S
C4500 C4484 1.368 . S
C4500 C4496 1.368 . S
C4500 C4499 1.523 . S
H4501 C4476 0.950 . S
H4502 C4478 0.950 . S
H4503 C4479 0.949 . S
H4504 C4481 0.950 . S
H4505 C4483 0.950 . S
C4506 C4507 1.349 . S
C4506 C4508 1.327 . S
C4506 H4531 0.950 . S
C4507 C4506 1.349 . S
C4507 C4523 1.349 . S
C4508 C4506 1.327 . S
C4508 C4527 1.429 . S
C4508 H4532 0.950 . S
C4509 C4526 1.574 . S
C4509 C4528 1.368 . S
C4509 H4533 0.949 . S
H4510 C4514 0.949 . S
C4511 C4512 1.349 . S
C4511 C4513 1.327 . S
C4511 H4534 0.950 . S
C4512 C4511 1.349 . S
C4512 C4524 1.349 . S
C4513 C4511 1.327 . S
C4513 C4529 1.429 . S
C4513 H4535 0.950 . S
C4514 H4510 0.949 . S
C4514 C4522 1.574 . S
C4514 C4530 1.368 . S
H4515 C4523 0.950 . S
H4516 C4521 0.950 . S
H4517 C4522 0.949 . S
H4518 C4524 0.950 . S
H4519 C4525 0.950 . S
H4520 C4526 0.949 . S
C4521 H4516 0.950 . S
C4521 C4523 1.327 . S
C4521 C4527 1.429 . S
C4522 C4514 1.574 . S
C4522 H4517 0.949 . S
C4522 C4528 1.368 . S
C4523 C4507 1.349 . S
C4523 H4515 0.950 . S
C4523 C4521 1.327 . S
C4524 C4512 1.349 . S
C4524 H4518 0.950 . S
C4524 C4525 1.327 . S
C4525 H4519 0.950 . S
C4525 C4524 1.327 . S
C4525 C4529 1.429 . S
C4526 C4509 1.574 . S
C4526 H4520 0.949 . S
C4526 C4530 1.368 . S
C4527 C4508 1.429 . S
C4527 C4521 1.429 . S
C4527 C4528 1.523 . S
C4528 C4509 1.368 . S
C4528 C4522 1.368 . S
C4528 C4527 1.523 . S
C4529 C4513 1.429 . S
C4529 C4525 1.429 . S
C4529 C4530 1.523 . S
C4530 C4514 1.368 . S
C4530 C4526 1.368 . S
C4530 C4529 1.523 . S
H4531 C4506 0.950 . S
H4532 C4508 0.950 . S
H4533 C4509 0.949 . S
H4534 C4511 0.950 . S
H4535 C4513 0.950 . S
C1657 C101 1.498 . S
C1662 C368 1.355 . S
C1687 C57 2.136 . S
C1692 C459 2.091 . S
C1717 C70 1.226 . S
C1722 C536 1.136 . S
C1752 C634 1.538 . S
C1747 C82 1.656 . S
C1777 C23 1.613 . S
C1782 C718 1.563 . S
C1812 C790 0.800 . S
C1807 C29 0.818 . S
C1842 C879 0.555 . S
C1837 C49 0.552 . S
C1867 C10 1.296 . S
C1872 C956 1.132 . S
C1902 C375 1.827 . S
C1897 C218 1.924 . S
C1927 C226 0.555 . S
C1932 C466 0.598 . S
C1962 C543 1.170 . S
C1957 C251 1.209 . S
C1992 C620 1.325 . S
C1987 C159 1.439 1_556 S
C2017 C211 1.965 . S
C2022 C704 1.783 . S
C2052 C806 1.025 . S
C2047 C225 1.101 . S
C2082 C886 0.700 . S
C2077 C252 0.687 . S
C2112 C963 1.265 . S
C2107 C166 1.378 . S
C2142 C382 1.433 . S
C2137 C147 1.524 . S
C2167 C263 1.914 . S
C2172 C1047 1.845 1_556 S
C2202 C1135 2.074 . S
C2197 C309 2.270 . S
C2232 C1208 0.592 1_655 S
C2227 C291 0.149 . S
C2257 C108 0.800 . S
C2262 C970 0.801 . S
C2287 C121 1.451 . S
C2292 C550 1.412 . S
C2317 C302 2.243 . S
C2322 C1299 2.158 . S
C2352 C1376 0.642 . S
C2347 C276 0.552 . S
C2382 C379 1.688 1_565 S
C2377 C55 1.794 . S
C2412 C1394 2.376 . S
C2407 C96 2.429 . S
C2437 C88 1.682 . S
C2442 C547 1.595 . S
C2467 C75 1.941 . S
C2472 C1294 1.775 . S
C2502 C706 1.652 . S
C2497 C4 1.747 . S
C2527 C44 1.150 . S
C2532 C1138 1.045 . S
C2562 C890 1.018 . S
C2557 C31 1.020 . S
C2592 C1471 1.423 . S
C2587 C18 1.530 . S
C2622 C386 2.171 . S
C2617 C133 2.273 . S
C2652 C1378 0.786 . S
C2647 C296 0.803 . S
C2677 C107 1.445 . S
C2682 C554 1.396 . S
C2707 C264 1.855 . S
C2712 C1303 1.747 . S
C2737 C140 2.249 . S
C2742 C715 2.110 . S
C2772 C1131 1.244 . S
C2767 C289 1.329 . S
C2797 C114 0.985 . S
C2802 C874 0.914 . S
C2827 C265 1.737 . S
C2832 C1478 1.636 . S
C2857 C179 1.691 . S
C2862 C370 1.549 . S
C2887 C161 2.232 . S
C2892 C1058 2.148 . S
C2917 C244 2.578 . S
C2922 C788 2.420 . S
C2947 C224 0.712 . S
C2952 C1219 0.718 . S
C2982 C1462 0.797 . S
C2977 C257 0.753 1_565 S
C3007 C199 1.619 . S
C3012 C538 1.519 . S
C3042 C638 2.464 . S
C3037 C237 2.564 . S
C3072 C463 0.936 . S
C3067 C185 0.973 . S
C3097 C69 1.499 . S
C3102 C1544 1.357 . S
C3132 C1383 2.091 . S
C3127 C83 2.136 . S
C3157 C94 1.228 . S
C3162 C1628 1.138 . S
C3187 C56 1.656 . S
C3192 C1306 1.538 . S
C3217 C42 1.628 . S
C3222 C1054 1.573 . S
C3252 C1126 0.801 . S
C3247 C3 0.819 . S
C3282 C1215 0.562 . S
C3277 C16 0.562 . S
C3312 C1460 1.132 . S
C3307 C36 1.296 . S
C3342 C1551 1.827 . S
C3337 C238 1.924 . S
C3367 C174 0.554 . S
C3372 C1390 0.597 . S
C3402 C1635 1.171 . S
C3397 C186 1.209 . S
C3432 C1292 1.325 . S
C3427 C198 1.438 . S
C3462 C1040 1.784 . S
C3457 C239 1.967 . S
C3487 C173 1.101 . S
C3492 C1142 1.024 . S
C3522 C1222 0.701 . S
C3517 C187 0.689 . S
C3547 C205 1.378 . S
C3552 C1467 1.265 . S
C3582 C1558 1.431 . S
C3577 C290 1.522 . S
C3607 C122 1.915 . S
C3612 C711 1.848 . S
C3642 C799 2.081 . S
C3637 C134 2.283 . S
C3672 C872 0.591 . S
C3667 C148 0.149 . S
C3702 C1474 0.798 . S
C3697 C283 0.797 . S
C3727 C270 1.450 . S
C3732 C1642 1.409 . S
C3762 C627 2.156 . S
C3757 C135 2.235 . S
C3792 C452 0.642 . S
C3787 C109 0.550 . S
C3817 C81 1.794 . S
C3822 C1555 1.688 . S
C3852 C470 2.375 . S
C3847 C68 2.428 . S
C3877 C62 1.682 . S
C3882 C1639 1.595 . S
C3907 C95 1.940 . S
C3912 C622 1.774 . S
C3937 C30 1.747 . S
C3942 C1042 1.651 . S
C3972 C802 1.036 . S
C3967 C17 1.141 . S
C3997 C5 1.021 . S
C4002 C1226 1.019 . S
C4027 C43 1.524 . S
C4032 C967 1.414 . S
C4062 C1562 2.171 . S
C4057 C304 2.272 . S
C4087 C153 0.802 . S
C4092 C454 0.785 . S
C4122 C1646 1.397 . S
C4117 C278 1.445 . S
C4147 C127 1.855 . S
C4152 C631 1.750 . S
C4177 C303 2.241 . S
C4182 C1051 2.104 . S
C4212 C795 1.241 . S
C4207 C146 1.327 . S
C4237 C277 0.982 . S
C4242 C1210 0.912 . S
C4272 C974 1.630 . S
C4267 C120 1.733 . S
C4302 C1546 1.549 . S
C4297 C231 1.691 . S
C4332 C722 2.147 1_665 S
C4327 C200 2.231 . S
C4357 C212 2.582 . S
C4362 C1124 2.424 . S
C4392 C883 0.718 . S
C4387 C172 0.711 . S
C4417 C192 0.807 . S
C4422 C958 0.796 . S
C4447 C160 1.619 . S
C4452 C1630 1.519 . S
C4482 C1310 2.466 . S
C4477 C213 2.566 1_565 S
C4512 C1387 0.938 . S
C4507 C250 0.974 . S
