# Generated by pormake.
# Topology anh, (6,3)-cn, num edge types: 1
# Building blocks:
#     Node 0, Type 0, BuildingBlock: VOLQOD_clean_sbu_1, # of connection points: 6
#     Node 1, Type 0, BuildingBlock: VOLQOD_clean_sbu_1, # of connection points: 6
#     Node 2, Type 0, BuildingBlock: VOLQOD_clean_sbu_1, # of connection points: 6
#     Node 3, Type 1, BuildingBlock: OLANEW_clean_sbu_2, # of connection points: 3
#     Node 4, Type 1, BuildingBlock: OLANEW_clean_sbu_2, # of connection points: 3
#     Node 5, Type 1, BuildingBlock: OLANEW_clean_sbu_2, # of connection points: 3
#     Node 6, Type 1, BuildingBlock: OLANEW_clean_sbu_2, # of connection points: 3
#     Node 7, Type 1, BuildingBlock: OLANEW_clean_sbu_2, # of connection points: 3
#     Node 8, Type 1, BuildingBlock: OLANEW_clean_sbu_2, # of connection points: 3
#     Edge 9, Type (0, 1), BuildingBlock: TEMPAE_clean_linker_10, # of connection points: 2
#     Edge 10, Type (0, 1), BuildingBlock: TEMPAE_clean_linker_10, # of connection points: 2
#     Edge 11, Type (0, 1), BuildingBlock: TEMPAE_clean_linker_10, # of connection points: 2
#     Edge 12, Type (0, 1), BuildingBlock: TEMPAE_clean_linker_10, # of connection points: 2
#     Edge 13, Type (0, 1), BuildingBlock: TEMPAE_clean_linker_10, # of connection points: 2
#     Edge 14, Type (0, 1), BuildingBlock: TEMPAE_clean_linker_10, # of connection points: 2
#     Edge 15, Type (0, 1), BuildingBlock: TEMPAE_clean_linker_10, # of connection points: 2
#     Edge 16, Type (0, 1), BuildingBlock: TEMPAE_clean_linker_10, # of connection points: 2
#     Edge 17, Type (0, 1), BuildingBlock: TEMPAE_clean_linker_10, # of connection points: 2
#     Edge 18, Type (0, 1), BuildingBlock: TEMPAE_clean_linker_10, # of connection points: 2
#     Edge 19, Type (0, 1), BuildingBlock: TEMPAE_clean_linker_10, # of connection points: 2
#     Edge 20, Type (0, 1), BuildingBlock: TEMPAE_clean_linker_10, # of connection points: 2
#     Edge 21, Type (0, 1), BuildingBlock: TEMPAE_clean_linker_10, # of connection points: 2
#     Edge 22, Type (0, 1), BuildingBlock: TEMPAE_clean_linker_10, # of connection points: 2
#     Edge 23, Type (0, 1), BuildingBlock: TEMPAE_clean_linker_10, # of connection points: 2
#     Edge 24, Type (0, 1), BuildingBlock: TEMPAE_clean_linker_10, # of connection points: 2
#     Edge 25, Type (0, 1), BuildingBlock: TEMPAE_clean_linker_10, # of connection points: 2
#     Edge 26, Type (0, 1), BuildingBlock: TEMPAE_clean_linker_10, # of connection points: 2
# Relax obj value: 0.157
# Max RMSD: 0.206
# Mean RMSD: 0.141
data_MOF--net-anh--node1-VOLQOD_clean_sbu_1--node2-OLANEW_clean_sbu_2--edge1-TEMPAE_clean_linker_10
_symmetry_space_group_name_H-M    P1
_symmetry_Int_Tables_number       1
_symmetry_cell_setting            triclinic
loop_
_symmetry_equiv_pos_as_xyz
'x, y, z'
_cell_length_a     32.802285
_cell_length_b     32.848746
_cell_length_c     60.612128
_cell_angle_alpha  89.702273
_cell_angle_beta   89.638617
_cell_angle_gamma 120.30456
loop_
_atom_site_label
_atom_site_type_symbol
_atom_site_fract_x
_atom_site_fract_y
_atom_site_fract_z
_atom_type_partial_charge
O0 O 0.96675 0.52208 0.20108 0.0
Zn1 Zn 0.96873 0.53757 0.16863 0.0
O2 O -0.01718 0.49656 0.15075 0.0
Zn3 Zn 0.93025 0.45769 0.13174 0.0
Zn4 Zn -0.00457 0.45659 0.17031 0.0
Zn5 Zn 0.03666 0.53406 0.13154 0.0
O6 O 0.94922 0.46138 0.09988 0.0
O7 O 0.02036 0.52543 0.09933 0.0
O8 O 0.90599 0.53111 0.16016 0.0
O9 O 0.88219 0.47816 0.1334 0.0
O10 O 0.89776 0.39062 0.1418 0.0
O11 O 0.94054 0.389 0.1697 0.0
O12 O 0.05664 0.45915 0.16182 0.0
O13 O 0.0213 0.60571 0.1651 0.0
O14 O 0.08515 0.51495 0.13585 0.0
O15 O 0.06679 0.60234 0.13868 0.0
C16 C -0.01555 0.50116 0.21165 0.0
C17 C -0.01472 0.49258 0.08934 0.0
C18 C 0.90477 0.36839 0.15716 0.0
C19 C 0.87618 0.50635 0.14547 0.0
C20 C 0.08885 0.48514 0.14791 0.0
C21 C 0.0575 0.62574 0.15243 0.0
O22 O 0.00074 0.47809 0.20185 0.0
O23 O 0.45938 0.00262 0.4422 0.0
Zn24 Zn 0.43829 -0.00568 0.474 0.0
O25 O 0.48488 -0.00925 0.49289 0.0
Zn26 Zn 0.51256 0.04326 0.5132 0.0
Zn27 Zn 0.53541 -0.00795 0.47478 0.0
Zn28 Zn 0.45337 0.93327 0.51048 0.0
O29 O 0.5059 0.0223 0.5449 0.0
O30 O 0.45541 0.94546 0.54306 0.0
O31 O 0.42924 0.04911 0.48269 0.0
O32 O 0.47911 0.07946 0.51064 0.0
O33 O 0.58092 0.08868 0.50587 0.0
O34 O 0.59714 0.05307 0.47908 0.0
O35 O 0.54344 0.93564 0.48126 0.0
O36 O 0.37557 0.93263 0.47506 0.0
O37 O 0.48651 0.89721 0.50624 0.0
O38 O 0.38628 0.89101 0.50097 0.0
C39 C 0.49133 -0.00148 0.43213 0.0
C40 C 0.48 0.9825 0.5543 0.0
C41 C 0.60963 0.08814 0.4918 0.0
C42 C 0.44804 0.07917 0.49809 0.0
C43 C 0.52066 0.90105 0.49457 0.0
C44 C 0.36043 0.89495 0.48652 0.0
O45 O 0.52098 -0.00821 0.44262 0.0
O46 O 0.43885 0.44907 0.77779 0.0
Zn47 Zn 0.42815 0.4384 0.81063 0.0
O48 O 0.48104 0.48804 0.82716 0.0
Zn49 Zn 0.45881 0.51962 0.84686 0.0
Zn50 Zn 0.5277 0.53411 0.80627 0.0
Zn51 Zn 0.50966 0.46024 0.84529 0.0
O52 O 0.47228 0.51459 0.87883 0.0
O53 O 0.50647 0.47118 0.87774 0.0
O54 O 0.36694 0.43616 0.81819 0.0
O55 O 0.38901 0.49044 0.84425 0.0
O56 O 0.4869 0.58807 0.83854 0.0
O57 O 0.53239 0.59747 0.80943 0.0
O58 O 0.59208 0.54145 0.81066 0.0
O59 O 0.42127 0.37483 0.81693 0.0
O60 O 0.57784 0.48914 0.83733 0.0
O61 O 0.47862 0.39033 0.84059 0.0
C62 C 0.47282 0.48 0.76604 0.0
C63 C 0.491 0.49374 0.88858 0.0
C64 C 0.51459 0.61373 0.82308 0.0
C65 C 0.35725 0.45879 0.83226 0.0
C66 C 0.60602 0.52055 0.82371 0.0
C67 C 0.44399 0.36128 0.82896 0.0
O68 O 0.50909 0.51395 0.77488 0.0
O69 O 0.50424 0.02585 0.25408 0.0
Cd70 Cd 0.50371 0.02482 0.21387 0.0
O71 O 0.46541 0.9486 0.25706 0.0
Cd72 Cd 0.44673 0.93651 0.22238 0.0
O73 O 0.38932 0.89391 0.20006 0.0
C74 C 0.35864 0.9052 0.19523 0.0
O75 O 0.36441 0.9456 0.20215 0.0
C76 C 0.4873 -0.01115 0.26601 0.0
C77 C 0.59357 0.09152 0.1988 0.0
O78 O 0.56178 0.10249 0.20242 0.0
O79 O 0.58249 0.04846 0.20179 0.0
O80 O 0.47509 0.46083 0.58773 0.0
Cd81 Cd 0.47477 0.46531 0.54738 0.0
O82 O 0.44 0.50249 0.59089 0.0
Cd83 Cd 0.44664 0.52079 0.55592 0.0
O84 O 0.46679 0.57244 0.52932 0.0
C85 C 0.51001 0.60392 0.52698 0.0
O86 O 0.54151 0.60149 0.53934 0.0
C87 C 0.45661 0.47889 0.59981 0.0
C88 C 0.45788 0.38094 0.52878 0.0
O89 O 0.50005 0.4151 0.53174 0.0
O90 O 0.42353 0.3869 0.53439 0.0
O91 O 0.00314 0.49442 0.91109 0.0
Cd92 Cd -0.00317 0.49169 0.87087 0.0
O93 O 0.92738 0.46878 0.91519 0.0
Cd94 Cd 0.91559 0.46839 0.87994 0.0
O95 O 0.88748 0.48395 0.8509 0.0
C96 C 0.90117 0.52685 0.84651 0.0
O97 O 0.9355 0.55983 0.85816 0.0
C98 C 0.96748 0.48208 0.9236 0.0
C99 C 0.06396 0.47355 0.85303 0.0
O100 O 0.07222 0.5159 0.85493 0.0
O101 O 0.02336 0.43968 0.85914 0.0
O102 O 0.00895 0.48798 0.38849 0.0
Cd103 Cd 0.01435 0.4926 0.42879 0.0
O104 O 0.96056 0.51596 0.38769 0.0
Cd105 Cd 0.93691 0.49042 0.42142 0.0
O106 O 0.88401 0.43029 0.44099 0.0
C107 C 0.89251 0.39996 0.44959 0.0
O108 O 0.93543 0.40659 0.44814 0.0
C109 C -0.01266 0.50444 0.37765 0.0
C110 C 0.08478 0.58248 0.44198 0.0
O111 O 0.09445 0.5503 0.43721 0.0
O112 O 0.04162 0.57219 0.44066 0.0
O113 O 0.50793 -0.01317 0.73128 0.0
Cd114 Cd 0.51232 -0.00869 0.7715 0.0
O115 O 0.43455 0.97178 0.73075 0.0
Cd116 Cd 0.43555 -0.00865 0.76512 0.0
O117 O 0.44389 0.04897 0.78588 0.0
C118 C 0.41016 0.04721 0.79708 0.0
O119 O 0.3693 0.00768 0.79783 0.0
C120 C 0.47066 0.97624 0.7206 0.0
C121 C 0.51709 0.91427 0.78771 0.0
O122 O 0.4773 0.91135 0.78393 0.0
O123 O 0.55477 0.95405 0.78426 0.0
O124 O 0.47165 0.45651 0.06593 0.0
Cd125 Cd 0.47039 0.45488 0.10634 0.0
O126 O 0.50921 0.53401 0.06487 0.0
Cd127 Cd 0.48793 0.53586 0.09883 0.0
O128 O 0.42806 0.52257 0.11983 0.0
C129 C 0.38872 0.48677 0.11483 0.0
O130 O 0.38778 0.45967 0.09873 0.0
C131 C 0.49318 0.49491 0.05494 0.0
C132 C 0.55805 0.47275 0.12138 0.0
O133 O 0.52364 0.43043 0.11926 0.0
O134 O 0.55073 0.50664 0.11682 0.0
C135 C 0.164 0.50552 0.1283 0.0
C136 C 0.13182 0.4813 0.14554 0.0
C137 C 0.20519 0.50317 0.1257 0.0
C138 C 0.2148 0.47611 0.14078 0.0
C139 C 0.18266 0.45158 0.15827 0.0
C140 C 0.14138 0.45432 0.16042 0.0
C141 C 0.23839 0.52961 0.1067 0.0
C142 C 0.19195 0.42259 0.1747 0.0
C143 C 0.30061 0.44244 0.11715 0.0
C144 C 0.34393 0.47939 0.12459 0.0
C145 C 0.25782 0.43907 0.1235 0.0
C146 C 0.25836 0.47336 0.13771 0.0
C147 C 0.30166 0.50873 0.14655 0.0
C148 C 0.34401 0.51139 0.13985 0.0
C149 C 0.2124 0.40075 0.11373 0.0
C150 C 0.30362 0.54565 0.16194 0.0
H151 H 0.15698 0.52633 0.11666 0.0
H152 H 0.11682 0.43564 0.17383 0.0
H153 H 0.27385 0.55523 0.11306 0.0
H154 H 0.24253 0.50463 0.09598 0.0
H155 H 0.22571 0.54905 0.09645 0.0
H156 H 0.16367 0.40597 0.18748 0.0
H157 H 0.19483 0.39446 0.16605 0.0
H158 H 0.22612 0.44516 0.18299 0.0
H159 H 0.30012 0.41723 0.10553 0.0
H160 H 0.37728 0.53979 0.14585 0.0
H161 H 0.19924 0.41657 0.10151 0.0
H162 H 0.18477 0.38339 0.12671 0.0
H163 H 0.21719 0.37347 0.10531 0.0
H164 H 0.29622 0.57028 0.15256 0.0
H165 H 0.33872 0.5664 0.16977 0.0
H166 H 0.27624 0.52907 0.17508 0.0
C167 C 0.68202 0.13824 0.46884 0.0
C168 C 0.65649 0.13128 0.48854 0.0
C169 C 0.72276 0.18165 0.46403 0.0
C170 C 0.73884 0.21882 0.47941 0.0
C171 C 0.71481 0.21114 0.49985 0.0
C172 C 0.67373 0.16761 0.5041 0.0
C173 C 0.74714 0.18849 0.44196 0.0
C174 C 0.73132 0.24957 0.51685 0.0
C175 C 0.86278 0.32324 0.46997 0.0
C176 C 0.8534 0.35528 0.45895 0.0
C177 C 0.82586 0.27919 0.47734 0.0
C178 C 0.77847 0.26665 0.47332 0.0
C179 C 0.76879 0.29927 0.46265 0.0
C180 C 0.80631 0.34325 0.45574 0.0
C181 C 0.83757 0.24568 0.48897 0.0
C182 C 0.71876 0.28716 0.45791 0.0
H183 H 0.66895 0.11051 0.45667 0.0
H184 H 0.65445 0.16247 0.51943 0.0
H185 H 0.74362 0.21503 0.43204 0.0
H186 H 0.78541 0.20222 0.44424 0.0
H187 H 0.73211 0.15527 0.43244 0.0
H188 H 0.71198 0.23643 0.5328 0.0
H189 H 0.76966 0.26509 0.51984 0.0
H190 H 0.72591 0.2783 0.51063 0.0
H191 H 0.89904 0.33232 0.47262 0.0
H192 H 0.79865 0.36767 0.4472 0.0
H193 H 0.82628 0.21387 0.47877 0.0
H194 H 0.818 0.23375 0.5049 0.0
H195 H 0.87595 0.26199 0.49222 0.0
H196 H 0.70179 0.25615 0.44691 0.0
H197 H 0.71715 0.31682 0.44992 0.0
H198 H 0.6977 0.27743 0.47343 0.0
C199 C 0.51138 0.68399 0.83659 0.0
C200 C 0.52279 0.66204 0.81981 0.0
C201 C 0.51401 0.72747 0.83288 0.0
C202 C 0.5276 0.74911 0.81178 0.0
C203 C 0.5408 0.72799 0.79502 0.0
C204 C 0.5386 0.6849 0.7993 0.0
C205 C 0.50055 0.74937 0.85129 0.0
C206 C 0.55501 0.74971 0.77222 0.0
C207 C 0.47958 0.82726 0.79332 0.0
C208 C 0.51942 0.87242 0.795 0.0
C209 C 0.48177 0.78692 0.79889 0.0
C210 C 0.52465 0.79188 0.80668 0.0
C211 C 0.56467 0.83743 0.80897 0.0
C212 C 0.5617 0.87719 0.80292 0.0
C213 C 0.43844 0.73892 0.79597 0.0
C214 C 0.61072 0.8441 0.81759 0.0
H215 H 0.49951 0.66674 0.85255 0.0
H216 H 0.54733 0.66814 0.78621 0.0
H217 H 0.52811 0.78693 0.85326 0.0
H218 H 0.46718 0.74841 0.84715 0.0
H219 H 0.49551 0.73069 0.86729 0.0
H220 H 0.56693 0.73038 0.76145 0.0
H221 H 0.52456 0.74966 0.76432 0.0
H222 H 0.58385 0.78697 0.77326 0.0
H223 H 0.44686 0.8233 0.78712 0.0
H224 H 0.59255 0.91204 0.80436 0.0
H225 H 0.42838 0.71925 0.81187 0.0
H226 H 0.44625 0.71811 0.78407 0.0
H227 H 0.40777 0.74116 0.78986 0.0
H228 H 0.60487 0.82609 0.83381 0.0
H229 H 0.63779 0.88191 0.81948 0.0
H230 H 0.62479 0.82779 0.80615 0.0
C231 C 0.80755 0.49379 0.12292 0.0
C232 C 0.83246 0.50842 0.14275 0.0
C233 C 0.7641 0.49172 0.12047 0.0
C234 C 0.74463 0.50384 0.13842 0.0
C235 C 0.77007 0.51972 0.15834 0.0
C236 C 0.81397 0.52222 0.16021 0.0
C237 C 0.7385 0.47541 0.09881 0.0
C238 C 0.75013 0.53241 0.17791 0.0
C239 C 0.64532 0.52679 0.12428 0.0
C240 C 0.60543 0.48211 0.12785 0.0
C241 C 0.69093 0.53492 0.12835 0.0
C242 C 0.69664 0.49764 0.13648 0.0
C243 C 0.65635 0.45309 0.14108 0.0
C244 C 0.61125 0.44575 0.13654 0.0
C245 C 0.73303 0.58274 0.12299 0.0
C246 C 0.66096 0.41264 0.15006 0.0
H247 H 0.82187 0.48349 0.10929 0.0
H248 H 0.83296 0.5333 0.17562 0.0
H249 H 0.70499 0.44155 0.10132 0.0
H250 H 0.72925 0.50147 0.09251 0.0
H251 H 0.75987 0.47026 0.08603 0.0
H252 H 0.77549 0.54676 0.19174 0.0
H253 H 0.74024 0.55885 0.17303 0.0
H254 H 0.7175 0.50061 0.1839 0.0
H255 H 0.64108 0.55504 0.11752 0.0
H256 H 0.58053 0.41125 0.13952 0.0
H257 H 0.75318 0.57961 0.10898 0.0
H258 H 0.75719 0.59621 0.13725 0.0
H259 H 0.72255 0.60899 0.11848 0.0
H260 H 0.67798 0.40149 0.13749 0.0
H261 H 0.62621 0.38168 0.15465 0.0
H262 H 0.68385 0.42393 0.16481 0.0
C263 C 0.29303 0.84885 0.46085 0.0
C264 C 0.31401 0.85299 0.48146 0.0
C265 C 0.25305 0.8064 0.45454 0.0
C266 C 0.23315 0.76738 0.46932 0.0
C267 C 0.25252 0.77228 0.49061 0.0
C268 C 0.29287 0.81485 0.49636 0.0
C269 C 0.23374 0.80253 0.43162 0.0
C270 C 0.23189 0.73184 0.50701 0.0
C271 C 0.11111 0.66232 0.45792 0.0
C272 C 0.12245 0.63007 0.44875 0.0
C273 C 0.14669 0.70721 0.46468 0.0
C274 C 0.19472 0.72037 0.46192 0.0
C275 C 0.20632 0.68818 0.45239 0.0
C276 C 0.1701 0.64338 0.44607 0.0
C277 C 0.13291 0.74031 0.47502 0.0
C278 C 0.25709 0.70099 0.44891 0.0
H279 H 0.30921 0.87802 0.44918 0.0
H280 H 0.30861 0.81784 0.51238 0.0
H281 H 0.23995 0.77767 0.42183 0.0
H282 H 0.19504 0.78811 0.43234 0.0
H283 H 0.25054 0.83707 0.42283 0.0
H284 H 0.24792 0.74278 0.52358 0.0
H285 H 0.19317 0.71675 0.50863 0.0
H286 H 0.23786 0.70338 0.50102 0.0
H287 H 0.07437 0.65227 0.4601 0.0
H288 H 0.1792 0.61882 0.43888 0.0
H289 H 0.14865 0.77385 0.46548 0.0
H290 H 0.14702 0.74909 0.492 0.0
H291 H 0.09401 0.72496 0.4758 0.0
H292 H 0.27603 0.73363 0.43875 0.0
H293 H 0.26017 0.67255 0.44063 0.0
H294 H 0.27522 0.70827 0.46502 0.0
C295 C 0.40662 0.28299 0.81042 0.0
C296 C 0.43244 0.31152 0.82811 0.0
C297 C 0.40054 0.23786 0.8078 0.0
C298 C 0.42008 0.22054 0.82346 0.0
C299 C 0.44372 0.24801 0.84206 0.0
C300 C 0.45001 0.29339 0.84407 0.0
C301 C 0.37548 0.20984 0.78761 0.0
C302 C 0.46415 0.23032 0.85935 0.0
C303 C 0.37872 0.08998 0.81918 0.0
C304 C 0.415 0.0911 0.80632 0.0
C305 C 0.38079 0.13191 0.82581 0.0
C306 C 0.41968 0.17584 0.81911 0.0
C307 C 0.45722 0.17715 0.80687 0.0
C308 C 0.45458 0.13481 0.80078 0.0
C309 C 0.34061 0.1292 0.83928 0.0
C310 C 0.49921 0.22328 0.79927 0.0
H311 H 0.39296 0.29672 0.798 0.0
H312 H 0.46957 0.31504 0.85792 0.0
H313 H 0.40088 0.20594 0.77692 0.0
H314 H 0.34715 0.17388 0.79244 0.0
H315 H 0.35964 0.22693 0.77779 0.0
H316 H 0.47593 0.25313 0.87414 0.0
H317 H 0.43775 0.19383 0.86455 0.0
H318 H 0.49494 0.22935 0.8523 0.0
H319 H 0.34817 0.05634 0.82367 0.0
H320 H 0.48284 0.13609 0.79087 0.0
H321 H 0.32069 0.14132 0.82911 0.0
H322 H 0.35442 0.15287 0.8537 0.0
H323 H 0.31575 0.09278 0.84524 0.0
H324 H 0.48734 0.24167 0.78785 0.0
H325 H 0.52632 0.21826 0.79065 0.0
H326 H 0.51591 0.24675 0.81355 0.0
C327 C 0.51924 0.83558 0.51572 0.0
C328 C 0.53219 0.86313 0.49642 0.0
C329 C 0.52356 0.79548 0.51722 0.0
C330 C 0.54111 0.78226 0.49889 0.0
C331 C 0.5567 0.81126 0.47972 0.0
C332 C 0.55215 0.85162 0.47872 0.0
C333 C 0.50715 0.76604 0.53815 0.0
C334 C 0.5758 0.79845 0.4599 0.0
C335 C 0.56731 0.68806 0.51707 0.0
C336 C 0.52284 0.64758 0.51438 0.0
C337 C 0.57587 0.7324 0.50984 0.0
C338 C 0.53912 0.73607 0.49968 0.0
C339 C 0.4962 0.69464 0.49461 0.0
C340 C 0.48853 0.65083 0.50207 0.0
C341 C 0.62245 0.77564 0.51516 0.0
C342 C 0.45641 0.69692 0.48341 0.0
H343 H 0.50448 0.84475 0.52959 0.0
H344 H 0.56216 0.87283 0.46375 0.0
H345 H 0.4761 0.73097 0.5346 0.0
H346 H 0.5354 0.76015 0.54453 0.0
H347 H 0.49706 0.7828 0.55131 0.0
H348 H 0.595 0.82881 0.44835 0.0
H349 H 0.59988 0.78567 0.46497 0.0
H350 H 0.54607 0.76945 0.45089 0.0
H351 H 0.59437 0.68581 0.52624 0.0
H352 H 0.45442 0.61956 0.4995 0.0
H353 H 0.618 0.79269 0.53001 0.0
H354 H 0.6346 0.80173 0.50142 0.0
H355 H 0.65024 0.76667 0.51859 0.0
H356 H 0.43963 0.70973 0.49531 0.0
H357 H 0.4289 0.66187 0.47737 0.0
H358 H 0.46995 0.72207 0.46929 0.0
C359 C 0.68451 0.55324 0.8044 0.0
C360 C 0.65567 0.53181 0.82302 0.0
C361 C 0.73043 0.5602 0.80323 0.0
C362 C 0.74759 0.54551 0.82113 0.0
C363 C 0.71918 0.52562 0.84027 0.0
C364 C 0.67363 0.51891 0.84093 0.0
C365 C 0.75961 0.58138 0.78254 0.0
C366 C 0.73631 0.51005 0.85993 0.0
C367 C 0.83379 0.50263 0.82092 0.0
C368 C 0.87033 0.53803 0.83329 0.0
C369 C 0.79562 0.50729 0.81409 0.0
C370 C 0.79403 0.5481 0.81998 0.0
C371 C 0.83386 0.58652 0.82972 0.0
C372 C 0.87183 0.5811 0.83621 0.0
C373 C 0.75445 0.46608 0.80308 0.0
C374 C 0.83394 0.63103 0.83584 0.0
H375 H 0.67072 0.5632 0.79048 0.0
H376 H 0.65177 0.50292 0.85549 0.0
H377 H 0.79698 0.60672 0.78654 0.0
H378 H 0.75907 0.55293 0.77253 0.0
H379 H 0.74564 0.59969 0.7723 0.0
H380 H 0.71058 0.49727 0.87389 0.0
H381 H 0.74263 0.48115 0.85506 0.0
H382 H 0.77028 0.53969 0.86581 0.0
H383 H 0.83306 0.4697 0.81811 0.0
H384 H 0.90041 0.60903 0.8454 0.0
H385 H 0.73971 0.47837 0.78993 0.0
H386 H 0.72604 0.44625 0.81549 0.0
H387 H 0.76469 0.44152 0.79578 0.0
H388 H 0.81717 0.64138 0.82284 0.0
H389 H 0.87032 0.66076 0.83861 0.0
H390 H 0.81323 0.62471 0.85132 0.0
C391 C 0.12551 0.70136 0.1386 0.0
C392 C 0.09342 0.67578 0.15566 0.0
C393 C 0.16636 0.74466 0.14272 0.0
C394 C 0.17572 0.76212 0.1645 0.0
C395 C 0.14149 0.73841 0.18137 0.0
C396 C 0.10041 0.69564 0.17668 0.0
C397 C 0.2013 0.76956 0.12414 0.0
C398 C 0.15026 0.7557 0.20485 0.0
C399 C 0.30276 0.8231 0.18319 0.0
C400 C 0.31371 0.87008 0.18498 0.0
C401 C 0.25823 0.78795 0.17616 0.0
C402 C 0.22395 0.80014 0.17038 0.0
C403 C 0.23544 0.84782 0.1711 0.0
C404 C 0.28014 0.88226 0.17861 0.0
C405 C 0.24734 0.73742 0.17571 0.0
C406 C 0.20015 0.86222 0.16455 0.0
H407 H 0.11988 0.68637 0.12224 0.0
H408 H 0.07574 0.67596 0.18992 0.0
H409 H 0.21582 0.80821 0.12485 0.0
H410 H 0.2313 0.76319 0.12576 0.0
H411 H 0.18507 0.75674 0.10773 0.0
H412 H 0.11791 0.73702 0.21531 0.0
H413 H 0.17789 0.74983 0.2121 0.0
H414 H 0.16339 0.79409 0.20538 0.0
H415 H 0.32843 0.81332 0.18808 0.0
H416 H 0.28846 0.91856 0.17983 0.0
H417 H 0.23634 0.72278 0.15894 0.0
H418 H 0.21752 0.71552 0.18716 0.0
H419 H 0.27809 0.73397 0.18054 0.0
H420 H 0.18476 0.84721 0.14827 0.0
H421 H 0.21625 0.90115 0.16368 0.0
H422 H 0.17067 0.848 0.17673 0.0
C423 C 0.42397 0.13519 0.48312 0.0
C424 C 0.43636 0.11674 0.50108 0.0
C425 C 0.42109 0.17628 0.48539 0.0
C426 C 0.43032 0.19877 0.50614 0.0
C427 C 0.43953 0.17824 0.52462 0.0
C428 C 0.44268 0.13767 0.52182 0.0
C429 C 0.41114 0.19715 0.46534 0.0
C430 C 0.44886 0.20063 0.54712 0.0
C431 C 0.48713 0.33084 0.51223 0.0
C432 C 0.4493 0.33522 0.52017 0.0
C433 C 0.48066 0.28683 0.50623 0.0
C434 C 0.43533 0.24612 0.50839 0.0
C435 C 0.39649 0.25062 0.51527 0.0
C436 C 0.40392 0.29521 0.52104 0.0
C437 C 0.52295 0.2836 0.49876 0.0
C438 C 0.34766 0.20805 0.51777 0.0
H439 H 0.41918 0.11915 0.46704 0.0
H440 H 0.45165 0.12311 0.53582 0.0
H441 H 0.38473 0.20772 0.4693 0.0
H442 H 0.44405 0.2294 0.45998 0.0
H443 H 0.39803 0.17213 0.45135 0.0
H444 H 0.451 0.17786 0.56013 0.0
H445 H 0.48272 0.2347 0.54671 0.0
H446 H 0.42062 0.20824 0.55176 0.0
H447 H 0.52219 0.36167 0.51127 0.0
H448 H 0.37445 0.29835 0.52706 0.0
H449 H 0.51486 0.26283 0.48339 0.0
H450 H 0.53171 0.26504 0.51157 0.0
H451 H 0.55456 0.31888 0.49575 0.0
H452 H 0.33851 0.18524 0.50305 0.0
H453 H 0.32029 0.21807 0.52024 0.0
H454 H 0.34678 0.18674 0.53222 0.0
C455 C 0.29448 0.46291 0.85355 0.0
C456 C 0.30879 0.45056 0.83411 0.0
C457 C 0.25091 0.46087 0.85494 0.0
C458 C 0.22119 0.44673 0.83632 0.0
C459 C 0.23447 0.43229 0.81693 0.0
C460 C 0.27815 0.43407 0.8161 0.0
C461 C 0.23765 0.47581 0.87607 0.0
C462 C 0.20375 0.41732 0.79673 0.0
C463 C 0.09692 0.42002 0.84906 0.0
C464 C 0.10144 0.46436 0.84551 0.0
C465 C 0.13492 0.4128 0.84494 0.0
C466 C 0.17812 0.45072 0.83689 0.0
C467 C 0.18179 0.49459 0.83187 0.0
C468 C 0.14344 0.50097 0.83637 0.0
C469 C 0.12979 0.3656 0.85057 0.0
C470 C 0.22713 0.53569 0.82297 0.0
H471 H 0.31787 0.47516 0.8676 0.0
H472 H 0.28921 0.42466 0.80102 0.0
H473 H 0.23688 0.50877 0.87311 0.0
H474 H 0.20179 0.44844 0.88164 0.0
H475 H 0.2629 0.48212 0.88956 0.0
H476 H 0.21646 0.40213 0.78394 0.0
H477 H 0.16673 0.39093 0.8012 0.0
H478 H 0.20355 0.44832 0.7895 0.0
H479 H 0.06446 0.39153 0.85608 0.0
H480 H 0.14694 0.53515 0.83335 0.0
H481 H 0.15053 0.36905 0.86555 0.0
H482 H 0.144 0.3536 0.83703 0.0
H483 H 0.09241 0.33813 0.85379 0.0
H484 H 0.25442 0.54864 0.83597 0.0
H485 H 0.22248 0.56544 0.81752 0.0
H486 H 0.24068 0.5245 0.80883 0.0
C487 C 0.8598 0.30124 0.18357 0.0
C488 C 0.86698 0.31945 0.16202 0.0
C489 C 0.81796 0.25964 0.18944 0.0
C490 C 0.78296 0.23562 0.17328 0.0
C491 C 0.79201 0.2516 0.1511 0.0
C492 C 0.83382 0.29347 0.14576 0.0
C493 C 0.80961 0.2437 0.21327 0.0
C494 C 0.75598 0.2266 0.1333 0.0
C495 C 0.67593 0.11553 0.18647 0.0
C496 C 0.64197 0.12791 0.19197 0.0
C497 C 0.72216 0.15014 0.1804 0.0
C498 C 0.73466 0.19815 0.18001 0.0
C499 C 0.70055 0.21079 0.18562 0.0
C500 C 0.65464 0.17553 0.19144 0.0
C501 C 0.75751 0.13539 0.17432 0.0
C502 C 0.71251 0.26166 0.18546 0.0
H503 H 0.88527 0.32117 0.19622 0.0
H504 H 0.83946 0.30709 0.129 0.0
H505 H 0.78332 0.25148 0.22071 0.0
H506 H 0.79495 0.20507 0.21456 0.0
H507 H 0.84252 0.26182 0.22305 0.0
H508 H 0.77112 0.23921 0.11652 0.0
H509 H 0.74155 0.18798 0.13432 0.0
H510 H 0.72604 0.2329 0.13567 0.0
H511 H 0.66638 0.07877 0.18684 0.0
H512 H 0.62871 0.18543 0.19576 0.0
H513 H 0.78865 0.15297 0.18522 0.0
H514 H 0.77036 0.14677 0.15716 0.0
H515 H 0.74232 0.09663 0.17565 0.0
H516 H 0.74257 0.28267 0.1966 0.0
H517 H 0.68222 0.26562 0.19076 0.0
H518 H 0.72361 0.27687 0.16862 0.0
C519 C 0.96049 0.44784 0.05413 0.0
C520 C -0.01393 0.49097 0.06502 0.0
C521 C 0.95999 0.44589 0.03102 0.0
C522 C -0.01542 0.48823 0.01856 0.0
C523 C 0.01074 0.53186 0.02949 0.0
C524 C 0.01168 0.53262 0.05262 0.0
C525 C 0.93262 0.39861 0.01994 0.0
C526 C 0.03645 0.57783 0.01677 0.0
C527 C 0.01051 0.48314 0.95776 0.0
C528 C 0.97241 0.4839 0.94784 0.0
C529 C 0.01482 0.48415 0.98082 0.0
C530 C -0.01921 0.48707 -0.00586 0.0
C531 C 0.94268 0.48858 0.98417 0.0
C532 C 0.93867 0.48645 0.96115 0.0
C533 C 0.05537 0.4815 -0.00907 0.0
C534 C 0.9062 0.49266 -0.00219 0.0
H535 H 0.94106 0.41553 0.0637 0.0
H536 H 0.03128 0.56604 0.06103 0.0
H537 H 0.90264 0.39673 0.01071 0.0
H538 H 0.95554 0.39415 0.00781 0.0
H539 H 0.91847 0.36881 0.03196 0.0
H540 H 0.05614 0.60859 0.02774 0.0
H541 H 0.06168 0.57689 0.00481 0.0
H542 H 0.01077 0.58307 0.00714 0.0
H543 H 0.03652 0.48092 0.94752 0.0
H544 H 0.90937 0.48747 0.95355 0.0
H545 H 0.04155 0.45044 0.00216 0.0
H546 H 0.0771 0.51323 0.00101 0.0
H547 H 0.07849 0.47876 0.97827 0.0
H548 H 0.88741 0.46158 0.00894 0.0
H549 H 0.8797 0.49511 0.98744 0.0
H550 H 0.92374 0.52436 0.00836 0.0
C551 C 0.53086 0.00052 0.39635 0.0
C552 C 0.49354 0.00071 0.40771 0.0
C553 C 0.53253 0.00088 0.37322 0.0
C554 C 0.4959 0.00121 0.36118 0.0
C555 C 0.45857 0.00224 0.3725 0.0
C556 C 0.45789 0.0021 0.39563 0.0
C557 C 0.57302 1e-05 0.36167 0.0
C558 C 0.41879 0.00245 0.36018 0.0
C559 C 0.51467 0.03645 0.30058 0.0
C560 C 0.49146 -0.00769 0.29033 0.0
C561 C 0.51694 0.03995 0.32366 0.0
C562 C 0.49543 -0.00166 0.33674 0.0
C563 C 0.47258 0.95373 0.3265 0.0
C564 C 0.47092 0.95125 0.30343 0.0
C565 C 0.54178 0.08812 0.33406 0.0
C566 C 0.44924 0.90856 0.33993 0.0
H567 H 0.55873 -0.00026 0.40551 0.0
H568 H 0.42892 0.00227 0.40425 0.0
H569 H 0.55946 0.96701 0.35212 0.0
H570 H 0.59048 0.02985 0.34976 0.0
H571 H 0.59989 0.00215 0.37342 0.0
H572 H 0.39335 0.00507 0.37142 0.0
H573 H 0.43314 0.03246 0.34832 0.0
H574 H 0.39939 0.96963 0.35049 0.0
H575 H 0.53069 0.06835 0.29059 0.0
H576 H 0.45295 0.91699 0.29568 0.0
H577 H 0.56983 0.09122 0.34524 0.0
H578 H 0.51634 0.09299 0.34422 0.0
H579 H 0.55797 0.11699 0.32156 0.0
H580 H 0.4753 0.90735 0.35108 0.0
H581 H 0.4337 0.8767 0.32941 0.0
H582 H 0.42081 0.90728 0.35046 0.0
C583 C 0.43081 0.43926 0.73141 0.0
C584 C 0.47002 0.47672 0.74162 0.0
C585 C 0.42735 0.43642 0.70832 0.0
C586 C 0.46389 0.4719 0.69513 0.0
C587 C 0.50383 0.5094 0.7053 0.0
C588 C 0.50643 0.51134 0.7284 0.0
C589 C 0.38425 0.39585 0.69806 0.0
C590 C 0.54351 0.54797 0.69178 0.0
C591 C 0.47622 0.45047 0.63449 0.0
C592 C 0.45605 0.4744 0.62419 0.0
C593 C 0.47819 0.44851 0.6576 0.0
C594 C 0.45959 0.47104 0.67069 0.0
C595 C 0.43829 0.49433 0.66042 0.0
C596 C 0.43674 0.4957 0.63733 0.0
C597 C 0.50103 0.42319 0.668 0.0
C598 C 0.41804 0.51876 0.67382 0.0
H599 H 0.40255 0.41222 0.74144 0.0
H600 H 0.53693 0.54038 0.73608 0.0
H601 H 0.36472 0.40943 0.68857 0.0
H602 H 0.39498 0.37716 0.68627 0.0
H603 H 0.35992 0.37008 0.71058 0.0
H604 H 0.57284 0.57381 0.7022 0.0
H605 H 0.5578 0.53249 0.67998 0.0
H606 H 0.5299 0.56709 0.68195 0.0
H607 H 0.49116 0.43385 0.6245 0.0
H608 H 0.42097 0.51418 0.62957 0.0
H609 H 0.47637 0.39629 0.68002 0.0
H610 H 0.53277 0.44865 0.67725 0.0
H611 H 0.51178 0.40558 0.65556 0.0
H612 H 0.39138 0.49361 0.68579 0.0
H613 H 0.40117 0.53385 0.66333 0.0
H614 H 0.44645 0.54766 0.68346 0.0
C615 C 0.45546 0.93519 0.58945 0.0
C616 C 0.47843 0.97928 0.57872 0.0
C617 C 0.45363 0.93175 0.61257 0.0
C618 C 0.47494 0.97338 0.62525 0.0
C619 C 0.49825 0.01796 0.61454 0.0
C620 C 0.49987 0.02037 0.59142 0.0
C621 C 0.42876 0.8836 0.62343 0.0
C622 C 0.52111 0.06316 0.62752 0.0
C623 C 0.43325 0.97049 0.68405 0.0
C624 C 0.47009 0.97183 0.69628 0.0
C625 C 0.43397 0.97011 0.66092 0.0
C626 C 0.47219 0.97055 0.64974 0.0
C627 C 0.50871 0.97032 0.66196 0.0
C628 C 0.50736 0.97123 0.6851 0.0
C629 C 0.39454 0.97069 0.64844 0.0
C630 C 0.54974 0.97021 0.65058 0.0
H631 H 0.43899 0.90323 0.57979 0.0
H632 H 0.5176 0.05459 0.58331 0.0
H633 H 0.45332 0.87976 0.63459 0.0
H634 H 0.39879 0.87955 0.63369 0.0
H635 H 0.41503 0.85466 0.61121 0.0
H636 H 0.53805 0.09497 0.61669 0.0
H637 H 0.49427 0.06488 0.63808 0.0
H638 H 0.54828 0.06401 0.63862 0.0
H639 H 0.40436 0.97106 0.69254 0.0
H640 H 0.53582 0.97199 0.69442 0.0
H641 H 0.37834 0.94078 0.6368 0.0
H642 H 0.40896 0.00363 0.6385 0.0
H643 H 0.36649 0.96848 0.6596 0.0
H644 H 0.53665 0.94053 0.63883 0.0
H645 H 0.57372 0.96712 0.66246 0.0
H646 H 0.57041 0.00329 0.64088 0.0
C647 C 0.46636 0.50777 0.92559 0.0
C648 C 0.49408 0.495 0.91297 0.0
C649 C 0.46776 0.50769 0.94873 0.0
C650 C 0.49817 0.49526 0.95951 0.0
C651 C 0.52683 0.4831 0.94688 0.0
C652 C 0.52417 0.48275 0.92376 0.0
C653 C 0.43619 0.52029 0.96164 0.0
C654 C 0.56022 0.47036 0.95778 0.0
C655 C 0.52811 0.53541 0.01885 0.0
C656 C 0.49712 0.49416 0.03061 0.0
C657 C 0.52986 0.53592 -0.0043 0.0
C658 C 0.49934 0.49439 0.98403 0.0
C659 C 0.4686 0.45242 -0.00419 0.0
C660 C 0.46813 0.45272 0.01896 0.0
C661 C 0.56369 0.58113 0.98371 0.0
C662 C 0.43515 0.40757 0.98395 0.0
H663 H 0.44282 0.51703 0.9174 0.0
H664 H 0.54594 0.47314 0.91412 0.0
H665 H 0.41222 0.49041 0.97261 0.0
H666 H 0.45781 0.55099 0.97233 0.0
H667 H 0.41445 0.52898 0.95076 0.0
H668 H 0.58121 0.46321 0.94559 0.0
H669 H 0.58485 0.49944 0.96862 0.0
H670 H 0.54004 0.43861 0.96839 0.0
H671 H 0.55083 0.56749 0.02775 0.0
H672 H 0.44394 0.42076 0.02792 0.0
H673 H 0.5436 0.59371 0.97397 0.0
H674 H 0.58591 0.57484 0.97193 0.0
H675 H 0.58716 0.60948 -0.0048 0.0
H676 H 0.41018 0.41327 0.97397 0.0
H677 H 0.41446 0.3776 -0.00448 0.0
H678 H 0.45504 0.39772 0.9724 0.0
C679 C 0.94545 0.49205 0.24814 0.0
C680 C -0.01374 0.50381 0.23587 0.0
C681 C 0.94632 0.49277 0.2713 0.0
C682 C -0.01048 0.50757 0.2823 0.0
C683 C 0.03116 0.5209 0.26985 0.0
C684 C 0.02879 0.51785 0.24675 0.0
C685 C 0.90083 0.47659 0.28398 0.0
C686 C 0.07819 0.53855 0.28091 0.0
C687 C -0.00554 0.54563 0.34187 0.0
C688 C -0.0097 0.50663 0.35337 0.0
C689 C -0.00413 0.54715 0.31868 0.0
C690 C -0.00919 0.50778 0.30685 0.0
C691 C -0.01389 0.46811 0.31849 0.0
C692 C -0.01308 0.46846 0.34163 0.0
C693 C 0.00281 0.59081 0.30687 0.0
C694 C -0.02112 0.42476 0.30654 0.0
H695 H 0.91256 0.48092 0.23961 0.0
H696 H 0.06038 0.52732 0.23713 0.0
H697 H 0.89394 0.44685 0.29514 0.0
H698 H 0.90378 0.50552 0.29445 0.0
H699 H 0.87008 0.46497 0.27293 0.0
H700 H 0.10771 0.55071 0.26879 0.0
H701 H 0.08555 0.5682 0.29202 0.0
H702 H 0.07726 0.51014 0.29124 0.0
H703 H -0.00274 0.5752 0.35102 0.0
H704 H -0.01687 0.43807 0.3506 0.0
H705 H 0.971 0.5823 0.29715 0.0
H706 H 0.03296 0.60383 0.29509 0.0
H707 H 0.0096 0.61959 0.31848 0.0
H708 H 0.94709 0.41084 0.29603 0.0
H709 H 0.97446 0.39637 0.31807 0.0
H710 H 0.00942 0.4339 0.29547 0.0
loop_
_geom_bond_atom_site_label_1
_geom_bond_atom_site_label_2
_geom_bond_distance
_geom_bond_site_symmetry_2
_ccdc_geom_bond_type
O0 Zn1 1.953 . S
O0 C16 1.225 1_655 S
Zn1 O0 1.953 . S
Zn1 O2 1.949 1_655 S
Zn1 O8 1.919 . S
Zn1 O13 1.924 1_655 S
O2 Zn1 1.949 1_455 S
O2 Zn3 1.923 1_455 S
O2 Zn4 1.950 . S
O2 Zn5 1.945 . S
Zn3 O2 1.923 1_655 S
Zn3 O6 1.933 . S
Zn3 O9 1.941 . S
Zn3 O10 1.965 . S
Zn4 O2 1.950 . S
Zn4 O11 1.938 1_455 S
Zn4 O12 1.906 . S
Zn4 O22 1.953 . S
Zn5 O2 1.945 . S
Zn5 O7 1.932 . S
Zn5 O14 1.977 . S
Zn5 O15 1.910 . S
O6 Zn3 1.933 . S
O6 C17 1.226 1_655 S
O7 Zn5 1.932 . S
O7 C17 1.307 . S
O8 Zn1 1.919 . S
O8 C19 1.253 . S
O9 Zn3 1.941 . S
O9 C19 1.283 . S
O10 Zn3 1.965 . S
O10 C18 1.303 . S
O11 Zn4 1.938 1_655 S
O11 C18 1.247 . S
O12 Zn4 1.906 . S
O12 C20 1.304 . S
O13 Zn1 1.924 1_455 S
O13 C21 1.311 . S
O14 Zn5 1.977 . S
O14 C20 1.272 . S
O15 Zn5 1.910 . S
O15 C21 1.231 . S
C16 O0 1.225 1_455 S
C16 O22 1.298 . S
C17 O6 1.226 1_455 S
C17 O7 1.307 . S
C18 O10 1.303 . S
C18 O11 1.247 . S
C19 O8 1.253 . S
C19 O9 1.283 . S
C20 O12 1.304 . S
C20 O14 1.272 . S
C21 O13 1.311 . S
C21 O15 1.231 . S
O22 Zn4 1.953 . S
O22 C16 1.298 . S
O23 Zn24 1.953 . S
O23 C39 1.225 . S
Zn24 O23 1.953 . S
Zn24 O25 1.949 . S
Zn24 O31 1.919 . S
Zn24 O36 1.924 1_545 S
O25 Zn24 1.949 . S
O25 Zn26 1.923 . S
O25 Zn27 1.950 1_545 S
O25 Zn28 1.945 1_545 S
Zn26 O25 1.923 . S
Zn26 O29 1.933 . S
Zn26 O32 1.941 . S
Zn26 O33 1.965 . S
Zn27 O25 1.950 1_565 S
Zn27 O34 1.938 1_565 S
Zn27 O35 1.906 . S
Zn27 O45 1.953 . S
Zn28 O25 1.945 1_565 S
Zn28 O30 1.932 . S
Zn28 O37 1.977 . S
Zn28 O38 1.910 . S
O29 Zn26 1.933 . S
O29 C40 1.226 . S
O30 Zn28 1.932 . S
O30 C40 1.307 1_565 S
O31 Zn24 1.919 . S
O31 C42 1.253 . S
O32 Zn26 1.941 . S
O32 C42 1.283 . S
O33 Zn26 1.965 . S
O33 C41 1.303 . S
O34 Zn27 1.938 1_545 S
O34 C41 1.247 . S
O35 Zn27 1.906 . S
O35 C43 1.304 . S
O36 Zn24 1.924 1_565 S
O36 C44 1.311 . S
O37 Zn28 1.977 . S
O37 C43 1.272 . S
O38 Zn28 1.910 . S
O38 C44 1.231 . S
C39 O23 1.225 . S
C39 O45 1.298 1_545 S
C40 O29 1.226 . S
C40 O30 1.307 1_545 S
C41 O33 1.303 . S
C41 O34 1.247 . S
C42 O31 1.253 . S
C42 O32 1.283 . S
C43 O35 1.304 . S
C43 O37 1.272 . S
C44 O36 1.311 . S
C44 O38 1.231 . S
O45 Zn27 1.953 . S
O45 C39 1.298 1_565 S
O46 Zn47 1.953 . S
O46 C62 1.225 . S
Zn47 O46 1.953 . S
Zn47 O48 1.949 . S
Zn47 O54 1.919 . S
Zn47 O59 1.924 . S
O48 Zn47 1.949 . S
O48 Zn49 1.923 . S
O48 Zn50 1.950 . S
O48 Zn51 1.945 . S
Zn49 O48 1.923 . S
Zn49 O52 1.933 . S
Zn49 O55 1.941 . S
Zn49 O56 1.965 . S
Zn50 O48 1.950 . S
Zn50 O57 1.938 . S
Zn50 O58 1.906 . S
Zn50 O68 1.953 . S
Zn51 O48 1.945 . S
Zn51 O53 1.932 . S
Zn51 O60 1.977 . S
Zn51 O61 1.910 . S
O52 Zn49 1.933 . S
O52 C63 1.226 . S
O53 Zn51 1.932 . S
O53 C63 1.307 . S
O54 Zn47 1.919 . S
O54 C65 1.253 . S
O55 Zn49 1.941 . S
O55 C65 1.283 . S
O56 Zn49 1.965 . S
O56 C64 1.303 . S
O57 Zn50 1.938 . S
O57 C64 1.247 . S
O58 Zn50 1.906 . S
O58 C66 1.304 . S
O59 Zn47 1.924 . S
O59 C67 1.311 . S
O60 Zn51 1.977 . S
O60 C66 1.272 . S
O61 Zn51 1.910 . S
O61 C67 1.231 . S
C62 O46 1.225 . S
C62 O68 1.298 . S
C63 O52 1.226 . S
C63 O53 1.307 . S
C64 O56 1.303 . S
C64 O57 1.247 . S
C65 O54 1.253 . S
C65 O55 1.283 . S
C66 O58 1.304 . S
C66 O60 1.272 . S
C67 O59 1.311 . S
C67 O61 1.231 . S
O68 Zn50 1.953 . S
O68 C62 1.298 . S
O69 Cd70 2.300 . S
O69 C76 1.275 . S
Cd70 O69 2.300 . S
Cd70 O78 2.381 . S
Cd70 O79 2.378 . S
O71 Cd72 2.385 . S
O71 C76 1.255 1_565 S
Cd72 O71 2.385 . S
Cd72 O73 2.317 . S
O73 Cd72 2.317 . S
O73 C74 1.232 . S
C74 O73 1.232 . S
C74 O75 1.218 . S
O75 C74 1.218 . S
C76 O69 1.275 . S
C76 O71 1.255 1_545 S
C77 O78 1.258 . S
C77 O79 1.256 . S
O78 Cd70 2.381 . S
O78 C77 1.258 . S
O79 Cd70 2.378 . S
O79 C77 1.256 . S
O80 Cd81 2.300 . S
O80 C87 1.275 . S
Cd81 O80 2.300 . S
Cd81 O89 2.381 . S
Cd81 O90 2.378 . S
O82 Cd83 2.385 . S
O82 C87 1.255 . S
Cd83 O82 2.385 . S
Cd83 O84 2.317 . S
O84 Cd83 2.317 . S
O84 C85 1.232 . S
C85 O84 1.232 . S
C85 O86 1.218 . S
O86 C85 1.218 . S
C87 O80 1.275 . S
C87 O82 1.255 . S
C88 O89 1.258 . S
C88 O90 1.256 . S
O89 Cd81 2.381 . S
O89 C88 1.258 . S
O90 Cd81 2.378 . S
O90 C88 1.256 . S
O91 Cd92 2.300 . S
O91 C98 1.275 . S
Cd92 O91 2.300 . S
Cd92 O100 2.381 . S
Cd92 O101 2.378 . S
O93 Cd94 2.385 . S
O93 C98 1.255 1_655 S
Cd94 O93 2.385 . S
Cd94 O95 2.317 . S
O95 Cd94 2.317 . S
O95 C96 1.232 . S
C96 O95 1.232 . S
C96 O97 1.218 . S
O97 C96 1.218 . S
C98 O91 1.275 . S
C98 O93 1.255 1_455 S
C99 O100 1.258 . S
C99 O101 1.256 . S
O100 Cd92 2.381 . S
O100 C99 1.258 . S
O101 Cd92 2.378 . S
O101 C99 1.256 . S
O102 Cd103 2.300 . S
O102 C109 1.275 1_455 S
Cd103 O102 2.300 . S
Cd103 O111 2.381 . S
Cd103 O112 2.378 . S
O104 Cd105 2.385 . S
O104 C109 1.255 . S
Cd105 O104 2.385 . S
Cd105 O106 2.317 . S
O106 Cd105 2.317 . S
O106 C107 1.232 . S
C107 O106 1.232 . S
C107 O108 1.218 . S
O108 C107 1.218 . S
C109 O102 1.275 1_655 S
C109 O104 1.255 . S
C110 O111 1.258 . S
C110 O112 1.256 . S
O111 Cd103 2.381 . S
O111 C110 1.258 . S
O112 Cd103 2.378 . S
O112 C110 1.256 . S
O113 Cd114 2.300 . S
O113 C120 1.275 1_565 S
Cd114 O113 2.300 . S
Cd114 O122 2.381 . S
Cd114 O123 2.378 . S
O115 Cd116 2.385 . S
O115 C120 1.255 . S
Cd116 O115 2.385 . S
Cd116 O117 2.317 . S
O117 Cd116 2.317 . S
O117 C118 1.232 . S
C118 O117 1.232 . S
C118 O119 1.218 . S
O119 C118 1.218 . S
C120 O113 1.275 1_545 S
C120 O115 1.255 . S
C121 O122 1.258 . S
C121 O123 1.256 . S
O122 Cd114 2.381 . S
O122 C121 1.258 . S
O123 Cd114 2.378 . S
O123 C121 1.256 . S
O124 Cd125 2.300 . S
O124 C131 1.275 . S
Cd125 O124 2.300 . S
Cd125 O133 2.381 . S
Cd125 O134 2.378 . S
O126 Cd127 2.385 . S
O126 C131 1.255 . S
Cd127 O126 2.385 . S
Cd127 O128 2.317 . S
O128 Cd127 2.317 . S
O128 C129 1.232 . S
C129 O128 1.232 . S
C129 O130 1.218 . S
O130 C129 1.218 . S
C131 O124 1.275 . S
C131 O126 1.255 . S
C132 O133 1.258 . S
C132 O134 1.256 . S
O133 Cd125 2.381 . S
O133 C132 1.258 . S
O134 Cd125 2.378 . S
O134 C132 1.256 . S
C135 C136 1.391 . S
C135 C137 1.394 . S
C135 H151 0.931 . S
C136 C135 1.391 . S
C136 C140 1.376 . S
C137 C135 1.394 . S
C137 C138 1.369 . S
C137 C141 1.531 . S
C138 C137 1.369 . S
C138 C139 1.410 . S
C138 C146 1.503 . S
C139 C138 1.410 . S
C139 C140 1.392 . S
C139 C142 1.511 . S
C140 C136 1.376 . S
C140 C139 1.392 . S
C140 H152 0.929 . S
C141 C137 1.531 . S
C141 H153 0.960 . S
C141 H154 0.962 . S
C141 H155 0.960 . S
C142 C139 1.511 . S
C142 H156 0.961 . S
C142 H157 0.961 . S
C142 H158 0.961 . S
C143 C144 1.370 . S
C143 C145 1.363 . S
C143 H159 0.931 . S
C144 C143 1.370 . S
C144 C148 1.408 . S
C145 C143 1.363 . S
C145 C146 1.370 . S
C145 C149 1.524 . S
C146 C138 1.503 . S
C146 C145 1.370 . S
C146 C147 1.403 . S
C147 C146 1.403 . S
C147 C148 1.404 . S
C147 C150 1.539 . S
C148 C144 1.408 . S
C148 C147 1.404 . S
C148 H160 0.930 . S
C149 C145 1.524 . S
C149 H161 0.956 . S
C149 H162 0.961 . S
C149 H163 0.961 . S
C150 C147 1.539 . S
C150 H164 0.958 . S
C150 H165 0.961 . S
C150 H166 0.960 . S
H151 C135 0.931 . S
H152 C140 0.929 . S
H153 C141 0.960 . S
H154 C141 0.962 . S
H155 C141 0.960 . S
H156 C142 0.961 . S
H157 C142 0.961 . S
H158 C142 0.961 . S
H159 C143 0.931 . S
H160 C148 0.930 . S
H161 C149 0.956 . S
H162 C149 0.961 . S
H163 C149 0.961 . S
H164 C150 0.958 . S
H165 C150 0.961 . S
H166 C150 0.960 . S
C167 C168 1.391 . S
C167 C169 1.394 . S
C167 H183 0.931 . S
C168 C167 1.391 . S
C168 C172 1.376 . S
C169 C167 1.394 . S
C169 C170 1.369 . S
C169 C173 1.531 . S
C170 C169 1.369 . S
C170 C171 1.410 . S
C170 C178 1.503 . S
C171 C170 1.410 . S
C171 C172 1.392 . S
C171 C174 1.511 . S
C172 C168 1.376 . S
C172 C171 1.392 . S
C172 H184 0.929 . S
C173 C169 1.531 . S
C173 H185 0.960 . S
C173 H186 0.962 . S
C173 H187 0.960 . S
C174 C171 1.511 . S
C174 H188 0.961 . S
C174 H189 0.961 . S
C174 H190 0.961 . S
C175 C176 1.370 . S
C175 C177 1.363 . S
C175 H191 0.931 . S
C176 C175 1.370 . S
C176 C180 1.408 . S
C177 C175 1.363 . S
C177 C178 1.370 . S
C177 C181 1.524 . S
C178 C170 1.503 . S
C178 C177 1.370 . S
C178 C179 1.403 . S
C179 C178 1.403 . S
C179 C180 1.404 . S
C179 C182 1.539 . S
C180 C176 1.408 . S
C180 C179 1.404 . S
C180 H192 0.930 . S
C181 C177 1.524 . S
C181 H193 0.956 . S
C181 H194 0.961 . S
C181 H195 0.961 . S
C182 C179 1.539 . S
C182 H196 0.958 . S
C182 H197 0.961 . S
C182 H198 0.960 . S
H183 C167 0.931 . S
H184 C172 0.929 . S
H185 C173 0.960 . S
H186 C173 0.962 . S
H187 C173 0.960 . S
H188 C174 0.961 . S
H189 C174 0.961 . S
H190 C174 0.961 . S
H191 C175 0.931 . S
H192 C180 0.930 . S
H193 C181 0.956 . S
H194 C181 0.961 . S
H195 C181 0.961 . S
H196 C182 0.958 . S
H197 C182 0.961 . S
H198 C182 0.960 . S
C199 C200 1.391 . S
C199 C201 1.394 . S
C199 H215 0.931 . S
C200 C199 1.391 . S
C200 C204 1.376 . S
C201 C199 1.394 . S
C201 C202 1.369 . S
C201 C205 1.531 . S
C202 C201 1.369 . S
C202 C203 1.410 . S
C202 C210 1.503 . S
C203 C202 1.410 . S
C203 C204 1.392 . S
C203 C206 1.511 . S
C204 C200 1.376 . S
C204 C203 1.392 . S
C204 H216 0.929 . S
C205 C201 1.531 . S
C205 H217 0.960 . S
C205 H218 0.962 . S
C205 H219 0.960 . S
C206 C203 1.511 . S
C206 H220 0.961 . S
C206 H221 0.961 . S
C206 H222 0.961 . S
C207 C208 1.370 . S
C207 C209 1.363 . S
C207 H223 0.931 . S
C208 C207 1.370 . S
C208 C212 1.408 . S
C209 C207 1.363 . S
C209 C210 1.370 . S
C209 C213 1.524 . S
C210 C202 1.503 . S
C210 C209 1.370 . S
C210 C211 1.403 . S
C211 C210 1.403 . S
C211 C212 1.404 . S
C211 C214 1.539 . S
C212 C208 1.408 . S
C212 C211 1.404 . S
C212 H224 0.930 . S
C213 C209 1.524 . S
C213 H225 0.956 . S
C213 H226 0.961 . S
C213 H227 0.961 . S
C214 C211 1.539 . S
C214 H228 0.958 . S
C214 H229 0.961 . S
C214 H230 0.960 . S
H215 C199 0.931 . S
H216 C204 0.929 . S
H217 C205 0.960 . S
H218 C205 0.962 . S
H219 C205 0.960 . S
H220 C206 0.961 . S
H221 C206 0.961 . S
H222 C206 0.961 . S
H223 C207 0.931 . S
H224 C212 0.930 . S
H225 C213 0.956 . S
H226 C213 0.961 . S
H227 C213 0.961 . S
H228 C214 0.958 . S
H229 C214 0.961 . S
H230 C214 0.960 . S
C231 C232 1.391 . S
C231 C233 1.394 . S
C231 H247 0.931 . S
C232 C231 1.391 . S
C232 C236 1.376 . S
C233 C231 1.394 . S
C233 C234 1.369 . S
C233 C237 1.531 . S
C234 C233 1.369 . S
C234 C235 1.410 . S
C234 C242 1.503 . S
C235 C234 1.410 . S
C235 C236 1.392 . S
C235 C238 1.511 . S
C236 C232 1.376 . S
C236 C235 1.392 . S
C236 H248 0.929 . S
C237 C233 1.531 . S
C237 H249 0.960 . S
C237 H250 0.962 . S
C237 H251 0.960 . S
C238 C235 1.511 . S
C238 H252 0.961 . S
C238 H253 0.961 . S
C238 H254 0.961 . S
C239 C240 1.370 . S
C239 C241 1.363 . S
C239 H255 0.931 . S
C240 C239 1.370 . S
C240 C244 1.408 . S
C241 C239 1.363 . S
C241 C242 1.370 . S
C241 C245 1.524 . S
C242 C234 1.503 . S
C242 C241 1.370 . S
C242 C243 1.403 . S
C243 C242 1.403 . S
C243 C244 1.404 . S
C243 C246 1.539 . S
C244 C240 1.408 . S
C244 C243 1.404 . S
C244 H256 0.930 . S
C245 C241 1.524 . S
C245 H257 0.956 . S
C245 H258 0.961 . S
C245 H259 0.961 . S
C246 C243 1.539 . S
C246 H260 0.958 . S
C246 H261 0.961 . S
C246 H262 0.960 . S
H247 C231 0.931 . S
H248 C236 0.929 . S
H249 C237 0.960 . S
H250 C237 0.962 . S
H251 C237 0.960 . S
H252 C238 0.961 . S
H253 C238 0.961 . S
H254 C238 0.961 . S
H255 C239 0.931 . S
H256 C244 0.930 . S
H257 C245 0.956 . S
H258 C245 0.961 . S
H259 C245 0.961 . S
H260 C246 0.958 . S
H261 C246 0.961 . S
H262 C246 0.960 . S
C263 C264 1.391 . S
C263 C265 1.394 . S
C263 H279 0.931 . S
C264 C263 1.391 . S
C264 C268 1.376 . S
C265 C263 1.394 . S
C265 C266 1.369 . S
C265 C269 1.531 . S
C266 C265 1.369 . S
C266 C267 1.410 . S
C266 C274 1.503 . S
C267 C266 1.410 . S
C267 C268 1.392 . S
C267 C270 1.511 . S
C268 C264 1.376 . S
C268 C267 1.392 . S
C268 H280 0.929 . S
C269 C265 1.531 . S
C269 H281 0.960 . S
C269 H282 0.962 . S
C269 H283 0.960 . S
C270 C267 1.511 . S
C270 H284 0.961 . S
C270 H285 0.961 . S
C270 H286 0.961 . S
C271 C272 1.370 . S
C271 C273 1.363 . S
C271 H287 0.931 . S
C272 C271 1.370 . S
C272 C276 1.408 . S
C273 C271 1.363 . S
C273 C274 1.370 . S
C273 C277 1.524 . S
C274 C266 1.503 . S
C274 C273 1.370 . S
C274 C275 1.403 . S
C275 C274 1.403 . S
C275 C276 1.404 . S
C275 C278 1.539 . S
C276 C272 1.408 . S
C276 C275 1.404 . S
C276 H288 0.930 . S
C277 C273 1.524 . S
C277 H289 0.956 . S
C277 H290 0.961 . S
C277 H291 0.961 . S
C278 C275 1.539 . S
C278 H292 0.958 . S
C278 H293 0.961 . S
C278 H294 0.960 . S
H279 C263 0.931 . S
H280 C268 0.929 . S
H281 C269 0.960 . S
H282 C269 0.962 . S
H283 C269 0.960 . S
H284 C270 0.961 . S
H285 C270 0.961 . S
H286 C270 0.961 . S
H287 C271 0.931 . S
H288 C276 0.930 . S
H289 C277 0.956 . S
H290 C277 0.961 . S
H291 C277 0.961 . S
H292 C278 0.958 . S
H293 C278 0.961 . S
H294 C278 0.960 . S
C295 C296 1.391 . S
C295 C297 1.394 . S
C295 H311 0.931 . S
C296 C295 1.391 . S
C296 C300 1.376 . S
C297 C295 1.394 . S
C297 C298 1.369 . S
C297 C301 1.531 . S
C298 C297 1.369 . S
C298 C299 1.410 . S
C298 C306 1.503 . S
C299 C298 1.410 . S
C299 C300 1.392 . S
C299 C302 1.511 . S
C300 C296 1.376 . S
C300 C299 1.392 . S
C300 H312 0.929 . S
C301 C297 1.531 . S
C301 H313 0.960 . S
C301 H314 0.962 . S
C301 H315 0.960 . S
C302 C299 1.511 . S
C302 H316 0.961 . S
C302 H317 0.961 . S
C302 H318 0.961 . S
C303 C304 1.370 . S
C303 C305 1.363 . S
C303 H319 0.931 . S
C304 C303 1.370 . S
C304 C308 1.408 . S
C305 C303 1.363 . S
C305 C306 1.370 . S
C305 C309 1.524 . S
C306 C298 1.503 . S
C306 C305 1.370 . S
C306 C307 1.403 . S
C307 C306 1.403 . S
C307 C308 1.404 . S
C307 C310 1.539 . S
C308 C304 1.408 . S
C308 C307 1.404 . S
C308 H320 0.930 . S
C309 C305 1.524 . S
C309 H321 0.956 . S
C309 H322 0.961 . S
C309 H323 0.961 . S
C310 C307 1.539 . S
C310 H324 0.958 . S
C310 H325 0.961 . S
C310 H326 0.960 . S
H311 C295 0.931 . S
H312 C300 0.929 . S
H313 C301 0.960 . S
H314 C301 0.962 . S
H315 C301 0.960 . S
H316 C302 0.961 . S
H317 C302 0.961 . S
H318 C302 0.961 . S
H319 C303 0.931 . S
H320 C308 0.930 . S
H321 C309 0.956 . S
H322 C309 0.961 . S
H323 C309 0.961 . S
H324 C310 0.958 . S
H325 C310 0.961 . S
H326 C310 0.960 . S
C327 C328 1.391 . S
C327 C329 1.394 . S
C327 H343 0.931 . S
C328 C327 1.391 . S
C328 C332 1.376 . S
C329 C327 1.394 . S
C329 C330 1.369 . S
C329 C333 1.531 . S
C330 C329 1.369 . S
C330 C331 1.410 . S
C330 C338 1.503 . S
C331 C330 1.410 . S
C331 C332 1.392 . S
C331 C334 1.511 . S
C332 C328 1.376 . S
C332 C331 1.392 . S
C332 H344 0.929 . S
C333 C329 1.531 . S
C333 H345 0.960 . S
C333 H346 0.962 . S
C333 H347 0.960 . S
C334 C331 1.511 . S
C334 H348 0.961 . S
C334 H349 0.961 . S
C334 H350 0.961 . S
C335 C336 1.370 . S
C335 C337 1.363 . S
C335 H351 0.931 . S
C336 C335 1.370 . S
C336 C340 1.408 . S
C337 C335 1.363 . S
C337 C338 1.370 . S
C337 C341 1.524 . S
C338 C330 1.503 . S
C338 C337 1.370 . S
C338 C339 1.403 . S
C339 C338 1.403 . S
C339 C340 1.404 . S
C339 C342 1.539 . S
C340 C336 1.408 . S
C340 C339 1.404 . S
C340 H352 0.930 . S
C341 C337 1.524 . S
C341 H353 0.956 . S
C341 H354 0.961 . S
C341 H355 0.961 . S
C342 C339 1.539 . S
C342 H356 0.958 . S
C342 H357 0.961 . S
C342 H358 0.960 . S
H343 C327 0.931 . S
H344 C332 0.929 . S
H345 C333 0.960 . S
H346 C333 0.962 . S
H347 C333 0.960 . S
H348 C334 0.961 . S
H349 C334 0.961 . S
H350 C334 0.961 . S
H351 C335 0.931 . S
H352 C340 0.930 . S
H353 C341 0.956 . S
H354 C341 0.961 . S
H355 C341 0.961 . S
H356 C342 0.958 . S
H357 C342 0.961 . S
H358 C342 0.960 . S
C359 C360 1.391 . S
C359 C361 1.394 . S
C359 H375 0.931 . S
C360 C359 1.391 . S
C360 C364 1.376 . S
C361 C359 1.394 . S
C361 C362 1.369 . S
C361 C365 1.531 . S
C362 C361 1.369 . S
C362 C363 1.410 . S
C362 C370 1.503 . S
C363 C362 1.410 . S
C363 C364 1.392 . S
C363 C366 1.511 . S
C364 C360 1.376 . S
C364 C363 1.392 . S
C364 H376 0.929 . S
C365 C361 1.531 . S
C365 H377 0.960 . S
C365 H378 0.962 . S
C365 H379 0.960 . S
C366 C363 1.511 . S
C366 H380 0.961 . S
C366 H381 0.961 . S
C366 H382 0.961 . S
C367 C368 1.370 . S
C367 C369 1.363 . S
C367 H383 0.931 . S
C368 C367 1.370 . S
C368 C372 1.408 . S
C369 C367 1.363 . S
C369 C370 1.370 . S
C369 C373 1.524 . S
C370 C362 1.503 . S
C370 C369 1.370 . S
C370 C371 1.403 . S
C371 C370 1.403 . S
C371 C372 1.404 . S
C371 C374 1.539 . S
C372 C368 1.408 . S
C372 C371 1.404 . S
C372 H384 0.930 . S
C373 C369 1.524 . S
C373 H385 0.956 . S
C373 H386 0.961 . S
C373 H387 0.961 . S
C374 C371 1.539 . S
C374 H388 0.958 . S
C374 H389 0.961 . S
C374 H390 0.960 . S
H375 C359 0.931 . S
H376 C364 0.929 . S
H377 C365 0.960 . S
H378 C365 0.962 . S
H379 C365 0.960 . S
H380 C366 0.961 . S
H381 C366 0.961 . S
H382 C366 0.961 . S
H383 C367 0.931 . S
H384 C372 0.930 . S
H385 C373 0.956 . S
H386 C373 0.961 . S
H387 C373 0.961 . S
H388 C374 0.958 . S
H389 C374 0.961 . S
H390 C374 0.960 . S
C391 C392 1.391 . S
C391 C393 1.394 . S
C391 H407 0.931 . S
C392 C391 1.391 . S
C392 C396 1.376 . S
C393 C391 1.394 . S
C393 C394 1.369 . S
C393 C397 1.531 . S
C394 C393 1.369 . S
C394 C395 1.410 . S
C394 C402 1.503 . S
C395 C394 1.410 . S
C395 C396 1.392 . S
C395 C398 1.511 . S
C396 C392 1.376 . S
C396 C395 1.392 . S
C396 H408 0.929 . S
C397 C393 1.531 . S
C397 H409 0.960 . S
C397 H410 0.962 . S
C397 H411 0.960 . S
C398 C395 1.511 . S
C398 H412 0.961 . S
C398 H413 0.961 . S
C398 H414 0.961 . S
C399 C400 1.370 . S
C399 C401 1.363 . S
C399 H415 0.931 . S
C400 C399 1.370 . S
C400 C404 1.408 . S
C401 C399 1.363 . S
C401 C402 1.370 . S
C401 C405 1.524 . S
C402 C394 1.503 . S
C402 C401 1.370 . S
C402 C403 1.403 . S
C403 C402 1.403 . S
C403 C404 1.404 . S
C403 C406 1.539 . S
C404 C400 1.408 . S
C404 C403 1.404 . S
C404 H416 0.930 . S
C405 C401 1.524 . S
C405 H417 0.956 . S
C405 H418 0.961 . S
C405 H419 0.961 . S
C406 C403 1.539 . S
C406 H420 0.958 . S
C406 H421 0.961 . S
C406 H422 0.960 . S
H407 C391 0.931 . S
H408 C396 0.929 . S
H409 C397 0.960 . S
H410 C397 0.962 . S
H411 C397 0.960 . S
H412 C398 0.961 . S
H413 C398 0.961 . S
H414 C398 0.961 . S
H415 C399 0.931 . S
H416 C404 0.930 . S
H417 C405 0.956 . S
H418 C405 0.961 . S
H419 C405 0.961 . S
H420 C406 0.958 . S
H421 C406 0.961 . S
H422 C406 0.960 . S
C423 C424 1.391 . S
C423 C425 1.394 . S
C423 H439 0.931 . S
C424 C423 1.391 . S
C424 C428 1.376 . S
C425 C423 1.394 . S
C425 C426 1.369 . S
C425 C429 1.531 . S
C426 C425 1.369 . S
C426 C427 1.410 . S
C426 C434 1.503 . S
C427 C426 1.410 . S
C427 C428 1.392 . S
C427 C430 1.511 . S
C428 C424 1.376 . S
C428 C427 1.392 . S
C428 H440 0.929 . S
C429 C425 1.531 . S
C429 H441 0.960 . S
C429 H442 0.962 . S
C429 H443 0.960 . S
C430 C427 1.511 . S
C430 H444 0.961 . S
C430 H445 0.961 . S
C430 H446 0.961 . S
C431 C432 1.370 . S
C431 C433 1.363 . S
C431 H447 0.931 . S
C432 C431 1.370 . S
C432 C436 1.408 . S
C433 C431 1.363 . S
C433 C434 1.370 . S
C433 C437 1.524 . S
C434 C426 1.503 . S
C434 C433 1.370 . S
C434 C435 1.403 . S
C435 C434 1.403 . S
C435 C436 1.404 . S
C435 C438 1.539 . S
C436 C432 1.408 . S
C436 C435 1.404 . S
C436 H448 0.930 . S
C437 C433 1.524 . S
C437 H449 0.956 . S
C437 H450 0.961 . S
C437 H451 0.961 . S
C438 C435 1.539 . S
C438 H452 0.958 . S
C438 H453 0.961 . S
C438 H454 0.960 . S
H439 C423 0.931 . S
H440 C428 0.929 . S
H441 C429 0.960 . S
H442 C429 0.962 . S
H443 C429 0.960 . S
H444 C430 0.961 . S
H445 C430 0.961 . S
H446 C430 0.961 . S
H447 C431 0.931 . S
H448 C436 0.930 . S
H449 C437 0.956 . S
H450 C437 0.961 . S
H451 C437 0.961 . S
H452 C438 0.958 . S
H453 C438 0.961 . S
H454 C438 0.960 . S
C455 C456 1.391 . S
C455 C457 1.394 . S
C455 H471 0.931 . S
C456 C455 1.391 . S
C456 C460 1.376 . S
C457 C455 1.394 . S
C457 C458 1.369 . S
C457 C461 1.531 . S
C458 C457 1.369 . S
C458 C459 1.410 . S
C458 C466 1.503 . S
C459 C458 1.410 . S
C459 C460 1.392 . S
C459 C462 1.511 . S
C460 C456 1.376 . S
C460 C459 1.392 . S
C460 H472 0.929 . S
C461 C457 1.531 . S
C461 H473 0.960 . S
C461 H474 0.962 . S
C461 H475 0.960 . S
C462 C459 1.511 . S
C462 H476 0.961 . S
C462 H477 0.961 . S
C462 H478 0.961 . S
C463 C464 1.370 . S
C463 C465 1.363 . S
C463 H479 0.931 . S
C464 C463 1.370 . S
C464 C468 1.408 . S
C465 C463 1.363 . S
C465 C466 1.370 . S
C465 C469 1.524 . S
C466 C458 1.503 . S
C466 C465 1.370 . S
C466 C467 1.403 . S
C467 C466 1.403 . S
C467 C468 1.404 . S
C467 C470 1.539 . S
C468 C464 1.408 . S
C468 C467 1.404 . S
C468 H480 0.930 . S
C469 C465 1.524 . S
C469 H481 0.956 . S
C469 H482 0.961 . S
C469 H483 0.961 . S
C470 C467 1.539 . S
C470 H484 0.958 . S
C470 H485 0.961 . S
C470 H486 0.960 . S
H471 C455 0.931 . S
H472 C460 0.929 . S
H473 C461 0.960 . S
H474 C461 0.962 . S
H475 C461 0.960 . S
H476 C462 0.961 . S
H477 C462 0.961 . S
H478 C462 0.961 . S
H479 C463 0.931 . S
H480 C468 0.930 . S
H481 C469 0.956 . S
H482 C469 0.961 . S
H483 C469 0.961 . S
H484 C470 0.958 . S
H485 C470 0.961 . S
H486 C470 0.960 . S
C487 C488 1.391 . S
C487 C489 1.394 . S
C487 H503 0.931 . S
C488 C487 1.391 . S
C488 C492 1.376 . S
C489 C487 1.394 . S
C489 C490 1.369 . S
C489 C493 1.531 . S
C490 C489 1.369 . S
C490 C491 1.410 . S
C490 C498 1.503 . S
C491 C490 1.410 . S
C491 C492 1.392 . S
C491 C494 1.511 . S
C492 C488 1.376 . S
C492 C491 1.392 . S
C492 H504 0.929 . S
C493 C489 1.531 . S
C493 H505 0.960 . S
C493 H506 0.962 . S
C493 H507 0.960 . S
C494 C491 1.511 . S
C494 H508 0.961 . S
C494 H509 0.961 . S
C494 H510 0.961 . S
C495 C496 1.370 . S
C495 C497 1.363 . S
C495 H511 0.931 . S
C496 C495 1.370 . S
C496 C500 1.408 . S
C497 C495 1.363 . S
C497 C498 1.370 . S
C497 C501 1.524 . S
C498 C490 1.503 . S
C498 C497 1.370 . S
C498 C499 1.403 . S
C499 C498 1.403 . S
C499 C500 1.404 . S
C499 C502 1.539 . S
C500 C496 1.408 . S
C500 C499 1.404 . S
C500 H512 0.930 . S
C501 C497 1.524 . S
C501 H513 0.956 . S
C501 H514 0.961 . S
C501 H515 0.961 . S
C502 C499 1.539 . S
C502 H516 0.958 . S
C502 H517 0.961 . S
C502 H518 0.960 . S
H503 C487 0.931 . S
H504 C492 0.929 . S
H505 C493 0.960 . S
H506 C493 0.962 . S
H507 C493 0.960 . S
H508 C494 0.961 . S
H509 C494 0.961 . S
H510 C494 0.961 . S
H511 C495 0.931 . S
H512 C500 0.930 . S
H513 C501 0.956 . S
H514 C501 0.961 . S
H515 C501 0.961 . S
H516 C502 0.958 . S
H517 C502 0.961 . S
H518 C502 0.960 . S
C519 C520 1.389 . S
C519 C521 1.393 1_455 S
C519 H535 0.934 1_455 S
C520 C519 1.389 . S
C520 C524 1.376 . S
C521 C519 1.393 1_655 S
C521 C522 1.369 . S
C521 C525 1.531 . S
C522 C521 1.369 . S
C522 C523 1.410 . S
C522 C530 1.504 . S
C523 C522 1.410 . S
C523 C524 1.392 1_655 S
C523 C526 1.511 . S
C524 C520 1.376 . S
C524 C523 1.392 1_455 S
C524 H536 0.929 . S
C525 C521 1.531 . S
C525 H537 0.960 . S
C525 H538 0.962 1_655 S
C525 H539 0.960 . S
C526 C523 1.511 . S
C526 H540 0.961 1_655 S
C526 H541 0.961 1_655 S
C526 H542 0.961 . S
C527 C528 1.370 . S
C527 C529 1.363 . S
C527 H543 0.931 . S
C528 C527 1.370 . S
C528 C532 1.408 1_455 S
C529 C527 1.363 . S
C529 C530 1.357 1_456 S
C529 C533 1.524 1_556 S
C530 C522 1.504 . S
C530 C529 1.357 1_654 S
C530 C531 1.415 1_554 S
C531 C530 1.415 1_556 S
C531 C532 1.404 . S
C531 C534 1.539 1_556 S
C532 C528 1.408 1_655 S
C532 C531 1.404 . S
C532 H544 0.930 . S
C533 C529 1.524 1_554 S
C533 H545 0.956 . S
C533 H546 0.961 . S
C533 H547 0.961 . S
C534 C531 1.539 1_554 S
C534 H548 0.958 . S
C534 H549 0.961 1_554 S
C534 H550 0.960 . S
H535 C519 0.934 1_655 S
H536 C524 0.929 . S
H537 C525 0.960 . S
H538 C525 0.962 1_455 S
H539 C525 0.960 . S
H540 C526 0.961 1_455 S
H541 C526 0.961 1_455 S
H542 C526 0.961 . S
H543 C527 0.931 . S
H544 C532 0.930 . S
H545 C533 0.956 . S
H546 C533 0.961 . S
H547 C533 0.961 . S
H548 C534 0.958 . S
H549 C534 0.961 1_556 S
H550 C534 0.960 . S
C551 C552 1.391 . S
C551 C553 1.394 . S
C551 H567 0.931 . S
C552 C551 1.391 . S
C552 C556 1.376 1_545 S
C553 C551 1.394 . S
C553 C554 1.369 . S
C553 C557 1.531 . S
C554 C553 1.369 . S
C554 C555 1.410 1_545 S
C554 C562 1.503 . S
C555 C554 1.410 1_565 S
C555 C556 1.392 . S
C555 C558 1.511 . S
C556 C552 1.376 1_565 S
C556 C555 1.392 . S
C556 H568 0.929 . S
C557 C553 1.531 . S
C557 H569 0.960 . S
C557 H570 0.962 . S
C557 H571 0.960 . S
C558 C555 1.511 . S
C558 H572 0.961 . S
C558 H573 0.961 . S
C558 H574 0.961 . S
C559 C560 1.366 1_545 S
C559 C561 1.363 . S
C559 H575 0.931 . S
C560 C559 1.366 1_565 S
C560 C564 1.412 . S
C561 C559 1.363 . S
C561 C562 1.370 . S
C561 C565 1.524 . S
C562 C554 1.503 . S
C562 C561 1.370 . S
C562 C563 1.403 1_545 S
C563 C562 1.403 1_565 S
C563 C564 1.404 . S
C563 C566 1.539 . S
C564 C560 1.412 . S
C564 C563 1.404 . S
C564 H576 0.930 . S
C565 C561 1.524 . S
C565 H577 0.956 . S
C565 H578 0.961 1_545 S
C565 H579 0.961 . S
C566 C563 1.539 . S
C566 H580 0.958 1_565 S
C566 H581 0.961 . S
C566 H582 0.960 . S
H567 C551 0.931 . S
H568 C556 0.929 . S
H569 C557 0.960 . S
H570 C557 0.962 . S
H571 C557 0.960 . S
H572 C558 0.961 . S
H573 C558 0.961 . S
H574 C558 0.961 . S
H575 C559 0.931 . S
H576 C564 0.930 . S
H577 C565 0.956 . S
H578 C565 0.961 1_565 S
H579 C565 0.961 . S
H580 C566 0.958 1_545 S
H581 C566 0.961 . S
H582 C566 0.960 . S
C583 C584 1.391 . S
C583 C585 1.394 . S
C583 H599 0.931 . S
C584 C583 1.391 . S
C584 C588 1.376 . S
C585 C583 1.394 . S
C585 C586 1.369 . S
C585 C589 1.531 . S
C586 C585 1.369 . S
C586 C587 1.410 . S
C586 C594 1.503 . S
C587 C586 1.410 . S
C587 C588 1.392 . S
C587 C590 1.511 . S
C588 C584 1.376 . S
C588 C587 1.392 . S
C588 H600 0.929 . S
C589 C585 1.531 . S
C589 H601 0.960 . S
C589 H602 0.962 . S
C589 H603 0.960 . S
C590 C587 1.511 . S
C590 H604 0.961 . S
C590 H605 0.961 . S
C590 H606 0.961 . S
C591 C592 1.370 . S
C591 C593 1.363 . S
C591 H607 0.931 . S
C592 C591 1.370 . S
C592 C596 1.408 . S
C593 C591 1.363 . S
C593 C594 1.370 . S
C593 C597 1.524 . S
C594 C586 1.503 . S
C594 C593 1.370 . S
C594 C595 1.403 . S
C595 C594 1.403 . S
C595 C596 1.404 . S
C595 C598 1.539 . S
C596 C592 1.408 . S
C596 C595 1.404 . S
C596 H608 0.930 . S
C597 C593 1.524 . S
C597 H609 0.956 . S
C597 H610 0.961 . S
C597 H611 0.961 . S
C598 C595 1.539 . S
C598 H612 0.958 . S
C598 H613 0.961 . S
C598 H614 0.960 . S
H599 C583 0.931 . S
H600 C588 0.929 . S
H601 C589 0.960 . S
H602 C589 0.962 . S
H603 C589 0.960 . S
H604 C590 0.961 . S
H605 C590 0.961 . S
H606 C590 0.961 . S
H607 C591 0.931 . S
H608 C596 0.930 . S
H609 C597 0.956 . S
H610 C597 0.961 . S
H611 C597 0.961 . S
H612 C598 0.958 . S
H613 C598 0.961 . S
H614 C598 0.960 . S
C615 C616 1.391 1_565 S
C615 C617 1.394 . S
C615 H631 0.931 . S
C616 C615 1.391 1_545 S
C616 C620 1.372 1_545 S
C617 C615 1.394 . S
C617 C618 1.369 . S
C617 C621 1.531 . S
C618 C617 1.369 . S
C618 C619 1.410 . S
C618 C626 1.503 1_565 S
C619 C618 1.410 . S
C619 C620 1.393 . S
C619 C622 1.511 . S
C620 C616 1.372 1_565 S
C620 C619 1.393 . S
C620 H632 0.937 1_565 S
C621 C617 1.531 . S
C621 H633 0.960 . S
C621 H634 0.962 1_565 S
C621 H635 0.960 . S
C622 C619 1.511 . S
C622 H636 0.961 1_565 S
C622 H637 0.961 1_565 S
C622 H638 0.961 . S
C623 C624 1.370 . S
C623 C625 1.363 . S
C623 H639 0.931 . S
C624 C623 1.370 . S
C624 C628 1.408 1_545 S
C625 C623 1.363 . S
C625 C626 1.370 . S
C625 C629 1.524 . S
C626 C618 1.503 1_545 S
C626 C625 1.370 . S
C626 C627 1.403 1_545 S
C627 C626 1.403 1_565 S
C627 C628 1.404 . S
C627 C630 1.539 . S
C628 C624 1.408 1_565 S
C628 C627 1.404 . S
C628 H640 0.930 . S
C629 C625 1.524 . S
C629 H641 0.956 . S
C629 H642 0.961 . S
C629 H643 0.961 . S
C630 C627 1.539 . S
C630 H644 0.958 . S
C630 H645 0.961 . S
C630 H646 0.960 . S
H631 C615 0.931 . S
H632 C620 0.937 1_545 S
H633 C621 0.960 . S
H634 C621 0.962 1_545 S
H635 C621 0.960 . S
H636 C622 0.961 1_545 S
H637 C622 0.961 1_545 S
H638 C622 0.961 . S
H639 C623 0.931 . S
H640 C628 0.930 . S
H641 C629 0.956 . S
H642 C629 0.961 . S
H643 C629 0.961 . S
H644 C630 0.958 . S
H645 C630 0.961 . S
H646 C630 0.960 . S
C647 C648 1.391 . S
C647 C649 1.394 . S
C647 H663 0.931 . S
C648 C647 1.391 . S
C648 C652 1.376 . S
C649 C647 1.394 . S
C649 C650 1.369 . S
C649 C653 1.531 . S
C650 C649 1.369 . S
C650 C651 1.410 . S
C650 C658 1.503 . S
C651 C650 1.410 . S
C651 C652 1.392 . S
C651 C654 1.511 . S
C652 C648 1.376 . S
C652 C651 1.392 . S
C652 H664 0.929 . S
C653 C649 1.531 . S
C653 H665 0.960 . S
C653 H666 0.962 . S
C653 H667 0.960 . S
C654 C651 1.511 . S
C654 H668 0.961 . S
C654 H669 0.961 . S
C654 H670 0.961 . S
C655 C656 1.370 . S
C655 C657 1.363 . S
C655 H671 0.931 . S
C656 C655 1.370 . S
C656 C660 1.408 . S
C657 C655 1.363 . S
C657 C658 1.370 1_554 S
C657 C661 1.524 1_554 S
C658 C650 1.503 . S
C658 C657 1.370 1_556 S
C658 C659 1.403 1_556 S
C659 C658 1.403 1_554 S
C659 C660 1.404 . S
C659 C662 1.539 1_554 S
C660 C656 1.408 . S
C660 C659 1.404 . S
C660 H672 0.930 . S
C661 C657 1.524 1_556 S
C661 H673 0.956 . S
C661 H674 0.961 . S
C661 H675 0.961 . S
C662 C659 1.539 1_556 S
C662 H676 0.958 . S
C662 H677 0.961 1_556 S
C662 H678 0.960 . S
H663 C647 0.931 . S
H664 C652 0.929 . S
H665 C653 0.960 . S
H666 C653 0.962 . S
H667 C653 0.960 . S
H668 C654 0.961 . S
H669 C654 0.961 . S
H670 C654 0.961 . S
H671 C655 0.931 . S
H672 C660 0.930 . S
H673 C661 0.956 . S
H674 C661 0.961 . S
H675 C661 0.961 . S
H676 C662 0.958 . S
H677 C662 0.961 1_554 S
H678 C662 0.960 . S
C679 C680 1.391 1_655 S
C679 C681 1.394 . S
C679 H695 0.931 . S
C680 C679 1.391 1_455 S
C680 C684 1.376 . S
C681 C679 1.394 . S
C681 C682 1.369 . S
C681 C685 1.531 . S
C682 C681 1.369 . S
C682 C683 1.410 1_655 S
C682 C690 1.503 . S
C683 C682 1.410 1_455 S
C683 C684 1.392 . S
C683 C686 1.511 . S
C684 C680 1.376 . S
C684 C683 1.392 . S
C684 H696 0.929 . S
C685 C681 1.531 . S
C685 H697 0.960 . S
C685 H698 0.962 . S
C685 H699 0.960 . S
C686 C683 1.511 . S
C686 H700 0.961 . S
C686 H701 0.961 . S
C686 H702 0.961 . S
C687 C688 1.373 1_455 S
C687 C689 1.364 . S
C687 H703 0.928 . S
C688 C687 1.373 1_655 S
C688 C692 1.408 . S
C689 C687 1.364 . S
C689 C690 1.370 1_455 S
C689 C693 1.524 . S
C690 C682 1.503 . S
C690 C689 1.370 1_655 S
C690 C691 1.403 . S
C691 C690 1.403 . S
C691 C692 1.404 . S
C691 C694 1.539 . S
C692 C688 1.408 . S
C692 C691 1.404 . S
C692 H704 0.930 . S
C693 C689 1.524 . S
C693 H705 0.956 1_455 S
C693 H706 0.961 . S
C693 H707 0.961 . S
C694 C691 1.539 . S
C694 H708 0.958 . S
C694 H709 0.961 . S
C694 H710 0.960 . S
H695 C679 0.931 . S
H696 C684 0.929 . S
H697 C685 0.960 . S
H698 C685 0.962 . S
H699 C685 0.960 . S
H700 C686 0.961 . S
H701 C686 0.961 . S
H702 C686 0.961 . S
H703 C687 0.928 . S
H704 C692 0.930 . S
H705 C693 0.956 1_655 S
H706 C693 0.961 . S
H707 C693 0.961 . S
H708 C694 0.958 . S
H709 C694 0.961 . S
H710 C694 0.960 . S
C136 C20 1.352 . S
C144 C129 1.253 . S
C168 C41 1.454 . S
C176 C107 1.280 . S
C200 C64 1.120 . S
C208 C121 1.120 . S
C232 C19 1.046 . S
C240 C132 1.129 . S
C272 C110 1.098 . S
C264 C44 1.110 . S
C304 C118 1.263 . S
C296 C67 1.426 . S
C328 C43 1.353 . S
C336 C85 1.252 . S
C360 C66 1.408 . S
C368 C96 1.271 . S
C392 C21 1.458 . S
C400 C74 1.318 . S
C432 C88 1.106 . S
C424 C42 1.086 . S
C464 C99 1.116 . S
C456 C65 1.090 . S
C488 C18 1.102 . S
C496 C77 1.111 . S
C528 C98 1.436 . S
C520 C17 1.494 . S
C552 C39 1.496 . S
C560 C76 1.419 1_565 S
C584 C62 1.507 . S
C592 C87 1.445 . S
C624 C120 1.405 . S
C616 C40 1.480 . S
C656 C131 1.422 . S
C648 C63 1.497 . S
C680 C16 1.494 . S
C688 C109 1.443 . S
