# Generated by pormake.
# Topology gar, (4,6)-cn, num edge types: 1
# Building blocks:
#     Node 0, Type 0, BuildingBlock: QUQFOY_clean_sbu_3, # of connection points: 4
#     Node 1, Type 0, BuildingBlock: QUQFOY_clean_sbu_3, # of connection points: 4
#     Node 2, Type 0, BuildingBlock: QUQFOY_clean_sbu_3, # of connection points: 4
#     Node 3, Type 0, BuildingBlock: QUQFOY_clean_sbu_3, # of connection points: 4
#     Node 4, Type 0, BuildingBlock: QUQFOY_clean_sbu_3, # of connection points: 4
#     Node 5, Type 0, BuildingBlock: QUQFOY_clean_sbu_3, # of connection points: 4
#     Node 6, Type 0, BuildingBlock: QUQFOY_clean_sbu_3, # of connection points: 4
#     Node 7, Type 0, BuildingBlock: QUQFOY_clean_sbu_3, # of connection points: 4
#     Node 8, Type 0, BuildingBlock: QUQFOY_clean_sbu_3, # of connection points: 4
#     Node 9, Type 0, BuildingBlock: QUQFOY_clean_sbu_3, # of connection points: 4
#     Node 10, Type 0, BuildingBlock: QUQFOY_clean_sbu_3, # of connection points: 4
#     Node 11, Type 0, BuildingBlock: QUQFOY_clean_sbu_3, # of connection points: 4
#     Node 12, Type 0, BuildingBlock: QUQFOY_clean_sbu_3, # of connection points: 4
#     Node 13, Type 0, BuildingBlock: QUQFOY_clean_sbu_3, # of connection points: 4
#     Node 14, Type 0, BuildingBlock: QUQFOY_clean_sbu_3, # of connection points: 4
#     Node 15, Type 0, BuildingBlock: QUQFOY_clean_sbu_3, # of connection points: 4
#     Node 16, Type 0, BuildingBlock: QUQFOY_clean_sbu_3, # of connection points: 4
#     Node 17, Type 0, BuildingBlock: QUQFOY_clean_sbu_3, # of connection points: 4
#     Node 18, Type 0, BuildingBlock: QUQFOY_clean_sbu_3, # of connection points: 4
#     Node 19, Type 0, BuildingBlock: QUQFOY_clean_sbu_3, # of connection points: 4
#     Node 20, Type 0, BuildingBlock: QUQFOY_clean_sbu_3, # of connection points: 4
#     Node 21, Type 0, BuildingBlock: QUQFOY_clean_sbu_3, # of connection points: 4
#     Node 22, Type 0, BuildingBlock: QUQFOY_clean_sbu_3, # of connection points: 4
#     Node 23, Type 0, BuildingBlock: QUQFOY_clean_sbu_3, # of connection points: 4
#     Node 24, Type 1, BuildingBlock: CUKXOW_clean_sbu_0, # of connection points: 6
#     Node 25, Type 1, BuildingBlock: CUKXOW_clean_sbu_0, # of connection points: 6
#     Node 26, Type 1, BuildingBlock: CUKXOW_clean_sbu_0, # of connection points: 6
#     Node 27, Type 1, BuildingBlock: CUKXOW_clean_sbu_0, # of connection points: 6
#     Node 28, Type 1, BuildingBlock: CUKXOW_clean_sbu_0, # of connection points: 6
#     Node 29, Type 1, BuildingBlock: CUKXOW_clean_sbu_0, # of connection points: 6
#     Node 30, Type 1, BuildingBlock: CUKXOW_clean_sbu_0, # of connection points: 6
#     Node 31, Type 1, BuildingBlock: CUKXOW_clean_sbu_0, # of connection points: 6
#     Node 32, Type 1, BuildingBlock: CUKXOW_clean_sbu_0, # of connection points: 6
#     Node 33, Type 1, BuildingBlock: CUKXOW_clean_sbu_0, # of connection points: 6
#     Node 34, Type 1, BuildingBlock: CUKXOW_clean_sbu_0, # of connection points: 6
#     Node 35, Type 1, BuildingBlock: CUKXOW_clean_sbu_0, # of connection points: 6
#     Node 36, Type 1, BuildingBlock: CUKXOW_clean_sbu_0, # of connection points: 6
#     Node 37, Type 1, BuildingBlock: CUKXOW_clean_sbu_0, # of connection points: 6
#     Node 38, Type 1, BuildingBlock: CUKXOW_clean_sbu_0, # of connection points: 6
#     Node 39, Type 1, BuildingBlock: CUKXOW_clean_sbu_0, # of connection points: 6
#     Edge 40, Type (0, 1), BuildingBlock: CIFDUS_clean_linker_0, # of connection points: 2
#     Edge 41, Type (0, 1), BuildingBlock: CIFDUS_clean_linker_0, # of connection points: 2
#     Edge 42, Type (0, 1), BuildingBlock: CIFDUS_clean_linker_0, # of connection points: 2
#     Edge 43, Type (0, 1), BuildingBlock: CIFDUS_clean_linker_0, # of connection points: 2
#     Edge 44, Type (0, 1), BuildingBlock: CIFDUS_clean_linker_0, # of connection points: 2
#     Edge 45, Type (0, 1), BuildingBlock: CIFDUS_clean_linker_0, # of connection points: 2
#     Edge 46, Type (0, 1), BuildingBlock: CIFDUS_clean_linker_0, # of connection points: 2
#     Edge 47, Type (0, 1), BuildingBlock: CIFDUS_clean_linker_0, # of connection points: 2
#     Edge 48, Type (0, 1), BuildingBlock: CIFDUS_clean_linker_0, # of connection points: 2
#     Edge 49, Type (0, 1), BuildingBlock: CIFDUS_clean_linker_0, # of connection points: 2
#     Edge 50, Type (0, 1), BuildingBlock: CIFDUS_clean_linker_0, # of connection points: 2
#     Edge 51, Type (0, 1), BuildingBlock: CIFDUS_clean_linker_0, # of connection points: 2
#     Edge 52, Type (0, 1), BuildingBlock: CIFDUS_clean_linker_0, # of connection points: 2
#     Edge 53, Type (0, 1), BuildingBlock: CIFDUS_clean_linker_0, # of connection points: 2
#     Edge 54, Type (0, 1), BuildingBlock: CIFDUS_clean_linker_0, # of connection points: 2
#     Edge 55, Type (0, 1), BuildingBlock: CIFDUS_clean_linker_0, # of connection points: 2
#     Edge 56, Type (0, 1), BuildingBlock: CIFDUS_clean_linker_0, # of connection points: 2
#     Edge 57, Type (0, 1), BuildingBlock: CIFDUS_clean_linker_0, # of connection points: 2
#     Edge 58, Type (0, 1), BuildingBlock: CIFDUS_clean_linker_0, # of connection points: 2
#     Edge 59, Type (0, 1), BuildingBlock: CIFDUS_clean_linker_0, # of connection points: 2
#     Edge 60, Type (0, 1), BuildingBlock: CIFDUS_clean_linker_0, # of connection points: 2
#     Edge 61, Type (0, 1), BuildingBlock: CIFDUS_clean_linker_0, # of connection points: 2
#     Edge 62, Type (0, 1), BuildingBlock: CIFDUS_clean_linker_0, # of connection points: 2
#     Edge 63, Type (0, 1), BuildingBlock: CIFDUS_clean_linker_0, # of connection points: 2
#     Edge 64, Type (0, 1), BuildingBlock: CIFDUS_clean_linker_0, # of connection points: 2
#     Edge 65, Type (0, 1), BuildingBlock: CIFDUS_clean_linker_0, # of connection points: 2
#     Edge 66, Type (0, 1), BuildingBlock: CIFDUS_clean_linker_0, # of connection points: 2
#     Edge 67, Type (0, 1), BuildingBlock: CIFDUS_clean_linker_0, # of connection points: 2
#     Edge 68, Type (0, 1), BuildingBlock: CIFDUS_clean_linker_0, # of connection points: 2
#     Edge 69, Type (0, 1), BuildingBlock: CIFDUS_clean_linker_0, # of connection points: 2
#     Edge 70, Type (0, 1), BuildingBlock: CIFDUS_clean_linker_0, # of connection points: 2
#     Edge 71, Type (0, 1), BuildingBlock: CIFDUS_clean_linker_0, # of connection points: 2
#     Edge 72, Type (0, 1), BuildingBlock: CIFDUS_clean_linker_0, # of connection points: 2
#     Edge 73, Type (0, 1), BuildingBlock: CIFDUS_clean_linker_0, # of connection points: 2
#     Edge 74, Type (0, 1), BuildingBlock: CIFDUS_clean_linker_0, # of connection points: 2
#     Edge 75, Type (0, 1), BuildingBlock: CIFDUS_clean_linker_0, # of connection points: 2
#     Edge 76, Type (0, 1), BuildingBlock: CIFDUS_clean_linker_0, # of connection points: 2
#     Edge 77, Type (0, 1), BuildingBlock: CIFDUS_clean_linker_0, # of connection points: 2
#     Edge 78, Type (0, 1), BuildingBlock: CIFDUS_clean_linker_0, # of connection points: 2
#     Edge 79, Type (0, 1), BuildingBlock: CIFDUS_clean_linker_0, # of connection points: 2
#     Edge 80, Type (0, 1), BuildingBlock: CIFDUS_clean_linker_0, # of connection points: 2
#     Edge 81, Type (0, 1), BuildingBlock: CIFDUS_clean_linker_0, # of connection points: 2
#     Edge 82, Type (0, 1), BuildingBlock: CIFDUS_clean_linker_0, # of connection points: 2
#     Edge 83, Type (0, 1), BuildingBlock: CIFDUS_clean_linker_0, # of connection points: 2
#     Edge 84, Type (0, 1), BuildingBlock: CIFDUS_clean_linker_0, # of connection points: 2
#     Edge 85, Type (0, 1), BuildingBlock: CIFDUS_clean_linker_0, # of connection points: 2
#     Edge 86, Type (0, 1), BuildingBlock: CIFDUS_clean_linker_0, # of connection points: 2
#     Edge 87, Type (0, 1), BuildingBlock: CIFDUS_clean_linker_0, # of connection points: 2
#     Edge 88, Type (0, 1), BuildingBlock: CIFDUS_clean_linker_0, # of connection points: 2
#     Edge 89, Type (0, 1), BuildingBlock: CIFDUS_clean_linker_0, # of connection points: 2
#     Edge 90, Type (0, 1), BuildingBlock: CIFDUS_clean_linker_0, # of connection points: 2
#     Edge 91, Type (0, 1), BuildingBlock: CIFDUS_clean_linker_0, # of connection points: 2
#     Edge 92, Type (0, 1), BuildingBlock: CIFDUS_clean_linker_0, # of connection points: 2
#     Edge 93, Type (0, 1), BuildingBlock: CIFDUS_clean_linker_0, # of connection points: 2
#     Edge 94, Type (0, 1), BuildingBlock: CIFDUS_clean_linker_0, # of connection points: 2
#     Edge 95, Type (0, 1), BuildingBlock: CIFDUS_clean_linker_0, # of connection points: 2
#     Edge 96, Type (0, 1), BuildingBlock: CIFDUS_clean_linker_0, # of connection points: 2
#     Edge 97, Type (0, 1), BuildingBlock: CIFDUS_clean_linker_0, # of connection points: 2
#     Edge 98, Type (0, 1), BuildingBlock: CIFDUS_clean_linker_0, # of connection points: 2
#     Edge 99, Type (0, 1), BuildingBlock: CIFDUS_clean_linker_0, # of connection points: 2
#     Edge 100, Type (0, 1), BuildingBlock: CIFDUS_clean_linker_0, # of connection points: 2
#     Edge 101, Type (0, 1), BuildingBlock: CIFDUS_clean_linker_0, # of connection points: 2
#     Edge 102, Type (0, 1), BuildingBlock: CIFDUS_clean_linker_0, # of connection points: 2
#     Edge 103, Type (0, 1), BuildingBlock: CIFDUS_clean_linker_0, # of connection points: 2
#     Edge 104, Type (0, 1), BuildingBlock: CIFDUS_clean_linker_0, # of connection points: 2
#     Edge 105, Type (0, 1), BuildingBlock: CIFDUS_clean_linker_0, # of connection points: 2
#     Edge 106, Type (0, 1), BuildingBlock: CIFDUS_clean_linker_0, # of connection points: 2
#     Edge 107, Type (0, 1), BuildingBlock: CIFDUS_clean_linker_0, # of connection points: 2
#     Edge 108, Type (0, 1), BuildingBlock: CIFDUS_clean_linker_0, # of connection points: 2
#     Edge 109, Type (0, 1), BuildingBlock: CIFDUS_clean_linker_0, # of connection points: 2
#     Edge 110, Type (0, 1), BuildingBlock: CIFDUS_clean_linker_0, # of connection points: 2
#     Edge 111, Type (0, 1), BuildingBlock: CIFDUS_clean_linker_0, # of connection points: 2
#     Edge 112, Type (0, 1), BuildingBlock: CIFDUS_clean_linker_0, # of connection points: 2
#     Edge 113, Type (0, 1), BuildingBlock: CIFDUS_clean_linker_0, # of connection points: 2
#     Edge 114, Type (0, 1), BuildingBlock: CIFDUS_clean_linker_0, # of connection points: 2
#     Edge 115, Type (0, 1), BuildingBlock: CIFDUS_clean_linker_0, # of connection points: 2
#     Edge 116, Type (0, 1), BuildingBlock: CIFDUS_clean_linker_0, # of connection points: 2
#     Edge 117, Type (0, 1), BuildingBlock: CIFDUS_clean_linker_0, # of connection points: 2
#     Edge 118, Type (0, 1), BuildingBlock: CIFDUS_clean_linker_0, # of connection points: 2
#     Edge 119, Type (0, 1), BuildingBlock: CIFDUS_clean_linker_0, # of connection points: 2
#     Edge 120, Type (0, 1), BuildingBlock: CIFDUS_clean_linker_0, # of connection points: 2
#     Edge 121, Type (0, 1), BuildingBlock: CIFDUS_clean_linker_0, # of connection points: 2
#     Edge 122, Type (0, 1), BuildingBlock: CIFDUS_clean_linker_0, # of connection points: 2
#     Edge 123, Type (0, 1), BuildingBlock: CIFDUS_clean_linker_0, # of connection points: 2
#     Edge 124, Type (0, 1), BuildingBlock: CIFDUS_clean_linker_0, # of connection points: 2
#     Edge 125, Type (0, 1), BuildingBlock: CIFDUS_clean_linker_0, # of connection points: 2
#     Edge 126, Type (0, 1), BuildingBlock: CIFDUS_clean_linker_0, # of connection points: 2
#     Edge 127, Type (0, 1), BuildingBlock: CIFDUS_clean_linker_0, # of connection points: 2
#     Edge 128, Type (0, 1), BuildingBlock: CIFDUS_clean_linker_0, # of connection points: 2
#     Edge 129, Type (0, 1), BuildingBlock: CIFDUS_clean_linker_0, # of connection points: 2
#     Edge 130, Type (0, 1), BuildingBlock: CIFDUS_clean_linker_0, # of connection points: 2
#     Edge 131, Type (0, 1), BuildingBlock: CIFDUS_clean_linker_0, # of connection points: 2
#     Edge 132, Type (0, 1), BuildingBlock: CIFDUS_clean_linker_0, # of connection points: 2
#     Edge 133, Type (0, 1), BuildingBlock: CIFDUS_clean_linker_0, # of connection points: 2
#     Edge 134, Type (0, 1), BuildingBlock: CIFDUS_clean_linker_0, # of connection points: 2
#     Edge 135, Type (0, 1), BuildingBlock: CIFDUS_clean_linker_0, # of connection points: 2
# Relax obj value: 0.110
# Max RMSD: 0.228
# Mean RMSD: 0.119
data_MOF--net-gar--node1-QUQFOY_clean_sbu_3--node2-CUKXOW_clean_sbu_0--edge1-CIFDUS_clean_linker_0
_symmetry_space_group_name_H-M    P1
_symmetry_Int_Tables_number       1
_symmetry_cell_setting            triclinic
loop_
_symmetry_equiv_pos_as_xyz
'x, y, z'
_cell_length_a     49.039695
_cell_length_b     48.366156
_cell_length_c     48.213061
_cell_angle_alpha  94.843591
_cell_angle_beta   95.319529
_cell_angle_gamma 99.445015
loop_
_atom_site_label
_atom_site_type_symbol
_atom_site_fract_x
_atom_site_fract_y
_atom_site_fract_z
_atom_type_partial_charge
C0 C 0.99207 0.28548 0.384 0.0
O1 O 0.0135 0.29638 0.37327 0.0
Cd2 Cd 0.06042 0.2951 0.38839 0.0
O3 O 0.99414 0.27251 0.40595 0.0
Cd4 Cd 0.03258 0.26143 0.43863 0.0
C5 C 0.05981 0.33156 0.4525 0.0
O6 O 0.05432 0.24802 0.39947 0.0
O7 O 0.07983 0.24767 0.43779 0.0
O8 O 0.00105 0.21874 0.44647 0.0
C9 C 0.07645 0.24258 0.41136 0.0
O10 O 0.0694 0.33033 0.42885 0.0
C11 C 0.0106 0.21906 0.47193 0.0
O12 O 0.04484 0.31011 0.46033 0.0
O13 O 0.02876 0.24015 0.48219 0.0
C14 C 0.95878 0.79113 0.65975 0.0
O15 O 0.97437 0.77579 0.67116 0.0
Cd16 Cd 0.01072 0.75727 0.65235 0.0
O17 O 0.96107 0.79776 0.63484 0.0
Cd18 Cd 0.99176 0.7915 0.59675 0.0
C19 C 0.97748 0.71956 0.59059 0.0
O20 O 0.02816 0.79791 0.63195 0.0
O21 O 0.04254 0.79081 0.59171 0.0
O22 O 0.99697 0.84009 0.58818 0.0
C23 C 0.04836 0.79613 0.61804 0.0
O24 O 0.98858 0.72077 0.61571 0.0
C25 C 0.9847 0.83631 0.56354 0.0
O26 O 0.97605 0.74179 0.57844 0.0
O27 O 0.97468 0.8111 0.55374 0.0
C28 C 0.48671 0.78209 0.87151 0.0
O29 O 0.50752 0.7976 0.86373 0.0
Cd30 Cd 0.55334 0.80248 0.88619 0.0
O31 O 0.48945 0.7681 0.89256 0.0
Cd32 Cd 0.52767 0.76076 0.92684 0.0
C33 C 0.54042 0.82939 0.9505 0.0
O34 O 0.5566 0.75434 0.89085 0.0
O35 O 0.57889 0.7597 0.93185 0.0
O36 O 0.50256 0.71331 0.92834 0.0
C37 C 0.57884 0.75343 0.90576 0.0
O38 O 0.55353 0.83346 0.9292 0.0
C39 C 0.50712 0.71377 0.95475 0.0
O40 O 0.52754 0.80508 0.9537 0.0
O41 O 0.52066 0.73637 0.96801 0.0
C42 C 0.46112 0.29083 0.16143 0.0
O43 O 0.47609 0.27576 0.17414 0.0
Cd44 Cd 0.51243 0.25589 0.15626 0.0
O45 O 0.46509 0.29744 0.13685 0.0
Cd46 Cd 0.49822 0.29288 0.10133 0.0
C47 C 0.47981 0.22164 0.09244 0.0
O48 O 0.53399 0.29572 0.13702 0.0
O49 O 0.54795 0.2893 0.09637 0.0
O50 O 0.50376 0.34225 0.09589 0.0
C51 C 0.55372 0.2926 0.12277 0.0
O52 O 0.48993 0.22133 0.11771 0.0
C53 C 0.49463 0.33944 0.07017 0.0
O54 O 0.48014 0.24459 0.08119 0.0
O55 O 0.48627 0.31452 0.05856 0.0
C56 C 0.94679 0.73732 0.207 0.0
O57 O 0.96387 0.72448 0.21988 0.0
Cd58 Cd 0.01209 0.72696 0.21196 0.0
O59 O 0.95398 0.7514 0.18684 0.0
Cd60 Cd 0.99633 0.75952 0.16096 0.0
C61 C 0.00763 0.69178 0.14727 0.0
O62 O 0.03164 0.77352 0.20228 0.0
O63 O 0.04652 0.77052 0.16152 0.0
O64 O 0.98991 0.80682 0.15146 0.0
C65 C 0.05199 0.77693 0.18768 0.0
O66 O 0.0157 0.69319 0.17326 0.0
C67 C 0.98628 0.80202 0.12498 0.0
O68 O 0.99718 0.7118 0.13723 0.0
O69 O 0.98592 0.77683 0.11486 0.0
C70 C 0.46817 0.78229 0.32855 0.0
O71 O 0.4823 0.79886 0.31409 0.0
Cd72 Cd 0.52905 0.81987 0.32858 0.0
O73 O 0.47947 0.77519 0.35125 0.0
Cd74 Cd 0.52777 0.7835 0.37784 0.0
C75 C 0.52258 0.85221 0.39305 0.0
O76 O 0.55088 0.77918 0.33548 0.0
O77 O 0.57882 0.79288 0.37299 0.0
O78 O 0.51352 0.73496 0.38842 0.0
C79 C 0.57559 0.78405 0.34719 0.0
O80 O 0.52482 0.855 0.36732 0.0
C81 C 0.5248 0.73861 0.41354 0.0
O82 O 0.5232 0.82854 0.40247 0.0
O83 O 0.53762 0.76324 0.42225 0.0
C84 C 0.44623 0.22811 0.70544 0.0
O85 O 0.46308 0.21345 0.71593 0.0
Cd86 Cd 0.50989 0.21362 0.70484 0.0
O87 O 0.45338 0.24431 0.68681 0.0
Cd88 Cd 0.49571 0.25761 0.662 0.0
C89 C 0.49986 0.19076 0.6349 0.0
O90 O 0.52846 0.26243 0.7045 0.0
O91 O 0.54711 0.27031 0.6666 0.0
O92 O 0.48417 0.30473 0.66116 0.0
C93 C 0.55029 0.26974 0.69291 0.0
O94 O 0.50857 0.1865 0.65961 0.0
C95 C 0.48481 0.30585 0.63501 0.0
O96 O 0.49197 0.21391 0.63016 0.0
O97 O 0.48985 0.28414 0.62108 0.0
C98 C 0.96887 0.28543 0.8271 0.0
O99 O 0.98192 0.30295 0.8127 0.0
Cd100 Cd 0.02897 0.32519 0.82438 0.0
O101 O 0.98111 0.27795 0.84911 0.0
Cd102 Cd 0.0299 0.28656 0.8743 0.0
C103 C 0.02698 0.35592 0.89094 0.0
O104 O 0.05052 0.28461 0.83045 0.0
O105 O 0.08039 0.29364 0.86694 0.0
O106 O 0.01591 0.23799 0.88456 0.0
C107 C 0.07572 0.28839 0.84056 0.0
O108 O 0.0279 0.35909 0.86509 0.0
C109 C 0.02721 0.24162 0.90967 0.0
O110 O 0.0273 0.3319 0.89971 0.0
O111 O 0.04019 0.26619 0.91839 0.0
C112 C 0.44815 0.06679 0.28915 0.0
O113 O 0.46088 0.05597 0.27044 0.0
Cd114 Cd 0.44502 0.04662 0.22224 0.0
O115 O 0.42523 0.07524 0.28247 0.0
Cd116 Cd 0.39635 0.07738 0.23599 0.0
C117 C 0.38155 0.00619 0.22829 0.0
O118 O 0.43474 0.09012 0.20804 0.0
O119 O 0.39724 0.06891 0.18386 0.0
O120 O 0.38507 0.12476 0.24956 0.0
C121 C 0.42169 0.08253 0.18409 0.0
O122 O 0.4054 0.00766 0.21944 0.0
C123 C 0.3591 0.11782 0.24222 0.0
O124 O 0.37331 0.02843 0.23773 0.0
O125 O 0.35058 0.0923 0.23258 0.0
C126 C 0.27676 0.07935 0.49509 0.0
O127 O 0.2534 0.06411 0.49691 0.0
Cd128 Cd 0.20878 0.07764 0.49061 0.0
O129 O 0.27836 0.10404 0.48707 0.0
Cd130 Cd 0.24707 0.13667 0.47068 0.0
C131 C 0.22546 0.13851 0.53602 0.0
O132 O 0.21031 0.1005 0.44913 0.0
O133 O 0.20017 0.14185 0.44994 0.0
O134 O 0.2773 0.15396 0.43594 0.0
C135 C 0.19199 0.11558 0.44432 0.0
O136 O 0.21243 0.11328 0.53055 0.0
C137 C 0.27754 0.17983 0.44373 0.0
O138 O 0.23954 0.15082 0.5183 0.0
O139 O 0.26454 0.18526 0.46455 0.0
C140 C 0.09979 0.99889 0.83854 0.0
O141 O 0.08641 0.00969 0.8197 0.0
Cd142 Cd 0.09848 0.01847 0.77429 0.0
O143 O 0.1235 0.99238 0.8348 0.0
Cd144 Cd 0.15311 0.9946 0.79469 0.0
C145 C 0.16117 0.06435 0.78535 0.0
O146 O 0.11491 0.97748 0.75837 0.0
O147 O 0.15334 0.99507 0.74358 0.0
O148 O 0.16414 0.94752 0.79327 0.0
C149 C 0.1285 0.98218 0.73774 0.0
O150 O 0.13579 0.05853 0.77507 0.0
C151 C 0.18986 0.95464 0.80119 0.0
O152 O 0.17303 0.04593 0.79682 0.0
O153 O 0.1989 0.98074 0.8079 0.0
C154 C 0.26227 0.93845 0.01908 0.0
O155 O 0.24715 0.94986 0.00219 0.0
Cd156 Cd 0.19818 0.93604 0.99043 0.0
O157 O 0.25146 0.91833 0.03231 0.0
Cd158 Cd 0.20419 0.89022 0.03608 0.0
C159 C 0.20242 0.86853 0.96463 0.0
O160 O 0.18127 0.93169 0.03504 0.0
O161 O 0.15272 0.89309 0.03475 0.0
O162 O 0.22137 0.8896 0.08614 0.0
C163 C 0.15634 0.91976 0.0352 0.0
O164 O 0.1968 0.89262 0.95996 0.0
C165 C 0.21535 0.86312 0.08692 0.0
O166 O 0.20672 0.86239 0.9898 0.0
O167 O 0.20351 0.849 0.06429 0.0
C168 C 0.31003 0.46326 0.05391 0.0
O169 O 0.29778 0.47563 0.03555 0.0
Cd170 Cd 0.25477 0.45803 0.00842 0.0
O171 O 0.29812 0.44007 0.06151 0.0
Cd172 Cd 0.25103 0.40993 0.0513 0.0
C173 C 0.26653 0.39143 0.98676 0.0
O174 O 0.22306 0.44499 0.0409 0.0
O175 O 0.20353 0.40208 0.02753 0.0
O176 O 0.24204 0.4067 0.09976 0.0
C177 C 0.2017 0.428 0.02974 0.0
O178 O 0.26365 0.41615 0.98121 0.0
C179 C 0.24098 0.38022 0.09867 0.0
O180 O 0.26374 0.38358 0.01102 0.0
O181 O 0.24531 0.36769 0.07568 0.0
C182 C 0.83918 0.12202 0.00876 0.0
O183 O 0.82088 0.11205 0.02395 0.0
Cd184 Cd 0.77819 0.12587 0.03382 0.0
O185 O 0.83637 0.14398 0.99618 0.0
Cd186 Cd 0.79872 0.17675 0.99451 0.0
C187 C 0.799 0.19251 0.06735 0.0
O188 O 0.75925 0.13756 0.99019 0.0
O189 O 0.74833 0.17881 0.99316 0.0
O190 O 0.79836 0.18528 0.94404 0.0
C191 C 0.74028 0.15239 0.99039 0.0
O192 O 0.78913 0.16663 0.06832 0.0
C193 C 0.80517 0.21192 0.94789 0.0
O194 O 0.80499 0.2018 0.04411 0.0
O195 O 0.81088 0.22232 0.9733 0.0
C196 C 0.05592 0.48759 0.31289 0.0
O197 O 0.04299 0.50113 0.29616 0.0
Cd198 Cd 0.0521 0.50944 0.24916 0.0
O199 O 0.0764 0.47645 0.30555 0.0
Cd200 Cd 0.10345 0.47487 0.26316 0.0
C201 C 0.11805 0.54726 0.26622 0.0
O202 O 0.06403 0.46859 0.22525 0.0
O203 O 0.10529 0.4758 0.21256 0.0
O204 O 0.11311 0.42649 0.2688 0.0
C205 C 0.0793 0.47175 0.20548 0.0
O206 O 0.09259 0.54607 0.2573 0.0
C207 C 0.13944 0.43358 0.27228 0.0
O208 O 0.12763 0.52498 0.27131 0.0
O209 O 0.14889 0.45959 0.27174 0.0
C210 C 0.80962 0.98619 0.55999 0.0
O211 O 0.79854 0.99939 0.54154 0.0
Cd212 Cd 0.75727 0.98488 0.51078 0.0
O213 O 0.79809 0.96167 0.56489 0.0
Cd214 Cd 0.75321 0.9292 0.54762 0.0
C215 C 0.77017 0.92193 0.48082 0.0
O216 O 0.72706 0.96591 0.54238 0.0
O217 O 0.7048 0.92534 0.52483 0.0
O218 O 0.74064 0.91003 0.59104 0.0
C219 C 0.70499 0.95156 0.52963 0.0
O220 O 0.76734 0.94725 0.47766 0.0
C221 C 0.74515 0.8855 0.58345 0.0
O222 O 0.76691 0.91171 0.50394 0.0
O223 O 0.75349 0.88162 0.55953 0.0
C224 C 0.91 0.04545 0.29897 0.0
O225 O 0.92268 0.02874 0.2854 0.0
Cd226 Cd 0.91224 0.0085 0.23804 0.0
O227 O 0.88845 0.05375 0.28789 0.0
Cd228 Cd 0.86047 0.04788 0.24086 0.0
C229 C 0.8445 0.97531 0.24082 0.0
O230 O 0.90344 0.05067 0.22124 0.0
O231 O 0.8698 0.05179 0.19013 0.0
O232 O 0.84969 0.09366 0.25876 0.0
C233 C 0.89552 0.05177 0.19587 0.0
O234 O 0.86959 0.97385 0.23691 0.0
C235 C 0.82613 0.0904 0.24436 0.0
O236 O 0.83643 0.99905 0.24414 0.0
O237 O 0.81851 0.06736 0.2288 0.0
C238 C 0.32855 0.61378 0.5178 0.0
O239 O 0.30797 0.60558 0.53103 0.0
Cd240 Cd 0.26509 0.62039 0.53576 0.0
O241 O 0.32887 0.63522 0.50366 0.0
Cd242 Cd 0.29374 0.67009 0.4966 0.0
C243 C 0.28818 0.6877 0.56787 0.0
O244 O 0.25423 0.63245 0.49043 0.0
O245 O 0.24332 0.6736 0.49118 0.0
O246 O 0.29506 0.67675 0.44622 0.0
C247 C 0.23528 0.64717 0.4885 0.0
O248 O 0.27629 0.66237 0.56861 0.0
C249 C 0.30386 0.70313 0.44946 0.0
O250 O 0.29698 0.69616 0.54527 0.0
O251 O 0.31034 0.71406 0.47463 0.0
C252 C 0.40768 0.54647 0.78804 0.0
O253 O 0.41906 0.53222 0.77049 0.0
Cd254 Cd 0.40441 0.52102 0.7218 0.0
O255 O 0.38619 0.55688 0.78044 0.0
Cd256 Cd 0.35543 0.55955 0.73692 0.0
C257 C 0.33852 0.48678 0.73036 0.0
O258 O 0.39528 0.56576 0.71182 0.0
O259 O 0.35773 0.56622 0.68558 0.0
O260 O 0.35226 0.60574 0.76022 0.0
C261 C 0.38396 0.56815 0.68782 0.0
O262 O 0.36239 0.48601 0.72222 0.0
C263 C 0.32651 0.60442 0.75277 0.0
O264 O 0.33121 0.51022 0.73783 0.0
O265 O 0.31405 0.58204 0.73813 0.0
C266 C 0.56045 0.01175 0.81236 0.0
O267 O 0.54933 0.02551 0.79444 0.0
Cd268 Cd 0.55285 0.0256 0.74544 0.0
O269 O 0.57655 0.99464 0.80531 0.0
Cd270 Cd 0.59736 0.98113 0.76087 0.0
C271 C 0.62298 0.05034 0.75358 0.0
O272 O 0.55502 0.97845 0.7293 0.0
O273 O 0.59105 0.97326 0.70884 0.0
O274 O 0.60483 0.93271 0.76924 0.0
C275 C 0.56542 0.97491 0.70649 0.0
O276 O 0.59836 0.0545 0.74686 0.0
C277 C 0.63124 0.939 0.77118 0.0
O278 O 0.62782 0.02652 0.76009 0.0
O279 O 0.64136 0.96445 0.76874 0.0
C280 C 0.79318 0.61376 0.98809 0.0
O281 O 0.77171 0.59752 0.99364 0.0
Cd282 Cd 0.72567 0.60709 0.99286 0.0
O283 O 0.79152 0.63777 0.97954 0.0
Cd284 Cd 0.75545 0.66699 0.96934 0.0
C285 C 0.74488 0.66754 0.03794 0.0
O286 O 0.71874 0.62888 0.95108 0.0
O287 O 0.70542 0.6685 0.95797 0.0
O288 O 0.77915 0.68922 0.93237 0.0
C289 C 0.69876 0.64239 0.95037 0.0
O290 O 0.73118 0.6425 0.03343 0.0
C291 C 0.77751 0.71406 0.94236 0.0
O292 O 0.75642 0.67969 0.01862 0.0
O293 O 0.76623 0.71657 0.96487 0.0
C294 C 0.9438 0.57721 0.7978 0.0
O295 O 0.95775 0.56478 0.7814 0.0
Cd296 Cd 0.9454 0.55339 0.73248 0.0
O297 O 0.92243 0.58677 0.78798 0.0
Cd298 Cd 0.89833 0.58798 0.73891 0.0
C299 C 0.8799 0.5175 0.73671 0.0
O300 O 0.93868 0.59559 0.71218 0.0
O301 O 0.90104 0.57461 0.6879 0.0
O302 O 0.88679 0.63627 0.74679 0.0
C303 C 0.92612 0.58656 0.68822 0.0
O304 O 0.90409 0.51624 0.72958 0.0
C305 C 0.86094 0.62856 0.73906 0.0
O306 O 0.87288 0.54118 0.74315 0.0
O307 O 0.85287 0.60249 0.73153 0.0
C308 C 0.75741 0.44067 0.5049 0.0
O309 O 0.73994 0.44872 0.48753 0.0
Cd310 Cd 0.69156 0.43317 0.47839 0.0
O311 O 0.74973 0.42177 0.52106 0.0
Cd312 Cd 0.70512 0.39128 0.5309 0.0
C313 C 0.69983 0.3646 0.45997 0.0
O314 O 0.68448 0.43201 0.52582 0.0
O315 O 0.65476 0.39916 0.53771 0.0
O316 O 0.72965 0.39138 0.57871 0.0
C317 C 0.66007 0.42433 0.53149 0.0
O318 O 0.69268 0.38752 0.45329 0.0
C319 C 0.72018 0.36582 0.58173 0.0
O320 O 0.70549 0.36088 0.48571 0.0
O321 O 0.70352 0.35225 0.56148 0.0
C322 C 0.5999 0.49247 0.34489 0.0
O323 O 0.58729 0.50602 0.32794 0.0
Cd324 Cd 0.60224 0.52339 0.28685 0.0
O325 O 0.62373 0.48648 0.34059 0.0
Cd326 Cd 0.65458 0.49336 0.30112 0.0
C327 C 0.66553 0.56557 0.31001 0.0
O328 O 0.61632 0.4833 0.26449 0.0
O329 O 0.65502 0.50172 0.25085 0.0
O330 O 0.66479 0.44548 0.2939 0.0
C331 C 0.62978 0.49025 0.24438 0.0
O332 O 0.63991 0.5632 0.30113 0.0
C333 C 0.69042 0.45172 0.30266 0.0
O334 O 0.67673 0.54376 0.31257 0.0
O335 O 0.69955 0.47728 0.31182 0.0
Tb336 Tb 0.00489 0.05159 0.00648 0.0
C337 C 0.01059 0.99912 0.96593 0.0
Tb338 Tb 0.99199 0.99118 0.02595 0.0
O339 O 0.04939 0.04946 0.00606 0.0
O340 O 0.02561 0.02517 0.03125 0.0
O341 O 0.00423 0.02477 0.96796 0.0
C342 C 0.99571 0.94476 0.05144 0.0
O343 O 0.01033 0.98299 0.98694 0.0
C344 C 0.94739 0.01297 0.01002 0.0
C345 C 0.98259 0.04382 0.06504 0.0
O346 O 0.98264 0.94503 0.02668 0.0
O347 O 0.00685 0.97031 0.06117 0.0
O348 O 0.94724 0.99172 0.02486 0.0
O349 O 0.97117 0.01758 0.00147 0.0
O350 O 0.98902 0.01813 0.06379 0.0
O351 O 0.98525 0.06009 0.04428 0.0
C352 C 0.00226 0.09955 0.98359 0.0
O353 O 0.01718 0.09755 0.00689 0.0
O354 O 0.98896 0.0748 0.97369 0.0
C355 C 0.04895 0.02891 0.02176 0.0
Tb356 Tb 0.26933 0.80953 0.26717 0.0
C357 C 0.31104 0.76689 0.26537 0.0
Tb358 Tb 0.24684 0.74321 0.25892 0.0
O359 O 0.28748 0.8069 0.31062 0.0
O360 O 0.25499 0.77664 0.29161 0.0
O361 O 0.30556 0.79138 0.25793 0.0
C362 C 0.22468 0.69052 0.26701 0.0
O363 O 0.29153 0.74614 0.27092 0.0
C364 C 0.24707 0.7667 0.21054 0.0
C365 C 0.20465 0.7861 0.26027 0.0
O366 O 0.2491 0.69799 0.25875 0.0
O367 O 0.21326 0.71266 0.27089 0.0
O368 O 0.23839 0.74011 0.21244 0.0
O369 O 0.25635 0.77683 0.23503 0.0
O370 O 0.20954 0.76075 0.26564 0.0
O371 O 0.22453 0.80758 0.25712 0.0
C372 C 0.28778 0.86271 0.25796 0.0
O373 O 0.27158 0.85519 0.27698 0.0
O374 O 0.2932 0.84033 0.24425 0.0
C375 C 0.2726 0.78249 0.31291 0.0
Tb376 Tb 0.52836 0.02318 0.49102 0.0
C377 C 0.51595 0.00579 0.55082 0.0
Tb378 Tb 0.4712 0.02745 0.50977 0.0
O379 O 0.54838 0.05666 0.52302 0.0
O380 O 0.50766 0.05596 0.50535 0.0
O381 O 0.53053 0.00252 0.52925 0.0
C382 C 0.42728 0.04437 0.53008 0.0
O383 O 0.49288 0.01713 0.5488 0.0
C384 C 0.47507 0.98159 0.47815 0.0
C385 C 0.48367 0.04462 0.44985 0.0
O386 O 0.42896 0.0185 0.52175 0.0
O387 O 0.4508 0.06035 0.52802 0.0
O388 O 0.4527 0.99274 0.47739 0.0
O389 O 0.49262 0.99505 0.49708 0.0
O390 O 0.46791 0.04673 0.47062 0.0
O391 O 0.5073 0.03448 0.4526 0.0
C392 C 0.57122 0.0049 0.46977 0.0
O393 O 0.57128 0.03028 0.48104 0.0
O394 O 0.54652 0.99035 0.46942 0.0
C395 C 0.52632 0.06814 0.52425 0.0
Tb396 Tb 0.27243 0.28301 0.79174 0.0
C397 C 0.27475 0.32667 0.74576 0.0
Tb398 Tb 0.24824 0.26318 0.72948 0.0
O399 O 0.30597 0.25853 0.78766 0.0
O400 O 0.28805 0.27401 0.75294 0.0
O401 O 0.27272 0.32292 0.77263 0.0
C402 C 0.24382 0.2394 0.6774 0.0
O403 O 0.26968 0.30544 0.72559 0.0
C404 C 0.20955 0.27788 0.75996 0.0
C405 C 0.24204 0.22044 0.7761 0.0
O406 O 0.23828 0.26426 0.68447 0.0
O407 O 0.25207 0.2282 0.69953 0.0
O408 O 0.20461 0.26864 0.73354 0.0
O409 O 0.23493 0.27845 0.76646 0.0
O410 O 0.24413 0.22396 0.74929 0.0
O411 O 0.24897 0.24149 0.79642 0.0
C412 C 0.28462 0.30916 0.84321 0.0
O413 O 0.26417 0.2885 0.83542 0.0
O414 O 0.29833 0.31496 0.82208 0.0
C415 C 0.30478 0.25834 0.76061 0.0
Tb416 Tb 0.98912 0.03807 0.50085 0.0
C417 C 0.9666 0.0235 0.55696 0.0
Tb418 Tb 0.03018 0.02968 0.55017 0.0
O419 O 0.9739 0.99222 0.4926 0.0
O420 O 0.01372 0.00764 0.51108 0.0
O421 O 0.96449 0.03959 0.53609 0.0
C422 C 0.06198 0.01123 0.59002 0.0
O423 O 0.98983 0.01396 0.56423 0.0
C424 C 0.02358 0.08223 0.54643 0.0
C425 C 0.05278 0.04352 0.49376 0.0
O426 O 0.03544 0.00261 0.58391 0.0
O427 O 0.0704 0.03018 0.57387 0.0
O428 O 0.04517 0.0752 0.55966 0.0
O429 O 0.00569 0.06048 0.53983 0.0
O430 O 0.05498 0.028 0.51503 0.0
O431 O 0.02958 0.05318 0.48659 0.0
C432 C 0.95947 0.05635 0.459 0.0
O433 O 0.98604 0.06373 0.46576 0.0
O434 O 0.9496 0.03883 0.47596 0.0
C435 C 0.99611 0.98566 0.50511 0.0
Tb436 Tb 0.28047 0.77624 0.78549 0.0
C437 C 0.2327 0.79484 0.81741 0.0
Tb438 Tb 0.22422 0.77492 0.75191 0.0
O439 O 0.28658 0.82218 0.79491 0.0
O440 O 0.26263 0.80271 0.75889 0.0
O441 O 0.25548 0.78322 0.82005 0.0
C442 C 0.17886 0.78658 0.72414 0.0
O443 O 0.21923 0.79656 0.79251 0.0
C444 C 0.23347 0.72478 0.76323 0.0
C445 C 0.27218 0.75754 0.72008 0.0
O446 O 0.20258 0.78689 0.71438 0.0
O447 O 0.18057 0.77976 0.74961 0.0
O448 O 0.21518 0.729 0.7436 0.0
O449 O 0.24215 0.74794 0.77798 0.0
O450 O 0.25013 0.77014 0.71797 0.0
O451 O 0.28509 0.75434 0.74479 0.0
C452 C 0.32905 0.76802 0.80929 0.0
O453 O 0.32542 0.78096 0.78713 0.0
O454 O 0.30524 0.7596 0.81828 0.0
C455 C 0.26976 0.82594 0.77376 0.0
Tb456 Tb 0.47671 0.01427 0.00525 0.0
C457 C 0.52561 0.98122 0.01177 0.0
Tb458 Tb 0.53594 0.04794 0.01261 0.0
O459 O 0.48358 0.99178 0.96623 0.0
O460 O 0.5051 0.03279 0.97822 0.0
O461 O 0.4993 0.981 0.0166 0.0
C462 C 0.58928 0.06924 0.00867 0.0
O463 O 0.54215 0.00438 0.00656 0.0
C464 C 0.50942 0.04898 0.05778 0.0
C465 C 0.48761 0.08096 0.00617 0.0
O466 O 0.58044 0.05229 0.02664 0.0
O467 O 0.56809 0.07429 0.99293 0.0
O468 O 0.52917 0.06889 0.05315 0.0
O469 O 0.50771 0.02883 0.03904 0.0
O470 O 0.51337 0.08054 0.00029 0.0
O471 O 0.47112 0.05819 0.01227 0.0
C472 C 0.42223 0.99596 0.00514 0.0
O473 O 0.43387 0.01028 0.98655 0.0
O474 O 0.44139 0.99149 0.02392 0.0
C475 C 0.50311 0.01137 0.9607 0.0
Tb476 Tb 0.23752 0.27475 0.28622 0.0
C477 C 0.28353 0.29121 0.33743 0.0
Tb478 Tb 0.29627 0.30632 0.27824 0.0
O479 O 0.24564 0.23665 0.26204 0.0
O480 O 0.27794 0.26487 0.28443 0.0
O481 O 0.25692 0.29035 0.32856 0.0
C482 C 0.34482 0.31359 0.25797 0.0
O483 O 0.30318 0.29379 0.3202 0.0
C484 C 0.26235 0.3429 0.28717 0.0
C485 C 0.24801 0.29331 0.22829 0.0
O486 O 0.34141 0.32106 0.28384 0.0
O487 O 0.32131 0.30186 0.24418 0.0
O488 O 0.28857 0.35012 0.28414 0.0
O489 O 0.25771 0.3165 0.28626 0.0
O490 O 0.27484 0.29462 0.23609 0.0
O491 O 0.22884 0.28967 0.24584 0.0
C492 C 0.19016 0.25563 0.30613 0.0
O493 O 0.19261 0.27228 0.2864 0.0
O494 O 0.21421 0.24971 0.31439 0.0
C495 C 0.2725 0.24314 0.26736 0.0
Tb496 Tb 0.50167 0.53621 0.9922 0.0
C497 C 0.4644 0.52679 0.04142 0.0
Tb498 Tb 0.52964 0.53837 0.05486 0.0
O499 O 0.49033 0.49048 0.99032 0.0
O500 O 0.52489 0.51167 0.01666 0.0
O501 O 0.46661 0.53647 0.01651 0.0
C502 C 0.55904 0.5274 0.10053 0.0
O503 O 0.48586 0.52165 0.05811 0.0
C504 C 0.5135 0.58608 0.04352 0.0
C505 C 0.56533 0.55964 0.00736 0.0
O506 O 0.53515 0.51271 0.0898 0.0
O507 O 0.56582 0.5482 0.08586 0.0
O508 O 0.52524 0.58262 0.068 0.0
O509 O 0.51161 0.56329 0.02879 0.0
O510 O 0.56494 0.54677 0.03065 0.0
O511 O 0.54252 0.56114 0.99092 0.0
C512 C 0.48526 0.54305 0.93956 0.0
O513 O 0.50698 0.53255 0.9478 0.0
O514 O 0.47257 0.54973 0.96101 0.0
C515 C 0.50953 0.48812 0.00988 0.0
Tb516 Tb 0.78841 0.27657 0.28668 0.0
C517 C 0.73757 0.29009 0.31704 0.0
Tb518 Tb 0.73217 0.26929 0.25208 0.0
O519 O 0.7903 0.32191 0.29635 0.0
O520 O 0.76779 0.30112 0.25991 0.0
O521 O 0.76197 0.28145 0.3205 0.0
C522 C 0.68416 0.27397 0.22448 0.0
O523 O 0.72401 0.28992 0.29183 0.0
C524 C 0.74769 0.22176 0.26423 0.0
C525 C 0.78273 0.25883 0.22084 0.0
O526 O 0.70829 0.2808 0.21577 0.0
O527 O 0.68694 0.26458 0.24881 0.0
O528 O 0.73037 0.2239 0.24289 0.0
O529 O 0.75256 0.24499 0.27929 0.0
O530 O 0.75884 0.26829 0.21847 0.0
O531 O 0.79623 0.25703 0.24573 0.0
C532 C 0.83679 0.27172 0.31374 0.0
O533 O 0.83363 0.28695 0.29317 0.0
O534 O 0.81271 0.25899 0.31898 0.0
C535 C 0.77278 0.32428 0.27522 0.0
Tb536 Tb 0.97464 0.50855 0.50849 0.0
C537 C 0.02236 0.47419 0.51442 0.0
Tb538 Tb 0.0339 0.54069 0.5146 0.0
O539 O 0.9804 0.48733 0.46779 0.0
O540 O 0.00206 0.52759 0.48106 0.0
O541 O 0.99666 0.47531 0.52015 0.0
C542 C 0.08656 0.56176 0.50869 0.0
O543 O 0.0392 0.49656 0.50785 0.0
C544 C 0.00909 0.54309 0.56072 0.0
C545 C 0.98602 0.57504 0.5104 0.0
O546 O 0.07857 0.54495 0.52708 0.0
O547 O 0.06494 0.56671 0.49359 0.0
O548 O 0.02929 0.56219 0.55546 0.0
O549 O 0.00619 0.52261 0.54204 0.0
O550 O 0.01154 0.57412 0.50393 0.0
O551 O 0.96924 0.55245 0.51653 0.0
C552 C 0.9217 0.48756 0.51323 0.0
O553 O 0.93023 0.50415 0.49484 0.0
O554 O 0.94296 0.48262 0.52883 0.0
C555 C -0.00022 0.50721 0.46246 0.0
Tb556 Tb 0.77312 0.77999 0.30635 0.0
C557 C 0.77399 0.81807 0.2572 0.0
Tb558 Tb 0.7545 0.7524 0.24886 0.0
O559 O 0.81639 0.78935 0.29774 0.0
O560 O 0.79042 0.75363 0.27728 0.0
O561 O 0.76902 0.81674 0.2837 0.0
C562 C 0.74636 0.72947 0.196 0.0
O563 O 0.77162 0.79491 0.23973 0.0
C564 C 0.71412 0.7653 0.2775 0.0
C565 C 0.75594 0.71358 0.2966 0.0
O566 O 0.72984 0.72392 0.21492 0.0
O567 O 0.76763 0.74816 0.20669 0.0
O568 O 0.71116 0.74445 0.25827 0.0
O569 O 0.73795 0.77961 0.27774 0.0
O570 O 0.76066 0.71577 0.27023 0.0
O571 O 0.75711 0.7363 0.31453 0.0
C572 C 0.77729 0.80376 0.35887 0.0
O573 O 0.79433 0.81043 0.34065 0.0
O574 O 0.75804 0.78313 0.34779 0.0
C575 C 0.81393 0.76895 0.27809 0.0
Tb576 Tb 0.77542 0.31169 0.75983 0.0
C577 C 0.81332 0.26541 0.76133 0.0
Tb578 Tb 0.7482 0.24863 0.75639 0.0
O579 O 0.79334 0.31157 0.80393 0.0
O580 O 0.75858 0.28307 0.78744 0.0
O581 O 0.81017 0.2903 0.75321 0.0
C582 C 0.72215 0.19871 0.76762 0.0
O583 O 0.79225 0.24647 0.76699 0.0
C584 C 0.7459 0.27019 0.70774 0.0
C585 C 0.71014 0.29466 0.7515 0.0
O586 O 0.74142 0.20229 0.75075 0.0
O587 O 0.71831 0.22303 0.77837 0.0
O588 O 0.73039 0.24715 0.71279 0.0
O589 O 0.76452 0.27722 0.72828 0.0
O590 O 0.71287 0.27007 0.76068 0.0
O591 O 0.7318 0.31361 0.74719 0.0
C592 C 0.79968 0.362 0.74741 0.0
O593 O 0.78117 0.3581 0.76507 0.0
O594 O 0.80414 0.3378 0.73703 0.0
C595 C 0.77677 0.2889 0.80831 0.0
Tb596 Tb 0.73581 0.78359 0.77253 0.0
C597 C 0.78826 0.8017 0.81766 0.0
Tb598 Tb 0.78744 0.81696 0.75666 0.0
O599 O 0.74389 0.74373 0.75182 0.0
O600 O 0.77637 0.77541 0.76741 0.0
O601 O 0.76079 0.79649 0.81295 0.0
C602 C 0.83199 0.83417 0.73066 0.0
O603 O 0.80392 0.80634 0.79706 0.0
C604 C 0.75309 0.84811 0.77748 0.0
C605 C 0.73706 0.79702 0.71175 0.0
O606 O 0.83236 0.82747 0.75611 0.0
O607 O 0.80642 0.83167 0.72 0.0
O608 O 0.77984 0.85599 0.77897 0.0
O609 O 0.74687 0.8253 0.762 0.0
O610 O 0.76404 0.79723 0.71719 0.0
O611 O 0.72103 0.79625 0.73242 0.0
C612 C 0.69239 0.76803 0.8003 0.0
O613 O 0.71327 0.7878 0.80898 0.0
O614 O 0.69539 0.75724 0.7754 0.0
C615 C 0.77055 0.75203 0.75289 0.0
Tb616 Tb 0.501 0.54711 0.50906 0.0
C617 C 0.50845 0.49492 0.46911 0.0
Tb618 Tb 0.48242 0.48671 0.52584 0.0
O619 O 0.54488 0.54149 0.51173 0.0
O620 O 0.51733 0.51915 0.53524 0.0
O621 O 0.50371 0.52119 0.47075 0.0
C622 C 0.47885 0.43618 0.54522 0.0
O623 O 0.50505 0.47848 0.48968 0.0
C624 C 0.44192 0.51223 0.50623 0.0
C625 C 0.47812 0.53898 0.5674 0.0
O626 O 0.47343 0.4403 0.51912 0.0
O627 O 0.48619 0.46031 0.56 0.0
O628 O 0.43852 0.49202 0.52234 0.0
O629 O 0.46629 0.51441 0.49948 0.0
O630 O 0.48286 0.51269 0.56496 0.0
O631 O 0.48092 0.55568 0.54695 0.0
C632 C 0.50047 0.59584 0.48682 0.0
O633 O 0.5169 0.59254 0.50868 0.0
O634 O 0.48464 0.572 0.47811 0.0
C635 C 0.54157 0.52133 0.52802 0.0
Tb636 Tb 0.03436 0.52567 0.00107 0.0
C637 C 0.01307 0.50959 0.05797 0.0
Tb638 Tb 0.9743 0.52974 0.00929 0.0
O639 O 0.0489 0.56013 0.03433 0.0
O640 O 0.01151 0.55836 0.0092 0.0
O641 O 0.03118 0.50609 0.03975 0.0
C642 C 0.92771 0.54645 0.02224 0.0
O643 O 0.99043 0.52075 0.05143 0.0
C644 C 0.98163 0.48432 0.9795 0.0
C645 C 0.99615 0.54548 0.95211 0.0
O646 O 0.93104 0.52035 0.0184 0.0
O647 O 0.95081 0.56285 0.01961 0.0
O648 O 0.95948 0.49561 0.97587 0.0
O649 O 0.99698 0.49709 0.00062 0.0
O650 O 0.97702 0.54808 0.96951 0.0
O651 O 0.01914 0.53537 0.95946 0.0
C652 C 0.08059 0.50891 0.98678 0.0
O653 O 0.07845 0.53469 0.9949 0.0
O654 O 0.05656 0.49293 0.98616 0.0
C655 C 0.0268 0.57143 0.03016 0.0
H656 H 0.9929 0.19117 0.89983 0.0
H657 H 0.05666 0.23996 0.96045 0.0
H658 H 0.0538 0.2008 0.98971 0.0
H659 H 0.03417 0.15172 0.99712 0.0
H660 H 0.96998 0.10393 0.93627 0.0
H661 H 0.97181 0.14369 0.90826 0.0
C662 C 0.00618 0.19327 0.91945 0.0
C663 C 0.02513 0.21833 0.92782 0.0
C664 C 0.00428 0.17083 0.9362 0.0
C665 C 0.04194 0.22083 0.95348 0.0
C666 C 0.04032 0.19845 0.97022 0.0
C667 C 0.02045 0.15022 0.97787 0.0
C668 C 0.0021 0.12493 0.96866 0.0
C669 C 0.02169 0.17323 0.9617 0.0
C670 C 0.98439 0.12315 0.94371 0.0
C671 C 0.98545 0.14586 0.92763 0.0
H672 H 0.07442 0.76808 0.23923 0.0
H673 H 0.09478 0.80524 0.16394 0.0
H674 H 0.14397 0.81567 0.18211 0.0
H675 H 0.1817 0.80953 0.21708 0.0
H676 H 0.16191 0.7673 0.2897 0.0
H677 H 0.11215 0.76393 0.27534 0.0
C678 C 0.08961 0.7789 0.22709 0.0
C679 C 0.08107 0.78588 0.20032 0.0
C680 C 0.11801 0.78385 0.23723 0.0
C681 C 0.10095 0.79954 0.18457 0.0
C682 C 0.12906 0.80552 0.19494 0.0
C683 C 0.16643 0.80033 0.2301 0.0
C684 C 0.17528 0.78902 0.25456 0.0
C685 C 0.13792 0.79717 0.22094 0.0
C686 C 0.15542 0.77635 0.27089 0.0
C687 C 0.12702 0.77427 0.2626 0.0
H688 H 0.48987 0.89072 0.38113 0.0
H689 H 0.54356 0.86669 0.44748 0.0
H690 H 0.53383 0.90496 0.4796 0.0
H691 H 0.50926 0.94462 0.48906 0.0
H692 H 0.45281 0.96662 0.42397 0.0
H693 H 0.46394 0.92952 0.39114 0.0
C694 C 0.49958 0.89408 0.40258 0.0
C695 C 0.51763 0.87617 0.41192 0.0
C696 C 0.49307 0.91548 0.42117 0.0
C697 C 0.52966 0.88029 0.43986 0.0
C698 C 0.52404 0.90209 0.45822 0.0
C699 C 0.49939 0.94119 0.46767 0.0
C700 C 0.48037 0.95827 0.45878 0.0
C701 C 0.50563 0.91966 0.44916 0.0
C702 C 0.46743 0.95356 0.43121 0.0
C703 C 0.47393 0.9325 0.41244 0.0
H704 H 0.40208 0.25133 0.68497 0.0
H705 H 0.42906 0.20431 0.75154 0.0
H706 H 0.38671 0.2077 0.77326 0.0
H707 H 0.34369 0.22713 0.77556 0.0
H708 H 0.31585 0.27337 0.70894 0.0
H709 H 0.35655 0.26688 0.68494 0.0
C710 C 0.39859 0.24161 0.70408 0.0
C711 C 0.41899 0.22786 0.71669 0.0
C712 C 0.37402 0.24356 0.71656 0.0
C713 C 0.41388 0.21513 0.74134 0.0
C714 C 0.38964 0.2171 0.75388 0.0
C715 C 0.34639 0.23547 0.75561 0.0
C716 C 0.32704 0.25097 0.7442 0.0
C717 C 0.36984 0.23171 0.74199 0.0
C718 C 0.33058 0.26145 0.71821 0.0
C719 C 0.35391 0.25785 0.70454 0.0
H720 H 0.02357 0.88238 0.56573 0.0
H721 H 0.94251 0.84424 0.52519 0.0
H722 H 0.93896 0.88728 0.50237 0.0
H723 H 0.95819 0.93698 0.49661 0.0
H724 H 0.0408 0.97283 0.53507 0.0
H725 H 0.04455 0.92943 0.5562 0.0
C726 C 0.00519 0.88346 0.55174 0.0
C727 C 0.98317 0.86053 0.54732 0.0
C728 C 0.00357 0.90787 0.53855 0.0
C729 C 0.95968 0.8618 0.52883 0.0
C730 C 0.95763 0.88639 0.51593 0.0
C731 C 0.97706 0.93508 0.50939 0.0
C732 C -0.00105 0.95819 0.51489 0.0
C733 C 0.97931 0.90973 0.521 0.0
C734 C 0.02347 0.95548 0.5311 0.0
C735 C 0.02568 0.93065 0.54309 0.0
H736 H 0.43702 0.75516 0.88451 0.0
H737 H 0.47444 0.80517 0.82329 0.0
H738 H 0.42888 0.80362 0.79791 0.0
H739 H 0.37854 0.78974 0.79397 0.0
H740 H 0.34031 0.74098 0.85537 0.0
H741 H 0.38627 0.74009 0.87978 0.0
C742 C 0.43522 0.76562 0.86557 0.0
C743 C 0.45908 0.78038 0.85591 0.0
C744 C 0.40891 0.76485 0.85113 0.0
C745 C 0.4564 0.7938 0.8313 0.0
C746 C 0.43037 0.79291 0.81672 0.0
C747 C 0.3803 0.77876 0.8126 0.0
C748 C 0.35632 0.76555 0.82304 0.0
C749 C 0.40653 0.77873 0.82659 0.0
C750 C 0.35868 0.75136 0.84711 0.0
C751 C 0.38487 0.75091 0.86104 0.0
H752 H 0.48983 0.20867 0.03929 0.0
H753 H 0.45067 0.17384 0.10807 0.0
H754 H 0.444 0.12654 0.0834 0.0
H755 H 0.45649 0.09489 0.0464 0.0
H756 H 0.50239 0.12905 0.98135 0.0
H757 H 0.49877 0.17687 -8e-05 0.0
C758 C 0.47913 0.19076 0.04842 0.0
C759 C 0.47067 0.19453 0.07531 0.0
C760 C 0.47687 0.16353 0.03485 0.0
C761 C 0.45732 0.17126 0.08734 0.0
C762 C 0.45362 0.14427 0.07331 0.0
C763 C 0.46496 0.11277 0.03579 0.0
C764 C 0.47967 0.10862 0.01258 0.0
C765 C 0.46434 0.14008 0.04761 0.0
C766 C 0.49098 0.13189 0.99928 0.0
C767 C 0.48906 0.15918 0.00999 0.0
H768 H 0.07642 0.2449 0.35589 0.0
H769 H 0.12796 0.23147 0.42944 0.0
H770 H 0.16735 0.23066 0.40171 0.0
H771 H 0.18793 0.23882 0.3578 0.0
H772 H 0.13698 0.25724 0.28617 0.0
H773 H 0.09614 0.25086 0.312 0.0
C774 C 0.09617 0.24147 0.3659 0.0
C775 C 0.09943 0.23852 0.39472 0.0
C776 C 0.11871 0.2421 0.35019 0.0
C777 C 0.12508 0.234 0.4073 0.0
C778 C 0.14754 0.2336 0.39149 0.0
C779 C 0.16775 0.24095 0.34777 0.0
C780 C 0.1652 0.24845 0.32025 0.0
C781 C 0.14473 0.23837 0.36311 0.0
C782 C 0.13921 0.2515 0.3074 0.0
C783 C 0.11598 0.24792 0.32215 0.0
H784 H 0.89603 0.07488 0.14611 0.0
H785 H 0.9386 0.02332 0.1979 0.0
H786 H 0.97061 0.01791 0.16294 0.0
H787 H 0.9854 0.02602 0.11683 0.0
H788 H 0.94556 0.08027 0.06593 0.0
H789 H 0.91411 0.08695 0.10145 0.0
C790 C 0.91232 0.06247 0.1496 0.0
C791 C 0.91468 0.04914 0.1743 0.0
C792 C 0.93136 0.06017 0.12972 0.0
C793 C 0.93622 0.0336 0.17895 0.0
C794 C 0.95461 0.03054 0.15901 0.0
C795 C 0.97014 0.03969 0.11372 0.0
C796 C 0.96772 0.05245 0.08873 0.0
C797 C 0.95228 0.04357 0.13426 0.0
C798 C 0.948 0.07031 0.08509 0.0
C799 C 0.92979 0.07392 0.10528 0.0
H800 H 0.27369 0.68978 0.39836 0.0
H801 H 0.3329 0.75623 0.44653 0.0
H802 H 0.32953 0.78624 0.40826 0.0
H803 H 0.30806 0.79441 0.36154 0.0
H804 H 0.24623 0.72898 0.31565 0.0
H805 H 0.25225 0.69791 0.35223 0.0
C806 C 0.28616 0.7107 0.40039 0.0
C807 C 0.30375 0.72057 0.4253 0.0
C808 C 0.28342 0.72818 0.37864 0.0
C809 C 0.3193 0.74799 0.42763 0.0
C810 C 0.3173 0.76521 0.40574 0.0
C811 C 0.29597 0.77332 0.35957 0.0
C812 C 0.27673 0.76398 0.33566 0.0
C813 C 0.29915 0.7557 0.38124 0.0
C814 C 0.2612 0.73665 0.33359 0.0
C815 C 0.26464 0.71886 0.35461 0.0
H816 H 0.58233 0.96692 0.65489 0.0
H817 H 0.51535 0.99262 0.69693 0.0
H818 H 0.49336 0.00373 0.65252 0.0
H819 H 0.4945 0.00845 0.60175 0.0
H820 H 0.56197 0.98194 0.56069 0.0
H821 H 0.58213 0.96898 0.60447 0.0
C822 C 0.5628 0.97475 0.65434 0.0
C823 C 0.55063 0.97904 0.67925 0.0
C824 C 0.55033 0.98117 0.62879 0.0
C825 C 0.52521 0.98906 0.67807 0.0
C826 C 0.51265 0.99555 0.65266 0.0
C827 C 0.51348 0.99965 0.60235 0.0
C828 C 0.52662 0.99641 0.57777 0.0
C829 C 0.52522 0.99205 0.62788 0.0
C830 C 0.55125 0.98488 0.57909 0.0
C831 C 0.56294 0.9774 0.60422 0.0
H832 H 0.29609 0.40287 0.94337 0.0
H833 H 0.24828 0.33482 0.9797 0.0
H834 H 0.25149 0.30231 0.93888 0.0
H835 H 0.26409 0.29459 0.89095 0.0
H836 H 0.31359 0.36222 0.8556 0.0
H837 H 0.31386 0.39361 0.89816 0.0
C838 C 0.28665 0.38084 0.94241 0.0
C839 C 0.27164 0.37123 0.96414 0.0
C840 C 0.28883 0.36232 0.91911 0.0
C841 C 0.2599 0.34261 0.96308 0.0
C842 C 0.26162 0.32408 0.93974 0.0
C843 C 0.27528 0.31609 0.89284 0.0
C844 C 0.28852 0.32632 0.87028 0.0
C845 C 0.27546 0.33389 0.91736 0.0
C846 C 0.30323 0.35401 0.87283 0.0
C847 C 0.30326 0.37197 0.89705 0.0
H848 H 0.88305 0.04437 0.34565 0.0
H849 H 0.963 0.06916 0.31639 0.0
H850 H 0.98477 0.08017 0.36459 0.0
H851 H 0.98217 0.07622 0.41443 0.0
H852 H 0.90352 0.04575 0.4439 0.0
H853 H 0.87991 0.04399 0.39655 0.0
C854 C 0.90509 0.05277 0.35001 0.0
C855 C 0.92154 0.05596 0.32781 0.0
C856 C 0.91766 0.0578 0.3778 0.0
C857 C 0.95011 0.06648 0.33339 0.0
C858 C 0.96253 0.07273 0.36087 0.0
C859 C 0.95977 0.06985 0.41057 0.0
C860 C 0.94455 0.06099 0.43239 0.0
C861 C 0.94669 0.06753 0.38319 0.0
C862 C 0.9156 0.05257 0.42724 0.0
C863 C 0.90216 0.05142 0.40018 0.0
H864 H 0.3006 0.67675 0.62117 0.0
H865 H 0.27846 0.74207 0.57257 0.0
H866 H 0.27224 0.77027 0.61561 0.0
H867 H 0.26905 0.77418 0.66699 0.0
H868 H 0.29404 0.70957 0.71517 0.0
H869 H 0.30324 0.68335 0.67254 0.0
C870 C 0.29492 0.69742 0.62006 0.0
C871 C 0.2899 0.70728 0.59371 0.0
C872 C 0.2916 0.7135 0.64486 0.0
C873 C 0.28269 0.73412 0.59258 0.0
C874 C 0.27887 0.75011 0.61719 0.0
C875 C 0.27683 0.75453 0.66813 0.0
C876 C 0.28068 0.74379 0.69427 0.0
C877 C 0.28262 0.7397 0.64343 0.0
C878 C 0.29102 0.71842 0.69543 0.0
C879 C 0.29618 0.70332 0.671 0.0
H880 H 0.5536 0.9739 0.8512 0.0
H881 H 0.55445 0.06137 0.83931 0.0
H882 H 0.54048 0.07016 0.88607 0.0
H883 H 0.52339 0.05204 0.92867 0.0
H884 H 0.51797 0.96368 0.93859 0.0
H885 H 0.5386 0.95621 0.8949 0.0
C886 C 0.55111 0.99491 0.8591 0.0
C887 C 0.5549 0.01689 0.84183 0.0
C888 C 0.54207 0.99964 0.88572 0.0
C889 C 0.55138 0.04403 0.85216 0.0
C890 C 0.54341 0.0491 0.87892 0.0
C891 C 0.52724 0.03132 0.92141 0.0
C892 C 0.51917 0.00844 0.9366 0.0
C893 C 0.53802 0.02695 0.89564 0.0
C894 C 0.5239 0.98157 0.92699 0.0
C895 C 0.53564 0.97727 0.90201 0.0
H896 H 0.25159 0.32826 0.10726 0.0
H897 H 0.21832 0.3978 0.1451 0.0
H898 H 0.21241 0.37373 0.18728 0.0
H899 H 0.22173 0.33548 0.21524 0.0
H900 H 0.26028 0.26904 0.17942 0.0
H901 H 0.25847 0.28878 0.13427 0.0
C902 C 0.24273 0.33796 0.12461 0.0
C903 C 0.23561 0.36481 0.12324 0.0
C904 C 0.24019 0.32441 0.14904 0.0
C905 C 0.22424 0.37724 0.14586 0.0
C906 C 0.22077 0.36347 0.16991 0.0
C907 C 0.22882 0.32492 0.19719 0.0
C908 C 0.24062 0.30069 0.20015 0.0
C909 C 0.22926 0.33735 0.17197 0.0
C910 C 0.25073 0.28752 0.17718 0.0
C911 C 0.24995 0.29895 0.15156 0.0
H912 H 0.15873 0.97533 0.02758 0.0
H913 H 0.10101 0.90113 0.04003 0.0
H914 H 0.06286 0.9282 0.03814 0.0
H915 H 0.04571 0.97305 0.03163 0.0
H916 H 0.10355 0.04647 0.01804 0.0
H917 H 0.14165 0.01968 0.02129 0.0
C918 C 0.13783 0.96502 0.02997 0.0
C919 C 0.13291 0.93613 0.03403 0.0
C920 C 0.11593 0.98067 0.0286 0.0
C921 C 0.10554 0.92325 0.03687 0.0
C922 C 0.08367 0.93877 0.03581 0.0
C923 C 0.06668 0.98334 0.03017 0.0
C924 C 0.07173 0.01202 0.02537 0.0
C925 C 0.08858 0.96754 0.03167 0.0
C926 C 0.09903 0.02457 0.02206 0.0
C927 C 0.12087 0.00922 0.02387 0.0
H928 H 0.68433 0.62802 -0.00045 0.0
H929 H 0.65235 0.62478 0.91296 0.0
H930 H 0.60747 0.59853 0.92295 0.0
H931 H 0.57813 0.57592 0.95668 0.0
H932 H 0.6127 0.57681 0.04259 0.0
H933 H 0.65635 0.60393 0.03238 0.0
C934 C 0.66761 0.62124 0.98286 0.0
C935 C 0.67139 0.62792 0.95563 0.0
C936 C 0.64261 0.60558 0.98863 0.0
C937 C 0.64961 0.61972 0.9341 0.0
C938 C 0.62414 0.60468 0.93981 0.0
C939 C 0.59528 0.58197 0.97311 0.0
C940 C 0.5922 0.57435 0.00035 0.0
C941 C 0.62051 0.59734 0.96702 0.0
C942 C 0.6146 0.58219 0.0214 0.0
C943 C 0.63951 0.59785 0.01565 0.0
H944 H 0.68467 0.40572 0.26498 0.0
H945 H 0.73768 0.4502 0.33672 0.0
H946 H 0.76804 0.41478 0.33427 0.0
H947 H 0.77915 0.37094 0.31197 0.0
H948 H 0.72861 0.32882 0.23785 0.0
H949 H 0.69759 0.36351 0.24079 0.0
C950 C 0.70283 0.40757 0.28012 0.0
C951 C 0.70881 0.43035 0.3012 0.0
C952 C 0.7206 0.3876 0.27805 0.0
C953 C 0.73265 0.43282 0.32037 0.0
C954 C 0.74999 0.41259 0.31895 0.0
C955 C 0.76146 0.36948 0.29631 0.0
C956 C 0.75581 0.34696 0.27494 0.0
C957 C 0.74417 0.38991 0.29787 0.0
C958 C 0.73301 0.34554 0.25473 0.0
C959 C 0.71535 0.36546 0.25641 0.0
H960 H 0.8026 0.42796 0.5361 0.0
H961 H 0.77913 0.48145 0.47378 0.0
H962 H 0.8276 0.5005 0.47116 0.0
H963 H 0.87674 0.50138 0.48525 0.0
H964 H 0.90142 0.44911 0.54782 0.0
H965 H 0.8525 0.43022 0.55164 0.0
C966 C 0.8081 0.44389 0.52209 0.0
C967 C 0.78713 0.45305 0.50509 0.0
C968 C 0.83626 0.45492 0.52058 0.0
C969 C 0.7947 0.4738 0.48707 0.0
C970 C 0.82249 0.48478 0.48548 0.0
C971 C 0.87138 0.48586 0.49973 0.0
C972 C 0.89245 0.47645 0.51607 0.0
C973 C 0.84341 0.47533 0.5019 0.0
C974 C 0.88538 0.45654 0.53494 0.0
C975 C 0.85747 0.44577 0.53713 0.0
H976 H 0.37106 0.17378 0.26196 0.0
H977 H 0.30308 0.10805 0.2271 0.0
H978 H 0.27063 0.14112 0.23034 0.0
H979 H 0.2611 0.18858 0.24405 0.0
H980 H 0.32872 0.25408 0.2799 0.0
H981 H 0.36162 0.22152 0.275 0.0
C982 C 0.34915 0.16668 0.25506 0.0
C983 C 0.33961 0.13835 0.24438 0.0
C984 C 0.33046 0.18588 0.25703 0.0
C985 C 0.3111 0.12964 0.23549 0.0
C986 C 0.29246 0.14858 0.23728 0.0
C987 C 0.28307 0.19575 0.25056 0.0
C988 C 0.29244 0.22374 0.26226 0.0
C989 C 0.30185 0.17673 0.24811 0.0
C990 C 0.32096 0.23267 0.27076 0.0
C991 C 0.33979 0.21401 0.26806 0.0
H992 H 0.32786 0.10953 0.51365 0.0
H993 H 0.28274 0.02446 0.49579 0.0
H994 H 0.32496 0.00595 0.50904 0.0
H995 H 0.37533 0.01392 0.52226 0.0
H996 H 0.42061 0.09886 0.5401 0.0
H997 H 0.37754 0.11747 0.53115 0.0
C998 C 0.32732 0.08695 0.51263 0.0
C999 C 0.30237 0.06839 0.50331 0.0
C1000 C 0.35159 0.07645 0.52062 0.0
C1001 C 0.30178 0.03918 0.50268 0.0
C1002 C 0.32587 0.02857 0.51033 0.0
C1003 C 0.37563 0.03647 0.52483 0.0
C1004 C 0.401 0.05502 0.53164 0.0
C1005 C 0.35095 0.047 0.51899 0.0
C1006 C 0.40122 0.08419 0.53487 0.0
C1007 C 0.37668 0.09484 0.52948 0.0
H1008 H 0.71871 0.58327 0.29881 0.0
H1009 H 0.64931 0.61242 0.33336 0.0
H1010 H 0.67366 0.66111 0.3369 0.0
H1011 H 0.71214 0.69589 0.32469 0.0
H1012 H 0.77881 0.66709 0.28476 0.0
H1013 H 0.75861 0.61809 0.28917 0.0
C1014 C 0.70926 0.60027 0.30768 0.0
C1015 C 0.6823 0.59427 0.31587 0.0
C1016 C 0.72293 0.62841 0.30854 0.0
C1017 C 0.67003 0.61654 0.32686 0.0
C1018 C 0.68393 0.6444 0.32885 0.0
C1019 C 0.72261 0.67886 0.31777 0.0
C1020 C 0.74709 0.685 0.3048 0.0
C1021 C 0.71006 0.65069 0.31903 0.0
C1022 C 0.76007 0.66279 0.29508 0.0
C1023 C 0.74842 0.63478 0.29742 0.0
H1024 H 0.88272 0.4646 0.71479 0.0
H1025 H 0.83325 0.51124 0.76422 0.0
H1026 H 0.80329 0.46739 0.77142 0.0
H1027 H 0.79253 0.41523 0.76555 0.0
H1028 H 0.84174 0.36939 0.71499 0.0
H1029 H 0.87024 0.41334 0.70634 0.0
C1030 C 0.86531 0.46521 0.72703 0.0
C1031 C 0.86041 0.49115 0.73911 0.0
C1032 C 0.84812 0.43997 0.731 0.0
C1033 C 0.83753 0.49156 0.75465 0.0
C1034 C 0.82042 0.46646 0.75888 0.0
C1035 C 0.80939 0.41499 0.75253 0.0
C1036 C 0.81519 0.38915 0.74115 0.0
C1037 C 0.82572 0.44048 0.74745 0.0
C1038 C 0.83694 0.38904 0.72412 0.0
C1039 C 0.8533 0.41416 0.71916 0.0
H1040 H 0.00347 0.85748 0.14016 0.0
H1041 H 0.96646 0.79855 0.06935 0.0
H1042 H 0.96589 0.83745 0.03984 0.0
H1043 H 0.97635 0.88873 0.03437 0.0
H1044 H 0.0159 0.9462 0.10548 0.0
H1045 H 0.01522 0.90742 0.13453 0.0
C1046 C 0.99506 0.85311 0.11832 0.0
C1047 C 0.98474 0.82523 0.10704 0.0
C1048 C 0.99546 0.87538 0.10145 0.0
C1049 C 0.9744 0.81989 0.07856 0.0
C1050 C 0.97413 0.84212 0.06169 0.0
C1051 C 0.98487 0.89262 0.05618 0.0
C1052 C 0.99607 0.92029 0.06777 0.0
C1053 C 0.98471 0.87001 0.07289 0.0
C1054 C 0.00717 0.9251 0.09603 0.0
C1055 C 0.00673 0.90294 0.11273 0.0
H1056 H 0.94237 0.28344 0.77519 0.0
H1057 H 0.92855 0.26195 0.85837 0.0
H1058 H 0.87847 0.24887 0.84378 0.0
H1059 H 0.83817 0.24945 0.80866 0.0
H1060 H 0.85314 0.27339 0.72657 0.0
H1061 H 0.90324 0.27894 0.73917 0.0
C1062 C 0.92847 0.27566 0.79012 0.0
C1063 C 0.93911 0.27417 0.81796 0.0
C1064 C 0.89988 0.26844 0.78166 0.0
C1065 C 0.92086 0.26349 0.83686 0.0
C1066 C 0.89223 0.25606 0.82853 0.0
C1067 C 0.85249 0.25488 0.79332 0.0
C1068 C 0.84216 0.26077 0.76665 0.0
C1069 C 0.88141 0.25914 0.80114 0.0
C1070 C 0.86076 0.26853 0.7471 0.0
C1071 C 0.88937 0.27197 0.7544 0.0
H1072 H 0.52919 0.14803 0.63471 0.0
H1073 H 0.47129 0.18444 0.58231 0.0
H1074 H 0.47296 0.14866 0.54362 0.0
H1075 H 0.49242 0.10775 0.52418 0.0
H1076 H 0.55233 0.07393 0.57662 0.0
H1077 H 0.54833 0.10789 0.61575 0.0
C1078 C 0.51677 0.14809 0.6149 0.0
C1079 C 0.50009 0.16886 0.61146 0.0
C1080 C 0.51831 0.12794 0.59267 0.0
C1081 C 0.48438 0.16875 0.5855 0.0
C1082 C 0.48531 0.14828 0.56337 0.0
C1083 C 0.50437 0.1078 0.54428 0.0
C1084 C 0.52261 0.08843 0.54761 0.0
C1085 C 0.5024 0.12788 0.56663 0.0
C1086 C 0.53829 0.0888 0.57356 0.0
C1087 C 0.53597 0.10816 0.59596 0.0
H1088 H 0.63078 0.8078 0.35767 0.0
H1089 H 0.57269 0.7469 0.30139 0.0
H1090 H 0.61038 0.73544 0.27543 0.0
H1091 H 0.65976 0.74228 0.26867 0.0
H1092 H 0.71793 0.80582 0.32171 0.0
H1093 H 0.68053 0.81667 0.34901 0.0
C1094 C 0.62647 0.79204 0.33973 0.0
C1095 C 0.59898 0.77812 0.33156 0.0
C1096 C 0.64828 0.78599 0.32435 0.0
C1097 C 0.59362 0.75798 0.30807 0.0
C1098 C 0.61518 0.75135 0.29322 0.0
C1099 C 0.66425 0.75854 0.28619 0.0
C1100 C 0.69161 0.77293 0.29346 0.0
C1101 C 0.64255 0.76517 0.30117 0.0
C1102 C 0.69708 0.79419 0.31597 0.0
C1103 C 0.67567 0.80044 0.33151 0.0
H1104 H 0.04019 0.20747 0.51815 0.0
H1105 H 0.96804 0.17407 0.45953 0.0
H1106 H 0.96368 0.12909 0.47997 0.0
H1107 H 0.98355 0.09788 0.5113 0.0
H1108 H 0.05883 0.13045 0.56569 0.0
H1109 H 0.05859 0.1773 0.55053 0.0
C1110 C 0.02312 0.19059 0.51023 0.0
C1111 C 0.00447 0.19407 0.48739 0.0
C1112 C 0.02152 0.16453 0.52119 0.0
C1113 C 0.98266 0.17187 0.47715 0.0
C1114 C 0.98025 0.14613 0.48872 0.0
C1115 C -0.00021 0.11531 0.51981 0.0
C1116 C 0.02139 0.11077 0.53921 0.0
C1117 C 9e-05 0.14196 0.51017 0.0
C1118 C 0.04214 0.13349 0.55052 0.0
C1119 C 0.04202 0.16024 0.54186 0.0
H1120 H 0.56365 0.28286 0.17626 0.0
H1121 H 0.60366 0.29415 0.10096 0.0
H1122 H 0.64826 0.2896 0.12628 0.0
H1123 H 0.6755 0.28309 0.1702 0.0
H1124 H 0.63408 0.27005 0.2444 0.0
H1125 H 0.58991 0.2747 0.21893 0.0
C1126 C 0.58208 0.28433 0.16528 0.0
C1127 C 0.58055 0.289 0.13688 0.0
C1128 C 0.6072 0.28144 0.17976 0.0
C1129 C 0.60449 0.29056 0.12287 0.0
C1130 C 0.62989 0.28803 0.13732 0.0
C1131 C 0.65674 0.2813 0.18068 0.0
C1132 C 0.65777 0.2764 0.20902 0.0
C1133 C 0.63145 0.2836 0.16582 0.0
C1134 C 0.63354 0.27382 0.22253 0.0
C1135 C 0.6084 0.27649 0.20803 0.0
H1136 H 0.57504 0.87967 0.96095 0.0
H1137 H 0.49836 0.83365 0.98294 0.0
H1138 H 0.48842 0.87647 0.00758 0.0
H1139 H 0.49846 0.92814 0.01695 0.0
H1140 H 0.57576 0.97362 0.99532 0.0
H1141 H 0.58861 0.92984 0.977 0.0
C1142 C 0.5564 0.87895 0.97155 0.0
C1143 C 0.53725 0.85375 0.96972 0.0
C1144 C 0.55077 0.9036 0.9856 0.0
C1145 C 0.5134 0.85291 0.98394 0.0
C1146 C 0.50761 0.87741 0.99792 0.0
C1147 C 0.51837 0.92843 0.00879 0.0
C1148 C 0.53574 0.95424 0.00697 0.0
C1149 C 0.52568 0.90308 0.99802 0.0
C1150 C 0.56169 0.95415 0.99668 0.0
C1151 C 0.5691 0.92909 0.98604 0.0
H1152 H 0.91335 0.81344 0.64177 0.0
H1153 H 0.96055 0.7953 0.71624 0.0
H1154 H 0.92759 0.81213 0.7452 0.0
H1155 H 0.88327 0.82728 0.74922 0.0
H1156 H 0.83331 0.84199 0.67532 0.0
H1157 H 0.86981 0.83217 0.64637 0.0
C1158 C 0.91645 0.81341 0.66434 0.0
C1159 C 0.93905 0.80268 0.67676 0.0
C1160 C 0.89706 0.8227 0.681 0.0
C1161 C 0.94299 0.8029 0.70606 0.0
C1162 C 0.92427 0.8127 0.72272 0.0
C1163 C 0.88065 0.82895 0.72685 0.0
C1164 C 0.85579 0.83516 0.7143 0.0
C1165 C 0.90096 0.82202 0.71037 0.0
C1166 C 0.85246 0.83724 0.68535 0.0
C1167 C 0.87316 0.83136 0.6688 0.0
H1168 H 0.04548 0.99525 0.84545 0.0
H1169 H 0.12456 0.98931 0.88975 0.0
H1170 H 0.10245 0.98382 0.93309 0.0
H1171 H 0.06134 0.98616 0.95919 0.0
H1172 H 0.98358 0.99486 0.91421 0.0
H1173 H 0.00427 0.99311 0.87006 0.0
C1174 C 0.05797 0.99264 0.86453 0.0
C1175 C 0.08674 0.99325 0.8645 0.0
C1176 C 0.04521 0.98969 0.88915 0.0
C1177 C 0.10241 0.9892 0.88928 0.0
C1178 C 0.08977 0.98604 0.91403 0.0
C1179 C 0.04882 0.98664 0.93951 0.0
C1180 C 0.02092 0.99018 0.93964 0.0
C1181 C 0.06127 0.98687 0.91434 0.0
C1182 C 0.00496 0.9917 0.91434 0.0
C1183 C 0.01687 0.99102 0.88921 0.0
H1184 H 0.70253 0.31201 0.5935 0.0
H1185 H 0.75645 0.38922 0.6279 0.0
H1186 H 0.77017 0.36687 0.66956 0.0
H1187 H 0.76635 0.32494 0.69671 0.0
H1188 H 0.71173 0.24849 0.6615 0.0
H1189 H 0.69893 0.27085 0.62007 0.0
C1190 C 0.71729 0.32403 0.61007 0.0
C1191 C 0.72837 0.35234 0.60738 0.0
C1192 C 0.7251 0.31106 0.634 0.0
C1193 C 0.74749 0.36743 0.62925 0.0
C1194 C 0.7554 0.35462 0.65315 0.0
C1195 C 0.752 0.31314 0.67985 0.0
C1196 C 0.74035 0.28489 0.6823 0.0
C1197 C 0.74437 0.32636 0.65581 0.0
C1198 C 0.72122 0.27017 0.6603 0.0
C1199 C 0.71377 0.28297 0.63649 0.0
H1200 H 0.42157 0.07143 0.33667 0.0
H1201 H 0.50107 0.06303 0.30834 0.0
H1202 H 0.51944 0.05694 0.35559 0.0
H1203 H 0.5122 0.05021 0.4042 0.0
H1204 H 0.43293 0.05816 0.43324 0.0
H1205 H 0.41548 0.06831 0.38679 0.0
C1206 C 0.44303 0.06875 0.34096 0.0
C1207 C 0.45976 0.06744 0.31884 0.0
C1208 C 0.45354 0.06485 0.36834 0.0
C1209 C 0.48755 0.06385 0.32483 0.0
C1210 C 0.49815 0.06031 0.3519 0.0
C1211 C 0.49116 0.05435 0.40049 0.0
C1212 C 0.47392 0.05315 0.42223 0.0
C1213 C 0.48117 0.06009 0.37368 0.0
C1214 C 0.44675 0.05885 0.41696 0.0
C1215 C 0.43668 0.06463 0.39032 0.0
H1216 H 0.71412 0.65534 0.08065 0.0
H1217 H 0.78311 0.71385 0.0584 0.0
H1218 H 0.78961 0.7384 0.10543 0.0
H1219 H 0.77625 0.74275 0.1532 0.0
H1220 H 0.70647 0.68519 0.17503 0.0
H1221 H 0.69969 0.66075 0.12782 0.0
C1222 C 0.73058 0.67344 0.08612 0.0
C1223 C 0.74816 0.68267 0.06617 0.0
C1224 C 0.73407 0.68762 0.11309 0.0
C1225 C 0.76922 0.70636 0.07341 0.0
C1226 C 0.77303 0.72039 0.1003 0.0
C1227 C 0.75956 0.72489 0.14751 0.0
C1228 C 0.74196 0.71561 0.16736 0.0
C1229 C 0.75565 0.71113 0.12033 0.0
C1230 C 0.72027 0.69262 0.15992 0.0
C1231 C 0.71641 0.67863 0.133 0.0
H1232 H 0.14849 0.00373 0.69199 0.0
H1233 H 0.07579 0.95539 0.71965 0.0
H1234 H 0.04927 0.95749 0.67469 0.0
H1235 H 0.04537 0.97759 0.62961 0.0
H1236 H 0.11753 0.02778 0.60307 0.0
H1237 H 0.1457 0.02024 0.64534 0.0
C1238 C 0.12698 0.99327 0.68801 0.0
C1239 C 0.11403 0.97974 0.7092 0.0
C1240 C 0.11168 0.99512 0.6624 0.0
C1241 C 0.08616 0.96619 0.70373 0.0
C1242 C 0.07095 0.96742 0.67806 0.0
C1243 C 0.06735 0.98649 0.63297 0.0
C1244 C 0.07938 0.00343 0.61357 0.0
C1245 C 0.08327 0.98254 0.65757 0.0
C1246 C 0.10785 0.01483 0.61794 0.0
C1247 C 0.12394 0.01057 0.64209 0.0
H1248 H 0.68234 0.36185 0.4045 0.0
H1249 H 0.7309 0.32215 0.46344 0.0
H1250 H 0.74658 0.29491 0.42465 0.0
H1251 H 0.74925 0.28502 0.37345 0.0
H1252 H 0.69994 0.32539 0.31559 0.0
H1253 H 0.68221 0.34968 0.35433 0.0
C1254 C 0.69606 0.34697 0.40899 0.0
C1255 C 0.70545 0.34425 0.437 0.0
C1256 C 0.70523 0.33164 0.38661 0.0
C1257 C 0.72314 0.32466 0.44219 0.0
C1258 C 0.73234 0.30922 0.41994 0.0
C1259 C 0.73447 0.29897 0.36936 0.0
C1260 C 0.72601 0.30322 0.34146 0.0
C1261 C 0.72401 0.31297 0.39199 0.0
C1262 C 0.70674 0.32137 0.33667 0.0
C1263 C 0.69657 0.33543 0.35889 0.0
H1264 H 0.41957 0.03879 0.14422 0.0
H1265 H 0.45953 0.12459 0.16923 0.0
H1266 H 0.48951 0.12233 0.13146 0.0
H1267 H 0.5062 0.09497 0.09302 0.0
H1268 H 0.46954 0.0077 0.07134 0.0
H1269 H 0.43645 0.01136 0.10587 0.0
C1270 C 0.43452 0.05711 0.14102 0.0
C1271 C 0.43714 0.08196 0.15917 0.0
C1272 C 0.45248 0.05523 0.12003 0.0
C1273 C 0.45706 0.10533 0.15533 0.0
C1274 C 0.47429 0.10397 0.13387 0.0
C1275 C 0.49098 0.07676 0.09591 0.0
C1276 C 0.49001 0.05117 0.07934 0.0
C1277 C 0.47256 0.07887 0.11642 0.0
C1278 C 0.47023 0.02777 0.08335 0.0
C1279 C 0.45144 0.02982 0.10325 0.0
H1280 H 0.81362 0.71992 0.9028 0.0
H1281 H 0.75812 0.76337 0.9473 0.0
H1282 H 0.76187 0.79961 0.91506 0.0
H1283 H 0.7731 0.81297 0.86901 0.0
H1284 H 0.82869 0.77004 0.82437 0.0
H1285 H 0.83366 0.74025 0.86236 0.0
C1286 C 0.80292 0.7377 0.90577 0.0
C1287 C 0.78506 0.73864 0.92684 0.0
C1288 C 0.8052 0.75856 0.88716 0.0
C1289 C 0.77174 0.76203 0.93097 0.0
C1290 C 0.77381 0.78275 0.91251 0.0
C1291 C 0.78725 0.79792 0.86827 0.0
C1292 C 0.80023 0.79336 0.84401 0.0
C1293 C 0.7894 0.78045 0.88979 0.0
C1294 C 0.8186 0.77396 0.84304 0.0
C1295 C 0.82107 0.75659 0.86454 0.0
H1296 H 0.85134 0.07938 0.03777 0.0
H1297 H 0.88091 0.129 0.97291 0.0
H1298 H 0.91738 0.10007 0.96722 0.0
H1299 H 0.93942 0.05856 0.97971 0.0
H1300 H 0.9075 0.01041 0.04467 0.0
H1301 H 0.8731 0.0404 0.05064 0.0
C1302 C 0.86567 0.08414 0.02229 0.0
C1303 C 0.86305 0.10646 0.0057 0.0
C1304 C 0.88612 0.0673 0.01892 0.0
C1305 C 0.88225 0.11207 0.98604 0.0
C1306 C 0.90306 0.09538 0.9827 0.0
C1307 C 0.92527 0.05499 0.99542 0.0
C1308 C 0.92652 0.03225 0.01189 0.0
C1309 C 0.90507 0.07265 0.99888 0.0
C1310 C 0.90721 0.02749 0.03155 0.0
C1311 C 0.88746 0.04478 0.03512 0.0
H1312 H 0.33747 0.5155 0.04993 0.0
H1313 H 0.3494 0.43544 0.07772 0.0
H1314 H 0.39991 0.4502 0.08079 0.0
H1315 H 0.44004 0.48276 0.06735 0.0
H1316 H 0.42631 0.56058 0.03544 0.0
H1317 H 0.37721 0.54993 0.04228 0.0
C1318 C 0.35109 0.50144 0.05719 0.0
C1319 C 0.33974 0.47423 0.06302 0.0
C1320 C 0.37984 0.50957 0.05774 0.0
C1321 C 0.35764 0.45647 0.07293 0.0
C1322 C 0.38653 0.4648 0.07443 0.0
C1323 C 0.42631 0.49759 0.0626 0.0
C1324 C 0.43646 0.52221 0.05063 0.0
C1325 C 0.3978 0.49081 0.06564 0.0
C1326 C 0.41868 0.54131 0.04434 0.0
C1327 C 0.39067 0.53525 0.04824 0.0
H1328 H 0.27337 0.60937 0.73533 0.0
H1329 H 0.34724 0.65318 0.7864 0.0
H1330 H 0.32419 0.6935 0.79641 0.0
H1331 H 0.28367 0.71723 0.78844 0.0
H1332 H 0.21102 0.67415 0.73563 0.0
H1333 H 0.23268 0.6325 0.7288 0.0
C1334 C 0.28438 0.62763 0.74883 0.0
C1335 C 0.312 0.62823 0.76003 0.0
C1336 C 0.27114 0.65087 0.75423 0.0
C1337 C 0.32597 0.65215 0.77743 0.0
C1338 C 0.3128 0.67524 0.78319 0.0
C1339 C 0.27252 0.69863 0.7759 0.0
C1340 C 0.24584 0.69884 0.76269 0.0
C1341 C 0.28547 0.67496 0.77147 0.0
C1342 C 0.23163 0.67455 0.74608 0.0
C1343 C 0.24404 0.65074 0.74205 0.0
H1344 H 0.21558 0.59769 0.50759 0.0
H1345 H 0.1892 0.66848 0.4708 0.0
H1346 H 0.14041 0.64746 0.47239 0.0
H1347 H 0.1054 0.60924 0.4853 0.0
H1348 H 0.13251 0.54092 0.52602 0.0
H1349 H 0.18102 0.56063 0.52186 0.0
C1350 C 0.19915 0.60846 0.49979 0.0
C1351 C 0.20587 0.63448 0.48893 0.0
C1352 C 0.17136 0.5967 0.50157 0.0
C1353 C 0.18443 0.64841 0.47925 0.0
C1354 C 0.1566 0.6364 0.48015 0.0
C1355 C 0.122 0.59869 0.49312 0.0
C1356 C 0.11559 0.57366 0.50579 0.0
C1357 C 0.14984 0.61061 0.4914 0.0
C1358 C 0.13711 0.56026 0.51621 0.0
C1359 C 0.16477 0.57149 0.51381 0.0
H1360 H 0.68668 0.94885 0.78756 0.0
H1361 H 0.61725 0.88143 0.7627 0.0
H1362 H 0.64869 0.84697 0.76408 0.0
H1363 H 0.6965 0.83642 0.76927 0.0
H1364 H 0.76549 0.90414 0.79502 0.0
H1365 H 0.73364 0.93799 0.79665 0.0
C1366 C 0.67837 0.92659 0.78264 0.0
C1367 C 0.64967 0.91777 0.77477 0.0
C1368 C 0.69653 0.90695 0.78357 0.0
C1369 C 0.63923 0.88881 0.76879 0.0
C1370 C 0.65723 0.8691 0.76949 0.0
C1371 C 0.70449 0.85856 0.77552 0.0
C1372 C 0.73336 0.86782 0.78173 0.0
C1373 C 0.68599 0.87797 0.77639 0.0
C1374 C 0.7434 0.8965 0.79002 0.0
C1375 C 0.72519 0.91589 0.79087 0.0
H1376 H 0.65771 0.92745 0.49603 0.0
H1377 H 0.70478 0.00771 0.53267 0.0
H1378 H 0.66967 0.03195 0.51167 0.0
H1379 H 0.62358 0.03017 0.48747 0.0
H1380 H 0.57436 0.95024 0.45352 0.0
H1381 H 0.61276 0.92615 0.46779 0.0
C1382 C 0.66028 0.95023 0.49928 0.0
C1383 C 0.68358 0.96569 0.51623 0.0
C1384 C 0.63982 0.96414 0.48731 0.0
C1385 C 0.68684 0.99524 0.52002 0.0
C1386 C 0.66687 0.00919 0.50789 0.0
C1387 C 0.62156 0.00758 0.48246 0.0
C1388 C 0.59626 0.99193 0.46972 0.0
C1389 C 0.64305 0.99383 0.492 0.0
C1390 C 0.59379 0.96268 0.46335 0.0
C1391 C 0.61557 0.94888 0.47184 0.0
H1392 H 0.33638 0.43616 0.7008 0.0
H1393 H 0.3012 0.4765 0.76873 0.0
H1394 H 0.27786 0.43051 0.77964 0.0
H1395 H 0.27024 0.37823 0.77179 0.0
H1396 H 0.30391 0.33893 0.70204 0.0
H1397 H 0.32496 0.38493 0.69002 0.0
C1398 C 0.32329 0.43492 0.71776 0.0
C1399 C 0.32067 0.4597 0.73402 0.0
C1400 C 0.30986 0.40849 0.72379 0.0
C1401 C 0.30344 0.45776 0.75577 0.0
C1402 C 0.29027 0.43143 0.76217 0.0
C1403 C 0.28205 0.37982 0.75389 0.0
C1404 C 0.28564 0.35513 0.73799 0.0
C1405 C 0.29379 0.40656 0.74668 0.0
C1406 C 0.30072 0.35754 0.71462 0.0
C1407 C 0.31287 0.38387 0.70773 0.0
H1408 H 0.17437 0.5608 0.2633 0.0
H1409 H 0.10177 0.59699 0.27914 0.0
H1410 H 0.129 0.64413 0.28269 0.0
H1411 H 0.17225 0.67529 0.27848 0.0
H1412 H 0.24504 0.64092 0.2602 0.0
H1413 H 0.21913 0.59293 0.26066 0.0
C1414 C 0.1647 0.57904 0.26788 0.0
C1415 C 0.13605 0.57536 0.27083 0.0
C1416 C 0.18046 0.60641 0.26931 0.0
C1417 C 0.12371 0.5992 0.27654 0.0
C1418 C 0.13926 0.62621 0.2786 0.0
C1419 C 0.18256 0.65732 0.27483 0.0
C1420 C 0.21043 0.66155 0.26924 0.0
C1421 C 0.16746 0.63007 0.27456 0.0
C1422 C 0.22352 0.6381 0.26449 0.0
C1423 C 0.20869 0.61071 0.26471 0.0
H1424 H 0.48982 0.68856 0.40442 0.0
H1425 H 0.55579 0.73624 0.46333 0.0
H1426 H 0.5538 0.69667 0.49207 0.0
H1427 H 0.53408 0.6475 0.49953 0.0
H1428 H 0.46721 0.60122 0.44061 0.0
H1429 H 0.46867 0.6412 0.41301 0.0
C1430 C 0.50376 0.69033 0.42356 0.0
C1431 C 0.52306 0.7152 0.43159 0.0
C1432 C 0.50232 0.66768 0.44004 0.0
C1433 C 0.54075 0.71728 0.45665 0.0
C1434 C 0.53965 0.69464 0.47307 0.0
C1435 C 0.51975 0.64635 0.48077 0.0
C1436 C 0.50071 0.6214 0.47203 0.0
C1437 C 0.52062 0.66961 0.46488 0.0
C1438 C 0.48216 0.62016 0.44773 0.0
C1439 C 0.48299 0.643 0.43187 0.0
H1440 H 0.59796 0.30099 0.67972 0.0
H1441 H 0.56498 0.25048 0.74251 0.0
H1442 H 0.61133 0.25611 0.7679 0.0
H1443 H 0.66173 0.27228 0.77032 0.0
H1444 H 0.69484 0.32416 0.70861 0.0
H1445 H 0.64799 0.32167 0.68512 0.0
C1446 C 0.60096 0.29139 0.69905 0.0
C1447 C 0.57815 0.27504 0.70903 0.0
C1448 C 0.62766 0.29511 0.71384 0.0
C1449 C 0.58221 0.26308 0.73434 0.0
C1450 C 0.60872 0.26627 0.74887 0.0
C1451 C 0.65861 0.28352 0.75206 0.0
C1452 C 0.68171 0.29838 0.74125 0.0
C1453 C 0.63164 0.28186 0.73859 0.0
C1454 C 0.67738 0.31288 0.7176 0.0
C1455 C 0.6506 0.31118 0.70394 0.0
H1456 H -0.00028 0.3987 0.87974 0.0
H1457 H 0.04578 0.36639 0.94658 0.0
H1458 H 0.03731 0.40442 0.97984 0.0
H1459 H 0.01457 0.44558 0.99031 0.0
H1460 H 0.96546 0.47515 0.92387 0.0
H1461 H 0.97711 0.43947 0.8901 0.0
C1462 C 0.00815 0.40018 0.90154 0.0
C1463 C 0.02347 0.3799 0.91069 0.0
C1464 C 0.00234 0.42145 0.92066 0.0
C1465 C 0.03388 0.38177 0.93908 0.0
C1466 C 0.02901 0.40347 0.95809 0.0
C1467 C 0.00663 0.44422 0.96839 0.0
C1468 C 0.98925 0.46287 0.95948 0.0
C1469 C 0.01292 0.4232 0.9492 0.0
C1470 C 0.97874 0.46083 0.93116 0.0
C1471 C 0.98547 0.44052 0.91185 0.0
H1472 H 0.91717 0.78005 0.20898 0.0
H1473 H 0.91452 0.69417 0.22773 0.0
H1474 H 0.87072 0.69494 0.24815 0.0
H1475 H 0.83516 0.72156 0.26449 0.0
H1476 H 0.84173 0.80921 0.25111 0.0
H1477 H 0.88148 0.8063 0.22454 0.0
C1478 C 0.90673 0.76139 0.21714 0.0
C1479 C 0.91896 0.73706 0.21674 0.0
C1480 C 0.8822 0.76241 0.22994 0.0
C1481 C 0.9055 0.71317 0.22785 0.0
C1482 C 0.88047 0.71361 0.23954 0.0
C1483 C 0.84509 0.73977 0.25527 0.0
C1484 C 0.83553 0.76548 0.2594 0.0
C1485 C 0.86889 0.73829 0.24124 0.0
C1486 C 0.84879 0.7892 0.24798 0.0
C1487 C 0.87155 0.78756 0.2329 0.0
H1488 H 0.52981 0.38883 0.08082 0.0
H1489 H 0.45925 0.34539 0.02481 0.0
H1490 H 0.45782 0.38797 0.00091 0.0
H1491 H 0.47582 0.43788 0.99725 0.0
H1492 H 0.54892 0.47984 0.05051 0.0
H1493 H 0.55019 0.43742 0.07455 0.0
C1494 C 0.51414 0.38873 0.06336 0.0
C1495 C 0.49443 0.3643 0.0547 0.0
C1496 C 0.51385 0.41297 0.04949 0.0
C1497 C 0.47456 0.36409 0.03177 0.0
C1498 C 0.47372 0.38839 0.01821 0.0
C1499 C 0.49208 0.43765 0.01406 0.0
C1500 C 0.51174 0.46209 0.02285 0.0
C1501 C 0.49313 0.41298 0.02706 0.0
C1502 C 0.53303 0.46149 0.04418 0.0
C1503 C 0.53389 0.43721 0.0577 0.0
H1504 H 0.94174 0.25573 0.39236 0.0
H1505 H 0.98065 0.3189 0.34344 0.0
H1506 H 0.93603 0.31981 0.31734 0.0
H1507 H 0.88631 0.30214 0.30753 0.0
H1508 H 0.8466 0.23915 0.35582 0.0
H1509 H 0.89126 0.23854 0.38299 0.0
C1510 C 0.94039 0.26984 0.37615 0.0
C1511 C 0.9645 0.28712 0.36982 0.0
C1512 C 0.91462 0.27013 0.36096 0.0
C1513 C 0.96245 0.30523 0.34866 0.0
C1514 C 0.93694 0.30579 0.33367 0.0
C1515 C 0.88748 0.28824 0.32397 0.0
C1516 C 0.86346 0.27065 0.32971 0.0
C1517 C 0.913 0.28816 0.33946 0.0
C1518 C 0.86503 0.25282 0.35109 0.0
C1519 C 0.89048 0.25253 0.36662 0.0
H1520 H 0.98708 0.70384 0.53777 0.0
H1521 H 0.95009 0.67257 0.60921 0.0
H1522 H 0.94442 0.62421 0.58731 0.0
H1523 H 0.95658 0.5909 0.55147 0.0
H1524 H -8e-05 0.62184 0.48347 0.0
H1525 H 0.99606 0.67021 0.49988 0.0
C1526 C 0.97703 0.68643 0.54807 0.0
C1527 C 0.96887 0.69157 0.5749 0.0
C1528 C 0.97526 0.65864 0.53602 0.0
C1529 C 0.95645 0.66895 0.58847 0.0
C1530 C 0.95332 0.64135 0.57602 0.0
C1531 C 0.96445 0.60818 0.53981 0.0
C1532 C 0.97843 0.60297 0.5163 0.0
C1533 C 0.96359 0.63591 0.5503 0.0
C1534 C 0.98906 0.6255 0.50164 0.0
C1535 C 0.98697 0.65311 0.5111 0.0
H1536 H 0.58205 0.73109 0.85355 0.0
H1537 H 0.63263 0.77427 0.92746 0.0
H1538 H 0.67317 0.78107 0.9011 0.0
H1539 H 0.69246 0.7794 0.85583 0.0
H1540 H 0.64177 0.73629 0.78199 0.0
H1541 H 0.60266 0.72481 0.80959 0.0
C1542 C 0.60208 0.74162 0.86399 0.0
C1543 C 0.60439 0.75255 0.89222 0.0
C1544 C 0.62497 0.74582 0.84864 0.0
C1545 C 0.63042 0.76574 0.90571 0.0
C1546 C 0.65348 0.76983 0.89059 0.0
C1547 C 0.67286 0.76735 0.84587 0.0
C1548 C 0.6696 0.75908 0.81694 0.0
C1549 C 0.65071 0.76078 0.86186 0.0
C1550 C 0.64447 0.74302 0.80423 0.0
C1551 C 0.62222 0.73649 0.81998 0.0
H1552 H 0.43234 0.54937 0.68399 0.0
H1553 H 0.37219 0.58803 0.63715 0.0
H1554 H 0.39939 0.58746 0.59692 0.0
H1555 H 0.43753 0.57075 0.57338 0.0
H1556 H 0.49421 0.52765 0.61971 0.0
H1557 H 0.47119 0.53512 0.66178 0.0
C1558 C 0.42513 0.55769 0.66497 0.0
C1559 C 0.40018 0.5685 0.66342 0.0
C1560 C 0.44013 0.55613 0.64169 0.0
C1561 C 0.39113 0.57921 0.63866 0.0
C1562 C 0.40664 0.5788 0.61566 0.0
C1563 C 0.44506 0.56347 0.59284 0.0
C1564 C 0.46748 0.54862 0.59351 0.0
C1565 C 0.43081 0.56663 0.61667 0.0
C1566 C 0.47697 0.5391 0.61875 0.0
C1567 C 0.46372 0.5432 0.64274 0.0
H1568 H 0.78384 0.1961 0.89334 0.0
H1569 H 0.82404 0.26881 0.9489 0.0
H1570 H 0.81969 0.29893 0.91089 0.0
H1571 H 0.80285 0.30501 0.8617 0.0
H1572 H 0.76233 0.23201 0.80728 0.0
H1573 H 0.76805 0.20194 0.84456 0.0
C1574 C 0.79191 0.2185 0.89715 0.0
C1575 C 0.80438 0.23001 0.92411 0.0
C1576 C 0.78885 0.23585 0.87528 0.0
C1577 C 0.81441 0.25922 0.92848 0.0
C1578 C 0.81185 0.27653 0.90669 0.0
C1579 C 0.79523 0.28252 0.85807 0.0
C1580 C 0.7812 0.27095 0.83167 0.0
C1581 C 0.79883 0.26517 0.88 0.0
C1582 C 0.77187 0.24173 0.82744 0.0
C1583 C 0.77561 0.22439 0.84881 0.0
H1584 H 0.02978 0.48712 0.18628 0.0
H1585 H 0.10444 0.4626 0.15881 0.0
H1586 H 0.08971 0.47062 0.11094 0.0
H1587 H 0.05738 0.48691 0.07734 0.0
H1588 H 0.98334 0.51384 0.10373 0.0
H1589 H 0.99601 0.50251 0.15137 0.0
C1590 C 0.04258 0.48319 0.1697 0.0
C1591 C 0.06821 0.47421 0.17617 0.0
C1592 C 0.03423 0.4885 0.14204 0.0
C1593 C 0.08471 0.46956 0.15449 0.0
C1594 C 0.07631 0.47418 0.12706 0.0
C1595 C 0.04378 0.49023 0.09335 0.0
C1596 C 0.01938 0.50132 0.08674 0.0
C1597 C 0.05137 0.48406 0.12067 0.0
C1598 C 0.00222 0.50535 0.10804 0.0
C1599 C 0.0095 0.4989 0.13536 0.0
H1600 H 0.75435 0.8656 0.47184 0.0
H1601 H 0.79824 0.93676 0.43649 0.0
H1602 H 0.80676 0.90547 0.39676 0.0
H1603 H 0.79989 0.8583 0.37136 0.0
H1604 H 0.75181 0.78807 0.40427 0.0
H1605 H 0.74699 0.81857 0.44618 0.0
C1606 C 0.76598 0.87421 0.45554 0.0
C1607 C 0.77581 0.90335 0.45704 0.0
C1608 C 0.77006 0.85628 0.43253 0.0
C1609 C 0.79044 0.91437 0.43564 0.0
C1610 C 0.79536 0.89651 0.41303 0.0
C1611 C 0.78871 0.84964 0.38794 0.0
C1612 C 0.77647 0.82105 0.38514 0.0
C1613 C 0.78507 0.86749 0.41119 0.0
C1614 C 0.76151 0.81005 0.40628 0.0
C1615 C 0.75869 0.82747 0.43008 0.0
H1616 H 0.45668 0.53408 0.80937 0.0
H1617 H 0.3851 0.56776 0.83348 0.0
H1618 H 0.40359 0.57121 0.88279 0.0
H1619 H 0.43906 0.56214 0.91914 0.0
H1620 H 0.51009 0.52808 0.8942 0.0
H1621 H 0.49287 0.52743 0.84501 0.0
C1622 C 0.44509 0.54225 0.82535 0.0
C1623 C 0.41941 0.55037 0.81776 0.0
C1624 C 0.45573 0.54406 0.8535 0.0
C1625 C 0.40489 0.56126 0.83876 0.0
C1626 C 0.41541 0.56319 0.86696 0.0
C1627 C 0.45078 0.55479 0.90287 0.0
C1628 C 0.47563 0.54496 0.91013 0.0
C1629 C 0.44065 0.55429 0.87458 0.0
C1630 C 0.49081 0.53561 0.88901 0.0
C1631 C 0.48098 0.53519 0.86091 0.0
H1632 H 0.81412 0.18189 0.12048 0.0
H1633 H 0.78673 0.24582 0.07312 0.0
H1634 H 0.78039 0.273 0.11667 0.0
H1635 H 0.77821 0.27606 0.16814 0.0
H1636 H 0.80849 0.21332 0.21529 0.0
H1637 H 0.81819 0.1883 0.17209 0.0
C1638 C 0.8073 0.20207 0.11973 0.0
C1639 C 0.8008 0.21175 0.09353 0.0
C1640 C 0.80394 0.21765 0.14488 0.0
C1641 C 0.7921 0.23799 0.09294 0.0
C1642 C 0.78823 0.2534 0.11787 0.0
C1643 C 0.78737 0.25717 0.16896 0.0
C1644 C 0.79249 0.24652 0.19496 0.0
C1645 C 0.7934 0.24309 0.14394 0.0
C1646 C 0.80452 0.2221 0.19567 0.0
C1647 C 0.80993 0.20768 0.17091 0.0
H1648 H 0.0464 0.53089 0.34748 0.0
H1649 H 0.04728 0.44171 0.34269 0.0
H1650 H 0.02981 0.43969 0.38879 0.0
H1651 H 0.01229 0.46336 0.42967 0.0
H1652 H 0.01615 0.55339 0.4359 0.0
H1653 H 0.0339 0.55517 0.39018 0.0
C1654 C 0.04288 0.51104 0.35664 0.0
C1655 C 0.04774 0.4864 0.34165 0.0
C1656 C 0.03361 0.51026 0.38336 0.0
C1657 C 0.04362 0.46091 0.35387 0.0
C1658 C 0.03355 0.45977 0.38015 0.0
C1659 C 0.01715 0.48333 0.42096 0.0
C1660 C 0.01253 0.50818 0.43584 0.0
C1661 C 0.02814 0.48428 0.39495 0.0
C1662 C 0.01942 0.53401 0.42474 0.0
C1663 C 0.02949 0.53502 0.39858 0.0
H1664 H 0.71035 0.87817 0.62385 0.0
H1665 H 0.77339 0.84181 0.58424 0.0
H1666 H 0.77286 0.80709 0.61821 0.0
H1667 H 0.75892 0.79137 0.66262 0.0
H1668 H 0.69539 0.82712 0.70201 0.0
H1669 H 0.69082 0.85697 0.66408 0.0
C1670 C 0.7237 0.86241 0.62255 0.0
C1671 C 0.74228 0.86282 0.60205 0.0
C1672 C 0.72302 0.84227 0.64191 0.0
C1673 C 0.75908 0.842 0.60006 0.0
C1674 C 0.75879 0.82215 0.61944 0.0
C1675 C 0.74348 0.80508 0.66242 0.0
C1676 C 0.72779 0.8073 0.68518 0.0
C1677 C 0.74141 0.82261 0.64091 0.0
C1678 C 0.70768 0.82494 0.68465 0.0
C1679 C 0.70533 0.84235 0.66317 0.0
H1680 H 0.61032 0.42401 0.55458 0.0
H1681 H 0.66289 0.46769 0.49936 0.0
H1682 H 0.63133 0.50102 0.49348 0.0
H1683 H 0.58945 0.51907 0.50462 0.0
H1684 H 0.53744 0.47801 0.56145 0.0
H1685 H 0.56781 0.4428 0.56622 0.0
C1686 C 0.61468 0.44068 0.54112 0.0
C1687 C 0.63901 0.44309 0.52737 0.0
C1688 C 0.59657 0.46055 0.53825 0.0
C1689 C 0.64444 0.46513 0.51024 0.0
C1690 C 0.62639 0.48439 0.50688 0.0
C1691 C 0.58479 0.50248 0.51814 0.0
C1692 C 0.56089 0.50092 0.53231 0.0
C1693 C 0.60257 0.48254 0.52097 0.0
C1694 C 0.5553 0.47932 0.54981 0.0
C1695 C 0.57281 0.45924 0.55264 0.0
H1696 H 0.16954 0.0616 0.44974 0.0
H1697 H 0.14746 0.14279 0.43735 0.0
H1698 H 0.10004 0.12571 0.44754 0.0
H1699 H 0.06754 0.0903 0.46762 0.0
H1700 H 0.0922 0.0114 0.48515 0.0
H1701 H 0.13595 0.02496 0.46546 0.0
C1702 C 0.15426 0.07546 0.44878 0.0
C1703 C 0.16215 0.10359 0.44338 0.0
C1704 C 0.1276 0.066 0.4561 0.0
C1705 C 0.14197 0.12111 0.44179 0.0
C1706 C 0.11491 0.11142 0.4478 0.0
C1707 C 0.08228 0.0759 0.46653 0.0
C1708 C 0.0769 0.05004 0.47797 0.0
C1709 C 0.10788 0.08431 0.45619 0.0
C1710 C 0.09614 0.03157 0.47671 0.0
C1711 C 0.12111 0.03929 0.46545 0.0
H1712 H 0.18582 0.91078 0.76216 0.0
H1713 H 0.23564 0.95175 0.83728 0.0
H1714 H 0.26544 0.9156 0.83513 0.0
H1715 H 0.27636 0.87166 0.81217 0.0
H1716 H 0.22913 0.83401 0.73452 0.0
H1717 H 0.19915 0.86959 0.73716 0.0
C1718 C 0.2032 0.91173 0.77809 0.0
C1719 C 0.2084 0.93354 0.80008 0.0
C1720 C 0.22061 0.89153 0.77615 0.0
C1721 C 0.23126 0.93501 0.82026 0.0
C1722 C 0.24824 0.91439 0.81899 0.0
C1723 C 0.2597 0.87147 0.79568 0.0
C1724 C 0.25441 0.84979 0.77347 0.0
C1725 C 0.24306 0.89251 0.79704 0.0
C1726 C 0.233 0.84996 0.75214 0.0
C1727 C 0.21599 0.8704 0.75361 0.0
H1728 H 0.29165 0.97242 0.98652 0.0
H1729 H 0.30188 0.92468 0.05732 0.0
H1730 H 0.35249 0.93852 0.05976 0.0
H1731 H 0.39405 0.9637 0.0409 0.0
H1732 H 0.38244 0.00967 0.96903 0.0
H1733 H 0.33219 0.99695 0.96791 0.0
C1734 C 0.30484 0.96513 0.00267 0.0
C1735 C 0.2929 0.94761 0.02177 0.0
C1736 C 0.33377 0.97275 0.00365 0.0
C1737 C 0.31048 0.93822 0.04234 0.0
C1738 C 0.33943 0.94609 0.04372 0.0
C1739 C 0.38043 0.97085 0.02504 0.0
C1740 C 0.3919 0.98754 0.00504 0.0
C1741 C 0.35135 0.96323 0.02435 0.0
C1742 C 0.37412 0.99673 0.98459 0.0
C1743 C 0.34536 0.98951 0.98395 0.0
H1744 H 0.87176 0.68595 0.75166 0.0
H1745 H 0.80472 0.61616 0.72606 0.0
H1746 H 0.77111 0.6481 0.72663 0.0
H1747 H 0.76025 0.69575 0.73582 0.0
H1748 H 0.82699 0.76564 0.76156 0.0
H1749 H 0.861 0.73401 0.75925 0.0
C1750 C 0.84981 0.67775 0.74615 0.0
C1751 C 0.84088 0.6486 0.73896 0.0
C1752 C 0.83042 0.69632 0.74649 0.0
C1753 C 0.8123 0.63843 0.73176 0.0
C1754 C 0.79297 0.65671 0.73205 0.0
C1755 C 0.78225 0.70406 0.74068 0.0
C1756 C 0.79104 0.73299 0.74895 0.0
C1757 C 0.80173 0.68567 0.73954 0.0
C1758 C 0.81965 0.74344 0.75521 0.0
C1759 C 0.83914 0.72533 0.75396 0.0
H1760 H 0.8038 0.56404 0.00483 0.0
H1761 H 0.8443 0.6451 0.98487 0.0
H1762 H 0.88966 0.63227 0.99699 0.0
H1763 H 0.91767 0.5977 0.01189 0.0
H1764 H 0.8775 0.51576 0.02936 0.0
H1765 H 0.83188 0.52963 0.02035 0.0
C1766 C 0.82252 0.57892 0.00305 0.0
C1767 C 0.82064 0.60546 0.99382 0.0
C1768 C 0.84849 0.57142 0.01001 0.0
C1769 C 0.84513 0.62446 0.9917 0.0
C1770 C 0.87108 0.61723 0.9988 0.0
C1771 C 0.89893 0.58304 0.01417 0.0
C1772 C 0.90074 0.55585 0.0214 0.0
C1773 C 0.87297 0.59078 0.00793 0.0
C1774 C 0.87643 0.53688 0.02397 0.0
C1775 C 0.85044 0.54472 0.01859 0.0
H1776 H 0.19506 0.1047 0.82269 0.0
H1777 H 0.16285 0.08508 0.7357 0.0
H1778 H 0.18617 0.13081 0.725 0.0
H1779 H 0.21368 0.17696 0.74029 0.0
H1780 H 0.24384 0.19942 0.82754 0.0
H1781 H 0.22334 0.15228 0.83826 0.0
C1782 C 0.19349 0.11048 0.80143 0.0
C1783 C 0.17738 0.09158 0.77995 0.0
C1784 C 0.20636 0.13739 0.7955 0.0
C1785 C 0.17511 0.09935 0.75253 0.0
C1786 C 0.18841 0.12549 0.7464 0.0
C1787 C 0.21604 0.1716 0.76168 0.0
C1788 C 0.23042 0.19177 0.78303 0.0
C1789 C 0.20378 0.14479 0.76773 0.0
C1790 C 0.23285 0.18437 0.81065 0.0
C1791 C 0.22115 0.15737 0.81679 0.0
H1792 H 0.33817 0.99197 0.2592 0.0
H1793 H 0.38588 0.95706 0.19842 0.0
H1794 H 0.3598 0.91008 0.20107 0.0
H1795 H 0.32529 0.87844 0.22228 0.0
H1796 H 0.27876 0.91218 0.28466 0.0
H1797 H 0.30234 0.96005 0.27965 0.0
C1798 C 0.34265 0.97412 0.24633 0.0
C1799 C 0.36404 0.9781 0.22868 0.0
C1800 C 0.32787 0.94691 0.24834 0.0
C1801 C 0.36968 0.95466 0.21231 0.0
C1802 C 0.35476 0.92773 0.21379 0.0
C1803 C 0.32015 0.89629 0.23465 0.0
C1804 C 0.30037 0.89183 0.25385 0.0
C1805 C 0.33411 0.92356 0.232 0.0
C1806 C 0.29395 0.91513 0.26975 0.0
C1807 C 0.30747 0.94246 0.26691 0.0
H1808 H 0.47973 0.31299 0.57923 0.0
H1809 H 0.48235 0.35719 0.66135 0.0
H1810 H 0.48016 0.40107 0.64057 0.0
H1811 H 0.47946 0.42737 0.59948 0.0
H1812 H 0.47539 0.38391 0.51701 0.0
H1813 H 0.47611 0.33918 0.53746 0.0
C1814 C 0.47965 0.3322 0.59253 0.0
C1815 C 0.48137 0.33181 0.62183 0.0
C1816 C 0.47824 0.35747 0.5804 0.0
C1817 C 0.48106 0.35685 0.63877 0.0
C1818 C 0.47988 0.38201 0.62692 0.0
C1819 C 0.47861 0.40807 0.58597 0.0
C1820 C 0.47757 0.40883 0.55685 0.0
C1821 C 0.47879 0.38262 0.59784 0.0
C1822 C 0.47621 0.38373 0.53952 0.0
C1823 C 0.47669 0.35823 0.55122 0.0
H1824 H 0.44081 0.7882 0.27863 0.0
H1825 H 0.42798 0.75404 0.35718 0.0
H1826 H 0.37783 0.74242 0.34275 0.0
H1827 H 0.33719 0.74659 0.30955 0.0
H1828 H 0.35111 0.78355 0.23265 0.0
H1829 H 0.40131 0.78902 0.24448 0.0
C1830 C 0.42716 0.77799 0.2926 0.0
C1831 C 0.43818 0.77235 0.31912 0.0
C1832 C 0.39848 0.77179 0.28436 0.0
C1833 C 0.42009 0.75878 0.33671 0.0
C1834 C 0.39139 0.75216 0.32848 0.0
C1835 C 0.35131 0.75508 0.29511 0.0
C1836 C 0.34062 0.76449 0.27017 0.0
C1837 C 0.38027 0.75913 0.30257 0.0
C1838 C 0.35898 0.77608 0.25188 0.0
C1839 C 0.38765 0.77937 0.25871 0.0
H1840 H 0.98739 0.67602 0.09214 0.0
H1841 H 0.03891 0.65236 0.16073 0.0
H1842 H 0.04951 0.61358 0.1306 0.0
H1843 H 0.04522 0.58666 0.08459 0.0
H1844 H 0.99264 0.60835 0.01608 0.0
H1845 H 0.98136 0.64741 0.04621 0.0
C1846 C 0.00084 0.66232 0.10049 0.0
C1847 C 0.01236 0.6673 0.12869 0.0
C1848 C 0.00677 0.63968 0.08302 0.0
C1849 C 0.02963 0.64913 0.13917 0.0
C1850 C 0.03584 0.62691 0.12193 0.0
C1851 C 0.03137 0.60003 0.0763 0.0
C1852 C 0.01985 0.59484 0.04825 0.0
C1853 C 0.02474 0.62211 0.0938 0.0
C1854 C 0.00164 0.61198 0.03774 0.0
C1855 C 0.99525 0.63432 0.05492 0.0
H1856 H 0.13223 0.29928 0.85487 0.0
H1857 H 0.06938 0.27305 0.78457 0.0
H1858 H 0.10516 0.26829 0.75363 0.0
H1859 H 0.15413 0.27035 0.74637 0.0
H1860 H 0.21755 0.29745 0.81558 0.0
H1861 H 0.18194 0.30312 0.84706 0.0
C1862 C 0.12641 0.29258 0.83278 0.0
C1863 C 0.0981 0.28643 0.82215 0.0
C1864 C 0.14722 0.28996 0.81488 0.0
C1865 C 0.09095 0.27791 0.7934 0.0
C1866 C 0.11141 0.27515 0.77562 0.0
C1867 C 0.16016 0.27762 0.76833 0.0
C1868 C 0.1884 0.2831 0.7788 0.0
C1869 C 0.13957 0.28096 0.78612 0.0
C1870 C 0.19593 0.29265 0.80721 0.0
C1871 C 0.17554 0.29598 0.82515 0.0
H1872 H 0.51727 0.70848 0.01007 0.0
H1873 H 0.48068 0.66185 0.93141 0.0
H1874 H 0.4761 0.618 0.95352 0.0
H1875 H 0.48821 0.59276 0.9935 0.0
H1876 H 0.52673 0.63865 0.07141 0.0
H1877 H 0.52453 0.6833 0.0515 0.0
C1878 C 0.50785 0.6888 0.99788 0.0
C1879 C 0.49973 0.68831 0.96907 0.0
C1880 C 0.50586 0.66365 0.01055 0.0
C1881 C 0.48732 0.66271 0.95357 0.0
C1882 C 0.48477 0.63764 0.96616 0.0
C1883 C 0.49569 0.61252 0.00613 0.0
C1884 C 0.50793 0.6126 0.03355 0.0
C1885 C 0.49487 0.63782 0.99435 0.0
C1886 C 0.51735 0.63825 0.0501 0.0
C1887 C 0.5162 0.66369 0.0387 0.0
H1888 H 0.06099 0.80147 0.67363 0.0
H1889 H 0.0974 0.79053 0.59612 0.0
H1890 H 0.14216 0.78846 0.62266 0.0
H1891 H 0.16987 0.78764 0.66809 0.0
H1892 H 0.13142 0.796 0.74464 0.0
H1893 H 0.08809 0.80138 0.71805 0.0
C1894 C 0.07867 0.79871 0.66237 0.0
C1895 C 0.07592 0.796 0.63294 0.0
C1896 C 0.1038 0.79708 0.6776 0.0
C1897 C 0.09906 0.79255 0.61878 0.0
C1898 C 0.12456 0.79137 0.63394 0.0
C1899 C 0.152 0.79087 0.67885 0.0
C1900 C 0.15356 0.79142 0.70816 0.0
C1901 C 0.12703 0.7933 0.66336 0.0
C1902 C 0.13046 0.79542 0.72205 0.0
C1903 C 0.10578 0.79848 0.7069 0.0
H1904 H 0.02945 0.34613 0.49406 0.0
H1905 H 0.09534 0.37995 0.44653 0.0
H1906 H 0.09212 0.4277 0.46504 0.0
H1907 H 0.06587 0.45977 0.48884 0.0
H1908 H -0.00197 0.42582 0.53393 0.0
H1909 H 0.00697 0.37828 0.52248 0.0
C1910 C 0.0436 0.36387 0.48827 0.0
C1911 C 0.06233 0.35946 0.46863 0.0
C1912 C 0.04101 0.39133 0.49825 0.0
C1913 C 0.0805 0.38275 0.46139 0.0
C1914 C 0.07861 0.4101 0.47187 0.0
C1915 C 0.05342 0.44205 0.49669 0.0
C1916 C 0.03108 0.44632 0.51188 0.0
C1917 C 0.05818 0.41466 0.4894 0.0
C1918 C 0.01515 0.4231 0.52188 0.0
C1919 C 0.02022 0.39587 0.51533 0.0
H1920 H 0.45941 0.30011 0.21717 0.0
H1921 H 0.41292 0.30363 0.13738 0.0
H1922 H 0.37344 0.31442 0.16115 0.0
H1923 H 0.35076 0.31754 0.20407 0.0
H1924 H 0.3969 0.31454 0.28401 0.0
H1925 H 0.43847 0.30927 0.2607 0.0
C1926 C 0.44068 0.30345 0.20503 0.0
C1927 C 0.4387 0.30055 0.17562 0.0
C1928 C 0.41823 0.3097 0.21881 0.0
C1929 C 0.41472 0.30558 0.16005 0.0
C1930 C 0.39219 0.31166 0.1736 0.0
C1931 C 0.37011 0.31619 0.21637 0.0
C1932 C 0.37101 0.31602 0.2455 0.0
C1933 C 0.39352 0.313 0.20287 0.0
C1934 C 0.39601 0.3147 0.26149 0.0
C1935 C 0.41958 0.31148 0.24817 0.0
H1936 H 0.54519 0.48564 0.34966 0.0
H1937 H 0.62366 0.48143 0.3961 0.0
H1938 H 0.60055 0.47639 0.43896 0.0
H1939 H 0.55899 0.48031 0.46402 0.0
H1940 H 0.48235 0.4891 0.41698 0.0
H1941 H 0.50353 0.4846 0.37329 0.0
C1942 C 0.55728 0.48332 0.36908 0.0
C1943 C 0.58619 0.48448 0.36985 0.0
C1944 C 0.54405 0.4812 0.39347 0.0
C1945 C 0.60141 0.48078 0.39503 0.0
C1946 C 0.5882 0.47804 0.41952 0.0
C1947 C 0.54687 0.4804 0.44408 0.0
C1948 C 0.51918 0.48483 0.44345 0.0
C1949 C 0.55968 0.4792 0.41915 0.0
C1950 C 0.50361 0.48544 0.41771 0.0
C1951 C 0.51579 0.48312 0.39284 0.0
H1952 H 0.21232 0.80689 0.09262 0.0
H1953 H 0.23467 0.8887 0.13962 0.0
H1954 H 0.24702 0.86675 0.18187 0.0
H1955 H 0.251 0.82384 0.20593 0.0
H1956 H 0.22958 0.74246 0.15812 0.0
H1957 H 0.21738 0.76455 0.11614 0.0
C1958 C 0.21981 0.81996 0.1121 0.0
C1959 C 0.22239 0.84947 0.11278 0.0
C1960 C 0.22719 0.80719 0.13635 0.0
C1961 C 0.23238 0.86596 0.13832 0.0
C1962 C 0.2395 0.8534 0.16258 0.0
C1963 C 0.2441 0.81104 0.18625 0.0
C1964 C 0.24153 0.78149 0.18522 0.0
C1965 C 0.23704 0.82399 0.16191 0.0
C1966 C 0.2319 0.76521 0.15957 0.0
C1967 C 0.22484 0.77784 0.13547 0.0
H1968 H 0.99072 0.56415 0.82392 0.0
H1969 H 0.91349 0.59051 0.84092 0.0
H1970 H 0.92342 0.58431 0.89056 0.0
H1971 H 0.95257 0.56792 0.92847 0.0
H1972 H 0.02926 0.54086 0.9101 0.0
H1973 H 0.02082 0.55074 0.86173 0.0
C1974 C 0.97609 0.56885 0.83845 0.0
C1975 C 0.95126 0.57763 0.82853 0.0
C1976 C 0.98171 0.56481 0.86677 0.0
C1977 C 0.93278 0.58379 0.84787 0.0
C1978 C 0.93837 0.58005 0.87627 0.0
C1979 C 0.96755 0.56436 0.91396 0.0
C1980 C 0.99148 0.55344 0.92309 0.0
C1981 C 0.96253 0.57 0.88587 0.0
C1982 C 0.01064 0.54913 0.90386 0.0
C1983 C 0.00584 0.55477 0.87608 0.0
H1984 H 0.23259 0.19487 0.54982 0.0
H1985 H 0.21906 0.11516 0.58488 0.0
H1986 H 0.2239 0.13964 0.63197 0.0
H1987 H 0.23387 0.1836 0.66317 0.0
H1988 H 0.24428 0.26338 0.62834 0.0
H1989 H 0.23888 0.23899 0.58093 0.0
C1990 C 0.23057 0.18291 0.56779 0.0
C1991 C 0.22572 0.15331 0.56401 0.0
C1992 C 0.23301 0.1971 0.59471 0.0
C1993 C 0.22273 0.13798 0.58734 0.0
C1994 C 0.22564 0.15194 0.61424 0.0
C1995 C 0.23495 0.19557 0.64514 0.0
C1996 C 0.23981 0.22509 0.64896 0.0
C1997 C 0.23113 0.18145 0.61815 0.0
C1998 C 0.24066 0.24056 0.62565 0.0
C1999 C 0.23759 0.22665 0.59866 0.0
H2000 H 0.64604 0.52293 0.20375 0.0
H2001 H 0.57992 0.45924 0.22281 0.0
H2002 H 0.5525 0.46378 0.17899 0.0
H2003 H 0.54601 0.48826 0.13667 0.0
H2004 H 0.61127 0.55376 0.11925 0.0
H2005 H 0.64027 0.54616 0.16086 0.0
C2006 C 0.62581 0.50978 0.19809 0.0
C2007 C 0.61498 0.49084 0.21643 0.0
C2008 C 0.60985 0.51306 0.17327 0.0
C2009 C 0.58863 0.47408 0.209 0.0
C2010 C 0.57291 0.4767 0.184 0.0
C2011 C 0.56663 0.50071 0.142 0.0
C2012 C 0.57646 0.52163 0.12516 0.0
C2013 C 0.58307 0.49653 0.16623 0.0
C2014 C 0.6032 0.53765 0.13211 0.0
C2015 C 0.61983 0.53329 0.15585 0.0
H2016 H 0.18756 0.87164 0.90926 0.0
H2017 H 0.22832 0.82207 0.96491 0.0
H2018 H 0.24112 0.79455 0.92459 0.0
H2019 H 0.24299 0.78627 0.87312 0.0
H2020 H 0.20113 0.83601 0.81841 0.0
H2021 H 0.18687 0.86166 0.85858 0.0
C2022 C 0.19901 0.85463 0.91269 0.0
C2023 C 0.20698 0.84911 0.94028 0.0
C2024 C 0.2064 0.83897 0.88941 0.0
C2025 C 0.22172 0.82681 0.94404 0.0
C2026 C 0.22924 0.81115 0.92092 0.0
C2027 C 0.23061 0.8026 0.87002 0.0
C2028 C 0.22317 0.80903 0.84259 0.0
C2029 C 0.22208 0.81732 0.89346 0.0
C2030 C 0.20701 0.83027 0.83909 0.0
C2031 C 0.19886 0.84511 0.86214 0.0
H2032 H 0.92122 0.54124 0.64938 0.0
H2033 H 0.96721 0.62511 0.67288 0.0
H2034 H 0.99622 0.61952 0.63476 0.0
H2035 H 0.00987 0.59 0.59606 0.0
H2036 H 0.96718 0.50448 0.57569 0.0
H2037 H 0.93553 0.51133 0.61105 0.0
C2038 C 0.93738 0.55838 0.64587 0.0
C2039 C 0.94192 0.58369 0.66369 0.0
C2040 C 0.9547 0.55457 0.6246 0.0
C2041 C 0.9633 0.60551 0.65934 0.0
C2042 C 0.97994 0.60227 0.63764 0.0
C2043 C 0.99367 0.57284 0.59941 0.0
C2044 C 0.99055 0.54685 0.58289 0.0
C2045 C 0.97611 0.57675 0.62039 0.0
C2046 C 0.96954 0.52484 0.58758 0.0
C2047 C 0.95158 0.52872 0.60798 0.0
H2048 H 0.26653 0.23286 0.44542 0.0
H2049 H 0.31411 0.17715 0.4045 0.0
H2050 H 0.32595 0.21143 0.37113 0.0
H2051 H 0.31566 0.25284 0.34885 0.0
H2052 H 0.26252 0.30479 0.38604 0.0
H2053 H 0.26052 0.27691 0.42609 0.0
C2054 C 0.28005 0.22851 0.42963 0.0
C2055 C 0.28921 0.20241 0.42721 0.0
C2056 C 0.28566 0.24769 0.40979 0.0
C2057 C 0.30661 0.197 0.40658 0.0
C2058 C 0.31334 0.21657 0.38749 0.0
C2059 C 0.30458 0.2587 0.3663 0.0
C2060 C 0.28943 0.2809 0.36478 0.0
C2061 C 0.30202 0.24143 0.38821 0.0
C2062 C 0.2745 0.28789 0.38703 0.0
C2063 C 0.27313 0.27177 0.40972 0.0
H2064 H 0.36781 0.6058 0.48063 0.0
H2065 H 0.3408 0.58309 0.55977 0.0
H2066 H 0.37197 0.54931 0.56211 0.0
H2067 H 0.40634 0.5252 0.54227 0.0
H2068 H 0.43506 0.54619 0.46379 0.0
H2069 H 0.40472 0.58186 0.46103 0.0
C2070 C 0.36925 0.59391 0.49863 0.0
C2071 C 0.3516 0.59704 0.51984 0.0
C2072 C 0.38775 0.57421 0.50017 0.0
C2073 C 0.35372 0.58112 0.5429 0.0
C2074 C 0.37165 0.56168 0.54439 0.0
C2075 C 0.40598 0.53757 0.52452 0.0
C2076 C 0.42332 0.53345 0.50356 0.0
C2077 C 0.38853 0.55782 0.52312 0.0
C2078 C 0.42255 0.54961 0.48068 0.0
C2079 C 0.40498 0.56985 0.479 0.0
H2080 H 0.85155 0.95838 0.57588 0.0
H2081 H 0.83146 0.04155 0.57116 0.0
H2082 H 0.88069 0.06187 0.57584 0.0
H2083 H 0.92799 0.05446 0.56992 0.0
H2084 H 0.94866 0.97146 0.57261 0.0
H2085 H 0.90086 0.95259 0.58059 0.0
C2086 C 0.85802 0.98104 0.577 0.0
C2087 C 0.83803 0.99841 0.57251 0.0
C2088 C 0.88646 0.99251 0.57872 0.0
C2089 C 0.84659 0.02774 0.57407 0.0
C2090 C 0.87471 0.03937 0.57658 0.0
C2091 C 0.92216 0.03242 0.57317 0.0
C2092 C 0.94139 0.01422 0.57025 0.0
C2093 C 0.89466 0.02174 0.57712 0.0
C2094 C 0.934 0.9858 0.57479 0.0
C2095 C 0.90663 0.97498 0.57908 0.0
H2096 H 0.82683 0.13297 0.28554 0.0
H2097 H 0.7864 0.09777 0.20394 0.0
H2098 H 0.75856 0.1352 0.20314 0.0
H2099 H 0.74627 0.17828 0.22506 0.0
H2100 H 0.78329 0.21174 0.3081 0.0
H2101 H 0.81207 0.17481 0.30898 0.0
C2102 C 0.81188 0.13352 0.26764 0.0
C2103 C 0.80876 0.1127 0.24478 0.0
C2104 C 0.79548 0.15485 0.26755 0.0
C2105 C 0.78912 0.11348 0.22184 0.0
C2106 C 0.77323 0.13491 0.22133 0.0
C2107 C 0.76051 0.17741 0.24345 0.0
C2108 C 0.76335 0.19823 0.2662 0.0
C2109 C 0.77627 0.1557 0.24401 0.0
C2110 C 0.78163 0.19663 0.28995 0.0
C2111 C 0.79781 0.17531 0.29053 0.0
H2112 H 0.71946 0.10322 0.01016 0.0
H2113 H 0.69485 0.17379 0.97152 0.0
H2114 H 0.6458 0.15365 0.97246 0.0
H2115 H 0.60981 0.11628 0.98515 0.0
H2116 H 0.63465 0.04808 0.02773 0.0
H2117 H 0.6836 0.06684 0.02442 0.0
C2118 C 0.70331 0.11405 0.00179 0.0
C2119 C 0.71069 0.13981 0.99056 0.0
C2120 C 0.6752 0.10279 0.00322 0.0
C2121 C 0.68963 0.15391 0.98024 0.0
C2122 C 0.6616 0.14241 0.98077 0.0
C2123 C 0.626 0.10554 0.9936 0.0
C2124 C 0.61874 0.08079 0.00652 0.0
C2125 C 0.65413 0.11692 0.99233 0.0
C2126 C 0.63982 0.0672 0.01772 0.0
C2127 C 0.66778 0.07789 0.01579 0.0
H2128 H 0.19587 0.44391 0.28267 0.0
H2129 H 0.1256 0.37598 0.27082 0.0
H2130 H 0.15695 0.3417 0.27575 0.0
H2131 H 0.20498 0.33086 0.28183 0.0
H2132 H 0.27452 0.39957 0.29325 0.0
H2133 H 0.24296 0.43345 0.2903 0.0
C2134 C 0.18733 0.42162 0.28126 0.0
C2135 C 0.15835 0.41264 0.27627 0.0
C2136 C 0.20546 0.40203 0.28408 0.0
C2137 C 0.14779 0.38359 0.2746 0.0
C2138 C 0.16574 0.36392 0.27741 0.0
C2139 C 0.21312 0.35325 0.284 0.0
C2140 C 0.24212 0.36264 0.28783 0.0
C2141 C 0.1947 0.37285 0.28198 0.0
C2142 C 0.25234 0.39174 0.29033 0.0
C2143 C 0.23429 0.41119 0.28857 0.0
H2144 H 0.19808 0.4817 0.0206 0.0
H2145 H 0.15117 0.39708 0.0091 0.0
H2146 H 0.11015 0.41464 0.98986 0.0
H2147 H 0.08663 0.4545 0.98116 0.0
H2148 H 0.13305 0.53923 0.99467 0.0
H2149 H 0.17569 0.52106 0.00745 0.0
C2150 C 0.17891 0.46708 0.01377 0.0
C2151 C 0.17743 0.43823 0.0167 0.0
C2152 C 0.1555 0.47731 0.00289 0.0
C2153 C 0.15267 0.41944 0.00731 0.0
C2154 C 0.12926 0.42945 0.99627 0.0
C2155 C 0.10623 0.46892 0.98627 0.0
C2156 C 0.10684 0.49811 0.98729 0.0
C2157 C 0.13031 0.4584 0.99456 0.0
C2158 C 0.13222 0.51665 0.99384 0.0
C2159 C 0.15649 0.50629 0.0014 0.0
H2160 H 0.84264 0.92392 0.2129 0.0
H2161 H 0.80371 0.96753 0.27569 0.0
H2162 H 0.77698 0.92269 0.28555 0.0
H2163 H 0.76784 0.87053 0.27899 0.0
H2164 H 0.80498 0.82763 0.21404 0.0
H2165 H 0.82895 0.87263 0.20218 0.0
C2166 C 0.82801 0.9236 0.22847 0.0
C2167 C 0.82533 0.94892 0.24374 0.0
C2168 C 0.81248 0.89783 0.23373 0.0
C2169 C 0.80607 0.9483 0.26362 0.0
C2170 C 0.79092 0.92265 0.26937 0.0
C2171 C 0.78087 0.8711 0.26198 0.0
C2172 C 0.78478 0.84571 0.2476 0.0
C2173 C 0.7944 0.89719 0.25497 0.0
C2174 C 0.80151 0.84681 0.22542 0.0
C2175 C 0.81539 0.87256 0.21871 0.0
H2176 H 0.62336 0.10182 0.77849 0.0
H2177 H 0.67384 0.0521 0.73418 0.0
H2178 H 0.71048 0.09371 0.73567 0.0
H2179 H 0.7265 0.14523 0.74734 0.0
H2180 H 0.67619 0.19309 0.7945 0.0
H2181 H 0.64128 0.15115 0.79454 0.0
C2182 C 0.64246 0.10016 0.76925 0.0
C2183 C 0.64591 0.07435 0.75582 0.0
C2184 C 0.66342 0.12378 0.7708 0.0
C2185 C 0.67086 0.07202 0.74445 0.0
C2186 C 0.6917 0.09573 0.74529 0.0
C2187 C 0.70806 0.14625 0.75791 0.0
C2188 C 0.70372 0.17218 0.77061 0.0
C2189 C 0.68803 0.12187 0.7581 0.0
C2190 C 0.67991 0.17335 0.78447 0.0
C2191 C 0.65985 0.14942 0.78442 0.0
loop_
_geom_bond_atom_site_label_1
_geom_bond_atom_site_label_2
_geom_bond_distance
_geom_bond_site_symmetry_2
_ccdc_geom_bond_type
C0 O1 1.306 . S
C0 O3 1.160 . S
O1 C0 1.306 . S
O1 Cd2 2.228 1_655 S
Cd2 O1 2.228 1_455 S
Cd2 O6 2.273 . S
Cd2 O10 2.277 . S
O3 C0 1.160 . S
O3 Cd4 2.203 1_655 S
Cd4 O3 2.203 1_455 S
Cd4 O6 2.411 . S
Cd4 O7 2.333 . S
Cd4 O8 2.352 . S
Cd4 O12 2.277 . S
Cd4 O13 2.356 . S
C5 O10 1.209 . S
C5 O12 1.226 . S
O6 Cd2 2.273 . S
O6 Cd4 2.411 . S
O6 C9 1.320 . S
O7 Cd4 2.333 . S
O7 C9 1.214 . S
O8 Cd4 2.352 . S
O8 C11 1.258 . S
C9 O6 1.320 . S
C9 O7 1.214 . S
O10 Cd2 2.277 . S
O10 C5 1.209 . S
C11 O8 1.258 . S
C11 O13 1.282 . S
O12 Cd4 2.277 . S
O12 C5 1.226 . S
O13 Cd4 2.356 . S
O13 C11 1.282 . S
C14 O15 1.306 . S
C14 O17 1.160 . S
O15 C14 1.306 . S
O15 Cd16 2.228 1_655 S
Cd16 O15 2.228 1_455 S
Cd16 O20 2.273 . S
Cd16 O24 2.277 1_455 S
O17 C14 1.160 . S
O17 Cd18 2.203 1_655 S
Cd18 O17 2.203 1_455 S
Cd18 O20 2.411 . S
Cd18 O21 2.333 . S
Cd18 O22 2.352 . S
Cd18 O26 2.277 1_455 S
Cd18 O27 2.356 . S
C19 O24 1.209 . S
C19 O26 1.226 . S
O20 Cd16 2.273 . S
O20 Cd18 2.411 . S
O20 C23 1.320 . S
O21 Cd18 2.333 . S
O21 C23 1.214 . S
O22 Cd18 2.352 . S
O22 C25 1.258 . S
C23 O20 1.320 . S
C23 O21 1.214 . S
O24 Cd16 2.277 1_655 S
O24 C19 1.209 . S
C25 O22 1.258 . S
C25 O27 1.282 . S
O26 Cd18 2.277 1_655 S
O26 C19 1.226 . S
O27 Cd18 2.356 . S
O27 C25 1.282 . S
C28 O29 1.306 . S
C28 O31 1.160 . S
O29 C28 1.306 . S
O29 Cd30 2.228 . S
Cd30 O29 2.228 . S
Cd30 O34 2.273 . S
Cd30 O38 2.277 . S
O31 C28 1.160 . S
O31 Cd32 2.203 . S
Cd32 O31 2.203 . S
Cd32 O34 2.411 . S
Cd32 O35 2.333 . S
Cd32 O36 2.352 . S
Cd32 O40 2.277 . S
Cd32 O41 2.356 . S
C33 O38 1.209 . S
C33 O40 1.226 . S
O34 Cd30 2.273 . S
O34 Cd32 2.411 . S
O34 C37 1.320 . S
O35 Cd32 2.333 . S
O35 C37 1.214 . S
O36 Cd32 2.352 . S
O36 C39 1.258 . S
C37 O34 1.320 . S
C37 O35 1.214 . S
O38 Cd30 2.277 . S
O38 C33 1.209 . S
C39 O36 1.258 . S
C39 O41 1.282 . S
O40 Cd32 2.277 . S
O40 C33 1.226 . S
O41 Cd32 2.356 . S
O41 C39 1.282 . S
C42 O43 1.306 . S
C42 O45 1.160 . S
O43 C42 1.306 . S
O43 Cd44 2.228 . S
Cd44 O43 2.228 . S
Cd44 O48 2.273 . S
Cd44 O52 2.277 . S
O45 C42 1.160 . S
O45 Cd46 2.203 . S
Cd46 O45 2.203 . S
Cd46 O48 2.411 . S
Cd46 O49 2.333 . S
Cd46 O50 2.352 . S
Cd46 O54 2.277 . S
Cd46 O55 2.356 . S
C47 O52 1.209 . S
C47 O54 1.226 . S
O48 Cd44 2.273 . S
O48 Cd46 2.411 . S
O48 C51 1.320 . S
O49 Cd46 2.333 . S
O49 C51 1.214 . S
O50 Cd46 2.352 . S
O50 C53 1.258 . S
C51 O48 1.320 . S
C51 O49 1.214 . S
O52 Cd44 2.277 . S
O52 C47 1.209 . S
C53 O50 1.258 . S
C53 O55 1.282 . S
O54 Cd46 2.277 . S
O54 C47 1.226 . S
O55 Cd46 2.356 . S
O55 C53 1.282 . S
C56 O57 1.306 . S
C56 O59 1.160 . S
O57 C56 1.306 . S
O57 Cd58 2.228 1_655 S
Cd58 O57 2.228 1_455 S
Cd58 O62 2.273 . S
Cd58 O66 2.277 . S
O59 C56 1.160 . S
O59 Cd60 2.203 1_655 S
Cd60 O59 2.203 1_455 S
Cd60 O62 2.411 . S
Cd60 O63 2.333 . S
Cd60 O64 2.352 . S
Cd60 O68 2.276 . S
Cd60 O69 2.356 . S
C61 O66 1.209 . S
C61 O68 1.229 . S
O62 Cd58 2.273 . S
O62 Cd60 2.411 . S
O62 C65 1.320 . S
O63 Cd60 2.333 . S
O63 C65 1.214 . S
O64 Cd60 2.352 . S
O64 C67 1.258 . S
C65 O62 1.320 . S
C65 O63 1.214 . S
O66 Cd58 2.277 . S
O66 C61 1.209 . S
C67 O64 1.258 . S
C67 O69 1.282 . S
O68 Cd60 2.276 . S
O68 C61 1.229 . S
O69 Cd60 2.356 . S
O69 C67 1.282 . S
C70 O71 1.306 . S
C70 O73 1.160 . S
O71 C70 1.306 . S
O71 Cd72 2.228 . S
Cd72 O71 2.228 . S
Cd72 O76 2.273 . S
Cd72 O80 2.277 . S
O73 C70 1.160 . S
O73 Cd74 2.203 . S
Cd74 O73 2.203 . S
Cd74 O76 2.411 . S
Cd74 O77 2.333 . S
Cd74 O78 2.352 . S
Cd74 O82 2.277 . S
Cd74 O83 2.356 . S
C75 O80 1.209 . S
C75 O82 1.226 . S
O76 Cd72 2.273 . S
O76 Cd74 2.411 . S
O76 C79 1.320 . S
O77 Cd74 2.333 . S
O77 C79 1.214 . S
O78 Cd74 2.352 . S
O78 C81 1.258 . S
C79 O76 1.320 . S
C79 O77 1.214 . S
O80 Cd72 2.277 . S
O80 C75 1.209 . S
C81 O78 1.258 . S
C81 O83 1.282 . S
O82 Cd74 2.277 . S
O82 C75 1.226 . S
O83 Cd74 2.356 . S
O83 C81 1.282 . S
C84 O85 1.306 . S
C84 O87 1.160 . S
O85 C84 1.306 . S
O85 Cd86 2.228 . S
Cd86 O85 2.228 . S
Cd86 O90 2.273 . S
Cd86 O94 2.277 . S
O87 C84 1.160 . S
O87 Cd88 2.203 . S
Cd88 O87 2.203 . S
Cd88 O90 2.411 . S
Cd88 O91 2.333 . S
Cd88 O92 2.352 . S
Cd88 O96 2.277 . S
Cd88 O97 2.356 . S
C89 O94 1.209 . S
C89 O96 1.226 . S
O90 Cd86 2.273 . S
O90 Cd88 2.411 . S
O90 C93 1.320 . S
O91 Cd88 2.333 . S
O91 C93 1.214 . S
O92 Cd88 2.352 . S
O92 C95 1.258 . S
C93 O90 1.320 . S
C93 O91 1.214 . S
O94 Cd86 2.277 . S
O94 C89 1.209 . S
C95 O92 1.258 . S
C95 O97 1.282 . S
O96 Cd88 2.277 . S
O96 C89 1.226 . S
O97 Cd88 2.356 . S
O97 C95 1.282 . S
C98 O99 1.306 . S
C98 O101 1.160 . S
O99 C98 1.306 . S
O99 Cd100 2.228 1_655 S
Cd100 O99 2.228 1_455 S
Cd100 O104 2.273 . S
Cd100 O108 2.277 . S
O101 C98 1.160 . S
O101 Cd102 2.203 1_655 S
Cd102 O101 2.203 1_455 S
Cd102 O104 2.411 . S
Cd102 O105 2.333 . S
Cd102 O106 2.352 . S
Cd102 O110 2.277 . S
Cd102 O111 2.356 . S
C103 O108 1.209 . S
C103 O110 1.226 . S
O104 Cd100 2.273 . S
O104 Cd102 2.411 . S
O104 C107 1.320 . S
O105 Cd102 2.333 . S
O105 C107 1.214 . S
O106 Cd102 2.352 . S
O106 C109 1.258 . S
C107 O104 1.320 . S
C107 O105 1.214 . S
O108 Cd100 2.277 . S
O108 C103 1.209 . S
C109 O106 1.258 . S
C109 O111 1.282 . S
O110 Cd102 2.277 . S
O110 C103 1.226 . S
O111 Cd102 2.356 . S
O111 C109 1.282 . S
C112 O113 1.306 . S
C112 O115 1.160 . S
O113 C112 1.306 . S
O113 Cd114 2.228 . S
Cd114 O113 2.228 . S
Cd114 O118 2.273 . S
Cd114 O122 2.277 1_545 S
O115 C112 1.160 . S
O115 Cd116 2.203 . S
Cd116 O115 2.203 . S
Cd116 O118 2.411 . S
Cd116 O119 2.333 . S
Cd116 O120 2.352 . S
Cd116 O124 2.277 . S
Cd116 O125 2.356 . S
C117 O122 1.209 . S
C117 O124 1.226 1_565 S
O118 Cd114 2.273 . S
O118 Cd116 2.411 . S
O118 C121 1.320 . S
O119 Cd116 2.333 . S
O119 C121 1.214 . S
O120 Cd116 2.352 . S
O120 C123 1.258 . S
C121 O118 1.320 . S
C121 O119 1.214 . S
O122 Cd114 2.277 1_565 S
O122 C117 1.209 . S
C123 O120 1.258 . S
C123 O125 1.282 . S
O124 Cd116 2.277 . S
O124 C117 1.226 1_545 S
O125 Cd116 2.356 . S
O125 C123 1.282 . S
C126 O127 1.306 . S
C126 O129 1.160 . S
O127 C126 1.306 . S
O127 Cd128 2.228 . S
Cd128 O127 2.228 . S
Cd128 O132 2.273 . S
Cd128 O136 2.277 . S
O129 C126 1.160 . S
O129 Cd130 2.203 . S
Cd130 O129 2.203 . S
Cd130 O132 2.411 . S
Cd130 O133 2.333 . S
Cd130 O134 2.352 . S
Cd130 O138 2.277 . S
Cd130 O139 2.356 . S
C131 O136 1.209 . S
C131 O138 1.226 . S
O132 Cd128 2.273 . S
O132 Cd130 2.411 . S
O132 C135 1.320 . S
O133 Cd130 2.333 . S
O133 C135 1.214 . S
O134 Cd130 2.352 . S
O134 C137 1.258 . S
C135 O132 1.320 . S
C135 O133 1.214 . S
O136 Cd128 2.277 . S
O136 C131 1.209 . S
C137 O134 1.258 . S
C137 O139 1.282 . S
O138 Cd130 2.277 . S
O138 C131 1.226 . S
O139 Cd130 2.356 . S
O139 C137 1.282 . S
C140 O141 1.306 . S
C140 O143 1.160 1_545 S
O141 C140 1.306 . S
O141 Cd142 2.228 . S
Cd142 O141 2.228 . S
Cd142 O146 2.273 1_545 S
Cd142 O150 2.277 . S
O143 C140 1.160 1_565 S
O143 Cd144 2.203 . S
Cd144 O143 2.203 . S
Cd144 O146 2.411 . S
Cd144 O147 2.333 . S
Cd144 O148 2.352 . S
Cd144 O152 2.277 1_565 S
Cd144 O153 2.356 . S
C145 O150 1.209 . S
C145 O152 1.226 . S
O146 Cd142 2.273 1_565 S
O146 Cd144 2.411 . S
O146 C149 1.320 . S
O147 Cd144 2.333 . S
O147 C149 1.214 . S
O148 Cd144 2.352 . S
O148 C151 1.258 . S
C149 O146 1.320 . S
C149 O147 1.214 . S
O150 Cd142 2.277 . S
O150 C145 1.209 . S
C151 O148 1.258 . S
C151 O153 1.282 . S
O152 Cd144 2.277 1_545 S
O152 C145 1.226 . S
O153 Cd144 2.356 . S
O153 C151 1.282 . S
C154 O155 1.306 . S
C154 O157 1.160 . S
O155 C154 1.306 . S
O155 Cd156 2.228 1_554 S
Cd156 O155 2.228 1_556 S
Cd156 O160 2.273 1_556 S
Cd156 O164 2.277 . S
O157 C154 1.160 . S
O157 Cd158 2.203 . S
Cd158 O157 2.203 . S
Cd158 O160 2.411 . S
Cd158 O161 2.333 . S
Cd158 O162 2.352 . S
Cd158 O166 2.277 1_554 S
Cd158 O167 2.356 . S
C159 O164 1.209 . S
C159 O166 1.226 . S
O160 Cd156 2.273 1_554 S
O160 Cd158 2.411 . S
O160 C163 1.320 . S
O161 Cd158 2.333 . S
O161 C163 1.214 . S
O162 Cd158 2.352 . S
O162 C165 1.258 . S
C163 O160 1.320 . S
C163 O161 1.214 . S
O164 Cd156 2.277 . S
O164 C159 1.209 . S
C165 O162 1.258 . S
C165 O167 1.282 . S
O166 Cd158 2.277 1_556 S
O166 C159 1.226 . S
O167 Cd158 2.356 . S
O167 C165 1.282 . S
C168 O169 1.306 . S
C168 O171 1.160 . S
O169 C168 1.306 . S
O169 Cd170 2.228 1_554 S
Cd170 O169 2.228 1_556 S
Cd170 O174 2.273 1_556 S
Cd170 O178 2.277 . S
O171 C168 1.160 . S
O171 Cd172 2.203 . S
Cd172 O171 2.203 . S
Cd172 O174 2.411 . S
Cd172 O175 2.333 . S
Cd172 O176 2.352 . S
Cd172 O180 2.277 1_554 S
Cd172 O181 2.356 . S
C173 O178 1.209 . S
C173 O180 1.226 . S
O174 Cd170 2.273 1_554 S
O174 Cd172 2.411 . S
O174 C177 1.320 . S
O175 Cd172 2.333 . S
O175 C177 1.214 . S
O176 Cd172 2.352 . S
O176 C179 1.258 . S
C177 O174 1.320 . S
C177 O175 1.214 . S
O178 Cd170 2.277 . S
O178 C173 1.209 . S
C179 O176 1.258 . S
C179 O181 1.282 . S
O180 Cd172 2.277 1_556 S
O180 C173 1.226 . S
O181 Cd172 2.356 . S
O181 C179 1.282 . S
C182 O183 1.306 . S
C182 O185 1.153 1_554 S
O183 C182 1.306 . S
O183 Cd184 2.228 . S
Cd184 O183 2.228 . S
Cd184 O188 2.273 1_554 S
Cd184 O192 2.277 . S
O185 C182 1.153 1_556 S
O185 Cd186 2.203 . S
Cd186 O185 2.203 . S
Cd186 O188 2.411 . S
Cd186 O189 2.333 . S
Cd186 O190 2.352 . S
Cd186 O194 2.277 1_556 S
Cd186 O195 2.356 . S
C187 O192 1.209 . S
C187 O194 1.226 . S
O188 Cd184 2.273 1_556 S
O188 Cd186 2.411 . S
O188 C191 1.320 . S
O189 Cd186 2.333 . S
O189 C191 1.214 . S
O190 Cd186 2.352 . S
O190 C193 1.258 . S
C191 O188 1.320 . S
C191 O189 1.214 . S
O192 Cd184 2.277 . S
O192 C187 1.209 . S
C193 O190 1.258 . S
C193 O195 1.282 . S
O194 Cd186 2.277 1_554 S
O194 C187 1.226 . S
O195 Cd186 2.356 . S
O195 C193 1.282 . S
C196 O197 1.306 . S
C196 O199 1.160 . S
O197 C196 1.306 . S
O197 Cd198 2.228 . S
Cd198 O197 2.228 . S
Cd198 O202 2.273 . S
Cd198 O206 2.277 . S
O199 C196 1.160 . S
O199 Cd200 2.203 . S
Cd200 O199 2.203 . S
Cd200 O202 2.411 . S
Cd200 O203 2.333 . S
Cd200 O204 2.352 . S
Cd200 O208 2.277 . S
Cd200 O209 2.356 . S
C201 O206 1.209 . S
C201 O208 1.226 . S
O202 Cd198 2.273 . S
O202 Cd200 2.411 . S
O202 C205 1.320 . S
O203 Cd200 2.333 . S
O203 C205 1.214 . S
O204 Cd200 2.352 . S
O204 C207 1.258 . S
C205 O202 1.320 . S
C205 O203 1.214 . S
O206 Cd198 2.277 . S
O206 C201 1.209 . S
C207 O204 1.258 . S
C207 O209 1.282 . S
O208 Cd200 2.277 . S
O208 C201 1.226 . S
O209 Cd200 2.356 . S
O209 C207 1.282 . S
C210 O211 1.306 . S
C210 O213 1.160 . S
O211 C210 1.306 . S
O211 Cd212 2.228 . S
Cd212 O211 2.228 . S
Cd212 O216 2.273 . S
Cd212 O220 2.277 . S
O213 C210 1.160 . S
O213 Cd214 2.203 . S
Cd214 O213 2.203 . S
Cd214 O216 2.411 . S
Cd214 O217 2.333 . S
Cd214 O218 2.352 . S
Cd214 O222 2.277 . S
Cd214 O223 2.356 . S
C215 O220 1.209 . S
C215 O222 1.226 . S
O216 Cd212 2.273 . S
O216 Cd214 2.411 . S
O216 C219 1.320 . S
O217 Cd214 2.333 . S
O217 C219 1.214 . S
O218 Cd214 2.352 . S
O218 C221 1.258 . S
C219 O216 1.320 . S
C219 O217 1.214 . S
O220 Cd212 2.277 . S
O220 C215 1.209 . S
C221 O218 1.258 . S
C221 O223 1.282 . S
O222 Cd214 2.277 . S
O222 C215 1.226 . S
O223 Cd214 2.356 . S
O223 C221 1.282 . S
C224 O225 1.306 . S
C224 O227 1.160 . S
O225 C224 1.306 . S
O225 Cd226 2.228 . S
Cd226 O225 2.228 . S
Cd226 O230 2.273 . S
Cd226 O234 2.277 . S
O227 C224 1.160 . S
O227 Cd228 2.203 . S
Cd228 O227 2.203 . S
Cd228 O230 2.411 . S
Cd228 O231 2.333 . S
Cd228 O232 2.352 . S
Cd228 O236 2.277 . S
Cd228 O237 2.356 . S
C229 O234 1.209 1_565 S
C229 O236 1.227 1_565 S
O230 Cd226 2.273 . S
O230 Cd228 2.411 . S
O230 C233 1.320 . S
O231 Cd228 2.333 . S
O231 C233 1.214 . S
O232 Cd228 2.352 . S
O232 C235 1.258 . S
C233 O230 1.320 . S
C233 O231 1.214 . S
O234 Cd226 2.277 . S
O234 C229 1.209 1_545 S
C235 O232 1.258 . S
C235 O237 1.282 . S
O236 Cd228 2.277 . S
O236 C229 1.227 1_545 S
O237 Cd228 2.356 . S
O237 C235 1.282 . S
C238 O239 1.306 . S
C238 O241 1.160 . S
O239 C238 1.306 . S
O239 Cd240 2.228 . S
Cd240 O239 2.228 . S
Cd240 O244 2.273 . S
Cd240 O248 2.277 . S
O241 C238 1.160 . S
O241 Cd242 2.203 . S
Cd242 O241 2.203 . S
Cd242 O244 2.411 . S
Cd242 O245 2.333 . S
Cd242 O246 2.352 . S
Cd242 O250 2.277 . S
Cd242 O251 2.356 . S
C243 O248 1.209 . S
C243 O250 1.226 . S
O244 Cd240 2.273 . S
O244 Cd242 2.411 . S
O244 C247 1.320 . S
O245 Cd242 2.333 . S
O245 C247 1.214 . S
O246 Cd242 2.352 . S
O246 C249 1.258 . S
C247 O244 1.320 . S
C247 O245 1.214 . S
O248 Cd240 2.277 . S
O248 C243 1.209 . S
C249 O246 1.258 . S
C249 O251 1.282 . S
O250 Cd242 2.277 . S
O250 C243 1.226 . S
O251 Cd242 2.356 . S
O251 C249 1.282 . S
C252 O253 1.306 . S
C252 O255 1.160 . S
O253 C252 1.306 . S
O253 Cd254 2.228 . S
Cd254 O253 2.228 . S
Cd254 O258 2.273 . S
Cd254 O262 2.277 . S
O255 C252 1.160 . S
O255 Cd256 2.203 . S
Cd256 O255 2.203 . S
Cd256 O258 2.411 . S
Cd256 O259 2.333 . S
Cd256 O260 2.352 . S
Cd256 O264 2.277 . S
Cd256 O265 2.356 . S
C257 O262 1.209 . S
C257 O264 1.226 . S
O258 Cd254 2.273 . S
O258 Cd256 2.411 . S
O258 C261 1.320 . S
O259 Cd256 2.333 . S
O259 C261 1.214 . S
O260 Cd256 2.352 . S
O260 C263 1.258 . S
C261 O258 1.320 . S
C261 O259 1.214 . S
O262 Cd254 2.277 . S
O262 C257 1.209 . S
C263 O260 1.258 . S
C263 O265 1.282 . S
O264 Cd256 2.277 . S
O264 C257 1.226 . S
O265 Cd256 2.356 . S
O265 C263 1.282 . S
C266 O267 1.306 . S
C266 O269 1.160 . S
O267 C266 1.306 . S
O267 Cd268 2.228 . S
Cd268 O267 2.228 . S
Cd268 O272 2.273 . S
Cd268 O276 2.277 . S
O269 C266 1.160 . S
O269 Cd270 2.203 . S
Cd270 O269 2.203 . S
Cd270 O272 2.411 . S
Cd270 O273 2.333 . S
Cd270 O274 2.352 1_545 S
Cd270 O278 2.277 . S
Cd270 O279 2.356 1_545 S
C271 O276 1.209 . S
C271 O278 1.226 . S
O272 Cd268 2.273 . S
O272 Cd270 2.411 . S
O272 C275 1.320 . S
O273 Cd270 2.333 . S
O273 C275 1.214 . S
O274 Cd270 2.352 1_565 S
O274 C277 1.258 . S
C275 O272 1.320 . S
C275 O273 1.214 . S
O276 Cd268 2.277 . S
O276 C271 1.209 . S
C277 O274 1.258 . S
C277 O279 1.282 . S
O278 Cd270 2.277 . S
O278 C271 1.226 . S
O279 Cd270 2.356 1_565 S
O279 C277 1.282 . S
C280 O281 1.306 . S
C280 O283 1.154 1_554 S
O281 C280 1.306 . S
O281 Cd282 2.228 . S
Cd282 O281 2.228 . S
Cd282 O286 2.273 1_554 S
Cd282 O290 2.277 . S
O283 C280 1.154 1_556 S
O283 Cd284 2.203 . S
Cd284 O283 2.203 . S
Cd284 O286 2.411 . S
Cd284 O287 2.333 . S
Cd284 O288 2.352 . S
Cd284 O292 2.277 1_556 S
Cd284 O293 2.356 . S
C285 O290 1.209 . S
C285 O292 1.226 . S
O286 Cd282 2.273 1_556 S
O286 Cd284 2.411 . S
O286 C289 1.320 . S
O287 Cd284 2.333 . S
O287 C289 1.214 . S
O288 Cd284 2.352 . S
O288 C291 1.258 . S
C289 O286 1.320 . S
C289 O287 1.214 . S
O290 Cd282 2.277 . S
O290 C285 1.209 . S
C291 O288 1.258 . S
C291 O293 1.282 . S
O292 Cd284 2.277 1_554 S
O292 C285 1.226 . S
O293 Cd284 2.356 . S
O293 C291 1.282 . S
C294 O295 1.306 . S
C294 O297 1.160 . S
O295 C294 1.306 . S
O295 Cd296 2.228 . S
Cd296 O295 2.228 . S
Cd296 O300 2.273 . S
Cd296 O304 2.277 . S
O297 C294 1.160 . S
O297 Cd298 2.203 . S
Cd298 O297 2.203 . S
Cd298 O300 2.411 . S
Cd298 O301 2.333 . S
Cd298 O302 2.352 . S
Cd298 O306 2.277 . S
Cd298 O307 2.356 . S
C299 O304 1.209 . S
C299 O306 1.226 . S
O300 Cd296 2.273 . S
O300 Cd298 2.411 . S
O300 C303 1.320 . S
O301 Cd298 2.333 . S
O301 C303 1.214 . S
O302 Cd298 2.352 . S
O302 C305 1.258 . S
C303 O300 1.320 . S
C303 O301 1.214 . S
O304 Cd296 2.277 . S
O304 C299 1.209 . S
C305 O302 1.258 . S
C305 O307 1.282 . S
O306 Cd298 2.277 . S
O306 C299 1.226 . S
O307 Cd298 2.356 . S
O307 C305 1.282 . S
C308 O309 1.306 . S
C308 O311 1.160 . S
O309 C308 1.306 . S
O309 Cd310 2.228 . S
Cd310 O309 2.228 . S
Cd310 O314 2.273 . S
Cd310 O318 2.277 . S
O311 C308 1.160 . S
O311 Cd312 2.203 . S
Cd312 O311 2.203 . S
Cd312 O314 2.411 . S
Cd312 O315 2.333 . S
Cd312 O316 2.352 . S
Cd312 O320 2.277 . S
Cd312 O321 2.356 . S
C313 O318 1.209 . S
C313 O320 1.226 . S
O314 Cd310 2.273 . S
O314 Cd312 2.411 . S
O314 C317 1.320 . S
O315 Cd312 2.333 . S
O315 C317 1.214 . S
O316 Cd312 2.352 . S
O316 C319 1.258 . S
C317 O314 1.320 . S
C317 O315 1.214 . S
O318 Cd310 2.277 . S
O318 C313 1.209 . S
C319 O316 1.258 . S
C319 O321 1.282 . S
O320 Cd312 2.277 . S
O320 C313 1.226 . S
O321 Cd312 2.356 . S
O321 C319 1.282 . S
C322 O323 1.306 . S
C322 O325 1.160 . S
O323 C322 1.306 . S
O323 Cd324 2.228 . S
Cd324 O323 2.228 . S
Cd324 O328 2.273 . S
Cd324 O332 2.277 . S
O325 C322 1.160 . S
O325 Cd326 2.203 . S
Cd326 O325 2.203 . S
Cd326 O328 2.411 . S
Cd326 O329 2.333 . S
Cd326 O330 2.352 . S
Cd326 O334 2.277 . S
Cd326 O335 2.356 . S
C327 O332 1.209 . S
C327 O334 1.226 . S
O328 Cd324 2.273 . S
O328 Cd326 2.411 . S
O328 C331 1.320 . S
O329 Cd326 2.333 . S
O329 C331 1.214 . S
O330 Cd326 2.352 . S
O330 C333 1.258 . S
C331 O328 1.320 . S
C331 O329 1.214 . S
O332 Cd324 2.277 . S
O332 C327 1.209 . S
C333 O330 1.258 . S
C333 O335 1.282 . S
O334 Cd326 2.277 . S
O334 C327 1.226 . S
O335 Cd326 2.356 . S
O335 C333 1.282 . S
Tb336 O339 2.453 . S
Tb336 O340 2.596 . S
Tb336 O341 2.374 1_554 S
Tb336 O349 2.343 1_455 S
Tb336 O351 2.353 . S
Tb336 O353 2.427 . S
Tb336 O354 2.513 1_554 S
C337 O341 1.251 . S
C337 O343 1.263 1_545 S
Tb338 O340 2.343 1_665 S
Tb338 O343 2.353 1_654 S
Tb338 O346 2.427 1_655 S
Tb338 O347 2.513 1_655 S
Tb338 O348 2.453 1_564 S
Tb338 O349 2.596 1_565 S
Tb338 O350 2.374 1_565 S
O339 Tb336 2.453 . S
O339 C355 1.245 . S
O340 Tb336 2.596 . S
O340 Tb338 2.343 1_445 S
O340 C355 1.259 . S
O341 Tb336 2.374 1_556 S
O341 C337 1.251 . S
C342 O346 1.275 . S
C342 O347 1.246 . S
O343 C337 1.263 1_565 S
O343 Tb338 2.353 1_456 S
C344 O348 1.245 1_554 S
C344 O349 1.259 . S
C345 O350 1.250 . S
C345 O351 1.263 1_655 S
O346 Tb338 2.427 1_455 S
O346 C342 1.275 . S
O347 Tb338 2.513 1_455 S
O347 C342 1.246 . S
O348 Tb338 2.453 1_546 S
O348 C344 1.245 1_556 S
O349 Tb336 2.343 1_655 S
O349 Tb338 2.596 1_545 S
O349 C344 1.259 . S
O350 Tb338 2.374 1_545 S
O350 C345 1.250 . S
O351 Tb336 2.353 . S
O351 C345 1.263 1_455 S
C352 O353 1.302 . S
C352 O354 1.228 1_554 S
O353 Tb336 2.427 . S
O353 C352 1.302 . S
O354 Tb336 2.513 1_556 S
O354 C352 1.228 1_556 S
C355 O339 1.245 . S
C355 O340 1.259 . S
Tb356 O359 2.453 . S
Tb356 O360 2.596 . S
Tb356 O361 2.374 . S
Tb356 O369 2.343 . S
Tb356 O371 2.353 . S
Tb356 O373 2.427 . S
Tb356 O374 2.513 . S
C357 O361 1.251 . S
C357 O363 1.263 . S
Tb358 O360 2.343 . S
Tb358 O363 2.353 . S
Tb358 O366 2.427 . S
Tb358 O367 2.513 . S
Tb358 O368 2.453 . S
Tb358 O369 2.596 . S
Tb358 O370 2.374 . S
O359 Tb356 2.453 . S
O359 C375 1.245 . S
O360 Tb356 2.596 . S
O360 Tb358 2.343 . S
O360 C375 1.259 . S
O361 Tb356 2.374 . S
O361 C357 1.251 . S
C362 O366 1.275 . S
C362 O367 1.246 . S
O363 C357 1.263 . S
O363 Tb358 2.353 . S
C364 O368 1.245 . S
C364 O369 1.259 . S
C365 O370 1.250 . S
C365 O371 1.263 . S
O366 Tb358 2.427 . S
O366 C362 1.275 . S
O367 Tb358 2.513 . S
O367 C362 1.246 . S
O368 Tb358 2.453 . S
O368 C364 1.245 . S
O369 Tb356 2.343 . S
O369 Tb358 2.596 . S
O369 C364 1.259 . S
O370 Tb358 2.374 . S
O370 C365 1.250 . S
O371 Tb356 2.353 . S
O371 C365 1.263 . S
C372 O373 1.275 . S
C372 O374 1.246 . S
O373 Tb356 2.427 . S
O373 C372 1.275 . S
O374 Tb356 2.513 . S
O374 C372 1.246 . S
C375 O359 1.245 . S
C375 O360 1.259 . S
Tb376 O379 2.453 . S
Tb376 O380 2.596 . S
Tb376 O381 2.374 . S
Tb376 O389 2.343 1_545 S
Tb376 O391 2.353 . S
Tb376 O393 2.427 . S
Tb376 O394 2.513 1_545 S
C377 O381 1.251 . S
C377 O383 1.263 . S
Tb378 O380 2.343 . S
Tb378 O383 2.353 . S
Tb378 O386 2.427 . S
Tb378 O387 2.513 . S
Tb378 O388 2.453 1_545 S
Tb378 O389 2.596 1_545 S
Tb378 O390 2.374 . S
O379 Tb376 2.453 . S
O379 C395 1.245 . S
O380 Tb376 2.596 . S
O380 Tb378 2.343 . S
O380 C395 1.259 . S
O381 Tb376 2.374 . S
O381 C377 1.251 . S
C382 O386 1.275 . S
C382 O387 1.246 . S
O383 C377 1.263 . S
O383 Tb378 2.353 . S
C384 O388 1.245 . S
C384 O389 1.259 . S
C385 O390 1.250 . S
C385 O391 1.263 . S
O386 Tb378 2.427 . S
O386 C382 1.275 . S
O387 Tb378 2.513 . S
O387 C382 1.246 . S
O388 Tb378 2.453 1_565 S
O388 C384 1.245 . S
O389 Tb376 2.343 1_565 S
O389 Tb378 2.596 1_565 S
O389 C384 1.259 . S
O390 Tb378 2.374 . S
O390 C385 1.250 . S
O391 Tb376 2.353 . S
O391 C385 1.263 . S
C392 O393 1.275 1_565 S
C392 O394 1.246 . S
O393 Tb376 2.427 . S
O393 C392 1.275 1_545 S
O394 Tb376 2.513 1_565 S
O394 C392 1.246 . S
C395 O379 1.245 . S
C395 O380 1.259 . S
Tb396 O399 2.453 . S
Tb396 O400 2.596 . S
Tb396 O401 2.374 . S
Tb396 O409 2.343 . S
Tb396 O411 2.353 . S
Tb396 O413 2.427 . S
Tb396 O414 2.513 . S
C397 O401 1.251 . S
C397 O403 1.263 . S
Tb398 O400 2.343 . S
Tb398 O403 2.353 . S
Tb398 O406 2.427 . S
Tb398 O407 2.513 . S
Tb398 O408 2.453 . S
Tb398 O409 2.596 . S
Tb398 O410 2.374 . S
O399 Tb396 2.453 . S
O399 C415 1.245 . S
O400 Tb396 2.596 . S
O400 Tb398 2.343 . S
O400 C415 1.259 . S
O401 Tb396 2.374 . S
O401 C397 1.251 . S
C402 O406 1.275 . S
C402 O407 1.246 . S
O403 C397 1.263 . S
O403 Tb398 2.353 . S
C404 O408 1.245 . S
C404 O409 1.259 . S
C405 O410 1.250 . S
C405 O411 1.263 . S
O406 Tb398 2.427 . S
O406 C402 1.275 . S
O407 Tb398 2.513 . S
O407 C402 1.246 . S
O408 Tb398 2.453 . S
O408 C404 1.245 . S
O409 Tb396 2.343 . S
O409 Tb398 2.596 . S
O409 C404 1.259 . S
O410 Tb398 2.374 . S
O410 C405 1.250 . S
O411 Tb396 2.353 . S
O411 C405 1.263 . S
C412 O413 1.275 . S
C412 O414 1.246 . S
O413 Tb396 2.427 . S
O413 C412 1.275 . S
O414 Tb396 2.513 . S
O414 C412 1.246 . S
C415 O399 1.245 . S
C415 O400 1.259 . S
Tb416 O419 2.453 1_545 S
Tb416 O420 2.596 . S
Tb416 O421 2.373 1_455 S
Tb416 O429 2.343 . S
Tb416 O431 2.353 . S
Tb416 O433 2.427 . S
Tb416 O434 2.513 1_455 S
C417 O421 1.257 . S
C417 O423 1.263 . S
Tb418 O420 2.343 . S
Tb418 O423 2.353 1_455 S
Tb418 O426 2.427 . S
Tb418 O427 2.513 . S
Tb418 O428 2.453 . S
Tb418 O429 2.596 . S
Tb418 O430 2.374 . S
O419 Tb416 2.453 1_565 S
O419 C435 1.245 . S
O420 Tb416 2.596 . S
O420 Tb418 2.343 . S
O420 C435 1.259 1_545 S
O421 Tb416 2.373 1_655 S
O421 C417 1.257 . S
C422 O426 1.275 . S
C422 O427 1.246 . S
O423 C417 1.263 . S
O423 Tb418 2.353 1_655 S
C424 O428 1.245 . S
C424 O429 1.259 . S
C425 O430 1.250 . S
C425 O431 1.263 . S
O426 Tb418 2.427 . S
O426 C422 1.275 . S
O427 Tb418 2.513 . S
O427 C422 1.246 . S
O428 Tb418 2.453 . S
O428 C424 1.245 . S
O429 Tb416 2.343 . S
O429 Tb418 2.596 . S
O429 C424 1.259 . S
O430 Tb418 2.374 . S
O430 C425 1.250 . S
O431 Tb416 2.353 . S
O431 C425 1.263 . S
C432 O433 1.275 1_655 S
C432 O434 1.246 . S
O433 Tb416 2.427 . S
O433 C432 1.275 1_455 S
O434 Tb416 2.513 1_655 S
O434 C432 1.246 . S
C435 O419 1.245 . S
C435 O420 1.259 1_565 S
Tb436 O439 2.453 . S
Tb436 O440 2.596 . S
Tb436 O441 2.374 . S
Tb436 O449 2.343 . S
Tb436 O451 2.353 . S
Tb436 O453 2.427 . S
Tb436 O454 2.513 . S
C437 O441 1.251 . S
C437 O443 1.263 . S
Tb438 O440 2.343 . S
Tb438 O443 2.353 . S
Tb438 O446 2.427 . S
Tb438 O447 2.513 . S
Tb438 O448 2.453 . S
Tb438 O449 2.596 . S
Tb438 O450 2.374 . S
O439 Tb436 2.453 . S
O439 C455 1.245 . S
O440 Tb436 2.596 . S
O440 Tb438 2.343 . S
O440 C455 1.259 . S
O441 Tb436 2.374 . S
O441 C437 1.251 . S
C442 O446 1.275 . S
C442 O447 1.246 . S
O443 C437 1.263 . S
O443 Tb438 2.353 . S
C444 O448 1.245 . S
C444 O449 1.259 . S
C445 O450 1.250 . S
C445 O451 1.263 . S
O446 Tb438 2.427 . S
O446 C442 1.275 . S
O447 Tb438 2.513 . S
O447 C442 1.246 . S
O448 Tb438 2.453 . S
O448 C444 1.245 . S
O449 Tb436 2.343 . S
O449 Tb438 2.596 . S
O449 C444 1.259 . S
O450 Tb438 2.374 . S
O450 C445 1.250 . S
O451 Tb436 2.353 . S
O451 C445 1.263 . S
C452 O453 1.275 . S
C452 O454 1.246 . S
O453 Tb436 2.427 . S
O453 C452 1.275 . S
O454 Tb436 2.513 . S
O454 C452 1.246 . S
C455 O439 1.245 . S
C455 O440 1.259 . S
Tb456 O459 2.453 . S
Tb456 O460 2.596 . S
Tb456 O461 2.374 1_545 S
Tb456 O469 2.343 1_556 S
Tb456 O471 2.353 1_556 S
Tb456 O473 2.427 1_556 S
Tb456 O474 2.513 1_546 S
C457 O461 1.251 . S
C457 O463 1.263 1_556 S
Tb458 O460 2.343 1_554 S
Tb458 O463 2.353 1_545 S
Tb458 O466 2.427 . S
Tb458 O467 2.513 . S
Tb458 O468 2.453 . S
Tb458 O469 2.596 . S
Tb458 O470 2.374 . S
O459 Tb456 2.453 . S
O459 C475 1.245 . S
O460 Tb456 2.596 . S
O460 Tb458 2.343 1_556 S
O460 C475 1.259 . S
O461 Tb456 2.374 1_565 S
O461 C457 1.251 . S
C462 O466 1.275 . S
C462 O467 1.246 . S
O463 C457 1.263 1_554 S
O463 Tb458 2.353 1_565 S
C464 O468 1.245 . S
C464 O469 1.259 . S
C465 O470 1.250 . S
C465 O471 1.263 . S
O466 Tb458 2.427 . S
O466 C462 1.275 . S
O467 Tb458 2.513 . S
O467 C462 1.246 . S
O468 Tb458 2.453 . S
O468 C464 1.245 . S
O469 Tb456 2.343 1_554 S
O469 Tb458 2.596 . S
O469 C464 1.259 . S
O470 Tb458 2.374 . S
O470 C465 1.250 . S
O471 Tb456 2.353 1_554 S
O471 C465 1.263 . S
C472 O473 1.275 . S
C472 O474 1.246 1_545 S
O473 Tb456 2.427 1_554 S
O473 C472 1.275 . S
O474 Tb456 2.513 1_564 S
O474 C472 1.246 1_565 S
C475 O459 1.245 . S
C475 O460 1.259 . S
Tb476 O479 2.453 . S
Tb476 O480 2.596 . S
Tb476 O481 2.374 . S
Tb476 O489 2.343 . S
Tb476 O491 2.353 . S
Tb476 O493 2.427 . S
Tb476 O494 2.513 . S
C477 O481 1.251 . S
C477 O483 1.263 . S
Tb478 O480 2.343 . S
Tb478 O483 2.353 . S
Tb478 O486 2.427 . S
Tb478 O487 2.513 . S
Tb478 O488 2.453 . S
Tb478 O489 2.596 . S
Tb478 O490 2.374 . S
O479 Tb476 2.453 . S
O479 C495 1.245 . S
O480 Tb476 2.596 . S
O480 Tb478 2.343 . S
O480 C495 1.259 . S
O481 Tb476 2.374 . S
O481 C477 1.251 . S
C482 O486 1.275 . S
C482 O487 1.246 . S
O483 C477 1.263 . S
O483 Tb478 2.353 . S
C484 O488 1.245 . S
C484 O489 1.259 . S
C485 O490 1.250 . S
C485 O491 1.263 . S
O486 Tb478 2.427 . S
O486 C482 1.275 . S
O487 Tb478 2.513 . S
O487 C482 1.246 . S
O488 Tb478 2.453 . S
O488 C484 1.245 . S
O489 Tb476 2.343 . S
O489 Tb478 2.596 . S
O489 C484 1.259 . S
O490 Tb478 2.374 . S
O490 C485 1.250 . S
O491 Tb476 2.353 . S
O491 C485 1.263 . S
C492 O493 1.275 . S
C492 O494 1.246 . S
O493 Tb476 2.427 . S
O493 C492 1.275 . S
O494 Tb476 2.513 . S
O494 C492 1.246 . S
C495 O479 1.245 . S
C495 O480 1.259 . S
Tb496 O499 2.453 1_556 S
Tb496 O500 2.596 1_556 S
Tb496 O501 2.374 . S
Tb496 O509 2.343 . S
Tb496 O511 2.353 . S
Tb496 O513 2.427 . S
Tb496 O514 2.513 . S
C497 O501 1.251 1_554 S
C497 O503 1.263 . S
Tb498 O500 2.343 . S
Tb498 O503 2.353 . S
Tb498 O506 2.427 . S
Tb498 O507 2.513 . S
Tb498 O508 2.453 . S
Tb498 O509 2.596 1_554 S
Tb498 O510 2.374 . S
O499 Tb496 2.453 1_554 S
O499 C515 1.245 . S
O500 Tb496 2.596 1_554 S
O500 Tb498 2.343 . S
O500 C515 1.259 . S
O501 Tb496 2.374 . S
O501 C497 1.251 1_556 S
C502 O506 1.275 . S
C502 O507 1.246 . S
O503 C497 1.263 . S
O503 Tb498 2.353 . S
C504 O508 1.245 . S
C504 O509 1.259 1_554 S
C505 O510 1.250 . S
C505 O511 1.263 1_554 S
O506 Tb498 2.427 . S
O506 C502 1.275 . S
O507 Tb498 2.513 . S
O507 C502 1.246 . S
O508 Tb498 2.453 . S
O508 C504 1.245 . S
O509 Tb496 2.343 . S
O509 Tb498 2.596 1_556 S
O509 C504 1.259 1_556 S
O510 Tb498 2.374 . S
O510 C505 1.250 . S
O511 Tb496 2.353 . S
O511 C505 1.263 1_556 S
C512 O513 1.275 . S
C512 O514 1.246 . S
O513 Tb496 2.427 . S
O513 C512 1.275 . S
O514 Tb496 2.513 . S
O514 C512 1.246 . S
C515 O499 1.245 . S
C515 O500 1.259 . S
Tb516 O519 2.453 . S
Tb516 O520 2.596 . S
Tb516 O521 2.374 . S
Tb516 O529 2.343 . S
Tb516 O531 2.353 . S
Tb516 O533 2.427 . S
Tb516 O534 2.513 . S
C517 O521 1.251 . S
C517 O523 1.263 . S
Tb518 O520 2.343 . S
Tb518 O523 2.353 . S
Tb518 O526 2.427 . S
Tb518 O527 2.513 . S
Tb518 O528 2.453 . S
Tb518 O529 2.596 . S
Tb518 O530 2.374 . S
O519 Tb516 2.453 . S
O519 C535 1.245 . S
O520 Tb516 2.596 . S
O520 Tb518 2.343 . S
O520 C535 1.259 . S
O521 Tb516 2.374 . S
O521 C517 1.251 . S
C522 O526 1.275 . S
C522 O527 1.246 . S
O523 C517 1.263 . S
O523 Tb518 2.353 . S
C524 O528 1.245 . S
C524 O529 1.259 . S
C525 O530 1.250 . S
C525 O531 1.263 . S
O526 Tb518 2.427 . S
O526 C522 1.275 . S
O527 Tb518 2.513 . S
O527 C522 1.246 . S
O528 Tb518 2.453 . S
O528 C524 1.245 . S
O529 Tb516 2.343 . S
O529 Tb518 2.596 . S
O529 C524 1.259 . S
O530 Tb518 2.374 . S
O530 C525 1.250 . S
O531 Tb516 2.353 . S
O531 C525 1.263 . S
C532 O533 1.275 . S
C532 O534 1.246 . S
O533 Tb516 2.427 . S
O533 C532 1.275 . S
O534 Tb516 2.513 . S
O534 C532 1.246 . S
C535 O519 1.245 . S
C535 O520 1.259 . S
Tb536 O539 2.453 . S
Tb536 O540 2.596 1_655 S
Tb536 O541 2.374 . S
Tb536 O549 2.343 . S
Tb536 O551 2.353 . S
Tb536 O553 2.427 . S
Tb536 O554 2.513 . S
C537 O541 1.251 1_455 S
C537 O543 1.263 . S
Tb538 O540 2.343 . S
Tb538 O543 2.353 . S
Tb538 O546 2.427 . S
Tb538 O547 2.513 . S
Tb538 O548 2.453 . S
Tb538 O549 2.596 1_455 S
Tb538 O550 2.374 . S
O539 Tb536 2.453 . S
O539 C555 1.245 1_655 S
O540 Tb536 2.596 1_455 S
O540 Tb538 2.343 . S
O540 C555 1.259 . S
O541 Tb536 2.374 . S
O541 C537 1.251 1_655 S
C542 O546 1.275 . S
C542 O547 1.246 . S
O543 C537 1.263 . S
O543 Tb538 2.353 . S
C544 O548 1.245 1_655 S
C544 O549 1.259 . S
C545 O550 1.250 . S
C545 O551 1.263 1_455 S
O546 Tb538 2.427 . S
O546 C542 1.275 . S
O547 Tb538 2.513 . S
O547 C542 1.246 . S
O548 Tb538 2.453 . S
O548 C544 1.245 1_455 S
O549 Tb536 2.343 . S
O549 Tb538 2.596 1_655 S
O549 C544 1.259 . S
O550 Tb538 2.374 . S
O550 C545 1.250 . S
O551 Tb536 2.353 . S
O551 C545 1.263 1_655 S
C552 O553 1.275 . S
C552 O554 1.246 . S
O553 Tb536 2.427 . S
O553 C552 1.275 . S
O554 Tb536 2.513 . S
O554 C552 1.246 . S
C555 O539 1.245 1_455 S
C555 O540 1.259 . S
Tb556 O559 2.453 . S
Tb556 O560 2.596 . S
Tb556 O561 2.374 . S
Tb556 O569 2.343 . S
Tb556 O571 2.353 . S
Tb556 O573 2.427 . S
Tb556 O574 2.513 . S
C557 O561 1.251 . S
C557 O563 1.263 . S
Tb558 O560 2.343 . S
Tb558 O563 2.353 . S
Tb558 O566 2.427 . S
Tb558 O567 2.513 . S
Tb558 O568 2.453 . S
Tb558 O569 2.596 . S
Tb558 O570 2.374 . S
O559 Tb556 2.453 . S
O559 C575 1.245 . S
O560 Tb556 2.596 . S
O560 Tb558 2.343 . S
O560 C575 1.259 . S
O561 Tb556 2.374 . S
O561 C557 1.251 . S
C562 O566 1.275 . S
C562 O567 1.246 . S
O563 C557 1.263 . S
O563 Tb558 2.353 . S
C564 O568 1.245 . S
C564 O569 1.259 . S
C565 O570 1.250 . S
C565 O571 1.263 . S
O566 Tb558 2.427 . S
O566 C562 1.275 . S
O567 Tb558 2.513 . S
O567 C562 1.246 . S
O568 Tb558 2.453 . S
O568 C564 1.245 . S
O569 Tb556 2.343 . S
O569 Tb558 2.596 . S
O569 C564 1.259 . S
O570 Tb558 2.374 . S
O570 C565 1.250 . S
O571 Tb556 2.353 . S
O571 C565 1.263 . S
C572 O573 1.275 . S
C572 O574 1.246 . S
O573 Tb556 2.427 . S
O573 C572 1.275 . S
O574 Tb556 2.513 . S
O574 C572 1.246 . S
C575 O559 1.245 . S
C575 O560 1.259 . S
Tb576 O579 2.453 . S
Tb576 O580 2.596 . S
Tb576 O581 2.374 . S
Tb576 O589 2.343 . S
Tb576 O591 2.353 . S
Tb576 O593 2.427 . S
Tb576 O594 2.513 . S
C577 O581 1.251 . S
C577 O583 1.263 . S
Tb578 O580 2.343 . S
Tb578 O583 2.353 . S
Tb578 O586 2.427 . S
Tb578 O587 2.513 . S
Tb578 O588 2.453 . S
Tb578 O589 2.596 . S
Tb578 O590 2.374 . S
O579 Tb576 2.453 . S
O579 C595 1.245 . S
O580 Tb576 2.596 . S
O580 Tb578 2.343 . S
O580 C595 1.259 . S
O581 Tb576 2.374 . S
O581 C577 1.251 . S
C582 O586 1.275 . S
C582 O587 1.246 . S
O583 C577 1.263 . S
O583 Tb578 2.353 . S
C584 O588 1.245 . S
C584 O589 1.259 . S
C585 O590 1.250 . S
C585 O591 1.263 . S
O586 Tb578 2.427 . S
O586 C582 1.275 . S
O587 Tb578 2.513 . S
O587 C582 1.246 . S
O588 Tb578 2.453 . S
O588 C584 1.245 . S
O589 Tb576 2.343 . S
O589 Tb578 2.596 . S
O589 C584 1.259 . S
O590 Tb578 2.374 . S
O590 C585 1.250 . S
O591 Tb576 2.353 . S
O591 C585 1.263 . S
C592 O593 1.275 . S
C592 O594 1.246 . S
O593 Tb576 2.427 . S
O593 C592 1.275 . S
O594 Tb576 2.513 . S
O594 C592 1.246 . S
C595 O579 1.245 . S
C595 O580 1.259 . S
Tb596 O599 2.453 . S
Tb596 O600 2.596 . S
Tb596 O601 2.374 . S
Tb596 O609 2.343 . S
Tb596 O611 2.353 . S
Tb596 O613 2.427 . S
Tb596 O614 2.513 . S
C597 O601 1.251 . S
C597 O603 1.263 . S
Tb598 O600 2.343 . S
Tb598 O603 2.353 . S
Tb598 O606 2.427 . S
Tb598 O607 2.513 . S
Tb598 O608 2.453 . S
Tb598 O609 2.596 . S
Tb598 O610 2.374 . S
O599 Tb596 2.453 . S
O599 C615 1.245 . S
O600 Tb596 2.596 . S
O600 Tb598 2.343 . S
O600 C615 1.259 . S
O601 Tb596 2.374 . S
O601 C597 1.251 . S
C602 O606 1.275 . S
C602 O607 1.246 . S
O603 C597 1.263 . S
O603 Tb598 2.353 . S
C604 O608 1.245 . S
C604 O609 1.259 . S
C605 O610 1.250 . S
C605 O611 1.263 . S
O606 Tb598 2.427 . S
O606 C602 1.275 . S
O607 Tb598 2.513 . S
O607 C602 1.246 . S
O608 Tb598 2.453 . S
O608 C604 1.245 . S
O609 Tb596 2.343 . S
O609 Tb598 2.596 . S
O609 C604 1.259 . S
O610 Tb598 2.374 . S
O610 C605 1.250 . S
O611 Tb596 2.353 . S
O611 C605 1.263 . S
C612 O613 1.275 . S
C612 O614 1.246 . S
O613 Tb596 2.427 . S
O613 C612 1.275 . S
O614 Tb596 2.513 . S
O614 C612 1.246 . S
C615 O599 1.245 . S
C615 O600 1.259 . S
Tb616 O619 2.453 . S
Tb616 O620 2.596 . S
Tb616 O621 2.374 . S
Tb616 O629 2.343 . S
Tb616 O631 2.353 . S
Tb616 O633 2.427 . S
Tb616 O634 2.513 . S
C617 O621 1.251 . S
C617 O623 1.263 . S
Tb618 O620 2.343 . S
Tb618 O623 2.353 . S
Tb618 O626 2.427 . S
Tb618 O627 2.513 . S
Tb618 O628 2.453 . S
Tb618 O629 2.596 . S
Tb618 O630 2.374 . S
O619 Tb616 2.453 . S
O619 C635 1.245 . S
O620 Tb616 2.596 . S
O620 Tb618 2.343 . S
O620 C635 1.259 . S
O621 Tb616 2.374 . S
O621 C617 1.251 . S
C622 O626 1.275 . S
C622 O627 1.246 . S
O623 C617 1.263 . S
O623 Tb618 2.353 . S
C624 O628 1.245 . S
C624 O629 1.259 . S
C625 O630 1.250 . S
C625 O631 1.263 . S
O626 Tb618 2.427 . S
O626 C622 1.275 . S
O627 Tb618 2.513 . S
O627 C622 1.246 . S
O628 Tb618 2.453 . S
O628 C624 1.245 . S
O629 Tb616 2.343 . S
O629 Tb618 2.596 . S
O629 C624 1.259 . S
O630 Tb618 2.374 . S
O630 C625 1.250 . S
O631 Tb616 2.353 . S
O631 C625 1.263 . S
C632 O633 1.275 . S
C632 O634 1.246 . S
O633 Tb616 2.427 . S
O633 C632 1.275 . S
O634 Tb616 2.513 . S
O634 C632 1.246 . S
C635 O619 1.245 . S
C635 O620 1.259 . S
Tb636 O639 2.453 . S
Tb636 O640 2.596 . S
Tb636 O641 2.374 . S
Tb636 O649 2.343 . S
Tb636 O651 2.353 1_554 S
Tb636 O653 2.427 1_554 S
Tb636 O654 2.513 . S
C637 O641 1.251 . S
C637 O643 1.263 1_455 S
Tb638 O640 2.343 1_655 S
Tb638 O643 2.353 . S
Tb638 O646 2.427 . S
Tb638 O647 2.513 . S
Tb638 O648 2.453 . S
Tb638 O649 2.596 1_655 S
Tb638 O650 2.374 1_554 S
O639 Tb636 2.453 . S
O639 C655 1.245 . S
O640 Tb636 2.596 . S
O640 Tb638 2.343 1_455 S
O640 C655 1.259 . S
O641 Tb636 2.374 . S
O641 C637 1.251 . S
C642 O646 1.275 . S
C642 O647 1.246 . S
O643 C637 1.263 1_655 S
O643 Tb638 2.353 . S
C644 O648 1.275 1_556 S
C644 O649 1.248 1_656 S
C645 O650 1.271 . S
C645 O651 1.242 1_655 S
O646 Tb638 2.427 . S
O646 C642 1.275 . S
O647 Tb638 2.513 . S
O647 C642 1.246 . S
O648 Tb638 2.453 . S
O648 C644 1.275 1_554 S
O649 Tb636 2.343 . S
O649 Tb638 2.596 1_455 S
O649 C644 1.248 1_454 S
O650 Tb638 2.374 1_556 S
O650 C645 1.271 . S
O651 Tb636 2.353 1_556 S
O651 C645 1.242 1_455 S
C652 O653 1.295 . S
C652 O654 1.218 1_556 S
O653 Tb636 2.427 1_556 S
O653 C652 1.295 . S
O654 Tb636 2.513 . S
O654 C652 1.218 1_554 S
C655 O639 1.245 . S
C655 O640 1.259 . S
H656 C662 0.930 . S
H657 C665 0.930 . S
H658 C666 0.930 . S
H659 C667 0.930 1_554 S
H660 C670 0.930 . S
H661 C671 0.930 . S
C662 H656 0.930 . S
C662 C663 1.355 . S
C662 C664 1.415 . S
C663 C662 1.355 . S
C663 C665 1.419 . S
C664 C662 1.415 . S
C664 C669 1.425 . S
C664 C671 1.409 . S
C665 H657 0.930 . S
C665 C663 1.419 . S
C665 C666 1.362 . S
C666 H658 0.930 . S
C666 C665 1.362 . S
C666 C669 1.409 . S
C667 H659 0.930 1_556 S
C667 C668 1.355 . S
C667 C669 1.415 . S
C668 C667 1.355 . S
C668 C670 1.419 . S
C669 C664 1.425 . S
C669 C666 1.409 . S
C669 C667 1.415 . S
C670 H660 0.930 . S
C670 C668 1.419 . S
C670 C671 1.362 . S
C671 H661 0.930 . S
C671 C664 1.409 . S
C671 C670 1.362 . S
H672 C678 0.930 . S
H673 C681 0.930 . S
H674 C682 0.930 . S
H675 C683 0.930 . S
H676 C686 0.930 . S
H677 C687 0.930 . S
C678 H672 0.930 . S
C678 C679 1.355 . S
C678 C680 1.415 . S
C679 C678 1.355 . S
C679 C681 1.419 . S
C680 C678 1.415 . S
C680 C685 1.425 . S
C680 C687 1.409 . S
C681 H673 0.930 . S
C681 C679 1.419 . S
C681 C682 1.362 . S
C682 H674 0.930 . S
C682 C681 1.362 . S
C682 C685 1.409 . S
C683 H675 0.930 . S
C683 C684 1.355 . S
C683 C685 1.415 . S
C684 C683 1.355 . S
C684 C686 1.419 . S
C685 C680 1.425 . S
C685 C682 1.409 . S
C685 C683 1.415 . S
C686 H676 0.930 . S
C686 C684 1.419 . S
C686 C687 1.362 . S
C687 H677 0.930 . S
C687 C680 1.409 . S
C687 C686 1.362 . S
H688 C694 0.930 . S
H689 C697 0.930 . S
H690 C698 0.930 . S
H691 C699 0.930 . S
H692 C702 0.930 . S
H693 C703 0.930 . S
C694 H688 0.930 . S
C694 C695 1.355 . S
C694 C696 1.415 . S
C695 C694 1.355 . S
C695 C697 1.419 . S
C696 C694 1.415 . S
C696 C701 1.425 . S
C696 C703 1.409 . S
C697 H689 0.930 . S
C697 C695 1.419 . S
C697 C698 1.362 . S
C698 H690 0.930 . S
C698 C697 1.362 . S
C698 C701 1.409 . S
C699 H691 0.930 . S
C699 C700 1.355 . S
C699 C701 1.415 . S
C700 C699 1.355 . S
C700 C702 1.419 . S
C701 C696 1.425 . S
C701 C698 1.409 . S
C701 C699 1.415 . S
C702 H692 0.930 . S
C702 C700 1.419 . S
C702 C703 1.362 . S
C703 H693 0.930 . S
C703 C696 1.409 . S
C703 C702 1.362 . S
H704 C710 0.930 . S
H705 C713 0.930 . S
H706 C714 0.930 . S
H707 C715 0.930 . S
H708 C718 0.930 . S
H709 C719 0.930 . S
C710 H704 0.930 . S
C710 C711 1.355 . S
C710 C712 1.415 . S
C711 C710 1.355 . S
C711 C713 1.419 . S
C712 C710 1.415 . S
C712 C717 1.425 . S
C712 C719 1.409 . S
C713 H705 0.930 . S
C713 C711 1.419 . S
C713 C714 1.362 . S
C714 H706 0.930 . S
C714 C713 1.362 . S
C714 C717 1.409 . S
C715 H707 0.930 . S
C715 C716 1.355 . S
C715 C717 1.415 . S
C716 C715 1.355 . S
C716 C718 1.419 . S
C717 C712 1.425 . S
C717 C714 1.409 . S
C717 C715 1.415 . S
C718 H708 0.930 . S
C718 C716 1.419 . S
C718 C719 1.362 . S
C719 H709 0.930 . S
C719 C712 1.409 . S
C719 C718 1.362 . S
H720 C726 0.930 . S
H721 C729 0.930 . S
H722 C730 0.930 . S
H723 C731 0.930 . S
H724 C734 0.930 . S
H725 C735 0.930 . S
C726 H720 0.930 . S
C726 C727 1.355 . S
C726 C728 1.415 . S
C727 C726 1.355 . S
C727 C729 1.419 1_455 S
C728 C726 1.415 . S
C728 C733 1.425 . S
C728 C735 1.409 . S
C729 H721 0.930 . S
C729 C727 1.419 1_655 S
C729 C730 1.362 . S
C730 H722 0.930 . S
C730 C729 1.362 . S
C730 C733 1.409 1_655 S
C731 H723 0.930 . S
C731 C732 1.355 . S
C731 C733 1.415 . S
C732 C731 1.355 . S
C732 C734 1.419 . S
C733 C728 1.425 . S
C733 C730 1.409 1_455 S
C733 C731 1.415 . S
C734 H724 0.930 . S
C734 C732 1.419 . S
C734 C735 1.362 . S
C735 H725 0.930 . S
C735 C728 1.409 . S
C735 C734 1.362 . S
H736 C742 0.930 . S
H737 C745 0.930 . S
H738 C746 0.930 . S
H739 C747 0.930 . S
H740 C750 0.930 . S
H741 C751 0.930 . S
C742 H736 0.930 . S
C742 C743 1.355 . S
C742 C744 1.415 . S
C743 C742 1.355 . S
C743 C745 1.419 . S
C744 C742 1.415 . S
C744 C749 1.425 . S
C744 C751 1.409 . S
C745 H737 0.930 . S
C745 C743 1.419 . S
C745 C746 1.362 . S
C746 H738 0.930 . S
C746 C745 1.362 . S
C746 C749 1.409 . S
C747 H739 0.930 . S
C747 C748 1.355 . S
C747 C749 1.415 . S
C748 C747 1.355 . S
C748 C750 1.419 . S
C749 C744 1.425 . S
C749 C746 1.409 . S
C749 C747 1.415 . S
C750 H740 0.930 . S
C750 C748 1.419 . S
C750 C751 1.362 . S
C751 H741 0.930 . S
C751 C744 1.409 . S
C751 C750 1.362 . S
H752 C758 0.930 . S
H753 C761 0.930 . S
H754 C762 0.930 . S
H755 C763 0.930 . S
H756 C766 0.930 . S
H757 C767 0.930 . S
C758 H752 0.930 . S
C758 C759 1.355 . S
C758 C760 1.415 . S
C759 C758 1.355 . S
C759 C761 1.419 . S
C760 C758 1.415 . S
C760 C765 1.425 . S
C760 C767 1.409 . S
C761 H753 0.930 . S
C761 C759 1.419 . S
C761 C762 1.362 . S
C762 H754 0.930 . S
C762 C761 1.362 . S
C762 C765 1.409 . S
C763 H755 0.930 . S
C763 C764 1.355 . S
C763 C765 1.415 . S
C764 C763 1.355 . S
C764 C766 1.419 . S
C765 C760 1.425 . S
C765 C762 1.409 . S
C765 C763 1.415 . S
C766 H756 0.930 . S
C766 C764 1.419 . S
C766 C767 1.362 . S
C767 H757 0.930 . S
C767 C760 1.409 . S
C767 C766 1.362 . S
H768 C774 0.930 . S
H769 C777 0.930 . S
H770 C778 0.930 . S
H771 C779 0.930 . S
H772 C782 0.930 . S
H773 C783 0.930 . S
C774 H768 0.930 . S
C774 C775 1.355 . S
C774 C776 1.415 . S
C775 C774 1.355 . S
C775 C777 1.419 . S
C776 C774 1.415 . S
C776 C781 1.425 . S
C776 C783 1.409 . S
C777 H769 0.930 . S
C777 C775 1.419 . S
C777 C778 1.362 . S
C778 H770 0.930 . S
C778 C777 1.362 . S
C778 C781 1.409 . S
C779 H771 0.930 . S
C779 C780 1.355 . S
C779 C781 1.415 . S
C780 C779 1.355 . S
C780 C782 1.419 . S
C781 C776 1.425 . S
C781 C778 1.409 . S
C781 C779 1.415 . S
C782 H772 0.930 . S
C782 C780 1.419 . S
C782 C783 1.362 . S
C783 H773 0.930 . S
C783 C776 1.409 . S
C783 C782 1.362 . S
H784 C790 0.930 . S
H785 C793 0.930 . S
H786 C794 0.930 . S
H787 C795 0.930 1_455 S
H788 C798 0.930 . S
H789 C799 0.930 . S
C790 H784 0.930 . S
C790 C791 1.355 . S
C790 C792 1.415 . S
C791 C790 1.355 . S
C791 C793 1.419 . S
C792 C790 1.415 . S
C792 C797 1.425 . S
C792 C799 1.409 . S
C793 H785 0.930 . S
C793 C791 1.419 . S
C793 C794 1.362 . S
C794 H786 0.930 . S
C794 C793 1.362 . S
C794 C797 1.409 . S
C795 H787 0.930 1_655 S
C795 C796 1.355 . S
C795 C797 1.415 . S
C796 C795 1.355 . S
C796 C798 1.419 . S
C797 C792 1.425 . S
C797 C794 1.409 . S
C797 C795 1.415 . S
C798 H788 0.930 . S
C798 C796 1.419 . S
C798 C799 1.362 . S
C799 H789 0.930 . S
C799 C792 1.409 . S
C799 C798 1.362 . S
H800 C806 0.930 . S
H801 C809 0.930 . S
H802 C810 0.930 . S
H803 C811 0.930 . S
H804 C814 0.930 . S
H805 C815 0.930 . S
C806 H800 0.930 . S
C806 C807 1.355 . S
C806 C808 1.415 . S
C807 C806 1.355 . S
C807 C809 1.419 . S
C808 C806 1.415 . S
C808 C813 1.425 . S
C808 C815 1.409 . S
C809 H801 0.930 . S
C809 C807 1.419 . S
C809 C810 1.362 . S
C810 H802 0.930 . S
C810 C809 1.362 . S
C810 C813 1.409 . S
C811 H803 0.930 . S
C811 C812 1.355 . S
C811 C813 1.415 . S
C812 C811 1.355 . S
C812 C814 1.419 . S
C813 C808 1.425 . S
C813 C810 1.409 . S
C813 C811 1.415 . S
C814 H804 0.930 . S
C814 C812 1.419 . S
C814 C815 1.362 . S
C815 H805 0.930 . S
C815 C808 1.409 . S
C815 C814 1.362 . S
H816 C822 0.930 . S
H817 C825 0.930 . S
H818 C826 0.930 . S
H819 C827 0.937 . S
H820 C830 0.930 . S
H821 C831 0.930 . S
C822 H816 0.930 . S
C822 C823 1.355 . S
C822 C824 1.415 . S
C823 C822 1.355 . S
C823 C825 1.419 1_545 S
C824 C822 1.415 . S
C824 C829 1.436 . S
C824 C831 1.409 . S
C825 H817 0.930 . S
C825 C823 1.419 1_565 S
C825 C826 1.362 . S
C826 H818 0.930 . S
C826 C825 1.362 . S
C826 C829 1.397 1_565 S
C827 H819 0.937 . S
C827 C828 1.346 1_565 S
C827 C829 1.418 1_565 S
C828 C827 1.346 1_545 S
C828 C830 1.419 . S
C829 C824 1.436 . S
C829 C826 1.397 1_545 S
C829 C827 1.418 1_545 S
C830 H820 0.930 . S
C830 C828 1.419 . S
C830 C831 1.362 . S
C831 H821 0.930 . S
C831 C824 1.409 . S
C831 C830 1.362 . S
H832 C838 0.930 . S
H833 C841 0.930 . S
H834 C842 0.930 . S
H835 C843 0.930 . S
H836 C846 0.930 . S
H837 C847 0.930 . S
C838 H832 0.930 . S
C838 C839 1.355 . S
C838 C840 1.415 . S
C839 C838 1.355 . S
C839 C841 1.419 . S
C840 C838 1.415 . S
C840 C845 1.425 . S
C840 C847 1.409 . S
C841 H833 0.930 . S
C841 C839 1.419 . S
C841 C842 1.362 . S
C842 H834 0.930 . S
C842 C841 1.362 . S
C842 C845 1.409 . S
C843 H835 0.930 . S
C843 C844 1.355 . S
C843 C845 1.415 . S
C844 C843 1.355 . S
C844 C846 1.419 . S
C845 C840 1.425 . S
C845 C842 1.409 . S
C845 C843 1.415 . S
C846 H836 0.930 . S
C846 C844 1.419 . S
C846 C847 1.362 . S
C847 H837 0.930 . S
C847 C840 1.409 . S
C847 C846 1.362 . S
H848 C854 0.930 . S
H849 C857 0.930 . S
H850 C858 0.930 . S
H851 C859 0.930 . S
H852 C862 0.930 . S
H853 C863 0.930 . S
C854 H848 0.930 . S
C854 C855 1.355 . S
C854 C856 1.415 . S
C855 C854 1.355 . S
C855 C857 1.419 . S
C856 C854 1.415 . S
C856 C861 1.425 . S
C856 C863 1.409 . S
C857 H849 0.930 . S
C857 C855 1.419 . S
C857 C858 1.362 . S
C858 H850 0.930 . S
C858 C857 1.362 . S
C858 C861 1.409 . S
C859 H851 0.930 . S
C859 C860 1.355 . S
C859 C861 1.415 . S
C860 C859 1.355 . S
C860 C862 1.419 . S
C861 C856 1.425 . S
C861 C858 1.409 . S
C861 C859 1.415 . S
C862 H852 0.930 . S
C862 C860 1.419 . S
C862 C863 1.362 . S
C863 H853 0.930 . S
C863 C856 1.409 . S
C863 C862 1.362 . S
H864 C870 0.930 . S
H865 C873 0.930 . S
H866 C874 0.930 . S
H867 C875 0.930 . S
H868 C878 0.930 . S
H869 C879 0.930 . S
C870 H864 0.930 . S
C870 C871 1.355 . S
C870 C872 1.415 . S
C871 C870 1.355 . S
C871 C873 1.419 . S
C872 C870 1.415 . S
C872 C877 1.425 . S
C872 C879 1.409 . S
C873 H865 0.930 . S
C873 C871 1.419 . S
C873 C874 1.362 . S
C874 H866 0.930 . S
C874 C873 1.362 . S
C874 C877 1.409 . S
C875 H867 0.930 . S
C875 C876 1.355 . S
C875 C877 1.415 . S
C876 C875 1.355 . S
C876 C878 1.419 . S
C877 C872 1.425 . S
C877 C874 1.409 . S
C877 C875 1.415 . S
C878 H868 0.930 . S
C878 C876 1.419 . S
C878 C879 1.362 . S
C879 H869 0.930 . S
C879 C872 1.409 . S
C879 C878 1.362 . S
H880 C886 0.917 1_565 S
H881 C889 0.930 . S
H882 C890 0.930 . S
H883 C891 0.930 . S
H884 C894 0.930 1_565 S
H885 C895 0.930 . S
C886 H880 0.917 1_545 S
C886 C887 1.362 . S
C886 C888 1.419 . S
C887 C886 1.362 . S
C887 C889 1.419 . S
C888 C886 1.419 . S
C888 C893 1.425 . S
C888 C895 1.409 1_545 S
C889 H881 0.930 . S
C889 C887 1.419 . S
C889 C890 1.362 . S
C890 H882 0.930 . S
C890 C889 1.362 . S
C890 C893 1.409 . S
C891 H883 0.930 . S
C891 C892 1.355 . S
C891 C893 1.415 . S
C892 C891 1.355 . S
C892 C894 1.419 . S
C893 C888 1.425 . S
C893 C890 1.409 . S
C893 C891 1.415 . S
C894 H884 0.930 1_545 S
C894 C892 1.419 . S
C894 C895 1.362 1_545 S
C895 H885 0.930 . S
C895 C888 1.409 1_565 S
C895 C894 1.362 1_565 S
H896 C902 0.930 . S
H897 C905 0.930 . S
H898 C906 0.930 . S
H899 C907 0.930 . S
H900 C910 0.930 . S
H901 C911 0.930 . S
C902 H896 0.930 . S
C902 C903 1.355 . S
C902 C904 1.415 . S
C903 C902 1.355 . S
C903 C905 1.419 . S
C904 C902 1.415 . S
C904 C909 1.425 . S
C904 C911 1.409 . S
C905 H897 0.930 . S
C905 C903 1.419 . S
C905 C906 1.362 . S
C906 H898 0.930 . S
C906 C905 1.362 . S
C906 C909 1.409 . S
C907 H899 0.930 . S
C907 C908 1.355 . S
C907 C909 1.415 . S
C908 C907 1.355 . S
C908 C910 1.419 . S
C909 C904 1.425 . S
C909 C906 1.409 . S
C909 C907 1.415 . S
C910 H900 0.930 . S
C910 C908 1.419 . S
C910 C911 1.362 . S
C911 H901 0.930 . S
C911 C904 1.409 . S
C911 C910 1.362 . S
H912 C918 0.930 . S
H913 C921 0.930 . S
H914 C922 0.930 . S
H915 C923 0.930 . S
H916 C926 0.930 . S
H917 C927 0.930 . S
C918 H912 0.930 . S
C918 C919 1.355 . S
C918 C920 1.415 . S
C919 C918 1.355 . S
C919 C921 1.419 . S
C920 C918 1.415 . S
C920 C925 1.425 . S
C920 C927 1.409 1_565 S
C921 H913 0.930 . S
C921 C919 1.419 . S
C921 C922 1.362 . S
C922 H914 0.930 . S
C922 C921 1.362 . S
C922 C925 1.409 . S
C923 H915 0.930 . S
C923 C924 1.355 . S
C923 C925 1.415 . S
C924 C923 1.355 . S
C924 C926 1.419 1_565 S
C925 C920 1.425 . S
C925 C922 1.409 . S
C925 C923 1.415 . S
C926 H916 0.930 . S
C926 C924 1.419 1_545 S
C926 C927 1.362 . S
C927 H917 0.930 . S
C927 C920 1.409 1_545 S
C927 C926 1.362 . S
H928 C934 0.930 . S
H929 C937 0.930 . S
H930 C938 0.930 . S
H931 C939 0.930 . S
H932 C942 0.930 . S
H933 C943 0.930 . S
C934 H928 0.930 . S
C934 C935 1.355 1_554 S
C934 C936 1.415 . S
C935 C934 1.355 1_556 S
C935 C937 1.419 . S
C936 C934 1.415 . S
C936 C941 1.425 1_554 S
C936 C943 1.409 . S
C937 H929 0.930 . S
C937 C935 1.419 . S
C937 C938 1.362 . S
C938 H930 0.930 . S
C938 C937 1.362 . S
C938 C941 1.409 . S
C939 H931 0.930 . S
C939 C940 1.355 1_556 S
C939 C941 1.415 . S
C940 C939 1.355 1_554 S
C940 C942 1.419 . S
C941 C936 1.425 1_556 S
C941 C938 1.409 . S
C941 C939 1.415 . S
C942 H932 0.930 . S
C942 C940 1.419 . S
C942 C943 1.362 . S
C943 H933 0.930 . S
C943 C936 1.409 . S
C943 C942 1.362 . S
H944 C950 0.930 . S
H945 C953 0.930 . S
H946 C954 0.930 . S
H947 C955 0.930 . S
H948 C958 0.930 . S
H949 C959 0.930 . S
C950 H944 0.930 . S
C950 C951 1.355 . S
C950 C952 1.415 . S
C951 C950 1.355 . S
C951 C953 1.419 . S
C952 C950 1.415 . S
C952 C957 1.425 . S
C952 C959 1.409 . S
C953 H945 0.930 . S
C953 C951 1.419 . S
C953 C954 1.362 . S
C954 H946 0.930 . S
C954 C953 1.362 . S
C954 C957 1.409 . S
C955 H947 0.930 . S
C955 C956 1.355 . S
C955 C957 1.415 . S
C956 C955 1.355 . S
C956 C958 1.419 . S
C957 C952 1.425 . S
C957 C954 1.409 . S
C957 C955 1.415 . S
C958 H948 0.930 . S
C958 C956 1.419 . S
C958 C959 1.362 . S
C959 H949 0.930 . S
C959 C952 1.409 . S
C959 C958 1.362 . S
H960 C966 0.930 . S
H961 C969 0.930 . S
H962 C970 0.930 . S
H963 C971 0.930 . S
H964 C974 0.930 . S
H965 C975 0.930 . S
C966 H960 0.930 . S
C966 C967 1.355 . S
C966 C968 1.415 . S
C967 C966 1.355 . S
C967 C969 1.419 . S
C968 C966 1.415 . S
C968 C973 1.425 . S
C968 C975 1.409 . S
C969 H961 0.930 . S
C969 C967 1.419 . S
C969 C970 1.362 . S
C970 H962 0.930 . S
C970 C969 1.362 . S
C970 C973 1.409 . S
C971 H963 0.930 . S
C971 C972 1.355 . S
C971 C973 1.415 . S
C972 C971 1.355 . S
C972 C974 1.419 . S
C973 C968 1.425 . S
C973 C970 1.409 . S
C973 C971 1.415 . S
C974 H964 0.930 . S
C974 C972 1.419 . S
C974 C975 1.362 . S
C975 H965 0.930 . S
C975 C968 1.409 . S
C975 C974 1.362 . S
H976 C982 0.930 . S
H977 C985 0.930 . S
H978 C986 0.930 . S
H979 C987 0.930 . S
H980 C990 0.930 . S
H981 C991 0.930 . S
C982 H976 0.930 . S
C982 C983 1.355 . S
C982 C984 1.415 . S
C983 C982 1.355 . S
C983 C985 1.419 . S
C984 C982 1.415 . S
C984 C989 1.425 . S
C984 C991 1.409 . S
C985 H977 0.930 . S
C985 C983 1.419 . S
C985 C986 1.362 . S
C986 H978 0.930 . S
C986 C985 1.362 . S
C986 C989 1.409 . S
C987 H979 0.930 . S
C987 C988 1.355 . S
C987 C989 1.415 . S
C988 C987 1.355 . S
C988 C990 1.419 . S
C989 C984 1.425 . S
C989 C986 1.409 . S
C989 C987 1.415 . S
C990 H980 0.930 . S
C990 C988 1.419 . S
C990 C991 1.362 . S
C991 H981 0.930 . S
C991 C984 1.409 . S
C991 C990 1.362 . S
H992 C998 0.930 . S
H993 C1001 0.930 . S
H994 C1002 0.930 . S
H995 C1003 0.930 . S
H996 C1006 0.930 . S
H997 C1007 0.930 . S
C998 H992 0.930 . S
C998 C999 1.355 . S
C998 C1000 1.415 . S
C999 C998 1.355 . S
C999 C1001 1.419 . S
C1000 C998 1.415 . S
C1000 C1005 1.425 . S
C1000 C1007 1.409 . S
C1001 H993 0.930 . S
C1001 C999 1.419 . S
C1001 C1002 1.362 . S
C1002 H994 0.930 . S
C1002 C1001 1.362 . S
C1002 C1005 1.409 . S
C1003 H995 0.930 . S
C1003 C1004 1.355 . S
C1003 C1005 1.415 . S
C1004 C1003 1.355 . S
C1004 C1006 1.419 . S
C1005 C1000 1.425 . S
C1005 C1002 1.409 . S
C1005 C1003 1.415 . S
C1006 H996 0.930 . S
C1006 C1004 1.419 . S
C1006 C1007 1.362 . S
C1007 H997 0.930 . S
C1007 C1000 1.409 . S
C1007 C1006 1.362 . S
H1008 C1014 0.930 . S
H1009 C1017 0.930 . S
H1010 C1018 0.930 . S
H1011 C1019 0.930 . S
H1012 C1022 0.930 . S
H1013 C1023 0.930 . S
C1014 H1008 0.930 . S
C1014 C1015 1.355 . S
C1014 C1016 1.415 . S
C1015 C1014 1.355 . S
C1015 C1017 1.419 . S
C1016 C1014 1.415 . S
C1016 C1021 1.425 . S
C1016 C1023 1.409 . S
C1017 H1009 0.930 . S
C1017 C1015 1.419 . S
C1017 C1018 1.362 . S
C1018 H1010 0.930 . S
C1018 C1017 1.362 . S
C1018 C1021 1.409 . S
C1019 H1011 0.930 . S
C1019 C1020 1.355 . S
C1019 C1021 1.415 . S
C1020 C1019 1.355 . S
C1020 C1022 1.419 . S
C1021 C1016 1.425 . S
C1021 C1018 1.409 . S
C1021 C1019 1.415 . S
C1022 H1012 0.930 . S
C1022 C1020 1.419 . S
C1022 C1023 1.362 . S
C1023 H1013 0.930 . S
C1023 C1016 1.409 . S
C1023 C1022 1.362 . S
H1024 C1030 0.930 . S
H1025 C1033 0.930 . S
H1026 C1034 0.930 . S
H1027 C1035 0.930 . S
H1028 C1038 0.930 . S
H1029 C1039 0.930 . S
C1030 H1024 0.930 . S
C1030 C1031 1.355 . S
C1030 C1032 1.415 . S
C1031 C1030 1.355 . S
C1031 C1033 1.419 . S
C1032 C1030 1.415 . S
C1032 C1037 1.425 . S
C1032 C1039 1.409 . S
C1033 H1025 0.930 . S
C1033 C1031 1.419 . S
C1033 C1034 1.362 . S
C1034 H1026 0.930 . S
C1034 C1033 1.362 . S
C1034 C1037 1.409 . S
C1035 H1027 0.930 . S
C1035 C1036 1.355 . S
C1035 C1037 1.415 . S
C1036 C1035 1.355 . S
C1036 C1038 1.419 . S
C1037 C1032 1.425 . S
C1037 C1034 1.409 . S
C1037 C1035 1.415 . S
C1038 H1028 0.930 . S
C1038 C1036 1.419 . S
C1038 C1039 1.362 . S
C1039 H1029 0.930 . S
C1039 C1032 1.409 . S
C1039 C1038 1.362 . S
H1040 C1046 0.930 . S
H1041 C1049 0.930 . S
H1042 C1050 0.930 . S
H1043 C1051 0.930 . S
H1044 C1054 0.930 . S
H1045 C1055 0.930 . S
C1046 H1040 0.930 . S
C1046 C1047 1.355 . S
C1046 C1048 1.415 . S
C1047 C1046 1.355 . S
C1047 C1049 1.419 1_455 S
C1048 C1046 1.415 . S
C1048 C1053 1.422 1_455 S
C1048 C1055 1.409 . S
C1049 H1041 0.930 . S
C1049 C1047 1.419 1_655 S
C1049 C1050 1.362 . S
C1050 H1042 0.930 . S
C1050 C1049 1.362 . S
C1050 C1053 1.412 . S
C1051 H1043 0.930 . S
C1051 C1052 1.355 1_655 S
C1051 C1053 1.415 . S
C1052 C1051 1.355 1_455 S
C1052 C1054 1.419 . S
C1053 C1048 1.422 1_655 S
C1053 C1050 1.412 . S
C1053 C1051 1.415 . S
C1054 H1044 0.930 . S
C1054 C1052 1.419 . S
C1054 C1055 1.362 . S
C1055 H1045 0.930 . S
C1055 C1048 1.409 . S
C1055 C1054 1.362 . S
H1056 C1062 0.930 . S
H1057 C1065 0.930 . S
H1058 C1066 0.930 . S
H1059 C1067 0.930 . S
H1060 C1070 0.930 . S
H1061 C1071 0.930 . S
C1062 H1056 0.930 . S
C1062 C1063 1.355 . S
C1062 C1064 1.415 . S
C1063 C1062 1.355 . S
C1063 C1065 1.419 . S
C1064 C1062 1.415 . S
C1064 C1069 1.425 . S
C1064 C1071 1.409 . S
C1065 H1057 0.930 . S
C1065 C1063 1.419 . S
C1065 C1066 1.362 . S
C1066 H1058 0.930 . S
C1066 C1065 1.362 . S
C1066 C1069 1.409 . S
C1067 H1059 0.930 . S
C1067 C1068 1.355 . S
C1067 C1069 1.415 . S
C1068 C1067 1.355 . S
C1068 C1070 1.419 . S
C1069 C1064 1.425 . S
C1069 C1066 1.409 . S
C1069 C1067 1.415 . S
C1070 H1060 0.930 . S
C1070 C1068 1.419 . S
C1070 C1071 1.362 . S
C1071 H1061 0.930 . S
C1071 C1064 1.409 . S
C1071 C1070 1.362 . S
H1072 C1078 0.930 . S
H1073 C1081 0.930 . S
H1074 C1082 0.930 . S
H1075 C1083 0.930 . S
H1076 C1086 0.930 . S
H1077 C1087 0.930 . S
C1078 H1072 0.930 . S
C1078 C1079 1.355 . S
C1078 C1080 1.415 . S
C1079 C1078 1.355 . S
C1079 C1081 1.419 . S
C1080 C1078 1.415 . S
C1080 C1085 1.425 . S
C1080 C1087 1.409 . S
C1081 H1073 0.930 . S
C1081 C1079 1.419 . S
C1081 C1082 1.362 . S
C1082 H1074 0.930 . S
C1082 C1081 1.362 . S
C1082 C1085 1.409 . S
C1083 H1075 0.930 . S
C1083 C1084 1.355 . S
C1083 C1085 1.415 . S
C1084 C1083 1.355 . S
C1084 C1086 1.419 . S
C1085 C1080 1.425 . S
C1085 C1082 1.409 . S
C1085 C1083 1.415 . S
C1086 H1076 0.930 . S
C1086 C1084 1.419 . S
C1086 C1087 1.362 . S
C1087 H1077 0.930 . S
C1087 C1080 1.409 . S
C1087 C1086 1.362 . S
H1088 C1094 0.930 . S
H1089 C1097 0.930 . S
H1090 C1098 0.930 . S
H1091 C1099 0.930 . S
H1092 C1102 0.930 . S
H1093 C1103 0.930 . S
C1094 H1088 0.930 . S
C1094 C1095 1.355 . S
C1094 C1096 1.415 . S
C1095 C1094 1.355 . S
C1095 C1097 1.419 . S
C1096 C1094 1.415 . S
C1096 C1101 1.425 . S
C1096 C1103 1.409 . S
C1097 H1089 0.930 . S
C1097 C1095 1.419 . S
C1097 C1098 1.362 . S
C1098 H1090 0.930 . S
C1098 C1097 1.362 . S
C1098 C1101 1.409 . S
C1099 H1091 0.930 . S
C1099 C1100 1.355 . S
C1099 C1101 1.415 . S
C1100 C1099 1.355 . S
C1100 C1102 1.419 . S
C1101 C1096 1.425 . S
C1101 C1098 1.409 . S
C1101 C1099 1.415 . S
C1102 H1092 0.930 . S
C1102 C1100 1.419 . S
C1102 C1103 1.362 . S
C1103 H1093 0.930 . S
C1103 C1096 1.409 . S
C1103 C1102 1.362 . S
H1104 C1110 0.930 . S
H1105 C1113 0.930 . S
H1106 C1114 0.930 . S
H1107 C1115 0.930 . S
H1108 C1118 0.930 . S
H1109 C1119 0.930 . S
C1110 H1104 0.930 . S
C1110 C1111 1.355 . S
C1110 C1112 1.415 . S
C1111 C1110 1.355 . S
C1111 C1113 1.419 1_455 S
C1112 C1110 1.415 . S
C1112 C1117 1.425 . S
C1112 C1119 1.409 . S
C1113 H1105 0.930 . S
C1113 C1111 1.419 1_655 S
C1113 C1114 1.362 . S
C1114 H1106 0.930 . S
C1114 C1113 1.362 . S
C1114 C1117 1.409 1_655 S
C1115 H1107 0.930 . S
C1115 C1116 1.355 1_655 S
C1115 C1117 1.415 1_655 S
C1116 C1115 1.355 1_455 S
C1116 C1118 1.419 . S
C1117 C1112 1.425 . S
C1117 C1114 1.409 1_455 S
C1117 C1115 1.415 1_455 S
C1118 H1108 0.930 . S
C1118 C1116 1.419 . S
C1118 C1119 1.362 . S
C1119 H1109 0.930 . S
C1119 C1112 1.409 . S
C1119 C1118 1.362 . S
H1120 C1126 0.930 . S
H1121 C1129 0.930 . S
H1122 C1130 0.930 . S
H1123 C1131 0.930 . S
H1124 C1134 0.930 . S
H1125 C1135 0.930 . S
C1126 H1120 0.930 . S
C1126 C1127 1.355 . S
C1126 C1128 1.415 . S
C1127 C1126 1.355 . S
C1127 C1129 1.419 . S
C1128 C1126 1.415 . S
C1128 C1133 1.425 . S
C1128 C1135 1.409 . S
C1129 H1121 0.930 . S
C1129 C1127 1.419 . S
C1129 C1130 1.362 . S
C1130 H1122 0.930 . S
C1130 C1129 1.362 . S
C1130 C1133 1.409 . S
C1131 H1123 0.930 . S
C1131 C1132 1.355 . S
C1131 C1133 1.415 . S
C1132 C1131 1.355 . S
C1132 C1134 1.419 . S
C1133 C1128 1.425 . S
C1133 C1130 1.409 . S
C1133 C1131 1.415 . S
C1134 H1124 0.930 . S
C1134 C1132 1.419 . S
C1134 C1135 1.362 . S
C1135 H1125 0.930 . S
C1135 C1128 1.409 . S
C1135 C1134 1.362 . S
H1136 C1142 0.930 . S
H1137 C1145 0.930 . S
H1138 C1146 0.930 . S
H1139 C1147 0.930 . S
H1140 C1150 0.930 1_554 S
H1141 C1151 0.930 . S
C1142 H1136 0.930 . S
C1142 C1143 1.355 . S
C1142 C1144 1.415 . S
C1143 C1142 1.355 . S
C1143 C1145 1.419 . S
C1144 C1142 1.415 . S
C1144 C1149 1.425 . S
C1144 C1151 1.409 . S
C1145 H1137 0.930 . S
C1145 C1143 1.419 . S
C1145 C1146 1.362 . S
C1146 H1138 0.930 . S
C1146 C1145 1.362 . S
C1146 C1149 1.409 . S
C1147 H1139 0.930 . S
C1147 C1148 1.355 . S
C1147 C1149 1.415 . S
C1148 C1147 1.355 . S
C1148 C1150 1.419 . S
C1149 C1144 1.425 . S
C1149 C1146 1.409 . S
C1149 C1147 1.415 . S
C1150 H1140 0.930 1_556 S
C1150 C1148 1.419 . S
C1150 C1151 1.362 . S
C1151 H1141 0.930 . S
C1151 C1144 1.409 . S
C1151 C1150 1.362 . S
H1152 C1158 0.930 . S
H1153 C1161 0.930 . S
H1154 C1162 0.930 . S
H1155 C1163 0.930 . S
H1156 C1166 0.930 . S
H1157 C1167 0.930 . S
C1158 H1152 0.930 . S
C1158 C1159 1.355 . S
C1158 C1160 1.415 . S
C1159 C1158 1.355 . S
C1159 C1161 1.419 . S
C1160 C1158 1.415 . S
C1160 C1165 1.425 . S
C1160 C1167 1.409 . S
C1161 H1153 0.930 . S
C1161 C1159 1.419 . S
C1161 C1162 1.362 . S
C1162 H1154 0.930 . S
C1162 C1161 1.362 . S
C1162 C1165 1.409 . S
C1163 H1155 0.930 . S
C1163 C1164 1.355 . S
C1163 C1165 1.415 . S
C1164 C1163 1.355 . S
C1164 C1166 1.419 . S
C1165 C1160 1.425 . S
C1165 C1162 1.409 . S
C1165 C1163 1.415 . S
C1166 H1156 0.930 . S
C1166 C1164 1.419 . S
C1166 C1167 1.362 . S
C1167 H1157 0.930 . S
C1167 C1160 1.409 . S
C1167 C1166 1.362 . S
H1168 C1174 0.927 . S
H1169 C1177 0.930 . S
H1170 C1178 0.930 . S
H1171 C1179 0.930 . S
H1172 C1182 0.930 1_655 S
H1173 C1183 0.933 1_565 S
C1174 H1168 0.927 . S
C1174 C1175 1.355 . S
C1174 C1176 1.415 . S
C1175 C1174 1.355 . S
C1175 C1177 1.419 . S
C1176 C1174 1.415 . S
C1176 C1181 1.425 . S
C1176 C1183 1.407 . S
C1177 H1169 0.930 . S
C1177 C1175 1.419 . S
C1177 C1178 1.362 . S
C1178 H1170 0.930 . S
C1178 C1177 1.362 . S
C1178 C1181 1.409 . S
C1179 H1171 0.930 . S
C1179 C1180 1.355 . S
C1179 C1181 1.415 . S
C1180 C1179 1.355 . S
C1180 C1182 1.419 . S
C1181 C1176 1.425 . S
C1181 C1178 1.409 . S
C1181 C1179 1.415 . S
C1182 H1172 0.930 1_455 S
C1182 C1180 1.419 . S
C1182 C1183 1.364 . S
C1183 H1173 0.933 1_545 S
C1183 C1176 1.407 . S
C1183 C1182 1.364 . S
H1184 C1190 0.930 . S
H1185 C1193 0.930 . S
H1186 C1194 0.930 . S
H1187 C1195 0.930 . S
H1188 C1198 0.930 . S
H1189 C1199 0.930 . S
C1190 H1184 0.930 . S
C1190 C1191 1.355 . S
C1190 C1192 1.415 . S
C1191 C1190 1.355 . S
C1191 C1193 1.419 . S
C1192 C1190 1.415 . S
C1192 C1197 1.425 . S
C1192 C1199 1.409 . S
C1193 H1185 0.930 . S
C1193 C1191 1.419 . S
C1193 C1194 1.362 . S
C1194 H1186 0.930 . S
C1194 C1193 1.362 . S
C1194 C1197 1.409 . S
C1195 H1187 0.930 . S
C1195 C1196 1.355 . S
C1195 C1197 1.415 . S
C1196 C1195 1.355 . S
C1196 C1198 1.419 . S
C1197 C1192 1.425 . S
C1197 C1194 1.409 . S
C1197 C1195 1.415 . S
C1198 H1188 0.930 . S
C1198 C1196 1.419 . S
C1198 C1199 1.362 . S
C1199 H1189 0.930 . S
C1199 C1192 1.409 . S
C1199 C1198 1.362 . S
H1200 C1206 0.930 . S
H1201 C1209 0.930 . S
H1202 C1210 0.930 . S
H1203 C1211 0.930 . S
H1204 C1214 0.930 . S
H1205 C1215 0.930 . S
C1206 H1200 0.930 . S
C1206 C1207 1.355 . S
C1206 C1208 1.415 . S
C1207 C1206 1.355 . S
C1207 C1209 1.419 . S
C1208 C1206 1.415 . S
C1208 C1213 1.425 . S
C1208 C1215 1.409 . S
C1209 H1201 0.930 . S
C1209 C1207 1.419 . S
C1209 C1210 1.362 . S
C1210 H1202 0.930 . S
C1210 C1209 1.362 . S
C1210 C1213 1.409 . S
C1211 H1203 0.930 . S
C1211 C1212 1.355 . S
C1211 C1213 1.415 . S
C1212 C1211 1.355 . S
C1212 C1214 1.419 . S
C1213 C1208 1.425 . S
C1213 C1210 1.409 . S
C1213 C1211 1.415 . S
C1214 H1204 0.930 . S
C1214 C1212 1.419 . S
C1214 C1215 1.362 . S
C1215 H1205 0.930 . S
C1215 C1208 1.409 . S
C1215 C1214 1.362 . S
H1216 C1222 0.930 . S
H1217 C1225 0.930 . S
H1218 C1226 0.930 . S
H1219 C1227 0.930 . S
H1220 C1230 0.930 . S
H1221 C1231 0.930 . S
C1222 H1216 0.930 . S
C1222 C1223 1.355 . S
C1222 C1224 1.415 . S
C1223 C1222 1.355 . S
C1223 C1225 1.419 . S
C1224 C1222 1.415 . S
C1224 C1229 1.425 . S
C1224 C1231 1.409 . S
C1225 H1217 0.930 . S
C1225 C1223 1.419 . S
C1225 C1226 1.362 . S
C1226 H1218 0.930 . S
C1226 C1225 1.362 . S
C1226 C1229 1.409 . S
C1227 H1219 0.930 . S
C1227 C1228 1.355 . S
C1227 C1229 1.415 . S
C1228 C1227 1.355 . S
C1228 C1230 1.419 . S
C1229 C1224 1.425 . S
C1229 C1226 1.409 . S
C1229 C1227 1.415 . S
C1230 H1220 0.930 . S
C1230 C1228 1.419 . S
C1230 C1231 1.362 . S
C1231 H1221 0.930 . S
C1231 C1224 1.409 . S
C1231 C1230 1.362 . S
H1232 C1238 0.930 . S
H1233 C1241 0.930 . S
H1234 C1242 0.930 . S
H1235 C1243 0.930 . S
H1236 C1246 0.930 . S
H1237 C1247 0.930 . S
C1238 H1232 0.930 . S
C1238 C1239 1.365 . S
C1238 C1240 1.415 . S
C1239 C1238 1.365 . S
C1239 C1241 1.397 1_565 S
C1240 C1238 1.415 . S
C1240 C1245 1.425 1_565 S
C1240 C1247 1.409 . S
C1241 H1233 0.930 . S
C1241 C1239 1.397 1_545 S
C1241 C1242 1.362 . S
C1242 H1234 0.930 . S
C1242 C1241 1.362 . S
C1242 C1245 1.409 . S
C1243 H1235 0.930 . S
C1243 C1244 1.355 . S
C1243 C1245 1.415 . S
C1244 C1243 1.355 . S
C1244 C1246 1.419 1_545 S
C1245 C1240 1.425 1_545 S
C1245 C1242 1.409 . S
C1245 C1243 1.415 . S
C1246 H1236 0.930 . S
C1246 C1244 1.419 1_565 S
C1246 C1247 1.362 . S
C1247 H1237 0.930 . S
C1247 C1240 1.409 . S
C1247 C1246 1.362 . S
H1248 C1254 0.930 . S
H1249 C1257 0.930 . S
H1250 C1258 0.930 . S
H1251 C1259 0.930 . S
H1252 C1262 0.930 . S
H1253 C1263 0.930 . S
C1254 H1248 0.930 . S
C1254 C1255 1.355 . S
C1254 C1256 1.415 . S
C1255 C1254 1.355 . S
C1255 C1257 1.419 . S
C1256 C1254 1.415 . S
C1256 C1261 1.425 . S
C1256 C1263 1.409 . S
C1257 H1249 0.930 . S
C1257 C1255 1.419 . S
C1257 C1258 1.362 . S
C1258 H1250 0.930 . S
C1258 C1257 1.362 . S
C1258 C1261 1.409 . S
C1259 H1251 0.930 . S
C1259 C1260 1.355 . S
C1259 C1261 1.415 . S
C1260 C1259 1.355 . S
C1260 C1262 1.419 . S
C1261 C1256 1.425 . S
C1261 C1258 1.409 . S
C1261 C1259 1.415 . S
C1262 H1252 0.930 . S
C1262 C1260 1.419 . S
C1262 C1263 1.362 . S
C1263 H1253 0.930 . S
C1263 C1256 1.409 . S
C1263 C1262 1.362 . S
H1264 C1270 0.930 . S
H1265 C1273 0.930 . S
H1266 C1274 0.930 . S
H1267 C1275 0.930 . S
H1268 C1278 0.930 1_565 S
H1269 C1279 0.930 1_565 S
C1270 H1264 0.930 . S
C1270 C1271 1.355 . S
C1270 C1272 1.415 . S
C1271 C1270 1.355 . S
C1271 C1273 1.419 . S
C1272 C1270 1.415 . S
C1272 C1277 1.425 . S
C1272 C1279 1.409 . S
C1273 H1265 0.930 . S
C1273 C1271 1.419 . S
C1273 C1274 1.362 . S
C1274 H1266 0.930 . S
C1274 C1273 1.362 . S
C1274 C1277 1.409 . S
C1275 H1267 0.930 . S
C1275 C1276 1.355 . S
C1275 C1277 1.415 . S
C1276 C1275 1.355 . S
C1276 C1278 1.419 . S
C1277 C1272 1.425 . S
C1277 C1274 1.409 . S
C1277 C1275 1.415 . S
C1278 H1268 0.930 1_545 S
C1278 C1276 1.419 . S
C1278 C1279 1.362 . S
C1279 H1269 0.930 1_545 S
C1279 C1272 1.409 . S
C1279 C1278 1.362 . S
H1280 C1286 0.930 . S
H1281 C1289 0.930 . S
H1282 C1290 0.930 . S
H1283 C1291 0.930 . S
H1284 C1294 0.930 . S
H1285 C1295 0.930 . S
C1286 H1280 0.930 . S
C1286 C1287 1.355 . S
C1286 C1288 1.415 . S
C1287 C1286 1.355 . S
C1287 C1289 1.419 . S
C1288 C1286 1.415 . S
C1288 C1293 1.425 . S
C1288 C1295 1.409 . S
C1289 H1281 0.930 . S
C1289 C1287 1.419 . S
C1289 C1290 1.362 . S
C1290 H1282 0.930 . S
C1290 C1289 1.362 . S
C1290 C1293 1.409 . S
C1291 H1283 0.930 . S
C1291 C1292 1.355 . S
C1291 C1293 1.415 . S
C1292 C1291 1.355 . S
C1292 C1294 1.419 . S
C1293 C1288 1.425 . S
C1293 C1290 1.409 . S
C1293 C1291 1.415 . S
C1294 H1284 0.930 . S
C1294 C1292 1.419 . S
C1294 C1295 1.362 . S
C1295 H1285 0.930 . S
C1295 C1288 1.409 . S
C1295 C1294 1.362 . S
H1296 C1302 0.930 . S
H1297 C1305 0.930 . S
H1298 C1306 0.930 . S
H1299 C1307 0.930 . S
H1300 C1310 0.930 . S
H1301 C1311 0.930 . S
C1302 H1296 0.930 . S
C1302 C1303 1.355 . S
C1302 C1304 1.415 . S
C1303 C1302 1.355 . S
C1303 C1305 1.419 . S
C1304 C1302 1.415 . S
C1304 C1309 1.425 . S
C1304 C1311 1.409 1_554 S
C1305 H1297 0.930 . S
C1305 C1303 1.419 . S
C1305 C1306 1.362 . S
C1306 H1298 0.930 . S
C1306 C1305 1.362 . S
C1306 C1309 1.409 . S
C1307 H1299 0.930 . S
C1307 C1308 1.354 . S
C1307 C1309 1.415 . S
C1308 C1307 1.354 . S
C1308 C1310 1.426 1_554 S
C1309 C1304 1.425 . S
C1309 C1306 1.409 . S
C1309 C1307 1.415 . S
C1310 H1300 0.930 . S
C1310 C1308 1.426 1_556 S
C1310 C1311 1.362 . S
C1311 H1301 0.930 . S
C1311 C1304 1.409 1_556 S
C1311 C1310 1.362 . S
H1312 C1318 0.952 . S
H1313 C1321 0.930 . S
H1314 C1322 0.930 . S
H1315 C1323 0.930 . S
H1316 C1326 0.930 1_556 S
H1317 C1327 0.930 . S
C1318 H1312 0.952 . S
C1318 C1319 1.355 . S
C1318 C1320 1.415 . S
C1319 C1318 1.355 . S
C1319 C1321 1.419 . S
C1320 C1318 1.415 . S
C1320 C1325 1.425 . S
C1320 C1327 1.409 1_554 S
C1321 H1313 0.930 . S
C1321 C1319 1.419 . S
C1321 C1322 1.362 . S
C1322 H1314 0.930 . S
C1322 C1321 1.362 . S
C1322 C1325 1.409 . S
C1323 H1315 0.930 . S
C1323 C1324 1.355 . S
C1323 C1325 1.415 . S
C1324 C1323 1.355 . S
C1324 C1326 1.419 . S
C1325 C1320 1.425 . S
C1325 C1322 1.409 . S
C1325 C1323 1.415 . S
C1326 H1316 0.930 1_554 S
C1326 C1324 1.419 . S
C1326 C1327 1.362 1_554 S
C1327 H1317 0.930 . S
C1327 C1320 1.409 1_556 S
C1327 C1326 1.362 1_556 S
H1328 C1334 0.930 . S
H1329 C1337 0.930 . S
H1330 C1338 0.930 . S
H1331 C1339 0.930 . S
H1332 C1342 0.930 . S
H1333 C1343 0.930 . S
C1334 H1328 0.930 . S
C1334 C1335 1.355 . S
C1334 C1336 1.415 . S
C1335 C1334 1.355 . S
C1335 C1337 1.419 . S
C1336 C1334 1.415 . S
C1336 C1341 1.425 . S
C1336 C1343 1.409 . S
C1337 H1329 0.930 . S
C1337 C1335 1.419 . S
C1337 C1338 1.362 . S
C1338 H1330 0.930 . S
C1338 C1337 1.362 . S
C1338 C1341 1.409 . S
C1339 H1331 0.930 . S
C1339 C1340 1.355 . S
C1339 C1341 1.415 . S
C1340 C1339 1.355 . S
C1340 C1342 1.419 . S
C1341 C1336 1.425 . S
C1341 C1338 1.409 . S
C1341 C1339 1.415 . S
C1342 H1332 0.930 . S
C1342 C1340 1.419 . S
C1342 C1343 1.362 . S
C1343 H1333 0.930 . S
C1343 C1336 1.409 . S
C1343 C1342 1.362 . S
H1344 C1350 0.930 . S
H1345 C1353 0.930 . S
H1346 C1354 0.930 . S
H1347 C1355 0.930 . S
H1348 C1358 0.930 . S
H1349 C1359 0.930 . S
C1350 H1344 0.930 . S
C1350 C1351 1.355 . S
C1350 C1352 1.415 . S
C1351 C1350 1.355 . S
C1351 C1353 1.419 . S
C1352 C1350 1.415 . S
C1352 C1357 1.425 . S
C1352 C1359 1.409 . S
C1353 H1345 0.930 . S
C1353 C1351 1.419 . S
C1353 C1354 1.362 . S
C1354 H1346 0.930 . S
C1354 C1353 1.362 . S
C1354 C1357 1.409 . S
C1355 H1347 0.930 . S
C1355 C1356 1.355 . S
C1355 C1357 1.415 . S
C1356 C1355 1.355 . S
C1356 C1358 1.419 . S
C1357 C1352 1.425 . S
C1357 C1354 1.409 . S
C1357 C1355 1.415 . S
C1358 H1348 0.930 . S
C1358 C1356 1.419 . S
C1358 C1359 1.362 . S
C1359 H1349 0.930 . S
C1359 C1352 1.409 . S
C1359 C1358 1.362 . S
H1360 C1366 0.930 . S
H1361 C1369 0.930 . S
H1362 C1370 0.930 . S
H1363 C1371 0.930 . S
H1364 C1374 0.930 . S
H1365 C1375 0.930 . S
C1366 H1360 0.930 . S
C1366 C1367 1.355 . S
C1366 C1368 1.415 . S
C1367 C1366 1.355 . S
C1367 C1369 1.419 . S
C1368 C1366 1.415 . S
C1368 C1373 1.425 . S
C1368 C1375 1.409 . S
C1369 H1361 0.930 . S
C1369 C1367 1.419 . S
C1369 C1370 1.362 . S
C1370 H1362 0.930 . S
C1370 C1369 1.362 . S
C1370 C1373 1.409 . S
C1371 H1363 0.930 . S
C1371 C1372 1.355 . S
C1371 C1373 1.415 . S
C1372 C1371 1.355 . S
C1372 C1374 1.419 . S
C1373 C1368 1.425 . S
C1373 C1370 1.409 . S
C1373 C1371 1.415 . S
C1374 H1364 0.930 . S
C1374 C1372 1.419 . S
C1374 C1375 1.362 . S
C1375 H1365 0.930 . S
C1375 C1368 1.409 . S
C1375 C1374 1.362 . S
H1376 C1382 0.930 . S
H1377 C1385 0.930 . S
H1378 C1386 0.930 . S
H1379 C1387 0.930 . S
H1380 C1390 0.930 . S
H1381 C1391 0.930 . S
C1382 H1376 0.930 . S
C1382 C1383 1.355 . S
C1382 C1384 1.415 . S
C1383 C1382 1.355 . S
C1383 C1385 1.419 . S
C1384 C1382 1.415 . S
C1384 C1389 1.425 . S
C1384 C1391 1.409 . S
C1385 H1377 0.930 . S
C1385 C1383 1.419 . S
C1385 C1386 1.362 . S
C1386 H1378 0.930 . S
C1386 C1385 1.362 . S
C1386 C1389 1.409 . S
C1387 H1379 0.930 . S
C1387 C1388 1.355 . S
C1387 C1389 1.415 . S
C1388 C1387 1.355 . S
C1388 C1390 1.419 . S
C1389 C1384 1.425 . S
C1389 C1386 1.409 . S
C1389 C1387 1.415 . S
C1390 H1380 0.930 . S
C1390 C1388 1.419 . S
C1390 C1391 1.362 . S
C1391 H1381 0.930 . S
C1391 C1384 1.409 . S
C1391 C1390 1.362 . S
H1392 C1398 0.930 . S
H1393 C1401 0.930 . S
H1394 C1402 0.930 . S
H1395 C1403 0.930 . S
H1396 C1406 0.930 . S
H1397 C1407 0.930 . S
C1398 H1392 0.930 . S
C1398 C1399 1.355 . S
C1398 C1400 1.415 . S
C1399 C1398 1.355 . S
C1399 C1401 1.419 . S
C1400 C1398 1.415 . S
C1400 C1405 1.425 . S
C1400 C1407 1.409 . S
C1401 H1393 0.930 . S
C1401 C1399 1.419 . S
C1401 C1402 1.362 . S
C1402 H1394 0.930 . S
C1402 C1401 1.362 . S
C1402 C1405 1.409 . S
C1403 H1395 0.930 . S
C1403 C1404 1.355 . S
C1403 C1405 1.415 . S
C1404 C1403 1.355 . S
C1404 C1406 1.419 . S
C1405 C1400 1.425 . S
C1405 C1402 1.409 . S
C1405 C1403 1.415 . S
C1406 H1396 0.930 . S
C1406 C1404 1.419 . S
C1406 C1407 1.362 . S
C1407 H1397 0.930 . S
C1407 C1400 1.409 . S
C1407 C1406 1.362 . S
H1408 C1414 0.930 . S
H1409 C1417 0.930 . S
H1410 C1418 0.930 . S
H1411 C1419 0.930 . S
H1412 C1422 0.930 . S
H1413 C1423 0.930 . S
C1414 H1408 0.930 . S
C1414 C1415 1.355 . S
C1414 C1416 1.415 . S
C1415 C1414 1.355 . S
C1415 C1417 1.419 . S
C1416 C1414 1.415 . S
C1416 C1421 1.425 . S
C1416 C1423 1.409 . S
C1417 H1409 0.930 . S
C1417 C1415 1.419 . S
C1417 C1418 1.362 . S
C1418 H1410 0.930 . S
C1418 C1417 1.362 . S
C1418 C1421 1.409 . S
C1419 H1411 0.930 . S
C1419 C1420 1.355 . S
C1419 C1421 1.415 . S
C1420 C1419 1.355 . S
C1420 C1422 1.419 . S
C1421 C1416 1.425 . S
C1421 C1418 1.409 . S
C1421 C1419 1.415 . S
C1422 H1412 0.930 . S
C1422 C1420 1.419 . S
C1422 C1423 1.362 . S
C1423 H1413 0.930 . S
C1423 C1416 1.409 . S
C1423 C1422 1.362 . S
H1424 C1430 0.930 . S
H1425 C1433 0.930 . S
H1426 C1434 0.930 . S
H1427 C1435 0.930 . S
H1428 C1438 0.930 . S
H1429 C1439 0.930 . S
C1430 H1424 0.930 . S
C1430 C1431 1.355 . S
C1430 C1432 1.415 . S
C1431 C1430 1.355 . S
C1431 C1433 1.419 . S
C1432 C1430 1.415 . S
C1432 C1437 1.425 . S
C1432 C1439 1.409 . S
C1433 H1425 0.930 . S
C1433 C1431 1.419 . S
C1433 C1434 1.362 . S
C1434 H1426 0.930 . S
C1434 C1433 1.362 . S
C1434 C1437 1.409 . S
C1435 H1427 0.930 . S
C1435 C1436 1.355 . S
C1435 C1437 1.415 . S
C1436 C1435 1.355 . S
C1436 C1438 1.419 . S
C1437 C1432 1.425 . S
C1437 C1434 1.409 . S
C1437 C1435 1.415 . S
C1438 H1428 0.930 . S
C1438 C1436 1.419 . S
C1438 C1439 1.362 . S
C1439 H1429 0.930 . S
C1439 C1432 1.409 . S
C1439 C1438 1.362 . S
H1440 C1446 0.930 . S
H1441 C1449 0.930 . S
H1442 C1450 0.930 . S
H1443 C1451 0.930 . S
H1444 C1454 0.930 . S
H1445 C1455 0.930 . S
C1446 H1440 0.930 . S
C1446 C1447 1.355 . S
C1446 C1448 1.415 . S
C1447 C1446 1.355 . S
C1447 C1449 1.419 . S
C1448 C1446 1.415 . S
C1448 C1453 1.425 . S
C1448 C1455 1.409 . S
C1449 H1441 0.930 . S
C1449 C1447 1.419 . S
C1449 C1450 1.362 . S
C1450 H1442 0.930 . S
C1450 C1449 1.362 . S
C1450 C1453 1.409 . S
C1451 H1443 0.930 . S
C1451 C1452 1.355 . S
C1451 C1453 1.415 . S
C1452 C1451 1.355 . S
C1452 C1454 1.419 . S
C1453 C1448 1.425 . S
C1453 C1450 1.409 . S
C1453 C1451 1.415 . S
C1454 H1444 0.930 . S
C1454 C1452 1.419 . S
C1454 C1455 1.362 . S
C1455 H1445 0.930 . S
C1455 C1448 1.409 . S
C1455 C1454 1.362 . S
H1456 C1462 0.930 1_655 S
H1457 C1465 0.930 . S
H1458 C1466 0.930 . S
H1459 C1467 0.930 1_554 S
H1460 C1470 0.930 . S
H1461 C1471 0.930 . S
C1462 H1456 0.930 1_455 S
C1462 C1463 1.355 . S
C1462 C1464 1.415 . S
C1463 C1462 1.355 . S
C1463 C1465 1.419 . S
C1464 C1462 1.415 . S
C1464 C1469 1.425 . S
C1464 C1471 1.409 1_455 S
C1465 H1457 0.930 . S
C1465 C1463 1.419 . S
C1465 C1466 1.362 . S
C1466 H1458 0.930 . S
C1466 C1465 1.362 . S
C1466 C1469 1.409 . S
C1467 H1459 0.930 1_556 S
C1467 C1468 1.355 . S
C1467 C1469 1.415 . S
C1468 C1467 1.355 . S
C1468 C1470 1.419 1_455 S
C1469 C1464 1.425 . S
C1469 C1466 1.409 . S
C1469 C1467 1.415 . S
C1470 H1460 0.930 . S
C1470 C1468 1.419 1_655 S
C1470 C1471 1.362 . S
C1471 H1461 0.930 . S
C1471 C1464 1.409 1_655 S
C1471 C1470 1.362 . S
H1472 C1478 0.930 . S
H1473 C1481 0.930 . S
H1474 C1482 0.930 . S
H1475 C1483 0.930 . S
H1476 C1486 0.930 . S
H1477 C1487 0.930 . S
C1478 H1472 0.930 . S
C1478 C1479 1.355 . S
C1478 C1480 1.415 . S
C1479 C1478 1.355 . S
C1479 C1481 1.419 . S
C1480 C1478 1.415 . S
C1480 C1485 1.425 . S
C1480 C1487 1.409 . S
C1481 H1473 0.930 . S
C1481 C1479 1.419 . S
C1481 C1482 1.362 . S
C1482 H1474 0.930 . S
C1482 C1481 1.362 . S
C1482 C1485 1.409 . S
C1483 H1475 0.930 . S
C1483 C1484 1.355 . S
C1483 C1485 1.415 . S
C1484 C1483 1.355 . S
C1484 C1486 1.419 . S
C1485 C1480 1.425 . S
C1485 C1482 1.409 . S
C1485 C1483 1.415 . S
C1486 H1476 0.930 . S
C1486 C1484 1.419 . S
C1486 C1487 1.362 . S
C1487 H1477 0.930 . S
C1487 C1480 1.409 . S
C1487 C1486 1.362 . S
H1488 C1494 0.930 . S
H1489 C1497 0.930 . S
H1490 C1498 0.930 . S
H1491 C1499 0.930 . S
H1492 C1502 0.930 . S
H1493 C1503 0.930 . S
C1494 H1488 0.930 . S
C1494 C1495 1.355 . S
C1494 C1496 1.415 . S
C1495 C1494 1.355 . S
C1495 C1497 1.419 . S
C1496 C1494 1.415 . S
C1496 C1501 1.425 . S
C1496 C1503 1.409 . S
C1497 H1489 0.930 . S
C1497 C1495 1.419 . S
C1497 C1498 1.362 . S
C1498 H1490 0.930 . S
C1498 C1497 1.362 . S
C1498 C1501 1.409 . S
C1499 H1491 0.930 . S
C1499 C1500 1.355 . S
C1499 C1501 1.415 . S
C1500 C1499 1.355 . S
C1500 C1502 1.419 . S
C1501 C1496 1.425 . S
C1501 C1498 1.409 . S
C1501 C1499 1.415 . S
C1502 H1492 0.930 . S
C1502 C1500 1.419 . S
C1502 C1503 1.362 . S
C1503 H1493 0.930 . S
C1503 C1496 1.409 . S
C1503 C1502 1.362 . S
H1504 C1510 0.930 . S
H1505 C1513 0.930 . S
H1506 C1514 0.930 . S
H1507 C1515 0.930 . S
H1508 C1518 0.930 . S
H1509 C1519 0.930 . S
C1510 H1504 0.930 . S
C1510 C1511 1.355 . S
C1510 C1512 1.415 . S
C1511 C1510 1.355 . S
C1511 C1513 1.419 . S
C1512 C1510 1.415 . S
C1512 C1517 1.425 . S
C1512 C1519 1.409 . S
C1513 H1505 0.930 . S
C1513 C1511 1.419 . S
C1513 C1514 1.362 . S
C1514 H1506 0.930 . S
C1514 C1513 1.362 . S
C1514 C1517 1.409 . S
C1515 H1507 0.930 . S
C1515 C1516 1.355 . S
C1515 C1517 1.415 . S
C1516 C1515 1.355 . S
C1516 C1518 1.419 . S
C1517 C1512 1.425 . S
C1517 C1514 1.409 . S
C1517 C1515 1.415 . S
C1518 H1508 0.930 . S
C1518 C1516 1.419 . S
C1518 C1519 1.362 . S
C1519 H1509 0.930 . S
C1519 C1512 1.409 . S
C1519 C1518 1.362 . S
H1520 C1526 0.930 . S
H1521 C1529 0.930 . S
H1522 C1530 0.930 . S
H1523 C1531 0.930 . S
H1524 C1534 0.930 . S
H1525 C1535 0.930 . S
C1526 H1520 0.930 . S
C1526 C1527 1.355 1_455 S
C1526 C1528 1.415 . S
C1527 C1526 1.355 1_655 S
C1527 C1529 1.419 . S
C1528 C1526 1.415 . S
C1528 C1533 1.425 1_455 S
C1528 C1535 1.409 . S
C1529 H1521 0.930 . S
C1529 C1527 1.419 . S
C1529 C1530 1.362 . S
C1530 H1522 0.930 . S
C1530 C1529 1.362 . S
C1530 C1533 1.409 . S
C1531 H1523 0.930 . S
C1531 C1532 1.355 1_655 S
C1531 C1533 1.415 . S
C1532 C1531 1.355 1_455 S
C1532 C1534 1.419 . S
C1533 C1528 1.425 1_655 S
C1533 C1530 1.409 . S
C1533 C1531 1.415 . S
C1534 H1524 0.930 . S
C1534 C1532 1.419 . S
C1534 C1535 1.362 . S
C1535 H1525 0.930 . S
C1535 C1528 1.409 . S
C1535 C1534 1.362 . S
H1536 C1542 0.930 . S
H1537 C1545 0.930 . S
H1538 C1546 0.930 . S
H1539 C1547 0.930 . S
H1540 C1550 0.930 . S
H1541 C1551 0.930 . S
C1542 H1536 0.930 . S
C1542 C1543 1.355 . S
C1542 C1544 1.415 . S
C1543 C1542 1.355 . S
C1543 C1545 1.419 . S
C1544 C1542 1.415 . S
C1544 C1549 1.425 . S
C1544 C1551 1.409 . S
C1545 H1537 0.930 . S
C1545 C1543 1.419 . S
C1545 C1546 1.362 . S
C1546 H1538 0.930 . S
C1546 C1545 1.362 . S
C1546 C1549 1.409 . S
C1547 H1539 0.930 . S
C1547 C1548 1.355 . S
C1547 C1549 1.415 . S
C1548 C1547 1.355 . S
C1548 C1550 1.419 . S
C1549 C1544 1.425 . S
C1549 C1546 1.409 . S
C1549 C1547 1.415 . S
C1550 H1540 0.930 . S
C1550 C1548 1.419 . S
C1550 C1551 1.362 . S
C1551 H1541 0.930 . S
C1551 C1544 1.409 . S
C1551 C1550 1.362 . S
H1552 C1558 0.930 . S
H1553 C1561 0.930 . S
H1554 C1562 0.930 . S
H1555 C1563 0.930 . S
H1556 C1566 0.930 . S
H1557 C1567 0.930 . S
C1558 H1552 0.930 . S
C1558 C1559 1.355 . S
C1558 C1560 1.415 . S
C1559 C1558 1.355 . S
C1559 C1561 1.419 . S
C1560 C1558 1.415 . S
C1560 C1565 1.425 . S
C1560 C1567 1.409 . S
C1561 H1553 0.930 . S
C1561 C1559 1.419 . S
C1561 C1562 1.362 . S
C1562 H1554 0.930 . S
C1562 C1561 1.362 . S
C1562 C1565 1.409 . S
C1563 H1555 0.930 . S
C1563 C1564 1.355 . S
C1563 C1565 1.415 . S
C1564 C1563 1.355 . S
C1564 C1566 1.419 . S
C1565 C1560 1.425 . S
C1565 C1562 1.409 . S
C1565 C1563 1.415 . S
C1566 H1556 0.930 . S
C1566 C1564 1.419 . S
C1566 C1567 1.362 . S
C1567 H1557 0.930 . S
C1567 C1560 1.409 . S
C1567 C1566 1.362 . S
H1568 C1574 0.930 . S
H1569 C1577 0.930 . S
H1570 C1578 0.930 . S
H1571 C1579 0.930 . S
H1572 C1582 0.930 . S
H1573 C1583 0.930 . S
C1574 H1568 0.930 . S
C1574 C1575 1.355 . S
C1574 C1576 1.415 . S
C1575 C1574 1.355 . S
C1575 C1577 1.419 . S
C1576 C1574 1.415 . S
C1576 C1581 1.425 . S
C1576 C1583 1.409 . S
C1577 H1569 0.930 . S
C1577 C1575 1.419 . S
C1577 C1578 1.362 . S
C1578 H1570 0.930 . S
C1578 C1577 1.362 . S
C1578 C1581 1.409 . S
C1579 H1571 0.930 . S
C1579 C1580 1.355 . S
C1579 C1581 1.415 . S
C1580 C1579 1.355 . S
C1580 C1582 1.419 . S
C1581 C1576 1.425 . S
C1581 C1578 1.409 . S
C1581 C1579 1.415 . S
C1582 H1572 0.930 . S
C1582 C1580 1.419 . S
C1582 C1583 1.362 . S
C1583 H1573 0.930 . S
C1583 C1576 1.409 . S
C1583 C1582 1.362 . S
H1584 C1590 0.930 . S
H1585 C1593 0.930 . S
H1586 C1594 0.930 . S
H1587 C1595 0.930 . S
H1588 C1598 0.964 . S
H1589 C1599 0.930 . S
C1590 H1584 0.930 . S
C1590 C1591 1.355 . S
C1590 C1592 1.415 . S
C1591 C1590 1.355 . S
C1591 C1593 1.419 . S
C1592 C1590 1.415 . S
C1592 C1597 1.425 . S
C1592 C1599 1.409 . S
C1593 H1585 0.930 . S
C1593 C1591 1.419 . S
C1593 C1594 1.362 . S
C1594 H1586 0.930 . S
C1594 C1593 1.362 . S
C1594 C1597 1.409 . S
C1595 H1587 0.930 . S
C1595 C1596 1.355 . S
C1595 C1597 1.415 . S
C1596 C1595 1.355 . S
C1596 C1598 1.419 . S
C1597 C1592 1.425 . S
C1597 C1594 1.409 . S
C1597 C1595 1.415 . S
C1598 H1588 0.964 . S
C1598 C1596 1.419 . S
C1598 C1599 1.362 . S
C1599 H1589 0.930 . S
C1599 C1592 1.409 . S
C1599 C1598 1.362 . S
H1600 C1606 0.930 . S
H1601 C1609 0.930 . S
H1602 C1610 0.930 . S
H1603 C1611 0.930 . S
H1604 C1614 0.930 . S
H1605 C1615 0.930 . S
C1606 H1600 0.930 . S
C1606 C1607 1.355 . S
C1606 C1608 1.415 . S
C1607 C1606 1.355 . S
C1607 C1609 1.419 . S
C1608 C1606 1.415 . S
C1608 C1613 1.425 . S
C1608 C1615 1.409 . S
C1609 H1601 0.930 . S
C1609 C1607 1.419 . S
C1609 C1610 1.362 . S
C1610 H1602 0.930 . S
C1610 C1609 1.362 . S
C1610 C1613 1.409 . S
C1611 H1603 0.930 . S
C1611 C1612 1.355 . S
C1611 C1613 1.415 . S
C1612 C1611 1.355 . S
C1612 C1614 1.419 . S
C1613 C1608 1.425 . S
C1613 C1610 1.409 . S
C1613 C1611 1.415 . S
C1614 H1604 0.930 . S
C1614 C1612 1.419 . S
C1614 C1615 1.362 . S
C1615 H1605 0.930 . S
C1615 C1608 1.409 . S
C1615 C1614 1.362 . S
H1616 C1622 0.930 . S
H1617 C1625 0.930 . S
H1618 C1626 0.930 . S
H1619 C1627 0.930 . S
H1620 C1630 0.930 . S
H1621 C1631 0.930 . S
C1622 H1616 0.930 . S
C1622 C1623 1.355 . S
C1622 C1624 1.415 . S
C1623 C1622 1.355 . S
C1623 C1625 1.419 . S
C1624 C1622 1.415 . S
C1624 C1629 1.425 . S
C1624 C1631 1.409 . S
C1625 H1617 0.930 . S
C1625 C1623 1.419 . S
C1625 C1626 1.362 . S
C1626 H1618 0.930 . S
C1626 C1625 1.362 . S
C1626 C1629 1.409 . S
C1627 H1619 0.930 . S
C1627 C1628 1.355 . S
C1627 C1629 1.415 . S
C1628 C1627 1.355 . S
C1628 C1630 1.419 . S
C1629 C1624 1.425 . S
C1629 C1626 1.409 . S
C1629 C1627 1.415 . S
C1630 H1620 0.930 . S
C1630 C1628 1.419 . S
C1630 C1631 1.362 . S
C1631 H1621 0.930 . S
C1631 C1624 1.409 . S
C1631 C1630 1.362 . S
H1632 C1638 0.930 . S
H1633 C1641 0.930 . S
H1634 C1642 0.930 . S
H1635 C1643 0.930 . S
H1636 C1646 0.930 . S
H1637 C1647 0.930 . S
C1638 H1632 0.930 . S
C1638 C1639 1.355 . S
C1638 C1640 1.415 . S
C1639 C1638 1.355 . S
C1639 C1641 1.419 . S
C1640 C1638 1.415 . S
C1640 C1645 1.425 . S
C1640 C1647 1.409 . S
C1641 H1633 0.930 . S
C1641 C1639 1.419 . S
C1641 C1642 1.362 . S
C1642 H1634 0.930 . S
C1642 C1641 1.362 . S
C1642 C1645 1.409 . S
C1643 H1635 0.930 . S
C1643 C1644 1.355 . S
C1643 C1645 1.415 . S
C1644 C1643 1.355 . S
C1644 C1646 1.419 . S
C1645 C1640 1.425 . S
C1645 C1642 1.409 . S
C1645 C1643 1.415 . S
C1646 H1636 0.930 . S
C1646 C1644 1.419 . S
C1646 C1647 1.362 . S
C1647 H1637 0.930 . S
C1647 C1640 1.409 . S
C1647 C1646 1.362 . S
H1648 C1654 0.930 . S
H1649 C1657 0.930 . S
H1650 C1658 0.930 . S
H1651 C1659 0.930 . S
H1652 C1662 0.930 . S
H1653 C1663 0.930 . S
C1654 H1648 0.930 . S
C1654 C1655 1.355 . S
C1654 C1656 1.415 . S
C1655 C1654 1.355 . S
C1655 C1657 1.419 . S
C1656 C1654 1.415 . S
C1656 C1661 1.425 . S
C1656 C1663 1.409 . S
C1657 H1649 0.930 . S
C1657 C1655 1.419 . S
C1657 C1658 1.362 . S
C1658 H1650 0.930 . S
C1658 C1657 1.362 . S
C1658 C1661 1.409 . S
C1659 H1651 0.930 . S
C1659 C1660 1.355 . S
C1659 C1661 1.415 . S
C1660 C1659 1.355 . S
C1660 C1662 1.419 . S
C1661 C1656 1.425 . S
C1661 C1658 1.409 . S
C1661 C1659 1.415 . S
C1662 H1652 0.930 . S
C1662 C1660 1.419 . S
C1662 C1663 1.362 . S
C1663 H1653 0.930 . S
C1663 C1656 1.409 . S
C1663 C1662 1.362 . S
H1664 C1670 0.930 . S
H1665 C1673 0.930 . S
H1666 C1674 0.930 . S
H1667 C1675 0.930 . S
H1668 C1678 0.930 . S
H1669 C1679 0.930 . S
C1670 H1664 0.930 . S
C1670 C1671 1.355 . S
C1670 C1672 1.415 . S
C1671 C1670 1.355 . S
C1671 C1673 1.419 . S
C1672 C1670 1.415 . S
C1672 C1677 1.425 . S
C1672 C1679 1.409 . S
C1673 H1665 0.930 . S
C1673 C1671 1.419 . S
C1673 C1674 1.362 . S
C1674 H1666 0.930 . S
C1674 C1673 1.362 . S
C1674 C1677 1.409 . S
C1675 H1667 0.930 . S
C1675 C1676 1.355 . S
C1675 C1677 1.415 . S
C1676 C1675 1.355 . S
C1676 C1678 1.419 . S
C1677 C1672 1.425 . S
C1677 C1674 1.409 . S
C1677 C1675 1.415 . S
C1678 H1668 0.930 . S
C1678 C1676 1.419 . S
C1678 C1679 1.362 . S
C1679 H1669 0.930 . S
C1679 C1672 1.409 . S
C1679 C1678 1.362 . S
H1680 C1686 0.930 . S
H1681 C1689 0.930 . S
H1682 C1690 0.930 . S
H1683 C1691 0.930 . S
H1684 C1694 0.930 . S
H1685 C1695 0.930 . S
C1686 H1680 0.930 . S
C1686 C1687 1.355 . S
C1686 C1688 1.415 . S
C1687 C1686 1.355 . S
C1687 C1689 1.419 . S
C1688 C1686 1.415 . S
C1688 C1693 1.425 . S
C1688 C1695 1.409 . S
C1689 H1681 0.930 . S
C1689 C1687 1.419 . S
C1689 C1690 1.362 . S
C1690 H1682 0.930 . S
C1690 C1689 1.362 . S
C1690 C1693 1.409 . S
C1691 H1683 0.930 . S
C1691 C1692 1.355 . S
C1691 C1693 1.415 . S
C1692 C1691 1.355 . S
C1692 C1694 1.419 . S
C1693 C1688 1.425 . S
C1693 C1690 1.409 . S
C1693 C1691 1.415 . S
C1694 H1684 0.930 . S
C1694 C1692 1.419 . S
C1694 C1695 1.362 . S
C1695 H1685 0.930 . S
C1695 C1688 1.409 . S
C1695 C1694 1.362 . S
H1696 C1702 0.930 . S
H1697 C1705 0.930 . S
H1698 C1706 0.930 . S
H1699 C1707 0.930 . S
H1700 C1710 0.930 . S
H1701 C1711 0.930 . S
C1702 H1696 0.930 . S
C1702 C1703 1.355 . S
C1702 C1704 1.415 . S
C1703 C1702 1.355 . S
C1703 C1705 1.419 . S
C1704 C1702 1.415 . S
C1704 C1709 1.425 . S
C1704 C1711 1.409 . S
C1705 H1697 0.930 . S
C1705 C1703 1.419 . S
C1705 C1706 1.362 . S
C1706 H1698 0.930 . S
C1706 C1705 1.362 . S
C1706 C1709 1.409 . S
C1707 H1699 0.930 . S
C1707 C1708 1.355 . S
C1707 C1709 1.415 . S
C1708 C1707 1.355 . S
C1708 C1710 1.419 . S
C1709 C1704 1.425 . S
C1709 C1706 1.409 . S
C1709 C1707 1.415 . S
C1710 H1700 0.930 . S
C1710 C1708 1.419 . S
C1710 C1711 1.362 . S
C1711 H1701 0.930 . S
C1711 C1704 1.409 . S
C1711 C1710 1.362 . S
H1712 C1718 0.930 . S
H1713 C1721 0.930 . S
H1714 C1722 0.930 . S
H1715 C1723 0.930 . S
H1716 C1726 0.930 . S
H1717 C1727 0.930 . S
C1718 H1712 0.930 . S
C1718 C1719 1.355 . S
C1718 C1720 1.415 . S
C1719 C1718 1.355 . S
C1719 C1721 1.419 . S
C1720 C1718 1.415 . S
C1720 C1725 1.425 . S
C1720 C1727 1.409 . S
C1721 H1713 0.930 . S
C1721 C1719 1.419 . S
C1721 C1722 1.362 . S
C1722 H1714 0.930 . S
C1722 C1721 1.362 . S
C1722 C1725 1.409 . S
C1723 H1715 0.930 . S
C1723 C1724 1.355 . S
C1723 C1725 1.415 . S
C1724 C1723 1.355 . S
C1724 C1726 1.419 . S
C1725 C1720 1.425 . S
C1725 C1722 1.409 . S
C1725 C1723 1.415 . S
C1726 H1716 0.930 . S
C1726 C1724 1.419 . S
C1726 C1727 1.362 . S
C1727 H1717 0.930 . S
C1727 C1720 1.409 . S
C1727 C1726 1.362 . S
H1728 C1734 0.930 . S
H1729 C1737 0.930 . S
H1730 C1738 0.930 . S
H1731 C1739 0.930 . S
H1732 C1742 0.930 1_556 S
H1733 C1743 0.917 1_556 S
C1734 H1728 0.930 . S
C1734 C1735 1.355 . S
C1734 C1736 1.415 . S
C1735 C1734 1.355 . S
C1735 C1737 1.419 . S
C1736 C1734 1.415 . S
C1736 C1741 1.425 . S
C1736 C1743 1.424 . S
C1737 H1729 0.930 . S
C1737 C1735 1.419 . S
C1737 C1738 1.362 . S
C1738 H1730 0.930 . S
C1738 C1737 1.362 . S
C1738 C1741 1.409 . S
C1739 H1731 0.930 . S
C1739 C1740 1.355 . S
C1739 C1741 1.415 . S
C1740 C1739 1.355 . S
C1740 C1742 1.419 1_565 S
C1741 C1736 1.425 . S
C1741 C1738 1.409 . S
C1741 C1739 1.415 . S
C1742 H1732 0.930 1_554 S
C1742 C1740 1.419 1_545 S
C1742 C1743 1.361 1_545 S
C1743 H1733 0.917 1_554 S
C1743 C1736 1.424 . S
C1743 C1742 1.361 1_565 S
H1744 C1750 0.930 . S
H1745 C1753 0.930 . S
H1746 C1754 0.930 . S
H1747 C1755 0.930 . S
H1748 C1758 0.930 . S
H1749 C1759 0.930 . S
C1750 H1744 0.930 . S
C1750 C1751 1.355 . S
C1750 C1752 1.415 . S
C1751 C1750 1.355 . S
C1751 C1753 1.419 . S
C1752 C1750 1.415 . S
C1752 C1757 1.425 . S
C1752 C1759 1.409 . S
C1753 H1745 0.930 . S
C1753 C1751 1.419 . S
C1753 C1754 1.362 . S
C1754 H1746 0.930 . S
C1754 C1753 1.362 . S
C1754 C1757 1.409 . S
C1755 H1747 0.930 . S
C1755 C1756 1.355 . S
C1755 C1757 1.415 . S
C1756 C1755 1.355 . S
C1756 C1758 1.419 . S
C1757 C1752 1.425 . S
C1757 C1754 1.409 . S
C1757 C1755 1.415 . S
C1758 H1748 0.930 . S
C1758 C1756 1.419 . S
C1758 C1759 1.362 . S
C1759 H1749 0.930 . S
C1759 C1752 1.409 . S
C1759 C1758 1.362 . S
H1760 C1766 0.930 . S
H1761 C1769 0.930 . S
H1762 C1770 0.930 . S
H1763 C1771 0.930 . S
H1764 C1774 0.930 . S
H1765 C1775 0.930 . S
C1766 H1760 0.930 . S
C1766 C1767 1.355 . S
C1766 C1768 1.415 . S
C1767 C1766 1.355 . S
C1767 C1769 1.419 . S
C1768 C1766 1.415 . S
C1768 C1773 1.425 . S
C1768 C1775 1.409 . S
C1769 H1761 0.930 . S
C1769 C1767 1.419 . S
C1769 C1770 1.362 . S
C1770 H1762 0.930 . S
C1770 C1769 1.362 . S
C1770 C1773 1.409 . S
C1771 H1763 0.930 . S
C1771 C1772 1.355 . S
C1771 C1773 1.415 . S
C1772 C1771 1.355 . S
C1772 C1774 1.419 . S
C1773 C1768 1.425 . S
C1773 C1770 1.409 . S
C1773 C1771 1.415 . S
C1774 H1764 0.930 . S
C1774 C1772 1.419 . S
C1774 C1775 1.362 . S
C1775 H1765 0.930 . S
C1775 C1768 1.409 . S
C1775 C1774 1.362 . S
H1776 C1782 0.930 . S
H1777 C1785 0.930 . S
H1778 C1786 0.930 . S
H1779 C1787 0.930 . S
H1780 C1790 0.930 . S
H1781 C1791 0.930 . S
C1782 H1776 0.930 . S
C1782 C1783 1.355 . S
C1782 C1784 1.415 . S
C1783 C1782 1.355 . S
C1783 C1785 1.419 . S
C1784 C1782 1.415 . S
C1784 C1789 1.425 . S
C1784 C1791 1.409 . S
C1785 H1777 0.930 . S
C1785 C1783 1.419 . S
C1785 C1786 1.362 . S
C1786 H1778 0.930 . S
C1786 C1785 1.362 . S
C1786 C1789 1.409 . S
C1787 H1779 0.930 . S
C1787 C1788 1.355 . S
C1787 C1789 1.415 . S
C1788 C1787 1.355 . S
C1788 C1790 1.419 . S
C1789 C1784 1.425 . S
C1789 C1786 1.409 . S
C1789 C1787 1.415 . S
C1790 H1780 0.930 . S
C1790 C1788 1.419 . S
C1790 C1791 1.362 . S
C1791 H1781 0.930 . S
C1791 C1784 1.409 . S
C1791 C1790 1.362 . S
H1792 C1798 0.930 . S
H1793 C1801 0.930 . S
H1794 C1802 0.930 . S
H1795 C1803 0.930 . S
H1796 C1806 0.930 . S
H1797 C1807 0.930 . S
C1798 H1792 0.930 . S
C1798 C1799 1.355 . S
C1798 C1800 1.415 . S
C1799 C1798 1.355 . S
C1799 C1801 1.419 . S
C1800 C1798 1.415 . S
C1800 C1805 1.425 . S
C1800 C1807 1.409 . S
C1801 H1793 0.930 . S
C1801 C1799 1.419 . S
C1801 C1802 1.362 . S
C1802 H1794 0.930 . S
C1802 C1801 1.362 . S
C1802 C1805 1.409 . S
C1803 H1795 0.930 . S
C1803 C1804 1.355 . S
C1803 C1805 1.415 . S
C1804 C1803 1.355 . S
C1804 C1806 1.419 . S
C1805 C1800 1.425 . S
C1805 C1802 1.409 . S
C1805 C1803 1.415 . S
C1806 H1796 0.930 . S
C1806 C1804 1.419 . S
C1806 C1807 1.362 . S
C1807 H1797 0.930 . S
C1807 C1800 1.409 . S
C1807 C1806 1.362 . S
H1808 C1814 0.930 . S
H1809 C1817 0.930 . S
H1810 C1818 0.930 . S
H1811 C1819 0.930 . S
H1812 C1822 0.930 . S
H1813 C1823 0.930 . S
C1814 H1808 0.930 . S
C1814 C1815 1.355 . S
C1814 C1816 1.415 . S
C1815 C1814 1.355 . S
C1815 C1817 1.419 . S
C1816 C1814 1.415 . S
C1816 C1821 1.425 . S
C1816 C1823 1.409 . S
C1817 H1809 0.930 . S
C1817 C1815 1.419 . S
C1817 C1818 1.362 . S
C1818 H1810 0.930 . S
C1818 C1817 1.362 . S
C1818 C1821 1.409 . S
C1819 H1811 0.930 . S
C1819 C1820 1.355 . S
C1819 C1821 1.415 . S
C1820 C1819 1.355 . S
C1820 C1822 1.419 . S
C1821 C1816 1.425 . S
C1821 C1818 1.409 . S
C1821 C1819 1.415 . S
C1822 H1812 0.930 . S
C1822 C1820 1.419 . S
C1822 C1823 1.362 . S
C1823 H1813 0.930 . S
C1823 C1816 1.409 . S
C1823 C1822 1.362 . S
H1824 C1830 0.930 . S
H1825 C1833 0.930 . S
H1826 C1834 0.930 . S
H1827 C1835 0.930 . S
H1828 C1838 0.930 . S
H1829 C1839 0.930 . S
C1830 H1824 0.930 . S
C1830 C1831 1.355 . S
C1830 C1832 1.415 . S
C1831 C1830 1.355 . S
C1831 C1833 1.419 . S
C1832 C1830 1.415 . S
C1832 C1837 1.425 . S
C1832 C1839 1.409 . S
C1833 H1825 0.930 . S
C1833 C1831 1.419 . S
C1833 C1834 1.362 . S
C1834 H1826 0.930 . S
C1834 C1833 1.362 . S
C1834 C1837 1.409 . S
C1835 H1827 0.930 . S
C1835 C1836 1.355 . S
C1835 C1837 1.415 . S
C1836 C1835 1.355 . S
C1836 C1838 1.419 . S
C1837 C1832 1.425 . S
C1837 C1834 1.409 . S
C1837 C1835 1.415 . S
C1838 H1828 0.930 . S
C1838 C1836 1.419 . S
C1838 C1839 1.362 . S
C1839 H1829 0.930 . S
C1839 C1832 1.409 . S
C1839 C1838 1.362 . S
H1840 C1846 0.930 . S
H1841 C1849 0.930 . S
H1842 C1850 0.930 . S
H1843 C1851 0.930 . S
H1844 C1854 0.930 . S
H1845 C1855 0.930 . S
C1846 H1840 0.930 . S
C1846 C1847 1.355 1_655 S
C1846 C1848 1.415 . S
C1847 C1846 1.355 1_455 S
C1847 C1849 1.419 . S
C1848 C1846 1.415 . S
C1848 C1853 1.425 1_655 S
C1848 C1855 1.409 . S
C1849 H1841 0.930 . S
C1849 C1847 1.419 . S
C1849 C1850 1.362 . S
C1850 H1842 0.930 . S
C1850 C1849 1.362 . S
C1850 C1853 1.409 . S
C1851 H1843 0.930 . S
C1851 C1852 1.355 . S
C1851 C1853 1.415 . S
C1852 C1851 1.355 . S
C1852 C1854 1.419 1_455 S
C1853 C1848 1.425 1_455 S
C1853 C1850 1.409 . S
C1853 C1851 1.415 . S
C1854 H1844 0.930 . S
C1854 C1852 1.419 1_655 S
C1854 C1855 1.362 . S
C1855 H1845 0.930 . S
C1855 C1848 1.409 . S
C1855 C1854 1.362 . S
H1856 C1862 0.930 . S
H1857 C1865 0.930 . S
H1858 C1866 0.930 . S
H1859 C1867 0.930 . S
H1860 C1870 0.930 . S
H1861 C1871 0.930 . S
C1862 H1856 0.930 . S
C1862 C1863 1.355 . S
C1862 C1864 1.415 . S
C1863 C1862 1.355 . S
C1863 C1865 1.419 . S
C1864 C1862 1.415 . S
C1864 C1869 1.425 . S
C1864 C1871 1.409 . S
C1865 H1857 0.930 . S
C1865 C1863 1.419 . S
C1865 C1866 1.362 . S
C1866 H1858 0.930 . S
C1866 C1865 1.362 . S
C1866 C1869 1.409 . S
C1867 H1859 0.930 . S
C1867 C1868 1.355 . S
C1867 C1869 1.415 . S
C1868 C1867 1.355 . S
C1868 C1870 1.419 . S
C1869 C1864 1.425 . S
C1869 C1866 1.409 . S
C1869 C1867 1.415 . S
C1870 H1860 0.930 . S
C1870 C1868 1.419 . S
C1870 C1871 1.362 . S
C1871 H1861 0.930 . S
C1871 C1864 1.409 . S
C1871 C1870 1.362 . S
H1872 C1878 0.930 . S
H1873 C1881 0.930 . S
H1874 C1882 0.930 . S
H1875 C1883 0.930 . S
H1876 C1886 0.930 . S
H1877 C1887 0.930 1_554 S
C1878 H1872 0.930 . S
C1878 C1879 1.355 . S
C1878 C1880 1.415 . S
C1879 C1878 1.355 . S
C1879 C1881 1.419 . S
C1880 C1878 1.415 . S
C1880 C1885 1.425 . S
C1880 C1887 1.409 . S
C1881 H1873 0.930 . S
C1881 C1879 1.419 . S
C1881 C1882 1.362 . S
C1882 H1874 0.930 . S
C1882 C1881 1.362 . S
C1882 C1885 1.409 . S
C1883 H1875 0.930 . S
C1883 C1884 1.355 . S
C1883 C1885 1.415 . S
C1884 C1883 1.355 . S
C1884 C1886 1.419 1_556 S
C1885 C1880 1.425 . S
C1885 C1882 1.409 . S
C1885 C1883 1.415 . S
C1886 H1876 0.930 . S
C1886 C1884 1.419 1_554 S
C1886 C1887 1.362 1_554 S
C1887 H1877 0.930 1_556 S
C1887 C1880 1.409 . S
C1887 C1886 1.362 1_556 S
H1888 C1894 0.930 . S
H1889 C1897 0.930 . S
H1890 C1898 0.930 . S
H1891 C1899 0.930 . S
H1892 C1902 0.930 . S
H1893 C1903 0.930 . S
C1894 H1888 0.930 . S
C1894 C1895 1.355 . S
C1894 C1896 1.415 . S
C1895 C1894 1.355 . S
C1895 C1897 1.419 . S
C1896 C1894 1.415 . S
C1896 C1901 1.425 . S
C1896 C1903 1.409 . S
C1897 H1889 0.930 . S
C1897 C1895 1.419 . S
C1897 C1898 1.362 . S
C1898 H1890 0.930 . S
C1898 C1897 1.362 . S
C1898 C1901 1.409 . S
C1899 H1891 0.930 . S
C1899 C1900 1.355 . S
C1899 C1901 1.415 . S
C1900 C1899 1.355 . S
C1900 C1902 1.419 . S
C1901 C1896 1.425 . S
C1901 C1898 1.409 . S
C1901 C1899 1.415 . S
C1902 H1892 0.930 . S
C1902 C1900 1.419 . S
C1902 C1903 1.362 . S
C1903 H1893 0.930 . S
C1903 C1896 1.409 . S
C1903 C1902 1.362 . S
H1904 C1910 0.930 1_655 S
H1905 C1913 0.930 . S
H1906 C1914 0.930 . S
H1907 C1915 0.930 . S
H1908 C1918 0.930 . S
H1909 C1919 0.930 . S
C1910 H1904 0.930 1_455 S
C1910 C1911 1.355 . S
C1910 C1912 1.415 . S
C1911 C1910 1.355 . S
C1911 C1913 1.419 . S
C1912 C1910 1.415 . S
C1912 C1917 1.425 . S
C1912 C1919 1.409 1_455 S
C1913 H1905 0.930 . S
C1913 C1911 1.419 . S
C1913 C1914 1.362 . S
C1914 H1906 0.930 . S
C1914 C1913 1.362 . S
C1914 C1917 1.409 . S
C1915 H1907 0.930 . S
C1915 C1916 1.355 . S
C1915 C1917 1.415 . S
C1916 C1915 1.355 . S
C1916 C1918 1.419 1_455 S
C1917 C1912 1.425 . S
C1917 C1914 1.409 . S
C1917 C1915 1.415 . S
C1918 H1908 0.930 . S
C1918 C1916 1.419 1_655 S
C1918 C1919 1.362 . S
C1919 H1909 0.930 . S
C1919 C1912 1.409 1_655 S
C1919 C1918 1.362 . S
H1920 C1926 0.930 . S
H1921 C1929 0.930 . S
H1922 C1930 0.930 . S
H1923 C1931 0.930 . S
H1924 C1934 0.930 . S
H1925 C1935 0.930 . S
C1926 H1920 0.930 . S
C1926 C1927 1.355 . S
C1926 C1928 1.415 . S
C1927 C1926 1.355 . S
C1927 C1929 1.419 . S
C1928 C1926 1.415 . S
C1928 C1933 1.425 . S
C1928 C1935 1.409 . S
C1929 H1921 0.930 . S
C1929 C1927 1.419 . S
C1929 C1930 1.362 . S
C1930 H1922 0.930 . S
C1930 C1929 1.362 . S
C1930 C1933 1.409 . S
C1931 H1923 0.930 . S
C1931 C1932 1.355 . S
C1931 C1933 1.415 . S
C1932 C1931 1.355 . S
C1932 C1934 1.419 . S
C1933 C1928 1.425 . S
C1933 C1930 1.409 . S
C1933 C1931 1.415 . S
C1934 H1924 0.930 . S
C1934 C1932 1.419 . S
C1934 C1935 1.362 . S
C1935 H1925 0.930 . S
C1935 C1928 1.409 . S
C1935 C1934 1.362 . S
H1936 C1942 0.930 . S
H1937 C1945 0.930 . S
H1938 C1946 0.930 . S
H1939 C1947 0.930 . S
H1940 C1950 0.930 . S
H1941 C1951 0.930 . S
C1942 H1936 0.930 . S
C1942 C1943 1.355 . S
C1942 C1944 1.415 . S
C1943 C1942 1.355 . S
C1943 C1945 1.419 . S
C1944 C1942 1.415 . S
C1944 C1949 1.425 . S
C1944 C1951 1.409 . S
C1945 H1937 0.930 . S
C1945 C1943 1.419 . S
C1945 C1946 1.362 . S
C1946 H1938 0.930 . S
C1946 C1945 1.362 . S
C1946 C1949 1.409 . S
C1947 H1939 0.930 . S
C1947 C1948 1.355 . S
C1947 C1949 1.415 . S
C1948 C1947 1.355 . S
C1948 C1950 1.419 . S
C1949 C1944 1.425 . S
C1949 C1946 1.409 . S
C1949 C1947 1.415 . S
C1950 H1940 0.930 . S
C1950 C1948 1.419 . S
C1950 C1951 1.362 . S
C1951 H1941 0.930 . S
C1951 C1944 1.409 . S
C1951 C1950 1.362 . S
H1952 C1958 0.930 . S
H1953 C1961 0.930 . S
H1954 C1962 0.930 . S
H1955 C1963 0.930 . S
H1956 C1966 0.930 . S
H1957 C1967 0.930 . S
C1958 H1952 0.930 . S
C1958 C1959 1.355 . S
C1958 C1960 1.415 . S
C1959 C1958 1.355 . S
C1959 C1961 1.419 . S
C1960 C1958 1.415 . S
C1960 C1965 1.425 . S
C1960 C1967 1.409 . S
C1961 H1953 0.930 . S
C1961 C1959 1.419 . S
C1961 C1962 1.362 . S
C1962 H1954 0.930 . S
C1962 C1961 1.362 . S
C1962 C1965 1.409 . S
C1963 H1955 0.930 . S
C1963 C1964 1.355 . S
C1963 C1965 1.415 . S
C1964 C1963 1.355 . S
C1964 C1966 1.419 . S
C1965 C1960 1.425 . S
C1965 C1962 1.409 . S
C1965 C1963 1.415 . S
C1966 H1956 0.930 . S
C1966 C1964 1.419 . S
C1966 C1967 1.362 . S
C1967 H1957 0.930 . S
C1967 C1960 1.409 . S
C1967 C1966 1.362 . S
H1968 C1974 0.930 . S
H1969 C1977 0.930 . S
H1970 C1978 0.930 . S
H1971 C1979 0.930 . S
H1972 C1982 0.930 . S
H1973 C1983 0.930 . S
C1974 H1968 0.930 . S
C1974 C1975 1.355 . S
C1974 C1976 1.415 . S
C1975 C1974 1.355 . S
C1975 C1977 1.419 . S
C1976 C1974 1.415 . S
C1976 C1981 1.425 . S
C1976 C1983 1.409 1_655 S
C1977 H1969 0.930 . S
C1977 C1975 1.419 . S
C1977 C1978 1.362 . S
C1978 H1970 0.930 . S
C1978 C1977 1.362 . S
C1978 C1981 1.409 . S
C1979 H1971 0.930 . S
C1979 C1980 1.355 . S
C1979 C1981 1.415 . S
C1980 C1979 1.355 . S
C1980 C1982 1.419 1_655 S
C1981 C1976 1.425 . S
C1981 C1978 1.409 . S
C1981 C1979 1.415 . S
C1982 H1972 0.930 . S
C1982 C1980 1.419 1_455 S
C1982 C1983 1.362 . S
C1983 H1973 0.930 . S
C1983 C1976 1.409 1_455 S
C1983 C1982 1.362 . S
H1984 C1990 0.930 . S
H1985 C1993 0.930 . S
H1986 C1994 0.930 . S
H1987 C1995 0.930 . S
H1988 C1998 0.930 . S
H1989 C1999 0.930 . S
C1990 H1984 0.930 . S
C1990 C1991 1.355 . S
C1990 C1992 1.415 . S
C1991 C1990 1.355 . S
C1991 C1993 1.419 . S
C1992 C1990 1.415 . S
C1992 C1997 1.425 . S
C1992 C1999 1.409 . S
C1993 H1985 0.930 . S
C1993 C1991 1.419 . S
C1993 C1994 1.362 . S
C1994 H1986 0.930 . S
C1994 C1993 1.362 . S
C1994 C1997 1.409 . S
C1995 H1987 0.930 . S
C1995 C1996 1.355 . S
C1995 C1997 1.415 . S
C1996 C1995 1.355 . S
C1996 C1998 1.419 . S
C1997 C1992 1.425 . S
C1997 C1994 1.409 . S
C1997 C1995 1.415 . S
C1998 H1988 0.930 . S
C1998 C1996 1.419 . S
C1998 C1999 1.362 . S
C1999 H1989 0.930 . S
C1999 C1992 1.409 . S
C1999 C1998 1.362 . S
H2000 C2006 0.930 . S
H2001 C2009 0.930 . S
H2002 C2010 0.930 . S
H2003 C2011 0.930 . S
H2004 C2014 0.930 . S
H2005 C2015 0.930 . S
C2006 H2000 0.930 . S
C2006 C2007 1.355 . S
C2006 C2008 1.415 . S
C2007 C2006 1.355 . S
C2007 C2009 1.419 . S
C2008 C2006 1.415 . S
C2008 C2013 1.425 . S
C2008 C2015 1.409 . S
C2009 H2001 0.930 . S
C2009 C2007 1.419 . S
C2009 C2010 1.362 . S
C2010 H2002 0.930 . S
C2010 C2009 1.362 . S
C2010 C2013 1.409 . S
C2011 H2003 0.930 . S
C2011 C2012 1.355 . S
C2011 C2013 1.415 . S
C2012 C2011 1.355 . S
C2012 C2014 1.419 . S
C2013 C2008 1.425 . S
C2013 C2010 1.409 . S
C2013 C2011 1.415 . S
C2014 H2004 0.930 . S
C2014 C2012 1.419 . S
C2014 C2015 1.362 . S
C2015 H2005 0.930 . S
C2015 C2008 1.409 . S
C2015 C2014 1.362 . S
H2016 C2022 0.930 . S
H2017 C2025 0.930 . S
H2018 C2026 0.930 . S
H2019 C2027 0.930 . S
H2020 C2030 0.930 . S
H2021 C2031 0.930 . S
C2022 H2016 0.930 . S
C2022 C2023 1.355 . S
C2022 C2024 1.415 . S
C2023 C2022 1.355 . S
C2023 C2025 1.419 . S
C2024 C2022 1.415 . S
C2024 C2029 1.425 . S
C2024 C2031 1.409 . S
C2025 H2017 0.930 . S
C2025 C2023 1.419 . S
C2025 C2026 1.362 . S
C2026 H2018 0.930 . S
C2026 C2025 1.362 . S
C2026 C2029 1.409 . S
C2027 H2019 0.930 . S
C2027 C2028 1.355 . S
C2027 C2029 1.415 . S
C2028 C2027 1.355 . S
C2028 C2030 1.419 . S
C2029 C2024 1.425 . S
C2029 C2026 1.409 . S
C2029 C2027 1.415 . S
C2030 H2020 0.930 . S
C2030 C2028 1.419 . S
C2030 C2031 1.362 . S
C2031 H2021 0.930 . S
C2031 C2024 1.409 . S
C2031 C2030 1.362 . S
H2032 C2038 0.930 . S
H2033 C2041 0.930 . S
H2034 C2042 0.930 . S
H2035 C2043 0.930 . S
H2036 C2046 0.930 . S
H2037 C2047 0.930 . S
C2038 H2032 0.930 . S
C2038 C2039 1.355 . S
C2038 C2040 1.415 . S
C2039 C2038 1.355 . S
C2039 C2041 1.419 . S
C2040 C2038 1.415 . S
C2040 C2045 1.425 . S
C2040 C2047 1.409 . S
C2041 H2033 0.930 . S
C2041 C2039 1.419 . S
C2041 C2042 1.362 . S
C2042 H2034 0.930 . S
C2042 C2041 1.362 . S
C2042 C2045 1.409 . S
C2043 H2035 0.930 . S
C2043 C2044 1.355 . S
C2043 C2045 1.415 . S
C2044 C2043 1.355 . S
C2044 C2046 1.419 . S
C2045 C2040 1.425 . S
C2045 C2042 1.409 . S
C2045 C2043 1.415 . S
C2046 H2036 0.930 . S
C2046 C2044 1.419 . S
C2046 C2047 1.362 . S
C2047 H2037 0.930 . S
C2047 C2040 1.409 . S
C2047 C2046 1.362 . S
H2048 C2054 0.930 . S
H2049 C2057 0.930 . S
H2050 C2058 0.930 . S
H2051 C2059 0.930 . S
H2052 C2062 0.930 . S
H2053 C2063 0.930 . S
C2054 H2048 0.930 . S
C2054 C2055 1.355 . S
C2054 C2056 1.415 . S
C2055 C2054 1.355 . S
C2055 C2057 1.419 . S
C2056 C2054 1.415 . S
C2056 C2061 1.425 . S
C2056 C2063 1.409 . S
C2057 H2049 0.930 . S
C2057 C2055 1.419 . S
C2057 C2058 1.362 . S
C2058 H2050 0.930 . S
C2058 C2057 1.362 . S
C2058 C2061 1.409 . S
C2059 H2051 0.930 . S
C2059 C2060 1.355 . S
C2059 C2061 1.415 . S
C2060 C2059 1.355 . S
C2060 C2062 1.419 . S
C2061 C2056 1.425 . S
C2061 C2058 1.409 . S
C2061 C2059 1.415 . S
C2062 H2052 0.930 . S
C2062 C2060 1.419 . S
C2062 C2063 1.362 . S
C2063 H2053 0.930 . S
C2063 C2056 1.409 . S
C2063 C2062 1.362 . S
H2064 C2070 0.930 . S
H2065 C2073 0.930 . S
H2066 C2074 0.930 . S
H2067 C2075 0.930 . S
H2068 C2078 0.930 . S
H2069 C2079 0.930 . S
C2070 H2064 0.930 . S
C2070 C2071 1.355 . S
C2070 C2072 1.415 . S
C2071 C2070 1.355 . S
C2071 C2073 1.419 . S
C2072 C2070 1.415 . S
C2072 C2077 1.425 . S
C2072 C2079 1.409 . S
C2073 H2065 0.930 . S
C2073 C2071 1.419 . S
C2073 C2074 1.362 . S
C2074 H2066 0.930 . S
C2074 C2073 1.362 . S
C2074 C2077 1.409 . S
C2075 H2067 0.930 . S
C2075 C2076 1.355 . S
C2075 C2077 1.415 . S
C2076 C2075 1.355 . S
C2076 C2078 1.419 . S
C2077 C2072 1.425 . S
C2077 C2074 1.409 . S
C2077 C2075 1.415 . S
C2078 H2068 0.930 . S
C2078 C2076 1.419 . S
C2078 C2079 1.362 . S
C2079 H2069 0.930 . S
C2079 C2072 1.409 . S
C2079 C2078 1.362 . S
H2080 C2086 0.930 . S
H2081 C2089 0.930 . S
H2082 C2090 0.930 1_545 S
H2083 C2091 0.930 1_545 S
H2084 C2094 0.930 . S
H2085 C2095 0.930 . S
C2086 H2080 0.930 . S
C2086 C2087 1.355 . S
C2086 C2088 1.415 . S
C2087 C2086 1.355 . S
C2087 C2089 1.419 . S
C2088 C2086 1.415 . S
C2088 C2093 1.425 . S
C2088 C2095 1.409 . S
C2089 H2081 0.930 . S
C2089 C2087 1.419 . S
C2089 C2090 1.362 . S
C2090 H2082 0.930 1_565 S
C2090 C2089 1.362 . S
C2090 C2093 1.409 . S
C2091 H2083 0.930 1_565 S
C2091 C2092 1.355 . S
C2091 C2093 1.415 . S
C2092 C2091 1.355 . S
C2092 C2094 1.419 . S
C2093 C2088 1.425 . S
C2093 C2090 1.409 . S
C2093 C2091 1.415 . S
C2094 H2084 0.930 . S
C2094 C2092 1.419 . S
C2094 C2095 1.362 . S
C2095 H2085 0.930 . S
C2095 C2088 1.409 . S
C2095 C2094 1.362 . S
H2096 C2102 0.930 . S
H2097 C2105 0.930 . S
H2098 C2106 0.930 . S
H2099 C2107 0.930 . S
H2100 C2110 0.930 . S
H2101 C2111 0.930 . S
C2102 H2096 0.930 . S
C2102 C2103 1.355 . S
C2102 C2104 1.415 . S
C2103 C2102 1.355 . S
C2103 C2105 1.419 . S
C2104 C2102 1.415 . S
C2104 C2109 1.425 . S
C2104 C2111 1.409 . S
C2105 H2097 0.930 . S
C2105 C2103 1.419 . S
C2105 C2106 1.362 . S
C2106 H2098 0.930 . S
C2106 C2105 1.362 . S
C2106 C2109 1.409 . S
C2107 H2099 0.930 . S
C2107 C2108 1.355 . S
C2107 C2109 1.415 . S
C2108 C2107 1.355 . S
C2108 C2110 1.419 . S
C2109 C2104 1.425 . S
C2109 C2106 1.409 . S
C2109 C2107 1.415 . S
C2110 H2100 0.930 . S
C2110 C2108 1.419 . S
C2110 C2111 1.362 . S
C2111 H2101 0.930 . S
C2111 C2104 1.409 . S
C2111 C2110 1.362 . S
H2112 C2118 0.930 . S
H2113 C2121 0.930 . S
H2114 C2122 0.930 . S
H2115 C2123 0.930 . S
H2116 C2126 0.930 . S
H2117 C2127 0.930 . S
C2118 H2112 0.930 . S
C2118 C2119 1.355 1_554 S
C2118 C2120 1.415 . S
C2119 C2118 1.355 1_556 S
C2119 C2121 1.419 . S
C2120 C2118 1.415 . S
C2120 C2125 1.425 1_554 S
C2120 C2127 1.409 . S
C2121 H2113 0.930 . S
C2121 C2119 1.419 . S
C2121 C2122 1.362 . S
C2122 H2114 0.930 . S
C2122 C2121 1.362 . S
C2122 C2125 1.409 . S
C2123 H2115 0.930 . S
C2123 C2124 1.355 1_556 S
C2123 C2125 1.415 . S
C2124 C2123 1.355 1_554 S
C2124 C2126 1.419 . S
C2125 C2120 1.425 1_556 S
C2125 C2122 1.409 . S
C2125 C2123 1.415 . S
C2126 H2116 0.930 . S
C2126 C2124 1.419 . S
C2126 C2127 1.362 . S
C2127 H2117 0.930 . S
C2127 C2120 1.409 . S
C2127 C2126 1.362 . S
H2128 C2134 0.930 . S
H2129 C2137 0.930 . S
H2130 C2138 0.930 . S
H2131 C2139 0.930 . S
H2132 C2142 0.930 . S
H2133 C2143 0.930 . S
C2134 H2128 0.930 . S
C2134 C2135 1.355 . S
C2134 C2136 1.415 . S
C2135 C2134 1.355 . S
C2135 C2137 1.419 . S
C2136 C2134 1.415 . S
C2136 C2141 1.425 . S
C2136 C2143 1.409 . S
C2137 H2129 0.930 . S
C2137 C2135 1.419 . S
C2137 C2138 1.362 . S
C2138 H2130 0.930 . S
C2138 C2137 1.362 . S
C2138 C2141 1.409 . S
C2139 H2131 0.930 . S
C2139 C2140 1.355 . S
C2139 C2141 1.415 . S
C2140 C2139 1.355 . S
C2140 C2142 1.419 . S
C2141 C2136 1.425 . S
C2141 C2138 1.409 . S
C2141 C2139 1.415 . S
C2142 H2132 0.930 . S
C2142 C2140 1.419 . S
C2142 C2143 1.362 . S
C2143 H2133 0.930 . S
C2143 C2136 1.409 . S
C2143 C2142 1.362 . S
H2144 C2150 0.930 . S
H2145 C2153 0.930 . S
H2146 C2154 0.930 . S
H2147 C2155 0.930 . S
H2148 C2158 0.930 . S
H2149 C2159 0.930 . S
C2150 H2144 0.930 . S
C2150 C2151 1.355 . S
C2150 C2152 1.415 . S
C2151 C2150 1.355 . S
C2151 C2153 1.419 . S
C2152 C2150 1.415 . S
C2152 C2157 1.425 . S
C2152 C2159 1.409 1_554 S
C2153 H2145 0.930 . S
C2153 C2151 1.419 . S
C2153 C2154 1.362 . S
C2154 H2146 0.930 . S
C2154 C2153 1.362 . S
C2154 C2157 1.409 . S
C2155 H2147 0.930 . S
C2155 C2156 1.355 1_554 S
C2155 C2157 1.415 . S
C2156 C2155 1.355 1_556 S
C2156 C2158 1.419 . S
C2157 C2152 1.425 . S
C2157 C2154 1.409 . S
C2157 C2155 1.415 . S
C2158 H2148 0.930 . S
C2158 C2156 1.419 . S
C2158 C2159 1.362 . S
C2159 H2149 0.930 . S
C2159 C2152 1.409 1_556 S
C2159 C2158 1.362 . S
H2160 C2166 0.930 . S
H2161 C2169 0.930 . S
H2162 C2170 0.930 . S
H2163 C2171 0.930 . S
H2164 C2174 0.930 . S
H2165 C2175 0.930 . S
C2166 H2160 0.930 . S
C2166 C2167 1.355 . S
C2166 C2168 1.415 . S
C2167 C2166 1.355 . S
C2167 C2169 1.419 . S
C2168 C2166 1.415 . S
C2168 C2173 1.425 . S
C2168 C2175 1.409 . S
C2169 H2161 0.930 . S
C2169 C2167 1.419 . S
C2169 C2170 1.362 . S
C2170 H2162 0.930 . S
C2170 C2169 1.362 . S
C2170 C2173 1.409 . S
C2171 H2163 0.930 . S
C2171 C2172 1.355 . S
C2171 C2173 1.415 . S
C2172 C2171 1.355 . S
C2172 C2174 1.419 . S
C2173 C2168 1.425 . S
C2173 C2170 1.409 . S
C2173 C2171 1.415 . S
C2174 H2164 0.930 . S
C2174 C2172 1.419 . S
C2174 C2175 1.362 . S
C2175 H2165 0.930 . S
C2175 C2168 1.409 . S
C2175 C2174 1.362 . S
H2176 C2182 0.930 . S
H2177 C2185 0.930 . S
H2178 C2186 0.930 . S
H2179 C2187 0.930 . S
H2180 C2190 0.930 . S
H2181 C2191 0.930 . S
C2182 H2176 0.930 . S
C2182 C2183 1.355 . S
C2182 C2184 1.415 . S
C2183 C2182 1.355 . S
C2183 C2185 1.419 . S
C2184 C2182 1.415 . S
C2184 C2189 1.425 . S
C2184 C2191 1.409 . S
C2185 H2177 0.930 . S
C2185 C2183 1.419 . S
C2185 C2186 1.362 . S
C2186 H2178 0.930 . S
C2186 C2185 1.362 . S
C2186 C2189 1.409 . S
C2187 H2179 0.930 . S
C2187 C2188 1.355 . S
C2187 C2189 1.415 . S
C2188 C2187 1.355 . S
C2188 C2190 1.419 . S
C2189 C2184 1.425 . S
C2189 C2186 1.409 . S
C2189 C2187 1.415 . S
C2190 H2180 0.930 . S
C2190 C2188 1.419 . S
C2190 C2191 1.362 . S
C2191 H2181 0.930 . S
C2191 C2184 1.409 . S
C2191 C2190 1.362 . S
C663 C109 1.242 . S
C668 C352 1.175 1_556 S
C679 C65 1.353 . S
C684 C365 1.314 . S
C695 C75 1.393 . S
C700 C384 1.362 . S
C716 C415 1.911 . S
C711 C84 1.929 . S
C727 C25 1.681 . S
C732 C435 1.689 . S
C748 C452 0.885 . S
C743 C28 0.898 . S
C764 C465 1.495 . S
C759 C47 1.513 . S
C775 C9 1.119 . S
C780 C492 1.132 . S
C796 C345 1.328 . S
C791 C233 1.336 . S
C807 C249 1.491 . S
C812 C375 1.487 . S
C828 C377 1.716 . S
C823 C275 1.772 . S
C844 C412 0.892 . S
C839 C173 0.931 . S
C855 C224 1.182 . S
C860 C432 1.200 . S
C876 C445 1.760 . S
C871 C243 1.754 . S
C892 C475 1.347 . S
C887 C266 1.322 . S
C908 C485 1.135 . S
C903 C179 1.194 . S
C924 C355 1.620 1_565 S
C919 C163 1.665 . S
C935 C289 1.746 . S
C940 C505 1.724 . S
C956 C535 1.608 . S
C951 C333 1.558 . S
C972 C552 1.153 . S
C967 C308 1.201 . S
C983 C123 1.867 . S
C988 C495 1.904 . S
C999 C126 1.292 . S
C1004 C382 1.310 . S
C1015 C327 1.848 . S
C1020 C565 1.813 . S
C1036 C592 1.064 . S
C1031 C299 1.135 . S
C1052 C342 1.264 . S
C1047 C67 1.266 . S
C1068 C577 1.353 . S
C1063 C98 1.377 . S
C1079 C89 1.392 . S
C1084 C395 1.419 . S
C1095 C79 1.968 . S
C1100 C564 1.946 . S
C1116 C424 1.666 . S
C1111 C11 1.723 . S
C1127 C51 0.944 . S
C1132 C522 0.919 . S
C1148 C457 1.535 . S
C1143 C33 1.516 . S
C1164 C602 1.051 . S
C1159 C14 1.076 . S
C1180 C337 1.299 . S
C1175 C140 1.313 . S
C1196 C584 1.468 . S
C1191 C319 1.520 . S
C1207 C112 1.744 . S
C1212 C385 1.693 . S
C1223 C285 0.968 . S
C1228 C562 0.905 . S
C1239 C149 1.244 . S
C1244 C422 1.255 . S
C1260 C517 1.798 . S
C1255 C313 1.772 . S
C1271 C121 1.424 . S
C1276 C464 1.410 . S
C1287 C291 1.190 . S
C1292 C597 1.207 . S
C1303 C182 1.671 . S
C1308 C344 1.623 . S
C1319 C168 1.747 . S
C1324 C497 1.719 . S
C1335 C263 1.647 . S
C1340 C444 1.604 . S
C1351 C247 1.257 . S
C1356 C542 1.197 . S
C1372 C604 1.865 . S
C1367 C277 1.893 . S
C1383 C219 1.340 . S
C1388 C392 1.279 . S
C1404 C397 1.867 . S
C1399 C257 1.862 . S
C1420 C362 1.157 . S
C1415 C201 1.143 . S
C1431 C81 1.241 . S
C1436 C632 1.239 . S
C1452 C585 1.351 . S
C1447 C93 1.369 . S
C1463 C103 1.397 . S
C1468 C644 1.346 1_455 S
C1479 C56 1.931 . S
C1484 C575 1.903 . S
C1495 C53 1.692 . S
C1500 C515 1.675 . S
C1516 C532 0.876 . S
C1511 C0 0.915 . S
C1532 C545 1.485 . S
C1527 C19 1.511 . S
C1548 C612 1.083 . S
C1543 C37 1.098 . S
C1564 C625 1.289 . S
C1559 C261 1.334 . S
C1575 C193 1.464 . S
C1580 C595 1.498 . S
C1596 C637 1.735 . S
C1591 C205 1.765 . S
C1612 C572 0.940 . S
C1607 C215 0.904 . S
C1628 C512 1.218 . S
C1623 C252 1.233 . S
C1639 C187 1.768 . S
C1644 C525 1.750 . S
C1660 C555 1.352 . S
C1655 C196 1.361 . S
C1671 C221 1.166 . S
C1676 C605 1.149 . S
C1692 C635 1.660 . S
C1687 C317 1.668 . S
C1703 C135 1.738 . S
C1708 C425 1.723 . S
C1724 C455 1.607 . S
C1719 C151 1.561 . S
C1740 C472 1.190 1_565 S
C1735 C154 1.226 . S
C1756 C615 1.903 . S
C1751 C305 1.868 . S
C1767 C280 1.312 . S
C1772 C642 1.253 . S
C1788 C405 1.819 . S
C1783 C145 1.835 . S
C1804 C372 1.154 . S
C1799 C117 1.162 . S
C1815 C95 1.270 . S
C1820 C622 1.207 . S
C1836 C357 1.352 . S
C1831 C70 1.377 . S
C1847 C61 1.401 . S
C1852 C655 1.408 . S
C1863 C107 1.974 . S
C1868 C404 1.931 . S
C1879 C39 1.722 . S
C1884 C504 1.666 1_556 S
C1900 C442 0.911 . S
C1895 C23 0.943 . S
C1911 C5 1.534 . S
C1916 C537 1.508 . S
C1927 C42 1.110 . S
C1932 C482 1.066 . S
C1948 C617 1.315 . S
C1943 C322 1.299 . S
C1959 C165 1.518 . S
C1964 C364 1.486 . S
C1980 C645 1.729 . S
C1975 C294 1.745 . S
C1991 C131 0.970 . S
C1996 C402 0.906 . S
C2007 C331 1.253 . S
C2012 C502 1.225 . S
C2028 C437 1.798 . S
C2023 C159 1.771 . S
C2039 C303 1.423 . S
C2044 C544 1.394 . S
C2060 C477 1.216 . S
C2055 C137 1.204 . S
C2076 C624 1.656 . S
C2071 C238 1.653 . S
C2092 C417 1.737 1_565 S
C2087 C210 1.731 . S
C2103 C235 1.607 . S
C2108 C524 1.643 . S
C2124 C462 1.215 . S
C2119 C191 1.253 . S
C2135 C207 1.901 . S
C2140 C484 1.862 . S
C2151 C177 1.363 . S
C2156 C652 1.326 . S
C2172 C557 1.871 . S
C2167 C229 1.860 . S
C2188 C582 1.115 . S
C2183 C271 1.109 . S
