# Generated by pormake.
# Topology gar, (4,6)-cn, num edge types: 1
# Building blocks:
#     Node 0, Type 0, BuildingBlock: CEKHIL_clean_sbu_0, # of connection points: 4
#     Node 1, Type 0, BuildingBlock: CEKHIL_clean_sbu_0, # of connection points: 4
#     Node 2, Type 0, BuildingBlock: CEKHIL_clean_sbu_0, # of connection points: 4
#     Node 3, Type 0, BuildingBlock: CEKHIL_clean_sbu_0, # of connection points: 4
#     Node 4, Type 0, BuildingBlock: CEKHIL_clean_sbu_0, # of connection points: 4
#     Node 5, Type 0, BuildingBlock: CEKHIL_clean_sbu_0, # of connection points: 4
#     Node 6, Type 0, BuildingBlock: CEKHIL_clean_sbu_0, # of connection points: 4
#     Node 7, Type 0, BuildingBlock: CEKHIL_clean_sbu_0, # of connection points: 4
#     Node 8, Type 0, BuildingBlock: CEKHIL_clean_sbu_0, # of connection points: 4
#     Node 9, Type 0, BuildingBlock: CEKHIL_clean_sbu_0, # of connection points: 4
#     Node 10, Type 0, BuildingBlock: CEKHIL_clean_sbu_0, # of connection points: 4
#     Node 11, Type 0, BuildingBlock: CEKHIL_clean_sbu_0, # of connection points: 4
#     Node 12, Type 0, BuildingBlock: CEKHIL_clean_sbu_0, # of connection points: 4
#     Node 13, Type 0, BuildingBlock: CEKHIL_clean_sbu_0, # of connection points: 4
#     Node 14, Type 0, BuildingBlock: CEKHIL_clean_sbu_0, # of connection points: 4
#     Node 15, Type 0, BuildingBlock: CEKHIL_clean_sbu_0, # of connection points: 4
#     Node 16, Type 0, BuildingBlock: CEKHIL_clean_sbu_0, # of connection points: 4
#     Node 17, Type 0, BuildingBlock: CEKHIL_clean_sbu_0, # of connection points: 4
#     Node 18, Type 0, BuildingBlock: CEKHIL_clean_sbu_0, # of connection points: 4
#     Node 19, Type 0, BuildingBlock: CEKHIL_clean_sbu_0, # of connection points: 4
#     Node 20, Type 0, BuildingBlock: CEKHIL_clean_sbu_0, # of connection points: 4
#     Node 21, Type 0, BuildingBlock: CEKHIL_clean_sbu_0, # of connection points: 4
#     Node 22, Type 0, BuildingBlock: CEKHIL_clean_sbu_0, # of connection points: 4
#     Node 23, Type 0, BuildingBlock: CEKHIL_clean_sbu_0, # of connection points: 4
#     Node 24, Type 1, BuildingBlock: PAMTUU_clean_sbu_0, # of connection points: 6
#     Node 25, Type 1, BuildingBlock: PAMTUU_clean_sbu_0, # of connection points: 6
#     Node 26, Type 1, BuildingBlock: PAMTUU_clean_sbu_0, # of connection points: 6
#     Node 27, Type 1, BuildingBlock: PAMTUU_clean_sbu_0, # of connection points: 6
#     Node 28, Type 1, BuildingBlock: PAMTUU_clean_sbu_0, # of connection points: 6
#     Node 29, Type 1, BuildingBlock: PAMTUU_clean_sbu_0, # of connection points: 6
#     Node 30, Type 1, BuildingBlock: PAMTUU_clean_sbu_0, # of connection points: 6
#     Node 31, Type 1, BuildingBlock: PAMTUU_clean_sbu_0, # of connection points: 6
#     Node 32, Type 1, BuildingBlock: PAMTUU_clean_sbu_0, # of connection points: 6
#     Node 33, Type 1, BuildingBlock: PAMTUU_clean_sbu_0, # of connection points: 6
#     Node 34, Type 1, BuildingBlock: PAMTUU_clean_sbu_0, # of connection points: 6
#     Node 35, Type 1, BuildingBlock: PAMTUU_clean_sbu_0, # of connection points: 6
#     Node 36, Type 1, BuildingBlock: PAMTUU_clean_sbu_0, # of connection points: 6
#     Node 37, Type 1, BuildingBlock: PAMTUU_clean_sbu_0, # of connection points: 6
#     Node 38, Type 1, BuildingBlock: PAMTUU_clean_sbu_0, # of connection points: 6
#     Node 39, Type 1, BuildingBlock: PAMTUU_clean_sbu_0, # of connection points: 6
#     Edge 40, Type (0, 1), BuildingBlock: AJUNOK_clean_linker_0, # of connection points: 2
#     Edge 41, Type (0, 1), BuildingBlock: AJUNOK_clean_linker_0, # of connection points: 2
#     Edge 42, Type (0, 1), BuildingBlock: AJUNOK_clean_linker_0, # of connection points: 2
#     Edge 43, Type (0, 1), BuildingBlock: AJUNOK_clean_linker_0, # of connection points: 2
#     Edge 44, Type (0, 1), BuildingBlock: AJUNOK_clean_linker_0, # of connection points: 2
#     Edge 45, Type (0, 1), BuildingBlock: AJUNOK_clean_linker_0, # of connection points: 2
#     Edge 46, Type (0, 1), BuildingBlock: AJUNOK_clean_linker_0, # of connection points: 2
#     Edge 47, Type (0, 1), BuildingBlock: AJUNOK_clean_linker_0, # of connection points: 2
#     Edge 48, Type (0, 1), BuildingBlock: AJUNOK_clean_linker_0, # of connection points: 2
#     Edge 49, Type (0, 1), BuildingBlock: AJUNOK_clean_linker_0, # of connection points: 2
#     Edge 50, Type (0, 1), BuildingBlock: AJUNOK_clean_linker_0, # of connection points: 2
#     Edge 51, Type (0, 1), BuildingBlock: AJUNOK_clean_linker_0, # of connection points: 2
#     Edge 52, Type (0, 1), BuildingBlock: AJUNOK_clean_linker_0, # of connection points: 2
#     Edge 53, Type (0, 1), BuildingBlock: AJUNOK_clean_linker_0, # of connection points: 2
#     Edge 54, Type (0, 1), BuildingBlock: AJUNOK_clean_linker_0, # of connection points: 2
#     Edge 55, Type (0, 1), BuildingBlock: AJUNOK_clean_linker_0, # of connection points: 2
#     Edge 56, Type (0, 1), BuildingBlock: AJUNOK_clean_linker_0, # of connection points: 2
#     Edge 57, Type (0, 1), BuildingBlock: AJUNOK_clean_linker_0, # of connection points: 2
#     Edge 58, Type (0, 1), BuildingBlock: AJUNOK_clean_linker_0, # of connection points: 2
#     Edge 59, Type (0, 1), BuildingBlock: AJUNOK_clean_linker_0, # of connection points: 2
#     Edge 60, Type (0, 1), BuildingBlock: AJUNOK_clean_linker_0, # of connection points: 2
#     Edge 61, Type (0, 1), BuildingBlock: AJUNOK_clean_linker_0, # of connection points: 2
#     Edge 62, Type (0, 1), BuildingBlock: AJUNOK_clean_linker_0, # of connection points: 2
#     Edge 63, Type (0, 1), BuildingBlock: AJUNOK_clean_linker_0, # of connection points: 2
#     Edge 64, Type (0, 1), BuildingBlock: AJUNOK_clean_linker_0, # of connection points: 2
#     Edge 65, Type (0, 1), BuildingBlock: AJUNOK_clean_linker_0, # of connection points: 2
#     Edge 66, Type (0, 1), BuildingBlock: AJUNOK_clean_linker_0, # of connection points: 2
#     Edge 67, Type (0, 1), BuildingBlock: AJUNOK_clean_linker_0, # of connection points: 2
#     Edge 68, Type (0, 1), BuildingBlock: AJUNOK_clean_linker_0, # of connection points: 2
#     Edge 69, Type (0, 1), BuildingBlock: AJUNOK_clean_linker_0, # of connection points: 2
#     Edge 70, Type (0, 1), BuildingBlock: AJUNOK_clean_linker_0, # of connection points: 2
#     Edge 71, Type (0, 1), BuildingBlock: AJUNOK_clean_linker_0, # of connection points: 2
#     Edge 72, Type (0, 1), BuildingBlock: AJUNOK_clean_linker_0, # of connection points: 2
#     Edge 73, Type (0, 1), BuildingBlock: AJUNOK_clean_linker_0, # of connection points: 2
#     Edge 74, Type (0, 1), BuildingBlock: AJUNOK_clean_linker_0, # of connection points: 2
#     Edge 75, Type (0, 1), BuildingBlock: AJUNOK_clean_linker_0, # of connection points: 2
#     Edge 76, Type (0, 1), BuildingBlock: AJUNOK_clean_linker_0, # of connection points: 2
#     Edge 77, Type (0, 1), BuildingBlock: AJUNOK_clean_linker_0, # of connection points: 2
#     Edge 78, Type (0, 1), BuildingBlock: AJUNOK_clean_linker_0, # of connection points: 2
#     Edge 79, Type (0, 1), BuildingBlock: AJUNOK_clean_linker_0, # of connection points: 2
#     Edge 80, Type (0, 1), BuildingBlock: AJUNOK_clean_linker_0, # of connection points: 2
#     Edge 81, Type (0, 1), BuildingBlock: AJUNOK_clean_linker_0, # of connection points: 2
#     Edge 82, Type (0, 1), BuildingBlock: AJUNOK_clean_linker_0, # of connection points: 2
#     Edge 83, Type (0, 1), BuildingBlock: AJUNOK_clean_linker_0, # of connection points: 2
#     Edge 84, Type (0, 1), BuildingBlock: AJUNOK_clean_linker_0, # of connection points: 2
#     Edge 85, Type (0, 1), BuildingBlock: AJUNOK_clean_linker_0, # of connection points: 2
#     Edge 86, Type (0, 1), BuildingBlock: AJUNOK_clean_linker_0, # of connection points: 2
#     Edge 87, Type (0, 1), BuildingBlock: AJUNOK_clean_linker_0, # of connection points: 2
#     Edge 88, Type (0, 1), BuildingBlock: AJUNOK_clean_linker_0, # of connection points: 2
#     Edge 89, Type (0, 1), BuildingBlock: AJUNOK_clean_linker_0, # of connection points: 2
#     Edge 90, Type (0, 1), BuildingBlock: AJUNOK_clean_linker_0, # of connection points: 2
#     Edge 91, Type (0, 1), BuildingBlock: AJUNOK_clean_linker_0, # of connection points: 2
#     Edge 92, Type (0, 1), BuildingBlock: AJUNOK_clean_linker_0, # of connection points: 2
#     Edge 93, Type (0, 1), BuildingBlock: AJUNOK_clean_linker_0, # of connection points: 2
#     Edge 94, Type (0, 1), BuildingBlock: AJUNOK_clean_linker_0, # of connection points: 2
#     Edge 95, Type (0, 1), BuildingBlock: AJUNOK_clean_linker_0, # of connection points: 2
#     Edge 96, Type (0, 1), BuildingBlock: AJUNOK_clean_linker_0, # of connection points: 2
#     Edge 97, Type (0, 1), BuildingBlock: AJUNOK_clean_linker_0, # of connection points: 2
#     Edge 98, Type (0, 1), BuildingBlock: AJUNOK_clean_linker_0, # of connection points: 2
#     Edge 99, Type (0, 1), BuildingBlock: AJUNOK_clean_linker_0, # of connection points: 2
#     Edge 100, Type (0, 1), BuildingBlock: AJUNOK_clean_linker_0, # of connection points: 2
#     Edge 101, Type (0, 1), BuildingBlock: AJUNOK_clean_linker_0, # of connection points: 2
#     Edge 102, Type (0, 1), BuildingBlock: AJUNOK_clean_linker_0, # of connection points: 2
#     Edge 103, Type (0, 1), BuildingBlock: AJUNOK_clean_linker_0, # of connection points: 2
#     Edge 104, Type (0, 1), BuildingBlock: AJUNOK_clean_linker_0, # of connection points: 2
#     Edge 105, Type (0, 1), BuildingBlock: AJUNOK_clean_linker_0, # of connection points: 2
#     Edge 106, Type (0, 1), BuildingBlock: AJUNOK_clean_linker_0, # of connection points: 2
#     Edge 107, Type (0, 1), BuildingBlock: AJUNOK_clean_linker_0, # of connection points: 2
#     Edge 108, Type (0, 1), BuildingBlock: AJUNOK_clean_linker_0, # of connection points: 2
#     Edge 109, Type (0, 1), BuildingBlock: AJUNOK_clean_linker_0, # of connection points: 2
#     Edge 110, Type (0, 1), BuildingBlock: AJUNOK_clean_linker_0, # of connection points: 2
#     Edge 111, Type (0, 1), BuildingBlock: AJUNOK_clean_linker_0, # of connection points: 2
#     Edge 112, Type (0, 1), BuildingBlock: AJUNOK_clean_linker_0, # of connection points: 2
#     Edge 113, Type (0, 1), BuildingBlock: AJUNOK_clean_linker_0, # of connection points: 2
#     Edge 114, Type (0, 1), BuildingBlock: AJUNOK_clean_linker_0, # of connection points: 2
#     Edge 115, Type (0, 1), BuildingBlock: AJUNOK_clean_linker_0, # of connection points: 2
#     Edge 116, Type (0, 1), BuildingBlock: AJUNOK_clean_linker_0, # of connection points: 2
#     Edge 117, Type (0, 1), BuildingBlock: AJUNOK_clean_linker_0, # of connection points: 2
#     Edge 118, Type (0, 1), BuildingBlock: AJUNOK_clean_linker_0, # of connection points: 2
#     Edge 119, Type (0, 1), BuildingBlock: AJUNOK_clean_linker_0, # of connection points: 2
#     Edge 120, Type (0, 1), BuildingBlock: AJUNOK_clean_linker_0, # of connection points: 2
#     Edge 121, Type (0, 1), BuildingBlock: AJUNOK_clean_linker_0, # of connection points: 2
#     Edge 122, Type (0, 1), BuildingBlock: AJUNOK_clean_linker_0, # of connection points: 2
#     Edge 123, Type (0, 1), BuildingBlock: AJUNOK_clean_linker_0, # of connection points: 2
#     Edge 124, Type (0, 1), BuildingBlock: AJUNOK_clean_linker_0, # of connection points: 2
#     Edge 125, Type (0, 1), BuildingBlock: AJUNOK_clean_linker_0, # of connection points: 2
#     Edge 126, Type (0, 1), BuildingBlock: AJUNOK_clean_linker_0, # of connection points: 2
#     Edge 127, Type (0, 1), BuildingBlock: AJUNOK_clean_linker_0, # of connection points: 2
#     Edge 128, Type (0, 1), BuildingBlock: AJUNOK_clean_linker_0, # of connection points: 2
#     Edge 129, Type (0, 1), BuildingBlock: AJUNOK_clean_linker_0, # of connection points: 2
#     Edge 130, Type (0, 1), BuildingBlock: AJUNOK_clean_linker_0, # of connection points: 2
#     Edge 131, Type (0, 1), BuildingBlock: AJUNOK_clean_linker_0, # of connection points: 2
#     Edge 132, Type (0, 1), BuildingBlock: AJUNOK_clean_linker_0, # of connection points: 2
#     Edge 133, Type (0, 1), BuildingBlock: AJUNOK_clean_linker_0, # of connection points: 2
#     Edge 134, Type (0, 1), BuildingBlock: AJUNOK_clean_linker_0, # of connection points: 2
#     Edge 135, Type (0, 1), BuildingBlock: AJUNOK_clean_linker_0, # of connection points: 2
# Relax obj value: 0.229
# Max RMSD: 0.376
# Mean RMSD: 0.173
data_MOF--net-gar--node1-CEKHIL_clean_sbu_0--node2-PAMTUU_clean_sbu_0--edge1-AJUNOK_clean_linker_0
_symmetry_space_group_name_H-M    P1
_symmetry_Int_Tables_number       1
_symmetry_cell_setting            triclinic
loop_
_symmetry_equiv_pos_as_xyz
'x, y, z'
_cell_length_a     44.898105
_cell_length_b     40.565543
_cell_length_c     43.67309
_cell_angle_alpha  93.405103
_cell_angle_beta   94.488115
_cell_angle_gamma 105.91184
loop_
_atom_site_label
_atom_site_type_symbol
_atom_site_fract_x
_atom_site_fract_y
_atom_site_fract_z
_atom_type_partial_charge
Co0 Co 0.11516 0.32828 0.42205 0.0
O1 O 0.16342 0.33532 0.42629 0.0
O2 O 0.13682 0.31564 0.38412 0.0
C3 C 0.11451 0.3838 0.44804 0.0
O4 O 0.06622 0.32226 0.40166 0.0
Co5 Co 0.06982 0.32409 0.46983 0.0
O6 O 1.03596 0.32825 0.43891 0.0
C7 C 0.09498 0.26357 0.46511 0.0
C8 C 0.16505 0.32482 0.3978 0.0
C9 C 1.03904 0.32552 0.41022 0.0
O10 O 0.10716 0.27674 0.43997 0.0
O11 O 0.08057 0.28069 0.481 0.0
O12 O 0.12239 0.3804 0.42014 0.0
O13 O 0.10958 0.35455 0.46006 0.0
Co14 Co 0.08655 0.83485 0.70577 0.0
O15 O 1.03845 0.82955 0.70166 0.0
O16 O 0.06101 0.82287 0.7437 0.0
C17 C 0.09912 0.89048 0.68037 0.0
O18 O 0.13513 0.83823 0.72647 0.0
Co19 Co 0.13279 0.84181 0.6603 0.0
O20 O 0.16935 0.8482 0.69136 0.0
C21 C 0.09228 0.77059 0.66151 0.0
C22 C 1.03441 0.824 0.73033 0.0
C23 C 0.16442 0.84318 0.71919 0.0
O24 O 0.08066 0.78215 0.68587 0.0
O25 O 0.11205 0.79172 0.64735 0.0
O26 O 0.09378 0.8878 0.70914 0.0
O27 O 0.09758 0.86021 0.66784 0.0
Co28 Co 0.61358 0.8251 0.92246 0.0
O29 O 0.66198 0.83295 0.92737 0.0
O30 O 0.6363 0.81363 0.88475 0.0
C31 C 0.61205 0.87984 0.94934 0.0
O32 O 0.56445 0.81808 0.90178 0.0
Co33 Co 0.56711 0.82029 0.96981 0.0
O34 O 0.53518 0.82833 0.93863 0.0
C35 C 0.59338 0.76028 0.96489 0.0
C36 C 0.66435 0.82308 0.89888 0.0
C37 C 0.53785 0.82346 0.91004 0.0
O38 O 0.60597 0.77363 0.94003 0.0
O39 O 0.57831 0.77694 0.98044 0.0
O40 O 0.62023 0.87739 0.92146 0.0
O41 O 0.60714 0.85023 0.96056 0.0
Co42 Co 0.58709 0.33473 0.20659 0.0
O43 O 0.53912 0.32959 0.20245 0.0
O44 O 0.56175 0.32363 0.24473 0.0
C45 C 0.59908 0.38996 0.18104 0.0
O46 O 0.63587 0.33873 0.22683 0.0
Co47 Co 0.63295 0.34209 0.16065 0.0
O48 O 0.66983 0.34993 0.1915 0.0
C49 C 0.59309 0.27032 0.16265 0.0
C50 C 0.53523 0.32489 0.23127 0.0
C51 C 0.66515 0.34462 0.21933 0.0
O52 O 0.58138 0.28172 0.18707 0.0
O53 O 0.61252 0.29183 0.14846 0.0
O54 O 0.59418 0.38755 0.20991 0.0
O55 O 0.59752 0.35972 0.16853 0.0
Co56 Co 0.14856 0.86228 0.17206 0.0
O57 O 0.10341 0.84974 0.16522 0.0
O58 O 0.13046 0.84374 0.20798 0.0
C59 C 0.15407 0.91498 0.15194 0.0
O60 O 0.19364 0.87315 0.19211 0.0
Co61 Co 0.19398 0.87467 0.12657 0.0
O62 O 0.22926 0.88938 0.15953 0.0
C63 C 0.15935 0.80269 0.13154 0.0
C64 C 0.10351 0.8405 0.19323 0.0
C65 C 0.22236 0.88394 0.18675 0.0
O66 O 0.148 0.81386 0.15498 0.0
O67 O 0.17745 0.82339 0.11556 0.0
O68 O 0.14928 0.91045 0.18053 0.0
O69 O 0.15626 0.88777 0.13589 0.0
Co70 Co 0.55942 0.82743 0.47284 0.0
O71 O 0.60456 0.84033 0.47846 0.0
O72 O 0.57555 0.81654 0.43536 0.0
C73 C 0.55619 0.87869 0.4952 0.0
O74 O 0.51386 0.81407 0.45399 0.0
Co75 Co 0.51675 0.81569 0.52008 0.0
O76 O 0.48386 0.82281 0.48984 0.0
C77 C 0.54968 0.76363 0.51045 0.0
C78 C 0.60311 0.82946 0.44961 0.0
C79 C 0.48814 0.81879 0.46164 0.0
O80 O 0.55878 0.77969 0.48673 0.0
O81 O 0.53262 0.77449 0.52844 0.0
O82 O 0.56072 0.8744 0.46648 0.0
O83 O 0.55395 0.85175 0.51081 0.0
Co84 Co 0.65331 0.36794 0.67339 0.0
O85 O 0.60816 0.35651 0.66684 0.0
O86 O 0.63515 0.35119 0.70979 0.0
C87 C 0.66006 0.42032 0.65213 0.0
O88 O 0.69839 0.37771 0.69342 0.0
Co89 Co 0.69795 0.37654 0.62782 0.0
O90 O 0.73384 0.38979 0.66021 0.0
C91 C 0.66101 0.30594 0.63377 0.0
C92 C 0.60818 0.34796 0.69509 0.0
C93 C 0.72709 0.3862 0.6877 0.0
O94 O 0.65095 0.3186 0.65736 0.0
O95 O 0.67958 0.32536 0.61728 0.0
O96 O 0.65549 0.41666 0.68088 0.0
O97 O 0.66132 0.39239 0.63652 0.0
Co98 Co 0.05989 0.32661 0.97557 0.0
O99 O 0.10472 0.34284 0.98159 0.0
O100 O 0.07721 0.31537 0.93869 0.0
C101 C 0.05315 0.37726 0.99528 0.0
O102 O 1.01407 0.30966 0.95754 0.0
Co103 Co 1.01802 0.31543 0.02457 0.0
O104 O 0.98559 0.32196 0.9936 0.0
C105 C 0.05244 0.26455 1.01539 0.0
C106 C 0.10419 0.33125 0.95314 0.0
C107 C 0.98892 0.31583 0.9654 0.0
O108 O 0.0617 0.2805 0.99166 0.0
O109 O 1.03474 0.27492 0.03295 0.0
O110 O 0.05837 0.37219 0.96689 0.0
O111 O 0.05313 0.35174 1.01219 0.0
Co112 Co 0.48571 0.08263 0.37219 0.0
O113 O 0.49118 0.1096 0.33675 0.0
O114 O 0.44628 0.08462 0.35465 0.0
C115 C 0.52397 0.1165 0.40532 0.0
O116 O 0.46926 0.05472 0.40703 0.0
Co117 Co 0.53247 0.0474 0.40036 0.0
O118 O 0.49459 1.01546 0.41425 0.0
C119 C 0.50435 1.02855 0.33698 0.0
C120 C 0.46087 0.10215 0.33379 0.0
C121 C 0.4698 1.02489 0.41446 0.0
O122 O 0.48206 0.04044 0.34448 0.0
O123 O 0.52888 1.03204 0.35529 0.0
O124 O 0.49753 0.1238 0.40074 0.0
O125 O 0.5273 0.09131 0.38772 0.0
Co126 Co 0.33729 0.25343 0.55874 0.0
O127 O 0.38218 0.26091 0.56136 0.0
O128 O 0.34745 0.21453 0.5737 0.0
C129 C 0.33373 0.27004 0.50812 0.0
O130 O 0.29107 0.23013 0.55851 0.0
Co131 Co 0.30252 0.30114 0.55607 0.0
O132 O 0.26179 0.26545 0.5543 0.0
C133 C 0.32857 0.29516 0.61802 0.0
C134 C 0.37609 0.2299 0.5703 0.0
C135 C 0.26425 0.23538 0.55707 0.0
O136 O 0.34042 0.27346 0.60414 0.0
O137 O 0.31247 0.31094 0.60232 0.0
O138 O 0.33414 0.23957 0.51479 0.0
O139 O 0.33585 0.29164 0.53232 0.0
Co140 Co 0.23504 0.09104 0.88609 0.0
O141 O 0.23249 0.04775 0.86366 0.0
O142 O 0.27446 0.09262 0.87138 0.0
C143 C 0.2098 0.06901 0.92617 0.0
O144 O 0.24787 0.13869 0.90807 0.0
Co145 Co 0.1788 0.11683 0.90387 0.0
O146 O 0.20916 0.16273 0.90264 0.0
C147 C 0.19725 0.11938 0.84007 0.0
C148 C 0.26149 0.06148 0.85928 0.0
C149 C 0.238 0.16485 0.90329 0.0
O150 O 0.22146 0.10932 0.84724 0.0
O151 O 0.17696 0.12146 0.85853 0.0
O152 O 0.23923 0.07111 0.92562 0.0
O153 O 0.19672 0.0783 0.90229 0.0
Co154 Co 0.35094 0.98716 1.0192 0.0
O155 O 0.31353 0.98541 0.03869 0.0
O156 O 0.35293 1.03221 0.03654 0.0
C157 C 0.3296 0.95533 0.97492 0.0
O158 O 0.39259 1.00054 1.00246 0.0
Co159 Co 0.37373 0.92341 1.00241 0.0
O160 O 0.40891 0.95616 0.98539 0.0
C161 C 0.3801 0.95148 0.06734 0.0
C162 C 0.3263 1.01808 0.04646 0.0
C163 C 0.4128 0.98841 0.99036 0.0
O164 O 0.37109 0.9773 0.05892 0.0
O165 O 0.3804 0.92609 0.04862 0.0
O166 O 0.3303 0.98767 0.97811 0.0
O167 O 0.33876 0.94289 0.99925 0.0
Co168 Co 0.35835 0.40634 0.06668 0.0
O169 O 0.31362 0.3988 0.06059 0.0
O170 O 0.34751 0.4469 0.08094 0.0
C171 C 0.36291 0.38567 1.01666 0.0
O172 O 0.40528 0.42783 0.07407 0.0
Co173 Co 0.39123 0.35411 0.06772 0.0
O174 O 0.42698 0.38974 0.05417 0.0
C175 C 0.36254 0.36476 0.12437 0.0
C176 C 0.31891 0.43073 0.07117 0.0
C177 C 0.42818 0.42075 0.06198 0.0
O178 O 0.35521 0.38942 0.11082 0.0
O179 O 0.3764 0.34561 0.1102 0.0
O180 O 0.36135 0.41648 0.02381 0.0
O181 O 0.35973 0.36613 0.03971 0.0
Co182 Co 0.83716 0.17914 0.10061 0.0
O183 O 0.87792 0.1865 0.08737 0.0
O184 O 0.85236 0.14037 0.10921 0.0
C185 C 0.8163 0.19397 0.05702 0.0
O186 O 0.7944 0.16111 0.11478 0.0
Co187 Co 0.80581 0.2384 0.10714 0.0
O188 O 0.76765 0.20019 0.10936 0.0
C189 C 0.85676 0.23488 0.15244 0.0
C190 C 0.87611 0.15562 0.09503 0.0
C191 C 0.76905 0.16996 0.11423 0.0
O192 O 0.85442 0.20372 0.14237 0.0
O193 O 0.84223 0.25402 0.13915 0.0
O194 O 0.81943 0.16323 0.05844 0.0
O195 O 0.82784 0.21523 0.08093 0.0
Co196 Co 0.25781 0.63372 0.2663 0.0
O197 O 0.2484 0.59093 0.28483 0.0
O198 O 0.28912 0.61153 0.25872 0.0
C199 C 0.24883 0.6636 0.30783 0.0
O200 O 0.27717 0.6765 0.24582 0.0
Co201 Co 0.21091 0.67508 0.25433 0.0
O202 O 0.2466 0.71164 0.24305 0.0
C203 C 0.20259 0.60706 0.22217 0.0
C204 C 0.27418 0.58781 0.27504 0.0
C205 C 0.27237 0.70514 0.23962 0.0
O206 O 0.23176 0.61047 0.22783 0.0
O207 O 0.18916 0.62827 0.23366 0.0
O208 O 0.27572 0.6577 0.30614 0.0
O209 O 0.22823 0.65071 0.2848 0.0
Co210 Co 0.86038 0.9034 0.56611 0.0
O211 O 0.81552 0.8957 0.55918 0.0
O212 O 0.8491 0.94318 0.58121 0.0
C213 C 0.86593 0.88427 0.51581 0.0
O214 O 0.90709 0.92614 0.57483 0.0
Co215 Co 0.89566 0.85534 0.56807 0.0
O216 O 0.93037 0.89102 0.55311 0.0
C217 C 0.86783 0.86485 0.62507 0.0
C218 C 0.82063 0.9272 0.57102 0.0
C219 C 0.93029 0.92139 0.56162 0.0
O220 O 0.85606 0.88533 0.60969 0.0
O221 O 0.88558 0.84931 0.61249 0.0
O222 O 0.8642 0.91479 0.52385 0.0
O223 O 0.8631 0.86392 0.53836 0.0
Co224 Co 0.97752 0.06105 0.27104 0.0
O225 O 0.97438 0.10263 0.29193 0.0
O226 O 0.93617 0.06516 0.2622 0.0
C227 C 1.00148 0.04454 0.31174 0.0
O228 O 0.97156 1.01531 0.24709 0.0
Co229 Co 1.03842 0.04117 0.26164 0.0
O230 O 1.00989 0.99415 0.26347 0.0
C231 C 1.0198 0.09272 0.22472 0.0
C232 C 0.9453 0.09296 0.28084 0.0
C233 C 0.98119 0.98995 0.25529 0.0
O234 O 0.9925 0.08549 0.23416 0.0
O235 O 1.04146 0.08008 0.23492 0.0
O236 O 0.97142 0.03879 0.30924 0.0
O237 O 1.01602 0.06118 0.29052 0.0
Co238 Co 0.34316 0.67308 0.60336 0.0
O239 O 0.38517 0.67461 0.59609 0.0
O240 O 0.35111 0.63052 0.6129 0.0
C241 C 0.33135 0.69409 0.55881 0.0
O242 O 0.29798 0.6601 0.61171 0.0
Co243 Co 0.31943 0.73841 0.60732 0.0
O244 O 0.27801 0.70497 0.60857 0.0
C245 C 0.36175 0.726 0.65735 0.0
C246 C 0.37836 0.643 0.6035 0.0
C247 C 0.27511 0.67328 0.61202 0.0
O248 O 0.35669 0.69437 0.64692 0.0
O249 O 0.35282 0.74833 0.64238 0.0
O250 O 0.3301 0.66172 0.55924 0.0
O251 O 0.34179 0.71262 0.58435 0.0
Co252 Co 0.47924 0.5791 0.77205 0.0
O253 O 0.47879 0.62413 0.78761 0.0
O254 O 0.43769 0.58325 0.76542 0.0
C255 C 0.50736 0.56998 0.81367 0.0
O256 O 0.46993 0.52925 0.75562 0.0
Co257 Co 0.53878 0.55592 0.76252 0.0
O258 O 0.51063 0.51105 0.77143 0.0
C259 C 0.51658 0.60016 0.71937 0.0
C260 C 0.44891 0.61338 0.78032 0.0
C261 C 0.48141 0.50569 0.76539 0.0
O262 O 0.49021 0.59529 0.73062 0.0
O263 O 0.53889 0.58901 0.73045 0.0
O264 O 0.47753 0.565 0.81394 0.0
O265 O 0.51911 0.58168 0.78918 0.0
Co266 Co 0.75298 0.11944 0.77383 0.0
O267 O 0.74746 0.07388 0.78549 0.0
O268 O 0.78167 0.10026 0.75429 0.0
C269 C 0.75321 0.14342 0.82109 0.0
O270 O 0.76681 0.16607 0.75785 0.0
Co271 Co 0.70322 0.15784 0.78169 0.0
O272 O 0.73646 0.19853 0.77242 0.0
C273 C 0.69151 0.09855 0.73624 0.0
C274 C 0.77022 0.07343 0.76896 0.0
C275 C 0.76094 0.1951 0.76128 0.0
O276 O 0.72077 0.10156 0.73836 0.0
O277 O 0.67929 0.11644 0.75384 0.0
O278 O 0.77845 0.13763 0.81244 0.0
O279 O 0.72835 0.13202 0.80218 0.0
Co280 Co 0.83832 0.74777 0.05791 0.0
O281 O 0.8835 0.75894 0.06239 0.0
O282 O 0.85083 0.71085 0.07453 0.0
C283 C 0.83445 0.76386 1.00704 0.0
O284 O 0.79245 0.72202 0.05647 0.0
Co285 Co 0.80165 0.79383 0.05496 0.0
O286 O 0.76228 0.7568 0.05597 0.0
C287 C 0.82697 0.78862 0.11703 0.0
C288 C 0.87922 0.72919 0.07372 0.0
C289 C 0.76552 0.72681 0.05695 0.0
O290 O 0.83926 0.76734 0.10318 0.0
O291 O 0.81085 0.80425 0.10121 0.0
O292 O 0.83696 0.7341 1.01392 0.0
O293 O 0.83526 0.78511 0.03118 0.0
Co294 Co 0.98214 0.59935 0.86766 0.0
O295 O 0.98445 0.63552 0.83999 0.0
O296 O 0.94149 0.59731 0.85096 0.0
C297 C 1.01498 0.62943 0.90726 0.0
O298 O 0.96811 0.55954 0.89328 0.0
Co299 Co 1.03529 0.57001 0.89162 0.0
O300 O 1.00465 0.53789 0.91446 0.0
C301 C 1.00936 0.55634 0.82623 0.0
C302 C 0.95428 0.62276 0.83543 0.0
C303 C 0.97637 0.53819 0.91006 0.0
O304 O 0.98641 0.56781 0.83244 0.0
O305 O 1.03234 0.55779 0.84605 0.0
O306 O 0.9864 0.6313 0.90391 0.0
O307 O 1.02323 0.61205 0.88542 0.0
Co308 Co 0.84822 0.48452 0.5205 0.0
O309 O 0.8092 0.48313 0.5368 0.0
O310 O 0.84969 0.52931 0.53836 0.0
C311 C 0.82881 0.45407 0.47514 0.0
O312 O 0.89144 0.49748 0.50675 0.0
Co313 Co 0.87018 0.41984 0.50421 0.0
O314 O 0.90724 0.45244 0.48999 0.0
C315 C 0.87595 0.44808 0.56912 0.0
C316 C 0.82163 0.51564 0.54535 0.0
C317 C 0.91188 0.4847 0.49572 0.0
O318 O 0.86572 0.4732 0.56092 0.0
O319 O 0.87711 0.42306 0.55038 0.0
O320 O 0.83038 0.48662 0.47856 0.0
O321 O 0.83628 0.44075 0.49962 0.0
Co322 Co 0.73134 0.59201 0.38413 0.0
O323 O 0.7294 0.55145 0.35772 0.0
O324 O 0.77021 0.59745 0.36712 0.0
C325 C 0.7092 0.56546 0.42379 0.0
O326 O 0.74315 0.63687 0.41036 0.0
Co327 Co 0.67637 0.61469 0.40813 0.0
O328 O 0.70536 0.6617 0.40666 0.0
C329 C 0.68978 0.62184 0.34322 0.0
C330 C 0.75789 0.56718 0.35291 0.0
C331 C 0.73398 0.66342 0.40592 0.0
O332 O 0.71521 0.61339 0.34829 0.0
O333 O 0.67036 0.62114 0.36328 0.0
O334 O 0.7385 0.5688 0.42088 0.0
O335 O 0.69406 0.57598 0.40198 0.0
Tb336 Tb 0.13891 0.11349 0.09386 0.0
Tb337 Tb 0.07623 0.06283 0.05621 0.0
C338 C 0.07486 0.10545 0.11786 0.0
C339 C 0.21651 0.12985 0.12764 0.0
C340 C 0.26285 0.09637 0.11849 0.0
C341 C 0.27053 0.13263 0.12224 0.0
C342 C 0.24738 0.14927 0.12634 0.0
C343 C 0.20961 0.09395 0.12712 0.0
C344 C 0.23225 0.07739 0.12208 0.0
C345 C 0.19056 0.14507 0.1223 0.0
O346 O 0.12892 0.06308 0.11364 0.0
O347 O 0.10289 1.02788 0.07166 0.0
O348 O 0.11093 0.0736 0.02394 0.0
O349 O 0.15373 0.08341 0.05845 0.0
O350 O 1.03434 1.02395 0.05756 0.0
O351 O 1.04712 0.04567 1.015 0.0
O352 O 0.07116 0.11481 0.05296 0.0
O353 O 0.12233 0.14666 0.06202 0.0
O354 O 0.10171 0.12745 0.1151 0.0
O355 O 0.06651 0.07503 0.10261 0.0
C356 C 0.12014 1.03245 0.09821 0.0
O357 O 0.18328 0.14804 0.09326 0.0
O358 O 0.16589 0.13154 0.13619 0.0
C359 C 0.14023 0.07501 0.03038 0.0
C360 C 0.99664 0.04198 0.02856 0.0
C361 C 0.95106 0.07475 0.04298 0.0
C362 C 0.94652 0.0396 0.04713 0.0
C363 C 0.96929 1.0234 0.04018 0.0
C364 C 0.99996 0.07631 0.0223 0.0
C365 C 0.97779 0.09262 0.02994 0.0
C366 C 1.02433 1.02908 0.02991 0.0
C367 C 0.09306 0.14388 0.05205 0.0
H368 H 0.29395 0.14811 0.11995 0.0
H369 H 0.25318 0.17701 0.12643 0.0
H370 H 0.18603 0.07827 0.12785 0.0
H371 H 0.22474 0.04964 0.11825 0.0
H372 H 0.92606 1.02508 0.05701 0.0
H373 H 0.96642 0.99707 0.04563 0.0
H374 H 1.02083 0.09159 1.0136 0.0
H375 H 0.98276 0.11992 0.02735 0.0
Tb376 Tb 0.32922 0.84507 0.34556 0.0
Tb377 Tb 0.38816 0.89401 0.31464 0.0
C378 C 0.31871 0.88684 0.28818 0.0
C379 C 0.28447 0.78506 0.39656 0.0
C380 C 0.2898 0.75035 0.44972 0.0
C381 C 0.27443 0.77624 0.44972 0.0
C382 C 0.27183 0.79351 0.42332 0.0
C383 C 0.29783 0.75744 0.39601 0.0
C384 C 0.30045 0.74029 0.42233 0.0
C385 C 0.28529 0.80614 0.37004 0.0
O386 O 0.3295 0.82077 0.30034 0.0
O387 O 0.37906 0.84529 0.28726 0.0
O388 O 0.40924 0.87498 0.35437 0.0
O389 O 0.36926 0.82765 0.36232 0.0
O390 O 0.42979 0.90381 0.29342 0.0
O391 O 0.4116 0.94523 0.30859 0.0
O392 O 0.36597 0.92241 0.34466 0.0
O393 O 0.35593 0.88489 0.38051 0.0
O394 O 0.30967 0.87722 0.31524 0.0
O395 O 0.34769 0.89053 0.28195 0.0
C396 C 0.3521 0.82195 0.28282 0.0
O397 O 0.29427 0.83955 0.37606 0.0
O398 O 0.29797 0.79653 0.34653 0.0
C399 C 0.39866 0.8461 0.36745 0.0
C400 C 0.43123 0.94721 0.25995 0.0
C401 C 0.4226 0.95541 0.19678 0.0
C402 C 0.44552 0.94039 0.20798 0.0
C403 C 0.44986 0.93638 0.23939 0.0
C404 C 0.40988 0.96448 0.24891 0.0
C405 C 0.40576 0.9687 0.21762 0.0
C406 C 0.4309 0.93604 0.29143 0.0
C407 C 0.36533 0.91666 0.37365 0.0
H408 H 0.2654 0.7839 0.47045 0.0
H409 H 0.26093 0.81425 0.42415 0.0
H410 H 0.30745 0.74982 0.37565 0.0
H411 H 0.31234 0.72038 0.42171 0.0
H412 H 0.45917 0.93054 0.19228 0.0
H413 H 0.46667 0.92329 0.24739 0.0
H414 H 0.39522 0.97332 0.26412 0.0
H415 H 0.3881 0.9806 0.20951 0.0
Tb416 Tb 0.57031 0.08451 0.58375 0.0
Tb417 Tb 0.63899 0.09323 0.55982 0.0
C418 C 0.62213 0.06463 0.62203 0.0
C419 C 0.49964 0.10526 0.60054 0.0
C420 C 0.46319 0.15084 0.59397 0.0
C421 C 0.45378 0.12228 0.61129 0.0
C422 C 0.47193 0.09953 0.61451 0.0
C423 C 0.50977 0.13455 0.58435 0.0
C424 C 0.49166 0.15732 0.58115 0.0
C425 C 0.51818 0.0809 0.60269 0.0
O426 O 0.59189 0.1403 0.58808 0.0
O427 O 0.6434 0.14157 0.58787 0.0
O428 O 0.61806 0.12201 0.52863 0.0
O429 O 0.5668 0.09781 0.53676 0.0
O430 O 0.68717 0.10554 0.5717 0.0
O431 O 0.66734 0.08661 0.52521 0.0
O432 O 0.60777 0.04604 0.53609 0.0
O433 O 0.57182 1.03172 0.57079 0.0
O434 O 0.6017 0.082 0.62244 0.0
O435 O 0.63435 0.05931 0.59672 0.0
C436 C 0.62171 0.15698 0.59325 0.0
O437 O 0.52165 0.06599 0.57646 0.0
O438 O 0.54441 0.09238 0.61998 0.0
C439 C 0.58811 0.11642 0.52109 0.0
C440 C 0.70809 0.06611 0.54618 0.0
C441 C 0.74014 1.01596 0.55407 0.0
C442 C 0.75578 0.04906 0.54639 0.0
C443 C 0.73986 0.07393 0.54245 0.0
C444 C 0.69222 1.03293 0.55335 0.0
C445 C 0.7081 1.00798 0.55714 0.0
C446 C 0.69203 0.09314 0.54491 0.0
C447 C 0.58622 1.02273 0.54789 0.0
H448 H 0.43196 0.1171 0.62161 0.0
H449 H 0.46408 0.07723 0.62736 0.0
H450 H 0.53131 0.13936 0.57359 0.0
H451 H 0.49921 0.17909 0.56761 0.0
H452 H 0.78047 0.05581 0.54379 0.0
H453 H 0.75249 0.09944 0.53714 0.0
H454 H 0.66773 1.02661 0.55675 0.0
H455 H 0.69558 0.98287 0.56346 0.0
Tb456 Tb 0.37889 0.31205 0.82174 0.0
Tb457 Tb 0.32351 0.34977 0.81691 0.0
C458 C 0.31314 0.27548 0.84057 0.0
C459 C 0.44991 0.29376 0.80084 0.0
C460 C 0.49879 0.3074 0.76255 0.0
C461 C 0.49448 0.27978 0.78134 0.0
C462 C 0.47015 0.27297 0.8003 0.0
C463 C 0.45402 0.32124 0.78201 0.0
C464 C 0.47831 0.32808 0.7631 0.0
C465 C 0.42421 0.28674 0.82054 0.0
O466 O 0.36884 0.31586 0.77172 0.0
O467 O 0.31991 0.3228 0.7709 0.0
O468 O 0.36154 0.38277 0.79563 0.0
O469 O 0.40026 0.36675 0.82232 0.0
O470 O 0.27725 0.34697 0.80231 0.0
O471 O 0.30756 0.39291 0.82742 0.0
O472 O 0.34778 0.36484 0.8637 0.0
O473 O 0.37038 0.3211 0.87049 0.0
O474 O 0.3374 0.27149 0.82757 0.0
O475 O 0.30597 0.30465 0.84144 0.0
C476 C 0.34254 0.31636 0.75617 0.0
O477 O 0.4237 0.31234 0.83981 0.0
O478 O 0.39679 0.27203 0.80616 0.0
C479 C 0.39108 0.38782 0.80479 0.0
C480 C 0.25603 0.37377 0.8402 0.0
C481 C 0.20913 0.36306 0.88048 0.0
C482 C 0.20937 0.38535 0.85701 0.0
C483 C 0.23264 0.3905 0.83678 0.0
C484 C 0.25637 0.35258 0.86444 0.0
C485 C 0.23289 0.34695 0.88422 0.0
C486 C 0.27889 0.37615 0.81755 0.0
C487 C 0.36037 0.34653 0.88214 0.0
H488 H 0.50998 0.26348 0.78136 0.0
H489 H 0.4672 0.25157 0.81458 0.0
H490 H 0.43855 0.33759 0.78214 0.0
H491 H 0.48147 0.35 0.74945 0.0
H492 H 0.19106 0.39789 0.8538 0.0
H493 H 0.23201 0.40687 0.81817 0.0
H494 H 0.27439 0.33973 0.86767 0.0
H495 H 0.23309 0.32977 0.90226 0.0
Tb496 Tb 0.08848 0.09334 0.59461 0.0
Tb497 Tb 0.11413 0.05654 0.54096 0.0
C498 C 1.04092 0.03614 0.55143 0.0
C499 C 0.10039 0.13079 0.67085 0.0
C500 C 0.1425 0.13892 0.72338 0.0
C501 C 0.11369 0.14609 0.7255 0.0
C502 C 0.09269 0.14211 0.69922 0.0
C503 C 0.12942 0.12448 0.66872 0.0
C504 C 0.15038 0.12875 0.69468 0.0
C505 C 0.07833 0.12305 0.64327 0.0
O506 O 0.09805 0.04676 0.61651 0.0
O507 O 0.11691 1.0207 0.57781 0.0
O508 O 0.1569 0.08787 0.56663 0.0
O509 O 0.13508 0.12529 0.59027 0.0
O510 O 0.11676 1.01119 0.51695 0.0
O511 O 0.14038 0.06042 0.50291 0.0
O512 O 0.10713 0.1048 0.52008 0.0
O513 O 0.08088 0.12561 0.55604 0.0
O514 O 1.04489 0.06332 0.57066 0.0
O515 O 0.06409 1.03015 0.53742 0.0
C516 C 0.10743 1.02 0.6059 0.0
O517 O 0.08877 0.13921 0.61987 0.0
O518 O 0.06617 0.09044 0.63543 0.0
C519 C 0.15899 0.11873 0.57884 0.0
C520 C 0.1159 1.01729 0.46369 0.0
C521 C 0.07831 1.00898 0.40793 0.0
C522 C 0.10672 0.03492 0.41272 0.0
C523 C 0.12549 0.03887 0.4403 0.0
C524 C 0.08914 0.9891 0.45764 0.0
C525 C 0.07049 0.98494 0.42983 0.0
C526 C 0.131 1.0275 0.49524 0.0
C527 C 0.09387 0.12901 0.5295 0.0
H528 H 0.10683 0.15319 0.74761 0.0
H529 H 0.07025 0.14673 0.70121 0.0
H530 H 0.13554 0.11511 0.64708 0.0
H531 H 0.17233 0.12295 0.69251 0.0
H532 H 0.11338 0.05378 0.39613 0.0
H533 H 0.14626 0.06045 0.44421 0.0
H534 H 0.08149 0.97154 0.47503 0.0
H535 H 1.04914 0.96413 0.42619 0.0
Tb536 Tb 0.36681 0.86693 0.80266 0.0
Tb537 Tb 0.33341 0.80052 0.83385 0.0
C538 C 0.36436 0.7945 0.77319 0.0
C539 C 0.37361 0.94993 0.77592 0.0
C540 C 0.33646 0.99284 0.79125 0.0
C541 C 0.32435 0.964 0.77001 0.0
C542 C 0.34273 0.9426 0.76247 0.0
C543 C 0.38684 0.98127 0.79375 0.0
C544 C 0.36836 1.00258 0.80143 0.0
C545 C 0.3886 0.92198 0.77868 0.0
O546 O 0.31655 0.85352 0.78064 0.0
O547 O 0.29159 0.81687 0.81413 0.0
O548 O 0.33733 0.84182 0.86884 0.0
O549 O 0.34341 0.8862 0.83832 0.0
O550 O 0.3019 0.75104 0.82959 0.0
O551 O 0.327 0.77304 0.87326 0.0
O552 O 0.38502 0.80291 0.84281 0.0
O553 O 0.40672 0.85895 0.83424 0.0
O554 O 0.38108 0.8265 0.77848 0.0
O555 O 0.34015 0.7826 0.7881 0.0
C556 C 0.28965 0.8361 0.79061 0.0
O557 O 0.39656 0.91714 0.8071 0.0
O558 O 0.37481 0.89288 0.76248 0.0
C559 C 0.33723 0.87339 0.86456 0.0
C560 C 0.32621 0.71624 0.85707 0.0
C561 C 0.36291 0.67339 0.83965 0.0
C562 C 0.33119 0.66498 0.82872 0.0
C563 C 0.31298 0.68628 0.83734 0.0
C564 C 0.35684 0.72234 0.8707 0.0
C565 C 0.37503 0.70137 0.86186 0.0
C566 C 0.31165 0.74471 0.85688 0.0
C567 C 0.41046 0.82985 0.84469 0.0
H568 H 0.30004 0.95659 0.76104 0.0
H569 H 0.33182 0.91883 0.74837 0.0
H570 H 0.41057 0.98753 0.80435 0.0
H571 H 0.37838 1.02491 0.81761 0.0
H572 H 0.32096 0.64315 0.81205 0.0
H573 H 0.2894 0.68095 0.82654 0.0
H574 H 0.36788 0.74513 0.88606 0.0
H575 H 0.39928 0.70898 0.87072 0.0
Tb576 Tb 0.57768 0.04736 0.08368 0.0
Tb577 Tb 0.60893 0.09328 0.03341 0.0
C578 C 0.64765 0.07939 0.08838 0.0
C579 C 0.54563 1.00501 0.15224 0.0
C580 C 0.52616 1.00459 0.21145 0.0
C581 C 0.53577 0.0357 0.19767 0.0
C582 C 0.54547 0.03592 0.16819 0.0
C583 C 0.53672 0.97402 0.16613 0.0
C584 C 0.5272 0.97382 0.19577 0.0
C585 C 0.55363 1.00457 0.12061 0.0
O586 O 0.57841 0.09826 0.10776 0.0
O587 O 0.59515 0.1298 0.06756 0.0
O588 O 0.56281 0.06965 1.01121 0.0
O589 O 0.53961 0.05695 0.05535 0.0
O590 O 0.64725 0.13524 0.02902 0.0
O591 O 0.61075 0.11633 0.99159 0.0
O592 O 0.61181 0.04293 1.01127 0.0
O593 O 0.58791 1.00984 0.04793 0.0
O594 O 0.62355 0.07718 0.10368 0.0
O595 O 0.64357 0.07472 0.05846 0.0
C596 C 0.58586 0.12862 0.09594 0.0
O597 O 0.53785 1.0187 0.10176 0.0
O598 O 0.58323 1.01359 0.11694 0.0
C599 C 0.53804 0.06004 0.02569 0.0
C600 C 0.66081 0.14408 0.97826 0.0
C601 C 0.70397 0.15725 0.93425 0.0
C602 C 0.67384 0.16052 0.92762 0.0
C603 C 0.65261 0.15433 0.94953 0.0
C604 C 0.69094 0.1409 0.9852 0.0
C605 C 0.71238 0.14739 0.96325 0.0
C606 C 0.63767 0.1382 1.00063 0.0
C607 C 0.60108 1.01195 0.02142 0.0
H608 H 0.53584 0.05984 0.20975 0.0
H609 H 0.55245 0.06005 0.1577 0.0
H610 H 0.53678 0.94999 0.15391 0.0
H611 H 0.52013 0.94967 0.20622 0.0
H612 H 0.66621 0.1667 0.90508 0.0
H613 H 0.62951 0.15705 0.94384 0.0
H614 H 0.69787 0.13316 1.00734 0.0
H615 H 0.73526 0.14412 0.96875 0.0
Tb616 Tb 0.33571 0.28346 0.30422 0.0
Tb617 Tb 0.36617 0.35714 0.32963 0.0
C618 C 0.34154 0.33769 0.25601 0.0
C619 C 0.34491 0.20245 0.27252 0.0
C620 C 0.38487 0.16194 0.25916 0.0
C621 C 0.3524 0.1489 0.25145 0.0
C622 C 0.33248 0.169 0.25845 0.0
C623 C 0.37733 0.21672 0.27591 0.0
C624 C 0.39705 0.19693 0.26912 0.0
C625 C 0.32548 0.2203 0.28885 0.0
O626 O 0.38415 0.29837 0.28557 0.0
O627 O 0.41033 0.34379 0.31823 0.0
O628 O 0.37447 0.33068 0.3706 0.0
O629 O 0.33447 0.28388 0.35499 0.0
O630 O 0.39409 0.40654 0.32331 0.0
O631 O 0.37085 0.39699 0.36423 0.0
O632 O 0.31518 0.34824 0.34152 0.0
O633 O 0.29131 0.2942 0.31914 0.0
O634 O 0.326 0.30694 0.26253 0.0
O635 O 0.35745 0.36046 0.27863 0.0
C636 C 0.41149 0.32111 0.29533 0.0
O637 O 0.33857 0.23522 0.3157 0.0
O638 O 0.31249 0.24014 0.27335 0.0
C639 C 0.35365 0.30318 0.37756 0.0
C640 C 0.36826 0.44519 0.33971 0.0
C641 C 0.33569 0.49138 0.32177 0.0
C642 C 0.36452 0.50339 0.33972 0.0
C643 C 0.38079 0.48022 0.34881 0.0
C644 C 0.33945 0.43333 0.32189 0.0
C645 C 0.32325 0.45626 0.313 0.0
C646 C 0.38496 0.42028 0.34711 0.0
C647 C 0.28907 0.32178 0.33638 0.0
H648 H 0.34226 0.12212 0.24324 0.0
H649 H 0.30753 0.15746 0.25538 0.0
H650 H 0.38783 0.24184 0.28752 0.0
H651 H 0.42161 0.20811 0.27605 0.0
H652 H 0.37444 0.53059 0.34645 0.0
H653 H 0.40313 0.48958 0.3624 0.0
H654 H 0.3298 0.40632 0.31427 0.0
H655 H 0.30143 0.44667 0.29855 0.0
Tb656 Tb 0.58889 0.59228 0.09566 0.0
Tb657 Tb 0.61294 0.55424 0.04105 0.0
C658 C 0.54047 0.53375 0.05322 0.0
C659 C 0.59716 0.63693 0.17153 0.0
C660 C 0.63573 0.64695 0.22689 0.0
C661 C 0.60321 0.63861 0.22714 0.0
C662 C 0.58403 0.63357 0.19958 0.0
C663 C 0.62971 0.64757 0.1714 0.0
C664 C 0.64888 0.6527 0.19895 0.0
C665 C 0.5773 0.62406 0.14271 0.0
O666 O 0.60011 0.54678 0.11794 0.0
O667 O 0.61279 0.51711 0.07715 0.0
O668 O 0.65527 0.58158 0.06957 0.0
O669 O 0.63623 0.6223 0.09163 0.0
O670 O 0.60791 0.51047 1.01086 0.0
O671 O 0.64601 0.55553 1.00927 0.0
O672 O 0.6076 0.60307 0.02053 0.0
O673 O 0.58056 0.6231 0.05615 0.0
O674 O 0.54508 0.55926 0.07445 0.0
O675 O 0.56276 0.52966 0.03683 0.0
C676 C 0.6064 0.51837 0.10632 0.0
O677 O 0.58692 0.63871 0.11832 0.0
O678 O 0.56858 0.59081 0.13753 0.0
C679 C 0.6595 0.61308 0.08137 0.0
C680 C 0.62028 0.52647 0.96204 0.0
C681 C 0.58708 0.53151 0.90638 0.0
C682 C 0.61066 0.55999 0.92026 0.0
C683 C 0.6272 0.55751 0.94786 0.0
C684 C 0.59905 0.49705 0.94643 0.0
C685 C 0.58242 0.49958 0.91875 0.0
C686 C 0.62995 0.52627 0.99494 0.0
C687 C 0.59385 0.62681 0.02978 0.0
H688 H 0.59255 0.63389 0.24846 0.0
H689 H 0.559 0.62509 0.20004 0.0
H690 H 0.64039 0.65021 0.14997 0.0
H691 H 0.67389 0.65965 0.1983 0.0
H692 H 0.61475 0.58486 0.91099 0.0
H693 H 0.64364 0.58059 0.95913 0.0
H694 H 0.59359 0.47275 0.9568 0.0
H695 H 0.56482 0.47713 0.90792 0.0
Tb696 Tb 0.86942 0.37264 0.3014 0.0
Tb697 Tb 0.8357 0.30363 0.32991 0.0
C698 C 0.86921 0.30311 0.26959 0.0
C699 C 0.87277 0.45606 0.2757 0.0
C700 C 0.83559 0.50008 0.28795 0.0
C701 C 0.86694 0.50898 0.30013 0.0
C702 C 0.88543 0.48725 0.29387 0.0
C703 C 0.84229 0.44879 0.2612 0.0
C704 C 0.8239 0.47064 0.26728 0.0
C705 C 0.88847 0.42861 0.27783 0.0
O706 O 0.81834 0.35955 0.28097 0.0
O707 O 0.79327 0.31845 0.31094 0.0
O708 O 0.82675 0.341 0.36246 0.0
O709 O 0.85503 0.39065 0.3439 0.0
O710 O 0.80449 0.25413 0.32187 0.0
O711 O 0.83246 0.27008 0.36525 0.0
O712 O 0.88709 0.31257 0.34716 0.0
O713 O 0.91182 0.36182 0.32609 0.0
O714 O 0.88598 0.3346 0.27696 0.0
O715 O 0.84429 0.29023 0.28326 0.0
C716 C 0.79142 0.3399 0.28937 0.0
O717 O 0.89742 0.42371 0.30593 0.0
O718 O 0.87491 0.3995 0.26157 0.0
C719 C 0.83725 0.37459 0.36386 0.0
C720 C 0.83207 0.21763 0.3401 0.0
C721 C 0.86384 0.16973 0.32372 0.0
C722 C 0.83559 0.15891 0.33702 0.0
C723 C 0.81969 0.18297 0.34533 0.0
C724 C 0.85995 0.22782 0.32631 0.0
C725 C 0.87575 0.20425 0.31838 0.0
C726 C 0.81619 0.24396 0.34657 0.0
C727 C 0.91374 0.33597 0.34303 0.0
H728 H 0.87649 0.5312 0.31653 0.0
H729 H 0.90877 0.49335 0.30544 0.0
H730 H 0.83177 0.42501 0.24699 0.0
H731 H 0.79989 0.46339 0.25735 0.0
H732 H 0.82611 0.13216 0.34114 0.0
H733 H 0.79791 0.17461 0.3555 0.0
H734 H 0.86944 0.25409 0.32113 0.0
H735 H 0.89723 0.21296 0.3077 0.0
Tb736 Tb 0.08363 0.55081 0.58138 0.0
Tb737 Tb 0.10768 0.59882 0.52906 0.0
C738 C 0.15026 0.59361 0.58604 0.0
C739 C 1.03983 0.50809 0.64399 0.0
C740 C 1.0128 0.51189 0.69887 0.0
C741 C 1.02165 0.48244 0.69 0.0
C742 C 1.0352 0.48057 0.66259 0.0
C743 C 1.02779 0.53576 0.65105 0.0
C744 C 1.01415 0.53759 0.67849 0.0
C745 C 0.06089 0.50972 0.62006 0.0
O746 O 0.08652 0.6035 0.60445 0.0
O747 O 0.0882 0.63226 0.56071 0.0
O748 O 0.06253 0.56662 0.5101 0.0
O749 O 1.04464 0.56354 0.55716 0.0
O750 O 0.14777 0.62717 0.51187 0.0
O751 O 0.10238 0.63065 0.49361 0.0
O752 O 0.11708 0.54883 0.51188 0.0
O753 O 0.08907 0.5128 0.54426 0.0
O754 O 0.13405 0.5617 0.58658 0.0
O755 O 0.13881 0.61431 0.57051 0.0
C756 C 0.0859 0.63218 0.59109 0.0
O757 O 1.04857 0.50809 0.59183 0.0
O758 O 0.08733 0.53363 0.62536 0.0
C759 C 1.03938 0.55987 0.5271 0.0
C760 C 0.14463 0.64539 0.46237 0.0
C761 C 0.18171 0.65926 0.41341 0.0
C762 C 0.17173 0.62562 0.42252 0.0
C763 C 0.15333 0.61871 0.44695 0.0
C764 C 0.15299 0.67848 0.45213 0.0
C765 C 0.17135 0.68539 0.42767 0.0
C766 C 0.13249 0.64123 0.49237 0.0
C767 C 0.10479 0.51679 0.51958 0.0
H768 H 1.02086 0.46252 0.70565 0.0
H769 H 1.04425 0.45898 0.65719 0.0
H770 H 1.03114 0.55709 0.63665 0.0
H771 H 1.00762 0.5606 0.68521 0.0
H772 H 0.17881 0.60489 0.41122 0.0
H773 H 0.14723 0.59307 0.45477 0.0
H774 H 0.14674 0.6994 0.46412 0.0
H775 H 0.17858 0.7114 0.4208 0.0
Tb776 Tb 0.87634 0.80461 0.32131 0.0
Tb777 Tb 0.82239 0.8444 0.31571 0.0
C778 C 0.81006 0.77079 0.34047 0.0
C779 C 0.94671 0.78325 0.30108 0.0
C780 C 0.99617 0.79912 0.26326 0.0
C781 C 1.00213 0.80266 0.29558 0.0
C782 C 0.97765 0.79478 0.31427 0.0
C783 C 0.94072 0.77914 0.26875 0.0
C784 C 0.96521 0.78676 0.25006 0.0
C785 C 0.92104 0.77835 0.32112 0.0
O786 O 0.8658 0.80621 0.27096 0.0
O787 O 0.81796 0.81632 0.27 0.0
O788 O 0.85972 0.87438 0.29185 0.0
O789 O 0.89862 0.85859 0.31841 0.0
O790 O 0.77624 0.84274 0.3019 0.0
O791 O 0.80837 0.88909 0.32475 0.0
O792 O 0.84829 0.86112 0.36161 0.0
O793 O 0.86858 0.81603 0.36997 0.0
O794 O 0.83382 0.76563 0.32726 0.0
O795 O 0.80398 0.80057 0.34144 0.0
C796 C 0.83995 0.80813 0.25536 0.0
O797 O 0.92136 0.80519 0.33923 0.0
O798 O 0.89309 0.76289 0.30817 0.0
C799 C 0.88933 0.87808 0.29922 0.0
C800 C 0.75683 0.87336 0.33835 0.0
C801 C 0.70933 0.86177 0.37804 0.0
C802 C 0.70444 0.87274 0.34859 0.0
C803 C 0.72803 0.87841 0.32885 0.0
C804 C 0.76231 0.86402 0.36832 0.0
C805 C 0.73874 0.85848 0.38813 0.0
C806 C 0.77929 0.87302 0.31575 0.0
C807 C 0.86018 0.84296 0.38081 0.0
H808 H 1.02573 0.81233 0.30645 0.0
H809 H 0.98285 0.79846 0.33909 0.0
H810 H 0.9171 0.77049 0.25781 0.0
H811 H 0.95986 0.78297 0.22527 0.0
H812 H 0.68201 0.87584 0.34051 0.0
H813 H 0.72335 0.88533 0.30574 0.0
H814 H 0.78433 0.85955 0.37591 0.0
H815 H 0.74299 0.84999 0.4107 0.0
Tb816 Tb 0.83196 0.35479 0.85343 0.0
Tb817 Tb 0.8914 0.39128 0.81632 0.0
C818 C 0.82308 0.3896 0.79017 0.0
C819 C 0.78247 0.29885 0.90197 0.0
C820 C 0.78181 0.25355 0.94824 0.0
C821 C 0.75925 0.2717 0.94563 0.0
C822 C 0.7597 0.2944 0.92269 0.0
C823 C 0.80421 0.27981 0.9038 0.0
C824 C 0.80406 0.2576 0.92684 0.0
C825 C 0.7853 0.3249 0.87981 0.0
O826 O 0.84293 0.31528 0.82486 0.0
O827 O 0.86529 0.3465 0.78654 0.0
O828 O 0.91106 0.36588 0.85272 0.0
O829 O 0.86861 0.33698 0.87684 0.0
O830 O 0.92854 0.39065 0.78997 0.0
O831 O 0.92225 0.43847 0.80886 0.0
O832 O 0.87811 0.42843 0.84606 0.0
O833 O 0.86225 0.39575 0.8848 0.0
O834 O 0.81394 0.38274 0.81772 0.0
O835 O 0.85186 0.3919 0.78427 0.0
C836 C 0.84979 0.31761 0.79639 0.0
O837 O 0.80376 0.35514 0.8896 0.0
O838 O 0.79049 0.31511 0.85225 0.0
C839 C 0.8987 0.34568 0.87381 0.0
C840 C 0.93525 0.43597 0.7578 0.0
C841 C 0.92468 0.4476 0.69571 0.0
C842 C 0.94653 0.43011 0.70464 0.0
C843 C 0.95194 0.42453 0.73559 0.0
C844 C 0.91451 0.4549 0.7489 0.0
C845 C 0.90933 0.46067 0.71816 0.0
C846 C 0.93593 0.42399 0.78891 0.0
C847 C 0.87664 0.42523 0.87549 0.0
H848 H 0.74183 0.26902 0.96183 0.0
H849 H 0.74277 0.30897 0.92152 0.0
H850 H 0.82208 0.28303 0.88807 0.0
H851 H 0.82247 0.2451 0.9288 0.0
H852 H 0.95857 0.41982 0.68755 0.0
H853 H 0.96792 0.40977 0.74194 0.0
H854 H 0.90101 0.46381 0.76537 0.0
H855 H 0.89203 0.47375 0.71173 0.0
Tb856 Tb 0.83268 0.78198 0.80193 0.0
Tb857 Tb 0.86689 0.8539 0.83061 0.0
C858 C 0.84556 0.83939 0.75649 0.0
C859 C 0.82528 0.70085 0.75683 0.0
C860 C 0.86756 0.66285 0.75069 0.0
C861 C 0.83566 0.64572 0.75065 0.0
C862 C 0.81465 0.66495 0.75502 0.0
C863 C 0.85446 0.7165 0.74697 0.0
C864 C 0.87603 0.69763 0.74461 0.0
C865 C 0.81287 0.72048 0.77932 0.0
O866 O 0.88232 0.79349 0.78518 0.0
O867 O 0.90963 0.83827 0.81852 0.0
O868 O 0.87391 0.82557 0.87015 0.0
O869 O 0.8337 0.77882 0.85321 0.0
O870 O 0.90076 0.90122 0.82922 0.0
O871 O 0.86775 0.89514 0.86259 0.0
O872 O 0.81594 0.8471 0.84256 0.0
O873 O 0.79017 0.79395 0.81989 0.0
O874 O 0.82612 0.81022 0.76181 0.0
O875 O 0.86345 0.85884 0.77986 0.0
C876 C 0.91008 0.81582 0.79512 0.0
O877 O 0.83115 0.7304 0.80491 0.0
O878 O 0.80224 0.74514 0.76938 0.0
C879 C 0.85282 0.79789 0.87627 0.0
C880 C 0.87275 0.9408 0.83262 0.0
C881 C 0.84174 0.98272 0.80328 0.0
C882 C 0.86756 0.99745 0.82503 0.0
C883 C 0.88322 0.9764 0.8397 0.0
C884 C 0.84752 0.92656 0.81032 0.0
C885 C 0.83257 0.94735 0.79532 0.0
C886 C 0.88676 0.9169 0.84756 0.0
C887 C 0.78913 0.82147 0.83768 0.0
H888 H 0.82825 0.61847 0.75377 0.0
H889 H 0.79182 0.65222 0.76163 0.0
H890 H 0.86235 0.74408 0.74634 0.0
H891 H 0.90014 0.71161 0.74342 0.0
H892 H 0.87479 1.0249 0.83141 0.0
H893 H 0.90273 0.98763 0.85683 0.0
H894 H 0.83873 0.89907 0.80502 0.0
H895 H 0.813 0.93562 0.77834 0.0
Tb896 Tb 0.63963 0.61737 0.59026 0.0
Tb897 Tb 0.57865 0.56315 0.55383 0.0
C898 C 0.57486 0.60627 0.61436 0.0
C899 C 0.71814 0.641 0.62307 0.0
C900 C 0.75979 0.60253 0.61068 0.0
C901 C 0.73646 0.59061 0.63018 0.0
C902 C 0.71573 0.60965 0.6363 0.0
C903 C 0.74416 0.65508 0.60732 0.0
C904 C 0.76489 0.63594 0.60115 0.0
C905 C 0.6902 0.65315 0.61776 0.0
O906 O 0.63422 0.56798 0.6113 0.0
O907 O 0.6079 0.53115 0.57037 0.0
O908 O 0.61325 0.5719 0.52126 0.0
O909 O 0.65658 0.58817 0.55584 0.0
O910 O 0.54363 0.51669 0.55399 0.0
O911 O 0.54488 0.54806 0.51573 0.0
O912 O 0.57087 0.61397 0.54881 0.0
O913 O 0.62138 0.64776 0.55693 0.0
O914 O 0.60107 0.62904 0.61089 0.0
O915 O 0.56721 0.57563 0.59954 0.0
C916 C 0.62569 0.53691 0.59667 0.0
O917 O 0.68199 0.65512 0.58872 0.0
O918 O 0.66629 0.63832 0.6322 0.0
C919 C 0.64312 0.57637 0.52819 0.0
C920 C 0.4967 0.5278 0.53614 0.0
C921 C 0.45114 0.5564 0.55784 0.0
C922 C 0.46062 0.56216 0.52826 0.0
C923 C 0.48308 0.5478 0.5174 0.0
C924 C 0.4844 0.51877 0.56417 0.0
C925 C 0.46195 0.53317 0.57503 0.0
C926 C 0.52762 0.52384 0.53033 0.0
C927 C 0.59185 0.64362 0.54716 0.0
H928 H 0.7327 0.56535 0.63861 0.0
H929 H 0.69613 0.5981 0.64884 0.0
H930 H 0.74657 0.67916 0.59693 0.0
H931 H 0.783 0.6459 0.58638 0.0
H932 H 0.45205 0.57947 0.51432 0.0
H933 H 0.49168 0.55483 0.49551 0.0
H934 H 0.49408 0.5031 0.57908 0.0
H935 H 0.45504 0.52833 0.59792 0.0
Tb936 Tb 0.06942 0.58261 0.08548 0.0
Tb937 Tb 0.13346 0.58953 0.05258 0.0
C938 C 0.12524 0.56173 0.11645 0.0
C939 C 1.00016 0.60383 0.10703 0.0
C940 C 0.96718 0.65336 0.10179 0.0
C941 C 0.97959 0.64747 0.13083 0.0
C942 C 0.99582 0.62276 0.13343 0.0
C943 C 0.98794 0.60996 0.07797 0.0
C944 C 0.97157 0.63444 0.07541 0.0
C945 C 1.02018 0.58065 0.10971 0.0
O946 O 0.0912 0.6381 0.08764 0.0
O947 O 0.14154 0.63781 0.08201 0.0
O948 O 0.10941 0.61886 0.02523 0.0
O949 O 0.06008 0.59401 0.03841 0.0
O950 O 0.18226 0.60419 0.05783 0.0
O951 O 0.15693 0.5792 1.01486 0.0
O952 O 0.09882 0.54291 0.03161 0.0
O953 O 0.06977 0.52978 0.0722 0.0
O954 O 0.10465 0.5786 0.12024 0.0
O955 O 0.13395 0.55621 0.08931 0.0
C956 C 0.12115 0.65411 0.08986 0.0
O957 O 1.02114 0.56158 0.08485 0.0
O958 O 1.04783 0.59473 0.12383 0.0
C959 C 0.07906 0.61286 0.02068 0.0
C960 C 0.2008 0.56218 0.03342 0.0
C961 C 0.23553 0.51518 0.04554 0.0
C962 C 0.2495 0.54703 0.03427 0.0
C963 C 0.23229 0.57036 0.02834 0.0
C964 C 0.18651 0.53004 0.04384 0.0
C965 C 0.20373 0.50676 0.0499 0.0
C966 C 0.18382 0.5884 0.0314 0.0
C967 C 0.07929 0.52037 0.04624 0.0
H968 H 0.97684 0.66206 0.15148 0.0
H969 H 1.00551 0.61888 0.15599 0.0
H970 H 0.99124 0.59612 0.05712 0.0
H971 H 0.96194 0.63824 0.05279 0.0
H972 H 0.27393 0.55413 0.03051 0.0
H973 H 0.24377 0.59514 0.02061 0.0
H974 H 0.16226 0.5234 0.04826 0.0
H975 H 0.19242 0.48276 0.05905 0.0
C976 C 1.04397 0.20693 0.03835 0.0
C977 C 0.06306 0.23344 0.02325 0.0
C978 C 0.05371 0.17816 0.04697 0.0
C979 C 0.08346 0.17476 0.04182 0.0
H980 H 1.02108 0.20826 0.04344 0.0
H981 H 1.03789 0.15867 0.05841 0.0
S982 S 0.14274 0.23677 1.0032 0.0
N983 N 0.11327 0.25382 1.00315 0.0
N984 N 0.13184 0.2007 0.02028 0.0
C985 C 0.10288 0.20111 0.02688 0.0
C986 C 0.09264 0.23004 1.01735 0.0
C987 C 0.23995 0.87928 0.24263 0.0
C988 C 0.24765 0.88807 0.21286 0.0
C989 C 0.26292 0.88029 0.26696 0.0
C990 C 0.29496 0.89022 0.26292 0.0
H991 H 0.21577 0.87066 0.24718 0.0
H992 H 0.25532 0.8722 0.28893 0.0
S993 S 0.32817 0.91758 0.18996 0.0
N994 N 0.2902 0.90847 0.18128 0.0
N995 N 0.33309 0.91066 0.22662 0.0
C996 C 0.30309 0.90032 0.23355 0.0
C997 C 0.27967 0.89915 0.20869 0.0
C998 C 0.54662 0.92506 0.53207 0.0
C999 C 0.56451 0.91465 0.51029 0.0
C1000 C 0.55361 0.95985 0.5442 0.0
C1001 C 0.57891 0.98563 0.53521 0.0
H1002 H 0.52667 0.90639 0.53921 0.0
H1003 H 0.53885 0.96662 0.56052 0.0
S1004 S 0.63519 0.97046 0.48151 0.0
N1005 N 0.61003 0.93235 0.48219 0.0
N1006 N 0.6232 0.99678 0.50461 0.0
C1007 C 0.59748 0.97497 0.51416 0.0
C1008 C 0.59029 0.93984 0.50185 0.0
C1009 C 0.58191 0.32847 0.7417 0.0
C1010 C 0.5794 0.33602 0.71069 0.0
C1011 C 0.55569 0.31862 0.75796 0.0
C1012 C 0.52579 0.31594 0.74395 0.0
H1013 H 0.60443 0.33063 0.75385 0.0
H1014 H 0.55898 0.31388 0.78197 0.0
S1015 S 0.5059 0.33028 0.66267 0.0
N1016 N 0.54419 0.33846 0.66613 0.0
N1017 N 0.49477 0.31969 0.69678 0.0
C1018 C 0.5227 0.3226 0.71276 0.0
C1019 C 0.54951 0.33263 0.69611 0.0
C1020 C 0.09741 0.95554 0.67417 0.0
C1021 C 0.10244 0.92416 0.66186 0.0
C1022 C 0.09923 0.98559 0.65684 0.0
C1023 C 0.10664 0.98751 0.62553 0.0
H1024 H 0.0915 0.95695 0.69767 0.0
H1025 H 0.09458 1.00775 0.66839 0.0
S1026 S 0.12232 0.91337 0.58111 0.0
N1027 N 0.11534 0.89847 0.61498 0.0
N1028 N 0.11906 0.95298 0.58368 0.0
C1029 C 0.11195 0.95636 0.61314 0.0
C1030 C 0.10982 0.92577 0.63065 0.0
C1031 C 0.4968 0.85497 0.88945 0.0
C1032 C 0.50807 0.82512 0.88792 0.0
C1033 C 0.46684 0.85643 0.8752 0.0
C1034 C 0.44403 0.82769 0.85897 0.0
H1035 H 0.51136 0.87798 0.90262 0.0
H1036 H 0.46111 0.8806 0.87799 0.0
S1037 S 0.45961 0.74204 0.84699 0.0
N1038 N 0.49187 0.7654 0.86736 0.0
N1039 N 0.43686 0.7676 0.84211 0.0
C1040 C 0.45483 0.79748 0.85719 0.0
C1041 C 0.48584 0.79629 0.87111 0.0
C1042 C 0.59144 0.227 0.11577 0.0
C1043 C 0.5861 0.23197 0.14741 0.0
C1044 C 0.59072 0.19456 0.10018 0.0
C1045 C 0.58448 0.16312 0.11438 0.0
H1046 H 0.59701 0.24912 0.10237 0.0
H1047 H 0.59565 0.19445 0.0763 0.0
S1048 S 0.56758 0.15849 0.19682 0.0
N1049 N 0.57346 0.19988 0.19211 0.0
N1050 N 0.57173 0.13979 0.16334 0.0
C1051 C 0.57823 0.16701 0.14594 0.0
C1052 C 0.57906 0.2006 0.16206 0.0
C1053 C 0.22754 0.34423 0.39321 0.0
C1054 C 0.19662 0.32383 0.38184 0.0
C1055 C 0.25593 0.34404 0.37864 0.0
C1056 C 0.25701 0.32275 0.35139 0.0
H1057 H 0.23008 0.36129 0.41385 0.0
H1058 H 0.27773 0.36081 0.38954 0.0
S1059 S 0.18375 0.26309 0.31098 0.0
N1060 N 0.17061 0.28132 0.33987 0.0
N1061 N 0.22192 0.27986 0.31441 0.0
C1062 C 0.22631 0.30191 0.34002 0.0
C1063 C 0.19732 0.30276 0.3544 0.0
C1064 C 0.05462 0.13327 0.19494 0.0
C1065 C 1.02541 0.10953 0.19625 0.0
C1066 C 0.06953 0.13488 0.16792 0.0
C1067 C 0.05557 0.11257 0.14174 0.0
H1068 H 0.06769 0.14722 0.2159 0.0
H1069 H 0.09336 0.15075 0.16876 0.0
S1070 S 0.97577 0.05314 0.13141 0.0
N1071 N 0.98035 0.06912 0.16767 0.0
N1072 N 1.00816 0.07222 0.11657 0.0
C1073 C 1.02435 0.09304 0.1414 0.0
C1074 C 1.00915 0.09169 0.16883 0.0
C1075 C 0.3034 0.68699 0.50596 0.0
C1076 C 0.31957 0.70869 0.53176 0.0
C1077 C 0.29276 0.70057 0.47988 0.0
C1078 C 0.29782 0.73622 0.4787 0.0
H1079 H 0.29913 0.65937 0.50576 0.0
H1080 H 0.28083 0.6831 0.46034 0.0
S1081 S 0.33958 0.80419 0.53981 0.0
N1082 N 0.34035 0.76779 0.55438 0.0
N1083 N 0.32046 0.79302 0.50527 0.0
C1084 C 0.3136 0.75816 0.50446 0.0
C1085 C 0.32449 0.74445 0.53099 0.0
C1086 C 0.68616 0.07086 0.6831 0.0
C1087 C 0.67203 0.07786 0.70945 0.0
C1088 C 0.66874 0.06159 0.65447 0.0
C1089 C 0.63683 0.05911 0.65164 0.0
H1090 H 0.71119 0.07588 0.68384 0.0
H1091 H 0.68099 0.06022 0.63423 0.0
S1092 S 0.58738 0.06202 0.71524 0.0
N1093 N 0.62325 0.07225 0.73224 0.0
N1094 N 0.59042 0.05473 0.67818 0.0
C1095 C 0.62172 0.06018 0.67846 0.0
C1096 C 0.63941 0.0697 0.70757 0.0
C1097 C 0.36066 0.39663 0.96012 0.0
C1098 C 0.36326 0.37385 0.98288 0.0
C1099 C 0.36012 0.38758 0.92828 0.0
C1100 C 0.36259 0.35526 0.91687 0.0
H1101 H 0.35864 0.42199 0.96683 0.0
H1102 H 0.35772 0.40643 0.91241 0.0
S1103 S 0.37006 0.28549 0.96598 0.0
N1104 N 0.36838 0.3169 0.99112 0.0
N1105 N 0.36779 0.30004 0.93156 0.0
C1106 C 0.3656 0.33215 0.93925 0.0
C1107 C 0.3658 0.34132 0.97196 0.0
C1108 C 1.04789 1.02667 0.33 0.0
C1109 C 1.01816 1.02972 0.33503 0.0
C1110 C 0.06618 1.0168 0.35294 0.0
C1111 C 0.05571 1.01031 0.382 0.0
H1112 H 0.05772 1.03306 0.30856 0.0
H1113 H 0.0894 1.01603 0.34846 0.0
S1114 S 0.97871 1.01238 0.40616 0.0
N1115 N 0.97795 1.02282 0.37019 0.0
N1116 N 1.01302 1.00566 0.41416 0.0
C1117 C 1.02532 1.01136 0.38684 0.0
C1118 C 1.00639 1.02084 0.36315 0.0
C1119 C 0.39164 0.77016 0.69782 0.0
C1120 C 0.37207 0.7367 0.69003 0.0
C1121 C 0.39107 0.78783 0.72615 0.0
C1122 C 0.3706 0.77269 0.74745 0.0
H1123 H 0.40517 0.78397 0.68072 0.0
H1124 H 0.40481 0.81446 0.73013 0.0
S1125 S 0.31962 0.68283 0.74034 0.0
N1126 N 0.33563 0.68703 0.7075 0.0
N1127 N 0.3346 0.71995 0.76106 0.0
C1128 C 0.35387 0.73769 0.74144 0.0
C1129 C 0.35468 0.71967 0.71261 0.0
C1130 C 0.75099 0.13005 0.87508 0.0
C1131 C 0.75049 0.15365 0.85301 0.0
C1132 C 0.73805 0.13299 0.90285 0.0
C1133 C 0.72475 0.15994 0.90938 0.0
H1134 H 0.7587 0.10748 0.86968 0.0
H1135 H 0.7363 0.11258 0.91811 0.0
S1136 S 0.7234 0.23163 0.86089 0.0
N1137 N 0.73951 0.20677 0.84052 0.0
N1138 N 0.71636 0.21346 0.89342 0.0
C1139 C 0.72727 0.18566 0.88871 0.0
C1140 C 0.73988 0.1822 0.86025 0.0
C1141 C 0.35661 0.38478 0.18053 0.0
C1142 C 0.35505 0.35796 0.15754 0.0
C1143 C 0.35197 0.37845 0.21195 0.0
C1144 C 0.34445 0.34482 0.22204 0.0
H1145 H 0.36244 0.41111 0.17443 0.0
H1146 H 0.35441 0.40021 0.22851 0.0
S1147 S 0.33659 0.26519 0.17121 0.0
N1148 N 0.34512 0.29621 0.14781 0.0
N1149 N 0.33554 0.28434 0.20535 0.0
C1150 C 0.34212 0.31784 0.19901 0.0
C1151 C 0.3476 0.32435 0.1674 0.0
C1152 C 0.31558 0.07305 0.06268 0.0
C1153 C 0.31235 0.03831 0.06708 0.0
C1154 C 0.30167 0.09269 0.08124 0.0
C1155 C 0.2843 0.07837 0.10515 0.0
H1156 H 0.32773 0.08474 0.04384 0.0
H1157 H 0.30275 0.11846 0.07519 0.0
S1158 S 0.27677 0.99111 0.1312 0.0
N1159 N 0.29545 0.99195 0.10002 0.0
N1160 N 0.2706 1.0293 0.13611 0.0
C1161 C 0.28383 0.0446 0.11172 0.0
C1162 C 0.29738 1.02439 0.09229 0.0
C1163 C 0.71318 0.70302 0.07605 0.0
C1164 C 0.73866 0.69712 0.06216 0.0
C1165 C 0.68876 0.67569 0.08356 0.0
C1166 C 0.6883 0.64096 0.07718 0.0
H1167 H 0.71222 0.72906 0.08166 0.0
H1168 H 0.66969 0.68207 0.09391 0.0
S1169 S 0.74952 0.61136 0.04081 0.0
N1170 N 0.76215 0.65374 0.04251 0.0
N1171 N 0.71599 0.60246 0.05604 0.0
C1172 C 0.71374 0.63465 0.06338 0.0
C1173 C 0.73887 0.66261 0.05601 0.0
C1174 C 0.76766 0.51511 0.32724 0.0
C1175 C 0.77608 0.55104 0.33314 0.0
C1176 C 0.78642 0.49899 0.31134 0.0
C1177 C 0.81411 0.51824 0.30049 0.0
H1178 H 0.74715 0.49919 0.33608 0.0
H1179 H 0.77987 0.47113 0.30878 0.0
S1180 S 0.84414 0.61333 0.30618 0.0
N1181 N 0.8124 0.60567 0.32443 0.0
N1182 N 0.84735 0.57523 0.29405 0.0
C1183 C 0.8219 0.55427 0.30479 0.0
C1184 C 0.80294 0.57071 0.3212 0.0
C1185 C 0.95224 0.538 0.51703 0.0
C1186 C 0.9439 0.50783 0.4967 0.0
C1187 C 0.98337 0.55595 0.52541 0.0
C1188 C 1.00731 0.54516 0.51305 0.0
H1189 H 0.9348 0.54649 0.52854 0.0
H1190 H 0.98878 0.57755 0.54274 0.0
S1191 S 0.99837 0.47139 0.45545 0.0
N1192 N 0.96235 0.47023 0.462 0.0
N1193 N 1.02112 0.50499 0.47712 0.0
C1194 C 0.99951 0.51708 0.49064 0.0
C1195 C 0.9677 0.49817 0.48258 0.0
C1196 C 0.41021 0.09838 0.30492 0.0
C1197 C 0.44277 0.112 0.30795 0.0
C1198 C 0.3913 0.11133 0.28496 0.0
C1199 C 0.40416 0.13856 0.26721 0.0
H1200 H 0.39891 0.07903 0.31956 0.0
H1201 H 0.36642 0.10233 0.28625 0.0
S1202 S 0.48829 0.17496 0.25901 0.0
N1203 N 0.48738 0.1483 0.28632 0.0
N1204 N 0.4516 0.17225 0.24791 0.0
C1205 C 0.43677 0.14859 0.26645 0.0
C1206 C 0.45617 0.13556 0.28718 0.0
C1207 C 0.43005 0.22705 0.58682 0.0
C1208 C 0.39941 0.21084 0.57413 0.0
C1209 C 0.45102 0.2076 0.59304 0.0
C1210 C 0.44176 0.17161 0.58665 0.0
H1211 H 0.43748 0.25457 0.59284 0.0
H1212 H 0.4743 0.22059 0.60352 0.0
S1213 S 0.36573 0.11808 0.54881 0.0
N1214 N 0.362 0.15744 0.55231 0.0
N1215 N 0.40139 0.12127 0.56383 0.0
C1216 C 0.41173 0.15555 0.57256 0.0
C1217 C 0.39054 0.17512 0.56633 0.0
C1218 C 0.74325 0.71884 0.38096 0.0
C1219 C 0.75512 0.69307 0.39306 0.0
C1220 C 0.76112 0.74374 0.36384 0.0
C1221 C 0.79141 0.74359 0.3578 0.0
H1222 H 0.7196 0.71924 0.38386 0.0
H1223 H 0.75086 0.76285 0.35478 0.0
S1224 S 0.83472 0.68405 0.38684 0.0
N1225 N 0.80028 0.6709 0.39988 0.0
N1226 N 0.83346 0.71723 0.3672 0.0
C1227 C 0.804 0.71876 0.37057 0.0
C1228 C 0.78601 0.69371 0.38839 0.0
C1229 C 0.95484 0.47528 0.91274 0.0
C1230 C 0.95086 0.50843 0.91667 0.0
C1231 C 0.92935 0.44685 0.90279 0.0
C1232 C 0.89937 0.45086 0.8968 0.0
H1233 H 0.97798 0.47186 0.91341 0.0
H1234 H 0.93369 0.42243 0.89666 0.0
S1235 S 0.87554 0.52999 0.91224 0.0
N1236 N 0.91365 0.5419 0.92102 0.0
N1237 N 0.86608 0.48846 0.90123 0.0
C1238 C 0.89448 0.48263 0.90492 0.0
C1239 C 0.92023 0.51143 0.91552 0.0
C1240 C 0.14726 0.97528 0.15564 0.0
C1241 C 0.14791 0.94569 0.1372 0.0
C1242 C 0.13881 1.00316 0.14293 0.0
C1243 C 0.12988 1.0027 0.11114 0.0
H1244 H 0.15305 0.97686 0.18033 0.0
H1245 H 0.13866 1.025 0.15838 0.0
S1246 S 0.12916 0.93245 0.05214 0.0
N1247 N 0.14018 0.9188 0.08486 0.0
N1248 N 0.12384 0.97037 0.06129 0.0
C1249 C 0.131 0.97358 0.09233 0.0
C1250 C 0.14011 0.94543 0.1052 0.0
C1251 C 0.97272 0.3294 0.91204 0.0
C1252 C 0.96436 0.31857 0.94104 0.0
C1253 C 0.95124 0.33717 0.8903 0.0
C1254 C 0.92016 0.334 0.89623 0.0
H1255 H 0.99649 0.3334 0.90653 0.0
H1256 H 0.95936 0.34641 0.86883 0.0
S1257 S 0.88547 0.3034 0.96762 0.0
N1258 N 0.92213 0.30302 0.97373 0.0
N1259 N 0.8818 0.31692 0.93298 0.0
C1260 C 0.91111 0.3216 0.92463 0.0
C1261 C 0.93313 0.31414 0.94695 0.0
C1262 C 0.67034 0.25156 0.60977 0.0
C1263 C 0.65073 0.26764 0.62493 0.0
C1264 C 0.66104 0.216 0.60024 0.0
C1265 C 0.6313 0.1947 0.60464 0.0
H1266 H 0.6933 0.26659 0.6053 0.0
H1267 H 0.67722 0.20528 0.58875 0.0
S1268 S 0.57053 0.22386 0.64263 0.0
N1269 N 0.59992 0.25905 0.64389 0.0
N1270 N 0.58218 0.1929 0.62537 0.0
C1271 C 0.61135 0.21048 0.61967 0.0
C1272 C 0.6211 0.2466 0.62996 0.0
C1273 C 0.65948 0.85796 0.44494 0.0
C1274 C 0.63113 0.83438 0.43273 0.0
C1275 C 0.68508 0.86626 0.42744 0.0
C1276 C 0.68304 0.85139 0.39716 0.0
H1277 H 0.66159 0.87102 0.4677 0.0
H1278 H 0.70623 0.88521 0.43727 0.0
S1279 S 0.61581 0.7847 0.35615 0.0
N1280 N 0.60382 0.79376 0.38959 0.0
N1281 N 0.65183 0.80949 0.35693 0.0
C1282 C 0.65544 0.82659 0.38531 0.0
C1283 C 0.62951 0.81804 0.40305 0.0
C1284 C 0.08054 0.21806 0.50598 0.0
C1285 C 0.09568 0.22772 0.47874 0.0
C1286 C 0.0799 0.18717 0.52102 0.0
C1287 C 0.09423 0.16189 0.51066 0.0
H1288 H 0.06868 0.235 0.51655 0.0
H1289 H 0.06786 0.1833 0.54162 0.0
S1290 S 0.13804 0.17177 0.44068 0.0
N1291 N 0.1261 0.2069 0.4425 0.0
N1292 N 0.12495 0.15003 0.47005 0.0
C1293 C 0.10961 0.17073 0.48337 0.0
C1294 C 0.11031 0.20268 0.46786 0.0
C1295 C 0.7262 0.36262 0.23255 0.0
C1296 C 0.69598 0.34495 0.24098 0.0
C1297 C 0.75558 0.36133 0.24804 0.0
C1298 C 0.7583 0.34165 0.27358 0.0
H1299 H 0.72742 0.37791 0.21295 0.0
H1300 H 0.77672 0.37582 0.23924 0.0
S1301 S 0.68768 0.28959 0.30683 0.0
N1302 N 0.67226 0.30667 0.27838 0.0
N1303 N 0.72588 0.30383 0.30662 0.0
C1304 C 0.72834 0.32392 0.28268 0.0
C1305 C 0.69817 0.32561 0.26695 0.0
C1306 C 0.6176 0.94694 0.95632 0.0
C1307 C 0.60894 0.91359 0.9675 0.0
C1308 C 0.61526 0.97782 0.9733 0.0
C1309 C 0.60383 0.97815 1.00294 0.0
H1310 H 0.62659 0.94945 0.93402 0.0
H1311 H 0.62253 1.00189 0.96281 0.0
S1312 S 0.57746 0.89833 0.0436 0.0
N1313 N 0.58816 0.88411 1.01121 0.0
N1314 N 0.58359 0.9402 0.04203 0.0
C1315 C 0.59497 0.94489 1.01422 0.0
C1316 C 0.59753 0.91361 0.99705 0.0
C1317 C 0.97142 0.80862 0.73193 0.0
C1318 C 1.00254 0.82104 0.74709 0.0
C1319 C 0.94284 0.806 0.74709 0.0
C1320 C 0.94192 0.8167 0.77897 0.0
H1321 H 0.96884 0.80027 0.70763 0.0
H1322 H 0.92086 0.79603 0.73303 0.0
S1323 S 1.01577 0.85234 0.83075 0.0
N1324 N 1.02881 0.84403 0.79764 0.0
N1325 N 0.9774 0.84112 0.82451 0.0
C1326 C 0.97287 0.82962 0.79423 0.0
C1327 C 1.0019 0.83121 0.77906 0.0
C1328 C 0.1604 0.05874 0.94985 0.0
C1329 C 0.19275 0.06356 0.95376 0.0
C1330 C 0.14356 0.06105 0.97492 0.0
C1331 C 0.1583 0.06809 1.00508 0.0
H1332 H 0.14802 0.05474 0.92702 0.0
H1333 H 0.11896 0.05861 0.9703 0.0
S1334 S 0.24139 0.07565 0.02814 0.0
N1335 N 0.23824 0.07074 0.99013 0.0
N1336 N 0.20639 0.07462 0.03789 0.0
C1337 C 0.19018 0.06987 1.00963 0.0
C1338 C 0.20745 0.06761 0.98381 0.0
C1339 C 0.89113 0.41817 0.61355 0.0
C1340 C 0.88871 0.44885 0.60147 0.0
C1341 C 0.90401 0.41823 0.64376 0.0
C1342 C 0.91501 0.44896 0.66291 0.0
H1343 H 0.88262 0.3938 0.59974 0.0
H1344 H 0.90449 0.39392 0.6525 0.0
S1345 S 0.91697 0.53657 0.64183 0.0
N1346 N 0.90037 0.51116 0.61064 0.0
N1347 N 0.92462 0.51098 0.6675 0.0
C1348 C 0.91355 0.4799 0.65102 0.0
C1349 C 0.90036 0.47991 0.6203 0.0
C1350 C 0.53203 0.1352 0.46115 0.0
C1351 C 0.54468 0.1283 0.43391 0.0
C1352 C 0.54791 0.13466 0.48987 0.0
C1353 C 0.57703 0.12776 0.49211 0.0
H1354 H 0.50856 0.13764 0.4604 0.0
H1355 H 0.53629 0.1371 0.51037 0.0
S1356 S 0.62288 0.11604 0.42748 0.0
N1357 N 0.59 0.12032 0.41076 0.0
N1358 N 0.62007 0.11972 0.46493 0.0
C1359 C 0.59156 0.12524 0.46515 0.0
C1360 C 0.57524 0.12538 0.43589 0.0
C1361 C 0.8528 0.78329 0.17073 0.0
C1362 C 0.83039 0.7941 0.15232 0.0
C1363 C 0.8558 0.78784 0.20356 0.0
C1364 C 0.83615 0.80283 0.22008 0.0
H1365 H 0.86845 0.77134 0.15968 0.0
H1366 H 0.87367 0.77925 0.21611 0.0
S1367 S 0.77318 0.83529 0.18352 0.0
N1368 N 0.78805 0.82065 0.15399 0.0
N1369 N 0.79327 0.82851 0.21461 0.0
C1370 C 0.81352 0.8135 0.20193 0.0
C1371 C 0.81077 0.80934 0.16859 0.0
C1372 C 0.18642 0.10332 0.78413 0.0
C1373 C 0.19132 0.12841 0.80885 0.0
C1374 C 0.17208 0.10787 0.75575 0.0
C1375 C 0.16255 0.13775 0.7514 0.0
H1376 H 0.1914 0.07903 0.78744 0.0
H1377 H 0.1666 0.08691 0.7378 0.0
S1378 S 0.17643 0.21372 0.80757 0.0
N1379 N 0.18979 0.18579 0.82642 0.0
N1380 N 0.16354 0.19485 0.77262 0.0
C1381 C 0.17003 0.16426 0.77519 0.0
C1382 C 0.18433 0.15947 0.8041 0.0
C1383 C 0.8195 0.39862 0.4439 0.0
C1384 C 0.82552 0.43459 0.44484 0.0
C1385 C 0.82186 0.37928 0.41714 0.0
C1386 C 0.83059 0.39518 0.39024 0.0
H1387 H 0.81408 0.38531 0.46443 0.0
H1388 H 0.81823 0.35185 0.4181 0.0
S1389 S 0.84422 0.48813 0.37922 0.0
N1390 N 0.83717 0.48503 0.41565 0.0
N1391 N 0.84162 0.44868 0.36502 0.0
C1392 C 0.83461 0.43092 0.39018 0.0
C1393 C 0.83199 0.45063 0.41754 0.0
C1394 C 0.52513 0.99706 0.29692 0.0
C1395 C 0.50397 1.01543 0.30465 0.0
C1396 C 0.53083 0.99163 0.26626 0.0
C1397 C 0.51581 1.00479 0.24252 0.0
H1398 H 0.53861 0.98839 0.31477 0.0
H1399 H 0.54847 0.97898 0.26135 0.0
S1400 S 0.45494 0.04985 0.2496 0.0
N1401 N 0.46494 0.04274 0.28525 0.0
N1402 N 0.4764 1.03311 0.2278 0.0
C1403 C 0.49294 1.02082 0.24953 0.0
C1404 C 0.48672 1.02587 0.2806 0.0
C1405 C 0.83085 0.7483 0.94882 0.0
C1406 C 0.83805 0.77402 0.9739 0.0
C1407 C 0.83547 0.756 0.91781 0.0
C1408 C 0.84852 0.78987 0.90987 0.0
H1409 H 0.82136 0.72162 0.95314 0.0
H1410 H 0.8291 0.73497 0.89991 0.0
S1411 S 0.87087 0.86741 0.96604 0.0
N1412 N 0.85814 0.83541 0.98771 0.0
N1413 N 0.86762 0.84972 0.93043 0.0
C1414 C 0.85574 0.81592 0.93469 0.0
C1415 C 0.85034 0.80812 0.9662 0.0
C1416 C 0.90252 0.10903 0.09756 0.0
C1417 C 0.89611 0.1361 0.08222 0.0
C1418 C 0.91933 0.08844 0.08422 0.0
C1419 C 0.92996 0.09393 0.05492 0.0
H1420 H 0.89464 0.10386 0.12007 0.0
H1421 H 0.92439 0.06847 0.09724 0.0
S1422 S 0.91415 0.15777 1.00308 0.0
N1423 N 0.89875 0.16522 0.03495 0.0
N1424 N 0.92921 0.1257 1.00944 0.0
C1425 C 0.92222 0.11988 0.03874 0.0
C1426 C 0.90566 0.14122 0.05253 0.0
C1427 C 0.46011 0.48264 0.07195 0.0
C1428 C 0.45643 0.44944 0.05784 0.0
C1429 C 0.48637 0.51014 0.06877 0.0
C1430 C 0.51026 0.50594 0.05107 0.0
H1431 H 0.44281 0.48747 0.08623 0.0
H1432 H 0.48829 0.53469 0.08112 0.0
S1433 S 0.51066 0.42494 1.0067 0.0
N1434 N 0.47809 0.41456 0.02355 0.0
N1435 N 0.52728 0.466 1.01749 0.0
C1436 C 0.50623 0.4732 0.03568 0.0
C1437 C 0.47952 0.44505 0.0391 0.0
C1438 C 0.40243 0.63574 0.77811 0.0
C1439 C 0.42812 0.63019 0.79511 0.0
C1440 C 0.38111 0.64908 0.79283 0.0
C1441 C 0.3842 0.65621 0.82514 0.0
H1442 H 0.39901 0.63007 0.75331 0.0
H1443 H 0.36239 0.65436 0.77867 0.0
S1444 S 0.44556 0.64109 0.88007 0.0
N1445 N 0.45477 0.63046 0.84574 0.0
N1446 N 0.41359 0.65326 0.8737 0.0
C1447 C 0.40927 0.64928 0.84239 0.0
C1448 C 0.43149 0.63681 0.82729 0.0
C1449 C 0.23663 0.61535 0.60109 0.0
C1450 C 0.24367 0.6499 0.61339 0.0
C1451 C 0.20571 0.59479 0.59563 0.0
C1452 C 0.18119 0.60819 0.60261 0.0
H1453 H 0.2548 0.60499 0.59328 0.0
H1454 H 0.20093 0.56965 0.58325 0.0
S1455 S 0.18753 0.69383 0.6417 0.0
N1456 N 0.22383 0.69425 0.63723 0.0
N1457 N 0.16585 0.6555 0.62713 0.0
C1458 C 0.18815 0.64113 0.61814 0.0
C1459 C 0.21942 0.66211 0.62345 0.0
C1460 C 0.81771 0.05418 0.76653 0.0
C1461 C 0.78606 0.04656 0.77156 0.0
C1462 C 0.83569 1.03296 0.77632 0.0
C1463 C 0.82232 1.00341 0.79093 0.0
H1464 H 0.82919 0.07774 0.75676 0.0
H1465 H 0.86027 0.04011 0.77318 0.0
S1466 S 0.7397 0.97003 0.80603 0.0
N1467 N 0.74142 1.0058 0.78921 0.0
N1468 N 0.77537 0.966 0.80801 0.0
C1469 C 0.7903 0.99433 0.7943 0.0
C1470 C 0.77205 1.01589 0.78438 0.0
C1471 C 0.80407 0.97922 0.58558 0.0
C1472 C 0.79675 0.94626 0.56981 0.0
C1473 C 0.78511 1.00102 0.58094 0.0
C1474 C 0.7579 0.99077 0.56046 0.0
H1475 H 0.82529 0.9889 0.60091 0.0
H1476 H 0.79217 1.02644 0.59306 0.0
S1477 S 0.72682 0.90632 0.51503 0.0
N1478 N 0.75926 0.9037 0.53408 0.0
N1479 N 0.72346 0.94486 0.52547 0.0
C1480 C 0.7493 0.95729 0.54569 0.0
C1481 C 0.76875 0.93498 0.55035 0.0
C1482 C 0.42849 0.46385 0.76074 0.0
C1483 C 0.45978 0.4734 0.77328 0.0
C1484 C 0.40646 0.43621 0.77107 0.0
C1485 C 0.41481 0.41715 0.7945 0.0
H1486 H 0.42078 0.47821 0.74311 0.0
H1487 H 0.38267 0.42991 0.76065 0.0
S1488 S 0.49375 0.43224 0.83555 0.0
N1489 N 0.49802 0.46178 0.81061 0.0
N1490 N 0.45676 0.40998 0.83012 0.0
C1491 C 0.44616 0.4262 0.80705 0.0
C1492 C 0.46861 0.45423 0.79639 0.0
C1493 C 0.32879 0.73382 0.25109 0.0
C1494 C 0.29988 0.73379 0.23581 0.0
C1495 C 0.35095 0.76484 0.26158 0.0
C1496 C 0.34477 0.79618 0.25656 0.0
H1497 H 0.33255 0.71035 0.25903 0.0
H1498 H 0.37034 0.76415 0.27772 0.0
S1499 S 0.27928 0.80916 0.20649 0.0
N1500 N 0.27095 0.76706 0.20792 0.0
N1501 N 0.31324 0.82537 0.22706 0.0
C1502 C 0.3195 0.7961 0.23549 0.0
C1503 C 0.29663 0.7647 0.22531 0.0
C1504 C 0.54156 0.70579 0.53342 0.0
C1505 C 0.56024 0.73229 0.51795 0.0
C1506 C 0.5516 0.67708 0.54192 0.0
C1507 C 0.5813 0.6738 0.53632 0.0
H1508 H 0.51882 0.70714 0.539 0.0
H1509 H 0.53615 0.65765 0.55375 0.0
S1510 S 0.63959 0.73585 0.49665 0.0
N1511 N 0.61 0.75267 0.497 0.0
N1512 N 0.62915 0.69989 0.51394 0.0
C1513 C 0.60026 0.70012 0.52095 0.0
C1514 C 0.58969 0.7289 0.51153 0.0
C1515 C 0.74503 0.38562 0.74439 0.0
C1516 C 0.75246 0.38992 0.71376 0.0
C1517 C 0.76792 0.38672 0.7689 0.0
C1518 C 0.79964 0.39222 0.76419 0.0
H1519 H 0.72107 0.38071 0.74958 0.0
H1520 H 0.76046 0.38244 0.79166 0.0
S1521 S 0.83213 0.40606 0.68859 0.0
N1522 N 0.79452 0.40084 0.6805 0.0
N1523 N 0.83716 0.40286 0.72601 0.0
C1524 C 0.80753 0.39731 0.73376 0.0
C1525 C 0.78422 0.3962 0.70878 0.0
C1526 C 0.0593 0.4219 0.04049 0.0
C1527 C 0.05552 0.41307 1.0084 0.0
C1528 C 0.06565 0.45647 0.05272 0.0
C1529 C 0.0689 0.48362 0.03336 0.0
H1530 H 0.05837 0.40214 0.0563 0.0
H1531 H 0.06935 0.4621 0.07751 0.0
S1532 S 0.05704 0.47433 0.94794 0.0
N1533 N 0.05218 0.43464 0.95769 0.0
N1534 N 0.06491 0.49895 0.98067 0.0
C1535 C 0.06379 0.47501 1.00138 0.0
C1536 C 0.05686 0.43997 0.98894 0.0
C1537 C 0.07494 0.80749 0.23339 0.0
C1538 C 0.07476 0.82809 0.20861 0.0
C1539 C 1.04923 0.7977 0.25041 0.0
C1540 C 1.02236 0.8084 0.24358 0.0
H1541 H 0.09527 0.79904 0.2399 0.0
H1542 H 1.0505 0.78176 0.26925 0.0
S1543 S 1.0106 0.86386 0.18171 0.0
N1544 N 1.04559 0.85915 0.17815 0.0
N1545 N 0.99749 0.84159 0.21071 0.0
C1546 C 1.02176 0.82884 0.21868 0.0
C1547 C 1.04788 0.83847 0.20106 0.0
C1548 C 0.59877 0.45532 0.17529 0.0
C1549 C 0.60213 0.42336 0.16248 0.0
C1550 C 0.6004 0.48521 0.15789 0.0
C1551 C 0.60579 0.48615 0.12602 0.0
H1552 H 0.59442 0.45735 0.19926 0.0
H1553 H 0.59719 0.50797 0.16979 0.0
S1554 S 0.61642 0.41006 0.08019 0.0
N1555 N 0.61125 0.39599 0.11463 0.0
N1556 N 0.61445 0.45016 0.08307 0.0
C1557 C 0.60937 0.45438 0.1131 0.0
C1558 C 0.60754 0.42403 0.13073 0.0
C1559 C 0.97815 0.30652 0.39562 0.0
C1560 C 1.00846 0.32537 0.38845 0.0
C1561 C 0.94896 0.30949 0.3809 0.0
C1562 C 0.94665 0.33264 0.358 0.0
H1563 H 0.9768 0.28911 0.41365 0.0
H1564 H 0.92764 0.29368 0.38839 0.0
S1565 S 1.01789 0.39015 0.33009 0.0
N1566 N 1.03281 0.36922 0.35576 0.0
N1567 N 0.97963 0.37538 0.32928 0.0
C1568 C 0.97676 0.35188 0.3505 0.0
C1569 C 1.00666 0.34828 0.36518 0.0
C1570 C 0.08965 0.70381 0.66033 0.0
C1571 C 0.08371 0.73245 0.64603 0.0
C1572 C 0.0893 0.67174 0.64323 0.0
C1573 C 0.0836 0.66578 0.61032 0.0
H1574 H 0.09611 0.70659 0.68495 0.0
H1575 H 0.09477 0.65179 0.65607 0.0
S1576 S 0.06586 0.73126 0.56094 0.0
N1577 N 0.07109 0.75076 0.596 0.0
N1578 N 0.07078 0.69285 0.56503 0.0
C1579 C 0.07709 0.694 0.59607 0.0
C1580 C 0.07716 0.72621 0.61335 0.0
C1581 C 0.69777 0.80357 0.85518 0.0
C1582 C 0.69652 0.82311 0.88345 0.0
C1583 C 0.72642 0.80308 0.84121 0.0
C1584 C 0.75737 0.82296 0.85317 0.0
H1585 H 0.67598 0.78763 0.84351 0.0
H1586 H 0.724 0.78671 0.82015 0.0
S1587 S 0.76991 0.87946 0.9267 0.0
N1588 N 0.73168 0.86303 0.92263 0.0
N1589 N 0.78317 0.8632 0.89678 0.0
C1590 C 0.75646 0.84291 0.88125 0.0
C1591 C 0.72734 0.84271 0.89593 0.0
C1592 C 0.50792 0.59158 0.66345 0.0
C1593 C 0.52123 0.61416 0.68955 0.0
C1594 C 0.52449 0.59119 0.63768 0.0
C1595 C 0.55454 0.61371 0.63725 0.0
H1596 H 0.48685 0.57096 0.66459 0.0
H1597 H 0.51485 0.57115 0.61924 0.0
S1598 S 0.59442 0.68482 0.6964 0.0
N1599 N 0.56217 0.66454 0.71091 0.0
N1600 N 0.59324 0.66465 0.66216 0.0
C1601 C 0.56548 0.64019 0.66108 0.0
C1602 C 0.54862 0.64036 0.68733 0.0
C1603 C 0.79302 0.23529 0.03137 0.0
C1604 C 0.80254 0.20509 0.0292 0.0
C1605 C 0.78427 0.2495 1.00495 0.0
C1606 C 0.78499 0.23417 0.97539 0.0
H1607 H 0.79343 0.24883 0.0536 0.0
H1608 H 0.77875 0.27381 1.00777 0.0
S1609 S 0.80554 0.15301 0.9574 0.0
N1610 N 0.80995 0.15875 0.99539 0.0
N1611 N 0.79371 0.18564 0.94556 0.0
C1612 C 0.79286 0.2029 0.97297 0.0
C1613 C 0.8015 0.18825 0.99993 0.0
C1614 C 0.19657 0.57717 0.17009 0.0
C1615 C 0.18419 0.5813 0.19813 0.0
C1616 C 0.17671 0.56513 0.14305 0.0
C1617 C 0.14426 0.55729 0.14379 0.0
H1618 H 0.2213 0.5872 0.1683 0.0
H1619 H 0.18685 0.56637 0.12128 0.0
S1620 S 0.10141 0.55193 0.21315 0.0
N1621 N 0.13842 0.5677 0.22642 0.0
N1622 N 0.101 0.5452 0.17543 0.0
C1623 C 0.13202 0.55542 0.17237 0.0
C1624 C 0.15214 0.56755 0.19976 0.0
C1625 C 0.86524 0.83963 0.47032 0.0
C1626 C 0.86595 0.87334 0.48158 0.0
C1627 C 0.86424 0.83003 0.43811 0.0
C1628 C 0.86357 0.85351 0.4154 0.0
H1629 H 0.86516 0.82035 0.48644 0.0
H1630 H 0.86324 0.8037 0.43095 0.0
S1631 S 0.86681 0.94546 0.4321 0.0
N1632 N 0.86737 0.93055 0.46638 0.0
N1633 N 0.86505 0.91256 0.40731 0.0
C1634 C 0.86479 0.88729 0.42648 0.0
C1635 C 0.86611 0.89712 0.45897 0.0
C1636 C 0.55857 0.56497 0.8347 0.0
C1637 C 0.52634 0.55773 0.83691 0.0
C1638 C 0.57784 0.55464 0.85638 0.0
C1639 C 0.56562 0.53667 0.88108 0.0
H1640 H 0.56926 0.57936 0.81638 0.0
H1641 H 0.60264 0.56157 0.85429 0.0
S1642 S 0.48267 0.50955 0.89652 0.0
N1643 N 0.48276 0.52987 0.86485 0.0
N1644 N 0.5193 0.5109 0.90624 0.0
C1645 C 0.53332 0.52816 0.88311 0.0
C1646 C 0.51359 0.5387 0.86092 0.0
C1647 C 0.85879 0.23028 0.20844 0.0
C1648 C 0.87131 0.24788 0.18361 0.0
C1649 C 0.86056 0.24793 0.23736 0.0
C1650 C 0.87523 0.28352 0.24229 0.0
H1651 H 0.84453 0.20382 0.20468 0.0
H1652 H 0.84832 0.23413 0.25522 0.0
S1653 S 0.91836 0.33873 0.18622 0.0
N1654 N 0.9035 0.30076 0.16684 0.0
N1655 N 0.90775 0.33397 0.22142 0.0
C1656 C 0.89154 0.30013 0.21871 0.0
C1657 C 0.88934 0.28222 0.18923 0.0
C1658 C 0.21185 0.68443 0.33743 0.0
C1659 C 0.23817 0.67199 0.33749 0.0
C1660 C 0.19466 0.68222 0.36297 0.0
C1661 C 0.20301 0.66695 0.38909 0.0
H1662 H 0.2033 0.69379 0.31674 0.0
H1663 H 0.17355 0.69033 0.36142 0.0
S1664 S 0.27234 0.63496 0.40246 0.0
N1665 N 0.27392 0.64783 0.36732 0.0
N1666 N 0.2411 0.64296 0.41509 0.0
C1667 C 0.23063 0.65699 0.39041 0.0
C1668 C 0.24847 0.65983 0.36466 0.0
C1669 C 0.83156 0.84661 0.66792 0.0
C1670 C 0.86184 0.86002 0.65878 0.0
C1671 C 0.82626 0.84023 0.69917 0.0
C1672 C 0.85079 0.84823 0.7233 0.0
H1673 H 0.81179 0.84002 0.6506 0.0
H1674 H 0.80263 0.82896 0.70446 0.0
S1675 S 0.93445 0.88443 0.71215 0.0
N1676 N 0.91664 0.88068 0.67702 0.0
N1677 N 0.90678 0.87076 0.73499 0.0
C1678 C 0.88103 0.8624 0.71442 0.0
C1679 C 0.88648 0.86773 0.68259 0.0
C1680 C 0.82244 0.56811 0.57859 0.0
C1681 C 0.80532 0.53631 0.56307 0.0
C1682 C 0.80777 0.58891 0.59492 0.0
C1683 C 0.77546 0.57862 0.59643 0.0
H1684 H 0.84743 0.5772 0.57801 0.0
H1685 H 0.82176 0.61341 0.60614 0.0
S1686 S 0.71977 0.49851 0.55869 0.0
N1687 N 0.75417 0.49586 0.54983 0.0
N1688 N 0.72651 0.53511 0.58021 0.0
C1689 C 0.75804 0.54677 0.58123 0.0
C1690 C 0.77299 0.52557 0.56462 0.0
C1691 C 0.24014 0.17237 0.5634 0.0
C1692 C 0.23667 0.20586 0.56136 0.0
C1693 C 0.21529 0.14439 0.5694 0.0
C1694 C 0.18596 0.14869 0.57422 0.0
H1695 H 0.26235 0.16759 0.56042 0.0
H1696 H 0.21918 0.11926 0.57045 0.0
S1697 S 0.16363 0.23035 0.56929 0.0
N1698 N 0.20074 0.24095 0.5632 0.0
N1699 N 0.15442 0.18903 0.57475 0.0
C1700 C 0.18203 0.18195 0.57184 0.0
C1701 C 0.20718 0.21028 0.56533 0.0
C1702 C 0.30514 0.06227 0.8272 0.0
C1703 C 0.27905 0.04322 0.8407 0.0
C1704 C 0.32297 0.04587 0.81022 0.0
C1705 C 0.31539 1.00982 0.80618 0.0
H1706 H 0.31195 0.09013 0.82985 0.0
H1707 H 0.34305 0.06149 0.80049 0.0
S1708 S 0.25068 0.94817 0.83869 0.0
N1709 N 0.24708 0.98643 0.84971 0.0
N1710 N 0.28093 0.9555 0.81831 0.0
C1711 C 0.28932 0.99044 0.81954 0.0
C1712 C 0.27107 1.00717 0.83669 0.0
C1713 C 0.46861 0.99952 0.98014 0.0
C1714 C 0.44432 1.01234 0.98957 0.0
C1715 C 0.49979 1.01732 0.98928 0.0
C1716 C 0.50744 0.04821 1.00822 0.0
H1717 H 0.46356 0.97427 0.96795 0.0
H1718 H 0.51774 1.00528 0.98392 0.0
S1719 S 0.45387 0.09693 0.03322 0.0
N1720 N 0.43104 0.06177 1.01376 0.0
N1721 N 0.48964 0.09378 0.03202 0.0
C1722 C 0.48397 0.06321 1.01491 0.0
C1723 C 0.45232 0.0457 1.00507 0.0
C1724 C 0.90325 0.63041 0.81925 0.0
C1725 C 0.93424 0.63491 0.81322 0.0
C1726 C 0.88189 0.63794 0.79806 0.0
C1727 C 0.89034 0.65006 0.76952 0.0
H1728 H 0.89531 0.62113 0.8408 0.0
H1729 H 0.8587 0.63528 0.80482 0.0
S1730 S 0.9687 0.66511 0.74201 0.0
N1731 N 0.97269 0.65152 0.77663 0.0
N1732 N 0.93204 0.66577 0.73612 0.0
C1733 C 0.92137 0.65462 0.76299 0.0
C1734 C 0.94343 0.64704 0.78497 0.0
C1735 C 0.93162 0.72025 0.06951 0.0
C1736 C 0.9048 0.71562 0.08508 0.0
C1737 C 0.95278 0.70121 0.07614 0.0
C1738 C 0.94786 0.67743 0.09878 0.0
H1739 H 0.93526 0.73693 0.05086 0.0
H1740 H 0.97248 0.70412 0.06269 0.0
S1741 S 0.88304 0.65962 0.1486 0.0
N1742 N 0.87604 0.68854 0.12618 0.0
N1743 N 0.91552 0.65257 0.13837 0.0
C1744 C 0.92223 0.67453 0.11591 0.0
C1745 C 0.90074 0.69371 0.1091 0.0
C1746 C 0.24738 0.22196 0.88136 0.0
C1747 C 0.25938 0.19572 0.89223 0.0
C1748 C 0.26487 0.24746 0.86456 0.0
C1749 C 0.29508 0.24776 0.85786 0.0
H1750 H 0.22378 0.22216 0.88473 0.0
H1751 H 0.25429 0.26664 0.85618 0.0
S1752 S 0.33927 0.18818 0.88496 0.0
N1753 N 0.30488 0.174 0.89789 0.0
N1754 N 0.33763 0.22193 0.8663 0.0
C1755 C 0.30807 0.22287 0.86997 0.0
C1756 C 0.29033 0.19698 0.88727 0.0
C1757 C 0.43886 0.96454 0.42098 0.0
C1758 C 0.4395 0.99881 0.41635 0.0
C1759 C 0.41231 0.93727 0.41107 0.0
C1760 C 0.38588 0.94351 0.39583 0.0
H1761 H 0.45984 0.95839 0.4295 0.0
H1762 H 0.41387 0.91119 0.4122 0.0
S1763 S 0.37237 1.02826 0.38554 0.0
N1764 N 0.40833 0.03739 0.40209 0.0
N1765 N 0.35948 0.98588 0.38193 0.0
C1766 C 0.38468 0.97752 0.39488 0.0
C1767 C 0.41126 1.00531 0.40566 0.0
C1768 C 0.65383 0.48101 0.6549 0.0
C1769 C 0.65422 0.451 0.63688 0.0
C1770 C 0.64542 0.50876 0.6418 0.0
C1771 C 0.63627 0.50778 0.61 0.0
H1772 H 0.65968 0.48299 0.6796 0.0
H1773 H 0.64531 0.53082 0.65698 0.0
S1774 S 0.63522 0.4365 0.55188 0.0
N1775 N 0.64632 0.42336 0.58482 0.0
N1776 N 0.63005 0.4746 0.56053 0.0
C1777 C 0.63733 0.47832 0.59157 0.0
C1778 C 0.6464 0.45032 0.60484 0.0
C1779 C 0.47372 0.83679 0.40951 0.0
C1780 C 0.46414 0.82211 0.43687 0.0
C1781 C 0.45242 0.84388 0.38713 0.0
C1782 C 0.42031 0.83572 0.39051 0.0
H1783 H 0.49817 0.84416 0.40583 0.0
H1784 H 0.46128 0.85614 0.36704 0.0
S1785 S 0.38257 0.79535 0.45704 0.0
N1786 N 0.41991 0.79899 0.46562 0.0
N1787 N 0.37989 0.81102 0.42319 0.0
C1788 C 0.41019 0.81993 0.41724 0.0
C1789 C 0.43203 0.81351 0.44046 0.0
C1790 C 0.12198 0.7425 0.12822 0.0
C1791 C 0.15076 0.76456 0.12209 0.0
C1792 C 0.1127 0.70715 0.11779 0.0
C1793 C 0.13199 0.69181 0.10123 0.0
H1794 H 0.10605 0.75278 0.14058 0.0
H1795 H 0.09012 0.69168 0.12285 0.0
S1796 S 0.21048 0.73767 0.08037 0.0
N1797 N 0.1989 0.76788 0.09891 0.0
N1798 N 0.18189 0.70191 0.08004 0.0
C1799 C 0.16116 0.71344 0.0956 0.0
C1800 C 0.17038 0.74953 0.10577 0.0
C1801 C 0.13685 0.31427 0.91495 0.0
C1802 C 0.13241 0.33893 0.93677 0.0
C1803 C 0.16221 0.32213 0.89725 0.0
C1804 C 0.18333 0.35517 0.90021 0.0
H1805 H 0.12055 0.28882 0.91149 0.0
H1806 H 0.16497 0.30252 0.88063 0.0
S1807 S 0.1813 0.42913 0.95308 0.0
N1808 N 0.15107 0.3977 0.96025 0.0
N1809 N 0.1982 0.41269 0.92612 0.0
C1810 C 0.17914 0.38004 0.92183 0.0
C1811 C 0.15379 0.37183 0.94039 0.0
C1812 C 0.5797 0.71525 1.00611 0.0
C1813 C 0.59451 0.72473 0.97868 0.0
C1814 C 0.57941 0.68457 0.02128 0.0
C1815 C 0.59382 0.65942 1.01085 0.0
H1816 H 0.56785 0.73217 1.01675 0.0
H1817 H 0.56761 0.68078 0.04203 0.0
S1818 S 0.63635 0.66864 0.94004 0.0
N1819 N 0.62438 0.70375 0.94195 0.0
N1820 N 0.62387 0.6472 0.96976 0.0
C1821 C 0.60875 0.668 0.98328 0.0
C1822 C 0.60909 0.69974 0.96764 0.0
C1823 C 0.22546 0.85842 0.73206 0.0
C1824 C 0.195 0.84277 0.74109 0.0
C1825 C 0.25451 0.85651 0.74787 0.0
C1826 C 0.25671 0.83824 0.77449 0.0
H1827 H 0.22718 0.87257 0.71172 0.0
H1828 H 0.27584 0.86948 0.73849 0.0
S1829 S 0.18527 0.7918 0.80989 0.0
N1830 N 0.17048 0.80793 0.78038 0.0
N1831 N 0.2235 0.80407 0.80926 0.0
C1832 C 0.22652 0.82258 0.78426 0.0
C1833 C 0.19665 0.82484 0.76813 0.0
C1834 C 0.10058 0.41914 0.49481 0.0
C1835 C 0.1123 0.41839 0.46545 0.0
C1836 C 0.09839 0.45015 0.51141 0.0
C1837 C 0.10806 0.48359 0.5005 0.0
H1838 H 0.09271 0.39516 0.50532 0.0
H1839 H 0.08893 0.44766 0.53348 0.0
S1840 S 0.14075 0.49787 0.42485 0.0
N1841 N 0.13368 0.45584 0.42642 0.0
N1842 N 0.13009 0.5127 0.45705 0.0
C1843 C 0.11995 0.48332 0.47117 0.0
C1844 C 0.1219 0.45157 0.45405 0.0
C1845 C 0.4725 0.31125 0.23283 0.0
C1846 C 0.50361 0.32323 0.248 0.0
C1847 C 0.44406 0.30991 0.2478 0.0
C1848 C 0.44334 0.3216 0.27945 0.0
H1849 H 0.46981 0.30221 0.20868 0.0
H1850 H 0.42203 0.29997 0.23381 0.0
S1851 S 0.51727 0.35655 0.33117 0.0
N1852 N 0.53013 0.34696 0.2983 0.0
N1853 N 0.47893 0.34625 0.32485 0.0
C1854 C 0.47428 0.33408 0.29474 0.0
C1855 C 0.50317 0.3344 0.27977 0.0
C1856 C 0.66268 0.54575 0.45115 0.0
C1857 C 0.69513 0.55937 0.45288 0.0
C1858 C 0.6463 0.54979 0.47627 0.0
C1859 C 0.66178 0.5677 0.50411 0.0
H1860 H 0.64957 0.53397 0.42948 0.0
H1861 H 0.62115 0.54023 0.47321 0.0
S1862 S 0.74738 0.60322 0.52179 0.0
N1863 N 0.74276 0.58752 0.48543 0.0
N1864 N 0.71206 0.59511 0.53321 0.0
C1865 C 0.69462 0.57853 0.5071 0.0
C1866 C 0.71133 0.57429 0.48131 0.0
C1867 C 0.39992 0.9829 0.11912 0.0
C1868 C 0.39155 0.95181 0.10013 0.0
C1869 C 0.41086 0.98411 0.15018 0.0
C1870 C 0.41388 0.95433 0.16337 0.0
H1871 H 0.39809 1.00659 0.10999 0.0
H1872 H 0.41683 1.00849 0.16404 0.0
S1873 S 0.39357 0.86618 0.12449 0.0
N1874 N 0.38628 0.89027 0.0973 0.0
N1875 N 0.40656 0.8927 0.1558 0.0
C1876 C 0.40561 0.9231 0.14481 0.0
C1877 C 0.3945 0.9218 0.11318 0.0
C1878 C 1.01797 0.63038 0.96439 0.0
C1879 C 1.03326 0.6355 0.93752 0.0
C1880 C 1.03365 0.62521 0.99188 0.0
C1881 C 0.06513 0.62521 0.99342 0.0
H1882 H 0.99321 0.62756 0.96365 0.0
H1883 H 1.0205 0.61943 1.0116 0.0
S1884 S 0.11675 0.64397 0.93052 0.0
N1885 N 0.0824 0.64518 0.91496 0.0
N1886 N 0.11199 0.63558 0.96662 0.0
C1887 C 0.08138 0.63373 0.96744 0.0
C1888 C 0.06536 0.63884 0.93946 0.0
C1889 C 0.3557 0.2918 0.67161 0.0
C1890 C 0.33233 0.30108 0.65326 0.0
C1891 C 0.35899 0.29689 0.70442 0.0
C1892 C 0.3387 0.31089 0.72093 0.0
H1893 H 0.37187 0.28068 0.66054 0.0
H1894 H 0.37757 0.28945 0.71697 0.0
S1895 S 0.27309 0.3391 0.68446 0.0
N1896 N 0.28837 0.32507 0.65494 0.0
N1897 N 0.29415 0.33391 0.71553 0.0
C1898 C 0.31512 0.32003 0.70283 0.0
C1899 C 0.31207 0.31534 0.66952 0.0
C1900 C 0.6639 0.65638 0.31123 0.0
C1901 C 0.68181 0.63289 0.31296 0.0
C1902 C 0.65082 0.66274 0.28292 0.0
C1903 C 0.65519 0.6458 0.2554 0.0
H1904 H 0.65887 0.66891 0.33202 0.0
H1905 H 0.636 0.6798 0.28266 0.0
S1906 S 0.70247 0.58426 0.24731 0.0
N1907 N 0.70545 0.59483 0.28475 0.0
N1908 N 0.68039 0.60635 0.23128 0.0
C1909 C 0.67481 0.62403 0.2566 0.0
C1910 C 0.6883 0.61771 0.28551 0.0
C1911 C 0.31905 0.89953 0.94402 0.0
C1912 C 0.32593 0.93551 0.94471 0.0
C1913 C 0.32147 0.87973 0.91756 0.0
C1914 C 0.33106 0.89507 0.8906 0.0
H1915 H 0.3129 0.88654 0.96458 0.0
H1916 H 0.31678 0.8522 0.91875 0.0
S1917 S 0.34898 0.98839 0.87957 0.0
N1918 N 0.3404 0.98572 0.91558 0.0
N1919 N 0.34507 0.94857 0.8655 0.0
C1920 C 0.33619 0.93098 0.89032 0.0
C1921 C 0.33357 0.95119 0.91745 0.0
C1922 C 0.98282 0.53479 0.77337 0.0
C1923 C 1.00988 0.5424 0.79431 0.0
C1924 C 0.98347 0.52422 0.74237 0.0
C1925 C 1.01092 0.52018 0.73163 0.0
H1926 H 0.96113 0.53764 0.78077 0.0
H1927 H 0.96263 0.5197 0.72665 0.0
S1928 S 0.08837 0.53873 0.77579 0.0
N1929 N 0.06527 0.54653 0.80116 0.0
N1930 N 0.06595 0.52594 0.74311 0.0
C1931 C 1.03799 0.52749 0.75209 0.0
C1932 C 1.03757 0.53864 0.78344 0.0
C1933 C 0.3543 0.3128 0.46746 0.0
C1934 C 0.33756 0.27974 0.47494 0.0
C1935 C 0.36016 0.32009 0.43645 0.0
C1936 C 0.34926 0.29489 0.41108 0.0
H1937 H 0.36357 0.33309 0.48576 0.0
H1938 H 0.37307 0.34592 0.43234 0.0
S1939 S 0.30347 0.20445 0.41765 0.0
N1940 N 0.30991 0.22181 0.45355 0.0
N1941 N 0.32027 0.23535 0.39649 0.0
C1942 C 0.33217 0.26198 0.41839 0.0
C1943 C 0.32656 0.25451 0.44976 0.0
C1944 C 0.4264 0.63481 0.58332 0.0
C1945 C 0.3986 0.6208 0.59655 0.0
C1946 C 0.44331 0.61371 0.57125 0.0
C1947 C 0.43312 0.57778 0.57196 0.0
H1948 H 0.43471 0.66222 0.58126 0.0
H1949 H 0.4644 0.62562 0.56094 0.0
S1950 S 0.36334 0.52825 0.6062 0.0
N1951 N 0.36277 0.56871 0.6115 0.0
N1952 N 0.39467 0.52909 0.58846 0.0
C1953 C 0.40625 0.56346 0.5864 0.0
C1954 C 0.38896 0.58496 0.59878 0.0
C1955 C 0.9835 0.94642 0.54377 0.0
C1956 C 0.9575 0.95146 0.55752 0.0
C1957 C 1.00944 0.97418 0.53996 0.0
C1958 C 1.01073 1.00837 0.54975 0.0
H1959 H 0.98413 0.92072 0.5363 0.0
H1960 H 1.0292 0.96847 0.5304 0.0
S1961 S 0.94754 0.03627 0.58419 0.0
N1962 N 0.9339 0.99402 0.57876 0.0
N1963 N 0.98241 0.04577 0.57172 0.0
C1964 C 0.98433 1.01395 0.56231 0.0
C1965 C 0.95791 0.98569 0.56616 0.0
C1966 C 0.93292 0.13563 0.31713 0.0
C1967 C 0.92318 0.11097 0.2917 0.0
C1968 C 0.91268 0.15286 0.32864 0.0
C1969 C 0.88197 0.14607 0.31519 0.0
H1970 H 0.95645 0.14195 0.32823 0.0
H1971 H 0.92139 0.17249 0.34764 0.0
S1972 S 0.84464 0.08395 0.2485 0.0
N1973 N 0.88037 0.08021 0.25373 0.0
N1974 N 0.84241 0.11327 0.27547 0.0
C1975 C 0.87155 0.12105 0.29027 0.0
C1976 C 0.89218 0.10336 0.27845 0.0
C1977 C 0.71417 0.15036 0.12711 0.0
C1978 C 0.7397 0.14277 0.11466 0.0
C1979 C 0.68431 0.12741 0.12146 0.0
C1980 C 0.67914 0.09673 0.10256 0.0
H1981 H 0.71701 0.17496 0.13984 0.0
H1982 H 0.66486 0.13521 0.12959 0.0
S1983 S 0.73848 0.0634 0.06707 0.0
N1984 N 0.75827 0.10079 0.08521 0.0
N1985 N 0.70189 0.05834 0.07384 0.0
C1986 C 0.70471 0.08773 0.09188 0.0
C1987 C 0.73514 0.11064 0.09814 0.0
C1988 C 0.31939 0.56411 0.28047 0.0
C1989 C 0.28815 0.5611 0.2852 0.0
C1990 C 0.33477 0.54175 0.29295 0.0
C1991 C 0.31933 0.51548 0.31027 0.0
H1992 H 0.3324 0.58438 0.26765 0.0
H1993 H 0.35883 0.54483 0.2888 0.0
S1994 S 0.23737 0.49558 0.32843 0.0
N1995 N 0.24203 0.52908 0.30774 0.0
N1996 N 0.27124 0.48682 0.33118 0.0
C1997 C 0.28798 0.51158 0.3147 0.0
C1998 C 0.27228 0.53447 0.30212 0.0
C1999 C 0.30315 0.48482 0.07881 0.0
C2000 C 0.29501 0.44977 0.06811 0.0
C2001 C 0.28348 0.5054 0.07193 0.0
C2002 C 0.25471 0.49184 0.05414 0.0
H2003 H 0.32544 0.49692 0.09183 0.0
H2004 H 0.29109 0.53235 0.08029 0.0
S2005 S 0.22123 0.40112 0.02222 0.0
N2006 N 0.25522 0.40191 0.04017 0.0
N2007 N 0.21824 0.44072 0.02722 0.0
C2008 C 0.24554 0.45649 0.04444 0.0
C2009 C 0.26567 0.43544 0.05142 0.0
C2010 C 0.92621 0.95764 0.25999 0.0
C2011 C 0.9578 0.95811 0.26142 0.0
C2012 C 0.90417 0.93135 0.27179 0.0
C2013 C 0.9128 0.90447 0.28546 0.0
H2014 H 0.91851 0.97857 0.25102 0.0
H2015 H 0.8804 0.93281 0.27107 0.0
S2016 S 0.99129 0.89022 0.28992 0.0
N2017 N 0.99581 0.92701 0.2741 0.0
N2018 N 0.95424 0.87729 0.29609 0.0
C2019 C 0.94385 0.90326 0.28516 0.0
C2020 C 0.96636 0.93009 0.2731 0.0
C2021 C 0.77951 0.25775 0.7552 0.0
C2022 C 0.78633 0.22622 0.75812 0.0
C2023 C 0.80251 0.28882 0.76313 0.0
C2024 C 0.83267 0.28903 0.77455 0.0
H2025 H 0.75576 0.25843 0.74954 0.0
H2026 H 0.79569 0.31249 0.76386 0.0
S2027 S 0.86403 0.21428 0.78074 0.0
N2028 N 0.82703 0.19758 0.7679 0.0
N2029 N 0.86962 0.25634 0.7841 0.0
C2030 C 0.84074 0.25818 0.77404 0.0
C2031 C 0.81762 0.22653 0.76537 0.0
loop_
_geom_bond_atom_site_label_1
_geom_bond_atom_site_label_2
_geom_bond_distance
_geom_bond_site_symmetry_2
_ccdc_geom_bond_type
Co0 O1 2.216 . S
Co0 O2 2.091 . S
Co0 O4 2.004 . S
Co0 O10 2.021 . S
Co0 O12 2.137 . S
Co0 O13 2.244 . S
O1 Co0 2.216 . S
O1 C8 1.247 . S
O2 Co0 2.091 . S
O2 C8 1.261 . S
C3 O12 1.247 . S
C3 O13 1.272 . S
O4 Co0 2.004 . S
O4 C9 1.259 1_455 S
Co5 O6 2.061 1_455 S
Co5 O11 2.052 . S
Co5 O13 2.135 . S
O6 Co5 2.061 1_655 S
O6 C9 1.235 . S
C7 O10 1.238 . S
C7 O11 1.241 . S
C8 O1 1.247 . S
C8 O2 1.261 . S
C9 O4 1.259 1_655 S
C9 O6 1.235 . S
O10 Co0 2.021 . S
O10 C7 1.238 . S
O11 Co5 2.052 . S
O11 C7 1.241 . S
O12 Co0 2.137 . S
O12 C3 1.247 . S
O13 Co0 2.244 . S
O13 C3 1.272 . S
O13 Co5 2.135 . S
Co14 O15 2.216 . S
Co14 O16 2.091 . S
Co14 O18 2.004 . S
Co14 O24 2.021 . S
Co14 O26 2.137 . S
Co14 O27 2.244 . S
O15 Co14 2.216 . S
O15 C22 1.252 . S
O16 Co14 2.091 . S
O16 C22 1.288 . S
C17 O26 1.247 . S
C17 O27 1.272 . S
O18 Co14 2.004 . S
O18 C23 1.259 . S
Co19 O20 2.061 . S
Co19 O25 2.052 . S
Co19 O27 2.135 . S
O20 Co19 2.061 . S
O20 C23 1.235 . S
C21 O24 1.238 . S
C21 O25 1.241 . S
C22 O15 1.252 . S
C22 O16 1.288 . S
C23 O18 1.259 . S
C23 O20 1.235 . S
O24 Co14 2.021 . S
O24 C21 1.238 . S
O25 Co19 2.052 . S
O25 C21 1.241 . S
O26 Co14 2.137 . S
O26 C17 1.247 . S
O27 Co14 2.244 . S
O27 C17 1.272 . S
O27 Co19 2.135 . S
Co28 O29 2.216 . S
Co28 O30 2.091 . S
Co28 O32 2.004 . S
Co28 O38 2.021 . S
Co28 O40 2.137 . S
Co28 O41 2.244 . S
O29 Co28 2.216 . S
O29 C36 1.247 . S
O30 Co28 2.091 . S
O30 C36 1.261 . S
C31 O40 1.247 . S
C31 O41 1.272 . S
O32 Co28 2.004 . S
O32 C37 1.259 . S
Co33 O34 2.061 . S
Co33 O39 2.052 . S
Co33 O41 2.135 . S
O34 Co33 2.061 . S
O34 C37 1.235 . S
C35 O38 1.238 . S
C35 O39 1.241 . S
C36 O29 1.247 . S
C36 O30 1.261 . S
C37 O32 1.259 . S
C37 O34 1.235 . S
O38 Co28 2.021 . S
O38 C35 1.238 . S
O39 Co33 2.052 . S
O39 C35 1.241 . S
O40 Co28 2.137 . S
O40 C31 1.247 . S
O41 Co28 2.244 . S
O41 C31 1.272 . S
O41 Co33 2.135 . S
Co42 O43 2.216 . S
Co42 O44 2.091 . S
Co42 O46 2.004 . S
Co42 O52 2.021 . S
Co42 O54 2.137 . S
Co42 O55 2.244 . S
O43 Co42 2.216 . S
O43 C50 1.247 . S
O44 Co42 2.091 . S
O44 C50 1.261 . S
C45 O54 1.247 . S
C45 O55 1.272 . S
O46 Co42 2.004 . S
O46 C51 1.259 . S
Co47 O48 2.061 . S
Co47 O53 2.052 . S
Co47 O55 2.135 . S
O48 Co47 2.061 . S
O48 C51 1.235 . S
C49 O52 1.238 . S
C49 O53 1.241 . S
C50 O43 1.247 . S
C50 O44 1.261 . S
C51 O46 1.259 . S
C51 O48 1.235 . S
O52 Co42 2.021 . S
O52 C49 1.238 . S
O53 Co47 2.052 . S
O53 C49 1.241 . S
O54 Co42 2.137 . S
O54 C45 1.247 . S
O55 Co42 2.244 . S
O55 C45 1.272 . S
O55 Co47 2.135 . S
Co56 O57 2.216 . S
Co56 O58 2.091 . S
Co56 O60 2.004 . S
Co56 O66 2.021 . S
Co56 O68 2.137 . S
Co56 O69 2.244 . S
O57 Co56 2.216 . S
O57 C64 1.247 . S
O58 Co56 2.091 . S
O58 C64 1.261 . S
C59 O68 1.247 . S
C59 O69 1.272 . S
O60 Co56 2.004 . S
O60 C65 1.259 . S
Co61 O62 2.061 . S
Co61 O67 2.052 . S
Co61 O69 2.135 . S
O62 Co61 2.061 . S
O62 C65 1.235 . S
C63 O66 1.238 . S
C63 O67 1.241 . S
C64 O57 1.247 . S
C64 O58 1.261 . S
C65 O60 1.259 . S
C65 O62 1.235 . S
O66 Co56 2.021 . S
O66 C63 1.238 . S
O67 Co61 2.052 . S
O67 C63 1.241 . S
O68 Co56 2.137 . S
O68 C59 1.247 . S
O69 Co56 2.244 . S
O69 C59 1.272 . S
O69 Co61 2.135 . S
Co70 O71 2.216 . S
Co70 O72 2.091 . S
Co70 O74 2.004 . S
Co70 O80 2.021 . S
Co70 O82 2.137 . S
Co70 O83 2.244 . S
O71 Co70 2.216 . S
O71 C78 1.247 . S
O72 Co70 2.091 . S
O72 C78 1.261 . S
C73 O82 1.247 . S
C73 O83 1.272 . S
O74 Co70 2.004 . S
O74 C79 1.259 . S
Co75 O76 2.061 . S
Co75 O81 2.052 . S
Co75 O83 2.135 . S
O76 Co75 2.061 . S
O76 C79 1.235 . S
C77 O80 1.238 . S
C77 O81 1.241 . S
C78 O71 1.247 . S
C78 O72 1.261 . S
C79 O74 1.259 . S
C79 O76 1.235 . S
O80 Co70 2.021 . S
O80 C77 1.238 . S
O81 Co75 2.052 . S
O81 C77 1.241 . S
O82 Co70 2.137 . S
O82 C73 1.247 . S
O83 Co70 2.244 . S
O83 C73 1.272 . S
O83 Co75 2.135 . S
Co84 O85 2.216 . S
Co84 O86 2.091 . S
Co84 O88 2.004 . S
Co84 O94 2.021 . S
Co84 O96 2.137 . S
Co84 O97 2.244 . S
O85 Co84 2.216 . S
O85 C92 1.247 . S
O86 Co84 2.091 . S
O86 C92 1.261 . S
C87 O96 1.247 . S
C87 O97 1.272 . S
O88 Co84 2.004 . S
O88 C93 1.259 . S
Co89 O90 2.061 . S
Co89 O95 2.052 . S
Co89 O97 2.135 . S
O90 Co89 2.061 . S
O90 C93 1.235 . S
C91 O94 1.238 . S
C91 O95 1.241 . S
C92 O85 1.247 . S
C92 O86 1.261 . S
C93 O88 1.259 . S
C93 O90 1.235 . S
O94 Co84 2.021 . S
O94 C91 1.238 . S
O95 Co89 2.052 . S
O95 C91 1.241 . S
O96 Co84 2.137 . S
O96 C87 1.247 . S
O97 Co84 2.244 . S
O97 C87 1.272 . S
O97 Co89 2.135 . S
Co98 O99 2.216 . S
Co98 O100 2.091 . S
Co98 O102 2.004 1_455 S
Co98 O108 2.021 1_455 S
Co98 O110 2.137 . S
Co98 O111 2.244 1_455 S
O99 Co98 2.216 . S
O99 C106 1.247 . S
O100 Co98 2.091 . S
O100 C106 1.261 . S
C101 O110 1.247 . S
C101 O111 1.272 1_455 S
O102 Co98 2.004 1_655 S
O102 C107 1.259 . S
Co103 O104 2.061 . S
Co103 O109 2.052 . S
Co103 O111 2.135 . S
O104 Co103 2.061 . S
O104 C107 1.235 . S
C105 O108 1.238 . S
C105 O109 1.241 . S
C106 O99 1.247 . S
C106 O100 1.261 . S
C107 O102 1.259 . S
C107 O104 1.235 . S
O108 Co98 2.021 1_655 S
O108 C105 1.238 . S
O109 Co103 2.052 . S
O109 C105 1.241 . S
O110 Co98 2.137 . S
O110 C101 1.247 . S
O111 Co98 2.244 1_655 S
O111 C101 1.272 1_655 S
O111 Co103 2.135 . S
Co112 O113 2.216 . S
Co112 O114 2.091 . S
Co112 O116 2.004 1_545 S
Co112 O122 2.021 . S
Co112 O124 2.137 . S
Co112 O125 2.244 . S
O113 Co112 2.216 . S
O113 C120 1.247 . S
O114 Co112 2.091 . S
O114 C120 1.261 . S
C115 O124 1.247 . S
C115 O125 1.272 . S
O116 Co112 2.004 1_565 S
O116 C121 1.259 . S
Co117 O118 2.061 . S
Co117 O123 2.052 1_565 S
Co117 O125 2.135 1_565 S
O118 Co117 2.061 . S
O118 C121 1.235 . S
C119 O122 1.238 . S
C119 O123 1.241 . S
C120 O113 1.247 . S
C120 O114 1.261 . S
C121 O116 1.259 . S
C121 O118 1.235 . S
O122 Co112 2.021 . S
O122 C119 1.238 . S
O123 Co117 2.052 1_545 S
O123 C119 1.241 . S
O124 Co112 2.137 . S
O124 C115 1.247 . S
O125 Co112 2.244 . S
O125 C115 1.272 . S
O125 Co117 2.135 1_545 S
Co126 O127 2.216 . S
Co126 O128 2.091 . S
Co126 O130 2.004 . S
Co126 O136 2.021 . S
Co126 O138 2.137 . S
Co126 O139 2.244 . S
O127 Co126 2.216 . S
O127 C134 1.247 . S
O128 Co126 2.091 . S
O128 C134 1.261 . S
C129 O138 1.247 . S
C129 O139 1.272 . S
O130 Co126 2.004 . S
O130 C135 1.259 . S
Co131 O132 2.061 . S
Co131 O137 2.052 . S
Co131 O139 2.135 . S
O132 Co131 2.061 . S
O132 C135 1.235 . S
C133 O136 1.238 . S
C133 O137 1.241 . S
C134 O127 1.247 . S
C134 O128 1.261 . S
C135 O130 1.259 . S
C135 O132 1.235 . S
O136 Co126 2.021 . S
O136 C133 1.238 . S
O137 Co131 2.052 . S
O137 C133 1.241 . S
O138 Co126 2.137 . S
O138 C129 1.247 . S
O139 Co126 2.244 . S
O139 C129 1.272 . S
O139 Co131 2.135 . S
Co140 O141 2.216 . S
Co140 O142 2.091 . S
Co140 O144 2.004 . S
Co140 O150 2.021 . S
Co140 O152 2.137 . S
Co140 O153 2.244 . S
O141 Co140 2.216 . S
O141 C148 1.247 . S
O142 Co140 2.091 . S
O142 C148 1.261 . S
C143 O152 1.247 . S
C143 O153 1.272 . S
O144 Co140 2.004 . S
O144 C149 1.259 . S
Co145 O146 2.061 . S
Co145 O151 2.052 . S
Co145 O153 2.135 . S
O146 Co145 2.061 . S
O146 C149 1.235 . S
C147 O150 1.238 . S
C147 O151 1.241 . S
C148 O141 1.247 . S
C148 O142 1.261 . S
C149 O144 1.259 . S
C149 O146 1.235 . S
O150 Co140 2.021 . S
O150 C147 1.238 . S
O151 Co145 2.052 . S
O151 C147 1.241 . S
O152 Co140 2.137 . S
O152 C143 1.247 . S
O153 Co140 2.244 . S
O153 C143 1.272 . S
O153 Co145 2.135 . S
Co154 O155 2.216 . S
Co154 O156 2.091 1_556 S
Co154 O158 2.004 . S
Co154 O164 2.021 1_556 S
Co154 O166 2.137 . S
Co154 O167 2.244 . S
O155 Co154 2.216 . S
O155 C162 1.249 . S
O156 Co154 2.091 1_554 S
O156 C162 1.263 1_554 S
C157 O166 1.247 . S
C157 O167 1.272 . S
O158 Co154 2.004 . S
O158 C163 1.259 1_556 S
Co159 O160 2.061 1_556 S
Co159 O165 2.052 1_556 S
Co159 O167 2.135 . S
O160 Co159 2.061 1_554 S
O160 C163 1.235 . S
C161 O164 1.238 . S
C161 O165 1.241 . S
C162 O155 1.249 . S
C162 O156 1.263 1_556 S
C163 O158 1.259 1_554 S
C163 O160 1.235 . S
O164 Co154 2.021 1_554 S
O164 C161 1.238 . S
O165 Co159 2.052 1_554 S
O165 C161 1.241 . S
O166 Co154 2.137 . S
O166 C157 1.247 . S
O167 Co154 2.244 . S
O167 C157 1.272 . S
O167 Co159 2.135 . S
Co168 O169 2.216 . S
Co168 O170 2.091 . S
Co168 O172 2.004 . S
Co168 O178 2.021 . S
Co168 O180 2.097 1_554 S
Co168 O181 2.244 . S
O169 Co168 2.216 . S
O169 C176 1.247 . S
O170 Co168 2.091 . S
O170 C176 1.261 . S
C171 O180 1.246 . S
C171 O181 1.272 1_556 S
O172 Co168 2.004 . S
O172 C177 1.259 . S
Co173 O174 2.061 . S
Co173 O179 2.052 . S
Co173 O181 2.135 . S
O174 Co173 2.061 . S
O174 C177 1.235 . S
C175 O178 1.238 . S
C175 O179 1.241 . S
C176 O169 1.247 . S
C176 O170 1.261 . S
C177 O172 1.259 . S
C177 O174 1.235 . S
O178 Co168 2.021 . S
O178 C175 1.238 . S
O179 Co173 2.052 . S
O179 C175 1.241 . S
O180 Co168 2.097 1_556 S
O180 C171 1.246 . S
O181 Co168 2.244 . S
O181 C171 1.272 1_554 S
O181 Co173 2.135 . S
Co182 O183 2.216 . S
Co182 O184 2.091 . S
Co182 O186 2.004 . S
Co182 O192 2.021 . S
Co182 O194 2.137 . S
Co182 O195 2.244 . S
O183 Co182 2.216 . S
O183 C190 1.247 . S
O184 Co182 2.091 . S
O184 C190 1.261 . S
C185 O194 1.247 . S
C185 O195 1.272 . S
O186 Co182 2.004 . S
O186 C191 1.259 . S
Co187 O188 2.061 . S
Co187 O193 2.052 . S
Co187 O195 2.135 . S
O188 Co187 2.061 . S
O188 C191 1.235 . S
C189 O192 1.238 . S
C189 O193 1.241 . S
C190 O183 1.247 . S
C190 O184 1.261 . S
C191 O186 1.259 . S
C191 O188 1.235 . S
O192 Co182 2.021 . S
O192 C189 1.238 . S
O193 Co187 2.052 . S
O193 C189 1.241 . S
O194 Co182 2.137 . S
O194 C185 1.247 . S
O195 Co182 2.244 . S
O195 C185 1.272 . S
O195 Co187 2.135 . S
Co196 O197 2.216 . S
Co196 O198 2.091 . S
Co196 O200 2.004 . S
Co196 O206 2.021 . S
Co196 O208 2.137 . S
Co196 O209 2.244 . S
O197 Co196 2.216 . S
O197 C204 1.247 . S
O198 Co196 2.091 . S
O198 C204 1.261 . S
C199 O208 1.247 . S
C199 O209 1.272 . S
O200 Co196 2.004 . S
O200 C205 1.259 . S
Co201 O202 2.061 . S
Co201 O207 2.052 . S
Co201 O209 2.135 . S
O202 Co201 2.061 . S
O202 C205 1.235 . S
C203 O206 1.238 . S
C203 O207 1.241 . S
C204 O197 1.247 . S
C204 O198 1.261 . S
C205 O200 1.259 . S
C205 O202 1.235 . S
O206 Co196 2.021 . S
O206 C203 1.238 . S
O207 Co201 2.052 . S
O207 C203 1.241 . S
O208 Co196 2.137 . S
O208 C199 1.247 . S
O209 Co196 2.244 . S
O209 C199 1.272 . S
O209 Co201 2.135 . S
Co210 O211 2.216 . S
Co210 O212 2.091 . S
Co210 O214 2.004 . S
Co210 O220 2.021 . S
Co210 O222 2.137 . S
Co210 O223 2.244 . S
O211 Co210 2.216 . S
O211 C218 1.247 . S
O212 Co210 2.091 . S
O212 C218 1.261 . S
C213 O222 1.247 . S
C213 O223 1.272 . S
O214 Co210 2.004 . S
O214 C219 1.259 . S
Co215 O216 2.061 . S
Co215 O221 2.052 . S
Co215 O223 2.135 . S
O216 Co215 2.061 . S
O216 C219 1.235 . S
C217 O220 1.238 . S
C217 O221 1.241 . S
C218 O211 1.247 . S
C218 O212 1.261 . S
C219 O214 1.259 . S
C219 O216 1.235 . S
O220 Co210 2.021 . S
O220 C217 1.238 . S
O221 Co215 2.052 . S
O221 C217 1.241 . S
O222 Co210 2.137 . S
O222 C213 1.247 . S
O223 Co210 2.244 . S
O223 C213 1.272 . S
O223 Co215 2.135 . S
Co224 O225 2.216 . S
Co224 O226 2.091 . S
Co224 O228 2.004 1_545 S
Co224 O234 2.021 . S
Co224 O236 2.137 . S
Co224 O237 2.244 . S
O225 Co224 2.216 . S
O225 C232 1.247 . S
O226 Co224 2.091 . S
O226 C232 1.261 . S
C227 O236 1.247 . S
C227 O237 1.272 . S
O228 Co224 2.004 1_565 S
O228 C233 1.259 . S
Co229 O230 2.061 . S
Co229 O235 2.052 . S
Co229 O237 2.135 1_565 S
O230 Co229 2.061 . S
O230 C233 1.235 . S
C231 O234 1.230 1_565 S
C231 O235 1.253 . S
C232 O225 1.247 . S
C232 O226 1.261 . S
C233 O228 1.259 . S
C233 O230 1.235 . S
O234 Co224 2.021 . S
O234 C231 1.230 1_545 S
O235 Co229 2.052 . S
O235 C231 1.253 . S
O236 Co224 2.137 . S
O236 C227 1.247 . S
O237 Co224 2.244 . S
O237 C227 1.272 . S
O237 Co229 2.135 1_545 S
Co238 O239 2.216 . S
Co238 O240 2.091 . S
Co238 O242 2.004 . S
Co238 O248 2.021 . S
Co238 O250 2.137 . S
Co238 O251 2.244 . S
O239 Co238 2.216 . S
O239 C246 1.247 . S
O240 Co238 2.091 . S
O240 C246 1.261 . S
C241 O250 1.247 . S
C241 O251 1.272 . S
O242 Co238 2.004 . S
O242 C247 1.259 . S
Co243 O244 2.061 . S
Co243 O249 2.052 . S
Co243 O251 2.135 . S
O244 Co243 2.061 . S
O244 C247 1.235 . S
C245 O248 1.238 . S
C245 O249 1.241 . S
C246 O239 1.247 . S
C246 O240 1.261 . S
C247 O242 1.259 . S
C247 O244 1.235 . S
O248 Co238 2.021 . S
O248 C245 1.238 . S
O249 Co243 2.052 . S
O249 C245 1.241 . S
O250 Co238 2.137 . S
O250 C241 1.247 . S
O251 Co238 2.244 . S
O251 C241 1.272 . S
O251 Co243 2.135 . S
Co252 O253 2.216 . S
Co252 O254 2.091 . S
Co252 O256 2.004 . S
Co252 O262 2.021 . S
Co252 O264 2.137 . S
Co252 O265 2.244 . S
O253 Co252 2.216 . S
O253 C260 1.247 . S
O254 Co252 2.091 . S
O254 C260 1.261 . S
C255 O264 1.247 . S
C255 O265 1.272 . S
O256 Co252 2.004 . S
O256 C261 1.259 . S
Co257 O258 2.061 . S
Co257 O263 2.052 . S
Co257 O265 2.135 . S
O258 Co257 2.061 . S
O258 C261 1.235 . S
C259 O262 1.238 . S
C259 O263 1.241 . S
C260 O253 1.247 . S
C260 O254 1.261 . S
C261 O256 1.259 . S
C261 O258 1.235 . S
O262 Co252 2.021 . S
O262 C259 1.238 . S
O263 Co257 2.052 . S
O263 C259 1.241 . S
O264 Co252 2.137 . S
O264 C255 1.247 . S
O265 Co252 2.244 . S
O265 C255 1.272 . S
O265 Co257 2.135 . S
Co266 O267 2.216 . S
Co266 O268 2.091 . S
Co266 O270 2.004 . S
Co266 O276 2.021 . S
Co266 O278 2.137 . S
Co266 O279 2.244 . S
O267 Co266 2.216 . S
O267 C274 1.247 . S
O268 Co266 2.091 . S
O268 C274 1.261 . S
C269 O278 1.247 . S
C269 O279 1.272 . S
O270 Co266 2.004 . S
O270 C275 1.259 . S
Co271 O272 2.061 . S
Co271 O277 2.052 . S
Co271 O279 2.135 . S
O272 Co271 2.061 . S
O272 C275 1.235 . S
C273 O276 1.238 . S
C273 O277 1.241 . S
C274 O267 1.247 . S
C274 O268 1.261 . S
C275 O270 1.259 . S
C275 O272 1.235 . S
O276 Co266 2.021 . S
O276 C273 1.238 . S
O277 Co271 2.052 . S
O277 C273 1.241 . S
O278 Co266 2.137 . S
O278 C269 1.247 . S
O279 Co266 2.244 . S
O279 C269 1.272 . S
O279 Co271 2.135 . S
Co280 O281 2.216 . S
Co280 O282 2.091 . S
Co280 O284 2.004 . S
Co280 O290 2.021 . S
Co280 O292 2.137 1_554 S
Co280 O293 2.244 . S
O281 Co280 2.216 . S
O281 C288 1.247 . S
O282 Co280 2.091 . S
O282 C288 1.261 . S
C283 O292 1.247 . S
C283 O293 1.272 1_556 S
O284 Co280 2.004 . S
O284 C289 1.259 . S
Co285 O286 2.061 . S
Co285 O291 2.052 . S
Co285 O293 2.135 . S
O286 Co285 2.061 . S
O286 C289 1.235 . S
C287 O290 1.238 . S
C287 O291 1.241 . S
C288 O281 1.247 . S
C288 O282 1.261 . S
C289 O284 1.259 . S
C289 O286 1.235 . S
O290 Co280 2.021 . S
O290 C287 1.238 . S
O291 Co285 2.052 . S
O291 C287 1.241 . S
O292 Co280 2.137 1_556 S
O292 C283 1.247 . S
O293 Co280 2.244 . S
O293 C283 1.272 1_554 S
O293 Co285 2.135 . S
Co294 O295 2.216 . S
Co294 O296 2.091 . S
Co294 O298 2.004 . S
Co294 O304 2.021 . S
Co294 O306 2.137 . S
Co294 O307 2.244 . S
O295 Co294 2.216 . S
O295 C302 1.247 . S
O296 Co294 2.091 . S
O296 C302 1.261 . S
C297 O306 1.247 . S
C297 O307 1.272 . S
O298 Co294 2.004 . S
O298 C303 1.259 . S
Co299 O300 2.061 . S
Co299 O305 2.052 . S
Co299 O307 2.135 . S
O300 Co299 2.061 . S
O300 C303 1.235 . S
C301 O304 1.238 . S
C301 O305 1.241 . S
C302 O295 1.247 . S
C302 O296 1.261 . S
C303 O298 1.259 . S
C303 O300 1.235 . S
O304 Co294 2.021 . S
O304 C301 1.238 . S
O305 Co299 2.052 . S
O305 C301 1.241 . S
O306 Co294 2.137 . S
O306 C297 1.247 . S
O307 Co294 2.244 . S
O307 C297 1.272 . S
O307 Co299 2.135 . S
Co308 O309 2.216 . S
Co308 O310 2.091 . S
Co308 O312 2.004 . S
Co308 O318 2.021 . S
Co308 O320 2.137 . S
Co308 O321 2.244 . S
O309 Co308 2.216 . S
O309 C316 1.247 . S
O310 Co308 2.091 . S
O310 C316 1.261 . S
C311 O320 1.247 . S
C311 O321 1.272 . S
O312 Co308 2.004 . S
O312 C317 1.259 . S
Co313 O314 2.061 . S
Co313 O319 2.052 . S
Co313 O321 2.135 . S
O314 Co313 2.061 . S
O314 C317 1.235 . S
C315 O318 1.238 . S
C315 O319 1.241 . S
C316 O309 1.247 . S
C316 O310 1.261 . S
C317 O312 1.259 . S
C317 O314 1.235 . S
O318 Co308 2.021 . S
O318 C315 1.238 . S
O319 Co313 2.052 . S
O319 C315 1.241 . S
O320 Co308 2.137 . S
O320 C311 1.247 . S
O321 Co308 2.244 . S
O321 C311 1.272 . S
O321 Co313 2.135 . S
Co322 O323 2.216 . S
Co322 O324 2.091 . S
Co322 O326 2.004 . S
Co322 O332 2.021 . S
Co322 O334 2.137 . S
Co322 O335 2.244 . S
O323 Co322 2.216 . S
O323 C330 1.247 . S
O324 Co322 2.091 . S
O324 C330 1.261 . S
C325 O334 1.247 . S
C325 O335 1.272 . S
O326 Co322 2.004 . S
O326 C331 1.259 . S
Co327 O328 2.061 . S
Co327 O333 2.052 . S
Co327 O335 2.135 . S
O328 Co327 2.061 . S
O328 C331 1.235 . S
C329 O332 1.238 . S
C329 O333 1.241 . S
C330 O323 1.247 . S
C330 O324 1.261 . S
C331 O326 1.259 . S
C331 O328 1.235 . S
O332 Co322 2.021 . S
O332 C329 1.238 . S
O333 Co327 2.052 . S
O333 C329 1.241 . S
O334 Co322 2.137 . S
O334 C325 1.247 . S
O335 Co322 2.244 . S
O335 C325 1.272 . S
O335 Co327 2.135 . S
Tb336 C345 2.764 . S
Tb336 O346 2.325 . S
Tb336 O349 2.303 . S
Tb336 O353 2.322 . S
Tb336 O354 2.349 . S
Tb336 O357 2.415 . S
Tb336 O358 2.399 . S
Tb337 O347 2.322 1_545 S
Tb337 O348 2.349 1_554 S
Tb337 O350 2.415 1_455 S
Tb337 O351 2.399 1_454 S
Tb337 O352 2.325 . S
Tb337 O355 2.303 . S
Tb337 C366 2.764 1_455 S
C338 O354 1.261 . S
C338 O355 1.257 . S
C339 C342 1.358 . S
C339 C343 1.332 . S
C339 C345 1.504 . S
C340 C341 1.373 . S
C340 C344 1.308 . S
C341 C340 1.373 . S
C341 C342 1.429 . S
C341 H368 0.932 . S
C342 C339 1.358 . S
C342 C341 1.429 . S
C342 H369 0.930 . S
C343 C339 1.332 . S
C343 C344 1.394 . S
C343 H370 0.932 . S
C344 C340 1.308 . S
C344 C343 1.394 . S
C344 H371 0.929 . S
C345 Tb336 2.764 . S
C345 C339 1.504 . S
C345 O357 1.239 . S
C345 O358 1.263 . S
O346 Tb336 2.325 . S
O346 C356 1.236 1_545 S
O347 Tb337 2.322 1_565 S
O347 C356 1.257 . S
O348 Tb337 2.349 1_556 S
O348 C359 1.261 . S
O349 Tb336 2.303 . S
O349 C359 1.257 1_554 S
O350 Tb337 2.415 1_655 S
O350 C366 1.239 . S
O351 Tb337 2.399 1_656 S
O351 C366 1.263 1_556 S
O352 Tb337 2.325 . S
O352 C367 1.236 . S
O353 Tb336 2.322 . S
O353 C367 1.257 . S
O354 Tb336 2.349 . S
O354 C338 1.261 . S
O355 Tb337 2.303 . S
O355 C338 1.257 . S
C356 O346 1.236 1_565 S
C356 O347 1.257 . S
O357 Tb336 2.415 . S
O357 C345 1.239 . S
O358 Tb336 2.399 . S
O358 C345 1.263 . S
C359 O348 1.261 . S
C359 O349 1.257 1_556 S
C360 C363 1.358 1_554 S
C360 C364 1.332 . S
C360 C366 1.504 . S
C361 C362 1.389 . S
C361 C365 1.290 1_556 S
C362 C361 1.389 . S
C362 C363 1.429 . S
C362 H372 0.932 . S
C363 C360 1.358 1_556 S
C363 C362 1.429 . S
C363 H373 0.930 . S
C364 C360 1.332 . S
C364 C365 1.394 . S
C364 H374 0.932 . S
C365 C361 1.290 1_554 S
C365 C364 1.394 . S
C365 H375 0.929 . S
C366 Tb337 2.764 1_655 S
C366 O350 1.239 . S
C366 O351 1.263 1_554 S
C366 C360 1.504 . S
C367 O352 1.236 . S
C367 O353 1.257 . S
H368 C341 0.932 . S
H369 C342 0.930 . S
H370 C343 0.932 . S
H371 C344 0.929 . S
H372 C362 0.932 . S
H373 C363 0.930 . S
H374 C364 0.932 . S
H375 C365 0.929 . S
Tb376 C385 2.764 . S
Tb376 O386 2.325 . S
Tb376 O389 2.303 . S
Tb376 O393 2.322 . S
Tb376 O394 2.349 . S
Tb376 O397 2.415 . S
Tb376 O398 2.399 . S
Tb377 O387 2.322 . S
Tb377 O388 2.349 . S
Tb377 O390 2.415 . S
Tb377 O391 2.399 . S
Tb377 O392 2.325 . S
Tb377 O395 2.303 . S
Tb377 C406 2.764 . S
C378 O394 1.261 . S
C378 O395 1.257 . S
C379 C382 1.358 . S
C379 C383 1.332 . S
C379 C385 1.504 . S
C380 C381 1.373 . S
C380 C384 1.308 . S
C381 C380 1.373 . S
C381 C382 1.429 . S
C381 H408 0.932 . S
C382 C379 1.358 . S
C382 C381 1.429 . S
C382 H409 0.930 . S
C383 C379 1.332 . S
C383 C384 1.394 . S
C383 H410 0.932 . S
C384 C380 1.308 . S
C384 C383 1.394 . S
C384 H411 0.929 . S
C385 Tb376 2.764 . S
C385 C379 1.504 . S
C385 O397 1.239 . S
C385 O398 1.263 . S
O386 Tb376 2.325 . S
O386 C396 1.236 . S
O387 Tb377 2.322 . S
O387 C396 1.257 . S
O388 Tb377 2.349 . S
O388 C399 1.261 . S
O389 Tb376 2.303 . S
O389 C399 1.257 . S
O390 Tb377 2.415 . S
O390 C406 1.239 . S
O391 Tb377 2.399 . S
O391 C406 1.263 . S
O392 Tb377 2.325 . S
O392 C407 1.236 . S
O393 Tb376 2.322 . S
O393 C407 1.257 . S
O394 Tb376 2.349 . S
O394 C378 1.261 . S
O395 Tb377 2.303 . S
O395 C378 1.257 . S
C396 O386 1.236 . S
C396 O387 1.257 . S
O397 Tb376 2.415 . S
O397 C385 1.239 . S
O398 Tb376 2.399 . S
O398 C385 1.263 . S
C399 O388 1.261 . S
C399 O389 1.257 . S
C400 C403 1.358 . S
C400 C404 1.332 . S
C400 C406 1.504 . S
C401 C402 1.373 . S
C401 C405 1.308 . S
C402 C401 1.373 . S
C402 C403 1.429 . S
C402 H412 0.932 . S
C403 C400 1.358 . S
C403 C402 1.429 . S
C403 H413 0.930 . S
C404 C400 1.332 . S
C404 C405 1.394 . S
C404 H414 0.932 . S
C405 C401 1.308 . S
C405 C404 1.394 . S
C405 H415 0.929 . S
C406 Tb377 2.764 . S
C406 O390 1.239 . S
C406 O391 1.263 . S
C406 C400 1.504 . S
C407 O392 1.236 . S
C407 O393 1.257 . S
H408 C381 0.932 . S
H409 C382 0.930 . S
H410 C383 0.932 . S
H411 C384 0.929 . S
H412 C402 0.932 . S
H413 C403 0.930 . S
H414 C404 0.932 . S
H415 C405 0.929 . S
Tb416 C425 2.764 . S
Tb416 O426 2.325 . S
Tb416 O429 2.303 . S
Tb416 O433 2.322 1_545 S
Tb416 O434 2.349 . S
Tb416 O437 2.415 . S
Tb416 O438 2.399 . S
Tb417 O427 2.322 . S
Tb417 O428 2.349 . S
Tb417 O430 2.415 . S
Tb417 O431 2.399 . S
Tb417 O432 2.325 . S
Tb417 O435 2.303 . S
Tb417 C446 2.764 . S
C418 O434 1.261 . S
C418 O435 1.257 . S
C419 C422 1.358 . S
C419 C423 1.332 . S
C419 C425 1.504 . S
C420 C421 1.373 . S
C420 C424 1.308 . S
C421 C420 1.373 . S
C421 C422 1.429 . S
C421 H448 0.932 . S
C422 C419 1.358 . S
C422 C421 1.429 . S
C422 H449 0.930 . S
C423 C419 1.332 . S
C423 C424 1.394 . S
C423 H450 0.932 . S
C424 C420 1.308 . S
C424 C423 1.394 . S
C424 H451 0.929 . S
C425 Tb416 2.764 . S
C425 C419 1.504 . S
C425 O437 1.239 . S
C425 O438 1.263 . S
O426 Tb416 2.325 . S
O426 C436 1.236 . S
O427 Tb417 2.322 . S
O427 C436 1.257 . S
O428 Tb417 2.349 . S
O428 C439 1.261 . S
O429 Tb416 2.303 . S
O429 C439 1.257 . S
O430 Tb417 2.415 . S
O430 C446 1.239 . S
O431 Tb417 2.399 . S
O431 C446 1.263 . S
O432 Tb417 2.325 . S
O432 C447 1.236 1_545 S
O433 Tb416 2.322 1_565 S
O433 C447 1.257 . S
O434 Tb416 2.349 . S
O434 C418 1.261 . S
O435 Tb417 2.303 . S
O435 C418 1.257 . S
C436 O426 1.236 . S
C436 O427 1.257 . S
O437 Tb416 2.415 . S
O437 C425 1.239 . S
O438 Tb416 2.399 . S
O438 C425 1.263 . S
C439 O428 1.261 . S
C439 O429 1.257 . S
C440 C443 1.358 . S
C440 C444 1.332 1_545 S
C440 C446 1.504 . S
C441 C442 1.373 . S
C441 C445 1.308 . S
C442 C441 1.373 . S
C442 C443 1.429 1_565 S
C442 H452 0.932 . S
C443 C440 1.358 . S
C443 C442 1.429 1_545 S
C443 H453 0.930 . S
C444 C440 1.332 1_565 S
C444 C445 1.394 . S
C444 H454 0.932 . S
C445 C441 1.308 . S
C445 C444 1.394 . S
C445 H455 0.929 . S
C446 Tb417 2.764 . S
C446 O430 1.239 . S
C446 O431 1.263 . S
C446 C440 1.504 . S
C447 O432 1.236 1_565 S
C447 O433 1.257 . S
H448 C421 0.932 . S
H449 C422 0.930 . S
H450 C423 0.932 . S
H451 C424 0.929 . S
H452 C442 0.932 . S
H453 C443 0.930 . S
H454 C444 0.932 . S
H455 C445 0.929 . S
Tb456 C465 2.764 . S
Tb456 O466 2.325 . S
Tb456 O469 2.303 . S
Tb456 O473 2.322 . S
Tb456 O474 2.349 . S
Tb456 O477 2.415 . S
Tb456 O478 2.399 . S
Tb457 O467 2.322 . S
Tb457 O468 2.349 . S
Tb457 O470 2.415 . S
Tb457 O471 2.399 . S
Tb457 O472 2.325 . S
Tb457 O475 2.303 . S
Tb457 C486 2.764 . S
C458 O474 1.261 . S
C458 O475 1.257 . S
C459 C462 1.358 . S
C459 C463 1.332 . S
C459 C465 1.504 . S
C460 C461 1.373 . S
C460 C464 1.308 . S
C461 C460 1.373 . S
C461 C462 1.429 . S
C461 H488 0.932 . S
C462 C459 1.358 . S
C462 C461 1.429 . S
C462 H489 0.930 . S
C463 C459 1.332 . S
C463 C464 1.394 . S
C463 H490 0.932 . S
C464 C460 1.308 . S
C464 C463 1.394 . S
C464 H491 0.929 . S
C465 Tb456 2.764 . S
C465 C459 1.504 . S
C465 O477 1.239 . S
C465 O478 1.263 . S
O466 Tb456 2.325 . S
O466 C476 1.236 . S
O467 Tb457 2.322 . S
O467 C476 1.257 . S
O468 Tb457 2.349 . S
O468 C479 1.261 . S
O469 Tb456 2.303 . S
O469 C479 1.257 . S
O470 Tb457 2.415 . S
O470 C486 1.239 . S
O471 Tb457 2.399 . S
O471 C486 1.263 . S
O472 Tb457 2.325 . S
O472 C487 1.236 . S
O473 Tb456 2.322 . S
O473 C487 1.257 . S
O474 Tb456 2.349 . S
O474 C458 1.261 . S
O475 Tb457 2.303 . S
O475 C458 1.257 . S
C476 O466 1.236 . S
C476 O467 1.257 . S
O477 Tb456 2.415 . S
O477 C465 1.239 . S
O478 Tb456 2.399 . S
O478 C465 1.263 . S
C479 O468 1.261 . S
C479 O469 1.257 . S
C480 C483 1.358 . S
C480 C484 1.332 . S
C480 C486 1.504 . S
C481 C482 1.373 . S
C481 C485 1.308 . S
C482 C481 1.373 . S
C482 C483 1.429 . S
C482 H492 0.932 . S
C483 C480 1.358 . S
C483 C482 1.429 . S
C483 H493 0.930 . S
C484 C480 1.332 . S
C484 C485 1.394 . S
C484 H494 0.932 . S
C485 C481 1.308 . S
C485 C484 1.394 . S
C485 H495 0.929 . S
C486 Tb457 2.764 . S
C486 O470 1.239 . S
C486 O471 1.263 . S
C486 C480 1.504 . S
C487 O472 1.236 . S
C487 O473 1.257 . S
H488 C461 0.932 . S
H489 C462 0.930 . S
H490 C463 0.932 . S
H491 C464 0.929 . S
H492 C482 0.932 . S
H493 C483 0.930 . S
H494 C484 0.932 . S
H495 C485 0.929 . S
Tb496 C505 2.764 . S
Tb496 O506 2.325 . S
Tb496 O509 2.303 . S
Tb496 O513 2.322 . S
Tb496 O514 2.349 . S
Tb496 O517 2.415 . S
Tb496 O518 2.399 . S
Tb497 O507 2.322 . S
Tb497 O508 2.349 . S
Tb497 O510 2.415 . S
Tb497 O511 2.399 . S
Tb497 O512 2.325 . S
Tb497 O515 2.303 . S
Tb497 C526 2.764 . S
C498 O514 1.261 1_655 S
C498 O515 1.257 1_655 S
C499 C502 1.358 . S
C499 C503 1.332 . S
C499 C505 1.504 . S
C500 C501 1.373 . S
C500 C504 1.308 . S
C501 C500 1.373 . S
C501 C502 1.429 . S
C501 H528 0.932 . S
C502 C499 1.358 . S
C502 C501 1.429 . S
C502 H529 0.930 . S
C503 C499 1.332 . S
C503 C504 1.394 . S
C503 H530 0.932 . S
C504 C500 1.308 . S
C504 C503 1.394 . S
C504 H531 0.929 . S
C505 Tb496 2.764 . S
C505 C499 1.504 . S
C505 O517 1.239 . S
C505 O518 1.263 . S
O506 Tb496 2.325 . S
O506 C516 1.236 . S
O507 Tb497 2.322 . S
O507 C516 1.257 . S
O508 Tb497 2.349 . S
O508 C519 1.261 . S
O509 Tb496 2.303 . S
O509 C519 1.257 . S
O510 Tb497 2.415 . S
O510 C526 1.239 . S
O511 Tb497 2.399 . S
O511 C526 1.263 . S
O512 Tb497 2.325 . S
O512 C527 1.236 . S
O513 Tb496 2.322 . S
O513 C527 1.257 . S
O514 Tb496 2.349 . S
O514 C498 1.261 1_455 S
O515 Tb497 2.303 . S
O515 C498 1.257 1_455 S
C516 O506 1.236 . S
C516 O507 1.257 . S
O517 Tb496 2.415 . S
O517 C505 1.239 . S
O518 Tb496 2.399 . S
O518 C505 1.263 . S
C519 O508 1.261 . S
C519 O509 1.257 . S
C520 C523 1.358 . S
C520 C524 1.332 1_455 S
C520 C526 1.504 . S
C521 C522 1.373 1_655 S
C521 C525 1.308 . S
C522 C521 1.373 1_455 S
C522 C523 1.429 . S
C522 H532 0.932 . S
C523 C520 1.358 . S
C523 C522 1.429 . S
C523 H533 0.930 . S
C524 C520 1.332 1_655 S
C524 C525 1.394 . S
C524 H534 0.932 . S
C525 C521 1.308 . S
C525 C524 1.394 . S
C525 H535 0.929 . S
C526 Tb497 2.764 . S
C526 O510 1.239 . S
C526 O511 1.263 . S
C526 C520 1.504 . S
C527 O512 1.236 . S
C527 O513 1.257 . S
H528 C501 0.932 . S
H529 C502 0.930 . S
H530 C503 0.932 . S
H531 C504 0.929 . S
H532 C522 0.932 . S
H533 C523 0.930 . S
H534 C524 0.932 . S
H535 C525 0.929 . S
Tb536 C545 2.764 . S
Tb536 O546 2.325 . S
Tb536 O549 2.303 . S
Tb536 O553 2.322 . S
Tb536 O554 2.349 . S
Tb536 O557 2.415 . S
Tb536 O558 2.399 . S
Tb537 O547 2.322 . S
Tb537 O548 2.349 . S
Tb537 O550 2.415 . S
Tb537 O551 2.399 . S
Tb537 O552 2.325 . S
Tb537 O555 2.303 . S
Tb537 C566 2.764 . S
C538 O554 1.261 . S
C538 O555 1.257 . S
C539 C542 1.358 . S
C539 C543 1.332 . S
C539 C545 1.504 . S
C540 C541 1.373 . S
C540 C544 1.308 . S
C541 C540 1.373 . S
C541 C542 1.429 . S
C541 H568 0.932 . S
C542 C539 1.358 . S
C542 C541 1.429 . S
C542 H569 0.930 . S
C543 C539 1.332 . S
C543 C544 1.394 . S
C543 H570 0.932 . S
C544 C540 1.308 . S
C544 C543 1.394 . S
C544 H571 0.929 . S
C545 Tb536 2.764 . S
C545 C539 1.504 . S
C545 O557 1.239 . S
C545 O558 1.263 . S
O546 Tb536 2.325 . S
O546 C556 1.236 . S
O547 Tb537 2.322 . S
O547 C556 1.257 . S
O548 Tb537 2.349 . S
O548 C559 1.261 . S
O549 Tb536 2.303 . S
O549 C559 1.257 . S
O550 Tb537 2.415 . S
O550 C566 1.239 . S
O551 Tb537 2.399 . S
O551 C566 1.263 . S
O552 Tb537 2.325 . S
O552 C567 1.236 . S
O553 Tb536 2.322 . S
O553 C567 1.257 . S
O554 Tb536 2.349 . S
O554 C538 1.261 . S
O555 Tb537 2.303 . S
O555 C538 1.257 . S
C556 O546 1.236 . S
C556 O547 1.257 . S
O557 Tb536 2.415 . S
O557 C545 1.239 . S
O558 Tb536 2.399 . S
O558 C545 1.263 . S
C559 O548 1.261 . S
C559 O549 1.257 . S
C560 C563 1.358 . S
C560 C564 1.332 . S
C560 C566 1.504 . S
C561 C562 1.373 . S
C561 C565 1.308 . S
C562 C561 1.373 . S
C562 C563 1.429 . S
C562 H572 0.932 . S
C563 C560 1.358 . S
C563 C562 1.429 . S
C563 H573 0.930 . S
C564 C560 1.332 . S
C564 C565 1.394 . S
C564 H574 0.932 . S
C565 C561 1.308 . S
C565 C564 1.394 . S
C565 H575 0.929 . S
C566 Tb537 2.764 . S
C566 O550 1.239 . S
C566 O551 1.263 . S
C566 C560 1.504 . S
C567 O552 1.236 . S
C567 O553 1.257 . S
H568 C541 0.932 . S
H569 C542 0.930 . S
H570 C543 0.932 . S
H571 C544 0.929 . S
H572 C562 0.932 . S
H573 C563 0.930 . S
H574 C564 0.932 . S
H575 C565 0.929 . S
Tb576 C585 2.764 . S
Tb576 O586 2.325 . S
Tb576 O589 2.303 . S
Tb576 O593 2.322 . S
Tb576 O594 2.349 . S
Tb576 O597 2.415 . S
Tb576 O598 2.399 . S
Tb577 O587 2.322 . S
Tb577 O588 2.349 . S
Tb577 O590 2.415 1_554 S
Tb577 O591 2.399 1_554 S
Tb577 O592 2.325 . S
Tb577 O595 2.303 . S
Tb577 C606 2.764 1_554 S
C578 O594 1.261 . S
C578 O595 1.257 . S
C579 C582 1.358 . S
C579 C583 1.332 . S
C579 C585 1.504 . S
C580 C581 1.373 . S
C580 C584 1.308 . S
C581 C580 1.373 . S
C581 C582 1.429 . S
C581 H608 0.932 . S
C582 C579 1.358 . S
C582 C581 1.429 . S
C582 H609 0.930 . S
C583 C579 1.332 . S
C583 C584 1.394 . S
C583 H610 0.932 . S
C584 C580 1.308 . S
C584 C583 1.394 . S
C584 H611 0.929 . S
C585 Tb576 2.764 . S
C585 C579 1.504 . S
C585 O597 1.239 . S
C585 O598 1.263 . S
O586 Tb576 2.325 . S
O586 C596 1.236 . S
O587 Tb577 2.322 . S
O587 C596 1.257 . S
O588 Tb577 2.349 . S
O588 C599 1.261 . S
O589 Tb576 2.303 . S
O589 C599 1.257 . S
O590 Tb577 2.415 1_556 S
O590 C606 1.239 . S
O591 Tb577 2.399 1_556 S
O591 C606 1.263 . S
O592 Tb577 2.325 . S
O592 C607 1.236 1_545 S
O593 Tb576 2.322 . S
O593 C607 1.257 1_545 S
O594 Tb576 2.349 . S
O594 C578 1.261 . S
O595 Tb577 2.303 . S
O595 C578 1.257 . S
C596 O586 1.236 . S
C596 O587 1.257 . S
O597 Tb576 2.415 . S
O597 C585 1.239 . S
O598 Tb576 2.399 . S
O598 C585 1.263 . S
C599 O588 1.261 . S
C599 O589 1.257 . S
C600 C603 1.358 . S
C600 C604 1.332 . S
C600 C606 1.504 . S
C601 C602 1.373 . S
C601 C605 1.308 . S
C602 C601 1.373 . S
C602 C603 1.429 . S
C602 H612 0.932 . S
C603 C600 1.358 . S
C603 C602 1.429 . S
C603 H613 0.930 . S
C604 C600 1.332 . S
C604 C605 1.394 . S
C604 H614 0.932 . S
C605 C601 1.308 . S
C605 C604 1.394 . S
C605 H615 0.929 . S
C606 Tb577 2.764 1_556 S
C606 O590 1.239 . S
C606 O591 1.263 . S
C606 C600 1.504 . S
C607 O592 1.236 1_565 S
C607 O593 1.257 1_565 S
H608 C581 0.932 . S
H609 C582 0.930 . S
H610 C583 0.932 . S
H611 C584 0.929 . S
H612 C602 0.932 . S
H613 C603 0.930 . S
H614 C604 0.932 . S
H615 C605 0.929 . S
Tb616 C625 2.764 . S
Tb616 O626 2.325 . S
Tb616 O629 2.303 . S
Tb616 O633 2.322 . S
Tb616 O634 2.349 . S
Tb616 O637 2.415 . S
Tb616 O638 2.399 . S
Tb617 O627 2.322 . S
Tb617 O628 2.349 . S
Tb617 O630 2.415 . S
Tb617 O631 2.399 . S
Tb617 O632 2.325 . S
Tb617 O635 2.303 . S
Tb617 C646 2.764 . S
C618 O634 1.261 . S
C618 O635 1.257 . S
C619 C622 1.358 . S
C619 C623 1.332 . S
C619 C625 1.504 . S
C620 C621 1.373 . S
C620 C624 1.308 . S
C621 C620 1.373 . S
C621 C622 1.429 . S
C621 H648 0.932 . S
C622 C619 1.358 . S
C622 C621 1.429 . S
C622 H649 0.930 . S
C623 C619 1.332 . S
C623 C624 1.394 . S
C623 H650 0.932 . S
C624 C620 1.308 . S
C624 C623 1.394 . S
C624 H651 0.929 . S
C625 Tb616 2.764 . S
C625 C619 1.504 . S
C625 O637 1.239 . S
C625 O638 1.263 . S
O626 Tb616 2.325 . S
O626 C636 1.236 . S
O627 Tb617 2.322 . S
O627 C636 1.257 . S
O628 Tb617 2.349 . S
O628 C639 1.261 . S
O629 Tb616 2.303 . S
O629 C639 1.257 . S
O630 Tb617 2.415 . S
O630 C646 1.239 . S
O631 Tb617 2.399 . S
O631 C646 1.263 . S
O632 Tb617 2.325 . S
O632 C647 1.236 . S
O633 Tb616 2.322 . S
O633 C647 1.257 . S
O634 Tb616 2.349 . S
O634 C618 1.261 . S
O635 Tb617 2.303 . S
O635 C618 1.257 . S
C636 O626 1.236 . S
C636 O627 1.257 . S
O637 Tb616 2.415 . S
O637 C625 1.239 . S
O638 Tb616 2.399 . S
O638 C625 1.263 . S
C639 O628 1.261 . S
C639 O629 1.257 . S
C640 C643 1.358 . S
C640 C644 1.332 . S
C640 C646 1.504 . S
C641 C642 1.373 . S
C641 C645 1.308 . S
C642 C641 1.373 . S
C642 C643 1.429 . S
C642 H652 0.932 . S
C643 C640 1.358 . S
C643 C642 1.429 . S
C643 H653 0.930 . S
C644 C640 1.332 . S
C644 C645 1.394 . S
C644 H654 0.932 . S
C645 C641 1.308 . S
C645 C644 1.394 . S
C645 H655 0.929 . S
C646 Tb617 2.764 . S
C646 O630 1.239 . S
C646 O631 1.263 . S
C646 C640 1.504 . S
C647 O632 1.236 . S
C647 O633 1.257 . S
H648 C621 0.932 . S
H649 C622 0.930 . S
H650 C623 0.932 . S
H651 C624 0.929 . S
H652 C642 0.932 . S
H653 C643 0.930 . S
H654 C644 0.932 . S
H655 C645 0.929 . S
Tb656 C665 2.764 . S
Tb656 O666 2.325 . S
Tb656 O669 2.303 . S
Tb656 O673 2.322 . S
Tb656 O674 2.349 . S
Tb656 O677 2.415 . S
Tb656 O678 2.399 . S
Tb657 O667 2.322 . S
Tb657 O668 2.349 . S
Tb657 O670 2.415 1_554 S
Tb657 O671 2.399 1_554 S
Tb657 O672 2.325 . S
Tb657 O675 2.303 . S
Tb657 C686 2.764 1_554 S
C658 O674 1.261 . S
C658 O675 1.257 . S
C659 C662 1.358 . S
C659 C663 1.332 . S
C659 C665 1.504 . S
C660 C661 1.373 . S
C660 C664 1.308 . S
C661 C660 1.373 . S
C661 C662 1.429 . S
C661 H688 0.932 . S
C662 C659 1.358 . S
C662 C661 1.429 . S
C662 H689 0.930 . S
C663 C659 1.332 . S
C663 C664 1.394 . S
C663 H690 0.932 . S
C664 C660 1.308 . S
C664 C663 1.394 . S
C664 H691 0.929 . S
C665 Tb656 2.764 . S
C665 C659 1.504 . S
C665 O677 1.239 . S
C665 O678 1.263 . S
O666 Tb656 2.325 . S
O666 C676 1.236 . S
O667 Tb657 2.322 . S
O667 C676 1.257 . S
O668 Tb657 2.349 . S
O668 C679 1.261 . S
O669 Tb656 2.303 . S
O669 C679 1.257 . S
O670 Tb657 2.415 1_556 S
O670 C686 1.239 . S
O671 Tb657 2.399 1_556 S
O671 C686 1.263 . S
O672 Tb657 2.325 . S
O672 C687 1.236 . S
O673 Tb656 2.322 . S
O673 C687 1.257 . S
O674 Tb656 2.349 . S
O674 C658 1.261 . S
O675 Tb657 2.303 . S
O675 C658 1.257 . S
C676 O666 1.236 . S
C676 O667 1.257 . S
O677 Tb656 2.415 . S
O677 C665 1.239 . S
O678 Tb656 2.399 . S
O678 C665 1.263 . S
C679 O668 1.261 . S
C679 O669 1.257 . S
C680 C683 1.358 . S
C680 C684 1.332 . S
C680 C686 1.504 . S
C681 C682 1.373 . S
C681 C685 1.308 . S
C682 C681 1.373 . S
C682 C683 1.429 . S
C682 H692 0.932 . S
C683 C680 1.358 . S
C683 C682 1.429 . S
C683 H693 0.930 . S
C684 C680 1.332 . S
C684 C685 1.394 . S
C684 H694 0.932 . S
C685 C681 1.308 . S
C685 C684 1.394 . S
C685 H695 0.929 . S
C686 Tb657 2.764 1_556 S
C686 O670 1.239 . S
C686 O671 1.263 . S
C686 C680 1.504 . S
C687 O672 1.236 . S
C687 O673 1.257 . S
H688 C661 0.932 . S
H689 C662 0.930 . S
H690 C663 0.932 . S
H691 C664 0.929 . S
H692 C682 0.932 . S
H693 C683 0.930 . S
H694 C684 0.932 . S
H695 C685 0.929 . S
Tb696 C705 2.764 . S
Tb696 O706 2.325 . S
Tb696 O709 2.303 . S
Tb696 O713 2.322 . S
Tb696 O714 2.349 . S
Tb696 O717 2.415 . S
Tb696 O718 2.399 . S
Tb697 O707 2.322 . S
Tb697 O708 2.349 . S
Tb697 O710 2.415 . S
Tb697 O711 2.399 . S
Tb697 O712 2.325 . S
Tb697 O715 2.303 . S
Tb697 C726 2.764 . S
C698 O714 1.261 . S
C698 O715 1.257 . S
C699 C702 1.358 . S
C699 C703 1.332 . S
C699 C705 1.504 . S
C700 C701 1.373 . S
C700 C704 1.308 . S
C701 C700 1.373 . S
C701 C702 1.429 . S
C701 H728 0.932 . S
C702 C699 1.358 . S
C702 C701 1.429 . S
C702 H729 0.930 . S
C703 C699 1.332 . S
C703 C704 1.394 . S
C703 H730 0.932 . S
C704 C700 1.308 . S
C704 C703 1.394 . S
C704 H731 0.929 . S
C705 Tb696 2.764 . S
C705 C699 1.504 . S
C705 O717 1.239 . S
C705 O718 1.263 . S
O706 Tb696 2.325 . S
O706 C716 1.236 . S
O707 Tb697 2.322 . S
O707 C716 1.257 . S
O708 Tb697 2.349 . S
O708 C719 1.261 . S
O709 Tb696 2.303 . S
O709 C719 1.257 . S
O710 Tb697 2.415 . S
O710 C726 1.239 . S
O711 Tb697 2.399 . S
O711 C726 1.263 . S
O712 Tb697 2.325 . S
O712 C727 1.236 . S
O713 Tb696 2.322 . S
O713 C727 1.257 . S
O714 Tb696 2.349 . S
O714 C698 1.261 . S
O715 Tb697 2.303 . S
O715 C698 1.257 . S
C716 O706 1.236 . S
C716 O707 1.257 . S
O717 Tb696 2.415 . S
O717 C705 1.239 . S
O718 Tb696 2.399 . S
O718 C705 1.263 . S
C719 O708 1.261 . S
C719 O709 1.257 . S
C720 C723 1.358 . S
C720 C724 1.332 . S
C720 C726 1.504 . S
C721 C722 1.373 . S
C721 C725 1.308 . S
C722 C721 1.373 . S
C722 C723 1.429 . S
C722 H732 0.932 . S
C723 C720 1.358 . S
C723 C722 1.429 . S
C723 H733 0.930 . S
C724 C720 1.332 . S
C724 C725 1.394 . S
C724 H734 0.932 . S
C725 C721 1.308 . S
C725 C724 1.394 . S
C725 H735 0.929 . S
C726 Tb697 2.764 . S
C726 O710 1.239 . S
C726 O711 1.263 . S
C726 C720 1.504 . S
C727 O712 1.236 . S
C727 O713 1.257 . S
H728 C701 0.932 . S
H729 C702 0.930 . S
H730 C703 0.932 . S
H731 C704 0.929 . S
H732 C722 0.932 . S
H733 C723 0.930 . S
H734 C724 0.932 . S
H735 C725 0.929 . S
Tb736 C745 2.764 . S
Tb736 O746 2.325 . S
Tb736 O749 2.303 . S
Tb736 O753 2.322 . S
Tb736 O754 2.349 . S
Tb736 O757 2.415 . S
Tb736 O758 2.399 . S
Tb737 O747 2.322 . S
Tb737 O748 2.349 . S
Tb737 O750 2.415 . S
Tb737 O751 2.399 . S
Tb737 O752 2.325 . S
Tb737 O755 2.303 . S
Tb737 C766 2.764 . S
C738 O754 1.261 . S
C738 O755 1.257 . S
C739 C742 1.358 . S
C739 C743 1.332 1_455 S
C739 C745 1.504 . S
C740 C741 1.334 1_655 S
C740 C744 1.329 . S
C741 C740 1.334 1_455 S
C741 C742 1.429 . S
C741 H768 0.932 . S
C742 C739 1.358 . S
C742 C741 1.429 . S
C742 H769 0.930 . S
C743 C739 1.332 1_655 S
C743 C744 1.394 . S
C743 H770 0.932 . S
C744 C740 1.329 . S
C744 C743 1.394 . S
C744 H771 0.929 . S
C745 Tb736 2.764 . S
C745 C739 1.504 . S
C745 O757 1.239 . S
C745 O758 1.263 . S
O746 Tb736 2.325 . S
O746 C756 1.236 . S
O747 Tb737 2.322 . S
O747 C756 1.257 . S
O748 Tb737 2.349 . S
O748 C759 1.261 1_455 S
O749 Tb736 2.303 . S
O749 C759 1.257 1_455 S
O750 Tb737 2.415 . S
O750 C766 1.239 . S
O751 Tb737 2.399 . S
O751 C766 1.263 . S
O752 Tb737 2.325 . S
O752 C767 1.236 . S
O753 Tb736 2.322 . S
O753 C767 1.257 . S
O754 Tb736 2.349 . S
O754 C738 1.261 . S
O755 Tb737 2.303 . S
O755 C738 1.257 . S
C756 O746 1.236 . S
C756 O747 1.257 . S
O757 Tb736 2.415 . S
O757 C745 1.239 . S
O758 Tb736 2.399 . S
O758 C745 1.263 . S
C759 O748 1.261 1_655 S
C759 O749 1.257 1_655 S
C760 C763 1.358 . S
C760 C764 1.332 . S
C760 C766 1.504 . S
C761 C762 1.373 . S
C761 C765 1.308 . S
C762 C761 1.373 . S
C762 C763 1.429 . S
C762 H772 0.932 . S
C763 C760 1.358 . S
C763 C762 1.429 . S
C763 H773 0.930 . S
C764 C760 1.332 . S
C764 C765 1.394 . S
C764 H774 0.932 . S
C765 C761 1.308 . S
C765 C764 1.394 . S
C765 H775 0.929 . S
C766 Tb737 2.764 . S
C766 O750 1.239 . S
C766 O751 1.263 . S
C766 C760 1.504 . S
C767 O752 1.236 . S
C767 O753 1.257 . S
H768 C741 0.932 . S
H769 C742 0.930 . S
H770 C743 0.932 . S
H771 C744 0.929 . S
H772 C762 0.932 . S
H773 C763 0.930 . S
H774 C764 0.932 . S
H775 C765 0.929 . S
Tb776 C785 2.764 . S
Tb776 O786 2.325 . S
Tb776 O789 2.303 . S
Tb776 O793 2.322 . S
Tb776 O794 2.349 . S
Tb776 O797 2.415 . S
Tb776 O798 2.399 . S
Tb777 O787 2.322 . S
Tb777 O788 2.349 . S
Tb777 O790 2.415 . S
Tb777 O791 2.399 . S
Tb777 O792 2.325 . S
Tb777 O795 2.303 . S
Tb777 C806 2.764 . S
C778 O794 1.261 . S
C778 O795 1.257 . S
C779 C782 1.358 . S
C779 C783 1.332 . S
C779 C785 1.504 . S
C780 C781 1.373 . S
C780 C784 1.308 . S
C781 C780 1.373 . S
C781 C782 1.429 . S
C781 H808 0.932 . S
C782 C779 1.358 . S
C782 C781 1.429 . S
C782 H809 0.930 . S
C783 C779 1.332 . S
C783 C784 1.394 . S
C783 H810 0.932 . S
C784 C780 1.308 . S
C784 C783 1.394 . S
C784 H811 0.929 . S
C785 Tb776 2.764 . S
C785 C779 1.504 . S
C785 O797 1.239 . S
C785 O798 1.263 . S
O786 Tb776 2.325 . S
O786 C796 1.236 . S
O787 Tb777 2.322 . S
O787 C796 1.257 . S
O788 Tb777 2.349 . S
O788 C799 1.261 . S
O789 Tb776 2.303 . S
O789 C799 1.257 . S
O790 Tb777 2.415 . S
O790 C806 1.239 . S
O791 Tb777 2.399 . S
O791 C806 1.263 . S
O792 Tb777 2.325 . S
O792 C807 1.236 . S
O793 Tb776 2.322 . S
O793 C807 1.257 . S
O794 Tb776 2.349 . S
O794 C778 1.261 . S
O795 Tb777 2.303 . S
O795 C778 1.257 . S
C796 O786 1.236 . S
C796 O787 1.257 . S
O797 Tb776 2.415 . S
O797 C785 1.239 . S
O798 Tb776 2.399 . S
O798 C785 1.263 . S
C799 O788 1.261 . S
C799 O789 1.257 . S
C800 C803 1.358 . S
C800 C804 1.332 . S
C800 C806 1.504 . S
C801 C802 1.373 . S
C801 C805 1.308 . S
C802 C801 1.373 . S
C802 C803 1.429 . S
C802 H812 0.932 . S
C803 C800 1.358 . S
C803 C802 1.429 . S
C803 H813 0.930 . S
C804 C800 1.332 . S
C804 C805 1.394 . S
C804 H814 0.932 . S
C805 C801 1.308 . S
C805 C804 1.394 . S
C805 H815 0.929 . S
C806 Tb777 2.764 . S
C806 O790 1.239 . S
C806 O791 1.263 . S
C806 C800 1.504 . S
C807 O792 1.236 . S
C807 O793 1.257 . S
H808 C781 0.932 . S
H809 C782 0.930 . S
H810 C783 0.932 . S
H811 C784 0.929 . S
H812 C802 0.932 . S
H813 C803 0.930 . S
H814 C804 0.932 . S
H815 C805 0.929 . S
Tb816 C825 2.764 . S
Tb816 O826 2.325 . S
Tb816 O829 2.303 . S
Tb816 O833 2.322 . S
Tb816 O834 2.349 . S
Tb816 O837 2.415 . S
Tb816 O838 2.399 . S
Tb817 O827 2.322 . S
Tb817 O828 2.349 . S
Tb817 O830 2.415 . S
Tb817 O831 2.399 . S
Tb817 O832 2.325 . S
Tb817 O835 2.303 . S
Tb817 C846 2.764 . S
C818 O834 1.261 . S
C818 O835 1.257 . S
C819 C822 1.358 . S
C819 C823 1.332 . S
C819 C825 1.504 . S
C820 C821 1.373 . S
C820 C824 1.308 . S
C821 C820 1.373 . S
C821 C822 1.429 . S
C821 H848 0.932 . S
C822 C819 1.358 . S
C822 C821 1.429 . S
C822 H849 0.930 . S
C823 C819 1.332 . S
C823 C824 1.394 . S
C823 H850 0.932 . S
C824 C820 1.308 . S
C824 C823 1.394 . S
C824 H851 0.929 . S
C825 Tb816 2.764 . S
C825 C819 1.504 . S
C825 O837 1.239 . S
C825 O838 1.263 . S
O826 Tb816 2.325 . S
O826 C836 1.236 . S
O827 Tb817 2.322 . S
O827 C836 1.257 . S
O828 Tb817 2.349 . S
O828 C839 1.261 . S
O829 Tb816 2.303 . S
O829 C839 1.257 . S
O830 Tb817 2.415 . S
O830 C846 1.239 . S
O831 Tb817 2.399 . S
O831 C846 1.263 . S
O832 Tb817 2.325 . S
O832 C847 1.236 . S
O833 Tb816 2.322 . S
O833 C847 1.257 . S
O834 Tb816 2.349 . S
O834 C818 1.261 . S
O835 Tb817 2.303 . S
O835 C818 1.257 . S
C836 O826 1.236 . S
C836 O827 1.257 . S
O837 Tb816 2.415 . S
O837 C825 1.239 . S
O838 Tb816 2.399 . S
O838 C825 1.263 . S
C839 O828 1.261 . S
C839 O829 1.257 . S
C840 C843 1.358 . S
C840 C844 1.332 . S
C840 C846 1.504 . S
C841 C842 1.373 . S
C841 C845 1.308 . S
C842 C841 1.373 . S
C842 C843 1.429 . S
C842 H852 0.932 . S
C843 C840 1.358 . S
C843 C842 1.429 . S
C843 H853 0.930 . S
C844 C840 1.332 . S
C844 C845 1.394 . S
C844 H854 0.932 . S
C845 C841 1.308 . S
C845 C844 1.394 . S
C845 H855 0.929 . S
C846 Tb817 2.764 . S
C846 O830 1.239 . S
C846 O831 1.263 . S
C846 C840 1.504 . S
C847 O832 1.236 . S
C847 O833 1.257 . S
H848 C821 0.932 . S
H849 C822 0.930 . S
H850 C823 0.932 . S
H851 C824 0.929 . S
H852 C842 0.932 . S
H853 C843 0.930 . S
H854 C844 0.932 . S
H855 C845 0.929 . S
Tb856 C865 2.764 . S
Tb856 O866 2.325 . S
Tb856 O869 2.303 . S
Tb856 O873 2.322 . S
Tb856 O874 2.349 . S
Tb856 O877 2.415 . S
Tb856 O878 2.399 . S
Tb857 O867 2.322 . S
Tb857 O868 2.349 . S
Tb857 O870 2.415 . S
Tb857 O871 2.399 . S
Tb857 O872 2.325 . S
Tb857 O875 2.303 . S
Tb857 C886 2.764 . S
C858 O874 1.261 . S
C858 O875 1.257 . S
C859 C862 1.358 . S
C859 C863 1.332 . S
C859 C865 1.504 . S
C860 C861 1.373 . S
C860 C864 1.308 . S
C861 C860 1.373 . S
C861 C862 1.429 . S
C861 H888 0.932 . S
C862 C859 1.358 . S
C862 C861 1.429 . S
C862 H889 0.930 . S
C863 C859 1.332 . S
C863 C864 1.394 . S
C863 H890 0.932 . S
C864 C860 1.308 . S
C864 C863 1.394 . S
C864 H891 0.929 . S
C865 Tb856 2.764 . S
C865 C859 1.504 . S
C865 O877 1.239 . S
C865 O878 1.263 . S
O866 Tb856 2.325 . S
O866 C876 1.236 . S
O867 Tb857 2.322 . S
O867 C876 1.257 . S
O868 Tb857 2.349 . S
O868 C879 1.261 . S
O869 Tb856 2.303 . S
O869 C879 1.257 . S
O870 Tb857 2.415 . S
O870 C886 1.239 . S
O871 Tb857 2.399 . S
O871 C886 1.263 . S
O872 Tb857 2.325 . S
O872 C887 1.236 . S
O873 Tb856 2.322 . S
O873 C887 1.257 . S
O874 Tb856 2.349 . S
O874 C858 1.261 . S
O875 Tb857 2.303 . S
O875 C858 1.257 . S
C876 O866 1.236 . S
C876 O867 1.257 . S
O877 Tb856 2.415 . S
O877 C865 1.239 . S
O878 Tb856 2.399 . S
O878 C865 1.263 . S
C879 O868 1.261 . S
C879 O869 1.257 . S
C880 C883 1.358 . S
C880 C884 1.332 . S
C880 C886 1.504 . S
C881 C882 1.373 . S
C881 C885 1.308 . S
C882 C881 1.373 . S
C882 C883 1.429 . S
C882 H892 0.932 . S
C883 C880 1.358 . S
C883 C882 1.429 . S
C883 H893 0.930 . S
C884 C880 1.332 . S
C884 C885 1.394 . S
C884 H894 0.932 . S
C885 C881 1.308 . S
C885 C884 1.394 . S
C885 H895 0.929 . S
C886 Tb857 2.764 . S
C886 O870 1.239 . S
C886 O871 1.263 . S
C886 C880 1.504 . S
C887 O872 1.236 . S
C887 O873 1.257 . S
H888 C861 0.932 . S
H889 C862 0.930 . S
H890 C863 0.932 . S
H891 C864 0.929 . S
H892 C882 0.932 . S
H893 C883 0.930 . S
H894 C884 0.932 . S
H895 C885 0.929 . S
Tb896 C905 2.764 . S
Tb896 O906 2.325 . S
Tb896 O909 2.303 . S
Tb896 O913 2.322 . S
Tb896 O914 2.349 . S
Tb896 O917 2.415 . S
Tb896 O918 2.399 . S
Tb897 O907 2.322 . S
Tb897 O908 2.349 . S
Tb897 O910 2.415 . S
Tb897 O911 2.399 . S
Tb897 O912 2.325 . S
Tb897 O915 2.303 . S
Tb897 C926 2.764 . S
C898 O914 1.261 . S
C898 O915 1.257 . S
C899 C902 1.358 . S
C899 C903 1.332 . S
C899 C905 1.504 . S
C900 C901 1.373 . S
C900 C904 1.308 . S
C901 C900 1.373 . S
C901 C902 1.429 . S
C901 H928 0.932 . S
C902 C899 1.358 . S
C902 C901 1.429 . S
C902 H929 0.930 . S
C903 C899 1.332 . S
C903 C904 1.394 . S
C903 H930 0.932 . S
C904 C900 1.308 . S
C904 C903 1.394 . S
C904 H931 0.929 . S
C905 Tb896 2.764 . S
C905 C899 1.504 . S
C905 O917 1.239 . S
C905 O918 1.263 . S
O906 Tb896 2.325 . S
O906 C916 1.236 . S
O907 Tb897 2.322 . S
O907 C916 1.257 . S
O908 Tb897 2.349 . S
O908 C919 1.261 . S
O909 Tb896 2.303 . S
O909 C919 1.257 . S
O910 Tb897 2.415 . S
O910 C926 1.239 . S
O911 Tb897 2.399 . S
O911 C926 1.263 . S
O912 Tb897 2.325 . S
O912 C927 1.236 . S
O913 Tb896 2.322 . S
O913 C927 1.257 . S
O914 Tb896 2.349 . S
O914 C898 1.261 . S
O915 Tb897 2.303 . S
O915 C898 1.257 . S
C916 O906 1.236 . S
C916 O907 1.257 . S
O917 Tb896 2.415 . S
O917 C905 1.239 . S
O918 Tb896 2.399 . S
O918 C905 1.263 . S
C919 O908 1.261 . S
C919 O909 1.257 . S
C920 C923 1.358 . S
C920 C924 1.332 . S
C920 C926 1.504 . S
C921 C922 1.373 . S
C921 C925 1.308 . S
C922 C921 1.373 . S
C922 C923 1.429 . S
C922 H932 0.932 . S
C923 C920 1.358 . S
C923 C922 1.429 . S
C923 H933 0.930 . S
C924 C920 1.332 . S
C924 C925 1.394 . S
C924 H934 0.932 . S
C925 C921 1.308 . S
C925 C924 1.394 . S
C925 H935 0.929 . S
C926 Tb897 2.764 . S
C926 O910 1.239 . S
C926 O911 1.263 . S
C926 C920 1.504 . S
C927 O912 1.236 . S
C927 O913 1.257 . S
H928 C901 0.932 . S
H929 C902 0.930 . S
H930 C903 0.932 . S
H931 C904 0.929 . S
H932 C922 0.932 . S
H933 C923 0.930 . S
H934 C924 0.932 . S
H935 C925 0.929 . S
Tb936 C945 2.764 1_455 S
Tb936 O946 2.325 . S
Tb936 O949 2.303 . S
Tb936 O953 2.322 . S
Tb936 O954 2.349 . S
Tb936 O957 2.415 1_455 S
Tb936 O958 2.399 1_455 S
Tb937 O947 2.322 . S
Tb937 O948 2.349 1_554 S
Tb937 O950 2.415 . S
Tb937 O951 2.399 . S
Tb937 O952 2.325 . S
Tb937 O955 2.303 . S
Tb937 C966 2.764 . S
C938 O954 1.261 . S
C938 O955 1.257 . S
C939 C942 1.358 . S
C939 C943 1.332 . S
C939 C945 1.504 . S
C940 C941 1.373 . S
C940 C944 1.308 . S
C941 C940 1.373 . S
C941 C942 1.429 . S
C941 H968 0.932 . S
C942 C939 1.358 . S
C942 C941 1.429 . S
C942 H969 0.930 . S
C943 C939 1.332 . S
C943 C944 1.394 . S
C943 H970 0.932 . S
C944 C940 1.308 . S
C944 C943 1.394 . S
C944 H971 0.929 . S
C945 Tb936 2.764 1_655 S
C945 C939 1.504 . S
C945 O957 1.239 . S
C945 O958 1.263 . S
O946 Tb936 2.325 . S
O946 C956 1.236 . S
O947 Tb937 2.322 . S
O947 C956 1.257 . S
O948 Tb937 2.349 1_556 S
O948 C959 1.261 . S
O949 Tb936 2.303 . S
O949 C959 1.257 1_554 S
O950 Tb937 2.415 . S
O950 C966 1.239 . S
O951 Tb937 2.399 . S
O951 C966 1.263 . S
O952 Tb937 2.325 . S
O952 C967 1.236 . S
O953 Tb936 2.322 . S
O953 C967 1.257 . S
O954 Tb936 2.349 . S
O954 C938 1.261 . S
O955 Tb937 2.303 . S
O955 C938 1.257 . S
C956 O946 1.236 . S
C956 O947 1.257 . S
O957 Tb936 2.415 1_655 S
O957 C945 1.239 . S
O958 Tb936 2.399 1_655 S
O958 C945 1.263 . S
C959 O948 1.261 . S
C959 O949 1.257 1_556 S
C960 C963 1.358 1_554 S
C960 C964 1.332 . S
C960 C966 1.504 . S
C961 C962 1.373 1_554 S
C961 C965 1.308 . S
C962 C961 1.373 1_556 S
C962 C963 1.429 . S
C962 H972 0.932 . S
C963 C960 1.358 1_556 S
C963 C962 1.429 . S
C963 H973 0.930 . S
C964 C960 1.332 . S
C964 C965 1.394 . S
C964 H974 0.932 . S
C965 C961 1.308 . S
C965 C964 1.394 . S
C965 H975 0.929 . S
C966 Tb937 2.764 . S
C966 O950 1.239 . S
C966 O951 1.263 . S
C966 C960 1.504 . S
C967 O952 1.236 . S
C967 O953 1.257 . S
H968 C941 0.932 . S
H969 C942 0.930 . S
H970 C943 0.932 . S
H971 C944 0.929 . S
H972 C962 0.932 . S
H973 C963 0.930 . S
H974 C964 0.932 . S
H975 C965 0.929 . S
C976 C977 1.369 1_654 S
C976 C978 1.419 1_655 S
C976 H980 0.930 . S
C977 C976 1.369 1_456 S
C977 C986 1.429 . S
C978 C976 1.419 1_455 S
C978 C979 1.363 . S
C978 H981 0.929 . S
C979 C978 1.363 . S
C979 C985 1.428 . S
H980 C976 0.930 . S
H981 C978 0.929 . S
S982 N983 1.613 . S
S982 N984 1.610 . S
N983 S982 1.613 . S
N983 C986 1.350 . S
N984 S982 1.610 . S
N984 C985 1.351 1_556 S
C985 C979 1.428 . S
C985 N984 1.351 1_554 S
C985 C986 1.434 1_554 S
C986 C977 1.429 . S
C986 N983 1.350 . S
C986 C985 1.434 1_556 S
C987 C988 1.369 . S
C987 C989 1.419 . S
C987 H991 0.930 . S
C988 C987 1.369 . S
C988 C997 1.429 . S
C989 C987 1.419 . S
C989 C990 1.363 . S
C989 H992 0.929 . S
C990 C989 1.363 . S
C990 C996 1.428 . S
H991 C987 0.930 . S
H992 C989 0.929 . S
S993 N994 1.613 . S
S993 N995 1.610 . S
N994 S993 1.613 . S
N994 C997 1.350 . S
N995 S993 1.610 . S
N995 C996 1.351 . S
C996 C990 1.428 . S
C996 N995 1.351 . S
C996 C997 1.434 . S
C997 C988 1.429 . S
C997 N994 1.350 . S
C997 C996 1.434 . S
C998 C999 1.369 . S
C998 C1000 1.419 . S
C998 H1002 0.930 . S
C999 C998 1.369 . S
C999 C1008 1.429 . S
C1000 C998 1.419 . S
C1000 C1001 1.363 . S
C1000 H1003 0.929 . S
C1001 C1000 1.363 . S
C1001 C1007 1.428 . S
H1002 C998 0.930 . S
H1003 C1000 0.929 . S
S1004 N1005 1.613 . S
S1004 N1006 1.610 . S
N1005 S1004 1.613 . S
N1005 C1008 1.350 . S
N1006 S1004 1.610 . S
N1006 C1007 1.351 . S
C1007 C1001 1.428 . S
C1007 N1006 1.351 . S
C1007 C1008 1.434 . S
C1008 C999 1.429 . S
C1008 N1005 1.350 . S
C1008 C1007 1.434 . S
C1009 C1010 1.369 . S
C1009 C1011 1.419 . S
C1009 H1013 0.930 . S
C1010 C1009 1.369 . S
C1010 C1019 1.429 . S
C1011 C1009 1.419 . S
C1011 C1012 1.363 . S
C1011 H1014 0.929 . S
C1012 C1011 1.363 . S
C1012 C1018 1.428 . S
H1013 C1009 0.930 . S
H1014 C1011 0.929 . S
S1015 N1016 1.613 . S
S1015 N1017 1.610 . S
N1016 S1015 1.613 . S
N1016 C1019 1.350 . S
N1017 S1015 1.610 . S
N1017 C1018 1.351 . S
C1018 C1012 1.428 . S
C1018 N1017 1.351 . S
C1018 C1019 1.434 . S
C1019 C1010 1.429 . S
C1019 N1016 1.350 . S
C1019 C1018 1.434 . S
C1020 C1021 1.369 . S
C1020 C1022 1.419 . S
C1020 H1024 0.930 . S
C1021 C1020 1.369 . S
C1021 C1030 1.429 . S
C1022 C1020 1.419 . S
C1022 C1023 1.363 . S
C1022 H1025 0.929 . S
C1023 C1022 1.363 . S
C1023 C1029 1.428 . S
H1024 C1020 0.930 . S
H1025 C1022 0.929 . S
S1026 N1027 1.613 . S
S1026 N1028 1.610 . S
N1027 S1026 1.613 . S
N1027 C1030 1.350 . S
N1028 S1026 1.610 . S
N1028 C1029 1.351 . S
C1029 C1023 1.428 . S
C1029 N1028 1.351 . S
C1029 C1030 1.434 . S
C1030 C1021 1.429 . S
C1030 N1027 1.350 . S
C1030 C1029 1.434 . S
C1031 C1032 1.369 . S
C1031 C1033 1.419 . S
C1031 H1035 0.930 . S
C1032 C1031 1.369 . S
C1032 C1041 1.429 . S
C1033 C1031 1.419 . S
C1033 C1034 1.363 . S
C1033 H1036 0.929 . S
C1034 C1033 1.363 . S
C1034 C1040 1.428 . S
H1035 C1031 0.930 . S
H1036 C1033 0.929 . S
S1037 N1038 1.613 . S
S1037 N1039 1.610 . S
N1038 S1037 1.613 . S
N1038 C1041 1.350 . S
N1039 S1037 1.610 . S
N1039 C1040 1.351 . S
C1040 C1034 1.428 . S
C1040 N1039 1.351 . S
C1040 C1041 1.434 . S
C1041 C1032 1.429 . S
C1041 N1038 1.350 . S
C1041 C1040 1.434 . S
C1042 C1043 1.369 . S
C1042 C1044 1.419 . S
C1042 H1046 0.930 . S
C1043 C1042 1.369 . S
C1043 C1052 1.429 . S
C1044 C1042 1.419 . S
C1044 C1045 1.363 . S
C1044 H1047 0.929 . S
C1045 C1044 1.363 . S
C1045 C1051 1.428 . S
H1046 C1042 0.930 . S
H1047 C1044 0.929 . S
S1048 N1049 1.613 . S
S1048 N1050 1.610 . S
N1049 S1048 1.613 . S
N1049 C1052 1.350 . S
N1050 S1048 1.610 . S
N1050 C1051 1.351 . S
C1051 C1045 1.428 . S
C1051 N1050 1.351 . S
C1051 C1052 1.434 . S
C1052 C1043 1.429 . S
C1052 N1049 1.350 . S
C1052 C1051 1.434 . S
C1053 C1054 1.369 . S
C1053 C1055 1.419 . S
C1053 H1057 0.930 . S
C1054 C1053 1.369 . S
C1054 C1063 1.429 . S
C1055 C1053 1.419 . S
C1055 C1056 1.363 . S
C1055 H1058 0.929 . S
C1056 C1055 1.363 . S
C1056 C1062 1.428 . S
H1057 C1053 0.930 . S
H1058 C1055 0.929 . S
S1059 N1060 1.613 . S
S1059 N1061 1.610 . S
N1060 S1059 1.613 . S
N1060 C1063 1.350 . S
N1061 S1059 1.610 . S
N1061 C1062 1.351 . S
C1062 C1056 1.428 . S
C1062 N1061 1.351 . S
C1062 C1063 1.434 . S
C1063 C1054 1.429 . S
C1063 N1060 1.350 . S
C1063 C1062 1.434 . S
C1064 C1065 1.369 . S
C1064 C1066 1.419 1_655 S
C1064 H1068 0.930 1_545 S
C1065 C1064 1.369 . S
C1065 C1074 1.429 . S
C1066 C1064 1.419 1_455 S
C1066 C1067 1.363 . S
C1066 H1069 0.929 . S
C1067 C1066 1.363 . S
C1067 C1073 1.428 1_455 S
H1068 C1064 0.930 1_565 S
H1069 C1066 0.929 . S
S1070 N1071 1.613 . S
S1070 N1072 1.610 . S
N1071 S1070 1.613 . S
N1071 C1074 1.350 . S
N1072 S1070 1.610 . S
N1072 C1073 1.351 . S
C1073 C1067 1.428 1_655 S
C1073 N1072 1.351 . S
C1073 C1074 1.434 . S
C1074 C1065 1.429 . S
C1074 N1071 1.350 . S
C1074 C1073 1.434 . S
C1075 C1076 1.369 . S
C1075 C1077 1.419 . S
C1075 H1079 0.930 . S
C1076 C1075 1.369 . S
C1076 C1085 1.429 . S
C1077 C1075 1.419 . S
C1077 C1078 1.363 . S
C1077 H1080 0.929 . S
C1078 C1077 1.363 . S
C1078 C1084 1.428 . S
H1079 C1075 0.930 . S
H1080 C1077 0.929 . S
S1081 N1082 1.613 . S
S1081 N1083 1.610 . S
N1082 S1081 1.613 . S
N1082 C1085 1.350 . S
N1083 S1081 1.610 . S
N1083 C1084 1.351 . S
C1084 C1078 1.428 . S
C1084 N1083 1.351 . S
C1084 C1085 1.434 . S
C1085 C1076 1.429 . S
C1085 N1082 1.350 . S
C1085 C1084 1.434 . S
C1086 C1087 1.369 . S
C1086 C1088 1.419 . S
C1086 H1090 0.930 . S
C1087 C1086 1.369 . S
C1087 C1096 1.429 . S
C1088 C1086 1.419 . S
C1088 C1089 1.363 . S
C1088 H1091 0.929 . S
C1089 C1088 1.363 . S
C1089 C1095 1.428 . S
H1090 C1086 0.930 . S
H1091 C1088 0.929 . S
S1092 N1093 1.613 . S
S1092 N1094 1.610 . S
N1093 S1092 1.613 . S
N1093 C1096 1.350 . S
N1094 S1092 1.610 . S
N1094 C1095 1.351 . S
C1095 C1089 1.428 . S
C1095 N1094 1.351 . S
C1095 C1096 1.434 . S
C1096 C1087 1.429 . S
C1096 N1093 1.350 . S
C1096 C1095 1.434 . S
C1097 C1098 1.369 . S
C1097 C1099 1.419 . S
C1097 H1101 0.930 . S
C1098 C1097 1.369 . S
C1098 C1107 1.429 . S
C1099 C1097 1.419 . S
C1099 C1100 1.363 . S
C1099 H1102 0.929 . S
C1100 C1099 1.363 . S
C1100 C1106 1.428 . S
H1101 C1097 0.930 . S
H1102 C1099 0.929 . S
S1103 N1104 1.613 . S
S1103 N1105 1.610 . S
N1104 S1103 1.613 . S
N1104 C1107 1.350 . S
N1105 S1103 1.610 . S
N1105 C1106 1.351 . S
C1106 C1100 1.428 . S
C1106 N1105 1.351 . S
C1106 C1107 1.434 . S
C1107 C1098 1.429 . S
C1107 N1104 1.350 . S
C1107 C1106 1.434 . S
C1108 C1109 1.369 1_565 S
C1108 C1110 1.419 . S
C1108 H1112 0.930 . S
C1109 C1108 1.369 1_545 S
C1109 C1118 1.429 . S
C1110 C1108 1.419 . S
C1110 C1111 1.363 1_565 S
C1110 H1113 0.929 1_655 S
C1111 C1110 1.363 1_545 S
C1111 C1117 1.428 . S
H1112 C1108 0.930 . S
H1113 C1110 0.929 1_455 S
S1114 N1115 1.613 . S
S1114 N1116 1.610 . S
N1115 S1114 1.613 . S
N1115 C1118 1.350 . S
N1116 S1114 1.610 . S
N1116 C1117 1.351 . S
C1117 C1111 1.428 . S
C1117 N1116 1.351 . S
C1117 C1118 1.434 . S
C1118 C1109 1.429 . S
C1118 N1115 1.350 . S
C1118 C1117 1.434 . S
C1119 C1120 1.369 . S
C1119 C1121 1.419 . S
C1119 H1123 0.930 . S
C1120 C1119 1.369 . S
C1120 C1129 1.429 . S
C1121 C1119 1.419 . S
C1121 C1122 1.363 . S
C1121 H1124 0.929 . S
C1122 C1121 1.363 . S
C1122 C1128 1.428 . S
H1123 C1119 0.930 . S
H1124 C1121 0.929 . S
S1125 N1126 1.613 . S
S1125 N1127 1.610 . S
N1126 S1125 1.613 . S
N1126 C1129 1.350 . S
N1127 S1125 1.610 . S
N1127 C1128 1.351 . S
C1128 C1122 1.428 . S
C1128 N1127 1.351 . S
C1128 C1129 1.434 . S
C1129 C1120 1.429 . S
C1129 N1126 1.350 . S
C1129 C1128 1.434 . S
C1130 C1131 1.369 . S
C1130 C1132 1.419 . S
C1130 H1134 0.930 . S
C1131 C1130 1.369 . S
C1131 C1140 1.429 . S
C1132 C1130 1.419 . S
C1132 C1133 1.363 . S
C1132 H1135 0.929 . S
C1133 C1132 1.363 . S
C1133 C1139 1.428 . S
H1134 C1130 0.930 . S
H1135 C1132 0.929 . S
S1136 N1137 1.613 . S
S1136 N1138 1.610 . S
N1137 S1136 1.613 . S
N1137 C1140 1.350 . S
N1138 S1136 1.610 . S
N1138 C1139 1.351 . S
C1139 C1133 1.428 . S
C1139 N1138 1.351 . S
C1139 C1140 1.434 . S
C1140 C1131 1.429 . S
C1140 N1137 1.350 . S
C1140 C1139 1.434 . S
C1141 C1142 1.369 . S
C1141 C1143 1.419 . S
C1141 H1145 0.930 . S
C1142 C1141 1.369 . S
C1142 C1151 1.429 . S
C1143 C1141 1.419 . S
C1143 C1144 1.363 . S
C1143 H1146 0.929 . S
C1144 C1143 1.363 . S
C1144 C1150 1.428 . S
H1145 C1141 0.930 . S
H1146 C1143 0.929 . S
S1147 N1148 1.613 . S
S1147 N1149 1.610 . S
N1148 S1147 1.613 . S
N1148 C1151 1.350 . S
N1149 S1147 1.610 . S
N1149 C1150 1.351 . S
C1150 C1144 1.428 . S
C1150 N1149 1.351 . S
C1150 C1151 1.434 . S
C1151 C1142 1.429 . S
C1151 N1148 1.350 . S
C1151 C1150 1.434 . S
C1152 C1153 1.369 1_545 S
C1152 C1154 1.419 . S
C1152 H1156 0.930 . S
C1153 C1152 1.369 1_565 S
C1153 C1162 1.429 . S
C1154 C1152 1.419 . S
C1154 C1155 1.363 . S
C1154 H1157 0.929 . S
C1155 C1154 1.363 . S
C1155 C1161 1.428 . S
H1156 C1152 0.930 . S
H1157 C1154 0.929 . S
S1158 N1159 1.613 . S
S1158 N1160 1.610 1_565 S
N1159 S1158 1.613 . S
N1159 C1162 1.350 . S
N1160 S1158 1.610 1_545 S
N1160 C1161 1.351 . S
C1161 C1155 1.428 . S
C1161 N1160 1.351 . S
C1161 C1162 1.434 1_545 S
C1162 C1153 1.429 . S
C1162 N1159 1.350 . S
C1162 C1161 1.434 1_565 S
C1163 C1164 1.369 . S
C1163 C1165 1.419 . S
C1163 H1167 0.930 . S
C1164 C1163 1.369 . S
C1164 C1173 1.429 . S
C1165 C1163 1.419 . S
C1165 C1166 1.363 . S
C1165 H1168 0.929 . S
C1166 C1165 1.363 . S
C1166 C1172 1.428 . S
H1167 C1163 0.930 . S
H1168 C1165 0.929 . S
S1169 N1170 1.613 1_556 S
S1169 N1171 1.610 1_556 S
N1170 S1169 1.613 1_554 S
N1170 C1173 1.350 . S
N1171 S1169 1.610 1_554 S
N1171 C1172 1.351 . S
C1172 C1166 1.428 . S
C1172 N1171 1.351 . S
C1172 C1173 1.434 . S
C1173 C1164 1.429 . S
C1173 N1170 1.350 . S
C1173 C1172 1.434 . S
C1174 C1175 1.369 . S
C1174 C1176 1.419 . S
C1174 H1178 0.930 . S
C1175 C1174 1.369 . S
C1175 C1184 1.429 . S
C1176 C1174 1.419 . S
C1176 C1177 1.363 . S
C1176 H1179 0.929 . S
C1177 C1176 1.363 . S
C1177 C1183 1.428 . S
H1178 C1174 0.930 . S
H1179 C1176 0.929 . S
S1180 N1181 1.613 . S
S1180 N1182 1.610 . S
N1181 S1180 1.613 . S
N1181 C1184 1.350 . S
N1182 S1180 1.610 . S
N1182 C1183 1.351 . S
C1183 C1177 1.428 . S
C1183 N1182 1.351 . S
C1183 C1184 1.434 . S
C1184 C1175 1.429 . S
C1184 N1181 1.350 . S
C1184 C1183 1.434 . S
C1185 C1186 1.369 . S
C1185 C1187 1.419 . S
C1185 H1189 0.930 . S
C1186 C1185 1.369 . S
C1186 C1195 1.429 . S
C1187 C1185 1.419 . S
C1187 C1188 1.363 . S
C1187 H1190 0.929 . S
C1188 C1187 1.363 . S
C1188 C1194 1.428 . S
H1189 C1185 0.930 . S
H1190 C1187 0.929 . S
S1191 N1192 1.613 . S
S1191 N1193 1.610 . S
N1192 S1191 1.613 . S
N1192 C1195 1.350 . S
N1193 S1191 1.610 . S
N1193 C1194 1.351 . S
C1194 C1188 1.428 . S
C1194 N1193 1.351 . S
C1194 C1195 1.434 . S
C1195 C1186 1.429 . S
C1195 N1192 1.350 . S
C1195 C1194 1.434 . S
C1196 C1197 1.369 . S
C1196 C1198 1.419 . S
C1196 H1200 0.930 . S
C1197 C1196 1.369 . S
C1197 C1206 1.429 . S
C1198 C1196 1.419 . S
C1198 C1199 1.363 . S
C1198 H1201 0.929 . S
C1199 C1198 1.363 . S
C1199 C1205 1.428 . S
H1200 C1196 0.930 . S
H1201 C1198 0.929 . S
S1202 N1203 1.613 . S
S1202 N1204 1.610 . S
N1203 S1202 1.613 . S
N1203 C1206 1.350 . S
N1204 S1202 1.610 . S
N1204 C1205 1.351 . S
C1205 C1199 1.428 . S
C1205 N1204 1.351 . S
C1205 C1206 1.434 . S
C1206 C1197 1.429 . S
C1206 N1203 1.350 . S
C1206 C1205 1.434 . S
C1207 C1208 1.369 . S
C1207 C1209 1.419 . S
C1207 H1211 0.930 . S
C1208 C1207 1.369 . S
C1208 C1217 1.429 . S
C1209 C1207 1.419 . S
C1209 C1210 1.363 . S
C1209 H1212 0.929 . S
C1210 C1209 1.363 . S
C1210 C1216 1.428 . S
H1211 C1207 0.930 . S
H1212 C1209 0.929 . S
S1213 N1214 1.613 . S
S1213 N1215 1.610 . S
N1214 S1213 1.613 . S
N1214 C1217 1.350 . S
N1215 S1213 1.610 . S
N1215 C1216 1.351 . S
C1216 C1210 1.428 . S
C1216 N1215 1.351 . S
C1216 C1217 1.434 . S
C1217 C1208 1.429 . S
C1217 N1214 1.350 . S
C1217 C1216 1.434 . S
C1218 C1219 1.369 . S
C1218 C1220 1.419 . S
C1218 H1222 0.930 . S
C1219 C1218 1.369 . S
C1219 C1228 1.429 . S
C1220 C1218 1.419 . S
C1220 C1221 1.363 . S
C1220 H1223 0.929 . S
C1221 C1220 1.363 . S
C1221 C1227 1.428 . S
H1222 C1218 0.930 . S
H1223 C1220 0.929 . S
S1224 N1225 1.613 . S
S1224 N1226 1.610 . S
N1225 S1224 1.613 . S
N1225 C1228 1.350 . S
N1226 S1224 1.610 . S
N1226 C1227 1.351 . S
C1227 C1221 1.428 . S
C1227 N1226 1.351 . S
C1227 C1228 1.434 . S
C1228 C1219 1.429 . S
C1228 N1225 1.350 . S
C1228 C1227 1.434 . S
C1229 C1230 1.369 . S
C1229 C1231 1.419 . S
C1229 H1233 0.930 . S
C1230 C1229 1.369 . S
C1230 C1239 1.429 . S
C1231 C1229 1.419 . S
C1231 C1232 1.363 . S
C1231 H1234 0.929 . S
C1232 C1231 1.363 . S
C1232 C1238 1.428 . S
H1233 C1229 0.930 . S
H1234 C1231 0.929 . S
S1235 N1236 1.613 . S
S1235 N1237 1.610 . S
N1236 S1235 1.613 . S
N1236 C1239 1.350 . S
N1237 S1235 1.610 . S
N1237 C1238 1.351 . S
C1238 C1232 1.428 . S
C1238 N1237 1.351 . S
C1238 C1239 1.434 . S
C1239 C1230 1.429 . S
C1239 N1236 1.350 . S
C1239 C1238 1.434 . S
C1240 C1241 1.369 . S
C1240 C1242 1.419 . S
C1240 H1244 0.930 . S
C1241 C1240 1.369 . S
C1241 C1250 1.429 . S
C1242 C1240 1.419 . S
C1242 C1243 1.363 . S
C1242 H1245 0.929 . S
C1243 C1242 1.363 . S
C1243 C1249 1.428 . S
H1244 C1240 0.930 . S
H1245 C1242 0.929 . S
S1246 N1247 1.613 . S
S1246 N1248 1.610 . S
N1247 S1246 1.613 . S
N1247 C1250 1.350 . S
N1248 S1246 1.610 . S
N1248 C1249 1.351 . S
C1249 C1243 1.428 . S
C1249 N1248 1.351 . S
C1249 C1250 1.434 . S
C1250 C1241 1.429 . S
C1250 N1247 1.350 . S
C1250 C1249 1.434 . S
C1251 C1252 1.369 . S
C1251 C1253 1.419 . S
C1251 H1255 0.930 . S
C1252 C1251 1.369 . S
C1252 C1261 1.429 . S
C1253 C1251 1.419 . S
C1253 C1254 1.363 . S
C1253 H1256 0.929 . S
C1254 C1253 1.363 . S
C1254 C1260 1.428 . S
H1255 C1251 0.930 . S
H1256 C1253 0.929 . S
S1257 N1258 1.613 . S
S1257 N1259 1.610 . S
N1258 S1257 1.613 . S
N1258 C1261 1.350 . S
N1259 S1257 1.610 . S
N1259 C1260 1.351 . S
C1260 C1254 1.428 . S
C1260 N1259 1.351 . S
C1260 C1261 1.434 . S
C1261 C1252 1.429 . S
C1261 N1258 1.350 . S
C1261 C1260 1.434 . S
C1262 C1263 1.369 . S
C1262 C1264 1.419 . S
C1262 H1266 0.930 . S
C1263 C1262 1.369 . S
C1263 C1272 1.429 . S
C1264 C1262 1.419 . S
C1264 C1265 1.363 . S
C1264 H1267 0.929 . S
C1265 C1264 1.363 . S
C1265 C1271 1.428 . S
H1266 C1262 0.930 . S
H1267 C1264 0.929 . S
S1268 N1269 1.613 . S
S1268 N1270 1.610 . S
N1269 S1268 1.613 . S
N1269 C1272 1.350 . S
N1270 S1268 1.610 . S
N1270 C1271 1.351 . S
C1271 C1265 1.428 . S
C1271 N1270 1.351 . S
C1271 C1272 1.434 . S
C1272 C1263 1.429 . S
C1272 N1269 1.350 . S
C1272 C1271 1.434 . S
C1273 C1274 1.369 . S
C1273 C1275 1.419 . S
C1273 H1277 0.930 . S
C1274 C1273 1.369 . S
C1274 C1283 1.429 . S
C1275 C1273 1.419 . S
C1275 C1276 1.363 . S
C1275 H1278 0.929 . S
C1276 C1275 1.363 . S
C1276 C1282 1.428 . S
H1277 C1273 0.930 . S
H1278 C1275 0.929 . S
S1279 N1280 1.613 . S
S1279 N1281 1.610 . S
N1280 S1279 1.613 . S
N1280 C1283 1.350 . S
N1281 S1279 1.610 . S
N1281 C1282 1.351 . S
C1282 C1276 1.428 . S
C1282 N1281 1.351 . S
C1282 C1283 1.434 . S
C1283 C1274 1.429 . S
C1283 N1280 1.350 . S
C1283 C1282 1.434 . S
C1284 C1285 1.369 . S
C1284 C1286 1.419 . S
C1284 H1288 0.930 . S
C1285 C1284 1.369 . S
C1285 C1294 1.429 . S
C1286 C1284 1.419 . S
C1286 C1287 1.363 . S
C1286 H1289 0.929 . S
C1287 C1286 1.363 . S
C1287 C1293 1.428 . S
H1288 C1284 0.930 . S
H1289 C1286 0.929 . S
S1290 N1291 1.613 . S
S1290 N1292 1.610 . S
N1291 S1290 1.613 . S
N1291 C1294 1.350 . S
N1292 S1290 1.610 . S
N1292 C1293 1.351 . S
C1293 C1287 1.428 . S
C1293 N1292 1.351 . S
C1293 C1294 1.434 . S
C1294 C1285 1.429 . S
C1294 N1291 1.350 . S
C1294 C1293 1.434 . S
C1295 C1296 1.369 . S
C1295 C1297 1.419 . S
C1295 H1299 0.930 . S
C1296 C1295 1.369 . S
C1296 C1305 1.429 . S
C1297 C1295 1.419 . S
C1297 C1298 1.363 . S
C1297 H1300 0.929 . S
C1298 C1297 1.363 . S
C1298 C1304 1.428 . S
H1299 C1295 0.930 . S
H1300 C1297 0.929 . S
S1301 N1302 1.613 . S
S1301 N1303 1.610 . S
N1302 S1301 1.613 . S
N1302 C1305 1.350 . S
N1303 S1301 1.610 . S
N1303 C1304 1.351 . S
C1304 C1298 1.428 . S
C1304 N1303 1.351 . S
C1304 C1305 1.434 . S
C1305 C1296 1.429 . S
C1305 N1302 1.350 . S
C1305 C1304 1.434 . S
C1306 C1307 1.369 . S
C1306 C1308 1.419 . S
C1306 H1310 0.930 . S
C1307 C1306 1.369 . S
C1307 C1316 1.429 . S
C1308 C1306 1.419 . S
C1308 C1309 1.363 . S
C1308 H1311 0.929 . S
C1309 C1308 1.363 . S
C1309 C1315 1.428 . S
H1310 C1306 0.930 . S
H1311 C1308 0.929 . S
S1312 N1313 1.613 1_554 S
S1312 N1314 1.610 . S
N1313 S1312 1.613 1_556 S
N1313 C1316 1.350 . S
N1314 S1312 1.610 . S
N1314 C1315 1.351 1_554 S
C1315 C1309 1.428 . S
C1315 N1314 1.351 1_556 S
C1315 C1316 1.434 . S
C1316 C1307 1.429 . S
C1316 N1313 1.350 . S
C1316 C1315 1.434 . S
C1317 C1318 1.369 . S
C1317 C1319 1.419 . S
C1317 H1321 0.930 . S
C1318 C1317 1.369 . S
C1318 C1327 1.429 . S
C1319 C1317 1.419 . S
C1319 C1320 1.363 . S
C1319 H1322 0.929 . S
C1320 C1319 1.363 . S
C1320 C1326 1.428 . S
H1321 C1317 0.930 . S
H1322 C1319 0.929 . S
S1323 N1324 1.613 . S
S1323 N1325 1.610 . S
N1324 S1323 1.613 . S
N1324 C1327 1.350 . S
N1325 S1323 1.610 . S
N1325 C1326 1.351 . S
C1326 C1320 1.428 . S
C1326 N1325 1.351 . S
C1326 C1327 1.434 . S
C1327 C1318 1.429 . S
C1327 N1324 1.350 . S
C1327 C1326 1.434 . S
C1328 C1329 1.369 . S
C1328 C1330 1.419 . S
C1328 H1332 0.930 . S
C1329 C1328 1.369 . S
C1329 C1338 1.429 . S
C1330 C1328 1.419 . S
C1330 C1331 1.363 . S
C1330 H1333 0.929 . S
C1331 C1330 1.363 . S
C1331 C1337 1.428 . S
H1332 C1328 0.930 . S
H1333 C1330 0.929 . S
S1334 N1335 1.613 . S
S1334 N1336 1.610 . S
N1335 S1334 1.613 . S
N1335 C1338 1.350 . S
N1336 S1334 1.610 . S
N1336 C1337 1.351 . S
C1337 C1331 1.428 . S
C1337 N1336 1.351 . S
C1337 C1338 1.434 . S
C1338 C1329 1.429 . S
C1338 N1335 1.350 . S
C1338 C1337 1.434 . S
C1339 C1340 1.369 . S
C1339 C1341 1.419 . S
C1339 H1343 0.930 . S
C1340 C1339 1.369 . S
C1340 C1349 1.429 . S
C1341 C1339 1.419 . S
C1341 C1342 1.363 . S
C1341 H1344 0.929 . S
C1342 C1341 1.363 . S
C1342 C1348 1.428 . S
H1343 C1339 0.930 . S
H1344 C1341 0.929 . S
S1345 N1346 1.613 . S
S1345 N1347 1.610 . S
N1346 S1345 1.613 . S
N1346 C1349 1.350 . S
N1347 S1345 1.610 . S
N1347 C1348 1.351 . S
C1348 C1342 1.428 . S
C1348 N1347 1.351 . S
C1348 C1349 1.434 . S
C1349 C1340 1.429 . S
C1349 N1346 1.350 . S
C1349 C1348 1.434 . S
C1350 C1351 1.369 . S
C1350 C1352 1.419 . S
C1350 H1354 0.943 . S
C1351 C1350 1.369 . S
C1351 C1360 1.429 . S
C1352 C1350 1.419 . S
C1352 C1353 1.363 . S
C1352 H1355 0.929 . S
C1353 C1352 1.363 . S
C1353 C1359 1.428 . S
H1354 C1350 0.943 . S
H1355 C1352 0.929 . S
S1356 N1357 1.613 . S
S1356 N1358 1.610 . S
N1357 S1356 1.613 . S
N1357 C1360 1.350 . S
N1358 S1356 1.610 . S
N1358 C1359 1.351 . S
C1359 C1353 1.428 . S
C1359 N1358 1.351 . S
C1359 C1360 1.434 . S
C1360 C1351 1.429 . S
C1360 N1357 1.350 . S
C1360 C1359 1.434 . S
C1361 C1362 1.369 . S
C1361 C1363 1.419 . S
C1361 H1365 0.930 . S
C1362 C1361 1.369 . S
C1362 C1371 1.429 . S
C1363 C1361 1.419 . S
C1363 C1364 1.363 . S
C1363 H1366 0.929 . S
C1364 C1363 1.363 . S
C1364 C1370 1.428 . S
H1365 C1361 0.930 . S
H1366 C1363 0.929 . S
S1367 N1368 1.613 . S
S1367 N1369 1.610 . S
N1368 S1367 1.613 . S
N1368 C1371 1.350 . S
N1369 S1367 1.610 . S
N1369 C1370 1.351 . S
C1370 C1364 1.428 . S
C1370 N1369 1.351 . S
C1370 C1371 1.434 . S
C1371 C1362 1.429 . S
C1371 N1368 1.350 . S
C1371 C1370 1.434 . S
C1372 C1373 1.369 . S
C1372 C1374 1.419 . S
C1372 H1376 0.930 . S
C1373 C1372 1.369 . S
C1373 C1382 1.429 . S
C1374 C1372 1.419 . S
C1374 C1375 1.363 . S
C1374 H1377 0.929 . S
C1375 C1374 1.363 . S
C1375 C1381 1.428 . S
H1376 C1372 0.930 . S
H1377 C1374 0.929 . S
S1378 N1379 1.613 . S
S1378 N1380 1.610 . S
N1379 S1378 1.613 . S
N1379 C1382 1.350 . S
N1380 S1378 1.610 . S
N1380 C1381 1.351 . S
C1381 C1375 1.428 . S
C1381 N1380 1.351 . S
C1381 C1382 1.434 . S
C1382 C1373 1.429 . S
C1382 N1379 1.350 . S
C1382 C1381 1.434 . S
C1383 C1384 1.369 . S
C1383 C1385 1.419 . S
C1383 H1387 0.930 . S
C1384 C1383 1.369 . S
C1384 C1393 1.429 . S
C1385 C1383 1.419 . S
C1385 C1386 1.363 . S
C1385 H1388 0.929 . S
C1386 C1385 1.363 . S
C1386 C1392 1.428 . S
H1387 C1383 0.930 . S
H1388 C1385 0.929 . S
S1389 N1390 1.613 . S
S1389 N1391 1.610 . S
N1390 S1389 1.613 . S
N1390 C1393 1.350 . S
N1391 S1389 1.610 . S
N1391 C1392 1.351 . S
C1392 C1386 1.428 . S
C1392 N1391 1.351 . S
C1392 C1393 1.434 . S
C1393 C1384 1.429 . S
C1393 N1390 1.350 . S
C1393 C1392 1.434 . S
C1394 C1395 1.369 . S
C1394 C1396 1.419 . S
C1394 H1398 0.930 . S
C1395 C1394 1.369 . S
C1395 C1404 1.429 . S
C1396 C1394 1.419 . S
C1396 C1397 1.363 . S
C1396 H1399 0.929 . S
C1397 C1396 1.363 . S
C1397 C1403 1.428 . S
H1398 C1394 0.930 . S
H1399 C1396 0.929 . S
S1400 N1401 1.613 . S
S1400 N1402 1.610 . S
N1401 S1400 1.613 . S
N1401 C1404 1.350 . S
N1402 S1400 1.610 . S
N1402 C1403 1.351 . S
C1403 C1397 1.428 . S
C1403 N1402 1.351 . S
C1403 C1404 1.434 . S
C1404 C1395 1.429 . S
C1404 N1401 1.350 . S
C1404 C1403 1.434 . S
C1405 C1406 1.369 . S
C1405 C1407 1.419 . S
C1405 H1409 0.930 . S
C1406 C1405 1.369 . S
C1406 C1415 1.429 . S
C1407 C1405 1.419 . S
C1407 C1408 1.363 . S
C1407 H1410 0.929 . S
C1408 C1407 1.363 . S
C1408 C1414 1.428 . S
H1409 C1405 0.930 . S
H1410 C1407 0.929 . S
S1411 N1412 1.613 . S
S1411 N1413 1.610 . S
N1412 S1411 1.613 . S
N1412 C1415 1.350 . S
N1413 S1411 1.610 . S
N1413 C1414 1.351 . S
C1414 C1408 1.428 . S
C1414 N1413 1.351 . S
C1414 C1415 1.434 . S
C1415 C1406 1.429 . S
C1415 N1412 1.350 . S
C1415 C1414 1.434 . S
C1416 C1417 1.369 . S
C1416 C1418 1.419 . S
C1416 H1420 0.930 . S
C1417 C1416 1.369 . S
C1417 C1426 1.429 . S
C1418 C1416 1.419 . S
C1418 C1419 1.363 . S
C1418 H1421 0.929 . S
C1419 C1418 1.363 . S
C1419 C1425 1.428 . S
H1420 C1416 0.930 . S
H1421 C1418 0.929 . S
S1422 N1423 1.613 . S
S1422 N1424 1.610 1_554 S
N1423 S1422 1.613 . S
N1423 C1426 1.350 . S
N1424 S1422 1.610 1_556 S
N1424 C1425 1.351 1_556 S
C1425 C1419 1.428 . S
C1425 N1424 1.351 1_554 S
C1425 C1426 1.434 . S
C1426 C1417 1.429 . S
C1426 N1423 1.350 . S
C1426 C1425 1.434 . S
C1427 C1428 1.369 . S
C1427 C1429 1.419 . S
C1427 H1431 0.930 . S
C1428 C1427 1.369 . S
C1428 C1437 1.429 . S
C1429 C1427 1.419 . S
C1429 C1430 1.363 . S
C1429 H1432 0.929 . S
C1430 C1429 1.363 . S
C1430 C1436 1.428 . S
H1431 C1427 0.930 . S
H1432 C1429 0.929 . S
S1433 N1434 1.613 . S
S1433 N1435 1.610 . S
N1434 S1433 1.613 . S
N1434 C1437 1.350 . S
N1435 S1433 1.610 . S
N1435 C1436 1.351 . S
C1436 C1430 1.428 . S
C1436 N1435 1.351 . S
C1436 C1437 1.434 . S
C1437 C1428 1.429 . S
C1437 N1434 1.350 . S
C1437 C1436 1.434 . S
C1438 C1439 1.369 . S
C1438 C1440 1.419 . S
C1438 H1442 0.930 . S
C1439 C1438 1.369 . S
C1439 C1448 1.429 . S
C1440 C1438 1.419 . S
C1440 C1441 1.363 . S
C1440 H1443 0.929 . S
C1441 C1440 1.363 . S
C1441 C1447 1.428 . S
H1442 C1438 0.930 . S
H1443 C1440 0.929 . S
S1444 N1445 1.613 . S
S1444 N1446 1.610 . S
N1445 S1444 1.613 . S
N1445 C1448 1.350 . S
N1446 S1444 1.610 . S
N1446 C1447 1.351 . S
C1447 C1441 1.428 . S
C1447 N1446 1.351 . S
C1447 C1448 1.434 . S
C1448 C1439 1.429 . S
C1448 N1445 1.350 . S
C1448 C1447 1.434 . S
C1449 C1450 1.369 . S
C1449 C1451 1.419 . S
C1449 H1453 0.930 . S
C1450 C1449 1.369 . S
C1450 C1459 1.429 . S
C1451 C1449 1.419 . S
C1451 C1452 1.363 . S
C1451 H1454 0.929 . S
C1452 C1451 1.363 . S
C1452 C1458 1.428 . S
H1453 C1449 0.930 . S
H1454 C1451 0.929 . S
S1455 N1456 1.613 . S
S1455 N1457 1.610 . S
N1456 S1455 1.613 . S
N1456 C1459 1.350 . S
N1457 S1455 1.610 . S
N1457 C1458 1.351 . S
C1458 C1452 1.428 . S
C1458 N1457 1.351 . S
C1458 C1459 1.434 . S
C1459 C1450 1.429 . S
C1459 N1456 1.350 . S
C1459 C1458 1.434 . S
C1460 C1461 1.369 . S
C1460 C1462 1.419 . S
C1460 H1464 0.930 . S
C1461 C1460 1.369 . S
C1461 C1470 1.415 1_545 S
C1462 C1460 1.419 . S
C1462 C1463 1.363 1_545 S
C1462 H1465 0.929 . S
C1463 C1462 1.363 1_565 S
C1463 C1469 1.428 . S
H1464 C1460 0.930 . S
H1465 C1462 0.929 . S
S1466 N1467 1.613 . S
S1466 N1468 1.610 . S
N1467 S1466 1.613 . S
N1467 C1470 1.350 . S
N1468 S1466 1.610 . S
N1468 C1469 1.351 . S
C1469 C1463 1.428 . S
C1469 N1468 1.351 . S
C1469 C1470 1.434 . S
C1470 C1461 1.415 1_565 S
C1470 N1467 1.350 . S
C1470 C1469 1.434 . S
C1471 C1472 1.369 . S
C1471 C1473 1.419 . S
C1471 H1475 0.930 . S
C1472 C1471 1.369 . S
C1472 C1481 1.429 . S
C1473 C1471 1.419 . S
C1473 C1474 1.363 . S
C1473 H1476 0.929 . S
C1474 C1473 1.363 . S
C1474 C1480 1.428 . S
H1475 C1471 0.930 . S
H1476 C1473 0.929 . S
S1477 N1478 1.613 . S
S1477 N1479 1.610 . S
N1478 S1477 1.613 . S
N1478 C1481 1.350 . S
N1479 S1477 1.610 . S
N1479 C1480 1.351 . S
C1480 C1474 1.428 . S
C1480 N1479 1.351 . S
C1480 C1481 1.434 . S
C1481 C1472 1.429 . S
C1481 N1478 1.350 . S
C1481 C1480 1.434 . S
C1482 C1483 1.369 . S
C1482 C1484 1.419 . S
C1482 H1486 0.930 . S
C1483 C1482 1.369 . S
C1483 C1492 1.429 . S
C1484 C1482 1.419 . S
C1484 C1485 1.363 . S
C1484 H1487 0.929 . S
C1485 C1484 1.363 . S
C1485 C1491 1.428 . S
H1486 C1482 0.930 . S
H1487 C1484 0.929 . S
S1488 N1489 1.613 . S
S1488 N1490 1.610 . S
N1489 S1488 1.613 . S
N1489 C1492 1.350 . S
N1490 S1488 1.610 . S
N1490 C1491 1.351 . S
C1491 C1485 1.428 . S
C1491 N1490 1.351 . S
C1491 C1492 1.434 . S
C1492 C1483 1.429 . S
C1492 N1489 1.350 . S
C1492 C1491 1.434 . S
C1493 C1494 1.369 . S
C1493 C1495 1.419 . S
C1493 H1497 0.930 . S
C1494 C1493 1.369 . S
C1494 C1503 1.429 . S
C1495 C1493 1.419 . S
C1495 C1496 1.363 . S
C1495 H1498 0.929 . S
C1496 C1495 1.363 . S
C1496 C1502 1.428 . S
H1497 C1493 0.930 . S
H1498 C1495 0.929 . S
S1499 N1500 1.613 . S
S1499 N1501 1.610 . S
N1500 S1499 1.613 . S
N1500 C1503 1.350 . S
N1501 S1499 1.610 . S
N1501 C1502 1.351 . S
C1502 C1496 1.428 . S
C1502 N1501 1.351 . S
C1502 C1503 1.434 . S
C1503 C1494 1.429 . S
C1503 N1500 1.350 . S
C1503 C1502 1.434 . S
C1504 C1505 1.369 . S
C1504 C1506 1.419 . S
C1504 H1508 0.930 . S
C1505 C1504 1.369 . S
C1505 C1514 1.429 . S
C1506 C1504 1.419 . S
C1506 C1507 1.363 . S
C1506 H1509 0.929 . S
C1507 C1506 1.363 . S
C1507 C1513 1.428 . S
H1508 C1504 0.930 . S
H1509 C1506 0.929 . S
S1510 N1511 1.613 . S
S1510 N1512 1.610 . S
N1511 S1510 1.613 . S
N1511 C1514 1.350 . S
N1512 S1510 1.610 . S
N1512 C1513 1.351 . S
C1513 C1507 1.428 . S
C1513 N1512 1.351 . S
C1513 C1514 1.434 . S
C1514 C1505 1.429 . S
C1514 N1511 1.350 . S
C1514 C1513 1.434 . S
C1515 C1516 1.369 . S
C1515 C1517 1.419 . S
C1515 H1519 0.930 . S
C1516 C1515 1.369 . S
C1516 C1525 1.429 . S
C1517 C1515 1.419 . S
C1517 C1518 1.363 . S
C1517 H1520 0.929 . S
C1518 C1517 1.363 . S
C1518 C1524 1.428 . S
H1519 C1515 0.930 . S
H1520 C1517 0.929 . S
S1521 N1522 1.613 . S
S1521 N1523 1.610 . S
N1522 S1521 1.613 . S
N1522 C1525 1.350 . S
N1523 S1521 1.610 . S
N1523 C1524 1.351 . S
C1524 C1518 1.428 . S
C1524 N1523 1.351 . S
C1524 C1525 1.434 . S
C1525 C1516 1.429 . S
C1525 N1522 1.350 . S
C1525 C1524 1.434 . S
C1526 C1527 1.369 1_554 S
C1526 C1528 1.419 . S
C1526 H1530 0.930 . S
C1527 C1526 1.369 1_556 S
C1527 C1536 1.429 . S
C1528 C1526 1.419 . S
C1528 C1529 1.363 . S
C1528 H1531 0.929 . S
C1529 C1528 1.363 . S
C1529 C1535 1.428 1_554 S
H1530 C1526 0.930 . S
H1531 C1528 0.929 . S
S1532 N1533 1.613 . S
S1532 N1534 1.610 . S
N1533 S1532 1.613 . S
N1533 C1536 1.350 . S
N1534 S1532 1.610 . S
N1534 C1535 1.351 . S
C1535 C1529 1.428 1_556 S
C1535 N1534 1.351 . S
C1535 C1536 1.434 . S
C1536 C1527 1.429 . S
C1536 N1533 1.350 . S
C1536 C1535 1.434 . S
C1537 C1538 1.369 . S
C1537 C1539 1.419 1_455 S
C1537 H1541 0.930 . S
C1538 C1537 1.369 . S
C1538 C1547 1.429 . S
C1539 C1537 1.419 1_655 S
C1539 C1540 1.363 . S
C1539 H1542 0.929 . S
C1540 C1539 1.363 . S
C1540 C1546 1.428 . S
H1541 C1537 0.930 . S
H1542 C1539 0.929 . S
S1543 N1544 1.613 . S
S1543 N1545 1.610 1_455 S
N1544 S1543 1.613 . S
N1544 C1547 1.350 . S
N1545 S1543 1.610 1_655 S
N1545 C1546 1.351 . S
C1546 C1540 1.428 . S
C1546 N1545 1.351 . S
C1546 C1547 1.434 1_655 S
C1547 C1538 1.429 . S
C1547 N1544 1.350 . S
C1547 C1546 1.434 1_455 S
C1548 C1549 1.369 . S
C1548 C1550 1.419 . S
C1548 H1552 0.930 . S
C1549 C1548 1.369 . S
C1549 C1558 1.429 . S
C1550 C1548 1.419 . S
C1550 C1551 1.363 . S
C1550 H1553 0.929 . S
C1551 C1550 1.363 . S
C1551 C1557 1.428 . S
H1552 C1548 0.930 . S
H1553 C1550 0.929 . S
S1554 N1555 1.613 . S
S1554 N1556 1.610 . S
N1555 S1554 1.613 . S
N1555 C1558 1.350 . S
N1556 S1554 1.610 . S
N1556 C1557 1.351 . S
C1557 C1551 1.428 . S
C1557 N1556 1.351 . S
C1557 C1558 1.434 . S
C1558 C1549 1.429 . S
C1558 N1555 1.350 . S
C1558 C1557 1.434 . S
C1559 C1560 1.369 . S
C1559 C1561 1.419 . S
C1559 H1563 0.930 . S
C1560 C1559 1.369 . S
C1560 C1569 1.429 . S
C1561 C1559 1.419 . S
C1561 C1562 1.363 . S
C1561 H1564 0.929 . S
C1562 C1561 1.363 . S
C1562 C1568 1.428 . S
H1563 C1559 0.930 . S
H1564 C1561 0.929 . S
S1565 N1566 1.613 . S
S1565 N1567 1.610 . S
N1566 S1565 1.613 . S
N1566 C1569 1.350 . S
N1567 S1565 1.610 . S
N1567 C1568 1.351 . S
C1568 C1562 1.428 . S
C1568 N1567 1.351 . S
C1568 C1569 1.434 . S
C1569 C1560 1.429 . S
C1569 N1566 1.350 . S
C1569 C1568 1.434 . S
C1570 C1571 1.369 . S
C1570 C1572 1.419 . S
C1570 H1574 0.930 . S
C1571 C1570 1.369 . S
C1571 C1580 1.429 . S
C1572 C1570 1.419 . S
C1572 C1573 1.363 . S
C1572 H1575 0.929 . S
C1573 C1572 1.363 . S
C1573 C1579 1.428 . S
H1574 C1570 0.930 . S
H1575 C1572 0.929 . S
S1576 N1577 1.613 . S
S1576 N1578 1.610 . S
N1577 S1576 1.613 . S
N1577 C1580 1.350 . S
N1578 S1576 1.610 . S
N1578 C1579 1.351 . S
C1579 C1573 1.428 . S
C1579 N1578 1.351 . S
C1579 C1580 1.434 . S
C1580 C1571 1.429 . S
C1580 N1577 1.350 . S
C1580 C1579 1.434 . S
C1581 C1582 1.369 . S
C1581 C1583 1.419 . S
C1581 H1585 0.930 . S
C1582 C1581 1.369 . S
C1582 C1591 1.429 . S
C1583 C1581 1.419 . S
C1583 C1584 1.363 . S
C1583 H1586 0.929 . S
C1584 C1583 1.363 . S
C1584 C1590 1.428 . S
H1585 C1581 0.930 . S
H1586 C1583 0.929 . S
S1587 N1588 1.613 . S
S1587 N1589 1.610 . S
N1588 S1587 1.613 . S
N1588 C1591 1.350 . S
N1589 S1587 1.610 . S
N1589 C1590 1.351 . S
C1590 C1584 1.428 . S
C1590 N1589 1.351 . S
C1590 C1591 1.434 . S
C1591 C1582 1.429 . S
C1591 N1588 1.350 . S
C1591 C1590 1.434 . S
C1592 C1593 1.369 . S
C1592 C1594 1.419 . S
C1592 H1596 0.930 . S
C1593 C1592 1.369 . S
C1593 C1602 1.429 . S
C1594 C1592 1.419 . S
C1594 C1595 1.363 . S
C1594 H1597 0.929 . S
C1595 C1594 1.363 . S
C1595 C1601 1.428 . S
H1596 C1592 0.930 . S
H1597 C1594 0.929 . S
S1598 N1599 1.613 . S
S1598 N1600 1.610 . S
N1599 S1598 1.613 . S
N1599 C1602 1.350 . S
N1600 S1598 1.610 . S
N1600 C1601 1.351 . S
C1601 C1595 1.428 . S
C1601 N1600 1.351 . S
C1601 C1602 1.434 . S
C1602 C1593 1.429 . S
C1602 N1599 1.350 . S
C1602 C1601 1.434 . S
C1603 C1604 1.369 . S
C1603 C1605 1.419 1_554 S
C1603 H1607 0.930 . S
C1604 C1603 1.369 . S
C1604 C1613 1.429 . S
C1605 C1603 1.419 1_556 S
C1605 C1606 1.363 . S
C1605 H1608 0.929 . S
C1606 C1605 1.363 . S
C1606 C1612 1.428 . S
H1607 C1603 0.930 . S
H1608 C1605 0.929 . S
S1609 N1610 1.613 1_556 S
S1609 N1611 1.610 . S
N1610 S1609 1.613 1_554 S
N1610 C1613 1.350 . S
N1611 S1609 1.610 . S
N1611 C1612 1.351 . S
C1612 C1606 1.428 . S
C1612 N1611 1.351 . S
C1612 C1613 1.434 1_556 S
C1613 C1604 1.429 . S
C1613 N1610 1.350 . S
C1613 C1612 1.434 1_554 S
C1614 C1615 1.369 . S
C1614 C1616 1.419 . S
C1614 H1618 0.930 . S
C1615 C1614 1.369 . S
C1615 C1624 1.429 . S
C1616 C1614 1.419 . S
C1616 C1617 1.363 . S
C1616 H1619 0.929 . S
C1617 C1616 1.363 . S
C1617 C1623 1.428 . S
H1618 C1614 0.930 . S
H1619 C1616 0.929 . S
S1620 N1621 1.613 . S
S1620 N1622 1.610 . S
N1621 S1620 1.613 . S
N1621 C1624 1.350 . S
N1622 S1620 1.610 . S
N1622 C1623 1.351 . S
C1623 C1617 1.428 . S
C1623 N1622 1.351 . S
C1623 C1624 1.434 . S
C1624 C1615 1.429 . S
C1624 N1621 1.350 . S
C1624 C1623 1.434 . S
C1625 C1626 1.369 . S
C1625 C1627 1.419 . S
C1625 H1629 0.930 . S
C1626 C1625 1.369 . S
C1626 C1635 1.429 . S
C1627 C1625 1.419 . S
C1627 C1628 1.363 . S
C1627 H1630 0.929 . S
C1628 C1627 1.363 . S
C1628 C1634 1.428 . S
H1629 C1625 0.930 . S
H1630 C1627 0.929 . S
S1631 N1632 1.613 . S
S1631 N1633 1.610 . S
N1632 S1631 1.613 . S
N1632 C1635 1.350 . S
N1633 S1631 1.610 . S
N1633 C1634 1.351 . S
C1634 C1628 1.428 . S
C1634 N1633 1.351 . S
C1634 C1635 1.434 . S
C1635 C1626 1.429 . S
C1635 N1632 1.350 . S
C1635 C1634 1.434 . S
C1636 C1637 1.369 . S
C1636 C1638 1.419 . S
C1636 H1640 0.930 . S
C1637 C1636 1.369 . S
C1637 C1646 1.429 . S
C1638 C1636 1.419 . S
C1638 C1639 1.363 . S
C1638 H1641 0.929 . S
C1639 C1638 1.363 . S
C1639 C1645 1.428 . S
H1640 C1636 0.930 . S
H1641 C1638 0.929 . S
S1642 N1643 1.613 . S
S1642 N1644 1.610 . S
N1643 S1642 1.613 . S
N1643 C1646 1.350 . S
N1644 S1642 1.610 . S
N1644 C1645 1.351 . S
C1645 C1639 1.428 . S
C1645 N1644 1.351 . S
C1645 C1646 1.434 . S
C1646 C1637 1.429 . S
C1646 N1643 1.350 . S
C1646 C1645 1.434 . S
C1647 C1648 1.369 . S
C1647 C1649 1.419 . S
C1647 H1651 0.930 . S
C1648 C1647 1.369 . S
C1648 C1657 1.429 . S
C1649 C1647 1.419 . S
C1649 C1650 1.363 . S
C1649 H1652 0.929 . S
C1650 C1649 1.363 . S
C1650 C1656 1.428 . S
H1651 C1647 0.930 . S
H1652 C1649 0.929 . S
S1653 N1654 1.613 . S
S1653 N1655 1.610 . S
N1654 S1653 1.613 . S
N1654 C1657 1.350 . S
N1655 S1653 1.610 . S
N1655 C1656 1.351 . S
C1656 C1650 1.428 . S
C1656 N1655 1.351 . S
C1656 C1657 1.434 . S
C1657 C1648 1.429 . S
C1657 N1654 1.350 . S
C1657 C1656 1.434 . S
C1658 C1659 1.369 . S
C1658 C1660 1.419 . S
C1658 H1662 0.930 . S
C1659 C1658 1.369 . S
C1659 C1668 1.429 . S
C1660 C1658 1.419 . S
C1660 C1661 1.363 . S
C1660 H1663 0.929 . S
C1661 C1660 1.363 . S
C1661 C1667 1.428 . S
H1662 C1658 0.930 . S
H1663 C1660 0.929 . S
S1664 N1665 1.613 . S
S1664 N1666 1.610 . S
N1665 S1664 1.613 . S
N1665 C1668 1.350 . S
N1666 S1664 1.610 . S
N1666 C1667 1.351 . S
C1667 C1661 1.428 . S
C1667 N1666 1.351 . S
C1667 C1668 1.434 . S
C1668 C1659 1.429 . S
C1668 N1665 1.350 . S
C1668 C1667 1.434 . S
C1669 C1670 1.369 . S
C1669 C1671 1.419 . S
C1669 H1673 0.930 . S
C1670 C1669 1.369 . S
C1670 C1679 1.429 . S
C1671 C1669 1.419 . S
C1671 C1672 1.363 . S
C1671 H1674 0.929 . S
C1672 C1671 1.363 . S
C1672 C1678 1.428 . S
H1673 C1669 0.930 . S
H1674 C1671 0.929 . S
S1675 N1676 1.613 . S
S1675 N1677 1.610 . S
N1676 S1675 1.613 . S
N1676 C1679 1.350 . S
N1677 S1675 1.610 . S
N1677 C1678 1.351 . S
C1678 C1672 1.428 . S
C1678 N1677 1.351 . S
C1678 C1679 1.434 . S
C1679 C1670 1.429 . S
C1679 N1676 1.350 . S
C1679 C1678 1.434 . S
C1680 C1681 1.369 . S
C1680 C1682 1.419 . S
C1680 H1684 0.930 . S
C1681 C1680 1.369 . S
C1681 C1690 1.429 . S
C1682 C1680 1.419 . S
C1682 C1683 1.363 . S
C1682 H1685 0.929 . S
C1683 C1682 1.363 . S
C1683 C1689 1.428 . S
H1684 C1680 0.930 . S
H1685 C1682 0.929 . S
S1686 N1687 1.613 . S
S1686 N1688 1.610 . S
N1687 S1686 1.613 . S
N1687 C1690 1.350 . S
N1688 S1686 1.610 . S
N1688 C1689 1.351 . S
C1689 C1683 1.428 . S
C1689 N1688 1.351 . S
C1689 C1690 1.434 . S
C1690 C1681 1.429 . S
C1690 N1687 1.350 . S
C1690 C1689 1.434 . S
C1691 C1692 1.369 . S
C1691 C1693 1.419 . S
C1691 H1695 0.930 . S
C1692 C1691 1.369 . S
C1692 C1701 1.429 . S
C1693 C1691 1.419 . S
C1693 C1694 1.363 . S
C1693 H1696 0.929 . S
C1694 C1693 1.363 . S
C1694 C1700 1.428 . S
H1695 C1691 0.930 . S
H1696 C1693 0.929 . S
S1697 N1698 1.613 . S
S1697 N1699 1.610 . S
N1698 S1697 1.613 . S
N1698 C1701 1.350 . S
N1699 S1697 1.610 . S
N1699 C1700 1.351 . S
C1700 C1694 1.428 . S
C1700 N1699 1.351 . S
C1700 C1701 1.434 . S
C1701 C1692 1.429 . S
C1701 N1698 1.350 . S
C1701 C1700 1.434 . S
C1702 C1703 1.369 . S
C1702 C1704 1.419 . S
C1702 H1706 0.930 . S
C1703 C1702 1.369 . S
C1703 C1712 1.429 1_545 S
C1704 C1702 1.419 . S
C1704 C1705 1.363 . S
C1704 H1707 0.929 . S
C1705 C1704 1.363 . S
C1705 C1711 1.428 1_545 S
H1706 C1702 0.930 . S
H1707 C1704 0.929 . S
S1708 N1709 1.613 . S
S1708 N1710 1.610 . S
N1709 S1708 1.613 . S
N1709 C1712 1.350 . S
N1710 S1708 1.610 . S
N1710 C1711 1.351 . S
C1711 C1705 1.428 1_565 S
C1711 N1710 1.351 . S
C1711 C1712 1.434 . S
C1712 C1703 1.429 1_565 S
C1712 N1709 1.350 . S
C1712 C1711 1.434 . S
C1713 C1714 1.369 . S
C1713 C1715 1.419 . S
C1713 H1717 0.930 1_554 S
C1714 C1713 1.369 . S
C1714 C1723 1.429 1_565 S
C1715 C1713 1.419 . S
C1715 C1716 1.363 1_565 S
C1715 H1718 0.929 . S
C1716 C1715 1.363 1_545 S
C1716 C1722 1.428 . S
H1717 C1713 0.930 1_556 S
H1718 C1715 0.929 . S
S1719 N1720 1.613 . S
S1719 N1721 1.610 . S
N1720 S1719 1.613 . S
N1720 C1723 1.350 . S
N1721 S1719 1.610 . S
N1721 C1722 1.351 . S
C1722 C1716 1.428 . S
C1722 N1721 1.351 . S
C1722 C1723 1.434 . S
C1723 C1714 1.429 1_545 S
C1723 N1720 1.350 . S
C1723 C1722 1.434 . S
C1724 C1725 1.369 . S
C1724 C1726 1.419 . S
C1724 H1728 0.930 . S
C1725 C1724 1.369 . S
C1725 C1734 1.429 . S
C1726 C1724 1.419 . S
C1726 C1727 1.363 . S
C1726 H1729 0.929 . S
C1727 C1726 1.363 . S
C1727 C1733 1.428 . S
H1728 C1724 0.930 . S
H1729 C1726 0.929 . S
S1730 N1731 1.613 . S
S1730 N1732 1.610 . S
N1731 S1730 1.613 . S
N1731 C1734 1.350 . S
N1732 S1730 1.610 . S
N1732 C1733 1.351 . S
C1733 C1727 1.428 . S
C1733 N1732 1.351 . S
C1733 C1734 1.434 . S
C1734 C1725 1.429 . S
C1734 N1731 1.350 . S
C1734 C1733 1.434 . S
C1735 C1736 1.369 . S
C1735 C1737 1.419 . S
C1735 H1739 0.930 . S
C1736 C1735 1.369 . S
C1736 C1745 1.429 . S
C1737 C1735 1.419 . S
C1737 C1738 1.363 . S
C1737 H1740 0.929 . S
C1738 C1737 1.363 . S
C1738 C1744 1.428 . S
H1739 C1735 0.930 . S
H1740 C1737 0.929 . S
S1741 N1742 1.613 . S
S1741 N1743 1.610 . S
N1742 S1741 1.613 . S
N1742 C1745 1.350 . S
N1743 S1741 1.610 . S
N1743 C1744 1.351 . S
C1744 C1738 1.428 . S
C1744 N1743 1.351 . S
C1744 C1745 1.434 . S
C1745 C1736 1.429 . S
C1745 N1742 1.350 . S
C1745 C1744 1.434 . S
C1746 C1747 1.369 . S
C1746 C1748 1.419 . S
C1746 H1750 0.930 . S
C1747 C1746 1.369 . S
C1747 C1756 1.429 . S
C1748 C1746 1.419 . S
C1748 C1749 1.363 . S
C1748 H1751 0.929 . S
C1749 C1748 1.363 . S
C1749 C1755 1.428 . S
H1750 C1746 0.930 . S
H1751 C1748 0.929 . S
S1752 N1753 1.613 . S
S1752 N1754 1.610 . S
N1753 S1752 1.613 . S
N1753 C1756 1.350 . S
N1754 S1752 1.610 . S
N1754 C1755 1.351 . S
C1755 C1749 1.428 . S
C1755 N1754 1.351 . S
C1755 C1756 1.434 . S
C1756 C1747 1.429 . S
C1756 N1753 1.350 . S
C1756 C1755 1.434 . S
C1757 C1758 1.369 . S
C1757 C1759 1.419 . S
C1757 H1761 0.930 . S
C1758 C1757 1.369 . S
C1758 C1767 1.429 . S
C1759 C1757 1.419 . S
C1759 C1760 1.363 . S
C1759 H1762 0.929 . S
C1760 C1759 1.363 . S
C1760 C1766 1.428 . S
H1761 C1757 0.930 . S
H1762 C1759 0.929 . S
S1763 N1764 1.613 . S
S1763 N1765 1.610 . S
N1764 S1763 1.613 . S
N1764 C1767 1.350 . S
N1765 S1763 1.610 . S
N1765 C1766 1.351 . S
C1766 C1760 1.428 . S
C1766 N1765 1.351 . S
C1766 C1767 1.434 . S
C1767 C1758 1.429 . S
C1767 N1764 1.350 . S
C1767 C1766 1.434 . S
C1768 C1769 1.369 . S
C1768 C1770 1.419 . S
C1768 H1772 0.930 . S
C1769 C1768 1.369 . S
C1769 C1778 1.429 . S
C1770 C1768 1.419 . S
C1770 C1771 1.363 . S
C1770 H1773 0.929 . S
C1771 C1770 1.363 . S
C1771 C1777 1.428 . S
H1772 C1768 0.930 . S
H1773 C1770 0.929 . S
S1774 N1775 1.613 . S
S1774 N1776 1.610 . S
N1775 S1774 1.613 . S
N1775 C1778 1.350 . S
N1776 S1774 1.610 . S
N1776 C1777 1.351 . S
C1777 C1771 1.428 . S
C1777 N1776 1.351 . S
C1777 C1778 1.434 . S
C1778 C1769 1.429 . S
C1778 N1775 1.350 . S
C1778 C1777 1.434 . S
C1779 C1780 1.369 . S
C1779 C1781 1.419 . S
C1779 H1783 0.930 . S
C1780 C1779 1.369 . S
C1780 C1789 1.429 . S
C1781 C1779 1.419 . S
C1781 C1782 1.363 . S
C1781 H1784 0.929 . S
C1782 C1781 1.363 . S
C1782 C1788 1.428 . S
H1783 C1779 0.930 . S
H1784 C1781 0.929 . S
S1785 N1786 1.613 . S
S1785 N1787 1.610 . S
N1786 S1785 1.613 . S
N1786 C1789 1.350 . S
N1787 S1785 1.610 . S
N1787 C1788 1.351 . S
C1788 C1782 1.428 . S
C1788 N1787 1.351 . S
C1788 C1789 1.434 . S
C1789 C1780 1.429 . S
C1789 N1786 1.350 . S
C1789 C1788 1.434 . S
C1790 C1791 1.369 . S
C1790 C1792 1.419 . S
C1790 H1794 0.930 . S
C1791 C1790 1.369 . S
C1791 C1800 1.429 . S
C1792 C1790 1.419 . S
C1792 C1793 1.363 . S
C1792 H1795 0.929 . S
C1793 C1792 1.363 . S
C1793 C1799 1.428 . S
H1794 C1790 0.930 . S
H1795 C1792 0.929 . S
S1796 N1797 1.613 . S
S1796 N1798 1.610 . S
N1797 S1796 1.613 . S
N1797 C1800 1.350 . S
N1798 S1796 1.610 . S
N1798 C1799 1.351 . S
C1799 C1793 1.428 . S
C1799 N1798 1.351 . S
C1799 C1800 1.434 . S
C1800 C1791 1.429 . S
C1800 N1797 1.350 . S
C1800 C1799 1.434 . S
C1801 C1802 1.369 . S
C1801 C1803 1.419 . S
C1801 H1805 0.930 . S
C1802 C1801 1.369 . S
C1802 C1811 1.429 . S
C1803 C1801 1.419 . S
C1803 C1804 1.363 . S
C1803 H1806 0.929 . S
C1804 C1803 1.363 . S
C1804 C1810 1.428 . S
H1805 C1801 0.930 . S
H1806 C1803 0.929 . S
S1807 N1808 1.613 . S
S1807 N1809 1.610 . S
N1808 S1807 1.613 . S
N1808 C1811 1.350 . S
N1809 S1807 1.610 . S
N1809 C1810 1.351 . S
C1810 C1804 1.428 . S
C1810 N1809 1.351 . S
C1810 C1811 1.434 . S
C1811 C1802 1.429 . S
C1811 N1808 1.350 . S
C1811 C1810 1.434 . S
C1812 C1813 1.369 . S
C1812 C1814 1.419 . S
C1812 H1816 0.930 . S
C1813 C1812 1.369 . S
C1813 C1822 1.429 . S
C1814 C1812 1.419 . S
C1814 C1815 1.363 . S
C1814 H1817 0.929 1_556 S
C1815 C1814 1.363 . S
C1815 C1821 1.428 . S
H1816 C1812 0.930 . S
H1817 C1814 0.929 1_554 S
S1818 N1819 1.613 . S
S1818 N1820 1.610 . S
N1819 S1818 1.613 . S
N1819 C1822 1.350 . S
N1820 S1818 1.610 . S
N1820 C1821 1.351 . S
C1821 C1815 1.428 . S
C1821 N1820 1.351 . S
C1821 C1822 1.434 . S
C1822 C1813 1.429 . S
C1822 N1819 1.350 . S
C1822 C1821 1.434 . S
C1823 C1824 1.369 . S
C1823 C1825 1.419 . S
C1823 H1827 0.930 . S
C1824 C1823 1.369 . S
C1824 C1833 1.429 . S
C1825 C1823 1.419 . S
C1825 C1826 1.363 . S
C1825 H1828 0.929 . S
C1826 C1825 1.363 . S
C1826 C1832 1.428 . S
H1827 C1823 0.930 . S
H1828 C1825 0.929 . S
S1829 N1830 1.613 . S
S1829 N1831 1.610 . S
N1830 S1829 1.613 . S
N1830 C1833 1.350 . S
N1831 S1829 1.610 . S
N1831 C1832 1.351 . S
C1832 C1826 1.428 . S
C1832 N1831 1.351 . S
C1832 C1833 1.434 . S
C1833 C1824 1.429 . S
C1833 N1830 1.350 . S
C1833 C1832 1.434 . S
C1834 C1835 1.369 . S
C1834 C1836 1.419 . S
C1834 H1838 0.930 . S
C1835 C1834 1.369 . S
C1835 C1844 1.429 . S
C1836 C1834 1.419 . S
C1836 C1837 1.363 . S
C1836 H1839 0.929 . S
C1837 C1836 1.363 . S
C1837 C1843 1.428 . S
H1838 C1834 0.930 . S
H1839 C1836 0.929 . S
S1840 N1841 1.613 . S
S1840 N1842 1.610 . S
N1841 S1840 1.613 . S
N1841 C1844 1.350 . S
N1842 S1840 1.610 . S
N1842 C1843 1.351 . S
C1843 C1837 1.428 . S
C1843 N1842 1.351 . S
C1843 C1844 1.434 . S
C1844 C1835 1.429 . S
C1844 N1841 1.350 . S
C1844 C1843 1.434 . S
C1845 C1846 1.369 . S
C1845 C1847 1.419 . S
C1845 H1849 0.930 . S
C1846 C1845 1.369 . S
C1846 C1855 1.429 . S
C1847 C1845 1.419 . S
C1847 C1848 1.363 . S
C1847 H1850 0.929 . S
C1848 C1847 1.363 . S
C1848 C1854 1.428 . S
H1849 C1845 0.930 . S
H1850 C1847 0.929 . S
S1851 N1852 1.613 . S
S1851 N1853 1.610 . S
N1852 S1851 1.613 . S
N1852 C1855 1.350 . S
N1853 S1851 1.610 . S
N1853 C1854 1.351 . S
C1854 C1848 1.428 . S
C1854 N1853 1.351 . S
C1854 C1855 1.434 . S
C1855 C1846 1.429 . S
C1855 N1852 1.350 . S
C1855 C1854 1.434 . S
C1856 C1857 1.369 . S
C1856 C1858 1.419 . S
C1856 H1860 0.930 . S
C1857 C1856 1.369 . S
C1857 C1866 1.429 . S
C1858 C1856 1.419 . S
C1858 C1859 1.363 . S
C1858 H1861 0.929 . S
C1859 C1858 1.363 . S
C1859 C1865 1.428 . S
H1860 C1856 0.930 . S
H1861 C1858 0.929 . S
S1862 N1863 1.613 . S
S1862 N1864 1.610 . S
N1863 S1862 1.613 . S
N1863 C1866 1.350 . S
N1864 S1862 1.610 . S
N1864 C1865 1.351 . S
C1865 C1859 1.428 . S
C1865 N1864 1.351 . S
C1865 C1866 1.434 . S
C1866 C1857 1.429 . S
C1866 N1863 1.350 . S
C1866 C1865 1.434 . S
C1867 C1868 1.369 . S
C1867 C1869 1.419 . S
C1867 H1871 0.930 . S
C1868 C1867 1.369 . S
C1868 C1877 1.429 . S
C1869 C1867 1.419 . S
C1869 C1870 1.363 . S
C1869 H1872 0.929 . S
C1870 C1869 1.363 . S
C1870 C1876 1.428 . S
H1871 C1867 0.930 . S
H1872 C1869 0.929 . S
S1873 N1874 1.613 . S
S1873 N1875 1.610 . S
N1874 S1873 1.613 . S
N1874 C1877 1.350 . S
N1875 S1873 1.610 . S
N1875 C1876 1.351 . S
C1876 C1870 1.428 . S
C1876 N1875 1.351 . S
C1876 C1877 1.434 . S
C1877 C1868 1.429 . S
C1877 N1874 1.350 . S
C1877 C1876 1.434 . S
C1878 C1879 1.369 . S
C1878 C1880 1.419 . S
C1878 H1882 0.930 . S
C1879 C1878 1.369 . S
C1879 C1888 1.429 1_655 S
C1880 C1878 1.419 . S
C1880 C1881 1.363 1_655 S
C1880 H1883 0.929 . S
C1881 C1880 1.363 1_455 S
C1881 C1887 1.428 . S
H1882 C1878 0.930 . S
H1883 C1880 0.929 . S
S1884 N1885 1.613 . S
S1884 N1886 1.610 . S
N1885 S1884 1.613 . S
N1885 C1888 1.350 . S
N1886 S1884 1.610 . S
N1886 C1887 1.351 . S
C1887 C1881 1.428 . S
C1887 N1886 1.351 . S
C1887 C1888 1.434 . S
C1888 C1879 1.429 1_455 S
C1888 N1885 1.350 . S
C1888 C1887 1.434 . S
C1889 C1890 1.369 . S
C1889 C1891 1.419 . S
C1889 H1893 0.930 . S
C1890 C1889 1.369 . S
C1890 C1899 1.429 . S
C1891 C1889 1.419 . S
C1891 C1892 1.363 . S
C1891 H1894 0.929 . S
C1892 C1891 1.363 . S
C1892 C1898 1.428 . S
H1893 C1889 0.930 . S
H1894 C1891 0.929 . S
S1895 N1896 1.613 . S
S1895 N1897 1.610 . S
N1896 S1895 1.613 . S
N1896 C1899 1.350 . S
N1897 S1895 1.610 . S
N1897 C1898 1.351 . S
C1898 C1892 1.428 . S
C1898 N1897 1.351 . S
C1898 C1899 1.434 . S
C1899 C1890 1.429 . S
C1899 N1896 1.350 . S
C1899 C1898 1.434 . S
C1900 C1901 1.369 . S
C1900 C1902 1.419 . S
C1900 H1904 0.930 . S
C1901 C1900 1.369 . S
C1901 C1910 1.429 . S
C1902 C1900 1.419 . S
C1902 C1903 1.363 . S
C1902 H1905 0.929 . S
C1903 C1902 1.363 . S
C1903 C1909 1.428 . S
H1904 C1900 0.930 . S
H1905 C1902 0.929 . S
S1906 N1907 1.613 . S
S1906 N1908 1.610 . S
N1907 S1906 1.613 . S
N1907 C1910 1.350 . S
N1908 S1906 1.610 . S
N1908 C1909 1.351 . S
C1909 C1903 1.428 . S
C1909 N1908 1.351 . S
C1909 C1910 1.434 . S
C1910 C1901 1.429 . S
C1910 N1907 1.350 . S
C1910 C1909 1.434 . S
C1911 C1912 1.369 . S
C1911 C1913 1.419 . S
C1911 H1915 0.930 . S
C1912 C1911 1.369 . S
C1912 C1921 1.429 . S
C1913 C1911 1.419 . S
C1913 C1914 1.363 . S
C1913 H1916 0.929 . S
C1914 C1913 1.363 . S
C1914 C1920 1.428 . S
H1915 C1911 0.930 . S
H1916 C1913 0.929 . S
S1917 N1918 1.613 . S
S1917 N1919 1.610 . S
N1918 S1917 1.613 . S
N1918 C1921 1.350 . S
N1919 S1917 1.610 . S
N1919 C1920 1.351 . S
C1920 C1914 1.428 . S
C1920 N1919 1.351 . S
C1920 C1921 1.434 . S
C1921 C1912 1.429 . S
C1921 N1918 1.350 . S
C1921 C1920 1.434 . S
C1922 C1923 1.369 . S
C1922 C1924 1.419 . S
C1922 H1926 0.930 . S
C1923 C1922 1.369 . S
C1923 C1932 1.429 . S
C1924 C1922 1.419 . S
C1924 C1925 1.363 . S
C1924 H1927 0.929 . S
C1925 C1924 1.363 . S
C1925 C1931 1.435 1_655 S
H1926 C1922 0.930 . S
H1927 C1924 0.929 . S
S1928 N1929 1.613 1_455 S
S1928 N1930 1.610 . S
N1929 S1928 1.613 1_655 S
N1929 C1932 1.350 . S
N1930 S1928 1.610 . S
N1930 C1931 1.359 . S
C1931 C1925 1.435 1_455 S
C1931 N1930 1.359 . S
C1931 C1932 1.418 1_455 S
C1932 C1923 1.429 . S
C1932 N1929 1.350 . S
C1932 C1931 1.418 1_655 S
C1933 C1934 1.369 . S
C1933 C1935 1.419 . S
C1933 H1937 0.930 . S
C1934 C1933 1.369 . S
C1934 C1943 1.429 . S
C1935 C1933 1.419 . S
C1935 C1936 1.363 . S
C1935 H1938 0.929 . S
C1936 C1935 1.363 . S
C1936 C1942 1.428 . S
H1937 C1933 0.930 . S
H1938 C1935 0.929 . S
S1939 N1940 1.613 . S
S1939 N1941 1.610 . S
N1940 S1939 1.613 . S
N1940 C1943 1.350 . S
N1941 S1939 1.610 . S
N1941 C1942 1.351 . S
C1942 C1936 1.428 . S
C1942 N1941 1.351 . S
C1942 C1943 1.434 . S
C1943 C1934 1.429 . S
C1943 N1940 1.350 . S
C1943 C1942 1.434 . S
C1944 C1945 1.369 . S
C1944 C1946 1.419 . S
C1944 H1948 0.930 . S
C1945 C1944 1.369 . S
C1945 C1954 1.429 . S
C1946 C1944 1.419 . S
C1946 C1947 1.363 . S
C1946 H1949 0.929 . S
C1947 C1946 1.363 . S
C1947 C1953 1.428 . S
H1948 C1944 0.930 . S
H1949 C1946 0.929 . S
S1950 N1951 1.613 . S
S1950 N1952 1.610 . S
N1951 S1950 1.613 . S
N1951 C1954 1.350 . S
N1952 S1950 1.610 . S
N1952 C1953 1.351 . S
C1953 C1947 1.428 . S
C1953 N1952 1.351 . S
C1953 C1954 1.434 . S
C1954 C1945 1.429 . S
C1954 N1951 1.350 . S
C1954 C1953 1.434 . S
C1955 C1956 1.369 . S
C1955 C1957 1.419 . S
C1955 H1959 0.930 . S
C1956 C1955 1.369 . S
C1956 C1965 1.429 . S
C1957 C1955 1.419 . S
C1957 C1958 1.363 . S
C1957 H1960 0.929 . S
C1958 C1957 1.363 . S
C1958 C1964 1.428 . S
H1959 C1955 0.930 . S
H1960 C1957 0.929 . S
S1961 N1962 1.613 . S
S1961 N1963 1.615 . S
N1962 S1961 1.613 . S
N1962 C1965 1.350 . S
N1963 S1961 1.615 . S
N1963 C1964 1.353 . S
C1964 C1958 1.428 . S
C1964 N1963 1.353 . S
C1964 C1965 1.434 . S
C1965 C1956 1.429 . S
C1965 N1962 1.350 . S
C1965 C1964 1.434 . S
C1966 C1967 1.369 . S
C1966 C1968 1.419 . S
C1966 H1970 0.930 . S
C1967 C1966 1.369 . S
C1967 C1976 1.429 . S
C1968 C1966 1.419 . S
C1968 C1969 1.363 . S
C1968 H1971 0.929 . S
C1969 C1968 1.363 . S
C1969 C1975 1.428 . S
H1970 C1966 0.930 . S
H1971 C1968 0.929 . S
S1972 N1973 1.613 . S
S1972 N1974 1.610 . S
N1973 S1972 1.613 . S
N1973 C1976 1.350 . S
N1974 S1972 1.610 . S
N1974 C1975 1.351 . S
C1975 C1969 1.428 . S
C1975 N1974 1.351 . S
C1975 C1976 1.434 . S
C1976 C1967 1.429 . S
C1976 N1973 1.350 . S
C1976 C1975 1.434 . S
C1977 C1978 1.369 . S
C1977 C1979 1.419 . S
C1977 H1981 0.930 . S
C1978 C1977 1.369 . S
C1978 C1987 1.429 . S
C1979 C1977 1.419 . S
C1979 C1980 1.363 . S
C1979 H1982 0.929 . S
C1980 C1979 1.363 . S
C1980 C1986 1.428 . S
H1981 C1977 0.930 . S
H1982 C1979 0.929 . S
S1983 N1984 1.613 . S
S1983 N1985 1.610 . S
N1984 S1983 1.613 . S
N1984 C1987 1.350 . S
N1985 S1983 1.610 . S
N1985 C1986 1.351 . S
C1986 C1980 1.428 . S
C1986 N1985 1.351 . S
C1986 C1987 1.434 . S
C1987 C1978 1.429 . S
C1987 N1984 1.350 . S
C1987 C1986 1.434 . S
C1988 C1989 1.369 . S
C1988 C1990 1.419 . S
C1988 H1992 0.930 . S
C1989 C1988 1.369 . S
C1989 C1998 1.429 . S
C1990 C1988 1.419 . S
C1990 C1991 1.363 . S
C1990 H1993 0.929 . S
C1991 C1990 1.363 . S
C1991 C1997 1.428 . S
H1992 C1988 0.930 . S
H1993 C1990 0.929 . S
S1994 N1995 1.613 . S
S1994 N1996 1.610 . S
N1995 S1994 1.613 . S
N1995 C1998 1.350 . S
N1996 S1994 1.610 . S
N1996 C1997 1.351 . S
C1997 C1991 1.428 . S
C1997 N1996 1.351 . S
C1997 C1998 1.434 . S
C1998 C1989 1.429 . S
C1998 N1995 1.350 . S
C1998 C1997 1.434 . S
C1999 C2000 1.369 . S
C1999 C2001 1.419 . S
C1999 H2003 0.930 . S
C2000 C1999 1.369 . S
C2000 C2009 1.429 . S
C2001 C1999 1.419 . S
C2001 C2002 1.363 . S
C2001 H2004 0.929 1_554 S
C2002 C2001 1.363 . S
C2002 C2008 1.428 . S
H2003 C1999 0.930 . S
H2004 C2001 0.929 1_556 S
S2005 N2006 1.613 . S
S2005 N2007 1.610 . S
N2006 S2005 1.613 . S
N2006 C2009 1.350 . S
N2007 S2005 1.610 . S
N2007 C2008 1.351 . S
C2008 C2002 1.428 . S
C2008 N2007 1.351 . S
C2008 C2009 1.434 . S
C2009 C2000 1.429 . S
C2009 N2006 1.350 . S
C2009 C2008 1.434 . S
C2010 C2011 1.369 . S
C2010 C2012 1.419 . S
C2010 H2014 0.930 . S
C2011 C2010 1.369 . S
C2011 C2020 1.429 . S
C2012 C2010 1.419 . S
C2012 C2013 1.363 . S
C2012 H2015 0.929 . S
C2013 C2012 1.363 . S
C2013 C2019 1.428 . S
H2014 C2010 0.930 . S
H2015 C2012 0.929 . S
S2016 N2017 1.613 . S
S2016 N2018 1.610 . S
N2017 S2016 1.613 . S
N2017 C2020 1.350 . S
N2018 S2016 1.610 . S
N2018 C2019 1.351 . S
C2019 C2013 1.428 . S
C2019 N2018 1.351 . S
C2019 C2020 1.434 . S
C2020 C2011 1.429 . S
C2020 N2017 1.350 . S
C2020 C2019 1.434 . S
C2021 C2022 1.369 . S
C2021 C2023 1.419 . S
C2021 H2025 0.930 . S
C2022 C2021 1.369 . S
C2022 C2031 1.429 . S
C2023 C2021 1.419 . S
C2023 C2024 1.363 . S
C2023 H2026 0.929 . S
C2024 C2023 1.363 . S
C2024 C2030 1.428 . S
H2025 C2021 0.930 . S
H2026 C2023 0.929 . S
S2027 N2028 1.613 . S
S2027 N2029 1.610 . S
N2028 S2027 1.613 . S
N2028 C2031 1.350 . S
N2029 S2027 1.610 . S
N2029 C2030 1.351 . S
C2030 C2024 1.428 . S
C2030 N2029 1.351 . S
C2030 C2031 1.434 . S
C2031 C2022 1.429 . S
C2031 N2028 1.350 . S
C2031 C2030 1.434 . S
C977 C105 2.435 1_455 S
C979 C367 2.374 . S
C988 C65 1.972 . S
C990 C378 1.994 . S
C999 C73 1.868 . S
C1001 C447 1.816 . S
C1012 C460 1.202 . S
C1010 C92 1.250 . S
C1021 C17 2.601 . S
C1023 C516 2.555 1_565 S
C1034 C567 2.300 . S
C1032 C37 2.334 . S
C1045 C596 2.395 . S
C1043 C49 2.316 . S
C1054 C8 2.603 . S
C1056 C647 2.517 . S
C1067 C338 1.613 . S
C1065 C231 1.539 1_545 S
C1076 C241 1.189 . S
C1078 C380 1.124 . S
C1089 C418 1.099 . S
C1087 C273 1.066 . S
C1100 C487 1.836 . S
C1098 C171 1.806 . S
C1109 C227 0.788 . S
C1111 C521 0.776 . S
C1122 C538 1.521 . S
C1120 C245 1.452 . S
C1133 C601 0.558 . S
C1131 C269 0.553 . S
C1144 C618 2.157 . S
C1142 C175 2.201 . S
C1155 C340 2.093 . S
C1153 C162 2.275 1_554 S
C1164 C289 1.737 . S
C1166 C679 1.660 . S
C1177 C700 1.917 . S
C1175 C330 2.056 . S
C1188 C759 0.655 . S
C1186 C317 0.639 . S
C1197 C120 1.408 . S
C1199 C620 1.356 . S
C1208 C134 1.574 . S
C1210 C420 1.515 . S
C1219 C331 1.200 . S
C1221 C778 1.265 . S
C1232 C847 1.030 . S
C1230 C303 1.090 . S
C1243 C356 2.386 . S
C1241 C59 2.398 . S
C1254 C839 2.026 . S
C1252 C107 1.997 . S
C1263 C91 1.874 . S
C1265 C436 1.852 . S
C1274 C78 1.242 . S
C1276 C801 1.217 . S
C1287 C527 2.600 . S
C1285 C7 2.586 . S
C1296 C51 2.351 . S
C1298 C716 2.315 . S
C1309 C607 2.437 1_556 S
C1307 C31 2.449 . S
C1320 C876 2.531 . S
C1318 C22 2.563 1_655 S
C1331 C359 1.598 . S
C1329 C143 1.572 . S
C1342 C841 1.142 . S
C1340 C315 1.154 . S
C1351 C115 1.131 . S
C1353 C439 1.122 . S
C1362 C287 1.854 . S
C1364 C796 1.890 . S
C1373 C147 0.780 . S
C1375 C500 0.798 . S
C1386 C719 1.529 . S
C1384 C311 1.529 . S
C1395 C119 0.601 . S
C1397 C580 0.580 . S
C1406 C283 2.225 . S
C1408 C879 2.190 . S
C1417 C190 2.187 . S
C1419 C361 2.048 1_554 S
C1428 C177 1.738 . S
C1430 C658 1.666 . S
C1439 C260 1.951 . S
C1441 C561 1.885 . S
C1450 C247 0.683 . S
C1452 C738 0.673 . S
C1463 C881 1.330 . S
C1461 C274 1.357 . S
C1472 C218 1.536 . S
C1474 C441 1.498 . S
C1485 C479 1.295 . S
C1483 C261 1.185 . S
C1496 C396 1.024 . S
C1494 C205 1.083 . S
C1505 C77 2.432 . S
C1507 C927 2.379 . S
C1518 C818 1.994 . S
C1516 C93 1.974 . S
C1527 C101 1.867 . S
C1529 C967 1.812 . S
C1538 C64 1.248 . S
C1540 C780 1.202 . S
C1549 C45 2.601 . S
C1551 C676 2.554 . S
C1562 C727 2.296 . S
C1560 C9 2.330 . S
C1573 C756 2.396 . S
C1571 C21 2.312 . S
C1584 C887 2.516 . S
C1582 C36 2.604 . S
C1595 C898 1.616 . S
C1593 C259 1.535 . S
C1604 C185 1.189 . S
C1606 C820 1.122 . S
C1617 C938 1.103 . S
C1615 C203 1.070 . S
C1628 C807 1.836 . S
C1626 C213 1.801 . S
C1639 C681 0.774 . S
C1637 C255 0.788 . S
C1648 C189 1.440 . S
C1650 C698 1.523 . S
C1661 C761 0.562 . S
C1659 C199 0.548 . S
C1670 C217 2.200 . S
C1672 C858 2.154 . S
C1683 C900 2.094 . S
C1681 C316 2.295 . S
C1692 C135 1.738 . S
C1694 C519 1.658 . S
C1705 C540 1.907 1_545 S
C1703 C148 2.064 . S
C1716 C599 0.659 . S
C1714 C163 0.647 . S
C1727 C860 1.349 . S
C1725 C302 1.416 . S
C1736 C288 1.572 . S
C1738 C940 1.519 . S
C1749 C458 1.272 . S
C1747 C149 1.185 . S
C1760 C407 1.034 . S
C1758 C121 1.087 . S
C1769 C87 2.398 . S
C1771 C916 2.383 . S
C1782 C399 2.025 . S
C1780 C79 1.992 . S
C1791 C63 1.871 . S
C1793 C956 1.856 . S
C1802 C106 1.239 . S
C1804 C481 1.217 . S
C1813 C35 2.586 . S
C1815 C687 2.600 1_556 S
C1826 C556 2.315 . S
C1824 C23 2.352 . S
C1835 C3 2.449 . S
C1837 C767 2.436 . S
C1846 C50 2.593 . S
C1848 C636 2.530 . S
C1859 C919 1.592 . S
C1857 C325 1.579 . S
C1868 C161 1.150 . S
C1870 C401 1.137 . S
C1881 C959 1.122 . S
C1879 C297 1.131 . S
C1890 C133 1.855 . S
C1892 C476 1.890 . S
C1901 C329 0.798 . S
C1903 C660 0.785 . S
C1914 C559 1.532 . S
C1912 C157 1.533 . S
C1923 C301 0.598 . S
C1925 C740 0.595 . S
C1936 C639 2.191 . S
C1934 C129 2.223 . S
C1947 C921 2.054 . S
C1945 C246 2.195 . S
C1958 C498 1.667 1_565 S
C1956 C219 1.738 . S
C1967 C232 1.961 . S
C1969 C721 1.876 . S
C1980 C578 0.688 . S
C1978 C191 0.674 . S
C1989 C204 1.332 . S
C1991 C641 1.331 . S
C2000 C176 1.537 . S
C2002 C961 1.497 . S
C2013 C799 1.291 . S
C2011 C233 1.195 . S
C2024 C836 1.037 . S
C2022 C275 1.071 . S
