# Generated by pormake.
# Topology gar, (4,6)-cn, num edge types: 1
# Building blocks:
#     Node 0, Type 0, BuildingBlock: UXUYUI_clean_sbu_0, # of connection points: 4
#     Node 1, Type 0, BuildingBlock: UXUYUI_clean_sbu_0, # of connection points: 4
#     Node 2, Type 0, BuildingBlock: UXUYUI_clean_sbu_0, # of connection points: 4
#     Node 3, Type 0, BuildingBlock: UXUYUI_clean_sbu_0, # of connection points: 4
#     Node 4, Type 0, BuildingBlock: UXUYUI_clean_sbu_0, # of connection points: 4
#     Node 5, Type 0, BuildingBlock: UXUYUI_clean_sbu_0, # of connection points: 4
#     Node 6, Type 0, BuildingBlock: UXUYUI_clean_sbu_0, # of connection points: 4
#     Node 7, Type 0, BuildingBlock: UXUYUI_clean_sbu_0, # of connection points: 4
#     Node 8, Type 0, BuildingBlock: UXUYUI_clean_sbu_0, # of connection points: 4
#     Node 9, Type 0, BuildingBlock: UXUYUI_clean_sbu_0, # of connection points: 4
#     Node 10, Type 0, BuildingBlock: UXUYUI_clean_sbu_0, # of connection points: 4
#     Node 11, Type 0, BuildingBlock: UXUYUI_clean_sbu_0, # of connection points: 4
#     Node 12, Type 0, BuildingBlock: UXUYUI_clean_sbu_0, # of connection points: 4
#     Node 13, Type 0, BuildingBlock: UXUYUI_clean_sbu_0, # of connection points: 4
#     Node 14, Type 0, BuildingBlock: UXUYUI_clean_sbu_0, # of connection points: 4
#     Node 15, Type 0, BuildingBlock: UXUYUI_clean_sbu_0, # of connection points: 4
#     Node 16, Type 0, BuildingBlock: UXUYUI_clean_sbu_0, # of connection points: 4
#     Node 17, Type 0, BuildingBlock: UXUYUI_clean_sbu_0, # of connection points: 4
#     Node 18, Type 0, BuildingBlock: UXUYUI_clean_sbu_0, # of connection points: 4
#     Node 19, Type 0, BuildingBlock: UXUYUI_clean_sbu_0, # of connection points: 4
#     Node 20, Type 0, BuildingBlock: UXUYUI_clean_sbu_0, # of connection points: 4
#     Node 21, Type 0, BuildingBlock: UXUYUI_clean_sbu_0, # of connection points: 4
#     Node 22, Type 0, BuildingBlock: UXUYUI_clean_sbu_0, # of connection points: 4
#     Node 23, Type 0, BuildingBlock: UXUYUI_clean_sbu_0, # of connection points: 4
#     Node 24, Type 1, BuildingBlock: BETDAH_clean_sbu_0, # of connection points: 6
#     Node 25, Type 1, BuildingBlock: BETDAH_clean_sbu_0, # of connection points: 6
#     Node 26, Type 1, BuildingBlock: BETDAH_clean_sbu_0, # of connection points: 6
#     Node 27, Type 1, BuildingBlock: BETDAH_clean_sbu_0, # of connection points: 6
#     Node 28, Type 1, BuildingBlock: BETDAH_clean_sbu_0, # of connection points: 6
#     Node 29, Type 1, BuildingBlock: BETDAH_clean_sbu_0, # of connection points: 6
#     Node 30, Type 1, BuildingBlock: BETDAH_clean_sbu_0, # of connection points: 6
#     Node 31, Type 1, BuildingBlock: BETDAH_clean_sbu_0, # of connection points: 6
#     Node 32, Type 1, BuildingBlock: BETDAH_clean_sbu_0, # of connection points: 6
#     Node 33, Type 1, BuildingBlock: BETDAH_clean_sbu_0, # of connection points: 6
#     Node 34, Type 1, BuildingBlock: BETDAH_clean_sbu_0, # of connection points: 6
#     Node 35, Type 1, BuildingBlock: BETDAH_clean_sbu_0, # of connection points: 6
#     Node 36, Type 1, BuildingBlock: BETDAH_clean_sbu_0, # of connection points: 6
#     Node 37, Type 1, BuildingBlock: BETDAH_clean_sbu_0, # of connection points: 6
#     Node 38, Type 1, BuildingBlock: BETDAH_clean_sbu_0, # of connection points: 6
#     Node 39, Type 1, BuildingBlock: BETDAH_clean_sbu_0, # of connection points: 6
#     Edge 40, Type (0, 1), BuildingBlock: TEMPAE_clean_linker_10, # of connection points: 2
#     Edge 41, Type (0, 1), BuildingBlock: TEMPAE_clean_linker_10, # of connection points: 2
#     Edge 42, Type (0, 1), BuildingBlock: TEMPAE_clean_linker_10, # of connection points: 2
#     Edge 43, Type (0, 1), BuildingBlock: TEMPAE_clean_linker_10, # of connection points: 2
#     Edge 44, Type (0, 1), BuildingBlock: TEMPAE_clean_linker_10, # of connection points: 2
#     Edge 45, Type (0, 1), BuildingBlock: TEMPAE_clean_linker_10, # of connection points: 2
#     Edge 46, Type (0, 1), BuildingBlock: TEMPAE_clean_linker_10, # of connection points: 2
#     Edge 47, Type (0, 1), BuildingBlock: TEMPAE_clean_linker_10, # of connection points: 2
#     Edge 48, Type (0, 1), BuildingBlock: TEMPAE_clean_linker_10, # of connection points: 2
#     Edge 49, Type (0, 1), BuildingBlock: TEMPAE_clean_linker_10, # of connection points: 2
#     Edge 50, Type (0, 1), BuildingBlock: TEMPAE_clean_linker_10, # of connection points: 2
#     Edge 51, Type (0, 1), BuildingBlock: TEMPAE_clean_linker_10, # of connection points: 2
#     Edge 52, Type (0, 1), BuildingBlock: TEMPAE_clean_linker_10, # of connection points: 2
#     Edge 53, Type (0, 1), BuildingBlock: TEMPAE_clean_linker_10, # of connection points: 2
#     Edge 54, Type (0, 1), BuildingBlock: TEMPAE_clean_linker_10, # of connection points: 2
#     Edge 55, Type (0, 1), BuildingBlock: TEMPAE_clean_linker_10, # of connection points: 2
#     Edge 56, Type (0, 1), BuildingBlock: TEMPAE_clean_linker_10, # of connection points: 2
#     Edge 57, Type (0, 1), BuildingBlock: TEMPAE_clean_linker_10, # of connection points: 2
#     Edge 58, Type (0, 1), BuildingBlock: TEMPAE_clean_linker_10, # of connection points: 2
#     Edge 59, Type (0, 1), BuildingBlock: TEMPAE_clean_linker_10, # of connection points: 2
#     Edge 60, Type (0, 1), BuildingBlock: TEMPAE_clean_linker_10, # of connection points: 2
#     Edge 61, Type (0, 1), BuildingBlock: TEMPAE_clean_linker_10, # of connection points: 2
#     Edge 62, Type (0, 1), BuildingBlock: TEMPAE_clean_linker_10, # of connection points: 2
#     Edge 63, Type (0, 1), BuildingBlock: TEMPAE_clean_linker_10, # of connection points: 2
#     Edge 64, Type (0, 1), BuildingBlock: TEMPAE_clean_linker_10, # of connection points: 2
#     Edge 65, Type (0, 1), BuildingBlock: TEMPAE_clean_linker_10, # of connection points: 2
#     Edge 66, Type (0, 1), BuildingBlock: TEMPAE_clean_linker_10, # of connection points: 2
#     Edge 67, Type (0, 1), BuildingBlock: TEMPAE_clean_linker_10, # of connection points: 2
#     Edge 68, Type (0, 1), BuildingBlock: TEMPAE_clean_linker_10, # of connection points: 2
#     Edge 69, Type (0, 1), BuildingBlock: TEMPAE_clean_linker_10, # of connection points: 2
#     Edge 70, Type (0, 1), BuildingBlock: TEMPAE_clean_linker_10, # of connection points: 2
#     Edge 71, Type (0, 1), BuildingBlock: TEMPAE_clean_linker_10, # of connection points: 2
#     Edge 72, Type (0, 1), BuildingBlock: TEMPAE_clean_linker_10, # of connection points: 2
#     Edge 73, Type (0, 1), BuildingBlock: TEMPAE_clean_linker_10, # of connection points: 2
#     Edge 74, Type (0, 1), BuildingBlock: TEMPAE_clean_linker_10, # of connection points: 2
#     Edge 75, Type (0, 1), BuildingBlock: TEMPAE_clean_linker_10, # of connection points: 2
#     Edge 76, Type (0, 1), BuildingBlock: TEMPAE_clean_linker_10, # of connection points: 2
#     Edge 77, Type (0, 1), BuildingBlock: TEMPAE_clean_linker_10, # of connection points: 2
#     Edge 78, Type (0, 1), BuildingBlock: TEMPAE_clean_linker_10, # of connection points: 2
#     Edge 79, Type (0, 1), BuildingBlock: TEMPAE_clean_linker_10, # of connection points: 2
#     Edge 80, Type (0, 1), BuildingBlock: TEMPAE_clean_linker_10, # of connection points: 2
#     Edge 81, Type (0, 1), BuildingBlock: TEMPAE_clean_linker_10, # of connection points: 2
#     Edge 82, Type (0, 1), BuildingBlock: TEMPAE_clean_linker_10, # of connection points: 2
#     Edge 83, Type (0, 1), BuildingBlock: TEMPAE_clean_linker_10, # of connection points: 2
#     Edge 84, Type (0, 1), BuildingBlock: TEMPAE_clean_linker_10, # of connection points: 2
#     Edge 85, Type (0, 1), BuildingBlock: TEMPAE_clean_linker_10, # of connection points: 2
#     Edge 86, Type (0, 1), BuildingBlock: TEMPAE_clean_linker_10, # of connection points: 2
#     Edge 87, Type (0, 1), BuildingBlock: TEMPAE_clean_linker_10, # of connection points: 2
#     Edge 88, Type (0, 1), BuildingBlock: TEMPAE_clean_linker_10, # of connection points: 2
#     Edge 89, Type (0, 1), BuildingBlock: TEMPAE_clean_linker_10, # of connection points: 2
#     Edge 90, Type (0, 1), BuildingBlock: TEMPAE_clean_linker_10, # of connection points: 2
#     Edge 91, Type (0, 1), BuildingBlock: TEMPAE_clean_linker_10, # of connection points: 2
#     Edge 92, Type (0, 1), BuildingBlock: TEMPAE_clean_linker_10, # of connection points: 2
#     Edge 93, Type (0, 1), BuildingBlock: TEMPAE_clean_linker_10, # of connection points: 2
#     Edge 94, Type (0, 1), BuildingBlock: TEMPAE_clean_linker_10, # of connection points: 2
#     Edge 95, Type (0, 1), BuildingBlock: TEMPAE_clean_linker_10, # of connection points: 2
#     Edge 96, Type (0, 1), BuildingBlock: TEMPAE_clean_linker_10, # of connection points: 2
#     Edge 97, Type (0, 1), BuildingBlock: TEMPAE_clean_linker_10, # of connection points: 2
#     Edge 98, Type (0, 1), BuildingBlock: TEMPAE_clean_linker_10, # of connection points: 2
#     Edge 99, Type (0, 1), BuildingBlock: TEMPAE_clean_linker_10, # of connection points: 2
#     Edge 100, Type (0, 1), BuildingBlock: TEMPAE_clean_linker_10, # of connection points: 2
#     Edge 101, Type (0, 1), BuildingBlock: TEMPAE_clean_linker_10, # of connection points: 2
#     Edge 102, Type (0, 1), BuildingBlock: TEMPAE_clean_linker_10, # of connection points: 2
#     Edge 103, Type (0, 1), BuildingBlock: TEMPAE_clean_linker_10, # of connection points: 2
#     Edge 104, Type (0, 1), BuildingBlock: TEMPAE_clean_linker_10, # of connection points: 2
#     Edge 105, Type (0, 1), BuildingBlock: TEMPAE_clean_linker_10, # of connection points: 2
#     Edge 106, Type (0, 1), BuildingBlock: TEMPAE_clean_linker_10, # of connection points: 2
#     Edge 107, Type (0, 1), BuildingBlock: TEMPAE_clean_linker_10, # of connection points: 2
#     Edge 108, Type (0, 1), BuildingBlock: TEMPAE_clean_linker_10, # of connection points: 2
#     Edge 109, Type (0, 1), BuildingBlock: TEMPAE_clean_linker_10, # of connection points: 2
#     Edge 110, Type (0, 1), BuildingBlock: TEMPAE_clean_linker_10, # of connection points: 2
#     Edge 111, Type (0, 1), BuildingBlock: TEMPAE_clean_linker_10, # of connection points: 2
#     Edge 112, Type (0, 1), BuildingBlock: TEMPAE_clean_linker_10, # of connection points: 2
#     Edge 113, Type (0, 1), BuildingBlock: TEMPAE_clean_linker_10, # of connection points: 2
#     Edge 114, Type (0, 1), BuildingBlock: TEMPAE_clean_linker_10, # of connection points: 2
#     Edge 115, Type (0, 1), BuildingBlock: TEMPAE_clean_linker_10, # of connection points: 2
#     Edge 116, Type (0, 1), BuildingBlock: TEMPAE_clean_linker_10, # of connection points: 2
#     Edge 117, Type (0, 1), BuildingBlock: TEMPAE_clean_linker_10, # of connection points: 2
#     Edge 118, Type (0, 1), BuildingBlock: TEMPAE_clean_linker_10, # of connection points: 2
#     Edge 119, Type (0, 1), BuildingBlock: TEMPAE_clean_linker_10, # of connection points: 2
#     Edge 120, Type (0, 1), BuildingBlock: TEMPAE_clean_linker_10, # of connection points: 2
#     Edge 121, Type (0, 1), BuildingBlock: TEMPAE_clean_linker_10, # of connection points: 2
#     Edge 122, Type (0, 1), BuildingBlock: TEMPAE_clean_linker_10, # of connection points: 2
#     Edge 123, Type (0, 1), BuildingBlock: TEMPAE_clean_linker_10, # of connection points: 2
#     Edge 124, Type (0, 1), BuildingBlock: TEMPAE_clean_linker_10, # of connection points: 2
#     Edge 125, Type (0, 1), BuildingBlock: TEMPAE_clean_linker_10, # of connection points: 2
#     Edge 126, Type (0, 1), BuildingBlock: TEMPAE_clean_linker_10, # of connection points: 2
#     Edge 127, Type (0, 1), BuildingBlock: TEMPAE_clean_linker_10, # of connection points: 2
#     Edge 128, Type (0, 1), BuildingBlock: TEMPAE_clean_linker_10, # of connection points: 2
#     Edge 129, Type (0, 1), BuildingBlock: TEMPAE_clean_linker_10, # of connection points: 2
#     Edge 130, Type (0, 1), BuildingBlock: TEMPAE_clean_linker_10, # of connection points: 2
#     Edge 131, Type (0, 1), BuildingBlock: TEMPAE_clean_linker_10, # of connection points: 2
#     Edge 132, Type (0, 1), BuildingBlock: TEMPAE_clean_linker_10, # of connection points: 2
#     Edge 133, Type (0, 1), BuildingBlock: TEMPAE_clean_linker_10, # of connection points: 2
#     Edge 134, Type (0, 1), BuildingBlock: TEMPAE_clean_linker_10, # of connection points: 2
#     Edge 135, Type (0, 1), BuildingBlock: TEMPAE_clean_linker_10, # of connection points: 2
# Relax obj value: 0.198
# Max RMSD: 0.286
# Mean RMSD: 0.198
data_MOF--net-gar--node1-UXUYUI_clean_sbu_0--node2-BETDAH_clean_sbu_0--edge1-TEMPAE_clean_linker_10
_symmetry_space_group_name_H-M    P1
_symmetry_Int_Tables_number       1
_symmetry_cell_setting            triclinic
loop_
_symmetry_equiv_pos_as_xyz
'x, y, z'
_cell_length_a     75.232557
_cell_length_b     70.289665
_cell_length_c     70.536771
_cell_angle_alpha  98.782928
_cell_angle_beta   95.181525
_cell_angle_gamma 102.8398
loop_
_atom_site_label
_atom_site_type_symbol
_atom_site_fract_x
_atom_site_fract_y
_atom_site_fract_z
_atom_type_partial_charge
Li0 Li 0.0747 0.31447 0.365 0.0
Li1 Li 0.09129 0.33904 0.3935 0.0
Li2 Li 0.10757 0.31946 0.37111 0.0
Li3 Li 0.08743 0.30343 0.39314 0.0
C4 C 0.09066 0.35158 0.35331 0.0
N5 N 0.08467 0.37706 0.32854 0.0
C6 C 0.08096 0.36594 0.35862 0.0
C7 C 0.09735 0.3502 0.3354 0.0
C8 C 0.07809 0.3787 0.3459 0.0
C9 C 0.09414 0.36319 0.32307 0.0
C10 C 0.0558 0.31609 0.40414 0.0
C11 C 0.04864 0.31518 0.43667 0.0
N12 N 0.03045 0.31189 0.43012 0.0
C13 C 0.03705 0.31273 0.39774 0.0
C14 C 0.06168 0.31741 0.42376 0.0
C15 C 0.02445 0.31065 0.4111 0.0
C16 C 0.04174 0.29038 0.3487 0.0
N17 N 0.05397 0.30689 0.34617 0.0
C18 C 0.03367 0.3113 0.32016 0.0
C19 C 0.05053 0.31708 0.33191 0.0
C20 C 0.02038 0.29502 0.3233 0.0
C21 C 0.0247 0.28414 0.33738 0.0
H22 H 0.04498 0.28258 0.36012 0.0
H23 H 0.06043 0.33006 0.33005 0.0
C24 C 0.10885 0.37738 0.41391 0.0
N25 N 0.09257 0.36364 0.40883 0.0
C26 C 0.10946 0.39572 0.42523 0.0
C27 C 0.07663 0.38509 0.42581 0.0
C28 C 0.07662 0.36721 0.4143 0.0
C29 C 0.09318 0.3995 0.43139 0.0
H30 H 0.12128 0.37408 0.40916 0.0
H31 H 0.06383 0.35625 0.4096 0.0
C32 C 0.08443 0.28109 0.34856 0.0
N33 N 0.07505 0.25491 0.31381 0.0
C34 C 0.07684 0.26099 0.34827 0.0
C35 C 0.08726 0.28789 0.33121 0.0
C36 C 0.07221 0.24798 0.33054 0.0
C37 C 0.0824 0.27442 0.31378 0.0
C38 C 0.12302 0.32674 0.41554 0.0
C39 C 0.13918 0.32044 0.41327 0.0
C40 C 0.12011 0.33539 0.43383 0.0
C41 C 0.15217 0.32281 0.42944 0.0
C42 C 0.13341 0.33744 0.44964 0.0
N43 N 0.14904 0.33118 0.44714 0.0
C44 C 0.13746 0.33699 0.35415 0.0
C45 C 0.13218 0.30215 0.3526 0.0
C46 C 0.15085 0.33671 0.34179 0.0
N47 N 0.12826 0.3198 0.35884 0.0
C48 C 0.14538 0.30115 0.34019 0.0
C49 C 0.15455 0.31852 0.33435 0.0
H50 H 0.13381 0.35074 0.35932 0.0
H51 H 0.12454 0.28878 0.3567 0.0
C52 C 0.0661 0.26937 0.40107 0.0
N53 N 0.08234 0.28278 0.40748 0.0
C54 C 0.0607 0.25313 0.41011 0.0
C55 C 0.08881 0.26493 0.43238 0.0
C56 C 0.09371 0.28093 0.42282 0.0
C57 C 0.07213 0.25072 0.42598 0.0
H58 H 0.05739 0.27129 0.38881 0.0
H59 H 0.10655 0.29179 0.42763 0.0
O60 O 0.094 0.33927 0.36574 0.0
O61 O 0.06829 0.31846 0.39126 0.0
O62 O 0.08902 0.29403 0.36578 0.0
O63 O 0.11046 0.32507 0.39978 0.0
H64 H 0.0757 0.36722 0.37241 0.0
H65 H 0.10485 0.33915 0.33101 0.0
H66 H 0.07064 0.3899 0.34984 0.0
H67 H 0.09918 0.36224 0.30915 0.0
H68 H 0.05297 0.31609 0.45189 0.0
H69 H 0.03229 0.31197 0.38264 0.0
H70 H 0.07614 0.32007 0.42895 0.0
H71 H 0.0099 0.30811 0.40635 0.0
H72 H 0.03064 0.32017 0.30956 0.0
H73 H 0.01472 0.27151 0.34015 0.0
H74 H 0.12241 0.40665 0.42935 0.0
H75 H 0.06382 0.38776 0.43017 0.0
H76 H 0.07462 0.25549 0.36159 0.0
H77 H 0.09306 0.30342 0.33122 0.0
H78 H 0.06636 0.23237 0.33009 0.0
H79 H 0.08447 0.27948 0.30023 0.0
H80 H 0.14169 0.31388 0.39916 0.0
H81 H 0.10777 0.34055 0.43577 0.0
H82 H 0.16477 0.31804 0.42791 0.0
H83 H 0.13135 0.34409 0.4639 0.0
H84 H 0.15775 0.35036 0.33757 0.0
H85 H 0.14824 0.28695 0.33501 0.0
H86 H 0.04785 0.24242 0.40454 0.0
H87 H 0.09791 0.26378 0.44474 0.0
Li88 Li 1.00285 0.77252 0.63785 0.0
Li89 Li 0.01401 0.75995 0.66592 0.0
Li90 Li 0.99726 0.73716 0.63641 0.0
Li91 Li 0.98108 0.7558 0.65848 0.0
C92 C 0.03336 0.75972 0.6269 0.0
N93 N 0.05833 0.76432 0.60057 0.0
C94 C 0.05217 0.7663 0.63336 0.0
C95 C 0.02724 0.7555 0.60707 0.0
C96 C 0.06458 0.7685 0.61981 0.0
C97 C 0.04007 0.75795 0.59398 0.0
C98 C 1.00412 0.79575 0.68105 0.0
C99 C 1.00462 0.80697 0.7152 0.0
N100 N 0.01201 0.82586 0.71294 0.0
C101 C 0.01157 0.8153 0.67904 0.0
C102 C 1.00052 0.79155 0.69925 0.0
C103 C 0.01553 0.8303 0.69534 0.0
C104 C 0.99736 0.79594 0.6099 0.0
N105 N 0.00917 0.79331 0.62443 0.0
C106 C 0.03172 0.82182 0.62091 0.0
C107 C 0.02609 0.80569 0.63 0.0
C108 C 0.01983 0.82493 0.60586 0.0
C109 C 1.0025 0.81177 0.60024 0.0
H110 H 0.98395 0.78584 0.60594 0.0
H111 H 0.0351 0.80309 0.64167 0.0
C112 C 0.03919 0.74907 0.69142 0.0
N113 N 0.03412 0.76468 0.68524 0.0
C114 C 0.05542 0.75207 0.70377 0.0
C115 C 0.06091 0.78722 0.70324 0.0
C116 C 0.04454 0.78352 0.69089 0.0
C117 C 0.06667 0.7713 0.70949 0.0
H118 H 0.03123 0.73416 0.68595 0.0
H119 H 0.04066 0.79555 0.68505 0.0
C120 C 0.96593 0.74125 0.61503 0.0
N121 N 0.9393 0.7187 0.58573 0.0
C122 C 0.9493 0.73051 0.61944 0.0
C123 C 0.96894 0.74066 0.59571 0.0
C124 C 0.93603 0.71916 0.60443 0.0
C125 C 0.95533 0.72913 0.58111 0.0
C126 C 0.99459 0.72319 0.67658 0.0
C127 C 0.998 0.70451 0.67094 0.0
C128 C 0.99188 0.72915 0.69571 0.0
C129 C 0.99881 0.69219 0.68461 0.0
C130 C 0.99287 0.71643 0.70896 0.0
N131 N 0.99629 0.69837 0.70319 0.0
C132 C 0.01443 0.71 0.61941 0.0
C133 C 0.98203 0.69846 0.61319 0.0
C134 C 0.01677 0.69283 0.60848 0.0
N135 N 0.99733 0.71278 0.62111 0.0
C136 C 0.98372 0.68066 0.60246 0.0
C137 C 1.00133 0.67776 0.59986 0.0
H138 H 0.02637 0.72108 0.62669 0.0
H139 H 0.96857 0.70066 0.61543 0.0
C140 C 0.95628 0.77329 0.67682 0.0
N141 N 0.96037 0.75568 0.67079 0.0
C142 C 0.94284 0.77424 0.68898 0.0
C143 C 0.93748 0.73872 0.68752 0.0
C144 C 0.95121 0.7385 0.67559 0.0
C145 C 0.93354 0.75684 0.69464 0.0
H146 H 0.96392 0.78666 0.67273 0.0
H147 H 0.95498 0.72478 0.67062 0.0
O148 O 0.0211 0.75664 0.63995 0.0
O149 O 1.00037 0.78087 0.66523 0.0
O150 O 0.97886 0.7529 0.62951 0.0
O151 O 0.99394 0.73548 0.66338 0.0
H152 H 0.05711 0.76944 0.64868 0.0
H153 H 0.01274 0.75017 0.60188 0.0
H154 H 0.07919 0.77346 0.62459 0.0
H155 H 0.03553 0.75468 0.57859 0.0
H156 H 1.00192 0.80391 0.72938 0.0
H157 H 0.01427 0.81889 0.66505 0.0
H158 H 0.9946 0.77659 0.70104 0.0
H159 H 0.02138 0.84548 0.694 0.0
H160 H 0.0452 0.83168 0.62548 0.0
H161 H 0.99297 0.81394 0.58877 0.0
H162 H 0.0597 0.73932 0.70774 0.0
H163 H 0.06936 0.80222 0.70717 0.0
H164 H 0.94665 0.73093 0.63428 0.0
H165 H 0.98158 0.74914 0.59199 0.0
H166 H 0.92312 0.71074 0.60764 0.0
H167 H 0.95749 0.72853 0.56609 0.0
H168 H 1.00007 0.6996 0.6562 0.0
H169 H 0.98904 0.74341 0.7003 0.0
H170 H 1.00148 0.67772 0.68046 0.0
H171 H 0.99089 0.7209 0.72384 0.0
H172 H 0.03063 0.69157 0.60672 0.0
H173 H 0.97141 0.6693 0.59649 0.0
H174 H 0.93985 0.7884 0.69406 0.0
H175 H 0.93046 0.72506 0.69165 0.0
Li176 Li 0.57634 0.8146 0.86453 0.0
Li177 Li 0.5927 0.83856 0.89362 0.0
Li178 Li 0.60927 0.82021 0.87061 0.0
Li179 Li 0.58969 0.80293 0.89238 0.0
C180 C 0.59658 0.85189 0.85276 0.0
N181 N 0.59945 0.87651 0.82559 0.0
C182 C 0.59386 0.87101 0.85734 0.0
C183 C 0.60088 0.84535 0.8344 0.0
C184 C 0.59532 0.88321 0.84339 0.0
C185 C 0.60225 0.85801 0.82086 0.0
C186 C 0.55773 0.81807 0.9037 0.0
C187 C 0.54997 0.81991 0.93623 0.0
N188 N 0.53248 0.82011 0.92956 0.0
C189 C 0.53968 0.81822 0.89713 0.0
C190 C 0.56294 0.81887 0.92337 0.0
C191 C 0.52712 0.81929 0.91045 0.0
C192 C 0.54404 0.79104 0.84216 0.0
N193 N 0.55553 0.80945 0.84614 0.0
C194 C 0.53464 0.82229 0.82735 0.0
C195 C 0.55123 0.82495 0.83896 0.0
C196 C 0.5225 0.80353 0.82323 0.0
C197 C 0.52738 0.78764 0.83036 0.0
H198 H 0.54738 0.77924 0.84886 0.0
H199 H 0.56018 0.83959 0.84303 0.0
C200 C 0.6072 0.87452 0.92054 0.0
N201 N 0.59221 0.86255 0.90897 0.0
C202 C 0.60572 0.89214 0.93178 0.0
C203 C 0.57357 0.88465 0.91867 0.0
C204 C 0.57572 0.8674 0.90758 0.0
C205 C 0.58865 0.89714 0.93104 0.0
H206 H 0.62021 0.87036 0.92107 0.0
H207 H 0.56423 0.85785 0.89779 0.0
C208 C 0.58439 0.77932 0.84917 0.0
N209 N 0.57045 0.74904 0.81794 0.0
C210 C 0.57734 0.76001 0.85212 0.0
C211 C 0.58457 0.78316 0.83031 0.0
C212 C 0.5703 0.74492 0.83615 0.0
C213 C 0.57739 0.76768 0.81472 0.0
C214 C 0.62505 0.82604 0.91496 0.0
C215 C 0.642 0.82184 0.91202 0.0
C216 C 0.62136 0.8319 0.93374 0.0
C217 C 0.65502 0.82355 0.928 0.0
C218 C 0.63472 0.83335 0.94934 0.0
N219 N 0.65114 0.82921 0.94618 0.0
C220 C 0.64081 0.83903 0.85627 0.0
C221 C 0.63186 0.80386 0.84835 0.0
C222 C 0.65437 0.83954 0.84401 0.0
N223 N 0.6298 0.82136 0.85788 0.0
C224 C 0.64498 0.80368 0.83577 0.0
C225 C 0.65615 0.82169 0.83333 0.0
H226 H 0.6386 0.85268 0.86397 0.0
H227 H 0.62295 0.79007 0.85012 0.0
C228 C 0.56726 0.77108 0.90231 0.0
N229 N 0.58478 0.78228 0.90645 0.0
C230 C 0.5616 0.75495 0.91138 0.0
C231 C 0.59214 0.76238 0.92907 0.0
C232 C 0.59727 0.77831 0.91947 0.0
C233 C 0.57409 0.75045 0.925 0.0
H234 H 0.55774 0.77458 0.8917 0.0
H235 H 0.61115 0.78742 0.92238 0.0
O236 O 0.59495 0.83972 0.86624 0.0
O237 O 0.57016 0.81711 0.89082 0.0
O238 O 0.59123 0.79431 0.86467 0.0
O239 O 0.61246 0.82515 0.89941 0.0
H240 H 0.59055 0.87633 0.87149 0.0
H241 H 0.60328 0.83074 0.83066 0.0
H242 H 0.59318 0.89801 0.84672 0.0
H243 H 0.60558 0.85313 0.8066 0.0
H244 H 0.5538 0.82053 0.9515 0.0
H245 H 0.53546 0.81759 0.88192 0.0
H246 H 0.57682 0.81859 0.92862 0.0
H247 H 0.51311 0.81947 0.90559 0.0
H248 H 0.53096 0.83489 0.82232 0.0
H249 H 0.51796 0.77313 0.8278 0.0
H250 H 0.61761 0.90154 0.94119 0.0
H251 H 0.56029 0.88827 0.91752 0.0
H252 H 0.57735 0.75667 0.86658 0.0
H253 H 0.59001 0.79795 0.82773 0.0
H254 H 0.56474 0.72992 0.83824 0.0
H255 H 0.57733 0.77049 0.80006 0.0
H256 H 0.64511 0.81748 0.89754 0.0
H257 H 0.60841 0.83546 0.93623 0.0
H258 H 0.66824 0.82044 0.92596 0.0
H259 H 0.63207 0.83788 0.96397 0.0
H260 H 0.66298 0.85363 0.84246 0.0
H261 H 0.64637 0.78966 0.82798 0.0
H262 H 0.54767 0.74596 0.90754 0.0
H263 H 0.60214 0.75955 0.93965 0.0
Li264 Li 0.50352 0.27382 0.13759 0.0
Li265 Li 0.51536 0.26133 0.16584 0.0
Li266 Li 0.4977 0.23829 0.13713 0.0
Li267 Li 0.48237 0.25753 0.15933 0.0
C268 C 0.53365 0.25671 0.12604 0.0
N269 N 0.55793 0.25489 0.09909 0.0
C270 C 0.55247 0.26021 0.1321 0.0
C271 C 0.52715 0.25225 0.1063 0.0
C272 C 0.56454 0.25923 0.11825 0.0
C273 C 0.53965 0.25141 0.09289 0.0
C274 C 0.50552 0.29786 0.1803 0.0
C275 C 0.50592 0.31091 0.21404 0.0
N276 N 0.51337 0.32943 0.21081 0.0
C277 C 0.5131 0.31704 0.17728 0.0
C278 C 0.50184 0.29477 0.1988 0.0
C279 C 0.51701 0.33279 0.19291 0.0
C280 C 0.49516 0.30438 0.12034 0.0
N281 N 0.5087 0.29516 0.12452 0.0
C282 C 0.53069 0.3191 0.11291 0.0
C283 C 0.52624 0.30226 0.12121 0.0
C284 C 0.5171 0.32919 0.1086 0.0
C285 C 0.49909 0.32161 0.11242 0.0
H286 H 0.48145 0.29861 0.12367 0.0
H287 H 0.5369 0.29513 0.12537 0.0
C288 C 0.54107 0.25153 0.19171 0.0
N289 N 0.53564 0.26666 0.18492 0.0
C290 C 0.55722 0.25533 0.20441 0.0
C291 C 0.5617 0.29024 0.20305 0.0
C292 C 0.54557 0.28572 0.19024 0.0
C293 C 0.56789 0.27488 0.20997 0.0
H294 H 0.53338 0.23642 0.1866 0.0
H295 H 0.54144 0.29735 0.18392 0.0
C296 C 0.46614 0.2437 0.11586 0.0
N297 N 0.43904 0.22281 0.08627 0.0
C298 C 0.4491 0.23376 0.12008 0.0
C299 C 0.46928 0.24333 0.0966 0.0
C300 C 0.4356 0.2232 0.10491 0.0
C301 C 0.45544 0.23258 0.08184 0.0
C302 C 0.49591 0.22542 0.17794 0.0
C303 C 0.49807 0.20616 0.17258 0.0
C304 C 0.4943 0.23237 0.1972 0.0
C305 C 0.4987 0.19421 0.18661 0.0
C306 C 0.49508 0.22 0.21083 0.0
N307 N 0.49723 0.20133 0.2053 0.0
C308 C 0.51227 0.20776 0.12121 0.0
C309 C 0.4797 0.19995 0.11593 0.0
C310 C 0.51248 0.1889 0.11204 0.0
N311 N 0.49609 0.21304 0.12267 0.0
C312 C 0.47924 0.18081 0.10667 0.0
C313 C 0.49581 0.17514 0.10467 0.0
H314 H 0.52506 0.21803 0.1276 0.0
H315 H 0.46701 0.20411 0.11818 0.0
C316 C 0.4579 0.27548 0.1775 0.0
N317 N 0.46199 0.2578 0.17185 0.0
C318 C 0.44434 0.27665 0.18943 0.0
C319 C 0.43884 0.24116 0.18845 0.0
C320 C 0.45274 0.24074 0.17679 0.0
C321 C 0.43488 0.25937 0.19513 0.0
H322 H 0.46556 0.28872 0.17319 0.0
H323 H 0.45647 0.22695 0.17201 0.0
O324 O 0.52172 0.25759 0.13948 0.0
O325 O 0.50178 0.28227 0.16516 0.0
O326 O 0.47943 0.25429 0.13051 0.0
O327 O 0.49528 0.23729 0.16433 0.0
H328 H 0.55768 0.26366 0.14736 0.0
H329 H 0.51262 0.2494 0.10143 0.0
H330 H 0.57915 0.26192 0.12272 0.0
H331 H 0.53483 0.24796 0.07756 0.0
H332 H 0.50314 0.30872 0.22844 0.0
H333 H 0.51604 0.31969 0.16305 0.0
H334 H 0.49585 0.2801 0.20136 0.0
H335 H 0.52295 0.3477 0.19081 0.0
H336 H 0.54467 0.32414 0.10995 0.0
H337 H 0.48824 0.32908 0.10971 0.0
H338 H 0.56182 0.24297 0.20891 0.0
H339 H 0.56961 0.30548 0.20688 0.0
H340 H 0.44635 0.23408 0.13489 0.0
H341 H 0.48221 0.25135 0.09307 0.0
H342 H 0.4224 0.21533 0.10796 0.0
H343 H 0.45771 0.23208 0.06687 0.0
H344 H 0.49923 0.20045 0.15774 0.0
H345 H 0.49249 0.24714 0.20161 0.0
H346 H 0.50036 0.17928 0.18265 0.0
H347 H 0.49393 0.22522 0.22581 0.0
H348 H 0.52558 0.18519 0.11065 0.0
H349 H 0.4661 0.17049 0.10144 0.0
H350 H 0.44129 0.29085 0.1942 0.0
H351 H 0.43161 0.22761 0.19261 0.0
Li352 Li 0.07544 0.82348 0.10461 0.0
Li353 Li 0.09429 0.80729 0.12849 0.0
Li354 Li 0.07345 0.78742 0.09917 0.0
Li355 Li 0.05913 0.80109 0.12675 0.0
C356 C 0.10515 0.80436 0.08571 0.0
N357 N 0.12367 0.79274 0.05561 0.0
C358 C 0.12184 0.79918 0.08953 0.0
C359 C 0.09796 0.80383 0.06662 0.0
C360 C 0.13097 0.7933 0.0741 0.0
C361 C 0.1075 0.79784 0.05159 0.0
C362 C 0.08143 0.84167 0.1495 0.0
C363 C 0.08146 0.85284 0.18355 0.0
N364 N 0.08684 0.87195 0.18092 0.0
C365 C 0.08696 0.8614 0.14711 0.0
C366 C 0.07866 0.83729 0.16783 0.0
C367 C 0.08964 0.87651 0.16319 0.0
C368 C 0.05656 0.85032 0.09105 0.0
N369 N 0.07346 0.84632 0.09282 0.0
C370 C 0.08552 0.87364 0.07724 0.0
C371 C 0.08785 0.85757 0.08606 0.0
C372 C 0.06818 0.8782 0.07522 0.0
C373 C 0.0536 0.86612 0.08225 0.0
H374 H 0.04527 0.84108 0.09636 0.0
H375 H 0.10116 0.85409 0.08752 0.0
C376 C 0.11958 0.78978 0.1478 0.0
N377 N 0.11752 0.80772 0.14418 0.0
C378 C 0.13585 0.78794 0.15792 0.0
C379 C 0.14828 0.82297 0.15991 0.0
C380 C 0.13153 0.82423 0.15003 0.0
C381 C 0.1506 0.80461 0.16406 0.0
H382 H 0.10869 0.77667 0.1425 0.0
H383 H 0.12986 0.83833 0.14677 0.0
C384 C 0.03926 0.79443 0.08388 0.0
N385 N 0.01111 0.78054 0.05358 0.0
C386 C 0.02292 0.78159 0.08642 0.0
C387 C 0.04123 0.80036 0.06599 0.0
C388 C 0.00886 0.7747 0.07091 0.0
C389 C 0.02685 0.79311 0.05083 0.0
C390 C 0.07031 0.76744 0.13614 0.0
C391 C 0.06215 0.74807 0.12664 0.0
C392 C 0.07338 0.77165 0.15634 0.0
C393 C 0.0572 0.73319 0.13756 0.0
C394 C 0.06823 0.75635 0.16674 0.0
N395 N 0.06032 0.7376 0.15722 0.0
C396 C 0.08675 0.75558 0.08397 0.0
C397 C 0.05718 0.75382 0.06809 0.0
C398 C 0.08661 0.7368 0.07404 0.0
N399 N 0.07211 0.76364 0.08107 0.0
C400 C 0.05635 0.73483 0.05799 0.0
C401 C 0.07102 0.72587 0.06128 0.0
H402 H 0.09824 0.7634 0.09474 0.0
H403 H 0.0455 0.76015 0.06617 0.0
C404 C 0.03161 0.81308 0.14792 0.0
N405 N 0.03779 0.79702 0.14069 0.0
C406 C 0.01549 0.81075 0.15678 0.0
C407 C 0.01227 0.77537 0.15067 0.0
C408 C 0.02836 0.77838 0.1418 0.0
C409 C 1.00549 0.79166 0.15828 0.0
H410 H 0.039 0.82774 0.14645 0.0
H411 H 0.03303 0.76571 0.13544 0.0
O412 O 0.096 0.81008 0.10062 0.0
O413 O 0.07827 0.82678 0.13382 0.0
O414 O 0.05311 0.80142 0.09893 0.0
O415 O 0.07539 0.78217 0.1257 0.0
H416 H 0.12761 0.7996 0.10426 0.0
H417 H 0.08512 0.80792 0.06346 0.0
H418 H 0.14387 0.78918 0.07683 0.0
H419 H 0.10205 0.79725 0.03672 0.0
H420 H 0.0793 0.84971 0.19782 0.0
H421 H 0.08908 0.86499 0.13297 0.0
H422 H 0.07424 0.82208 0.16984 0.0
H423 H 0.09389 0.89186 0.16156 0.0
H424 H 0.09727 0.88256 0.07231 0.0
H425 H 0.03991 0.86866 0.08078 0.0
H426 H 0.13705 0.77344 0.16046 0.0
H427 H 0.15925 0.83624 0.16437 0.0
H428 H 0.02115 0.77692 0.10019 0.0
H429 H 0.0537 0.81044 0.06384 0.0
H430 H 0.99616 0.7647 0.07264 0.0
H431 H 0.02821 0.79751 0.03689 0.0
H432 H 0.05957 0.74456 0.11102 0.0
H433 H 0.07972 0.78657 0.16387 0.0
H434 H 0.05087 0.71813 0.13042 0.0
H435 H 0.07053 0.75937 0.18238 0.0
H436 H 0.09835 0.73064 0.07687 0.0
H437 H 0.04394 0.72688 0.0485 0.0
H438 H 0.01072 0.82379 0.16198 0.0
H439 H 1.00525 0.76037 0.15154 0.0
Li440 Li 0.51618 0.78684 0.42952 0.0
Li441 Li 0.49484 0.76778 0.40042 0.0
Li442 Li 0.51256 0.75041 0.42462 0.0
Li443 Li 0.52977 0.77141 0.40228 0.0
C444 C 0.48289 0.7705 0.44276 0.0
N445 N 0.46192 0.78 0.47131 0.0
C446 C 0.47136 0.78325 0.44028 0.0
C447 C 0.48375 0.76253 0.4597 0.0
C448 C 0.46087 0.78788 0.45491 0.0
C449 C 0.47305 0.76754 0.47399 0.0
C450 C 0.51413 0.80634 0.39241 0.0
C451 C 0.51958 0.82129 0.36422 0.0
N452 N 0.51348 0.83707 0.37236 0.0
C453 C 0.50763 0.82255 0.40037 0.0
C454 C 0.51996 0.80558 0.37411 0.0
C455 C 0.50753 0.838 0.39005 0.0
C456 C 0.5336 0.82642 0.44294 0.0
N457 N 0.52137 0.81129 0.44803 0.0
C458 C 0.51608 0.83326 0.47528 0.0
C459 C 0.51316 0.81422 0.4643 0.0
C460 C 0.5277 0.84943 0.46957 0.0
C461 C 0.5369 0.84565 0.45343 0.0
H462 H 0.54024 0.82367 0.43017 0.0
H463 H 0.50405 0.80199 0.46865 0.0
C464 C 0.45503 0.76031 0.39006 0.0
N465 N 0.47161 0.76728 0.38409 0.0
C466 C 0.43854 0.76161 0.3797 0.0
C467 C 0.45622 0.77696 0.35694 0.0
C468 C 0.47233 0.77525 0.36765 0.0
C469 C 0.43886 0.77025 0.3629 0.0
H470 H 0.45455 0.75396 0.40309 0.0
H471 H 0.48547 0.78064 0.36291 0.0
C472 C 0.54782 0.78083 0.44601 0.0
N473 N 0.57282 0.79959 0.47812 0.0
C474 C 0.56509 0.79203 0.44377 0.0
C475 C 0.54324 0.77914 0.46454 0.0
C476 C 0.57756 0.80137 0.4602 0.0
C477 C 0.55606 0.7888 0.48061 0.0
C478 C 0.51267 0.73393 0.38005 0.0
C479 C 0.51882 0.7172 0.38329 0.0
C480 C 0.51023 0.73781 0.36128 0.0
C481 C 0.5226 0.70466 0.36761 0.0
C482 C 0.51412 0.72488 0.34598 0.0
N483 N 0.52018 0.70872 0.34944 0.0
C484 C 0.49882 0.71439 0.44043 0.0
C485 C 0.53109 0.72558 0.44223 0.0
C486 C 0.5009 0.6983 0.44937 0.0
N487 N 0.51384 0.72764 0.437 0.0
C488 C 0.53379 0.70983 0.45125 0.0
C489 C 0.5186 0.69579 0.45494 0.0
H490 H 0.48522 0.71628 0.43624 0.0
H491 H 0.54287 0.73616 0.43926 0.0
C492 C 0.56046 0.79326 0.38695 0.0
N493 N 0.55171 0.77476 0.38925 0.0
C494 C 0.57694 0.79635 0.37876 0.0
C495 C 0.57574 0.76149 0.37632 0.0
C496 C 0.5592 0.75906 0.38438 0.0
C497 C 0.58489 0.78034 0.37325 0.0
H498 H 0.55483 0.80576 0.39177 0.0
H499 H 0.55261 0.74466 0.38719 0.0
O500 O 0.49301 0.76549 0.4285 0.0
O501 O 0.51542 0.79165 0.40276 0.0
O502 O 0.53552 0.77139 0.4301 0.0
O503 O 0.50884 0.74629 0.3952 0.0
H504 H 0.47059 0.78956 0.42724 0.0
H505 H 0.49263 0.75265 0.46182 0.0
H506 H 0.45188 0.79774 0.45322 0.0
H507 H 0.4736 0.76153 0.48721 0.0
H508 H 0.52417 0.82095 0.35011 0.0
H509 H 0.50288 0.82329 0.41443 0.0
H510 H 0.52476 0.79299 0.36762 0.0
H511 H 0.50275 0.85075 0.39613 0.0
H512 H 0.50906 0.83534 0.48789 0.0
H513 H 0.54591 0.85755 0.44834 0.0
H514 H 0.42565 0.75584 0.38487 0.0
H515 H 0.45749 0.78396 0.34433 0.0
H516 H 0.56885 0.7934 0.42951 0.0
H517 H 0.5299 0.77053 0.46647 0.0
H518 H 0.59101 0.81002 0.45871 0.0
H519 H 0.5527 0.78769 0.49505 0.0
H520 H 0.52073 0.714 0.39776 0.0
H521 H 0.50541 0.75068 0.35859 0.0
H522 H 0.52743 0.6917 0.36989 0.0
H523 H 0.51232 0.72768 0.33135 0.0
H524 H 0.48875 0.68802 0.45205 0.0
H525 H 0.54768 0.70846 0.45493 0.0
H526 H 0.5833 0.81117 0.37673 0.0
H527 H 0.58147 0.74874 0.37295 0.0
Li528 Li 0.57673 0.32405 0.60452 0.0
Li529 Li 0.59532 0.30804 0.62915 0.0
Li530 Li 0.57417 0.28798 0.60051 0.0
Li531 Li 0.55988 0.30289 0.62736 0.0
C532 C 0.6042 0.30186 0.58533 0.0
N533 N 0.61822 0.28497 0.55385 0.0
C534 C 0.6197 0.29424 0.58808 0.0
C535 C 0.59591 0.30105 0.5666 0.0
C536 C 0.62657 0.28574 0.57197 0.0
C537 C 0.60317 0.29238 0.55086 0.0
C538 C 0.58029 0.34273 0.64926 0.0
C539 C 0.57836 0.35291 0.68306 0.0
N540 N 0.5811 0.37207 0.6804 0.0
C541 C 0.58305 0.36249 0.64683 0.0
C542 C 0.57794 0.33784 0.66748 0.0
C543 C 0.58345 0.37712 0.66277 0.0
C544 C 0.55877 0.35208 0.59194 0.0
N545 N 0.57506 0.34668 0.59216 0.0
C546 C 0.58677 0.3723 0.57439 0.0
C547 C 0.58898 0.35641 0.58358 0.0
C548 C 0.57002 0.37818 0.57385 0.0
C549 C 0.55593 0.36774 0.58282 0.0
H550 H 0.54787 0.34412 0.5988 0.0
H551 H 0.60177 0.35178 0.58375 0.0
C552 C 0.62336 0.29059 0.64198 0.0
N553 N 0.61826 0.30812 0.64503 0.0
C554 C 0.63939 0.28822 0.65214 0.0
C555 C 0.64499 0.32203 0.66866 0.0
C556 C 0.62876 0.32377 0.6581 0.0
C557 C 0.65056 0.30399 0.66585 0.0
H558 H 0.61491 0.27833 0.63152 0.0
H559 H 0.62454 0.3376 0.66042 0.0
C560 C 0.53999 0.29425 0.58496 0.0
N561 N 0.51095 0.27803 0.55598 0.0
C562 C 0.52533 0.27935 0.58794 0.0
C563 C 0.53986 0.301 0.56732 0.0
C564 C 0.51078 0.27132 0.57308 0.0
C565 C 0.52506 0.29257 0.55283 0.0
C566 C 0.5714 0.26727 0.63553 0.0
C567 C 0.55836 0.25052 0.62552 0.0
C568 C 0.57989 0.267 0.65391 0.0
C569 C 0.55418 0.23365 0.63404 0.0
C570 C 0.57528 0.24987 0.66195 0.0
N571 N 0.56265 0.23368 0.65192 0.0
C572 C 0.58411 0.25271 0.58874 0.0
C573 C 0.55969 0.25615 0.56692 0.0
C574 C 0.58305 0.23363 0.57885 0.0
N575 N 0.57228 0.26342 0.58296 0.0
C576 C 0.55808 0.23703 0.55662 0.0
C577 C 0.56965 0.22536 0.56277 0.0
H578 H 0.59399 0.25878 0.60153 0.0
H579 H 0.5506 0.26488 0.56225 0.0
C580 C 0.52801 0.31368 0.64025 0.0
N581 N 0.53816 0.29994 0.64102 0.0
C582 C 0.51134 0.31158 0.64815 0.0
C583 C 0.5157 0.2812 0.65753 0.0
C584 C 0.53233 0.28396 0.64959 0.0
C585 C 0.50483 0.29505 0.65683 0.0
H586 H 0.53269 0.32613 0.63314 0.0
H587 H 0.5404 0.27312 0.65013 0.0
O588 O 0.5971 0.30995 0.60092 0.0
O589 O 0.57987 0.32828 0.6338 0.0
O590 O 0.55423 0.30247 0.59938 0.0
O591 O 0.57584 0.2839 0.62745 0.0
H592 H 0.62636 0.29488 0.60248 0.0
H593 H 0.58389 0.3069 0.56426 0.0
H594 H 0.63854 0.27975 0.57387 0.0
H595 H 0.59682 0.29153 0.53627 0.0
H596 H 0.57651 0.34937 0.69726 0.0
H597 H 0.58493 0.36647 0.63279 0.0
H598 H 0.57574 0.32257 0.66953 0.0
H599 H 0.58562 0.39249 0.66113 0.0
H600 H 0.59798 0.37971 0.56753 0.0
H601 H 0.54287 0.37179 0.58306 0.0
H602 H 0.64306 0.27413 0.64906 0.0
H603 H 0.65292 0.33461 0.67916 0.0
H604 H 0.52523 0.27405 0.60156 0.0
H605 H 0.5511 0.31255 0.56481 0.0
H606 H 0.49935 0.25975 0.57515 0.0
H607 H 0.52479 0.29759 0.53907 0.0
H608 H 0.55147 0.25058 0.61139 0.0
H609 H 0.58988 0.27993 0.66191 0.0
H610 H 0.54415 0.22056 0.62646 0.0
H611 H 0.58174 0.24945 0.67617 0.0
H612 H 0.59215 0.22516 0.58426 0.0
H613 H 0.54773 0.23135 0.54412 0.0
H614 H 0.50343 0.32257 0.64704 0.0
H615 H 0.51147 0.26837 0.66428 0.0
Li616 Li 0.01639 0.28792 0.92958 0.0
Li617 Li 0.99471 0.2679 0.9 0.0
Li618 Li 0.01339 0.2514 0.92426 0.0
Li619 Li 0.02968 0.27208 0.90163 0.0
C620 C 0.98306 0.27024 0.94272 0.0
N621 N 0.96237 0.27927 0.97176 0.0
C622 C 0.96739 0.27723 0.93864 0.0
C623 C 0.98789 0.26728 0.96146 0.0
C624 C 0.95719 0.28186 0.95354 0.0
C625 C 0.97735 0.27209 0.97598 0.0
C626 C 0.01881 0.3063 0.89139 0.0
C627 C 0.02353 0.31539 0.86032 0.0
N628 N 0.02741 0.33488 0.86865 0.0
C629 C 0.02288 0.3264 0.89967 0.0
C630 C 0.01908 0.3007 0.87158 0.0
C631 C 0.02715 0.34063 0.88791 0.0
C632 C 0.03757 0.32246 0.95534 0.0
N633 N 0.02019 0.31222 0.94776 0.0
C634 C 0.00802 0.33888 0.96215 0.0
C635 C 1.00554 0.3201 0.95091 0.0
C636 C 0.02582 0.34991 0.96994 0.0
C637 C 0.04071 0.34134 0.96663 0.0
H638 H 0.04913 0.31636 0.952 0.0
H639 H 0.992 0.3123 0.9439 0.0
C640 C 0.9611 0.252 0.87161 0.0
N641 N 0.97174 0.26817 0.88398 0.0
C642 C 0.94498 0.25332 0.86055 0.0
C643 C 0.95061 0.28767 0.87543 0.0
C644 C 0.96678 0.28583 0.88588 0.0
C645 C 0.93946 0.27132 0.86246 0.0
H646 H 0.96508 0.23804 0.87029 0.0
H647 H 0.97537 0.29856 0.8957 0.0
C648 C 0.04899 0.27621 0.94539 0.0
N649 N 0.07531 0.28311 0.97724 0.0
C650 C 0.06745 0.2777 0.94294 0.0
C651 C 0.04391 0.27813 0.96403 0.0
C652 C 0.08056 0.28122 0.95923 0.0
C653 C 0.05741 0.28163 0.97995 0.0
C654 C 0.01177 0.23294 0.88037 0.0
C655 C 0.02177 0.21924 0.88459 0.0
C656 C 1.0043 0.23218 0.86132 0.0
C657 C 0.02417 0.20495 0.86959 0.0
C658 C 0.00701 0.21766 0.84673 0.0
N659 N 0.01681 0.20446 0.85114 0.0
C660 C 0.99951 0.21656 0.94167 0.0
C661 C 0.03168 0.22548 0.94136 0.0
C662 C 1.00114 0.20046 0.95082 0.0
N663 N 0.01469 0.22868 0.93704 0.0
C664 C 0.03394 0.20978 0.9507 0.0
C665 C 0.01857 0.19687 0.95552 0.0
H666 H 0.98611 0.21933 0.93823 0.0
H667 H 0.04358 0.23502 0.93737 0.0
C668 C 0.06506 0.2928 0.89511 0.0
N669 N 0.05136 0.27635 0.88779 0.0
C670 C 0.0818 0.29617 0.88735 0.0
C671 C 0.06998 0.26602 0.86414 0.0
C672 C 0.05352 0.26319 0.87239 0.0
C673 C 0.08462 0.28256 0.87173 0.0
H674 H 0.06316 0.30309 0.90739 0.0
H675 H 0.04262 0.2503 0.86651 0.0
O676 O 0.99336 0.26594 0.92835 0.0
O677 O 0.01463 0.2922 0.90269 0.0
O678 O 0.03606 0.27325 0.92959 0.0
O679 O 0.0091 0.2469 0.89484 0.0
H680 H 0.96327 0.27932 0.92417 0.0
H681 H 0.99956 0.2612 0.96474 0.0
H682 H 0.94517 0.28752 0.95062 0.0
H683 H 0.98103 0.27005 0.99059 0.0
H684 H 0.0239 0.31131 0.84497 0.0
H685 H 0.02268 0.33097 0.91499 0.0
H686 H 0.01601 0.28518 0.865 0.0
H687 H 0.03026 0.35624 0.8941 0.0
H688 H 0.9962 0.3451 0.96384 0.0
H689 H 0.05467 0.34936 0.97228 0.0
H690 H 0.93675 0.24031 0.85078 0.0
H691 H 0.94698 0.30185 0.87728 0.0
H692 H 0.07163 0.27612 0.92863 0.0
H693 H 0.02977 0.2773 0.96619 0.0
H694 H 0.0949 0.28246 0.95754 0.0
H695 H 0.05368 0.28327 0.99446 0.0
H696 H 0.02765 0.21967 0.89926 0.0
H697 H 0.9966 0.24277 0.85784 0.0
H698 H 0.0319 0.19425 0.87263 0.0
H699 H 1.00135 0.2169 0.83191 0.0
H700 H 0.98888 0.19102 0.95435 0.0
H701 H 0.04762 0.20751 0.95371 0.0
H702 H 0.09259 0.30907 0.89391 0.0
H703 H 0.07116 0.25528 0.85186 0.0
Li704 Li 0.43727 0.03056 0.30057 0.0
Li705 Li 0.41299 0.00866 0.27625 0.0
Li706 Li 0.44027 0.0278 0.26695 0.0
Li707 Li 0.41712 0.04405 0.27845 0.0
C708 C 0.45033 0.99547 0.28043 0.0
N709 N 0.47544 0.97236 0.27597 0.0
C710 C 0.44427 0.97486 0.27551 0.0
C711 C 0.46914 1.00436 0.28316 0.0
C712 C 0.45719 0.96342 0.27341 0.0
C713 C 0.48163 0.99241 0.2807 0.0
C714 C 0.39657 0.0219 0.30968 0.0
C715 C 0.36485 0.01616 0.31552 0.0
N716 N 0.36898 0.00782 0.33101 0.0
C717 C 0.40055 0.01366 0.32593 0.0
C718 C 0.37862 0.02354 0.30468 0.0
C719 C 0.38641 1.00649 0.33643 0.0
C720 C 0.45872 0.05056 0.33523 0.0
N721 N 0.44994 0.03264 0.32458 0.0
C722 C 0.46086 0.01559 0.34804 0.0
C723 C 0.4508 0.01533 0.33049 0.0
C724 C 0.47033 0.03385 0.35915 0.0
C725 C 0.46928 0.05152 0.35274 0.0
H726 H 0.45778 0.064 0.32992 0.0
H727 H 0.44368 1.00135 0.32149 0.0
C728 C 0.39232 0.97605 0.25021 0.0
N729 N 0.39601 0.98441 0.26928 0.0
C730 C 0.37677 0.96076 0.24365 0.0
C731 C 0.37092 0.96118 0.2769 0.0
C732 C 0.38642 0.97653 0.28271 0.0
C733 C 0.36548 0.95387 0.25708 0.0
H734 H 0.40092 0.98189 0.23997 0.0
H735 H 0.39047 0.98242 0.29784 0.0
C736 C 0.45919 0.06659 0.2837 0.0
N737 N 0.4892 0.09591 0.27992 0.0
C738 C 0.45699 0.0811 0.27278 0.0
C739 C 0.4766 0.06703 0.29279 0.0
C740 C 0.47235 0.0958 0.27104 0.0
C741 C 0.49162 0.08194 0.29064 0.0
C742 C 0.39979 0.02014 0.24172 0.0
C743 C 0.40165 0.01761 0.22202 0.0
C744 C 0.38226 0.01761 0.24749 0.0
C745 C 0.38591 0.01241 0.20842 0.0
C746 C 0.36685 0.01233 0.23347 0.0
N747 N 0.36897 0.00985 0.21437 0.0
C748 C 0.44698 1.00686 0.23601 0.0
C749 C 0.47171 0.03541 0.24519 0.0
C750 C 0.45512 0.99999 0.22042 0.0
N751 N 0.45526 0.02421 0.24791 0.0
C752 C 0.48053 0.02897 0.22971 0.0
C753 C 0.47216 0.01098 0.21716 0.0
H754 H 0.43391 0.99834 0.23871 0.0
H755 H 0.47801 0.04915 0.25491 0.0
C756 C 0.39675 0.0721 0.28919 0.0
N757 N 0.40484 0.06352 0.27489 0.0
C758 C 0.38646 0.08561 0.28535 0.0
C759 C 0.3929 0.08067 0.25215 0.0
C760 C 0.40338 0.06771 0.25677 0.0
C761 C 0.38434 0.0899 0.26654 0.0
H762 H 0.39819 0.06833 0.30346 0.0
H763 H 0.41016 0.06072 0.24579 0.0
O764 O 0.43781 1.00679 0.28282 0.0
O765 O 0.41022 0.02864 0.29898 0.0
O766 O 0.44421 0.05268 0.28633 0.0
O767 O 0.41505 0.02411 0.25518 0.0
H768 H 0.42973 0.96778 0.2735 0.0
H769 H 0.47403 0.0203 0.28698 0.0
H770 H 0.4527 0.94743 0.26973 0.0
H771 H 0.49623 0.99907 0.2826 0.0
H772 H 0.35088 0.01715 0.31167 0.0
H773 H 0.41431 0.01243 0.33022 0.0
H774 H 0.37531 0.03052 0.29265 0.0
H775 H 0.38928 0.99982 0.34885 0.0
H776 H 0.46164 1.00175 0.35266 0.0
H777 H 0.47657 0.06579 0.36115 0.0
H778 H 0.37333 0.95486 0.22832 0.0
H779 H 0.36315 0.95523 0.28777 0.0
H780 H 0.44356 0.08111 0.26588 0.0
H781 H 0.4785 0.056 0.30142 0.0
H782 H 0.47085 0.10718 0.26269 0.0
H783 H 0.5052 0.08244 0.29754 0.0
H784 H 0.41512 0.01944 0.21728 0.0
H785 H 0.38059 0.01915 0.26261 0.0
H786 H 0.38715 0.01029 0.19312 0.0
H787 H 0.35319 0.01006 0.23776 0.0
H788 H 0.44792 0.98638 0.21083 0.0
H789 H 0.4937 0.03786 0.22764 0.0
H790 H 0.38034 0.09263 0.29696 0.0
H791 H 0.39137 0.08319 0.23739 0.0
Li792 Li 0.28667 0.20596 0.51714 0.0
Li793 Li 0.29927 0.17863 0.50128 0.0
Li794 Li 0.28583 0.20129 0.48117 0.0
Li795 Li 0.26457 0.17547 0.49742 0.0
C796 C 0.32238 0.22349 0.5076 0.0
N797 N 0.35213 0.25543 0.52014 0.0
C798 C 0.33781 0.22126 0.51885 0.0
C799 C 0.32224 0.24185 0.50238 0.0
C800 C 0.35268 0.23761 0.52513 0.0
C801 C 0.33737 0.25786 0.50897 0.0
C802 C 0.28324 0.16597 0.53396 0.0
C803 C 0.27829 0.13314 0.54172 0.0
N804 N 0.28605 0.14108 0.56023 0.0
C805 C 0.29107 0.17384 0.55306 0.0
C806 C 0.2767 0.14549 0.52823 0.0
C807 C 0.29239 0.161 0.56612 0.0
C808 C 0.27224 0.22411 0.54843 0.0
N809 N 0.28842 0.22343 0.54149 0.0
C810 C 0.30522 0.2411 0.57193 0.0
C811 C 0.30477 0.23194 0.55275 0.0
C812 C 0.28868 0.24141 0.57967 0.0
C813 C 0.27205 0.23324 0.56741 0.0
H814 H 0.25939 0.21665 0.53955 0.0
H815 H 0.31746 0.23063 0.54733 0.0
C816 C 0.32464 0.15564 0.48824 0.0
N817 N 0.31892 0.16486 0.50414 0.0
C818 C 0.33949 0.14672 0.49015 0.0
C819 C 0.3425 0.15702 0.52473 0.0
C820 C 0.32755 0.16567 0.52216 0.0
C821 C 0.34879 0.1474 0.5086 0.0
H822 H 0.31782 0.15541 0.47401 0.0
H823 H 0.32318 0.17351 0.5346 0.0
C824 C 0.25679 0.21925 0.50031 0.0
N825 N 0.23951 0.24987 0.50802 0.0
C826 C 0.23802 0.21514 0.50207 0.0
C827 C 0.26674 0.23891 0.50237 0.0
C828 C 0.22954 0.23083 0.50599 0.0
C829 C 0.25777 0.25419 0.5063 0.0
C830 C 0.27759 0.1553 0.46249 0.0
C831 C 0.27396 0.15762 0.44331 0.0
C832 C 0.27792 0.13658 0.46668 0.0
C833 C 0.2707 0.14109 0.42856 0.0
C834 C 0.27459 0.12041 0.45152 0.0
N835 N 0.27109 0.12298 0.43294 0.0
C836 C 0.30378 0.21419 0.44973 0.0
C837 C 0.27448 0.22112 0.45079 0.0
C838 C 0.30593 0.2224 0.4329 0.0
N839 N 0.2882 0.21359 0.45828 0.0
C840 C 0.27609 0.22953 0.43401 0.0
C841 C 0.29195 0.23017 0.42467 0.0
H842 H 0.31454 0.20818 0.45594 0.0
H843 H 0.26217 0.22043 0.45774 0.0
C844 C 0.23175 0.16291 0.51321 0.0
N845 N 0.24014 0.15854 0.49734 0.0
C846 C 0.214 0.15215 0.51472 0.0
C847 C 0.21376 0.13217 0.48368 0.0
C848 C 0.23152 0.14343 0.4827 0.0
C849 C 0.20461 0.13646 0.49984 0.0
H850 H 0.23881 0.17501 0.52467 0.0
H851 H 0.23838 0.14009 0.47021 0.0
O852 O 0.30773 0.20761 0.50127 0.0
O853 O 0.28187 0.17831 0.52098 0.0
O854 O 0.26535 0.20406 0.49675 0.0
O855 O 0.28124 0.17142 0.47701 0.0
H856 H 0.33824 0.20711 0.52285 0.0
H857 H 0.31067 0.2437 0.4932 0.0
H858 H 0.36464 0.23613 0.53398 0.0
H859 H 0.33741 0.27219 0.50514 0.0
H860 H 0.27334 0.11724 0.53749 0.0
H861 H 0.29614 0.18969 0.55773 0.0
H862 H 0.27045 0.13921 0.51353 0.0
H863 H 0.29847 0.16687 0.58095 0.0
H864 H 0.31837 0.24687 0.58088 0.0
H865 H 0.25895 0.23329 0.57263 0.0
H866 H 0.34358 0.13931 0.47724 0.0
H867 H 0.34932 0.15833 0.53922 0.0
H868 H 0.23009 0.19999 0.50042 0.0
H869 H 0.28126 0.24233 0.50113 0.0
H870 H 0.21503 0.22787 0.50743 0.0
H871 H 0.26533 0.26949 0.50802 0.0
H872 H 0.27373 0.17205 0.43985 0.0
H873 H 0.28087 0.1346 0.48145 0.0
H874 H 0.26791 0.14266 0.41364 0.0
H875 H 0.27485 0.10583 0.45452 0.0
H876 H 0.31852 0.22277 0.42649 0.0
H877 H 0.26484 0.23509 0.42819 0.0
H878 H 0.20762 0.15637 0.52735 0.0
H879 H 0.20737 0.12007 0.47194 0.0
Li880 Li 0.17902 0.03628 0.774 0.0
Li881 Li 0.15185 0.01418 0.79131 0.0
Li882 Li 0.17541 0.99509 0.77055 0.0
Li883 Li 0.15095 0.01133 0.75226 0.0
C884 C 0.19408 0.02363 0.80988 0.0
N885 N 0.22185 0.03425 0.84063 0.0
C886 C 0.19046 0.03088 0.82834 0.0
C887 C 0.21181 0.02186 0.807 0.0
C888 C 0.2047 0.03616 0.84372 0.0
C889 C 0.22567 0.02728 0.82276 0.0
C890 C 0.13848 0.0448 0.77107 0.0
C891 C 0.10645 0.04512 0.76575 0.0
N892 N 0.11134 0.06482 0.76513 0.0
C893 C 0.14322 0.06504 0.77038 0.0
C894 C 0.11998 0.03474 0.76877 0.0
C895 C 0.12928 0.07491 0.76738 0.0
C896 C 0.20032 0.07034 0.7575 0.0
N897 N 0.19482 0.06516 0.77439 0.0
C898 C 0.20738 0.09965 0.79003 0.0
C899 C 0.19828 0.07968 0.79051 0.0
C900 C 0.21343 0.10539 0.77283 0.0
C901 C 0.20972 0.09002 0.75648 0.0
H902 H 0.19706 0.05928 0.74446 0.0
H903 H 0.19366 0.07594 0.80387 0.0
C904 C 0.12933 0.99913 0.82347 0.0
N905 N 0.13804 0.01571 0.81689 0.0
C906 C 0.12076 1.00033 0.84081 0.0
C907 C 0.1298 0.03562 0.84498 0.0
C908 C 0.13811 0.03379 0.82754 0.0
C909 C 0.12083 0.0188 0.85234 0.0
H910 H 0.12907 0.98467 0.81538 0.0
H911 H 0.14482 0.04711 0.82265 0.0
C912 C 0.18563 0.0098 0.73442 0.0
N913 N 0.20023 1.00078 0.70058 0.0
C914 C 0.17554 0.99473 0.71961 0.0
C915 C 0.20327 0.02004 0.73219 0.0
C916 C 0.18312 0.99046 0.70255 0.0
C917 C 0.21039 0.01532 0.71493 0.0
C918 C 0.13198 0.97443 0.76087 0.0
C919 C 0.13411 0.9593 0.74657 0.0
C920 C 0.1146 0.97437 0.7664 0.0
C921 C 0.11872 0.94436 0.73791 0.0
C922 C 0.09955 0.95918 0.75738 0.0
N923 N 0.1019 0.94462 0.74344 0.0
C924 C 0.19971 0.96778 0.78532 0.0
C925 C 0.18781 0.957 0.75267 0.0
C926 C 0.20869 0.95172 0.78486 0.0
N927 N 0.18933 0.97055 0.76936 0.0
C928 C 0.1964 0.9406 0.75169 0.0
C929 C 0.20729 0.93736 0.76789 0.0
H930 H 0.2011 0.97801 0.79877 0.0
H931 H 0.17985 0.95872 0.73977 0.0
C932 C 0.13588 0.02974 0.72069 0.0
N933 N 0.13561 0.01157 0.72557 0.0
C934 C 0.12705 0.03183 0.70269 0.0
C935 C 0.11761 0.99651 0.69411 0.0
C936 C 0.12645 0.99508 0.71244 0.0
C937 C 0.11774 0.01514 0.68857 0.0
H938 H 0.14323 0.04294 0.73071 0.0
H939 H 0.12625 0.98056 0.71586 0.0
O940 O 0.18023 0.01795 0.79477 0.0
O941 O 0.15189 0.03482 0.77378 0.0
O942 O 0.17831 0.01444 0.75106 0.0
O943 O 0.14687 0.98919 0.7695 0.0
H944 H 0.1768 0.03231 0.83079 0.0
H945 H 0.21478 0.01625 0.79277 0.0
H946 H 0.20209 0.04174 0.8581 0.0
H947 H 0.23945 0.02591 0.82078 0.0
H948 H 0.09206 0.0375 0.76387 0.0
H949 H 0.1575 0.07303 0.77209 0.0
H950 H 0.11612 0.01905 0.76917 0.0
H951 H 0.13273 0.09058 0.76682 0.0
H952 H 0.20975 0.11052 0.8032 0.0
H953 H 0.21356 0.09324 0.74268 0.0
H954 H 0.11442 0.98663 0.84527 0.0
H955 H 0.13032 0.05037 0.85251 0.0
H956 H 0.16201 0.98643 0.72127 0.0
H957 H 0.21142 0.03147 0.7437 0.0
H958 H 0.17542 0.97893 0.6909 0.0
H959 H 0.22399 0.02319 0.71297 0.0
H960 H 0.14747 0.95916 0.74214 0.0
H961 H 0.11277 0.98589 0.77759 0.0
H962 H 0.12014 0.93257 0.72678 0.0
H963 H 0.086 0.95895 0.76149 0.0
H964 H 0.21648 0.95047 0.79808 0.0
H965 H 0.19464 0.93065 0.73798 0.0
H966 H 0.1276 0.04669 0.70008 0.0
H967 H 0.11108 0.9829 0.68422 0.0
Li968 Li 0.2885 0.93368 0.00684 0.0
Li969 Li 0.30787 0.91275 0.01938 0.0
Li970 Li 0.32107 0.94422 0.01134 0.0
Li971 Li 0.30703 0.91631 0.98584 0.0
C972 C 0.31034 0.95374 0.04642 0.0
N973 N 0.32367 0.98485 0.07696 0.0
C974 C 0.3179 0.95029 0.06405 0.0
C975 C 0.30928 0.97293 0.04439 0.0
C976 C 0.32463 0.96623 0.0793 0.0
C977 C 0.31618 0.98849 0.05999 0.0
C978 C 0.27427 0.88817 1.0028 0.0
C979 C 0.26448 0.85269 1.00024 0.0
N980 N 0.25044 0.85506 0.01053 0.0
C981 C 0.25962 0.89023 0.01316 0.0
C982 C 0.27661 0.86924 0.99608 0.0
C983 C 0.24776 0.87332 0.01698 0.0
C984 C 0.25988 0.94953 0.99387 0.0
N985 N 0.26762 0.94306 0.00902 0.0
C986 C 0.24692 0.95355 0.02954 0.0
C987 C 0.2616 0.94493 0.02664 0.0
C988 C 0.23885 0.96058 0.01425 0.0
C989 C 0.24533 0.95855 0.99622 0.0
H990 H 0.26531 0.94807 0.98017 0.0
H991 H 0.26839 0.93994 0.03845 0.0
C992 C 0.33053 0.90082 0.04489 0.0
N993 N 0.3124 0.89792 0.03841 0.0
C994 C 0.33597 0.89379 0.06123 0.0
C995 C 0.30392 0.88091 0.06419 0.0
C996 C 0.29909 0.88807 0.04756 0.0
C997 C 0.3226 0.8842 0.07139 0.0
H998 H 0.34086 0.90958 0.03808 0.0
H999 H 0.28479 0.88674 0.04268 0.0
C1000 C 0.31324 0.95701 0.97707 0.0
N1001 N 0.33149 0.98284 0.95542 0.0
C1002 C 0.32872 0.95336 0.96901 0.0
C1003 C 0.30709 0.97384 0.97421 0.0
C1004 C 0.33773 0.96657 0.95807 0.0
C1005 C 0.3165 0.98671 0.9632 0.0
C1006 C 0.34012 0.90739 1.00049 0.0
C1007 C 0.3588 0.91562 1.00038 0.0
C1008 C 0.3335 0.8868 0.99701 0.0
C1009 C 0.37059 0.90307 0.99672 0.0
C1010 C 0.34571 0.87474 0.99335 0.0
N1011 N 0.36385 0.88306 0.9933 0.0
C1012 C 0.3512 0.95918 0.03564 0.0
C1013 C 0.34841 0.98151 0.01407 0.0
C1014 C 0.36893 0.96967 0.0428 0.0
N1015 N 0.34167 0.96473 0.02105 0.0
C1016 C 0.36651 0.99215 0.02039 0.0
C1017 C 0.37715 0.98529 0.034 0.0
H1018 H 0.34552 0.94559 0.0406 0.0
H1019 H 0.34044 0.98569 1.00259 0.0
C1020 C 0.28976 0.89228 0.95188 0.0
N1021 N 0.30677 0.90177 0.96109 0.0
C1022 C 0.2878 0.87936 0.93438 0.0
C1023 C 0.32094 0.88636 0.93607 0.0
C1024 C 0.32226 0.89927 0.95351 0.0
C1025 C 0.30353 0.87616 0.9264 0.0
H1026 H 0.27772 0.89444 0.9584 0.0
H1027 H 0.33565 0.90696 0.96112 0.0
O1028 O 0.30442 0.93843 0.03109 0.0
O1029 O 0.28592 0.90455 0.99878 0.0
O1030 O 0.30431 0.94442 0.988 0.0
O1031 O 0.32856 0.91953 1.00471 0.0
H1032 H 0.31878 0.9355 0.06586 0.0
H1033 H 0.30349 0.97581 0.0308 0.0
H1034 H 0.33067 0.96382 0.09297 0.0
H1035 H 0.31566 1.00347 0.05858 0.0
H1036 H 0.26619 0.83795 0.99522 0.0
H1037 H 0.25746 0.90469 0.01829 0.0
H1038 H 0.28759 0.86731 0.98763 0.0
H1039 H 0.23644 0.87473 0.02508 0.0
H1040 H 0.24223 0.9552 0.04365 0.0
H1041 H 0.2393 0.96401 0.98425 0.0
H1042 H 0.3505 0.89646 0.06623 0.0
H1043 H 0.29319 0.87385 0.07185 0.0
H1044 H 0.33391 0.94068 0.97149 0.0
H1045 H 0.29522 0.97695 0.98052 0.0
H1046 H 0.34976 0.96396 0.95178 0.0
H1047 H 0.31191 0.99981 0.96089 0.0
H1048 H 0.36415 0.93155 1.00321 0.0
H1049 H 0.31914 0.88024 0.99731 0.0
H1050 H 0.3851 0.90923 0.99665 0.0
H1051 H 0.34079 0.85878 0.99064 0.0
H1052 H 0.37692 0.96397 0.05318 0.0
H1053 H 0.37267 1.00408 0.01321 0.0
H1054 H 0.27414 0.87159 0.9274 0.0
H1055 H 0.33336 0.88438 0.93021 0.0
Li1056 Li 0.29122 0.39643 0.03006 0.0
Li1057 Li 0.30585 0.37454 0.04956 0.0
Li1058 Li 0.32629 0.40072 0.03199 0.0
Li1059 Li 0.30395 0.36954 0.01329 0.0
C1060 C 0.30751 0.41909 0.06707 0.0
N1061 N 0.30054 0.44834 0.09419 0.0
C1062 C 0.29897 0.4141 0.08303 0.0
C1063 C 0.31261 0.43892 0.06493 0.0
C1064 C 0.29554 0.42912 0.09658 0.0
C1065 C 0.30894 0.45351 0.0788 0.0
C1066 C 0.26901 0.35187 0.02255 0.0
C1067 C 0.25646 0.31679 0.01167 0.0
N1068 N 0.23948 0.3202 0.008 0.0
C1069 C 0.25146 0.35503 0.01865 0.0
C1070 C 0.27155 0.3326 0.01908 0.0
C1071 C 0.2367 0.33883 0.01132 0.0
C1072 C 0.26231 0.40844 0.00915 0.0
N1073 N 0.27063 0.40917 0.02732 0.0
C1074 C 0.24873 0.42568 0.04086 0.0
C1075 C 0.26393 0.41737 0.04306 0.0
C1076 C 0.24007 0.42555 0.02227 0.0
C1077 C 0.24709 0.41665 0.00628 0.0
H1078 H 0.26738 0.4013 0.99679 0.0
H1079 H 0.27012 0.4172 0.05739 0.0
C1080 C 0.31866 0.36806 0.08752 0.0
N1081 N 0.30448 0.36229 0.07284 0.0
C1082 C 0.31752 0.36017 0.10466 0.0
C1083 C 0.28727 0.34037 0.09138 0.0
C1084 C 0.28897 0.34865 0.07451 0.0
C1085 C 0.30161 0.34614 0.10693 0.0
H1086 H 0.33081 0.37904 0.08604 0.0
H1087 H 0.27779 0.34426 0.06278 0.0
C1088 C 0.30684 0.40835 0.99521 0.0
N1089 N 0.3049 0.43065 0.96639 0.0
C1090 C 0.3086 0.40056 0.97621 0.0
C1091 C 0.30428 0.42756 0.9996 0.0
C1092 C 0.30754 0.41205 0.96183 0.0
C1093 C 0.30328 0.43857 0.98481 0.0
C1094 C 0.33515 0.35745 0.03015 0.0
C1095 C 0.3522 0.36121 0.02323 0.0
C1096 C 0.32755 0.33863 0.03398 0.0
C1097 C 0.3612 0.34588 0.01987 0.0
C1098 C 0.33698 0.32369 0.03041 0.0
N1099 N 0.35345 0.32758 0.02346 0.0
C1100 C 0.36534 0.41655 0.04407 0.0
C1101 C 0.35352 0.4305 0.01874 0.0
C1102 C 0.38327 0.42745 0.04319 0.0
N1103 N 0.35083 0.41813 0.03188 0.0
C1104 C 0.37119 0.44166 0.01739 0.0
C1105 C 0.38652 0.44021 0.02961 0.0
H1106 H 0.36305 0.40653 0.05431 0.0
H1107 H 0.34204 0.43149 0.00895 0.0
C1108 C 0.28459 0.35013 0.97666 0.0
N1109 N 0.30029 0.35172 0.98865 0.0
C1110 C 0.28263 0.34101 0.95724 0.0
C1111 C 0.31262 0.33445 0.96298 0.0
C1112 C 0.31405 0.3438 0.98222 0.0
C1113 C 0.29698 0.33343 0.95004 0.0
H1114 H 0.27399 0.35694 0.9819 0.0
H1115 H 0.32662 0.34562 0.9916 0.0
O1116 O 0.31099 0.40461 0.05371 0.0
O1117 O 0.28354 0.36756 0.03004 0.0
O1118 O 0.30738 0.39714 0.00939 0.0
O1119 O 0.32596 0.37214 0.0331 0.0
H1120 H 0.29491 0.3988 0.08486 0.0
H1121 H 0.31929 0.44298 0.05266 0.0
H1122 H 0.28886 0.42549 0.10896 0.0
H1123 H 0.31276 0.46893 0.07733 0.0
H1124 H 0.25823 0.30181 0.00885 0.0
H1125 H 0.2492 0.36982 0.02143 0.0
H1126 H 0.28504 0.32989 0.02195 0.0
H1127 H 0.22302 0.34106 0.00832 0.0
H1128 H 0.24362 0.43183 0.0537 0.0
H1129 H 0.24104 0.41615 0.99165 0.0
H1130 H 0.32889 0.36539 0.11619 0.0
H1131 H 0.27482 0.32944 0.09213 0.0
H1132 H 0.31082 0.38583 0.97258 0.0
H1133 H 0.30299 0.43383 0.01427 0.0
H1134 H 0.30882 0.40618 0.94706 0.0
H1135 H 0.3012 0.45341 0.98797 0.0
H1136 H 0.35825 0.37572 0.0202 0.0
H1137 H 0.31453 0.33559 0.03966 0.0
H1138 H 0.37432 0.34851 0.01435 0.0
H1139 H 0.33121 0.309 0.03317 0.0
H1140 H 0.39446 0.4259 0.05315 0.0
H1141 H 0.37283 0.45098 0.00647 0.0
H1142 H 0.27026 0.34044 0.94783 0.0
H1143 H 0.32414 0.32911 0.95805 0.0
Li1144 Li 0.78414 0.16061 0.04389 0.0
Li1145 Li 0.80061 0.14008 0.02228 0.0
Li1146 Li 0.78184 0.16076 0.00929 0.0
Li1147 Li 0.76799 0.13099 0.02089 0.0
C1148 C 0.81669 0.18645 0.02747 0.0
N1149 N 0.84198 0.22095 0.02533 0.0
C1150 C 0.83311 0.18556 0.01995 0.0
C1151 C 0.81325 0.20488 0.03415 0.0
C1152 C 0.8457 0.20317 0.01895 0.0
C1153 C 0.82616 0.22216 0.03285 0.0
C1154 C 0.77882 0.11743 0.0522 0.0
C1155 C 0.76901 0.08229 0.05175 0.0
N1156 N 0.76206 0.08605 0.0687 0.0
C1157 C 0.77176 0.12098 0.06971 0.0
C1158 C 0.77763 0.09797 0.04322 0.0
C1159 C 0.76328 0.1049 0.07779 0.0
C1160 C 0.76808 0.17795 0.07349 0.0
N1161 N 0.78442 0.17621 0.06761 0.0
C1162 C 0.80097 0.19943 0.09501 0.0
C1163 C 0.80071 0.18637 0.07799 0.0
C1164 C 0.78428 0.20221 0.1011 0.0
C1165 C 0.76768 0.19113 0.09018 0.0
H1166 H 0.75536 0.16941 0.06497 0.0
H1167 H 0.81345 0.1845 0.07286 0.0
C1168 C 0.82713 0.1291 1.00177 0.0
N1169 N 0.82136 0.13075 0.01949 0.0
C1170 C 0.8418 0.12059 0.99848 0.0
C1171 C 0.84464 0.11642 0.03202 0.0
C1172 C 0.82976 0.12483 0.03459 0.0
C1173 C 0.85062 0.11396 0.01369 0.0
H1174 H 0.82001 0.13401 0.99012 0.0
H1175 H 0.82468 0.12638 0.04848 0.0
C1176 C 0.7495 0.16816 0.02477 0.0
N1177 N 0.72426 0.19114 0.02209 0.0
C1178 C 0.73098 0.15922 0.01818 0.0
C1179 C 0.75515 0.18878 0.03001 0.0
C1180 C 0.71844 0.1711 0.0169 0.0
C1181 C 0.74219 0.20014 0.02857 0.0
C1182 C 0.77836 0.11903 0.98317 0.0
C1183 C 0.76852 0.12182 0.96646 0.0
C1184 C 0.78402 0.10139 0.98328 0.0
C1185 C 0.76438 0.10684 0.95014 0.0
C1186 C 0.7796 0.08677 0.96665 0.0
N1187 N 0.76995 0.08977 0.95057 0.0
C1188 C 0.7934 0.18644 0.98303 0.0
C1189 C 0.76133 0.17321 0.9818 0.0
C1190 C 0.79033 0.19613 0.96767 0.0
N1191 N 0.77891 0.17549 0.98986 0.0
C1192 C 0.75762 0.18277 0.96667 0.0
C1193 C 0.77222 0.19434 0.95948 0.0
H1194 H 0.80728 0.18731 0.98913 0.0
H1195 H 0.7502 0.16337 0.98662 0.0
C1196 C 0.73644 0.11302 0.03279 0.0
N1197 N 0.74651 0.11071 0.01795 0.0
C1198 C 0.71875 0.10136 0.03156 0.0
C1199 C 0.7222 0.08484 0.99986 0.0
C1200 C 0.74 0.09662 1.00186 0.0
C1201 C 0.71129 0.08762 0.01463 0.0
H1202 H 0.74174 0.12483 0.04506 0.0
H1203 H 0.74803 0.09519 0.99011 0.0
O1204 O 0.80432 0.16933 0.02872 0.0
O1205 O 0.78684 0.13298 0.04389 0.0
O1206 O 0.76198 0.15671 0.02581 0.0
O1207 O 0.78267 0.13363 0.99921 0.0
H1208 H 0.8361 0.17144 0.01491 0.0
H1209 H 0.80083 0.20587 0.04038 0.0
H1210 H 0.85844 0.2027 0.01311 0.0
H1211 H 0.82363 0.23652 0.03788 0.0
H1212 H 0.76781 0.06713 0.04487 0.0
H1213 H 0.77265 0.13598 0.07686 0.0
H1214 H 0.7831 0.09502 0.02968 0.0
H1215 H 0.75763 0.1074 0.09127 0.0
H1216 H 0.81409 0.20725 0.10326 0.0
H1217 H 0.75451 0.19289 0.09421 0.0
H1218 H 0.84583 0.11871 0.98409 0.0
H1219 H 0.85127 0.11176 0.04418 0.0
H1220 H 0.72637 0.1433 0.01385 0.0
H1221 H 0.76938 0.19592 0.03513 0.0
H1222 H 0.7041 0.16438 0.01174 0.0
H1223 H 0.74639 0.21612 0.03258 0.0
H1224 H 0.76409 0.13537 0.96607 0.0
H1225 H 0.79162 0.09897 0.9961 0.0
H1226 H 0.75674 0.1088 0.93712 0.0
H1227 H 0.78382 0.07301 0.96654 0.0
H1228 H 0.80189 0.20485 0.96224 0.0
H1229 H 0.74352 0.18067 0.96027 0.0
H1230 H 0.7105 0.10422 0.043 0.0
H1231 H 0.71665 0.07448 0.98652 0.0
Li1232 Li 0.17035 0.56665 0.25864 0.0
Li1233 Li 0.14284 0.54236 0.26199 0.0
Li1234 Li 0.16816 0.531 0.25094 0.0
Li1235 Li 0.1493 0.54625 0.23148 0.0
C1236 C 0.18315 0.55134 0.28944 0.0
N1237 N 0.21436 0.56142 0.31624 0.0
C1238 C 0.1817 0.55505 0.30921 0.0
C1239 C 0.20047 0.55271 0.28332 0.0
C1240 C 0.19764 0.56014 0.32253 0.0
C1241 C 0.21608 0.55782 0.29708 0.0
C1242 C 0.13631 0.57874 0.24206 0.0
C1243 C 0.11013 0.58389 0.22291 0.0
N1244 N 0.11912 0.60312 0.22372 0.0
C1245 C 0.14527 0.59856 0.24273 0.0
C1246 C 0.11853 0.57138 0.23219 0.0
C1247 C 0.13635 0.61064 0.23338 0.0
C1248 C 0.19631 0.59851 0.25448 0.0
N1249 N 0.18678 0.5907 0.26801 0.0
C1250 C 0.20583 0.61472 0.2935 0.0
C1251 C 0.19068 0.59878 0.28714 0.0
C1252 C 0.2167 0.62194 0.27987 0.0
C1253 C 0.21157 0.61418 0.26016 0.0
H1254 H 0.1924 0.59204 0.23936 0.0
H1255 H 0.18248 0.59241 0.29745 0.0
C1256 C 0.1311 0.53206 0.29502 0.0
N1257 N 0.12598 0.53952 0.27932 0.0
C1258 C 0.1256 0.53838 0.31269 0.0
C1259 C 0.10806 0.55798 0.29693 0.0
C1260 C 0.11396 0.55134 0.27958 0.0
C1261 C 0.11482 0.55227 0.31373 0.0
H1262 H 0.14119 0.52324 0.29432 0.0
H1263 H 0.11066 0.55742 0.26693 0.0
C1264 C 0.18893 0.54957 0.22296 0.0
N1265 N 0.21441 0.54628 0.19748 0.0
C1266 C 0.18325 0.53909 0.20408 0.0
C1267 C 0.20761 0.55831 0.22886 0.0
C1268 C 0.19634 0.53762 0.19142 0.0
C1269 C 0.22026 0.55648 0.21578 0.0
C1270 C 0.12788 0.50683 0.24478 0.0
C1271 C 0.13126 0.49019 0.25167 0.0
C1272 C 0.10991 0.50925 0.24243 0.0
C1273 C 0.11666 0.47642 0.25643 0.0
C1274 C 0.09567 0.49517 0.24738 0.0
N1275 N 0.09931 0.47918 0.25423 0.0
C1276 C 0.1809 0.50466 0.26938 0.0
C1277 C 0.19147 0.50589 0.23876 0.0
C1278 C 0.19118 0.49126 0.27311 0.0
N1279 N 0.18149 0.51189 0.25261 0.0
C1280 C 0.202 0.49243 0.24189 0.0
C1281 C 0.20204 0.48523 0.25937 0.0
H1282 H 0.17248 0.50945 0.2799 0.0
H1283 H 0.19143 0.51161 0.22543 0.0
C1284 C 0.14595 0.56185 0.19777 0.0
N1285 N 0.13963 0.54632 0.20667 0.0
C1286 C 0.13764 0.56229 0.17946 0.0
C1287 C 0.11699 0.53055 0.18 0.0
C1288 C 0.12573 0.53067 0.19816 0.0
C1289 C 0.12288 0.54659 0.17073 0.0
H1290 H 0.15711 0.57401 0.20511 0.0
H1291 H 0.12123 0.51852 0.20566 0.0
O1292 O 0.16769 0.54711 0.27622 0.0
O1293 O 0.14455 0.56696 0.25186 0.0
O1294 O 0.17624 0.55188 0.23535 0.0
O1295 O 0.142 0.52044 0.23996 0.0
H1296 H 0.16842 0.55428 0.31421 0.0
H1297 H 0.20185 0.54992 0.26811 0.0
H1298 H 0.19672 0.56317 0.33787 0.0
H1299 H 0.22957 0.55898 0.29252 0.0
H1300 H 0.09643 0.57835 0.21511 0.0
H1301 H 0.15887 0.60464 0.25061 0.0
H1302 H 0.11133 0.55612 0.23161 0.0
H1303 H 0.1431 0.62603 0.23387 0.0
H1304 H 0.20932 0.62092 0.30876 0.0
H1305 H 0.21944 0.62005 0.24931 0.0
H1306 H 0.13098 0.53388 0.32563 0.0
H1307 H 0.09973 0.56875 0.29755 0.0
H1308 H 0.16893 0.53204 0.19925 0.0
H1309 H 0.21235 0.56656 0.24334 0.0
H1310 H 0.19212 0.52958 0.17678 0.0
H1311 H 0.23473 0.56323 0.22017 0.0
H1312 H 0.14498 0.48781 0.25317 0.0
H1313 H 0.10702 0.52198 0.23701 0.0
H1314 H 0.1191 0.46349 0.26181 0.0
H1315 H 0.08173 0.49695 0.24577 0.0
H1316 H 0.19065 0.48566 0.28659 0.0
H1317 H 0.21028 0.48804 0.23099 0.0
H1318 H 0.14224 0.57489 0.17248 0.0
H1319 H 0.10554 0.51831 0.17341 0.0
Li1320 Li 0.79233 0.89667 0.52943 0.0
Li1321 Li 0.80563 0.87397 0.54868 0.0
Li1322 Li 0.82692 0.89963 0.53151 0.0
Li1323 Li 0.80426 0.86906 0.51244 0.0
C1324 C 0.80764 0.91883 0.56595 0.0
N1325 N 0.79956 0.94849 0.59174 0.0
C1326 C 0.79794 0.91412 0.58127 0.0
C1327 C 0.81342 0.93862 0.56387 0.0
C1328 C 0.79394 0.92932 0.59412 0.0
C1329 C 0.80914 0.9534 0.57702 0.0
C1330 C 0.76852 0.85241 0.52412 0.0
C1331 C 0.75426 0.81741 0.51885 0.0
N1332 N 0.73761 0.82135 0.51454 0.0
C1333 C 0.75127 0.85612 0.5196 0.0
C1334 C 0.77004 0.83292 0.5238 0.0
C1335 C 0.7358 0.84022 0.51483 0.0
C1336 C 0.76698 0.9146 0.50945 0.0
N1337 N 0.77219 0.91008 0.52691 0.0
C1338 C 0.74711 0.92132 0.53992 0.0
C1339 C 0.76243 0.91314 0.54198 0.0
C1340 C 0.74162 0.92643 0.52215 0.0
C1341 C 0.75187 0.92298 0.50682 0.0
H1342 H 0.77424 0.91129 0.49734 0.0
H1343 H 0.76625 0.90881 0.55552 0.0
C1344 C 0.81881 0.85782 0.581 0.0
N1345 N 0.80359 0.86126 0.5715 0.0
C1346 C 0.81774 0.84963 0.59795 0.0
C1347 C 0.78531 0.84835 0.59502 0.0
C1348 C 0.78698 0.85647 0.57807 0.0
C1349 C 0.80085 0.84494 0.60544 0.0
H1350 H 0.83187 0.8616 0.57551 0.0
H1351 H 0.77503 0.85935 0.57036 0.0
C1352 C 0.80995 0.90938 0.49572 0.0
N1353 N 0.81188 0.93485 0.46939 0.0
C1354 C 0.80737 0.90187 0.47589 0.0
C1355 C 0.81357 0.92983 0.50218 0.0
C1356 C 0.80841 0.915 0.4628 0.0
C1357 C 0.81446 0.94247 0.48863 0.0
C1358 C 0.83476 0.85613 0.5279 0.0
C1359 C 0.8518 0.86044 0.52103 0.0
C1360 C 0.82696 0.83677 0.53016 0.0
C1361 C 0.86051 0.84512 0.51601 0.0
C1362 C 0.8361 0.82187 0.52498 0.0
N1363 N 0.85253 0.82631 0.51803 0.0
C1364 C 0.86211 0.92741 0.54765 0.0
C1365 C 0.85808 0.91643 0.51382 0.0
C1366 C 0.87999 0.9386 0.54698 0.0
N1367 N 0.85152 0.91653 0.53121 0.0
C1368 C 0.87583 0.92739 0.51249 0.0
C1369 C 0.88725 0.93868 0.52921 0.0
H1370 H 0.85676 0.92723 0.56138 0.0
H1371 H 0.84956 0.90763 0.50091 0.0
C1372 C 0.78376 0.84383 0.47782 0.0
N1373 N 0.80083 0.85122 0.48795 0.0
C1374 C 0.78162 0.83384 0.45866 0.0
C1375 C 0.81457 0.83879 0.46082 0.0
C1376 C 0.81609 0.84886 0.47979 0.0
C1377 C 0.7972 0.83145 0.44983 0.0
H1378 H 0.77183 0.84648 0.48423 0.0
H1379 H 0.82954 0.85575 0.48757 0.0
O1380 O 0.81175 0.90416 0.5533 0.0
O1381 O 0.78378 0.86784 0.52885 0.0
O1382 O 0.80856 0.89671 0.5087 0.0
O1383 O 0.82588 0.87087 0.53252 0.0
H1384 H 0.79345 0.89889 0.58314 0.0
H1385 H 0.82119 0.94253 0.55227 0.0
H1386 H 0.78637 0.92589 0.60599 0.0
H1387 H 0.81348 0.96879 0.57557 0.0
H1388 H 0.75526 0.80224 0.51846 0.0
H1389 H 0.74982 0.87111 0.51979 0.0
H1390 H 0.78324 0.82977 0.52721 0.0
H1391 H 0.72237 0.84288 0.51135 0.0
H1392 H 0.73967 0.9237 0.55217 0.0
H1393 H 0.74797 0.92628 0.49275 0.0
H1394 H 0.83008 0.84696 0.60507 0.0
H1395 H 0.77201 0.84526 0.60015 0.0
H1396 H 0.80449 0.88607 0.47065 0.0
H1397 H 0.81549 0.93583 0.51748 0.0
H1398 H 0.80641 0.9094 0.44741 0.0
H1399 H 0.81714 0.95833 0.49341 0.0
H1400 H 0.85811 0.87539 0.51935 0.0
H1401 H 0.81404 0.8333 0.53593 0.0
H1402 H 0.87361 0.84819 0.51047 0.0
H1403 H 0.83015 0.80678 0.52653 0.0
H1404 H 0.88817 0.94678 0.56035 0.0
H1405 H 0.88047 0.92711 0.49838 0.0
H1406 H 0.76796 0.8285 0.45068 0.0
H1407 H 0.82698 0.83775 0.45447 0.0
Li1408 Li 0.94007 0.06247 0.27761 0.0
Li1409 Li 0.91132 0.03793 0.25653 0.0
Li1410 Li 0.93812 0.06004 0.23837 0.0
Li1411 Li 0.91503 0.07898 0.25864 0.0
C1412 C 0.95171 0.02904 0.25898 0.0
N1413 N 0.97861 0.00891 0.26575 0.0
C1414 C 0.94733 0.01102 0.26558 0.0
C1415 C 0.9697 0.03673 0.25562 0.0
C1416 C 0.96114 1.00109 0.26897 0.0
C1417 C 0.98313 0.02636 0.25919 0.0
C1418 C 0.90195 0.06044 0.29372 0.0
C1419 C 0.87634 0.06941 0.30798 0.0
N1420 N 0.88055 0.06123 0.32356 0.0
C1421 C 0.90601 0.05212 0.30987 0.0
C1422 C 0.88697 0.06913 0.29273 0.0
C1423 C 0.89503 0.05264 0.32479 0.0
C1424 C 0.9679 0.07853 0.31514 0.0
N1425 N 0.9558 0.06236 0.30395 0.0
C1426 C 0.96167 0.04302 0.32876 0.0
C1427 C 0.95298 0.04474 0.3106 0.0
C1428 C 0.97407 0.05941 0.34075 0.0
C1429 C 0.97723 0.07732 0.33331 0.0
H1430 H 0.97026 0.0926 0.31021 0.0
H1431 H 0.94345 0.03185 0.302 0.0
C1432 C 0.88942 0.99528 0.24015 0.0
N1433 N 0.8954 0.00917 0.25666 0.0
C1434 C 0.88018 0.97536 0.2407 0.0
C1435 C 0.88305 0.98372 0.27518 0.0
C1436 C 0.89226 1.00342 0.27399 0.0
C1437 C 0.87677 0.96889 0.25843 0.0
H1438 H 0.89211 0.99945 0.22635 0.0
H1439 H 0.89717 0.01405 0.2872 0.0
C1440 C 0.95857 0.10021 0.26411 0.0
N1441 N 0.98893 0.13195 0.27227 0.0
C1442 C 0.95664 0.11929 0.26276 0.0
C1443 C 0.97593 0.09725 0.26961 0.0
C1444 C 0.97216 0.13515 0.26694 0.0
C1445 C 0.99112 0.11349 0.27368 0.0
C1446 C 0.89712 0.05547 0.21997 0.0
C1447 C 0.90264 0.06574 0.20522 0.0
C1448 C 0.87878 0.04531 0.21911 0.0
C1449 C 0.88967 0.06553 0.18966 0.0
C1450 C 0.86621 0.04555 0.20336 0.0
N1451 N 0.87187 0.05554 0.18907 0.0
C1452 C 0.94246 0.04716 0.19559 0.0
C1453 C 0.9695 0.06884 0.21235 0.0
C1454 C 0.95064 0.0458 0.17805 0.0
N1455 N 0.95171 0.05869 0.21261 0.0
C1456 C 0.9783 0.0676 0.19516 0.0
C1457 C 0.96899 0.05602 0.17729 0.0
H1458 H 0.92848 0.03883 0.19542 0.0
H1459 H 0.97714 0.07806 0.22555 0.0
C1460 C 0.90687 0.12006 0.27424 0.0
N1461 N 0.90136 0.10368 0.2598 0.0
C1462 C 0.89833 0.1365 0.27532 0.0
C1463 C 0.87812 0.11975 0.24682 0.0
C1464 C 0.88704 0.10364 0.24622 0.0
C1465 C 0.88349 0.13697 0.26152 0.0
H1466 H 0.91807 0.1206 0.28522 0.0
H1467 H 0.88233 0.09102 0.23461 0.0
O1468 O 0.93846 0.03908 0.25571 0.0
O1469 O 0.91284 0.06067 0.27918 0.0
O1470 O 0.94347 0.0846 0.26055 0.0
O1471 O 0.90964 0.05527 0.23516 0.0
H1472 H 0.93344 1.00483 0.26816 0.0
H1473 H 0.97325 0.05055 0.25029 0.0
H1474 H 0.95798 0.98717 0.27416 0.0
H1475 H 0.99713 0.03217 0.25672 0.0
H1476 H 0.86474 0.07615 0.30743 0.0
H1477 H 0.9174 0.04521 0.31085 0.0
H1478 H 0.88363 0.07565 0.28035 0.0
H1479 H 0.89802 0.04622 0.33735 0.0
H1480 H 0.9587 0.02875 0.33332 0.0
H1481 H 0.98651 0.09055 0.34172 0.0
H1482 H 0.87617 0.96501 0.22717 0.0
H1483 H 0.88084 0.9803 0.28935 0.0
H1484 H 0.94328 0.12182 0.25855 0.0
H1485 H 0.97761 0.08261 0.27096 0.0
H1486 H 0.97088 0.15001 0.26597 0.0
H1487 H 1.00462 0.11143 0.27803 0.0
H1488 H 0.91679 0.07375 0.20576 0.0
H1489 H 0.87434 0.03733 0.23049 0.0
H1490 H 0.89375 0.07332 0.17807 0.0
H1491 H 0.85195 0.03777 0.20249 0.0
H1492 H 0.94259 0.03641 0.16514 0.0
H1493 H 0.99233 0.07603 0.19586 0.0
H1494 H 0.90338 0.1487 0.28729 0.0
H1495 H 0.86714 0.11863 0.23541 0.0
Li1496 Li 0.28371 0.65985 0.54678 0.0
Li1497 Li 0.30091 0.63972 0.52596 0.0
Li1498 Li 0.28191 0.66004 0.51263 0.0
Li1499 Li 0.26809 0.62963 0.52369 0.0
C1500 C 0.31585 0.68545 0.52751 0.0
N1501 N 0.33901 0.71839 0.51856 0.0
C1502 C 0.3331 0.68441 0.52216 0.0
C1503 C 0.31054 0.70339 0.52864 0.0
C1504 C 0.34457 0.70118 0.51761 0.0
C1505 C 0.32239 0.71984 0.52395 0.0
C1506 C 0.28013 0.61668 0.55642 0.0
C1507 C 0.27512 0.58207 0.55884 0.0
N1508 N 0.26767 0.58572 0.57548 0.0
C1509 C 0.27255 0.62011 0.57363 0.0
C1510 C 0.28157 0.59754 0.54903 0.0
C1511 C 0.26629 0.60426 0.58303 0.0
C1512 C 0.26863 0.67463 0.5793 0.0
N1513 N 0.28372 0.67656 0.5699 0.0
C1514 C 0.29882 0.70634 0.5915 0.0
C1515 C 0.29866 0.69193 0.57562 0.0
C1516 C 0.28359 0.70467 0.60182 0.0
C1517 C 0.26833 0.68853 0.59557 0.0
H1518 H 0.25678 0.66244 0.57402 0.0
H1519 H 0.31032 0.69318 0.56763 0.0
C1520 C 0.32854 0.63117 0.50598 0.0
N1521 N 0.32106 0.6294 0.5226 0.0
C1522 C 0.34234 0.62166 0.50147 0.0
C1523 C 0.33993 0.60827 0.53108 0.0
C1524 C 0.32648 0.61844 0.53521 0.0
C1525 C 0.34802 0.60979 0.51398 0.0
H1526 H 0.32354 0.63975 0.49611 0.0
H1527 H 0.31996 0.61712 0.54815 0.0
C1528 C 0.24879 0.66618 0.52992 0.0
N1529 N 0.2228 0.68848 0.53117 0.0
C1530 C 0.23012 0.65693 0.52483 0.0
C1531 C 0.2542 0.68674 0.53581 0.0
C1532 C 0.2172 0.66847 0.52549 0.0
C1533 C 0.24087 0.69776 0.53633 0.0
C1534 C 0.28146 0.61892 0.48689 0.0
C1535 C 0.27698 0.62296 0.46848 0.0
C1536 C 0.28316 0.59993 0.48892 0.0
C1537 C 0.27407 0.60781 0.45241 0.0
C1538 C 0.28016 0.58518 0.47248 0.0
N1539 N 0.27569 0.58938 0.45472 0.0
C1540 C 0.29226 0.68224 0.48353 0.0
C1541 C 0.2604 0.67265 0.48615 0.0
C1542 C 0.28859 0.69079 0.46753 0.0
N1543 N 0.27821 0.67375 0.49264 0.0
C1544 C 0.25611 0.68109 0.47038 0.0
C1545 C 0.27031 0.6902 0.4609 0.0
H1546 H 0.30621 0.68186 0.48827 0.0
H1547 H 0.24944 0.66449 0.49266 0.0
C1548 C 0.23831 0.59771 0.52848 0.0
N1549 N 0.24717 0.60875 0.51641 0.0
C1550 C 0.22068 0.58583 0.52229 0.0
C1551 C 0.22226 0.59605 0.49111 0.0
C1552 C 0.23963 0.60789 0.49797 0.0
C1553 C 0.21225 0.58581 0.50372 0.0
H1554 H 0.24409 0.59933 0.54334 0.0
H1555 H 0.24634 0.61779 0.48913 0.0
O1556 O 0.30454 0.66916 0.53216 0.0
O1557 O 0.28647 0.63208 0.54714 0.0
O1558 O 0.26163 0.65512 0.52848 0.0
O1559 O 0.2834 0.63336 0.50285 0.0
H1560 H 0.3377 0.67087 0.52173 0.0
H1561 H 0.2974 0.70462 0.53297 0.0
H1562 H 0.35793 0.70053 0.5134 0.0
H1563 H 0.31837 0.73375 0.52462 0.0
H1564 H 0.27604 0.56717 0.55321 0.0
H1565 H 0.27155 0.63485 0.5797 0.0
H1566 H 0.28753 0.59463 0.53584 0.0
H1567 H 0.26035 0.6067 0.59633 0.0
H1568 H 0.3107 0.71875 0.59553 0.0
H1569 H 0.25639 0.68655 0.60321 0.0
H1570 H 0.34837 0.6235 0.48831 0.0
H1571 H 0.34359 0.59894 0.54092 0.0
H1572 H 0.22568 0.64102 0.52015 0.0
H1573 H 0.26852 0.69411 0.53993 0.0
H1574 H 0.20273 0.66153 0.52143 0.0
H1575 H 0.24489 0.7137 0.54081 0.0
H1576 H 0.27549 0.63755 0.46666 0.0
H1577 H 0.28658 0.59656 0.50304 0.0
H1578 H 0.27045 0.61068 0.4381 0.0
H1579 H 0.28131 0.57037 0.47384 0.0
H1580 H 0.29982 0.69752 0.46028 0.0
H1581 H 0.24183 0.67985 0.46518 0.0
H1582 H 0.21307 0.57848 0.53253 0.0
H1583 H 0.21596 0.59659 0.47683 0.0
Li1584 Li 0.41135 0.53837 0.75684 0.0
Li1585 Li 0.4401 0.56292 0.7778 0.0
Li1586 Li 0.41476 0.57921 0.75894 0.0
Li1587 Li 0.43797 0.56043 0.73861 0.0
C1588 C 0.40061 0.55874 0.79269 0.0
N1589 N 0.37577 0.55504 0.81924 0.0
C1590 C 0.40585 0.555 0.81101 0.0
C1591 C 0.38274 0.56065 0.78787 0.0
C1592 C 0.39309 0.5531 0.82421 0.0
C1593 C 0.37039 0.55876 0.80152 0.0
C1594 C 0.45175 0.52951 0.75911 0.0
C1595 C 0.48307 0.52665 0.75871 0.0
N1596 N 0.4787 0.50939 0.76562 0.0
C1597 C 0.44752 0.51168 0.76606 0.0
C1598 C 0.46961 0.53701 0.75525 0.0
C1599 C 0.46136 0.50174 0.76931 0.0
C1600 C 0.38925 0.49574 0.74052 0.0
N1601 N 0.39546 0.50956 0.75705 0.0
C1602 C 0.38333 0.48399 0.77556 0.0
C1603 C 0.39253 0.50372 0.7744 0.0
C1604 C 0.37681 0.46922 0.75878 0.0
C1605 C 0.38001 0.4758 0.74106 0.0
H1606 H 0.39175 0.49997 0.7267 0.0
H1607 H 0.3976 0.51432 0.78762 0.0
C1608 C 0.4683 0.5791 0.81497 0.0
N1609 N 0.45595 0.56297 0.80404 0.0
C1610 C 0.47765 0.57802 0.83317 0.0
C1611 C 0.4617 0.54388 0.82909 0.0
C1612 C 0.45288 0.54551 0.81095 0.0
C1613 C 0.47434 0.56026 0.84086 0.0
H1614 H 0.47081 0.59307 0.80982 0.0
H1615 H 0.44304 0.5327 0.80261 0.0
C1616 C 0.39721 0.55565 0.72003 0.0
N1617 N 0.37248 0.55539 0.68856 0.0
C1618 C 0.40311 0.5654 0.70506 0.0
C1619 C 0.37878 0.54578 0.71905 0.0
C1620 C 0.39038 0.56508 0.68925 0.0
C1621 C 0.36647 0.54583 0.703 0.0
C1622 C 0.45807 0.60089 0.76467 0.0
C1623 C 0.45561 0.62007 0.76503 0.0
C1624 C 0.47572 0.59807 0.7688 0.0
C1625 C 0.47093 0.63616 0.76948 0.0
C1626 C 0.49068 0.61455 0.77322 0.0
N1627 N 0.488 0.63309 0.77346 0.0
C1628 C 0.39485 0.61153 0.77662 0.0
C1629 C 0.3986 0.61279 0.74425 0.0
C1630 C 0.38613 0.62783 0.77767 0.0
N1631 N 0.40105 0.60392 0.76004 0.0
C1632 C 0.39 0.62917 0.74473 0.0
C1633 C 0.38335 0.63738 0.76162 0.0
H1634 H 0.39671 0.60508 0.78942 0.0
H1635 H 0.40334 0.60725 0.73094 0.0
C1636 C 0.44557 0.54297 0.69829 0.0
N1637 N 0.45155 0.55906 0.71292 0.0
C1638 C 0.45388 0.54125 0.68085 0.0
C1639 C 0.47478 0.57255 0.69305 0.0
C1640 C 0.46608 0.57371 0.7103 0.0
C1641 C 0.46887 0.55613 0.67754 0.0
H1642 H 0.43418 0.53117 0.70001 0.0
H1643 H 0.47108 0.58659 0.72161 0.0
O1644 O 0.413 0.56104 0.77968 0.0
O1645 O 0.43846 0.53953 0.75592 0.0
O1646 O 0.40949 0.55558 0.73547 0.0
O1647 O 0.44321 0.58502 0.76065 0.0
H1648 H 0.41963 0.55366 0.81506 0.0
H1649 H 0.37851 0.56368 0.77378 0.0
H1650 H 0.39697 0.55018 0.83843 0.0
H1651 H 0.35653 0.56028 0.79803 0.0
H1652 H 0.49697 0.53232 0.75587 0.0
H1653 H 0.43372 0.50563 0.76901 0.0
H1654 H 0.47302 0.55065 0.74959 0.0
H1655 H 0.45831 0.48796 0.77477 0.0
H1656 H 0.38131 0.4805 0.78974 0.0
H1657 H 0.37582 0.46554 0.72749 0.0
H1658 H 0.48706 0.59126 0.84138 0.0
H1659 H 0.4586 0.52969 0.83379 0.0
H1660 H 0.41737 0.5731 0.70565 0.0
H1661 H 0.37406 0.53815 0.73056 0.0
H1662 H 0.39474 0.57253 0.67752 0.0
H1663 H 0.35214 0.53825 0.70202 0.0
H1664 H 0.44201 0.62248 0.76194 0.0
H1665 H 0.47782 0.58334 0.76882 0.0
H1666 H 0.46924 0.65109 0.76981 0.0
H1667 H 0.50442 0.6126 0.77652 0.0
H1668 H 0.38186 0.63305 0.79135 0.0
H1669 H 0.38842 0.63513 0.7316 0.0
H1670 H 0.44854 0.52797 0.67011 0.0
H1671 H 0.48597 0.5848 0.69189 0.0
Li1672 Li 0.64038 0.03522 0.75853 0.0
Li1673 Li 0.66798 0.06006 0.7561 0.0
Li1674 Li 0.64748 0.03968 0.72811 0.0
Li1675 Li 0.66638 0.02463 0.74846 0.0
C1676 C 0.63351 0.07276 0.74114 0.0
N1677 N 0.61525 0.09923 0.72801 0.0
C1678 C 0.64165 0.0931 0.74518 0.0
C1679 C 0.61601 0.06591 0.73054 0.0
C1680 C 0.6322 0.10624 0.73843 0.0
C1681 C 0.60705 0.07952 0.72394 0.0
C1682 C 0.67973 0.04481 0.78763 0.0
C1683 C 0.71241 0.05164 0.79738 0.0
N1684 N 0.70955 0.05527 0.81622 0.0
C1685 C 0.67711 0.04853 0.80709 0.0
C1686 C 0.69752 0.04634 0.78273 0.0
C1687 C 0.69236 0.05383 0.82133 0.0
C1688 C 0.62799 0.02274 0.79015 0.0
N1689 N 0.62295 0.03125 0.77518 0.0
C1690 C 0.60546 0.04909 0.79412 0.0
C1691 C 0.61101 0.04317 0.77635 0.0
C1692 C 0.61263 0.04272 0.81037 0.0
C1693 C 0.62294 0.02839 0.80819 0.0
H1694 H 0.63797 0.01383 0.78873 0.0
H1695 H 0.60774 0.05005 0.76424 0.0
C1696 C 0.6922 0.09262 0.75101 0.0
N1697 N 0.68411 0.08432 0.76515 0.0
C1698 C 0.70701 0.10888 0.75584 0.0
C1699 C 0.7037 0.10892 0.78973 0.0
C1700 C 0.68901 0.09238 0.7842 0.0
C1701 C 0.71312 0.1168 0.77538 0.0
H1702 H 0.68747 0.08615 0.736 0.0
H1703 H 0.68186 0.08572 0.79504 0.0
C1704 C 0.62529 1.00065 0.74011 0.0
N1705 N 0.59464 0.97478 0.74812 0.0
C1706 C 0.62719 0.98428 0.74842 0.0
C1707 C 0.60779 1.00368 0.73557 0.0
C1708 C 0.61153 0.9714 0.75243 0.0
C1709 C 0.59246 0.9905 0.73983 0.0
C1710 C 0.68809 0.04536 0.72145 0.0
C1711 C 0.68379 0.0367 0.70189 0.0
C1712 C 0.70638 0.05452 0.72895 0.0
C1713 C 0.69783 0.0375 0.69013 0.0
C1714 C 0.72002 0.05497 0.71673 0.0
N1715 N 0.7155 0.04656 0.69773 0.0
C1716 C 0.6414 0.05702 0.69597 0.0
C1717 C 0.62786 0.02252 0.69277 0.0
C1718 C 0.63284 0.05731 0.67774 0.0
N1719 N 0.63828 0.03989 0.70316 0.0
C1720 C 0.61925 0.02208 0.67444 0.0
C1721 C 0.6215 0.0397 0.66708 0.0
H1722 H 0.64997 0.0705 0.70468 0.0
H1723 H 0.62588 0.00917 0.69896 0.0
C1724 C 0.67752 0.99755 0.76682 0.0
N1725 N 0.68023 1.00626 0.75107 0.0
C1726 C 0.68825 0.98493 0.77176 0.0
C1727 C 0.70437 0.99054 0.74412 0.0
C1728 C 0.69316 1.00292 0.73957 0.0
C1729 C 0.7019 0.98161 0.76043 0.0
H1730 H 0.66724 1.00079 0.77575 0.0
H1731 H 0.69499 0.01007 0.72715 0.0
O1732 O 0.64224 0.05985 0.74855 0.0
O1733 O 0.66494 0.04038 0.77352 0.0
O1734 O 0.64049 0.01364 0.73643 0.0
O1735 O 0.67439 0.04552 0.73298 0.0
H1736 H 0.65497 0.09875 0.75374 0.0
H1737 H 0.60942 0.05026 0.72743 0.0
H1738 H 0.63829 0.12202 0.74156 0.0
H1739 H 0.59355 0.07441 0.71564 0.0
H1740 H 0.72625 0.05293 0.79378 0.0
H1741 H 0.66346 0.04766 0.81115 0.0
H1742 H 0.69981 0.04358 0.76778 0.0
H1743 H 0.69053 0.0569 0.83644 0.0
H1744 H 0.59752 0.06022 0.79557 0.0
H1745 H 0.6286 0.02331 0.82063 0.0
H1746 H 0.71363 0.11524 0.74446 0.0
H1747 H 0.70789 0.11523 0.8049 0.0
H1748 H 0.64058 0.98149 0.75172 0.0
H1749 H 0.60608 0.01619 0.729 0.0
H1750 H 0.61281 0.95872 0.75894 0.0
H1751 H 0.57884 0.99278 0.73657 0.0
H1752 H 0.66978 0.02948 0.69579 0.0
H1753 H 0.71005 0.06141 0.744 0.0
H1754 H 0.69468 0.03096 0.67494 0.0
H1755 H 0.73419 0.0621 0.72235 0.0
H1756 H 0.63456 0.07111 0.67227 0.0
H1757 H 0.61037 0.00837 0.6664 0.0
H1758 H 0.68618 0.97813 0.78444 0.0
H1759 H 0.71487 0.98802 0.73514 0.0
Li1760 Li 0.7864 0.70611 0.01707 0.0
Li1761 Li 0.79933 0.67899 1.00151 0.0
Li1762 Li 0.78587 0.70162 0.98116 0.0
Li1763 Li 0.76461 0.6757 0.99724 0.0
C1764 C 0.82199 0.72421 0.0078 0.0
N1765 N 0.85113 0.75682 0.02028 0.0
C1766 C 0.83768 0.72242 0.01893 0.0
C1767 C 0.82126 0.7425 1.00271 0.0
C1768 C 0.85224 0.7391 0.02517 0.0
C1769 C 0.83609 0.75884 0.00926 0.0
C1770 C 0.78338 0.66647 0.03411 0.0
C1771 C 0.7787 0.63391 0.0425 0.0
N1772 N 0.78648 0.64221 0.06093 0.0
C1773 C 0.79126 0.67471 0.05313 0.0
C1774 C 0.77699 0.64594 0.02873 0.0
C1775 C 0.79273 0.66218 0.06648 0.0
C1776 C 0.77162 0.72232 0.04893 0.0
N1777 N 0.78783 0.72339 0.04155 0.0
C1778 C 0.80431 0.74238 0.07166 0.0
C1779 C 0.80402 0.73342 0.05243 0.0
C1780 C 0.78777 0.74096 0.07983 0.0
C1781 C 0.77125 0.73126 0.06792 0.0
H1782 H 0.75898 0.71365 0.04037 0.0
H1783 H 0.81682 0.73359 0.04667 0.0
C1784 C 0.82435 0.65533 0.98898 0.0
N1785 N 0.81903 0.66537 1.00468 0.0
C1786 C 0.8391 0.6463 0.9911 0.0
C1787 C 0.84291 0.65827 0.02548 0.0
C1788 C 0.82802 0.66695 0.02272 0.0
C1789 C 0.84869 0.64773 0.00955 0.0
H1790 H 0.81732 0.65457 0.97472 0.0
H1791 H 0.82386 0.67531 0.03499 0.0
C1792 C 0.75627 0.71878 1.00169 0.0
N1793 N 0.73828 0.74815 0.01256 0.0
C1794 C 0.73774 0.71375 1.00436 0.0
C1795 C 0.76565 0.73872 1.00452 0.0
C1796 C 0.72888 0.72883 0.00985 0.0
C1797 C 0.75631 0.75336 0.01004 0.0
C1798 C 0.7766 0.65534 0.96278 0.0
C1799 C 0.77129 0.65729 0.94381 0.0
C1800 C 0.77734 0.63672 0.96696 0.0
C1801 C 0.76689 0.64051 0.92925 0.0
C1802 C 0.77283 0.62029 0.95199 0.0
N1803 N 0.76776 0.62251 0.93361 0.0
C1804 C 0.80071 0.7096 0.94637 0.0
C1805 C 0.77739 0.72613 0.9538 0.0
C1806 C 0.80254 0.71765 0.92941 0.0
N1807 N 0.78822 0.71383 0.95815 0.0
C1808 C 0.77884 0.7346 0.93706 0.0
C1809 C 0.79148 0.73035 0.92441 0.0
H1810 H 0.80914 0.69973 0.95002 0.0
H1811 H 0.76752 0.72933 0.96329 0.0
C1812 C 0.73375 0.65843 0.01424 0.0
N1813 N 0.74021 0.65838 0.99682 0.0
C1814 C 0.71613 0.64728 0.01569 0.0
C1815 C 0.71185 0.63608 0.98118 0.0
C1816 C 0.72964 0.64743 0.98041 0.0
C1817 C 0.70471 0.63591 0.99902 0.0
H1818 H 0.74228 0.66732 0.02712 0.0
H1819 H 0.73489 0.64769 0.96664 0.0
O1820 O 0.80765 0.70802 1.00149 0.0
O1821 O 0.78171 0.6785 0.0209 0.0
O1822 O 0.76516 0.7042 0.9964 0.0
O1823 O 0.78161 0.67173 0.97703 0.0
H1824 H 0.83856 0.70834 0.02283 0.0
H1825 H 0.80944 0.74403 0.99369 0.0
H1826 H 0.86441 0.73795 0.0339 0.0
H1827 H 0.83568 0.77311 0.00552 0.0
H1828 H 0.77383 0.61798 0.03855 0.0
H1829 H 0.79624 0.69059 0.05753 0.0
H1830 H 0.77072 0.63938 0.01409 0.0
H1831 H 0.79883 0.66834 0.08124 0.0
H1832 H 0.81743 0.74939 0.0803 0.0
H1833 H 0.75813 0.72997 0.0734 0.0
H1834 H 0.84319 0.63862 0.97833 0.0
H1835 H 0.84976 0.65971 0.03999 0.0
H1836 H 0.73029 0.69837 1.00221 0.0
H1837 H 0.77999 0.74285 1.0026 0.0
H1838 H 0.71454 0.72517 0.01197 0.0
H1839 H 0.76341 0.76886 0.01232 0.0
H1840 H 0.77069 0.67164 0.94036 0.0
H1841 H 0.78156 0.63502 0.98156 0.0
H1842 H 0.76283 0.6418 0.91448 0.0
H1843 H 0.77343 0.60579 0.95498 0.0
H1844 H 0.81231 0.7136 0.92014 0.0
H1845 H 0.77019 0.74452 0.93416 0.0
H1846 H 0.71161 0.64751 0.02984 0.0
H1847 H 0.70365 0.62785 0.96784 0.0
Li1848 Li 0.91323 0.51863 0.77756 0.0
Li1849 Li 0.93906 0.53636 0.80113 0.0
Li1850 Li 0.92141 0.55384 0.78041 0.0
Li1851 Li 0.94173 0.53341 0.76728 0.0
C1852 C 0.89997 0.53287 0.8122 0.0
N1853 N 0.87349 0.52126 0.8356 0.0
C1854 C 0.90222 0.51947 0.82444 0.0
C1855 C 0.88425 0.54039 0.81189 0.0
C1856 C 0.88871 0.51383 0.8362 0.0
C1857 C 0.87098 0.53428 0.82377 0.0
C1858 C 0.94852 0.49994 0.78228 0.0
C1859 C 0.97922 0.49484 0.78305 0.0
N1860 N 0.9722 0.47496 0.7811 0.0
C1861 C 0.94163 0.47947 0.78042 0.0
C1862 C 0.96748 0.50774 0.78379 0.0
C1863 C 0.95382 0.46709 0.77984 0.0
C1864 C 0.89752 0.48211 0.75687 0.0
N1865 N 0.894 0.49604 0.77064 0.0
C1866 C 0.8641 0.47626 0.77131 0.0
C1867 C 0.87756 0.49368 0.77763 0.0
C1868 C 0.86773 0.46157 0.75755 0.0
C1869 C 0.88445 0.46454 0.75003 0.0
H1870 H 0.91061 0.48459 0.75141 0.0
H1871 H 0.8748 0.50512 0.78806 0.0
C1872 C 0.9611 0.55395 0.8361 0.0
N1873 N 0.95171 0.5366 0.82481 0.0
C1874 C 0.9715 0.5537 0.85336 0.0
C1875 C 0.96209 0.51779 0.84685 0.0
C1876 C 0.95186 0.51875 0.82984 0.0
C1877 C 0.97212 0.53541 0.85876 0.0
H1878 H 0.96065 0.56787 0.83154 0.0
H1879 H 0.94411 0.50524 0.82056 0.0
C1880 C 0.90129 0.52618 0.74388 0.0
N1881 N 0.86929 0.50803 0.71929 0.0
C1882 C 0.90205 0.51567 0.72559 0.0
C1883 C 0.88426 0.52786 0.74947 0.0
C1884 C 0.88572 0.50655 0.7134 0.0
C1885 C 0.86823 0.51842 0.7369 0.0
C1886 C 0.96388 0.57142 0.78446 0.0
C1887 C 0.96226 0.58613 0.7736 0.0
C1888 C 0.98118 0.57082 0.79306 0.0
C1889 C 0.97807 0.59998 0.77139 0.0
C1890 C 0.99666 0.5849 0.79045 0.0
N1891 N 0.99479 0.59908 0.77978 0.0
C1892 C 0.90469 0.58512 0.79195 0.0
C1893 C 0.90804 0.57731 0.75871 0.0
C1894 C 0.89363 0.59784 0.78781 0.0
N1895 N 0.91128 0.57499 0.77735 0.0
C1896 C 0.89689 0.58956 0.75389 0.0
C1897 C 0.88928 0.59978 0.76848 0.0
H1898 H 0.90736 0.58266 0.8066 0.0
H1899 H 0.9134 0.56883 0.74745 0.0
C1900 C 0.94863 0.51005 0.73744 0.0
N1901 N 0.95639 0.52822 0.74811 0.0
C1902 C 0.95623 0.50291 0.72153 0.0
C1903 C 0.98051 0.53302 0.72839 0.0
C1904 C 0.97215 0.53975 0.74413 0.0
C1905 C 0.97231 0.51446 0.71669 0.0
H1906 H 0.93616 0.5013 0.74109 0.0
H1907 H 0.97812 0.55415 0.75288 0.0
O1908 O 0.91311 0.53879 0.8007 0.0
O1909 O 0.93665 0.51216 0.78242 0.0
O1910 O 0.91705 0.53434 0.75646 0.0
O1911 O 0.94853 0.55822 0.78739 0.0
H1912 H 0.91416 0.51335 0.82476 0.0
H1913 H 0.88214 0.55056 0.80233 0.0
H1914 H 0.8903 0.5035 0.84576 0.0
H1915 H 0.85868 0.53984 0.82354 0.0
H1916 H 0.99391 0.50063 0.784 0.0
H1917 H 0.92703 0.4732 0.77953 0.0
H1918 H 0.97304 0.52355 0.78531 0.0
H1919 H 0.94866 0.45122 0.77839 0.0
H1920 H 0.85132 0.47395 0.77755 0.0
H1921 H 0.88759 0.45311 0.73964 0.0
H1922 H 0.97896 0.56759 0.86236 0.0
H1923 H 0.96243 0.50343 0.85047 0.0
H1924 H 0.91509 0.5145 0.72084 0.0
H1925 H 0.88341 0.5359 0.7636 0.0
H1926 H 0.88612 0.49825 0.69926 0.0
H1927 H 0.85494 0.51926 0.7412 0.0
H1928 H 0.94893 0.5869 0.76703 0.0
H1929 H 0.98262 0.55963 0.80167 0.0
H1930 H 0.97703 0.61148 0.76305 0.0
H1931 H 0.01015 0.58461 0.79697 0.0
H1932 H 0.88823 0.6057 0.79952 0.0
H1933 H 0.89366 0.59032 0.73879 0.0
H1934 H 0.94912 0.48878 0.71275 0.0
H1935 H 0.99305 0.54232 0.72529 0.0
Li1936 Li 0.80487 0.41059 0.52129 0.0
Li1937 Li 0.78716 0.4323 0.50918 0.0
Li1938 Li 0.8029 0.41165 0.48718 0.0
Li1939 Li 0.81988 0.44084 0.51102 0.0
C1940 C 0.7697 0.38682 0.50519 0.0
N1941 N 0.74332 0.35458 0.5107 0.0
C1942 C 0.75587 0.3896 0.51652 0.0
C1943 C 0.7701 0.36764 0.49662 0.0
C1944 C 0.74265 0.37311 0.51912 0.0
C1945 C 0.75666 0.35154 0.49962 0.0
C1946 C 0.80721 0.4531 0.54752 0.0
C1947 C 0.81039 0.48783 0.55968 0.0
N1948 N 0.81429 0.48467 0.57798 0.0
C1949 C 0.81105 0.45015 0.56647 0.0
C1950 C 0.80669 0.47204 0.5441 0.0
C1951 C 0.81464 0.46631 0.58167 0.0
C1952 C 0.82599 0.40417 0.55054 0.0
N1953 N 0.80936 0.39571 0.54 0.0
C1954 C 0.80464 0.36913 0.55765 0.0
C1955 C 0.79856 0.37858 0.54324 0.0
C1956 C 0.82187 0.37758 0.56873 0.0
C1957 C 0.83255 0.39536 0.56509 0.0
H1958 H 0.83414 0.41788 0.54758 0.0
H1959 H 0.78535 0.37219 0.53474 0.0
C1960 C 0.75872 0.44841 0.49653 0.0
N1961 N 0.76713 0.44303 0.512 0.0
C1962 C 0.74438 0.45774 0.4989 0.0
C1963 C 0.748 0.45591 0.53304 0.0
C1964 C 0.76204 0.44635 0.52996 0.0
C1965 C 0.73914 0.46165 0.51737 0.0
H1966 H 0.76332 0.44565 0.4825 0.0
H1967 H 0.76899 0.44173 0.5419 0.0
C1968 C 0.83606 0.40194 0.50529 0.0
N1969 N 0.85873 0.376 0.5058 0.0
C1970 C 0.85511 0.40922 0.50928 0.0
C1971 C 0.82852 0.38149 0.50155 0.0
C1972 C 0.86635 0.39586 0.50942 0.0
C1973 C 0.84022 0.36861 0.50193 0.0
C1974 C 0.80874 0.45437 0.47802 0.0
C1975 C 0.8155 0.44939 0.46058 0.0
C1976 C 0.80926 0.47421 0.48505 0.0
C1977 C 0.82325 0.46442 0.4508 0.0
C1978 C 0.81714 0.48881 0.47486 0.0
N1979 N 0.82396 0.48366 0.45812 0.0
C1980 C 0.78635 0.38401 0.45443 0.0
C1981 C 0.81867 0.39589 0.45626 0.0
C1982 C 0.78601 0.37075 0.43755 0.0
N1983 N 0.80253 0.39602 0.46341 0.0
C1984 C 0.81893 0.38316 0.43919 0.0
C1985 C 0.80246 0.37023 0.4297 0.0
H1986 H 0.77379 0.38447 0.46063 0.0
H1987 H 0.83131 0.40568 0.46387 0.0
C1988 C 0.84915 0.46796 0.53526 0.0
N1989 N 0.84174 0.46074 0.51654 0.0
C1990 C 0.86658 0.48054 0.53961 0.0
C1991 C 0.86868 0.47769 0.50531 0.0
C1992 C 0.85114 0.4653 0.50166 0.0
C1993 C 0.87673 0.48502 0.52451 0.0
H1994 H 0.8422 0.46301 0.54692 0.0
H1995 H 0.84563 0.45823 0.48702 0.0
O1996 O 0.78235 0.40283 0.5019 0.0
O1997 O 0.80492 0.43767 0.53241 0.0
O1998 O 0.82491 0.41487 0.50517 0.0
O1999 O 0.80142 0.43986 0.48797 0.0
H2000 H 0.75527 0.40432 0.52314 0.0
H2001 H 0.78068 0.36519 0.48779 0.0
H2002 H 0.73183 0.37506 0.52781 0.0
H2003 H 0.75683 0.33662 0.49313 0.0
H2004 H 0.81025 0.50261 0.5572 0.0
H2005 H 0.81148 0.43559 0.5694 0.0
H2006 H 0.80376 0.47456 0.52957 0.0
H2007 H 0.81781 0.46428 0.59638 0.0
H2008 H 0.79605 0.35536 0.56 0.0
H2009 H 0.8457 0.40258 0.57358 0.0
H2010 H 0.73767 0.46216 0.48662 0.0
H2011 H 0.74408 0.45878 0.54742 0.0
H2012 H 0.86113 0.42503 0.51221 0.0
H2013 H 0.81379 0.37566 0.49852 0.0
H2014 H 0.88113 0.40128 0.51243 0.0
H2015 H 0.83458 0.35275 0.49915 0.0
H2016 H 0.81495 0.43413 0.45472 0.0
H2017 H 0.80368 0.47833 0.49821 0.0
H2018 H 0.82873 0.46078 0.43742 0.0
H2019 H 0.81781 0.50425 0.48026 0.0
H2020 H 0.77304 0.36082 0.43093 0.0
H2021 H 0.83186 0.38355 0.43347 0.0
H2022 H 0.87251 0.48565 0.5546 0.0
H2023 H 0.87636 0.48015 0.49328 0.0
Li2024 Li 0.65165 0.51414 0.29058 0.0
Li2025 Li 0.67857 0.53647 0.27343 0.0
Li2026 Li 0.65067 0.51147 0.25159 0.0
Li2027 Li 0.67503 0.49487 0.26973 0.0
C2028 C 0.63779 0.54472 0.27143 0.0
N2029 N 0.61019 0.5645 0.26726 0.0
C2030 C 0.64217 0.56531 0.27281 0.0
C2031 C 0.61938 0.53418 0.26802 0.0
C2032 C 0.62802 0.57504 0.27064 0.0
C2033 C 0.60563 0.54446 0.26593 0.0
C2034 C 0.69281 0.5231 0.3099 0.0
C2035 C 0.72236 0.52285 0.32603 0.0
N2036 N 0.71845 0.53299 0.34254 0.0
C2037 C 0.68907 0.53355 0.32697 0.0
C2038 C 0.70955 0.51769 0.30937 0.0
C2039 C 0.70222 0.5384 0.34334 0.0
C2040 C 0.63874 0.50223 0.32867 0.0
N2041 N 0.63805 0.51541 0.31631 0.0
C2042 C 0.62044 0.53156 0.33866 0.0
C2043 C 0.62893 0.52993 0.32131 0.0
C2044 C 0.62098 0.51827 0.35188 0.0
C2045 C 0.63045 0.50336 0.34617 0.0
H2046 H 0.64597 0.49071 0.32517 0.0
H2047 H 0.62821 0.5406 0.3119 0.0
C2048 C 0.69002 0.57414 0.25833 0.0
N2049 N 0.69429 0.56531 0.27357 0.0
C2050 C 0.69899 0.59394 0.25726 0.0
C2051 C 0.71714 0.59596 0.28747 0.0
C2052 C 0.70772 0.57609 0.28804 0.0
C2053 C 0.71297 0.60562 0.27192 0.0
H2054 H 0.67929 0.56587 0.24689 0.0
H2055 H 0.7112 0.56939 0.30026 0.0
C2056 C 0.63214 0.47403 0.25988 0.0
N2057 N 0.60298 0.44325 0.24217 0.0
C2058 C 0.63504 0.45888 0.2461 0.0
C2059 C 0.61447 0.4735 0.26476 0.0
C2060 C 0.6201 0.44345 0.23728 0.0
C2061 C 0.59989 0.45782 0.25561 0.0
C2062 C 0.68439 0.51237 0.23301 0.0
C2063 C 0.67675 0.49533 0.2192 0.0
C2064 C 0.69871 0.52696 0.22893 0.0
C2065 C 0.68353 0.49321 0.20139 0.0
C2066 C 0.70519 0.52424 0.211 0.0
N2067 N 0.69751 0.50758 0.19771 0.0
C2068 C 0.63224 0.52899 0.2209 0.0
C2069 C 0.62954 0.49501 0.21034 0.0
C2070 C 0.62309 0.53058 0.20286 0.0
N2071 N 0.63536 0.51137 0.2247 0.0
C2072 C 0.62072 0.49609 0.19187 0.0
C2073 C 0.61722 0.51409 0.18765 0.0
H2074 H 0.63717 0.54221 0.23175 0.0
H2075 H 0.63198 0.48098 0.21293 0.0
C2076 C 0.69134 0.46154 0.28451 0.0
N2077 N 0.68877 0.47024 0.26864 0.0
C2078 C 0.69995 0.44519 0.28411 0.0
C2079 C 0.70353 0.44617 0.25106 0.0
C2080 C 0.69487 0.4625 0.25206 0.0
C2081 C 0.70644 0.43677 0.2672 0.0
H2082 H 0.6867 0.46722 0.29783 0.0
H2083 H 0.69301 0.46887 0.23923 0.0
O2084 O 0.65144 0.53486 0.27311 0.0
O2085 O 0.67996 0.51779 0.29389 0.0
O2086 O 0.64659 0.48921 0.2687 0.0
O2087 O 0.67815 0.5146 0.25062 0.0
H2088 H 0.65635 0.57368 0.27553 0.0
H2089 H 0.61579 0.51823 0.26681 0.0
H2090 H 0.6312 0.59098 0.27163 0.0
H2091 H 0.59132 0.5365 0.2632 0.0
H2092 H 0.73539 0.51874 0.32586 0.0
H2093 H 0.67612 0.53779 0.32759 0.0
H2094 H 0.71258 0.50952 0.29624 0.0
H2095 H 0.69951 0.54643 0.35669 0.0
H2096 H 0.61331 0.54327 0.34145 0.0
H2097 H 0.63189 0.49265 0.35534 0.0
H2098 H 0.69455 0.60006 0.245 0.0
H2099 H 0.72779 0.60354 0.29922 0.0
H2100 H 0.64868 0.45905 0.24227 0.0
H2101 H 0.61206 0.48502 0.27557 0.0
H2102 H 0.62211 0.43162 0.22656 0.0
H2103 H 0.58612 0.45721 0.25921 0.0
H2104 H 0.66577 0.48382 0.22225 0.0
H2105 H 0.70489 0.54015 0.23957 0.0
H2106 H 0.67773 0.48011 0.19054 0.0
H2107 H 0.71634 0.53537 0.20766 0.0
H2108 H 0.62116 0.54493 0.20068 0.0
H2109 H 0.61654 0.48276 0.18098 0.0
H2110 H 0.70164 0.43944 0.29734 0.0
H2111 H 0.70766 0.44085 0.23734 0.0
Ho2112 Ho 0.02762 0.02704 1.00286 0.0
Ho2113 Ho 0.06257 0.04934 0.02724 0.0
C2114 C 0.03894 0.07472 0.00695 0.0
C2115 C 0.9934 0.01178 0.99036 0.0
C2116 C 0.97682 0.0192 0.99237 0.0
C2117 C 0.97264 0.02667 0.01061 0.0
C2118 C 0.95864 0.03669 0.012 0.0
C2119 C 0.94885 0.03972 0.99521 0.0
C2120 C 0.95271 0.03165 0.97701 0.0
C2121 C 0.96647 0.02133 0.97562 0.0
C2122 C 0.05438 0.02736 0.9779 0.0
C2123 C 0.05109 1.00135 0.02319 0.0
C2124 C 0.09712 0.06359 0.03879 0.0
C2125 C 0.11246 0.05477 0.03469 0.0
C2126 C 0.10937 0.03761 0.02059 0.0
C2127 C 0.12297 0.02719 0.01848 0.0
C2128 C 0.13992 0.03384 0.0304 0.0
C2129 C 0.14314 0.05138 0.04417 0.0
C2130 C 0.12942 0.06174 0.04636 0.0
C2131 C 0.03597 0.04972 0.05214 0.0
O2132 O 0.02522 0.05874 1.0039 0.0
O2133 O 0.05556 0.07437 0.01427 0.0
O2134 O 1.00485 0.02166 0.98046 0.0
O2135 O 1.00166 0.00765 0.00583 0.0
O2136 O 0.0371 0.01906 0.97369 0.0
O2137 O 0.05686 0.03515 0.99598 0.0
O2138 O 0.06431 0.01776 0.02794 0.0
O2139 O 0.035 1.00131 0.01411 0.0
O2140 O 0.08588 0.0538 0.04894 0.0
O2141 O 0.08852 0.06854 0.02403 0.0
O2142 O 0.05301 0.05925 0.05587 0.0
O2143 O 0.03327 0.04158 0.03414 0.0
H2144 H 0.98053 0.02538 0.02378 0.0
H2145 H 0.95572 0.04237 0.02624 0.0
H2146 H 0.94561 0.03393 0.9638 0.0
H2147 H 0.96966 0.01587 0.96143 0.0
H2148 H 0.09618 0.03188 0.01167 0.0
H2149 H 0.11998 0.01359 0.00795 0.0
H2150 H 0.15618 0.05696 0.05336 0.0
H2151 H 0.13186 0.07484 0.05746 0.0
Ho2152 Ho 0.30488 0.78252 0.24724 0.0
Ho2153 Ho 0.28413 0.78846 0.27738 0.0
C2154 C 0.30594 0.82593 0.26535 0.0
C2155 C 0.31894 0.77775 0.21545 0.0
C2156 C 0.32507 0.79281 0.20355 0.0
C2157 C 0.31221 0.80122 0.19428 0.0
C2158 C 0.31805 0.81734 0.18534 0.0
C2159 C 0.33688 0.82551 0.18547 0.0
C2160 C 0.34981 0.81694 0.19438 0.0
C2161 C 0.34393 0.80069 0.20338 0.0
C2162 C 0.32632 0.79036 0.2824 0.0
C2163 C 0.28694 0.74398 0.26203 0.0
C2164 C 0.26471 0.78828 0.30556 0.0
C2165 C 0.25931 0.774 0.31804 0.0
C2166 C 0.26845 0.75877 0.31889 0.0
C2167 C 0.26384 0.7456 0.33142 0.0
C2168 C 0.2502 0.74772 0.34325 0.0
C2169 C 0.24022 0.76211 0.34152 0.0
C2170 C 0.24472 0.77522 0.32878 0.0
C2171 C 0.26697 0.795 0.24421 0.0
O2172 O 0.30428 0.81409 0.24867 0.0
O2173 O 0.30263 0.81867 0.28108 0.0
O2174 O 0.32854 0.78058 0.23239 0.0
O2175 O 0.30129 0.77269 0.2163 0.0
O2176 O 0.33035 0.79887 0.26781 0.0
O2177 O 0.31042 0.77889 0.27804 0.0
O2178 O 0.28042 0.75575 0.27437 0.0
O2179 O 0.29702 0.7506 0.2492 0.0
O2180 O 0.25774 0.78188 0.28752 0.0
O2181 O 0.28225 0.79707 0.30772 0.0
O2182 O 0.26964 0.80632 0.26085 0.0
O2183 O 0.27457 0.78065 0.24549 0.0
H2184 H 0.29756 0.79562 0.19419 0.0
H2185 H 0.30774 0.82322 0.17802 0.0
H2186 H 0.3644 0.82289 0.19451 0.0
H2187 H 0.35411 0.79457 0.2106 0.0
H2188 H 0.27969 0.75762 0.31059 0.0
H2189 H 0.27185 0.73475 0.33297 0.0
H2190 H 0.22989 0.76405 0.35092 0.0
H2191 H 0.23738 0.78675 0.32789 0.0
Ho2192 Ho 0.56593 0.03821 0.51633 0.0
Ho2193 Ho 0.52338 0.03511 0.51155 0.0
C2194 C 0.53645 0.99508 0.50888 0.0
C2195 C 0.59909 0.03457 0.52546 0.0
C2196 C 0.61067 0.01989 0.52268 0.0
C2197 C 0.61672 0.01204 0.53855 0.0
C2198 C 0.62939 1.00014 0.53695 0.0
C2199 C 0.63648 0.99579 0.51942 0.0
C2200 C 0.62992 1.00304 0.50329 0.0
C2201 C 0.61725 0.01501 0.50492 0.0
C2202 C 0.54974 0.03632 0.48053 0.0
C2203 C 0.55296 0.07844 0.51956 0.0
C2204 C 0.49012 0.03864 0.5028 0.0
C2205 C 0.47838 0.05296 0.50705 0.0
C2206 C 0.4763 0.06646 0.49464 0.0
C2207 C 0.46372 0.07839 0.49743 0.0
C2208 C 0.45288 0.07703 0.51258 0.0
C2209 C 0.45515 0.06391 0.52523 0.0
C2210 C 0.46776 0.05203 0.52252 0.0
C2211 C 0.53997 0.03732 0.54736 0.0
O2212 O 0.55289 1.00594 0.51705 0.0
O2213 O 0.52345 1.00314 0.50199 0.0
O2214 O 0.59409 0.04189 0.51041 0.0
O2215 O 0.5861 0.03137 0.53661 0.0
O2216 O 0.56624 0.0468 0.48683 0.0
O2217 O 0.54312 0.02681 0.49287 0.0
O2218 O 0.53633 0.06773 0.51176 0.0
O2219 O 0.56612 0.07023 0.5258 0.0
O2220 O 0.49497 0.0299 0.51686 0.0
O2221 O 0.50333 0.04321 0.49215 0.0
O2222 O 0.52344 0.02673 0.54132 0.0
O2223 O 0.54613 0.04657 0.5347 0.0
H2224 H 0.61201 0.01554 0.55243 0.0
H2225 H 0.63385 0.99457 0.5496 0.0
H2226 H 0.63513 1.00013 0.48959 0.0
H2227 H 0.61303 0.02087 0.49237 0.0
H2228 H 0.484 0.06741 0.48243 0.0
H2229 H 0.46204 0.08825 0.48737 0.0
H2230 H 0.44682 0.0625 0.53693 0.0
H2231 H 0.46879 0.04168 0.53225 0.0
Ho2232 Ho 0.27603 0.29013 0.76404 0.0
Ho2233 Ho 0.31448 0.28196 0.76696 0.0
C2234 C 0.29955 0.29552 0.8062 0.0
C2235 C 0.24102 0.28471 0.76662 0.0
C2236 C 0.22812 0.28941 0.78056 0.0
C2237 C 0.227 0.28131 0.79763 0.0
C2238 C 0.21304 0.2834 0.80916 0.0
C2239 C 0.19976 0.29367 0.80401 0.0
C2240 C 0.20141 0.3025 0.78738 0.0
C2241 C 0.21532 0.30032 0.7758 0.0
C2242 C 0.30151 0.32621 0.76604 0.0
C2243 C 0.29195 0.27929 0.72445 0.0
C2244 C 0.34809 0.27947 0.76337 0.0
C2245 C 0.36161 0.27925 0.74922 0.0
C2246 C 0.36468 0.29307 0.73666 0.0
C2247 C 0.37869 0.29327 0.72468 0.0
C2248 C 0.39001 0.27975 0.72506 0.0
C2249 C 0.38643 0.26559 0.73723 0.0
C2250 C 0.37246 0.26538 0.74912 0.0
C2251 C 0.28676 0.25039 0.77138 0.0
O2252 O 0.28329 0.29187 0.79586 0.0
O2253 O 0.31472 0.29534 0.7981 0.0
O2254 O 0.25021 0.299 0.75885 0.0
O2255 O 0.25089 0.27241 0.77078 0.0
O2256 O 0.28382 0.32368 0.76526 0.0
O2257 O 0.30463 0.30911 0.76631 0.0
O2258 O 0.30766 0.28007 0.73493 0.0
O2259 O 0.27707 0.28162 0.73227 0.0
O2260 O 0.33414 0.26412 0.76096 0.0
O2261 O 0.34353 0.29612 0.76917 0.0
O2262 O 0.30296 0.2561 0.7814 0.0
O2263 O 0.28602 0.26214 0.75925 0.0
H2264 H 0.23654 0.27273 0.8018 0.0
H2265 H 0.21225 0.27621 0.82168 0.0
H2266 H 0.19175 0.31088 0.78309 0.0
H2267 H 0.21574 0.30669 0.76275 0.0
H2268 H 0.35651 0.30395 0.73638 0.0
H2269 H 0.38105 0.30446 0.7156 0.0
H2270 H 0.39454 0.25469 0.7377 0.0
H2271 H 0.37037 0.25452 0.75859 0.0
Ho2272 Ho 0.04251 0.05713 0.52276 0.0
Ho2273 Ho 0.04882 0.01698 0.50549 0.0
C2274 C 0.0328 0.04302 0.4759 0.0
C2275 C 0.04565 0.09414 0.53575 0.0
C2276 C 0.04627 0.11017 0.52448 0.0
C2277 C 0.05308 0.10854 0.50656 0.0
C2278 C 0.0531 0.12313 0.49527 0.0
C2279 C 0.04599 0.13957 0.50145 0.0
C2280 C 0.03891 0.14105 0.5193 0.0
C2281 C 0.03908 0.12644 0.53075 0.0
C2282 C 0.01238 0.02649 0.5178 0.0
C2283 C 0.05968 0.03178 0.55268 0.0
C2284 C 0.044 0.97935 0.49502 0.0
C2285 C 0.04051 0.96345 0.50632 0.0
C2286 C 0.03214 0.96607 0.52319 0.0
C2287 C 0.03107 0.95227 0.5355 0.0
C2288 C 0.03864 0.93582 0.53126 0.0
C2289 C 0.04694 0.93315 0.51429 0.0
C2290 C 0.04784 0.9469 0.50187 0.0
C2291 C 0.07906 0.04568 0.50237 0.0
O2292 O 0.03743 0.05832 0.49052 0.0
O2293 O 0.03456 0.02515 0.47868 0.0
O2294 O 0.02995 0.08098 0.53321 0.0
O2295 O 0.05971 0.08603 0.53542 0.0
O2296 O 0.01219 0.0442 0.51484 0.0
O2297 O 0.02866 0.026 0.52392 0.0
O2298 O 0.05906 0.01788 0.53733 0.0
O2299 O 0.0535 0.04789 0.55073 0.0
O2300 O 0.06021 0.99146 0.5 0.0
O2301 O 0.03081 0.98856 0.49257 0.0
O2302 O 0.07701 0.02692 0.49624 0.0
O2303 O 0.06458 0.04782 0.50925 0.0
H2304 H 0.05836 0.09591 0.50121 0.0
H2305 H 0.05894 0.12163 0.48179 0.0
H2306 H 0.0331 0.15338 0.52436 0.0
H2307 H 0.03345 0.12776 0.54436 0.0
H2308 H 0.02699 0.97911 0.52714 0.0
H2309 H 0.02478 0.95474 0.5486 0.0
H2310 H 0.05274 0.92047 0.51068 0.0
H2311 H 0.05469 0.94493 0.48909 0.0
Ho2312 Ho 0.31336 0.80404 0.76819 0.0
Ho2313 Ho 0.27587 0.77022 0.75983 0.0
C2314 C 0.31499 0.75559 0.76515 0.0
C2315 C 0.34521 0.82599 0.78252 0.0
C2316 C 0.36371 0.82241 0.78222 0.0
C2317 C 0.37256 0.81815 0.79886 0.0
C2318 C 0.38898 0.81224 0.79821 0.0
C2319 C 0.39694 0.81073 0.78097 0.0
C2320 C 0.38855 0.81577 0.76452 0.0
C2321 C 0.372 0.8215 0.7651 0.0
C2322 C 0.29997 0.78858 0.73124 0.0
C2323 C 0.27468 0.81873 0.76441 0.0
C2324 C 0.24686 0.74666 0.74039 0.0
C2325 C 0.22733 0.7462 0.74007 0.0
C2326 C 0.21649 0.7434 0.72221 0.0
C2327 C 0.19871 0.74622 0.72146 0.0
C2328 C 0.19148 0.75175 0.7386 0.0
C2329 C 0.20215 0.75377 0.75652 0.0
C2330 C 0.22001 0.75117 0.75725 0.0
C2331 C 0.28358 0.78746 0.79753 0.0
O2332 O 0.32394 0.77496 0.76898 0.0
O2333 O 0.29663 0.75041 0.76073 0.0
O2334 O 0.33669 0.82738 0.76593 0.0
O2335 O 0.33454 0.81519 0.79255 0.0
O2336 O 0.30945 0.80679 0.73658 0.0
O2337 O 0.2997 0.7797 0.74532 0.0
O2338 O 0.26592 0.79947 0.75847 0.0
O2339 O 0.29276 0.82387 0.77045 0.0
O2340 O 0.25512 0.74286 0.75614 0.0
O2341 O 0.25637 0.7619 0.73403 0.0
O2342 O 0.26952 0.77258 0.79114 0.0
O2343 O 0.29191 0.79112 0.78351 0.0
H2344 H 0.36655 0.81891 0.81227 0.0
H2345 H 0.3955 0.80891 0.81123 0.0
H2346 H 0.39461 0.81488 0.75114 0.0
H2347 H 0.36553 0.82477 0.75202 0.0
H2348 H 0.22208 0.7399 0.70883 0.0
H2349 H 0.19094 0.74487 0.70742 0.0
H2350 H 0.19684 0.75775 0.76995 0.0
H2351 H 0.22826 0.75368 0.77121 0.0
Ho2352 Ho 0.54833 0.04238 0.03287 0.0
Ho2353 Ho 0.53436 0.03963 0.99106 0.0
C2354 C 0.50789 0.01432 0.01345 0.0
C2355 C 0.54856 0.04405 0.06927 0.0
C2356 C 0.5376 0.02924 0.07893 0.0
C2357 C 0.52283 0.03368 0.088 0.0
C2358 C 0.51173 0.01948 0.09634 0.0
C2359 C 0.51535 1.00066 0.09594 0.0
C2360 C 0.52961 0.99589 0.08617 0.0
C2361 C 0.54061 0.01003 0.07764 0.0
C2362 C 0.55958 0.01509 0.00927 0.0
C2363 C 0.57589 0.06331 0.00954 0.0
C2364 C 0.53294 0.04156 0.95509 0.0
C2365 C 0.54891 0.04897 0.94564 0.0
C2366 C 0.56592 0.04542 0.95189 0.0
C2367 C 0.58196 0.05554 0.94612 0.0
C2368 C 0.5812 0.06844 0.93289 0.0
C2369 C 0.5641 0.07206 0.92669 0.0
C2370 C 0.54811 0.06259 0.93326 0.0
C2371 C 0.52337 0.06555 0.0162 0.0
O2372 O 0.51927 0.02393 0.02905 0.0
O2373 O 0.51173 0.01578 0.99582 0.0
O2374 O 0.56141 0.03851 0.06006 0.0
O2375 O 0.53906 0.05365 0.05946 0.0
O2376 O 0.56909 0.02517 0.02532 0.0
O2377 O 0.54381 0.01858 0.0073 0.0
O2378 O 0.5649 0.05159 0.99471 0.0
O2379 O 0.57041 0.06624 0.02667 0.0
O2380 O 0.52924 0.05518 0.96783 0.0
O2381 O 0.53246 0.02491 0.96143 0.0
O2382 O 0.51241 0.05383 1.00188 0.0
O2383 O 0.53943 0.06317 0.01646 0.0
H2384 H 0.51998 0.04822 0.08884 0.0
H2385 H 0.50103 0.02367 0.10415 0.0
H2386 H 0.53269 0.9815 0.08584 0.0
H2387 H 0.5516 1.00595 0.07028 0.0
H2388 H 0.56693 0.03496 0.96148 0.0
H2389 H 0.59489 0.05259 0.95139 0.0
H2390 H 0.56289 0.08156 0.91615 0.0
H2391 H 0.53515 0.06589 0.9287 0.0
Ho2392 Ho 0.30339 0.31113 0.27365 0.0
Ho2393 Ho 0.28586 0.26549 0.26013 0.0
C2394 C 0.2592 0.294 0.26876 0.0
C2395 C 0.31265 0.34923 0.28076 0.0
C2396 C 0.30194 0.36405 0.28031 0.0
C2397 C 0.28417 0.35877 0.27013 0.0
C2398 C 0.2733 0.37238 0.271 0.0
C2399 C 0.28023 0.39149 0.2818 0.0
C2400 C 0.29805 0.39684 0.29189 0.0
C2401 C 0.30883 0.38305 0.29128 0.0
C2402 C 0.30396 0.28797 0.30102 0.0
C2403 C 0.32908 0.28334 0.25992 0.0
C2404 C 0.2762 0.22848 0.26197 0.0
C2405 C 0.28471 0.2119 0.25699 0.0
C2406 C 0.28952 0.20212 0.27183 0.0
C2407 C 0.30104 0.1893 0.26898 0.0
C2408 C 0.30765 0.18584 0.25115 0.0
C2409 C 0.30199 0.19462 0.23585 0.0
C2410 C 0.29068 0.2078 0.23881 0.0
C2411 C 0.28926 0.28392 0.22858 0.0
O2412 O 0.27304 0.30959 0.26959 0.0
O2413 O 0.26103 0.27563 0.26685 0.0
O2414 O 0.3092 0.33845 0.29414 0.0
O2415 O 0.31351 0.33876 0.26399 0.0
O2416 O 0.31738 0.30267 0.29964 0.0
O2417 O 0.29093 0.28645 0.28782 0.0
O2418 O 0.31624 0.26784 0.26205 0.0
O2419 O 0.32648 0.3014 0.26117 0.0
O2420 O 0.26955 0.23598 0.24776 0.0
O2421 O 0.28576 0.24201 0.27628 0.0
O2422 O 0.28269 0.26502 0.22755 0.0
O2423 O 0.29355 0.29133 0.24628 0.0
H2424 H 0.2787 0.34417 0.2615 0.0
H2425 H 0.25965 0.36816 0.2629 0.0
H2426 H 0.30354 0.4116 0.30025 0.0
H2427 H 0.32246 0.38717 0.2994 0.0
H2428 H 0.28518 0.20524 0.28599 0.0
H2429 H 0.30516 0.18243 0.28087 0.0
H2430 H 0.30698 0.19198 0.22199 0.0
H2431 H 0.28731 0.21538 0.22721 0.0
Ho2432 Ho 0.54167 0.55751 0.02455 0.0
Ho2433 Ho 0.5485 0.51799 1.0052 0.0
C2434 C 0.53255 0.54389 0.97628 0.0
C2435 C 0.54021 0.59396 0.0336 0.0
C2436 C 0.54128 0.60957 0.02194 0.0
C2437 C 0.54851 0.60751 1.00429 0.0
C2438 C 0.54924 0.62212 0.9929 0.0
C2439 C 0.54283 0.63904 0.99904 0.0
C2440 C 0.53541 0.64096 0.01663 0.0
C2441 C 0.53458 0.62624 0.02799 0.0
C2442 C 0.51544 0.52494 0.0274 0.0
C2443 C 0.56006 0.5326 0.05244 0.0
C2444 C 0.54453 0.48053 0.99428 0.0
C2445 C 0.54238 0.4646 0.00575 0.0
C2446 C 0.52851 0.462 0.01785 0.0
C2447 C 0.52826 0.44886 0.03077 0.0
C2448 C 0.54201 0.43828 0.03206 0.0
C2449 C 0.55568 0.44066 0.01971 0.0
C2450 C 0.55579 0.45362 0.00659 0.0
C2451 C 0.57914 0.54762 0.00555 0.0
O2452 O 0.53362 0.55754 0.99206 0.0
O2453 O 0.5375 0.52707 0.97766 0.0
O2454 O 0.52556 0.57934 0.02878 0.0
O2455 O 0.55533 0.58792 0.0365 0.0
O2456 O 0.52134 0.54037 0.041 0.0
O2457 O 0.52363 0.52787 0.01279 0.0
O2458 O 0.55414 0.51728 0.03784 0.0
O2459 O 0.55893 0.5507 0.04991 0.0
O2460 O 0.56055 0.49313 0.99804 0.0
O2461 O 0.53091 0.48922 0.99262 0.0
O2462 O 0.57765 0.52919 0.99836 0.0
O2463 O 0.56425 0.54887 0.01182 0.0
H2464 H 0.55376 0.59471 0.99941 0.0
H2465 H 0.55525 0.62041 0.97954 0.0
H2466 H 0.53028 0.65384 0.02158 0.0
H2467 H 0.52878 0.62788 0.04149 0.0
H2468 H 0.51808 0.47044 0.0177 0.0
H2469 H 0.5173 0.44703 0.03979 0.0
H2470 H 0.56656 0.43287 0.02048 0.0
H2471 H 0.56675 0.45564 0.99758 0.0
Ho2472 Ho 0.81266 0.30303 0.2673 0.0
Ho2473 Ho 0.77811 0.27118 0.26338 0.0
C2474 C 0.81577 0.25542 0.26652 0.0
C2475 C 0.84488 0.32562 0.27861 0.0
C2476 C 0.86298 0.32102 0.28016 0.0
C2477 C 0.86622 0.30619 0.29037 0.0
C2478 C 0.88296 0.30091 0.29069 0.0
C2479 C 0.89673 0.31027 0.28076 0.0
C2480 C 0.89354 0.32512 0.27057 0.0
C2481 C 0.87674 0.33045 0.27027 0.0
C2482 C 0.79808 0.28628 0.23106 0.0
C2483 C 0.77505 0.31887 0.26464 0.0
C2484 C 0.74638 0.24803 0.25055 0.0
C2485 C 0.72771 0.25122 0.24857 0.0
C2486 C 0.71905 0.25143 0.23017 0.0
C2487 C 0.70203 0.2561 0.22814 0.0
C2488 C 0.69327 0.2604 0.24447 0.0
C2489 C 0.70173 0.2598 0.26285 0.0
C2490 C 0.71883 0.25525 0.26491 0.0
C2491 C 0.79249 0.28739 0.29986 0.0
O2492 O 0.82428 0.27482 0.26961 0.0
O2493 O 0.79752 0.2501 0.26265 0.0
O2494 O 0.83665 0.32325 0.26097 0.0
O2495 O 0.83384 0.3186 0.29054 0.0
O2496 O 0.80539 0.30515 0.23613 0.0
O2497 O 0.79957 0.27757 0.24514 0.0
O2498 O 0.76659 0.29943 0.26048 0.0
O2499 O 0.79325 0.32405 0.26938 0.0
O2500 O 0.75441 0.24968 0.26819 0.0
O2501 O 0.75739 0.25658 0.23932 0.0
O2502 O 0.78404 0.26883 0.29465 0.0
O2503 O 0.79145 0.29638 0.28588 0.0
H2504 H 0.85581 0.29851 0.29802 0.0
H2505 H 0.88523 0.28969 0.29898 0.0
H2506 H 0.90398 0.33249 0.26276 0.0
H2507 H 0.8744 0.34175 0.26214 0.0
H2508 H 0.72563 0.24839 0.21737 0.0
H2509 H 0.69586 0.25666 0.21381 0.0
H2510 H 0.6951 0.26275 0.27562 0.0
H2511 H 0.72513 0.25514 0.2793 0.0
Ho2512 Ho 0.05174 0.54294 0.53301 0.0
Ho2513 Ho 0.03635 0.53362 0.49074 0.0
C2514 C 0.01022 0.51552 0.51795 0.0
C2515 C 0.05294 0.54819 0.5696 0.0
C2516 C 0.0416 0.53415 0.57977 0.0
C2517 C 0.02688 0.53932 0.58844 0.0
C2518 C 0.01488 0.52543 0.59632 0.0
C2519 C 0.01752 0.5062 0.59582 0.0
C2520 C 0.03179 0.50076 0.58655 0.0
C2521 C 0.04368 0.51457 0.5785 0.0
C2522 C 0.06146 0.51246 0.5125 0.0
C2523 C 0.0779 0.56097 0.5065 0.0
C2524 C 0.035 0.52864 0.45403 0.0
C2525 C 0.04817 0.54102 0.44418 0.0
C2526 C 0.05764 0.53202 0.43069 0.0
C2527 C 0.07261 0.54342 0.42405 0.0
C2528 C 0.07835 0.56403 0.4308 0.0
C2529 C 0.06868 0.5731 0.44406 0.0
C2530 C 0.05379 0.56166 0.45083 0.0
C2531 C 0.02815 0.56512 0.51126 0.0
O2532 O 0.02215 0.52766 0.53181 0.0
O2533 O 0.01384 0.51223 0.49997 0.0
O2534 O 0.06566 0.5418 0.56082 0.0
O2535 O 0.04371 0.55742 0.55903 0.0
O2536 O 0.07204 0.52472 0.52676 0.0
O2537 O 0.0457 0.51594 0.51074 0.0
O2538 O 0.06662 0.54797 0.49257 0.0
O2539 O 0.0731 0.56522 0.52383 0.0
O2540 O 0.02398 0.53761 0.46321 0.0
O2541 O 0.04221 0.51758 0.46427 0.0
O2542 O 0.0165 0.55246 0.49813 0.0
O2543 O 0.04345 0.56078 0.51262 0.0
H2544 H 0.02466 0.55411 0.58912 0.0
H2545 H 1.00416 0.53008 0.60377 0.0
H2546 H 0.03412 0.48604 0.58619 0.0
H2547 H 0.05453 0.50986 0.57135 0.0
H2548 H 0.05381 0.51611 0.42576 0.0
H2549 H 0.07959 0.53609 0.41346 0.0
H2550 H 0.07279 0.58893 0.44938 0.0
H2551 H 0.04707 0.56893 0.46173 0.0
Ho2552 Ho 0.7744 0.79101 0.26423 0.0
Ho2553 Ho 0.81574 0.78379 0.26689 0.0
C2554 C 0.79802 0.79448 0.30609 0.0
C2555 C 0.73927 0.78662 0.26516 0.0
C2556 C 0.7263 0.78901 0.27964 0.0
C2557 C 0.72073 0.77439 0.29092 0.0
C2558 C 0.70727 0.77594 0.30322 0.0
C2559 C 0.69895 0.7921 0.30457 0.0
C2560 C 0.7049 0.80696 0.29364 0.0
C2561 C 0.71831 0.80538 0.2813 0.0
C2562 C 0.80079 0.82648 0.26586 0.0
C2563 C 0.79152 0.77853 0.22481 0.0
C2564 C 0.85089 0.78976 0.26533 0.0
C2565 C 0.86392 0.78651 0.2511 0.0
C2566 C 0.87204 0.80213 0.24199 0.0
C2567 C 0.88548 0.80001 0.22985 0.0
C2568 C 0.89131 0.78223 0.2265 0.0
C2569 C 0.88296 0.76646 0.23536 0.0
C2570 C 0.86947 0.76859 0.24754 0.0
C2571 C 0.78966 0.74833 0.26586 0.0
O2572 O 0.78171 0.7919 0.29593 0.0
O2573 O 0.81342 0.79431 0.29825 0.0
O2574 O 0.75006 0.80272 0.26176 0.0
O2575 O 0.74764 0.77222 0.26542 0.0
O2576 O 0.78318 0.8246 0.26535 0.0
O2577 O 0.80291 0.80897 0.26599 0.0
O2578 O 0.80753 0.77951 0.23492 0.0
O2579 O 0.77672 0.78142 0.23272 0.0
O2580 O 0.84125 0.77436 0.27125 0.0
O2581 O 0.84134 0.80277 0.26269 0.0
O2582 O 0.80736 0.75046 0.26685 0.0
O2583 O 0.78723 0.7657 0.26526 0.0
H2584 H 0.72642 0.76146 0.28992 0.0
H2585 H 0.70294 0.76405 0.31114 0.0
H2586 H 0.69908 0.81978 0.29447 0.0
H2587 H 0.72219 0.81685 0.27276 0.0
H2588 H 0.86834 0.81625 0.2446 0.0
H2589 H 0.89175 0.81263 0.22363 0.0
H2590 H 0.88693 0.75248 0.233 0.0
H2591 H 0.86364 0.75628 0.25441 0.0
Ho2592 Ho 0.8031 0.27851 0.74457 0.0
Ho2593 Ho 0.78975 0.29328 0.78066 0.0
C2594 C 0.80593 0.3252 0.75698 0.0
C2595 C 0.81714 0.27371 0.71276 0.0
C2596 C 0.8257 0.28791 0.70119 0.0
C2597 C 0.81834 0.30404 0.69815 0.0
C2598 C 0.82712 0.31778 0.68767 0.0
C2599 C 0.84328 0.31548 0.68006 0.0
C2600 C 0.8511 0.29993 0.68395 0.0
C2601 C 0.84237 0.28625 0.69453 0.0
C2602 C 0.82469 0.27823 0.77751 0.0
C2603 C 0.78009 0.24656 0.76276 0.0
C2604 C 0.78518 0.29896 0.81639 0.0
C2605 C 0.77204 0.28648 0.82619 0.0
C2606 C 0.7691 0.26572 0.82204 0.0
C2607 C 0.75901 0.25401 0.83339 0.0
C2608 C 0.75208 0.263 0.84923 0.0
C2609 C 0.75276 0.28339 0.85167 0.0
C2610 C 0.76283 0.29514 0.84021 0.0
C2611 C 0.76105 0.28882 0.75266 0.0
O2612 O 0.80582 0.31039 0.7431 0.0
O2613 O 0.80254 0.32268 0.77447 0.0
O2614 O 0.82634 0.2755 0.72972 0.0
O2615 O 0.79942 0.27108 0.71329 0.0
O2616 O 0.81901 0.26336 0.76343 0.0
O2617 O 0.81774 0.29244 0.77401 0.0
O2618 O 0.78384 0.26036 0.77837 0.0
O2619 O 0.78336 0.2506 0.74571 0.0
O2620 O 0.77806 0.30806 0.80395 0.0
O2621 O 0.79817 0.29101 0.81005 0.0
O2622 O 0.76096 0.29417 0.77094 0.0
O2623 O 0.77646 0.28506 0.74974 0.0
H2624 H 0.80569 0.30587 0.70357 0.0
H2625 H 0.82071 0.32952 0.68454 0.0
H2626 H 0.86349 0.29789 0.67806 0.0
H2627 H 0.84846 0.27417 0.69725 0.0
H2628 H 0.77576 0.25854 0.81111 0.0
H2629 H 0.75873 0.23833 0.83128 0.0
H2630 H 0.74735 0.2905 0.86384 0.0
H2631 H 0.76449 0.31106 0.8432 0.0
Ho2632 Ho 0.80386 0.81164 0.77189 0.0
Ho2633 Ho 0.78633 0.76595 0.7582 0.0
C2634 C 0.76027 0.79622 0.76842 0.0
C2635 C 0.81662 0.84898 0.77349 0.0
C2636 C 0.80703 0.86467 0.77184 0.0
C2637 C 0.79082 0.86091 0.75892 0.0
C2638 C 0.77999 0.87459 0.75969 0.0
C2639 C 0.78507 0.89195 0.77363 0.0
C2640 C 0.80125 0.89582 0.78651 0.0
C2641 C 0.81227 0.88225 0.78554 0.0
C2642 C 0.80303 0.79213 0.80289 0.0
C2643 C 0.82941 0.78134 0.76227 0.0
C2644 C 0.77089 0.7288 0.75409 0.0
C2645 C 0.77923 0.71162 0.75218 0.0
C2646 C 0.78645 0.70586 0.76886 0.0
C2647 C 0.7978 0.69272 0.76747 0.0
C2648 C 0.8019 0.68484 0.74936 0.0
C2649 C 0.79351 0.68923 0.73253 0.0
C2650 C 0.78224 0.70257 0.73393 0.0
C2651 C 0.79434 0.78715 0.72972 0.0
O2652 O 0.7742 0.81183 0.77003 0.0
O2653 O 0.76191 0.77771 0.76501 0.0
O2654 O 0.81366 0.84093 0.78876 0.0
O2655 O 0.81571 0.83589 0.75782 0.0
O2656 O 0.80909 0.81104 0.80415 0.0
O2657 O 0.79812 0.78528 0.7852 0.0
O2658 O 0.81607 0.76623 0.76422 0.0
O2659 O 0.8271 0.79944 0.7624 0.0
O2660 O 0.77162 0.73851 0.73964 0.0
O2661 O 0.77502 0.74066 0.7709 0.0
O2662 O 0.7961 0.76915 0.72946 0.0
O2663 O 0.78773 0.79284 0.74493 0.0
H2664 H 0.78618 0.84713 0.74871 0.0
H2665 H 0.76741 0.87141 0.74975 0.0
H2666 H 0.80527 0.90924 0.79732 0.0
H2667 H 0.82449 0.8851 0.79592 0.0
H2668 H 0.78411 0.71226 0.78309 0.0
H2669 H 0.80381 0.68913 0.78062 0.0
H2670 H 0.7964 0.68313 0.7184 0.0
H2671 H 0.77666 0.70653 0.72079 0.0
Ho2672 Ho 0.52684 0.52642 0.50246 0.0
Ho2673 Ho 0.56157 0.54748 0.52668 0.0
C2674 C 0.53905 0.57393 0.50672 0.0
C2675 C 0.4925 0.51166 0.48986 0.0
C2676 C 0.47619 0.5192 0.49239 0.0
C2677 C 0.47765 0.53696 0.5052 0.0
C2678 C 0.46294 0.54595 0.50545 0.0
C2679 C 0.44659 0.53723 0.49293 0.0
C2680 C 0.44497 0.51909 0.48058 0.0
C2681 C 0.45977 0.51017 0.48024 0.0
C2682 C 0.55287 0.52587 0.47685 0.0
C2683 C 0.54976 0.49992 0.5219 0.0
C2684 C 0.59579 0.56187 0.53988 0.0
C2685 C 0.61191 0.55427 0.53633 0.0
C2686 C 0.61092 0.53967 0.52007 0.0
C2687 C 0.62508 0.53002 0.51808 0.0
C2688 C 0.6402 0.53458 0.53255 0.0
C2689 C 0.64127 0.54935 0.54873 0.0
C2690 C 0.62718 0.55921 0.55058 0.0
C2691 C 0.53492 0.54798 0.55173 0.0
O2692 O 0.52504 0.55828 0.50371 0.0
O2693 O 0.55552 0.573 0.51388 0.0
O2694 O 0.50398 0.52197 0.48032 0.0
O2695 O 0.50067 0.50733 0.50523 0.0
O2696 O 0.53559 0.51746 0.47346 0.0
O2697 O 0.55628 0.53385 0.49496 0.0
O2698 O 0.56358 0.51575 0.52546 0.0
O2699 O 0.53333 0.50063 0.51445 0.0
O2700 O 0.58427 0.55075 0.54874 0.0
O2701 O 0.58763 0.56752 0.52529 0.0
O2702 O 0.55217 0.55635 0.55583 0.0
O2703 O 0.5323 0.54024 0.53369 0.0
H2704 H 0.49035 0.54417 0.51456 0.0
H2705 H 0.46438 0.5598 0.51529 0.0
H2706 H 0.43248 0.51218 0.47077 0.0
H2707 H 0.45862 0.4966 0.47007 0.0
H2708 H 0.59886 0.53519 0.50935 0.0
H2709 H 0.6239 0.51846 0.50563 0.0
H2710 H 0.65288 0.55307 0.56001 0.0
H2711 H 0.62787 0.57014 0.56342 0.0
Ho2712 Ho 0.06623 0.53869 0.01663 0.0
Ho2713 Ho 0.02326 0.5353 0.01438 0.0
C2714 C 0.03688 0.49544 0.01155 0.0
C2715 C 0.09942 0.53514 0.02556 0.0
C2716 C 0.11059 0.52014 0.02214 0.0
C2717 C 0.11719 0.51222 0.03772 0.0
C2718 C 0.12906 0.49948 0.03521 0.0
C2719 C 0.1348 0.49435 0.01704 0.0
C2720 C 0.12787 0.50196 1.00134 0.0
C2721 C 0.11594 0.51468 1.00385 0.0
C2722 C 0.04843 0.53538 0.98148 0.0
C2723 C 0.05244 0.57874 0.01906 0.0
C2724 C 0.98961 0.53827 0.00727 0.0
C2725 C 0.97838 0.55327 0.00993 0.0
C2726 C 0.96927 0.55792 0.99362 0.0
C2727 C 0.95725 0.57054 0.99563 0.0
C2728 C 0.95391 0.57885 0.01405 0.0
C2729 C 0.96336 0.57452 0.03043 0.0
C2730 C 0.97544 0.56191 0.0284 0.0
C2731 C 0.0421 0.53876 0.0492 0.0
O2732 O 0.05371 0.5065 0.01797 0.0
O2733 O 0.02311 0.50317 0.00604 0.0
O2734 O 0.09442 0.54285 0.01078 0.0
O2735 O 0.08651 0.53181 0.03678 0.0
O2736 O 0.06565 0.54424 0.98606 0.0
O2737 O 0.04223 0.52694 0.99473 0.0
O2738 O 0.03538 0.56774 0.0139 0.0
O2739 O 0.06658 0.57107 0.02344 0.0
O2740 O 0.99595 0.53242 0.02273 0.0
O2741 O 1.00143 0.54018 0.99473 0.0
O2742 O 0.02548 0.52788 0.04443 0.0
O2743 O 0.04729 0.54758 0.03589 0.0
H2744 H 0.11351 0.51629 0.05203 0.0
H2745 H 0.13426 0.4942 0.04773 0.0
H2746 H 0.13176 0.49819 0.98709 0.0
H2747 H 0.1112 0.52049 0.99148 0.0
H2748 H 0.9711 0.55137 0.97921 0.0
H2749 H 0.95009 0.57323 0.98266 0.0
H2750 H 0.96135 0.58081 0.04485 0.0
H2751 H 0.9822 0.55868 0.04133 0.0
C2752 C 0.03512 0.18159 0.97983 0.0
C2753 C 0.02078 0.17954 0.96484 0.0
C2754 C 0.03791 0.16521 0.98802 0.0
C2755 C 0.02632 0.14608 0.98089 0.0
C2756 C 0.01167 0.14398 0.96598 0.0
C2757 C 0.009 0.16068 0.95828 0.0
C2758 C 0.05342 0.16834 1.00419 0.0
C2759 C 0.99913 0.12392 0.95768 0.0
C2760 C 0.04546 0.10082 0.98644 0.0
C2761 C 0.03593 0.0932 1.00086 0.0
C2762 C 0.04242 0.1179 0.97981 0.0
C2763 C 0.03 0.12813 0.98827 0.0
C2764 C 0.02078 0.12079 1.00334 0.0
C2765 C 0.02357 0.10319 0.00917 0.0
C2766 C 0.05222 0.12474 0.96341 0.0
C2767 C 0.00805 0.13158 0.01338 0.0
H2768 H 0.04417 0.1961 0.98521 0.0
H2769 H 0.99801 0.15883 0.94662 0.0
H2770 H 0.04821 0.16193 0.01663 0.0
H2771 H 0.06392 0.16056 0.99921 0.0
H2772 H 0.06019 0.18429 0.00924 0.0
H2773 H 0.98818 0.12476 0.94638 0.0
H2774 H 0.00729 0.11383 0.95124 0.0
H2775 H 0.99255 0.1172 0.96932 0.0
H2776 H 0.05498 0.09305 0.97996 0.0
H2777 H 0.01632 0.09742 0.02047 0.0
H2778 H 0.06083 0.14004 0.96814 0.0
H2779 H 0.04201 0.12508 0.95116 0.0
H2780 H 0.06114 0.11496 0.95812 0.0
H2781 H 0.01544 0.14716 0.01933 0.0
H2782 H 1.00254 0.12448 0.02535 0.0
H2783 H 0.99634 0.13203 1.00285 0.0
C2784 C 0.18532 0.81068 0.16884 0.0
C2785 C 0.16823 0.80259 0.17451 0.0
C2786 C 0.20191 0.80835 0.17826 0.0
C2787 C 0.20159 0.79807 0.19411 0.0
C2788 C 0.18434 0.78993 0.19991 0.0
C2789 C 0.16796 0.79208 0.18995 0.0
C2790 C 0.21983 0.81706 0.17132 0.0
C2791 C 0.1832 0.77944 0.21706 0.0
C2792 C 0.24343 0.78036 0.21409 0.0
C2793 C 0.25146 0.79579 0.22963 0.0
C2794 C 0.2275 0.78107 0.20202 0.0
C2795 C 0.21925 0.79742 0.20573 0.0
C2796 C 0.22764 0.81315 0.22115 0.0
C2797 C 0.24361 0.81224 0.23262 0.0
C2798 C 0.21928 0.76416 0.18551 0.0
C2799 C 0.2194 0.83076 0.22604 0.0
H2800 H 0.1857 0.81861 0.15679 0.0
H2801 H 0.15487 0.78587 0.19455 0.0
H2802 H 0.22834 0.82913 0.18269 0.0
H2803 H 0.22775 0.80557 0.16856 0.0
H2804 H 0.21773 0.82317 0.1579 0.0
H2805 H 0.16878 0.77327 0.21932 0.0
H2806 H 0.19031 0.76718 0.21511 0.0
H2807 H 0.1903 0.78995 0.23035 0.0
H2808 H 0.24933 0.7676 0.2116 0.0
H2809 H 0.24968 0.82438 0.24447 0.0
H2810 H 0.21754 0.76994 0.17184 0.0
H2811 H 0.20543 0.7564 0.18813 0.0
H2812 H 0.22791 0.75324 0.18362 0.0
H2813 H 0.21831 0.83821 0.21337 0.0
H2814 H 0.22764 0.84183 0.23844 0.0
H2815 H 0.20528 0.82569 0.2297 0.0
C2816 C 0.51364 0.87622 0.48508 0.0
C2817 C 0.52926 0.87024 0.47935 0.0
C2818 C 0.51435 0.89624 0.49204 0.0
C2819 C 0.53099 0.91072 0.49306 0.0
C2820 C 0.54701 0.9047 0.4882 0.0
C2821 C 0.54597 0.88454 0.48154 0.0
C2822 C 0.49705 0.90199 0.49746 0.0
C2823 C 0.56505 0.91964 0.48908 0.0
C2824 C 0.52771 0.9626 0.48657 0.0
C2825 C 0.53363 0.97337 0.5053 0.0
C2826 C 0.52683 0.9422 0.48243 0.0
C2827 C 0.53132 0.93224 0.49756 0.0
C2828 C 0.53661 0.943 0.51669 0.0
C2829 C 0.53809 0.96356 0.52026 0.0
C2830 C 0.52169 0.93146 0.46174 0.0
C2831 C 0.54081 0.93282 0.53332 0.0
H2832 H 0.5006 0.86539 0.48332 0.0
H2833 H 0.55821 0.88005 0.47757 0.0
H2834 H 0.49991 0.91219 0.51162 0.0
H2835 H 0.492 0.90999 0.48652 0.0
H2836 H 0.48594 0.88888 0.49828 0.0
H2837 H 0.57647 0.91247 0.48593 0.0
H2838 H 0.56366 0.92948 0.47842 0.0
H2839 H 0.56878 0.92918 0.50359 0.0
H2840 H 0.52454 0.97033 0.47499 0.0
H2841 H 0.54264 0.972 0.53476 0.0
H2842 H 0.50939 0.91906 0.4606 0.0
H2843 H 0.53307 0.92495 0.45702 0.0
H2844 H 0.51875 0.9414 0.45166 0.0
H2845 H 0.52885 0.92058 0.53412 0.0
H2846 H 0.54408 0.94318 0.54742 0.0
H2847 H 0.55263 0.92611 0.53096 0.0
C2848 C 0.48203 0.30848 0.67586 0.0
C2849 C 0.48695 0.2923 0.66519 0.0
C2850 C 0.46564 0.30604 0.68443 0.0
C2851 C 0.45367 0.28695 0.68228 0.0
C2852 C 0.45831 0.27061 0.67113 0.0
C2853 C 0.47486 0.27346 0.66281 0.0
C2854 C 0.46137 0.32388 0.69625 0.0
C2855 C 0.44589 0.25004 0.66819 0.0
C2856 C 0.42286 0.27838 0.72189 0.0
C2857 C 0.406 0.28087 0.71361 0.0
C2858 C 0.43824 0.27989 0.71173 0.0
C2859 C 0.43692 0.28402 0.69267 0.0
C2860 C 0.41987 0.28616 0.68403 0.0
C2861 C 0.40468 0.28467 0.6946 0.0
C2862 C 0.45606 0.27747 0.72158 0.0
C2863 C 0.41771 0.29026 0.66366 0.0
H2864 H 0.49127 0.32307 0.67798 0.0
H2865 H 0.4783 0.26088 0.65433 0.0
H2866 H 0.44758 0.32547 0.69078 0.0
H2867 H 0.46105 0.3218 0.71151 0.0
H2868 H 0.47166 0.33783 0.69592 0.0
H2869 H 0.45106 0.23903 0.65853 0.0
H2870 H 0.44467 0.24513 0.68233 0.0
H2871 H 0.43188 0.25015 0.66187 0.0
H2872 H 0.42421 0.2757 0.73662 0.0
H2873 H 0.39171 0.28635 0.6879 0.0
H2874 H 0.46684 0.29143 0.72306 0.0
H2875 H 0.46088 0.26566 0.71267 0.0
H2876 H 0.45471 0.27363 0.73618 0.0
H2877 H 0.42677 0.30485 0.66295 0.0
H2878 H 0.40332 0.29036 0.65857 0.0
H2879 H 0.42202 0.2789 0.65359 0.0
C2880 C 0.03133 0.86121 0.60723 0.0
C2881 C 0.0253 0.84207 0.59626 0.0
C2882 C 0.03528 0.87777 0.59816 0.0
C2883 C 0.03329 0.87494 0.57772 0.0
C2884 C 0.02796 0.85555 0.56664 0.0
C2885 C 0.02388 0.83932 0.57608 0.0
C2886 C 0.04083 0.89827 0.61038 0.0
C2887 C 0.02597 0.852 0.5448 0.0
C2888 C 0.02107 0.91377 0.55102 0.0
C2889 C 0.03775 0.92138 0.54446 0.0
C2890 C 0.01964 0.89916 0.56258 0.0
C2891 C 0.03532 0.89214 0.56772 0.0
C2892 C 0.05241 0.90041 0.56185 0.0
C2893 C 0.05341 0.91492 0.55015 0.0
C2894 C 1.00117 0.89064 0.56859 0.0
C2895 C 0.06944 0.89343 0.56735 0.0
H2896 H 0.03233 0.86323 0.62288 0.0
H2897 H 0.01943 0.82443 0.5677 0.0
H2898 H 0.05356 0.90699 0.60611 0.0
H2899 H 0.0299 0.90625 0.60794 0.0
H2900 H 0.04318 0.89782 0.62607 0.0
H2901 H 0.02282 0.83598 0.53843 0.0
H2902 H 0.01476 0.85835 0.53914 0.0
H2903 H 0.03881 0.85958 0.5398 0.0
H2904 H 0.00896 0.91876 0.54654 0.0
H2905 H 0.06639 0.92112 0.54532 0.0
H2906 H 1.00245 0.891 0.58444 0.0
H2907 H 0.99613 0.87489 0.56145 0.0
H2908 H 0.99072 0.89881 0.56466 0.0
H2909 H 0.07153 0.8937 0.58317 0.0
H2910 H 0.08198 0.90268 0.56318 0.0
H2911 H 0.06774 0.87786 0.56009 0.0
C2912 C 0.49246 0.81177 0.82367 0.0
C2913 C 0.50378 0.80139 0.81404 0.0
C2914 C 0.47458 0.8104 0.81539 0.0
C2915 C 0.46809 0.79856 0.7969 0.0
C2916 C 0.47944 0.78784 0.78718 0.0
C2917 C 0.49726 0.78925 0.79603 0.0
C2918 C 0.46274 0.82179 0.82637 0.0
C2919 C 0.4729 0.77526 0.7674 0.0
C2920 C 0.41669 0.78827 0.78876 0.0
C2921 C 0.41442 0.80472 0.78069 0.0
C2922 C 0.43415 0.78477 0.79238 0.0
C2923 C 0.44953 0.79814 0.78784 0.0
C2924 C 0.44704 0.8136 0.77793 0.0
C2925 C 0.4294 0.81671 0.77444 0.0
C2926 C 0.43625 0.76805 0.80285 0.0
C2927 C 0.46316 0.8281 0.77284 0.0
H2928 H 0.49764 0.82093 0.83776 0.0
H2929 H 0.50622 0.78124 0.78876 0.0
H2930 H 0.45903 0.83283 0.81805 0.0
H2931 H 0.44976 0.81155 0.82827 0.0
H2932 H 0.46976 0.82973 0.84088 0.0
H2933 H 0.48316 0.7672 0.76219 0.0
H2934 H 0.45982 0.76431 0.76765 0.0
H2935 H 0.47006 0.78477 0.75687 0.0
H2936 H 0.40494 0.7788 0.79322 0.0
H2937 H 0.42757 0.82941 0.76816 0.0
H2938 H 0.44109 0.77416 0.81838 0.0
H2939 H 0.44663 0.76056 0.79703 0.0
H2940 H 0.42303 0.75686 0.80178 0.0
H2941 H 0.47035 0.83851 0.78615 0.0
H2942 H 0.45875 0.83691 0.76229 0.0
H2943 H 0.47319 0.82027 0.76672 0.0
C2944 C 0.5087 0.14521 0.10124 0.0
C2945 C 0.496 0.15526 0.09439 0.0
C2946 C 0.51143 0.12821 0.08993 0.0
C2947 C 0.50108 0.12111 0.07147 0.0
C2948 C 0.48712 0.13015 0.06521 0.0
C2949 C 0.48477 0.14723 0.07676 0.0
C2950 C 0.52637 0.11884 0.09709 0.0
C2951 C 0.47576 0.12284 0.04561 0.0
C2952 C 0.5262 0.09953 0.03292 0.0
C2953 C 0.51775 0.07941 0.0305 0.0
C2954 C 0.52064 0.11328 0.04609 0.0
C2955 C 0.50686 0.10647 0.05756 0.0
C2956 C 0.4987 0.08596 0.05554 0.0
C2957 C 0.50401 0.07261 0.0416 0.0
C2958 C 0.52934 0.1351 0.04753 0.0
C2959 C 0.48448 0.07819 0.06804 0.0
H2960 H 0.51707 0.15114 0.11511 0.0
H2961 H 0.47495 0.15497 0.07141 0.0
H2962 H 0.52147 0.10245 0.09453 0.0
H2963 H 0.53828 0.12246 0.08897 0.0
H2964 H 0.53121 0.12422 0.11275 0.0
H2965 H 0.46391 0.12975 0.04404 0.0
H2966 H 0.48451 0.12643 0.03418 0.0
H2967 H 0.4705 0.1065 0.04309 0.0
H2968 H 0.53681 0.10452 0.02412 0.0
H2969 H 0.49772 0.05685 0.03964 0.0
H2970 H 0.53628 0.1415 0.06242 0.0
H2971 H 0.51858 0.14315 0.04447 0.0
H2972 H 0.5396 0.13784 0.03726 0.0
H2973 H 0.48977 0.08382 0.08355 0.0
H2974 H 0.48058 0.06172 0.06562 0.0
H2975 H 0.47194 0.08361 0.06493 0.0
C2976 C 0.18549 0.33036 0.32476 0.0
C2977 C 0.16799 0.31752 0.32058 0.0
C2978 C 0.19921 0.32779 0.3132 0.0
C2979 C 0.19513 0.31213 0.29708 0.0
C2980 C 0.17707 0.30013 0.29193 0.0
C2981 C 0.16368 0.3029 0.30388 0.0
C2982 C 0.21844 0.34066 0.31928 0.0
C2983 C 0.17222 0.28351 0.27464 0.0
C2984 C 0.23363 0.31108 0.26627 0.0
C2985 C 0.24174 0.2974 0.27399 0.0
C2986 C 0.2176 0.31521 0.27279 0.0
C2987 C 0.21036 0.30615 0.28795 0.0
C2988 C 0.21851 0.29218 0.29559 0.0
C2989 C 0.23394 0.2877 0.28821 0.0
C2990 C 0.20871 0.32955 0.26387 0.0
C2991 C 0.21158 0.2827 0.31223 0.0
H2992 H 0.18876 0.34164 0.33772 0.0
H2993 H 0.14997 0.29324 0.30051 0.0
H2994 H 0.22752 0.33165 0.32468 0.0
H2995 H 0.22418 0.34644 0.30678 0.0
H2996 H 0.21885 0.35341 0.33089 0.0
H2997 H 0.15711 0.27798 0.27068 0.0
H2998 H 0.17835 0.28845 0.26197 0.0
H2999 H 0.17791 0.27096 0.27799 0.0
H3000 H 0.23983 0.31848 0.25523 0.0
H3001 H 0.24051 0.27735 0.29432 0.0
H3002 H 0.21094 0.3436 0.27433 0.0
H3003 H 0.19364 0.32339 0.2604 0.0
H3004 H 0.21442 0.33298 0.25046 0.0
H3005 H 0.21248 0.29434 0.32506 0.0
H3006 H 0.21956 0.27209 0.31636 0.0
H3007 H 0.19694 0.27467 0.30839 0.0
C3008 C 0.99669 0.05358 0.15797 0.0
C3009 C 0.97811 0.05459 0.15826 0.0
C3010 C 1.00507 0.05186 0.14046 0.0
C3011 C 0.99518 0.05176 0.12213 0.0
C3012 C 0.97653 0.05312 0.12238 0.0
C3013 C 0.96831 0.05415 0.14001 0.0
C3014 C 0.02473 0.05009 0.14167 0.0
C3015 C 0.96521 0.05395 0.10391 0.0
C3016 C 0.02405 0.0677 0.08089 0.0
C3017 C 0.02287 0.04989 0.06786 0.0
C3018 C 0.01484 0.06854 0.0978 0.0
C3019 C 1.0044 0.05101 0.10305 0.0
C3020 C 1.00316 0.03288 0.08997 0.0
C3021 C 0.01207 0.03256 0.0727 0.0
C3022 C 0.01668 0.08846 0.11032 0.0
C3023 C 0.99305 0.01352 0.09471 0.0
H3024 H 1.00473 0.05372 0.17154 0.0
H3025 H 0.95412 0.05514 0.1395 0.0
H3026 H 0.02613 0.03783 0.13039 0.0
H3027 H 0.03368 0.06397 0.139 0.0
H3028 H 0.02979 0.04737 0.15607 0.0
H3029 H 0.95118 0.05556 0.10624 0.0
H3030 H 0.97218 0.06664 0.09751 0.0
H3031 H 0.96401 0.04028 0.0932 0.0
H3032 H 0.03255 0.08127 0.07796 0.0
H3033 H 0.01135 0.0185 0.06352 0.0
H3034 H 0.02553 0.08952 0.12407 0.0
H3035 H 1.00303 0.09023 0.11401 0.0
H3036 H 0.02285 0.10091 0.10315 0.0
H3037 H 0.99969 0.01121 0.10861 0.0
H3038 H 0.9929 1.00069 0.0833 0.0
H3039 H 0.97867 0.01393 0.09665 0.0
C3040 C 0.27303 0.69237 0.42655 0.0
C3041 C 0.2658 0.69805 0.44351 0.0
C3042 C 0.26848 0.69934 0.40971 0.0
C3043 C 0.25656 0.71233 0.41009 0.0
C3044 C 0.24901 0.71788 0.42711 0.0
C3045 C 0.25372 0.71059 0.44371 0.0
C3046 C 0.27681 0.69327 0.39171 0.0
C3047 C 0.23648 0.73199 0.42795 0.0
C3048 C 0.2644 0.74808 0.37568 0.0
C3049 C 0.25031 0.73904 0.36062 0.0
C3050 C 0.26632 0.73966 0.3921 0.0
C3051 C 0.25371 0.72185 0.39333 0.0
C3052 C 0.23908 0.71291 0.37832 0.0
C3053 C 0.23756 0.72169 0.3619 0.0
C3054 C 0.28215 0.74952 0.4078 0.0
C3055 C 0.22546 0.69391 0.37942 0.0
H3056 H 0.28214 0.68238 0.42645 0.0
H3057 H 0.24822 0.71494 0.45696 0.0
H3058 H 0.26586 0.68706 0.37928 0.0
H3059 H 0.28602 0.70647 0.38798 0.0
H3060 H 0.28488 0.68208 0.39355 0.0
H3061 H 0.23089 0.73381 0.44199 0.0
H3062 H 0.24414 0.74676 0.42579 0.0
H3063 H 0.22484 0.72661 0.41612 0.0
H3064 H 0.27418 0.76155 0.37433 0.0
H3065 H 0.22677 0.71487 0.34998 0.0
H3066 H 0.29152 0.7395 0.40921 0.0
H3067 H 0.27699 0.75244 0.42193 0.0
H3068 H 0.29024 0.76376 0.40478 0.0
H3069 H 0.23264 0.68173 0.37951 0.0
H3070 H 0.21427 0.68957 0.36706 0.0
H3071 H 0.21927 0.69551 0.3931 0.0
C3072 C 0.61559 0.03373 0.63143 0.0
C3073 C 0.61027 0.03997 0.64932 0.0
C3074 C 0.60411 0.03266 0.61438 0.0
C3075 C 0.58702 0.03776 0.61562 0.0
C3076 C 0.58169 0.04407 0.63379 0.0
C3077 C 0.5935 0.04516 0.65053 0.0
C3078 C 0.61018 0.02608 0.59514 0.0
C3079 C 0.56355 0.04964 0.63552 0.0
C3080 C 0.56504 0.05423 0.57308 0.0
C3081 C 0.55111 0.03734 0.56528 0.0
C3082 C 0.57694 0.05451 0.58948 0.0
C3083 C 0.57495 0.0373 0.59791 0.0
C3084 C 0.561 0.02007 0.58993 0.0
C3085 C 0.54898 0.02038 0.57369 0.0
C3086 C 0.59152 0.07322 0.59783 0.0
C3087 C 0.55887 1.00139 0.59848 0.0
H3088 H 0.62862 0.0296 0.63085 0.0
H3089 H 0.58956 0.04976 0.66462 0.0
H3090 H 0.59994 0.01282 0.58697 0.0
H3091 H 0.61097 0.03794 0.58629 0.0
H3092 H 0.62382 0.02245 0.59677 0.0
H3093 H 0.56149 0.05407 0.65082 0.0
H3094 H 0.56282 0.06211 0.62779 0.0
H3095 H 0.55205 0.03693 0.62862 0.0
H3096 H 0.56658 0.06729 0.56636 0.0
H3097 H 0.53834 1.00726 0.56725 0.0
H3098 H 0.60534 0.07005 0.59851 0.0
H3099 H 0.5894 0.07876 0.61285 0.0
H3100 H 0.59135 0.08517 0.58921 0.0
H3101 H 0.57204 0.99675 0.59938 0.0
H3102 H 0.54798 0.98896 0.58985 0.0
H3103 H 0.55538 1.00426 0.61343 0.0
C3104 C 0.29042 0.33661 0.91526 0.0
C3105 C 0.29643 0.32608 0.92893 0.0
C3106 C 0.29121 0.33091 0.89543 0.0
C3107 C 0.2981 0.31417 0.88899 0.0
C3108 C 0.30377 0.30318 0.90265 0.0
C3109 C 0.30295 0.30931 0.92244 0.0
C3110 C 0.28498 0.34303 0.88137 0.0
C3111 C 0.31081 0.285 0.89637 0.0
C3112 C 0.28437 0.29135 0.83579 0.0
C3113 C 0.3001 0.29921 0.82756 0.0
C3114 C 0.28378 0.29552 0.85578 0.0
C3115 C 0.29919 0.30819 0.86794 0.0
C3116 C 0.31529 0.31584 0.85981 0.0
C3117 C 0.31562 0.31109 0.8397 0.0
C3118 C 0.26647 0.28669 0.86381 0.0
C3119 C 0.33193 0.32958 0.87226 0.0
H3120 H 0.28562 0.34975 0.92013 0.0
H3121 H 0.30744 0.30096 0.93287 0.0
H3122 H 0.29653 0.34903 0.87355 0.0
H3123 H 0.27379 0.33351 0.87038 0.0
H3124 H 0.27993 0.35559 0.88867 0.0
H3125 H 0.31409 0.27768 0.90868 0.0
H3126 H 0.30042 0.27414 0.88548 0.0
H3127 H 0.32339 0.28915 0.88936 0.0
H3128 H 0.27238 0.28191 0.82652 0.0
H3129 H 0.32777 0.31725 0.83343 0.0
H3130 H 0.26008 0.29867 0.86988 0.0
H3131 H 0.26979 0.27898 0.87577 0.0
H3132 H 0.25621 0.276 0.85261 0.0
H3133 H 0.32828 0.34332 0.87892 0.0
H3134 H 0.34358 0.3337 0.86389 0.0
H3135 H 0.33651 0.3225 0.88422 0.0
C3136 C 0.97322 0.04676 0.3732 0.0
C3137 C 0.98318 0.0577 0.36072 0.0
C3138 C 0.98132 0.04486 0.3917 0.0
C3139 C 1.00027 0.05362 0.39833 0.0
C3140 C 0.01047 0.06457 0.38576 0.0
C3141 C 1.00188 0.06668 0.36751 0.0
C3142 C 0.96942 0.03352 0.40433 0.0
C3143 C 0.03072 0.07382 0.39144 0.0
C3144 C 0.01839 0.06288 0.45355 0.0
C3145 C 0.02502 0.04598 0.45591 0.0
C3146 C 0.01045 0.06552 0.43524 0.0
C3147 C 0.00925 0.05122 0.4182 0.0
C3148 C 0.01633 0.03436 0.42043 0.0
C3149 C 0.02379 0.03185 0.43901 0.0
C3150 C 1.00299 0.08361 0.43424 0.0
C3151 C 0.01611 0.01884 0.40304 0.0
H3152 H 0.95878 0.03985 0.36861 0.0
H3153 H 0.01002 0.07503 0.35827 0.0
H3154 H 0.97464 0.02049 0.40706 0.0
H3155 H 0.97006 0.04305 0.41857 0.0
H3156 H 0.95483 0.02827 0.3977 0.0
H3157 H 0.03684 0.08205 0.38043 0.0
H3158 H 0.03303 0.08416 0.40546 0.0
H3159 H 0.03809 0.06209 0.39345 0.0
H3160 H 0.01904 0.07402 0.46621 0.0
H3161 H 0.02884 0.01875 0.44022 0.0
H3162 H 0.98819 0.07901 0.42838 0.0
H3163 H 0.01018 0.09245 0.42424 0.0
H3164 H 1.00459 0.09326 0.44862 0.0
H3165 H 1.00173 0.01173 0.39657 0.0
H3166 H 0.02291 1.00715 0.40674 0.0
H3167 H 0.02317 0.02591 0.39184 0.0
C3168 C 0.30043 0.72671 0.6321 0.0
C3169 C 0.28404 0.71932 0.61941 0.0
C3170 C 0.30116 0.73999 0.64917 0.0
C3171 C 0.285 0.74568 0.6539 0.0
C3172 C 0.26846 0.73864 0.64106 0.0
C3173 C 0.2682 0.72559 0.62383 0.0
C3174 C 0.31908 0.74718 0.66256 0.0
C3175 C 0.25096 0.7443 0.64587 0.0
C3176 C 0.28682 0.7577 0.70778 0.0
C3177 C 0.29351 0.77833 0.71129 0.0
C3178 C 0.28257 0.74699 0.68895 0.0
C3179 C 0.28524 0.75722 0.67329 0.0
C3180 C 0.29087 0.77819 0.67667 0.0
C3181 C 0.29502 0.78857 0.69577 0.0
C3182 C 0.2766 0.72463 0.68596 0.0
C3183 C 0.29371 0.78949 0.66021 0.0
H3184 H 0.31263 0.72165 0.62902 0.0
H3185 H 0.25557 0.72017 0.61393 0.0
H3186 H 0.32251 0.76357 0.66667 0.0
H3187 H 0.3177 0.74096 0.67605 0.0
H3188 H 0.33071 0.74274 0.65591 0.0
H3189 H 0.23967 0.73889 0.63364 0.0
H3190 H 0.24641 0.73795 0.65858 0.0
H3191 H 0.2534 0.76065 0.64983 0.0
H3192 H 0.28564 0.74973 0.71979 0.0
H3193 H 0.30008 0.80456 0.69855 0.0
H3194 H 0.28798 0.7182 0.68111 0.0
H3195 H 0.26464 0.71894 0.67454 0.0
H3196 H 0.27287 0.71925 0.69943 0.0
H3197 H 0.30629 0.78724 0.65403 0.0
H3198 H 0.29529 0.80565 0.66501 0.0
H3199 H 0.28201 0.7839 0.64847 0.0
C3200 C 0.59605 0.0531 0.8373 0.0
C3201 C 0.61252 0.05367 0.82964 0.0
C3202 C 0.59617 0.06206 0.85641 0.0
C3203 C 0.61324 0.07205 0.86773 0.0
C3204 C 0.62972 0.07426 0.85932 0.0
C3205 C 0.6292 0.06472 0.84033 0.0
C3206 C 0.57819 0.05947 0.86484 0.0
C3207 C 0.64796 0.08561 0.87066 0.0
C3208 C 0.5995 0.09174 0.91439 0.0
C3209 C 0.59699 0.07432 0.92227 0.0
C3210 C 0.60803 0.09294 0.89763 0.0
C3211 C 0.61382 0.07628 0.88888 0.0
C3212 C 0.61467 0.06057 0.89901 0.0
C3213 C 0.60635 0.0599 0.91581 0.0
C3214 C 0.6082 0.11058 0.88782 0.0
C3215 C 0.62092 0.04252 0.89034 0.0
H3216 H 0.58323 0.04481 0.82866 0.0
H3217 H 0.64187 0.06552 0.83393 0.0
H3218 H 0.57839 0.05039 0.87639 0.0
H3219 H 0.5762 0.07408 0.87147 0.0
H3220 H 0.56619 0.05208 0.85378 0.0
H3221 H 0.65843 0.08989 0.86095 0.0
H3222 H 0.64648 0.09917 0.88009 0.0
H3223 H 0.65315 0.07628 0.88012 0.0
H3224 H 0.59305 0.1034 0.91995 0.0
H3225 H 0.60489 0.04653 0.92199 0.0
H3226 H 0.59511 0.10794 0.87811 0.0
H3227 H 0.61968 0.11305 0.87896 0.0
H3228 H 0.60936 0.12421 0.89863 0.0
H3229 H 0.61 0.03311 0.87897 0.0
H3230 H 0.62365 0.03344 0.90136 0.0
H3231 H 0.63355 0.04675 0.88349 0.0
C3232 C 0.31525 0.33372 0.13557 0.0
C3233 C 0.29994 0.33772 0.12534 0.0
C3234 C 0.31387 0.32578 0.15276 0.0
C3235 C 0.29676 0.3216 0.16014 0.0
C3236 C 0.28127 0.32565 0.14995 0.0
C3237 C 0.28304 0.33363 0.13281 0.0
C3238 C 0.33074 0.32155 0.1629 0.0
C3239 C 0.26273 0.32144 0.15712 0.0
C3240 C 0.28855 0.28252 0.19282 0.0
C3241 C 0.29151 0.29404 0.21145 0.0
C3242 C 0.29025 0.29126 0.17616 0.0
C3243 C 0.29491 0.31219 0.17796 0.0
C3244 C 0.29784 0.32395 0.19676 0.0
C3245 C 0.29617 0.31476 0.21326 0.0
C3246 C 0.28703 0.27801 0.15658 0.0
C3247 C 0.30265 0.34628 0.19945 0.0
H3248 H 0.32833 0.33645 0.12994 0.0
H3249 H 0.27113 0.33686 0.12535 0.0
H3250 H 0.33343 0.32937 0.17815 0.0
H3251 H 0.32839 0.30544 0.16315 0.0
H3252 H 0.34316 0.32619 0.15576 0.0
H3253 H 0.25207 0.32562 0.14776 0.0
H3254 H 0.25817 0.30542 0.15768 0.0
H3255 H 0.26375 0.32969 0.17205 0.0
H3256 H 0.28492 0.26649 0.19122 0.0
H3257 H 0.29829 0.32379 0.22752 0.0
H3258 H 0.29946 0.28121 0.14914 0.0
H3259 H 0.27558 0.28102 0.14739 0.0
H3260 H 0.28365 0.26202 0.1576 0.0
H3261 H 0.31559 0.35151 0.19337 0.0
H3262 H 0.30437 0.35336 0.21491 0.0
H3263 H 0.29171 0.35133 0.19142 0.0
C3264 C 0.22758 0.99115 0.01802 0.0
C3265 C 0.22413 0.9707 0.01736 0.0
C3266 C 0.2137 1.00114 0.02118 0.0
C3267 C 0.196 0.9902 0.0233 0.0
C3268 C 0.19254 0.96947 0.02274 0.0
C3269 C 0.20681 0.95994 0.01995 0.0
C3270 C 0.21792 0.02332 0.02209 0.0
C3271 C 0.17374 0.95736 0.02468 0.0
C3272 C 0.16403 0.01931 0.04529 0.0
C3273 C 0.15402 0.02225 0.02867 0.0
C3274 C 0.17755 0.00852 0.04379 0.0
C3275 C 0.18096 1.00042 0.02525 0.0
C3276 C 0.17061 1.0029 0.00845 0.0
C3277 C 0.15733 0.01392 0.01036 0.0
C3278 C 0.18844 1.00615 0.06199 0.0
C3279 C 0.17383 0.99426 0.98845 0.0
H3280 H 0.24118 0.9993 0.0162 0.0
H3281 H 0.2044 0.94407 0.01945 0.0
H3282 H 0.20939 0.02693 0.0101 0.0
H3283 H 0.21439 0.03065 0.03584 0.0
H3284 H 0.23262 0.02968 0.02105 0.0
H3285 H 0.17355 0.94148 0.02452 0.0
H3286 H 0.16909 0.96334 0.03835 0.0
H3287 H 0.16364 0.95836 0.01262 0.0
H3288 H 0.16124 0.02539 0.05947 0.0
H3289 H 0.14973 0.0163 0.99748 0.0
H3290 H 0.2031 0.01378 0.06243 0.0
H3291 H 0.18785 0.99026 0.06207 0.0
H3292 H 0.18333 0.01238 0.0753 0.0
H3293 H 0.18783 1.00142 0.98572 0.0
H3294 H 0.1637 0.99633 0.97695 0.0
H3295 H 0.17304 0.97816 0.98734 0.0
C3296 C 0.67482 0.6311 0.01386 0.0
C3297 C 0.68559 0.62409 1.00032 0.0
C3298 C 0.65712 0.61999 0.01561 0.0
C3299 C 0.64966 0.60139 1.00338 0.0
C3300 C 0.6603 0.59433 0.98951 0.0
C3301 C 0.67805 0.60565 0.98821 0.0
C3302 C 0.64647 0.62807 0.03077 0.0
C3303 C 0.65301 0.57465 0.97611 0.0
C3304 C 0.61234 0.56156 0.0179 0.0
C3305 C 0.59632 0.56341 0.00729 0.0
C3306 C 0.62956 0.57436 0.01744 0.0
C3307 C 0.63103 0.58899 0.00547 0.0
C3308 C 0.61476 0.59111 0.99496 0.0
C3309 C 0.59758 0.57844 0.99616 0.0
C3310 C 0.64629 0.57181 0.02936 0.0
C3311 C 0.6156 0.60614 0.98172 0.0
H3312 H 0.68016 0.64542 0.02312 0.0
H3313 H 0.68616 0.59978 0.97788 0.0
H3314 H 0.63309 0.62946 0.02387 0.0
H3315 H 0.64345 0.61761 0.04101 0.0
H3316 H 0.65407 0.6428 0.03909 0.0
H3317 H 0.6625 0.57167 0.96546 0.0
H3318 H 0.65082 0.56251 0.98464 0.0
H3319 H 0.63949 0.57427 0.96814 0.0
H3320 H 0.61142 0.5498 0.02634 0.0
H3321 H 0.58527 0.57963 0.98762 0.0
H3322 H 0.65396 0.58624 0.03818 0.0
H3323 H 0.65569 0.56656 0.01966 0.0
H3324 H 0.64265 0.561 0.03917 0.0
H3325 H 0.62267 0.62115 0.98975 0.0
H3326 H 0.60173 0.60657 0.97517 0.0
H3327 H 0.62376 0.6025 0.96992 0.0
C3328 C 0.72708 0.41412 0.25194 0.0
C3329 C 0.71597 0.41878 0.26643 0.0
C3330 C 0.73592 0.39783 0.25115 0.0
C3331 C 0.73422 0.3851 0.26522 0.0
C3332 C 0.72301 0.38957 0.27982 0.0
C3333 C 0.71421 0.40585 0.2802 0.0
C3334 C 0.74728 0.39428 0.23501 0.0
C3335 C 0.72035 0.37707 0.29537 0.0
C3336 C 0.74587 0.33218 0.2557 0.0
C3337 C 0.76418 0.33549 0.26474 0.0
C3338 C 0.73621 0.34779 0.25555 0.0
C3339 C 0.74448 0.36778 0.26502 0.0
C3340 C 0.76283 0.37106 0.27439 0.0
C3341 C 0.77228 0.35534 0.27395 0.0
C3342 C 0.71701 0.34281 0.24493 0.0
C3343 C 0.77265 0.39144 0.28517 0.0
H3344 H 0.72925 0.42342 0.24108 0.0
H3345 H 0.70571 0.40824 0.29148 0.0
H3346 H 0.76179 0.3961 0.24111 0.0
H3347 H 0.74227 0.37882 0.22704 0.0
H3348 H 0.74684 0.4046 0.22461 0.0
H3349 H 0.71147 0.38212 0.30585 0.0
H3350 H 0.71405 0.36138 0.28874 0.0
H3351 H 0.73389 0.37753 0.30337 0.0
H3352 H 0.73904 0.31729 0.24838 0.0
H3353 H 0.78623 0.35868 0.28119 0.0
H3354 H 0.71641 0.35214 0.23365 0.0
H3355 H 0.70725 0.34619 0.25509 0.0
H3356 H 0.71238 0.32695 0.23796 0.0
H3357 H 0.77419 0.40213 0.27502 0.0
H3358 H 0.78649 0.3918 0.29241 0.0
H3359 H 0.76437 0.39658 0.29626 0.0
C3360 C 0.90737 0.48635 0.54147 0.0
C3361 C 0.8966 0.49379 0.5285 0.0
C3362 C 0.92643 0.49057 0.54199 0.0
C3363 C 0.93469 0.50234 0.52917 0.0
C3364 C 0.92413 0.51149 0.51747 0.0
C3365 C 0.90506 0.50702 0.51721 0.0
C3366 C 0.93761 0.48161 0.55546 0.0
C3367 C 0.93287 0.52531 0.50468 0.0
C3368 C 0.98607 0.52043 0.53826 0.0
C3369 C 0.99134 0.5094 0.52233 0.0
C3370 C 0.96763 0.51873 0.54042 0.0
C3371 C 0.95426 0.5043 0.52735 0.0
C3372 C 0.95955 0.49163 0.51241 0.0
C3373 C 0.97811 0.49477 0.50966 0.0
C3374 C 0.96295 0.5332 0.55624 0.0
C3375 C 0.94559 0.47508 0.49913 0.0
H3376 H 0.90086 0.47611 0.55023 0.0
H3377 H 0.89669 0.51309 0.50753 0.0
H3378 H 0.94485 0.4718 0.54694 0.0
H3379 H 0.94825 0.49351 0.56509 0.0
H3380 H 0.92901 0.47286 0.56462 0.0
H3381 H 0.92297 0.53277 0.49806 0.0
H3382 H 0.94464 0.53678 0.51318 0.0
H3383 H 0.93832 0.51685 0.4929 0.0
H3384 H 0.99622 0.53139 0.54855 0.0
H3385 H 0.98222 0.48601 0.49756 0.0
H3386 H 0.96987 0.53197 0.57044 0.0
H3387 H 0.94802 0.53115 0.55709 0.0
H3388 H 0.96844 0.54853 0.55382 0.0
H3389 H 0.93698 0.46569 0.50779 0.0
H3390 H 0.95216 0.46554 0.48939 0.0
H3391 H 0.93629 0.48136 0.49013 0.0
C3392 C 0.37904 0.11674 0.24886 0.0
C3393 C 0.37342 0.10403 0.26186 0.0
C3394 C 0.36887 0.13014 0.24418 0.0
C3395 C 0.35308 0.1313 0.25326 0.0
C3396 C 0.34725 0.11851 0.26634 0.0
C3397 C 0.35738 0.10483 0.2703 0.0
C3398 C 0.3753 0.14339 0.22996 0.0
C3399 C 0.33055 0.1196 0.27648 0.0
C3400 C 0.33708 0.17845 0.2621 0.0
C3401 C 0.32092 0.1735 0.24907 0.0
C3402 C 0.34839 0.16524 0.26278 0.0
C3403 C 0.34324 0.14671 0.25016 0.0
C3404 C 0.32763 0.14227 0.23601 0.0
C3405 C 0.31658 0.15585 0.2356 0.0
C3406 C 0.36509 0.17054 0.27791 0.0
C3407 C 0.32192 0.12268 0.22222 0.0
H3408 H 0.39161 0.1165 0.24253 0.0
H3409 H 0.35272 0.09478 0.28003 0.0
H3410 H 0.36366 0.14337 0.2191 0.0
H3411 H 0.38071 0.15887 0.23773 0.0
H3412 H 0.3863 0.13875 0.22225 0.0
H3413 H 0.32763 0.10826 0.28589 0.0
H3414 H 0.33268 0.13449 0.28554 0.0
H3415 H 0.31828 0.11753 0.26571 0.0
H3416 H 0.34041 0.19233 0.27231 0.0
H3417 H 0.30403 0.15219 0.22556 0.0
H3418 H 0.37731 0.16769 0.27137 0.0
H3419 H 0.36265 0.16108 0.28911 0.0
H3420 H 0.36824 0.18633 0.28511 0.0
H3421 H 0.33392 0.11901 0.21576 0.0
H3422 H 0.31114 0.12275 0.21039 0.0
H3423 H 0.31643 0.11073 0.23025 0.0
C3424 C 0.36784 0.12865 0.52659 0.0
C3425 C 0.36499 0.13833 0.51093 0.0
C3426 C 0.3827 0.11958 0.52857 0.0
C3427 C 0.39503 0.11999 0.5145 0.0
C3428 C 0.39251 0.13014 0.49896 0.0
C3429 C 0.37764 0.13919 0.4974 0.0
C3430 C 0.38494 0.10916 0.54551 0.0
C3431 C 0.40535 0.1311 0.48368 0.0
C3432 C 0.44182 0.10762 0.52375 0.0
C3433 C 0.4381 0.08792 0.5141 0.0
C3434 C 0.42786 0.11813 0.52453 0.0
C3435 C 0.40982 0.10875 0.51522 0.0
C3436 C 0.40604 0.08871 0.50575 0.0
C3437 C 0.42019 0.07855 0.50537 0.0
C3438 C 0.43248 0.13932 0.53504 0.0
C3439 C 0.3871 0.07809 0.49562 0.0
H3440 H 0.35819 0.12771 0.53711 0.0
H3441 H 0.37594 0.14699 0.4855 0.0
H3442 H 0.383 0.09305 0.54023 0.0
H3443 H 0.39906 0.11475 0.55334 0.0
H3444 H 0.37495 0.11124 0.55586 0.0
H3445 H 0.40196 0.14015 0.47289 0.0
H3446 H 0.41974 0.13749 0.49051 0.0
H3447 H 0.40464 0.1159 0.47597 0.0
H3448 H 0.45569 0.11483 0.53056 0.0
H3449 H 0.41735 0.0633 0.49794 0.0
H3450 H 0.42282 0.14124 0.54578 0.0
H3451 H 0.43088 0.14933 0.52461 0.0
H3452 H 0.44676 0.14403 0.54264 0.0
H3453 H 0.37678 0.07858 0.50585 0.0
H3454 H 0.38625 0.06235 0.48945 0.0
H3455 H 0.38332 0.0857 0.48373 0.0
C3456 C 0.72379 0.63453 0.25328 0.0
C3457 C 0.7229 0.62734 0.27098 0.0
C3458 C 0.73296 0.6544 0.25217 0.0
C3459 C 0.74205 0.66814 0.26907 0.0
C3460 C 0.74113 0.66115 0.28698 0.0
C3461 C 0.73167 0.64127 0.28773 0.0
C3462 C 0.73318 0.66059 0.23262 0.0
C3463 C 0.75045 0.67471 0.30556 0.0
C3464 C 0.78338 0.71106 0.26441 0.0
C3465 C 0.77636 0.72824 0.26605 0.0
C3466 C 0.77252 0.69192 0.26525 0.0
C3467 C 0.75366 0.68905 0.26787 0.0
C3468 C 0.74631 0.70627 0.26942 0.0
C3469 C 0.75761 0.72544 0.26853 0.0
C3470 C 0.78145 0.67462 0.26347 0.0
C3471 C 0.72641 0.70448 0.27213 0.0
H3472 H 0.7176 0.62451 0.23994 0.0
H3473 H 0.73113 0.63678 0.3017 0.0
H3474 H 0.72852 0.67454 0.23299 0.0
H3475 H 0.74743 0.66357 0.22889 0.0
H3476 H 0.72426 0.64906 0.22101 0.0
H3477 H 0.74817 0.66758 0.31844 0.0
H3478 H 0.76546 0.67926 0.30498 0.0
H3479 H 0.74528 0.6884 0.30738 0.0
H3480 H 0.79773 0.71256 0.26251 0.0
H3481 H 0.75174 0.7382 0.27006 0.0
H3482 H 0.77417 0.66306 0.25101 0.0
H3483 H 0.78039 0.6678 0.27664 0.0
H3484 H 0.79619 0.67903 0.26146 0.0
H3485 H 0.7175 0.69383 0.25988 0.0
H3486 H 0.72256 0.71893 0.27309 0.0
H3487 H 0.72358 0.6985 0.28552 0.0
C3488 C 0.8405 0.43649 0.73981 0.0
C3489 C 0.85573 0.44188 0.75404 0.0
C3490 C 0.82892 0.41746 0.73701 0.0
C3491 C 0.83288 0.40409 0.74893 0.0
C3492 C 0.84839 0.4097 0.76332 0.0
C3493 C 0.85968 0.42863 0.76565 0.0
C3494 C 0.8124 0.41183 0.72169 0.0
C3495 C 0.85315 0.39572 0.77622 0.0
C3496 C 0.80307 0.35997 0.76243 0.0
C3497 C 0.81008 0.34509 0.75246 0.0
C3498 C 0.80845 0.37943 0.75928 0.0
C3499 C 0.8215 0.38386 0.74639 0.0
C3500 C 0.82723 0.36855 0.73501 0.0
C3501 C 0.8213 0.3492 0.73813 0.0
C3502 C 0.80171 0.39548 0.77119 0.0
C3503 C 0.84118 0.37284 0.72116 0.0
H3504 H 0.83771 0.44712 0.731 0.0
H3505 H 0.8716 0.43322 0.77664 0.0
H3506 H 0.81145 0.39709 0.71283 0.0
H3507 H 0.79972 0.41076 0.72876 0.0
H3508 H 0.81279 0.4229 0.71196 0.0
H3509 H 0.86597 0.40247 0.78636 0.0
H3510 H 0.8418 0.39134 0.78486 0.0
H3511 H 0.85495 0.38201 0.7673 0.0
H3512 H 0.79387 0.35653 0.77308 0.0
H3513 H 0.82651 0.33754 0.73029 0.0
H3514 H 0.79932 0.40679 0.76251 0.0
H3515 H 0.81232 0.40306 0.78362 0.0
H3516 H 0.7888 0.38932 0.77695 0.0
H3517 H 0.83639 0.38135 0.71057 0.0
H3518 H 0.84378 0.35905 0.71318 0.0
H3519 H 0.85442 0.38203 0.72922 0.0
C3520 C 0.05356 0.9071 0.07336 0.0
C3521 C 0.06533 0.89552 0.06617 0.0
C3522 C 0.05096 0.92361 0.06533 0.0
C3523 C 0.06041 0.92893 0.0497 0.0
C3524 C 0.07206 0.91716 0.04213 0.0
C3525 C 0.07438 0.90068 0.05042 0.0
C3526 C 0.03834 0.93561 0.07387 0.0
C3527 C 0.08224 0.92209 0.02535 0.0
C3528 C 0.04223 0.96416 0.02084 0.0
C3529 C 0.05416 0.98259 0.02895 0.0
C3530 C 0.0444 0.94653 0.027 0.0
C3531 C 0.05865 0.94729 0.04191 0.0
C3532 C 0.07087 0.96582 0.04995 0.0
C3533 C 0.06859 0.98314 0.04328 0.0
C3534 C 0.03125 0.92712 0.01773 0.0
C3535 C 0.08611 0.96744 0.06601 0.0
H3536 H 0.04663 0.90356 0.08563 0.0
H3537 H 0.08323 0.89173 0.04443 0.0
H3538 H 0.0463 0.95096 0.07995 0.0
H3539 H 0.02763 0.93661 0.06243 0.0
H3540 H 0.03146 0.92914 0.0855 0.0
H3541 H 0.08999 0.91091 0.02043 0.0
H3542 H 0.07244 0.92306 0.01299 0.0
H3543 H 0.09206 0.9368 0.0296 0.0
H3544 H 0.0311 0.96348 0.00969 0.0
H3545 H 0.07785 0.99726 0.04975 0.0
H3546 H 0.02314 0.92087 0.02867 0.0
H3547 H 0.03901 0.91619 0.0122 0.0
H3548 H 0.02159 0.92882 0.00558 0.0
H3549 H 0.08017 0.96253 0.07879 0.0
H3550 H 0.0947 0.98281 0.07047 0.0
H3551 H 0.0951 0.95752 0.06134 0.0
C3552 C 0.90806 0.27889 0.86021 0.0
C3553 C 0.9223 0.27316 0.85095 0.0
C3554 C 0.89177 0.28051 0.84954 0.0
C3555 C 0.88978 0.27698 0.829 0.0
C3556 C 0.90435 0.27159 0.81962 0.0
C3557 C 0.92022 0.26946 0.83065 0.0
C3558 C 0.87651 0.28561 0.86027 0.0
C3559 C 0.90319 0.26811 0.79785 0.0
C3560 C 0.84246 0.26126 0.7983 0.0
C3561 C 0.84021 0.27899 0.79268 0.0
C3562 C 0.85806 0.2606 0.81065 0.0
C3563 C 0.87225 0.27802 0.81727 0.0
C3564 C 0.86986 0.29613 0.81197 0.0
C3565 C 0.8538 0.29645 0.79996 0.0
C3566 C 0.85951 0.24105 0.81622 0.0
C3567 C 0.88466 0.31502 0.81832 0.0
H3568 H 0.90952 0.2817 0.87589 0.0
H3569 H 0.9312 0.26521 0.82338 0.0
H3570 H 0.87337 0.29937 0.8565 0.0
H3571 H 0.8638 0.2736 0.85583 0.0
H3572 H 0.88005 0.28776 0.87621 0.0
H3573 H 0.91602 0.26513 0.79276 0.0
H3574 H 0.8916 0.25531 0.79147 0.0
H3575 H 0.90043 0.28126 0.79229 0.0
H3576 H 0.83201 0.24769 0.79278 0.0
H3577 H 0.85231 0.31017 0.79552 0.0
H3578 H 0.8627 0.24279 0.83215 0.0
H3579 H 0.87094 0.23606 0.80969 0.0
H3580 H 0.84666 0.22929 0.81135 0.0
H3581 H 0.88795 0.31816 0.8343 0.0
H3582 H 0.88058 0.32797 0.81356 0.0
H3583 H 0.89743 0.31327 0.81225 0.0
C3584 C 0.58243 0.19641 0.55023 0.0
C3585 C 0.56714 0.2043 0.55334 0.0
C3586 C 0.5803 0.17612 0.54317 0.0
C3587 C 0.56246 0.16333 0.53923 0.0
C3588 C 0.54694 0.17132 0.54168 0.0
C3589 C 0.54946 0.19169 0.54865 0.0
C3590 C 0.59719 0.16825 0.54051 0.0
C3591 C 0.52769 0.1582 0.53781 0.0
C3592 C 0.55477 0.11135 0.50967 0.0
C3593 C 0.55581 0.1001 0.52429 0.0
C3594 C 0.55728 0.13205 0.51426 0.0
C3595 C 0.56014 0.14146 0.53393 0.0
C3596 C 0.56082 0.12995 0.5487 0.0
C3597 C 0.55897 0.10943 0.54368 0.0
C3598 C 0.55695 0.14384 0.49811 0.0
C3599 C 0.56327 0.13925 0.56982 0.0
H3600 H 0.59612 0.20609 0.55355 0.0
H3601 H 0.53759 0.1976 0.55122 0.0
H3602 H 0.59869 0.15827 0.551 0.0
H3603 H 0.59577 0.15937 0.52579 0.0
H3604 H 0.60994 0.18031 0.54268 0.0
H3605 H 0.51704 0.16689 0.53889 0.0
H3606 H 0.52529 0.14891 0.5232 0.0
H3607 H 0.52596 0.148 0.54843 0.0
H3608 H 0.55229 0.10398 0.49467 0.0
H3609 H 0.55951 0.10057 0.55493 0.0
H3610 H 0.56992 0.1555 0.49983 0.0
H3611 H 0.54553 0.15145 0.49877 0.0
H3612 H 0.55523 0.13438 0.48362 0.0
H3613 H 0.57652 0.15053 0.57357 0.0
H3614 H 0.56302 0.12814 0.5795 0.0
H3615 H 0.55217 0.14698 0.57271 0.0
C3616 C 0.61649 0.80076 0.37008 0.0
C3617 C 0.60254 0.7832 0.36442 0.0
C3618 C 0.63292 0.80366 0.36157 0.0
C3619 C 0.63569 0.78856 0.34717 0.0
C3620 C 0.62185 0.77072 0.34162 0.0
C3621 C 0.60548 0.76834 0.35014 0.0
C3622 C 0.64724 0.82297 0.36783 0.0
C3623 C 0.62424 0.75414 0.32646 0.0
C3624 C 0.66824 0.79955 0.30965 0.0
C3625 C 0.68349 0.79288 0.31647 0.0
C3626 C 0.65298 0.79902 0.31991 0.0
C3627 C 0.65276 0.79145 0.33741 0.0
C3628 C 0.66834 0.78533 0.34475 0.0
C3629 C 0.68349 0.78616 0.33425 0.0
C3630 C 0.6368 0.80592 0.31163 0.0
C3631 C 0.66878 0.7773 0.3634 0.0
H3632 H 0.61467 0.81227 0.3813 0.0
H3633 H 0.59481 0.75485 0.3453 0.0
H3634 H 0.66062 0.8201 0.37292 0.0
H3635 H 0.64933 0.8307 0.35533 0.0
H3636 H 0.64328 0.83302 0.37959 0.0
H3637 H 0.61256 0.74087 0.32431 0.0
H3638 H 0.6255 0.75934 0.31245 0.0
H3639 H 0.6371 0.74971 0.33066 0.0
H3640 H 0.66789 0.80458 0.29588 0.0
H3641 H 0.69529 0.78134 0.33992 0.0
H3642 H 0.63295 0.81672 0.32274 0.0
H3643 H 0.62474 0.79311 0.30727 0.0
H3644 H 0.63971 0.81297 0.29882 0.0
H3645 H 0.66565 0.78791 0.37522 0.0
H3646 H 0.68232 0.77433 0.3678 0.0
H3647 H 0.65804 0.76327 0.3617 0.0
C3648 C 0.0798 0.22349 0.44174 0.0
C3649 C 0.06669 0.23345 0.43574 0.0
C3650 C 0.07501 0.20751 0.45147 0.0
C3651 C 0.05664 0.2013 0.45522 0.0
C3652 C 0.04321 0.21091 0.44874 0.0
C3653 C 0.04841 0.22694 0.43914 0.0
C3654 C 0.08969 0.1975 0.45803 0.0
C3655 C 0.02347 0.20459 0.45238 0.0
C3656 C 0.04363 0.15052 0.46924 0.0
C3657 C 0.04668 0.15537 0.48953 0.0
C3658 C 0.04628 0.16533 0.45781 0.0
C3659 C 0.05184 0.18546 0.46689 0.0
C3660 C 0.05402 0.1905 0.48732 0.0
C3661 C 0.05153 0.17539 0.49839 0.0
C3662 C 0.04378 0.1594 0.43605 0.0
C3663 C 0.05975 0.21185 0.4975 0.0
H3664 H 0.09385 0.22817 0.43879 0.0
H3665 H 0.03823 0.23467 0.43468 0.0
H3666 H 0.09145 0.19926 0.47404 0.0
H3667 H 0.08548 0.18137 0.45217 0.0
H3668 H 0.10318 0.20369 0.45338 0.0
H3669 H 0.01446 0.21264 0.44517 0.0
H3670 H 0.01803 0.18844 0.44716 0.0
H3671 H 0.02269 0.20741 0.46816 0.0
H3672 H 0.03948 0.13509 0.46226 0.0
H3673 H 0.05409 0.17931 0.51402 0.0
H3674 H 0.05724 0.16358 0.4306 0.0
H3675 H 0.03451 0.16744 0.42929 0.0
H3676 H 0.03806 0.1432 0.43123 0.0
H3677 H 0.07391 0.21856 0.49485 0.0
H3678 H 0.05946 0.2133 0.51337 0.0
H3679 H 0.05057 0.22052 0.49166 0.0
C3680 C 0.60137 0.29066 0.21413 0.0
C3681 C 0.58649 0.27865 0.22063 0.0
C3682 C 0.61945 0.29093 0.22102 0.0
C3683 C 0.62259 0.27876 0.23456 0.0
C3684 C 0.6077 0.26811 0.24253 0.0
C3685 C 0.58975 0.26822 0.23547 0.0
C3686 C 0.63502 0.30258 0.21228 0.0
C3687 C 0.61061 0.25508 0.25711 0.0
C3688 C 0.66163 0.25399 0.22738 0.0
C3689 C 0.67519 0.26521 0.24223 0.0
C3690 C 0.64446 0.25836 0.22478 0.0
C3691 C 0.64076 0.27424 0.23749 0.0
C3692 C 0.65433 0.28559 0.25259 0.0
C3693 C 0.67149 0.28095 0.25477 0.0
C3694 C 0.6303 0.24597 0.2084 0.0
C3695 C 0.65077 0.30266 0.26628 0.0
H3696 H 0.59896 0.29867 0.20256 0.0
H3697 H 0.57824 0.25924 0.24077 0.0
H3698 H 0.64682 0.31004 0.22351 0.0
H3699 H 0.63989 0.2923 0.20153 0.0
H3700 H 0.63066 0.31394 0.20483 0.0
H3701 H 0.59811 0.25041 0.26413 0.0
H3702 H 0.61416 0.24157 0.24972 0.0
H3703 H 0.62221 0.26286 0.26846 0.0
H3704 H 0.6644 0.24165 0.21786 0.0
H3705 H 0.6821 0.28979 0.26612 0.0
H3706 H 0.62622 0.25556 0.19852 0.0
H3707 H 0.61776 0.23886 0.2142 0.0
H3708 H 0.63546 0.23419 0.19983 0.0
H3709 H 0.64785 0.31414 0.2581 0.0
H3710 H 0.66262 0.30961 0.27765 0.0
H3711 H 0.63846 0.29747 0.27338 0.0
C3712 C 0.59756 0.93373 0.94274 0.0
C3713 C 0.58623 0.91513 0.94321 0.0
C3714 C 0.59432 0.95102 0.95317 0.0
C3715 C 0.57963 0.94945 0.9645 0.0
C3716 C 0.56852 0.93061 0.96543 0.0
C3717 C 0.57188 0.91366 0.95464 0.0
C3718 C 0.60624 0.97094 0.95167 0.0
C3719 C 0.55297 0.92833 0.97768 0.0
C3720 C 0.57919 0.99109 1.00517 0.0
C3721 C 0.56525 0.99901 0.99737 0.0
C3722 C 0.58428 0.97512 0.99449 0.0
C3723 C 0.57564 0.96745 0.97535 0.0
C3724 C 0.56216 0.97605 0.9671 0.0
C3725 C 0.55685 0.99152 0.9784 0.0
C3726 C 0.59831 0.96595 1.00395 0.0
C3727 C 0.55309 0.96864 0.9465 0.0
H3728 H 0.60857 0.93477 0.93374 0.0
H3729 H 0.56326 0.89919 0.95508 0.0
H3730 H 0.59765 0.97998 0.94546 0.0
H3731 H 0.61267 0.97917 0.96625 0.0
H3732 H 0.61729 0.96955 0.94248 0.0
H3733 H 0.5462 0.91254 0.97749 0.0
H3734 H 0.55817 0.9356 0.99288 0.0
H3735 H 0.54245 0.93578 0.97237 0.0
H3736 H 0.58571 0.99693 0.01989 0.0
H3737 H 0.54616 0.99774 0.9724 0.0
H3738 H 0.60967 0.9655 0.99504 0.0
H3739 H 0.59179 0.95041 1.00498 0.0
H3740 H 0.60422 0.97417 0.01871 0.0
H3741 H 0.56365 0.96787 0.93659 0.0
H3742 H 0.54437 0.97829 0.94167 0.0
H3743 H 0.54437 0.95343 0.94519 0.0
C3744 C 0.92422 0.77108 0.72549 0.0
C3745 C 0.91974 0.7577 0.70794 0.0
C3746 C 0.91072 0.77352 0.73741 0.0
C3747 C 0.89238 0.76261 0.73127 0.0
C3748 C 0.88802 0.74837 0.714 0.0
C3749 C 0.90187 0.74595 0.70258 0.0
C3750 C 0.91585 0.78864 0.75588 0.0
C3751 C 0.86849 0.73687 0.70676 0.0
C3752 C 0.85388 0.76245 0.76234 0.0
C3753 C 0.84657 0.77748 0.75626 0.0
C3754 C 0.86953 0.75802 0.75508 0.0
C3755 C 0.87736 0.76841 0.74098 0.0
C3756 C 0.87008 0.78376 0.73504 0.0
C3757 C 0.85493 0.78828 0.74299 0.0
C3758 C 0.8774 0.74199 0.76208 0.0
C3759 C 0.87771 0.7948 0.71961 0.0
H3760 H 0.93819 0.77995 0.72964 0.0
H3761 H 0.89855 0.73567 0.68892 0.0
H3762 H 0.91083 0.80198 0.75388 0.0
H3763 H 0.90927 0.7826 0.76787 0.0
H3764 H 0.93097 0.79331 0.76017 0.0
H3765 H 0.86774 0.72502 0.69413 0.0
H3766 H 0.86202 0.73003 0.71838 0.0
H3767 H 0.86026 0.74715 0.70239 0.0
H3768 H 0.84735 0.75418 0.77266 0.0
H3769 H 0.84906 0.7997 0.73804 0.0
H3770 H 0.89244 0.74752 0.76652 0.0
H3771 H 0.87534 0.72914 0.75016 0.0
H3772 H 0.87088 0.73679 0.77447 0.0
H3773 H 0.89251 0.80196 0.72394 0.0
H3774 H 0.87043 0.80641 0.71678 0.0
H3775 H 0.87651 0.78423 0.70588 0.0
C3776 C 0.11795 0.03723 0.88672 0.0
C3777 C 0.11189 0.02054 0.87159 0.0
C3778 C 0.1099 0.0391 0.90442 0.0
C3779 C 0.09507 0.02399 0.90795 0.0
C3780 C 0.08886 1.00709 0.89282 0.0
C3781 C 0.09716 1.00559 0.87524 0.0
C3782 C 0.11731 0.05755 0.91947 0.0
C3783 C 0.07313 0.99044 0.89511 0.0
C3784 C 0.08272 0.02138 0.9611 0.0
C3785 C 0.0671 0.02939 0.96189 0.0
C3786 C 0.09189 0.01965 0.94405 0.0
C3787 C 0.08572 0.0262 0.92689 0.0
C3788 C 0.07023 0.03472 0.92791 0.0
C3789 C 0.06116 0.03587 0.9449 0.0
C3790 C 0.1079 0.01004 0.94418 0.0
C3791 C 0.06281 0.04233 0.91073 0.0
H3792 H 0.12933 0.04901 0.88494 0.0
H3793 H 0.09172 0.99262 0.86413 0.0
H3794 H 0.1062 0.06527 0.92229 0.0
H3795 H 0.12213 0.05349 0.9333 0.0
H3796 H 0.12888 0.068 0.91499 0.0
H3797 H 0.07044 0.97775 0.88289 0.0
H3798 H 0.07608 0.98509 0.90879 0.0
H3799 H 0.06045 0.99594 0.89602 0.0
H3800 H 0.08733 0.01554 0.97353 0.0
H3801 H 0.04895 0.04165 0.94474 0.0
H3802 H 0.12 0.01994 0.94 0.0
H3803 H 0.10433 0.99614 0.93331 0.0
H3804 H 0.11175 1.00647 0.95857 0.0
H3805 H 0.074 0.05287 0.90584 0.0
H3806 H 0.05168 0.04989 0.91403 0.0
H3807 H 0.05731 0.02981 0.89852 0.0
C3808 C 0.8165 0.36078 0.59699 0.0
C3809 C 0.82855 0.36838 0.5845 0.0
C3810 C 0.82283 0.35301 0.61264 0.0
C3811 C 0.84172 0.35321 0.616 0.0
C3812 C 0.85396 0.36075 0.60341 0.0
C3813 C 0.84717 0.3681 0.58764 0.0
C3814 C 0.80929 0.34475 0.62567 0.0
C3815 C 0.87421 0.36137 0.60679 0.0
C3816 C 0.85195 0.34694 0.66728 0.0
C3817 C 0.8492 0.32632 0.66466 0.0
C3818 C 0.85183 0.35648 0.65126 0.0
C3819 C 0.84827 0.34488 0.63247 0.0
C3820 C 0.8474 0.32434 0.62989 0.0
C3821 C 0.84813 0.31533 0.64614 0.0
C3822 C 0.85357 0.37859 0.65443 0.0
C3823 C 0.84316 0.31136 0.61012 0.0
H3824 H 0.80217 0.36128 0.59477 0.0
H3825 H 0.85647 0.37374 0.57782 0.0
H3826 H 0.81 0.32939 0.62694 0.0
H3827 H 0.81283 0.35382 0.64041 0.0
H3828 H 0.79491 0.34459 0.62027 0.0
H3829 H 0.88163 0.3665 0.59489 0.0
H3830 H 0.88047 0.37157 0.62053 0.0
H3831 H 0.87628 0.34651 0.6083 0.0
H3832 H 0.85297 0.35539 0.68168 0.0
H3833 H 0.84586 0.29933 0.64419 0.0
H3834 H 0.83971 0.38154 0.65223 0.0
H3835 H 0.8618 0.38546 0.64387 0.0
H3836 H 0.86006 0.38585 0.66932 0.0
H3837 H 0.82825 0.30862 0.60508 0.0
H3838 H 0.84654 0.29679 0.61041 0.0
H3839 H 0.85078 0.31864 0.59941 0.0
C3840 C 0.47412 0.02641 0.39223 0.0
C3841 C 0.48191 0.03433 0.37704 0.0
C3842 C 0.48515 0.02663 0.40933 0.0
C3843 C 0.50434 0.03456 0.41084 0.0
C3844 C 0.51225 0.04223 0.39531 0.0
C3845 C 0.50083 0.04223 0.37858 0.0
C3846 C 0.4763 0.01866 0.42582 0.0
C3847 C 0.53274 0.05032 0.39635 0.0
C3848 C 0.53243 0.05289 0.45987 0.0
C3849 C 0.53938 0.03649 0.46229 0.0
C3850 C 0.52053 0.05227 0.44327 0.0
C3851 C 0.5162 0.03508 0.42874 0.0
C3852 C 0.52351 0.01859 0.43111 0.0
C3853 C 0.53483 0.01938 0.44817 0.0
C3854 C 0.51236 0.06978 0.44143 0.0
C3855 C 0.51941 1.0002 0.41569 0.0
H3856 H 0.45939 0.0203 0.39076 0.0
H3857 H 0.50669 0.04807 0.36654 0.0
H3858 H 0.48238 1.00662 0.42988 0.0
H3859 H 0.47901 0.03058 0.43874 0.0
H3860 H 0.4612 0.01279 0.42212 0.0
H3861 H 0.53671 0.0549 0.38263 0.0
H3862 H 0.53746 0.06334 0.4082 0.0
H3863 H 0.54011 0.03896 0.39971 0.0
H3864 H 0.53579 0.06587 0.47123 0.0
H3865 H 0.54016 1.00667 0.45051 0.0
H3866 H 0.49712 0.0649 0.4391 0.0
H3867 H 0.5167 0.07615 0.42865 0.0
H3868 H 0.51655 0.08163 0.45446 0.0
H3869 H 0.50439 0.99359 0.41287 0.0
H3870 H 0.52641 0.9888 0.41982 0.0
H3871 H 0.52388 1.00415 0.40194 0.0
C3872 C 0.77573 0.73674 0.11139 0.0
C3873 C 0.78778 0.74802 0.10093 0.0
C3874 C 0.77589 0.74254 0.13136 0.0
C3875 C 0.78852 0.76001 0.14132 0.0
C3876 C 0.80064 0.77162 0.13091 0.0
C3877 C 0.80013 0.7655 0.11086 0.0
C3878 C 0.76283 0.72964 0.14189 0.0
C3879 C 0.81434 0.79033 0.14101 0.0
C3880 C 0.77859 0.78097 0.19137 0.0
C3881 C 0.79043 0.77382 0.20345 0.0
C3882 C 0.7782 0.77712 0.17112 0.0
C3883 C 0.7896 0.76544 0.16278 0.0
C3884 C 0.80149 0.75811 0.17495 0.0
C3885 C 0.80188 0.76255 0.1951 0.0
C3886 C 0.76563 0.78554 0.15865 0.0
C3887 C 0.81363 0.74532 0.16671 0.0
H3888 H 0.76643 0.72298 0.10406 0.0
H3889 H 0.8094 0.77442 0.10295 0.0
H3890 H 0.77076 0.72379 0.15273 0.0
H3891 H 0.75449 0.73852 0.14986 0.0
H3892 H 0.75338 0.71691 0.13194 0.0
H3893 H 0.82211 0.79827 0.13073 0.0
H3894 H 0.80719 0.80047 0.14919 0.0
H3895 H 0.82429 0.78667 0.15163 0.0
H3896 H 0.76989 0.7899 0.19775 0.0
H3897 H 0.81102 0.75689 0.20434 0.0
H3898 H 0.75542 0.77331 0.14892 0.0
H3899 H 0.77369 0.79458 0.14933 0.0
H3900 H 0.75816 0.79494 0.16736 0.0
H3901 H 0.80503 0.73165 0.15733 0.0
H3902 H 0.82224 0.74097 0.17816 0.0
H3903 H 0.8228 0.75332 0.15754 0.0
C3904 C 0.11423 0.03455 0.66038 0.0
C3905 C 0.10864 0.01727 0.66851 0.0
C3906 C 0.10605 0.03685 0.64203 0.0
C3907 C 0.09172 0.02153 0.63067 0.0
C3908 C 0.08598 1.00403 0.63863 0.0
C3909 C 0.09431 1.00215 0.65712 0.0
C3910 C 0.11299 0.05583 0.63467 0.0
C3911 C 0.07084 0.98711 0.62756 0.0
C3912 C 0.0608 0.03572 0.58985 0.0
C3913 C 0.06761 0.02904 0.57269 0.0
C3914 C 0.06801 0.03289 0.60843 0.0
C3915 C 0.08308 0.02378 0.61055 0.0
C3916 C 0.09011 0.01724 0.59325 0.0
C3917 C 0.08219 0.01956 0.5748 0.0
C3918 C 0.05931 0.03957 0.62589 0.0
C3919 C 0.10633 0.00794 0.59421 0.0
H3920 H 0.12537 0.04644 0.66817 0.0
H3921 H 0.08928 0.98872 0.66269 0.0
H3922 H 0.11844 0.05252 0.62075 0.0
H3923 H 0.10151 0.06298 0.63181 0.0
H3924 H 0.12399 0.06655 0.64505 0.0
H3925 H 0.06736 0.97472 0.63569 0.0
H3926 H 0.0583 0.99244 0.62418 0.0
H3927 H 0.07505 0.98132 0.61357 0.0
H3928 H 0.04948 0.04286 0.58874 0.0
H3929 H 0.0878 0.01433 0.56193 0.0
H3930 H 0.06955 0.05119 0.63624 0.0
H3931 H 0.05482 0.02694 0.63347 0.0
H3932 H 0.04726 0.04554 0.62202 0.0
H3933 H 0.11816 0.0183 0.60379 0.0
H3934 H 0.11064 1.00406 0.57975 0.0
H3935 H 0.10289 0.9943 0.60057 0.0
C3936 C 0.81692 0.34727 0.40894 0.0
C3937 C 0.80234 0.35648 0.41156 0.0
C3938 C 0.81718 0.33482 0.39151 0.0
C3939 C 0.80231 0.33118 0.37665 0.0
C3940 C 0.78735 0.33998 0.37937 0.0
C3941 C 0.78768 0.35275 0.39669 0.0
C3942 C 0.83355 0.32601 0.3888 0.0
C3943 C 0.77115 0.33628 0.36383 0.0
C3944 C 0.80594 0.31798 0.32376 0.0
C3945 C 0.79744 0.29771 0.31995 0.0
C3946 C 0.80899 0.32876 0.34255 0.0
C3947 C 0.80268 0.31913 0.35771 0.0
C3948 C 0.7947 0.29849 0.35411 0.0
C3949 C 0.79239 0.2879 0.33518 0.0
C3950 C 0.81792 0.3507 0.34594 0.0
C3951 C 0.78745 0.28789 0.36992 0.0
H3952 H 0.82816 0.34982 0.42048 0.0
H3953 H 0.77656 0.36012 0.39841 0.0
H3954 H 0.82901 0.30964 0.38471 0.0
H3955 H 0.84048 0.33155 0.3768 0.0
H3956 H 0.84371 0.32978 0.40206 0.0
H3957 H 0.75995 0.34292 0.36892 0.0
H3958 H 0.77566 0.3427 0.35114 0.0
H3959 H 0.76551 0.32012 0.35885 0.0
H3960 H 0.80962 0.32563 0.31194 0.0
H3961 H 0.78575 0.27221 0.33218 0.0
H3962 H 0.82849 0.35486 0.35886 0.0
H3963 H 0.80741 0.35926 0.34872 0.0
H3964 H 0.8245 0.35517 0.3333 0.0
H3965 H 0.79796 0.2914 0.38283 0.0
H3966 H 0.78327 0.27155 0.36515 0.0
H3967 H 0.77533 0.29309 0.37443 0.0
C3968 C 0.48794 0.01741 0.18846 0.0
C3969 C 0.48034 1.00399 0.19998 0.0
C3970 C 0.49328 0.01068 0.1707 0.0
C3971 C 0.49062 0.99 0.16423 0.0
C3972 C 0.48364 0.97642 0.1761 0.0
C3973 C 0.47879 0.98363 0.19401 0.0
C3974 C 0.50103 0.02572 0.15851 0.0
C3975 C 0.48033 0.95432 0.16951 0.0
C3976 C 0.48832 0.98564 0.11105 0.0
C3977 C 0.50708 0.98834 0.10942 0.0
C3978 C 0.48187 0.9827 0.1286 0.0
C3979 C 0.49469 0.98303 0.14468 0.0
C3980 C 0.51293 0.98225 0.14207 0.0
C3981 C 0.51889 0.98466 0.12421 0.0
C3982 C 0.46205 0.98255 0.13068 0.0
C3983 C 0.52702 0.98254 0.15882 0.0
H3984 H 0.48895 0.03312 0.19289 0.0
H3985 H 0.47322 0.97324 0.20309 0.0
H3986 H 0.51404 0.02308 0.15368 0.0
H3987 H 0.49116 0.02421 0.14538 0.0
H3988 H 0.50376 0.0412 0.16646 0.0
H3989 H 0.4776 0.94604 0.18157 0.0
H3990 H 0.46825 0.94922 0.15818 0.0
H3991 H 0.49225 0.9505 0.16301 0.0
H3992 H 0.47913 0.98815 0.09946 0.0
H3993 H 0.5334 0.98656 0.12288 0.0
H3994 H 0.46099 0.99785 0.13624 0.0
H3995 H 0.45679 0.97301 0.1411 0.0
H3996 H 0.45317 0.97725 0.11655 0.0
H3997 H 0.53277 0.99811 0.16623 0.0
H3998 H 0.53856 0.97648 0.15377 0.0
H3999 H 0.52088 0.97398 0.16956 0.0
C4000 C 0.77733 0.74161 0.89536 0.0
C4001 C 0.79298 0.7389 0.90611 0.0
C4002 C 0.77852 0.74963 0.87824 0.0
C4003 C 0.79576 0.75498 0.87138 0.0
C4004 C 0.8116 0.75222 0.88206 0.0
C4005 C 0.81004 0.74432 0.89924 0.0
C4006 C 0.76129 0.75251 0.86751 0.0
C4007 C 0.8303 0.75783 0.87546 0.0
C4008 C 0.79709 0.76131 0.81831 0.0
C4009 C 0.80068 0.78198 0.81991 0.0
C4010 C 0.79545 0.7523 0.8349 0.0
C4011 C 0.79735 0.7642 0.85351 0.0
C4012 C 0.80089 0.78506 0.85509 0.0
C4013 C 0.80259 0.79362 0.83837 0.0
C4014 C 0.79188 0.73004 0.83261 0.0
C4015 C 0.80293 0.79842 0.87448 0.0
H4016 H 0.764 0.73726 0.9002 0.0
H4017 H 0.82233 0.74271 0.90745 0.0
H4018 H 0.76288 0.7684 0.86655 0.0
H4019 H 0.75901 0.74411 0.8525 0.0
H4020 H 0.74892 0.74758 0.87464 0.0
H4021 H 0.84116 0.75403 0.88488 0.0
H4022 H 0.82995 0.75016 0.86042 0.0
H4023 H 0.83413 0.774 0.87542 0.0
H4024 H 0.79593 0.75224 0.8042 0.0
H4025 H 0.80538 0.80962 0.8398 0.0
H4026 H 0.77891 0.72408 0.83831 0.0
H4027 H 0.80311 0.72593 0.84117 0.0
H4028 H 0.79088 0.72283 0.8173 0.0
H4029 H 0.79029 0.79449 0.88143 0.0
H4030 H 0.80554 0.81434 0.87325 0.0
H4031 H 0.81447 0.79628 0.88422 0.0
C4032 C 0.8788 0.11075 0.99854 0.0
C4033 C 0.86556 0.10388 0.01026 0.0
C4034 C 0.89276 0.10098 0.99487 0.0
C4035 C 0.89356 0.0842 1.0034 0.0
C4036 C 0.88028 0.07723 0.01527 0.0
C4037 C 0.86632 0.08707 0.01842 0.0
C4038 C 0.9066 0.10857 0.9819 0.0
C4039 C 0.88083 0.05941 0.02468 0.0
C4040 C 0.91872 0.04624 0.98374 0.0
C4041 C 0.93503 0.05172 0.99668 0.0
C4042 C 0.90543 0.05731 0.98517 0.0
C4043 C 0.90838 0.07392 1.00018 0.0
C4044 C 0.92494 0.07981 0.01302 0.0
C4045 C 0.93818 0.06873 0.01098 0.0
C4046 C 0.888 0.05088 0.97101 0.0
C4047 C 0.92841 0.0974 0.02929 0.0
H4048 H 0.87834 0.12386 0.99236 0.0
H4049 H 0.85587 0.08146 0.02713 0.0
H4050 H 0.92061 0.11315 0.99009 0.0
H4051 H 0.90671 0.09658 0.96972 0.0
H4052 H 0.90363 0.12141 0.97587 0.0
H4053 H 0.86954 0.05607 0.03368 0.0
H4054 H 0.87979 0.04617 0.01346 0.0
H4055 H 0.89416 0.06202 0.03398 0.0
H4056 H 0.91612 0.03303 0.97274 0.0
H4057 H 0.95097 0.07336 0.02069 0.0
H4058 H 0.88517 0.06368 0.96485 0.0
H4059 H 0.87619 0.04524 0.97863 0.0
H4060 H 0.88875 0.03903 0.95895 0.0
H4061 H 0.92673 0.11082 0.02355 0.0
H4062 H 0.94239 0.10058 0.03745 0.0
H4063 H 0.91815 0.09454 0.03951 0.0
C4064 C 0.42096 0.44354 0.03075 0.0
C4065 C 0.40568 0.45177 0.02811 0.0
C4066 C 0.43899 0.45431 0.02968 0.0
C4067 C 0.44205 0.47393 0.02584 0.0
C4068 C 0.42669 0.48222 0.0228 0.0
C4069 C 0.40882 0.47113 0.02399 0.0
C4070 C 0.45483 0.44476 0.03293 0.0
C4071 C 0.42915 0.50302 0.01865 0.0
C4072 C 0.48885 0.51003 0.04383 0.0
C4073 C 0.49735 0.51058 0.02693 0.0
C4074 C 0.4711 0.49805 0.04367 0.0
C4075 C 0.46135 0.48618 0.02615 0.0
C4076 C 0.46999 0.48636 0.00906 0.0
C4077 C 0.48787 0.49848 0.00965 0.0
C4078 C 0.46262 0.49838 0.06229 0.0
C4079 C 0.4602 0.47406 0.99003 0.0
H4080 H 0.41885 0.42852 0.03356 0.0
H4081 H 0.3973 0.47787 0.0221 0.0
H4082 H 0.46284 0.44509 0.02048 0.0
H4083 H 0.46428 0.45325 0.04595 0.0
H4084 H 0.45018 0.42913 0.03494 0.0
H4085 H 0.41581 0.507 0.01563 0.0
H4086 H 0.43741 0.51377 0.03122 0.0
H4087 H 0.43681 0.50464 0.00604 0.0
H4088 H 0.49602 0.51928 0.05727 0.0
H4089 H 0.49423 0.49884 0.99648 0.0
H4090 H 0.45865 0.48314 0.06548 0.0
H4091 H 0.4499 0.50384 0.06076 0.0
H4092 H 0.4721 0.508 0.07479 0.0
H4093 H 0.45607 0.45822 0.9914 0.0
H4094 H 0.46887 0.47543 0.97813 0.0
H4095 H 0.44744 0.47876 0.98602 0.0
C4096 C 0.37657 0.66914 0.74958 0.0
C4097 C 0.3738 0.65534 0.76246 0.0
C4098 C 0.3678 0.68548 0.75009 0.0
C4099 C 0.35553 0.68901 0.76386 0.0
C4100 C 0.35277 0.67532 0.777 0.0
C4101 C 0.36167 0.65907 0.77615 0.0
C4102 C 0.37171 0.69907 0.7356 0.0
C4103 C 0.34016 0.67776 0.79215 0.0
C4104 C 0.3436 0.74171 0.7749 0.0
C4105 C 0.32573 0.73884 0.76487 0.0
C4106 C 0.35316 0.72602 0.77492 0.0
C4107 C 0.34534 0.70642 0.76419 0.0
C4108 C 0.32749 0.70362 0.75373 0.0
C4109 C 0.31804 0.71938 0.75441 0.0
C4110 C 0.37178 0.73048 0.78675 0.0
C4111 C 0.31825 0.68376 0.74147 0.0
H4112 H 0.38588 0.66741 0.73897 0.0
H4113 H 0.35874 0.64903 0.78627 0.0
H4114 H 0.35866 0.69926 0.72701 0.0
H4115 H 0.37792 0.71445 0.74326 0.0
H4116 H 0.38117 0.69454 0.72555 0.0
H4117 H 0.33996 0.66687 0.80205 0.0
H4118 H 0.34452 0.69295 0.80084 0.0
H4119 H 0.32596 0.6759 0.78506 0.0
H4120 H 0.35011 0.7563 0.78316 0.0
H4121 H 0.30448 0.71641 0.74632 0.0
H4122 H 0.38234 0.72849 0.77712 0.0
H4123 H 0.3718 0.7199 0.79694 0.0
H4124 H 0.3758 0.74583 0.79515 0.0
H4125 H 0.32731 0.67944 0.73086 0.0
H4126 H 0.30484 0.68381 0.7335 0.0
H4127 H 0.31593 0.67225 0.75073 0.0
C4128 C 0.18303 0.59442 0.49511 0.0
C4129 C 0.19218 0.58005 0.49962 0.0
C4130 C 0.16405 0.59108 0.49448 0.0
C4131 C 0.15408 0.57291 0.49838 0.0
C4132 C 0.16306 0.55785 0.50186 0.0
C4133 C 0.18221 0.56171 0.50267 0.0
C4134 C 0.15481 0.60744 0.4908 0.0
C4135 C 0.15252 0.53808 0.50549 0.0
C4136 C 0.11054 0.57506 0.51998 0.0
C4137 C 0.09727 0.56698 0.50383 0.0
C4138 C 0.12916 0.57678 0.51842 0.0
C4139 C 0.13449 0.57043 0.50026 0.0
C4140 C 0.12124 0.56277 0.48383 0.0
C4141 C 0.10273 0.56139 0.48575 0.0
C4142 C 0.14308 0.58487 0.53628 0.0
C4143 C 0.12649 0.55586 0.46427 0.0
H4144 H 0.19085 0.60879 0.49318 0.0
H4145 H 0.18943 0.55071 0.50619 0.0
H4146 H 0.14328 0.60174 0.47889 0.0
H4147 H 0.14895 0.61275 0.50392 0.0
H4148 H 0.16449 0.62028 0.48698 0.0
H4149 H 0.16134 0.5274 0.50624 0.0
H4150 H 0.14666 0.5402 0.51932 0.0
H4151 H 0.14084 0.53153 0.49385 0.0
H4152 H 0.10638 0.57921 0.53404 0.0
H4153 H 0.0925 0.55516 0.4732 0.0
H4154 H 0.15313 0.59823 0.53401 0.0
H4155 H 0.15089 0.57369 0.53904 0.0
H4156 H 0.13657 0.5889 0.54936 0.0
H4157 H 0.13097 0.56891 0.45725 0.0
H4158 H 0.1147 0.54527 0.45482 0.0
H4159 H 0.13806 0.54852 0.46546 0.0
C4160 C 0.73128 0.97715 0.77532 0.0
C4161 C 0.71358 0.96881 0.76566 0.0
C4162 C 0.74298 0.96501 0.77948 0.0
C4163 C 0.73671 0.94424 0.77347 0.0
C4164 C 0.7185 0.93579 0.76439 0.0
C4165 C 0.70706 0.94829 0.76063 0.0
C4166 C 0.76226 0.97441 0.7894 0.0
C4167 C 0.71145 0.91369 0.75772 0.0
C4168 C 0.77122 0.91544 0.75851 0.0
C4169 C 0.77349 0.90612 0.77436 0.0
C4170 C 0.75958 0.92833 0.75833 0.0
C4171 C 0.74984 0.9316 0.7743 0.0
C4172 C 0.75221 0.92232 0.79046 0.0
C4173 C 0.76422 0.90968 0.79036 0.0
C4174 C 0.75746 0.93815 0.74092 0.0
C4175 C 0.74182 0.92542 0.80757 0.0
H4176 H 0.73601 0.99314 0.77928 0.0
H4177 H 0.69322 0.94212 0.75323 0.0
H4178 H 0.76541 0.96709 0.80173 0.0
H4179 H 0.77228 0.97235 0.7791 0.0
H4180 H 0.76431 0.99053 0.79482 0.0
H4181 H 0.6965 0.90947 0.75244 0.0
H4182 H 0.71892 0.90863 0.7458 0.0
H4183 H 0.71405 0.90567 0.76966 0.0
H4184 H 0.77854 0.91253 0.74624 0.0
H4185 H 0.76603 0.9022 0.8025 0.0
H4186 H 0.76086 0.9545 0.74547 0.0
H4187 H 0.74297 0.93353 0.73397 0.0
H4188 H 0.76644 0.93436 0.72998 0.0
H4189 H 0.74471 0.94144 0.81378 0.0
H4190 H 0.74546 0.9173 0.8191 0.0
H4191 H 0.72681 0.92034 0.80282 0.0
C4192 C 0.70897 0.92754 0.52689 0.0
C4193 C 0.72533 0.93523 0.51962 0.0
C4194 C 0.6938 0.93616 0.52526 0.0
C4195 C 0.69501 0.95314 0.51641 0.0
C4196 C 0.71132 0.96065 0.50859 0.0
C4197 C 0.72619 0.95156 0.51018 0.0
C4198 C 0.67658 0.92734 0.5334 0.0
C4199 C 0.71332 0.97874 0.49912 0.0
C4200 C 0.65131 0.97008 0.50229 0.0
C4201 C 0.65134 0.98465 0.51836 0.0
C4202 C 0.66534 0.95966 0.50139 0.0
C4203 C 0.6799 0.964 0.51684 0.0
C4204 C 0.68006 0.97881 0.53296 0.0
C4205 C 0.66584 0.98886 0.53353 0.0
C4206 C 0.66449 0.94389 0.484 0.0
C4207 C 0.69535 0.98415 0.54966 0.0
H4208 H 0.70801 0.91471 0.53387 0.0
H4209 H 0.73875 0.95768 0.50456 0.0
H4210 H 0.67443 0.93806 0.54575 0.0
H4211 H 0.66442 0.92441 0.5223 0.0
H4212 H 0.67725 0.91329 0.53848 0.0
H4213 H 0.7264 0.98206 0.49274 0.0
H4214 H 0.70169 0.97665 0.48755 0.0
H4215 H 0.71291 0.9918 0.50997 0.0
H4216 H 0.64014 0.96659 0.49053 0.0
H4217 H 0.66626 1.00033 0.54584 0.0
H4218 H 0.66361 0.92934 0.48861 0.0
H4219 H 0.67724 0.94728 0.47711 0.0
H4220 H 0.65251 0.94253 0.47302 0.0
H4221 H 0.69577 0.97095 0.55639 0.0
H4222 H 0.69369 0.99625 0.56096 0.0
H4223 H 0.7088 0.98887 0.54435 0.0
C4224 C 0.35445 0.43502 0.7443 0.0
C4225 C 0.36699 0.44749 0.75981 0.0
C4226 C 0.34515 0.41512 0.74517 0.0
C4227 C 0.34796 0.40671 0.76204 0.0
C4228 C 0.36069 0.41905 0.77767 0.0
C4229 C 0.36993 0.43885 0.77636 0.0
C4230 C 0.33197 0.40308 0.72793 0.0
C4231 C 0.36444 0.41137 0.79608 0.0
C4232 C 0.30855 0.36394 0.77132 0.0
C4233 C 0.31463 0.34645 0.76614 0.0
C4234 C 0.31924 0.38319 0.77046 0.0
C4235 C 0.33676 0.38575 0.76377 0.0
C4236 C 0.34313 0.36815 0.75857 0.0
C4237 C 0.33221 0.34896 0.75996 0.0
C4238 C 0.31159 0.40093 0.77666 0.0
C4239 C 0.3614 0.36953 0.75105 0.0
H4240 H 0.35149 0.44089 0.73137 0.0
H4241 H 0.37966 0.44752 0.78851 0.0
H4242 H 0.33545 0.38864 0.72354 0.0
H4243 H 0.3178 0.39986 0.73185 0.0
H4244 H 0.33214 0.41086 0.71535 0.0
H4245 H 0.3749 0.42232 0.80685 0.0
H4246 H 0.35153 0.40758 0.80265 0.0
H4247 H 0.36928 0.39757 0.79286 0.0
H4248 H 0.29511 0.36259 0.77613 0.0
H4249 H 0.33724 0.33586 0.75564 0.0
H4250 H 0.30964 0.40852 0.76423 0.0
H4251 H 0.32147 0.41175 0.78806 0.0
H4252 H 0.29822 0.39681 0.78232 0.0
H4253 H 0.36115 0.37568 0.73747 0.0
H4254 H 0.36486 0.35488 0.74813 0.0
H4255 H 0.37247 0.37985 0.76164 0.0
C4256 C 0.23081 0.65725 0.29155 0.0
C4257 C 0.23303 0.63819 0.28552 0.0
C4258 C 0.24461 0.67371 0.29012 0.0
C4259 C 0.26087 0.67067 0.2827 0.0
C4260 C 0.26409 0.65149 0.27917 0.0
C4261 C 0.24992 0.6353 0.28044 0.0
C4262 C 0.24077 0.69407 0.29421 0.0
C4263 C 0.28155 0.64784 0.27201 0.0
C4264 C 0.27372 0.70831 0.25115 0.0
C4265 C 0.28484 0.72369 0.26486 0.0
C4266 C 0.26719 0.6898 0.2562 0.0
C4267 C 0.27235 0.68694 0.27523 0.0
C4268 C 0.28558 0.70175 0.28813 0.0
C4269 C 0.29143 0.72025 0.28288 0.0
C4270 C 0.25307 0.67424 0.24201 0.0
C4271 C 0.29199 0.69886 0.30815 0.0
H4272 H 0.21762 0.65923 0.29541 0.0
H4273 H 0.25145 0.62036 0.27589 0.0
H4274 H 0.25269 0.70485 0.30318 0.0
H4275 H 0.23845 0.69937 0.28036 0.0
H4276 H 0.22845 0.69402 0.30179 0.0
H4277 H 0.28406 0.6336 0.27522 0.0
H4278 H 0.28033 0.64701 0.25609 0.0
H4279 H 0.2936 0.66005 0.27859 0.0
H4280 H 0.26878 0.71129 0.23723 0.0
H4281 H 0.30019 0.73238 0.29334 0.0
H4282 H 0.23932 0.6731 0.24691 0.0
H4283 H 0.25624 0.65951 0.2413 0.0
H4284 H 0.25234 0.67788 0.22722 0.0
H4285 H 0.2817 0.70153 0.31792 0.0
H4286 H 0.30535 0.70938 0.31421 0.0
H4287 H 0.29344 0.68348 0.30805 0.0
C4288 C 0.50992 0.65945 0.45734 0.0
C4289 C 0.52129 0.6785 0.46408 0.0
C4290 C 0.51282 0.64289 0.46511 0.0
C4291 C 0.52738 0.64529 0.48018 0.0
C4292 C 0.53869 0.66454 0.48736 0.0
C4293 C 0.53558 0.68082 0.47919 0.0
C4294 C 0.50055 0.62268 0.45681 0.0
C4295 C 0.55417 0.66793 0.50361 0.0
C4296 C 0.52416 0.60271 0.5088 0.0
C4297 C 0.53653 0.59259 0.50072 0.0
C4298 C 0.52163 0.62034 0.50288 0.0
C4299 C 0.53108 0.62754 0.48789 0.0
C4300 C 0.54357 0.61723 0.4797 0.0
C4301 C 0.54638 0.60013 0.48647 0.0
C4302 C 0.5088 0.63122 0.51261 0.0
C4303 C 0.5536 0.62394 0.4634 0.0
H4304 H 0.49899 0.65735 0.44555 0.0
H4305 H 0.54433 0.69545 0.48474 0.0
H4306 H 0.50893 0.61265 0.45075 0.0
H4307 H 0.49377 0.61606 0.46839 0.0
H4308 H 0.48975 0.62326 0.44523 0.0
H4309 H 0.56097 0.68391 0.5084 0.0
H4310 H 0.54892 0.66182 0.51617 0.0
H4311 H 0.56466 0.66002 0.49887 0.0
H4312 H 0.51665 0.59697 0.51995 0.0
H4313 H 0.55589 0.59225 0.48015 0.0
H4314 H 0.49681 0.63084 0.50205 0.0
H4315 H 0.5159 0.64704 0.51783 0.0
H4316 H 0.5037 0.62469 0.52505 0.0
H4317 H 0.54352 0.62387 0.45088 0.0
H4318 H 0.5628 0.6143 0.45856 0.0
H4319 H 0.56196 0.63937 0.46798 0.0
C4320 C 0.68365 0.31691 0.68203 0.0
C4321 C 0.66766 0.3014 0.67714 0.0
C4322 C 0.69961 0.31458 0.69275 0.0
C4323 C 0.69981 0.29628 0.69885 0.0
C4324 C 0.68384 0.28049 0.69371 0.0
C4325 C 0.66808 0.28324 0.68306 0.0
C4326 C 0.71616 0.33192 0.69795 0.0
C4327 C 0.68319 0.26078 0.69998 0.0
C4328 C 0.7456 0.28538 0.71808 0.0
C4329 C 0.7456 0.28989 0.73816 0.0
C4330 C 0.73087 0.28738 0.70504 0.0
C4331 C 0.71588 0.29423 0.71221 0.0
C4332 C 0.71599 0.29886 0.73247 0.0
C4333 C 0.73066 0.29654 0.74505 0.0
C4334 C 0.7313 0.28214 0.68359 0.0
C4335 C 0.70058 0.30636 0.74098 0.0
H4336 H 0.68375 0.33093 0.67739 0.0
H4337 H 0.65586 0.27117 0.67978 0.0
H4338 H 0.71868 0.33686 0.71388 0.0
H4339 H 0.72859 0.3274 0.69347 0.0
H4340 H 0.71437 0.34469 0.69108 0.0
H4341 H 0.67047 0.24944 0.69342 0.0
H4342 H 0.69526 0.25518 0.69596 0.0
H4343 H 0.68385 0.26265 0.71595 0.0
H4344 H 0.75707 0.28035 0.71257 0.0
H4345 H 0.73044 0.30021 0.76051 0.0
H4346 H 0.73064 0.29515 0.67665 0.0
H4347 H 0.71907 0.27013 0.67704 0.0
H4348 H 0.74388 0.27721 0.68023 0.0
H4349 H 0.69915 0.32005 0.73561 0.0
H4350 H 0.70285 0.30968 0.75705 0.0
H4351 H 0.68736 0.29517 0.73631 0.0
C4352 C 0.01694 0.37638 0.99268 0.0
C4353 C 0.02884 0.37085 0.97981 0.0
C4354 C 0.01833 0.39642 1.00024 0.0
C4355 C 0.03183 0.41128 0.99465 0.0
C4356 C 0.04441 0.40575 0.98239 0.0
C4357 C 0.04278 0.38561 0.97514 0.0
C4358 C 1.00489 0.40171 0.01359 0.0
C4359 C 0.05901 0.42113 0.97606 0.0
C4360 C 0.02217 0.46176 0.99267 0.0
C4361 C 0.03417 0.47369 0.00848 0.0
C4362 C 0.02107 0.44135 0.98822 0.0
C4363 C 0.03186 0.4326 1.0002 0.0
C4364 C 0.04336 0.44446 0.01674 0.0
C4365 C 0.04458 0.46495 0.02053 0.0
C4366 C 0.00894 0.4293 0.97022 0.0
C4367 C 0.05469 0.43561 0.03016 0.0
H4368 H 1.0063 0.36502 0.99657 0.0
H4369 H 0.05191 0.38151 0.96506 0.0
H4370 H 0.01227 0.41244 0.02661 0.0
H4371 H 0.99536 0.40898 0.0061 0.0
H4372 H 0.99663 0.38848 0.01826 0.0
H4373 H 0.06854 0.41438 0.96764 0.0
H4374 H 0.05237 0.42981 0.96696 0.0
H4375 H 0.06716 0.43169 0.98881 0.0
H4376 H 0.01426 0.46854 0.98323 0.0
H4377 H 0.05378 0.47418 0.03286 0.0
H4378 H 0.99908 0.41658 0.97393 0.0
H4379 H 0.01749 0.42314 0.96001 0.0
H4380 H 1.00107 0.43823 0.96272 0.0
H4381 H 0.04576 0.42294 0.03504 0.0
H4382 H 0.06194 0.44661 0.04309 0.0
H4383 H 0.06505 0.42977 0.02237 0.0
C4384 C 0.97318 0.77242 0.1604 0.0
C4385 C 0.98809 0.78879 0.16753 0.0
C4386 C 0.9568 0.76963 0.16899 0.0
C4387 C 0.95507 0.78365 0.18501 0.0
C4388 C 0.97 0.80019 0.19224 0.0
C4389 C 0.98627 0.80249 0.18353 0.0
C4390 C 0.94129 0.75175 0.16082 0.0
C4391 C 0.96878 0.81554 0.20925 0.0
C4392 C 0.90823 0.78964 0.19811 0.0
C4393 C 0.90665 0.78069 0.2146 0.0
C4394 C 0.92354 0.79007 0.18794 0.0
C4395 C 0.9377 0.78126 0.19426 0.0
C4396 C 0.93579 0.77137 0.2103 0.0
C4397 C 0.92037 0.77126 0.22029 0.0
C4398 C 0.92487 0.80059 0.17081 0.0
C4399 C 0.95038 0.76153 0.21739 0.0
H4400 H 0.97418 0.76186 0.14787 0.0
H4401 H 0.9977 0.815 0.18946 0.0
H4402 H 0.93697 0.74338 0.17242 0.0
H4403 H 0.92919 0.75661 0.15493 0.0
H4404 H 0.94517 0.74159 0.1491 0.0
H4405 H 0.98151 0.82764 0.21306 0.0
H4406 H 0.95703 0.82215 0.20592 0.0
H4407 H 0.96623 0.80844 0.22207 0.0
H4408 H 0.89757 0.79659 0.19328 0.0
H4409 H 0.91945 0.76441 0.23303 0.0
H4410 H 0.92738 0.7907 0.15803 0.0
H4411 H 0.93671 0.81373 0.17412 0.0
H4412 H 0.91222 0.8056 0.16696 0.0
H4413 H 0.95354 0.75131 0.20525 0.0
H4414 H 0.94616 0.75303 0.22896 0.0
H4415 H 0.96325 0.77294 0.22316 0.0
C4416 C 0.50913 0.35113 0.08605 0.0
C4417 C 0.52175 0.34738 0.10003 0.0
C4418 C 0.51372 0.36763 0.07703 0.0
C4419 C 0.53153 0.38035 0.08171 0.0
C4420 C 0.54423 0.37696 0.09607 0.0
C4421 C 0.53908 0.36067 0.10529 0.0
C4422 C 0.4997 0.37106 0.062 0.0
C4423 C 0.56343 0.39011 0.1012 0.0
C4424 C 0.54563 0.40596 0.04038 0.0
C4425 C 0.54172 0.42445 0.04594 0.0
C4426 C 0.54356 0.39191 0.05257 0.0
C4427 C 0.53708 0.39635 0.07054 0.0
C4428 C 0.53408 0.41535 0.07673 0.0
C4429 C 0.5366 0.42927 0.06438 0.0
C4430 C 0.54732 0.37192 0.04572 0.0
C4431 C 0.52712 0.42057 0.0958 0.0
H4432 H 0.49582 0.34087 0.08168 0.0
H4433 H 0.54875 0.35822 0.11646 0.0
H4434 H 0.49818 0.38652 0.06525 0.0
H4435 H 0.50445 0.36896 0.04755 0.0
H4436 H 0.486 0.36078 0.06124 0.0
H4437 H 0.57151 0.38568 0.11302 0.0
H4438 H 0.57083 0.38948 0.08828 0.0
H4439 H 0.56286 0.40576 0.1057 0.0
H4440 H 0.54952 0.4021 0.02614 0.0
H4441 H 0.53407 0.44376 0.06897 0.0
H4442 H 0.53414 0.36049 0.04215 0.0
H4443 H 0.55576 0.36761 0.05731 0.0
H4444 H 0.55456 0.37178 0.03267 0.0
H4445 H 0.51253 0.41247 0.09487 0.0
H4446 H 0.52801 0.43671 0.09966 0.0
H4447 H 0.53496 0.41596 0.10764 0.0
C4448 C 0.99752 0.29052 0.29409 0.0
C4449 C 1.00135 0.2914 0.31404 0.0
C4450 C 0.97986 0.29046 0.28583 0.0
C4451 C 0.96605 0.29182 0.29796 0.0
C4452 C 0.96963 0.2916 0.31795 0.0
C4453 C 0.98726 0.29125 0.32574 0.0
C4454 C 0.97629 0.29021 0.26438 0.0
C4455 C 0.95531 0.29336 0.33141 0.0
C4456 C 0.93078 0.32048 0.28708 0.0
C4457 C 0.91475 0.30528 0.28217 0.0
C4458 C 0.94779 0.31617 0.29132 0.0
C4459 C 0.9487 0.29615 0.29046 0.0
C4460 C 0.93271 0.28067 0.28441 0.0
C4461 C 0.91583 0.28544 0.28038 0.0
C4462 C 0.96458 0.3331 0.29794 0.0
C4463 C 0.93325 0.25917 0.28319 0.0
H4464 H 0.00848 0.29054 0.28511 0.0
H4465 H 0.99035 0.29218 0.34122 0.0
H4466 H 0.96308 0.27961 0.25805 0.0
H4467 H 0.97517 0.30512 0.26187 0.0
H4468 H 0.98749 0.2861 0.25662 0.0
H4469 H 0.95983 0.29124 0.34622 0.0
H4470 H 0.95244 0.30828 0.33242 0.0
H4471 H 0.94222 0.2823 0.3257 0.0
H4472 H 0.92989 0.33582 0.28866 0.0
H4473 H 0.90339 0.27368 0.27634 0.0
H4474 H 0.97588 0.33097 0.2894 0.0
H4475 H 0.96953 0.33344 0.31332 0.0
H4476 H 0.96171 0.3477 0.29656 0.0
H4477 H 0.94474 0.25604 0.2754 0.0
H4478 H 0.92019 0.24896 0.27576 0.0
H4479 H 0.9357 0.25594 0.29798 0.0
C4480 C 0.99157 0.64997 0.57135 0.0
C4481 C 1.00387 0.65945 0.588 0.0
C4482 C 0.99481 0.63373 0.55918 0.0
C4483 C 0.01101 0.62731 0.56344 0.0
C4484 C 0.02326 0.63646 0.58037 0.0
C4485 C 0.0193 0.6521 0.59269 0.0
C4486 C 0.98118 0.62379 0.54149 0.0
C4487 C 0.0408 0.6301 0.58522 0.0
C4488 C 0.01353 0.57637 0.5393 0.0
C4489 C 0.0236 0.58095 0.52427 0.0
C4490 C 0.00961 0.59138 0.55249 0.0
C4491 C 0.01539 0.61129 0.54994 0.0
C4492 C 0.0255 0.61593 0.53456 0.0
C4493 C 0.02968 0.6006 0.52196 0.0
C4494 C 0.99923 0.58588 0.56899 0.0
C4495 C 0.0319 0.63704 0.53148 0.0
H4496 H 0.9797 0.65557 0.56745 0.0
H4497 H 0.02856 0.65879 0.60586 0.0
H4498 H 0.98761 0.62628 0.52825 0.0
H4499 H 0.97722 0.60753 0.54106 0.0
H4500 H 0.96854 0.62949 0.54113 0.0
H4501 H 0.04876 0.63865 0.59911 0.0
H4502 H 0.03764 0.6141 0.58613 0.0
H4503 H 0.04961 0.63216 0.57354 0.0
H4504 H 0.00904 0.56109 0.54093 0.0
H4505 H 0.03754 0.6039 0.51021 0.0
H4506 H 0.98509 0.58799 0.56637 0.0
H4507 H 1.0059 0.59559 0.58286 0.0
H4508 H 0.99836 0.57023 0.5706 0.0
H4509 H 0.01985 0.64335 0.52866 0.0
H4510 H 0.04004 0.63812 0.51914 0.0
H4511 H 0.04044 0.64632 0.54473 0.0
C4512 C 0.66473 0.81193 0.80077 0.0
C4513 C 0.66998 0.8215 0.82002 0.0
C4514 C 0.678 0.80898 0.7887 0.0
C4515 C 0.69678 0.81533 0.79639 0.0
C4516 C 0.7021 0.82592 0.81558 0.0
C4517 C 0.68855 0.82907 0.82715 0.0
C4518 C 0.67191 0.79805 0.76818 0.0
C4519 C 0.72203 0.83255 0.82438 0.0
C4520 C 0.73063 0.78602 0.78082 0.0
C4521 C 0.7423 0.79958 0.77215 0.0
C4522 C 0.71502 0.79051 0.78783 0.0
C4523 C 0.71082 0.80874 0.78555 0.0
C4524 C 0.72163 0.82166 0.77521 0.0
C4525 C 0.73753 0.81707 0.76887 0.0
C4526 C 0.704 0.77651 0.79913 0.0
C4527 C 0.71704 0.84083 0.77188 0.0
H4528 H 0.65025 0.80622 0.79537 0.0
H4529 H 0.69243 0.83634 0.84213 0.0
H4530 H 0.68059 0.80516 0.75808 0.0
H4531 H 0.67345 0.78261 0.76713 0.0
H4532 H 0.65729 0.79749 0.76341 0.0
H4533 H 0.72384 0.84161 0.83909 0.0
H4534 H 0.72765 0.81936 0.82541 0.0
H4535 H 0.7303 0.84137 0.81508 0.0
H4536 H 0.73438 0.77251 0.78337 0.0
H4537 H 0.74648 0.82739 0.76187 0.0
H4538 H 0.68914 0.77319 0.79376 0.0
H4539 H 0.70581 0.78364 0.81457 0.0
H4540 H 0.70829 0.7623 0.79827 0.0
H4541 H 0.70211 0.83838 0.76711 0.0
H4542 H 0.72488 0.84742 0.76089 0.0
H4543 H 0.72039 0.85169 0.78562 0.0
C4544 C 0.49636 0.56473 0.6574 0.0
C4545 C 0.47801 0.55454 0.6584 0.0
C4546 C 0.50483 0.56331 0.63992 0.0
C4547 C 0.49512 0.55135 0.62221 0.0
C4548 C 0.47667 0.54104 0.62306 0.0
C4549 C 0.46852 0.54273 0.6407 0.0
C4550 C 0.52442 0.57472 0.64048 0.0
C4551 C 0.46535 0.52801 0.6051 0.0
C4552 C 0.51193 0.5611 0.57229 0.0
C4553 C 0.52189 0.54659 0.56745 0.0
C4554 C 0.50312 0.56262 0.58954 0.0
C4555 C 0.50415 0.54952 0.60305 0.0
C4556 C 0.5141 0.53476 0.5981 0.0
C4557 C 0.52284 0.53365 0.58082 0.0
C4558 C 0.49314 0.57886 0.59364 0.0
C4559 C 0.51607 0.52032 0.61145 0.0
H4560 H 0.50444 0.57376 0.67047 0.0
H4561 H 0.45438 0.53484 0.64038 0.0
H4562 H 0.53309 0.56437 0.63603 0.0
H4563 H 0.5251 0.58509 0.63003 0.0
H4564 H 0.53034 0.58335 0.65509 0.0
H4565 H 0.45132 0.52079 0.60776 0.0
H4566 H 0.46415 0.53695 0.59358 0.0
H4567 H 0.47232 0.51633 0.59958 0.0
H4568 H 0.51154 0.57185 0.56286 0.0
H4569 H 0.53098 0.52283 0.57804 0.0
H4570 H 0.50012 0.58931 0.607 0.0
H4571 H 0.47888 0.57251 0.59623 0.0
H4572 H 0.49263 0.5873 0.58159 0.0
H4573 H 0.52419 0.52844 0.62538 0.0
H4574 H 0.52299 0.50885 0.60521 0.0
H4575 H 0.50235 0.51284 0.61468 0.0
C4576 C 0.75504 0.21508 0.94367 0.0
C4577 C 0.76832 0.20395 0.94309 0.0
C4578 C 0.75045 0.22362 0.92789 0.0
C4579 C 0.75939 0.22089 0.91127 0.0
C4580 C 0.77275 0.20953 0.91055 0.0
C4581 C 0.77711 0.20119 0.9266 0.0
C4582 C 0.73637 0.23595 0.92917 0.0
C4583 C 0.78263 0.20651 0.89301 0.0
C4584 C 0.74024 0.23382 0.86473 0.0
C4585 C 0.75094 0.25312 0.86607 0.0
C4586 C 0.74254 0.22309 0.87961 0.0
C4587 C 0.75621 0.23181 0.8956 0.0
C4588 C 0.76694 0.2513 0.89694 0.0
C4589 C 0.76395 0.26181 0.88227 0.0
C4590 C 0.7308 0.20234 0.87804 0.0
C4591 C 0.7821 0.2608 0.91344 0.0
H4592 H 0.74838 0.21724 0.95657 0.0
H4593 H 0.78721 0.19231 0.9262 0.0
H4594 H 0.74294 0.25155 0.92843 0.0
H4595 H 0.72535 0.23041 0.91671 0.0
H4596 H 0.73001 0.23574 0.94278 0.0
H4597 H 0.79251 0.19709 0.89478 0.0
H4598 H 0.77253 0.19944 0.88003 0.0
H4599 H 0.79022 0.22104 0.89023 0.0
H4600 H 0.73054 0.22701 0.85188 0.0
H4601 H 0.77271 0.27646 0.88288 0.0
H4602 H 0.72369 0.20118 0.89109 0.0
H4603 H 0.7396 0.19158 0.8774 0.0
H4604 H 0.72033 0.19802 0.86502 0.0
H4605 H 0.77639 0.26154 0.92742 0.0
H4606 H 0.78933 0.27602 0.91205 0.0
H4607 H 0.79236 0.25166 0.914 0.0
C4608 C 0.09512 0.55118 0.15291 0.0
C4609 C 0.11252 0.54737 0.15259 0.0
C4610 C 0.08399 0.55001 0.13567 0.0
C4611 C 0.09051 0.54463 0.11793 0.0
C4612 C 0.10829 0.5411 0.11759 0.0
C4613 C 0.11923 0.54263 0.13512 0.0
C4614 C 0.06518 0.55416 0.13645 0.0
C4615 C 0.11548 0.53519 0.09881 0.0
C4616 C 0.05319 0.52353 0.07587 0.0
C4617 C 0.05403 0.54002 0.06691 0.0
C4618 C 0.06562 0.52457 0.09219 0.0
C4619 C 0.07857 0.54269 0.09977 0.0
C4620 C 0.07935 0.55938 0.09071 0.0
C4621 C 0.06717 0.55773 0.07412 0.0
C4622 C 0.06488 0.50638 0.10134 0.0
C4623 C 0.09272 0.57905 0.09876 0.0
H4624 H 0.09016 0.55477 0.16667 0.0
H4625 H 0.13274 0.53954 0.13523 0.0
H4626 H 0.06369 0.56587 0.12793 0.0
H4627 H 0.05442 0.54063 0.12987 0.0
H4628 H 0.0626 0.55899 0.15149 0.0
H4629 H 0.12978 0.53341 0.10114 0.0
H4630 H 0.10652 0.52098 0.0908 0.0
H4631 H 0.11514 0.54647 0.08946 0.0
H4632 H 0.04316 0.50978 0.06985 0.0
H4633 H 0.0677 0.5704 0.06694 0.0
H4634 H 0.06071 0.50906 0.11602 0.0
H4635 H 0.0787 0.50325 0.10302 0.0
H4636 H 0.05502 0.49306 0.09269 0.0
H4637 H 0.08983 0.58476 0.11342 0.0
H4638 H 0.0919 0.59035 0.0895 0.0
H4639 H 0.107 0.57716 0.10024 0.0
C4640 C 0.80623 0.80977 0.42239 0.0
C4641 C 0.79567 0.82301 0.42887 0.0
C4642 C 0.80638 0.80334 0.40253 0.0
C4643 C 0.79595 0.81058 0.38877 0.0
C4644 C 0.78479 0.82343 0.39522 0.0
C4645 C 0.78471 0.8294 0.41516 0.0
C4646 C 0.81804 0.78919 0.39627 0.0
C4647 C 0.77349 0.83155 0.38107 0.0
C4648 C 0.81189 0.81301 0.33918 0.0
C4649 C 0.79865 0.79758 0.32736 0.0
C4650 C 0.81121 0.81734 0.35922 0.0
C4651 C 0.79734 0.80551 0.36768 0.0
C4652 C 0.78443 0.78934 0.35582 0.0
C4653 C 0.78505 0.78581 0.33577 0.0
C4654 C 0.82493 0.83502 0.37125 0.0
C4655 C 0.76982 0.77594 0.36427 0.0
H4656 H 0.81456 0.80459 0.43291 0.0
H4657 H 0.77666 0.83978 0.42003 0.0
H4658 H 0.80974 0.77636 0.38555 0.0
H4659 H 0.82943 0.79677 0.38912 0.0
H4660 H 0.82404 0.78358 0.40865 0.0
H4661 H 0.76498 0.84074 0.38837 0.0
H4662 H 0.78273 0.84076 0.3728 0.0
H4663 H 0.76427 0.81925 0.37046 0.0
H4664 H 0.82227 0.82224 0.33263 0.0
H4665 H 0.77486 0.77378 0.3266 0.0
H4666 H 0.83261 0.83033 0.38316 0.0
H4667 H 0.81758 0.84582 0.37797 0.0
H4668 H 0.83494 0.84262 0.36255 0.0
H4669 H 0.77628 0.76983 0.37598 0.0
H4670 H 0.76144 0.76341 0.35323 0.0
H4671 H 0.76051 0.78454 0.37081 0.0
C4672 C 0.47388 0.54709 0.8731 0.0
C4673 C 0.48353 0.55872 0.8609 0.0
C4674 C 0.48204 0.54534 0.89163 0.0
C4675 C 0.50069 0.55511 0.89867 0.0
C4676 C 0.51058 0.56683 0.88644 0.0
C4677 C 0.50196 0.56862 0.86807 0.0
C4678 C 0.47052 0.53296 0.90381 0.0
C4679 C 0.53052 0.57727 0.89261 0.0
C4680 C 0.51734 0.56356 0.95422 0.0
C4681 C 0.52511 0.54734 0.95634 0.0
C4682 C 0.50967 0.56637 0.93584 0.0
C4683 C 0.50972 0.55285 0.91857 0.0
C4684 C 0.51796 0.53674 0.92058 0.0
C4685 C 0.52531 0.53413 0.93915 0.0
C4686 C 0.50118 0.58378 0.93499 0.0
C4687 C 0.51899 0.52204 0.90299 0.0
H4688 H 0.45964 0.53948 0.86829 0.0
H4689 H 0.5099 0.57752 0.85908 0.0
H4690 H 0.47662 0.5205 0.90653 0.0
H4691 H 0.47038 0.54207 0.91809 0.0
H4692 H 0.45612 0.5268 0.89683 0.0
H4693 H 0.53633 0.58621 0.88194 0.0
H4694 H 0.53212 0.58717 0.9068 0.0
H4695 H 0.53869 0.56618 0.89446 0.0
H4696 H 0.51697 0.57404 0.96706 0.0
H4697 H 0.53125 0.52157 0.94014 0.0
H4698 H 0.48645 0.5784 0.92895 0.0
H4699 H 0.50801 0.59317 0.92519 0.0
H4700 H 0.50225 0.59312 0.94945 0.0
H4701 H 0.50492 0.51408 0.89611 0.0
H4702 H 0.52662 0.51095 0.90657 0.0
H4703 H 0.52585 0.52994 0.89216 0.0
C4704 C 0.77095 0.21219 0.13124 0.0
C4705 C 0.78425 0.21653 0.1188 0.0
C4706 C 0.77146 0.22509 0.14858 0.0
C4707 C 0.78592 0.24238 0.15378 0.0
C4708 C 0.79898 0.24722 0.14102 0.0
C4709 C 0.79783 0.23435 0.12352 0.0
C4710 C 0.75711 0.21968 0.16176 0.0
C4711 C 0.81482 0.26534 0.14634 0.0
C4712 C 0.78527 0.28195 0.19652 0.0
C4713 C 0.79502 0.27565 0.21119 0.0
C4714 C 0.78176 0.27098 0.17766 0.0
C4715 C 0.78881 0.25392 0.17356 0.0
C4716 C 0.79896 0.24782 0.18838 0.0
C4717 C 0.80167 0.25861 0.20712 0.0
C4718 C 0.77035 0.27739 0.16223 0.0
C4719 C 0.8071 0.22999 0.18447 0.0
H4720 H 0.76049 0.19839 0.12782 0.0
H4721 H 0.80783 0.23808 0.11373 0.0
H4722 H 0.76335 0.21474 0.17443 0.0
H4723 H 0.7519 0.23277 0.16732 0.0
H4724 H 0.7453 0.20755 0.15432 0.0
H4725 H 0.823 0.26776 0.1342 0.0
H4726 H 0.80973 0.27877 0.15086 0.0
H4727 H 0.82406 0.26363 0.15883 0.0
H4728 H 0.78002 0.29507 0.19993 0.0
H4729 H 0.80931 0.2539 0.2186 0.0
H4730 H 0.75824 0.26512 0.15592 0.0
H4731 H 0.77849 0.28078 0.1503 0.0
H4732 H 0.76546 0.29067 0.16795 0.0
H4733 H 0.796 0.2164 0.17922 0.0
H4734 H 0.81525 0.22779 0.19756 0.0
H4735 H 0.81616 0.23172 0.17296 0.0
C4736 C 0.12672 0.57908 0.34189 0.0
C4737 C 0.11283 0.56273 0.33255 0.0
C4738 C 0.12603 0.58801 0.36086 0.0
C4739 C 0.11125 0.57996 0.37053 0.0
C4740 C 0.09666 0.56401 0.36053 0.0
C4741 C 0.09769 0.55562 0.34156 0.0
C4742 C 0.14157 0.60525 0.37054 0.0
C4743 C 0.08046 0.55486 0.37009 0.0
C4744 C 0.10859 0.56847 0.41856 0.0
C4745 C 0.09324 0.57591 0.42229 0.0
C4746 C 0.11825 0.57359 0.40339 0.0
C4747 C 0.11175 0.58578 0.39161 0.0
C4748 C 0.0995 0.59706 0.39836 0.0
C4749 C 0.09006 0.5918 0.41374 0.0
C4750 C 0.13263 0.5627 0.39762 0.0
C4751 C 0.09376 0.61173 0.38709 0.0
H4752 H 0.13839 0.5845 0.33454 0.0
H4753 H 0.08705 0.54298 0.33399 0.0
H4754 H 0.13797 0.61388 0.38354 0.0
H4755 H 0.15371 0.59962 0.37487 0.0
H4756 H 0.14571 0.61536 0.3602 0.0
H4757 H 0.07014 0.54311 0.3599 0.0
H4758 H 0.08529 0.54809 0.38217 0.0
H4759 H 0.07348 0.56633 0.37605 0.0
H4760 H 0.11144 0.55663 0.42557 0.0
H4761 H 0.0786 0.59817 0.41707 0.0
H4762 H 0.14386 0.57252 0.39205 0.0
H4763 H 0.12627 0.54985 0.38593 0.0
H4764 H 0.1386 0.55707 0.41 0.0
H4765 H 0.10528 0.6191 0.37994 0.0
H4766 H 0.08899 0.62315 0.39664 0.0
H4767 H 0.08222 0.60381 0.3757 0.0
C4768 C 0.7839 0.82288 0.62674 0.0
C4769 C 0.79958 0.83696 0.62408 0.0
C4770 C 0.78261 0.81537 0.64417 0.0
C4771 C 0.79736 0.82193 0.65947 0.0
C4772 C 0.81316 0.83616 0.65694 0.0
C4773 C 0.81405 0.8435 0.63943 0.0
C4774 C 0.76552 0.80016 0.64609 0.0
C4775 C 0.82926 0.84354 0.67274 0.0
C4776 C 0.78903 0.81381 0.71096 0.0
C4777 C 0.79564 0.79685 0.7123 0.0
C4778 C 0.78951 0.82218 0.69395 0.0
C4779 C 0.79666 0.81331 0.67778 0.0
C4780 C 0.80338 0.7962 0.67916 0.0
C4781 C 0.80283 0.78827 0.69633 0.0
C4782 C 0.78219 0.8404 0.6932 0.0
C4783 C 0.81106 0.78612 0.66242 0.0
H4784 H 0.77269 0.81742 0.61504 0.0
H4785 H 0.8261 0.8546 0.63788 0.0
H4786 H 0.76914 0.78609 0.64817 0.0
H4787 H 0.75939 0.80538 0.65904 0.0
H4788 H 0.755 0.79705 0.63319 0.0
H4789 H 0.84041 0.8549 0.66874 0.0
H4790 H 0.82465 0.85003 0.68623 0.0
H4791 H 0.83498 0.83097 0.67596 0.0
H4792 H 0.78321 0.82033 0.72308 0.0
H4793 H 0.80794 0.77512 0.69717 0.0
H4794 H 0.77046 0.83706 0.68151 0.0
H4795 H 0.79297 0.85247 0.68973 0.0
H4796 H 0.77752 0.84582 0.70708 0.0
H4797 H 0.80043 0.78125 0.64958 0.0
H4798 H 0.81583 0.77301 0.6658 0.0
H4799 H 0.82279 0.79672 0.65841 0.0
C4800 C 0.70622 0.46153 0.51442 0.0
C4801 C 0.72447 0.4718 0.52039 0.0
C4802 C 0.69198 0.47105 0.5173 0.0
C4803 C 0.69636 0.49133 0.52596 0.0
C4804 C 0.71487 0.50168 0.53216 0.0
C4805 C 0.72879 0.49166 0.52941 0.0
C4806 C 0.67234 0.45952 0.51089 0.0
C4807 C 0.71997 0.52337 0.54127 0.0
C4808 C 0.66273 0.5216 0.51395 0.0
C4809 C 0.65456 0.5235 0.53096 0.0
C4810 C 0.67635 0.51105 0.51212 0.0
C4811 C 0.68166 0.50204 0.52762 0.0
C4812 C 0.67324 0.50362 0.54473 0.0
C4813 C 0.65981 0.51452 0.54626 0.0
C4814 C 0.68524 0.50976 0.49375 0.0
C4815 C 0.67842 0.49384 0.56136 0.0
H4816 H 0.70314 0.44605 0.5076 0.0
H4817 H 0.74307 0.49937 0.534 0.0
H4818 H 0.66409 0.46079 0.52309 0.0
H4819 H 0.66611 0.46581 0.49919 0.0
H4820 H 0.67131 0.44356 0.5055 0.0
H4821 H 0.73503 0.52911 0.54548 0.0
H4822 H 0.71522 0.53223 0.53099 0.0
H4823 H 0.71299 0.52573 0.55433 0.0
H4824 H 0.65861 0.52864 0.50219 0.0
H4825 H 0.65321 0.5158 0.55929 0.0
H4826 H 0.68356 0.49402 0.48707 0.0
H4827 H 0.70022 0.51653 0.49714 0.0
H4828 H 0.67932 0.51741 0.48299 0.0
H4829 H 0.67699 0.47779 0.55621 0.0
H4830 H 0.6698 0.4956 0.57319 0.0
H4831 H 0.69303 0.50037 0.56735 0.0
C4832 C 0.17244 0.1176 0.48459 0.0
C4833 C 0.18548 0.12477 0.50118 0.0
C4834 C 0.15465 0.10623 0.48554 0.0
C4835 C 0.1495 0.10185 0.50353 0.0
C4836 C 0.16239 0.10942 0.52042 0.0
C4837 C 0.18014 0.12066 0.51905 0.0
C4838 C 0.14146 0.0985 0.46713 0.0
C4839 C 0.15765 0.1051 0.53992 0.0
C4840 C 0.09824 0.08114 0.50704 0.0
C4841 C 0.09684 0.06065 0.50353 0.0
C4842 C 0.11525 0.09482 0.50724 0.0
C4843 C 0.13132 0.08785 0.5043 0.0
C4844 C 0.12998 0.06716 0.50141 0.0
C4845 C 0.11283 0.05393 0.50085 0.0
C4846 C 0.11595 0.11669 0.51027 0.0
C4847 C 0.14666 0.05891 0.49867 0.0
H4848 H 0.1761 0.12092 0.47074 0.0
H4849 H 0.19 0.12579 0.532 0.0
H4850 H 0.13836 0.08206 0.46406 0.0
H4851 H 0.12827 0.10277 0.46883 0.0
H4852 H 0.14706 0.10417 0.45448 0.0
H4853 H 0.16847 0.11351 0.55189 0.0
H4854 H 0.14444 0.10883 0.5427 0.0
H4855 H 0.15586 0.08903 0.54007 0.0
H4856 H 0.08602 0.08646 0.50924 0.0
H4857 H 0.11199 0.03813 0.49836 0.0
H4858 H 0.12037 0.12281 0.49739 0.0
H4859 H 0.12627 0.12465 0.52282 0.0
H4860 H 0.10242 0.11979 0.51279 0.0
H4861 H 0.15221 0.06274 0.48533 0.0
H4862 H 0.14351 0.04254 0.49755 0.0
H4863 H 0.15765 0.06566 0.51097 0.0
C4864 C 0.20996 0.90117 0.75427 0.0
C4865 C 0.21693 0.91953 0.76715 0.0
C4866 C 0.21863 0.88476 0.75354 0.0
C4867 C 0.23518 0.88593 0.76585 0.0
C4868 C 0.24234 0.90439 0.77881 0.0
C4869 C 0.23333 0.92051 0.77934 0.0
C4870 C 0.20991 0.86592 0.7394 0.0
C4871 C 0.25979 0.90721 0.79231 0.0
C4872 C 0.24965 0.83692 0.7757 0.0
C4873 C 0.26399 0.83539 0.76428 0.0
C4874 C 0.24051 0.85297 0.77649 0.0
C4875 C 0.24498 0.86821 0.76512 0.0
C4876 C 0.25917 0.86641 0.75322 0.0
C4877 C 0.26853 0.85061 0.75324 0.0
C4878 C 0.22611 0.85377 0.78991 0.0
C4879 C 0.26447 0.88125 0.74017 0.0
H4880 H 0.19736 0.89937 0.74474 0.0
H4881 H 0.2395 0.9342 0.78931 0.0
H4882 H 0.21986 0.8623 0.72957 0.0
H4883 H 0.20624 0.8534 0.7473 0.0
H4884 H 0.19731 0.86703 0.73056 0.0
H4885 H 0.26369 0.92202 0.8018 0.0
H4886 H 0.25812 0.89562 0.80151 0.0
H4887 H 0.27123 0.90549 0.78383 0.0
H4888 H 0.24584 0.82573 0.78456 0.0
H4889 H 0.27941 0.85004 0.74425 0.0
H4890 H 0.21271 0.85302 0.78148 0.0
H4891 H 0.22991 0.86809 0.80019 0.0
H4892 H 0.22438 0.84148 0.79829 0.0
H4893 H 0.2522 0.88158 0.73035 0.0
H4894 H 0.27519 0.8778 0.73128 0.0
H4895 H 0.26969 0.89633 0.74894 0.0
C4896 C 0.40849 0.00805 0.04008 0.0
C4897 C 0.39701 0.98913 0.03393 0.0
C4898 C 0.42731 0.01126 0.03842 0.0
C4899 C 0.43427 0.99523 0.03002 0.0
C4900 C 0.42268 0.97607 0.02421 0.0
C4901 C 0.40415 0.97326 0.02627 0.0
C4902 C 0.43961 0.03179 0.04501 0.0
C4903 C 0.42967 0.95873 0.01502 0.0
C4904 C 0.47472 1.0066 1.00263 0.0
C4905 C 0.48907 1.00558 0.01619 0.0
C4906 C 0.45676 1.00346 0.00713 0.0
C4907 C 0.45319 0.99869 0.02539 0.0
C4908 C 0.46746 0.99642 0.03867 0.0
C4909 C 0.48538 1.00013 0.03396 0.0
C4910 C 0.44175 1.00599 0.99264 0.0
C4911 C 0.46403 0.99095 0.05812 0.0
H4912 H 0.40274 0.0202 0.04593 0.0
H4913 H 0.39503 0.9587 0.02125 0.0
H4914 H 0.45173 0.03117 0.0549 0.0
H4915 H 0.44483 0.03775 0.03235 0.0
H4916 H 0.43234 0.04223 0.05258 0.0
H4917 H 0.41901 0.94454 0.0125 0.0
H4918 H 0.4342 0.96142 1.00092 0.0
H4919 H 0.44176 0.95715 0.02434 0.0
H4920 H 0.47765 0.01117 0.98901 0.0
H4921 H 0.4966 0.99951 0.04448 0.0
H4922 H 0.43554 0.01799 0.99905 0.0
H4923 H 0.43066 0.99217 0.98896 0.0
H4924 H 0.44693 0.00971 0.97907 0.0
H4925 H 0.46225 1.00411 0.06796 0.0
H4926 H 0.47571 0.9859 0.06479 0.0
H4927 H 0.45131 0.97904 0.05689 0.0
C4928 C 0.87943 0.62304 0.74862 0.0
C4929 C 0.87638 0.6118 0.76334 0.0
C4930 C 0.86721 0.63428 0.74341 0.0
C4931 C 0.85191 0.63468 0.75356 0.0
C4932 C 0.84856 0.62313 0.7682 0.0
C4933 C 0.86077 0.61166 0.7728 0.0
C4934 C 0.87103 0.6462 0.72751 0.0
C4935 C 0.83237 0.62334 0.77939 0.0
C4936 C 0.83244 0.67974 0.76027 0.0
C4937 C 0.81558 0.67281 0.74836 0.0
C4938 C 0.84487 0.66775 0.76133 0.0
C4939 C 0.84025 0.64844 0.75016 0.0
C4940 C 0.82377 0.64184 0.73715 0.0
C4941 C 0.81154 0.65419 0.73641 0.0
C4942 C 0.86246 0.67535 0.77519 0.0
C4943 C 0.81864 0.62142 0.7248 0.0
H4944 H 0.89156 0.62336 0.74137 0.0
H4945 H 0.85807 0.60259 0.78383 0.0
H4946 H 0.85827 0.64464 0.7176 0.0
H4947 H 0.87614 0.66213 0.73394 0.0
H4948 H 0.88152 0.6416 0.71892 0.0
H4949 H 0.83127 0.61282 0.78973 0.0
H4950 H 0.83373 0.63848 0.78762 0.0
H4951 H 0.81939 0.61949 0.76932 0.0
H4952 H 0.83569 0.69439 0.76915 0.0
H4953 H 0.79851 0.64896 0.72713 0.0
H4954 H 0.87445 0.67331 0.76777 0.0
H4955 H 0.86197 0.66672 0.78715 0.0
H4956 H 0.86468 0.6913 0.78153 0.0
H4957 H 0.83047 0.61831 0.71762 0.0
H4958 H 0.80678 0.61968 0.71355 0.0
H4959 H 0.81492 0.61013 0.73408 0.0
C4960 C 0.8807 0.64842 0.02468 0.0
C4961 C 0.86467 0.63841 0.01209 0.0
C4962 C 0.89597 0.63997 0.02671 0.0
C4963 C 0.89524 0.62098 0.01596 0.0
C4964 C 0.87897 0.61068 1.00353 0.0
C4965 C 0.86398 0.6195 1.00171 0.0
C4966 C 0.913 0.65153 0.0401 0.0
C4967 C 0.87744 0.59032 0.99196 0.0
C4968 C 0.9385 0.60461 1.00336 0.0
C4969 C 0.94006 0.59124 0.01599 0.0
C4970 C 0.92448 0.61496 1.00376 0.0
C4971 C 0.91157 0.61198 0.0171 0.0
C4972 C 0.91355 0.59923 0.0305 0.0
C4973 C 0.92771 0.58903 0.02977 0.0
C4974 C 0.92312 0.62861 0.9894 0.0
C4975 C 0.90026 0.59574 0.04512 0.0
H4976 H 0.8815 0.6631 0.03266 0.0
H4977 H 0.85159 0.61148 0.99219 0.0
H4978 H 0.9169 0.6425 0.05065 0.0
H4979 H 0.92467 0.65503 0.03164 0.0
H4980 H 0.91108 0.66563 0.04819 0.0
H4981 H 0.86372 0.58404 0.9833 0.0
H4982 H 0.88808 0.59106 0.982 0.0
H4983 H 0.87998 0.58003 1.00179 0.0
H4984 H 0.94817 0.60683 0.99294 0.0
H4985 H 0.92864 0.57871 0.03955 0.0
H4986 H 0.92248 0.64343 0.99699 0.0
H4987 H 0.91025 0.62259 0.97922 0.0
H4988 H 0.93493 0.63044 0.9809 0.0
H4989 H 0.89891 0.61008 0.05319 0.0
H4990 H 0.90461 0.58689 0.05566 0.0
H4991 H 0.88645 0.58774 0.03754 0.0
C4992 C 0.21855 0.14351 0.78243 0.0
C4993 C 0.22326 0.12697 0.77184 0.0
C4994 C 0.22754 0.16351 0.7816 0.0
C4995 C 0.24212 0.16778 0.77015 0.0
C4996 C 0.2469 0.15118 0.75937 0.0
C4997 C 0.23749 0.13133 0.76021 0.0
C4998 C 0.2214 0.18021 0.79316 0.0
C4999 C 0.26236 0.15436 0.74713 0.0
C5000 C 0.25884 0.22077 0.75705 0.0
C5001 C 0.27438 0.22966 0.77089 0.0
C5002 C 0.24824 0.201 0.75666 0.0
C5003 C 0.25303 0.18933 0.77036 0.0
C5004 C 0.26859 0.1984 0.78439 0.0
C5005 C 0.27884 0.21808 0.78449 0.0
C5006 C 0.23186 0.1925 0.7414 0.0
C5007 C 0.27467 0.18717 0.79937 0.0
H5008 H 0.20753 0.14086 0.79129 0.0
H5009 H 0.24166 0.11911 0.75199 0.0
H5010 H 0.23284 0.18915 0.8042 0.0
H5011 H 0.21775 0.19024 0.78354 0.0
H5012 H 0.20936 0.17477 0.80058 0.0
H5013 H 0.26419 0.1402 0.73908 0.0
H5014 H 0.25972 0.16394 0.7366 0.0
H5015 H 0.27541 0.16216 0.75646 0.0
H5016 H 0.25503 0.2292 0.74637 0.0
H5017 H 0.29067 0.22441 0.79536 0.0
H5018 H 0.21935 0.1877 0.74834 0.0
H5019 H 0.23396 0.17917 0.73209 0.0
H5020 H 0.22944 0.20333 0.73212 0.0
H5021 H 0.26337 0.18269 0.80806 0.0
H5022 H 0.28699 0.19605 0.80933 0.0
H5023 H 0.27787 0.17339 0.79213 0.0
C5024 C 0.33314 0.93911 0.26033 0.0
C5025 C 0.34868 0.93813 0.25104 0.0
C5026 C 0.31991 0.92186 0.26073 0.0
C5027 C 0.32246 0.90363 0.2514 0.0
C5028 C 0.33619 0.90318 0.23896 0.0
C5029 C 0.34938 0.92062 0.23906 0.0
C5030 C 0.30502 0.92292 0.27353 0.0
C5031 C 0.33878 0.88394 0.22808 0.0
C5032 C 0.32136 0.86094 0.27726 0.0
C5033 C 0.30742 0.84675 0.26522 0.0
C5034 C 0.3254 0.88043 0.274 0.0
C5035 C 0.31484 0.88545 0.25861 0.0
C5036 C 0.29928 0.8716 0.24811 0.0
C5037 C 0.29591 0.85214 0.25134 0.0
C5038 C 0.3421 0.89498 0.28564 0.0
C5039 C 0.28728 0.87668 0.23224 0.0
H5040 H 0.33236 0.95298 0.26899 0.0
H5041 H 0.36126 0.91999 0.23156 0.0
H5042 H 0.29249 0.91089 0.26816 0.0
H5043 H 0.31009 0.92128 0.28832 0.0
H5044 H 0.30132 0.93746 0.27459 0.0
H5045 H 0.34756 0.88647 0.21642 0.0
H5046 H 0.3455 0.87632 0.23828 0.0
H5047 H 0.32538 0.87389 0.22157 0.0
H5048 H 0.33 0.85646 0.28807 0.0
H5049 H 0.28483 0.84094 0.24237 0.0
H5050 H 0.33878 0.9093 0.29094 0.0
H5051 H 0.35316 0.89792 0.27631 0.0
H5052 H 0.34751 0.88929 0.29827 0.0
H5053 H 0.2863 0.89233 0.2355 0.0
H5054 H 0.2732 0.86684 0.22996 0.0
H5055 H 0.29329 0.87458 0.2185 0.0
C5056 C 0.58126 0.41267 0.56663 0.0
C5057 C 0.56726 0.39522 0.56432 0.0
C5058 C 0.57851 0.42919 0.55868 0.0
C5059 C 0.56137 0.42835 0.54799 0.0
C5060 C 0.54736 0.41058 0.54511 0.0
C5061 C 0.55044 0.39433 0.55335 0.0
C5062 C 0.59381 0.4478 0.56222 0.0
C5063 C 0.52899 0.40881 0.53357 0.0
C5064 C 0.54768 0.47734 0.54604 0.0
C5065 C 0.55239 0.48139 0.52807 0.0
C5066 C 0.55039 0.46011 0.55258 0.0
C5067 C 0.55782 0.44641 0.54076 0.0
C5068 C 0.56225 0.45031 0.52235 0.0
C5069 C 0.55961 0.46784 0.51629 0.0
C5070 C 0.54551 0.45671 0.57229 0.0
C5071 C 0.56989 0.43603 0.50912 0.0
H5072 H 0.59425 0.41367 0.57518 0.0
H5073 H 0.53961 0.38085 0.55114 0.0
H5074 H 0.59702 0.45231 0.54828 0.0
H5075 H 0.58935 0.46011 0.57078 0.0
H5076 H 0.60657 0.44588 0.57012 0.0
H5077 H 0.51994 0.39365 0.53164 0.0
H5078 H 0.52187 0.41948 0.54097 0.0
H5079 H 0.53098 0.41265 0.51909 0.0
H5080 H 0.54207 0.48785 0.55512 0.0
H5081 H 0.56317 0.47096 0.50234 0.0
H5082 H 0.55792 0.45585 0.58156 0.0
H5083 H 0.53529 0.44236 0.57095 0.0
H5084 H 0.53975 0.46868 0.57965 0.0
H5085 H 0.58357 0.43529 0.51585 0.0
H5086 H 0.57138 0.44045 0.49477 0.0
H5087 H 0.56081 0.42089 0.50694 0.0
C5088 C 0.40663 0.77645 0.36141 0.0
C5089 C 0.4214 0.77247 0.35182 0.0
C5090 C 0.39048 0.77907 0.35126 0.0
C5091 C 0.38879 0.77774 0.33086 0.0
C5092 C 0.40352 0.77353 0.32106 0.0
C5093 C 0.41949 0.77096 0.33156 0.0
C5094 C 0.37531 0.78362 0.36245 0.0
C5095 C 0.40246 0.77181 0.29937 0.0
C5096 C 0.34116 0.76867 0.30108 0.0
C5097 C 0.34117 0.78746 0.29657 0.0
C5098 C 0.35636 0.76532 0.31234 0.0
C5099 C 0.37191 0.78122 0.31977 0.0
C5100 C 0.37158 0.8004 0.31589 0.0
C5101 C 0.35645 0.80319 0.30413 0.0
C5102 C 0.35607 0.74454 0.31562 0.0
C5103 C 0.38745 0.81797 0.32383 0.0
H5104 H 0.40781 0.77797 0.37702 0.0
H5105 H 0.43047 0.76756 0.32375 0.0
H5106 H 0.373 0.79826 0.36038 0.0
H5107 H 0.36226 0.77241 0.35691 0.0
H5108 H 0.37848 0.78385 0.37818 0.0
H5109 H 0.41468 0.76771 0.29375 0.0
H5110 H 0.38996 0.76049 0.29224 0.0
H5111 H 0.40136 0.78614 0.2952 0.0
H5112 H 0.32962 0.75634 0.29504 0.0
H5113 H 0.35662 0.81774 0.3007 0.0
H5114 H 0.35872 0.74437 0.33131 0.0
H5115 H 0.3672 0.73931 0.30869 0.0
H5116 H 0.34274 0.73394 0.30962 0.0
H5117 H 0.39062 0.81916 0.3397 0.0
H5118 H 0.38456 0.83212 0.32082 0.0
H5119 H 0.39992 0.81589 0.31732 0.0
C5120 C 0.061 0.69659 0.03395 0.0
C5121 C 0.06945 0.70469 0.05292 0.0
C5122 C 0.05854 0.6763 0.02652 0.0
C5123 C 0.0646 0.66384 0.03838 0.0
C5124 C 0.07344 0.67201 0.05737 0.0
C5125 C 0.07572 0.69227 0.0644 0.0
C5126 C 0.04913 0.66812 0.00616 0.0
C5127 C 0.07997 0.65922 0.07056 0.0
C5128 C 0.0415 0.60898 0.02997 0.0
C5129 C 0.05514 0.60048 0.02246 0.0
C5130 C 0.04425 0.62961 0.03481 0.0
C5131 C 0.06082 0.64206 0.0315 0.0
C5132 C 0.0743 0.63355 0.02307 0.0
C5133 C 0.07143 0.6128 0.01896 0.0
C5134 C 0.02974 0.63803 0.04425 0.0
C5135 C 0.09188 0.64635 0.0188 0.0
H5136 H 0.05627 0.7061 0.02492 0.0
H5137 H 0.08191 0.69825 0.0792 0.0
H5138 H 0.05764 0.6597 0.99789 0.0
H5139 H 0.0358 0.65764 0.00651 0.0
H5140 H 0.04648 0.67998 0.99832 0.0
H5141 H 0.08717 0.66799 0.08469 0.0
H5142 H 0.06806 0.64791 0.07326 0.0
H5143 H 0.08946 0.65118 0.06356 0.0
H5144 H 0.02894 0.59945 0.03282 0.0
H5145 H 0.0819 0.60621 0.01298 0.0
H5146 H 0.02553 0.64894 0.0361 0.0
H5147 H 0.03549 0.64599 0.05912 0.0
H5148 H 0.01733 0.62635 0.04512 0.0
H5149 H 0.08876 0.6575 0.01026 0.0
H5150 H 0.10018 0.63751 0.01066 0.0
H5151 H 0.1003 0.6546 0.03253 0.0
C5152 C 0.11288 0.30436 0.86215 0.0
C5153 C 0.10262 0.28536 0.8635 0.0
C5154 C 0.12945 0.307 0.85385 0.0
C5155 C 0.13599 0.29028 0.84648 0.0
C5156 C 0.12598 0.27114 0.84821 0.0
C5157 C 0.10957 0.26894 0.85672 0.0
C5158 C 0.13971 0.32771 0.85252 0.0
C5159 C 0.13243 0.25287 0.84073 0.0
C5160 C 0.16609 0.29254 0.80561 0.0
C5161 C 0.18371 0.29416 0.81524 0.0
C5162 C 0.15067 0.29181 0.81566 0.0
C5163 C 0.15267 0.29257 0.83595 0.0
C5164 C 0.17043 0.29461 0.84588 0.0
C5165 C 0.18567 0.2954 0.83546 0.0
C5166 C 0.13206 0.28967 0.80441 0.0
C5167 C 0.1733 0.29567 0.86751 0.0
H5168 H 0.10773 0.31721 0.86715 0.0
H5169 H 0.10216 0.25422 0.85808 0.0
H5170 H 0.15443 0.33026 0.85824 0.0
H5171 H 0.13905 0.32951 0.83714 0.0
H5172 H 0.13392 0.33925 0.86063 0.0
H5173 H 0.12347 0.2391 0.84371 0.0
H5174 H 0.13267 0.25146 0.82487 0.0
H5175 H 0.14667 0.25421 0.84744 0.0
H5176 H 0.16419 0.29123 0.79001 0.0
H5177 H 0.19917 0.29697 0.84321 0.0
H5178 H 0.12574 0.30168 0.81054 0.0
H5179 H 0.12277 0.27538 0.80566 0.0
H5180 H 0.13287 0.29015 0.78884 0.0
H5181 H 0.16788 0.30787 0.87488 0.0
H5182 H 0.18803 0.29809 0.87323 0.0
H5183 H 0.16556 0.28168 0.87129 0.0
C5184 C 0.58011 0.72109 0.93819 0.0
C5185 C 0.56825 0.73338 0.93487 0.0
C5186 C 0.57488 0.70515 0.94785 0.0
C5187 C 0.55731 0.70133 0.95415 0.0
C5188 C 0.54508 0.71334 0.95042 0.0
C5189 C 0.55075 0.72933 0.94095 0.0
C5190 C 0.58829 0.69262 0.95164 0.0
C5191 C 0.52617 0.70956 0.95681 0.0
C5192 C 0.5403 0.65082 0.96745 0.0
C5193 C 0.54495 0.65513 0.9876 0.0
C5194 C 0.54377 0.66583 0.95634 0.0
C5195 C 0.5522 0.68549 0.96566 0.0
C5196 C 0.55648 0.68998 0.98603 0.0
C5197 C 0.55274 0.67473 0.99678 0.0
C5198 C 0.53882 0.66059 0.93464 0.0
C5199 C 0.5656 0.71079 0.99643 0.0
H5200 H 0.5935 0.7239 0.93319 0.0
H5201 H 0.54159 0.73891 0.93863 0.0
H5202 H 0.5917 0.69365 0.96746 0.0
H5203 H 0.58197 0.67682 0.94546 0.0
H5204 H 0.60126 0.69729 0.94538 0.0
H5205 H 0.51788 0.71943 0.95161 0.0
H5206 H 0.51864 0.69393 0.95138 0.0
H5207 H 0.52742 0.71194 0.97284 0.0
H5208 H 0.5341 0.63566 0.96039 0.0
H5209 H 0.55654 0.67801 0.01233 0.0
H5210 H 0.55148 0.66342 0.92753 0.0
H5211 H 0.53009 0.67012 0.92961 0.0
H5212 H 0.53138 0.64481 0.92978 0.0
H5213 H 0.57931 0.71565 0.99172 0.0
H5214 H 0.56739 0.71189 0.0124 0.0
H5215 H 0.55733 0.72125 0.99268 0.0
C5216 C 0.08855 0.76359 0.73423 0.0
C5217 C 0.08543 0.77403 0.71936 0.0
C5218 C 0.10636 0.76231 0.74053 0.0
C5219 C 0.12121 0.77162 0.73162 0.0
C5220 C 0.11832 0.78366 0.71785 0.0
C5221 C 0.10039 0.78472 0.71187 0.0
C5222 C 0.10903 0.74959 0.75546 0.0
C5223 C 0.13385 0.79381 0.70802 0.0
C5224 C 0.17036 0.77276 0.74993 0.0
C5225 C 0.17319 0.75628 0.73768 0.0
C5226 C 0.15334 0.77778 0.74847 0.0
C5227 C 0.13902 0.76619 0.73425 0.0
C5228 C 0.14174 0.74945 0.72197 0.0
C5229 C 0.15876 0.7446 0.72396 0.0
C5230 C 0.15079 0.79564 0.76183 0.0
C5231 C 0.12678 0.73685 0.70647 0.0
H5232 H 0.07697 0.75555 0.74019 0.0
H5233 H 0.09801 0.79268 0.70024 0.0
H5234 H 0.11167 0.73549 0.74827 0.0
H5235 H 0.12114 0.75712 0.7663 0.0
H5236 H 0.09676 0.74599 0.76309 0.0
H5237 H 0.12984 0.80495 0.7 0.0
H5238 H 0.14609 0.80127 0.7187 0.0
H5239 H 0.13794 0.78255 0.6976 0.0
H5240 H 0.18157 0.78203 0.76035 0.0
H5241 H 0.16081 0.73169 0.71468 0.0
H5242 H 0.13861 0.79139 0.76942 0.0
H5243 H 0.14818 0.80699 0.75331 0.0
H5244 H 0.163 0.80244 0.7728 0.0
H5245 H 0.11443 0.73069 0.71308 0.0
H5246 H 0.1312 0.72436 0.69813 0.0
H5247 H 0.12267 0.74609 0.69623 0.0
C5248 C 0.0868 0.41789 0.46171 0.0
C5249 C 0.09302 0.41828 0.44367 0.0
C5250 C 0.08356 0.43492 0.47243 0.0
C5251 C 0.08638 0.45264 0.46469 0.0
C5252 C 0.0935 0.45334 0.44683 0.0
C5253 C 0.09685 0.43605 0.4365 0.0
C5254 C 0.0763 0.43369 0.4916 0.0
C5255 C 0.09654 0.47195 0.43811 0.0
C5256 C 0.05586 0.48497 0.48415 0.0
C5257 C 0.06797 0.49816 0.4991 0.0
C5258 C 0.06204 0.47089 0.47184 0.0
C5259 C 0.08065 0.46984 0.47491 0.0
C5260 C 0.09309 0.48373 0.48946 0.0
C5261 C 0.08659 0.49779 0.50136 0.0
C5262 C 0.04847 0.45655 0.45616 0.0
C5263 C 0.11303 0.4831 0.49312 0.0
H5264 H 0.0839 0.40403 0.46713 0.0
H5265 H 0.10151 0.43614 0.42241 0.0
H5266 H 0.0847 0.44581 0.503 0.0
H5267 H 0.06201 0.43558 0.49047 0.0
H5268 H 0.07631 0.41928 0.49623 0.0
H5269 H 0.10436 0.4708 0.42553 0.0
H5270 H 0.08304 0.47467 0.4332 0.0
H5271 H 0.10403 0.48502 0.44903 0.0
H5272 H 0.04149 0.48537 0.48233 0.0
H5273 H 0.09605 0.50823 0.51276 0.0
H5274 H 0.04564 0.44155 0.46003 0.0
H5275 H 0.05429 0.4555 0.44224 0.0
H5276 H 0.03525 0.46098 0.45404 0.0
H5277 H 0.11398 0.46955 0.49903 0.0
H5278 H 0.12129 0.49623 0.50354 0.0
H5279 H 0.1192 0.48231 0.47941 0.0
C5280 C 0.42514 0.27306 0.22584 0.0
C5281 C 0.42073 0.26045 0.20785 0.0
C5282 C 0.41137 0.27587 0.23724 0.0
C5283 C 0.39289 0.26619 0.23009 0.0
C5284 C 0.38852 0.25279 0.21225 0.0
C5285 C 0.40262 0.24991 0.20138 0.0
C5286 C 0.41646 0.28996 0.25639 0.0
C5287 C 0.36887 0.2426 0.204 0.0
C5288 C 0.35341 0.26452 0.25962 0.0
C5289 C 0.34653 0.28012 0.25426 0.0
C5290 C 0.36929 0.26046 0.25275 0.0
C5291 C 0.37792 0.27193 0.23985 0.0
C5292 C 0.37128 0.28806 0.23486 0.0
C5293 C 0.35574 0.29212 0.24237 0.0
C5294 C 0.37644 0.24353 0.25873 0.0
C5295 C 0.37992 0.30034 0.22075 0.0
H5296 H 0.43929 0.28102 0.23075 0.0
H5297 H 0.39941 0.24025 0.18736 0.0
H5298 H 0.41207 0.30382 0.2551 0.0
H5299 H 0.40925 0.28337 0.26775 0.0
H5300 H 0.43151 0.29388 0.26113 0.0
H5301 H 0.36798 0.2316 0.19063 0.0
H5302 H 0.3617 0.23493 0.21477 0.0
H5303 H 0.3614 0.25384 0.20051 0.0
H5304 H 0.34628 0.2554 0.26899 0.0
H5305 H 0.35028 0.30409 0.23812 0.0
H5306 H 0.39147 0.24838 0.26347 0.0
H5307 H 0.37418 0.23126 0.24619 0.0
H5308 H 0.36952 0.2377 0.27064 0.0
H5309 H 0.39479 0.30654 0.22563 0.0
H5310 H 0.3734 0.31278 0.21899 0.0
H5311 H 0.37861 0.2908 0.20638 0.0
C5312 C 0.60682 0.50368 0.38081 0.0
C5313 C 0.612 0.51998 0.37114 0.0
C5314 C 0.59858 0.50506 0.39842 0.0
C5315 C 0.59495 0.52321 0.40738 0.0
C5316 C 0.60009 0.5397 0.39779 0.0
C5317 C 0.60842 0.53796 0.38025 0.0
C5318 C 0.59347 0.48677 0.40737 0.0
C5319 C 0.59657 0.55942 0.406 0.0
C5320 C 0.55579 0.52092 0.44071 0.0
C5321 C 0.56483 0.52641 0.45997 0.0
C5322 C 0.56522 0.52013 0.42403 0.0
C5323 C 0.58476 0.52456 0.42578 0.0
C5324 C 0.59415 0.53016 0.44517 0.0
C5325 C 0.58426 0.53121 0.46179 0.0
C5326 C 0.55403 0.51441 0.40428 0.0
C5327 C 0.61483 0.53484 0.44841 0.0
H5328 H 0.60887 0.48944 0.37445 0.0
H5329 H 0.61229 0.55104 0.3738 0.0
H5330 H 0.59941 0.49002 0.42283 0.0
H5331 H 0.57832 0.48217 0.40683 0.0
H5332 H 0.59831 0.47416 0.39985 0.0
H5333 H 0.60143 0.57102 0.39732 0.0
H5334 H 0.58163 0.55782 0.40658 0.0
H5335 H 0.60357 0.56448 0.42105 0.0
H5336 H 0.54089 0.51718 0.43851 0.0
H5337 H 0.59181 0.53546 0.47616 0.0
H5338 H 0.55661 0.50053 0.39651 0.0
H5339 H 0.55825 0.5261 0.39554 0.0
H5340 H 0.53903 0.51211 0.40504 0.0
H5341 H 0.61969 0.52191 0.44168 0.0
H5342 H 0.62033 0.53862 0.46403 0.0
H5343 H 0.62056 0.54746 0.44129 0.0
C5344 C 0.31944 0.86068 0.09461 0.0
C5345 C 0.32819 0.87882 0.09004 0.0
C5346 C 0.32438 0.85559 0.11239 0.0
C5347 C 0.33854 0.86894 0.12578 0.0
C5348 C 0.34757 0.88719 0.1212 0.0
C5349 C 0.34217 0.892 0.10338 0.0
C5350 C 0.31436 0.83596 0.11686 0.0
C5351 C 0.36278 0.90163 0.13512 0.0
C5352 C 0.33287 0.85656 0.17481 0.0
C5353 C 0.34249 0.8416 0.17448 0.0
C5354 C 0.33305 0.86752 0.15987 0.0
C5355 C 0.34342 0.86356 0.14463 0.0
C5356 C 0.35542 0.85078 0.14592 0.0
C5357 C 0.35473 0.83977 0.16088 0.0
C5358 C 0.32018 0.88117 0.15911 0.0
C5359 C 0.36714 0.84673 0.13022 0.0
H5360 H 0.30879 0.85041 0.08421 0.0
H5361 H 0.34874 0.90623 0.10001 0.0
H5362 H 0.32425 0.82676 0.11951 0.0
H5363 H 0.30782 0.83845 0.13021 0.0
H5364 H 0.30355 0.82745 0.10493 0.0
H5365 H 0.36911 0.9147 0.12884 0.0
H5366 H 0.35731 0.90693 0.1485 0.0
H5367 H 0.37365 0.89417 0.13941 0.0
H5368 H 0.32379 0.85833 0.1857 0.0
H5369 H 0.36236 0.82836 0.16071 0.0
H5370 H 0.30746 0.87327 0.14928 0.0
H5371 H 0.32643 0.89458 0.15336 0.0
H5372 H 0.31627 0.88584 0.17361 0.0
H5373 H 0.35851 0.83586 0.11794 0.0
H5374 H 0.37858 0.84043 0.13545 0.0
H5375 H 0.37297 0.86043 0.12469 0.0
C5376 C 0.9764 0.52163 0.8888 0.0
C5377 C 0.98342 0.53459 0.87656 0.0
C5378 C 0.98707 0.52057 0.90568 0.0
C5379 C 1.00502 0.5329 0.91034 0.0
C5380 C 0.01226 0.54583 0.89793 0.0
C5381 C 1.00133 0.54649 0.88109 0.0
C5382 C 0.97902 0.50663 0.91871 0.0
C5383 C 0.03142 0.55914 0.9026 0.0
C5384 C 0.02595 0.54757 0.96243 0.0
C5385 C 0.0377 0.53487 0.9633 0.0
C5386 C 0.01478 0.54669 0.94529 0.0
C5387 C 0.01595 0.53311 0.92872 0.0
C5388 C 0.02801 0.52033 0.92957 0.0
C5389 C 0.03881 0.52135 0.94705 0.0
C5390 C 1.00186 0.56034 0.94487 0.0
C5391 C 0.02952 0.50572 0.91208 0.0
H5392 H 0.96247 0.51254 0.88531 0.0
H5393 H 0.00683 0.55623 0.8714 0.0
H5394 H 0.98842 0.49708 0.92192 0.0
H5395 H 0.97742 0.51531 0.9327 0.0
H5396 H 0.96538 0.49697 0.91219 0.0
H5397 H 0.03522 0.56772 0.89098 0.0
H5398 H 0.03244 0.56972 0.91626 0.0
H5399 H 0.04161 0.55019 0.90485 0.0
H5400 H 0.02555 0.55821 0.97513 0.0
H5401 H 0.04804 0.51158 0.94808 0.0
H5402 H 0.98758 0.55159 0.93983 0.0
H5403 H 1.00565 0.57048 0.9345 0.0
H5404 H 1.00213 0.56939 0.95931 0.0
H5405 H 0.01584 0.49575 0.90639 0.0
H5406 H 0.03926 0.49653 0.91539 0.0
H5407 H 0.03425 0.51378 0.9004 0.0
C5408 C 0.2758 0.23814 0.61095 0.0
C5409 C 0.28867 0.24862 0.60072 0.0
C5410 C 0.276 0.24399 0.63093 0.0
C5411 C 0.28942 0.26075 0.64107 0.0
C5412 C 0.30233 0.27159 0.63085 0.0
C5413 C 0.30182 0.26539 0.61081 0.0
C5414 C 0.26213 0.23184 0.64128 0.0
C5415 C 0.31684 0.28957 0.64113 0.0
C5416 C 0.28007 0.28277 0.69101 0.0
C5417 C 0.29119 0.27485 0.70314 0.0
C5418 C 0.2798 0.27884 0.67078 0.0
C5419 C 0.29045 0.26622 0.66252 0.0
C5420 C 0.30157 0.25809 0.67476 0.0
C5421 C 0.30199 0.26272 0.69489 0.0
C5422 C 0.26814 0.28819 0.65824 0.0
C5423 C 0.3128 0.24419 0.6666 0.0
H5424 H 0.26583 0.22492 0.60345 0.0
H5425 H 0.31173 0.27368 0.60305 0.0
H5426 H 0.26936 0.22538 0.65215 0.0
H5427 H 0.25433 0.24144 0.64918 0.0
H5428 H 0.25221 0.2196 0.6312 0.0
H5429 H 0.32517 0.29707 0.63096 0.0
H5430 H 0.31034 0.30036 0.64932 0.0
H5431 H 0.32622 0.28512 0.65176 0.0
H5432 H 0.27187 0.29233 0.69736 0.0
H5433 H 0.31053 0.25646 0.70421 0.0
H5434 H 0.25747 0.27649 0.64847 0.0
H5435 H 0.27679 0.29671 0.64898 0.0
H5436 H 0.26127 0.2983 0.66691 0.0
H5437 H 0.30361 0.23096 0.65709 0.0
H5438 H 0.32074 0.23914 0.67809 0.0
H5439 H 0.32254 0.2516 0.65757 0.0
C5440 C 0.59478 0.52723 0.16594 0.0
C5441 C 0.60798 0.51587 0.16771 0.0
C5442 C 0.58633 0.52928 0.14759 0.0
C5443 C 0.59137 0.52038 0.12996 0.0
C5444 C 0.60472 0.50893 0.13165 0.0
C5445 C 0.61252 0.50661 0.15018 0.0
C5446 C 0.57178 0.54096 0.14714 0.0
C5447 C 0.6112 0.49946 0.11376 0.0
C5448 C 0.56074 0.51229 0.07994 0.0
C5449 C 0.56797 0.52938 0.07225 0.0
C5450 C 0.56775 0.50943 0.09858 0.0
C5451 C 0.58315 0.52346 0.10997 0.0
C5452 C 0.5907 0.54052 0.10201 0.0
C5453 C 0.58288 0.54344 0.08375 0.0
C5454 C 0.55838 0.49139 0.10622 0.0
C5455 C 0.6074 0.55571 0.1127 0.0
H5456 H 0.59075 0.53437 0.17903 0.0
H5457 H 0.6227 0.49791 0.15092 0.0
H5458 H 0.5767 0.55444 0.14091 0.0
H5459 H 0.55918 0.53198 0.1377 0.0
H5460 H 0.56813 0.54555 0.16177 0.0
H5461 H 0.62174 0.49124 0.11722 0.0
H5462 H 0.59943 0.48903 0.1042 0.0
H5463 H 0.6171 0.51104 0.10548 0.0
H5464 H 0.54918 0.50127 0.07155 0.0
H5465 H 0.58884 0.55665 0.07821 0.0
H5466 H 0.55475 0.49591 0.12087 0.0
H5467 H 0.56787 0.48152 0.10761 0.0
H5468 H 0.5457 0.48279 0.09665 0.0
H5469 H 0.60406 0.56286 0.12662 0.0
H5470 H 0.61252 0.56742 0.10423 0.0
H5471 H 0.61861 0.54836 0.11615 0.0
C5472 C 0.31216 0.84798 0.90625 0.0
C5473 C 0.30165 0.86217 0.90807 0.0
C5474 C 0.31016 0.83442 0.88897 0.0
C5475 C 0.29745 0.83525 0.87325 0.0
C5476 C 0.28684 0.84957 0.87503 0.0
C5477 C 0.28907 0.86286 0.89245 0.0
C5478 C 0.32169 0.81933 0.88747 0.0
C5479 C 0.27324 0.85097 0.85848 0.0
C5480 C 0.3019 0.81629 0.82139 0.0
C5481 C 0.28833 0.79853 0.81739 0.0
C5482 C 0.30587 0.82778 0.83994 0.0
C5483 C 0.2955 0.82163 0.85461 0.0
C5484 C 0.28196 0.80348 0.85075 0.0
C5485 C 0.2786 0.79204 0.83211 0.0
C5486 C 0.32054 0.84695 0.84355 0.0
C5487 C 0.27049 0.79663 0.86602 0.0
H5488 H 0.32175 0.84734 0.91843 0.0
H5489 H 0.28111 0.87399 0.89381 0.0
H5490 H 0.3127 0.80413 0.88339 0.0
H5491 H 0.3306 0.82159 0.8759 0.0
H5492 H 0.33054 0.82028 0.90124 0.0
H5493 H 0.26569 0.8626 0.86247 0.0
H5494 H 0.28051 0.85439 0.84596 0.0
H5495 H 0.26309 0.83653 0.85368 0.0
H5496 H 0.30892 0.82165 0.80985 0.0
H5497 H 0.268 0.77833 0.82893 0.0
H5498 H 0.32994 0.84804 0.85694 0.0
H5499 H 0.31403 0.85968 0.84566 0.0
H5500 H 0.32881 0.84832 0.83133 0.0
H5501 H 0.27946 0.79679 0.87945 0.0
H5502 H 0.26156 0.78146 0.86114 0.0
H5503 H 0.26163 0.80698 0.86973 0.0
C5504 C 0.98601 0.52124 0.68685 0.0
C5505 C 0.97939 0.50764 0.69863 0.0
C5506 C 0.99093 0.51484 0.66878 0.0
C5507 C 0.98866 0.49426 0.66211 0.0
C5508 C 0.98211 0.48043 0.67391 0.0
C5509 C 0.97791 0.48734 0.69225 0.0
C5510 C 0.99821 0.53018 0.65669 0.0
C5511 C 0.97898 0.4584 0.66696 0.0
C5512 C 0.98932 0.49119 0.60926 0.0
C5513 C 0.00828 0.49396 0.60882 0.0
C5514 C 0.9818 0.48762 0.62619 0.0
C5515 C 0.99377 0.48774 0.64292 0.0
C5516 C 0.01231 0.48736 0.64147 0.0
C5517 C 0.01928 0.4901 0.62416 0.0
C5518 C 0.96167 0.4868 0.62697 0.0
C5519 C 0.02568 0.48786 0.65895 0.0
H5520 H 0.98682 0.53687 0.69144 0.0
H5521 H 0.97309 0.47676 0.70143 0.0
H5522 H 0.0113 0.52797 0.65169 0.0
H5523 H 0.98819 0.52859 0.64367 0.0
H5524 H 1.00069 0.54558 0.66479 0.0
H5525 H 0.9746 0.44967 0.67832 0.0
H5526 H 0.96819 0.45367 0.65425 0.0
H5527 H 0.99164 0.45473 0.66216 0.0
H5528 H 0.98077 0.4938 0.59716 0.0
H5529 H 0.03395 0.49213 0.62371 0.0
H5530 H 0.95996 0.50193 0.63215 0.0
H5531 H 0.95599 0.47714 0.63712 0.0
H5532 H 0.95358 0.48127 0.61242 0.0
H5533 H 0.03073 0.50342 0.66664 0.0
H5534 H 0.03775 0.48235 0.65469 0.0
H5535 H 0.01915 0.47895 0.66924 0.0
C5536 C 0.28762 0.25565 0.40397 0.0
C5537 C 0.29378 0.23858 0.40638 0.0
C5538 C 0.28919 0.2636 0.38682 0.0
C5539 C 0.29702 0.25426 0.37152 0.0
C5540 C 0.30326 0.23706 0.37386 0.0
C5541 C 0.30161 0.22949 0.39118 0.0
C5542 C 0.28256 0.28209 0.38513 0.0
C5543 C 0.31164 0.22656 0.35797 0.0
C5544 C 0.28626 0.2648 0.32051 0.0
C5545 C 0.30233 0.27861 0.3186 0.0
C5546 C 0.28443 0.25661 0.33751 0.0
C5547 C 0.29886 0.26259 0.35317 0.0
C5548 C 0.31508 0.27658 0.35129 0.0
C5549 C 0.31665 0.28428 0.33404 0.0
C5550 C 0.26697 0.24162 0.33874 0.0
C5551 C 0.33073 0.28365 0.36762 0.0
H5552 H 0.28179 0.26301 0.41564 0.0
H5553 H 0.3062 0.21617 0.39268 0.0
H5554 H 0.29404 0.29395 0.38251 0.0
H5555 H 0.27171 0.27906 0.37258 0.0
H5556 H 0.27693 0.28769 0.39833 0.0
H5557 H 0.31574 0.2133 0.36194 0.0
H5558 H 0.30168 0.22186 0.34457 0.0
H5559 H 0.32395 0.23684 0.35461 0.0
H5560 H 0.27503 0.2605 0.30878 0.0
H5561 H 0.32908 0.29504 0.33277 0.0
H5562 H 0.26002 0.24735 0.35082 0.0
H5563 H 0.27025 0.2277 0.34188 0.0
H5564 H 0.25724 0.23811 0.32517 0.0
H5565 H 0.32582 0.29064 0.38069 0.0
H5566 H 0.34242 0.29457 0.3639 0.0
H5567 H 0.33578 0.27088 0.37144 0.0
C5568 C 0.37502 0.59678 0.52385 0.0
C5569 C 0.36215 0.59888 0.50915 0.0
C5570 C 0.38822 0.58615 0.51965 0.0
C5571 C 0.38888 0.57793 0.50021 0.0
C5572 C 0.37616 0.58022 0.48523 0.0
C5573 C 0.36274 0.59046 0.48992 0.0
C5574 C 0.40147 0.58373 0.53602 0.0
C5575 C 0.37677 0.57191 0.46431 0.0
C5576 C 0.43479 0.56745 0.49191 0.0
C5577 C 0.43136 0.5472 0.49277 0.0
C5578 C 0.42074 0.57749 0.49327 0.0
C5579 C 0.40301 0.56699 0.49575 0.0
C5580 C 0.3993 0.54637 0.49583 0.0
C5581 C 0.41358 0.53666 0.49424 0.0
C5582 C 0.42503 0.59945 0.49282 0.0
C5583 C 0.38055 0.53481 0.49864 0.0
H5584 H 0.3749 0.60359 0.53868 0.0
H5585 H 0.35263 0.5917 0.47851 0.0
H5586 H 0.40084 0.56778 0.5358 0.0
H5587 H 0.41574 0.59099 0.53421 0.0
H5588 H 0.3985 0.59026 0.55041 0.0
H5589 H 0.36599 0.57522 0.45438 0.0
H5590 H 0.39041 0.57821 0.46008 0.0
H5591 H 0.37497 0.55561 0.46232 0.0
H5592 H 0.44853 0.57546 0.49043 0.0
H5593 H 0.41102 0.521 0.49496 0.0
H5594 H 0.42409 0.60778 0.50723 0.0
H5595 H 0.41482 0.6028 0.48225 0.0
H5596 H 0.43902 0.60496 0.48895 0.0
H5597 H 0.37754 0.53995 0.51341 0.0
H5598 H 0.37957 0.51861 0.49676 0.0
H5599 H 0.36976 0.53744 0.48825 0.0
C5600 C 0.91398 0.96892 0.54002 0.0
C5601 C 0.90648 0.95038 0.52805 0.0
C5602 C 0.93174 0.98023 0.5387 0.0
C5603 C 0.94249 0.97304 0.52501 0.0
C5604 C 0.93515 0.95423 0.51309 0.0
C5605 C 0.91738 0.94319 0.51477 0.0
C5606 C 0.93887 1.00014 0.55175 0.0
C5607 C 0.94598 0.94587 0.49829 0.0
C5608 C 0.97868 0.01209 0.5079 0.0
C5609 C 0.99509 0.01143 0.51869 0.0
C5610 C 0.9617 0.99944 0.5095 0.0
C5611 C 0.96085 0.98572 0.5224 0.0
C5612 C 0.97747 0.9847 0.53309 0.0
C5613 C 0.99434 0.99756 0.53114 0.0
C5614 C 0.94455 1.00104 0.4976 0.0
C5615 C 0.97736 0.97044 0.54706 0.0
H5616 H 0.90579 0.9749 0.55018 0.0
H5617 H 0.91208 0.92878 0.50565 0.0
H5618 H 0.95242 1.00082 0.55982 0.0
H5619 H 0.94093 0.01204 0.54292 0.0
H5620 H 0.92932 1.00324 0.56231 0.0
H5621 H 0.93861 0.93086 0.49042 0.0
H5622 H 0.9488 0.95587 0.4876 0.0
H5623 H 0.95946 0.94501 0.50543 0.0
H5624 H 0.97909 0.02277 0.49827 0.0
H5625 H 0.00682 0.9973 0.53994 0.0
H5626 H 0.93497 1.0059 0.50731 0.0
H5627 H 0.93732 0.98633 0.48902 0.0
H5628 H 0.94759 0.01173 0.48756 0.0
H5629 H 0.9698 0.97469 0.55919 0.0
H5630 H 0.99148 0.97025 0.55308 0.0
H5631 H 0.97007 0.9552 0.5398 0.0
C5632 C 0.88249 0.17432 0.27255 0.0
C5633 C 0.87386 0.15487 0.26243 0.0
C5634 C 0.87381 0.19074 0.27349 0.0
C5635 C 0.85562 0.18853 0.2641 0.0
C5636 C 0.84682 0.16905 0.25384 0.0
C5637 C 0.85578 0.15288 0.25318 0.0
C5638 C 0.88427 0.21068 0.28478 0.0
C5639 C 0.82766 0.16517 0.24333 0.0
C5640 C 0.82463 0.22565 0.27968 0.0
C5641 C 0.82678 0.23905 0.26649 0.0
C5642 C 0.8341 0.20992 0.27941 0.0
C5643 C 0.84584 0.20627 0.26508 0.0
C5644 C 0.84784 0.21964 0.25156 0.0
C5645 C 0.83872 0.23572 0.2526 0.0
C5646 C 0.83154 0.19713 0.29473 0.0
C5647 C 0.85946 0.21676 0.23554 0.0
H5648 H 0.89637 0.17701 0.27972 0.0
H5649 H 0.84825 0.13843 0.24545 0.0
H5650 H 0.88576 0.22191 0.2752 0.0
H5651 H 0.87647 0.21557 0.29645 0.0
H5652 H 0.89818 0.2104 0.29135 0.0
H5653 H 0.82263 0.14965 0.23548 0.0
H5654 H 0.81802 0.16819 0.25377 0.0
H5655 H 0.82736 0.17537 0.23281 0.0
H5656 H 0.81557 0.22759 0.29054 0.0
H5657 H 0.84057 0.24542 0.24202 0.0
H5658 H 0.84512 0.19725 0.30241 0.0
H5659 H 0.82498 0.18156 0.2879 0.0
H5660 H 0.82291 0.20218 0.3055 0.0
H5661 H 0.87393 0.21855 0.24177 0.0
H5662 H 0.85908 0.22745 0.22552 0.0
H5663 H 0.85462 0.20147 0.22713 0.0
C5664 C 0.68242 0.07027 0.02519 0.0
C5665 C 0.69139 0.07932 0.01121 0.0
C5666 C 0.66327 0.06629 0.02412 0.0
C5667 C 0.65316 0.07194 0.00894 0.0
C5668 C 0.66211 0.08014 0.99424 0.0
C5669 C 0.68121 0.08362 0.99549 0.0
C5670 C 0.65399 0.05693 0.03969 0.0
C5671 C 0.65166 0.08643 0.97792 0.0
C5672 C 0.60205 0.05168 0.99792 0.0
C5673 C 0.59557 0.06681 0.00833 0.0
C5674 C 0.62082 0.05296 0.99832 0.0
C5675 C 0.63331 0.07014 0.00884 0.0
C5676 C 0.62687 0.08572 0.01906 0.0
C5677 C 0.60792 0.08368 0.01898 0.0
C5678 C 0.62721 0.03579 0.98783 0.0
C5679 C 0.63999 0.10442 0.03009 0.0
H5680 H 0.69045 0.06704 0.03733 0.0
H5681 H 0.68829 0.09094 0.98488 0.0
H5682 H 0.64843 0.06798 0.04879 0.0
H5683 H 0.64222 0.04437 0.03312 0.0
H5684 H 0.66359 0.05145 0.04918 0.0
H5685 H 0.6606 0.0916 0.96711 0.0
H5686 H 0.6402 0.07398 0.9704 0.0
H5687 H 0.64549 0.09865 0.98388 0.0
H5688 H 0.59245 0.03833 0.9901 0.0
H5689 H 0.60276 0.09519 0.02718 0.0
H5690 H 0.63668 0.0308 0.99792 0.0
H5691 H 0.63496 0.04056 0.97605 0.0
H5692 H 0.61559 0.02294 0.98147 0.0
H5693 H 0.64898 0.10079 0.04167 0.0
H5694 H 0.6327 0.11533 0.03679 0.0
H5695 H 0.64904 0.11147 0.02025 0.0
C5696 C 0.22438 0.4752 0.28148 0.0
C5697 C 0.21355 0.47167 0.2635 0.0
C5698 C 0.23523 0.46232 0.28583 0.0
C5699 C 0.2352 0.44567 0.27178 0.0
C5700 C 0.22428 0.44202 0.2536 0.0
C5701 C 0.21354 0.45516 0.24965 0.0
C5702 C 0.24679 0.46658 0.30533 0.0
C5703 C 0.22402 0.42434 0.23832 0.0
C5704 C 0.27626 0.42341 0.27399 0.0
C5705 C 0.26928 0.4062 0.28119 0.0
C5706 C 0.2653 0.43658 0.27106 0.0
C5707 C 0.24714 0.43244 0.27581 0.0
C5708 C 0.24025 0.41541 0.28378 0.0
C5709 C 0.25143 0.40228 0.2862 0.0
C5710 C 0.2729 0.45447 0.26221 0.0
C5711 C 0.22101 0.41085 0.28928 0.0
H5712 H 0.22449 0.48816 0.29207 0.0
H5713 H 0.20498 0.45241 0.23583 0.0
H5714 H 0.2432 0.45373 0.31282 0.0
H5715 H 0.26155 0.46877 0.30344 0.0
H5716 H 0.24491 0.47998 0.31476 0.0
H5717 H 0.21477 0.42372 0.22492 0.0
H5718 H 0.23809 0.42486 0.23454 0.0
H5719 H 0.21941 0.41044 0.24401 0.0
H5720 H 0.29004 0.42612 0.26992 0.0
H5721 H 0.24619 0.38885 0.29178 0.0
H5722 H 0.27188 0.46822 0.27167 0.0
H5723 H 0.26465 0.45351 0.24809 0.0
H5724 H 0.28749 0.45575 0.25985 0.0
H5725 H 0.21891 0.42365 0.29939 0.0
H5726 H 0.21815 0.3975 0.29621 0.0
H5727 H 0.21083 0.40836 0.27622 0.0
C5728 C 0.20915 0.42608 1.00491 0.0
C5729 C 0.22389 0.43463 0.01969 0.0
C5730 C 0.19384 0.43446 1.00264 0.0
C5731 C 0.19312 0.4518 0.01548 0.0
C5732 C 0.20796 0.46052 0.03033 0.0
C5733 C 0.2231 0.45194 0.03219 0.0
C5734 C 0.17844 0.42472 0.9865 0.0
C5735 C 0.20784 0.47899 0.04437 0.0
C5736 C 0.16294 0.48662 1.00357 0.0
C5737 C 0.14862 0.48193 0.01483 0.0
C5738 C 0.177 0.47629 1.00286 0.0
C5739 C 0.17689 0.46089 0.01372 0.0
C5740 C 0.16201 0.45544 0.02434 0.0
C5741 C 0.14811 0.46598 0.02476 0.0
C5742 C 0.19242 0.48247 0.99112 0.0
C5743 C 0.16112 0.43895 0.03591 0.0
H5744 H 0.2094 0.41262 0.99525 0.0
H5745 H 0.23447 0.45899 0.04342 0.0
H5746 H 0.1652 0.42098 0.99245 0.0
H5747 H 0.17703 0.43518 0.97649 0.0
H5748 H 0.18077 0.41098 0.97809 0.0
H5749 H 0.22034 0.48391 0.05522 0.0
H5750 H 0.20689 0.49124 0.03639 0.0
H5751 H 0.19558 0.47626 0.05214 0.0
H5752 H 0.16362 0.49894 0.99589 0.0
H5753 H 0.13693 0.46188 0.03314 0.0
H5754 H 0.19476 0.46933 0.98172 0.0
H5755 H 0.20534 0.48943 1.00098 0.0
H5756 H 0.18957 0.49321 0.98191 0.0
H5757 H 0.16276 0.42533 0.02672 0.0
H5758 H 0.14795 0.43542 0.04209 0.0
H5759 H 0.1726 0.44332 0.04795 0.0
C5760 C 0.86986 0.93868 0.27615 0.0
C5761 C 0.86697 0.94721 0.25951 0.0
C5762 C 0.86061 0.91891 0.27752 0.0
C5763 C 0.84792 0.90654 0.26189 0.0
C5764 C 0.84515 0.91484 0.24495 0.0
C5765 C 0.85448 0.9347 0.244 0.0
C5766 C 0.86433 0.91131 0.29598 0.0
C5767 C 0.83195 0.90276 0.22774 0.0
C5768 C 0.83172 0.84883 0.25956 0.0
C5769 C 0.81431 0.84651 0.26611 0.0
C5770 C 0.84282 0.86798 0.25831 0.0
C5771 C 0.83666 0.88567 0.26371 0.0
C5772 C 0.81927 0.88329 0.27062 0.0
C5773 C 0.80851 0.86413 0.2716 0.0
C5774 C 0.86107 0.86921 0.25076 0.0
C5775 C 0.81175 0.90114 0.27683 0.0
H5776 H 0.87956 0.9474 0.28829 0.0
H5777 H 0.85157 0.94052 0.23102 0.0
H5778 H 0.85144 0.90768 0.30261 0.0
H5779 H 0.86906 0.89742 0.29281 0.0
H5780 H 0.87486 0.92225 0.3067 0.0
H5781 H 0.83209 0.91051 0.21514 0.0
H5782 H 0.83542 0.88831 0.22338 0.0
H5783 H 0.81779 0.89955 0.23171 0.0
H5784 H 0.83646 0.83569 0.25475 0.0
H5785 H 0.79518 0.86295 0.27662 0.0
H5786 H 0.87218 0.87946 0.26135 0.0
H5787 H 0.86087 0.87537 0.23718 0.0
H5788 H 0.86442 0.85451 0.24782 0.0
H5789 H 0.82165 0.91189 0.28825 0.0
H5790 H 0.79834 0.89713 0.28244 0.0
H5791 H 0.80991 0.90878 0.2644 0.0
C5792 C 0.74495 0.13376 0.77263 0.0
C5793 C 0.72845 0.13423 0.7802 0.0
C5794 C 0.75755 0.15138 0.77179 0.0
C5795 C 0.75312 0.16955 0.77834 0.0
C5796 C 0.7374 0.17001 0.78787 0.0
C5797 C 0.72522 0.15216 0.78881 0.0
C5798 C 0.77455 0.15048 0.76217 0.0
C5799 C 0.73234 0.18925 0.79507 0.0
C5800 C 0.78241 0.22074 0.78208 0.0
C5801 C 0.77499 0.22604 0.76529 0.0
C5802 C 0.77668 0.20155 0.78574 0.0
C5803 C 0.76289 0.18778 0.77252 0.0
C5804 C 0.75632 0.1927 0.75486 0.0
C5805 C 0.76267 0.2119 0.75135 0.0
C5806 C 0.7845 0.19649 0.80428 0.0
C5807 C 0.74157 0.17823 0.7404 0.0
H5808 H 0.74732 0.11968 0.76611 0.0
H5809 H 0.71234 0.15229 0.79456 0.0
H5810 H 0.77204 0.15238 0.74691 0.0
H5811 H 0.78645 0.16255 0.76945 0.0
H5812 H 0.77817 0.136 0.76222 0.0
H5813 H 0.72059 0.18703 0.80363 0.0
H5814 H 0.74422 0.19997 0.80418 0.0
H5815 H 0.72851 0.19601 0.78254 0.0
H5816 H 0.79247 0.2317 0.79254 0.0
H5817 H 0.75726 0.21615 0.73827 0.0
H5818 H 0.78654 0.18119 0.80188 0.0
H5819 H 0.77473 0.19728 0.81509 0.0
H5820 H 0.79783 0.20698 0.8105 0.0
H5821 H 0.74533 0.16382 0.7369 0.0
H5822 H 0.7392 0.18386 0.72673 0.0
H5823 H 0.72847 0.17541 0.74675 0.0
loop_
_geom_bond_atom_site_label_1
_geom_bond_atom_site_label_2
_geom_bond_distance
_geom_bond_site_symmetry_2
_ccdc_geom_bond_type
Li0 N17 1.990 . S
Li0 O60 1.956 . S
Li0 O61 1.970 . S
Li0 O62 1.961 . S
Li1 N25 1.990 . S
Li1 O60 1.970 . S
Li1 O61 1.956 . S
Li1 O63 1.961 . S
Li2 N47 1.990 . S
Li2 O60 1.961 . S
Li2 O62 1.956 . S
Li2 O63 1.970 . S
Li3 N53 1.990 . S
Li3 O61 1.961 . S
Li3 O62 1.970 . S
Li3 O63 1.956 . S
C4 C6 1.348 . S
C4 C7 1.356 . S
C4 O60 1.325 . S
N5 C8 1.314 . S
N5 C9 1.279 . S
C6 C4 1.348 . S
C6 C8 1.353 . S
C6 H64 0.929 . S
C7 C4 1.356 . S
C7 C9 1.358 . S
C7 H65 0.930 . S
C8 N5 1.314 . S
C8 C6 1.353 . S
C8 H66 0.930 . S
C9 N5 1.279 . S
C9 C7 1.358 . S
C9 H67 0.930 . S
C10 C13 1.348 . S
C10 C14 1.356 . S
C10 O61 1.325 . S
C11 N12 1.279 . S
C11 C14 1.358 . S
C11 H68 0.930 . S
N12 C11 1.279 . S
N12 C15 1.314 . S
C13 C10 1.348 . S
C13 C15 1.353 . S
C13 H69 0.929 . S
C14 C10 1.356 . S
C14 C11 1.358 . S
C14 H70 0.930 . S
C15 N12 1.314 . S
C15 C13 1.353 . S
C15 H71 0.930 . S
C16 N17 1.314 . S
C16 C21 1.353 . S
C16 H22 0.930 . S
N17 Li0 1.990 . S
N17 C16 1.314 . S
N17 C19 1.279 . S
C18 C19 1.358 . S
C18 C20 1.356 . S
C18 H72 0.930 . S
C19 N17 1.279 . S
C19 C18 1.358 . S
C19 H23 0.930 . S
C20 C18 1.356 . S
C20 C21 1.348 . S
C21 C16 1.353 . S
C21 C20 1.348 . S
C21 H73 0.930 1_455 S
H22 C16 0.930 . S
H23 C19 0.930 . S
C24 N25 1.314 . S
C24 C26 1.353 . S
C24 H30 0.930 . S
N25 Li1 1.990 . S
N25 C24 1.314 . S
N25 C28 1.279 . S
C26 C24 1.353 . S
C26 C29 1.348 . S
C26 H74 0.929 . S
C27 C28 1.358 . S
C27 C29 1.356 . S
C27 H75 0.930 . S
C28 N25 1.279 . S
C28 C27 1.358 . S
C28 H31 0.930 . S
C29 C26 1.348 . S
C29 C27 1.356 . S
H30 C24 0.930 . S
H31 C28 0.930 . S
C32 C34 1.348 . S
C32 C35 1.356 . S
C32 O62 1.325 . S
N33 C36 1.314 . S
N33 C37 1.279 . S
C34 C32 1.348 . S
C34 C36 1.353 . S
C34 H76 0.929 . S
C35 C32 1.356 . S
C35 C37 1.358 . S
C35 H77 0.930 . S
C36 N33 1.314 . S
C36 C34 1.353 . S
C36 H78 0.930 . S
C37 N33 1.279 . S
C37 C35 1.358 . S
C37 H79 0.930 . S
C38 C39 1.348 . S
C38 C40 1.356 . S
C38 O63 1.325 . S
C39 C38 1.348 . S
C39 C41 1.353 . S
C39 H80 0.929 . S
C40 C38 1.356 . S
C40 C42 1.358 . S
C40 H81 0.930 . S
C41 C39 1.353 . S
C41 N43 1.314 . S
C41 H82 0.930 . S
C42 C40 1.358 . S
C42 N43 1.279 . S
C42 H83 0.930 . S
N43 C41 1.314 . S
N43 C42 1.279 . S
C44 C46 1.353 . S
C44 N47 1.314 . S
C44 H50 0.930 . S
C45 N47 1.279 . S
C45 C48 1.358 . S
C45 H51 0.930 . S
C46 C44 1.353 . S
C46 C49 1.348 . S
C46 H84 0.929 . S
N47 Li2 1.990 . S
N47 C44 1.314 . S
N47 C45 1.279 . S
C48 C45 1.358 . S
C48 C49 1.356 . S
C48 H85 0.930 . S
C49 C46 1.348 . S
C49 C48 1.356 . S
H50 C44 0.930 . S
H51 C45 0.930 . S
C52 N53 1.314 . S
C52 C54 1.353 . S
C52 H58 0.930 . S
N53 Li3 1.990 . S
N53 C52 1.314 . S
N53 C56 1.279 . S
C54 C52 1.353 . S
C54 C57 1.348 . S
C54 H86 0.929 . S
C55 C56 1.358 . S
C55 C57 1.356 . S
C55 H87 0.930 . S
C56 N53 1.279 . S
C56 C55 1.358 . S
C56 H59 0.930 . S
C57 C54 1.348 . S
C57 C55 1.356 . S
H58 C52 0.930 . S
H59 C56 0.930 . S
O60 Li0 1.956 . S
O60 Li1 1.970 . S
O60 Li2 1.961 . S
O60 C4 1.325 . S
O61 Li0 1.970 . S
O61 Li1 1.956 . S
O61 Li3 1.961 . S
O61 C10 1.325 . S
O62 Li0 1.961 . S
O62 Li2 1.956 . S
O62 Li3 1.970 . S
O62 C32 1.325 . S
O63 Li1 1.961 . S
O63 Li2 1.970 . S
O63 Li3 1.956 . S
O63 C38 1.325 . S
H64 C6 0.929 . S
H65 C7 0.930 . S
H66 C8 0.930 . S
H67 C9 0.930 . S
H68 C11 0.930 . S
H69 C13 0.929 . S
H70 C14 0.930 . S
H71 C15 0.930 . S
H72 C18 0.930 . S
H73 C21 0.930 1_655 S
H74 C26 0.929 . S
H75 C27 0.930 . S
H76 C34 0.929 . S
H77 C35 0.930 . S
H78 C36 0.930 . S
H79 C37 0.930 . S
H80 C39 0.929 . S
H81 C40 0.930 . S
H82 C41 0.930 . S
H83 C42 0.930 . S
H84 C46 0.929 . S
H85 C48 0.930 . S
H86 C54 0.929 . S
H87 C55 0.930 . S
Li88 N105 1.990 . S
Li88 O148 1.956 . S
Li88 O149 1.970 . S
Li88 O150 1.961 1_455 S
Li89 N113 1.990 . S
Li89 O148 1.970 . S
Li89 O149 1.956 . S
Li89 O151 1.931 1_455 S
Li90 N135 1.990 . S
Li90 O148 1.961 1_655 S
Li90 O150 1.956 . S
Li90 O151 1.972 . S
Li91 N141 1.990 . S
Li91 O149 1.961 1_655 S
Li91 O150 1.970 . S
Li91 O151 1.999 . S
C92 C94 1.348 . S
C92 C95 1.356 . S
C92 O148 1.325 . S
N93 C96 1.314 . S
N93 C97 1.279 . S
C94 C92 1.348 . S
C94 C96 1.353 . S
C94 H152 0.929 . S
C95 C92 1.356 . S
C95 C97 1.358 . S
C95 H153 0.930 . S
C96 N93 1.314 . S
C96 C94 1.353 . S
C96 H154 0.930 . S
C97 N93 1.279 . S
C97 C95 1.358 . S
C97 H155 0.930 . S
C98 C101 1.348 . S
C98 C102 1.356 . S
C98 O149 1.325 . S
C99 N100 1.279 . S
C99 C102 1.358 . S
C99 H156 0.930 . S
N100 C99 1.279 . S
N100 C103 1.314 . S
C101 C98 1.348 . S
C101 C103 1.353 . S
C101 H157 0.929 . S
C102 C98 1.356 . S
C102 C99 1.358 . S
C102 H158 0.936 . S
C103 N100 1.314 . S
C103 C101 1.353 . S
C103 H159 0.930 . S
C104 N105 1.314 1_655 S
C104 C109 1.353 . S
C104 H110 0.930 . S
N105 Li88 1.990 . S
N105 C104 1.314 1_455 S
N105 C107 1.279 . S
C106 C107 1.358 . S
C106 C108 1.356 . S
C106 H160 0.930 . S
C107 N105 1.279 . S
C107 C106 1.358 . S
C107 H111 0.930 . S
C108 C106 1.356 . S
C108 C109 1.348 1_455 S
C109 C104 1.353 . S
C109 C108 1.348 1_655 S
C109 H161 0.929 . S
H110 C104 0.930 . S
H111 C107 0.930 . S
C112 N113 1.314 . S
C112 C114 1.353 . S
C112 H118 0.930 . S
N113 Li89 1.990 . S
N113 C112 1.314 . S
N113 C116 1.279 . S
C114 C112 1.353 . S
C114 C117 1.348 . S
C114 H162 0.929 . S
C115 C116 1.358 . S
C115 C117 1.356 . S
C115 H163 0.930 . S
C116 N113 1.279 . S
C116 C115 1.358 . S
C116 H119 0.930 . S
C117 C114 1.348 . S
C117 C115 1.356 . S
H118 C112 0.930 . S
H119 C116 0.930 . S
C120 C122 1.348 . S
C120 C123 1.356 . S
C120 O150 1.325 . S
N121 C124 1.314 . S
N121 C125 1.279 . S
C122 C120 1.348 . S
C122 C124 1.353 . S
C122 H164 0.929 . S
C123 C120 1.356 . S
C123 C125 1.358 . S
C123 H165 0.930 . S
C124 N121 1.314 . S
C124 C122 1.353 . S
C124 H166 0.930 . S
C125 N121 1.279 . S
C125 C123 1.358 . S
C125 H167 0.930 . S
C126 C127 1.348 . S
C126 C128 1.356 1_655 S
C126 O151 1.323 . S
C127 C126 1.348 . S
C127 C129 1.353 . S
C127 H168 0.929 . S
C128 C126 1.356 1_455 S
C128 C130 1.357 . S
C128 H169 0.930 . S
C129 C127 1.353 . S
C129 N131 1.314 . S
C129 H170 0.930 . S
C130 C128 1.357 . S
C130 N131 1.274 1_455 S
C130 H171 0.943 . S
N131 C129 1.314 . S
N131 C130 1.274 1_655 S
C132 C134 1.353 . S
C132 N135 1.314 1_455 S
C132 H138 0.930 . S
C133 N135 1.279 . S
C133 C136 1.358 . S
C133 H139 0.930 . S
C134 C132 1.353 . S
C134 C137 1.348 1_455 S
C134 H172 0.929 . S
N135 Li90 1.990 . S
N135 C132 1.314 1_655 S
N135 C133 1.279 . S
C136 C133 1.358 . S
C136 C137 1.356 . S
C136 H173 0.930 . S
C137 C134 1.348 1_655 S
C137 C136 1.356 . S
H138 C132 0.930 . S
H139 C133 0.930 . S
C140 N141 1.314 . S
C140 C142 1.353 . S
C140 H146 0.930 . S
N141 Li91 1.990 . S
N141 C140 1.314 . S
N141 C144 1.279 . S
C142 C140 1.353 . S
C142 C145 1.348 . S
C142 H174 0.929 . S
C143 C144 1.358 . S
C143 C145 1.356 . S
C143 H175 0.930 . S
C144 N141 1.279 . S
C144 C143 1.358 . S
C144 H147 0.930 . S
C145 C142 1.348 . S
C145 C143 1.356 . S
H146 C140 0.930 . S
H147 C144 0.930 . S
O148 Li88 1.956 . S
O148 Li89 1.970 . S
O148 Li90 1.961 1_455 S
O148 C92 1.325 . S
O149 Li88 1.970 . S
O149 Li89 1.956 . S
O149 Li91 1.961 1_455 S
O149 C98 1.325 . S
O150 Li88 1.961 1_655 S
O150 Li90 1.956 . S
O150 Li91 1.970 . S
O150 C120 1.325 . S
O151 Li89 1.931 1_655 S
O151 Li90 1.972 . S
O151 Li91 1.999 . S
O151 C126 1.323 . S
H152 C94 0.929 . S
H153 C95 0.930 . S
H154 C96 0.930 . S
H155 C97 0.930 . S
H156 C99 0.930 . S
H157 C101 0.929 . S
H158 C102 0.936 . S
H159 C103 0.930 . S
H160 C106 0.930 . S
H161 C109 0.929 . S
H162 C114 0.929 . S
H163 C115 0.930 . S
H164 C122 0.929 . S
H165 C123 0.930 . S
H166 C124 0.930 . S
H167 C125 0.930 . S
H168 C127 0.929 . S
H169 C128 0.930 . S
H170 C129 0.930 . S
H171 C130 0.943 . S
H172 C134 0.929 . S
H173 C136 0.930 . S
H174 C142 0.929 . S
H175 C143 0.930 . S
Li176 N193 1.990 . S
Li176 O236 1.956 . S
Li176 O237 1.970 . S
Li176 O238 1.961 . S
Li177 N201 1.990 . S
Li177 O236 1.970 . S
Li177 O237 1.956 . S
Li177 O239 1.961 . S
Li178 N223 1.990 . S
Li178 O236 1.961 . S
Li178 O238 1.956 . S
Li178 O239 1.970 . S
Li179 N229 1.990 . S
Li179 O237 1.961 . S
Li179 O238 1.970 . S
Li179 O239 1.956 . S
C180 C182 1.348 . S
C180 C183 1.356 . S
C180 O236 1.325 . S
N181 C184 1.314 . S
N181 C185 1.279 . S
C182 C180 1.348 . S
C182 C184 1.353 . S
C182 H240 0.929 . S
C183 C180 1.356 . S
C183 C185 1.358 . S
C183 H241 0.930 . S
C184 N181 1.314 . S
C184 C182 1.353 . S
C184 H242 0.930 . S
C185 N181 1.279 . S
C185 C183 1.358 . S
C185 H243 0.930 . S
C186 C189 1.348 . S
C186 C190 1.356 . S
C186 O237 1.325 . S
C187 N188 1.279 . S
C187 C190 1.358 . S
C187 H244 0.930 . S
N188 C187 1.279 . S
N188 C191 1.314 . S
C189 C186 1.348 . S
C189 C191 1.353 . S
C189 H245 0.929 . S
C190 C186 1.356 . S
C190 C187 1.358 . S
C190 H246 0.930 . S
C191 N188 1.314 . S
C191 C189 1.353 . S
C191 H247 0.930 . S
C192 N193 1.314 . S
C192 C197 1.353 . S
C192 H198 0.930 . S
N193 Li176 1.990 . S
N193 C192 1.314 . S
N193 C195 1.279 . S
C194 C195 1.358 . S
C194 C196 1.356 . S
C194 H248 0.930 . S
C195 N193 1.279 . S
C195 C194 1.358 . S
C195 H199 0.930 . S
C196 C194 1.356 . S
C196 C197 1.348 . S
C197 C192 1.353 . S
C197 C196 1.348 . S
C197 H249 0.929 . S
H198 C192 0.930 . S
H199 C195 0.930 . S
C200 N201 1.314 . S
C200 C202 1.353 . S
C200 H206 0.930 . S
N201 Li177 1.990 . S
N201 C200 1.314 . S
N201 C204 1.279 . S
C202 C200 1.353 . S
C202 C205 1.348 . S
C202 H250 0.929 . S
C203 C204 1.358 . S
C203 C205 1.356 . S
C203 H251 0.930 . S
C204 N201 1.279 . S
C204 C203 1.358 . S
C204 H207 0.930 . S
C205 C202 1.348 . S
C205 C203 1.356 . S
H206 C200 0.930 . S
H207 C204 0.930 . S
C208 C210 1.348 . S
C208 C211 1.356 . S
C208 O238 1.325 . S
N209 C212 1.314 . S
N209 C213 1.279 . S
C210 C208 1.348 . S
C210 C212 1.353 . S
C210 H252 0.929 . S
C211 C208 1.356 . S
C211 C213 1.358 . S
C211 H253 0.930 . S
C212 N209 1.314 . S
C212 C210 1.353 . S
C212 H254 0.930 . S
C213 N209 1.279 . S
C213 C211 1.358 . S
C213 H255 0.930 . S
C214 C215 1.348 . S
C214 C216 1.356 . S
C214 O239 1.325 . S
C215 C214 1.348 . S
C215 C217 1.353 . S
C215 H256 0.929 . S
C216 C214 1.356 . S
C216 C218 1.358 . S
C216 H257 0.930 . S
C217 C215 1.353 . S
C217 N219 1.314 . S
C217 H258 0.930 . S
C218 C216 1.358 . S
C218 N219 1.279 . S
C218 H259 0.930 . S
N219 C217 1.314 . S
N219 C218 1.279 . S
C220 C222 1.353 . S
C220 N223 1.314 . S
C220 H226 0.930 . S
C221 N223 1.279 . S
C221 C224 1.358 . S
C221 H227 0.930 . S
C222 C220 1.353 . S
C222 C225 1.348 . S
C222 H260 0.929 . S
N223 Li178 1.990 . S
N223 C220 1.314 . S
N223 C221 1.279 . S
C224 C221 1.358 . S
C224 C225 1.356 . S
C224 H261 0.930 . S
C225 C222 1.348 . S
C225 C224 1.356 . S
H226 C220 0.930 . S
H227 C221 0.930 . S
C228 N229 1.314 . S
C228 C230 1.353 . S
C228 H234 0.930 . S
N229 Li179 1.990 . S
N229 C228 1.314 . S
N229 C232 1.279 . S
C230 C228 1.353 . S
C230 C233 1.348 . S
C230 H262 0.929 . S
C231 C232 1.358 . S
C231 C233 1.356 . S
C231 H263 0.930 . S
C232 N229 1.279 . S
C232 C231 1.358 . S
C232 H235 0.930 . S
C233 C230 1.348 . S
C233 C231 1.356 . S
H234 C228 0.930 . S
H235 C232 0.930 . S
O236 Li176 1.956 . S
O236 Li177 1.970 . S
O236 Li178 1.961 . S
O236 C180 1.325 . S
O237 Li176 1.970 . S
O237 Li177 1.956 . S
O237 Li179 1.961 . S
O237 C186 1.325 . S
O238 Li176 1.961 . S
O238 Li178 1.956 . S
O238 Li179 1.970 . S
O238 C208 1.325 . S
O239 Li177 1.961 . S
O239 Li178 1.970 . S
O239 Li179 1.956 . S
O239 C214 1.325 . S
H240 C182 0.929 . S
H241 C183 0.930 . S
H242 C184 0.930 . S
H243 C185 0.930 . S
H244 C187 0.930 . S
H245 C189 0.929 . S
H246 C190 0.930 . S
H247 C191 0.930 . S
H248 C194 0.930 . S
H249 C197 0.929 . S
H250 C202 0.929 . S
H251 C203 0.930 . S
H252 C210 0.929 . S
H253 C211 0.930 . S
H254 C212 0.930 . S
H255 C213 0.930 . S
H256 C215 0.929 . S
H257 C216 0.930 . S
H258 C217 0.930 . S
H259 C218 0.930 . S
H260 C222 0.929 . S
H261 C224 0.930 . S
H262 C230 0.929 . S
H263 C231 0.930 . S
Li264 N281 1.990 . S
Li264 O324 1.956 . S
Li264 O325 1.970 . S
Li264 O326 1.961 . S
Li265 N289 1.990 . S
Li265 O324 1.970 . S
Li265 O325 1.956 . S
Li265 O327 1.961 . S
Li266 N311 1.990 . S
Li266 O324 1.961 . S
Li266 O326 1.956 . S
Li266 O327 1.970 . S
Li267 N317 1.990 . S
Li267 O325 1.961 . S
Li267 O326 1.970 . S
Li267 O327 1.956 . S
C268 C270 1.348 . S
C268 C271 1.356 . S
C268 O324 1.325 . S
N269 C272 1.314 . S
N269 C273 1.279 . S
C270 C268 1.348 . S
C270 C272 1.353 . S
C270 H328 0.929 . S
C271 C268 1.356 . S
C271 C273 1.358 . S
C271 H329 0.930 . S
C272 N269 1.314 . S
C272 C270 1.353 . S
C272 H330 0.930 . S
C273 N269 1.279 . S
C273 C271 1.358 . S
C273 H331 0.930 . S
C274 C277 1.348 . S
C274 C278 1.356 . S
C274 O325 1.325 . S
C275 N276 1.279 . S
C275 C278 1.358 . S
C275 H332 0.930 . S
N276 C275 1.279 . S
N276 C279 1.314 . S
C277 C274 1.348 . S
C277 C279 1.353 . S
C277 H333 0.929 . S
C278 C274 1.356 . S
C278 C275 1.358 . S
C278 H334 0.930 . S
C279 N276 1.314 . S
C279 C277 1.353 . S
C279 H335 0.930 . S
C280 N281 1.314 . S
C280 C285 1.353 . S
C280 H286 0.930 . S
N281 Li264 1.990 . S
N281 C280 1.314 . S
N281 C283 1.279 . S
C282 C283 1.358 . S
C282 C284 1.356 . S
C282 H336 0.930 . S
C283 N281 1.279 . S
C283 C282 1.358 . S
C283 H287 0.930 . S
C284 C282 1.356 . S
C284 C285 1.348 . S
C285 C280 1.353 . S
C285 C284 1.348 . S
C285 H337 0.929 . S
H286 C280 0.930 . S
H287 C283 0.930 . S
C288 N289 1.314 . S
C288 C290 1.353 . S
C288 H294 0.930 . S
N289 Li265 1.990 . S
N289 C288 1.314 . S
N289 C292 1.279 . S
C290 C288 1.353 . S
C290 C293 1.348 . S
C290 H338 0.929 . S
C291 C292 1.358 . S
C291 C293 1.356 . S
C291 H339 0.930 . S
C292 N289 1.279 . S
C292 C291 1.358 . S
C292 H295 0.930 . S
C293 C290 1.348 . S
C293 C291 1.356 . S
H294 C288 0.930 . S
H295 C292 0.930 . S
C296 C298 1.348 . S
C296 C299 1.356 . S
C296 O326 1.325 . S
N297 C300 1.314 . S
N297 C301 1.279 . S
C298 C296 1.348 . S
C298 C300 1.353 . S
C298 H340 0.929 . S
C299 C296 1.356 . S
C299 C301 1.358 . S
C299 H341 0.930 . S
C300 N297 1.314 . S
C300 C298 1.353 . S
C300 H342 0.930 . S
C301 N297 1.279 . S
C301 C299 1.358 . S
C301 H343 0.930 . S
C302 C303 1.348 . S
C302 C304 1.356 . S
C302 O327 1.325 . S
C303 C302 1.348 . S
C303 C305 1.353 . S
C303 H344 0.929 . S
C304 C302 1.356 . S
C304 C306 1.358 . S
C304 H345 0.930 . S
C305 C303 1.353 . S
C305 N307 1.314 . S
C305 H346 0.930 . S
C306 C304 1.358 . S
C306 N307 1.279 . S
C306 H347 0.930 . S
N307 C305 1.314 . S
N307 C306 1.279 . S
C308 C310 1.353 . S
C308 N311 1.314 . S
C308 H314 0.930 . S
C309 N311 1.279 . S
C309 C312 1.358 . S
C309 H315 0.930 . S
C310 C308 1.353 . S
C310 C313 1.348 . S
C310 H348 0.929 . S
N311 Li266 1.990 . S
N311 C308 1.314 . S
N311 C309 1.279 . S
C312 C309 1.358 . S
C312 C313 1.356 . S
C312 H349 0.930 . S
C313 C310 1.348 . S
C313 C312 1.356 . S
H314 C308 0.930 . S
H315 C309 0.930 . S
C316 N317 1.314 . S
C316 C318 1.353 . S
C316 H322 0.930 . S
N317 Li267 1.990 . S
N317 C316 1.314 . S
N317 C320 1.279 . S
C318 C316 1.353 . S
C318 C321 1.348 . S
C318 H350 0.929 . S
C319 C320 1.358 . S
C319 C321 1.356 . S
C319 H351 0.930 . S
C320 N317 1.279 . S
C320 C319 1.358 . S
C320 H323 0.930 . S
C321 C318 1.348 . S
C321 C319 1.356 . S
H322 C316 0.930 . S
H323 C320 0.930 . S
O324 Li264 1.956 . S
O324 Li265 1.970 . S
O324 Li266 1.961 . S
O324 C268 1.325 . S
O325 Li264 1.970 . S
O325 Li265 1.956 . S
O325 Li267 1.961 . S
O325 C274 1.325 . S
O326 Li264 1.961 . S
O326 Li266 1.956 . S
O326 Li267 1.970 . S
O326 C296 1.325 . S
O327 Li265 1.961 . S
O327 Li266 1.970 . S
O327 Li267 1.956 . S
O327 C302 1.325 . S
H328 C270 0.929 . S
H329 C271 0.930 . S
H330 C272 0.930 . S
H331 C273 0.930 . S
H332 C275 0.930 . S
H333 C277 0.929 . S
H334 C278 0.930 . S
H335 C279 0.930 . S
H336 C282 0.930 . S
H337 C285 0.929 . S
H338 C290 0.929 . S
H339 C291 0.930 . S
H340 C298 0.929 . S
H341 C299 0.930 . S
H342 C300 0.930 . S
H343 C301 0.930 . S
H344 C303 0.929 . S
H345 C304 0.930 . S
H346 C305 0.930 . S
H347 C306 0.930 . S
H348 C310 0.929 . S
H349 C312 0.930 . S
H350 C318 0.929 . S
H351 C319 0.930 . S
Li352 N369 1.990 . S
Li352 O412 1.956 . S
Li352 O413 1.970 . S
Li352 O414 1.961 . S
Li353 N377 1.990 . S
Li353 O412 1.970 . S
Li353 O413 1.956 . S
Li353 O415 1.961 . S
Li354 N399 1.990 . S
Li354 O412 1.961 . S
Li354 O414 1.956 . S
Li354 O415 1.970 . S
Li355 N405 1.990 . S
Li355 O413 1.961 . S
Li355 O414 1.970 . S
Li355 O415 1.956 . S
C356 C358 1.348 . S
C356 C359 1.356 . S
C356 O412 1.325 . S
N357 C360 1.314 . S
N357 C361 1.279 . S
C358 C356 1.348 . S
C358 C360 1.353 . S
C358 H416 0.929 . S
C359 C356 1.356 . S
C359 C361 1.358 . S
C359 H417 0.930 . S
C360 N357 1.314 . S
C360 C358 1.353 . S
C360 H418 0.930 . S
C361 N357 1.279 . S
C361 C359 1.358 . S
C361 H419 0.930 . S
C362 C365 1.348 . S
C362 C366 1.356 . S
C362 O413 1.325 . S
C363 N364 1.279 . S
C363 C366 1.358 . S
C363 H420 0.930 . S
N364 C363 1.279 . S
N364 C367 1.314 . S
C365 C362 1.348 . S
C365 C367 1.353 . S
C365 H421 0.929 . S
C366 C362 1.356 . S
C366 C363 1.358 . S
C366 H422 0.930 . S
C367 N364 1.314 . S
C367 C365 1.353 . S
C367 H423 0.930 . S
C368 N369 1.314 . S
C368 C373 1.353 . S
C368 H374 0.930 . S
N369 Li352 1.990 . S
N369 C368 1.314 . S
N369 C371 1.279 . S
C370 C371 1.358 . S
C370 C372 1.356 . S
C370 H424 0.930 . S
C371 N369 1.279 . S
C371 C370 1.358 . S
C371 H375 0.930 . S
C372 C370 1.356 . S
C372 C373 1.348 . S
C373 C368 1.353 . S
C373 C372 1.348 . S
C373 H425 0.929 . S
H374 C368 0.930 . S
H375 C371 0.930 . S
C376 N377 1.314 . S
C376 C378 1.353 . S
C376 H382 0.930 . S
N377 Li353 1.990 . S
N377 C376 1.314 . S
N377 C380 1.279 . S
C378 C376 1.353 . S
C378 C381 1.348 . S
C378 H426 0.929 . S
C379 C380 1.358 . S
C379 C381 1.356 . S
C379 H427 0.930 . S
C380 N377 1.279 . S
C380 C379 1.358 . S
C380 H383 0.930 . S
C381 C378 1.348 . S
C381 C379 1.356 . S
H382 C376 0.930 . S
H383 C380 0.930 . S
C384 C386 1.348 . S
C384 C387 1.356 . S
C384 O414 1.325 . S
N385 C388 1.314 . S
N385 C389 1.279 1_655 S
C386 C384 1.348 . S
C386 C388 1.353 1_455 S
C386 H428 0.929 . S
C387 C384 1.356 . S
C387 C389 1.358 . S
C387 H429 0.930 . S
C388 N385 1.314 . S
C388 C386 1.353 1_655 S
C388 H430 0.930 . S
C389 N385 1.279 1_455 S
C389 C387 1.358 . S
C389 H431 0.930 . S
C390 C391 1.348 . S
C390 C392 1.356 . S
C390 O415 1.325 . S
C391 C390 1.348 . S
C391 C393 1.353 . S
C391 H432 0.929 . S
C392 C390 1.356 . S
C392 C394 1.358 . S
C392 H433 0.930 . S
C393 C391 1.353 . S
C393 N395 1.314 . S
C393 H434 0.930 . S
C394 C392 1.358 . S
C394 N395 1.279 . S
C394 H435 0.930 . S
N395 C393 1.314 . S
N395 C394 1.279 . S
C396 C398 1.353 . S
C396 N399 1.314 . S
C396 H402 0.930 . S
C397 N399 1.279 . S
C397 C400 1.358 . S
C397 H403 0.930 . S
C398 C396 1.353 . S
C398 C401 1.348 . S
C398 H436 0.929 . S
N399 Li354 1.990 . S
N399 C396 1.314 . S
N399 C397 1.279 . S
C400 C397 1.358 . S
C400 C401 1.356 . S
C400 H437 0.930 . S
C401 C398 1.348 . S
C401 C400 1.356 . S
H402 C396 0.930 . S
H403 C397 0.930 . S
C404 N405 1.314 . S
C404 C406 1.353 . S
C404 H410 0.930 . S
N405 Li355 1.990 . S
N405 C404 1.314 . S
N405 C408 1.279 . S
C406 C404 1.353 . S
C406 C409 1.348 1_455 S
C406 H438 0.929 1_455 S
C407 C408 1.358 . S
C407 C409 1.356 1_455 S
C407 H439 0.926 1_455 S
C408 N405 1.279 . S
C408 C407 1.358 . S
C408 H411 0.930 . S
C409 C406 1.348 1_655 S
C409 C407 1.356 1_655 S
H410 C404 0.930 . S
H411 C408 0.930 . S
O412 Li352 1.956 . S
O412 Li353 1.970 . S
O412 Li354 1.961 . S
O412 C356 1.325 . S
O413 Li352 1.970 . S
O413 Li353 1.956 . S
O413 Li355 1.961 . S
O413 C362 1.325 . S
O414 Li352 1.961 . S
O414 Li354 1.956 . S
O414 Li355 1.970 . S
O414 C384 1.325 . S
O415 Li353 1.961 . S
O415 Li354 1.970 . S
O415 Li355 1.956 . S
O415 C390 1.325 . S
H416 C358 0.929 . S
H417 C359 0.930 . S
H418 C360 0.930 . S
H419 C361 0.930 . S
H420 C363 0.930 . S
H421 C365 0.929 . S
H422 C366 0.930 . S
H423 C367 0.930 . S
H424 C370 0.930 . S
H425 C373 0.929 . S
H426 C378 0.929 . S
H427 C379 0.930 . S
H428 C386 0.929 . S
H429 C387 0.930 . S
H430 C388 0.930 . S
H431 C389 0.930 . S
H432 C391 0.929 . S
H433 C392 0.930 . S
H434 C393 0.930 . S
H435 C394 0.930 . S
H436 C398 0.929 . S
H437 C400 0.930 . S
H438 C406 0.929 1_655 S
H439 C407 0.926 1_655 S
Li440 N457 1.990 . S
Li440 O500 1.956 . S
Li440 O501 1.970 . S
Li440 O502 1.961 . S
Li441 N465 1.990 . S
Li441 O500 1.970 . S
Li441 O501 1.956 . S
Li441 O503 1.961 . S
Li442 N487 1.990 . S
Li442 O500 1.961 . S
Li442 O502 1.956 . S
Li442 O503 1.970 . S
Li443 N493 1.990 . S
Li443 O501 1.961 . S
Li443 O502 1.970 . S
Li443 O503 1.956 . S
C444 C446 1.348 . S
C444 C447 1.356 . S
C444 O500 1.325 . S
N445 C448 1.314 . S
N445 C449 1.279 . S
C446 C444 1.348 . S
C446 C448 1.353 . S
C446 H504 0.929 . S
C447 C444 1.356 . S
C447 C449 1.358 . S
C447 H505 0.930 . S
C448 N445 1.314 . S
C448 C446 1.353 . S
C448 H506 0.930 . S
C449 N445 1.279 . S
C449 C447 1.358 . S
C449 H507 0.930 . S
C450 C453 1.348 . S
C450 C454 1.356 . S
C450 O501 1.325 . S
C451 N452 1.279 . S
C451 C454 1.358 . S
C451 H508 0.930 . S
N452 C451 1.279 . S
N452 C455 1.314 . S
C453 C450 1.348 . S
C453 C455 1.353 . S
C453 H509 0.929 . S
C454 C450 1.356 . S
C454 C451 1.358 . S
C454 H510 0.930 . S
C455 N452 1.314 . S
C455 C453 1.353 . S
C455 H511 0.930 . S
C456 N457 1.314 . S
C456 C461 1.353 . S
C456 H462 0.930 . S
N457 Li440 1.990 . S
N457 C456 1.314 . S
N457 C459 1.279 . S
C458 C459 1.358 . S
C458 C460 1.356 . S
C458 H512 0.930 . S
C459 N457 1.279 . S
C459 C458 1.358 . S
C459 H463 0.930 . S
C460 C458 1.356 . S
C460 C461 1.348 . S
C461 C456 1.353 . S
C461 C460 1.348 . S
C461 H513 0.929 . S
H462 C456 0.930 . S
H463 C459 0.930 . S
C464 N465 1.314 . S
C464 C466 1.353 . S
C464 H470 0.930 . S
N465 Li441 1.990 . S
N465 C464 1.314 . S
N465 C468 1.279 . S
C466 C464 1.353 . S
C466 C469 1.348 . S
C466 H514 0.929 . S
C467 C468 1.358 . S
C467 C469 1.356 . S
C467 H515 0.930 . S
C468 N465 1.279 . S
C468 C467 1.358 . S
C468 H471 0.930 . S
C469 C466 1.348 . S
C469 C467 1.356 . S
H470 C464 0.930 . S
H471 C468 0.930 . S
C472 C474 1.348 . S
C472 C475 1.356 . S
C472 O502 1.325 . S
N473 C476 1.314 . S
N473 C477 1.279 . S
C474 C472 1.348 . S
C474 C476 1.353 . S
C474 H516 0.929 . S
C475 C472 1.356 . S
C475 C477 1.358 . S
C475 H517 0.930 . S
C476 N473 1.314 . S
C476 C474 1.353 . S
C476 H518 0.930 . S
C477 N473 1.279 . S
C477 C475 1.358 . S
C477 H519 0.930 . S
C478 C479 1.348 . S
C478 C480 1.356 . S
C478 O503 1.325 . S
C479 C478 1.348 . S
C479 C481 1.353 . S
C479 H520 0.929 . S
C480 C478 1.356 . S
C480 C482 1.358 . S
C480 H521 0.930 . S
C481 C479 1.353 . S
C481 N483 1.314 . S
C481 H522 0.930 . S
C482 C480 1.358 . S
C482 N483 1.279 . S
C482 H523 0.930 . S
N483 C481 1.314 . S
N483 C482 1.279 . S
C484 C486 1.353 . S
C484 N487 1.314 . S
C484 H490 0.930 . S
C485 N487 1.279 . S
C485 C488 1.358 . S
C485 H491 0.930 . S
C486 C484 1.353 . S
C486 C489 1.348 . S
C486 H524 0.929 . S
N487 Li442 1.990 . S
N487 C484 1.314 . S
N487 C485 1.279 . S
C488 C485 1.358 . S
C488 C489 1.356 . S
C488 H525 0.930 . S
C489 C486 1.348 . S
C489 C488 1.356 . S
H490 C484 0.930 . S
H491 C485 0.930 . S
C492 N493 1.314 . S
C492 C494 1.353 . S
C492 H498 0.930 . S
N493 Li443 1.990 . S
N493 C492 1.314 . S
N493 C496 1.279 . S
C494 C492 1.353 . S
C494 C497 1.348 . S
C494 H526 0.929 . S
C495 C496 1.358 . S
C495 C497 1.356 . S
C495 H527 0.930 . S
C496 N493 1.279 . S
C496 C495 1.358 . S
C496 H499 0.930 . S
C497 C494 1.348 . S
C497 C495 1.356 . S
H498 C492 0.930 . S
H499 C496 0.930 . S
O500 Li440 1.956 . S
O500 Li441 1.970 . S
O500 Li442 1.961 . S
O500 C444 1.325 . S
O501 Li440 1.970 . S
O501 Li441 1.956 . S
O501 Li443 1.961 . S
O501 C450 1.325 . S
O502 Li440 1.961 . S
O502 Li442 1.956 . S
O502 Li443 1.970 . S
O502 C472 1.325 . S
O503 Li441 1.961 . S
O503 Li442 1.970 . S
O503 Li443 1.956 . S
O503 C478 1.325 . S
H504 C446 0.929 . S
H505 C447 0.930 . S
H506 C448 0.930 . S
H507 C449 0.930 . S
H508 C451 0.930 . S
H509 C453 0.929 . S
H510 C454 0.930 . S
H511 C455 0.930 . S
H512 C458 0.930 . S
H513 C461 0.929 . S
H514 C466 0.929 . S
H515 C467 0.930 . S
H516 C474 0.929 . S
H517 C475 0.930 . S
H518 C476 0.930 . S
H519 C477 0.930 . S
H520 C479 0.929 . S
H521 C480 0.930 . S
H522 C481 0.930 . S
H523 C482 0.930 . S
H524 C486 0.929 . S
H525 C488 0.930 . S
H526 C494 0.929 . S
H527 C495 0.930 . S
Li528 N545 1.990 . S
Li528 O588 1.956 . S
Li528 O589 1.970 . S
Li528 O590 1.961 . S
Li529 N553 1.990 . S
Li529 O588 1.970 . S
Li529 O589 1.956 . S
Li529 O591 1.961 . S
Li530 N575 1.990 . S
Li530 O588 1.961 . S
Li530 O590 1.956 . S
Li530 O591 1.970 . S
Li531 N581 1.990 . S
Li531 O589 1.961 . S
Li531 O590 1.970 . S
Li531 O591 1.956 . S
C532 C534 1.348 . S
C532 C535 1.356 . S
C532 O588 1.325 . S
N533 C536 1.314 . S
N533 C537 1.279 . S
C534 C532 1.348 . S
C534 C536 1.353 . S
C534 H592 0.929 . S
C535 C532 1.356 . S
C535 C537 1.358 . S
C535 H593 0.930 . S
C536 N533 1.314 . S
C536 C534 1.353 . S
C536 H594 0.930 . S
C537 N533 1.279 . S
C537 C535 1.358 . S
C537 H595 0.930 . S
C538 C541 1.348 . S
C538 C542 1.356 . S
C538 O589 1.325 . S
C539 N540 1.279 . S
C539 C542 1.358 . S
C539 H596 0.930 . S
N540 C539 1.279 . S
N540 C543 1.314 . S
C541 C538 1.348 . S
C541 C543 1.353 . S
C541 H597 0.929 . S
C542 C538 1.356 . S
C542 C539 1.358 . S
C542 H598 0.930 . S
C543 N540 1.314 . S
C543 C541 1.353 . S
C543 H599 0.930 . S
C544 N545 1.314 . S
C544 C549 1.353 . S
C544 H550 0.930 . S
N545 Li528 1.990 . S
N545 C544 1.314 . S
N545 C547 1.279 . S
C546 C547 1.358 . S
C546 C548 1.356 . S
C546 H600 0.930 . S
C547 N545 1.279 . S
C547 C546 1.358 . S
C547 H551 0.930 . S
C548 C546 1.356 . S
C548 C549 1.348 . S
C549 C544 1.353 . S
C549 C548 1.348 . S
C549 H601 0.929 . S
H550 C544 0.930 . S
H551 C547 0.930 . S
C552 N553 1.314 . S
C552 C554 1.353 . S
C552 H558 0.930 . S
N553 Li529 1.990 . S
N553 C552 1.314 . S
N553 C556 1.279 . S
C554 C552 1.353 . S
C554 C557 1.348 . S
C554 H602 0.929 . S
C555 C556 1.358 . S
C555 C557 1.356 . S
C555 H603 0.930 . S
C556 N553 1.279 . S
C556 C555 1.358 . S
C556 H559 0.930 . S
C557 C554 1.348 . S
C557 C555 1.356 . S
H558 C552 0.930 . S
H559 C556 0.930 . S
C560 C562 1.348 . S
C560 C563 1.356 . S
C560 O590 1.325 . S
N561 C564 1.314 . S
N561 C565 1.279 . S
C562 C560 1.348 . S
C562 C564 1.353 . S
C562 H604 0.929 . S
C563 C560 1.356 . S
C563 C565 1.358 . S
C563 H605 0.930 . S
C564 N561 1.314 . S
C564 C562 1.353 . S
C564 H606 0.930 . S
C565 N561 1.279 . S
C565 C563 1.358 . S
C565 H607 0.930 . S
C566 C567 1.348 . S
C566 C568 1.356 . S
C566 O591 1.325 . S
C567 C566 1.348 . S
C567 C569 1.353 . S
C567 H608 0.929 . S
C568 C566 1.356 . S
C568 C570 1.358 . S
C568 H609 0.930 . S
C569 C567 1.353 . S
C569 N571 1.314 . S
C569 H610 0.930 . S
C570 C568 1.358 . S
C570 N571 1.279 . S
C570 H611 0.930 . S
N571 C569 1.314 . S
N571 C570 1.279 . S
C572 C574 1.353 . S
C572 N575 1.314 . S
C572 H578 0.930 . S
C573 N575 1.279 . S
C573 C576 1.358 . S
C573 H579 0.930 . S
C574 C572 1.353 . S
C574 C577 1.348 . S
C574 H612 0.929 . S
N575 Li530 1.990 . S
N575 C572 1.314 . S
N575 C573 1.279 . S
C576 C573 1.358 . S
C576 C577 1.356 . S
C576 H613 0.930 . S
C577 C574 1.348 . S
C577 C576 1.356 . S
H578 C572 0.930 . S
H579 C573 0.930 . S
C580 N581 1.314 . S
C580 C582 1.353 . S
C580 H586 0.930 . S
N581 Li531 1.990 . S
N581 C580 1.314 . S
N581 C584 1.279 . S
C582 C580 1.353 . S
C582 C585 1.348 . S
C582 H614 0.929 . S
C583 C584 1.358 . S
C583 C585 1.356 . S
C583 H615 0.930 . S
C584 N581 1.279 . S
C584 C583 1.358 . S
C584 H587 0.930 . S
C585 C582 1.348 . S
C585 C583 1.356 . S
H586 C580 0.930 . S
H587 C584 0.930 . S
O588 Li528 1.956 . S
O588 Li529 1.970 . S
O588 Li530 1.961 . S
O588 C532 1.325 . S
O589 Li528 1.970 . S
O589 Li529 1.956 . S
O589 Li531 1.961 . S
O589 C538 1.325 . S
O590 Li528 1.961 . S
O590 Li530 1.956 . S
O590 Li531 1.970 . S
O590 C560 1.325 . S
O591 Li529 1.961 . S
O591 Li530 1.970 . S
O591 Li531 1.956 . S
O591 C566 1.325 . S
H592 C534 0.929 . S
H593 C535 0.930 . S
H594 C536 0.930 . S
H595 C537 0.930 . S
H596 C539 0.930 . S
H597 C541 0.929 . S
H598 C542 0.930 . S
H599 C543 0.930 . S
H600 C546 0.930 . S
H601 C549 0.929 . S
H602 C554 0.929 . S
H603 C555 0.930 . S
H604 C562 0.929 . S
H605 C563 0.930 . S
H606 C564 0.930 . S
H607 C565 0.930 . S
H608 C567 0.929 . S
H609 C568 0.930 . S
H610 C569 0.930 . S
H611 C570 0.930 . S
H612 C574 0.929 . S
H613 C576 0.930 . S
H614 C582 0.929 . S
H615 C583 0.930 . S
Li616 N633 1.990 . S
Li616 O676 1.956 1_455 S
Li616 O677 1.970 . S
Li616 O678 1.961 . S
Li617 N641 1.990 . S
Li617 O676 1.970 . S
Li617 O677 1.956 1_655 S
Li617 O679 1.961 1_655 S
Li618 N663 1.990 . S
Li618 O676 1.961 1_455 S
Li618 O678 1.956 . S
Li618 O679 1.970 . S
Li619 N669 1.990 . S
Li619 O677 1.961 . S
Li619 O678 1.970 . S
Li619 O679 1.956 . S
C620 C622 1.348 . S
C620 C623 1.356 . S
C620 O676 1.325 . S
N621 C624 1.314 . S
N621 C625 1.279 . S
C622 C620 1.348 . S
C622 C624 1.353 . S
C622 H680 0.929 . S
C623 C620 1.356 . S
C623 C625 1.358 . S
C623 H681 0.930 . S
C624 N621 1.314 . S
C624 C622 1.353 . S
C624 H682 0.930 . S
C625 N621 1.279 . S
C625 C623 1.358 . S
C625 H683 0.930 . S
C626 C629 1.348 . S
C626 C630 1.356 . S
C626 O677 1.325 . S
C627 N628 1.279 . S
C627 C630 1.358 . S
C627 H684 0.930 . S
N628 C627 1.279 . S
N628 C631 1.314 . S
C629 C626 1.348 . S
C629 C631 1.353 . S
C629 H685 0.929 . S
C630 C626 1.356 . S
C630 C627 1.358 . S
C630 H686 0.930 . S
C631 N628 1.314 . S
C631 C629 1.353 . S
C631 H687 0.930 . S
C632 N633 1.314 . S
C632 C637 1.353 . S
C632 H638 0.930 . S
N633 Li616 1.990 . S
N633 C632 1.314 . S
N633 C635 1.279 . S
C634 C635 1.358 . S
C634 C636 1.356 . S
C634 H688 0.930 . S
C635 N633 1.279 . S
C635 C634 1.358 . S
C635 H639 0.930 1_455 S
C636 C634 1.356 . S
C636 C637 1.348 . S
C637 C632 1.353 . S
C637 C636 1.348 . S
C637 H689 0.929 . S
H638 C632 0.930 . S
H639 C635 0.930 1_655 S
C640 N641 1.314 . S
C640 C642 1.353 . S
C640 H646 0.930 . S
N641 Li617 1.990 . S
N641 C640 1.314 . S
N641 C644 1.279 . S
C642 C640 1.353 . S
C642 C645 1.348 . S
C642 H690 0.929 . S
C643 C644 1.358 . S
C643 C645 1.356 . S
C643 H691 0.930 . S
C644 N641 1.279 . S
C644 C643 1.358 . S
C644 H647 0.930 . S
C645 C642 1.348 . S
C645 C643 1.356 . S
H646 C640 0.930 . S
H647 C644 0.930 . S
C648 C650 1.348 . S
C648 C651 1.356 . S
C648 O678 1.325 . S
N649 C652 1.314 . S
N649 C653 1.279 . S
C650 C648 1.348 . S
C650 C652 1.353 . S
C650 H692 0.929 . S
C651 C648 1.356 . S
C651 C653 1.358 . S
C651 H693 0.930 . S
C652 N649 1.314 . S
C652 C650 1.353 . S
C652 H694 0.930 . S
C653 N649 1.279 . S
C653 C651 1.358 . S
C653 H695 0.930 . S
C654 C655 1.348 . S
C654 C656 1.356 . S
C654 O679 1.325 . S
C655 C654 1.348 . S
C655 C657 1.353 . S
C655 H696 0.929 . S
C656 C654 1.356 . S
C656 C658 1.358 . S
C656 H697 0.930 . S
C657 C655 1.353 . S
C657 N659 1.314 . S
C657 H698 0.930 . S
C658 C656 1.358 . S
C658 N659 1.279 . S
C658 H699 0.930 1_455 S
N659 C657 1.314 . S
N659 C658 1.279 . S
C660 C662 1.353 . S
C660 N663 1.314 1_655 S
C660 H666 0.930 . S
C661 N663 1.279 . S
C661 C664 1.358 . S
C661 H667 0.930 . S
C662 C660 1.353 . S
C662 C665 1.348 1_655 S
C662 H700 0.929 . S
N663 Li618 1.990 . S
N663 C660 1.314 1_455 S
N663 C661 1.279 . S
C664 C661 1.358 . S
C664 C665 1.356 . S
C664 H701 0.930 . S
C665 C662 1.348 1_455 S
C665 C664 1.356 . S
H666 C660 0.930 . S
H667 C661 0.930 . S
C668 N669 1.314 . S
C668 C670 1.353 . S
C668 H674 0.930 . S
N669 Li619 1.990 . S
N669 C668 1.314 . S
N669 C672 1.279 . S
C670 C668 1.353 . S
C670 C673 1.348 . S
C670 H702 0.929 . S
C671 C672 1.358 . S
C671 C673 1.356 . S
C671 H703 0.930 . S
C672 N669 1.279 . S
C672 C671 1.358 . S
C672 H675 0.930 . S
C673 C670 1.348 . S
C673 C671 1.356 . S
H674 C668 0.930 . S
H675 C672 0.930 . S
O676 Li616 1.956 1_655 S
O676 Li617 1.970 . S
O676 Li618 1.961 1_655 S
O676 C620 1.325 . S
O677 Li616 1.970 . S
O677 Li617 1.956 1_455 S
O677 Li619 1.961 . S
O677 C626 1.325 . S
O678 Li616 1.961 . S
O678 Li618 1.956 . S
O678 Li619 1.970 . S
O678 C648 1.325 . S
O679 Li617 1.961 1_455 S
O679 Li618 1.970 . S
O679 Li619 1.956 . S
O679 C654 1.325 . S
H680 C622 0.929 . S
H681 C623 0.930 . S
H682 C624 0.930 . S
H683 C625 0.930 . S
H684 C627 0.930 . S
H685 C629 0.929 . S
H686 C630 0.930 . S
H687 C631 0.930 . S
H688 C634 0.930 . S
H689 C637 0.929 . S
H690 C642 0.929 . S
H691 C643 0.930 . S
H692 C650 0.929 . S
H693 C651 0.930 . S
H694 C652 0.930 . S
H695 C653 0.930 . S
H696 C655 0.929 . S
H697 C656 0.930 . S
H698 C657 0.930 . S
H699 C658 0.930 1_655 S
H700 C662 0.929 . S
H701 C664 0.930 . S
H702 C670 0.929 . S
H703 C671 0.930 . S
Li704 N721 1.990 . S
Li704 O764 1.956 1_545 S
Li704 O765 1.970 . S
Li704 O766 1.961 . S
Li705 N729 1.990 . S
Li705 O764 1.970 . S
Li705 O765 1.956 1_565 S
Li705 O767 1.970 . S
Li706 N751 1.990 . S
Li706 O764 1.961 1_545 S
Li706 O766 1.956 . S
Li706 O767 1.971 1_545 S
Li707 N757 1.990 . S
Li707 O765 1.961 . S
Li707 O766 1.970 . S
Li707 O767 1.948 1_545 S
C708 C710 1.348 . S
C708 C711 1.356 . S
C708 O764 1.325 . S
N709 C712 1.314 . S
N709 C713 1.279 . S
C710 C708 1.348 . S
C710 C712 1.353 . S
C710 H768 0.929 . S
C711 C708 1.356 . S
C711 C713 1.358 . S
C711 H769 0.930 . S
C712 N709 1.314 . S
C712 C710 1.353 . S
C712 H770 0.930 . S
C713 N709 1.279 . S
C713 C711 1.358 . S
C713 H771 0.930 . S
C714 C717 1.366 . S
C714 C718 1.356 . S
C714 O765 1.325 . S
C715 N716 1.279 . S
C715 C718 1.358 . S
C715 H772 0.930 . S
N716 C715 1.279 . S
N716 C719 1.316 . S
C717 C714 1.366 . S
C717 C719 1.354 . S
C717 H773 0.894 1_545 S
C718 C714 1.356 . S
C718 C715 1.358 . S
C718 H774 0.930 . S
C719 N716 1.316 . S
C719 C717 1.354 . S
C719 H775 0.928 1_545 S
C720 N721 1.314 . S
C720 C725 1.353 . S
C720 H726 0.930 . S
N721 Li704 1.990 . S
N721 C720 1.314 . S
N721 C723 1.265 1_545 S
C722 C723 1.361 1_545 S
C722 C724 1.356 . S
C722 H776 0.930 1_545 S
C723 N721 1.265 1_565 S
C723 C722 1.361 1_565 S
C723 H727 0.944 . S
C724 C722 1.356 . S
C724 C725 1.348 . S
C725 C720 1.353 . S
C725 C724 1.348 . S
C725 H777 0.929 . S
H726 C720 0.930 . S
H727 C723 0.944 . S
C728 N729 1.314 . S
C728 C730 1.353 . S
C728 H734 0.930 . S
N729 Li705 1.990 . S
N729 C728 1.314 . S
N729 C732 1.279 . S
C730 C728 1.353 . S
C730 C733 1.348 . S
C730 H778 0.929 . S
C731 C732 1.358 . S
C731 C733 1.356 . S
C731 H779 0.930 . S
C732 N729 1.279 . S
C732 C731 1.358 . S
C732 H735 0.930 . S
C733 C730 1.348 . S
C733 C731 1.356 . S
H734 C728 0.930 . S
H735 C732 0.930 . S
C736 C738 1.348 . S
C736 C739 1.356 . S
C736 O766 1.325 . S
N737 C740 1.314 . S
N737 C741 1.279 . S
C738 C736 1.348 . S
C738 C740 1.353 . S
C738 H780 0.929 . S
C739 C736 1.356 . S
C739 C741 1.358 . S
C739 H781 0.930 . S
C740 N737 1.314 . S
C740 C738 1.353 . S
C740 H782 0.930 . S
C741 N737 1.279 . S
C741 C739 1.358 . S
C741 H783 0.930 . S
C742 C743 1.348 1_565 S
C742 C744 1.356 . S
C742 O767 1.323 . S
C743 C742 1.348 1_545 S
C743 C745 1.353 1_545 S
C743 H784 0.929 . S
C744 C742 1.356 . S
C744 C746 1.358 . S
C744 H785 0.930 . S
C745 C743 1.353 1_565 S
C745 N747 1.314 . S
C745 H786 0.930 1_565 S
C746 C744 1.358 . S
C746 N747 1.279 . S
C746 H787 0.930 . S
N747 C745 1.314 . S
N747 C746 1.279 . S
C748 C750 1.353 . S
C748 N751 1.314 1_565 S
C748 H754 0.930 . S
C749 N751 1.279 . S
C749 C752 1.358 . S
C749 H755 0.930 . S
C750 C748 1.353 . S
C750 C753 1.348 1_565 S
C750 H788 0.929 . S
N751 Li706 1.990 . S
N751 C748 1.314 1_545 S
N751 C749 1.279 . S
C752 C749 1.358 . S
C752 C753 1.356 . S
C752 H789 0.930 . S
C753 C750 1.348 1_545 S
C753 C752 1.356 . S
H754 C748 0.930 . S
H755 C749 0.930 . S
C756 N757 1.314 . S
C756 C758 1.353 . S
C756 H762 0.930 . S
N757 Li707 1.990 . S
N757 C756 1.314 . S
N757 C760 1.279 . S
C758 C756 1.353 . S
C758 C761 1.348 . S
C758 H790 0.929 . S
C759 C760 1.358 . S
C759 C761 1.356 . S
C759 H791 0.930 . S
C760 N757 1.279 . S
C760 C759 1.358 . S
C760 H763 0.930 . S
C761 C758 1.348 . S
C761 C759 1.356 . S
H762 C756 0.930 . S
H763 C760 0.930 . S
O764 Li704 1.956 1_565 S
O764 Li705 1.970 . S
O764 Li706 1.961 1_565 S
O764 C708 1.325 . S
O765 Li704 1.970 . S
O765 Li705 1.956 1_545 S
O765 Li707 1.961 . S
O765 C714 1.325 . S
O766 Li704 1.961 . S
O766 Li706 1.956 . S
O766 Li707 1.970 . S
O766 C736 1.325 . S
O767 Li705 1.970 . S
O767 Li706 1.971 1_565 S
O767 Li707 1.948 1_565 S
O767 C742 1.323 . S
H768 C710 0.929 . S
H769 C711 0.930 . S
H770 C712 0.930 . S
H771 C713 0.930 . S
H772 C715 0.930 . S
H773 C717 0.894 1_565 S
H774 C718 0.930 . S
H775 C719 0.928 1_565 S
H776 C722 0.930 1_565 S
H777 C725 0.929 . S
H778 C730 0.929 . S
H779 C731 0.930 . S
H780 C738 0.929 . S
H781 C739 0.930 . S
H782 C740 0.930 . S
H783 C741 0.930 . S
H784 C743 0.929 . S
H785 C744 0.930 . S
H786 C745 0.930 1_545 S
H787 C746 0.930 . S
H788 C750 0.929 . S
H789 C752 0.930 . S
H790 C758 0.929 . S
H791 C759 0.930 . S
Li792 N809 1.990 . S
Li792 O852 1.956 . S
Li792 O853 1.970 . S
Li792 O854 1.961 . S
Li793 N817 1.990 . S
Li793 O852 1.970 . S
Li793 O853 1.956 . S
Li793 O855 1.961 . S
Li794 N839 1.990 . S
Li794 O852 1.961 . S
Li794 O854 1.956 . S
Li794 O855 1.970 . S
Li795 N845 1.990 . S
Li795 O853 1.961 . S
Li795 O854 1.970 . S
Li795 O855 1.956 . S
C796 C798 1.348 . S
C796 C799 1.356 . S
C796 O852 1.325 . S
N797 C800 1.314 . S
N797 C801 1.279 . S
C798 C796 1.348 . S
C798 C800 1.353 . S
C798 H856 0.929 . S
C799 C796 1.356 . S
C799 C801 1.358 . S
C799 H857 0.930 . S
C800 N797 1.314 . S
C800 C798 1.353 . S
C800 H858 0.930 . S
C801 N797 1.279 . S
C801 C799 1.358 . S
C801 H859 0.930 . S
C802 C805 1.348 . S
C802 C806 1.356 . S
C802 O853 1.325 . S
C803 N804 1.279 . S
C803 C806 1.358 . S
C803 H860 0.930 . S
N804 C803 1.279 . S
N804 C807 1.314 . S
C805 C802 1.348 . S
C805 C807 1.353 . S
C805 H861 0.929 . S
C806 C802 1.356 . S
C806 C803 1.358 . S
C806 H862 0.930 . S
C807 N804 1.314 . S
C807 C805 1.353 . S
C807 H863 0.930 . S
C808 N809 1.314 . S
C808 C813 1.353 . S
C808 H814 0.930 . S
N809 Li792 1.990 . S
N809 C808 1.314 . S
N809 C811 1.279 . S
C810 C811 1.358 . S
C810 C812 1.356 . S
C810 H864 0.930 . S
C811 N809 1.279 . S
C811 C810 1.358 . S
C811 H815 0.930 . S
C812 C810 1.356 . S
C812 C813 1.348 . S
C813 C808 1.353 . S
C813 C812 1.348 . S
C813 H865 0.929 . S
H814 C808 0.930 . S
H815 C811 0.930 . S
C816 N817 1.314 . S
C816 C818 1.353 . S
C816 H822 0.930 . S
N817 Li793 1.990 . S
N817 C816 1.314 . S
N817 C820 1.279 . S
C818 C816 1.353 . S
C818 C821 1.348 . S
C818 H866 0.929 . S
C819 C820 1.358 . S
C819 C821 1.356 . S
C819 H867 0.930 . S
C820 N817 1.279 . S
C820 C819 1.358 . S
C820 H823 0.930 . S
C821 C818 1.348 . S
C821 C819 1.356 . S
H822 C816 0.930 . S
H823 C820 0.930 . S
C824 C826 1.348 . S
C824 C827 1.356 . S
C824 O854 1.325 . S
N825 C828 1.314 . S
N825 C829 1.279 . S
C826 C824 1.348 . S
C826 C828 1.353 . S
C826 H868 0.929 . S
C827 C824 1.356 . S
C827 C829 1.358 . S
C827 H869 0.930 . S
C828 N825 1.314 . S
C828 C826 1.353 . S
C828 H870 0.930 . S
C829 N825 1.279 . S
C829 C827 1.358 . S
C829 H871 0.930 . S
C830 C831 1.348 . S
C830 C832 1.356 . S
C830 O855 1.325 . S
C831 C830 1.348 . S
C831 C833 1.353 . S
C831 H872 0.929 . S
C832 C830 1.356 . S
C832 C834 1.358 . S
C832 H873 0.930 . S
C833 C831 1.353 . S
C833 N835 1.314 . S
C833 H874 0.930 . S
C834 C832 1.358 . S
C834 N835 1.279 . S
C834 H875 0.930 . S
N835 C833 1.314 . S
N835 C834 1.279 . S
C836 C838 1.353 . S
C836 N839 1.314 . S
C836 H842 0.930 . S
C837 N839 1.279 . S
C837 C840 1.358 . S
C837 H843 0.930 . S
C838 C836 1.353 . S
C838 C841 1.348 . S
C838 H876 0.929 . S
N839 Li794 1.990 . S
N839 C836 1.314 . S
N839 C837 1.279 . S
C840 C837 1.358 . S
C840 C841 1.356 . S
C840 H877 0.930 . S
C841 C838 1.348 . S
C841 C840 1.356 . S
H842 C836 0.930 . S
H843 C837 0.930 . S
C844 N845 1.314 . S
C844 C846 1.353 . S
C844 H850 0.930 . S
N845 Li795 1.990 . S
N845 C844 1.314 . S
N845 C848 1.279 . S
C846 C844 1.353 . S
C846 C849 1.348 . S
C846 H878 0.929 . S
C847 C848 1.358 . S
C847 C849 1.356 . S
C847 H879 0.930 . S
C848 N845 1.279 . S
C848 C847 1.358 . S
C848 H851 0.930 . S
C849 C846 1.348 . S
C849 C847 1.356 . S
H850 C844 0.930 . S
H851 C848 0.930 . S
O852 Li792 1.956 . S
O852 Li793 1.970 . S
O852 Li794 1.961 . S
O852 C796 1.325 . S
O853 Li792 1.970 . S
O853 Li793 1.956 . S
O853 Li795 1.961 . S
O853 C802 1.325 . S
O854 Li792 1.961 . S
O854 Li794 1.956 . S
O854 Li795 1.970 . S
O854 C824 1.325 . S
O855 Li793 1.961 . S
O855 Li794 1.970 . S
O855 Li795 1.956 . S
O855 C830 1.325 . S
H856 C798 0.929 . S
H857 C799 0.930 . S
H858 C800 0.930 . S
H859 C801 0.930 . S
H860 C803 0.930 . S
H861 C805 0.929 . S
H862 C806 0.930 . S
H863 C807 0.930 . S
H864 C810 0.930 . S
H865 C813 0.929 . S
H866 C818 0.929 . S
H867 C819 0.930 . S
H868 C826 0.929 . S
H869 C827 0.930 . S
H870 C828 0.930 . S
H871 C829 0.930 . S
H872 C831 0.929 . S
H873 C832 0.930 . S
H874 C833 0.930 . S
H875 C834 0.930 . S
H876 C838 0.929 . S
H877 C840 0.930 . S
H878 C846 0.929 . S
H879 C847 0.930 . S
Li880 N897 1.990 . S
Li880 O940 1.956 . S
Li880 O941 1.970 . S
Li880 O942 1.995 . S
Li881 N905 1.990 1_545 S
Li881 O940 1.970 . S
Li881 O941 1.960 . S
Li881 O943 1.957 1_545 S
Li882 N927 1.990 . S
Li882 O940 1.961 1_565 S
Li882 O942 1.913 1_565 S
Li882 O943 1.970 . S
Li883 N933 1.990 . S
Li883 O941 1.961 1_565 S
Li883 O942 1.974 1_565 S
Li883 O943 1.956 . S
C884 C886 1.348 . S
C884 C887 1.356 . S
C884 O940 1.325 . S
N885 C888 1.314 . S
N885 C889 1.279 . S
C886 C884 1.348 . S
C886 C888 1.353 . S
C886 H944 0.929 . S
C887 C884 1.356 . S
C887 C889 1.358 . S
C887 H945 0.930 . S
C888 N885 1.314 . S
C888 C886 1.353 . S
C888 H946 0.930 . S
C889 N885 1.279 . S
C889 C887 1.358 . S
C889 H947 0.930 . S
C890 C893 1.348 . S
C890 C894 1.356 . S
C890 O941 1.325 . S
C891 N892 1.279 . S
C891 C894 1.358 . S
C891 H948 0.930 . S
N892 C891 1.279 . S
N892 C895 1.314 . S
C893 C890 1.348 . S
C893 C895 1.353 . S
C893 H949 0.929 . S
C894 C890 1.356 . S
C894 C891 1.358 . S
C894 H950 0.930 . S
C895 N892 1.314 . S
C895 C893 1.353 . S
C895 H951 0.930 . S
C896 N897 1.314 . S
C896 C901 1.353 . S
C896 H902 0.930 . S
N897 Li880 1.990 . S
N897 C896 1.314 . S
N897 C899 1.279 . S
C898 C899 1.358 . S
C898 C900 1.356 . S
C898 H952 0.930 . S
C899 N897 1.279 . S
C899 C898 1.358 . S
C899 H903 0.930 . S
C900 C898 1.356 . S
C900 C901 1.348 . S
C901 C896 1.353 . S
C901 C900 1.348 . S
C901 H953 0.929 . S
H902 C896 0.930 . S
H903 C899 0.930 . S
C904 N905 1.320 . S
C904 C906 1.353 . S
C904 H910 0.930 . S
N905 Li881 1.990 1_565 S
N905 C904 1.320 . S
N905 C908 1.274 1_565 S
C906 C904 1.353 . S
C906 C909 1.348 . S
C906 H954 0.929 . S
C907 C908 1.358 . S
C907 C909 1.356 1_545 S
C907 H955 0.930 . S
C908 N905 1.274 1_545 S
C908 C907 1.358 . S
C908 H911 0.930 . S
C909 C906 1.348 . S
C909 C907 1.356 1_565 S
H910 C904 0.930 . S
H911 C908 0.930 . S
C912 C914 1.339 1_545 S
C912 C915 1.361 . S
C912 O942 1.325 . S
N913 C916 1.313 1_545 S
N913 C917 1.281 . S
C914 C912 1.339 1_565 S
C914 C916 1.353 . S
C914 H956 0.929 . S
C915 C912 1.361 . S
C915 C917 1.358 . S
C915 H957 0.930 . S
C916 N913 1.313 1_565 S
C916 C914 1.353 . S
C916 H958 0.930 . S
C917 N913 1.281 . S
C917 C915 1.358 . S
C917 H959 0.930 . S
C918 C919 1.348 . S
C918 C920 1.356 . S
C918 O943 1.325 . S
C919 C918 1.348 . S
C919 C921 1.353 . S
C919 H960 0.929 . S
C920 C918 1.356 . S
C920 C922 1.358 . S
C920 H961 0.930 . S
C921 C919 1.353 . S
C921 N923 1.314 . S
C921 H962 0.930 . S
C922 C920 1.358 . S
C922 N923 1.279 . S
C922 H963 0.930 . S
N923 C921 1.314 . S
N923 C922 1.279 . S
C924 C926 1.353 . S
C924 N927 1.314 . S
C924 H930 0.930 . S
C925 N927 1.279 . S
C925 C928 1.358 . S
C925 H931 0.930 . S
C926 C924 1.353 . S
C926 C929 1.348 . S
C926 H964 0.929 . S
N927 Li882 1.990 . S
N927 C924 1.314 . S
N927 C925 1.279 . S
C928 C925 1.358 . S
C928 C929 1.356 . S
C928 H965 0.930 . S
C929 C926 1.348 . S
C929 C928 1.356 . S
H930 C924 0.930 . S
H931 C925 0.930 . S
C932 N933 1.314 1_545 S
C932 C934 1.353 . S
C932 H938 0.930 . S
N933 Li883 1.990 . S
N933 C932 1.314 1_565 S
N933 C936 1.279 . S
C934 C932 1.353 . S
C934 C937 1.348 1_545 S
C934 H966 0.929 . S
C935 C936 1.358 . S
C935 C937 1.356 . S
C935 H967 0.930 . S
C936 N933 1.279 . S
C936 C935 1.358 . S
C936 H939 0.930 . S
C937 C934 1.348 1_565 S
C937 C935 1.356 . S
H938 C932 0.930 . S
H939 C936 0.930 . S
O940 Li880 1.956 . S
O940 Li881 1.970 . S
O940 Li882 1.961 1_545 S
O940 C884 1.325 . S
O941 Li880 1.970 . S
O941 Li881 1.960 . S
O941 Li883 1.961 1_545 S
O941 C890 1.325 . S
O942 Li880 1.995 . S
O942 Li882 1.913 1_545 S
O942 Li883 1.974 1_545 S
O942 C912 1.325 . S
O943 Li881 1.957 1_565 S
O943 Li882 1.970 . S
O943 Li883 1.956 . S
O943 C918 1.325 . S
H944 C886 0.929 . S
H945 C887 0.930 . S
H946 C888 0.930 . S
H947 C889 0.930 . S
H948 C891 0.930 . S
H949 C893 0.929 . S
H950 C894 0.930 . S
H951 C895 0.930 . S
H952 C898 0.930 . S
H953 C901 0.929 . S
H954 C906 0.929 . S
H955 C907 0.930 . S
H956 C914 0.929 . S
H957 C915 0.930 . S
H958 C916 0.930 . S
H959 C917 0.930 . S
H960 C919 0.929 . S
H961 C920 0.930 . S
H962 C921 0.930 . S
H963 C922 0.930 . S
H964 C926 0.929 . S
H965 C928 0.930 . S
H966 C934 0.929 . S
H967 C935 0.930 . S
Li968 N985 1.990 . S
Li968 O1028 1.956 . S
Li968 O1029 1.970 . S
Li968 O1030 1.961 1_554 S
Li969 N993 1.990 . S
Li969 O1028 1.970 . S
Li969 O1029 1.956 . S
Li969 O1031 1.961 . S
Li970 N1015 1.990 . S
Li970 O1028 1.961 . S
Li970 O1030 1.956 1_554 S
Li970 O1031 1.970 . S
Li971 N1021 1.990 . S
Li971 O1029 1.961 1_556 S
Li971 O1030 1.970 . S
Li971 O1031 1.956 1_556 S
C972 C974 1.348 . S
C972 C975 1.356 . S
C972 O1028 1.325 . S
N973 C976 1.314 . S
N973 C977 1.279 . S
C974 C972 1.348 . S
C974 C976 1.353 . S
C974 H1032 0.929 . S
C975 C972 1.356 . S
C975 C977 1.358 . S
C975 H1033 0.930 . S
C976 N973 1.314 . S
C976 C974 1.353 . S
C976 H1034 0.930 . S
C977 N973 1.279 . S
C977 C975 1.358 . S
C977 H1035 0.930 . S
C978 C981 1.348 . S
C978 C982 1.353 1_554 S
C978 O1029 1.325 . S
C979 N980 1.279 1_556 S
C979 C982 1.356 . S
C979 H1036 0.930 . S
N980 C979 1.279 1_554 S
N980 C983 1.314 . S
C981 C978 1.348 . S
C981 C983 1.353 . S
C981 H1037 0.929 . S
C982 C978 1.353 1_556 S
C982 C979 1.356 . S
C982 H1038 0.935 . S
C983 N980 1.314 . S
C983 C981 1.353 . S
C983 H1039 0.930 . S
C984 N985 1.314 1_556 S
C984 C989 1.353 . S
C984 H990 0.930 . S
N985 Li968 1.990 . S
N985 C984 1.314 1_554 S
N985 C987 1.279 . S
C986 C987 1.358 . S
C986 C988 1.356 . S
C986 H1040 0.930 . S
C987 N985 1.279 . S
C987 C986 1.358 . S
C987 H991 0.930 . S
C988 C986 1.356 . S
C988 C989 1.348 1_554 S
C989 C984 1.353 . S
C989 C988 1.348 1_556 S
C989 H1041 0.929 . S
H990 C984 0.930 . S
H991 C987 0.930 . S
C992 N993 1.314 . S
C992 C994 1.353 . S
C992 H998 0.930 . S
N993 Li969 1.990 . S
N993 C992 1.314 . S
N993 C996 1.279 . S
C994 C992 1.353 . S
C994 C997 1.348 . S
C994 H1042 0.929 . S
C995 C996 1.358 . S
C995 C997 1.356 . S
C995 H1043 0.930 . S
C996 N993 1.279 . S
C996 C995 1.358 . S
C996 H999 0.930 . S
C997 C994 1.348 . S
C997 C995 1.356 . S
H998 C992 0.930 . S
H999 C996 0.930 . S
C1000 C1002 1.348 . S
C1000 C1003 1.356 . S
C1000 O1030 1.325 . S
N1001 C1004 1.314 . S
N1001 C1005 1.279 . S
C1002 C1000 1.348 . S
C1002 C1004 1.353 . S
C1002 H1044 0.929 . S
C1003 C1000 1.356 . S
C1003 C1005 1.358 . S
C1003 H1045 0.930 . S
C1004 N1001 1.314 . S
C1004 C1002 1.353 . S
C1004 H1046 0.930 . S
C1005 N1001 1.279 . S
C1005 C1003 1.358 . S
C1005 H1047 0.930 . S
C1006 C1007 1.348 . S
C1006 C1008 1.356 . S
C1006 O1031 1.325 . S
C1007 C1006 1.348 . S
C1007 C1009 1.353 . S
C1007 H1048 0.929 . S
C1008 C1006 1.356 . S
C1008 C1010 1.358 . S
C1008 H1049 0.930 . S
C1009 C1007 1.353 . S
C1009 N1011 1.314 . S
C1009 H1050 0.930 . S
C1010 C1008 1.358 . S
C1010 N1011 1.279 . S
C1010 H1051 0.930 . S
N1011 C1009 1.314 . S
N1011 C1010 1.279 . S
C1012 C1014 1.353 . S
C1012 N1015 1.314 . S
C1012 H1018 0.930 . S
C1013 N1015 1.279 . S
C1013 C1016 1.358 . S
C1013 H1019 0.930 1_554 S
C1014 C1012 1.353 . S
C1014 C1017 1.348 . S
C1014 H1052 0.929 . S
N1015 Li970 1.990 . S
N1015 C1012 1.314 . S
N1015 C1013 1.279 . S
C1016 C1013 1.358 . S
C1016 C1017 1.356 . S
C1016 H1053 0.930 1_554 S
C1017 C1014 1.348 . S
C1017 C1016 1.356 . S
H1018 C1012 0.930 . S
H1019 C1013 0.930 1_556 S
C1020 N1021 1.314 . S
C1020 C1022 1.353 . S
C1020 H1026 0.930 . S
N1021 Li971 1.990 . S
N1021 C1020 1.314 . S
N1021 C1024 1.279 . S
C1022 C1020 1.353 . S
C1022 C1025 1.348 . S
C1022 H1054 0.929 . S
C1023 C1024 1.358 . S
C1023 C1025 1.356 . S
C1023 H1055 0.930 . S
C1024 N1021 1.279 . S
C1024 C1023 1.358 . S
C1024 H1027 0.930 . S
C1025 C1022 1.348 . S
C1025 C1023 1.356 . S
H1026 C1020 0.930 . S
H1027 C1024 0.930 . S
O1028 Li968 1.956 . S
O1028 Li969 1.970 . S
O1028 Li970 1.961 . S
O1028 C972 1.325 . S
O1029 Li968 1.970 . S
O1029 Li969 1.956 . S
O1029 Li971 1.961 1_554 S
O1029 C978 1.325 . S
O1030 Li968 1.961 1_556 S
O1030 Li970 1.956 1_556 S
O1030 Li971 1.970 . S
O1030 C1000 1.325 . S
O1031 Li969 1.961 . S
O1031 Li970 1.970 . S
O1031 Li971 1.956 1_554 S
O1031 C1006 1.325 . S
H1032 C974 0.929 . S
H1033 C975 0.930 . S
H1034 C976 0.930 . S
H1035 C977 0.930 . S
H1036 C979 0.930 . S
H1037 C981 0.929 . S
H1038 C982 0.935 . S
H1039 C983 0.930 . S
H1040 C986 0.930 . S
H1041 C989 0.929 . S
H1042 C994 0.929 . S
H1043 C995 0.930 . S
H1044 C1002 0.929 . S
H1045 C1003 0.930 . S
H1046 C1004 0.930 . S
H1047 C1005 0.930 . S
H1048 C1007 0.929 . S
H1049 C1008 0.930 . S
H1050 C1009 0.930 . S
H1051 C1010 0.930 . S
H1052 C1014 0.929 . S
H1053 C1016 0.930 1_556 S
H1054 C1022 0.929 . S
H1055 C1023 0.930 . S
Li1056 N1073 1.990 . S
Li1056 O1116 1.956 . S
Li1056 O1117 1.970 . S
Li1056 O1118 1.961 1_554 S
Li1057 N1081 1.990 . S
Li1057 O1116 1.970 . S
Li1057 O1117 1.956 . S
Li1057 O1119 1.961 . S
Li1058 N1103 1.990 . S
Li1058 O1116 1.961 . S
Li1058 O1118 1.956 1_554 S
Li1058 O1119 1.970 . S
Li1059 N1109 1.990 . S
Li1059 O1117 1.961 1_556 S
Li1059 O1118 1.970 . S
Li1059 O1119 1.956 1_556 S
C1060 C1062 1.348 . S
C1060 C1063 1.356 . S
C1060 O1116 1.325 . S
N1061 C1064 1.314 . S
N1061 C1065 1.279 . S
C1062 C1060 1.348 . S
C1062 C1064 1.353 . S
C1062 H1120 0.929 . S
C1063 C1060 1.356 . S
C1063 C1065 1.358 . S
C1063 H1121 0.930 . S
C1064 N1061 1.314 . S
C1064 C1062 1.353 . S
C1064 H1122 0.930 . S
C1065 N1061 1.279 . S
C1065 C1063 1.358 . S
C1065 H1123 0.930 . S
C1066 C1069 1.348 . S
C1066 C1070 1.356 . S
C1066 O1117 1.325 . S
C1067 N1068 1.279 . S
C1067 C1070 1.358 . S
C1067 H1124 0.930 1_554 S
N1068 C1067 1.279 . S
N1068 C1071 1.314 . S
C1069 C1066 1.348 . S
C1069 C1071 1.353 . S
C1069 H1125 0.929 . S
C1070 C1066 1.356 . S
C1070 C1067 1.358 . S
C1070 H1126 0.932 . S
C1071 N1068 1.314 . S
C1071 C1069 1.353 . S
C1071 H1127 0.930 . S
C1072 N1073 1.333 . S
C1072 C1077 1.350 1_554 S
C1072 H1078 0.910 1_554 S
N1073 Li1056 1.990 . S
N1073 C1072 1.333 . S
N1073 C1075 1.279 . S
C1074 C1075 1.358 . S
C1074 C1076 1.356 . S
C1074 H1128 0.930 . S
C1075 N1073 1.279 . S
C1075 C1074 1.358 . S
C1075 H1079 0.930 . S
C1076 C1074 1.356 . S
C1076 C1077 1.317 1_554 S
C1077 C1072 1.350 1_556 S
C1077 C1076 1.317 1_556 S
C1077 H1129 0.962 . S
H1078 C1072 0.910 1_556 S
H1079 C1075 0.930 . S
C1080 N1081 1.314 . S
C1080 C1082 1.353 . S
C1080 H1086 0.930 . S
N1081 Li1057 1.990 . S
N1081 C1080 1.314 . S
N1081 C1084 1.279 . S
C1082 C1080 1.353 . S
C1082 C1085 1.348 . S
C1082 H1130 0.929 . S
C1083 C1084 1.358 . S
C1083 C1085 1.356 . S
C1083 H1131 0.930 . S
C1084 N1081 1.279 . S
C1084 C1083 1.358 . S
C1084 H1087 0.930 . S
C1085 C1082 1.348 . S
C1085 C1083 1.356 . S
H1086 C1080 0.930 . S
H1087 C1084 0.930 . S
C1088 C1090 1.348 . S
C1088 C1091 1.356 . S
C1088 O1118 1.325 . S
N1089 C1092 1.314 . S
N1089 C1093 1.279 . S
C1090 C1088 1.348 . S
C1090 C1092 1.353 . S
C1090 H1132 0.929 . S
C1091 C1088 1.356 . S
C1091 C1093 1.358 . S
C1091 H1133 0.930 . S
C1092 N1089 1.314 . S
C1092 C1090 1.353 . S
C1092 H1134 0.930 . S
C1093 N1089 1.279 . S
C1093 C1091 1.358 . S
C1093 H1135 0.930 . S
C1094 C1095 1.348 . S
C1094 C1096 1.356 . S
C1094 O1119 1.325 . S
C1095 C1094 1.348 . S
C1095 C1097 1.353 . S
C1095 H1136 0.929 . S
C1096 C1094 1.356 . S
C1096 C1098 1.358 . S
C1096 H1137 0.930 . S
C1097 C1095 1.353 . S
C1097 N1099 1.314 . S
C1097 H1138 0.930 . S
C1098 C1096 1.358 . S
C1098 N1099 1.279 . S
C1098 H1139 0.930 . S
N1099 C1097 1.314 . S
N1099 C1098 1.279 . S
C1100 C1102 1.353 . S
C1100 N1103 1.314 . S
C1100 H1106 0.930 . S
C1101 N1103 1.279 . S
C1101 C1104 1.358 . S
C1101 H1107 0.930 1_554 S
C1102 C1100 1.353 . S
C1102 C1105 1.348 . S
C1102 H1140 0.929 . S
N1103 Li1058 1.990 . S
N1103 C1100 1.314 . S
N1103 C1101 1.279 . S
C1104 C1101 1.358 . S
C1104 C1105 1.356 . S
C1104 H1141 0.930 1_554 S
C1105 C1102 1.348 . S
C1105 C1104 1.356 . S
H1106 C1100 0.930 . S
H1107 C1101 0.930 1_556 S
C1108 N1109 1.314 . S
C1108 C1110 1.353 . S
C1108 H1114 0.930 . S
N1109 Li1059 1.990 . S
N1109 C1108 1.314 . S
N1109 C1112 1.279 . S
C1110 C1108 1.353 . S
C1110 C1113 1.348 . S
C1110 H1142 0.929 . S
C1111 C1112 1.358 . S
C1111 C1113 1.356 . S
C1111 H1143 0.930 . S
C1112 N1109 1.279 . S
C1112 C1111 1.358 . S
C1112 H1115 0.930 . S
C1113 C1110 1.348 . S
C1113 C1111 1.356 . S
H1114 C1108 0.930 . S
H1115 C1112 0.930 . S
O1116 Li1056 1.956 . S
O1116 Li1057 1.970 . S
O1116 Li1058 1.961 . S
O1116 C1060 1.325 . S
O1117 Li1056 1.970 . S
O1117 Li1057 1.956 . S
O1117 Li1059 1.961 1_554 S
O1117 C1066 1.325 . S
O1118 Li1056 1.961 1_556 S
O1118 Li1058 1.956 1_556 S
O1118 Li1059 1.970 . S
O1118 C1088 1.325 . S
O1119 Li1057 1.961 . S
O1119 Li1058 1.970 . S
O1119 Li1059 1.956 1_554 S
O1119 C1094 1.325 . S
H1120 C1062 0.929 . S
H1121 C1063 0.930 . S
H1122 C1064 0.930 . S
H1123 C1065 0.930 . S
H1124 C1067 0.930 1_556 S
H1125 C1069 0.929 . S
H1126 C1070 0.932 . S
H1127 C1071 0.930 . S
H1128 C1074 0.930 . S
H1129 C1077 0.962 . S
H1130 C1082 0.929 . S
H1131 C1083 0.930 . S
H1132 C1090 0.929 . S
H1133 C1091 0.930 . S
H1134 C1092 0.930 . S
H1135 C1093 0.930 . S
H1136 C1095 0.929 . S
H1137 C1096 0.930 . S
H1138 C1097 0.930 . S
H1139 C1098 0.930 . S
H1140 C1102 0.929 . S
H1141 C1104 0.930 1_556 S
H1142 C1110 0.929 . S
H1143 C1111 0.930 . S
Li1144 N1161 1.990 . S
Li1144 O1204 1.956 . S
Li1144 O1205 1.970 . S
Li1144 O1206 1.961 . S
Li1145 N1169 1.990 . S
Li1145 O1204 1.970 . S
Li1145 O1205 1.956 . S
Li1145 O1207 1.961 1_554 S
Li1146 N1191 1.990 . S
Li1146 O1204 1.961 1_556 S
Li1146 O1206 1.956 1_556 S
Li1146 O1207 1.970 . S
Li1147 N1197 1.990 . S
Li1147 O1205 1.961 . S
Li1147 O1206 1.970 . S
Li1147 O1207 1.956 1_554 S
C1148 C1150 1.348 . S
C1148 C1151 1.356 . S
C1148 O1204 1.325 . S
N1149 C1152 1.314 . S
N1149 C1153 1.279 . S
C1150 C1148 1.348 . S
C1150 C1152 1.353 . S
C1150 H1208 0.929 . S
C1151 C1148 1.356 . S
C1151 C1153 1.358 . S
C1151 H1209 0.930 . S
C1152 N1149 1.314 . S
C1152 C1150 1.353 . S
C1152 H1210 0.930 . S
C1153 N1149 1.279 . S
C1153 C1151 1.358 . S
C1153 H1211 0.930 . S
C1154 C1157 1.348 . S
C1154 C1158 1.356 . S
C1154 O1205 1.325 . S
C1155 N1156 1.279 . S
C1155 C1158 1.358 . S
C1155 H1212 0.930 . S
N1156 C1155 1.279 . S
N1156 C1159 1.314 . S
C1157 C1154 1.348 . S
C1157 C1159 1.353 . S
C1157 H1213 0.929 . S
C1158 C1154 1.356 . S
C1158 C1155 1.358 . S
C1158 H1214 0.930 . S
C1159 N1156 1.314 . S
C1159 C1157 1.353 . S
C1159 H1215 0.930 . S
C1160 N1161 1.314 . S
C1160 C1165 1.353 . S
C1160 H1166 0.930 . S
N1161 Li1144 1.990 . S
N1161 C1160 1.314 . S
N1161 C1163 1.279 . S
C1162 C1163 1.358 . S
C1162 C1164 1.356 . S
C1162 H1216 0.930 . S
C1163 N1161 1.279 . S
C1163 C1162 1.358 . S
C1163 H1167 0.930 . S
C1164 C1162 1.356 . S
C1164 C1165 1.348 . S
C1165 C1160 1.353 . S
C1165 C1164 1.348 . S
C1165 H1217 0.929 . S
H1166 C1160 0.930 . S
H1167 C1163 0.930 . S
C1168 N1169 1.314 1_556 S
C1168 C1170 1.353 . S
C1168 H1174 0.930 . S
N1169 Li1145 1.990 . S
N1169 C1168 1.314 1_554 S
N1169 C1172 1.279 . S
C1170 C1168 1.353 . S
C1170 C1173 1.348 1_556 S
C1170 H1218 0.929 . S
C1171 C1172 1.358 . S
C1171 C1173 1.356 . S
C1171 H1219 0.930 . S
C1172 N1169 1.279 . S
C1172 C1171 1.358 . S
C1172 H1175 0.930 . S
C1173 C1170 1.348 1_554 S
C1173 C1171 1.356 . S
H1174 C1168 0.930 . S
H1175 C1172 0.930 . S
C1176 C1178 1.348 . S
C1176 C1179 1.356 . S
C1176 O1206 1.325 . S
N1177 C1180 1.314 . S
N1177 C1181 1.279 . S
C1178 C1176 1.348 . S
C1178 C1180 1.353 . S
C1178 H1220 0.929 1_554 S
C1179 C1176 1.356 . S
C1179 C1181 1.358 . S
C1179 H1221 0.930 . S
C1180 N1177 1.314 . S
C1180 C1178 1.353 . S
C1180 H1222 0.930 1_554 S
C1181 N1177 1.279 . S
C1181 C1179 1.358 . S
C1181 H1223 0.930 . S
C1182 C1183 1.348 . S
C1182 C1184 1.356 . S
C1182 O1207 1.325 . S
C1183 C1182 1.348 . S
C1183 C1185 1.353 . S
C1183 H1224 0.929 . S
C1184 C1182 1.356 . S
C1184 C1186 1.358 . S
C1184 H1225 0.930 . S
C1185 C1183 1.353 . S
C1185 N1187 1.314 . S
C1185 H1226 0.930 . S
C1186 C1184 1.358 . S
C1186 N1187 1.279 . S
C1186 H1227 0.930 . S
N1187 C1185 1.314 . S
N1187 C1186 1.279 . S
C1188 C1190 1.353 . S
C1188 N1191 1.314 . S
C1188 H1194 0.930 . S
C1189 N1191 1.279 . S
C1189 C1192 1.358 . S
C1189 H1195 0.930 . S
C1190 C1188 1.353 . S
C1190 C1193 1.348 . S
C1190 H1228 0.929 . S
N1191 Li1146 1.990 . S
N1191 C1188 1.314 . S
N1191 C1189 1.279 . S
C1192 C1189 1.358 . S
C1192 C1193 1.356 . S
C1192 H1229 0.930 . S
C1193 C1190 1.348 . S
C1193 C1192 1.356 . S
H1194 C1188 0.930 . S
H1195 C1189 0.930 . S
C1196 N1197 1.314 . S
C1196 C1198 1.353 . S
C1196 H1202 0.930 . S
N1197 Li1147 1.990 . S
N1197 C1196 1.314 . S
N1197 C1200 1.279 1_554 S
C1198 C1196 1.353 . S
C1198 C1201 1.348 1_554 S
C1198 H1230 0.929 . S
C1199 C1200 1.358 . S
C1199 C1201 1.356 . S
C1199 H1231 0.930 . S
C1200 N1197 1.279 1_556 S
C1200 C1199 1.358 . S
C1200 H1203 0.930 . S
C1201 C1198 1.348 1_556 S
C1201 C1199 1.356 . S
H1202 C1196 0.930 . S
H1203 C1200 0.930 . S
O1204 Li1144 1.956 . S
O1204 Li1145 1.970 . S
O1204 Li1146 1.961 1_554 S
O1204 C1148 1.325 . S
O1205 Li1144 1.970 . S
O1205 Li1145 1.956 . S
O1205 Li1147 1.961 . S
O1205 C1154 1.325 . S
O1206 Li1144 1.961 . S
O1206 Li1146 1.956 1_554 S
O1206 Li1147 1.970 . S
O1206 C1176 1.325 . S
O1207 Li1145 1.961 1_556 S
O1207 Li1146 1.970 . S
O1207 Li1147 1.956 1_556 S
O1207 C1182 1.325 . S
H1208 C1150 0.929 . S
H1209 C1151 0.930 . S
H1210 C1152 0.930 . S
H1211 C1153 0.930 . S
H1212 C1155 0.930 . S
H1213 C1157 0.929 . S
H1214 C1158 0.930 . S
H1215 C1159 0.930 . S
H1216 C1162 0.930 . S
H1217 C1165 0.929 . S
H1218 C1170 0.929 . S
H1219 C1171 0.930 . S
H1220 C1178 0.929 1_556 S
H1221 C1179 0.930 . S
H1222 C1180 0.930 1_556 S
H1223 C1181 0.930 . S
H1224 C1183 0.929 . S
H1225 C1184 0.930 . S
H1226 C1185 0.930 . S
H1227 C1186 0.930 . S
H1228 C1190 0.929 . S
H1229 C1192 0.930 . S
H1230 C1198 0.929 . S
H1231 C1199 0.930 . S
Li1232 N1249 1.990 . S
Li1232 O1292 1.956 . S
Li1232 O1293 1.970 . S
Li1232 O1294 1.961 . S
Li1233 N1257 1.990 . S
Li1233 O1292 1.970 . S
Li1233 O1293 1.956 . S
Li1233 O1295 1.961 . S
Li1234 N1279 1.990 . S
Li1234 O1292 1.961 . S
Li1234 O1294 1.956 . S
Li1234 O1295 1.970 . S
Li1235 N1285 1.990 . S
Li1235 O1293 1.961 . S
Li1235 O1294 1.970 . S
Li1235 O1295 1.956 . S
C1236 C1238 1.348 . S
C1236 C1239 1.356 . S
C1236 O1292 1.325 . S
N1237 C1240 1.314 . S
N1237 C1241 1.279 . S
C1238 C1236 1.348 . S
C1238 C1240 1.353 . S
C1238 H1296 0.929 . S
C1239 C1236 1.356 . S
C1239 C1241 1.358 . S
C1239 H1297 0.930 . S
C1240 N1237 1.314 . S
C1240 C1238 1.353 . S
C1240 H1298 0.930 . S
C1241 N1237 1.279 . S
C1241 C1239 1.358 . S
C1241 H1299 0.930 . S
C1242 C1245 1.348 . S
C1242 C1246 1.356 . S
C1242 O1293 1.325 . S
C1243 N1244 1.279 . S
C1243 C1246 1.358 . S
C1243 H1300 0.930 . S
N1244 C1243 1.279 . S
N1244 C1247 1.314 . S
C1245 C1242 1.348 . S
C1245 C1247 1.353 . S
C1245 H1301 0.929 . S
C1246 C1242 1.356 . S
C1246 C1243 1.358 . S
C1246 H1302 0.930 . S
C1247 N1244 1.314 . S
C1247 C1245 1.353 . S
C1247 H1303 0.930 . S
C1248 N1249 1.314 . S
C1248 C1253 1.353 . S
C1248 H1254 0.930 . S
N1249 Li1232 1.990 . S
N1249 C1248 1.314 . S
N1249 C1251 1.279 . S
C1250 C1251 1.358 . S
C1250 C1252 1.356 . S
C1250 H1304 0.930 . S
C1251 N1249 1.279 . S
C1251 C1250 1.358 . S
C1251 H1255 0.930 . S
C1252 C1250 1.356 . S
C1252 C1253 1.348 . S
C1253 C1248 1.353 . S
C1253 C1252 1.348 . S
C1253 H1305 0.929 . S
H1254 C1248 0.930 . S
H1255 C1251 0.930 . S
C1256 N1257 1.314 . S
C1256 C1258 1.353 . S
C1256 H1262 0.930 . S
N1257 Li1233 1.990 . S
N1257 C1256 1.314 . S
N1257 C1260 1.279 . S
C1258 C1256 1.353 . S
C1258 C1261 1.348 . S
C1258 H1306 0.929 . S
C1259 C1260 1.358 . S
C1259 C1261 1.356 . S
C1259 H1307 0.930 . S
C1260 N1257 1.279 . S
C1260 C1259 1.358 . S
C1260 H1263 0.930 . S
C1261 C1258 1.348 . S
C1261 C1259 1.356 . S
H1262 C1256 0.930 . S
H1263 C1260 0.930 . S
C1264 C1266 1.348 . S
C1264 C1267 1.356 . S
C1264 O1294 1.325 . S
N1265 C1268 1.314 . S
N1265 C1269 1.279 . S
C1266 C1264 1.348 . S
C1266 C1268 1.353 . S
C1266 H1308 0.929 . S
C1267 C1264 1.356 . S
C1267 C1269 1.358 . S
C1267 H1309 0.930 . S
C1268 N1265 1.314 . S
C1268 C1266 1.353 . S
C1268 H1310 0.930 . S
C1269 N1265 1.279 . S
C1269 C1267 1.358 . S
C1269 H1311 0.930 . S
C1270 C1271 1.348 . S
C1270 C1272 1.356 . S
C1270 O1295 1.325 . S
C1271 C1270 1.348 . S
C1271 C1273 1.353 . S
C1271 H1312 0.929 . S
C1272 C1270 1.356 . S
C1272 C1274 1.358 . S
C1272 H1313 0.930 . S
C1273 C1271 1.353 . S
C1273 N1275 1.314 . S
C1273 H1314 0.930 . S
C1274 C1272 1.358 . S
C1274 N1275 1.279 . S
C1274 H1315 0.930 . S
N1275 C1273 1.314 . S
N1275 C1274 1.279 . S
C1276 C1278 1.353 . S
C1276 N1279 1.314 . S
C1276 H1282 0.930 . S
C1277 N1279 1.279 . S
C1277 C1280 1.358 . S
C1277 H1283 0.930 . S
C1278 C1276 1.353 . S
C1278 C1281 1.348 . S
C1278 H1316 0.929 . S
N1279 Li1234 1.990 . S
N1279 C1276 1.314 . S
N1279 C1277 1.279 . S
C1280 C1277 1.358 . S
C1280 C1281 1.356 . S
C1280 H1317 0.930 . S
C1281 C1278 1.348 . S
C1281 C1280 1.356 . S
H1282 C1276 0.930 . S
H1283 C1277 0.930 . S
C1284 N1285 1.314 . S
C1284 C1286 1.353 . S
C1284 H1290 0.930 . S
N1285 Li1235 1.990 . S
N1285 C1284 1.314 . S
N1285 C1288 1.279 . S
C1286 C1284 1.353 . S
C1286 C1289 1.348 . S
C1286 H1318 0.929 . S
C1287 C1288 1.358 . S
C1287 C1289 1.356 . S
C1287 H1319 0.930 . S
C1288 N1285 1.279 . S
C1288 C1287 1.358 . S
C1288 H1291 0.930 . S
C1289 C1286 1.348 . S
C1289 C1287 1.356 . S
H1290 C1284 0.930 . S
H1291 C1288 0.930 . S
O1292 Li1232 1.956 . S
O1292 Li1233 1.970 . S
O1292 Li1234 1.961 . S
O1292 C1236 1.325 . S
O1293 Li1232 1.970 . S
O1293 Li1233 1.956 . S
O1293 Li1235 1.961 . S
O1293 C1242 1.325 . S
O1294 Li1232 1.961 . S
O1294 Li1234 1.956 . S
O1294 Li1235 1.970 . S
O1294 C1264 1.325 . S
O1295 Li1233 1.961 . S
O1295 Li1234 1.970 . S
O1295 Li1235 1.956 . S
O1295 C1270 1.325 . S
H1296 C1238 0.929 . S
H1297 C1239 0.930 . S
H1298 C1240 0.930 . S
H1299 C1241 0.930 . S
H1300 C1243 0.930 . S
H1301 C1245 0.929 . S
H1302 C1246 0.930 . S
H1303 C1247 0.930 . S
H1304 C1250 0.930 . S
H1305 C1253 0.929 . S
H1306 C1258 0.929 . S
H1307 C1259 0.930 . S
H1308 C1266 0.929 . S
H1309 C1267 0.930 . S
H1310 C1268 0.930 . S
H1311 C1269 0.930 . S
H1312 C1271 0.929 . S
H1313 C1272 0.930 . S
H1314 C1273 0.930 . S
H1315 C1274 0.930 . S
H1316 C1278 0.929 . S
H1317 C1280 0.930 . S
H1318 C1286 0.929 . S
H1319 C1287 0.930 . S
Li1320 N1337 1.990 . S
Li1320 O1380 1.956 . S
Li1320 O1381 1.970 . S
Li1320 O1382 1.961 . S
Li1321 N1345 1.990 . S
Li1321 O1380 1.970 . S
Li1321 O1381 1.956 . S
Li1321 O1383 1.961 . S
Li1322 N1367 1.990 . S
Li1322 O1380 1.961 . S
Li1322 O1382 1.956 . S
Li1322 O1383 1.970 . S
Li1323 N1373 1.990 . S
Li1323 O1381 1.961 . S
Li1323 O1382 1.970 . S
Li1323 O1383 1.956 . S
C1324 C1326 1.348 . S
C1324 C1327 1.356 . S
C1324 O1380 1.325 . S
N1325 C1328 1.314 . S
N1325 C1329 1.279 . S
C1326 C1324 1.348 . S
C1326 C1328 1.353 . S
C1326 H1384 0.929 . S
C1327 C1324 1.356 . S
C1327 C1329 1.358 . S
C1327 H1385 0.930 . S
C1328 N1325 1.314 . S
C1328 C1326 1.353 . S
C1328 H1386 0.930 . S
C1329 N1325 1.279 . S
C1329 C1327 1.358 . S
C1329 H1387 0.930 . S
C1330 C1333 1.348 . S
C1330 C1334 1.356 . S
C1330 O1381 1.325 . S
C1331 N1332 1.279 . S
C1331 C1334 1.358 . S
C1331 H1388 0.930 . S
N1332 C1331 1.279 . S
N1332 C1335 1.314 . S
C1333 C1330 1.348 . S
C1333 C1335 1.353 . S
C1333 H1389 0.929 . S
C1334 C1330 1.356 . S
C1334 C1331 1.358 . S
C1334 H1390 0.930 . S
C1335 N1332 1.314 . S
C1335 C1333 1.353 . S
C1335 H1391 0.930 . S
C1336 N1337 1.314 . S
C1336 C1341 1.353 . S
C1336 H1342 0.930 . S
N1337 Li1320 1.990 . S
N1337 C1336 1.314 . S
N1337 C1339 1.279 . S
C1338 C1339 1.358 . S
C1338 C1340 1.356 . S
C1338 H1392 0.930 . S
C1339 N1337 1.279 . S
C1339 C1338 1.358 . S
C1339 H1343 0.930 . S
C1340 C1338 1.356 . S
C1340 C1341 1.348 . S
C1341 C1336 1.353 . S
C1341 C1340 1.348 . S
C1341 H1393 0.929 . S
H1342 C1336 0.930 . S
H1343 C1339 0.930 . S
C1344 N1345 1.314 . S
C1344 C1346 1.353 . S
C1344 H1350 0.930 . S
N1345 Li1321 1.990 . S
N1345 C1344 1.314 . S
N1345 C1348 1.279 . S
C1346 C1344 1.353 . S
C1346 C1349 1.348 . S
C1346 H1394 0.929 . S
C1347 C1348 1.358 . S
C1347 C1349 1.356 . S
C1347 H1395 0.930 . S
C1348 N1345 1.279 . S
C1348 C1347 1.358 . S
C1348 H1351 0.930 . S
C1349 C1346 1.348 . S
C1349 C1347 1.356 . S
H1350 C1344 0.930 . S
H1351 C1348 0.930 . S
C1352 C1354 1.348 . S
C1352 C1355 1.356 . S
C1352 O1382 1.325 . S
N1353 C1356 1.314 . S
N1353 C1357 1.279 . S
C1354 C1352 1.348 . S
C1354 C1356 1.353 . S
C1354 H1396 0.929 . S
C1355 C1352 1.356 . S
C1355 C1357 1.358 . S
C1355 H1397 0.930 . S
C1356 N1353 1.314 . S
C1356 C1354 1.353 . S
C1356 H1398 0.930 . S
C1357 N1353 1.279 . S
C1357 C1355 1.358 . S
C1357 H1399 0.930 . S
C1358 C1359 1.348 . S
C1358 C1360 1.356 . S
C1358 O1383 1.325 . S
C1359 C1358 1.348 . S
C1359 C1361 1.353 . S
C1359 H1400 0.929 . S
C1360 C1358 1.356 . S
C1360 C1362 1.358 . S
C1360 H1401 0.930 . S
C1361 C1359 1.353 . S
C1361 N1363 1.314 . S
C1361 H1402 0.930 . S
C1362 C1360 1.358 . S
C1362 N1363 1.279 . S
C1362 H1403 0.930 . S
N1363 C1361 1.314 . S
N1363 C1362 1.279 . S
C1364 C1366 1.353 . S
C1364 N1367 1.314 . S
C1364 H1370 0.930 . S
C1365 N1367 1.279 . S
C1365 C1368 1.358 . S
C1365 H1371 0.930 . S
C1366 C1364 1.353 . S
C1366 C1369 1.348 . S
C1366 H1404 0.929 . S
N1367 Li1322 1.990 . S
N1367 C1364 1.314 . S
N1367 C1365 1.279 . S
C1368 C1365 1.358 . S
C1368 C1369 1.356 . S
C1368 H1405 0.930 . S
C1369 C1366 1.348 . S
C1369 C1368 1.356 . S
H1370 C1364 0.930 . S
H1371 C1365 0.930 . S
C1372 N1373 1.314 . S
C1372 C1374 1.353 . S
C1372 H1378 0.930 . S
N1373 Li1323 1.990 . S
N1373 C1372 1.314 . S
N1373 C1376 1.279 . S
C1374 C1372 1.353 . S
C1374 C1377 1.348 . S
C1374 H1406 0.929 . S
C1375 C1376 1.358 . S
C1375 C1377 1.356 . S
C1375 H1407 0.930 . S
C1376 N1373 1.279 . S
C1376 C1375 1.358 . S
C1376 H1379 0.930 . S
C1377 C1374 1.348 . S
C1377 C1375 1.356 . S
H1378 C1372 0.930 . S
H1379 C1376 0.930 . S
O1380 Li1320 1.956 . S
O1380 Li1321 1.970 . S
O1380 Li1322 1.961 . S
O1380 C1324 1.325 . S
O1381 Li1320 1.970 . S
O1381 Li1321 1.956 . S
O1381 Li1323 1.961 . S
O1381 C1330 1.325 . S
O1382 Li1320 1.961 . S
O1382 Li1322 1.956 . S
O1382 Li1323 1.970 . S
O1382 C1352 1.325 . S
O1383 Li1321 1.961 . S
O1383 Li1322 1.970 . S
O1383 Li1323 1.956 . S
O1383 C1358 1.325 . S
H1384 C1326 0.929 . S
H1385 C1327 0.930 . S
H1386 C1328 0.930 . S
H1387 C1329 0.930 . S
H1388 C1331 0.930 . S
H1389 C1333 0.929 . S
H1390 C1334 0.930 . S
H1391 C1335 0.930 . S
H1392 C1338 0.930 . S
H1393 C1341 0.929 . S
H1394 C1346 0.929 . S
H1395 C1347 0.930 . S
H1396 C1354 0.929 . S
H1397 C1355 0.930 . S
H1398 C1356 0.930 . S
H1399 C1357 0.930 . S
H1400 C1359 0.929 . S
H1401 C1360 0.930 . S
H1402 C1361 0.930 . S
H1403 C1362 0.930 . S
H1404 C1366 0.929 . S
H1405 C1368 0.930 . S
H1406 C1374 0.929 . S
H1407 C1375 0.930 . S
Li1408 N1425 1.990 . S
Li1408 O1468 1.956 . S
Li1408 O1469 1.970 . S
Li1408 O1470 1.961 . S
Li1409 N1433 1.990 . S
Li1409 O1468 1.970 . S
Li1409 O1469 1.956 . S
Li1409 O1471 1.961 . S
Li1410 N1455 1.990 . S
Li1410 O1468 1.961 . S
Li1410 O1470 1.956 . S
Li1410 O1471 1.970 . S
Li1411 N1461 1.990 . S
Li1411 O1469 1.961 . S
Li1411 O1470 1.970 . S
Li1411 O1471 1.956 . S
C1412 C1414 1.348 . S
C1412 C1415 1.356 . S
C1412 O1468 1.325 . S
N1413 C1416 1.314 . S
N1413 C1417 1.279 1_565 S
C1414 C1412 1.348 . S
C1414 C1416 1.353 1_545 S
C1414 H1472 0.929 . S
C1415 C1412 1.356 . S
C1415 C1417 1.358 . S
C1415 H1473 0.930 . S
C1416 N1413 1.314 . S
C1416 C1414 1.353 1_565 S
C1416 H1474 0.930 . S
C1417 N1413 1.279 1_545 S
C1417 C1415 1.358 . S
C1417 H1475 0.930 . S
C1418 C1421 1.348 . S
C1418 C1422 1.356 . S
C1418 O1469 1.325 . S
C1419 N1420 1.279 . S
C1419 C1422 1.358 . S
C1419 H1476 0.930 . S
N1420 C1419 1.279 . S
N1420 C1423 1.314 . S
C1421 C1418 1.348 . S
C1421 C1423 1.353 . S
C1421 H1477 0.929 . S
C1422 C1418 1.356 . S
C1422 C1419 1.358 . S
C1422 H1478 0.930 . S
C1423 N1420 1.314 . S
C1423 C1421 1.353 . S
C1423 H1479 0.930 . S
C1424 N1425 1.314 . S
C1424 C1429 1.353 . S
C1424 H1430 0.930 . S
N1425 Li1408 1.990 . S
N1425 C1424 1.314 . S
N1425 C1427 1.279 . S
C1426 C1427 1.358 . S
C1426 C1428 1.356 . S
C1426 H1480 0.930 . S
C1427 N1425 1.279 . S
C1427 C1426 1.358 . S
C1427 H1431 0.930 . S
C1428 C1426 1.356 . S
C1428 C1429 1.348 . S
C1429 C1424 1.353 . S
C1429 C1428 1.348 . S
C1429 H1481 0.929 . S
H1430 C1424 0.930 . S
H1431 C1427 0.930 . S
C1432 N1433 1.326 . S
C1432 C1434 1.335 1_545 S
C1432 H1438 0.937 . S
N1433 Li1409 1.990 . S
N1433 C1432 1.326 . S
N1433 C1436 1.279 . S
C1434 C1432 1.335 1_565 S
C1434 C1437 1.348 . S
C1434 H1482 0.929 . S
C1435 C1436 1.358 1_565 S
C1435 C1437 1.356 . S
C1435 H1483 0.930 . S
C1436 N1433 1.279 . S
C1436 C1435 1.358 1_545 S
C1436 H1439 0.930 . S
C1437 C1434 1.348 . S
C1437 C1435 1.356 . S
H1438 C1432 0.937 . S
H1439 C1436 0.930 . S
C1440 C1442 1.348 . S
C1440 C1443 1.356 . S
C1440 O1470 1.325 . S
N1441 C1444 1.314 . S
N1441 C1445 1.279 . S
C1442 C1440 1.348 . S
C1442 C1444 1.353 . S
C1442 H1484 0.929 . S
C1443 C1440 1.356 . S
C1443 C1445 1.358 . S
C1443 H1485 0.930 . S
C1444 N1441 1.314 . S
C1444 C1442 1.353 . S
C1444 H1486 0.930 . S
C1445 N1441 1.279 . S
C1445 C1443 1.358 . S
C1445 H1487 0.930 1_655 S
C1446 C1447 1.348 . S
C1446 C1448 1.356 . S
C1446 O1471 1.325 . S
C1447 C1446 1.348 . S
C1447 C1449 1.353 . S
C1447 H1488 0.929 . S
C1448 C1446 1.356 . S
C1448 C1450 1.358 . S
C1448 H1489 0.930 . S
C1449 C1447 1.353 . S
C1449 N1451 1.314 . S
C1449 H1490 0.930 . S
C1450 C1448 1.358 . S
C1450 N1451 1.279 . S
C1450 H1491 0.930 . S
N1451 C1449 1.314 . S
N1451 C1450 1.279 . S
C1452 C1454 1.353 . S
C1452 N1455 1.314 . S
C1452 H1458 0.930 . S
C1453 N1455 1.279 . S
C1453 C1456 1.358 . S
C1453 H1459 0.930 . S
C1454 C1452 1.353 . S
C1454 C1457 1.348 . S
C1454 H1492 0.929 . S
N1455 Li1410 1.990 . S
N1455 C1452 1.314 . S
N1455 C1453 1.279 . S
C1456 C1453 1.358 . S
C1456 C1457 1.356 . S
C1456 H1493 0.930 . S
C1457 C1454 1.348 . S
C1457 C1456 1.356 . S
H1458 C1452 0.930 . S
H1459 C1453 0.930 . S
C1460 N1461 1.314 . S
C1460 C1462 1.353 . S
C1460 H1466 0.930 . S
N1461 Li1411 1.990 . S
N1461 C1460 1.314 . S
N1461 C1464 1.279 . S
C1462 C1460 1.353 . S
C1462 C1465 1.348 . S
C1462 H1494 0.929 . S
C1463 C1464 1.358 . S
C1463 C1465 1.356 . S
C1463 H1495 0.930 . S
C1464 N1461 1.279 . S
C1464 C1463 1.358 . S
C1464 H1467 0.930 . S
C1465 C1462 1.348 . S
C1465 C1463 1.356 . S
H1466 C1460 0.930 . S
H1467 C1464 0.930 . S
O1468 Li1408 1.956 . S
O1468 Li1409 1.970 . S
O1468 Li1410 1.961 . S
O1468 C1412 1.325 . S
O1469 Li1408 1.970 . S
O1469 Li1409 1.956 . S
O1469 Li1411 1.961 . S
O1469 C1418 1.325 . S
O1470 Li1408 1.961 . S
O1470 Li1410 1.956 . S
O1470 Li1411 1.970 . S
O1470 C1440 1.325 . S
O1471 Li1409 1.961 . S
O1471 Li1410 1.970 . S
O1471 Li1411 1.956 . S
O1471 C1446 1.325 . S
H1472 C1414 0.929 . S
H1473 C1415 0.930 . S
H1474 C1416 0.930 . S
H1475 C1417 0.930 . S
H1476 C1419 0.930 . S
H1477 C1421 0.929 . S
H1478 C1422 0.930 . S
H1479 C1423 0.930 . S
H1480 C1426 0.930 . S
H1481 C1429 0.929 . S
H1482 C1434 0.929 . S
H1483 C1435 0.930 . S
H1484 C1442 0.929 . S
H1485 C1443 0.930 . S
H1486 C1444 0.930 . S
H1487 C1445 0.930 1_455 S
H1488 C1447 0.929 . S
H1489 C1448 0.930 . S
H1490 C1449 0.930 . S
H1491 C1450 0.930 . S
H1492 C1454 0.929 . S
H1493 C1456 0.930 . S
H1494 C1462 0.929 . S
H1495 C1463 0.930 . S
Li1496 N1513 1.990 . S
Li1496 O1556 1.956 . S
Li1496 O1557 1.970 . S
Li1496 O1558 1.961 . S
Li1497 N1521 1.990 . S
Li1497 O1556 1.970 . S
Li1497 O1557 1.956 . S
Li1497 O1559 1.961 . S
Li1498 N1543 1.990 . S
Li1498 O1556 1.961 . S
Li1498 O1558 1.956 . S
Li1498 O1559 1.970 . S
Li1499 N1549 1.990 . S
Li1499 O1557 1.961 . S
Li1499 O1558 1.970 . S
Li1499 O1559 1.956 . S
C1500 C1502 1.348 . S
C1500 C1503 1.356 . S
C1500 O1556 1.325 . S
N1501 C1504 1.314 . S
N1501 C1505 1.279 . S
C1502 C1500 1.348 . S
C1502 C1504 1.353 . S
C1502 H1560 0.929 . S
C1503 C1500 1.356 . S
C1503 C1505 1.358 . S
C1503 H1561 0.930 . S
C1504 N1501 1.314 . S
C1504 C1502 1.353 . S
C1504 H1562 0.930 . S
C1505 N1501 1.279 . S
C1505 C1503 1.358 . S
C1505 H1563 0.930 . S
C1506 C1509 1.348 . S
C1506 C1510 1.356 . S
C1506 O1557 1.325 . S
C1507 N1508 1.279 . S
C1507 C1510 1.358 . S
C1507 H1564 0.930 . S
N1508 C1507 1.279 . S
N1508 C1511 1.314 . S
C1509 C1506 1.348 . S
C1509 C1511 1.353 . S
C1509 H1565 0.929 . S
C1510 C1506 1.356 . S
C1510 C1507 1.358 . S
C1510 H1566 0.930 . S
C1511 N1508 1.314 . S
C1511 C1509 1.353 . S
C1511 H1567 0.930 . S
C1512 N1513 1.314 . S
C1512 C1517 1.353 . S
C1512 H1518 0.930 . S
N1513 Li1496 1.990 . S
N1513 C1512 1.314 . S
N1513 C1515 1.279 . S
C1514 C1515 1.358 . S
C1514 C1516 1.356 . S
C1514 H1568 0.930 . S
C1515 N1513 1.279 . S
C1515 C1514 1.358 . S
C1515 H1519 0.930 . S
C1516 C1514 1.356 . S
C1516 C1517 1.348 . S
C1517 C1512 1.353 . S
C1517 C1516 1.348 . S
C1517 H1569 0.929 . S
H1518 C1512 0.930 . S
H1519 C1515 0.930 . S
C1520 N1521 1.314 . S
C1520 C1522 1.353 . S
C1520 H1526 0.930 . S
N1521 Li1497 1.990 . S
N1521 C1520 1.314 . S
N1521 C1524 1.279 . S
C1522 C1520 1.353 . S
C1522 C1525 1.348 . S
C1522 H1570 0.929 . S
C1523 C1524 1.358 . S
C1523 C1525 1.356 . S
C1523 H1571 0.930 . S
C1524 N1521 1.279 . S
C1524 C1523 1.358 . S
C1524 H1527 0.930 . S
C1525 C1522 1.348 . S
C1525 C1523 1.356 . S
H1526 C1520 0.930 . S
H1527 C1524 0.930 . S
C1528 C1530 1.348 . S
C1528 C1531 1.356 . S
C1528 O1558 1.325 . S
N1529 C1532 1.314 . S
N1529 C1533 1.279 . S
C1530 C1528 1.348 . S
C1530 C1532 1.353 . S
C1530 H1572 0.929 . S
C1531 C1528 1.356 . S
C1531 C1533 1.358 . S
C1531 H1573 0.930 . S
C1532 N1529 1.314 . S
C1532 C1530 1.353 . S
C1532 H1574 0.930 . S
C1533 N1529 1.279 . S
C1533 C1531 1.358 . S
C1533 H1575 0.930 . S
C1534 C1535 1.348 . S
C1534 C1536 1.356 . S
C1534 O1559 1.325 . S
C1535 C1534 1.348 . S
C1535 C1537 1.353 . S
C1535 H1576 0.929 . S
C1536 C1534 1.356 . S
C1536 C1538 1.358 . S
C1536 H1577 0.930 . S
C1537 C1535 1.353 . S
C1537 N1539 1.314 . S
C1537 H1578 0.930 . S
C1538 C1536 1.358 . S
C1538 N1539 1.279 . S
C1538 H1579 0.930 . S
N1539 C1537 1.314 . S
N1539 C1538 1.279 . S
C1540 C1542 1.353 . S
C1540 N1543 1.314 . S
C1540 H1546 0.930 . S
C1541 N1543 1.279 . S
C1541 C1544 1.358 . S
C1541 H1547 0.930 . S
C1542 C1540 1.353 . S
C1542 C1545 1.348 . S
C1542 H1580 0.929 . S
N1543 Li1498 1.990 . S
N1543 C1540 1.314 . S
N1543 C1541 1.279 . S
C1544 C1541 1.358 . S
C1544 C1545 1.356 . S
C1544 H1581 0.930 . S
C1545 C1542 1.348 . S
C1545 C1544 1.356 . S
H1546 C1540 0.930 . S
H1547 C1541 0.930 . S
C1548 N1549 1.314 . S
C1548 C1550 1.353 . S
C1548 H1554 0.930 . S
N1549 Li1499 1.990 . S
N1549 C1548 1.314 . S
N1549 C1552 1.279 . S
C1550 C1548 1.353 . S
C1550 C1553 1.348 . S
C1550 H1582 0.929 . S
C1551 C1552 1.358 . S
C1551 C1553 1.356 . S
C1551 H1583 0.930 . S
C1552 N1549 1.279 . S
C1552 C1551 1.358 . S
C1552 H1555 0.930 . S
C1553 C1550 1.348 . S
C1553 C1551 1.356 . S
H1554 C1548 0.930 . S
H1555 C1552 0.930 . S
O1556 Li1496 1.956 . S
O1556 Li1497 1.970 . S
O1556 Li1498 1.961 . S
O1556 C1500 1.325 . S
O1557 Li1496 1.970 . S
O1557 Li1497 1.956 . S
O1557 Li1499 1.961 . S
O1557 C1506 1.325 . S
O1558 Li1496 1.961 . S
O1558 Li1498 1.956 . S
O1558 Li1499 1.970 . S
O1558 C1528 1.325 . S
O1559 Li1497 1.961 . S
O1559 Li1498 1.970 . S
O1559 Li1499 1.956 . S
O1559 C1534 1.325 . S
H1560 C1502 0.929 . S
H1561 C1503 0.930 . S
H1562 C1504 0.930 . S
H1563 C1505 0.930 . S
H1564 C1507 0.930 . S
H1565 C1509 0.929 . S
H1566 C1510 0.930 . S
H1567 C1511 0.930 . S
H1568 C1514 0.930 . S
H1569 C1517 0.929 . S
H1570 C1522 0.929 . S
H1571 C1523 0.930 . S
H1572 C1530 0.929 . S
H1573 C1531 0.930 . S
H1574 C1532 0.930 . S
H1575 C1533 0.930 . S
H1576 C1535 0.929 . S
H1577 C1536 0.930 . S
H1578 C1537 0.930 . S
H1579 C1538 0.930 . S
H1580 C1542 0.929 . S
H1581 C1544 0.930 . S
H1582 C1550 0.929 . S
H1583 C1551 0.930 . S
Li1584 N1601 1.990 . S
Li1584 O1644 1.956 . S
Li1584 O1645 1.970 . S
Li1584 O1646 1.961 . S
Li1585 N1609 1.990 . S
Li1585 O1644 1.970 . S
Li1585 O1645 1.956 . S
Li1585 O1647 1.961 . S
Li1586 N1631 1.990 . S
Li1586 O1644 1.961 . S
Li1586 O1646 1.956 . S
Li1586 O1647 1.970 . S
Li1587 N1637 1.990 . S
Li1587 O1645 1.961 . S
Li1587 O1646 1.970 . S
Li1587 O1647 1.956 . S
C1588 C1590 1.348 . S
C1588 C1591 1.356 . S
C1588 O1644 1.325 . S
N1589 C1592 1.314 . S
N1589 C1593 1.279 . S
C1590 C1588 1.348 . S
C1590 C1592 1.353 . S
C1590 H1648 0.929 . S
C1591 C1588 1.356 . S
C1591 C1593 1.358 . S
C1591 H1649 0.930 . S
C1592 N1589 1.314 . S
C1592 C1590 1.353 . S
C1592 H1650 0.930 . S
C1593 N1589 1.279 . S
C1593 C1591 1.358 . S
C1593 H1651 0.930 . S
C1594 C1597 1.348 . S
C1594 C1598 1.356 . S
C1594 O1645 1.325 . S
C1595 N1596 1.279 . S
C1595 C1598 1.358 . S
C1595 H1652 0.930 . S
N1596 C1595 1.279 . S
N1596 C1599 1.314 . S
C1597 C1594 1.348 . S
C1597 C1599 1.353 . S
C1597 H1653 0.929 . S
C1598 C1594 1.356 . S
C1598 C1595 1.358 . S
C1598 H1654 0.930 . S
C1599 N1596 1.314 . S
C1599 C1597 1.353 . S
C1599 H1655 0.930 . S
C1600 N1601 1.314 . S
C1600 C1605 1.353 . S
C1600 H1606 0.930 . S
N1601 Li1584 1.990 . S
N1601 C1600 1.314 . S
N1601 C1603 1.279 . S
C1602 C1603 1.358 . S
C1602 C1604 1.356 . S
C1602 H1656 0.930 . S
C1603 N1601 1.279 . S
C1603 C1602 1.358 . S
C1603 H1607 0.930 . S
C1604 C1602 1.356 . S
C1604 C1605 1.348 . S
C1605 C1600 1.353 . S
C1605 C1604 1.348 . S
C1605 H1657 0.929 . S
H1606 C1600 0.930 . S
H1607 C1603 0.930 . S
C1608 N1609 1.314 . S
C1608 C1610 1.353 . S
C1608 H1614 0.930 . S
N1609 Li1585 1.990 . S
N1609 C1608 1.314 . S
N1609 C1612 1.279 . S
C1610 C1608 1.353 . S
C1610 C1613 1.348 . S
C1610 H1658 0.929 . S
C1611 C1612 1.358 . S
C1611 C1613 1.356 . S
C1611 H1659 0.930 . S
C1612 N1609 1.279 . S
C1612 C1611 1.358 . S
C1612 H1615 0.930 . S
C1613 C1610 1.348 . S
C1613 C1611 1.356 . S
H1614 C1608 0.930 . S
H1615 C1612 0.930 . S
C1616 C1618 1.348 . S
C1616 C1619 1.356 . S
C1616 O1646 1.325 . S
N1617 C1620 1.314 . S
N1617 C1621 1.279 . S
C1618 C1616 1.348 . S
C1618 C1620 1.353 . S
C1618 H1660 0.929 . S
C1619 C1616 1.356 . S
C1619 C1621 1.358 . S
C1619 H1661 0.930 . S
C1620 N1617 1.314 . S
C1620 C1618 1.353 . S
C1620 H1662 0.930 . S
C1621 N1617 1.279 . S
C1621 C1619 1.358 . S
C1621 H1663 0.930 . S
C1622 C1623 1.348 . S
C1622 C1624 1.356 . S
C1622 O1647 1.325 . S
C1623 C1622 1.348 . S
C1623 C1625 1.353 . S
C1623 H1664 0.929 . S
C1624 C1622 1.356 . S
C1624 C1626 1.358 . S
C1624 H1665 0.930 . S
C1625 C1623 1.353 . S
C1625 N1627 1.314 . S
C1625 H1666 0.930 . S
C1626 C1624 1.358 . S
C1626 N1627 1.279 . S
C1626 H1667 0.930 . S
N1627 C1625 1.314 . S
N1627 C1626 1.279 . S
C1628 C1630 1.353 . S
C1628 N1631 1.314 . S
C1628 H1634 0.930 . S
C1629 N1631 1.279 . S
C1629 C1632 1.358 . S
C1629 H1635 0.930 . S
C1630 C1628 1.353 . S
C1630 C1633 1.348 . S
C1630 H1668 0.929 . S
N1631 Li1586 1.990 . S
N1631 C1628 1.314 . S
N1631 C1629 1.279 . S
C1632 C1629 1.358 . S
C1632 C1633 1.356 . S
C1632 H1669 0.930 . S
C1633 C1630 1.348 . S
C1633 C1632 1.356 . S
H1634 C1628 0.930 . S
H1635 C1629 0.930 . S
C1636 N1637 1.314 . S
C1636 C1638 1.353 . S
C1636 H1642 0.930 . S
N1637 Li1587 1.990 . S
N1637 C1636 1.314 . S
N1637 C1640 1.279 . S
C1638 C1636 1.353 . S
C1638 C1641 1.348 . S
C1638 H1670 0.929 . S
C1639 C1640 1.358 . S
C1639 C1641 1.356 . S
C1639 H1671 0.930 . S
C1640 N1637 1.279 . S
C1640 C1639 1.358 . S
C1640 H1643 0.930 . S
C1641 C1638 1.348 . S
C1641 C1639 1.356 . S
H1642 C1636 0.930 . S
H1643 C1640 0.930 . S
O1644 Li1584 1.956 . S
O1644 Li1585 1.970 . S
O1644 Li1586 1.961 . S
O1644 C1588 1.325 . S
O1645 Li1584 1.970 . S
O1645 Li1585 1.956 . S
O1645 Li1587 1.961 . S
O1645 C1594 1.325 . S
O1646 Li1584 1.961 . S
O1646 Li1586 1.956 . S
O1646 Li1587 1.970 . S
O1646 C1616 1.325 . S
O1647 Li1585 1.961 . S
O1647 Li1586 1.970 . S
O1647 Li1587 1.956 . S
O1647 C1622 1.325 . S
H1648 C1590 0.929 . S
H1649 C1591 0.930 . S
H1650 C1592 0.930 . S
H1651 C1593 0.930 . S
H1652 C1595 0.930 . S
H1653 C1597 0.929 . S
H1654 C1598 0.930 . S
H1655 C1599 0.930 . S
H1656 C1602 0.930 . S
H1657 C1605 0.929 . S
H1658 C1610 0.929 . S
H1659 C1611 0.930 . S
H1660 C1618 0.929 . S
H1661 C1619 0.930 . S
H1662 C1620 0.930 . S
H1663 C1621 0.930 . S
H1664 C1623 0.929 . S
H1665 C1624 0.930 . S
H1666 C1625 0.930 . S
H1667 C1626 0.930 . S
H1668 C1630 0.929 . S
H1669 C1632 0.930 . S
H1670 C1638 0.929 . S
H1671 C1639 0.930 . S
Li1672 N1689 1.990 . S
Li1672 O1732 1.956 . S
Li1672 O1733 1.970 . S
Li1672 O1734 1.961 . S
Li1673 N1697 1.990 . S
Li1673 O1732 1.970 . S
Li1673 O1733 1.956 . S
Li1673 O1735 1.961 . S
Li1674 N1719 1.990 . S
Li1674 O1732 1.961 . S
Li1674 O1734 1.956 . S
Li1674 O1735 1.970 . S
Li1675 N1725 1.990 . S
Li1675 O1733 1.961 . S
Li1675 O1734 1.970 . S
Li1675 O1735 1.956 . S
C1676 C1678 1.348 . S
C1676 C1679 1.356 . S
C1676 O1732 1.325 . S
N1677 C1680 1.314 . S
N1677 C1681 1.279 . S
C1678 C1676 1.348 . S
C1678 C1680 1.353 . S
C1678 H1736 0.929 . S
C1679 C1676 1.356 . S
C1679 C1681 1.358 . S
C1679 H1737 0.930 . S
C1680 N1677 1.314 . S
C1680 C1678 1.353 . S
C1680 H1738 0.930 . S
C1681 N1677 1.279 . S
C1681 C1679 1.358 . S
C1681 H1739 0.930 . S
C1682 C1685 1.348 . S
C1682 C1686 1.356 . S
C1682 O1733 1.325 . S
C1683 N1684 1.279 . S
C1683 C1686 1.358 . S
C1683 H1740 0.930 . S
N1684 C1683 1.279 . S
N1684 C1687 1.314 . S
C1685 C1682 1.348 . S
C1685 C1687 1.353 . S
C1685 H1741 0.929 . S
C1686 C1682 1.356 . S
C1686 C1683 1.358 . S
C1686 H1742 0.930 . S
C1687 N1684 1.314 . S
C1687 C1685 1.353 . S
C1687 H1743 0.930 . S
C1688 N1689 1.314 . S
C1688 C1693 1.353 . S
C1688 H1694 0.930 . S
N1689 Li1672 1.990 . S
N1689 C1688 1.314 . S
N1689 C1691 1.279 . S
C1690 C1691 1.358 . S
C1690 C1692 1.356 . S
C1690 H1744 0.930 . S
C1691 N1689 1.279 . S
C1691 C1690 1.358 . S
C1691 H1695 0.930 . S
C1692 C1690 1.356 . S
C1692 C1693 1.348 . S
C1693 C1688 1.353 . S
C1693 C1692 1.348 . S
C1693 H1745 0.929 . S
H1694 C1688 0.930 . S
H1695 C1691 0.930 . S
C1696 N1697 1.314 . S
C1696 C1698 1.353 . S
C1696 H1702 0.930 . S
N1697 Li1673 1.990 . S
N1697 C1696 1.314 . S
N1697 C1700 1.279 . S
C1698 C1696 1.353 . S
C1698 C1701 1.348 . S
C1698 H1746 0.929 . S
C1699 C1700 1.358 . S
C1699 C1701 1.356 . S
C1699 H1747 0.930 . S
C1700 N1697 1.279 . S
C1700 C1699 1.358 . S
C1700 H1703 0.930 . S
C1701 C1698 1.348 . S
C1701 C1699 1.356 . S
H1702 C1696 0.930 . S
H1703 C1700 0.930 . S
C1704 C1706 1.348 1_545 S
C1704 C1707 1.356 . S
C1704 O1734 1.325 . S
N1705 C1708 1.314 . S
N1705 C1709 1.279 . S
C1706 C1704 1.348 1_565 S
C1706 C1708 1.353 . S
C1706 H1748 0.929 . S
C1707 C1704 1.356 . S
C1707 C1709 1.358 1_545 S
C1707 H1749 0.930 . S
C1708 N1705 1.314 . S
C1708 C1706 1.353 . S
C1708 H1750 0.930 . S
C1709 N1705 1.279 . S
C1709 C1707 1.358 1_565 S
C1709 H1751 0.930 . S
C1710 C1711 1.348 . S
C1710 C1712 1.356 . S
C1710 O1735 1.325 . S
C1711 C1710 1.348 . S
C1711 C1713 1.353 . S
C1711 H1752 0.929 . S
C1712 C1710 1.356 . S
C1712 C1714 1.358 . S
C1712 H1753 0.930 . S
C1713 C1711 1.353 . S
C1713 N1715 1.314 . S
C1713 H1754 0.930 . S
C1714 C1712 1.358 . S
C1714 N1715 1.279 . S
C1714 H1755 0.930 . S
N1715 C1713 1.314 . S
N1715 C1714 1.279 . S
C1716 C1718 1.353 . S
C1716 N1719 1.314 . S
C1716 H1722 0.930 . S
C1717 N1719 1.279 . S
C1717 C1720 1.358 . S
C1717 H1723 0.930 . S
C1718 C1716 1.353 . S
C1718 C1721 1.348 . S
C1718 H1756 0.929 . S
N1719 Li1674 1.990 . S
N1719 C1716 1.314 . S
N1719 C1717 1.279 . S
C1720 C1717 1.358 . S
C1720 C1721 1.356 . S
C1720 H1757 0.930 . S
C1721 C1718 1.348 . S
C1721 C1720 1.356 . S
H1722 C1716 0.930 . S
H1723 C1717 0.930 . S
C1724 N1725 1.314 . S
C1724 C1726 1.353 1_545 S
C1724 H1730 0.930 . S
N1725 Li1675 1.990 . S
N1725 C1724 1.314 . S
N1725 C1728 1.279 . S
C1726 C1724 1.353 1_565 S
C1726 C1729 1.348 . S
C1726 H1758 0.929 . S
C1727 C1728 1.358 1_565 S
C1727 C1729 1.356 . S
C1727 H1759 0.930 . S
C1728 N1725 1.279 . S
C1728 C1727 1.358 1_545 S
C1728 H1731 0.930 . S
C1729 C1726 1.348 . S
C1729 C1727 1.356 . S
H1730 C1724 0.930 . S
H1731 C1728 0.930 . S
O1732 Li1672 1.956 . S
O1732 Li1673 1.970 . S
O1732 Li1674 1.961 . S
O1732 C1676 1.325 . S
O1733 Li1672 1.970 . S
O1733 Li1673 1.956 . S
O1733 Li1675 1.961 . S
O1733 C1682 1.325 . S
O1734 Li1672 1.961 . S
O1734 Li1674 1.956 . S
O1734 Li1675 1.970 . S
O1734 C1704 1.325 . S
O1735 Li1673 1.961 . S
O1735 Li1674 1.970 . S
O1735 Li1675 1.956 . S
O1735 C1710 1.325 . S
H1736 C1678 0.929 . S
H1737 C1679 0.930 . S
H1738 C1680 0.930 . S
H1739 C1681 0.930 . S
H1740 C1683 0.930 . S
H1741 C1685 0.929 . S
H1742 C1686 0.930 . S
H1743 C1687 0.930 . S
H1744 C1690 0.930 . S
H1745 C1693 0.929 . S
H1746 C1698 0.929 . S
H1747 C1699 0.930 . S
H1748 C1706 0.929 . S
H1749 C1707 0.930 . S
H1750 C1708 0.930 . S
H1751 C1709 0.930 . S
H1752 C1711 0.929 . S
H1753 C1712 0.930 . S
H1754 C1713 0.930 . S
H1755 C1714 0.930 . S
H1756 C1718 0.929 . S
H1757 C1720 0.930 . S
H1758 C1726 0.929 . S
H1759 C1727 0.930 . S
Li1760 N1777 1.990 . S
Li1760 O1820 1.956 . S
Li1760 O1821 1.970 . S
Li1760 O1822 1.961 . S
Li1761 N1785 1.990 . S
Li1761 O1820 1.970 . S
Li1761 O1821 1.956 . S
Li1761 O1823 1.961 1_554 S
Li1762 N1807 1.990 . S
Li1762 O1820 1.961 1_556 S
Li1762 O1822 1.956 1_556 S
Li1762 O1823 1.970 . S
Li1763 N1813 1.990 1_554 S
Li1763 O1821 1.961 . S
Li1763 O1822 1.970 . S
Li1763 O1823 1.956 1_554 S
C1764 C1766 1.348 . S
C1764 C1767 1.356 . S
C1764 O1820 1.325 . S
N1765 C1768 1.314 . S
N1765 C1769 1.279 . S
C1766 C1764 1.348 . S
C1766 C1768 1.353 . S
C1766 H1824 0.929 . S
C1767 C1764 1.356 . S
C1767 C1769 1.358 . S
C1767 H1825 0.930 . S
C1768 N1765 1.314 . S
C1768 C1766 1.353 . S
C1768 H1826 0.930 . S
C1769 N1765 1.279 . S
C1769 C1767 1.358 . S
C1769 H1827 0.930 . S
C1770 C1773 1.348 . S
C1770 C1774 1.356 . S
C1770 O1821 1.325 . S
C1771 N1772 1.279 . S
C1771 C1774 1.358 . S
C1771 H1828 0.930 . S
N1772 C1771 1.279 . S
N1772 C1775 1.314 . S
C1773 C1770 1.348 . S
C1773 C1775 1.353 . S
C1773 H1829 0.929 . S
C1774 C1770 1.356 . S
C1774 C1771 1.358 . S
C1774 H1830 0.930 . S
C1775 N1772 1.314 . S
C1775 C1773 1.353 . S
C1775 H1831 0.930 . S
C1776 N1777 1.314 . S
C1776 C1781 1.353 . S
C1776 H1782 0.930 . S
N1777 Li1760 1.990 . S
N1777 C1776 1.314 . S
N1777 C1779 1.279 . S
C1778 C1779 1.358 . S
C1778 C1780 1.356 . S
C1778 H1832 0.930 . S
C1779 N1777 1.279 . S
C1779 C1778 1.358 . S
C1779 H1783 0.930 . S
C1780 C1778 1.356 . S
C1780 C1781 1.348 . S
C1781 C1776 1.353 . S
C1781 C1780 1.348 . S
C1781 H1833 0.929 . S
H1782 C1776 0.930 . S
H1783 C1779 0.930 . S
C1784 N1785 1.314 1_556 S
C1784 C1786 1.353 . S
C1784 H1790 0.930 . S
N1785 Li1761 1.990 . S
N1785 C1784 1.314 1_554 S
N1785 C1788 1.279 . S
C1786 C1784 1.353 . S
C1786 C1789 1.348 1_556 S
C1786 H1834 0.929 . S
C1787 C1788 1.358 . S
C1787 C1789 1.356 . S
C1787 H1835 0.930 . S
C1788 N1785 1.279 . S
C1788 C1787 1.358 . S
C1788 H1791 0.930 . S
C1789 C1786 1.348 1_554 S
C1789 C1787 1.356 . S
H1790 C1784 0.930 . S
H1791 C1788 0.930 . S
C1792 C1794 1.348 1_554 S
C1792 C1795 1.356 . S
C1792 O1822 1.325 . S
N1793 C1796 1.310 1_554 S
N1793 C1797 1.279 . S
C1794 C1792 1.348 1_556 S
C1794 C1796 1.353 . S
C1794 H1836 0.929 . S
C1795 C1792 1.356 . S
C1795 C1797 1.358 . S
C1795 H1837 0.930 . S
C1796 N1793 1.310 1_556 S
C1796 C1794 1.353 . S
C1796 H1838 0.935 . S
C1797 N1793 1.279 . S
C1797 C1795 1.358 . S
C1797 H1839 0.930 . S
C1798 C1799 1.348 . S
C1798 C1800 1.356 . S
C1798 O1823 1.325 . S
C1799 C1798 1.348 . S
C1799 C1801 1.353 . S
C1799 H1840 0.929 . S
C1800 C1798 1.356 . S
C1800 C1802 1.358 . S
C1800 H1841 0.930 . S
C1801 C1799 1.353 . S
C1801 N1803 1.314 . S
C1801 H1842 0.930 . S
C1802 C1800 1.358 . S
C1802 N1803 1.279 . S
C1802 H1843 0.930 . S
N1803 C1801 1.314 . S
N1803 C1802 1.279 . S
C1804 C1806 1.353 . S
C1804 N1807 1.314 . S
C1804 H1810 0.930 . S
C1805 N1807 1.279 . S
C1805 C1808 1.358 . S
C1805 H1811 0.930 . S
C1806 C1804 1.353 . S
C1806 C1809 1.348 . S
C1806 H1844 0.929 . S
N1807 Li1762 1.990 . S
N1807 C1804 1.314 . S
N1807 C1805 1.279 . S
C1808 C1805 1.358 . S
C1808 C1809 1.356 . S
C1808 H1845 0.930 . S
C1809 C1806 1.348 . S
C1809 C1808 1.356 . S
H1810 C1804 0.930 . S
H1811 C1805 0.930 . S
C1812 N1813 1.314 1_554 S
C1812 C1814 1.353 . S
C1812 H1818 0.930 . S
N1813 Li1763 1.990 1_556 S
N1813 C1812 1.314 1_556 S
N1813 C1816 1.279 . S
C1814 C1812 1.353 . S
C1814 C1817 1.348 1_554 S
C1814 H1846 0.929 . S
C1815 C1816 1.358 . S
C1815 C1817 1.356 . S
C1815 H1847 0.930 . S
C1816 N1813 1.279 . S
C1816 C1815 1.358 . S
C1816 H1819 0.930 . S
C1817 C1814 1.348 1_556 S
C1817 C1815 1.356 . S
H1818 C1812 0.930 . S
H1819 C1816 0.930 . S
O1820 Li1760 1.956 . S
O1820 Li1761 1.970 . S
O1820 Li1762 1.961 1_554 S
O1820 C1764 1.325 . S
O1821 Li1760 1.970 . S
O1821 Li1761 1.956 . S
O1821 Li1763 1.961 . S
O1821 C1770 1.325 . S
O1822 Li1760 1.961 . S
O1822 Li1762 1.956 1_554 S
O1822 Li1763 1.970 . S
O1822 C1792 1.325 . S
O1823 Li1761 1.961 1_556 S
O1823 Li1762 1.970 . S
O1823 Li1763 1.956 1_556 S
O1823 C1798 1.325 . S
H1824 C1766 0.929 . S
H1825 C1767 0.930 . S
H1826 C1768 0.930 . S
H1827 C1769 0.930 . S
H1828 C1771 0.930 . S
H1829 C1773 0.929 . S
H1830 C1774 0.930 . S
H1831 C1775 0.930 . S
H1832 C1778 0.930 . S
H1833 C1781 0.929 . S
H1834 C1786 0.929 . S
H1835 C1787 0.930 . S
H1836 C1794 0.929 . S
H1837 C1795 0.930 . S
H1838 C1796 0.935 . S
H1839 C1797 0.930 . S
H1840 C1799 0.929 . S
H1841 C1800 0.930 . S
H1842 C1801 0.930 . S
H1843 C1802 0.930 . S
H1844 C1806 0.929 . S
H1845 C1808 0.930 . S
H1846 C1814 0.929 . S
H1847 C1815 0.930 . S
Li1848 N1865 1.990 . S
Li1848 O1908 1.956 . S
Li1848 O1909 1.970 . S
Li1848 O1910 1.961 . S
Li1849 N1873 1.990 . S
Li1849 O1908 1.970 . S
Li1849 O1909 1.956 . S
Li1849 O1911 1.961 . S
Li1850 N1895 1.990 . S
Li1850 O1908 1.961 . S
Li1850 O1910 1.956 . S
Li1850 O1911 1.970 . S
Li1851 N1901 1.990 . S
Li1851 O1909 1.961 . S
Li1851 O1910 1.970 . S
Li1851 O1911 1.956 . S
C1852 C1854 1.348 . S
C1852 C1855 1.356 . S
C1852 O1908 1.325 . S
N1853 C1856 1.314 . S
N1853 C1857 1.279 . S
C1854 C1852 1.348 . S
C1854 C1856 1.353 . S
C1854 H1912 0.929 . S
C1855 C1852 1.356 . S
C1855 C1857 1.358 . S
C1855 H1913 0.930 . S
C1856 N1853 1.314 . S
C1856 C1854 1.353 . S
C1856 H1914 0.930 . S
C1857 N1853 1.279 . S
C1857 C1855 1.358 . S
C1857 H1915 0.930 . S
C1858 C1861 1.348 . S
C1858 C1862 1.356 . S
C1858 O1909 1.325 . S
C1859 N1860 1.279 . S
C1859 C1862 1.358 . S
C1859 H1916 0.930 . S
N1860 C1859 1.279 . S
N1860 C1863 1.314 . S
C1861 C1858 1.348 . S
C1861 C1863 1.353 . S
C1861 H1917 0.929 . S
C1862 C1858 1.356 . S
C1862 C1859 1.358 . S
C1862 H1918 0.930 . S
C1863 N1860 1.314 . S
C1863 C1861 1.353 . S
C1863 H1919 0.930 . S
C1864 N1865 1.314 . S
C1864 C1869 1.353 . S
C1864 H1870 0.930 . S
N1865 Li1848 1.990 . S
N1865 C1864 1.314 . S
N1865 C1867 1.279 . S
C1866 C1867 1.358 . S
C1866 C1868 1.356 . S
C1866 H1920 0.930 . S
C1867 N1865 1.279 . S
C1867 C1866 1.358 . S
C1867 H1871 0.930 . S
C1868 C1866 1.356 . S
C1868 C1869 1.348 . S
C1869 C1864 1.353 . S
C1869 C1868 1.348 . S
C1869 H1921 0.929 . S
H1870 C1864 0.930 . S
H1871 C1867 0.930 . S
C1872 N1873 1.314 . S
C1872 C1874 1.353 . S
C1872 H1878 0.930 . S
N1873 Li1849 1.990 . S
N1873 C1872 1.314 . S
N1873 C1876 1.279 . S
C1874 C1872 1.353 . S
C1874 C1877 1.348 . S
C1874 H1922 0.929 . S
C1875 C1876 1.358 . S
C1875 C1877 1.356 . S
C1875 H1923 0.930 . S
C1876 N1873 1.279 . S
C1876 C1875 1.358 . S
C1876 H1879 0.930 . S
C1877 C1874 1.348 . S
C1877 C1875 1.356 . S
H1878 C1872 0.930 . S
H1879 C1876 0.930 . S
C1880 C1882 1.348 . S
C1880 C1883 1.356 . S
C1880 O1910 1.325 . S
N1881 C1884 1.314 . S
N1881 C1885 1.279 . S
C1882 C1880 1.348 . S
C1882 C1884 1.353 . S
C1882 H1924 0.929 . S
C1883 C1880 1.356 . S
C1883 C1885 1.358 . S
C1883 H1925 0.930 . S
C1884 N1881 1.314 . S
C1884 C1882 1.353 . S
C1884 H1926 0.930 . S
C1885 N1881 1.279 . S
C1885 C1883 1.358 . S
C1885 H1927 0.930 . S
C1886 C1887 1.348 . S
C1886 C1888 1.356 . S
C1886 O1911 1.325 . S
C1887 C1886 1.348 . S
C1887 C1889 1.353 . S
C1887 H1928 0.929 . S
C1888 C1886 1.356 . S
C1888 C1890 1.358 . S
C1888 H1929 0.930 . S
C1889 C1887 1.353 . S
C1889 N1891 1.314 . S
C1889 H1930 0.930 . S
C1890 C1888 1.358 . S
C1890 N1891 1.279 . S
C1890 H1931 0.930 . S
N1891 C1889 1.314 . S
N1891 C1890 1.279 . S
C1892 C1894 1.353 . S
C1892 N1895 1.314 . S
C1892 H1898 0.930 . S
C1893 N1895 1.279 . S
C1893 C1896 1.358 . S
C1893 H1899 0.930 . S
C1894 C1892 1.353 . S
C1894 C1897 1.348 . S
C1894 H1932 0.929 . S
N1895 Li1850 1.990 . S
N1895 C1892 1.314 . S
N1895 C1893 1.279 . S
C1896 C1893 1.358 . S
C1896 C1897 1.356 . S
C1896 H1933 0.930 . S
C1897 C1894 1.348 . S
C1897 C1896 1.356 . S
H1898 C1892 0.930 . S
H1899 C1893 0.930 . S
C1900 N1901 1.314 . S
C1900 C1902 1.353 . S
C1900 H1906 0.930 . S
N1901 Li1851 1.990 . S
N1901 C1900 1.314 . S
N1901 C1904 1.279 . S
C1902 C1900 1.353 . S
C1902 C1905 1.348 . S
C1902 H1934 0.929 . S
C1903 C1904 1.358 . S
C1903 C1905 1.356 . S
C1903 H1935 0.930 . S
C1904 N1901 1.279 . S
C1904 C1903 1.358 . S
C1904 H1907 0.930 . S
C1905 C1902 1.348 . S
C1905 C1903 1.356 . S
H1906 C1900 0.930 . S
H1907 C1904 0.930 . S
O1908 Li1848 1.956 . S
O1908 Li1849 1.970 . S
O1908 Li1850 1.961 . S
O1908 C1852 1.325 . S
O1909 Li1848 1.970 . S
O1909 Li1849 1.956 . S
O1909 Li1851 1.961 . S
O1909 C1858 1.325 . S
O1910 Li1848 1.961 . S
O1910 Li1850 1.956 . S
O1910 Li1851 1.970 . S
O1910 C1880 1.325 . S
O1911 Li1849 1.961 . S
O1911 Li1850 1.970 . S
O1911 Li1851 1.956 . S
O1911 C1886 1.325 . S
H1912 C1854 0.929 . S
H1913 C1855 0.930 . S
H1914 C1856 0.930 . S
H1915 C1857 0.930 . S
H1916 C1859 0.930 . S
H1917 C1861 0.929 . S
H1918 C1862 0.930 . S
H1919 C1863 0.930 . S
H1920 C1866 0.930 . S
H1921 C1869 0.929 . S
H1922 C1874 0.929 . S
H1923 C1875 0.930 . S
H1924 C1882 0.929 . S
H1925 C1883 0.930 . S
H1926 C1884 0.930 . S
H1927 C1885 0.930 . S
H1928 C1887 0.929 . S
H1929 C1888 0.930 . S
H1930 C1889 0.930 . S
H1931 C1890 0.930 . S
H1932 C1894 0.929 . S
H1933 C1896 0.930 . S
H1934 C1902 0.929 . S
H1935 C1903 0.930 . S
Li1936 N1953 1.990 . S
Li1936 O1996 1.956 . S
Li1936 O1997 1.970 . S
Li1936 O1998 1.961 . S
Li1937 N1961 1.990 . S
Li1937 O1996 1.970 . S
Li1937 O1997 1.956 . S
Li1937 O1999 1.961 . S
Li1938 N1983 1.990 . S
Li1938 O1996 1.961 . S
Li1938 O1998 1.956 . S
Li1938 O1999 1.970 . S
Li1939 N1989 1.990 . S
Li1939 O1997 1.961 . S
Li1939 O1998 1.970 . S
Li1939 O1999 1.956 . S
C1940 C1942 1.348 . S
C1940 C1943 1.356 . S
C1940 O1996 1.325 . S
N1941 C1944 1.314 . S
N1941 C1945 1.279 . S
C1942 C1940 1.348 . S
C1942 C1944 1.353 . S
C1942 H2000 0.929 . S
C1943 C1940 1.356 . S
C1943 C1945 1.358 . S
C1943 H2001 0.930 . S
C1944 N1941 1.314 . S
C1944 C1942 1.353 . S
C1944 H2002 0.930 . S
C1945 N1941 1.279 . S
C1945 C1943 1.358 . S
C1945 H2003 0.930 . S
C1946 C1949 1.348 . S
C1946 C1950 1.356 . S
C1946 O1997 1.325 . S
C1947 N1948 1.279 . S
C1947 C1950 1.358 . S
C1947 H2004 0.930 . S
N1948 C1947 1.279 . S
N1948 C1951 1.314 . S
C1949 C1946 1.348 . S
C1949 C1951 1.353 . S
C1949 H2005 0.929 . S
C1950 C1946 1.356 . S
C1950 C1947 1.358 . S
C1950 H2006 0.930 . S
C1951 N1948 1.314 . S
C1951 C1949 1.353 . S
C1951 H2007 0.930 . S
C1952 N1953 1.314 . S
C1952 C1957 1.353 . S
C1952 H1958 0.930 . S
N1953 Li1936 1.990 . S
N1953 C1952 1.314 . S
N1953 C1955 1.279 . S
C1954 C1955 1.358 . S
C1954 C1956 1.356 . S
C1954 H2008 0.930 . S
C1955 N1953 1.279 . S
C1955 C1954 1.358 . S
C1955 H1959 0.930 . S
C1956 C1954 1.356 . S
C1956 C1957 1.348 . S
C1957 C1952 1.353 . S
C1957 C1956 1.348 . S
C1957 H2009 0.929 . S
H1958 C1952 0.930 . S
H1959 C1955 0.930 . S
C1960 N1961 1.314 . S
C1960 C1962 1.353 . S
C1960 H1966 0.930 . S
N1961 Li1937 1.990 . S
N1961 C1960 1.314 . S
N1961 C1964 1.279 . S
C1962 C1960 1.353 . S
C1962 C1965 1.348 . S
C1962 H2010 0.929 . S
C1963 C1964 1.358 . S
C1963 C1965 1.356 . S
C1963 H2011 0.930 . S
C1964 N1961 1.279 . S
C1964 C1963 1.358 . S
C1964 H1967 0.930 . S
C1965 C1962 1.348 . S
C1965 C1963 1.356 . S
H1966 C1960 0.930 . S
H1967 C1964 0.930 . S
C1968 C1970 1.348 . S
C1968 C1971 1.356 . S
C1968 O1998 1.325 . S
N1969 C1972 1.314 . S
N1969 C1973 1.279 . S
C1970 C1968 1.348 . S
C1970 C1972 1.353 . S
C1970 H2012 0.929 . S
C1971 C1968 1.356 . S
C1971 C1973 1.358 . S
C1971 H2013 0.930 . S
C1972 N1969 1.314 . S
C1972 C1970 1.353 . S
C1972 H2014 0.930 . S
C1973 N1969 1.279 . S
C1973 C1971 1.358 . S
C1973 H2015 0.930 . S
C1974 C1975 1.348 . S
C1974 C1976 1.356 . S
C1974 O1999 1.325 . S
C1975 C1974 1.348 . S
C1975 C1977 1.353 . S
C1975 H2016 0.929 . S
C1976 C1974 1.356 . S
C1976 C1978 1.358 . S
C1976 H2017 0.930 . S
C1977 C1975 1.353 . S
C1977 N1979 1.314 . S
C1977 H2018 0.930 . S
C1978 C1976 1.358 . S
C1978 N1979 1.279 . S
C1978 H2019 0.930 . S
N1979 C1977 1.314 . S
N1979 C1978 1.279 . S
C1980 C1982 1.353 . S
C1980 N1983 1.314 . S
C1980 H1986 0.930 . S
C1981 N1983 1.279 . S
C1981 C1984 1.358 . S
C1981 H1987 0.930 . S
C1982 C1980 1.353 . S
C1982 C1985 1.348 . S
C1982 H2020 0.929 . S
N1983 Li1938 1.990 . S
N1983 C1980 1.314 . S
N1983 C1981 1.279 . S
C1984 C1981 1.358 . S
C1984 C1985 1.356 . S
C1984 H2021 0.930 . S
C1985 C1982 1.348 . S
C1985 C1984 1.356 . S
H1986 C1980 0.930 . S
H1987 C1981 0.930 . S
C1988 N1989 1.314 . S
C1988 C1990 1.353 . S
C1988 H1994 0.930 . S
N1989 Li1939 1.990 . S
N1989 C1988 1.314 . S
N1989 C1992 1.279 . S
C1990 C1988 1.353 . S
C1990 C1993 1.348 . S
C1990 H2022 0.929 . S
C1991 C1992 1.358 . S
C1991 C1993 1.356 . S
C1991 H2023 0.930 . S
C1992 N1989 1.279 . S
C1992 C1991 1.358 . S
C1992 H1995 0.930 . S
C1993 C1990 1.348 . S
C1993 C1991 1.356 . S
H1994 C1988 0.930 . S
H1995 C1992 0.930 . S
O1996 Li1936 1.956 . S
O1996 Li1937 1.970 . S
O1996 Li1938 1.961 . S
O1996 C1940 1.325 . S
O1997 Li1936 1.970 . S
O1997 Li1937 1.956 . S
O1997 Li1939 1.961 . S
O1997 C1946 1.325 . S
O1998 Li1936 1.961 . S
O1998 Li1938 1.956 . S
O1998 Li1939 1.970 . S
O1998 C1968 1.325 . S
O1999 Li1937 1.961 . S
O1999 Li1938 1.970 . S
O1999 Li1939 1.956 . S
O1999 C1974 1.325 . S
H2000 C1942 0.929 . S
H2001 C1943 0.930 . S
H2002 C1944 0.930 . S
H2003 C1945 0.930 . S
H2004 C1947 0.930 . S
H2005 C1949 0.929 . S
H2006 C1950 0.930 . S
H2007 C1951 0.930 . S
H2008 C1954 0.930 . S
H2009 C1957 0.929 . S
H2010 C1962 0.929 . S
H2011 C1963 0.930 . S
H2012 C1970 0.929 . S
H2013 C1971 0.930 . S
H2014 C1972 0.930 . S
H2015 C1973 0.930 . S
H2016 C1975 0.929 . S
H2017 C1976 0.930 . S
H2018 C1977 0.930 . S
H2019 C1978 0.930 . S
H2020 C1982 0.929 . S
H2021 C1984 0.930 . S
H2022 C1990 0.929 . S
H2023 C1991 0.930 . S
Li2024 N2041 1.990 . S
Li2024 O2084 1.956 . S
Li2024 O2085 1.970 . S
Li2024 O2086 1.961 . S
Li2025 N2049 1.990 . S
Li2025 O2084 1.970 . S
Li2025 O2085 1.956 . S
Li2025 O2087 1.961 . S
Li2026 N2071 1.990 . S
Li2026 O2084 1.961 . S
Li2026 O2086 1.956 . S
Li2026 O2087 1.970 . S
Li2027 N2077 1.990 . S
Li2027 O2085 1.961 . S
Li2027 O2086 1.970 . S
Li2027 O2087 1.956 . S
C2028 C2030 1.348 . S
C2028 C2031 1.356 . S
C2028 O2084 1.325 . S
N2029 C2032 1.314 . S
N2029 C2033 1.279 . S
C2030 C2028 1.348 . S
C2030 C2032 1.353 . S
C2030 H2088 0.929 . S
C2031 C2028 1.356 . S
C2031 C2033 1.358 . S
C2031 H2089 0.930 . S
C2032 N2029 1.314 . S
C2032 C2030 1.353 . S
C2032 H2090 0.930 . S
C2033 N2029 1.279 . S
C2033 C2031 1.358 . S
C2033 H2091 0.930 . S
C2034 C2037 1.348 . S
C2034 C2038 1.356 . S
C2034 O2085 1.325 . S
C2035 N2036 1.279 . S
C2035 C2038 1.358 . S
C2035 H2092 0.930 . S
N2036 C2035 1.279 . S
N2036 C2039 1.314 . S
C2037 C2034 1.348 . S
C2037 C2039 1.353 . S
C2037 H2093 0.929 . S
C2038 C2034 1.356 . S
C2038 C2035 1.358 . S
C2038 H2094 0.930 . S
C2039 N2036 1.314 . S
C2039 C2037 1.353 . S
C2039 H2095 0.930 . S
C2040 N2041 1.314 . S
C2040 C2045 1.353 . S
C2040 H2046 0.930 . S
N2041 Li2024 1.990 . S
N2041 C2040 1.314 . S
N2041 C2043 1.279 . S
C2042 C2043 1.358 . S
C2042 C2044 1.356 . S
C2042 H2096 0.930 . S
C2043 N2041 1.279 . S
C2043 C2042 1.358 . S
C2043 H2047 0.930 . S
C2044 C2042 1.356 . S
C2044 C2045 1.348 . S
C2045 C2040 1.353 . S
C2045 C2044 1.348 . S
C2045 H2097 0.929 . S
H2046 C2040 0.930 . S
H2047 C2043 0.930 . S
C2048 N2049 1.314 . S
C2048 C2050 1.353 . S
C2048 H2054 0.930 . S
N2049 Li2025 1.990 . S
N2049 C2048 1.314 . S
N2049 C2052 1.279 . S
C2050 C2048 1.353 . S
C2050 C2053 1.348 . S
C2050 H2098 0.929 . S
C2051 C2052 1.358 . S
C2051 C2053 1.356 . S
C2051 H2099 0.930 . S
C2052 N2049 1.279 . S
C2052 C2051 1.358 . S
C2052 H2055 0.930 . S
C2053 C2050 1.348 . S
C2053 C2051 1.356 . S
H2054 C2048 0.930 . S
H2055 C2052 0.930 . S
C2056 C2058 1.348 . S
C2056 C2059 1.356 . S
C2056 O2086 1.325 . S
N2057 C2060 1.314 . S
N2057 C2061 1.279 . S
C2058 C2056 1.348 . S
C2058 C2060 1.353 . S
C2058 H2100 0.929 . S
C2059 C2056 1.356 . S
C2059 C2061 1.358 . S
C2059 H2101 0.930 . S
C2060 N2057 1.314 . S
C2060 C2058 1.353 . S
C2060 H2102 0.930 . S
C2061 N2057 1.279 . S
C2061 C2059 1.358 . S
C2061 H2103 0.930 . S
C2062 C2063 1.348 . S
C2062 C2064 1.356 . S
C2062 O2087 1.325 . S
C2063 C2062 1.348 . S
C2063 C2065 1.353 . S
C2063 H2104 0.929 . S
C2064 C2062 1.356 . S
C2064 C2066 1.358 . S
C2064 H2105 0.930 . S
C2065 C2063 1.353 . S
C2065 N2067 1.314 . S
C2065 H2106 0.930 . S
C2066 C2064 1.358 . S
C2066 N2067 1.279 . S
C2066 H2107 0.930 . S
N2067 C2065 1.314 . S
N2067 C2066 1.279 . S
C2068 C2070 1.353 . S
C2068 N2071 1.314 . S
C2068 H2074 0.930 . S
C2069 N2071 1.279 . S
C2069 C2072 1.358 . S
C2069 H2075 0.930 . S
C2070 C2068 1.353 . S
C2070 C2073 1.348 . S
C2070 H2108 0.929 . S
N2071 Li2026 1.990 . S
N2071 C2068 1.314 . S
N2071 C2069 1.279 . S
C2072 C2069 1.358 . S
C2072 C2073 1.356 . S
C2072 H2109 0.930 . S
C2073 C2070 1.348 . S
C2073 C2072 1.356 . S
H2074 C2068 0.930 . S
H2075 C2069 0.930 . S
C2076 N2077 1.314 . S
C2076 C2078 1.353 . S
C2076 H2082 0.930 . S
N2077 Li2027 1.990 . S
N2077 C2076 1.314 . S
N2077 C2080 1.279 . S
C2078 C2076 1.353 . S
C2078 C2081 1.348 . S
C2078 H2110 0.929 . S
C2079 C2080 1.358 . S
C2079 C2081 1.356 . S
C2079 H2111 0.930 . S
C2080 N2077 1.279 . S
C2080 C2079 1.358 . S
C2080 H2083 0.930 . S
C2081 C2078 1.348 . S
C2081 C2079 1.356 . S
H2082 C2076 0.930 . S
H2083 C2080 0.930 . S
O2084 Li2024 1.956 . S
O2084 Li2025 1.970 . S
O2084 Li2026 1.961 . S
O2084 C2028 1.325 . S
O2085 Li2024 1.970 . S
O2085 Li2025 1.956 . S
O2085 Li2027 1.961 . S
O2085 C2034 1.325 . S
O2086 Li2024 1.961 . S
O2086 Li2026 1.956 . S
O2086 Li2027 1.970 . S
O2086 C2056 1.325 . S
O2087 Li2025 1.961 . S
O2087 Li2026 1.970 . S
O2087 Li2027 1.956 . S
O2087 C2062 1.325 . S
H2088 C2030 0.929 . S
H2089 C2031 0.930 . S
H2090 C2032 0.930 . S
H2091 C2033 0.930 . S
H2092 C2035 0.930 . S
H2093 C2037 0.929 . S
H2094 C2038 0.930 . S
H2095 C2039 0.930 . S
H2096 C2042 0.930 . S
H2097 C2045 0.929 . S
H2098 C2050 0.929 . S
H2099 C2051 0.930 . S
H2100 C2058 0.929 . S
H2101 C2059 0.930 . S
H2102 C2060 0.930 . S
H2103 C2061 0.930 . S
H2104 C2063 0.929 . S
H2105 C2064 0.930 . S
H2106 C2065 0.930 . S
H2107 C2066 0.930 . S
H2108 C2070 0.929 . S
H2109 C2072 0.930 . S
H2110 C2078 0.929 . S
H2111 C2079 0.930 . S
Ho2112 C2115 2.811 1_455 S
Ho2112 O2132 2.322 . S
Ho2112 O2134 2.378 1_455 S
Ho2112 O2135 2.524 1_456 S
Ho2112 O2136 2.381 . S
Ho2112 O2137 2.669 . S
Ho2112 O2139 2.346 1_546 S
Ho2112 O2143 2.305 1_556 S
Ho2113 C2124 2.811 . S
Ho2113 O2133 2.346 . S
Ho2113 O2137 2.305 1_554 S
Ho2113 O2138 2.322 . S
Ho2113 O2140 2.378 . S
Ho2113 O2141 2.524 . S
Ho2113 O2142 2.381 . S
Ho2113 O2143 2.669 . S
C2114 O2132 1.259 1_554 S
C2114 O2133 1.268 . S
C2115 Ho2112 2.811 1_655 S
C2115 C2116 1.488 . S
C2115 O2134 1.215 . S
C2115 O2135 1.289 1_556 S
C2116 C2115 1.488 . S
C2116 C2117 1.327 1_556 S
C2116 C2121 1.413 . S
C2117 C2116 1.327 1_554 S
C2117 C2118 1.434 1_554 S
C2117 H2144 0.960 . S
C2118 C2117 1.434 1_556 S
C2118 C2119 1.381 . S
C2118 H2145 0.931 1_556 S
C2119 C2118 1.381 . S
C2119 C2120 1.321 . S
C2120 C2119 1.321 . S
C2120 C2121 1.403 . S
C2120 H2146 0.934 . S
C2121 C2116 1.413 . S
C2121 C2120 1.403 . S
C2121 H2147 0.930 . S
C2122 O2136 1.275 . S
C2122 O2137 1.256 . S
C2123 O2138 1.259 1_565 S
C2123 O2139 1.268 . S
C2124 Ho2113 2.811 . S
C2124 C2125 1.488 . S
C2124 O2140 1.215 . S
C2124 O2141 1.289 . S
C2125 C2124 1.488 . S
C2125 C2126 1.348 . S
C2125 C2130 1.413 . S
C2126 C2125 1.348 . S
C2126 C2127 1.442 1_545 S
C2126 H2148 0.930 1_545 S
C2127 C2126 1.442 1_565 S
C2127 C2128 1.380 1_565 S
C2127 H2149 0.931 . S
C2128 C2127 1.380 1_545 S
C2128 C2129 1.329 . S
C2129 C2128 1.329 . S
C2129 C2130 1.403 . S
C2129 H2150 0.934 . S
C2130 C2125 1.413 . S
C2130 C2129 1.403 . S
C2130 H2151 0.930 . S
C2131 O2142 1.275 . S
C2131 O2143 1.256 . S
O2132 Ho2112 2.322 . S
O2132 C2114 1.259 1_556 S
O2133 Ho2113 2.346 . S
O2133 C2114 1.268 . S
O2134 Ho2112 2.378 1_655 S
O2134 C2115 1.215 . S
O2135 Ho2112 2.524 1_654 S
O2135 C2115 1.289 1_554 S
O2136 Ho2112 2.381 . S
O2136 C2122 1.275 . S
O2137 Ho2112 2.669 . S
O2137 Ho2113 2.305 1_556 S
O2137 C2122 1.256 . S
O2138 Ho2113 2.322 . S
O2138 C2123 1.259 1_545 S
O2139 Ho2112 2.346 1_564 S
O2139 C2123 1.268 . S
O2140 Ho2113 2.378 . S
O2140 C2124 1.215 . S
O2141 Ho2113 2.524 . S
O2141 C2124 1.289 . S
O2142 Ho2113 2.381 . S
O2142 C2131 1.275 . S
O2143 Ho2112 2.305 1_554 S
O2143 Ho2113 2.669 . S
O2143 C2131 1.256 . S
H2144 C2117 0.960 . S
H2145 C2118 0.931 1_554 S
H2146 C2120 0.934 . S
H2147 C2121 0.930 . S
H2148 C2126 0.930 1_565 S
H2149 C2127 0.931 . S
H2150 C2129 0.934 . S
H2151 C2130 0.930 . S
Ho2152 C2155 2.811 . S
Ho2152 O2172 2.322 . S
Ho2152 O2174 2.378 . S
Ho2152 O2175 2.524 . S
Ho2152 O2176 2.381 . S
Ho2152 O2177 2.669 . S
Ho2152 O2179 2.346 . S
Ho2152 O2183 2.305 . S
Ho2153 C2164 2.811 . S
Ho2153 O2173 2.346 . S
Ho2153 O2177 2.305 . S
Ho2153 O2178 2.322 . S
Ho2153 O2180 2.378 . S
Ho2153 O2181 2.524 . S
Ho2153 O2182 2.381 . S
Ho2153 O2183 2.669 . S
C2154 O2172 1.259 . S
C2154 O2173 1.268 . S
C2155 Ho2152 2.811 . S
C2155 C2156 1.488 . S
C2155 O2174 1.215 . S
C2155 O2175 1.289 . S
C2156 C2155 1.488 . S
C2156 C2157 1.348 . S
C2156 C2161 1.413 . S
C2157 C2156 1.348 . S
C2157 C2158 1.442 . S
C2157 H2184 0.930 . S
C2158 C2157 1.442 . S
C2158 C2159 1.381 . S
C2158 H2185 0.931 . S
C2159 C2158 1.381 . S
C2159 C2160 1.321 . S
C2160 C2159 1.321 . S
C2160 C2161 1.403 . S
C2160 H2186 0.934 . S
C2161 C2156 1.413 . S
C2161 C2160 1.403 . S
C2161 H2187 0.930 . S
C2162 O2176 1.275 . S
C2162 O2177 1.256 . S
C2163 O2178 1.259 . S
C2163 O2179 1.268 . S
C2164 Ho2153 2.811 . S
C2164 C2165 1.488 . S
C2164 O2180 1.215 . S
C2164 O2181 1.289 . S
C2165 C2164 1.488 . S
C2165 C2166 1.348 . S
C2165 C2170 1.413 . S
C2166 C2165 1.348 . S
C2166 C2167 1.442 . S
C2166 H2188 0.930 . S
C2167 C2166 1.442 . S
C2167 C2168 1.381 . S
C2167 H2189 0.931 . S
C2168 C2167 1.381 . S
C2168 C2169 1.321 . S
C2169 C2168 1.321 . S
C2169 C2170 1.403 . S
C2169 H2190 0.934 . S
C2170 C2165 1.413 . S
C2170 C2169 1.403 . S
C2170 H2191 0.930 . S
C2171 O2182 1.275 . S
C2171 O2183 1.256 . S
O2172 Ho2152 2.322 . S
O2172 C2154 1.259 . S
O2173 Ho2153 2.346 . S
O2173 C2154 1.268 . S
O2174 Ho2152 2.378 . S
O2174 C2155 1.215 . S
O2175 Ho2152 2.524 . S
O2175 C2155 1.289 . S
O2176 Ho2152 2.381 . S
O2176 C2162 1.275 . S
O2177 Ho2152 2.669 . S
O2177 Ho2153 2.305 . S
O2177 C2162 1.256 . S
O2178 Ho2153 2.322 . S
O2178 C2163 1.259 . S
O2179 Ho2152 2.346 . S
O2179 C2163 1.268 . S
O2180 Ho2153 2.378 . S
O2180 C2164 1.215 . S
O2181 Ho2153 2.524 . S
O2181 C2164 1.289 . S
O2182 Ho2153 2.381 . S
O2182 C2171 1.275 . S
O2183 Ho2152 2.305 . S
O2183 Ho2153 2.669 . S
O2183 C2171 1.256 . S
H2184 C2157 0.930 . S
H2185 C2158 0.931 . S
H2186 C2160 0.934 . S
H2187 C2161 0.930 . S
H2188 C2166 0.930 . S
H2189 C2167 0.931 . S
H2190 C2169 0.934 . S
H2191 C2170 0.930 . S
Ho2192 C2195 2.811 . S
Ho2192 O2212 2.322 . S
Ho2192 O2214 2.378 . S
Ho2192 O2215 2.524 . S
Ho2192 O2216 2.381 . S
Ho2192 O2217 2.669 . S
Ho2192 O2219 2.346 . S
Ho2192 O2223 2.305 . S
Ho2193 C2204 2.811 . S
Ho2193 O2213 2.346 1_545 S
Ho2193 O2217 2.305 . S
Ho2193 O2218 2.322 . S
Ho2193 O2220 2.378 . S
Ho2193 O2221 2.524 . S
Ho2193 O2222 2.381 . S
Ho2193 O2223 2.669 . S
C2194 O2212 1.259 1_565 S
C2194 O2213 1.268 . S
C2195 Ho2192 2.811 . S
C2195 C2196 1.488 1_545 S
C2195 O2214 1.215 . S
C2195 O2215 1.289 . S
C2196 C2195 1.488 1_565 S
C2196 C2197 1.348 . S
C2196 C2201 1.413 . S
C2197 C2196 1.348 . S
C2197 C2198 1.442 . S
C2197 H2224 0.930 . S
C2198 C2197 1.442 . S
C2198 C2199 1.381 . S
C2198 H2225 0.931 . S
C2199 C2198 1.381 . S
C2199 C2200 1.321 . S
C2200 C2199 1.321 . S
C2200 C2201 1.403 . S
C2200 H2226 0.934 . S
C2201 C2196 1.413 . S
C2201 C2200 1.403 . S
C2201 H2227 0.906 1_565 S
C2202 O2216 1.275 . S
C2202 O2217 1.256 . S
C2203 O2218 1.259 . S
C2203 O2219 1.268 . S
C2204 Ho2193 2.811 . S
C2204 C2205 1.488 . S
C2204 O2220 1.215 . S
C2204 O2221 1.289 . S
C2205 C2204 1.488 . S
C2205 C2206 1.348 . S
C2205 C2210 1.413 . S
C2206 C2205 1.348 . S
C2206 C2207 1.442 . S
C2206 H2228 0.930 . S
C2207 C2206 1.442 . S
C2207 C2208 1.381 . S
C2207 H2229 0.931 . S
C2208 C2207 1.381 . S
C2208 C2209 1.321 . S
C2209 C2208 1.321 . S
C2209 C2210 1.403 . S
C2209 H2230 0.934 . S
C2210 C2205 1.413 . S
C2210 C2209 1.403 . S
C2210 H2231 0.930 . S
C2211 O2222 1.275 . S
C2211 O2223 1.256 . S
O2212 Ho2192 2.322 . S
O2212 C2194 1.259 1_545 S
O2213 Ho2193 2.346 1_565 S
O2213 C2194 1.268 . S
O2214 Ho2192 2.378 . S
O2214 C2195 1.215 . S
O2215 Ho2192 2.524 . S
O2215 C2195 1.289 . S
O2216 Ho2192 2.381 . S
O2216 C2202 1.275 . S
O2217 Ho2192 2.669 . S
O2217 Ho2193 2.305 . S
O2217 C2202 1.256 . S
O2218 Ho2193 2.322 . S
O2218 C2203 1.259 . S
O2219 Ho2192 2.346 . S
O2219 C2203 1.268 . S
O2220 Ho2193 2.378 . S
O2220 C2204 1.215 . S
O2221 Ho2193 2.524 . S
O2221 C2204 1.289 . S
O2222 Ho2193 2.381 . S
O2222 C2211 1.275 . S
O2223 Ho2192 2.305 . S
O2223 Ho2193 2.669 . S
O2223 C2211 1.256 . S
H2224 C2197 0.930 . S
H2225 C2198 0.931 . S
H2226 C2200 0.934 . S
H2227 C2201 0.906 1_545 S
H2228 C2206 0.930 . S
H2229 C2207 0.931 . S
H2230 C2209 0.934 . S
H2231 C2210 0.930 . S
Ho2232 C2235 2.811 . S
Ho2232 O2252 2.322 . S
Ho2232 O2254 2.378 . S
Ho2232 O2255 2.524 . S
Ho2232 O2256 2.381 . S
Ho2232 O2257 2.669 . S
Ho2232 O2259 2.346 . S
Ho2232 O2263 2.305 . S
Ho2233 C2244 2.811 . S
Ho2233 O2253 2.346 . S
Ho2233 O2257 2.305 . S
Ho2233 O2258 2.322 . S
Ho2233 O2260 2.378 . S
Ho2233 O2261 2.524 . S
Ho2233 O2262 2.381 . S
Ho2233 O2263 2.669 . S
C2234 O2252 1.259 . S
C2234 O2253 1.268 . S
C2235 Ho2232 2.811 . S
C2235 C2236 1.488 . S
C2235 O2254 1.215 . S
C2235 O2255 1.289 . S
C2236 C2235 1.488 . S
C2236 C2237 1.348 . S
C2236 C2241 1.413 . S
C2237 C2236 1.348 . S
C2237 C2238 1.442 . S
C2237 H2264 0.930 . S
C2238 C2237 1.442 . S
C2238 C2239 1.381 . S
C2238 H2265 0.931 . S
C2239 C2238 1.381 . S
C2239 C2240 1.321 . S
C2240 C2239 1.321 . S
C2240 C2241 1.403 . S
C2240 H2266 0.934 . S
C2241 C2236 1.413 . S
C2241 C2240 1.403 . S
C2241 H2267 0.930 . S
C2242 O2256 1.275 . S
C2242 O2257 1.256 . S
C2243 O2258 1.259 . S
C2243 O2259 1.268 . S
C2244 Ho2233 2.811 . S
C2244 C2245 1.488 . S
C2244 O2260 1.215 . S
C2244 O2261 1.289 . S
C2245 C2244 1.488 . S
C2245 C2246 1.348 . S
C2245 C2250 1.413 . S
C2246 C2245 1.348 . S
C2246 C2247 1.442 . S
C2246 H2268 0.930 . S
C2247 C2246 1.442 . S
C2247 C2248 1.381 . S
C2247 H2269 0.931 . S
C2248 C2247 1.381 . S
C2248 C2249 1.321 . S
C2249 C2248 1.321 . S
C2249 C2250 1.403 . S
C2249 H2270 0.934 . S
C2250 C2245 1.413 . S
C2250 C2249 1.403 . S
C2250 H2271 0.930 . S
C2251 O2262 1.275 . S
C2251 O2263 1.256 . S
O2252 Ho2232 2.322 . S
O2252 C2234 1.259 . S
O2253 Ho2233 2.346 . S
O2253 C2234 1.268 . S
O2254 Ho2232 2.378 . S
O2254 C2235 1.215 . S
O2255 Ho2232 2.524 . S
O2255 C2235 1.289 . S
O2256 Ho2232 2.381 . S
O2256 C2242 1.275 . S
O2257 Ho2232 2.669 . S
O2257 Ho2233 2.305 . S
O2257 C2242 1.256 . S
O2258 Ho2233 2.322 . S
O2258 C2243 1.259 . S
O2259 Ho2232 2.346 . S
O2259 C2243 1.268 . S
O2260 Ho2233 2.378 . S
O2260 C2244 1.215 . S
O2261 Ho2233 2.524 . S
O2261 C2244 1.289 . S
O2262 Ho2233 2.381 . S
O2262 C2251 1.275 . S
O2263 Ho2232 2.305 . S
O2263 Ho2233 2.669 . S
O2263 C2251 1.256 . S
H2264 C2237 0.930 . S
H2265 C2238 0.931 . S
H2266 C2240 0.934 . S
H2267 C2241 0.930 . S
H2268 C2246 0.930 . S
H2269 C2247 0.931 . S
H2270 C2249 0.934 . S
H2271 C2250 0.930 . S
Ho2272 C2275 2.811 . S
Ho2272 O2292 2.322 . S
Ho2272 O2294 2.378 . S
Ho2272 O2295 2.524 . S
Ho2272 O2296 2.381 . S
Ho2272 O2297 2.669 . S
Ho2272 O2299 2.346 . S
Ho2272 O2303 2.305 . S
Ho2273 C2284 2.811 1_545 S
Ho2273 O2293 2.346 . S
Ho2273 O2297 2.305 . S
Ho2273 O2298 2.322 . S
Ho2273 O2300 2.378 1_545 S
Ho2273 O2301 2.524 1_545 S
Ho2273 O2302 2.381 . S
Ho2273 O2303 2.669 . S
C2274 O2292 1.259 . S
C2274 O2293 1.268 . S
C2275 Ho2272 2.811 . S
C2275 C2276 1.488 . S
C2275 O2294 1.215 . S
C2275 O2295 1.289 . S
C2276 C2275 1.488 . S
C2276 C2277 1.348 . S
C2276 C2281 1.413 . S
C2277 C2276 1.348 . S
C2277 C2278 1.442 . S
C2277 H2304 0.930 . S
C2278 C2277 1.442 . S
C2278 C2279 1.381 . S
C2278 H2305 0.931 . S
C2279 C2278 1.381 . S
C2279 C2280 1.321 . S
C2280 C2279 1.321 . S
C2280 C2281 1.403 . S
C2280 H2306 0.934 . S
C2281 C2276 1.413 . S
C2281 C2280 1.403 . S
C2281 H2307 0.930 . S
C2282 O2296 1.275 . S
C2282 O2297 1.256 . S
C2283 O2298 1.259 . S
C2283 O2299 1.268 . S
C2284 Ho2273 2.811 1_565 S
C2284 C2285 1.488 . S
C2284 O2300 1.215 . S
C2284 O2301 1.289 . S
C2285 C2284 1.488 . S
C2285 C2286 1.348 . S
C2285 C2290 1.413 . S
C2286 C2285 1.348 . S
C2286 C2287 1.442 . S
C2286 H2308 0.930 . S
C2287 C2286 1.442 . S
C2287 C2288 1.381 . S
C2287 H2309 0.931 . S
C2288 C2287 1.381 . S
C2288 C2289 1.321 . S
C2289 C2288 1.321 . S
C2289 C2290 1.403 . S
C2289 H2310 0.934 . S
C2290 C2285 1.413 . S
C2290 C2289 1.403 . S
C2290 H2311 0.930 . S
C2291 O2302 1.275 . S
C2291 O2303 1.256 . S
O2292 Ho2272 2.322 . S
O2292 C2274 1.259 . S
O2293 Ho2273 2.346 . S
O2293 C2274 1.268 . S
O2294 Ho2272 2.378 . S
O2294 C2275 1.215 . S
O2295 Ho2272 2.524 . S
O2295 C2275 1.289 . S
O2296 Ho2272 2.381 . S
O2296 C2282 1.275 . S
O2297 Ho2272 2.669 . S
O2297 Ho2273 2.305 . S
O2297 C2282 1.256 . S
O2298 Ho2273 2.322 . S
O2298 C2283 1.259 . S
O2299 Ho2272 2.346 . S
O2299 C2283 1.268 . S
O2300 Ho2273 2.378 1_565 S
O2300 C2284 1.215 . S
O2301 Ho2273 2.524 1_565 S
O2301 C2284 1.289 . S
O2302 Ho2273 2.381 . S
O2302 C2291 1.275 . S
O2303 Ho2272 2.305 . S
O2303 Ho2273 2.669 . S
O2303 C2291 1.256 . S
H2304 C2277 0.930 . S
H2305 C2278 0.931 . S
H2306 C2280 0.934 . S
H2307 C2281 0.930 . S
H2308 C2286 0.930 . S
H2309 C2287 0.931 . S
H2310 C2289 0.934 . S
H2311 C2290 0.930 . S
Ho2312 C2315 2.811 . S
Ho2312 O2332 2.322 . S
Ho2312 O2334 2.378 . S
Ho2312 O2335 2.524 . S
Ho2312 O2336 2.381 . S
Ho2312 O2337 2.669 . S
Ho2312 O2339 2.346 . S
Ho2312 O2343 2.305 . S
Ho2313 C2324 2.811 . S
Ho2313 O2333 2.346 . S
Ho2313 O2337 2.305 . S
Ho2313 O2338 2.322 . S
Ho2313 O2340 2.378 . S
Ho2313 O2341 2.524 . S
Ho2313 O2342 2.381 . S
Ho2313 O2343 2.669 . S
C2314 O2332 1.259 . S
C2314 O2333 1.268 . S
C2315 Ho2312 2.811 . S
C2315 C2316 1.488 . S
C2315 O2334 1.215 . S
C2315 O2335 1.289 . S
C2316 C2315 1.488 . S
C2316 C2317 1.348 . S
C2316 C2321 1.413 . S
C2317 C2316 1.348 . S
C2317 C2318 1.442 . S
C2317 H2344 0.930 . S
C2318 C2317 1.442 . S
C2318 C2319 1.381 . S
C2318 H2345 0.931 . S
C2319 C2318 1.381 . S
C2319 C2320 1.321 . S
C2320 C2319 1.321 . S
C2320 C2321 1.403 . S
C2320 H2346 0.934 . S
C2321 C2316 1.413 . S
C2321 C2320 1.403 . S
C2321 H2347 0.930 . S
C2322 O2336 1.275 . S
C2322 O2337 1.256 . S
C2323 O2338 1.259 . S
C2323 O2339 1.268 . S
C2324 Ho2313 2.811 . S
C2324 C2325 1.488 . S
C2324 O2340 1.215 . S
C2324 O2341 1.289 . S
C2325 C2324 1.488 . S
C2325 C2326 1.348 . S
C2325 C2330 1.413 . S
C2326 C2325 1.348 . S
C2326 C2327 1.442 . S
C2326 H2348 0.930 . S
C2327 C2326 1.442 . S
C2327 C2328 1.381 . S
C2327 H2349 0.931 . S
C2328 C2327 1.381 . S
C2328 C2329 1.321 . S
C2329 C2328 1.321 . S
C2329 C2330 1.403 . S
C2329 H2350 0.934 . S
C2330 C2325 1.413 . S
C2330 C2329 1.403 . S
C2330 H2351 0.930 . S
C2331 O2342 1.275 . S
C2331 O2343 1.256 . S
O2332 Ho2312 2.322 . S
O2332 C2314 1.259 . S
O2333 Ho2313 2.346 . S
O2333 C2314 1.268 . S
O2334 Ho2312 2.378 . S
O2334 C2315 1.215 . S
O2335 Ho2312 2.524 . S
O2335 C2315 1.289 . S
O2336 Ho2312 2.381 . S
O2336 C2322 1.275 . S
O2337 Ho2312 2.669 . S
O2337 Ho2313 2.305 . S
O2337 C2322 1.256 . S
O2338 Ho2313 2.322 . S
O2338 C2323 1.259 . S
O2339 Ho2312 2.346 . S
O2339 C2323 1.268 . S
O2340 Ho2313 2.378 . S
O2340 C2324 1.215 . S
O2341 Ho2313 2.524 . S
O2341 C2324 1.289 . S
O2342 Ho2313 2.381 . S
O2342 C2331 1.275 . S
O2343 Ho2312 2.305 . S
O2343 Ho2313 2.669 . S
O2343 C2331 1.256 . S
H2344 C2317 0.930 . S
H2345 C2318 0.931 . S
H2346 C2320 0.934 . S
H2347 C2321 0.930 . S
H2348 C2326 0.930 . S
H2349 C2327 0.931 . S
H2350 C2329 0.934 . S
H2351 C2330 0.930 . S
Ho2352 C2355 2.811 . S
Ho2352 O2372 2.322 . S
Ho2352 O2374 2.378 . S
Ho2352 O2375 2.524 . S
Ho2352 O2376 2.381 1_545 S
Ho2352 O2377 2.669 1_554 S
Ho2352 O2379 2.346 . S
Ho2352 O2383 2.305 . S
Ho2353 C2364 2.811 . S
Ho2353 O2373 2.346 . S
Ho2353 O2377 2.305 . S
Ho2353 O2378 2.322 . S
Ho2353 O2380 2.378 . S
Ho2353 O2381 2.524 . S
Ho2353 O2382 2.381 1_556 S
Ho2353 O2383 2.669 1_556 S
C2354 O2372 1.259 . S
C2354 O2373 1.268 1_554 S
C2355 Ho2352 2.811 . S
C2355 C2356 1.488 . S
C2355 O2374 1.215 . S
C2355 O2375 1.289 . S
C2356 C2355 1.488 . S
C2356 C2357 1.348 . S
C2356 C2361 1.413 1_545 S
C2357 C2356 1.348 . S
C2357 C2358 1.442 . S
C2357 H2384 0.930 . S
C2358 C2357 1.442 . S
C2358 C2359 1.381 1_545 S
C2358 H2385 0.931 . S
C2359 C2358 1.381 1_565 S
C2359 C2360 1.321 . S
C2360 C2359 1.321 . S
C2360 C2361 1.403 . S
C2360 H2386 0.934 . S
C2361 C2356 1.413 1_565 S
C2361 C2360 1.403 . S
C2361 H2387 0.930 . S
C2362 O2376 1.285 . S
C2362 O2377 1.253 1_564 S
C2363 O2378 1.259 1_554 S
C2363 O2379 1.268 . S
C2364 Ho2353 2.811 . S
C2364 C2365 1.488 . S
C2364 O2380 1.215 . S
C2364 O2381 1.289 . S
C2365 C2364 1.488 . S
C2365 C2366 1.348 . S
C2365 C2370 1.413 . S
C2366 C2365 1.348 . S
C2366 C2367 1.442 . S
C2366 H2388 0.930 . S
C2367 C2366 1.442 . S
C2367 C2368 1.381 . S
C2367 H2389 0.931 . S
C2368 C2367 1.381 . S
C2368 C2369 1.321 . S
C2369 C2368 1.321 . S
C2369 C2370 1.403 . S
C2369 H2390 0.934 . S
C2370 C2365 1.413 . S
C2370 C2369 1.403 . S
C2370 H2391 0.930 . S
C2371 O2382 1.275 . S
C2371 O2383 1.256 . S
O2372 Ho2352 2.322 . S
O2372 C2354 1.259 . S
O2373 Ho2353 2.346 . S
O2373 C2354 1.268 1_556 S
O2374 Ho2352 2.378 . S
O2374 C2355 1.215 . S
O2375 Ho2352 2.524 . S
O2375 C2355 1.289 . S
O2376 Ho2352 2.381 1_565 S
O2376 C2362 1.285 . S
O2377 Ho2352 2.669 1_556 S
O2377 Ho2353 2.305 . S
O2377 C2362 1.253 1_546 S
O2378 Ho2353 2.322 . S
O2378 C2363 1.259 1_556 S
O2379 Ho2352 2.346 . S
O2379 C2363 1.268 . S
O2380 Ho2353 2.378 . S
O2380 C2364 1.215 . S
O2381 Ho2353 2.524 . S
O2381 C2364 1.289 . S
O2382 Ho2353 2.381 1_554 S
O2382 C2371 1.275 . S
O2383 Ho2352 2.305 . S
O2383 Ho2353 2.669 1_554 S
O2383 C2371 1.256 . S
H2384 C2357 0.930 . S
H2385 C2358 0.931 . S
H2386 C2360 0.934 . S
H2387 C2361 0.930 . S
H2388 C2366 0.930 . S
H2389 C2367 0.931 . S
H2390 C2369 0.934 . S
H2391 C2370 0.930 . S
Ho2392 C2395 2.811 . S
Ho2392 O2412 2.322 . S
Ho2392 O2414 2.378 . S
Ho2392 O2415 2.524 . S
Ho2392 O2416 2.381 . S
Ho2392 O2417 2.669 . S
Ho2392 O2419 2.346 . S
Ho2392 O2423 2.305 . S
Ho2393 C2404 2.811 . S
Ho2393 O2413 2.346 . S
Ho2393 O2417 2.305 . S
Ho2393 O2418 2.322 . S
Ho2393 O2420 2.378 . S
Ho2393 O2421 2.524 . S
Ho2393 O2422 2.381 . S
Ho2393 O2423 2.669 . S
C2394 O2412 1.259 . S
C2394 O2413 1.268 . S
C2395 Ho2392 2.811 . S
C2395 C2396 1.488 . S
C2395 O2414 1.215 . S
C2395 O2415 1.289 . S
C2396 C2395 1.488 . S
C2396 C2397 1.348 . S
C2396 C2401 1.413 . S
C2397 C2396 1.348 . S
C2397 C2398 1.442 . S
C2397 H2424 0.930 . S
C2398 C2397 1.442 . S
C2398 C2399 1.381 . S
C2398 H2425 0.931 . S
C2399 C2398 1.381 . S
C2399 C2400 1.321 . S
C2400 C2399 1.321 . S
C2400 C2401 1.403 . S
C2400 H2426 0.934 . S
C2401 C2396 1.413 . S
C2401 C2400 1.403 . S
C2401 H2427 0.930 . S
C2402 O2416 1.275 . S
C2402 O2417 1.256 . S
C2403 O2418 1.259 . S
C2403 O2419 1.268 . S
C2404 Ho2393 2.811 . S
C2404 C2405 1.488 . S
C2404 O2420 1.215 . S
C2404 O2421 1.289 . S
C2405 C2404 1.488 . S
C2405 C2406 1.348 . S
C2405 C2410 1.413 . S
C2406 C2405 1.348 . S
C2406 C2407 1.442 . S
C2406 H2428 0.930 . S
C2407 C2406 1.442 . S
C2407 C2408 1.381 . S
C2407 H2429 0.931 . S
C2408 C2407 1.381 . S
C2408 C2409 1.321 . S
C2409 C2408 1.321 . S
C2409 C2410 1.403 . S
C2409 H2430 0.934 . S
C2410 C2405 1.413 . S
C2410 C2409 1.403 . S
C2410 H2431 0.930 . S
C2411 O2422 1.275 . S
C2411 O2423 1.256 . S
O2412 Ho2392 2.322 . S
O2412 C2394 1.259 . S
O2413 Ho2393 2.346 . S
O2413 C2394 1.268 . S
O2414 Ho2392 2.378 . S
O2414 C2395 1.215 . S
O2415 Ho2392 2.524 . S
O2415 C2395 1.289 . S
O2416 Ho2392 2.381 . S
O2416 C2402 1.275 . S
O2417 Ho2392 2.669 . S
O2417 Ho2393 2.305 . S
O2417 C2402 1.256 . S
O2418 Ho2393 2.322 . S
O2418 C2403 1.259 . S
O2419 Ho2392 2.346 . S
O2419 C2403 1.268 . S
O2420 Ho2393 2.378 . S
O2420 C2404 1.215 . S
O2421 Ho2393 2.524 . S
O2421 C2404 1.289 . S
O2422 Ho2393 2.381 . S
O2422 C2411 1.275 . S
O2423 Ho2392 2.305 . S
O2423 Ho2393 2.669 . S
O2423 C2411 1.256 . S
H2424 C2397 0.930 . S
H2425 C2398 0.931 . S
H2426 C2400 0.934 . S
H2427 C2401 0.930 . S
H2428 C2406 0.930 . S
H2429 C2407 0.931 . S
H2430 C2409 0.934 . S
H2431 C2410 0.930 . S
Ho2432 C2435 2.796 1_554 S
Ho2432 O2452 2.322 1_554 S
Ho2432 O2454 2.378 . S
Ho2432 O2455 2.524 1_554 S
Ho2432 O2456 2.381 . S
Ho2432 O2457 2.669 . S
Ho2432 O2459 2.346 . S
Ho2432 O2463 2.305 . S
Ho2433 C2444 2.811 . S
Ho2433 O2453 2.346 1_554 S
Ho2433 O2457 2.305 . S
Ho2433 O2458 2.322 . S
Ho2433 O2460 2.378 . S
Ho2433 O2461 2.524 . S
Ho2433 O2462 2.381 . S
Ho2433 O2463 2.669 . S
C2434 O2452 1.259 . S
C2434 O2453 1.268 . S
C2435 Ho2432 2.796 1_556 S
C2435 C2436 1.504 . S
C2435 O2454 1.198 1_556 S
C2435 O2455 1.293 . S
C2436 C2435 1.504 . S
C2436 C2437 1.348 . S
C2436 C2441 1.413 . S
C2437 C2436 1.348 . S
C2437 C2438 1.442 . S
C2437 H2464 0.930 . S
C2438 C2437 1.442 . S
C2438 C2439 1.381 . S
C2438 H2465 0.931 . S
C2439 C2438 1.381 . S
C2439 C2440 1.321 . S
C2440 C2439 1.321 . S
C2440 C2441 1.403 . S
C2440 H2466 0.934 . S
C2441 C2436 1.413 . S
C2441 C2440 1.403 . S
C2441 H2467 0.930 . S
C2442 O2456 1.275 . S
C2442 O2457 1.256 . S
C2443 O2458 1.259 . S
C2443 O2459 1.268 . S
C2444 Ho2433 2.811 . S
C2444 C2445 1.488 . S
C2444 O2460 1.215 . S
C2444 O2461 1.289 . S
C2445 C2444 1.488 . S
C2445 C2446 1.348 . S
C2445 C2450 1.413 . S
C2446 C2445 1.348 . S
C2446 C2447 1.442 . S
C2446 H2468 0.930 . S
C2447 C2446 1.442 . S
C2447 C2448 1.381 . S
C2447 H2469 0.931 . S
C2448 C2447 1.381 . S
C2448 C2449 1.321 . S
C2449 C2448 1.321 . S
C2449 C2450 1.403 . S
C2449 H2470 0.934 . S
C2450 C2445 1.413 . S
C2450 C2449 1.403 . S
C2450 H2471 0.930 . S
C2451 O2462 1.275 . S
C2451 O2463 1.256 . S
O2452 Ho2432 2.322 1_556 S
O2452 C2434 1.259 . S
O2453 Ho2433 2.346 1_556 S
O2453 C2434 1.268 . S
O2454 Ho2432 2.378 . S
O2454 C2435 1.198 1_554 S
O2455 Ho2432 2.524 1_556 S
O2455 C2435 1.293 . S
O2456 Ho2432 2.381 . S
O2456 C2442 1.275 . S
O2457 Ho2432 2.669 . S
O2457 Ho2433 2.305 . S
O2457 C2442 1.256 . S
O2458 Ho2433 2.322 . S
O2458 C2443 1.259 . S
O2459 Ho2432 2.346 . S
O2459 C2443 1.268 . S
O2460 Ho2433 2.378 . S
O2460 C2444 1.215 . S
O2461 Ho2433 2.524 . S
O2461 C2444 1.289 . S
O2462 Ho2433 2.381 . S
O2462 C2451 1.275 . S
O2463 Ho2432 2.305 . S
O2463 Ho2433 2.669 . S
O2463 C2451 1.256 . S
H2464 C2437 0.930 . S
H2465 C2438 0.931 . S
H2466 C2440 0.934 . S
H2467 C2441 0.930 . S
H2468 C2446 0.930 . S
H2469 C2447 0.931 . S
H2470 C2449 0.934 . S
H2471 C2450 0.930 . S
Ho2472 C2475 2.811 . S
Ho2472 O2492 2.322 . S
Ho2472 O2494 2.378 . S
Ho2472 O2495 2.524 . S
Ho2472 O2496 2.381 . S
Ho2472 O2497 2.669 . S
Ho2472 O2499 2.346 . S
Ho2472 O2503 2.305 . S
Ho2473 C2484 2.811 . S
Ho2473 O2493 2.346 . S
Ho2473 O2497 2.305 . S
Ho2473 O2498 2.322 . S
Ho2473 O2500 2.378 . S
Ho2473 O2501 2.524 . S
Ho2473 O2502 2.381 . S
Ho2473 O2503 2.669 . S
C2474 O2492 1.259 . S
C2474 O2493 1.268 . S
C2475 Ho2472 2.811 . S
C2475 C2476 1.488 . S
C2475 O2494 1.215 . S
C2475 O2495 1.289 . S
C2476 C2475 1.488 . S
C2476 C2477 1.348 . S
C2476 C2481 1.413 . S
C2477 C2476 1.348 . S
C2477 C2478 1.442 . S
C2477 H2504 0.930 . S
C2478 C2477 1.442 . S
C2478 C2479 1.381 . S
C2478 H2505 0.931 . S
C2479 C2478 1.381 . S
C2479 C2480 1.321 . S
C2480 C2479 1.321 . S
C2480 C2481 1.403 . S
C2480 H2506 0.934 . S
C2481 C2476 1.413 . S
C2481 C2480 1.403 . S
C2481 H2507 0.930 . S
C2482 O2496 1.275 . S
C2482 O2497 1.256 . S
C2483 O2498 1.259 . S
C2483 O2499 1.268 . S
C2484 Ho2473 2.811 . S
C2484 C2485 1.488 . S
C2484 O2500 1.215 . S
C2484 O2501 1.289 . S
C2485 C2484 1.488 . S
C2485 C2486 1.348 . S
C2485 C2490 1.413 . S
C2486 C2485 1.348 . S
C2486 C2487 1.442 . S
C2486 H2508 0.930 . S
C2487 C2486 1.442 . S
C2487 C2488 1.381 . S
C2487 H2509 0.931 . S
C2488 C2487 1.381 . S
C2488 C2489 1.321 . S
C2489 C2488 1.321 . S
C2489 C2490 1.403 . S
C2489 H2510 0.934 . S
C2490 C2485 1.413 . S
C2490 C2489 1.403 . S
C2490 H2511 0.930 . S
C2491 O2502 1.275 . S
C2491 O2503 1.256 . S
O2492 Ho2472 2.322 . S
O2492 C2474 1.259 . S
O2493 Ho2473 2.346 . S
O2493 C2474 1.268 . S
O2494 Ho2472 2.378 . S
O2494 C2475 1.215 . S
O2495 Ho2472 2.524 . S
O2495 C2475 1.289 . S
O2496 Ho2472 2.381 . S
O2496 C2482 1.275 . S
O2497 Ho2472 2.669 . S
O2497 Ho2473 2.305 . S
O2497 C2482 1.256 . S
O2498 Ho2473 2.322 . S
O2498 C2483 1.259 . S
O2499 Ho2472 2.346 . S
O2499 C2483 1.268 . S
O2500 Ho2473 2.378 . S
O2500 C2484 1.215 . S
O2501 Ho2473 2.524 . S
O2501 C2484 1.289 . S
O2502 Ho2473 2.381 . S
O2502 C2491 1.275 . S
O2503 Ho2472 2.305 . S
O2503 Ho2473 2.669 . S
O2503 C2491 1.256 . S
H2504 C2477 0.930 . S
H2505 C2478 0.931 . S
H2506 C2480 0.934 . S
H2507 C2481 0.930 . S
H2508 C2486 0.930 . S
H2509 C2487 0.931 . S
H2510 C2489 0.934 . S
H2511 C2490 0.930 . S
Ho2512 C2515 2.811 . S
Ho2512 O2532 2.322 . S
Ho2512 O2534 2.378 . S
Ho2512 O2535 2.524 . S
Ho2512 O2536 2.381 . S
Ho2512 O2537 2.669 . S
Ho2512 O2539 2.346 . S
Ho2512 O2543 2.305 . S
Ho2513 C2524 2.811 . S
Ho2513 O2533 2.346 . S
Ho2513 O2537 2.305 . S
Ho2513 O2538 2.322 . S
Ho2513 O2540 2.378 . S
Ho2513 O2541 2.524 . S
Ho2513 O2542 2.381 . S
Ho2513 O2543 2.669 . S
C2514 O2532 1.259 . S
C2514 O2533 1.268 . S
C2515 Ho2512 2.811 . S
C2515 C2516 1.488 . S
C2515 O2534 1.215 . S
C2515 O2535 1.289 . S
C2516 C2515 1.488 . S
C2516 C2517 1.339 1_455 S
C2516 C2521 1.413 . S
C2517 C2516 1.339 1_655 S
C2517 C2518 1.448 . S
C2517 H2544 0.933 . S
C2518 C2517 1.448 . S
C2518 C2519 1.381 . S
C2518 H2545 0.931 . S
C2519 C2518 1.381 . S
C2519 C2520 1.321 1_655 S
C2520 C2519 1.321 1_455 S
C2520 C2521 1.403 . S
C2520 H2546 0.934 . S
C2521 C2516 1.413 . S
C2521 C2520 1.403 . S
C2521 H2547 0.930 . S
C2522 O2536 1.275 . S
C2522 O2537 1.256 . S
C2523 O2538 1.259 . S
C2523 O2539 1.268 . S
C2524 Ho2513 2.811 . S
C2524 C2525 1.488 . S
C2524 O2540 1.215 . S
C2524 O2541 1.289 . S
C2525 C2524 1.488 . S
C2525 C2526 1.348 . S
C2525 C2530 1.413 . S
C2526 C2525 1.348 . S
C2526 C2527 1.442 . S
C2526 H2548 0.930 . S
C2527 C2526 1.442 . S
C2527 C2528 1.381 . S
C2527 H2549 0.931 . S
C2528 C2527 1.381 . S
C2528 C2529 1.321 . S
C2529 C2528 1.321 . S
C2529 C2530 1.403 . S
C2529 H2550 0.934 . S
C2530 C2525 1.413 . S
C2530 C2529 1.403 . S
C2530 H2551 0.930 . S
C2531 O2542 1.275 . S
C2531 O2543 1.256 . S
O2532 Ho2512 2.322 . S
O2532 C2514 1.259 . S
O2533 Ho2513 2.346 . S
O2533 C2514 1.268 . S
O2534 Ho2512 2.378 . S
O2534 C2515 1.215 . S
O2535 Ho2512 2.524 . S
O2535 C2515 1.289 . S
O2536 Ho2512 2.381 . S
O2536 C2522 1.275 . S
O2537 Ho2512 2.669 . S
O2537 Ho2513 2.305 . S
O2537 C2522 1.256 . S
O2538 Ho2513 2.322 . S
O2538 C2523 1.259 . S
O2539 Ho2512 2.346 . S
O2539 C2523 1.268 . S
O2540 Ho2513 2.378 . S
O2540 C2524 1.215 . S
O2541 Ho2513 2.524 . S
O2541 C2524 1.289 . S
O2542 Ho2513 2.381 . S
O2542 C2531 1.275 . S
O2543 Ho2512 2.305 . S
O2543 Ho2513 2.669 . S
O2543 C2531 1.256 . S
H2544 C2517 0.933 . S
H2545 C2518 0.931 . S
H2546 C2520 0.934 . S
H2547 C2521 0.930 . S
H2548 C2526 0.930 . S
H2549 C2527 0.931 . S
H2550 C2529 0.934 . S
H2551 C2530 0.930 . S
Ho2552 C2555 2.811 . S
Ho2552 O2572 2.322 . S
Ho2552 O2574 2.378 . S
Ho2552 O2575 2.524 . S
Ho2552 O2576 2.381 . S
Ho2552 O2577 2.669 . S
Ho2552 O2579 2.346 . S
Ho2552 O2583 2.305 . S
Ho2553 C2564 2.811 . S
Ho2553 O2573 2.346 . S
Ho2553 O2577 2.305 . S
Ho2553 O2578 2.322 . S
Ho2553 O2580 2.378 . S
Ho2553 O2581 2.524 . S
Ho2553 O2582 2.381 . S
Ho2553 O2583 2.669 . S
C2554 O2572 1.259 . S
C2554 O2573 1.268 . S
C2555 Ho2552 2.811 . S
C2555 C2556 1.488 . S
C2555 O2574 1.215 . S
C2555 O2575 1.289 . S
C2556 C2555 1.488 . S
C2556 C2557 1.348 . S
C2556 C2561 1.413 . S
C2557 C2556 1.348 . S
C2557 C2558 1.442 . S
C2557 H2584 0.930 . S
C2558 C2557 1.442 . S
C2558 C2559 1.381 . S
C2558 H2585 0.931 . S
C2559 C2558 1.381 . S
C2559 C2560 1.321 . S
C2560 C2559 1.321 . S
C2560 C2561 1.403 . S
C2560 H2586 0.934 . S
C2561 C2556 1.413 . S
C2561 C2560 1.403 . S
C2561 H2587 0.930 . S
C2562 O2576 1.275 . S
C2562 O2577 1.256 . S
C2563 O2578 1.259 . S
C2563 O2579 1.268 . S
C2564 Ho2553 2.811 . S
C2564 C2565 1.488 . S
C2564 O2580 1.215 . S
C2564 O2581 1.289 . S
C2565 C2564 1.488 . S
C2565 C2566 1.348 . S
C2565 C2570 1.413 . S
C2566 C2565 1.348 . S
C2566 C2567 1.442 . S
C2566 H2588 0.930 . S
C2567 C2566 1.442 . S
C2567 C2568 1.381 . S
C2567 H2589 0.931 . S
C2568 C2567 1.381 . S
C2568 C2569 1.321 . S
C2569 C2568 1.321 . S
C2569 C2570 1.403 . S
C2569 H2590 0.934 . S
C2570 C2565 1.413 . S
C2570 C2569 1.403 . S
C2570 H2591 0.930 . S
C2571 O2582 1.275 . S
C2571 O2583 1.256 . S
O2572 Ho2552 2.322 . S
O2572 C2554 1.259 . S
O2573 Ho2553 2.346 . S
O2573 C2554 1.268 . S
O2574 Ho2552 2.378 . S
O2574 C2555 1.215 . S
O2575 Ho2552 2.524 . S
O2575 C2555 1.289 . S
O2576 Ho2552 2.381 . S
O2576 C2562 1.275 . S
O2577 Ho2552 2.669 . S
O2577 Ho2553 2.305 . S
O2577 C2562 1.256 . S
O2578 Ho2553 2.322 . S
O2578 C2563 1.259 . S
O2579 Ho2552 2.346 . S
O2579 C2563 1.268 . S
O2580 Ho2553 2.378 . S
O2580 C2564 1.215 . S
O2581 Ho2553 2.524 . S
O2581 C2564 1.289 . S
O2582 Ho2553 2.381 . S
O2582 C2571 1.275 . S
O2583 Ho2552 2.305 . S
O2583 Ho2553 2.669 . S
O2583 C2571 1.256 . S
H2584 C2557 0.930 . S
H2585 C2558 0.931 . S
H2586 C2560 0.934 . S
H2587 C2561 0.930 . S
H2588 C2566 0.930 . S
H2589 C2567 0.931 . S
H2590 C2569 0.934 . S
H2591 C2570 0.930 . S
Ho2592 C2595 2.811 . S
Ho2592 O2612 2.322 . S
Ho2592 O2614 2.378 . S
Ho2592 O2615 2.524 . S
Ho2592 O2616 2.381 . S
Ho2592 O2617 2.669 . S
Ho2592 O2619 2.346 . S
Ho2592 O2623 2.305 . S
Ho2593 C2604 2.811 . S
Ho2593 O2613 2.346 . S
Ho2593 O2617 2.305 . S
Ho2593 O2618 2.322 . S
Ho2593 O2620 2.378 . S
Ho2593 O2621 2.524 . S
Ho2593 O2622 2.381 . S
Ho2593 O2623 2.669 . S
C2594 O2612 1.259 . S
C2594 O2613 1.268 . S
C2595 Ho2592 2.811 . S
C2595 C2596 1.488 . S
C2595 O2614 1.215 . S
C2595 O2615 1.289 . S
C2596 C2595 1.488 . S
C2596 C2597 1.348 . S
C2596 C2601 1.413 . S
C2597 C2596 1.348 . S
C2597 C2598 1.442 . S
C2597 H2624 0.930 . S
C2598 C2597 1.442 . S
C2598 C2599 1.381 . S
C2598 H2625 0.931 . S
C2599 C2598 1.381 . S
C2599 C2600 1.321 . S
C2600 C2599 1.321 . S
C2600 C2601 1.403 . S
C2600 H2626 0.934 . S
C2601 C2596 1.413 . S
C2601 C2600 1.403 . S
C2601 H2627 0.930 . S
C2602 O2616 1.275 . S
C2602 O2617 1.256 . S
C2603 O2618 1.259 . S
C2603 O2619 1.268 . S
C2604 Ho2593 2.811 . S
C2604 C2605 1.488 . S
C2604 O2620 1.215 . S
C2604 O2621 1.289 . S
C2605 C2604 1.488 . S
C2605 C2606 1.348 . S
C2605 C2610 1.413 . S
C2606 C2605 1.348 . S
C2606 C2607 1.442 . S
C2606 H2628 0.930 . S
C2607 C2606 1.442 . S
C2607 C2608 1.381 . S
C2607 H2629 0.931 . S
C2608 C2607 1.381 . S
C2608 C2609 1.321 . S
C2609 C2608 1.321 . S
C2609 C2610 1.403 . S
C2609 H2630 0.934 . S
C2610 C2605 1.413 . S
C2610 C2609 1.403 . S
C2610 H2631 0.930 . S
C2611 O2622 1.275 . S
C2611 O2623 1.256 . S
O2612 Ho2592 2.322 . S
O2612 C2594 1.259 . S
O2613 Ho2593 2.346 . S
O2613 C2594 1.268 . S
O2614 Ho2592 2.378 . S
O2614 C2595 1.215 . S
O2615 Ho2592 2.524 . S
O2615 C2595 1.289 . S
O2616 Ho2592 2.381 . S
O2616 C2602 1.275 . S
O2617 Ho2592 2.669 . S
O2617 Ho2593 2.305 . S
O2617 C2602 1.256 . S
O2618 Ho2593 2.322 . S
O2618 C2603 1.259 . S
O2619 Ho2592 2.346 . S
O2619 C2603 1.268 . S
O2620 Ho2593 2.378 . S
O2620 C2604 1.215 . S
O2621 Ho2593 2.524 . S
O2621 C2604 1.289 . S
O2622 Ho2593 2.381 . S
O2622 C2611 1.275 . S
O2623 Ho2592 2.305 . S
O2623 Ho2593 2.669 . S
O2623 C2611 1.256 . S
H2624 C2597 0.930 . S
H2625 C2598 0.931 . S
H2626 C2600 0.934 . S
H2627 C2601 0.930 . S
H2628 C2606 0.930 . S
H2629 C2607 0.931 . S
H2630 C2609 0.934 . S
H2631 C2610 0.930 . S
Ho2632 C2635 2.811 . S
Ho2632 O2652 2.322 . S
Ho2632 O2654 2.378 . S
Ho2632 O2655 2.524 . S
Ho2632 O2656 2.381 . S
Ho2632 O2657 2.669 . S
Ho2632 O2659 2.346 . S
Ho2632 O2663 2.305 . S
Ho2633 C2644 2.811 . S
Ho2633 O2653 2.346 . S
Ho2633 O2657 2.305 . S
Ho2633 O2658 2.322 . S
Ho2633 O2660 2.378 . S
Ho2633 O2661 2.524 . S
Ho2633 O2662 2.381 . S
Ho2633 O2663 2.669 . S
C2634 O2652 1.259 . S
C2634 O2653 1.268 . S
C2635 Ho2632 2.811 . S
C2635 C2636 1.488 . S
C2635 O2654 1.215 . S
C2635 O2655 1.289 . S
C2636 C2635 1.488 . S
C2636 C2637 1.348 . S
C2636 C2641 1.413 . S
C2637 C2636 1.348 . S
C2637 C2638 1.442 . S
C2637 H2664 0.930 . S
C2638 C2637 1.442 . S
C2638 C2639 1.381 . S
C2638 H2665 0.931 . S
C2639 C2638 1.381 . S
C2639 C2640 1.321 . S
C2640 C2639 1.321 . S
C2640 C2641 1.403 . S
C2640 H2666 0.934 . S
C2641 C2636 1.413 . S
C2641 C2640 1.403 . S
C2641 H2667 0.930 . S
C2642 O2656 1.275 . S
C2642 O2657 1.256 . S
C2643 O2658 1.259 . S
C2643 O2659 1.268 . S
C2644 Ho2633 2.811 . S
C2644 C2645 1.488 . S
C2644 O2660 1.215 . S
C2644 O2661 1.289 . S
C2645 C2644 1.488 . S
C2645 C2646 1.348 . S
C2645 C2650 1.413 . S
C2646 C2645 1.348 . S
C2646 C2647 1.442 . S
C2646 H2668 0.930 . S
C2647 C2646 1.442 . S
C2647 C2648 1.381 . S
C2647 H2669 0.931 . S
C2648 C2647 1.381 . S
C2648 C2649 1.321 . S
C2649 C2648 1.321 . S
C2649 C2650 1.403 . S
C2649 H2670 0.934 . S
C2650 C2645 1.413 . S
C2650 C2649 1.403 . S
C2650 H2671 0.930 . S
C2651 O2662 1.275 . S
C2651 O2663 1.256 . S
O2652 Ho2632 2.322 . S
O2652 C2634 1.259 . S
O2653 Ho2633 2.346 . S
O2653 C2634 1.268 . S
O2654 Ho2632 2.378 . S
O2654 C2635 1.215 . S
O2655 Ho2632 2.524 . S
O2655 C2635 1.289 . S
O2656 Ho2632 2.381 . S
O2656 C2642 1.275 . S
O2657 Ho2632 2.669 . S
O2657 Ho2633 2.305 . S
O2657 C2642 1.256 . S
O2658 Ho2633 2.322 . S
O2658 C2643 1.259 . S
O2659 Ho2632 2.346 . S
O2659 C2643 1.268 . S
O2660 Ho2633 2.378 . S
O2660 C2644 1.215 . S
O2661 Ho2633 2.524 . S
O2661 C2644 1.289 . S
O2662 Ho2633 2.381 . S
O2662 C2651 1.275 . S
O2663 Ho2632 2.305 . S
O2663 Ho2633 2.669 . S
O2663 C2651 1.256 . S
H2664 C2637 0.930 . S
H2665 C2638 0.931 . S
H2666 C2640 0.934 . S
H2667 C2641 0.930 . S
H2668 C2646 0.930 . S
H2669 C2647 0.931 . S
H2670 C2649 0.934 . S
H2671 C2650 0.930 . S
Ho2672 C2675 2.811 . S
Ho2672 O2692 2.322 . S
Ho2672 O2694 2.378 . S
Ho2672 O2695 2.524 . S
Ho2672 O2696 2.381 . S
Ho2672 O2697 2.669 . S
Ho2672 O2699 2.346 . S
Ho2672 O2703 2.305 . S
Ho2673 C2684 2.811 . S
Ho2673 O2693 2.346 . S
Ho2673 O2697 2.305 . S
Ho2673 O2698 2.322 . S
Ho2673 O2700 2.378 . S
Ho2673 O2701 2.524 . S
Ho2673 O2702 2.381 . S
Ho2673 O2703 2.669 . S
C2674 O2692 1.259 . S
C2674 O2693 1.268 . S
C2675 Ho2672 2.811 . S
C2675 C2676 1.488 . S
C2675 O2694 1.215 . S
C2675 O2695 1.289 . S
C2676 C2675 1.488 . S
C2676 C2677 1.348 . S
C2676 C2681 1.413 . S
C2677 C2676 1.348 . S
C2677 C2678 1.442 . S
C2677 H2704 0.930 . S
C2678 C2677 1.442 . S
C2678 C2679 1.381 . S
C2678 H2705 0.931 . S
C2679 C2678 1.381 . S
C2679 C2680 1.321 . S
C2680 C2679 1.321 . S
C2680 C2681 1.403 . S
C2680 H2706 0.934 . S
C2681 C2676 1.413 . S
C2681 C2680 1.403 . S
C2681 H2707 0.930 . S
C2682 O2696 1.275 . S
C2682 O2697 1.256 . S
C2683 O2698 1.259 . S
C2683 O2699 1.268 . S
C2684 Ho2673 2.811 . S
C2684 C2685 1.488 . S
C2684 O2700 1.215 . S
C2684 O2701 1.289 . S
C2685 C2684 1.488 . S
C2685 C2686 1.348 . S
C2685 C2690 1.413 . S
C2686 C2685 1.348 . S
C2686 C2687 1.442 . S
C2686 H2708 0.930 . S
C2687 C2686 1.442 . S
C2687 C2688 1.381 . S
C2687 H2709 0.931 . S
C2688 C2687 1.381 . S
C2688 C2689 1.321 . S
C2689 C2688 1.321 . S
C2689 C2690 1.403 . S
C2689 H2710 0.934 . S
C2690 C2685 1.413 . S
C2690 C2689 1.403 . S
C2690 H2711 0.930 . S
C2691 O2702 1.275 . S
C2691 O2703 1.256 . S
O2692 Ho2672 2.322 . S
O2692 C2674 1.259 . S
O2693 Ho2673 2.346 . S
O2693 C2674 1.268 . S
O2694 Ho2672 2.378 . S
O2694 C2675 1.215 . S
O2695 Ho2672 2.524 . S
O2695 C2675 1.289 . S
O2696 Ho2672 2.381 . S
O2696 C2682 1.275 . S
O2697 Ho2672 2.669 . S
O2697 Ho2673 2.305 . S
O2697 C2682 1.256 . S
O2698 Ho2673 2.322 . S
O2698 C2683 1.259 . S
O2699 Ho2672 2.346 . S
O2699 C2683 1.268 . S
O2700 Ho2673 2.378 . S
O2700 C2684 1.215 . S
O2701 Ho2673 2.524 . S
O2701 C2684 1.289 . S
O2702 Ho2673 2.381 . S
O2702 C2691 1.275 . S
O2703 Ho2672 2.305 . S
O2703 Ho2673 2.669 . S
O2703 C2691 1.256 . S
H2704 C2677 0.930 . S
H2705 C2678 0.931 . S
H2706 C2680 0.934 . S
H2707 C2681 0.930 . S
H2708 C2686 0.930 . S
H2709 C2687 0.931 . S
H2710 C2689 0.934 . S
H2711 C2690 0.930 . S
Ho2712 C2715 2.811 1_554 S
Ho2712 O2732 2.322 1_554 S
Ho2712 O2734 2.378 1_554 S
Ho2712 O2735 2.524 . S
Ho2712 O2736 2.381 1_554 S
Ho2712 O2737 2.669 1_554 S
Ho2712 O2739 2.346 . S
Ho2712 O2743 2.305 . S
Ho2713 C2724 2.811 1_455 S
Ho2713 O2733 2.346 . S
Ho2713 O2737 2.305 1_554 S
Ho2713 O2738 2.322 . S
Ho2713 O2740 2.378 1_455 S
Ho2713 O2741 2.524 1_455 S
Ho2713 O2742 2.381 . S
Ho2713 O2743 2.669 . S
C2714 O2732 1.259 1_554 S
C2714 O2733 1.268 . S
C2715 Ho2712 2.811 1_556 S
C2715 C2716 1.488 . S
C2715 O2734 1.215 . S
C2715 O2735 1.289 1_556 S
C2716 C2715 1.488 . S
C2716 C2717 1.348 1_556 S
C2716 C2721 1.413 . S
C2717 C2716 1.348 1_554 S
C2717 C2718 1.453 . S
C2717 H2744 0.930 . S
C2718 C2717 1.453 . S
C2718 C2719 1.323 1_554 S
C2718 H2745 0.978 . S
C2719 C2718 1.323 1_556 S
C2719 C2720 1.321 . S
C2720 C2719 1.321 . S
C2720 C2721 1.403 . S
C2720 H2746 0.934 . S
C2721 C2716 1.413 . S
C2721 C2720 1.403 . S
C2721 H2747 0.930 . S
C2722 O2736 1.275 . S
C2722 O2737 1.256 . S
C2723 O2738 1.259 . S
C2723 O2739 1.268 . S
C2724 Ho2713 2.811 1_655 S
C2724 C2725 1.488 . S
C2724 O2740 1.215 . S
C2724 O2741 1.289 . S
C2725 C2724 1.488 . S
C2725 C2726 1.348 . S
C2725 C2730 1.413 . S
C2726 C2725 1.348 . S
C2726 C2727 1.442 . S
C2726 H2748 0.930 . S
C2727 C2726 1.442 . S
C2727 C2728 1.381 . S
C2727 H2749 0.931 . S
C2728 C2727 1.381 . S
C2728 C2729 1.321 . S
C2729 C2728 1.321 . S
C2729 C2730 1.403 . S
C2729 H2750 0.934 . S
C2730 C2725 1.413 . S
C2730 C2729 1.403 . S
C2730 H2751 0.930 . S
C2731 O2742 1.275 . S
C2731 O2743 1.256 . S
O2732 Ho2712 2.322 1_556 S
O2732 C2714 1.259 1_556 S
O2733 Ho2713 2.346 . S
O2733 C2714 1.268 . S
O2734 Ho2712 2.378 1_556 S
O2734 C2715 1.215 . S
O2735 Ho2712 2.524 . S
O2735 C2715 1.289 1_554 S
O2736 Ho2712 2.381 1_556 S
O2736 C2722 1.275 . S
O2737 Ho2712 2.669 1_556 S
O2737 Ho2713 2.305 1_556 S
O2737 C2722 1.256 . S
O2738 Ho2713 2.322 . S
O2738 C2723 1.259 . S
O2739 Ho2712 2.346 . S
O2739 C2723 1.268 . S
O2740 Ho2713 2.378 1_655 S
O2740 C2724 1.215 . S
O2741 Ho2713 2.524 1_655 S
O2741 C2724 1.289 . S
O2742 Ho2713 2.381 . S
O2742 C2731 1.275 . S
O2743 Ho2712 2.305 . S
O2743 Ho2713 2.669 . S
O2743 C2731 1.256 . S
H2744 C2717 0.930 . S
H2745 C2718 0.978 . S
H2746 C2720 0.934 . S
H2747 C2721 0.930 . S
H2748 C2726 0.930 . S
H2749 C2727 0.931 . S
H2750 C2729 0.934 . S
H2751 C2730 0.930 . S
C2752 C2753 1.391 . S
C2752 C2754 1.394 . S
C2752 H2768 0.931 . S
C2753 C2752 1.391 . S
C2753 C2757 1.376 1_455 S
C2754 C2752 1.394 . S
C2754 C2755 1.369 . S
C2754 C2758 1.531 1_556 S
C2755 C2754 1.369 . S
C2755 C2756 1.410 . S
C2755 C2763 1.503 . S
C2756 C2755 1.410 . S
C2756 C2757 1.392 1_455 S
C2756 C2759 1.511 1_455 S
C2757 C2753 1.376 1_655 S
C2757 C2756 1.392 1_655 S
C2757 H2769 0.929 . S
C2758 C2754 1.531 1_554 S
C2758 H2770 0.960 . S
C2758 H2771 0.990 . S
C2758 H2772 0.960 . S
C2759 C2756 1.511 1_655 S
C2759 H2773 0.961 . S
C2759 H2774 0.961 . S
C2759 H2775 0.961 . S
C2760 C2761 1.378 . S
C2760 C2762 1.363 . S
C2760 H2776 0.931 . S
C2761 C2760 1.378 . S
C2761 C2765 1.403 1_556 S
C2762 C2760 1.363 . S
C2762 C2763 1.370 . S
C2762 C2766 1.524 . S
C2763 C2755 1.503 . S
C2763 C2762 1.370 . S
C2763 C2764 1.403 1_556 S
C2764 C2763 1.403 1_554 S
C2764 C2765 1.404 . S
C2764 C2767 1.539 . S
C2765 C2761 1.403 1_554 S
C2765 C2764 1.404 . S
C2765 H2777 0.930 . S
C2766 C2762 1.524 . S
C2766 H2778 0.956 . S
C2766 H2779 0.961 . S
C2766 H2780 0.961 . S
C2767 C2764 1.539 . S
C2767 H2781 0.958 . S
C2767 H2782 0.961 1_455 S
C2767 H2783 0.960 1_455 S
H2768 C2752 0.931 . S
H2769 C2757 0.929 . S
H2770 C2758 0.960 . S
H2771 C2758 0.990 . S
H2772 C2758 0.960 . S
H2773 C2759 0.961 . S
H2774 C2759 0.961 . S
H2775 C2759 0.961 . S
H2776 C2760 0.931 . S
H2777 C2765 0.930 . S
H2778 C2766 0.956 . S
H2779 C2766 0.961 . S
H2780 C2766 0.961 . S
H2781 C2767 0.958 . S
H2782 C2767 0.961 1_655 S
H2783 C2767 0.960 1_655 S
C2784 C2785 1.391 . S
C2784 C2786 1.394 . S
C2784 H2800 0.931 . S
C2785 C2784 1.391 . S
C2785 C2789 1.376 . S
C2786 C2784 1.394 . S
C2786 C2787 1.369 . S
C2786 C2790 1.531 . S
C2787 C2786 1.369 . S
C2787 C2788 1.410 . S
C2787 C2795 1.503 . S
C2788 C2787 1.410 . S
C2788 C2789 1.392 . S
C2788 C2791 1.511 . S
C2789 C2785 1.376 . S
C2789 C2788 1.392 . S
C2789 H2801 0.929 . S
C2790 C2786 1.531 . S
C2790 H2802 0.960 . S
C2790 H2803 0.962 . S
C2790 H2804 0.960 . S
C2791 C2788 1.511 . S
C2791 H2805 0.961 . S
C2791 H2806 0.961 . S
C2791 H2807 0.961 . S
C2792 C2793 1.370 . S
C2792 C2794 1.363 . S
C2792 H2808 0.931 . S
C2793 C2792 1.370 . S
C2793 C2797 1.408 . S
C2794 C2792 1.363 . S
C2794 C2795 1.370 . S
C2794 C2798 1.524 . S
C2795 C2787 1.503 . S
C2795 C2794 1.370 . S
C2795 C2796 1.403 . S
C2796 C2795 1.403 . S
C2796 C2797 1.404 . S
C2796 C2799 1.539 . S
C2797 C2793 1.408 . S
C2797 C2796 1.404 . S
C2797 H2809 0.930 . S
C2798 C2794 1.524 . S
C2798 H2810 0.956 . S
C2798 H2811 0.961 . S
C2798 H2812 0.961 . S
C2799 C2796 1.539 . S
C2799 H2813 0.958 . S
C2799 H2814 0.961 . S
C2799 H2815 0.960 . S
H2800 C2784 0.931 . S
H2801 C2789 0.929 . S
H2802 C2790 0.960 . S
H2803 C2790 0.962 . S
H2804 C2790 0.960 . S
H2805 C2791 0.961 . S
H2806 C2791 0.961 . S
H2807 C2791 0.961 . S
H2808 C2792 0.931 . S
H2809 C2797 0.930 . S
H2810 C2798 0.956 . S
H2811 C2798 0.961 . S
H2812 C2798 0.961 . S
H2813 C2799 0.958 . S
H2814 C2799 0.961 . S
H2815 C2799 0.960 . S
C2816 C2817 1.391 . S
C2816 C2818 1.394 . S
C2816 H2832 0.931 . S
C2817 C2816 1.391 . S
C2817 C2821 1.376 . S
C2818 C2816 1.394 . S
C2818 C2819 1.369 . S
C2818 C2822 1.531 . S
C2819 C2818 1.369 . S
C2819 C2820 1.410 . S
C2819 C2827 1.503 . S
C2820 C2819 1.410 . S
C2820 C2821 1.392 . S
C2820 C2823 1.511 . S
C2821 C2817 1.376 . S
C2821 C2820 1.392 . S
C2821 H2833 0.929 . S
C2822 C2818 1.531 . S
C2822 H2834 0.960 . S
C2822 H2835 0.962 . S
C2822 H2836 0.960 . S
C2823 C2820 1.511 . S
C2823 H2837 0.961 . S
C2823 H2838 0.961 . S
C2823 H2839 0.961 . S
C2824 C2825 1.370 . S
C2824 C2826 1.363 . S
C2824 H2840 0.931 . S
C2825 C2824 1.370 . S
C2825 C2829 1.408 . S
C2826 C2824 1.363 . S
C2826 C2827 1.370 . S
C2826 C2830 1.524 . S
C2827 C2819 1.503 . S
C2827 C2826 1.370 . S
C2827 C2828 1.403 . S
C2828 C2827 1.403 . S
C2828 C2829 1.404 . S
C2828 C2831 1.539 . S
C2829 C2825 1.408 . S
C2829 C2828 1.404 . S
C2829 H2841 0.930 . S
C2830 C2826 1.524 . S
C2830 H2842 0.956 . S
C2830 H2843 0.961 . S
C2830 H2844 0.961 . S
C2831 C2828 1.539 . S
C2831 H2845 0.958 . S
C2831 H2846 0.961 . S
C2831 H2847 0.960 . S
H2832 C2816 0.931 . S
H2833 C2821 0.929 . S
H2834 C2822 0.960 . S
H2835 C2822 0.962 . S
H2836 C2822 0.960 . S
H2837 C2823 0.961 . S
H2838 C2823 0.961 . S
H2839 C2823 0.961 . S
H2840 C2824 0.931 . S
H2841 C2829 0.930 . S
H2842 C2830 0.956 . S
H2843 C2830 0.961 . S
H2844 C2830 0.961 . S
H2845 C2831 0.958 . S
H2846 C2831 0.961 . S
H2847 C2831 0.960 . S
C2848 C2849 1.391 . S
C2848 C2850 1.394 . S
C2848 H2864 0.931 . S
C2849 C2848 1.391 . S
C2849 C2853 1.376 . S
C2850 C2848 1.394 . S
C2850 C2851 1.369 . S
C2850 C2854 1.531 . S
C2851 C2850 1.369 . S
C2851 C2852 1.410 . S
C2851 C2859 1.503 . S
C2852 C2851 1.410 . S
C2852 C2853 1.392 . S
C2852 C2855 1.511 . S
C2853 C2849 1.376 . S
C2853 C2852 1.392 . S
C2853 H2865 0.929 . S
C2854 C2850 1.531 . S
C2854 H2866 0.960 . S
C2854 H2867 0.962 . S
C2854 H2868 0.960 . S
C2855 C2852 1.511 . S
C2855 H2869 0.961 . S
C2855 H2870 0.961 . S
C2855 H2871 0.961 . S
C2856 C2857 1.370 . S
C2856 C2858 1.363 . S
C2856 H2872 0.931 . S
C2857 C2856 1.370 . S
C2857 C2861 1.408 . S
C2858 C2856 1.363 . S
C2858 C2859 1.370 . S
C2858 C2862 1.524 . S
C2859 C2851 1.503 . S
C2859 C2858 1.370 . S
C2859 C2860 1.403 . S
C2860 C2859 1.403 . S
C2860 C2861 1.404 . S
C2860 C2863 1.539 . S
C2861 C2857 1.408 . S
C2861 C2860 1.404 . S
C2861 H2873 0.930 . S
C2862 C2858 1.524 . S
C2862 H2874 0.956 . S
C2862 H2875 0.961 . S
C2862 H2876 0.961 . S
C2863 C2860 1.539 . S
C2863 H2877 0.958 . S
C2863 H2878 0.961 . S
C2863 H2879 0.960 . S
H2864 C2848 0.931 . S
H2865 C2853 0.929 . S
H2866 C2854 0.960 . S
H2867 C2854 0.962 . S
H2868 C2854 0.960 . S
H2869 C2855 0.961 . S
H2870 C2855 0.961 . S
H2871 C2855 0.961 . S
H2872 C2856 0.931 . S
H2873 C2861 0.930 . S
H2874 C2862 0.956 . S
H2875 C2862 0.961 . S
H2876 C2862 0.961 . S
H2877 C2863 0.958 . S
H2878 C2863 0.961 . S
H2879 C2863 0.960 . S
C2880 C2881 1.391 . S
C2880 C2882 1.394 . S
C2880 H2896 0.931 . S
C2881 C2880 1.391 . S
C2881 C2885 1.376 . S
C2882 C2880 1.394 . S
C2882 C2883 1.369 . S
C2882 C2886 1.531 . S
C2883 C2882 1.369 . S
C2883 C2884 1.410 . S
C2883 C2891 1.503 . S
C2884 C2883 1.410 . S
C2884 C2885 1.392 . S
C2884 C2887 1.511 . S
C2885 C2881 1.376 . S
C2885 C2884 1.392 . S
C2885 H2897 0.929 . S
C2886 C2882 1.531 . S
C2886 H2898 0.960 . S
C2886 H2899 0.962 . S
C2886 H2900 0.960 . S
C2887 C2884 1.511 . S
C2887 H2901 0.961 . S
C2887 H2902 0.961 . S
C2887 H2903 0.961 . S
C2888 C2889 1.370 . S
C2888 C2890 1.363 . S
C2888 H2904 0.931 . S
C2889 C2888 1.370 . S
C2889 C2893 1.408 . S
C2890 C2888 1.363 . S
C2890 C2891 1.370 . S
C2890 C2894 1.524 . S
C2891 C2883 1.503 . S
C2891 C2890 1.370 . S
C2891 C2892 1.403 . S
C2892 C2891 1.403 . S
C2892 C2893 1.404 . S
C2892 C2895 1.539 . S
C2893 C2889 1.408 . S
C2893 C2892 1.404 . S
C2893 H2905 0.930 . S
C2894 C2890 1.524 . S
C2894 H2906 0.956 . S
C2894 H2907 0.961 . S
C2894 H2908 0.961 . S
C2895 C2892 1.539 . S
C2895 H2909 0.958 . S
C2895 H2910 0.961 . S
C2895 H2911 0.960 . S
H2896 C2880 0.931 . S
H2897 C2885 0.929 . S
H2898 C2886 0.960 . S
H2899 C2886 0.962 . S
H2900 C2886 0.960 . S
H2901 C2887 0.961 . S
H2902 C2887 0.961 . S
H2903 C2887 0.961 . S
H2904 C2888 0.931 . S
H2905 C2893 0.930 . S
H2906 C2894 0.956 . S
H2907 C2894 0.961 . S
H2908 C2894 0.961 . S
H2909 C2895 0.958 . S
H2910 C2895 0.961 . S
H2911 C2895 0.960 . S
C2912 C2913 1.391 . S
C2912 C2914 1.394 . S
C2912 H2928 0.931 . S
C2913 C2912 1.391 . S
C2913 C2917 1.376 . S
C2914 C2912 1.394 . S
C2914 C2915 1.369 . S
C2914 C2918 1.531 . S
C2915 C2914 1.369 . S
C2915 C2916 1.410 . S
C2915 C2923 1.503 . S
C2916 C2915 1.410 . S
C2916 C2917 1.392 . S
C2916 C2919 1.511 . S
C2917 C2913 1.376 . S
C2917 C2916 1.392 . S
C2917 H2929 0.929 . S
C2918 C2914 1.531 . S
C2918 H2930 0.960 . S
C2918 H2931 0.962 . S
C2918 H2932 0.960 . S
C2919 C2916 1.511 . S
C2919 H2933 0.961 . S
C2919 H2934 0.961 . S
C2919 H2935 0.961 . S
C2920 C2921 1.370 . S
C2920 C2922 1.363 . S
C2920 H2936 0.931 . S
C2921 C2920 1.370 . S
C2921 C2925 1.408 . S
C2922 C2920 1.363 . S
C2922 C2923 1.370 . S
C2922 C2926 1.524 . S
C2923 C2915 1.503 . S
C2923 C2922 1.370 . S
C2923 C2924 1.403 . S
C2924 C2923 1.403 . S
C2924 C2925 1.404 . S
C2924 C2927 1.539 . S
C2925 C2921 1.408 . S
C2925 C2924 1.404 . S
C2925 H2937 0.930 . S
C2926 C2922 1.524 . S
C2926 H2938 0.956 . S
C2926 H2939 0.961 . S
C2926 H2940 0.961 . S
C2927 C2924 1.539 . S
C2927 H2941 0.958 . S
C2927 H2942 0.961 . S
C2927 H2943 0.960 . S
H2928 C2912 0.931 . S
H2929 C2917 0.929 . S
H2930 C2918 0.960 . S
H2931 C2918 0.962 . S
H2932 C2918 0.960 . S
H2933 C2919 0.961 . S
H2934 C2919 0.961 . S
H2935 C2919 0.961 . S
H2936 C2920 0.931 . S
H2937 C2925 0.930 . S
H2938 C2926 0.956 . S
H2939 C2926 0.961 . S
H2940 C2926 0.961 . S
H2941 C2927 0.958 . S
H2942 C2927 0.961 . S
H2943 C2927 0.960 . S
C2944 C2945 1.391 . S
C2944 C2946 1.394 . S
C2944 H2960 0.931 . S
C2945 C2944 1.391 . S
C2945 C2949 1.376 . S
C2946 C2944 1.394 . S
C2946 C2947 1.369 . S
C2946 C2950 1.531 . S
C2947 C2946 1.369 . S
C2947 C2948 1.410 . S
C2947 C2955 1.503 . S
C2948 C2947 1.410 . S
C2948 C2949 1.392 . S
C2948 C2951 1.511 . S
C2949 C2945 1.376 . S
C2949 C2948 1.392 . S
C2949 H2961 0.929 . S
C2950 C2946 1.531 . S
C2950 H2962 0.960 . S
C2950 H2963 0.962 . S
C2950 H2964 0.960 . S
C2951 C2948 1.511 . S
C2951 H2965 0.961 . S
C2951 H2966 0.961 . S
C2951 H2967 0.961 . S
C2952 C2953 1.370 . S
C2952 C2954 1.363 . S
C2952 H2968 0.931 . S
C2953 C2952 1.370 . S
C2953 C2957 1.408 . S
C2954 C2952 1.363 . S
C2954 C2955 1.370 . S
C2954 C2958 1.524 . S
C2955 C2947 1.503 . S
C2955 C2954 1.370 . S
C2955 C2956 1.403 . S
C2956 C2955 1.403 . S
C2956 C2957 1.404 . S
C2956 C2959 1.539 . S
C2957 C2953 1.408 . S
C2957 C2956 1.404 . S
C2957 H2969 0.930 . S
C2958 C2954 1.524 . S
C2958 H2970 0.956 . S
C2958 H2971 0.961 . S
C2958 H2972 0.961 . S
C2959 C2956 1.539 . S
C2959 H2973 0.958 . S
C2959 H2974 0.961 . S
C2959 H2975 0.960 . S
H2960 C2944 0.931 . S
H2961 C2949 0.929 . S
H2962 C2950 0.960 . S
H2963 C2950 0.962 . S
H2964 C2950 0.960 . S
H2965 C2951 0.961 . S
H2966 C2951 0.961 . S
H2967 C2951 0.961 . S
H2968 C2952 0.931 . S
H2969 C2957 0.930 . S
H2970 C2958 0.956 . S
H2971 C2958 0.961 . S
H2972 C2958 0.961 . S
H2973 C2959 0.958 . S
H2974 C2959 0.961 . S
H2975 C2959 0.960 . S
C2976 C2977 1.391 . S
C2976 C2978 1.394 . S
C2976 H2992 0.931 . S
C2977 C2976 1.391 . S
C2977 C2981 1.376 . S
C2978 C2976 1.394 . S
C2978 C2979 1.369 . S
C2978 C2982 1.531 . S
C2979 C2978 1.369 . S
C2979 C2980 1.410 . S
C2979 C2987 1.503 . S
C2980 C2979 1.410 . S
C2980 C2981 1.392 . S
C2980 C2983 1.511 . S
C2981 C2977 1.376 . S
C2981 C2980 1.392 . S
C2981 H2993 0.929 . S
C2982 C2978 1.531 . S
C2982 H2994 0.960 . S
C2982 H2995 0.962 . S
C2982 H2996 0.960 . S
C2983 C2980 1.511 . S
C2983 H2997 0.961 . S
C2983 H2998 0.961 . S
C2983 H2999 0.961 . S
C2984 C2985 1.370 . S
C2984 C2986 1.363 . S
C2984 H3000 0.931 . S
C2985 C2984 1.370 . S
C2985 C2989 1.408 . S
C2986 C2984 1.363 . S
C2986 C2987 1.370 . S
C2986 C2990 1.524 . S
C2987 C2979 1.503 . S
C2987 C2986 1.370 . S
C2987 C2988 1.403 . S
C2988 C2987 1.403 . S
C2988 C2989 1.404 . S
C2988 C2991 1.539 . S
C2989 C2985 1.408 . S
C2989 C2988 1.404 . S
C2989 H3001 0.930 . S
C2990 C2986 1.524 . S
C2990 H3002 0.956 . S
C2990 H3003 0.961 . S
C2990 H3004 0.961 . S
C2991 C2988 1.539 . S
C2991 H3005 0.958 . S
C2991 H3006 0.961 . S
C2991 H3007 0.960 . S
H2992 C2976 0.931 . S
H2993 C2981 0.929 . S
H2994 C2982 0.960 . S
H2995 C2982 0.962 . S
H2996 C2982 0.960 . S
H2997 C2983 0.961 . S
H2998 C2983 0.961 . S
H2999 C2983 0.961 . S
H3000 C2984 0.931 . S
H3001 C2989 0.930 . S
H3002 C2990 0.956 . S
H3003 C2990 0.961 . S
H3004 C2990 0.961 . S
H3005 C2991 0.958 . S
H3006 C2991 0.961 . S
H3007 C2991 0.960 . S
C3008 C3009 1.391 1_455 S
C3008 C3010 1.394 . S
C3008 H3024 0.931 . S
C3009 C3008 1.391 1_655 S
C3009 C3013 1.376 . S
C3010 C3008 1.394 . S
C3010 C3011 1.369 . S
C3010 C3014 1.531 . S
C3011 C3010 1.369 . S
C3011 C3012 1.410 1_455 S
C3011 C3019 1.503 . S
C3012 C3011 1.410 1_655 S
C3012 C3013 1.392 . S
C3012 C3015 1.511 . S
C3013 C3009 1.376 . S
C3013 C3012 1.392 . S
C3013 H3025 0.929 . S
C3014 C3010 1.531 . S
C3014 H3026 0.960 . S
C3014 H3027 0.962 . S
C3014 H3028 0.960 . S
C3015 C3012 1.511 . S
C3015 H3029 0.961 . S
C3015 H3030 0.961 . S
C3015 H3031 0.961 . S
C3016 C3017 1.370 . S
C3016 C3018 1.363 . S
C3016 H3032 0.931 . S
C3017 C3016 1.370 . S
C3017 C3021 1.408 . S
C3018 C3016 1.363 . S
C3018 C3019 1.370 . S
C3018 C3022 1.524 . S
C3019 C3011 1.503 . S
C3019 C3018 1.370 . S
C3019 C3020 1.403 . S
C3020 C3019 1.403 . S
C3020 C3021 1.404 . S
C3020 C3023 1.539 1_455 S
C3021 C3017 1.408 . S
C3021 C3020 1.404 . S
C3021 H3033 0.930 . S
C3022 C3018 1.524 . S
C3022 H3034 0.956 . S
C3022 H3035 0.961 . S
C3022 H3036 0.961 . S
C3023 C3020 1.539 1_655 S
C3023 H3037 0.958 1_655 S
C3023 H3038 0.935 1_545 S
C3023 H3039 0.960 . S
H3024 C3008 0.931 . S
H3025 C3013 0.929 . S
H3026 C3014 0.960 . S
H3027 C3014 0.962 . S
H3028 C3014 0.960 . S
H3029 C3015 0.961 . S
H3030 C3015 0.961 . S
H3031 C3015 0.961 . S
H3032 C3016 0.931 . S
H3033 C3021 0.930 . S
H3034 C3022 0.956 . S
H3035 C3022 0.961 . S
H3036 C3022 0.961 . S
H3037 C3023 0.958 1_455 S
H3038 C3023 0.935 1_565 S
H3039 C3023 0.960 . S
C3040 C3041 1.391 . S
C3040 C3042 1.394 . S
C3040 H3056 0.931 . S
C3041 C3040 1.391 . S
C3041 C3045 1.376 . S
C3042 C3040 1.394 . S
C3042 C3043 1.369 . S
C3042 C3046 1.531 . S
C3043 C3042 1.369 . S
C3043 C3044 1.410 . S
C3043 C3051 1.503 . S
C3044 C3043 1.410 . S
C3044 C3045 1.392 . S
C3044 C3047 1.511 . S
C3045 C3041 1.376 . S
C3045 C3044 1.392 . S
C3045 H3057 0.929 . S
C3046 C3042 1.531 . S
C3046 H3058 0.960 . S
C3046 H3059 0.962 . S
C3046 H3060 0.960 . S
C3047 C3044 1.511 . S
C3047 H3061 0.961 . S
C3047 H3062 0.961 . S
C3047 H3063 0.961 . S
C3048 C3049 1.370 . S
C3048 C3050 1.363 . S
C3048 H3064 0.931 . S
C3049 C3048 1.370 . S
C3049 C3053 1.408 . S
C3050 C3048 1.363 . S
C3050 C3051 1.370 . S
C3050 C3054 1.524 . S
C3051 C3043 1.503 . S
C3051 C3050 1.370 . S
C3051 C3052 1.403 . S
C3052 C3051 1.403 . S
C3052 C3053 1.404 . S
C3052 C3055 1.539 . S
C3053 C3049 1.408 . S
C3053 C3052 1.404 . S
C3053 H3065 0.930 . S
C3054 C3050 1.524 . S
C3054 H3066 0.956 . S
C3054 H3067 0.961 . S
C3054 H3068 0.961 . S
C3055 C3052 1.539 . S
C3055 H3069 0.958 . S
C3055 H3070 0.961 . S
C3055 H3071 0.960 . S
H3056 C3040 0.931 . S
H3057 C3045 0.929 . S
H3058 C3046 0.960 . S
H3059 C3046 0.962 . S
H3060 C3046 0.960 . S
H3061 C3047 0.961 . S
H3062 C3047 0.961 . S
H3063 C3047 0.961 . S
H3064 C3048 0.931 . S
H3065 C3053 0.930 . S
H3066 C3054 0.956 . S
H3067 C3054 0.961 . S
H3068 C3054 0.961 . S
H3069 C3055 0.958 . S
H3070 C3055 0.961 . S
H3071 C3055 0.960 . S
C3072 C3073 1.391 . S
C3072 C3074 1.394 . S
C3072 H3088 0.931 . S
C3073 C3072 1.391 . S
C3073 C3077 1.376 . S
C3074 C3072 1.394 . S
C3074 C3075 1.369 . S
C3074 C3078 1.531 . S
C3075 C3074 1.369 . S
C3075 C3076 1.410 . S
C3075 C3083 1.503 . S
C3076 C3075 1.410 . S
C3076 C3077 1.392 . S
C3076 C3079 1.511 . S
C3077 C3073 1.376 . S
C3077 C3076 1.392 . S
C3077 H3089 0.929 . S
C3078 C3074 1.531 . S
C3078 H3090 0.960 . S
C3078 H3091 0.962 . S
C3078 H3092 0.960 . S
C3079 C3076 1.511 . S
C3079 H3093 0.961 . S
C3079 H3094 0.961 . S
C3079 H3095 0.961 . S
C3080 C3081 1.370 . S
C3080 C3082 1.363 . S
C3080 H3096 0.931 . S
C3081 C3080 1.370 . S
C3081 C3085 1.408 . S
C3082 C3080 1.363 . S
C3082 C3083 1.370 . S
C3082 C3086 1.524 . S
C3083 C3075 1.503 . S
C3083 C3082 1.370 . S
C3083 C3084 1.403 . S
C3084 C3083 1.403 . S
C3084 C3085 1.404 . S
C3084 C3087 1.539 1_545 S
C3085 C3081 1.408 . S
C3085 C3084 1.404 . S
C3085 H3097 0.918 1_545 S
C3086 C3082 1.524 . S
C3086 H3098 0.956 . S
C3086 H3099 0.961 . S
C3086 H3100 0.961 . S
C3087 C3084 1.539 1_565 S
C3087 H3101 0.958 . S
C3087 H3102 0.961 . S
C3087 H3103 0.960 . S
H3088 C3072 0.931 . S
H3089 C3077 0.929 . S
H3090 C3078 0.960 . S
H3091 C3078 0.962 . S
H3092 C3078 0.960 . S
H3093 C3079 0.961 . S
H3094 C3079 0.961 . S
H3095 C3079 0.961 . S
H3096 C3080 0.931 . S
H3097 C3085 0.918 1_565 S
H3098 C3086 0.956 . S
H3099 C3086 0.961 . S
H3100 C3086 0.961 . S
H3101 C3087 0.958 . S
H3102 C3087 0.961 . S
H3103 C3087 0.960 . S
C3104 C3105 1.391 . S
C3104 C3106 1.394 . S
C3104 H3120 0.931 . S
C3105 C3104 1.391 . S
C3105 C3109 1.376 . S
C3106 C3104 1.394 . S
C3106 C3107 1.369 . S
C3106 C3110 1.531 . S
C3107 C3106 1.369 . S
C3107 C3108 1.410 . S
C3107 C3115 1.503 . S
C3108 C3107 1.410 . S
C3108 C3109 1.392 . S
C3108 C3111 1.511 . S
C3109 C3105 1.376 . S
C3109 C3108 1.392 . S
C3109 H3121 0.929 . S
C3110 C3106 1.531 . S
C3110 H3122 0.960 . S
C3110 H3123 0.962 . S
C3110 H3124 0.960 . S
C3111 C3108 1.511 . S
C3111 H3125 0.961 . S
C3111 H3126 0.961 . S
C3111 H3127 0.961 . S
C3112 C3113 1.370 . S
C3112 C3114 1.363 . S
C3112 H3128 0.931 . S
C3113 C3112 1.370 . S
C3113 C3117 1.408 . S
C3114 C3112 1.363 . S
C3114 C3115 1.370 . S
C3114 C3118 1.524 . S
C3115 C3107 1.503 . S
C3115 C3114 1.370 . S
C3115 C3116 1.403 . S
C3116 C3115 1.403 . S
C3116 C3117 1.404 . S
C3116 C3119 1.539 . S
C3117 C3113 1.408 . S
C3117 C3116 1.404 . S
C3117 H3129 0.930 . S
C3118 C3114 1.524 . S
C3118 H3130 0.956 . S
C3118 H3131 0.961 . S
C3118 H3132 0.961 . S
C3119 C3116 1.539 . S
C3119 H3133 0.958 . S
C3119 H3134 0.961 . S
C3119 H3135 0.960 . S
H3120 C3104 0.931 . S
H3121 C3109 0.929 . S
H3122 C3110 0.960 . S
H3123 C3110 0.962 . S
H3124 C3110 0.960 . S
H3125 C3111 0.961 . S
H3126 C3111 0.961 . S
H3127 C3111 0.961 . S
H3128 C3112 0.931 . S
H3129 C3117 0.930 . S
H3130 C3118 0.956 . S
H3131 C3118 0.961 . S
H3132 C3118 0.961 . S
H3133 C3119 0.958 . S
H3134 C3119 0.961 . S
H3135 C3119 0.960 . S
C3136 C3137 1.391 . S
C3136 C3138 1.394 . S
C3136 H3152 0.931 . S
C3137 C3136 1.391 . S
C3137 C3141 1.376 1_655 S
C3138 C3136 1.394 . S
C3138 C3139 1.369 1_655 S
C3138 C3142 1.531 . S
C3139 C3138 1.369 1_455 S
C3139 C3140 1.410 . S
C3139 C3147 1.503 . S
C3140 C3139 1.410 . S
C3140 C3141 1.392 . S
C3140 C3143 1.511 . S
C3141 C3137 1.376 1_455 S
C3141 C3140 1.392 . S
C3141 H3153 0.929 . S
C3142 C3138 1.531 . S
C3142 H3154 0.960 . S
C3142 H3155 0.962 . S
C3142 H3156 0.960 . S
C3143 C3140 1.511 . S
C3143 H3157 0.961 . S
C3143 H3158 0.961 . S
C3143 H3159 0.961 . S
C3144 C3145 1.370 . S
C3144 C3146 1.363 . S
C3144 H3160 0.931 . S
C3145 C3144 1.370 . S
C3145 C3149 1.408 . S
C3146 C3144 1.363 . S
C3146 C3147 1.370 . S
C3146 C3150 1.524 . S
C3147 C3139 1.503 . S
C3147 C3146 1.370 . S
C3147 C3148 1.403 . S
C3148 C3147 1.403 . S
C3148 C3149 1.404 . S
C3148 C3151 1.539 . S
C3149 C3145 1.408 . S
C3149 C3148 1.404 . S
C3149 H3161 0.930 . S
C3150 C3146 1.524 . S
C3150 H3162 0.956 1_455 S
C3150 H3163 0.961 . S
C3150 H3164 0.961 . S
C3151 C3148 1.539 . S
C3151 H3165 0.958 . S
C3151 H3166 0.961 . S
C3151 H3167 0.960 . S
H3152 C3136 0.931 . S
H3153 C3141 0.929 . S
H3154 C3142 0.960 . S
H3155 C3142 0.962 . S
H3156 C3142 0.960 . S
H3157 C3143 0.961 . S
H3158 C3143 0.961 . S
H3159 C3143 0.961 . S
H3160 C3144 0.931 . S
H3161 C3149 0.930 . S
H3162 C3150 0.956 1_655 S
H3163 C3150 0.961 . S
H3164 C3150 0.961 . S
H3165 C3151 0.958 . S
H3166 C3151 0.961 . S
H3167 C3151 0.960 . S
C3168 C3169 1.391 . S
C3168 C3170 1.394 . S
C3168 H3184 0.931 . S
C3169 C3168 1.391 . S
C3169 C3173 1.376 . S
C3170 C3168 1.394 . S
C3170 C3171 1.369 . S
C3170 C3174 1.531 . S
C3171 C3170 1.369 . S
C3171 C3172 1.410 . S
C3171 C3179 1.503 . S
C3172 C3171 1.410 . S
C3172 C3173 1.392 . S
C3172 C3175 1.511 . S
C3173 C3169 1.376 . S
C3173 C3172 1.392 . S
C3173 H3185 0.929 . S
C3174 C3170 1.531 . S
C3174 H3186 0.960 . S
C3174 H3187 0.962 . S
C3174 H3188 0.960 . S
C3175 C3172 1.511 . S
C3175 H3189 0.961 . S
C3175 H3190 0.961 . S
C3175 H3191 0.961 . S
C3176 C3177 1.370 . S
C3176 C3178 1.363 . S
C3176 H3192 0.931 . S
C3177 C3176 1.370 . S
C3177 C3181 1.408 . S
C3178 C3176 1.363 . S
C3178 C3179 1.370 . S
C3178 C3182 1.524 . S
C3179 C3171 1.503 . S
C3179 C3178 1.370 . S
C3179 C3180 1.403 . S
C3180 C3179 1.403 . S
C3180 C3181 1.404 . S
C3180 C3183 1.539 . S
C3181 C3177 1.408 . S
C3181 C3180 1.404 . S
C3181 H3193 0.930 . S
C3182 C3178 1.524 . S
C3182 H3194 0.956 . S
C3182 H3195 0.961 . S
C3182 H3196 0.961 . S
C3183 C3180 1.539 . S
C3183 H3197 0.958 . S
C3183 H3198 0.961 . S
C3183 H3199 0.960 . S
H3184 C3168 0.931 . S
H3185 C3173 0.929 . S
H3186 C3174 0.960 . S
H3187 C3174 0.962 . S
H3188 C3174 0.960 . S
H3189 C3175 0.961 . S
H3190 C3175 0.961 . S
H3191 C3175 0.961 . S
H3192 C3176 0.931 . S
H3193 C3181 0.930 . S
H3194 C3182 0.956 . S
H3195 C3182 0.961 . S
H3196 C3182 0.961 . S
H3197 C3183 0.958 . S
H3198 C3183 0.961 . S
H3199 C3183 0.960 . S
C3200 C3201 1.391 . S
C3200 C3202 1.394 . S
C3200 H3216 0.931 . S
C3201 C3200 1.391 . S
C3201 C3205 1.376 . S
C3202 C3200 1.394 . S
C3202 C3203 1.369 . S
C3202 C3206 1.531 . S
C3203 C3202 1.369 . S
C3203 C3204 1.410 . S
C3203 C3211 1.503 . S
C3204 C3203 1.410 . S
C3204 C3205 1.392 . S
C3204 C3207 1.511 . S
C3205 C3201 1.376 . S
C3205 C3204 1.392 . S
C3205 H3217 0.929 . S
C3206 C3202 1.531 . S
C3206 H3218 0.960 . S
C3206 H3219 0.962 . S
C3206 H3220 0.960 . S
C3207 C3204 1.511 . S
C3207 H3221 0.961 . S
C3207 H3222 0.961 . S
C3207 H3223 0.961 . S
C3208 C3209 1.370 . S
C3208 C3210 1.363 . S
C3208 H3224 0.931 . S
C3209 C3208 1.370 . S
C3209 C3213 1.408 . S
C3210 C3208 1.363 . S
C3210 C3211 1.370 . S
C3210 C3214 1.524 . S
C3211 C3203 1.503 . S
C3211 C3210 1.370 . S
C3211 C3212 1.403 . S
C3212 C3211 1.403 . S
C3212 C3213 1.404 . S
C3212 C3215 1.539 . S
C3213 C3209 1.408 . S
C3213 C3212 1.404 . S
C3213 H3225 0.930 . S
C3214 C3210 1.524 . S
C3214 H3226 0.956 . S
C3214 H3227 0.961 . S
C3214 H3228 0.961 . S
C3215 C3212 1.539 . S
C3215 H3229 0.958 . S
C3215 H3230 0.961 . S
C3215 H3231 0.960 . S
H3216 C3200 0.931 . S
H3217 C3205 0.929 . S
H3218 C3206 0.960 . S
H3219 C3206 0.962 . S
H3220 C3206 0.960 . S
H3221 C3207 0.961 . S
H3222 C3207 0.961 . S
H3223 C3207 0.961 . S
H3224 C3208 0.931 . S
H3225 C3213 0.930 . S
H3226 C3214 0.956 . S
H3227 C3214 0.961 . S
H3228 C3214 0.961 . S
H3229 C3215 0.958 . S
H3230 C3215 0.961 . S
H3231 C3215 0.960 . S
C3232 C3233 1.391 . S
C3232 C3234 1.394 . S
C3232 H3248 0.931 . S
C3233 C3232 1.391 . S
C3233 C3237 1.376 . S
C3234 C3232 1.394 . S
C3234 C3235 1.369 . S
C3234 C3238 1.531 . S
C3235 C3234 1.369 . S
C3235 C3236 1.410 . S
C3235 C3243 1.503 . S
C3236 C3235 1.410 . S
C3236 C3237 1.392 . S
C3236 C3239 1.511 . S
C3237 C3233 1.376 . S
C3237 C3236 1.392 . S
C3237 H3249 0.929 . S
C3238 C3234 1.531 . S
C3238 H3250 0.960 . S
C3238 H3251 0.962 . S
C3238 H3252 0.960 . S
C3239 C3236 1.511 . S
C3239 H3253 0.961 . S
C3239 H3254 0.961 . S
C3239 H3255 0.961 . S
C3240 C3241 1.370 . S
C3240 C3242 1.363 . S
C3240 H3256 0.931 . S
C3241 C3240 1.370 . S
C3241 C3245 1.408 . S
C3242 C3240 1.363 . S
C3242 C3243 1.370 . S
C3242 C3246 1.524 . S
C3243 C3235 1.503 . S
C3243 C3242 1.370 . S
C3243 C3244 1.403 . S
C3244 C3243 1.403 . S
C3244 C3245 1.404 . S
C3244 C3247 1.539 . S
C3245 C3241 1.408 . S
C3245 C3244 1.404 . S
C3245 H3257 0.930 . S
C3246 C3242 1.524 . S
C3246 H3258 0.956 . S
C3246 H3259 0.961 . S
C3246 H3260 0.961 . S
C3247 C3244 1.539 . S
C3247 H3261 0.958 . S
C3247 H3262 0.961 . S
C3247 H3263 0.960 . S
H3248 C3232 0.931 . S
H3249 C3237 0.929 . S
H3250 C3238 0.960 . S
H3251 C3238 0.962 . S
H3252 C3238 0.960 . S
H3253 C3239 0.961 . S
H3254 C3239 0.961 . S
H3255 C3239 0.961 . S
H3256 C3240 0.931 . S
H3257 C3245 0.930 . S
H3258 C3246 0.956 . S
H3259 C3246 0.961 . S
H3260 C3246 0.961 . S
H3261 C3247 0.958 . S
H3262 C3247 0.961 . S
H3263 C3247 0.960 . S
C3264 C3265 1.391 . S
C3264 C3266 1.394 . S
C3264 H3280 0.931 1_565 S
C3265 C3264 1.391 . S
C3265 C3269 1.376 . S
C3266 C3264 1.394 . S
C3266 C3267 1.369 . S
C3266 C3270 1.531 1_565 S
C3267 C3266 1.369 . S
C3267 C3268 1.410 . S
C3267 C3275 1.503 . S
C3268 C3267 1.410 . S
C3268 C3269 1.392 . S
C3268 C3271 1.511 . S
C3269 C3265 1.376 . S
C3269 C3268 1.392 . S
C3269 H3281 0.929 . S
C3270 C3266 1.531 1_545 S
C3270 H3282 0.960 . S
C3270 H3283 0.962 . S
C3270 H3284 0.960 . S
C3271 C3268 1.511 . S
C3271 H3285 0.961 . S
C3271 H3286 0.961 . S
C3271 H3287 0.961 . S
C3272 C3273 1.370 . S
C3272 C3274 1.363 . S
C3272 H3288 0.931 . S
C3273 C3272 1.370 . S
C3273 C3277 1.408 . S
C3274 C3272 1.363 . S
C3274 C3275 1.370 . S
C3274 C3278 1.524 . S
C3275 C3267 1.503 . S
C3275 C3274 1.370 . S
C3275 C3276 1.403 . S
C3276 C3275 1.403 . S
C3276 C3277 1.404 . S
C3276 C3279 1.539 1_554 S
C3277 C3273 1.408 . S
C3277 C3276 1.404 . S
C3277 H3289 0.930 . S
C3278 C3274 1.524 . S
C3278 H3290 0.975 . S
C3278 H3291 0.961 . S
C3278 H3292 0.961 . S
C3279 C3276 1.539 1_556 S
C3279 H3293 0.958 . S
C3279 H3294 0.961 . S
C3279 H3295 0.960 . S
H3280 C3264 0.931 1_545 S
H3281 C3269 0.929 . S
H3282 C3270 0.960 . S
H3283 C3270 0.962 . S
H3284 C3270 0.960 . S
H3285 C3271 0.961 . S
H3286 C3271 0.961 . S
H3287 C3271 0.961 . S
H3288 C3272 0.931 . S
H3289 C3277 0.930 . S
H3290 C3278 0.975 . S
H3291 C3278 0.961 . S
H3292 C3278 0.961 . S
H3293 C3279 0.958 . S
H3294 C3279 0.961 . S
H3295 C3279 0.960 . S
C3296 C3297 1.391 1_554 S
C3296 C3298 1.394 . S
C3296 H3312 0.931 . S
C3297 C3296 1.391 1_556 S
C3297 C3301 1.376 . S
C3298 C3296 1.394 . S
C3298 C3299 1.369 1_554 S
C3298 C3302 1.531 . S
C3299 C3298 1.369 1_556 S
C3299 C3300 1.410 . S
C3299 C3307 1.503 . S
C3300 C3299 1.410 . S
C3300 C3301 1.392 . S
C3300 C3303 1.511 . S
C3301 C3297 1.376 . S
C3301 C3300 1.392 . S
C3301 H3313 0.929 . S
C3302 C3298 1.531 . S
C3302 H3314 0.960 . S
C3302 H3315 0.962 . S
C3302 H3316 0.960 . S
C3303 C3300 1.511 . S
C3303 H3317 0.961 . S
C3303 H3318 0.961 . S
C3303 H3319 0.961 . S
C3304 C3305 1.370 . S
C3304 C3306 1.363 . S
C3304 H3320 0.931 . S
C3305 C3304 1.370 . S
C3305 C3309 1.408 1_554 S
C3306 C3304 1.363 . S
C3306 C3307 1.370 1_554 S
C3306 C3310 1.524 . S
C3307 C3299 1.503 . S
C3307 C3306 1.370 1_556 S
C3307 C3308 1.403 . S
C3308 C3307 1.403 . S
C3308 C3309 1.404 . S
C3308 C3311 1.539 . S
C3309 C3305 1.408 1_556 S
C3309 C3308 1.404 . S
C3309 H3321 0.930 . S
C3310 C3306 1.524 . S
C3310 H3322 0.956 . S
C3310 H3323 0.961 . S
C3310 H3324 0.961 . S
C3311 C3308 1.539 . S
C3311 H3325 0.958 . S
C3311 H3326 0.961 . S
C3311 H3327 0.960 . S
H3312 C3296 0.931 . S
H3313 C3301 0.929 . S
H3314 C3302 0.960 . S
H3315 C3302 0.962 . S
H3316 C3302 0.960 . S
H3317 C3303 0.961 . S
H3318 C3303 0.961 . S
H3319 C3303 0.961 . S
H3320 C3304 0.931 . S
H3321 C3309 0.930 . S
H3322 C3310 0.956 . S
H3323 C3310 0.961 . S
H3324 C3310 0.961 . S
H3325 C3311 0.958 . S
H3326 C3311 0.961 . S
H3327 C3311 0.960 . S
C3328 C3329 1.391 . S
C3328 C3330 1.394 . S
C3328 H3344 0.931 . S
C3329 C3328 1.391 . S
C3329 C3333 1.376 . S
C3330 C3328 1.394 . S
C3330 C3331 1.369 . S
C3330 C3334 1.531 . S
C3331 C3330 1.369 . S
C3331 C3332 1.410 . S
C3331 C3339 1.503 . S
C3332 C3331 1.410 . S
C3332 C3333 1.392 . S
C3332 C3335 1.511 . S
C3333 C3329 1.376 . S
C3333 C3332 1.392 . S
C3333 H3345 0.929 . S
C3334 C3330 1.531 . S
C3334 H3346 0.960 . S
C3334 H3347 0.962 . S
C3334 H3348 0.960 . S
C3335 C3332 1.511 . S
C3335 H3349 0.961 . S
C3335 H3350 0.961 . S
C3335 H3351 0.961 . S
C3336 C3337 1.370 . S
C3336 C3338 1.363 . S
C3336 H3352 0.931 . S
C3337 C3336 1.370 . S
C3337 C3341 1.408 . S
C3338 C3336 1.363 . S
C3338 C3339 1.370 . S
C3338 C3342 1.524 . S
C3339 C3331 1.503 . S
C3339 C3338 1.370 . S
C3339 C3340 1.403 . S
C3340 C3339 1.403 . S
C3340 C3341 1.404 . S
C3340 C3343 1.539 . S
C3341 C3337 1.408 . S
C3341 C3340 1.404 . S
C3341 H3353 0.930 . S
C3342 C3338 1.524 . S
C3342 H3354 0.956 . S
C3342 H3355 0.961 . S
C3342 H3356 0.961 . S
C3343 C3340 1.539 . S
C3343 H3357 0.958 . S
C3343 H3358 0.961 . S
C3343 H3359 0.960 . S
H3344 C3328 0.931 . S
H3345 C3333 0.929 . S
H3346 C3334 0.960 . S
H3347 C3334 0.962 . S
H3348 C3334 0.960 . S
H3349 C3335 0.961 . S
H3350 C3335 0.961 . S
H3351 C3335 0.961 . S
H3352 C3336 0.931 . S
H3353 C3341 0.930 . S
H3354 C3342 0.956 . S
H3355 C3342 0.961 . S
H3356 C3342 0.961 . S
H3357 C3343 0.958 . S
H3358 C3343 0.961 . S
H3359 C3343 0.960 . S
C3360 C3361 1.391 . S
C3360 C3362 1.394 . S
C3360 H3376 0.931 . S
C3361 C3360 1.391 . S
C3361 C3365 1.376 . S
C3362 C3360 1.394 . S
C3362 C3363 1.369 . S
C3362 C3366 1.531 . S
C3363 C3362 1.369 . S
C3363 C3364 1.410 . S
C3363 C3371 1.503 . S
C3364 C3363 1.410 . S
C3364 C3365 1.392 . S
C3364 C3367 1.511 . S
C3365 C3361 1.376 . S
C3365 C3364 1.392 . S
C3365 H3377 0.929 . S
C3366 C3362 1.531 . S
C3366 H3378 0.960 . S
C3366 H3379 0.962 . S
C3366 H3380 0.960 . S
C3367 C3364 1.511 . S
C3367 H3381 0.961 . S
C3367 H3382 0.961 . S
C3367 H3383 0.961 . S
C3368 C3369 1.370 . S
C3368 C3370 1.363 . S
C3368 H3384 0.931 . S
C3369 C3368 1.370 . S
C3369 C3373 1.408 . S
C3370 C3368 1.363 . S
C3370 C3371 1.370 . S
C3370 C3374 1.524 . S
C3371 C3363 1.503 . S
C3371 C3370 1.370 . S
C3371 C3372 1.403 . S
C3372 C3371 1.403 . S
C3372 C3373 1.404 . S
C3372 C3375 1.539 . S
C3373 C3369 1.408 . S
C3373 C3372 1.404 . S
C3373 H3385 0.930 . S
C3374 C3370 1.524 . S
C3374 H3386 0.956 . S
C3374 H3387 0.961 . S
C3374 H3388 0.961 . S
C3375 C3372 1.539 . S
C3375 H3389 0.958 . S
C3375 H3390 0.961 . S
C3375 H3391 0.960 . S
H3376 C3360 0.931 . S
H3377 C3365 0.929 . S
H3378 C3366 0.960 . S
H3379 C3366 0.962 . S
H3380 C3366 0.960 . S
H3381 C3367 0.961 . S
H3382 C3367 0.961 . S
H3383 C3367 0.961 . S
H3384 C3368 0.931 . S
H3385 C3373 0.930 . S
H3386 C3374 0.956 . S
H3387 C3374 0.961 . S
H3388 C3374 0.961 . S
H3389 C3375 0.958 . S
H3390 C3375 0.961 . S
H3391 C3375 0.960 . S
C3392 C3393 1.391 . S
C3392 C3394 1.394 . S
C3392 H3408 0.931 . S
C3393 C3392 1.391 . S
C3393 C3397 1.376 . S
C3394 C3392 1.394 . S
C3394 C3395 1.369 . S
C3394 C3398 1.531 . S
C3395 C3394 1.369 . S
C3395 C3396 1.410 . S
C3395 C3403 1.503 . S
C3396 C3395 1.410 . S
C3396 C3397 1.392 . S
C3396 C3399 1.511 . S
C3397 C3393 1.376 . S
C3397 C3396 1.392 . S
C3397 H3409 0.929 . S
C3398 C3394 1.531 . S
C3398 H3410 0.960 . S
C3398 H3411 0.962 . S
C3398 H3412 0.960 . S
C3399 C3396 1.511 . S
C3399 H3413 0.961 . S
C3399 H3414 0.961 . S
C3399 H3415 0.961 . S
C3400 C3401 1.370 . S
C3400 C3402 1.363 . S
C3400 H3416 0.931 . S
C3401 C3400 1.370 . S
C3401 C3405 1.408 . S
C3402 C3400 1.363 . S
C3402 C3403 1.370 . S
C3402 C3406 1.524 . S
C3403 C3395 1.503 . S
C3403 C3402 1.370 . S
C3403 C3404 1.403 . S
C3404 C3403 1.403 . S
C3404 C3405 1.404 . S
C3404 C3407 1.539 . S
C3405 C3401 1.408 . S
C3405 C3404 1.404 . S
C3405 H3417 0.930 . S
C3406 C3402 1.524 . S
C3406 H3418 0.956 . S
C3406 H3419 0.961 . S
C3406 H3420 0.961 . S
C3407 C3404 1.539 . S
C3407 H3421 0.958 . S
C3407 H3422 0.961 . S
C3407 H3423 0.960 . S
H3408 C3392 0.931 . S
H3409 C3397 0.929 . S
H3410 C3398 0.960 . S
H3411 C3398 0.962 . S
H3412 C3398 0.960 . S
H3413 C3399 0.961 . S
H3414 C3399 0.961 . S
H3415 C3399 0.961 . S
H3416 C3400 0.931 . S
H3417 C3405 0.930 . S
H3418 C3406 0.956 . S
H3419 C3406 0.961 . S
H3420 C3406 0.961 . S
H3421 C3407 0.958 . S
H3422 C3407 0.961 . S
H3423 C3407 0.960 . S
C3424 C3425 1.391 . S
C3424 C3426 1.394 . S
C3424 H3440 0.931 . S
C3425 C3424 1.391 . S
C3425 C3429 1.376 . S
C3426 C3424 1.394 . S
C3426 C3427 1.369 . S
C3426 C3430 1.531 . S
C3427 C3426 1.369 . S
C3427 C3428 1.410 . S
C3427 C3435 1.503 . S
C3428 C3427 1.410 . S
C3428 C3429 1.392 . S
C3428 C3431 1.511 . S
C3429 C3425 1.376 . S
C3429 C3428 1.392 . S
C3429 H3441 0.929 . S
C3430 C3426 1.531 . S
C3430 H3442 0.960 . S
C3430 H3443 0.962 . S
C3430 H3444 0.960 . S
C3431 C3428 1.511 . S
C3431 H3445 0.961 . S
C3431 H3446 0.961 . S
C3431 H3447 0.961 . S
C3432 C3433 1.370 . S
C3432 C3434 1.363 . S
C3432 H3448 0.931 . S
C3433 C3432 1.370 . S
C3433 C3437 1.408 . S
C3434 C3432 1.363 . S
C3434 C3435 1.370 . S
C3434 C3438 1.524 . S
C3435 C3427 1.503 . S
C3435 C3434 1.370 . S
C3435 C3436 1.403 . S
C3436 C3435 1.403 . S
C3436 C3437 1.404 . S
C3436 C3439 1.539 . S
C3437 C3433 1.408 . S
C3437 C3436 1.404 . S
C3437 H3449 0.930 . S
C3438 C3434 1.524 . S
C3438 H3450 0.956 . S
C3438 H3451 0.961 . S
C3438 H3452 0.961 . S
C3439 C3436 1.539 . S
C3439 H3453 0.958 . S
C3439 H3454 0.961 . S
C3439 H3455 0.960 . S
H3440 C3424 0.931 . S
H3441 C3429 0.929 . S
H3442 C3430 0.960 . S
H3443 C3430 0.962 . S
H3444 C3430 0.960 . S
H3445 C3431 0.961 . S
H3446 C3431 0.961 . S
H3447 C3431 0.961 . S
H3448 C3432 0.931 . S
H3449 C3437 0.930 . S
H3450 C3438 0.956 . S
H3451 C3438 0.961 . S
H3452 C3438 0.961 . S
H3453 C3439 0.958 . S
H3454 C3439 0.961 . S
H3455 C3439 0.960 . S
C3456 C3457 1.391 . S
C3456 C3458 1.394 . S
C3456 H3472 0.931 . S
C3457 C3456 1.391 . S
C3457 C3461 1.376 . S
C3458 C3456 1.394 . S
C3458 C3459 1.369 . S
C3458 C3462 1.531 . S
C3459 C3458 1.369 . S
C3459 C3460 1.410 . S
C3459 C3467 1.503 . S
C3460 C3459 1.410 . S
C3460 C3461 1.392 . S
C3460 C3463 1.511 . S
C3461 C3457 1.376 . S
C3461 C3460 1.392 . S
C3461 H3473 0.929 . S
C3462 C3458 1.531 . S
C3462 H3474 0.960 . S
C3462 H3475 0.962 . S
C3462 H3476 0.960 . S
C3463 C3460 1.511 . S
C3463 H3477 0.961 . S
C3463 H3478 0.961 . S
C3463 H3479 0.961 . S
C3464 C3465 1.370 . S
C3464 C3466 1.363 . S
C3464 H3480 0.931 . S
C3465 C3464 1.370 . S
C3465 C3469 1.408 . S
C3466 C3464 1.363 . S
C3466 C3467 1.370 . S
C3466 C3470 1.524 . S
C3467 C3459 1.503 . S
C3467 C3466 1.370 . S
C3467 C3468 1.403 . S
C3468 C3467 1.403 . S
C3468 C3469 1.404 . S
C3468 C3471 1.539 . S
C3469 C3465 1.408 . S
C3469 C3468 1.404 . S
C3469 H3481 0.930 . S
C3470 C3466 1.524 . S
C3470 H3482 0.956 . S
C3470 H3483 0.961 . S
C3470 H3484 0.961 . S
C3471 C3468 1.539 . S
C3471 H3485 0.958 . S
C3471 H3486 0.961 . S
C3471 H3487 0.960 . S
H3472 C3456 0.931 . S
H3473 C3461 0.929 . S
H3474 C3462 0.960 . S
H3475 C3462 0.962 . S
H3476 C3462 0.960 . S
H3477 C3463 0.961 . S
H3478 C3463 0.961 . S
H3479 C3463 0.961 . S
H3480 C3464 0.931 . S
H3481 C3469 0.930 . S
H3482 C3470 0.956 . S
H3483 C3470 0.961 . S
H3484 C3470 0.961 . S
H3485 C3471 0.958 . S
H3486 C3471 0.961 . S
H3487 C3471 0.960 . S
C3488 C3489 1.391 . S
C3488 C3490 1.394 . S
C3488 H3504 0.931 . S
C3489 C3488 1.391 . S
C3489 C3493 1.376 . S
C3490 C3488 1.394 . S
C3490 C3491 1.369 . S
C3490 C3494 1.531 . S
C3491 C3490 1.369 . S
C3491 C3492 1.410 . S
C3491 C3499 1.503 . S
C3492 C3491 1.410 . S
C3492 C3493 1.392 . S
C3492 C3495 1.511 . S
C3493 C3489 1.376 . S
C3493 C3492 1.392 . S
C3493 H3505 0.929 . S
C3494 C3490 1.531 . S
C3494 H3506 0.960 . S
C3494 H3507 0.962 . S
C3494 H3508 0.960 . S
C3495 C3492 1.511 . S
C3495 H3509 0.961 . S
C3495 H3510 0.961 . S
C3495 H3511 0.961 . S
C3496 C3497 1.370 . S
C3496 C3498 1.363 . S
C3496 H3512 0.931 . S
C3497 C3496 1.370 . S
C3497 C3501 1.408 . S
C3498 C3496 1.363 . S
C3498 C3499 1.370 . S
C3498 C3502 1.524 . S
C3499 C3491 1.503 . S
C3499 C3498 1.370 . S
C3499 C3500 1.403 . S
C3500 C3499 1.403 . S
C3500 C3501 1.404 . S
C3500 C3503 1.539 . S
C3501 C3497 1.408 . S
C3501 C3500 1.404 . S
C3501 H3513 0.930 . S
C3502 C3498 1.524 . S
C3502 H3514 0.956 . S
C3502 H3515 0.961 . S
C3502 H3516 0.961 . S
C3503 C3500 1.539 . S
C3503 H3517 0.958 . S
C3503 H3518 0.961 . S
C3503 H3519 0.960 . S
H3504 C3488 0.931 . S
H3505 C3493 0.929 . S
H3506 C3494 0.960 . S
H3507 C3494 0.962 . S
H3508 C3494 0.960 . S
H3509 C3495 0.961 . S
H3510 C3495 0.961 . S
H3511 C3495 0.961 . S
H3512 C3496 0.931 . S
H3513 C3501 0.930 . S
H3514 C3502 0.956 . S
H3515 C3502 0.961 . S
H3516 C3502 0.961 . S
H3517 C3503 0.958 . S
H3518 C3503 0.961 . S
H3519 C3503 0.960 . S
C3520 C3521 1.391 . S
C3520 C3522 1.394 . S
C3520 H3536 0.931 . S
C3521 C3520 1.391 . S
C3521 C3525 1.376 . S
C3522 C3520 1.394 . S
C3522 C3523 1.369 . S
C3522 C3526 1.531 . S
C3523 C3522 1.369 . S
C3523 C3524 1.410 . S
C3523 C3531 1.503 . S
C3524 C3523 1.410 . S
C3524 C3525 1.392 . S
C3524 C3527 1.511 . S
C3525 C3521 1.376 . S
C3525 C3524 1.392 . S
C3525 H3537 0.929 . S
C3526 C3522 1.531 . S
C3526 H3538 0.960 . S
C3526 H3539 0.962 . S
C3526 H3540 0.960 . S
C3527 C3524 1.511 . S
C3527 H3541 0.961 . S
C3527 H3542 0.961 . S
C3527 H3543 0.961 . S
C3528 C3529 1.370 . S
C3528 C3530 1.363 . S
C3528 H3544 0.916 1_554 S
C3529 C3528 1.370 . S
C3529 C3533 1.408 . S
C3530 C3528 1.363 . S
C3530 C3531 1.370 . S
C3530 C3534 1.524 . S
C3531 C3523 1.503 . S
C3531 C3530 1.370 . S
C3531 C3532 1.403 . S
C3532 C3531 1.403 . S
C3532 C3533 1.404 . S
C3532 C3535 1.539 . S
C3533 C3529 1.408 . S
C3533 C3532 1.404 . S
C3533 H3545 0.930 . S
C3534 C3530 1.524 . S
C3534 H3546 0.956 . S
C3534 H3547 0.957 1_554 S
C3534 H3548 0.961 1_554 S
C3535 C3532 1.539 . S
C3535 H3549 0.958 . S
C3535 H3550 0.961 . S
C3535 H3551 0.960 . S
H3536 C3520 0.931 . S
H3537 C3525 0.929 . S
H3538 C3526 0.960 . S
H3539 C3526 0.962 . S
H3540 C3526 0.960 . S
H3541 C3527 0.961 . S
H3542 C3527 0.961 . S
H3543 C3527 0.961 . S
H3544 C3528 0.916 1_556 S
H3545 C3533 0.930 . S
H3546 C3534 0.956 . S
H3547 C3534 0.957 1_556 S
H3548 C3534 0.961 1_556 S
H3549 C3535 0.958 . S
H3550 C3535 0.961 . S
H3551 C3535 0.960 . S
C3552 C3553 1.391 . S
C3552 C3554 1.394 . S
C3552 H3568 0.931 . S
C3553 C3552 1.391 . S
C3553 C3557 1.376 . S
C3554 C3552 1.394 . S
C3554 C3555 1.369 . S
C3554 C3558 1.531 . S
C3555 C3554 1.369 . S
C3555 C3556 1.410 . S
C3555 C3563 1.503 . S
C3556 C3555 1.410 . S
C3556 C3557 1.392 . S
C3556 C3559 1.511 . S
C3557 C3553 1.376 . S
C3557 C3556 1.392 . S
C3557 H3569 0.929 . S
C3558 C3554 1.531 . S
C3558 H3570 0.960 . S
C3558 H3571 0.962 . S
C3558 H3572 0.960 . S
C3559 C3556 1.511 . S
C3559 H3573 0.961 . S
C3559 H3574 0.961 . S
C3559 H3575 0.961 . S
C3560 C3561 1.370 . S
C3560 C3562 1.363 . S
C3560 H3576 0.931 . S
C3561 C3560 1.370 . S
C3561 C3565 1.408 . S
C3562 C3560 1.363 . S
C3562 C3563 1.370 . S
C3562 C3566 1.524 . S
C3563 C3555 1.503 . S
C3563 C3562 1.370 . S
C3563 C3564 1.403 . S
C3564 C3563 1.403 . S
C3564 C3565 1.404 . S
C3564 C3567 1.539 . S
C3565 C3561 1.408 . S
C3565 C3564 1.404 . S
C3565 H3577 0.930 . S
C3566 C3562 1.524 . S
C3566 H3578 0.956 . S
C3566 H3579 0.961 . S
C3566 H3580 0.961 . S
C3567 C3564 1.539 . S
C3567 H3581 0.958 . S
C3567 H3582 0.961 . S
C3567 H3583 0.960 . S
H3568 C3552 0.931 . S
H3569 C3557 0.929 . S
H3570 C3558 0.960 . S
H3571 C3558 0.962 . S
H3572 C3558 0.960 . S
H3573 C3559 0.961 . S
H3574 C3559 0.961 . S
H3575 C3559 0.961 . S
H3576 C3560 0.931 . S
H3577 C3565 0.930 . S
H3578 C3566 0.956 . S
H3579 C3566 0.961 . S
H3580 C3566 0.961 . S
H3581 C3567 0.958 . S
H3582 C3567 0.961 . S
H3583 C3567 0.960 . S
C3584 C3585 1.391 . S
C3584 C3586 1.394 . S
C3584 H3600 0.931 . S
C3585 C3584 1.391 . S
C3585 C3589 1.376 . S
C3586 C3584 1.394 . S
C3586 C3587 1.369 . S
C3586 C3590 1.531 . S
C3587 C3586 1.369 . S
C3587 C3588 1.410 . S
C3587 C3595 1.503 . S
C3588 C3587 1.410 . S
C3588 C3589 1.392 . S
C3588 C3591 1.511 . S
C3589 C3585 1.376 . S
C3589 C3588 1.392 . S
C3589 H3601 0.929 . S
C3590 C3586 1.531 . S
C3590 H3602 0.960 . S
C3590 H3603 0.962 . S
C3590 H3604 0.960 . S
C3591 C3588 1.511 . S
C3591 H3605 0.961 . S
C3591 H3606 0.961 . S
C3591 H3607 0.961 . S
C3592 C3593 1.370 . S
C3592 C3594 1.363 . S
C3592 H3608 0.931 . S
C3593 C3592 1.370 . S
C3593 C3597 1.408 . S
C3594 C3592 1.363 . S
C3594 C3595 1.370 . S
C3594 C3598 1.524 . S
C3595 C3587 1.503 . S
C3595 C3594 1.370 . S
C3595 C3596 1.403 . S
C3596 C3595 1.403 . S
C3596 C3597 1.404 . S
C3596 C3599 1.539 . S
C3597 C3593 1.408 . S
C3597 C3596 1.404 . S
C3597 H3609 0.930 . S
C3598 C3594 1.524 . S
C3598 H3610 0.956 . S
C3598 H3611 0.961 . S
C3598 H3612 0.961 . S
C3599 C3596 1.539 . S
C3599 H3613 0.958 . S
C3599 H3614 0.961 . S
C3599 H3615 0.960 . S
H3600 C3584 0.931 . S
H3601 C3589 0.929 . S
H3602 C3590 0.960 . S
H3603 C3590 0.962 . S
H3604 C3590 0.960 . S
H3605 C3591 0.961 . S
H3606 C3591 0.961 . S
H3607 C3591 0.961 . S
H3608 C3592 0.931 . S
H3609 C3597 0.930 . S
H3610 C3598 0.956 . S
H3611 C3598 0.961 . S
H3612 C3598 0.961 . S
H3613 C3599 0.958 . S
H3614 C3599 0.961 . S
H3615 C3599 0.960 . S
C3616 C3617 1.391 . S
C3616 C3618 1.394 . S
C3616 H3632 0.931 . S
C3617 C3616 1.391 . S
C3617 C3621 1.376 . S
C3618 C3616 1.394 . S
C3618 C3619 1.369 . S
C3618 C3622 1.531 . S
C3619 C3618 1.369 . S
C3619 C3620 1.410 . S
C3619 C3627 1.503 . S
C3620 C3619 1.410 . S
C3620 C3621 1.392 . S
C3620 C3623 1.511 . S
C3621 C3617 1.376 . S
C3621 C3620 1.392 . S
C3621 H3633 0.929 . S
C3622 C3618 1.531 . S
C3622 H3634 0.960 . S
C3622 H3635 0.962 . S
C3622 H3636 0.960 . S
C3623 C3620 1.511 . S
C3623 H3637 0.961 . S
C3623 H3638 0.961 . S
C3623 H3639 0.961 . S
C3624 C3625 1.370 . S
C3624 C3626 1.363 . S
C3624 H3640 0.931 . S
C3625 C3624 1.370 . S
C3625 C3629 1.408 . S
C3626 C3624 1.363 . S
C3626 C3627 1.370 . S
C3626 C3630 1.524 . S
C3627 C3619 1.503 . S
C3627 C3626 1.370 . S
C3627 C3628 1.403 . S
C3628 C3627 1.403 . S
C3628 C3629 1.404 . S
C3628 C3631 1.539 . S
C3629 C3625 1.408 . S
C3629 C3628 1.404 . S
C3629 H3641 0.930 . S
C3630 C3626 1.524 . S
C3630 H3642 0.956 . S
C3630 H3643 0.961 . S
C3630 H3644 0.961 . S
C3631 C3628 1.539 . S
C3631 H3645 0.958 . S
C3631 H3646 0.961 . S
C3631 H3647 0.960 . S
H3632 C3616 0.931 . S
H3633 C3621 0.929 . S
H3634 C3622 0.960 . S
H3635 C3622 0.962 . S
H3636 C3622 0.960 . S
H3637 C3623 0.961 . S
H3638 C3623 0.961 . S
H3639 C3623 0.961 . S
H3640 C3624 0.931 . S
H3641 C3629 0.930 . S
H3642 C3630 0.956 . S
H3643 C3630 0.961 . S
H3644 C3630 0.961 . S
H3645 C3631 0.958 . S
H3646 C3631 0.961 . S
H3647 C3631 0.960 . S
C3648 C3649 1.391 . S
C3648 C3650 1.394 . S
C3648 H3664 0.931 . S
C3649 C3648 1.391 . S
C3649 C3653 1.376 . S
C3650 C3648 1.394 . S
C3650 C3651 1.369 . S
C3650 C3654 1.531 . S
C3651 C3650 1.369 . S
C3651 C3652 1.410 . S
C3651 C3659 1.503 . S
C3652 C3651 1.410 . S
C3652 C3653 1.392 . S
C3652 C3655 1.511 . S
C3653 C3649 1.376 . S
C3653 C3652 1.392 . S
C3653 H3665 0.929 . S
C3654 C3650 1.531 . S
C3654 H3666 0.960 . S
C3654 H3667 0.962 . S
C3654 H3668 0.960 . S
C3655 C3652 1.511 . S
C3655 H3669 0.961 . S
C3655 H3670 0.961 . S
C3655 H3671 0.961 . S
C3656 C3657 1.370 . S
C3656 C3658 1.363 . S
C3656 H3672 0.931 . S
C3657 C3656 1.370 . S
C3657 C3661 1.408 . S
C3658 C3656 1.363 . S
C3658 C3659 1.370 . S
C3658 C3662 1.524 . S
C3659 C3651 1.503 . S
C3659 C3658 1.370 . S
C3659 C3660 1.403 . S
C3660 C3659 1.403 . S
C3660 C3661 1.404 . S
C3660 C3663 1.539 . S
C3661 C3657 1.408 . S
C3661 C3660 1.404 . S
C3661 H3673 0.930 . S
C3662 C3658 1.524 . S
C3662 H3674 0.956 . S
C3662 H3675 0.961 . S
C3662 H3676 0.961 . S
C3663 C3660 1.539 . S
C3663 H3677 0.958 . S
C3663 H3678 0.961 . S
C3663 H3679 0.960 . S
H3664 C3648 0.931 . S
H3665 C3653 0.929 . S
H3666 C3654 0.960 . S
H3667 C3654 0.962 . S
H3668 C3654 0.960 . S
H3669 C3655 0.961 . S
H3670 C3655 0.961 . S
H3671 C3655 0.961 . S
H3672 C3656 0.931 . S
H3673 C3661 0.930 . S
H3674 C3662 0.956 . S
H3675 C3662 0.961 . S
H3676 C3662 0.961 . S
H3677 C3663 0.958 . S
H3678 C3663 0.961 . S
H3679 C3663 0.960 . S
C3680 C3681 1.391 . S
C3680 C3682 1.394 . S
C3680 H3696 0.931 . S
C3681 C3680 1.391 . S
C3681 C3685 1.376 . S
C3682 C3680 1.394 . S
C3682 C3683 1.369 . S
C3682 C3686 1.531 . S
C3683 C3682 1.369 . S
C3683 C3684 1.410 . S
C3683 C3691 1.503 . S
C3684 C3683 1.410 . S
C3684 C3685 1.392 . S
C3684 C3687 1.511 . S
C3685 C3681 1.376 . S
C3685 C3684 1.392 . S
C3685 H3697 0.929 . S
C3686 C3682 1.531 . S
C3686 H3698 0.960 . S
C3686 H3699 0.962 . S
C3686 H3700 0.960 . S
C3687 C3684 1.511 . S
C3687 H3701 0.961 . S
C3687 H3702 0.961 . S
C3687 H3703 0.961 . S
C3688 C3689 1.370 . S
C3688 C3690 1.363 . S
C3688 H3704 0.931 . S
C3689 C3688 1.370 . S
C3689 C3693 1.408 . S
C3690 C3688 1.363 . S
C3690 C3691 1.370 . S
C3690 C3694 1.524 . S
C3691 C3683 1.503 . S
C3691 C3690 1.370 . S
C3691 C3692 1.403 . S
C3692 C3691 1.403 . S
C3692 C3693 1.404 . S
C3692 C3695 1.539 . S
C3693 C3689 1.408 . S
C3693 C3692 1.404 . S
C3693 H3705 0.930 . S
C3694 C3690 1.524 . S
C3694 H3706 0.956 . S
C3694 H3707 0.961 . S
C3694 H3708 0.961 . S
C3695 C3692 1.539 . S
C3695 H3709 0.958 . S
C3695 H3710 0.961 . S
C3695 H3711 0.960 . S
H3696 C3680 0.931 . S
H3697 C3685 0.929 . S
H3698 C3686 0.960 . S
H3699 C3686 0.962 . S
H3700 C3686 0.960 . S
H3701 C3687 0.961 . S
H3702 C3687 0.961 . S
H3703 C3687 0.961 . S
H3704 C3688 0.931 . S
H3705 C3693 0.930 . S
H3706 C3694 0.956 . S
H3707 C3694 0.961 . S
H3708 C3694 0.961 . S
H3709 C3695 0.958 . S
H3710 C3695 0.961 . S
H3711 C3695 0.960 . S
C3712 C3713 1.391 . S
C3712 C3714 1.394 . S
C3712 H3728 0.931 . S
C3713 C3712 1.391 . S
C3713 C3717 1.376 . S
C3714 C3712 1.394 . S
C3714 C3715 1.369 . S
C3714 C3718 1.531 . S
C3715 C3714 1.369 . S
C3715 C3716 1.410 . S
C3715 C3723 1.503 . S
C3716 C3715 1.410 . S
C3716 C3717 1.392 . S
C3716 C3719 1.511 . S
C3717 C3713 1.376 . S
C3717 C3716 1.392 . S
C3717 H3729 0.929 . S
C3718 C3714 1.531 . S
C3718 H3730 0.960 . S
C3718 H3731 0.962 . S
C3718 H3732 0.960 . S
C3719 C3716 1.511 . S
C3719 H3733 0.961 . S
C3719 H3734 0.961 . S
C3719 H3735 0.961 . S
C3720 C3721 1.370 . S
C3720 C3722 1.363 . S
C3720 H3736 0.931 1_556 S
C3721 C3720 1.370 . S
C3721 C3725 1.408 . S
C3722 C3720 1.363 . S
C3722 C3723 1.370 . S
C3722 C3726 1.524 . S
C3723 C3715 1.503 . S
C3723 C3722 1.370 . S
C3723 C3724 1.403 . S
C3724 C3723 1.403 . S
C3724 C3725 1.404 . S
C3724 C3727 1.539 . S
C3725 C3721 1.408 . S
C3725 C3724 1.404 . S
C3725 H3737 0.930 . S
C3726 C3722 1.524 . S
C3726 H3738 0.956 . S
C3726 H3739 0.961 . S
C3726 H3740 0.961 1_556 S
C3727 C3724 1.539 . S
C3727 H3741 0.958 . S
C3727 H3742 0.961 . S
C3727 H3743 0.960 . S
H3728 C3712 0.931 . S
H3729 C3717 0.929 . S
H3730 C3718 0.960 . S
H3731 C3718 0.962 . S
H3732 C3718 0.960 . S
H3733 C3719 0.961 . S
H3734 C3719 0.961 . S
H3735 C3719 0.961 . S
H3736 C3720 0.931 1_554 S
H3737 C3725 0.930 . S
H3738 C3726 0.956 . S
H3739 C3726 0.961 . S
H3740 C3726 0.961 1_554 S
H3741 C3727 0.958 . S
H3742 C3727 0.961 . S
H3743 C3727 0.960 . S
C3744 C3745 1.391 . S
C3744 C3746 1.394 . S
C3744 H3760 0.931 . S
C3745 C3744 1.391 . S
C3745 C3749 1.376 . S
C3746 C3744 1.394 . S
C3746 C3747 1.369 . S
C3746 C3750 1.531 . S
C3747 C3746 1.369 . S
C3747 C3748 1.410 . S
C3747 C3755 1.503 . S
C3748 C3747 1.410 . S
C3748 C3749 1.392 . S
C3748 C3751 1.511 . S
C3749 C3745 1.376 . S
C3749 C3748 1.392 . S
C3749 H3761 0.929 . S
C3750 C3746 1.531 . S
C3750 H3762 0.960 . S
C3750 H3763 0.962 . S
C3750 H3764 0.960 . S
C3751 C3748 1.511 . S
C3751 H3765 0.961 . S
C3751 H3766 0.961 . S
C3751 H3767 0.961 . S
C3752 C3753 1.370 . S
C3752 C3754 1.363 . S
C3752 H3768 0.931 . S
C3753 C3752 1.370 . S
C3753 C3757 1.408 . S
C3754 C3752 1.363 . S
C3754 C3755 1.370 . S
C3754 C3758 1.524 . S
C3755 C3747 1.503 . S
C3755 C3754 1.370 . S
C3755 C3756 1.403 . S
C3756 C3755 1.403 . S
C3756 C3757 1.404 . S
C3756 C3759 1.539 . S
C3757 C3753 1.408 . S
C3757 C3756 1.404 . S
C3757 H3769 0.930 . S
C3758 C3754 1.524 . S
C3758 H3770 0.956 . S
C3758 H3771 0.961 . S
C3758 H3772 0.961 . S
C3759 C3756 1.539 . S
C3759 H3773 0.958 . S
C3759 H3774 0.961 . S
C3759 H3775 0.960 . S
H3760 C3744 0.931 . S
H3761 C3749 0.929 . S
H3762 C3750 0.960 . S
H3763 C3750 0.962 . S
H3764 C3750 0.960 . S
H3765 C3751 0.961 . S
H3766 C3751 0.961 . S
H3767 C3751 0.961 . S
H3768 C3752 0.931 . S
H3769 C3757 0.930 . S
H3770 C3758 0.956 . S
H3771 C3758 0.961 . S
H3772 C3758 0.961 . S
H3773 C3759 0.958 . S
H3774 C3759 0.961 . S
H3775 C3759 0.960 . S
C3776 C3777 1.391 . S
C3776 C3778 1.394 . S
C3776 H3792 0.931 . S
C3777 C3776 1.391 . S
C3777 C3781 1.376 1_545 S
C3778 C3776 1.394 . S
C3778 C3779 1.369 . S
C3778 C3782 1.531 . S
C3779 C3778 1.369 . S
C3779 C3780 1.410 1_545 S
C3779 C3787 1.503 . S
C3780 C3779 1.410 1_565 S
C3780 C3781 1.392 . S
C3780 C3783 1.511 . S
C3781 C3777 1.376 1_565 S
C3781 C3780 1.392 . S
C3781 H3793 0.929 . S
C3782 C3778 1.531 . S
C3782 H3794 0.960 . S
C3782 H3795 0.962 . S
C3782 H3796 0.960 . S
C3783 C3780 1.511 . S
C3783 H3797 0.961 . S
C3783 H3798 0.961 . S
C3783 H3799 0.961 . S
C3784 C3785 1.370 . S
C3784 C3786 1.363 . S
C3784 H3800 0.931 1_545 S
C3785 C3784 1.370 . S
C3785 C3789 1.408 . S
C3786 C3784 1.363 . S
C3786 C3787 1.370 . S
C3786 C3790 1.524 1_545 S
C3787 C3779 1.503 . S
C3787 C3786 1.370 . S
C3787 C3788 1.403 . S
C3788 C3787 1.403 . S
C3788 C3789 1.404 . S
C3788 C3791 1.539 . S
C3789 C3785 1.408 . S
C3789 C3788 1.404 . S
C3789 H3801 0.930 . S
C3790 C3786 1.524 1_565 S
C3790 H3802 0.956 . S
C3790 H3803 0.961 . S
C3790 H3804 0.961 . S
C3791 C3788 1.539 . S
C3791 H3805 0.958 . S
C3791 H3806 0.961 . S
C3791 H3807 0.960 . S
H3792 C3776 0.931 . S
H3793 C3781 0.929 . S
H3794 C3782 0.960 . S
H3795 C3782 0.962 . S
H3796 C3782 0.960 . S
H3797 C3783 0.961 . S
H3798 C3783 0.961 . S
H3799 C3783 0.961 . S
H3800 C3784 0.931 1_565 S
H3801 C3789 0.930 . S
H3802 C3790 0.956 . S
H3803 C3790 0.961 . S
H3804 C3790 0.961 . S
H3805 C3791 0.958 . S
H3806 C3791 0.961 . S
H3807 C3791 0.960 . S
C3808 C3809 1.391 . S
C3808 C3810 1.394 . S
C3808 H3824 0.931 . S
C3809 C3808 1.391 . S
C3809 C3813 1.376 . S
C3810 C3808 1.394 . S
C3810 C3811 1.369 . S
C3810 C3814 1.531 . S
C3811 C3810 1.369 . S
C3811 C3812 1.410 . S
C3811 C3819 1.503 . S
C3812 C3811 1.410 . S
C3812 C3813 1.392 . S
C3812 C3815 1.511 . S
C3813 C3809 1.376 . S
C3813 C3812 1.392 . S
C3813 H3825 0.929 . S
C3814 C3810 1.531 . S
C3814 H3826 0.960 . S
C3814 H3827 0.962 . S
C3814 H3828 0.960 . S
C3815 C3812 1.511 . S
C3815 H3829 0.961 . S
C3815 H3830 0.961 . S
C3815 H3831 0.961 . S
C3816 C3817 1.370 . S
C3816 C3818 1.363 . S
C3816 H3832 0.931 . S
C3817 C3816 1.370 . S
C3817 C3821 1.408 . S
C3818 C3816 1.363 . S
C3818 C3819 1.370 . S
C3818 C3822 1.524 . S
C3819 C3811 1.503 . S
C3819 C3818 1.370 . S
C3819 C3820 1.403 . S
C3820 C3819 1.403 . S
C3820 C3821 1.404 . S
C3820 C3823 1.539 . S
C3821 C3817 1.408 . S
C3821 C3820 1.404 . S
C3821 H3833 0.930 . S
C3822 C3818 1.524 . S
C3822 H3834 0.956 . S
C3822 H3835 0.961 . S
C3822 H3836 0.961 . S
C3823 C3820 1.539 . S
C3823 H3837 0.958 . S
C3823 H3838 0.961 . S
C3823 H3839 0.960 . S
H3824 C3808 0.931 . S
H3825 C3813 0.929 . S
H3826 C3814 0.960 . S
H3827 C3814 0.962 . S
H3828 C3814 0.960 . S
H3829 C3815 0.961 . S
H3830 C3815 0.961 . S
H3831 C3815 0.961 . S
H3832 C3816 0.931 . S
H3833 C3821 0.930 . S
H3834 C3822 0.956 . S
H3835 C3822 0.961 . S
H3836 C3822 0.961 . S
H3837 C3823 0.958 . S
H3838 C3823 0.961 . S
H3839 C3823 0.960 . S
C3840 C3841 1.391 . S
C3840 C3842 1.394 . S
C3840 H3856 0.931 . S
C3841 C3840 1.391 . S
C3841 C3845 1.376 . S
C3842 C3840 1.394 . S
C3842 C3843 1.369 . S
C3842 C3846 1.531 . S
C3843 C3842 1.369 . S
C3843 C3844 1.410 . S
C3843 C3851 1.503 . S
C3844 C3843 1.410 . S
C3844 C3845 1.392 . S
C3844 C3847 1.511 . S
C3845 C3841 1.376 . S
C3845 C3844 1.392 . S
C3845 H3857 0.929 . S
C3846 C3842 1.531 . S
C3846 H3858 0.929 1_545 S
C3846 H3859 0.962 . S
C3846 H3860 0.960 1_545 S
C3847 C3844 1.511 . S
C3847 H3861 0.961 . S
C3847 H3862 0.961 . S
C3847 H3863 0.961 . S
C3848 C3849 1.370 . S
C3848 C3850 1.363 . S
C3848 H3864 0.931 . S
C3849 C3848 1.370 . S
C3849 C3853 1.408 . S
C3850 C3848 1.363 . S
C3850 C3851 1.370 . S
C3850 C3854 1.524 . S
C3851 C3843 1.503 . S
C3851 C3850 1.370 . S
C3851 C3852 1.403 . S
C3852 C3851 1.403 . S
C3852 C3853 1.404 . S
C3852 C3855 1.539 1_545 S
C3853 C3849 1.408 . S
C3853 C3852 1.404 . S
C3853 H3865 0.930 . S
C3854 C3850 1.524 . S
C3854 H3866 0.956 . S
C3854 H3867 0.961 . S
C3854 H3868 0.961 . S
C3855 C3852 1.539 1_565 S
C3855 H3869 0.958 . S
C3855 H3870 0.961 . S
C3855 H3871 0.960 . S
H3856 C3840 0.931 . S
H3857 C3845 0.929 . S
H3858 C3846 0.929 1_565 S
H3859 C3846 0.962 . S
H3860 C3846 0.960 1_565 S
H3861 C3847 0.961 . S
H3862 C3847 0.961 . S
H3863 C3847 0.961 . S
H3864 C3848 0.931 . S
H3865 C3853 0.930 . S
H3866 C3854 0.956 . S
H3867 C3854 0.961 . S
H3868 C3854 0.961 . S
H3869 C3855 0.958 . S
H3870 C3855 0.961 . S
H3871 C3855 0.960 . S
C3872 C3873 1.391 . S
C3872 C3874 1.394 . S
C3872 H3888 0.931 . S
C3873 C3872 1.391 . S
C3873 C3877 1.376 . S
C3874 C3872 1.394 . S
C3874 C3875 1.369 . S
C3874 C3878 1.531 . S
C3875 C3874 1.369 . S
C3875 C3876 1.410 . S
C3875 C3883 1.503 . S
C3876 C3875 1.410 . S
C3876 C3877 1.392 . S
C3876 C3879 1.511 . S
C3877 C3873 1.376 . S
C3877 C3876 1.392 . S
C3877 H3889 0.929 . S
C3878 C3874 1.531 . S
C3878 H3890 0.960 . S
C3878 H3891 0.962 . S
C3878 H3892 0.960 . S
C3879 C3876 1.511 . S
C3879 H3893 0.961 . S
C3879 H3894 0.961 . S
C3879 H3895 0.961 . S
C3880 C3881 1.370 . S
C3880 C3882 1.363 . S
C3880 H3896 0.931 . S
C3881 C3880 1.370 . S
C3881 C3885 1.408 . S
C3882 C3880 1.363 . S
C3882 C3883 1.370 . S
C3882 C3886 1.524 . S
C3883 C3875 1.503 . S
C3883 C3882 1.370 . S
C3883 C3884 1.403 . S
C3884 C3883 1.403 . S
C3884 C3885 1.404 . S
C3884 C3887 1.539 . S
C3885 C3881 1.408 . S
C3885 C3884 1.404 . S
C3885 H3897 0.930 . S
C3886 C3882 1.524 . S
C3886 H3898 0.956 . S
C3886 H3899 0.961 . S
C3886 H3900 0.961 . S
C3887 C3884 1.539 . S
C3887 H3901 0.958 . S
C3887 H3902 0.961 . S
C3887 H3903 0.960 . S
H3888 C3872 0.931 . S
H3889 C3877 0.929 . S
H3890 C3878 0.960 . S
H3891 C3878 0.962 . S
H3892 C3878 0.960 . S
H3893 C3879 0.961 . S
H3894 C3879 0.961 . S
H3895 C3879 0.961 . S
H3896 C3880 0.931 . S
H3897 C3885 0.930 . S
H3898 C3886 0.956 . S
H3899 C3886 0.961 . S
H3900 C3886 0.961 . S
H3901 C3887 0.958 . S
H3902 C3887 0.961 . S
H3903 C3887 0.960 . S
C3904 C3905 1.391 1_545 S
C3904 C3906 1.394 . S
C3904 H3920 0.931 . S
C3905 C3904 1.391 1_565 S
C3905 C3909 1.376 . S
C3906 C3904 1.394 . S
C3906 C3907 1.387 . S
C3906 C3910 1.531 . S
C3907 C3906 1.387 . S
C3907 C3908 1.371 1_545 S
C3907 C3915 1.525 . S
C3908 C3907 1.371 1_565 S
C3908 C3909 1.392 . S
C3908 C3911 1.511 . S
C3909 C3905 1.376 . S
C3909 C3908 1.392 . S
C3909 H3921 0.929 . S
C3910 C3906 1.531 . S
C3910 H3922 0.960 . S
C3910 H3923 0.962 . S
C3910 H3924 0.960 . S
C3911 C3908 1.511 . S
C3911 H3925 0.961 . S
C3911 H3926 0.961 . S
C3911 H3927 0.961 . S
C3912 C3913 1.370 . S
C3912 C3914 1.363 . S
C3912 H3928 0.931 . S
C3913 C3912 1.370 . S
C3913 C3917 1.408 . S
C3914 C3912 1.363 . S
C3914 C3915 1.370 . S
C3914 C3918 1.524 . S
C3915 C3907 1.525 . S
C3915 C3914 1.370 . S
C3915 C3916 1.403 . S
C3916 C3915 1.403 . S
C3916 C3917 1.404 . S
C3916 C3919 1.539 . S
C3917 C3913 1.408 . S
C3917 C3916 1.404 . S
C3917 H3929 0.930 . S
C3918 C3914 1.524 . S
C3918 H3930 0.956 . S
C3918 H3931 0.961 1_545 S
C3918 H3932 0.961 . S
C3919 C3916 1.539 . S
C3919 H3933 0.958 . S
C3919 H3934 0.961 1_545 S
C3919 H3935 0.960 1_545 S
H3920 C3904 0.931 . S
H3921 C3909 0.929 . S
H3922 C3910 0.960 . S
H3923 C3910 0.962 . S
H3924 C3910 0.960 . S
H3925 C3911 0.961 . S
H3926 C3911 0.961 . S
H3927 C3911 0.961 . S
H3928 C3912 0.931 . S
H3929 C3917 0.930 . S
H3930 C3918 0.956 . S
H3931 C3918 0.961 1_565 S
H3932 C3918 0.961 . S
H3933 C3919 0.958 . S
H3934 C3919 0.961 1_565 S
H3935 C3919 0.960 1_565 S
C3936 C3937 1.391 . S
C3936 C3938 1.394 . S
C3936 H3952 0.931 . S
C3937 C3936 1.391 . S
C3937 C3941 1.376 . S
C3938 C3936 1.394 . S
C3938 C3939 1.369 . S
C3938 C3942 1.531 . S
C3939 C3938 1.369 . S
C3939 C3940 1.410 . S
C3939 C3947 1.503 . S
C3940 C3939 1.410 . S
C3940 C3941 1.392 . S
C3940 C3943 1.511 . S
C3941 C3937 1.376 . S
C3941 C3940 1.392 . S
C3941 H3953 0.929 . S
C3942 C3938 1.531 . S
C3942 H3954 0.960 . S
C3942 H3955 0.962 . S
C3942 H3956 0.960 . S
C3943 C3940 1.511 . S
C3943 H3957 0.961 . S
C3943 H3958 0.961 . S
C3943 H3959 0.961 . S
C3944 C3945 1.370 . S
C3944 C3946 1.363 . S
C3944 H3960 0.931 . S
C3945 C3944 1.370 . S
C3945 C3949 1.408 . S
C3946 C3944 1.363 . S
C3946 C3947 1.370 . S
C3946 C3950 1.524 . S
C3947 C3939 1.503 . S
C3947 C3946 1.370 . S
C3947 C3948 1.403 . S
C3948 C3947 1.403 . S
C3948 C3949 1.404 . S
C3948 C3951 1.539 . S
C3949 C3945 1.408 . S
C3949 C3948 1.404 . S
C3949 H3961 0.930 . S
C3950 C3946 1.524 . S
C3950 H3962 0.956 . S
C3950 H3963 0.961 . S
C3950 H3964 0.961 . S
C3951 C3948 1.539 . S
C3951 H3965 0.958 . S
C3951 H3966 0.961 . S
C3951 H3967 0.960 . S
H3952 C3936 0.931 . S
H3953 C3941 0.929 . S
H3954 C3942 0.960 . S
H3955 C3942 0.962 . S
H3956 C3942 0.960 . S
H3957 C3943 0.961 . S
H3958 C3943 0.961 . S
H3959 C3943 0.961 . S
H3960 C3944 0.931 . S
H3961 C3949 0.930 . S
H3962 C3950 0.956 . S
H3963 C3950 0.961 . S
H3964 C3950 0.961 . S
H3965 C3951 0.958 . S
H3966 C3951 0.961 . S
H3967 C3951 0.960 . S
C3968 C3969 1.391 . S
C3968 C3970 1.394 . S
C3968 H3984 0.931 . S
C3969 C3968 1.391 . S
C3969 C3973 1.376 1_545 S
C3970 C3968 1.394 . S
C3970 C3971 1.371 1_545 S
C3970 C3974 1.531 . S
C3971 C3970 1.371 1_565 S
C3971 C3972 1.407 . S
C3971 C3979 1.503 . S
C3972 C3971 1.407 . S
C3972 C3973 1.392 . S
C3972 C3975 1.511 . S
C3973 C3969 1.376 1_565 S
C3973 C3972 1.392 . S
C3973 H3985 0.929 . S
C3974 C3970 1.531 . S
C3974 H3986 0.960 . S
C3974 H3987 0.962 . S
C3974 H3988 0.960 . S
C3975 C3972 1.511 . S
C3975 H3989 0.961 . S
C3975 H3990 0.961 . S
C3975 H3991 0.961 . S
C3976 C3977 1.370 . S
C3976 C3978 1.363 . S
C3976 H3992 0.931 . S
C3977 C3976 1.370 . S
C3977 C3981 1.408 . S
C3978 C3976 1.363 . S
C3978 C3979 1.370 . S
C3978 C3982 1.524 . S
C3979 C3971 1.503 . S
C3979 C3978 1.370 . S
C3979 C3980 1.403 . S
C3980 C3979 1.403 . S
C3980 C3981 1.404 . S
C3980 C3983 1.539 . S
C3981 C3977 1.408 . S
C3981 C3980 1.404 . S
C3981 H3993 0.930 . S
C3982 C3978 1.524 . S
C3982 H3994 0.956 1_565 S
C3982 H3995 0.961 . S
C3982 H3996 0.961 . S
C3983 C3980 1.539 . S
C3983 H3997 0.958 1_565 S
C3983 H3998 0.961 . S
C3983 H3999 0.960 . S
H3984 C3968 0.931 . S
H3985 C3973 0.929 . S
H3986 C3974 0.960 . S
H3987 C3974 0.962 . S
H3988 C3974 0.960 . S
H3989 C3975 0.961 . S
H3990 C3975 0.961 . S
H3991 C3975 0.961 . S
H3992 C3976 0.931 . S
H3993 C3981 0.930 . S
H3994 C3982 0.956 1_545 S
H3995 C3982 0.961 . S
H3996 C3982 0.961 . S
H3997 C3983 0.958 1_545 S
H3998 C3983 0.961 . S
H3999 C3983 0.960 . S
C4000 C4001 1.391 . S
C4000 C4002 1.394 . S
C4000 H4016 0.931 . S
C4001 C4000 1.391 . S
C4001 C4005 1.376 . S
C4002 C4000 1.394 . S
C4002 C4003 1.369 . S
C4002 C4006 1.531 . S
C4003 C4002 1.369 . S
C4003 C4004 1.410 . S
C4003 C4011 1.503 . S
C4004 C4003 1.410 . S
C4004 C4005 1.392 . S
C4004 C4007 1.511 . S
C4005 C4001 1.376 . S
C4005 C4004 1.392 . S
C4005 H4017 0.929 . S
C4006 C4002 1.531 . S
C4006 H4018 0.960 . S
C4006 H4019 0.962 . S
C4006 H4020 0.960 . S
C4007 C4004 1.511 . S
C4007 H4021 0.961 . S
C4007 H4022 0.961 . S
C4007 H4023 0.961 . S
C4008 C4009 1.370 . S
C4008 C4010 1.363 . S
C4008 H4024 0.931 . S
C4009 C4008 1.370 . S
C4009 C4013 1.408 . S
C4010 C4008 1.363 . S
C4010 C4011 1.370 . S
C4010 C4014 1.524 . S
C4011 C4003 1.503 . S
C4011 C4010 1.370 . S
C4011 C4012 1.403 . S
C4012 C4011 1.403 . S
C4012 C4013 1.404 . S
C4012 C4015 1.539 . S
C4013 C4009 1.408 . S
C4013 C4012 1.404 . S
C4013 H4025 0.930 . S
C4014 C4010 1.524 . S
C4014 H4026 0.956 . S
C4014 H4027 0.961 . S
C4014 H4028 0.961 . S
C4015 C4012 1.539 . S
C4015 H4029 0.958 . S
C4015 H4030 0.961 . S
C4015 H4031 0.960 . S
H4016 C4000 0.931 . S
H4017 C4005 0.929 . S
H4018 C4006 0.960 . S
H4019 C4006 0.962 . S
H4020 C4006 0.960 . S
H4021 C4007 0.961 . S
H4022 C4007 0.961 . S
H4023 C4007 0.961 . S
H4024 C4008 0.931 . S
H4025 C4013 0.930 . S
H4026 C4014 0.956 . S
H4027 C4014 0.961 . S
H4028 C4014 0.961 . S
H4029 C4015 0.958 . S
H4030 C4015 0.961 . S
H4031 C4015 0.960 . S
C4032 C4033 1.391 1_556 S
C4032 C4034 1.394 . S
C4032 H4048 0.931 . S
C4033 C4032 1.391 1_554 S
C4033 C4037 1.376 . S
C4034 C4032 1.394 . S
C4034 C4035 1.369 . S
C4034 C4038 1.531 . S
C4035 C4034 1.369 . S
C4035 C4036 1.410 1_556 S
C4035 C4043 1.503 . S
C4036 C4035 1.410 1_554 S
C4036 C4037 1.392 . S
C4036 C4039 1.511 . S
C4037 C4033 1.376 . S
C4037 C4036 1.392 . S
C4037 H4049 0.929 . S
C4038 C4034 1.531 . S
C4038 H4050 0.960 . S
C4038 H4051 0.962 . S
C4038 H4052 0.960 . S
C4039 C4036 1.511 . S
C4039 H4053 0.961 . S
C4039 H4054 0.961 . S
C4039 H4055 0.961 . S
C4040 C4041 1.370 . S
C4040 C4042 1.363 . S
C4040 H4056 0.931 . S
C4041 C4040 1.370 . S
C4041 C4045 1.408 . S
C4042 C4040 1.363 . S
C4042 C4043 1.370 . S
C4042 C4046 1.524 . S
C4043 C4035 1.503 . S
C4043 C4042 1.370 . S
C4043 C4044 1.403 1_556 S
C4044 C4043 1.403 1_554 S
C4044 C4045 1.404 1_554 S
C4044 C4047 1.539 . S
C4045 C4041 1.408 . S
C4045 C4044 1.404 1_556 S
C4045 H4057 0.930 1_556 S
C4046 C4042 1.524 . S
C4046 H4058 0.956 . S
C4046 H4059 0.961 . S
C4046 H4060 0.961 . S
C4047 C4044 1.539 . S
C4047 H4061 0.958 . S
C4047 H4062 0.961 . S
C4047 H4063 0.960 . S
H4048 C4032 0.931 . S
H4049 C4037 0.929 . S
H4050 C4038 0.960 . S
H4051 C4038 0.962 . S
H4052 C4038 0.960 . S
H4053 C4039 0.961 . S
H4054 C4039 0.961 . S
H4055 C4039 0.961 . S
H4056 C4040 0.931 . S
H4057 C4045 0.930 1_554 S
H4058 C4046 0.956 . S
H4059 C4046 0.961 . S
H4060 C4046 0.961 . S
H4061 C4047 0.958 . S
H4062 C4047 0.961 . S
H4063 C4047 0.960 . S
C4064 C4065 1.391 . S
C4064 C4066 1.394 . S
C4064 H4080 0.931 . S
C4065 C4064 1.391 . S
C4065 C4069 1.376 . S
C4066 C4064 1.394 . S
C4066 C4067 1.369 . S
C4066 C4070 1.531 . S
C4067 C4066 1.369 . S
C4067 C4068 1.410 . S
C4067 C4075 1.503 . S
C4068 C4067 1.410 . S
C4068 C4069 1.392 . S
C4068 C4071 1.511 . S
C4069 C4065 1.376 . S
C4069 C4068 1.392 . S
C4069 H4081 0.929 . S
C4070 C4066 1.531 . S
C4070 H4082 0.960 . S
C4070 H4083 0.962 . S
C4070 H4084 0.960 . S
C4071 C4068 1.511 . S
C4071 H4085 0.961 . S
C4071 H4086 0.961 . S
C4071 H4087 0.898 1_554 S
C4072 C4073 1.370 . S
C4072 C4074 1.363 . S
C4072 H4088 0.931 . S
C4073 C4072 1.370 . S
C4073 C4077 1.408 1_554 S
C4074 C4072 1.363 . S
C4074 C4075 1.370 . S
C4074 C4078 1.524 . S
C4075 C4067 1.503 . S
C4075 C4074 1.370 . S
C4075 C4076 1.403 1_554 S
C4076 C4075 1.403 1_556 S
C4076 C4077 1.404 . S
C4076 C4079 1.539 . S
C4077 C4073 1.408 1_556 S
C4077 C4076 1.404 . S
C4077 H4089 0.930 . S
C4078 C4074 1.524 . S
C4078 H4090 0.956 . S
C4078 H4091 0.961 . S
C4078 H4092 0.961 . S
C4079 C4076 1.539 . S
C4079 H4093 0.958 . S
C4079 H4094 0.961 . S
C4079 H4095 0.960 . S
H4080 C4064 0.931 . S
H4081 C4069 0.929 . S
H4082 C4070 0.960 . S
H4083 C4070 0.962 . S
H4084 C4070 0.960 . S
H4085 C4071 0.961 . S
H4086 C4071 0.961 . S
H4087 C4071 0.898 1_556 S
H4088 C4072 0.931 . S
H4089 C4077 0.930 . S
H4090 C4078 0.956 . S
H4091 C4078 0.961 . S
H4092 C4078 0.961 . S
H4093 C4079 0.958 . S
H4094 C4079 0.961 . S
H4095 C4079 0.960 . S
C4096 C4097 1.391 . S
C4096 C4098 1.394 . S
C4096 H4112 0.931 . S
C4097 C4096 1.391 . S
C4097 C4101 1.376 . S
C4098 C4096 1.394 . S
C4098 C4099 1.369 . S
C4098 C4102 1.531 . S
C4099 C4098 1.369 . S
C4099 C4100 1.410 . S
C4099 C4107 1.503 . S
C4100 C4099 1.410 . S
C4100 C4101 1.392 . S
C4100 C4103 1.511 . S
C4101 C4097 1.376 . S
C4101 C4100 1.392 . S
C4101 H4113 0.929 . S
C4102 C4098 1.531 . S
C4102 H4114 0.960 . S
C4102 H4115 0.962 . S
C4102 H4116 0.960 . S
C4103 C4100 1.511 . S
C4103 H4117 0.961 . S
C4103 H4118 0.961 . S
C4103 H4119 0.961 . S
C4104 C4105 1.370 . S
C4104 C4106 1.363 . S
C4104 H4120 0.931 . S
C4105 C4104 1.370 . S
C4105 C4109 1.408 . S
C4106 C4104 1.363 . S
C4106 C4107 1.370 . S
C4106 C4110 1.524 . S
C4107 C4099 1.503 . S
C4107 C4106 1.370 . S
C4107 C4108 1.403 . S
C4108 C4107 1.403 . S
C4108 C4109 1.404 . S
C4108 C4111 1.539 . S
C4109 C4105 1.408 . S
C4109 C4108 1.404 . S
C4109 H4121 0.930 . S
C4110 C4106 1.524 . S
C4110 H4122 0.956 . S
C4110 H4123 0.961 . S
C4110 H4124 0.961 . S
C4111 C4108 1.539 . S
C4111 H4125 0.958 . S
C4111 H4126 0.961 . S
C4111 H4127 0.960 . S
H4112 C4096 0.931 . S
H4113 C4101 0.929 . S
H4114 C4102 0.960 . S
H4115 C4102 0.962 . S
H4116 C4102 0.960 . S
H4117 C4103 0.961 . S
H4118 C4103 0.961 . S
H4119 C4103 0.961 . S
H4120 C4104 0.931 . S
H4121 C4109 0.930 . S
H4122 C4110 0.956 . S
H4123 C4110 0.961 . S
H4124 C4110 0.961 . S
H4125 C4111 0.958 . S
H4126 C4111 0.961 . S
H4127 C4111 0.960 . S
C4128 C4129 1.391 . S
C4128 C4130 1.394 . S
C4128 H4144 0.931 . S
C4129 C4128 1.391 . S
C4129 C4133 1.376 . S
C4130 C4128 1.394 . S
C4130 C4131 1.369 . S
C4130 C4134 1.531 . S
C4131 C4130 1.369 . S
C4131 C4132 1.410 . S
C4131 C4139 1.503 . S
C4132 C4131 1.410 . S
C4132 C4133 1.392 . S
C4132 C4135 1.511 . S
C4133 C4129 1.376 . S
C4133 C4132 1.392 . S
C4133 H4145 0.929 . S
C4134 C4130 1.531 . S
C4134 H4146 0.960 . S
C4134 H4147 0.962 . S
C4134 H4148 0.960 . S
C4135 C4132 1.511 . S
C4135 H4149 0.961 . S
C4135 H4150 0.961 . S
C4135 H4151 0.961 . S
C4136 C4137 1.370 . S
C4136 C4138 1.363 . S
C4136 H4152 0.931 . S
C4137 C4136 1.370 . S
C4137 C4141 1.408 . S
C4138 C4136 1.363 . S
C4138 C4139 1.370 . S
C4138 C4142 1.524 . S
C4139 C4131 1.503 . S
C4139 C4138 1.370 . S
C4139 C4140 1.403 . S
C4140 C4139 1.403 . S
C4140 C4141 1.404 . S
C4140 C4143 1.539 . S
C4141 C4137 1.408 . S
C4141 C4140 1.404 . S
C4141 H4153 0.930 . S
C4142 C4138 1.524 . S
C4142 H4154 0.956 . S
C4142 H4155 0.961 . S
C4142 H4156 0.961 . S
C4143 C4140 1.539 . S
C4143 H4157 0.958 . S
C4143 H4158 0.961 . S
C4143 H4159 0.960 . S
H4144 C4128 0.931 . S
H4145 C4133 0.929 . S
H4146 C4134 0.960 . S
H4147 C4134 0.962 . S
H4148 C4134 0.960 . S
H4149 C4135 0.961 . S
H4150 C4135 0.961 . S
H4151 C4135 0.961 . S
H4152 C4136 0.931 . S
H4153 C4141 0.930 . S
H4154 C4142 0.956 . S
H4155 C4142 0.961 . S
H4156 C4142 0.961 . S
H4157 C4143 0.958 . S
H4158 C4143 0.961 . S
H4159 C4143 0.960 . S
C4160 C4161 1.391 . S
C4160 C4162 1.394 . S
C4160 H4176 0.931 . S
C4161 C4160 1.391 . S
C4161 C4165 1.376 . S
C4162 C4160 1.394 . S
C4162 C4163 1.369 . S
C4162 C4166 1.531 . S
C4163 C4162 1.369 . S
C4163 C4164 1.410 . S
C4163 C4171 1.503 . S
C4164 C4163 1.410 . S
C4164 C4165 1.392 . S
C4164 C4167 1.511 . S
C4165 C4161 1.376 . S
C4165 C4164 1.392 . S
C4165 H4177 0.929 . S
C4166 C4162 1.531 . S
C4166 H4178 0.960 . S
C4166 H4179 0.962 . S
C4166 H4180 0.960 . S
C4167 C4164 1.511 . S
C4167 H4181 0.961 . S
C4167 H4182 0.961 . S
C4167 H4183 0.961 . S
C4168 C4169 1.370 . S
C4168 C4170 1.363 . S
C4168 H4184 0.931 . S
C4169 C4168 1.370 . S
C4169 C4173 1.408 . S
C4170 C4168 1.363 . S
C4170 C4171 1.370 . S
C4170 C4174 1.524 . S
C4171 C4163 1.503 . S
C4171 C4170 1.370 . S
C4171 C4172 1.403 . S
C4172 C4171 1.403 . S
C4172 C4173 1.404 . S
C4172 C4175 1.539 . S
C4173 C4169 1.408 . S
C4173 C4172 1.404 . S
C4173 H4185 0.930 . S
C4174 C4170 1.524 . S
C4174 H4186 0.956 . S
C4174 H4187 0.961 . S
C4174 H4188 0.961 . S
C4175 C4172 1.539 . S
C4175 H4189 0.958 . S
C4175 H4190 0.961 . S
C4175 H4191 0.960 . S
H4176 C4160 0.931 . S
H4177 C4165 0.929 . S
H4178 C4166 0.960 . S
H4179 C4166 0.962 . S
H4180 C4166 0.960 . S
H4181 C4167 0.961 . S
H4182 C4167 0.961 . S
H4183 C4167 0.961 . S
H4184 C4168 0.931 . S
H4185 C4173 0.930 . S
H4186 C4174 0.956 . S
H4187 C4174 0.961 . S
H4188 C4174 0.961 . S
H4189 C4175 0.958 . S
H4190 C4175 0.961 . S
H4191 C4175 0.960 . S
C4192 C4193 1.391 . S
C4192 C4194 1.394 . S
C4192 H4208 0.931 . S
C4193 C4192 1.391 . S
C4193 C4197 1.376 . S
C4194 C4192 1.394 . S
C4194 C4195 1.369 . S
C4194 C4198 1.531 . S
C4195 C4194 1.369 . S
C4195 C4196 1.410 . S
C4195 C4203 1.503 . S
C4196 C4195 1.410 . S
C4196 C4197 1.392 . S
C4196 C4199 1.511 . S
C4197 C4193 1.376 . S
C4197 C4196 1.392 . S
C4197 H4209 0.929 . S
C4198 C4194 1.531 . S
C4198 H4210 0.960 . S
C4198 H4211 0.962 . S
C4198 H4212 0.960 . S
C4199 C4196 1.511 . S
C4199 H4213 0.961 . S
C4199 H4214 0.961 . S
C4199 H4215 0.961 . S
C4200 C4201 1.370 . S
C4200 C4202 1.363 . S
C4200 H4216 0.931 . S
C4201 C4200 1.370 . S
C4201 C4205 1.408 . S
C4202 C4200 1.363 . S
C4202 C4203 1.370 . S
C4202 C4206 1.524 . S
C4203 C4195 1.503 . S
C4203 C4202 1.370 . S
C4203 C4204 1.403 . S
C4204 C4203 1.403 . S
C4204 C4205 1.404 . S
C4204 C4207 1.539 . S
C4205 C4201 1.408 . S
C4205 C4204 1.404 . S
C4205 H4217 0.930 . S
C4206 C4202 1.524 . S
C4206 H4218 0.956 . S
C4206 H4219 0.961 . S
C4206 H4220 0.961 . S
C4207 C4204 1.539 . S
C4207 H4221 0.958 . S
C4207 H4222 0.961 . S
C4207 H4223 0.960 . S
H4208 C4192 0.931 . S
H4209 C4197 0.929 . S
H4210 C4198 0.960 . S
H4211 C4198 0.962 . S
H4212 C4198 0.960 . S
H4213 C4199 0.961 . S
H4214 C4199 0.961 . S
H4215 C4199 0.961 . S
H4216 C4200 0.931 . S
H4217 C4205 0.930 . S
H4218 C4206 0.956 . S
H4219 C4206 0.961 . S
H4220 C4206 0.961 . S
H4221 C4207 0.958 . S
H4222 C4207 0.961 . S
H4223 C4207 0.960 . S
C4224 C4225 1.391 . S
C4224 C4226 1.394 . S
C4224 H4240 0.931 . S
C4225 C4224 1.391 . S
C4225 C4229 1.376 . S
C4226 C4224 1.394 . S
C4226 C4227 1.369 . S
C4226 C4230 1.531 . S
C4227 C4226 1.369 . S
C4227 C4228 1.410 . S
C4227 C4235 1.503 . S
C4228 C4227 1.410 . S
C4228 C4229 1.392 . S
C4228 C4231 1.511 . S
C4229 C4225 1.376 . S
C4229 C4228 1.392 . S
C4229 H4241 0.929 . S
C4230 C4226 1.531 . S
C4230 H4242 0.960 . S
C4230 H4243 0.962 . S
C4230 H4244 0.960 . S
C4231 C4228 1.511 . S
C4231 H4245 0.961 . S
C4231 H4246 0.961 . S
C4231 H4247 0.961 . S
C4232 C4233 1.370 . S
C4232 C4234 1.363 . S
C4232 H4248 0.931 . S
C4233 C4232 1.370 . S
C4233 C4237 1.408 . S
C4234 C4232 1.363 . S
C4234 C4235 1.370 . S
C4234 C4238 1.524 . S
C4235 C4227 1.503 . S
C4235 C4234 1.370 . S
C4235 C4236 1.403 . S
C4236 C4235 1.403 . S
C4236 C4237 1.404 . S
C4236 C4239 1.539 . S
C4237 C4233 1.408 . S
C4237 C4236 1.404 . S
C4237 H4249 0.930 . S
C4238 C4234 1.524 . S
C4238 H4250 0.956 . S
C4238 H4251 0.961 . S
C4238 H4252 0.961 . S
C4239 C4236 1.539 . S
C4239 H4253 0.958 . S
C4239 H4254 0.961 . S
C4239 H4255 0.960 . S
H4240 C4224 0.931 . S
H4241 C4229 0.929 . S
H4242 C4230 0.960 . S
H4243 C4230 0.962 . S
H4244 C4230 0.960 . S
H4245 C4231 0.961 . S
H4246 C4231 0.961 . S
H4247 C4231 0.961 . S
H4248 C4232 0.931 . S
H4249 C4237 0.930 . S
H4250 C4238 0.956 . S
H4251 C4238 0.961 . S
H4252 C4238 0.961 . S
H4253 C4239 0.958 . S
H4254 C4239 0.961 . S
H4255 C4239 0.960 . S
C4256 C4257 1.391 . S
C4256 C4258 1.394 . S
C4256 H4272 0.931 . S
C4257 C4256 1.391 . S
C4257 C4261 1.376 . S
C4258 C4256 1.394 . S
C4258 C4259 1.369 . S
C4258 C4262 1.531 . S
C4259 C4258 1.369 . S
C4259 C4260 1.410 . S
C4259 C4267 1.503 . S
C4260 C4259 1.410 . S
C4260 C4261 1.392 . S
C4260 C4263 1.511 . S
C4261 C4257 1.376 . S
C4261 C4260 1.392 . S
C4261 H4273 0.929 . S
C4262 C4258 1.531 . S
C4262 H4274 0.960 . S
C4262 H4275 0.962 . S
C4262 H4276 0.960 . S
C4263 C4260 1.511 . S
C4263 H4277 0.961 . S
C4263 H4278 0.961 . S
C4263 H4279 0.961 . S
C4264 C4265 1.370 . S
C4264 C4266 1.363 . S
C4264 H4280 0.931 . S
C4265 C4264 1.370 . S
C4265 C4269 1.408 . S
C4266 C4264 1.363 . S
C4266 C4267 1.370 . S
C4266 C4270 1.524 . S
C4267 C4259 1.503 . S
C4267 C4266 1.370 . S
C4267 C4268 1.403 . S
C4268 C4267 1.403 . S
C4268 C4269 1.404 . S
C4268 C4271 1.539 . S
C4269 C4265 1.408 . S
C4269 C4268 1.404 . S
C4269 H4281 0.930 . S
C4270 C4266 1.524 . S
C4270 H4282 0.956 . S
C4270 H4283 0.961 . S
C4270 H4284 0.961 . S
C4271 C4268 1.539 . S
C4271 H4285 0.958 . S
C4271 H4286 0.961 . S
C4271 H4287 0.960 . S
H4272 C4256 0.931 . S
H4273 C4261 0.929 . S
H4274 C4262 0.960 . S
H4275 C4262 0.962 . S
H4276 C4262 0.960 . S
H4277 C4263 0.961 . S
H4278 C4263 0.961 . S
H4279 C4263 0.961 . S
H4280 C4264 0.931 . S
H4281 C4269 0.930 . S
H4282 C4270 0.956 . S
H4283 C4270 0.961 . S
H4284 C4270 0.961 . S
H4285 C4271 0.958 . S
H4286 C4271 0.961 . S
H4287 C4271 0.960 . S
C4288 C4289 1.391 . S
C4288 C4290 1.394 . S
C4288 H4304 0.931 . S
C4289 C4288 1.391 . S
C4289 C4293 1.376 . S
C4290 C4288 1.394 . S
C4290 C4291 1.369 . S
C4290 C4294 1.531 . S
C4291 C4290 1.369 . S
C4291 C4292 1.410 . S
C4291 C4299 1.503 . S
C4292 C4291 1.410 . S
C4292 C4293 1.392 . S
C4292 C4295 1.511 . S
C4293 C4289 1.376 . S
C4293 C4292 1.392 . S
C4293 H4305 0.929 . S
C4294 C4290 1.531 . S
C4294 H4306 0.960 . S
C4294 H4307 0.962 . S
C4294 H4308 0.960 . S
C4295 C4292 1.511 . S
C4295 H4309 0.961 . S
C4295 H4310 0.961 . S
C4295 H4311 0.961 . S
C4296 C4297 1.370 . S
C4296 C4298 1.363 . S
C4296 H4312 0.931 . S
C4297 C4296 1.370 . S
C4297 C4301 1.408 . S
C4298 C4296 1.363 . S
C4298 C4299 1.370 . S
C4298 C4302 1.524 . S
C4299 C4291 1.503 . S
C4299 C4298 1.370 . S
C4299 C4300 1.403 . S
C4300 C4299 1.403 . S
C4300 C4301 1.404 . S
C4300 C4303 1.539 . S
C4301 C4297 1.408 . S
C4301 C4300 1.404 . S
C4301 H4313 0.930 . S
C4302 C4298 1.524 . S
C4302 H4314 0.956 . S
C4302 H4315 0.961 . S
C4302 H4316 0.961 . S
C4303 C4300 1.539 . S
C4303 H4317 0.958 . S
C4303 H4318 0.961 . S
C4303 H4319 0.960 . S
H4304 C4288 0.931 . S
H4305 C4293 0.929 . S
H4306 C4294 0.960 . S
H4307 C4294 0.962 . S
H4308 C4294 0.960 . S
H4309 C4295 0.961 . S
H4310 C4295 0.961 . S
H4311 C4295 0.961 . S
H4312 C4296 0.931 . S
H4313 C4301 0.930 . S
H4314 C4302 0.956 . S
H4315 C4302 0.961 . S
H4316 C4302 0.961 . S
H4317 C4303 0.958 . S
H4318 C4303 0.961 . S
H4319 C4303 0.960 . S
C4320 C4321 1.391 . S
C4320 C4322 1.394 . S
C4320 H4336 0.931 . S
C4321 C4320 1.391 . S
C4321 C4325 1.376 . S
C4322 C4320 1.394 . S
C4322 C4323 1.369 . S
C4322 C4326 1.531 . S
C4323 C4322 1.369 . S
C4323 C4324 1.410 . S
C4323 C4331 1.503 . S
C4324 C4323 1.410 . S
C4324 C4325 1.392 . S
C4324 C4327 1.511 . S
C4325 C4321 1.376 . S
C4325 C4324 1.392 . S
C4325 H4337 0.929 . S
C4326 C4322 1.531 . S
C4326 H4338 0.960 . S
C4326 H4339 0.962 . S
C4326 H4340 0.960 . S
C4327 C4324 1.511 . S
C4327 H4341 0.961 . S
C4327 H4342 0.961 . S
C4327 H4343 0.961 . S
C4328 C4329 1.370 . S
C4328 C4330 1.363 . S
C4328 H4344 0.931 . S
C4329 C4328 1.370 . S
C4329 C4333 1.408 . S
C4330 C4328 1.363 . S
C4330 C4331 1.370 . S
C4330 C4334 1.524 . S
C4331 C4323 1.503 . S
C4331 C4330 1.370 . S
C4331 C4332 1.403 . S
C4332 C4331 1.403 . S
C4332 C4333 1.404 . S
C4332 C4335 1.539 . S
C4333 C4329 1.408 . S
C4333 C4332 1.404 . S
C4333 H4345 0.930 . S
C4334 C4330 1.524 . S
C4334 H4346 0.956 . S
C4334 H4347 0.961 . S
C4334 H4348 0.961 . S
C4335 C4332 1.539 . S
C4335 H4349 0.958 . S
C4335 H4350 0.961 . S
C4335 H4351 0.960 . S
H4336 C4320 0.931 . S
H4337 C4325 0.929 . S
H4338 C4326 0.960 . S
H4339 C4326 0.962 . S
H4340 C4326 0.960 . S
H4341 C4327 0.961 . S
H4342 C4327 0.961 . S
H4343 C4327 0.961 . S
H4344 C4328 0.931 . S
H4345 C4333 0.930 . S
H4346 C4334 0.956 . S
H4347 C4334 0.961 . S
H4348 C4334 0.961 . S
H4349 C4335 0.958 . S
H4350 C4335 0.961 . S
H4351 C4335 0.960 . S
C4352 C4353 1.391 . S
C4352 C4354 1.394 . S
C4352 H4368 0.931 . S
C4353 C4352 1.391 . S
C4353 C4357 1.376 . S
C4354 C4352 1.394 . S
C4354 C4355 1.369 . S
C4354 C4358 1.531 1_556 S
C4355 C4354 1.369 . S
C4355 C4356 1.410 . S
C4355 C4363 1.503 . S
C4356 C4355 1.410 . S
C4356 C4357 1.392 . S
C4356 C4359 1.511 . S
C4357 C4353 1.376 . S
C4357 C4356 1.392 . S
C4357 H4369 0.929 . S
C4358 C4354 1.531 1_554 S
C4358 H4370 0.960 . S
C4358 H4371 0.962 1_454 S
C4358 H4372 0.960 1_455 S
C4359 C4356 1.511 . S
C4359 H4373 0.961 . S
C4359 H4374 0.961 . S
C4359 H4375 0.961 . S
C4360 C4361 1.370 1_556 S
C4360 C4362 1.363 . S
C4360 H4376 0.931 . S
C4361 C4360 1.370 1_554 S
C4361 C4365 1.408 . S
C4362 C4360 1.363 . S
C4362 C4363 1.370 . S
C4362 C4366 1.524 . S
C4363 C4355 1.503 . S
C4363 C4362 1.370 . S
C4363 C4364 1.403 1_556 S
C4364 C4363 1.403 1_554 S
C4364 C4365 1.404 . S
C4364 C4367 1.539 . S
C4365 C4361 1.408 . S
C4365 C4364 1.404 . S
C4365 H4377 0.930 . S
C4366 C4362 1.524 . S
C4366 H4378 0.956 . S
C4366 H4379 0.961 . S
C4366 H4380 0.961 . S
C4367 C4364 1.539 . S
C4367 H4381 0.958 . S
C4367 H4382 0.961 . S
C4367 H4383 0.960 . S
H4368 C4352 0.931 . S
H4369 C4357 0.929 . S
H4370 C4358 0.960 . S
H4371 C4358 0.962 1_656 S
H4372 C4358 0.960 1_655 S
H4373 C4359 0.961 . S
H4374 C4359 0.961 . S
H4375 C4359 0.961 . S
H4376 C4360 0.931 . S
H4377 C4365 0.930 . S
H4378 C4366 0.956 . S
H4379 C4366 0.961 . S
H4380 C4366 0.961 . S
H4381 C4367 0.958 . S
H4382 C4367 0.961 . S
H4383 C4367 0.960 . S
C4384 C4385 1.391 . S
C4384 C4386 1.394 . S
C4384 H4400 0.931 . S
C4385 C4384 1.391 . S
C4385 C4389 1.376 . S
C4386 C4384 1.394 . S
C4386 C4387 1.369 . S
C4386 C4390 1.531 . S
C4387 C4386 1.369 . S
C4387 C4388 1.410 . S
C4387 C4395 1.503 . S
C4388 C4387 1.410 . S
C4388 C4389 1.392 . S
C4388 C4391 1.511 . S
C4389 C4385 1.376 . S
C4389 C4388 1.392 . S
C4389 H4401 0.929 . S
C4390 C4386 1.531 . S
C4390 H4402 0.960 . S
C4390 H4403 0.962 . S
C4390 H4404 0.960 . S
C4391 C4388 1.511 . S
C4391 H4405 0.961 . S
C4391 H4406 0.961 . S
C4391 H4407 0.961 . S
C4392 C4393 1.370 . S
C4392 C4394 1.363 . S
C4392 H4408 0.931 . S
C4393 C4392 1.370 . S
C4393 C4397 1.408 . S
C4394 C4392 1.363 . S
C4394 C4395 1.370 . S
C4394 C4398 1.524 . S
C4395 C4387 1.503 . S
C4395 C4394 1.370 . S
C4395 C4396 1.403 . S
C4396 C4395 1.403 . S
C4396 C4397 1.404 . S
C4396 C4399 1.539 . S
C4397 C4393 1.408 . S
C4397 C4396 1.404 . S
C4397 H4409 0.930 . S
C4398 C4394 1.524 . S
C4398 H4410 0.956 . S
C4398 H4411 0.961 . S
C4398 H4412 0.961 . S
C4399 C4396 1.539 . S
C4399 H4413 0.958 . S
C4399 H4414 0.961 . S
C4399 H4415 0.960 . S
H4400 C4384 0.931 . S
H4401 C4389 0.929 . S
H4402 C4390 0.960 . S
H4403 C4390 0.962 . S
H4404 C4390 0.960 . S
H4405 C4391 0.961 . S
H4406 C4391 0.961 . S
H4407 C4391 0.961 . S
H4408 C4392 0.931 . S
H4409 C4397 0.930 . S
H4410 C4398 0.956 . S
H4411 C4398 0.961 . S
H4412 C4398 0.961 . S
H4413 C4399 0.958 . S
H4414 C4399 0.961 . S
H4415 C4399 0.960 . S
C4416 C4417 1.391 . S
C4416 C4418 1.394 . S
C4416 H4432 0.931 . S
C4417 C4416 1.391 . S
C4417 C4421 1.376 . S
C4418 C4416 1.394 . S
C4418 C4419 1.369 . S
C4418 C4422 1.531 . S
C4419 C4418 1.369 . S
C4419 C4420 1.410 . S
C4419 C4427 1.503 . S
C4420 C4419 1.410 . S
C4420 C4421 1.392 . S
C4420 C4423 1.511 . S
C4421 C4417 1.376 . S
C4421 C4420 1.392 . S
C4421 H4433 0.929 . S
C4422 C4418 1.531 . S
C4422 H4434 0.960 . S
C4422 H4435 0.962 . S
C4422 H4436 0.960 . S
C4423 C4420 1.511 . S
C4423 H4437 0.961 . S
C4423 H4438 0.961 . S
C4423 H4439 0.961 . S
C4424 C4425 1.370 . S
C4424 C4426 1.363 . S
C4424 H4440 0.931 . S
C4425 C4424 1.370 . S
C4425 C4429 1.408 . S
C4426 C4424 1.363 . S
C4426 C4427 1.370 . S
C4426 C4430 1.524 . S
C4427 C4419 1.503 . S
C4427 C4426 1.370 . S
C4427 C4428 1.403 . S
C4428 C4427 1.403 . S
C4428 C4429 1.404 . S
C4428 C4431 1.539 . S
C4429 C4425 1.408 . S
C4429 C4428 1.404 . S
C4429 H4441 0.930 . S
C4430 C4426 1.524 . S
C4430 H4442 0.956 . S
C4430 H4443 0.961 . S
C4430 H4444 0.961 . S
C4431 C4428 1.539 . S
C4431 H4445 0.958 . S
C4431 H4446 0.961 . S
C4431 H4447 0.960 . S
H4432 C4416 0.931 . S
H4433 C4421 0.929 . S
H4434 C4422 0.960 . S
H4435 C4422 0.962 . S
H4436 C4422 0.960 . S
H4437 C4423 0.961 . S
H4438 C4423 0.961 . S
H4439 C4423 0.961 . S
H4440 C4424 0.931 . S
H4441 C4429 0.930 . S
H4442 C4430 0.956 . S
H4443 C4430 0.961 . S
H4444 C4430 0.961 . S
H4445 C4431 0.958 . S
H4446 C4431 0.961 . S
H4447 C4431 0.960 . S
C4448 C4449 1.391 . S
C4448 C4450 1.394 . S
C4448 H4464 0.901 1_655 S
C4449 C4448 1.391 . S
C4449 C4453 1.376 . S
C4450 C4448 1.394 . S
C4450 C4451 1.369 . S
C4450 C4454 1.531 . S
C4451 C4450 1.369 . S
C4451 C4452 1.410 . S
C4451 C4459 1.503 . S
C4452 C4451 1.410 . S
C4452 C4453 1.392 . S
C4452 C4455 1.511 . S
C4453 C4449 1.376 . S
C4453 C4452 1.392 . S
C4453 H4465 0.929 . S
C4454 C4450 1.531 . S
C4454 H4466 0.960 . S
C4454 H4467 0.962 . S
C4454 H4468 0.960 . S
C4455 C4452 1.511 . S
C4455 H4469 0.961 . S
C4455 H4470 0.961 . S
C4455 H4471 0.961 . S
C4456 C4457 1.370 . S
C4456 C4458 1.363 . S
C4456 H4472 0.931 . S
C4457 C4456 1.370 . S
C4457 C4461 1.408 . S
C4458 C4456 1.363 . S
C4458 C4459 1.370 . S
C4458 C4462 1.524 . S
C4459 C4451 1.503 . S
C4459 C4458 1.370 . S
C4459 C4460 1.403 . S
C4460 C4459 1.403 . S
C4460 C4461 1.404 . S
C4460 C4463 1.539 . S
C4461 C4457 1.408 . S
C4461 C4460 1.404 . S
C4461 H4473 0.930 . S
C4462 C4458 1.524 . S
C4462 H4474 0.956 . S
C4462 H4475 0.961 . S
C4462 H4476 0.961 . S
C4463 C4460 1.539 . S
C4463 H4477 0.958 . S
C4463 H4478 0.961 . S
C4463 H4479 0.960 . S
H4464 C4448 0.901 1_455 S
H4465 C4453 0.929 . S
H4466 C4454 0.960 . S
H4467 C4454 0.962 . S
H4468 C4454 0.960 . S
H4469 C4455 0.961 . S
H4470 C4455 0.961 . S
H4471 C4455 0.961 . S
H4472 C4456 0.931 . S
H4473 C4461 0.930 . S
H4474 C4462 0.956 . S
H4475 C4462 0.961 . S
H4476 C4462 0.961 . S
H4477 C4463 0.958 . S
H4478 C4463 0.961 . S
H4479 C4463 0.960 . S
C4480 C4481 1.391 . S
C4480 C4482 1.394 . S
C4480 H4496 0.931 . S
C4481 C4480 1.391 . S
C4481 C4485 1.376 1_655 S
C4482 C4480 1.394 . S
C4482 C4483 1.369 1_655 S
C4482 C4486 1.531 . S
C4483 C4482 1.369 1_455 S
C4483 C4484 1.410 . S
C4483 C4491 1.503 . S
C4484 C4483 1.410 . S
C4484 C4485 1.392 . S
C4484 C4487 1.511 . S
C4485 C4481 1.376 1_455 S
C4485 C4484 1.392 . S
C4485 H4497 0.929 . S
C4486 C4482 1.531 . S
C4486 H4498 0.960 . S
C4486 H4499 0.962 . S
C4486 H4500 0.960 . S
C4487 C4484 1.511 . S
C4487 H4501 0.961 . S
C4487 H4502 0.961 . S
C4487 H4503 0.961 . S
C4488 C4489 1.370 . S
C4488 C4490 1.363 . S
C4488 H4504 0.931 . S
C4489 C4488 1.370 . S
C4489 C4493 1.408 . S
C4490 C4488 1.363 . S
C4490 C4491 1.370 . S
C4490 C4494 1.524 1_455 S
C4491 C4483 1.503 . S
C4491 C4490 1.370 . S
C4491 C4492 1.403 . S
C4492 C4491 1.403 . S
C4492 C4493 1.404 . S
C4492 C4495 1.539 . S
C4493 C4489 1.408 . S
C4493 C4492 1.404 . S
C4493 H4505 0.930 . S
C4494 C4490 1.524 1_655 S
C4494 H4506 0.956 . S
C4494 H4507 0.961 1_655 S
C4494 H4508 0.961 . S
C4495 C4492 1.539 . S
C4495 H4509 0.958 . S
C4495 H4510 0.961 . S
C4495 H4511 0.960 . S
H4496 C4480 0.931 . S
H4497 C4485 0.929 . S
H4498 C4486 0.960 . S
H4499 C4486 0.962 . S
H4500 C4486 0.960 . S
H4501 C4487 0.961 . S
H4502 C4487 0.961 . S
H4503 C4487 0.961 . S
H4504 C4488 0.931 . S
H4505 C4493 0.930 . S
H4506 C4494 0.956 . S
H4507 C4494 0.961 1_455 S
H4508 C4494 0.961 . S
H4509 C4495 0.958 . S
H4510 C4495 0.961 . S
H4511 C4495 0.960 . S
C4512 C4513 1.391 . S
C4512 C4514 1.394 . S
C4512 H4528 0.931 . S
C4513 C4512 1.391 . S
C4513 C4517 1.376 . S
C4514 C4512 1.394 . S
C4514 C4515 1.369 . S
C4514 C4518 1.531 . S
C4515 C4514 1.369 . S
C4515 C4516 1.410 . S
C4515 C4523 1.503 . S
C4516 C4515 1.410 . S
C4516 C4517 1.392 . S
C4516 C4519 1.511 . S
C4517 C4513 1.376 . S
C4517 C4516 1.392 . S
C4517 H4529 0.929 . S
C4518 C4514 1.531 . S
C4518 H4530 0.960 . S
C4518 H4531 0.962 . S
C4518 H4532 0.960 . S
C4519 C4516 1.511 . S
C4519 H4533 0.961 . S
C4519 H4534 0.961 . S
C4519 H4535 0.961 . S
C4520 C4521 1.370 . S
C4520 C4522 1.363 . S
C4520 H4536 0.931 . S
C4521 C4520 1.370 . S
C4521 C4525 1.408 . S
C4522 C4520 1.363 . S
C4522 C4523 1.370 . S
C4522 C4526 1.524 . S
C4523 C4515 1.503 . S
C4523 C4522 1.370 . S
C4523 C4524 1.403 . S
C4524 C4523 1.403 . S
C4524 C4525 1.404 . S
C4524 C4527 1.539 . S
C4525 C4521 1.408 . S
C4525 C4524 1.404 . S
C4525 H4537 0.930 . S
C4526 C4522 1.524 . S
C4526 H4538 0.956 . S
C4526 H4539 0.961 . S
C4526 H4540 0.961 . S
C4527 C4524 1.539 . S
C4527 H4541 0.958 . S
C4527 H4542 0.961 . S
C4527 H4543 0.960 . S
H4528 C4512 0.931 . S
H4529 C4517 0.929 . S
H4530 C4518 0.960 . S
H4531 C4518 0.962 . S
H4532 C4518 0.960 . S
H4533 C4519 0.961 . S
H4534 C4519 0.961 . S
H4535 C4519 0.961 . S
H4536 C4520 0.931 . S
H4537 C4525 0.930 . S
H4538 C4526 0.956 . S
H4539 C4526 0.961 . S
H4540 C4526 0.961 . S
H4541 C4527 0.958 . S
H4542 C4527 0.961 . S
H4543 C4527 0.960 . S
C4544 C4545 1.391 . S
C4544 C4546 1.394 . S
C4544 H4560 0.931 . S
C4545 C4544 1.391 . S
C4545 C4549 1.376 . S
C4546 C4544 1.394 . S
C4546 C4547 1.369 . S
C4546 C4550 1.531 . S
C4547 C4546 1.369 . S
C4547 C4548 1.410 . S
C4547 C4555 1.503 . S
C4548 C4547 1.410 . S
C4548 C4549 1.392 . S
C4548 C4551 1.511 . S
C4549 C4545 1.376 . S
C4549 C4548 1.392 . S
C4549 H4561 0.929 . S
C4550 C4546 1.531 . S
C4550 H4562 0.960 . S
C4550 H4563 0.962 . S
C4550 H4564 0.960 . S
C4551 C4548 1.511 . S
C4551 H4565 0.961 . S
C4551 H4566 0.961 . S
C4551 H4567 0.961 . S
C4552 C4553 1.370 . S
C4552 C4554 1.363 . S
C4552 H4568 0.931 . S
C4553 C4552 1.370 . S
C4553 C4557 1.408 . S
C4554 C4552 1.363 . S
C4554 C4555 1.370 . S
C4554 C4558 1.524 . S
C4555 C4547 1.503 . S
C4555 C4554 1.370 . S
C4555 C4556 1.403 . S
C4556 C4555 1.403 . S
C4556 C4557 1.404 . S
C4556 C4559 1.539 . S
C4557 C4553 1.408 . S
C4557 C4556 1.404 . S
C4557 H4569 0.930 . S
C4558 C4554 1.524 . S
C4558 H4570 0.956 . S
C4558 H4571 0.961 . S
C4558 H4572 0.961 . S
C4559 C4556 1.539 . S
C4559 H4573 0.958 . S
C4559 H4574 0.961 . S
C4559 H4575 0.960 . S
H4560 C4544 0.931 . S
H4561 C4549 0.929 . S
H4562 C4550 0.960 . S
H4563 C4550 0.962 . S
H4564 C4550 0.960 . S
H4565 C4551 0.961 . S
H4566 C4551 0.961 . S
H4567 C4551 0.961 . S
H4568 C4552 0.931 . S
H4569 C4557 0.930 . S
H4570 C4558 0.956 . S
H4571 C4558 0.961 . S
H4572 C4558 0.961 . S
H4573 C4559 0.958 . S
H4574 C4559 0.961 . S
H4575 C4559 0.960 . S
C4576 C4577 1.391 . S
C4576 C4578 1.394 . S
C4576 H4592 0.931 . S
C4577 C4576 1.391 . S
C4577 C4581 1.376 . S
C4578 C4576 1.394 . S
C4578 C4579 1.369 . S
C4578 C4582 1.531 . S
C4579 C4578 1.369 . S
C4579 C4580 1.410 . S
C4579 C4587 1.503 . S
C4580 C4579 1.410 . S
C4580 C4581 1.392 . S
C4580 C4583 1.511 . S
C4581 C4577 1.376 . S
C4581 C4580 1.392 . S
C4581 H4593 0.929 . S
C4582 C4578 1.531 . S
C4582 H4594 0.960 . S
C4582 H4595 0.962 . S
C4582 H4596 0.960 . S
C4583 C4580 1.511 . S
C4583 H4597 0.961 . S
C4583 H4598 0.961 . S
C4583 H4599 0.961 . S
C4584 C4585 1.370 . S
C4584 C4586 1.363 . S
C4584 H4600 0.931 . S
C4585 C4584 1.370 . S
C4585 C4589 1.408 . S
C4586 C4584 1.363 . S
C4586 C4587 1.370 . S
C4586 C4590 1.524 . S
C4587 C4579 1.503 . S
C4587 C4586 1.370 . S
C4587 C4588 1.403 . S
C4588 C4587 1.403 . S
C4588 C4589 1.404 . S
C4588 C4591 1.539 . S
C4589 C4585 1.408 . S
C4589 C4588 1.404 . S
C4589 H4601 0.930 . S
C4590 C4586 1.524 . S
C4590 H4602 0.956 . S
C4590 H4603 0.961 . S
C4590 H4604 0.961 . S
C4591 C4588 1.539 . S
C4591 H4605 0.958 . S
C4591 H4606 0.961 . S
C4591 H4607 0.960 . S
H4592 C4576 0.931 . S
H4593 C4581 0.929 . S
H4594 C4582 0.960 . S
H4595 C4582 0.962 . S
H4596 C4582 0.960 . S
H4597 C4583 0.961 . S
H4598 C4583 0.961 . S
H4599 C4583 0.961 . S
H4600 C4584 0.931 . S
H4601 C4589 0.930 . S
H4602 C4590 0.956 . S
H4603 C4590 0.961 . S
H4604 C4590 0.961 . S
H4605 C4591 0.958 . S
H4606 C4591 0.961 . S
H4607 C4591 0.960 . S
C4608 C4609 1.391 . S
C4608 C4610 1.394 . S
C4608 H4624 0.931 . S
C4609 C4608 1.391 . S
C4609 C4613 1.376 . S
C4610 C4608 1.394 . S
C4610 C4611 1.369 . S
C4610 C4614 1.531 . S
C4611 C4610 1.369 . S
C4611 C4612 1.410 . S
C4611 C4619 1.503 . S
C4612 C4611 1.410 . S
C4612 C4613 1.392 . S
C4612 C4615 1.511 . S
C4613 C4609 1.376 . S
C4613 C4612 1.392 . S
C4613 H4625 0.929 . S
C4614 C4610 1.531 . S
C4614 H4626 0.960 . S
C4614 H4627 0.962 . S
C4614 H4628 0.960 . S
C4615 C4612 1.511 . S
C4615 H4629 0.961 . S
C4615 H4630 0.961 . S
C4615 H4631 0.961 . S
C4616 C4617 1.370 . S
C4616 C4618 1.363 . S
C4616 H4632 0.931 . S
C4617 C4616 1.370 . S
C4617 C4621 1.408 . S
C4618 C4616 1.363 . S
C4618 C4619 1.370 . S
C4618 C4622 1.524 . S
C4619 C4611 1.503 . S
C4619 C4618 1.370 . S
C4619 C4620 1.403 . S
C4620 C4619 1.403 . S
C4620 C4621 1.404 . S
C4620 C4623 1.539 . S
C4621 C4617 1.408 . S
C4621 C4620 1.404 . S
C4621 H4633 0.930 . S
C4622 C4618 1.524 . S
C4622 H4634 0.956 . S
C4622 H4635 0.961 . S
C4622 H4636 0.961 . S
C4623 C4620 1.539 . S
C4623 H4637 0.958 . S
C4623 H4638 0.961 . S
C4623 H4639 0.960 . S
H4624 C4608 0.931 . S
H4625 C4613 0.929 . S
H4626 C4614 0.960 . S
H4627 C4614 0.962 . S
H4628 C4614 0.960 . S
H4629 C4615 0.961 . S
H4630 C4615 0.961 . S
H4631 C4615 0.961 . S
H4632 C4616 0.931 . S
H4633 C4621 0.930 . S
H4634 C4622 0.956 . S
H4635 C4622 0.961 . S
H4636 C4622 0.961 . S
H4637 C4623 0.958 . S
H4638 C4623 0.961 . S
H4639 C4623 0.960 . S
C4640 C4641 1.391 . S
C4640 C4642 1.394 . S
C4640 H4656 0.931 . S
C4641 C4640 1.391 . S
C4641 C4645 1.376 . S
C4642 C4640 1.394 . S
C4642 C4643 1.369 . S
C4642 C4646 1.531 . S
C4643 C4642 1.369 . S
C4643 C4644 1.410 . S
C4643 C4651 1.503 . S
C4644 C4643 1.410 . S
C4644 C4645 1.392 . S
C4644 C4647 1.511 . S
C4645 C4641 1.376 . S
C4645 C4644 1.392 . S
C4645 H4657 0.929 . S
C4646 C4642 1.531 . S
C4646 H4658 0.960 . S
C4646 H4659 0.962 . S
C4646 H4660 0.960 . S
C4647 C4644 1.511 . S
C4647 H4661 0.961 . S
C4647 H4662 0.961 . S
C4647 H4663 0.961 . S
C4648 C4649 1.370 . S
C4648 C4650 1.363 . S
C4648 H4664 0.931 . S
C4649 C4648 1.370 . S
C4649 C4653 1.408 . S
C4650 C4648 1.363 . S
C4650 C4651 1.370 . S
C4650 C4654 1.524 . S
C4651 C4643 1.503 . S
C4651 C4650 1.370 . S
C4651 C4652 1.403 . S
C4652 C4651 1.403 . S
C4652 C4653 1.404 . S
C4652 C4655 1.539 . S
C4653 C4649 1.408 . S
C4653 C4652 1.404 . S
C4653 H4665 0.930 . S
C4654 C4650 1.524 . S
C4654 H4666 0.956 . S
C4654 H4667 0.961 . S
C4654 H4668 0.961 . S
C4655 C4652 1.539 . S
C4655 H4669 0.958 . S
C4655 H4670 0.961 . S
C4655 H4671 0.960 . S
H4656 C4640 0.931 . S
H4657 C4645 0.929 . S
H4658 C4646 0.960 . S
H4659 C4646 0.962 . S
H4660 C4646 0.960 . S
H4661 C4647 0.961 . S
H4662 C4647 0.961 . S
H4663 C4647 0.961 . S
H4664 C4648 0.931 . S
H4665 C4653 0.930 . S
H4666 C4654 0.956 . S
H4667 C4654 0.961 . S
H4668 C4654 0.961 . S
H4669 C4655 0.958 . S
H4670 C4655 0.961 . S
H4671 C4655 0.960 . S
C4672 C4673 1.391 . S
C4672 C4674 1.394 . S
C4672 H4688 0.931 . S
C4673 C4672 1.391 . S
C4673 C4677 1.376 . S
C4674 C4672 1.394 . S
C4674 C4675 1.369 . S
C4674 C4678 1.531 . S
C4675 C4674 1.369 . S
C4675 C4676 1.410 . S
C4675 C4683 1.503 . S
C4676 C4675 1.410 . S
C4676 C4677 1.392 . S
C4676 C4679 1.511 . S
C4677 C4673 1.376 . S
C4677 C4676 1.392 . S
C4677 H4689 0.929 . S
C4678 C4674 1.531 . S
C4678 H4690 0.960 . S
C4678 H4691 0.962 . S
C4678 H4692 0.960 . S
C4679 C4676 1.511 . S
C4679 H4693 0.961 . S
C4679 H4694 0.961 . S
C4679 H4695 0.961 . S
C4680 C4681 1.370 . S
C4680 C4682 1.363 . S
C4680 H4696 0.931 . S
C4681 C4680 1.370 . S
C4681 C4685 1.408 . S
C4682 C4680 1.363 . S
C4682 C4683 1.370 . S
C4682 C4686 1.524 . S
C4683 C4675 1.503 . S
C4683 C4682 1.370 . S
C4683 C4684 1.403 . S
C4684 C4683 1.403 . S
C4684 C4685 1.404 . S
C4684 C4687 1.539 . S
C4685 C4681 1.408 . S
C4685 C4684 1.404 . S
C4685 H4697 0.930 . S
C4686 C4682 1.524 . S
C4686 H4698 0.956 . S
C4686 H4699 0.961 . S
C4686 H4700 0.961 . S
C4687 C4684 1.539 . S
C4687 H4701 0.958 . S
C4687 H4702 0.961 . S
C4687 H4703 0.960 . S
H4688 C4672 0.931 . S
H4689 C4677 0.929 . S
H4690 C4678 0.960 . S
H4691 C4678 0.962 . S
H4692 C4678 0.960 . S
H4693 C4679 0.961 . S
H4694 C4679 0.961 . S
H4695 C4679 0.961 . S
H4696 C4680 0.931 . S
H4697 C4685 0.930 . S
H4698 C4686 0.956 . S
H4699 C4686 0.961 . S
H4700 C4686 0.961 . S
H4701 C4687 0.958 . S
H4702 C4687 0.961 . S
H4703 C4687 0.960 . S
C4704 C4705 1.391 . S
C4704 C4706 1.394 . S
C4704 H4720 0.931 . S
C4705 C4704 1.391 . S
C4705 C4709 1.376 . S
C4706 C4704 1.394 . S
C4706 C4707 1.369 . S
C4706 C4710 1.531 . S
C4707 C4706 1.369 . S
C4707 C4708 1.410 . S
C4707 C4715 1.503 . S
C4708 C4707 1.410 . S
C4708 C4709 1.392 . S
C4708 C4711 1.511 . S
C4709 C4705 1.376 . S
C4709 C4708 1.392 . S
C4709 H4721 0.929 . S
C4710 C4706 1.531 . S
C4710 H4722 0.960 . S
C4710 H4723 0.962 . S
C4710 H4724 0.960 . S
C4711 C4708 1.511 . S
C4711 H4725 0.961 . S
C4711 H4726 0.961 . S
C4711 H4727 0.961 . S
C4712 C4713 1.370 . S
C4712 C4714 1.363 . S
C4712 H4728 0.931 . S
C4713 C4712 1.370 . S
C4713 C4717 1.408 . S
C4714 C4712 1.363 . S
C4714 C4715 1.370 . S
C4714 C4718 1.524 . S
C4715 C4707 1.503 . S
C4715 C4714 1.370 . S
C4715 C4716 1.403 . S
C4716 C4715 1.403 . S
C4716 C4717 1.404 . S
C4716 C4719 1.539 . S
C4717 C4713 1.408 . S
C4717 C4716 1.404 . S
C4717 H4729 0.930 . S
C4718 C4714 1.524 . S
C4718 H4730 0.956 . S
C4718 H4731 0.961 . S
C4718 H4732 0.961 . S
C4719 C4716 1.539 . S
C4719 H4733 0.958 . S
C4719 H4734 0.961 . S
C4719 H4735 0.960 . S
H4720 C4704 0.931 . S
H4721 C4709 0.929 . S
H4722 C4710 0.960 . S
H4723 C4710 0.962 . S
H4724 C4710 0.960 . S
H4725 C4711 0.961 . S
H4726 C4711 0.961 . S
H4727 C4711 0.961 . S
H4728 C4712 0.931 . S
H4729 C4717 0.930 . S
H4730 C4718 0.956 . S
H4731 C4718 0.961 . S
H4732 C4718 0.961 . S
H4733 C4719 0.958 . S
H4734 C4719 0.961 . S
H4735 C4719 0.960 . S
C4736 C4737 1.391 . S
C4736 C4738 1.394 . S
C4736 H4752 0.931 . S
C4737 C4736 1.391 . S
C4737 C4741 1.376 . S
C4738 C4736 1.394 . S
C4738 C4739 1.369 . S
C4738 C4742 1.531 . S
C4739 C4738 1.369 . S
C4739 C4740 1.410 . S
C4739 C4747 1.503 . S
C4740 C4739 1.410 . S
C4740 C4741 1.392 . S
C4740 C4743 1.511 . S
C4741 C4737 1.376 . S
C4741 C4740 1.392 . S
C4741 H4753 0.929 . S
C4742 C4738 1.531 . S
C4742 H4754 0.960 . S
C4742 H4755 0.962 . S
C4742 H4756 0.960 . S
C4743 C4740 1.511 . S
C4743 H4757 0.961 . S
C4743 H4758 0.961 . S
C4743 H4759 0.961 . S
C4744 C4745 1.370 . S
C4744 C4746 1.363 . S
C4744 H4760 0.931 . S
C4745 C4744 1.370 . S
C4745 C4749 1.408 . S
C4746 C4744 1.363 . S
C4746 C4747 1.370 . S
C4746 C4750 1.524 . S
C4747 C4739 1.503 . S
C4747 C4746 1.370 . S
C4747 C4748 1.403 . S
C4748 C4747 1.403 . S
C4748 C4749 1.404 . S
C4748 C4751 1.539 . S
C4749 C4745 1.408 . S
C4749 C4748 1.404 . S
C4749 H4761 0.930 . S
C4750 C4746 1.524 . S
C4750 H4762 0.956 . S
C4750 H4763 0.961 . S
C4750 H4764 0.961 . S
C4751 C4748 1.539 . S
C4751 H4765 0.958 . S
C4751 H4766 0.961 . S
C4751 H4767 0.960 . S
H4752 C4736 0.931 . S
H4753 C4741 0.929 . S
H4754 C4742 0.960 . S
H4755 C4742 0.962 . S
H4756 C4742 0.960 . S
H4757 C4743 0.961 . S
H4758 C4743 0.961 . S
H4759 C4743 0.961 . S
H4760 C4744 0.931 . S
H4761 C4749 0.930 . S
H4762 C4750 0.956 . S
H4763 C4750 0.961 . S
H4764 C4750 0.961 . S
H4765 C4751 0.958 . S
H4766 C4751 0.961 . S
H4767 C4751 0.960 . S
C4768 C4769 1.391 . S
C4768 C4770 1.394 . S
C4768 H4784 0.931 . S
C4769 C4768 1.391 . S
C4769 C4773 1.376 . S
C4770 C4768 1.394 . S
C4770 C4771 1.369 . S
C4770 C4774 1.531 . S
C4771 C4770 1.369 . S
C4771 C4772 1.410 . S
C4771 C4779 1.503 . S
C4772 C4771 1.410 . S
C4772 C4773 1.392 . S
C4772 C4775 1.511 . S
C4773 C4769 1.376 . S
C4773 C4772 1.392 . S
C4773 H4785 0.929 . S
C4774 C4770 1.531 . S
C4774 H4786 0.960 . S
C4774 H4787 0.962 . S
C4774 H4788 0.960 . S
C4775 C4772 1.511 . S
C4775 H4789 0.961 . S
C4775 H4790 0.961 . S
C4775 H4791 0.961 . S
C4776 C4777 1.370 . S
C4776 C4778 1.363 . S
C4776 H4792 0.931 . S
C4777 C4776 1.370 . S
C4777 C4781 1.408 . S
C4778 C4776 1.363 . S
C4778 C4779 1.370 . S
C4778 C4782 1.524 . S
C4779 C4771 1.503 . S
C4779 C4778 1.370 . S
C4779 C4780 1.403 . S
C4780 C4779 1.403 . S
C4780 C4781 1.404 . S
C4780 C4783 1.539 . S
C4781 C4777 1.408 . S
C4781 C4780 1.404 . S
C4781 H4793 0.930 . S
C4782 C4778 1.524 . S
C4782 H4794 0.956 . S
C4782 H4795 0.961 . S
C4782 H4796 0.961 . S
C4783 C4780 1.539 . S
C4783 H4797 0.958 . S
C4783 H4798 0.961 . S
C4783 H4799 0.960 . S
H4784 C4768 0.931 . S
H4785 C4773 0.929 . S
H4786 C4774 0.960 . S
H4787 C4774 0.962 . S
H4788 C4774 0.960 . S
H4789 C4775 0.961 . S
H4790 C4775 0.961 . S
H4791 C4775 0.961 . S
H4792 C4776 0.931 . S
H4793 C4781 0.930 . S
H4794 C4782 0.956 . S
H4795 C4782 0.961 . S
H4796 C4782 0.961 . S
H4797 C4783 0.958 . S
H4798 C4783 0.961 . S
H4799 C4783 0.960 . S
C4800 C4801 1.391 . S
C4800 C4802 1.394 . S
C4800 H4816 0.931 . S
C4801 C4800 1.391 . S
C4801 C4805 1.376 . S
C4802 C4800 1.394 . S
C4802 C4803 1.369 . S
C4802 C4806 1.531 . S
C4803 C4802 1.369 . S
C4803 C4804 1.410 . S
C4803 C4811 1.503 . S
C4804 C4803 1.410 . S
C4804 C4805 1.392 . S
C4804 C4807 1.511 . S
C4805 C4801 1.376 . S
C4805 C4804 1.392 . S
C4805 H4817 0.929 . S
C4806 C4802 1.531 . S
C4806 H4818 0.960 . S
C4806 H4819 0.962 . S
C4806 H4820 0.960 . S
C4807 C4804 1.511 . S
C4807 H4821 0.961 . S
C4807 H4822 0.961 . S
C4807 H4823 0.961 . S
C4808 C4809 1.370 . S
C4808 C4810 1.363 . S
C4808 H4824 0.931 . S
C4809 C4808 1.370 . S
C4809 C4813 1.408 . S
C4810 C4808 1.363 . S
C4810 C4811 1.370 . S
C4810 C4814 1.524 . S
C4811 C4803 1.503 . S
C4811 C4810 1.370 . S
C4811 C4812 1.403 . S
C4812 C4811 1.403 . S
C4812 C4813 1.404 . S
C4812 C4815 1.539 . S
C4813 C4809 1.408 . S
C4813 C4812 1.404 . S
C4813 H4825 0.930 . S
C4814 C4810 1.524 . S
C4814 H4826 0.956 . S
C4814 H4827 0.961 . S
C4814 H4828 0.961 . S
C4815 C4812 1.539 . S
C4815 H4829 0.958 . S
C4815 H4830 0.961 . S
C4815 H4831 0.960 . S
H4816 C4800 0.931 . S
H4817 C4805 0.929 . S
H4818 C4806 0.960 . S
H4819 C4806 0.962 . S
H4820 C4806 0.960 . S
H4821 C4807 0.961 . S
H4822 C4807 0.961 . S
H4823 C4807 0.961 . S
H4824 C4808 0.931 . S
H4825 C4813 0.930 . S
H4826 C4814 0.956 . S
H4827 C4814 0.961 . S
H4828 C4814 0.961 . S
H4829 C4815 0.958 . S
H4830 C4815 0.961 . S
H4831 C4815 0.960 . S
C4832 C4833 1.391 . S
C4832 C4834 1.394 . S
C4832 H4848 0.931 . S
C4833 C4832 1.391 . S
C4833 C4837 1.376 . S
C4834 C4832 1.394 . S
C4834 C4835 1.369 . S
C4834 C4838 1.531 . S
C4835 C4834 1.369 . S
C4835 C4836 1.410 . S
C4835 C4843 1.503 . S
C4836 C4835 1.410 . S
C4836 C4837 1.392 . S
C4836 C4839 1.511 . S
C4837 C4833 1.376 . S
C4837 C4836 1.392 . S
C4837 H4849 0.929 . S
C4838 C4834 1.531 . S
C4838 H4850 0.960 . S
C4838 H4851 0.962 . S
C4838 H4852 0.960 . S
C4839 C4836 1.511 . S
C4839 H4853 0.961 . S
C4839 H4854 0.961 . S
C4839 H4855 0.961 . S
C4840 C4841 1.370 . S
C4840 C4842 1.363 . S
C4840 H4856 0.931 . S
C4841 C4840 1.370 . S
C4841 C4845 1.408 . S
C4842 C4840 1.363 . S
C4842 C4843 1.370 . S
C4842 C4846 1.524 . S
C4843 C4835 1.503 . S
C4843 C4842 1.370 . S
C4843 C4844 1.403 . S
C4844 C4843 1.403 . S
C4844 C4845 1.404 . S
C4844 C4847 1.539 . S
C4845 C4841 1.408 . S
C4845 C4844 1.404 . S
C4845 H4857 0.930 . S
C4846 C4842 1.524 . S
C4846 H4858 0.956 . S
C4846 H4859 0.961 . S
C4846 H4860 0.961 . S
C4847 C4844 1.539 . S
C4847 H4861 0.958 . S
C4847 H4862 0.961 . S
C4847 H4863 0.960 . S
H4848 C4832 0.931 . S
H4849 C4837 0.929 . S
H4850 C4838 0.960 . S
H4851 C4838 0.962 . S
H4852 C4838 0.960 . S
H4853 C4839 0.961 . S
H4854 C4839 0.961 . S
H4855 C4839 0.961 . S
H4856 C4840 0.931 . S
H4857 C4845 0.930 . S
H4858 C4846 0.956 . S
H4859 C4846 0.961 . S
H4860 C4846 0.961 . S
H4861 C4847 0.958 . S
H4862 C4847 0.961 . S
H4863 C4847 0.960 . S
C4864 C4865 1.391 . S
C4864 C4866 1.394 . S
C4864 H4880 0.931 . S
C4865 C4864 1.391 . S
C4865 C4869 1.376 . S
C4866 C4864 1.394 . S
C4866 C4867 1.369 . S
C4866 C4870 1.531 . S
C4867 C4866 1.369 . S
C4867 C4868 1.410 . S
C4867 C4875 1.503 . S
C4868 C4867 1.410 . S
C4868 C4869 1.392 . S
C4868 C4871 1.511 . S
C4869 C4865 1.376 . S
C4869 C4868 1.392 . S
C4869 H4881 0.929 . S
C4870 C4866 1.531 . S
C4870 H4882 0.960 . S
C4870 H4883 0.962 . S
C4870 H4884 0.960 . S
C4871 C4868 1.511 . S
C4871 H4885 0.961 . S
C4871 H4886 0.961 . S
C4871 H4887 0.961 . S
C4872 C4873 1.370 . S
C4872 C4874 1.363 . S
C4872 H4888 0.931 . S
C4873 C4872 1.370 . S
C4873 C4877 1.408 . S
C4874 C4872 1.363 . S
C4874 C4875 1.370 . S
C4874 C4878 1.524 . S
C4875 C4867 1.503 . S
C4875 C4874 1.370 . S
C4875 C4876 1.403 . S
C4876 C4875 1.403 . S
C4876 C4877 1.404 . S
C4876 C4879 1.539 . S
C4877 C4873 1.408 . S
C4877 C4876 1.404 . S
C4877 H4889 0.930 . S
C4878 C4874 1.524 . S
C4878 H4890 0.956 . S
C4878 H4891 0.961 . S
C4878 H4892 0.961 . S
C4879 C4876 1.539 . S
C4879 H4893 0.958 . S
C4879 H4894 0.961 . S
C4879 H4895 0.960 . S
H4880 C4864 0.931 . S
H4881 C4869 0.929 . S
H4882 C4870 0.960 . S
H4883 C4870 0.962 . S
H4884 C4870 0.960 . S
H4885 C4871 0.961 . S
H4886 C4871 0.961 . S
H4887 C4871 0.961 . S
H4888 C4872 0.931 . S
H4889 C4877 0.930 . S
H4890 C4878 0.956 . S
H4891 C4878 0.961 . S
H4892 C4878 0.961 . S
H4893 C4879 0.958 . S
H4894 C4879 0.961 . S
H4895 C4879 0.960 . S
C4896 C4897 1.391 1_545 S
C4896 C4898 1.394 . S
C4896 H4912 0.931 . S
C4897 C4896 1.391 1_565 S
C4897 C4901 1.376 . S
C4898 C4896 1.394 . S
C4898 C4899 1.369 1_545 S
C4898 C4902 1.531 . S
C4899 C4898 1.369 1_565 S
C4899 C4900 1.410 . S
C4899 C4907 1.501 1_565 S
C4900 C4899 1.410 . S
C4900 C4901 1.392 . S
C4900 C4903 1.511 . S
C4901 C4897 1.376 . S
C4901 C4900 1.392 . S
C4901 H4913 0.929 . S
C4902 C4898 1.531 . S
C4902 H4914 0.960 . S
C4902 H4915 0.962 . S
C4902 H4916 0.960 . S
C4903 C4900 1.511 . S
C4903 H4917 0.961 1_554 S
C4903 H4918 0.961 1_554 S
C4903 H4919 0.961 . S
C4904 C4905 1.353 1_556 S
C4904 C4906 1.355 1_556 S
C4904 H4920 0.958 . S
C4905 C4904 1.353 1_554 S
C4905 C4909 1.408 . S
C4906 C4904 1.355 1_554 S
C4906 C4907 1.385 . S
C4906 C4910 1.524 1_554 S
C4907 C4899 1.501 1_545 S
C4907 C4906 1.385 . S
C4907 C4908 1.391 1_545 S
C4908 C4907 1.391 1_565 S
C4908 C4909 1.404 1_565 S
C4908 C4911 1.539 . S
C4909 C4905 1.408 . S
C4909 C4908 1.404 1_545 S
C4909 H4921 0.930 . S
C4910 C4906 1.524 1_556 S
C4910 H4922 0.956 . S
C4910 H4923 0.961 1_545 S
C4910 H4924 0.961 . S
C4911 C4908 1.539 . S
C4911 H4925 0.958 . S
C4911 H4926 0.961 . S
C4911 H4927 0.960 . S
H4912 C4896 0.931 . S
H4913 C4901 0.929 . S
H4914 C4902 0.960 . S
H4915 C4902 0.962 . S
H4916 C4902 0.960 . S
H4917 C4903 0.961 1_556 S
H4918 C4903 0.961 1_556 S
H4919 C4903 0.961 . S
H4920 C4904 0.958 . S
H4921 C4909 0.930 . S
H4922 C4910 0.956 . S
H4923 C4910 0.961 1_565 S
H4924 C4910 0.961 . S
H4925 C4911 0.958 . S
H4926 C4911 0.961 . S
H4927 C4911 0.960 . S
C4928 C4929 1.391 . S
C4928 C4930 1.394 . S
C4928 H4944 0.931 . S
C4929 C4928 1.391 . S
C4929 C4933 1.376 . S
C4930 C4928 1.394 . S
C4930 C4931 1.369 . S
C4930 C4934 1.531 . S
C4931 C4930 1.369 . S
C4931 C4932 1.410 . S
C4931 C4939 1.503 . S
C4932 C4931 1.410 . S
C4932 C4933 1.392 . S
C4932 C4935 1.511 . S
C4933 C4929 1.376 . S
C4933 C4932 1.392 . S
C4933 H4945 0.929 . S
C4934 C4930 1.531 . S
C4934 H4946 0.960 . S
C4934 H4947 0.962 . S
C4934 H4948 0.960 . S
C4935 C4932 1.511 . S
C4935 H4949 0.961 . S
C4935 H4950 0.961 . S
C4935 H4951 0.961 . S
C4936 C4937 1.370 . S
C4936 C4938 1.363 . S
C4936 H4952 0.931 . S
C4937 C4936 1.370 . S
C4937 C4941 1.408 . S
C4938 C4936 1.363 . S
C4938 C4939 1.370 . S
C4938 C4942 1.524 . S
C4939 C4931 1.503 . S
C4939 C4938 1.370 . S
C4939 C4940 1.403 . S
C4940 C4939 1.403 . S
C4940 C4941 1.404 . S
C4940 C4943 1.539 . S
C4941 C4937 1.408 . S
C4941 C4940 1.404 . S
C4941 H4953 0.930 . S
C4942 C4938 1.524 . S
C4942 H4954 0.956 . S
C4942 H4955 0.961 . S
C4942 H4956 0.961 . S
C4943 C4940 1.539 . S
C4943 H4957 0.958 . S
C4943 H4958 0.961 . S
C4943 H4959 0.960 . S
H4944 C4928 0.931 . S
H4945 C4933 0.929 . S
H4946 C4934 0.960 . S
H4947 C4934 0.962 . S
H4948 C4934 0.960 . S
H4949 C4935 0.961 . S
H4950 C4935 0.961 . S
H4951 C4935 0.961 . S
H4952 C4936 0.931 . S
H4953 C4941 0.930 . S
H4954 C4942 0.956 . S
H4955 C4942 0.961 . S
H4956 C4942 0.961 . S
H4957 C4943 0.958 . S
H4958 C4943 0.961 . S
H4959 C4943 0.960 . S
C4960 C4961 1.391 . S
C4960 C4962 1.394 . S
C4960 H4976 0.931 . S
C4961 C4960 1.391 . S
C4961 C4965 1.376 . S
C4962 C4960 1.394 . S
C4962 C4963 1.369 . S
C4962 C4966 1.531 . S
C4963 C4962 1.369 . S
C4963 C4964 1.410 . S
C4963 C4971 1.503 . S
C4964 C4963 1.410 . S
C4964 C4965 1.392 . S
C4964 C4967 1.511 . S
C4965 C4961 1.376 . S
C4965 C4964 1.392 . S
C4965 H4977 0.929 1_554 S
C4966 C4962 1.531 . S
C4966 H4978 0.960 . S
C4966 H4979 0.962 . S
C4966 H4980 0.960 . S
C4967 C4964 1.511 . S
C4967 H4981 0.961 1_554 S
C4967 H4982 0.961 . S
C4967 H4983 0.961 . S
C4968 C4969 1.370 . S
C4968 C4970 1.363 . S
C4968 H4984 0.931 . S
C4969 C4968 1.370 . S
C4969 C4973 1.408 . S
C4970 C4968 1.363 . S
C4970 C4971 1.370 . S
C4970 C4974 1.524 1_554 S
C4971 C4963 1.503 . S
C4971 C4970 1.370 . S
C4971 C4972 1.403 . S
C4972 C4971 1.403 . S
C4972 C4973 1.404 . S
C4972 C4975 1.539 . S
C4973 C4969 1.408 . S
C4973 C4972 1.404 . S
C4973 H4985 0.930 . S
C4974 C4970 1.524 1_556 S
C4974 H4986 0.956 . S
C4974 H4987 0.961 . S
C4974 H4988 0.961 . S
C4975 C4972 1.539 . S
C4975 H4989 0.958 . S
C4975 H4990 0.961 . S
C4975 H4991 0.960 . S
H4976 C4960 0.931 . S
H4977 C4965 0.929 1_556 S
H4978 C4966 0.960 . S
H4979 C4966 0.962 . S
H4980 C4966 0.960 . S
H4981 C4967 0.961 1_556 S
H4982 C4967 0.961 . S
H4983 C4967 0.961 . S
H4984 C4968 0.931 . S
H4985 C4973 0.930 . S
H4986 C4974 0.956 . S
H4987 C4974 0.961 . S
H4988 C4974 0.961 . S
H4989 C4975 0.958 . S
H4990 C4975 0.961 . S
H4991 C4975 0.960 . S
C4992 C4993 1.391 . S
C4992 C4994 1.394 . S
C4992 H5008 0.931 . S
C4993 C4992 1.391 . S
C4993 C4997 1.376 . S
C4994 C4992 1.394 . S
C4994 C4995 1.369 . S
C4994 C4998 1.531 . S
C4995 C4994 1.369 . S
C4995 C4996 1.410 . S
C4995 C5003 1.503 . S
C4996 C4995 1.410 . S
C4996 C4997 1.392 . S
C4996 C4999 1.511 . S
C4997 C4993 1.376 . S
C4997 C4996 1.392 . S
C4997 H5009 0.929 . S
C4998 C4994 1.531 . S
C4998 H5010 0.960 . S
C4998 H5011 0.962 . S
C4998 H5012 0.960 . S
C4999 C4996 1.511 . S
C4999 H5013 0.961 . S
C4999 H5014 0.961 . S
C4999 H5015 0.961 . S
C5000 C5001 1.370 . S
C5000 C5002 1.363 . S
C5000 H5016 0.931 . S
C5001 C5000 1.370 . S
C5001 C5005 1.408 . S
C5002 C5000 1.363 . S
C5002 C5003 1.370 . S
C5002 C5006 1.524 . S
C5003 C4995 1.503 . S
C5003 C5002 1.370 . S
C5003 C5004 1.403 . S
C5004 C5003 1.403 . S
C5004 C5005 1.404 . S
C5004 C5007 1.539 . S
C5005 C5001 1.408 . S
C5005 C5004 1.404 . S
C5005 H5017 0.930 . S
C5006 C5002 1.524 . S
C5006 H5018 0.956 . S
C5006 H5019 0.961 . S
C5006 H5020 0.961 . S
C5007 C5004 1.539 . S
C5007 H5021 0.958 . S
C5007 H5022 0.961 . S
C5007 H5023 0.960 . S
H5008 C4992 0.931 . S
H5009 C4997 0.929 . S
H5010 C4998 0.960 . S
H5011 C4998 0.962 . S
H5012 C4998 0.960 . S
H5013 C4999 0.961 . S
H5014 C4999 0.961 . S
H5015 C4999 0.961 . S
H5016 C5000 0.931 . S
H5017 C5005 0.930 . S
H5018 C5006 0.956 . S
H5019 C5006 0.961 . S
H5020 C5006 0.961 . S
H5021 C5007 0.958 . S
H5022 C5007 0.961 . S
H5023 C5007 0.960 . S
C5024 C5025 1.391 . S
C5024 C5026 1.394 . S
C5024 H5040 0.931 . S
C5025 C5024 1.391 . S
C5025 C5029 1.376 . S
C5026 C5024 1.394 . S
C5026 C5027 1.369 . S
C5026 C5030 1.531 . S
C5027 C5026 1.369 . S
C5027 C5028 1.410 . S
C5027 C5035 1.503 . S
C5028 C5027 1.410 . S
C5028 C5029 1.392 . S
C5028 C5031 1.511 . S
C5029 C5025 1.376 . S
C5029 C5028 1.392 . S
C5029 H5041 0.929 . S
C5030 C5026 1.531 . S
C5030 H5042 0.960 . S
C5030 H5043 0.962 . S
C5030 H5044 0.960 . S
C5031 C5028 1.511 . S
C5031 H5045 0.961 . S
C5031 H5046 0.961 . S
C5031 H5047 0.961 . S
C5032 C5033 1.370 . S
C5032 C5034 1.363 . S
C5032 H5048 0.931 . S
C5033 C5032 1.370 . S
C5033 C5037 1.408 . S
C5034 C5032 1.363 . S
C5034 C5035 1.370 . S
C5034 C5038 1.524 . S
C5035 C5027 1.503 . S
C5035 C5034 1.370 . S
C5035 C5036 1.403 . S
C5036 C5035 1.403 . S
C5036 C5037 1.404 . S
C5036 C5039 1.539 . S
C5037 C5033 1.408 . S
C5037 C5036 1.404 . S
C5037 H5049 0.930 . S
C5038 C5034 1.524 . S
C5038 H5050 0.956 . S
C5038 H5051 0.961 . S
C5038 H5052 0.961 . S
C5039 C5036 1.539 . S
C5039 H5053 0.958 . S
C5039 H5054 0.961 . S
C5039 H5055 0.960 . S
H5040 C5024 0.931 . S
H5041 C5029 0.929 . S
H5042 C5030 0.960 . S
H5043 C5030 0.962 . S
H5044 C5030 0.960 . S
H5045 C5031 0.961 . S
H5046 C5031 0.961 . S
H5047 C5031 0.961 . S
H5048 C5032 0.931 . S
H5049 C5037 0.930 . S
H5050 C5038 0.956 . S
H5051 C5038 0.961 . S
H5052 C5038 0.961 . S
H5053 C5039 0.958 . S
H5054 C5039 0.961 . S
H5055 C5039 0.960 . S
C5056 C5057 1.391 . S
C5056 C5058 1.394 . S
C5056 H5072 0.931 . S
C5057 C5056 1.391 . S
C5057 C5061 1.376 . S
C5058 C5056 1.394 . S
C5058 C5059 1.369 . S
C5058 C5062 1.531 . S
C5059 C5058 1.369 . S
C5059 C5060 1.410 . S
C5059 C5067 1.503 . S
C5060 C5059 1.410 . S
C5060 C5061 1.392 . S
C5060 C5063 1.511 . S
C5061 C5057 1.376 . S
C5061 C5060 1.392 . S
C5061 H5073 0.929 . S
C5062 C5058 1.531 . S
C5062 H5074 0.960 . S
C5062 H5075 0.962 . S
C5062 H5076 0.960 . S
C5063 C5060 1.511 . S
C5063 H5077 0.961 . S
C5063 H5078 0.961 . S
C5063 H5079 0.961 . S
C5064 C5065 1.370 . S
C5064 C5066 1.363 . S
C5064 H5080 0.931 . S
C5065 C5064 1.370 . S
C5065 C5069 1.408 . S
C5066 C5064 1.363 . S
C5066 C5067 1.370 . S
C5066 C5070 1.524 . S
C5067 C5059 1.503 . S
C5067 C5066 1.370 . S
C5067 C5068 1.403 . S
C5068 C5067 1.403 . S
C5068 C5069 1.404 . S
C5068 C5071 1.539 . S
C5069 C5065 1.408 . S
C5069 C5068 1.404 . S
C5069 H5081 0.930 . S
C5070 C5066 1.524 . S
C5070 H5082 0.956 . S
C5070 H5083 0.961 . S
C5070 H5084 0.961 . S
C5071 C5068 1.539 . S
C5071 H5085 0.958 . S
C5071 H5086 0.961 . S
C5071 H5087 0.960 . S
H5072 C5056 0.931 . S
H5073 C5061 0.929 . S
H5074 C5062 0.960 . S
H5075 C5062 0.962 . S
H5076 C5062 0.960 . S
H5077 C5063 0.961 . S
H5078 C5063 0.961 . S
H5079 C5063 0.961 . S
H5080 C5064 0.931 . S
H5081 C5069 0.930 . S
H5082 C5070 0.956 . S
H5083 C5070 0.961 . S
H5084 C5070 0.961 . S
H5085 C5071 0.958 . S
H5086 C5071 0.961 . S
H5087 C5071 0.960 . S
C5088 C5089 1.391 . S
C5088 C5090 1.394 . S
C5088 H5104 0.931 . S
C5089 C5088 1.391 . S
C5089 C5093 1.376 . S
C5090 C5088 1.394 . S
C5090 C5091 1.369 . S
C5090 C5094 1.531 . S
C5091 C5090 1.369 . S
C5091 C5092 1.410 . S
C5091 C5099 1.503 . S
C5092 C5091 1.410 . S
C5092 C5093 1.392 . S
C5092 C5095 1.511 . S
C5093 C5089 1.376 . S
C5093 C5092 1.392 . S
C5093 H5105 0.929 . S
C5094 C5090 1.531 . S
C5094 H5106 0.960 . S
C5094 H5107 0.962 . S
C5094 H5108 0.960 . S
C5095 C5092 1.511 . S
C5095 H5109 0.961 . S
C5095 H5110 0.961 . S
C5095 H5111 0.961 . S
C5096 C5097 1.370 . S
C5096 C5098 1.363 . S
C5096 H5112 0.931 . S
C5097 C5096 1.370 . S
C5097 C5101 1.408 . S
C5098 C5096 1.363 . S
C5098 C5099 1.370 . S
C5098 C5102 1.524 . S
C5099 C5091 1.503 . S
C5099 C5098 1.370 . S
C5099 C5100 1.403 . S
C5100 C5099 1.403 . S
C5100 C5101 1.404 . S
C5100 C5103 1.539 . S
C5101 C5097 1.408 . S
C5101 C5100 1.404 . S
C5101 H5113 0.930 . S
C5102 C5098 1.524 . S
C5102 H5114 0.956 . S
C5102 H5115 0.961 . S
C5102 H5116 0.961 . S
C5103 C5100 1.539 . S
C5103 H5117 0.958 . S
C5103 H5118 0.961 . S
C5103 H5119 0.960 . S
H5104 C5088 0.931 . S
H5105 C5093 0.929 . S
H5106 C5094 0.960 . S
H5107 C5094 0.962 . S
H5108 C5094 0.960 . S
H5109 C5095 0.961 . S
H5110 C5095 0.961 . S
H5111 C5095 0.961 . S
H5112 C5096 0.931 . S
H5113 C5101 0.930 . S
H5114 C5102 0.956 . S
H5115 C5102 0.961 . S
H5116 C5102 0.961 . S
H5117 C5103 0.958 . S
H5118 C5103 0.961 . S
H5119 C5103 0.960 . S
C5120 C5121 1.391 . S
C5120 C5122 1.394 . S
C5120 H5136 0.931 . S
C5121 C5120 1.391 . S
C5121 C5125 1.376 . S
C5122 C5120 1.394 . S
C5122 C5123 1.369 . S
C5122 C5126 1.531 1_554 S
C5123 C5122 1.369 . S
C5123 C5124 1.410 . S
C5123 C5131 1.503 . S
C5124 C5123 1.410 . S
C5124 C5125 1.392 . S
C5124 C5127 1.511 . S
C5125 C5121 1.376 . S
C5125 C5124 1.392 . S
C5125 H5137 0.929 . S
C5126 C5122 1.531 1_556 S
C5126 H5138 0.960 . S
C5126 H5139 0.962 . S
C5126 H5140 0.960 . S
C5127 C5124 1.511 . S
C5127 H5141 0.961 . S
C5127 H5142 0.961 . S
C5127 H5143 0.961 . S
C5128 C5129 1.370 . S
C5128 C5130 1.363 . S
C5128 H5144 0.931 . S
C5129 C5128 1.370 . S
C5129 C5133 1.408 . S
C5130 C5128 1.363 . S
C5130 C5131 1.370 . S
C5130 C5134 1.524 . S
C5131 C5123 1.503 . S
C5131 C5130 1.370 . S
C5131 C5132 1.403 . S
C5132 C5131 1.403 . S
C5132 C5133 1.404 . S
C5132 C5135 1.539 . S
C5133 C5129 1.408 . S
C5133 C5132 1.404 . S
C5133 H5145 0.930 . S
C5134 C5130 1.524 . S
C5134 H5146 0.956 . S
C5134 H5147 0.961 . S
C5134 H5148 0.961 . S
C5135 C5132 1.539 . S
C5135 H5149 0.958 1_554 S
C5135 H5150 0.961 . S
C5135 H5151 0.960 . S
H5136 C5120 0.931 . S
H5137 C5125 0.929 . S
H5138 C5126 0.960 . S
H5139 C5126 0.962 . S
H5140 C5126 0.960 . S
H5141 C5127 0.961 . S
H5142 C5127 0.961 . S
H5143 C5127 0.961 . S
H5144 C5128 0.931 . S
H5145 C5133 0.930 . S
H5146 C5134 0.956 . S
H5147 C5134 0.961 . S
H5148 C5134 0.961 . S
H5149 C5135 0.958 1_556 S
H5150 C5135 0.961 . S
H5151 C5135 0.960 . S
C5152 C5153 1.391 . S
C5152 C5154 1.394 . S
C5152 H5168 0.931 . S
C5153 C5152 1.391 . S
C5153 C5157 1.376 . S
C5154 C5152 1.394 . S
C5154 C5155 1.369 . S
C5154 C5158 1.531 . S
C5155 C5154 1.369 . S
C5155 C5156 1.410 . S
C5155 C5163 1.503 . S
C5156 C5155 1.410 . S
C5156 C5157 1.392 . S
C5156 C5159 1.511 . S
C5157 C5153 1.376 . S
C5157 C5156 1.392 . S
C5157 H5169 0.929 . S
C5158 C5154 1.531 . S
C5158 H5170 0.960 . S
C5158 H5171 0.962 . S
C5158 H5172 0.960 . S
C5159 C5156 1.511 . S
C5159 H5173 0.961 . S
C5159 H5174 0.961 . S
C5159 H5175 0.961 . S
C5160 C5161 1.370 . S
C5160 C5162 1.363 . S
C5160 H5176 0.931 . S
C5161 C5160 1.370 . S
C5161 C5165 1.408 . S
C5162 C5160 1.363 . S
C5162 C5163 1.370 . S
C5162 C5166 1.524 . S
C5163 C5155 1.503 . S
C5163 C5162 1.370 . S
C5163 C5164 1.403 . S
C5164 C5163 1.403 . S
C5164 C5165 1.404 . S
C5164 C5167 1.539 . S
C5165 C5161 1.408 . S
C5165 C5164 1.404 . S
C5165 H5177 0.930 . S
C5166 C5162 1.524 . S
C5166 H5178 0.956 . S
C5166 H5179 0.961 . S
C5166 H5180 0.961 . S
C5167 C5164 1.539 . S
C5167 H5181 0.958 . S
C5167 H5182 0.961 . S
C5167 H5183 0.960 . S
H5168 C5152 0.931 . S
H5169 C5157 0.929 . S
H5170 C5158 0.960 . S
H5171 C5158 0.962 . S
H5172 C5158 0.960 . S
H5173 C5159 0.961 . S
H5174 C5159 0.961 . S
H5175 C5159 0.961 . S
H5176 C5160 0.931 . S
H5177 C5165 0.930 . S
H5178 C5166 0.956 . S
H5179 C5166 0.961 . S
H5180 C5166 0.961 . S
H5181 C5167 0.958 . S
H5182 C5167 0.961 . S
H5183 C5167 0.960 . S
C5184 C5185 1.391 . S
C5184 C5186 1.394 . S
C5184 H5200 0.931 . S
C5185 C5184 1.391 . S
C5185 C5189 1.376 . S
C5186 C5184 1.394 . S
C5186 C5187 1.369 . S
C5186 C5190 1.531 . S
C5187 C5186 1.369 . S
C5187 C5188 1.410 . S
C5187 C5195 1.503 . S
C5188 C5187 1.410 . S
C5188 C5189 1.392 . S
C5188 C5191 1.511 . S
C5189 C5185 1.376 . S
C5189 C5188 1.392 . S
C5189 H5201 0.929 . S
C5190 C5186 1.531 . S
C5190 H5202 0.960 . S
C5190 H5203 0.962 . S
C5190 H5204 0.960 . S
C5191 C5188 1.511 . S
C5191 H5205 0.961 . S
C5191 H5206 0.961 . S
C5191 H5207 0.961 . S
C5192 C5193 1.370 . S
C5192 C5194 1.363 . S
C5192 H5208 0.931 . S
C5193 C5192 1.370 . S
C5193 C5197 1.408 . S
C5194 C5192 1.363 . S
C5194 C5195 1.370 . S
C5194 C5198 1.524 . S
C5195 C5187 1.503 . S
C5195 C5194 1.370 . S
C5195 C5196 1.403 . S
C5196 C5195 1.403 . S
C5196 C5197 1.404 . S
C5196 C5199 1.539 . S
C5197 C5193 1.408 . S
C5197 C5196 1.404 . S
C5197 H5209 0.930 . S
C5198 C5194 1.524 . S
C5198 H5210 0.956 . S
C5198 H5211 0.961 . S
C5198 H5212 0.961 . S
C5199 C5196 1.539 . S
C5199 H5213 0.958 . S
C5199 H5214 0.972 . S
C5199 H5215 0.960 . S
H5200 C5184 0.931 . S
H5201 C5189 0.929 . S
H5202 C5190 0.960 . S
H5203 C5190 0.962 . S
H5204 C5190 0.960 . S
H5205 C5191 0.961 . S
H5206 C5191 0.961 . S
H5207 C5191 0.961 . S
H5208 C5192 0.931 . S
H5209 C5197 0.930 . S
H5210 C5198 0.956 . S
H5211 C5198 0.961 . S
H5212 C5198 0.961 . S
H5213 C5199 0.958 . S
H5214 C5199 0.972 . S
H5215 C5199 0.960 . S
C5216 C5217 1.391 . S
C5216 C5218 1.394 . S
C5216 H5232 0.931 . S
C5217 C5216 1.391 . S
C5217 C5221 1.376 . S
C5218 C5216 1.394 . S
C5218 C5219 1.369 . S
C5218 C5222 1.531 . S
C5219 C5218 1.369 . S
C5219 C5220 1.410 . S
C5219 C5227 1.503 . S
C5220 C5219 1.410 . S
C5220 C5221 1.392 . S
C5220 C5223 1.511 . S
C5221 C5217 1.376 . S
C5221 C5220 1.392 . S
C5221 H5233 0.929 . S
C5222 C5218 1.531 . S
C5222 H5234 0.960 . S
C5222 H5235 0.962 . S
C5222 H5236 0.960 . S
C5223 C5220 1.511 . S
C5223 H5237 0.961 . S
C5223 H5238 0.961 . S
C5223 H5239 0.961 . S
C5224 C5225 1.370 . S
C5224 C5226 1.363 . S
C5224 H5240 0.931 . S
C5225 C5224 1.370 . S
C5225 C5229 1.408 . S
C5226 C5224 1.363 . S
C5226 C5227 1.370 . S
C5226 C5230 1.524 . S
C5227 C5219 1.503 . S
C5227 C5226 1.370 . S
C5227 C5228 1.403 . S
C5228 C5227 1.403 . S
C5228 C5229 1.404 . S
C5228 C5231 1.539 . S
C5229 C5225 1.408 . S
C5229 C5228 1.404 . S
C5229 H5241 0.930 . S
C5230 C5226 1.524 . S
C5230 H5242 0.956 . S
C5230 H5243 0.961 . S
C5230 H5244 0.961 . S
C5231 C5228 1.539 . S
C5231 H5245 0.958 . S
C5231 H5246 0.961 . S
C5231 H5247 0.960 . S
H5232 C5216 0.931 . S
H5233 C5221 0.929 . S
H5234 C5222 0.960 . S
H5235 C5222 0.962 . S
H5236 C5222 0.960 . S
H5237 C5223 0.961 . S
H5238 C5223 0.961 . S
H5239 C5223 0.961 . S
H5240 C5224 0.931 . S
H5241 C5229 0.930 . S
H5242 C5230 0.956 . S
H5243 C5230 0.961 . S
H5244 C5230 0.961 . S
H5245 C5231 0.958 . S
H5246 C5231 0.961 . S
H5247 C5231 0.960 . S
C5248 C5249 1.391 . S
C5248 C5250 1.394 . S
C5248 H5264 0.931 . S
C5249 C5248 1.391 . S
C5249 C5253 1.376 . S
C5250 C5248 1.394 . S
C5250 C5251 1.369 . S
C5250 C5254 1.531 . S
C5251 C5250 1.369 . S
C5251 C5252 1.410 . S
C5251 C5259 1.503 . S
C5252 C5251 1.410 . S
C5252 C5253 1.392 . S
C5252 C5255 1.511 . S
C5253 C5249 1.376 . S
C5253 C5252 1.392 . S
C5253 H5265 0.929 . S
C5254 C5250 1.531 . S
C5254 H5266 0.960 . S
C5254 H5267 0.962 . S
C5254 H5268 0.960 . S
C5255 C5252 1.511 . S
C5255 H5269 0.961 . S
C5255 H5270 0.961 . S
C5255 H5271 0.961 . S
C5256 C5257 1.370 . S
C5256 C5258 1.363 . S
C5256 H5272 0.931 . S
C5257 C5256 1.370 . S
C5257 C5261 1.408 . S
C5258 C5256 1.363 . S
C5258 C5259 1.370 . S
C5258 C5262 1.524 . S
C5259 C5251 1.503 . S
C5259 C5258 1.370 . S
C5259 C5260 1.403 . S
C5260 C5259 1.403 . S
C5260 C5261 1.404 . S
C5260 C5263 1.539 . S
C5261 C5257 1.408 . S
C5261 C5260 1.404 . S
C5261 H5273 0.930 . S
C5262 C5258 1.524 . S
C5262 H5274 0.956 . S
C5262 H5275 0.961 . S
C5262 H5276 0.961 . S
C5263 C5260 1.539 . S
C5263 H5277 0.958 . S
C5263 H5278 0.961 . S
C5263 H5279 0.960 . S
H5264 C5248 0.931 . S
H5265 C5253 0.929 . S
H5266 C5254 0.960 . S
H5267 C5254 0.962 . S
H5268 C5254 0.960 . S
H5269 C5255 0.961 . S
H5270 C5255 0.961 . S
H5271 C5255 0.961 . S
H5272 C5256 0.931 . S
H5273 C5261 0.930 . S
H5274 C5262 0.956 . S
H5275 C5262 0.961 . S
H5276 C5262 0.961 . S
H5277 C5263 0.958 . S
H5278 C5263 0.961 . S
H5279 C5263 0.960 . S
C5280 C5281 1.391 . S
C5280 C5282 1.394 . S
C5280 H5296 0.931 . S
C5281 C5280 1.391 . S
C5281 C5285 1.376 . S
C5282 C5280 1.394 . S
C5282 C5283 1.369 . S
C5282 C5286 1.531 . S
C5283 C5282 1.369 . S
C5283 C5284 1.410 . S
C5283 C5291 1.503 . S
C5284 C5283 1.410 . S
C5284 C5285 1.392 . S
C5284 C5287 1.511 . S
C5285 C5281 1.376 . S
C5285 C5284 1.392 . S
C5285 H5297 0.929 . S
C5286 C5282 1.531 . S
C5286 H5298 0.960 . S
C5286 H5299 0.962 . S
C5286 H5300 0.960 . S
C5287 C5284 1.511 . S
C5287 H5301 0.961 . S
C5287 H5302 0.961 . S
C5287 H5303 0.961 . S
C5288 C5289 1.370 . S
C5288 C5290 1.363 . S
C5288 H5304 0.931 . S
C5289 C5288 1.370 . S
C5289 C5293 1.408 . S
C5290 C5288 1.363 . S
C5290 C5291 1.370 . S
C5290 C5294 1.524 . S
C5291 C5283 1.503 . S
C5291 C5290 1.370 . S
C5291 C5292 1.403 . S
C5292 C5291 1.403 . S
C5292 C5293 1.404 . S
C5292 C5295 1.539 . S
C5293 C5289 1.408 . S
C5293 C5292 1.404 . S
C5293 H5305 0.930 . S
C5294 C5290 1.524 . S
C5294 H5306 0.956 . S
C5294 H5307 0.961 . S
C5294 H5308 0.961 . S
C5295 C5292 1.539 . S
C5295 H5309 0.958 . S
C5295 H5310 0.961 . S
C5295 H5311 0.960 . S
H5296 C5280 0.931 . S
H5297 C5285 0.929 . S
H5298 C5286 0.960 . S
H5299 C5286 0.962 . S
H5300 C5286 0.960 . S
H5301 C5287 0.961 . S
H5302 C5287 0.961 . S
H5303 C5287 0.961 . S
H5304 C5288 0.931 . S
H5305 C5293 0.930 . S
H5306 C5294 0.956 . S
H5307 C5294 0.961 . S
H5308 C5294 0.961 . S
H5309 C5295 0.958 . S
H5310 C5295 0.961 . S
H5311 C5295 0.960 . S
C5312 C5313 1.391 . S
C5312 C5314 1.394 . S
C5312 H5328 0.931 . S
C5313 C5312 1.391 . S
C5313 C5317 1.376 . S
C5314 C5312 1.394 . S
C5314 C5315 1.369 . S
C5314 C5318 1.531 . S
C5315 C5314 1.369 . S
C5315 C5316 1.410 . S
C5315 C5323 1.503 . S
C5316 C5315 1.410 . S
C5316 C5317 1.392 . S
C5316 C5319 1.511 . S
C5317 C5313 1.376 . S
C5317 C5316 1.392 . S
C5317 H5329 0.929 . S
C5318 C5314 1.531 . S
C5318 H5330 0.960 . S
C5318 H5331 0.962 . S
C5318 H5332 0.960 . S
C5319 C5316 1.511 . S
C5319 H5333 0.961 . S
C5319 H5334 0.961 . S
C5319 H5335 0.961 . S
C5320 C5321 1.370 . S
C5320 C5322 1.363 . S
C5320 H5336 0.931 . S
C5321 C5320 1.370 . S
C5321 C5325 1.408 . S
C5322 C5320 1.363 . S
C5322 C5323 1.370 . S
C5322 C5326 1.524 . S
C5323 C5315 1.503 . S
C5323 C5322 1.370 . S
C5323 C5324 1.403 . S
C5324 C5323 1.403 . S
C5324 C5325 1.404 . S
C5324 C5327 1.539 . S
C5325 C5321 1.408 . S
C5325 C5324 1.404 . S
C5325 H5337 0.930 . S
C5326 C5322 1.524 . S
C5326 H5338 0.956 . S
C5326 H5339 0.961 . S
C5326 H5340 0.961 . S
C5327 C5324 1.539 . S
C5327 H5341 0.958 . S
C5327 H5342 0.961 . S
C5327 H5343 0.960 . S
H5328 C5312 0.931 . S
H5329 C5317 0.929 . S
H5330 C5318 0.960 . S
H5331 C5318 0.962 . S
H5332 C5318 0.960 . S
H5333 C5319 0.961 . S
H5334 C5319 0.961 . S
H5335 C5319 0.961 . S
H5336 C5320 0.931 . S
H5337 C5325 0.930 . S
H5338 C5326 0.956 . S
H5339 C5326 0.961 . S
H5340 C5326 0.961 . S
H5341 C5327 0.958 . S
H5342 C5327 0.961 . S
H5343 C5327 0.960 . S
C5344 C5345 1.391 . S
C5344 C5346 1.394 . S
C5344 H5360 0.931 . S
C5345 C5344 1.391 . S
C5345 C5349 1.376 . S
C5346 C5344 1.394 . S
C5346 C5347 1.369 . S
C5346 C5350 1.531 . S
C5347 C5346 1.369 . S
C5347 C5348 1.410 . S
C5347 C5355 1.503 . S
C5348 C5347 1.410 . S
C5348 C5349 1.392 . S
C5348 C5351 1.511 . S
C5349 C5345 1.376 . S
C5349 C5348 1.392 . S
C5349 H5361 0.929 . S
C5350 C5346 1.531 . S
C5350 H5362 0.960 . S
C5350 H5363 0.962 . S
C5350 H5364 0.960 . S
C5351 C5348 1.511 . S
C5351 H5365 0.961 . S
C5351 H5366 0.961 . S
C5351 H5367 0.961 . S
C5352 C5353 1.370 . S
C5352 C5354 1.363 . S
C5352 H5368 0.931 . S
C5353 C5352 1.370 . S
C5353 C5357 1.408 . S
C5354 C5352 1.363 . S
C5354 C5355 1.370 . S
C5354 C5358 1.524 . S
C5355 C5347 1.503 . S
C5355 C5354 1.370 . S
C5355 C5356 1.403 . S
C5356 C5355 1.403 . S
C5356 C5357 1.404 . S
C5356 C5359 1.539 . S
C5357 C5353 1.408 . S
C5357 C5356 1.404 . S
C5357 H5369 0.930 . S
C5358 C5354 1.524 . S
C5358 H5370 0.956 . S
C5358 H5371 0.961 . S
C5358 H5372 0.961 . S
C5359 C5356 1.539 . S
C5359 H5373 0.958 . S
C5359 H5374 0.961 . S
C5359 H5375 0.960 . S
H5360 C5344 0.931 . S
H5361 C5349 0.929 . S
H5362 C5350 0.960 . S
H5363 C5350 0.962 . S
H5364 C5350 0.960 . S
H5365 C5351 0.961 . S
H5366 C5351 0.961 . S
H5367 C5351 0.961 . S
H5368 C5352 0.931 . S
H5369 C5357 0.930 . S
H5370 C5358 0.956 . S
H5371 C5358 0.961 . S
H5372 C5358 0.961 . S
H5373 C5359 0.958 . S
H5374 C5359 0.961 . S
H5375 C5359 0.960 . S
C5376 C5377 1.391 . S
C5376 C5378 1.394 . S
C5376 H5392 0.931 . S
C5377 C5376 1.391 . S
C5377 C5381 1.376 . S
C5378 C5376 1.394 . S
C5378 C5379 1.369 . S
C5378 C5382 1.531 . S
C5379 C5378 1.369 . S
C5379 C5380 1.410 1_655 S
C5379 C5387 1.503 1_655 S
C5380 C5379 1.410 1_455 S
C5380 C5381 1.392 1_455 S
C5380 C5383 1.511 . S
C5381 C5377 1.376 . S
C5381 C5380 1.392 1_655 S
C5381 H5393 0.929 1_655 S
C5382 C5378 1.531 . S
C5382 H5394 0.960 . S
C5382 H5395 0.962 . S
C5382 H5396 0.960 . S
C5383 C5380 1.511 . S
C5383 H5397 0.961 . S
C5383 H5398 0.961 . S
C5383 H5399 0.961 . S
C5384 C5385 1.370 . S
C5384 C5386 1.363 . S
C5384 H5400 0.931 . S
C5385 C5384 1.370 . S
C5385 C5389 1.408 . S
C5386 C5384 1.363 . S
C5386 C5387 1.370 . S
C5386 C5390 1.524 1_455 S
C5387 C5379 1.503 1_455 S
C5387 C5386 1.370 . S
C5387 C5388 1.403 . S
C5388 C5387 1.403 . S
C5388 C5389 1.404 . S
C5388 C5391 1.539 . S
C5389 C5385 1.408 . S
C5389 C5388 1.404 . S
C5389 H5401 0.930 . S
C5390 C5386 1.524 1_655 S
C5390 H5402 0.956 . S
C5390 H5403 0.961 . S
C5390 H5404 0.961 . S
C5391 C5388 1.539 . S
C5391 H5405 0.958 . S
C5391 H5406 0.961 . S
C5391 H5407 0.960 . S
H5392 C5376 0.931 . S
H5393 C5381 0.929 1_455 S
H5394 C5382 0.960 . S
H5395 C5382 0.962 . S
H5396 C5382 0.960 . S
H5397 C5383 0.961 . S
H5398 C5383 0.961 . S
H5399 C5383 0.961 . S
H5400 C5384 0.931 . S
H5401 C5389 0.930 . S
H5402 C5390 0.956 . S
H5403 C5390 0.961 . S
H5404 C5390 0.961 . S
H5405 C5391 0.958 . S
H5406 C5391 0.961 . S
H5407 C5391 0.960 . S
C5408 C5409 1.391 . S
C5408 C5410 1.394 . S
C5408 H5424 0.931 . S
C5409 C5408 1.391 . S
C5409 C5413 1.376 . S
C5410 C5408 1.394 . S
C5410 C5411 1.369 . S
C5410 C5414 1.531 . S
C5411 C5410 1.369 . S
C5411 C5412 1.410 . S
C5411 C5419 1.503 . S
C5412 C5411 1.410 . S
C5412 C5413 1.392 . S
C5412 C5415 1.511 . S
C5413 C5409 1.376 . S
C5413 C5412 1.392 . S
C5413 H5425 0.929 . S
C5414 C5410 1.531 . S
C5414 H5426 0.960 . S
C5414 H5427 0.962 . S
C5414 H5428 0.960 . S
C5415 C5412 1.511 . S
C5415 H5429 0.961 . S
C5415 H5430 0.961 . S
C5415 H5431 0.961 . S
C5416 C5417 1.370 . S
C5416 C5418 1.363 . S
C5416 H5432 0.931 . S
C5417 C5416 1.370 . S
C5417 C5421 1.408 . S
C5418 C5416 1.363 . S
C5418 C5419 1.370 . S
C5418 C5422 1.524 . S
C5419 C5411 1.503 . S
C5419 C5418 1.370 . S
C5419 C5420 1.403 . S
C5420 C5419 1.403 . S
C5420 C5421 1.404 . S
C5420 C5423 1.539 . S
C5421 C5417 1.408 . S
C5421 C5420 1.404 . S
C5421 H5433 0.930 . S
C5422 C5418 1.524 . S
C5422 H5434 0.956 . S
C5422 H5435 0.961 . S
C5422 H5436 0.961 . S
C5423 C5420 1.539 . S
C5423 H5437 0.958 . S
C5423 H5438 0.961 . S
C5423 H5439 0.960 . S
H5424 C5408 0.931 . S
H5425 C5413 0.929 . S
H5426 C5414 0.960 . S
H5427 C5414 0.962 . S
H5428 C5414 0.960 . S
H5429 C5415 0.961 . S
H5430 C5415 0.961 . S
H5431 C5415 0.961 . S
H5432 C5416 0.931 . S
H5433 C5421 0.930 . S
H5434 C5422 0.956 . S
H5435 C5422 0.961 . S
H5436 C5422 0.961 . S
H5437 C5423 0.958 . S
H5438 C5423 0.961 . S
H5439 C5423 0.960 . S
C5440 C5441 1.391 . S
C5440 C5442 1.394 . S
C5440 H5456 0.931 . S
C5441 C5440 1.391 . S
C5441 C5445 1.376 . S
C5442 C5440 1.394 . S
C5442 C5443 1.369 . S
C5442 C5446 1.531 . S
C5443 C5442 1.369 . S
C5443 C5444 1.410 . S
C5443 C5451 1.503 . S
C5444 C5443 1.410 . S
C5444 C5445 1.392 . S
C5444 C5447 1.511 . S
C5445 C5441 1.376 . S
C5445 C5444 1.392 . S
C5445 H5457 0.929 . S
C5446 C5442 1.531 . S
C5446 H5458 0.960 . S
C5446 H5459 0.962 . S
C5446 H5460 0.960 . S
C5447 C5444 1.511 . S
C5447 H5461 0.961 . S
C5447 H5462 0.961 . S
C5447 H5463 0.961 . S
C5448 C5449 1.370 . S
C5448 C5450 1.363 . S
C5448 H5464 0.931 . S
C5449 C5448 1.370 . S
C5449 C5453 1.408 . S
C5450 C5448 1.363 . S
C5450 C5451 1.370 . S
C5450 C5454 1.524 . S
C5451 C5443 1.503 . S
C5451 C5450 1.370 . S
C5451 C5452 1.403 . S
C5452 C5451 1.403 . S
C5452 C5453 1.404 . S
C5452 C5455 1.539 . S
C5453 C5449 1.408 . S
C5453 C5452 1.404 . S
C5453 H5465 0.930 . S
C5454 C5450 1.524 . S
C5454 H5466 0.956 . S
C5454 H5467 0.961 . S
C5454 H5468 0.961 . S
C5455 C5452 1.539 . S
C5455 H5469 0.958 . S
C5455 H5470 0.961 . S
C5455 H5471 0.960 . S
H5456 C5440 0.931 . S
H5457 C5445 0.929 . S
H5458 C5446 0.960 . S
H5459 C5446 0.962 . S
H5460 C5446 0.960 . S
H5461 C5447 0.961 . S
H5462 C5447 0.961 . S
H5463 C5447 0.961 . S
H5464 C5448 0.931 . S
H5465 C5453 0.930 . S
H5466 C5454 0.956 . S
H5467 C5454 0.961 . S
H5468 C5454 0.961 . S
H5469 C5455 0.958 . S
H5470 C5455 0.961 . S
H5471 C5455 0.960 . S
C5472 C5473 1.391 . S
C5472 C5474 1.394 . S
C5472 H5488 0.931 . S
C5473 C5472 1.391 . S
C5473 C5477 1.376 . S
C5474 C5472 1.394 . S
C5474 C5475 1.369 . S
C5474 C5478 1.531 . S
C5475 C5474 1.369 . S
C5475 C5476 1.410 . S
C5475 C5483 1.503 . S
C5476 C5475 1.410 . S
C5476 C5477 1.392 . S
C5476 C5479 1.511 . S
C5477 C5473 1.376 . S
C5477 C5476 1.392 . S
C5477 H5489 0.929 . S
C5478 C5474 1.531 . S
C5478 H5490 0.960 . S
C5478 H5491 0.962 . S
C5478 H5492 0.960 . S
C5479 C5476 1.511 . S
C5479 H5493 0.961 . S
C5479 H5494 0.961 . S
C5479 H5495 0.961 . S
C5480 C5481 1.370 . S
C5480 C5482 1.363 . S
C5480 H5496 0.931 . S
C5481 C5480 1.370 . S
C5481 C5485 1.408 . S
C5482 C5480 1.363 . S
C5482 C5483 1.370 . S
C5482 C5486 1.524 . S
C5483 C5475 1.503 . S
C5483 C5482 1.370 . S
C5483 C5484 1.403 . S
C5484 C5483 1.403 . S
C5484 C5485 1.404 . S
C5484 C5487 1.539 . S
C5485 C5481 1.408 . S
C5485 C5484 1.404 . S
C5485 H5497 0.930 . S
C5486 C5482 1.524 . S
C5486 H5498 0.956 . S
C5486 H5499 0.961 . S
C5486 H5500 0.961 . S
C5487 C5484 1.539 . S
C5487 H5501 0.958 . S
C5487 H5502 0.961 . S
C5487 H5503 0.960 . S
H5488 C5472 0.931 . S
H5489 C5477 0.929 . S
H5490 C5478 0.960 . S
H5491 C5478 0.962 . S
H5492 C5478 0.960 . S
H5493 C5479 0.961 . S
H5494 C5479 0.961 . S
H5495 C5479 0.961 . S
H5496 C5480 0.931 . S
H5497 C5485 0.930 . S
H5498 C5486 0.956 . S
H5499 C5486 0.961 . S
H5500 C5486 0.961 . S
H5501 C5487 0.958 . S
H5502 C5487 0.961 . S
H5503 C5487 0.960 . S
C5504 C5505 1.391 . S
C5504 C5506 1.394 . S
C5504 H5520 0.931 . S
C5505 C5504 1.391 . S
C5505 C5509 1.376 . S
C5506 C5504 1.394 . S
C5506 C5507 1.369 . S
C5506 C5510 1.531 . S
C5507 C5506 1.369 . S
C5507 C5508 1.410 . S
C5507 C5515 1.503 . S
C5508 C5507 1.410 . S
C5508 C5509 1.392 . S
C5508 C5511 1.511 . S
C5509 C5505 1.376 . S
C5509 C5508 1.392 . S
C5509 H5521 0.929 . S
C5510 C5506 1.531 . S
C5510 H5522 0.960 . S
C5510 H5523 0.962 . S
C5510 H5524 0.960 . S
C5511 C5508 1.511 . S
C5511 H5525 0.961 . S
C5511 H5526 0.961 . S
C5511 H5527 0.961 . S
C5512 C5513 1.370 . S
C5512 C5514 1.363 . S
C5512 H5528 0.931 . S
C5513 C5512 1.370 . S
C5513 C5517 1.408 1_655 S
C5514 C5512 1.363 . S
C5514 C5515 1.370 . S
C5514 C5518 1.524 . S
C5515 C5507 1.503 . S
C5515 C5514 1.370 . S
C5515 C5516 1.390 1_655 S
C5516 C5515 1.390 1_455 S
C5516 C5517 1.408 . S
C5516 C5519 1.548 . S
C5517 C5513 1.408 1_455 S
C5517 C5516 1.408 . S
C5517 H5529 0.930 . S
C5518 C5514 1.524 . S
C5518 H5530 0.956 . S
C5518 H5531 0.961 . S
C5518 H5532 0.961 . S
C5519 C5516 1.548 . S
C5519 H5533 0.958 . S
C5519 H5534 0.961 . S
C5519 H5535 0.960 . S
H5520 C5504 0.931 . S
H5521 C5509 0.929 . S
H5522 C5510 0.960 . S
H5523 C5510 0.962 . S
H5524 C5510 0.960 . S
H5525 C5511 0.961 . S
H5526 C5511 0.961 . S
H5527 C5511 0.961 . S
H5528 C5512 0.931 . S
H5529 C5517 0.930 . S
H5530 C5518 0.956 . S
H5531 C5518 0.961 . S
H5532 C5518 0.961 . S
H5533 C5519 0.958 . S
H5534 C5519 0.961 . S
H5535 C5519 0.960 . S
C5536 C5537 1.391 . S
C5536 C5538 1.394 . S
C5536 H5552 0.931 . S
C5537 C5536 1.391 . S
C5537 C5541 1.376 . S
C5538 C5536 1.394 . S
C5538 C5539 1.369 . S
C5538 C5542 1.531 . S
C5539 C5538 1.369 . S
C5539 C5540 1.410 . S
C5539 C5547 1.503 . S
C5540 C5539 1.410 . S
C5540 C5541 1.392 . S
C5540 C5543 1.511 . S
C5541 C5537 1.376 . S
C5541 C5540 1.392 . S
C5541 H5553 0.929 . S
C5542 C5538 1.531 . S
C5542 H5554 0.960 . S
C5542 H5555 0.962 . S
C5542 H5556 0.960 . S
C5543 C5540 1.511 . S
C5543 H5557 0.961 . S
C5543 H5558 0.961 . S
C5543 H5559 0.961 . S
C5544 C5545 1.370 . S
C5544 C5546 1.363 . S
C5544 H5560 0.931 . S
C5545 C5544 1.370 . S
C5545 C5549 1.408 . S
C5546 C5544 1.363 . S
C5546 C5547 1.370 . S
C5546 C5550 1.524 . S
C5547 C5539 1.503 . S
C5547 C5546 1.370 . S
C5547 C5548 1.403 . S
C5548 C5547 1.403 . S
C5548 C5549 1.404 . S
C5548 C5551 1.539 . S
C5549 C5545 1.408 . S
C5549 C5548 1.404 . S
C5549 H5561 0.930 . S
C5550 C5546 1.524 . S
C5550 H5562 0.956 . S
C5550 H5563 0.961 . S
C5550 H5564 0.961 . S
C5551 C5548 1.539 . S
C5551 H5565 0.958 . S
C5551 H5566 0.961 . S
C5551 H5567 0.960 . S
H5552 C5536 0.931 . S
H5553 C5541 0.929 . S
H5554 C5542 0.960 . S
H5555 C5542 0.962 . S
H5556 C5542 0.960 . S
H5557 C5543 0.961 . S
H5558 C5543 0.961 . S
H5559 C5543 0.961 . S
H5560 C5544 0.931 . S
H5561 C5549 0.930 . S
H5562 C5550 0.956 . S
H5563 C5550 0.961 . S
H5564 C5550 0.961 . S
H5565 C5551 0.958 . S
H5566 C5551 0.961 . S
H5567 C5551 0.960 . S
C5568 C5569 1.391 . S
C5568 C5570 1.394 . S
C5568 H5584 0.931 . S
C5569 C5568 1.391 . S
C5569 C5573 1.376 . S
C5570 C5568 1.394 . S
C5570 C5571 1.369 . S
C5570 C5574 1.531 . S
C5571 C5570 1.369 . S
C5571 C5572 1.410 . S
C5571 C5579 1.503 . S
C5572 C5571 1.410 . S
C5572 C5573 1.392 . S
C5572 C5575 1.511 . S
C5573 C5569 1.376 . S
C5573 C5572 1.392 . S
C5573 H5585 0.929 . S
C5574 C5570 1.531 . S
C5574 H5586 0.960 . S
C5574 H5587 0.962 . S
C5574 H5588 0.960 . S
C5575 C5572 1.511 . S
C5575 H5589 0.961 . S
C5575 H5590 0.961 . S
C5575 H5591 0.961 . S
C5576 C5577 1.370 . S
C5576 C5578 1.363 . S
C5576 H5592 0.931 . S
C5577 C5576 1.370 . S
C5577 C5581 1.408 . S
C5578 C5576 1.363 . S
C5578 C5579 1.370 . S
C5578 C5582 1.524 . S
C5579 C5571 1.503 . S
C5579 C5578 1.370 . S
C5579 C5580 1.403 . S
C5580 C5579 1.403 . S
C5580 C5581 1.404 . S
C5580 C5583 1.539 . S
C5581 C5577 1.408 . S
C5581 C5580 1.404 . S
C5581 H5593 0.930 . S
C5582 C5578 1.524 . S
C5582 H5594 0.956 . S
C5582 H5595 0.961 . S
C5582 H5596 0.961 . S
C5583 C5580 1.539 . S
C5583 H5597 0.958 . S
C5583 H5598 0.961 . S
C5583 H5599 0.960 . S
H5584 C5568 0.931 . S
H5585 C5573 0.929 . S
H5586 C5574 0.960 . S
H5587 C5574 0.962 . S
H5588 C5574 0.960 . S
H5589 C5575 0.961 . S
H5590 C5575 0.961 . S
H5591 C5575 0.961 . S
H5592 C5576 0.931 . S
H5593 C5581 0.930 . S
H5594 C5582 0.956 . S
H5595 C5582 0.961 . S
H5596 C5582 0.961 . S
H5597 C5583 0.958 . S
H5598 C5583 0.961 . S
H5599 C5583 0.960 . S
C5600 C5601 1.391 . S
C5600 C5602 1.394 . S
C5600 H5616 0.931 . S
C5601 C5600 1.391 . S
C5601 C5605 1.376 . S
C5602 C5600 1.394 . S
C5602 C5603 1.369 . S
C5602 C5606 1.531 . S
C5603 C5602 1.369 . S
C5603 C5604 1.410 . S
C5603 C5611 1.503 . S
C5604 C5603 1.410 . S
C5604 C5605 1.392 . S
C5604 C5607 1.511 . S
C5605 C5601 1.376 . S
C5605 C5604 1.392 . S
C5605 H5617 0.929 . S
C5606 C5602 1.531 . S
C5606 H5618 0.959 . S
C5606 H5619 0.962 1_565 S
C5606 H5620 0.960 . S
C5607 C5604 1.511 . S
C5607 H5621 0.961 . S
C5607 H5622 0.961 . S
C5607 H5623 0.961 . S
C5608 C5609 1.370 . S
C5608 C5610 1.363 1_545 S
C5608 H5624 0.931 . S
C5609 C5608 1.370 . S
C5609 C5613 1.408 1_545 S
C5610 C5608 1.363 1_565 S
C5610 C5611 1.370 . S
C5610 C5614 1.524 . S
C5611 C5603 1.503 . S
C5611 C5610 1.370 . S
C5611 C5612 1.403 . S
C5612 C5611 1.403 . S
C5612 C5613 1.404 . S
C5612 C5615 1.539 . S
C5613 C5609 1.408 1_565 S
C5613 C5612 1.404 . S
C5613 H5625 0.930 . S
C5614 C5610 1.524 . S
C5614 H5626 0.956 . S
C5614 H5627 0.961 . S
C5614 H5628 0.961 . S
C5615 C5612 1.539 . S
C5615 H5629 0.958 . S
C5615 H5630 0.961 . S
C5615 H5631 0.960 . S
H5616 C5600 0.931 . S
H5617 C5605 0.929 . S
H5618 C5606 0.959 . S
H5619 C5606 0.962 1_545 S
H5620 C5606 0.960 . S
H5621 C5607 0.961 . S
H5622 C5607 0.961 . S
H5623 C5607 0.961 . S
H5624 C5608 0.931 . S
H5625 C5613 0.930 . S
H5626 C5614 0.956 . S
H5627 C5614 0.961 . S
H5628 C5614 0.961 . S
H5629 C5615 0.958 . S
H5630 C5615 0.961 . S
H5631 C5615 0.960 . S
C5632 C5633 1.391 . S
C5632 C5634 1.394 . S
C5632 H5648 0.931 . S
C5633 C5632 1.391 . S
C5633 C5637 1.376 . S
C5634 C5632 1.394 . S
C5634 C5635 1.369 . S
C5634 C5638 1.531 . S
C5635 C5634 1.369 . S
C5635 C5636 1.410 . S
C5635 C5643 1.503 . S
C5636 C5635 1.410 . S
C5636 C5637 1.392 . S
C5636 C5639 1.511 . S
C5637 C5633 1.376 . S
C5637 C5636 1.392 . S
C5637 H5649 0.929 . S
C5638 C5634 1.531 . S
C5638 H5650 0.960 . S
C5638 H5651 0.962 . S
C5638 H5652 0.960 . S
C5639 C5636 1.511 . S
C5639 H5653 0.961 . S
C5639 H5654 0.961 . S
C5639 H5655 0.961 . S
C5640 C5641 1.370 . S
C5640 C5642 1.363 . S
C5640 H5656 0.931 . S
C5641 C5640 1.370 . S
C5641 C5645 1.408 . S
C5642 C5640 1.363 . S
C5642 C5643 1.370 . S
C5642 C5646 1.524 . S
C5643 C5635 1.503 . S
C5643 C5642 1.370 . S
C5643 C5644 1.403 . S
C5644 C5643 1.403 . S
C5644 C5645 1.404 . S
C5644 C5647 1.539 . S
C5645 C5641 1.408 . S
C5645 C5644 1.404 . S
C5645 H5657 0.930 . S
C5646 C5642 1.524 . S
C5646 H5658 0.956 . S
C5646 H5659 0.961 . S
C5646 H5660 0.961 . S
C5647 C5644 1.539 . S
C5647 H5661 0.958 . S
C5647 H5662 0.961 . S
C5647 H5663 0.960 . S
H5648 C5632 0.931 . S
H5649 C5637 0.929 . S
H5650 C5638 0.960 . S
H5651 C5638 0.962 . S
H5652 C5638 0.960 . S
H5653 C5639 0.961 . S
H5654 C5639 0.961 . S
H5655 C5639 0.961 . S
H5656 C5640 0.931 . S
H5657 C5645 0.930 . S
H5658 C5646 0.956 . S
H5659 C5646 0.961 . S
H5660 C5646 0.961 . S
H5661 C5647 0.958 . S
H5662 C5647 0.961 . S
H5663 C5647 0.960 . S
C5664 C5665 1.391 1_554 S
C5664 C5666 1.394 . S
C5664 H5680 0.931 . S
C5665 C5664 1.391 1_556 S
C5665 C5669 1.376 . S
C5666 C5664 1.394 . S
C5666 C5667 1.369 . S
C5666 C5670 1.531 . S
C5667 C5666 1.369 . S
C5667 C5668 1.410 1_554 S
C5667 C5675 1.503 . S
C5668 C5667 1.410 1_556 S
C5668 C5669 1.392 . S
C5668 C5671 1.511 . S
C5669 C5665 1.376 . S
C5669 C5668 1.392 . S
C5669 H5681 0.929 . S
C5670 C5666 1.531 . S
C5670 H5682 0.960 . S
C5670 H5683 0.962 . S
C5670 H5684 0.960 . S
C5671 C5668 1.511 . S
C5671 H5685 0.961 . S
C5671 H5686 0.961 . S
C5671 H5687 0.961 . S
C5672 C5673 1.390 . S
C5672 C5674 1.349 1_554 S
C5672 H5688 0.929 1_554 S
C5673 C5672 1.390 . S
C5673 C5677 1.408 . S
C5674 C5672 1.349 1_556 S
C5674 C5675 1.370 1_556 S
C5674 C5678 1.524 . S
C5675 C5667 1.503 . S
C5675 C5674 1.370 1_554 S
C5675 C5676 1.403 . S
C5676 C5675 1.403 . S
C5676 C5677 1.404 . S
C5676 C5679 1.539 . S
C5677 C5673 1.408 . S
C5677 C5676 1.404 . S
C5677 H5689 0.930 . S
C5678 C5674 1.524 . S
C5678 H5690 0.965 . S
C5678 H5691 0.961 . S
C5678 H5692 0.961 . S
C5679 C5676 1.539 . S
C5679 H5693 0.958 . S
C5679 H5694 0.961 . S
C5679 H5695 0.960 . S
H5680 C5664 0.931 . S
H5681 C5669 0.929 . S
H5682 C5670 0.960 . S
H5683 C5670 0.962 . S
H5684 C5670 0.960 . S
H5685 C5671 0.961 . S
H5686 C5671 0.961 . S
H5687 C5671 0.961 . S
H5688 C5672 0.929 1_556 S
H5689 C5677 0.930 . S
H5690 C5678 0.965 . S
H5691 C5678 0.961 . S
H5692 C5678 0.961 . S
H5693 C5679 0.958 . S
H5694 C5679 0.961 . S
H5695 C5679 0.960 . S
C5696 C5697 1.391 . S
C5696 C5698 1.394 . S
C5696 H5712 0.931 . S
C5697 C5696 1.391 . S
C5697 C5701 1.376 . S
C5698 C5696 1.394 . S
C5698 C5699 1.369 . S
C5698 C5702 1.531 . S
C5699 C5698 1.369 . S
C5699 C5700 1.410 . S
C5699 C5707 1.503 . S
C5700 C5699 1.410 . S
C5700 C5701 1.392 . S
C5700 C5703 1.511 . S
C5701 C5697 1.376 . S
C5701 C5700 1.392 . S
C5701 H5713 0.929 . S
C5702 C5698 1.531 . S
C5702 H5714 0.960 . S
C5702 H5715 0.962 . S
C5702 H5716 0.960 . S
C5703 C5700 1.511 . S
C5703 H5717 0.961 . S
C5703 H5718 0.961 . S
C5703 H5719 0.961 . S
C5704 C5705 1.370 . S
C5704 C5706 1.363 . S
C5704 H5720 0.931 . S
C5705 C5704 1.370 . S
C5705 C5709 1.408 . S
C5706 C5704 1.363 . S
C5706 C5707 1.370 . S
C5706 C5710 1.524 . S
C5707 C5699 1.503 . S
C5707 C5706 1.370 . S
C5707 C5708 1.403 . S
C5708 C5707 1.403 . S
C5708 C5709 1.404 . S
C5708 C5711 1.539 . S
C5709 C5705 1.408 . S
C5709 C5708 1.404 . S
C5709 H5721 0.930 . S
C5710 C5706 1.524 . S
C5710 H5722 0.956 . S
C5710 H5723 0.961 . S
C5710 H5724 0.961 . S
C5711 C5708 1.539 . S
C5711 H5725 0.958 . S
C5711 H5726 0.961 . S
C5711 H5727 0.960 . S
H5712 C5696 0.931 . S
H5713 C5701 0.929 . S
H5714 C5702 0.960 . S
H5715 C5702 0.962 . S
H5716 C5702 0.960 . S
H5717 C5703 0.961 . S
H5718 C5703 0.961 . S
H5719 C5703 0.961 . S
H5720 C5704 0.931 . S
H5721 C5709 0.930 . S
H5722 C5710 0.956 . S
H5723 C5710 0.961 . S
H5724 C5710 0.961 . S
H5725 C5711 0.958 . S
H5726 C5711 0.961 . S
H5727 C5711 0.960 . S
C5728 C5729 1.391 1_556 S
C5728 C5730 1.394 . S
C5728 H5744 0.931 . S
C5729 C5728 1.391 1_554 S
C5729 C5733 1.376 . S
C5730 C5728 1.394 . S
C5730 C5731 1.369 1_556 S
C5730 C5734 1.531 . S
C5731 C5730 1.369 1_554 S
C5731 C5732 1.410 . S
C5731 C5739 1.503 1_554 S
C5732 C5731 1.410 . S
C5732 C5733 1.392 . S
C5732 C5735 1.511 . S
C5733 C5729 1.376 . S
C5733 C5732 1.392 . S
C5733 H5745 0.929 . S
C5734 C5730 1.531 . S
C5734 H5746 0.960 . S
C5734 H5747 0.962 . S
C5734 H5748 0.960 . S
C5735 C5732 1.511 . S
C5735 H5749 0.961 . S
C5735 H5750 0.961 . S
C5735 H5751 0.961 . S
C5736 C5737 1.370 . S
C5736 C5738 1.363 . S
C5736 H5752 0.931 . S
C5737 C5736 1.370 . S
C5737 C5741 1.408 . S
C5738 C5736 1.363 . S
C5738 C5739 1.370 . S
C5738 C5742 1.524 . S
C5739 C5731 1.503 1_556 S
C5739 C5738 1.370 . S
C5739 C5740 1.403 1_556 S
C5740 C5739 1.403 1_554 S
C5740 C5741 1.404 1_554 S
C5740 C5743 1.539 . S
C5741 C5737 1.408 . S
C5741 C5740 1.404 1_556 S
C5741 H5753 0.930 1_556 S
C5742 C5738 1.524 . S
C5742 H5754 0.956 . S
C5742 H5755 0.961 . S
C5742 H5756 0.961 . S
C5743 C5740 1.539 . S
C5743 H5757 0.958 . S
C5743 H5758 0.961 . S
C5743 H5759 0.960 . S
H5744 C5728 0.931 . S
H5745 C5733 0.929 . S
H5746 C5734 0.960 . S
H5747 C5734 0.962 . S
H5748 C5734 0.960 . S
H5749 C5735 0.961 . S
H5750 C5735 0.961 . S
H5751 C5735 0.961 . S
H5752 C5736 0.931 . S
H5753 C5741 0.930 1_554 S
H5754 C5742 0.956 . S
H5755 C5742 0.961 . S
H5756 C5742 0.961 . S
H5757 C5743 0.958 . S
H5758 C5743 0.961 . S
H5759 C5743 0.960 . S
C5760 C5761 1.391 . S
C5760 C5762 1.394 . S
C5760 H5776 0.931 . S
C5761 C5760 1.391 . S
C5761 C5765 1.376 . S
C5762 C5760 1.394 . S
C5762 C5763 1.369 . S
C5762 C5766 1.531 . S
C5763 C5762 1.369 . S
C5763 C5764 1.410 . S
C5763 C5771 1.503 . S
C5764 C5763 1.410 . S
C5764 C5765 1.392 . S
C5764 C5767 1.511 . S
C5765 C5761 1.376 . S
C5765 C5764 1.392 . S
C5765 H5777 0.929 . S
C5766 C5762 1.531 . S
C5766 H5778 0.960 . S
C5766 H5779 0.962 . S
C5766 H5780 0.960 . S
C5767 C5764 1.511 . S
C5767 H5781 0.961 . S
C5767 H5782 0.961 . S
C5767 H5783 0.961 . S
C5768 C5769 1.370 . S
C5768 C5770 1.363 . S
C5768 H5784 0.931 . S
C5769 C5768 1.370 . S
C5769 C5773 1.408 . S
C5770 C5768 1.363 . S
C5770 C5771 1.370 . S
C5770 C5774 1.524 . S
C5771 C5763 1.503 . S
C5771 C5770 1.370 . S
C5771 C5772 1.403 . S
C5772 C5771 1.403 . S
C5772 C5773 1.404 . S
C5772 C5775 1.539 . S
C5773 C5769 1.408 . S
C5773 C5772 1.404 . S
C5773 H5785 0.930 . S
C5774 C5770 1.524 . S
C5774 H5786 0.956 . S
C5774 H5787 0.961 . S
C5774 H5788 0.961 . S
C5775 C5772 1.539 . S
C5775 H5789 0.958 . S
C5775 H5790 0.961 . S
C5775 H5791 0.960 . S
H5776 C5760 0.931 . S
H5777 C5765 0.929 . S
H5778 C5766 0.960 . S
H5779 C5766 0.962 . S
H5780 C5766 0.960 . S
H5781 C5767 0.961 . S
H5782 C5767 0.961 . S
H5783 C5767 0.961 . S
H5784 C5768 0.931 . S
H5785 C5773 0.930 . S
H5786 C5774 0.956 . S
H5787 C5774 0.961 . S
H5788 C5774 0.961 . S
H5789 C5775 0.958 . S
H5790 C5775 0.961 . S
H5791 C5775 0.960 . S
C5792 C5793 1.391 . S
C5792 C5794 1.394 . S
C5792 H5808 0.931 . S
C5793 C5792 1.391 . S
C5793 C5797 1.376 . S
C5794 C5792 1.394 . S
C5794 C5795 1.369 . S
C5794 C5798 1.531 . S
C5795 C5794 1.369 . S
C5795 C5796 1.410 . S
C5795 C5803 1.503 . S
C5796 C5795 1.410 . S
C5796 C5797 1.392 . S
C5796 C5799 1.511 . S
C5797 C5793 1.376 . S
C5797 C5796 1.392 . S
C5797 H5809 0.929 . S
C5798 C5794 1.531 . S
C5798 H5810 0.960 . S
C5798 H5811 0.962 . S
C5798 H5812 0.960 . S
C5799 C5796 1.511 . S
C5799 H5813 0.961 . S
C5799 H5814 0.961 . S
C5799 H5815 0.961 . S
C5800 C5801 1.370 . S
C5800 C5802 1.363 . S
C5800 H5816 0.931 . S
C5801 C5800 1.370 . S
C5801 C5805 1.408 . S
C5802 C5800 1.363 . S
C5802 C5803 1.370 . S
C5802 C5806 1.524 . S
C5803 C5795 1.503 . S
C5803 C5802 1.370 . S
C5803 C5804 1.403 . S
C5804 C5803 1.403 . S
C5804 C5805 1.404 . S
C5804 C5807 1.539 . S
C5805 C5801 1.408 . S
C5805 C5804 1.404 . S
C5805 H5817 0.930 . S
C5806 C5802 1.524 . S
C5806 H5818 0.956 . S
C5806 H5819 0.961 . S
C5806 H5820 0.961 . S
C5807 C5804 1.539 . S
C5807 H5821 0.958 . S
C5807 H5822 0.961 . S
C5807 H5823 0.960 . S
H5808 C5792 0.931 . S
H5809 C5797 0.929 . S
H5810 C5798 0.960 . S
H5811 C5798 0.962 . S
H5812 C5798 0.960 . S
H5813 C5799 0.961 . S
H5814 C5799 0.961 . S
H5815 C5799 0.961 . S
H5816 C5800 0.931 . S
H5817 C5805 0.930 . S
H5818 C5806 0.956 . S
H5819 C5806 0.961 . S
H5820 C5806 0.961 . S
H5821 C5807 0.958 . S
H5822 C5807 0.961 . S
H5823 C5807 0.960 . S
C2753 C665 2.221 . S
C2761 C2114 2.231 1_556 S
C2785 C381 2.047 . S
C2793 C2171 2.042 . S
C2817 C460 1.143 . S
C2825 C2194 1.138 . S
C2857 C2248 1.391 . S
C2849 C585 1.392 . S
C2881 C108 1.236 . S
C2889 C2288 1.256 . S
C2921 C2319 0.272 . S
C2913 C196 0.357 . S
C2953 C2371 1.286 . S
C2945 C313 1.275 . S
C2977 C49 1.674 . S
C2985 C2394 1.661 . S
C3017 C2131 2.406 . S
C3009 C1457 2.411 . S
C3041 C1545 0.217 . S
C3049 C2168 0.463 . S
C3081 C2211 1.330 . S
C3073 C1721 1.351 . S
C3113 C2234 1.381 . S
C3105 C1113 1.306 . S
C3137 C1428 1.839 . S
C3145 C2274 1.905 . S
C3177 C2322 1.443 . S
C3169 C1516 1.472 . S
C3209 C2368 0.315 . S
C3201 C1692 0.295 . S
C3241 C2411 2.013 . S
C3233 C1085 2.008 . S
C3273 C2128 1.452 1_565 S
C3265 C988 1.498 . S
C3297 C1817 1.954 . S
C3305 C2451 1.948 . S
C3337 C2483 2.507 . S
C3329 C2081 2.567 . S
C3369 C2514 0.557 1_655 S
C3361 C1993 0.521 . S
C3393 C761 1.342 . S
C3401 C2408 1.348 . S
C3425 C821 1.514 . S
C3433 C2208 1.479 . S
C3457 C2053 2.281 . S
C3465 C2571 2.273 . S
C3497 C2594 0.348 . S
C3489 C1868 0.337 . S
C3529 C2123 2.222 . S
C3521 C372 2.203 . S
C3561 C2602 2.042 . S
C3553 C645 2.018 . S
C3585 C577 1.065 . S
C3593 C2203 1.123 . S
C3617 C497 1.391 . S
C3625 C2559 1.384 . S
C3657 C2279 1.241 . S
C3649 C57 1.272 . S
C3681 C293 0.414 . S
C3689 C2488 0.255 . S
C3721 C2362 1.287 1_556 S
C3713 C205 1.237 . S
C3753 C2643 1.657 . S
C3745 C145 1.680 . S
C3785 C2122 2.398 . S
C3777 C909 2.412 1_545 S
C3817 C2599 0.428 . S
C3809 C1956 0.325 . S
C3841 C724 1.338 . S
C3849 C2202 1.323 . S
C3873 C1780 1.311 . S
C3881 C2563 1.378 . S
C3905 C937 1.847 . S
C3913 C2283 1.885 . S
C3945 C2491 1.434 . S
C3937 C1985 1.469 . S
C3969 C753 0.306 . S
C3977 C2359 0.355 . S
C4001 C1809 2.031 . S
C4009 C2642 1.996 . S
C4033 C1173 1.485 . S
C4041 C2119 1.456 . S
C4065 C1105 1.935 . S
C4073 C2442 1.946 . S
C4097 C1633 2.565 . S
C4105 C2314 2.505 . S
C4129 C1553 0.607 . S
C4137 C2523 0.558 . S
C4169 C2639 1.348 . S
C4161 C1729 1.336 . S
C4193 C1340 1.521 . S
C4201 C2199 1.475 . S
C4233 C2242 2.270 . S
C4225 C1604 2.278 . S
C4265 C2163 0.398 . S
C4257 C1252 0.358 . S
C4289 C489 2.190 . S
C4297 C2674 2.224 . S
C4329 C2611 2.041 . S
C4321 C557 2.039 . S
C4353 C636 1.141 . S
C4361 C2714 1.138 . S
C4385 C409 1.398 . S
C4393 C2568 1.391 . S
C4417 C284 1.274 . S
C4425 C2448 1.231 . S
C4457 C2479 0.248 . S
C4449 C20 0.387 1_655 S
C4489 C2531 1.285 . S
C4481 C137 1.242 . S
C4521 C2634 1.672 . S
C4513 C225 1.706 . S
C4553 C2691 2.403 . S
C4545 C1641 2.415 . S
C4577 C1193 0.380 . S
C4585 C2608 0.379 . S
C4617 C2731 1.335 . S
C4609 C1289 1.338 . S
C4649 C2554 1.387 . S
C4641 C1377 1.366 . S
C4681 C2434 1.905 . S
C4673 C1613 1.841 . S
C4705 C1164 1.455 . S
C4713 C2482 1.438 . S
C4745 C2528 0.382 . S
C4737 C1261 0.229 . S
C4769 C1349 2.034 . S
C4777 C2651 1.999 . S
C4809 C2688 1.480 . S
C4801 C1965 1.462 . S
C4833 C849 1.952 . S
C4841 C2291 1.943 . S
C4873 C2323 2.519 . S
C4865 C929 2.574 . S
C4905 C2354 0.564 . S
C4897 C1017 0.590 . S
C4937 C2648 1.347 . S
C4929 C1897 1.344 . S
C4961 C1789 1.489 . S
C4969 C2728 1.495 . S
C5001 C2251 2.262 . S
C4993 C900 2.288 . S
C5033 C2154 0.408 . S
C5025 C733 0.367 . S
C5057 C548 2.220 . S
C5065 C2683 2.230 . S
C5097 C2162 2.042 . S
C5089 C469 2.018 . S
C5121 C401 1.117 . S
C5129 C2723 1.124 . S
C5153 C673 1.389 . S
C5161 C2239 1.386 . S
C5185 C233 1.279 . S
C5193 C2439 1.236 . S
C5225 C2328 0.255 . S
C5217 C117 0.250 . S
C5249 C29 1.290 . S
C5257 C2522 1.270 . S
C5281 C321 1.672 . S
C5289 C2403 1.658 . S
C5321 C2682 2.407 . S
C5313 C2044 2.405 . S
C5345 C997 0.236 . S
C5353 C2159 0.465 . S
C5385 C2722 1.321 . S
C5377 C1877 1.343 . S
C5409 C812 1.308 . S
C5417 C2243 1.378 . S
C5441 C2073 1.832 . S
C5449 C2443 1.891 . S
C5481 C2331 1.431 . S
C5473 C1025 1.467 . S
C5505 C1905 0.314 . S
C5513 C2519 0.347 . S
C5545 C2402 2.002 . S
C5537 C841 2.024 . S
C5577 C2679 1.462 . S
C5569 C1525 1.502 . S
C5609 C2282 1.947 1_655 S
C5601 C1369 1.951 . S
C5633 C1465 2.566 . S
C5641 C2474 2.504 . S
C5673 C2363 0.549 . S
C5665 C1201 0.512 . S
C5697 C1281 1.344 . S
C5705 C2399 1.341 . S
C5729 C1076 1.515 . S
C5737 C2719 1.476 . S
C5769 C2562 2.258 . S
C5761 C1437 2.286 . S
C5801 C2603 0.340 . S
C5793 C1701 0.274 . S
