# Generated by pormake.
# Topology ocu, (6,8)-cn, num edge types: 1
# Building blocks:
#     Node 0, Type 0, BuildingBlock: PAMTUU_clean_sbu_0, # of connection points: 6
#     Node 1, Type 0, BuildingBlock: PAMTUU_clean_sbu_0, # of connection points: 6
#     Node 2, Type 0, BuildingBlock: PAMTUU_clean_sbu_0, # of connection points: 6
#     Node 3, Type 0, BuildingBlock: PAMTUU_clean_sbu_0, # of connection points: 6
#     Node 4, Type 0, BuildingBlock: PAMTUU_clean_sbu_0, # of connection points: 6
#     Node 5, Type 0, BuildingBlock: PAMTUU_clean_sbu_0, # of connection points: 6
#     Node 6, Type 0, BuildingBlock: PAMTUU_clean_sbu_0, # of connection points: 6
#     Node 7, Type 0, BuildingBlock: PAMTUU_clean_sbu_0, # of connection points: 6
#     Node 8, Type 1, BuildingBlock: TAGTUT_clean_sbu_1, # of connection points: 8
#     Node 9, Type 1, BuildingBlock: TAGTUT_clean_sbu_1, # of connection points: 8
#     Node 10, Type 1, BuildingBlock: TAGTUT_clean_sbu_1, # of connection points: 8
#     Node 11, Type 1, BuildingBlock: TAGTUT_clean_sbu_1, # of connection points: 8
#     Node 12, Type 1, BuildingBlock: TAGTUT_clean_sbu_1, # of connection points: 8
#     Node 13, Type 1, BuildingBlock: TAGTUT_clean_sbu_1, # of connection points: 8
#     Edge 14, Type (0, 1), BuildingBlock: UVAHIK_clean_linker_0, # of connection points: 2
#     Edge 15, Type (0, 1), BuildingBlock: UVAHIK_clean_linker_0, # of connection points: 2
#     Edge 16, Type (0, 1), BuildingBlock: UVAHIK_clean_linker_0, # of connection points: 2
#     Edge 17, Type (0, 1), BuildingBlock: UVAHIK_clean_linker_0, # of connection points: 2
#     Edge 18, Type (0, 1), BuildingBlock: UVAHIK_clean_linker_0, # of connection points: 2
#     Edge 19, Type (0, 1), BuildingBlock: UVAHIK_clean_linker_0, # of connection points: 2
#     Edge 20, Type (0, 1), BuildingBlock: UVAHIK_clean_linker_0, # of connection points: 2
#     Edge 21, Type (0, 1), BuildingBlock: UVAHIK_clean_linker_0, # of connection points: 2
#     Edge 22, Type (0, 1), BuildingBlock: UVAHIK_clean_linker_0, # of connection points: 2
#     Edge 23, Type (0, 1), BuildingBlock: UVAHIK_clean_linker_0, # of connection points: 2
#     Edge 24, Type (0, 1), BuildingBlock: UVAHIK_clean_linker_0, # of connection points: 2
#     Edge 25, Type (0, 1), BuildingBlock: UVAHIK_clean_linker_0, # of connection points: 2
#     Edge 26, Type (0, 1), BuildingBlock: UVAHIK_clean_linker_0, # of connection points: 2
#     Edge 27, Type (0, 1), BuildingBlock: UVAHIK_clean_linker_0, # of connection points: 2
#     Edge 28, Type (0, 1), BuildingBlock: UVAHIK_clean_linker_0, # of connection points: 2
#     Edge 29, Type (0, 1), BuildingBlock: UVAHIK_clean_linker_0, # of connection points: 2
#     Edge 30, Type (0, 1), BuildingBlock: UVAHIK_clean_linker_0, # of connection points: 2
#     Edge 31, Type (0, 1), BuildingBlock: UVAHIK_clean_linker_0, # of connection points: 2
#     Edge 32, Type (0, 1), BuildingBlock: UVAHIK_clean_linker_0, # of connection points: 2
#     Edge 33, Type (0, 1), BuildingBlock: UVAHIK_clean_linker_0, # of connection points: 2
#     Edge 34, Type (0, 1), BuildingBlock: UVAHIK_clean_linker_0, # of connection points: 2
#     Edge 35, Type (0, 1), BuildingBlock: UVAHIK_clean_linker_0, # of connection points: 2
#     Edge 36, Type (0, 1), BuildingBlock: UVAHIK_clean_linker_0, # of connection points: 2
#     Edge 37, Type (0, 1), BuildingBlock: UVAHIK_clean_linker_0, # of connection points: 2
#     Edge 38, Type (0, 1), BuildingBlock: UVAHIK_clean_linker_0, # of connection points: 2
#     Edge 39, Type (0, 1), BuildingBlock: UVAHIK_clean_linker_0, # of connection points: 2
#     Edge 40, Type (0, 1), BuildingBlock: UVAHIK_clean_linker_0, # of connection points: 2
#     Edge 41, Type (0, 1), BuildingBlock: UVAHIK_clean_linker_0, # of connection points: 2
#     Edge 42, Type (0, 1), BuildingBlock: UVAHIK_clean_linker_0, # of connection points: 2
#     Edge 43, Type (0, 1), BuildingBlock: UVAHIK_clean_linker_0, # of connection points: 2
#     Edge 44, Type (0, 1), BuildingBlock: UVAHIK_clean_linker_0, # of connection points: 2
#     Edge 45, Type (0, 1), BuildingBlock: UVAHIK_clean_linker_0, # of connection points: 2
#     Edge 46, Type (0, 1), BuildingBlock: UVAHIK_clean_linker_0, # of connection points: 2
#     Edge 47, Type (0, 1), BuildingBlock: UVAHIK_clean_linker_0, # of connection points: 2
#     Edge 48, Type (0, 1), BuildingBlock: UVAHIK_clean_linker_0, # of connection points: 2
#     Edge 49, Type (0, 1), BuildingBlock: UVAHIK_clean_linker_0, # of connection points: 2
#     Edge 50, Type (0, 1), BuildingBlock: UVAHIK_clean_linker_0, # of connection points: 2
#     Edge 51, Type (0, 1), BuildingBlock: UVAHIK_clean_linker_0, # of connection points: 2
#     Edge 52, Type (0, 1), BuildingBlock: UVAHIK_clean_linker_0, # of connection points: 2
#     Edge 53, Type (0, 1), BuildingBlock: UVAHIK_clean_linker_0, # of connection points: 2
#     Edge 54, Type (0, 1), BuildingBlock: UVAHIK_clean_linker_0, # of connection points: 2
#     Edge 55, Type (0, 1), BuildingBlock: UVAHIK_clean_linker_0, # of connection points: 2
#     Edge 56, Type (0, 1), BuildingBlock: UVAHIK_clean_linker_0, # of connection points: 2
#     Edge 57, Type (0, 1), BuildingBlock: UVAHIK_clean_linker_0, # of connection points: 2
#     Edge 58, Type (0, 1), BuildingBlock: UVAHIK_clean_linker_0, # of connection points: 2
#     Edge 59, Type (0, 1), BuildingBlock: UVAHIK_clean_linker_0, # of connection points: 2
#     Edge 60, Type (0, 1), BuildingBlock: UVAHIK_clean_linker_0, # of connection points: 2
#     Edge 61, Type (0, 1), BuildingBlock: UVAHIK_clean_linker_0, # of connection points: 2
# Relax obj value: 0.112
# Max RMSD: 0.262
# Mean RMSD: 0.147
data_MOF--net-ocu--node1-PAMTUU_clean_sbu_0--node2-TAGTUT_clean_sbu_1--edge1-UVAHIK_clean_linker_0
_symmetry_space_group_name_H-M    P1
_symmetry_Int_Tables_number       1
_symmetry_cell_setting            triclinic
loop_
_symmetry_equiv_pos_as_xyz
'x, y, z'
_cell_length_a     50.136184
_cell_length_b     51.722315
_cell_length_c     52.372562
_cell_angle_alpha  85.427431
_cell_angle_beta   96.061236
_cell_angle_gamma 110.01483
loop_
_atom_site_label
_atom_site_type_symbol
_atom_site_fract_x
_atom_site_fract_y
_atom_site_fract_z
_atom_type_partial_charge
Tb0 Tb 0.24231 0.25595 0.24412 0.0
Tb1 Tb 0.29036 0.25799 0.28977 0.0
C2 C 0.23112 0.21283 0.28978 0.0
C3 C 0.17838 0.26381 0.20637 0.0
C4 C 0.13676 0.28945 0.19721 0.0
C5 C 0.14081 0.27338 0.17846 0.0
C6 C 0.16161 0.26083 0.18296 0.0
C7 C 0.17267 0.27765 0.22599 0.0
C8 C 0.15204 0.29043 0.22145 0.0
C9 C 0.20439 0.25653 0.20858 0.0
O10 O 0.23528 0.28417 0.27164 0.0
O11 O 0.26317 0.27743 0.30748 0.0
O12 O 0.30428 0.2984 0.27018 0.0
O13 O 0.28212 0.28407 0.23122 0.0
O14 O 0.30195 0.24626 0.32749 0.0
O15 O 0.33363 0.27187 0.30294 0.0
O16 O 0.30344 0.23822 0.25871 0.0
O17 O 0.26292 0.22701 0.23111 0.0
O18 O 0.22094 0.22957 0.27528 0.0
O19 O 0.25851 0.21698 0.29174 0.0
C20 C 0.24338 0.28765 0.29664 0.0
O21 O 0.22777 0.27715 0.21332 0.0
O22 O 0.20426 0.2344 0.22251 0.0
C23 C 0.30204 0.30192 0.24516 0.0
C24 C 0.34524 0.23786 0.32865 0.0
C25 C 0.37855 0.20342 0.33357 0.0
C26 C 0.38783 0.22843 0.34613 0.0
C27 C 0.37126 0.24554 0.34366 0.0
C28 C 0.33584 0.21291 0.31614 0.0
C29 C 0.35232 0.19577 0.31866 0.0
C30 C 0.32905 0.25682 0.32421 0.0
C31 C 0.28881 0.22545 0.23793 0.0
H32 H 0.12894 0.27171 0.15979 0.0
H33 H 0.1657 0.25016 0.16763 0.0
H34 H 0.18542 0.2801 0.24421 0.0
H35 H 0.14959 0.30269 0.23628 0.0
H36 H 0.40778 0.23466 0.35804 0.0
H37 H 0.37891 0.26488 0.3532 0.0
H38 H 0.31594 0.20689 0.30412 0.0
H39 H 0.34477 0.17676 0.30859 0.0
Tb40 Tb 0.73074 0.27571 0.26779 0.0
Tb41 Tb 0.7838 0.25207 0.26903 0.0
C42 C 0.7765 0.28462 0.31321 0.0
C43 C 0.68418 0.31869 0.27118 0.0
C44 C 0.67134 0.36741 0.27191 0.0
C45 C 0.64994 0.34152 0.2744 0.0
C46 C 0.65635 0.31741 0.27405 0.0
C47 C 0.706 0.3443 0.27 0.0
C48 C 0.69962 0.36856 0.27038 0.0
C49 C 0.68956 0.29297 0.26894 0.0
O50 O 0.76062 0.30442 0.24257 0.0
O51 O 0.80132 0.29577 0.25877 0.0
O52 O 0.76434 0.25267 0.23023 0.0
O53 O 0.71907 0.24379 0.24032 0.0
O54 O 0.82534 0.25326 0.2824 0.0
O55 O 0.8013 0.22755 0.2514 0.0
O56 O 0.74939 0.21629 0.28257 0.0
O57 O 0.71919 0.23845 0.29239 0.0
O58 O 0.76386 0.29737 0.29604 0.0
O59 O 0.78091 0.26211 0.30788 0.0
C60 C 0.78852 0.31076 0.24439 0.0
O61 O 0.69978 0.29026 0.24779 0.0
O62 O 0.70214 0.28446 0.28923 0.0
C63 C 0.73692 0.24252 0.22436 0.0
C64 C 0.8364 0.21342 0.27565 0.0
C65 C 0.85905 0.17082 0.28802 0.0
C66 C 0.87677 0.19736 0.28065 0.0
C67 C 0.86549 0.21844 0.27447 0.0
C68 C 0.8186 0.18717 0.28349 0.0
C69 C 0.82987 0.16598 0.28965 0.0
C70 C 0.82495 0.23521 0.2662 0.0
C71 C 0.72693 0.21653 0.29342 0.0
H72 H 0.62788 0.33977 0.27511 0.0
H73 H 0.63934 0.29771 0.27514 0.0
H74 H 0.72771 0.34551 0.26809 0.0
H75 H 0.71659 0.38818 0.2686 0.0
H76 H 0.89942 0.20191 0.2798 0.0
H77 H 0.87945 0.2386 0.26833 0.0
H78 H 0.79599 0.18294 0.28432 0.0
H79 H 0.8157 0.14573 0.29523 0.0
Tb80 Tb 0.79494 0.77287 0.2556 0.0
Tb81 Tb 0.74147 0.73619 0.28501 0.0
C82 C 0.78238 0.79139 0.30727 0.0
C83 C 0.86052 0.79172 0.2239 0.0
C84 C 0.88464 0.76375 0.19455 0.0
C85 C 0.88046 0.78828 0.18465 0.0
C86 C 0.86845 0.80218 0.19928 0.0
C87 C 0.86731 0.76879 0.23473 0.0
C88 C 0.87944 0.755 0.22019 0.0
C89 C 0.84007 0.80084 0.23547 0.0
O90 O 0.81154 0.74174 0.27982 0.0
O91 O 0.77314 0.71582 0.30158 0.0
O92 O 0.7424 0.7103 0.25487 0.0
O93 O 0.77677 0.739 0.23023 0.0
O94 O 0.72076 0.7183 0.31808 0.0
O95 O 0.69821 0.71198 0.28051 0.0
O96 O 0.72629 0.76959 0.26335 0.0
O97 O 0.76111 0.78917 0.23594 0.0
O98 O 0.79046 0.79911 0.28412 0.0
O99 O 0.76606 0.7662 0.31262 0.0
C100 C 0.80024 0.7213 0.29705 0.0
O101 O 0.81491 0.79373 0.22312 0.0
O102 O 0.83855 0.79619 0.26021 0.0
C103 C 0.75634 0.71563 0.23424 0.0
C104 C 0.67391 0.71752 0.31448 0.0
C105 C 0.64343 0.74247 0.33993 0.0
C106 C 0.64667 0.71756 0.34991 0.0
C107 C 0.66194 0.7052 0.33726 0.0
C108 C 0.66825 0.74084 0.30318 0.0
C109 C 0.65302 0.7532 0.3158 0.0
C110 C 0.69601 0.70905 0.30521 0.0
C111 C 0.73565 0.78677 0.24318 0.0
H112 H 0.88415 0.79544 0.16491 0.0
H113 H 0.86318 0.81973 0.19057 0.0
H114 H 0.86138 0.76027 0.2537 0.0
H115 H 0.88297 0.73643 0.22842 0.0
H116 H 0.63911 0.70872 0.36835 0.0
H117 H 0.66612 0.68718 0.34618 0.0
H118 H 0.67729 0.75068 0.28556 0.0
H119 H 0.65102 0.77245 0.30772 0.0
Tb120 Tb 0.28493 0.74284 0.27268 0.0
Tb121 Tb 0.24781 0.785 0.25995 0.0
C122 C 0.22931 0.73316 0.29781 0.0
C123 C 0.32246 0.69807 0.2565 0.0
C124 C 0.33938 0.67475 0.21685 0.0
C125 C 0.33624 0.66156 0.24148 0.0
C126 C 0.32791 0.6732 0.26119 0.0
C127 C 0.32529 0.71108 0.23188 0.0
C128 C 0.3338 0.69963 0.21231 0.0
C129 C 0.31259 0.70996 0.27672 0.0
O130 O 0.24956 0.72474 0.24449 0.0
O131 O 0.24387 0.76378 0.22463 0.0
O132 O 0.29065 0.80688 0.24998 0.0
O133 O 0.30216 0.76992 0.24049 0.0
O134 O 0.20843 0.79048 0.24916 0.0
O135 O 0.2463 0.82525 0.25726 0.0
O136 O 0.26617 0.79223 0.29942 0.0
O137 O 0.30344 0.77553 0.29974 0.0
O138 O 0.25565 0.7335 0.30218 0.0
O139 O 0.22136 0.74754 0.27867 0.0
C140 C 0.24031 0.73736 0.2246 0.0
O141 O 0.32436 0.73654 0.27861 0.0
O142 O 0.28503 0.70209 0.27742 0.0
C143 C 0.30743 0.79649 0.24008 0.0
C144 C 0.20492 0.82496 0.2741 0.0
C145 C 0.18647 0.84373 0.31583 0.0
C146 C 0.19446 0.861 0.29375 0.0
C147 C 0.20367 0.85168 0.27306 0.0
C148 C 0.19621 0.80744 0.29579 0.0
C149 C 0.18691 0.81666 0.31635 0.0
C150 C 0.2186 0.81647 0.25434 0.0
C151 C 0.29091 0.79079 0.30932 0.0
H152 H 0.34052 0.64243 0.24556 0.0
H153 H 0.32558 0.66275 0.28001 0.0
H154 H 0.32071 0.73003 0.22769 0.0
H155 H 0.33555 0.71004 0.19346 0.0
H156 H 0.19463 0.88205 0.29285 0.0
H157 H 0.21075 0.86563 0.25667 0.0
H158 H 0.19736 0.78683 0.2972 0.0
H159 H 0.18046 0.80267 0.33283 0.0
Tb160 Tb 0.25073 0.77234 0.75972 0.0
Tb161 Tb 0.28925 0.73484 0.78038 0.0
C162 C 0.2939 0.78842 0.80999 0.0
C163 C 0.21429 0.82571 0.75179 0.0
C164 C 0.20097 0.87342 0.75793 0.0
C165 C 0.18124 0.84711 0.76295 0.0
C166 C 0.18783 0.82358 0.75986 0.0
C167 C 0.23479 0.85188 0.74814 0.0
C168 C 0.22816 0.87559 0.75122 0.0
C169 C 0.2187 0.80018 0.74593 0.0
O170 O 0.29416 0.79534 0.75126 0.0
O171 O 0.3068 0.75792 0.74617 0.0
O172 O 0.25986 0.71092 0.74949 0.0
O173 O 0.24495 0.74475 0.72793 0.0
O174 O 0.29198 0.69679 0.795 0.0
O175 O 0.32994 0.73217 0.79007 0.0
O176 O 0.25582 0.72651 0.8061 0.0
O177 O 0.2237 0.73327 0.7749 0.0
O178 O 0.26938 0.78839 0.79786 0.0
O179 O 0.30668 0.77172 0.80349 0.0
C180 C 0.31103 0.78429 0.74236 0.0
O181 O 0.24094 0.80192 0.73406 0.0
O182 O 0.21378 0.78097 0.76421 0.0
C183 C 0.24658 0.71966 0.72925 0.0
C184 C 0.33354 0.68837 0.78515 0.0
C185 C 0.36178 0.65229 0.77437 0.0
C186 C 0.37733 0.67975 0.7801 0.0
C187 C 0.36335 0.69754 0.78554 0.0
C188 C 0.31783 0.66156 0.77749 0.0
C189 C 0.33185 0.6437 0.77211 0.0
C190 C 0.31973 0.70579 0.79565 0.0
C191 C 0.22941 0.72248 0.79726 0.0
H192 H 0.15991 0.84451 0.76761 0.0
H193 H 0.17169 0.80359 0.76275 0.0
H194 H 0.2555 0.85406 0.74212 0.0
H195 H 0.24389 0.89558 0.74737 0.0
H196 H 0.4004 0.68694 0.7824 0.0
H197 H 0.37599 0.71804 0.79149 0.0
H198 H 0.29479 0.65389 0.77689 0.0
H199 H 0.31931 0.62271 0.76755 0.0
Tb200 Tb 0.29075 0.2605 0.75472 0.0
Tb201 Tb 0.23881 0.24842 0.79266 0.0
C202 C 0.29264 0.30369 0.79506 0.0
C203 C 0.33865 0.24613 0.71168 0.0
C204 C 0.36256 0.21233 0.68838 0.0
C205 C 0.37994 0.2344 0.70326 0.0
C206 C 0.36812 0.25113 0.71468 0.0
C207 C 0.32118 0.22379 0.69722 0.0
C208 C 0.33298 0.20716 0.68572 0.0
C209 C 0.32662 0.265 0.72259 0.0
O210 O 0.30593 0.2407 0.7896 0.0
O211 O 0.26517 0.22372 0.81118 0.0
O212 O 0.22357 0.21814 0.76317 0.0
O213 O 0.26667 0.21704 0.75423 0.0
O214 O 0.22546 0.24208 0.83007 0.0
O215 O 0.19543 0.24041 0.79726 0.0
O216 O 0.23219 0.28025 0.7642 0.0
O217 O 0.25724 0.2743 0.73229 0.0
O218 O 0.3027 0.29884 0.77442 0.0
O219 O 0.27028 0.28625 0.80533 0.0
C220 C 0.29195 0.22566 0.80877 0.0
O221 O 0.2997 0.26102 0.71649 0.0
O222 O 0.3337 0.2705 0.74675 0.0
C223 C 0.23891 0.20655 0.75256 0.0
C224 C 0.18838 0.25905 0.83478 0.0
C225 C 0.16768 0.29366 0.86039 0.0
C226 C 0.15707 0.26482 0.86465 0.0
C227 C 0.16733 0.24774 0.85198 0.0
C228 C 0.1991 0.28776 0.83038 0.0
C229 C 0.18887 0.3049 0.84306 0.0
C230 C 0.19956 0.24079 0.82222 0.0
C231 C 0.23825 0.28401 0.7399 0.0
H232 H 0.40274 0.2388 0.70613 0.0
H233 H 0.3821 0.2682 0.72567 0.0
H234 H 0.29837 0.21935 0.69436 0.0
H235 H 0.31889 0.19068 0.67416 0.0
H236 H 0.14112 0.2554 0.87812 0.0
H237 H 0.15895 0.22566 0.8558 0.0
H238 H 0.21543 0.2969 0.81718 0.0
H239 H 0.19733 0.32693 0.83905 0.0
Tb240 Tb 0.78807 0.23857 0.7782 0.0
Tb241 Tb 0.74174 0.2696 0.75938 0.0
C242 C 0.72946 0.22169 0.8033 0.0
C243 C 0.83617 0.20197 0.76889 0.0
C244 C 0.85439 0.17851 0.72995 0.0
C245 C 0.84373 0.16267 0.75212 0.0
C246 C 0.83471 0.17431 0.77139 0.0
C247 C 0.8474 0.21793 0.74703 0.0
C248 C 0.8564 0.20637 0.72783 0.0
C249 C 0.82309 0.21317 0.78741 0.0
O250 O 0.75721 0.21346 0.75017 0.0
O251 O 0.73917 0.2445 0.72733 0.0
O252 O 0.78114 0.29384 0.7413 0.0
O253 O 0.80251 0.26104 0.7422 0.0
O254 O 0.69995 0.26969 0.74945 0.0
O255 O 0.73535 0.30771 0.75297 0.0
O256 O 0.75864 0.28142 0.79789 0.0
O257 O 0.80231 0.27678 0.79834 0.0
O258 O 0.75704 0.22586 0.80742 0.0
O259 O 0.71922 0.23266 0.78261 0.0
C260 C 0.74451 0.22123 0.72931 0.0
O261 O 0.83037 0.23993 0.78725 0.0
O262 O 0.79568 0.20131 0.78823 0.0
C263 C 0.8005 0.28491 0.73346 0.0
C264 C 0.69419 0.30565 0.77122 0.0
C265 C 0.67751 0.32849 0.81158 0.0
C266 C 0.68061 0.34196 0.78704 0.0
C267 C 0.68894 0.33066 0.76708 0.0
C268 C 0.69033 0.29176 0.79544 0.0
C269 C 0.68194 0.30297 0.81533 0.0
C270 C 0.70775 0.29626 0.75187 0.0
C271 C 0.78535 0.28813 0.8067 0.0
H272 H 0.84217 0.14122 0.75449 0.0
H273 H 0.82591 0.16151 0.78795 0.0
H274 H 0.8485 0.23922 0.74435 0.0
H275 H 0.86406 0.21909 0.7109 0.0
H276 H 0.67772 0.36178 0.78349 0.0
H277 H 0.69236 0.34198 0.74871 0.0
H278 H 0.6947 0.27264 0.79926 0.0
H279 H 0.67934 0.29178 0.8338 0.0
Tb280 Tb 0.77219 0.77767 0.79322 0.0
Tb281 Tb 0.76652 0.7372 0.74405 0.0
C282 C 0.81623 0.79458 0.75081 0.0
C283 C 0.75574 0.8199 0.84196 0.0
C284 C 0.72459 0.8453 0.86782 0.0
C285 C 0.75063 0.86097 0.85784 0.0
C286 C 0.76597 0.84843 0.84519 0.0
C287 C 0.72945 0.80417 0.8514 0.0
C288 C 0.71409 0.81671 0.86413 0.0
C289 C 0.77382 0.80702 0.83041 0.0
O290 O 0.7507 0.79332 0.76062 0.0
O291 O 0.73342 0.75606 0.73458 0.0
O292 O 0.73932 0.71343 0.77341 0.0
O293 O 0.72945 0.74784 0.79106 0.0
O294 O 0.76705 0.7311 0.70479 0.0
O295 O 0.7587 0.69694 0.73263 0.0
O296 O 0.80365 0.73586 0.76888 0.0
O297 O 0.79191 0.74669 0.80702 0.0
O298 O 0.81209 0.79544 0.77511 0.0
O299 O 0.79866 0.77636 0.73528 0.0
C300 C 0.73373 0.78024 0.74135 0.0
O301 O 0.76657 0.78024 0.83208 0.0
O302 O 0.78281 0.81704 0.80803 0.0
C303 C 0.72353 0.72171 0.78706 0.0
C304 C 0.78092 0.69284 0.69596 0.0
C305 C 0.81204 0.66823 0.66927 0.0
C306 C 0.78639 0.65218 0.67966 0.0
C307 C 0.77108 0.66433 0.69273 0.0
C308 C 0.80678 0.70901 0.68606 0.0
C309 C 0.82216 0.69684 0.67289 0.0
C310 C 0.76306 0.70489 0.70876 0.0
C311 C 0.80622 0.73563 0.79414 0.0
H312 H 0.75927 0.88304 0.85978 0.0
H313 H 0.78617 0.86109 0.83823 0.0
H314 H 0.72094 0.7821 0.84937 0.0
H315 H 0.69433 0.80382 0.8717 0.0
H316 H 0.7781 0.63008 0.67782 0.0
H317 H 0.75125 0.65136 0.70019 0.0
H318 H 0.81495 0.73107 0.68821 0.0
H319 H 0.84165 0.70998 0.66504 0.0
C320 C 0.95634 0.06774 0.53365 0.0
C321 C 0.98893 0.05237 0.46274 0.0
C322 C 0.96852 0.95061 0.5012 0.0
Mg323 Mg 0.01467 0.06844 0.5175 0.0
O324 O 0.99878 0.03108 0.52783 0.0
Mg325 Mg 0.96033 0.00896 0.51198 0.0
Mg326 Mg 0.0193 0.0051 0.52388 0.0
O327 O 0.03965 0.97867 0.52062 0.0
Mg328 Mg 0.02353 0.94179 0.53313 0.0
Mg329 Mg 0.07786 0.00094 0.53697 0.0
C330 C 0.06937 0.05908 0.54848 0.0
C331 C 0.06738 0.03137 0.48215 0.0
O332 O 0.94475 0.04291 0.5262 0.0
O333 O 0.9829 0.08127 0.53218 0.0
O334 O 0.97018 0.03176 0.47292 0.0
O335 O 0.00919 0.06927 0.47619 0.0
O336 O 0.05681 0.07595 0.53863 0.0
O337 O 0.0579 0.03295 0.54635 0.0
C338 C 0.97212 0.97845 0.56618 0.0
O339 O 0.99771 0.98287 0.56051 0.0
O340 O 0.95438 -0.01373 0.55089 0.0
O341 O 0.09323 0.96664 0.52416 0.0
O342 O 0.05511 0.92807 0.51905 0.0
O343 O 0.06833 0.97918 0.5761 0.0
C344 C 0.0817 0.94156 0.51746 0.0
O345 O 0.02949 0.9416 0.57482 0.0
O346 O 0.98106 0.93416 0.51225 0.0
C347 C 0.05026 0.959 0.58732 0.0
O348 O 0.98022 0.97695 0.5016 0.0
O349 O 0.04168 0.02791 0.48707 0.0
O350 O 0.0841 0.02278 0.49799 0.0
C351 C 0.43303 0.07929 0.08109 0.0
C352 C 0.44464 0.08236 0.99913 0.0
C353 C 0.45259 0.96906 0.01603 0.0
Mg354 Mg 0.48745 0.08548 0.05071 0.0
O355 O 0.47833 0.04703 0.04945 0.0
Mg356 Mg 0.43697 0.02545 0.04156 0.0
Mg357 Mg 0.50235 0.02214 0.04239 0.0
O358 O 0.52594 -0.00372 0.03835 0.0
Mg359 Mg 0.51454 0.95738 0.04127 0.0
Mg360 Mg 0.56647 0.01624 0.05187 0.0
C361 C 0.55073 0.0731 0.06528 0.0
C362 C 0.55119 0.05602 0.00209 0.0
O363 O 0.4209 0.05651 0.06873 0.0
O364 O 0.45984 0.09222 0.07917 0.0
O365 O 0.43278 0.05637 0.00491 0.0
O366 O 0.46666 0.09691 0.01311 0.0
O367 O 0.5338 0.08754 0.05999 0.0
O368 O 0.54223 0.04643 0.06655 0.0
C369 C 0.46177 -0.00956 0.08751 0.0
O370 O 0.48511 -0.00298 0.07711 0.0
O371 O 0.44115 -0.0016 0.0779 0.0
O372 O 0.58169 -0.01184 0.02698 0.0
O373 O 0.54224 0.9538 0.01366 0.0
O374 O 0.57119 0.981 0.0876 0.0
C375 C 0.56906 0.96697 0.01332 0.0
O376 O 0.53843 0.94124 0.0761 0.0
O377 O 0.46958 0.95504 0.02353 0.0
C378 C 0.56119 0.95413 0.0904 0.0
O379 O 0.45966 -0.00448 0.01976 0.0
O380 O 0.52455 0.04982 0.0059 0.0
O381 O 0.5674 0.04582 0.01694 0.0
C382 C 0.93847 0.59505 0.02034 0.0
C383 C 0.95941 0.58203 0.94851 0.0
C384 C 0.93755 0.4754 0.98499 0.0
Mg385 Mg 0.99278 0.5894 0.00145 0.0
O386 O 0.97412 0.55325 0.01341 0.0
Mg387 Mg 0.93449 0.53483 0.99745 0.0
Mg388 Mg 0.99197 0.52509 0.00903 0.0
O389 O 0.00957 0.49697 0.00398 0.0
Mg390 Mg 0.99062 0.46 0.01281 0.0
Mg391 Mg 0.04868 0.51462 0.02088 0.0
C392 C 0.04636 0.57575 0.03189 0.0
C393 C 0.04021 0.54973 0.96827 0.0
O394 O 0.92375 0.57038 0.01387 0.0
O395 O 0.96525 0.60589 0.01789 0.0
O396 O 0.9415 0.56098 0.95907 0.0
O397 O 0.98319 0.5951 0.96053 0.0
O398 O 0.03501 0.59291 0.02038 0.0
O399 O 0.03289 0.5495 0.03304 0.0
C400 C 0.94324 0.49883 0.04992 0.0
O401 O 0.9686 0.50147 0.04478 0.0
O402 O 0.92767 0.50976 0.0351 0.0
O403 O 0.06015 0.47854 0.00449 0.0
O404 O 0.01893 0.44384 0.99647 0.0
O405 O 0.03818 0.48904 0.05927 0.0
C406 C 0.04603 0.45456 0.99581 0.0
O407 O 0.99649 0.45504 0.05373 0.0
O408 O 0.94862 0.45731 0.99452 0.0
C409 C 0.01826 0.46838 0.0681 0.0
O410 O 0.95138 0.50139 0.98492 0.0
O411 O 0.01518 0.54795 0.9736 0.0
O412 O 0.05593 0.53899 0.98317 0.0
C413 C 0.45406 0.56916 0.02708 0.0
C414 C 0.49073 0.55686 0.95741 0.0
C415 C 0.47175 0.45519 0.9935 0.0
Mg416 Mg 0.51361 0.57185 0.01303 0.0
O417 O 0.49867 0.53432 0.02345 0.0
Mg418 Mg 0.46137 0.51191 0.00546 0.0
Mg419 Mg 0.52032 0.50934 0.01889 0.0
O420 O 0.54163 0.48418 0.01391 0.0
Mg421 Mg 0.52655 0.44692 0.02534 0.0
Mg422 Mg 0.58006 0.50685 0.02916 0.0
C423 C 0.57002 0.56413 0.04266 0.0
C424 C 0.56607 0.53785 0.97605 0.0
O425 O 0.44374 0.54446 0.01916 0.0
O426 O 0.48058 0.58351 0.0268 0.0
O427 O 0.47219 0.53549 0.96673 0.0
O428 O 0.50963 0.574 0.9717 0.0
O429 O 0.55607 0.58007 0.03347 0.0
O430 O 0.55943 0.53781 0.04099 0.0
C431 C 0.47185 0.47975 0.05945 0.0
O432 O 0.4981 0.48493 0.05516 0.0
O433 O 0.45488 0.48812 0.04362 0.0
O434 O 0.59599 0.47337 0.01437 0.0
O435 O 0.55846 0.43414 0.01072 0.0
O436 O 0.57158 0.48452 0.06843 0.0
C437 C 0.58467 0.44814 0.00795 0.0
O438 O 0.53217 0.44732 0.06685 0.0
O439 O 0.48445 0.4386 0.0038 0.0
C440 C 0.55301 0.46453 0.07948 0.0
O441 O 0.48267 0.48133 0.99577 0.0
O442 O 0.54101 0.53357 0.98287 0.0
O443 O 0.58431 0.52939 0.98994 0.0
C444 C 0.96619 0.54229 0.52697 0.0
C445 C 0.97316 0.55322 0.44988 0.0
C446 C 0.98322 0.43445 0.4762 0.0
Mg447 Mg 0.02018 0.55082 0.49887 0.0
O448 O 0.00892 0.51208 0.50178 0.0
Mg449 Mg 0.96805 0.49199 0.48941 0.0
Mg450 Mg 0.03234 0.48584 0.49847 0.0
O451 O 0.05583 0.46018 0.49239 0.0
Mg452 Mg 0.04626 0.42166 0.49131 0.0
Mg453 Mg 0.09726 0.48125 0.5004 0.0
C454 C 0.08223 0.5391 0.52408 0.0
C455 C 0.07369 0.51546 0.45325 0.0
O456 O 0.9533 0.52104 0.51348 0.0
O457 O 0.99308 0.55504 0.52666 0.0
O458 O 0.96316 0.52635 0.45288 0.0
O459 O 0.99594 0.56628 0.46404 0.0
O460 O 0.06491 0.55268 0.51629 0.0
O461 O 0.07531 0.51249 0.52108 0.0
C462 C 0.98433 0.45453 0.54051 0.0
O463 O 0.0104 0.45943 0.53548 0.0
O464 O 0.96771 0.46431 0.52577 0.0
O465 O 0.11289 0.44989 0.4735 0.0
O466 O 0.0736 0.41478 0.46259 0.0
O467 O 0.10066 0.45077 0.53747 0.0
C468 C 0.10046 0.42749 0.46073 0.0
O469 O 0.06653 0.41035 0.52942 0.0
O470 O 1.00007 0.41992 0.48154 0.0
C471 C 0.08845 0.42492 0.54353 0.0
O472 O 0.99197 0.46114 0.47518 0.0
O473 O 0.05002 0.51028 0.46288 0.0
O474 O 0.09357 0.50713 0.46396 0.0
C475 C 0.48753 0.05679 0.5499 0.0
C476 C 0.50852 0.04383 0.47449 0.0
C477 C 0.48453 0.93752 0.5071 0.0
Mg478 Mg 0.5412 0.05265 0.52791 0.0
O479 O 0.5237 0.01547 0.53696 0.0
Mg480 Mg 0.48325 -0.00265 0.52298 0.0
Mg481 Mg 0.54077 -0.01207 0.52846 0.0
O482 O 0.5577 0.96018 0.52082 0.0
Mg483 Mg 0.53974 0.9239 0.53285 0.0
Mg484 Mg 0.59844 0.97824 0.5341 0.0
C485 C 0.5967 0.03758 0.55004 0.0
C486 C 0.5851 0.01471 0.48372 0.0
O487 O 0.47318 0.0326 0.54185 0.0
O488 O 0.51424 0.06816 0.54722 0.0
O489 O 0.48963 0.02313 0.48449 0.0
O490 O 0.53135 0.05741 0.48747 0.0
O491 O 0.58459 0.05549 0.54254 0.0
O492 O 0.58328 0.01148 0.55006 0.0
C493 C 0.49721 0.96142 0.57306 0.0
O494 O 0.52122 0.96375 0.56486 0.0
O495 O 0.47996 0.97236 0.56078 0.0
O496 O 0.60684 0.94307 0.51457 0.0
O497 O 0.56486 0.90802 0.51276 0.0
O498 O 0.59481 0.95151 0.57224 0.0
C499 C 0.59105 0.91871 0.50804 0.0
O500 O 0.55318 0.91743 0.57277 0.0
O501 O 0.49636 0.92 0.51679 0.0
C502 C 0.5778 0.93031 0.58345 0.0
O503 O 0.49802 0.96371 0.50711 0.0
O504 O 0.56078 0.01242 0.49142 0.0
O505 O 0.60178 0.00359 0.49662 0.0
C506 C 0.22193 0.17213 0.32138 0.0
C507 C 0.21184 0.19078 0.30582 0.0
C508 C 0.20427 0.15301 0.33816 0.0
C509 C 0.12857 0.12055 0.35407 0.0
H510 H 0.16426 0.10849 0.42113 0.0
C511 C 0.06717 0.06377 0.44315 0.0
C512 C 0.07931 0.0462 0.45817 0.0
C513 C 0.08118 0.08007 0.42255 0.0
C514 C 0.15396 0.11142 0.40241 0.0
H515 H 0.17491 0.20342 0.29526 0.0
H516 H 0.14446 0.17058 0.32479 0.0
H517 H 0.193 0.13888 0.38914 0.0
H518 H 0.11468 0.03052 0.46191 0.0
H519 H 0.13866 0.05854 0.4264 0.0
H520 H 0.08932 0.09327 0.36787 0.0
C521 C 0.16583 0.17033 0.3238 0.0
C522 C 0.17051 0.12878 0.38397 0.0
C523 C 0.18342 0.18931 0.30691 0.0
C524 C 0.10487 0.0442 0.45119 0.0
C525 C 0.11876 0.06036 0.43082 0.0
C526 C 0.11191 0.10323 0.37268 0.0
C527 C 0.17614 0.1522 0.33997 0.0
C528 C 0.15815 0.13344 0.35945 0.0
C529 C 0.10759 0.07907 0.41669 0.0
C530 C 0.12452 0.09826 0.39697 0.0
H531 H 0.24363 0.17257 0.32093 0.0
H532 H 0.2128 0.13899 0.34991 0.0
H533 H 0.11831 0.12348 0.33534 0.0
H534 H 0.04756 0.06576 0.44789 0.0
H535 H 0.07197 0.09426 0.41194 0.0
C536 C 0.86353 0.1314 0.31687 0.0
C537 C 0.87141 0.14873 0.29494 0.0
C538 C 0.87776 0.11302 0.32538 0.0
C539 C 0.94831 0.10852 0.3261 0.0
H540 H 0.91283 0.04209 0.36698 0.0
C541 C 0.97005 0.03544 0.419 0.0
C542 C 0.9857 0.05729 0.43468 0.0
C543 C 0.96187 0.04065 0.39337 0.0
C544 C 0.92337 0.06012 0.35515 0.0
H545 H 0.89876 0.15885 0.26352 0.0
H546 H 0.92393 0.12684 0.27867 0.0
H547 H 0.88359 0.0604 0.33615 0.0
H548 H 0.00783 0.10131 0.43531 0.0
H549 H 0.99254 0.11068 0.39107 0.0
H550 H 0.98803 0.10874 0.34575 0.0
C551 C 0.90696 0.12775 0.28939 0.0
C552 C 0.90644 0.0708 0.33767 0.0
C553 C 0.89266 0.14613 0.28082 0.0
C554 C 0.99548 0.08413 0.42369 0.0
C555 C 0.98689 0.08942 0.39817 0.0
C556 C 0.96533 0.09768 0.34345 0.0
C557 C 0.90017 0.11156 0.31215 0.0
C558 C 0.91852 0.09602 0.32421 0.0
C559 C 0.96871 0.06787 0.38313 0.0
C560 C 0.95281 0.07434 0.35935 0.0
H561 H 0.84747 0.13309 0.3283 0.0
H562 H 0.87233 0.10122 0.34327 0.0
H563 H 0.95832 0.12794 0.31589 0.0
H564 H 0.9629 0.01441 0.42685 0.0
H565 H 0.94862 0.02351 0.3821 0.0
C566 C 0.80661 0.83934 0.3224 0.0
C567 C 0.79371 0.81104 0.32814 0.0
C568 C 0.82014 0.85743 0.34199 0.0
C569 C 0.83114 0.86225 0.4138 0.0
H570 H 0.90245 0.91825 0.3978 0.0
C571 C 0.92539 0.91041 0.48853 0.0
C572 C 0.94134 0.93854 0.48531 0.0
C573 C 0.90274 0.89771 0.4707 0.0
C574 C 0.88236 0.90304 0.40251 0.0
H575 H 0.78417 0.77967 0.35909 0.0
H576 H 0.80852 0.81084 0.39304 0.0
H577 H 0.87184 0.8906 0.3638 0.0
H578 H 0.94493 0.9757 0.46158 0.0
H579 H 0.90558 0.9534 0.43024 0.0
H580 H 0.84279 0.87393 0.45293 0.0
C581 C 0.80766 0.81939 0.37355 0.0
C582 C 0.86466 0.88716 0.38296 0.0
C583 C 0.79376 0.80139 0.35399 0.0
C584 C 0.93307 0.95403 0.46466 0.0
C585 C 0.91067 0.94122 0.4466 0.0
C586 C 0.84908 0.87792 0.43344 0.0
C587 C 0.82155 0.84761 0.3678 0.0
C588 C 0.83897 0.86622 0.38834 0.0
C589 C 0.89576 0.91277 0.44908 0.0
C590 C 0.87506 0.89824 0.42805 0.0
H591 H 0.8067 0.8475 0.3027 0.0
H592 H 0.82992 0.87907 0.33678 0.0
H593 H 0.8113 0.84677 0.41869 0.0
H594 H 0.93113 0.89791 0.50428 0.0
H595 H 0.89177 0.87574 0.47308 0.0
C596 C 0.16196 0.87118 0.33587 0.0
C597 C 0.17873 0.85406 0.33868 0.0
C598 C 0.15464 0.88066 0.35748 0.0
C599 C 0.14653 0.8646 0.42655 0.0
H600 H 0.14751 0.93987 0.42668 0.0
C601 C 0.12557 0.94548 0.49623 0.0
C602 C 0.09862 0.9292 0.50394 0.0
C603 C 0.13898 0.93567 0.47905 0.0
C604 C 0.14749 0.91889 0.42712 0.0
H605 H 0.20168 0.8342 0.36647 0.0
H606 H 0.18864 0.8505 0.40408 0.0
H607 H 0.16355 0.92472 0.39004 0.0
H608 H 0.06578 0.88897 0.5012 0.0
H609 H 0.08917 0.87195 0.4713 0.0
H610 H 0.13026 0.85875 0.46359 0.0
C611 C 0.18081 0.85625 0.38518 0.0
C612 C 0.15632 0.91012 0.40597 0.0
C613 C 0.18821 0.84686 0.3636 0.0
C614 C 0.08644 0.90215 0.49558 0.0
C615 C 0.09991 0.89232 0.47848 0.0
C616 C 0.13756 0.87334 0.44768 0.0
C617 C 0.16391 0.8732 0.38237 0.0
C618 C 0.15566 0.88281 0.40533 0.0
C619 C 0.12584 0.90933 0.46933 0.0
C620 C 0.1377 0.90052 0.44809 0.0
H621 H 0.15405 0.87686 0.31698 0.0
H622 H 0.14126 0.89341 0.3547 0.0
H623 H 0.14561 0.84337 0.42656 0.0
H624 H 0.13569 0.96637 0.50236 0.0
H625 H 0.15921 0.94907 0.47269 0.0
C626 C 0.17087 0.89926 0.77138 0.0
C627 C 0.19106 0.89755 0.75543 0.0
C628 C 0.15442 0.91602 0.76388 0.0
C629 C 0.10692 0.92423 0.72703 0.0
H630 H 0.12941 -0.01134 0.68066 0.0
C631 C 0.06646 0.98009 0.6296 0.0
C632 C 0.05468 0.95622 0.61549 0.0
C633 C 0.07687 0.97845 0.65519 0.0
C634 C 0.12238 0.97102 0.69396 0.0
H635 H 0.21252 0.91501 0.721 0.0
H636 H 0.1844 0.94428 0.70821 0.0
H637 H 0.16433 0.98019 0.71283 0.0
H638 H 0.04174 0.91176 0.61754 0.0
H639 H 0.06093 0.90875 0.66203 0.0
H640 H 0.06527 0.91436 0.70735 0.0
C641 C 0.18095 0.93264 0.72642 0.0
C642 C 0.14258 0.9661 0.71231 0.0
C643 C 0.19721 0.91577 0.73379 0.0
C644 C 0.05089 0.93043 0.62804 0.0
C645 C 0.06177 0.92879 0.65361 0.0
C646 C 0.08665 0.92922 0.70874 0.0
C647 C 0.15817 0.93158 0.74048 0.0
C648 C 0.13549 0.94177 0.72792 0.0
C649 C 0.07619 0.95293 0.66704 0.0
C650 C 0.0946 0.95178 0.69098 0.0
H651 H 0.16619 0.88599 0.78858 0.0
H652 H 0.1374 0.91524 0.77537 0.0
H653 H 0.10069 0.90526 0.73877 0.0
H654 H 0.06892 0.00022 0.62045 0.0
H655 H 0.08708 -0.00264 0.66517 0.0
C656 C 0.19508 0.17231 0.73173 0.0
C657 C 0.22492 0.18327 0.73562 0.0
C658 C 0.18212 0.15357 0.71257 0.0
C659 C 0.19569 0.13846 0.64983 0.0
H660 H 0.12649 0.07563 0.65551 0.0
C661 C 0.11005 0.09844 0.56668 0.0
C662 C 0.09575 0.0699 0.56563 0.0
C663 C 0.131 0.10903 0.58654 0.0
C664 C 0.14606 0.09286 0.65369 0.0
H665 H 0.26449 0.18169 0.72355 0.0
H666 H 0.24179 0.14935 0.68999 0.0
H667 H 0.15217 0.0987 0.69423 0.0
H668 H 0.09392 0.03012 0.58347 0.0
H669 H 0.13017 0.04862 0.61828 0.0
H670 H 0.18891 0.13336 0.60917 0.0
C671 C 0.2285 0.1554 0.70166 0.0
C672 C 0.16058 0.10617 0.6758 0.0
C673 C 0.24144 0.17387 0.72096 0.0
C674 C 0.10438 0.05214 0.58374 0.0
C675 C 0.12504 0.06274 0.60379 0.0
C676 C 0.18098 0.12537 0.62768 0.0
C677 C 0.19876 0.14564 0.69683 0.0
C678 C 0.18523 0.1294 0.67402 0.0
C679 C 0.13785 0.09131 0.60584 0.0
C680 C 0.15574 0.10278 0.62936 0.0
H681 H 0.18174 0.17906 0.74272 0.0
H682 H 0.15912 0.14646 0.70916 0.0
H683 H 0.21453 0.15649 0.64788 0.0
H684 H 0.10405 0.1127 0.55295 0.0
H685 H 0.14047 0.13117 0.58769 0.0
C686 C 0.88659 0.18095 0.69545 0.0
C687 C 0.86258 0.16602 0.70867 0.0
C688 C 0.89348 0.16992 0.67458 0.0
C689 C 0.88245 0.10447 0.64459 0.0
H690 H 0.90906 0.15241 0.58503 0.0
C691 C 0.91335 0.06364 0.55666 0.0
C692 C 0.93959 0.08003 0.54758 0.0
C693 C 0.90024 0.07406 0.57372 0.0
C694 C 0.90179 0.13876 0.60155 0.0
H695 H 0.82703 0.12766 0.71019 0.0
H696 H 0.83925 0.10829 0.67389 0.0
H697 H 0.89419 0.17033 0.62068 0.0
H698 H 0.97161 0.12084 0.54811 0.0
H699 H 0.94893 0.13881 0.57773 0.0
H700 H 0.89062 0.07306 0.62571 0.0
C701 C 0.85285 0.12849 0.67984 0.0
C702 C 0.89332 0.14905 0.62202 0.0
C703 C 0.8459 0.13956 0.70071 0.0
C704 C 0.95147 0.10755 0.55474 0.0
C705 C 0.93835 0.11795 0.57169 0.0
C706 C 0.89099 0.09418 0.62412 0.0
C707 C 0.8766 0.14364 0.66638 0.0
C708 C 0.88396 0.13216 0.64397 0.0
C709 C 0.91298 0.10113 0.58197 0.0
C710 C 0.90117 0.11131 0.6025 0.0
H711 H 0.90019 0.20118 0.70131 0.0
H712 H 0.91226 0.18192 0.66501 0.0
H713 H 0.87561 0.09096 0.66129 0.0
H714 H 0.90356 0.04236 0.55157 0.0
H715 H 0.88046 0.06068 0.58094 0.0
C716 C 0.8515 0.80933 0.71782 0.0
C717 C 0.84121 0.81527 0.73978 0.0
C718 C 0.87268 0.82965 0.70517 0.0
C719 C 0.92465 0.8745 0.68601 0.0
H720 H 0.90463 0.94006 0.66766 0.0
C721 C 0.98138 0.95797 0.61008 0.0
C722 C 0.96226 0.96369 0.59075 0.0
C723 C 0.97159 0.94305 0.63273 0.0
C724 C 0.91068 0.922 0.67283 0.0
H725 H 0.84596 0.84681 0.76646 0.0
H726 H 0.88286 0.8827 0.74394 0.0
H727 H 0.87975 0.90704 0.70051 0.0
H728 H 0.91778 0.95914 0.58062 0.0
H729 H 0.90085 0.93363 0.62005 0.0
H730 H 0.95466 0.8889 0.6574 0.0
C731 C 0.8745 0.86219 0.73665 0.0
C732 C 0.89663 0.90323 0.6918 0.0
C733 C 0.85351 0.84166 0.74957 0.0
C734 C 0.9332 0.95507 0.595 0.0
C735 C 0.92347 0.94055 0.6177 0.0
C736 C 0.9389 0.89343 0.66719 0.0
C737 C 0.88387 0.8565 0.71402 0.0
C738 C 0.90276 0.8788 0.69793 0.0
C739 C 0.94247 0.93412 0.6367 0.0
C740 C 0.9313 0.91684 0.65977 0.0
H741 H 0.84261 0.78911 0.70992 0.0
H742 H 0.87919 0.82467 0.68765 0.0
H743 H 0.92996 0.85594 0.69052 0.0
H744 H 1.00387 0.96516 0.60774 0.0
H745 H 0.98676 0.93859 0.64717 0.0
C746 C 0.2889 0.19586 0.19882 0.0
C747 C 0.30242 0.20926 0.22181 0.0
C748 C 0.30186 0.18156 0.18413 0.0
C749 C 0.37385 0.16829 0.17777 0.0
H750 H 0.32873 0.1163 0.12765 0.0
C751 C 0.43104 0.11686 0.11093 0.0
C752 C 0.41652 0.09234 0.09756 0.0
C753 C 0.41705 0.13004 0.12553 0.0
C754 C 0.3422 0.13055 0.14154 0.0
H755 H 0.34164 0.21667 0.24629 0.0
H756 H 0.36355 0.19234 0.22167 0.0
H757 H 0.306 0.13958 0.15262 0.0
H758 H 0.37383 0.06346 0.09037 0.0
H759 H 0.34973 0.08582 0.11551 0.0
H760 H 0.40993 0.15906 0.16711 0.0
C761 C 0.34279 0.19293 0.21433 0.0
C762 C 0.3288 0.14453 0.15614 0.0
C763 C 0.32983 0.20716 0.22898 0.0
C764 C 0.38662 0.08199 0.09999 0.0
C765 C 0.37249 0.0953 0.11465 0.0
C766 C 0.38722 0.15441 0.16316 0.0
C767 C 0.32945 0.17954 0.19119 0.0
C768 C 0.34405 0.16403 0.17494 0.0
C769 C 0.38716 0.11994 0.1281 0.0
C770 C 0.37205 0.13494 0.14435 0.0
H771 H 0.268 0.19649 0.19189 0.0
H772 H 0.29 0.17233 0.16677 0.0
H773 H 0.38751 0.18285 0.19131 0.0
H774 H 0.45382 0.12637 0.11005 0.0
H775 H 0.43018 0.1488 0.13455 0.0
C776 C 0.83566 0.33931 0.22833 0.0
C777 C 0.80614 0.33392 0.22812 0.0
C778 C 0.85189 0.35875 0.2109 0.0
C779 C 0.84355 0.39279 0.1473 0.0
H780 H 0.92145 0.4398 0.16412 0.0
C781 C 0.90203 0.47852 0.07679 0.0
C782 C 0.93036 0.48186 0.07271 0.0
C783 C 0.88853 0.46136 0.09686 0.0
C784 C 0.89983 0.42657 0.15909 0.0
H785 H 0.77087 0.34586 0.21009 0.0
H786 H 0.79926 0.38012 0.18 0.0
H787 H 0.89437 0.40941 0.19762 0.0
H788 H 0.967 0.47048 0.08757 0.0
H789 H 0.94314 0.43999 0.12275 0.0
H790 H 0.84887 0.40987 0.10889 0.0
C791 C 0.80976 0.36884 0.19332 0.0
C792 C 0.88426 0.40918 0.17828 0.0
C793 C 0.79349 0.34933 0.21074 0.0
C794 C 0.94512 0.46814 0.08991 0.0
C795 C 0.9315 0.45083 0.11018 0.0
C796 C 0.85903 0.41014 0.12822 0.0
C797 C 0.83907 0.37338 0.19279 0.0
C798 C 0.85582 0.39221 0.17266 0.0
C799 C 0.90283 0.4469 0.11356 0.0
C800 C 0.88726 0.42745 0.13389 0.0
H801 H 0.84621 0.32787 0.24142 0.0
H802 H 0.8743 0.36149 0.21098 0.0
H803 H 0.82202 0.37952 0.14204 0.0
H804 H 0.88989 0.48888 0.06423 0.0
H805 H 0.86669 0.45934 0.09923 0.0
C806 C 0.6953 0.81042 0.2389 0.0
C807 C 0.71725 0.80406 0.22813 0.0
C808 C 0.67915 0.82655 0.22517 0.0
C809 C 0.65648 0.85273 0.1567 0.0
H810 H 0.63294 0.90343 0.19168 0.0
C811 C 0.57501 0.90929 0.10336 0.0
C812 C 0.57807 0.93705 0.10812 0.0
C813 C 0.59157 0.89396 0.11762 0.0
C814 C 0.63904 0.88948 0.18111 0.0
H815 H 0.73735 0.81115 0.1924 0.0
H816 H 0.70909 0.83735 0.16875 0.0
H817 H 0.66019 0.87634 0.21567 0.0
H818 H 0.60313 0.96898 0.13378 0.0
H819 H 0.63026 0.94237 0.15903 0.0
H820 H 0.63454 0.86512 0.12234 0.0
C821 C 0.70449 0.83026 0.18833 0.0
C822 C 0.65499 0.87341 0.19528 0.0
C823 C 0.72122 0.81488 0.20229 0.0
C824 C 0.59899 0.94797 0.12881 0.0
C825 C 0.61498 0.93228 0.14364 0.0
C826 C 0.63979 0.86814 0.14271 0.0
C827 C 0.68283 0.83703 0.19916 0.0
C828 C 0.66466 0.85444 0.18368 0.0
C829 C 0.61225 0.90465 0.1385 0.0
C830 C 0.63048 0.88741 0.1542 0.0
H831 H 0.69066 0.80314 0.25844 0.0
H832 H 0.66313 0.83041 0.23512 0.0
H833 H 0.66263 0.83885 0.14608 0.0
H834 H 0.55993 0.89924 0.08783 0.0
H835 H 0.58774 0.87315 0.11221 0.0
C836 C 0.2175 0.73303 0.17907 0.0
C837 C 0.22421 0.72065 0.20258 0.0
C838 C 0.20191 0.71679 0.15871 0.0
C839 C 0.17641 0.64431 0.13639 0.0
H840 H 0.12136 0.66946 0.09369 0.0
C841 C 0.0812 0.57538 0.0702 0.0
C842 C 0.0742 0.58792 0.04684 0.0
C843 C 0.1034 0.59052 0.08751 0.0
C844 C 0.13688 0.66225 0.10523 0.0
H845 H 0.21965 0.68137 0.22305 0.0
H846 H 0.1919 0.65336 0.18822 0.0
H847 H 0.15169 0.69841 0.12702 0.0
H848 H 0.08691 0.62509 0.0222 0.0
H849 H 0.12547 0.65112 0.05209 0.0
H850 H 0.16052 0.60757 0.11494 0.0
C851 C 0.19926 0.67553 0.18502 0.0
C852 C 0.15443 0.67896 0.12435 0.0
C853 C 0.21507 0.69171 0.20518 0.0
C854 C 0.09148 0.61492 0.04019 0.0
C855 C 0.11347 0.62995 0.05739 0.0
C856 C 0.15855 0.62742 0.1174 0.0
C857 C 0.19234 0.68776 0.16146 0.0
C858 C 0.17444 0.67026 0.14031 0.0
C859 C 0.11889 0.61838 0.08171 0.0
C860 C 0.1386 0.63623 0.10158 0.0
H861 H 0.22438 0.75525 0.17634 0.0
H862 H 0.19749 0.72707 0.14077 0.0
H863 H 0.19184 0.637 0.14792 0.0
H864 H 0.06824 0.55468 0.07594 0.0
H865 H 0.10714 0.581 0.10609 0.0
C866 C 0.29263 0.82079 0.84416 0.0
C867 C 0.308 0.80817 0.83133 0.0
C868 C 0.30598 0.839 0.86416 0.0
C869 C 0.37697 0.88606 0.89064 0.0
H870 H 0.34094 0.87993 0.95383 0.0
C871 C 0.42574 0.96592 0.97173 0.0
C872 C 0.42821 0.9546 0.99693 0.0
C873 C 0.40919 0.94938 0.95153 0.0
C874 C 0.35138 0.88209 0.93632 0.0
H875 H 0.35013 0.80579 0.82984 0.0
H876 H 0.37333 0.83786 0.86386 0.0
H877 H 0.31673 0.84895 0.91907 0.0
H878 H 0.41413 0.91672 0.02024 0.0
H879 H 0.38421 0.88853 0.98572 0.0
H880 H 0.41149 0.91935 0.90776 0.0
C881 C 0.35078 0.83347 0.85867 0.0
C882 C 0.33733 0.8643 0.9162 0.0
C883 C 0.33733 0.81482 0.83911 0.0
C884 C 0.4123 0.9265 0.00137 0.0
C885 C 0.39523 0.91017 0.98138 0.0
C886 C 0.39072 0.90425 0.91051 0.0
C887 C 0.33539 0.84587 0.87172 0.0
C888 C 0.34997 0.86569 0.89303 0.0
C889 C 0.39403 0.92101 0.95586 0.0
C890 C 0.37836 0.90249 0.93389 0.0
H891 H 0.27008 0.81638 0.83893 0.0
H892 H 0.29325 0.84809 0.87345 0.0
H893 H 0.38751 0.88812 0.8732 0.0
H894 H 0.43823 -0.01285 0.96719 0.0
H895 H 0.4088 0.95874 0.93232 0.0
C896 C 0.12748 0.30374 0.8779 0.0
C897 C 0.15659 0.31179 0.87396 0.0
C898 C 0.11702 0.32042 0.89087 0.0
C899 C 0.13923 0.37759 0.93584 0.0
H900 H 0.065 0.38241 0.91261 0.0
C901 C 0.0902 0.4501 0.97982 0.0
C902 C 0.06092 0.43895 0.98342 0.0
C903 C 0.10331 0.43568 0.96665 0.0
C904 C 0.08567 0.38113 0.91953 0.0
H905 H 0.19751 0.3439 0.88089 0.0
H906 H 0.17916 0.37325 0.90307 0.0
H907 H 0.08494 0.35566 0.88905 0.0
H908 H 0.02283 0.40337 0.97644 0.0
H909 H 0.04557 0.37852 0.95388 0.0
H910 H 0.1398 0.40318 0.96637 0.0
C911 C 0.16445 0.35383 0.89632 0.0
C912 C 0.09712 0.36571 0.906 0.0
C913 C 0.17493 0.33711 0.88331 0.0
C914 C 0.04535 0.41283 0.97397 0.0
C915 C 0.05837 0.39856 0.96081 0.0
C916 C 0.12776 0.39312 0.94938 0.0
C917 C 0.13532 0.34572 0.90027 0.0
C918 C 0.1239 0.36339 0.91413 0.0
C919 C 0.08742 0.40989 0.95665 0.0
C920 C 0.10063 0.39476 0.94159 0.0
H921 H 0.11261 0.28458 0.87076 0.0
H922 H 0.09454 0.31325 0.8938 0.0
H923 H 0.15979 0.37611 0.94283 0.0
H924 H 0.10289 0.47015 0.98677 0.0
H925 H 0.12572 0.44507 0.96372 0.0
C926 C 0.7196 0.19453 0.84601 0.0
C927 C 0.70936 0.20472 0.82267 0.0
C928 C 0.70088 0.17895 0.86421 0.0
C929 C 0.62513 0.15956 0.88293 0.0
H930 H 0.64614 0.10366 0.92545 0.0
C931 C 0.5512 0.08115 0.9574 0.0
C932 C 0.5655 0.07573 0.98079 0.0
C933 C 0.5667 0.09731 0.9371 0.0
C934 C 0.63988 0.1193 0.91392 0.0
H935 H 0.67073 0.20618 0.80065 0.0
H936 H 0.63824 0.17866 0.83189 0.0
H937 H 0.67672 0.13003 0.89277 0.0
H938 H 0.6075 0.08508 0.00126 0.0
H939 H 0.63368 0.11249 0.9667 0.0
H940 H 0.5879 0.14822 0.90423 0.0
C941 C 0.66087 0.18305 0.83645 0.0
C942 C 0.65768 0.13469 0.89508 0.0
C943 C 0.67964 0.19877 0.81828 0.0
C944 C 0.59545 0.08803 0.98351 0.0
C945 C 0.61071 0.10384 0.96347 0.0
C946 C 0.60713 0.14392 0.90177 0.0
C947 C 0.67107 0.17271 0.85981 0.0
C948 C 0.651 0.15548 0.87939 0.0
C949 C 0.59686 0.10832 0.93965 0.0
C950 C 0.61445 0.12381 0.91791 0.0
H951 H 0.74224 0.19875 0.85039 0.0
H952 H 0.71002 0.17213 0.88201 0.0
H953 H 0.61902 0.17537 0.8716 0.0
H954 H 0.52824 0.07217 0.95445 0.0
H955 H 0.55514 0.10037 0.91911 0.0
C956 C 0.82474 0.71615 0.83518 0.0
C957 C 0.82505 0.72143 0.80842 0.0
C958 C 0.84112 0.70125 0.84827 0.0
C959 C 0.90302 0.67837 0.84348 0.0
H960 H 0.86717 0.62232 0.89463 0.0
C961 C 0.96365 0.62269 0.91724 0.0
C962 C 0.9491 0.59509 0.92483 0.0
C963 C 0.95019 0.63746 0.89994 0.0
C964 C 0.87747 0.63768 0.88023 0.0
H965 H 0.84362 0.7156 0.77463 0.0
H966 H 0.8722 0.68983 0.79748 0.0
H967 H 0.84067 0.64995 0.87178 0.0
H968 H 0.90986 0.56078 0.91796 0.0
H969 H 0.88675 0.58633 0.88773 0.0
H970 H 0.9399 0.666 0.85208 0.0
C971 C 0.8593 0.69726 0.80836 0.0
C972 C 0.86236 0.65382 0.86735 0.0
C973 C 0.84275 0.71195 0.79523 0.0
C974 C 0.92173 0.58203 0.91286 0.0
C975 C 0.90829 0.5968 0.89567 0.0
C976 C 0.91828 0.66235 0.85658 0.0
C977 C 0.85845 0.6914 0.83501 0.0
C978 C 0.87489 0.67441 0.84881 0.0
C979 C 0.92185 0.62501 0.88982 0.0
C980 C 0.90566 0.64171 0.87509 0.0
H981 H 0.81142 0.72309 0.84601 0.0
H982 H 0.84019 0.69744 0.86885 0.0
H983 H 0.91342 0.69415 0.82944 0.0
H984 H 0.98471 0.63352 0.92601 0.0
H985 H 0.96135 0.65913 0.89584 0.0
C986 C 0.12248 0.32275 0.16646 0.0
C987 C 0.11987 0.30805 0.19034 0.0
C988 C 0.10941 0.34253 0.1606 0.0
C989 C 0.09743 0.39545 0.16038 0.0
H990 H 0.0175 0.3815 0.16759 0.0
C991 C 0.04733 0.47 0.1103 0.0
C992 C 0.02301 0.4566 0.09422 0.0
C993 C 0.05644 0.45558 0.13114 0.0
C994 C 0.03991 0.38582 0.16563 0.0
H995 H 0.10061 0.30208 0.22652 0.0
H996 H 0.07759 0.337 0.21613 0.0
H997 H 0.03938 0.34736 0.18477 0.0
H998 H 0.98695 0.41878 0.08964 0.0
H999 H 1.00331 0.3935 0.12508 0.0
H1000 H 0.09796 0.43273 0.13982 0.0
C1001 C 0.08989 0.33303 0.20205 0.0
C1002 C 0.05246 0.36634 0.17563 0.0
C1003 C 0.10314 0.31317 0.20801 0.0
C1004 C 0.0061 0.42963 0.10134 0.0
C1005 C 0.01542 0.4151 0.12192 0.0
C1006 C 0.08497 0.41478 0.15037 0.0
C1007 C 0.09344 0.3483 0.17847 0.0
C1008 C 0.08106 0.37052 0.17214 0.0
C1009 C 0.04165 0.42739 0.13605 0.0
C1010 C 0.05579 0.4098 0.15199 0.0
H1011 H 0.13554 0.31976 0.15254 0.0
H1012 H 0.11208 0.35358 0.14206 0.0
H1013 H 0.1197 0.3995 0.1579 0.0
H1014 H 0.0605 0.491 0.10573 0.0
H1015 H 0.07622 0.466 0.14223 0.0
C1016 C 0.17845 0.70691 0.80653 0.0
C1017 C 0.20568 0.70462 0.81164 0.0
C1018 C 0.15551 0.68931 0.81929 0.0
C1019 C 0.12965 0.62129 0.85018 0.0
H1020 H 0.08778 0.65038 0.89171 0.0
C1021 C 0.07717 0.56208 0.93713 0.0
C1022 C 0.05203 0.56455 0.94449 0.0
C1023 C 0.09015 0.57728 0.91604 0.0
C1024 C 0.09869 0.64188 0.87966 0.0
H1025 H 0.2304 0.68232 0.83403 0.0
H1026 H 0.19004 0.65111 0.85603 0.0
H1027 H 0.12277 0.6818 0.86431 0.0
H1028 H 0.02005 0.58401 0.93461 0.0
H1029 H 0.04309 0.61104 0.89743 0.0
H1030 H 0.10611 0.58149 0.86564 0.0
C1031 C 0.1866 0.66662 0.84221 0.0
C1032 C 0.11882 0.65987 0.86416 0.0
C1033 C 0.20965 0.68456 0.82981 0.0
C1034 C 0.03952 0.58186 0.92956 0.0
C1035 C 0.05271 0.59732 0.90833 0.0
C1036 C 0.10931 0.60331 0.86534 0.0
C1037 C 0.15936 0.66882 0.83695 0.0
C1038 C 0.13519 0.64974 0.85014 0.0
C1039 C 0.07837 0.59536 0.90159 0.0
C1040 C 0.09454 0.61353 0.88112 0.0
H1041 H 0.17486 0.72234 0.79267 0.0
H1042 H 0.13468 0.69135 0.81502 0.0
H1043 H 0.14169 0.61304 0.83908 0.0
H1044 H 0.08733 0.54877 0.948 0.0
H1045 H 0.11015 0.57563 0.91173 0.0
C1046 C 0.29825 0.20119 0.85303 0.0
C1047 C 0.30709 0.21004 0.82805 0.0
C1048 C 0.31301 0.18755 0.871 0.0
C1049 C 0.36316 0.14608 0.87659 0.0
H1050 H 0.3774 0.16491 0.94804 0.0
C1051 C 0.4099 0.08208 0.95859 0.0
C1052 C 0.43051 0.09675 0.97767 0.0
C1053 C 0.39542 0.09549 0.94007 0.0
C1054 C 0.37375 0.15922 0.92819 0.0
H1055 H 0.339 0.21032 0.80307 0.0
H1056 H 0.36373 0.18599 0.83365 0.0
H1057 H 0.35139 0.18803 0.91742 0.0
H1058 H 0.451 0.13788 0.99149 0.0
H1059 H 0.42558 0.16073 0.96012 0.0
H1060 H 0.38499 0.11684 0.88749 0.0
C1061 C 0.34547 0.18988 0.8396 0.0
C1062 C 0.35848 0.17251 0.91045 0.0
C1063 C 0.33117 0.20411 0.82188 0.0
C1064 C 0.43573 0.1255 0.97725 0.0
C1065 C 0.42077 0.13875 0.95918 0.0
C1066 C 0.37782 0.13228 0.89447 0.0
C1067 C 0.33695 0.18139 0.86473 0.0
C1068 C 0.35294 0.16648 0.88411 0.0
C1069 C 0.40016 0.12414 0.94009 0.0
C1070 C 0.38374 0.13863 0.92073 0.0
H1071 H 0.28004 0.20519 0.85895 0.0
H1072 H 0.3053 0.18145 0.88986 0.0
H1073 H 0.35948 0.14039 0.85675 0.0
H1074 H 0.40475 0.06002 0.95801 0.0
H1075 H 0.3798 0.0831 0.92606 0.0
C1076 C 0.77847 0.32315 0.83306 0.0
C1077 C 0.79592 0.30873 0.82662 0.0
C1078 C 0.78825 0.34296 0.85156 0.0
C1079 C 0.83968 0.36322 0.9073 0.0
H1080 H 0.83212 0.43544 0.89436 0.0
C1081 C 0.9047 0.47376 0.94583 0.0
C1082 C 0.9091 0.46496 0.97145 0.0
C1083 C 0.88271 0.45689 0.92966 0.0
C1084 C 0.83411 0.41528 0.8983 0.0
H1085 H 0.83734 0.30391 0.83448 0.0
H1086 H 0.8544 0.33851 0.86701 0.0
H1087 H 0.81201 0.40044 0.86218 0.0
H1088 H 0.89183 0.43439 0.00152 0.0
H1089 H 0.85272 0.40554 0.97365 0.0
H1090 H 0.86263 0.37799 0.94277 0.0
C1091 C 0.83307 0.33427 0.85775 0.0
C1092 C 0.82258 0.39527 0.87997 0.0
C1093 C 0.82337 0.31457 0.83908 0.0
C1094 C 0.88893 0.44134 0.98168 0.0
C1095 C 0.86674 0.42477 0.96568 0.0
C1096 C 0.85098 0.38304 0.92561 0.0
C1097 C 0.81558 0.34863 0.86416 0.0
C1098 C 0.82583 0.36926 0.88412 0.0
C1099 C 0.86481 0.43129 0.93915 0.0
C1100 C 0.84876 0.40945 0.92118 0.0
H1101 H 0.75721 0.31925 0.82374 0.0
H1102 H 0.77428 0.35357 0.85627 0.0
H1103 H 0.84216 0.34323 0.91113 0.0
H1104 H 0.92011 0.49192 0.93758 0.0
H1105 H 0.88171 0.46255 0.90931 0.0
C1106 C 0.67889 0.84994 0.88023 0.0
C1107 C 0.70888 0.85866 0.88237 0.0
C1108 C 0.66433 0.86246 0.89391 0.0
C1109 C 0.67381 0.90633 0.94996 0.0
H1110 H 0.60452 0.91684 0.91851 0.0
C1111 C 0.61583 0.96753 0.99846 0.0
C1112 C 0.58587 0.95659 0.99719 0.0
C1113 C 0.63135 0.95663 0.9841 0.0
C1114 C 0.6237 0.91387 0.92773 0.0
H1115 H 0.74682 0.88743 0.90125 0.0
H1116 H 0.72161 0.90959 0.92441 0.0
H1117 H 0.63016 0.89575 0.89455 0.0
H1118 H 0.54894 0.92564 0.97929 0.0
H1119 H 0.57579 0.90684 0.95453 0.0
H1120 H 0.66731 0.92454 0.98315 0.0
C1121 C 0.70923 0.89282 0.91236 0.0
C1122 C 0.63844 0.90166 0.91395 0.0
C1123 C 0.72378 0.88029 0.89871 0.0
C1124 C 0.57194 0.93474 0.98085 0.0
C1125 C 0.5874 0.92398 0.96644 0.0
C1126 C 0.6591 0.91862 0.96372 0.0
C1127 C 0.67925 0.88413 0.9102 0.0
C1128 C 0.66367 0.89754 0.92487 0.0
C1129 C 0.61735 0.93462 0.96791 0.0
C1130 C 0.63371 0.92244 0.95289 0.0
H1131 H 0.66656 0.83357 0.86773 0.0
H1132 H 0.64127 0.85486 0.89191 0.0
H1133 H 0.69287 0.90321 0.95928 0.0
H1134 H 0.62738 0.98431 0.0108 0.0
H1135 H 0.65436 0.96561 0.98556 0.0
C1136 C 0.87343 0.71712 0.17784 0.0
C1137 C 0.88991 0.74525 0.17709 0.0
C1138 C 0.87547 0.69996 0.15951 0.0
C1139 C 0.89622 0.70215 0.09404 0.0
H1140 H 0.89819 0.62881 0.11334 0.0
C1141 C 0.93748 0.64021 0.03219 0.0
C1142 C 0.92486 0.61142 0.03254 0.0
C1143 C 0.92788 0.65577 0.0471 0.0
C1144 C 0.89702 0.64901 0.10758 0.0
H1145 H 0.92205 0.77733 0.15709 0.0
H1146 H 0.92592 0.74714 0.12508 0.0
H1147 H 0.89439 0.65782 0.14624 0.0
H1148 H 0.89108 0.57641 0.04733 0.0
H1149 H 0.87426 0.6038 0.07369 0.0
H1150 H 0.89962 0.69353 0.05545 0.0
C1151 C 0.91107 0.73854 0.13965 0.0
C1152 C 0.89503 0.66567 0.12643 0.0
C1153 C 0.90901 0.75576 0.15801 0.0
C1154 C 0.90121 0.59859 0.04677 0.0
C1155 C 0.89173 0.6142 0.06194 0.0
C1156 C 0.89825 0.68549 0.07519 0.0
C1157 C 0.89399 0.71057 0.14002 0.0
C1158 C 0.89508 0.69256 0.1199 0.0
C1159 C 0.90556 0.64283 0.06277 0.0
C1160 C 0.89915 0.65894 0.08186 0.0
H1161 H 0.85801 0.70854 0.19193 0.0
H1162 H 0.86179 0.67859 0.16009 0.0
H1163 H 0.89567 0.72257 0.08839 0.0
H1164 H 0.95558 0.65068 0.02117 0.0
H1165 H 0.93909 0.67776 0.0475 0.0
C1166 C 0.35582 0.80552 0.22539 0.0
C1167 C 0.33423 0.81535 0.23087 0.0
C1168 C 0.38193 0.82395 0.21836 0.0
C1169 C 0.4242 0.89884 0.21502 0.0
H1170 H 0.44154 0.88306 0.14882 0.0
C1171 C 0.43842 0.97115 0.12789 0.0
C1172 C 0.45901 0.97277 0.11114 0.0
C1173 C 0.43556 0.95362 0.14981 0.0
C1174 C 0.43772 0.8876 0.16767 0.0
H1175 H 0.32304 0.85201 0.23349 0.0
H1176 H 0.36783 0.88381 0.22049 0.0
H1177 H 0.4124 0.84581 0.17562 0.0
H1178 H 0.49341 0.9581 0.10449 0.0
H1179 H 0.48749 0.92669 0.14236 0.0
H1180 H 0.44683 0.94121 0.20547 0.0
C1181 C 0.36515 0.86207 0.22236 0.0
C1182 C 0.42106 0.86624 0.18308 0.0
C1183 C 0.33922 0.84378 0.22937 0.0
C1184 C 0.47726 0.95722 0.11706 0.0
C1185 C 0.47409 0.93939 0.13875 0.0
C1186 C 0.44048 0.92025 0.19942 0.0
C1187 C 0.38678 0.85241 0.21676 0.0
C1188 C 0.41243 0.87207 0.20595 0.0
C1189 C 0.45298 0.93722 0.15506 0.0
C1190 C 0.44564 0.91491 0.17495 0.0
H1191 H 0.35267 0.78369 0.22674 0.0
H1192 H 0.39821 0.81598 0.21399 0.0
H1193 H 0.41848 0.90369 0.23298 0.0
H1194 H 0.42432 0.98311 0.12389 0.0
H1195 H 0.41873 0.95181 0.16194 0.0
C1196 C 0.69747 0.22314 0.19073 0.0
C1197 C 0.72627 0.22959 0.19957 0.0
C1198 C 0.68717 0.20988 0.16779 0.0
C1199 C 0.67321 0.19263 0.11315 0.0
H1200 H 0.68511 0.12269 0.1104 0.0
C1201 C 0.59308 0.11248 0.05361 0.0
C1202 C 0.58133 0.08839 0.06874 0.0
C1203 C 0.62039 0.13042 0.06032 0.0
C1204 C 0.68187 0.14232 0.11064 0.0
H1205 H 0.76707 0.22771 0.19119 0.0
H1206 H 0.74877 0.20403 0.15113 0.0
H1207 H 0.71432 0.15596 0.14143 0.0
H1208 H 0.58958 0.06226 0.10072 0.0
H1209 H 0.63666 0.09422 0.1135 0.0
H1210 H 0.63925 0.17844 0.08421 0.0
C1211 C 0.73433 0.20944 0.16194 0.0
C1212 C 0.69873 0.16144 0.12826 0.0
C1213 C 0.74473 0.22299 0.18481 0.0
C1214 C 0.59823 0.08095 0.08899 0.0
C1215 C 0.62534 0.09921 0.09611 0.0
C1216 C 0.65636 0.17359 0.09565 0.0
C1217 C 0.70543 0.20265 0.15333 0.0
C1218 C 0.6934 0.18606 0.13057 0.0
C1219 C 0.63598 0.1249 0.08273 0.0
C1220 C 0.65942 0.14758 0.09519 0.0
H1221 H 0.68278 0.22803 0.20166 0.0
H1222 H 0.66465 0.20443 0.16181 0.0
H1223 H 0.66908 0.21173 0.11428 0.0
H1224 H 0.58057 0.11814 0.03738 0.0
H1225 H 0.62835 0.14961 0.04914 0.0
C1226 C 0.68369 0.70887 0.81607 0.0
C1227 C 0.70034 0.70086 0.80038 0.0
C1228 C 0.66418 0.68919 0.83101 0.0
C1229 C 0.65521 0.62248 0.8636 0.0
H1230 H 0.57966 0.62161 0.87475 0.0
C1231 C 0.58944 0.54359 0.93546 0.0
C1232 C 0.57464 0.55313 0.95165 0.0
C1233 C 0.60036 0.5593 0.91362 0.0
C1234 C 0.6008 0.62171 0.872 0.0
H1235 H 0.70834 0.66571 0.78703 0.0
H1236 H 0.6745 0.63157 0.81318 0.0
H1237 H 0.60687 0.65403 0.84249 0.0
H1238 H 0.55959 0.58641 0.95792 0.0
H1239 H 0.57905 0.61427 0.92009 0.0
H1240 H 0.65012 0.59134 0.89365 0.0
C1241 C 0.67673 0.65307 0.81406 0.0
C1242 C 0.61629 0.64021 0.85347 0.0
C1243 C 0.69605 0.67267 0.79903 0.0
C1244 C 0.57023 0.57829 0.94532 0.0
C1245 C 0.58151 0.59427 0.92365 0.0
C1246 C 0.63995 0.6043 0.88225 0.0
C1247 C 0.6611 0.66118 0.83067 0.0
C1248 C 0.64369 0.64079 0.84917 0.0
C1249 C 0.59732 0.58526 0.90785 0.0
C1250 C 0.61258 0.60369 0.8868 0.0
H1251 H 0.68638 0.73041 0.81751 0.0
H1252 H 0.65252 0.69604 0.84375 0.0
H1253 H 0.67651 0.62283 0.86108 0.0
H1254 H 0.59294 0.52411 0.93991 0.0
H1255 H 0.61176 0.55134 0.90159 0.0
C1256 C 0.40354 0.63856 0.76617 0.0
C1257 C 0.37677 0.6319 0.77587 0.0
C1258 C 0.42116 0.62299 0.77413 0.0
C1259 C 0.46091 0.60767 0.81487 0.0
H1260 H 0.43133 0.53582 0.84925 0.0
C1261 C 0.47965 0.53948 0.91315 0.0
C1262 C 0.48961 0.5618 0.92931 0.0
C1263 C 0.47465 0.54385 0.88669 0.0
C1264 C 0.44062 0.55566 0.8395 0.0
H1265 H 0.34636 0.60207 0.79936 0.0
H1266 H 0.37675 0.57559 0.81354 0.0
H1267 H 0.40419 0.54799 0.81237 0.0
H1268 H 0.50432 0.60621 0.93051 0.0
H1269 H 0.49387 0.61397 0.88488 0.0
H1270 H 0.49758 0.61519 0.84172 0.0
C1271 C 0.38439 0.59238 0.7995 0.0
C1272 C 0.42466 0.56281 0.81841 0.0
C1273 C 0.36676 0.60772 0.79136 0.0
C1274 C 0.49642 0.58865 0.91844 0.0
C1275 C 0.49067 0.59303 0.89208 0.0
C1276 C 0.47728 0.60022 0.8355 0.0
C1277 C 0.41245 0.60071 0.79219 0.0
C1278 C 0.4335 0.58969 0.80722 0.0
C1279 C 0.47864 0.57061 0.87594 0.0
C1280 C 0.46632 0.57496 0.84938 0.0
H1281 H 0.41157 0.65683 0.75377 0.0
H1282 H 0.44229 0.62955 0.76748 0.0
H1283 H 0.46881 0.62847 0.80664 0.0
H1284 H 0.47496 0.51854 0.92105 0.0
H1285 H 0.46642 0.5261 0.87491 0.0
C1286 C 0.29323 0.3382 0.82571 0.0
C1287 C 0.30799 0.32879 0.80925 0.0
C1288 C 0.30801 0.35759 0.84373 0.0
C1289 C 0.34458 0.37494 0.89301 0.0
H1290 H 0.41384 0.43705 0.88478 0.0
C1291 C 0.43177 0.41556 0.97486 0.0
C1292 C 0.44598 0.44412 0.9757 0.0
C1293 C 0.41116 0.40472 0.95484 0.0
C1294 C 0.39429 0.41999 0.88732 0.0
H1295 H 0.34962 0.33399 0.79722 0.0
H1296 H 0.37565 0.36795 0.82897 0.0
H1297 H 0.38571 0.41416 0.84678 0.0
H1298 H 0.44845 0.4837 0.95694 0.0
H1299 H 0.41253 0.46474 0.92199 0.0
H1300 H 0.35351 0.38023 0.93351 0.0
C1301 C 0.35259 0.36034 0.82783 0.0
C1302 C 0.37837 0.40677 0.8656 0.0
C1303 C 0.33771 0.34092 0.80963 0.0
C1304 C 0.43789 0.46166 0.95694 0.0
C1305 C 0.4175 0.45079 0.93676 0.0
C1306 C 0.36059 0.38799 0.91467 0.0
C1307 C 0.33789 0.36794 0.84576 0.0
C1308 C 0.35354 0.38388 0.86826 0.0
C1309 C 0.40451 0.42218 0.93514 0.0
C1310 C 0.38583 0.41036 0.91209 0.0
H1311 H 0.27024 0.32954 0.82558 0.0
H1312 H 0.29609 0.36354 0.8569 0.0
H1313 H 0.32575 0.35713 0.89575 0.0
H1314 H 0.43746 0.40148 0.98902 0.0
H1315 H 0.40157 0.38255 0.95403 0.0
C1316 C 0.6839 0.33959 0.85829 0.0
C1317 C 0.67072 0.3414 0.83342 0.0
C1318 C 0.67768 0.35172 0.87882 0.0
C1319 C 0.6488 0.40513 0.89385 0.0
H1320 H 0.63553 0.36419 0.95931 0.0
C1321 C 0.59056 0.40736 0.98941 0.0
C1322 C 0.60104 0.43574 0.99368 0.0
C1323 C 0.60278 0.39627 0.97221 0.0
C1324 C 0.63922 0.37591 0.94117 0.0
H1325 H 0.64052 0.35743 0.81083 0.0
H1326 H 0.62987 0.37876 0.84659 0.0
H1327 H 0.64853 0.34412 0.9239 0.0
H1328 H 0.63368 0.47444 0.98411 0.0
H1329 H 0.65508 0.45501 0.95414 0.0
H1330 H 0.63881 0.43663 0.91089 0.0
C1331 C 0.64523 0.36814 0.85013 0.0
C1332 C 0.64688 0.3645 0.92093 0.0
C1333 C 0.65134 0.35589 0.82961 0.0
C1334 C 0.62508 0.4525 0.98136 0.0
C1335 C 0.63717 0.44141 0.96396 0.0
C1336 C 0.64133 0.41662 0.91413 0.0
C1337 C 0.65827 0.36615 0.875 0.0
C1338 C 0.65141 0.37882 0.89691 0.0
C1339 C 0.6257 0.41329 0.9587 0.0
C1340 C 0.63611 0.40202 0.93796 0.0
H1341 H 0.69941 0.32914 0.86189 0.0
H1342 H 0.68842 0.35014 0.89764 0.0
H1343 H 0.65246 0.41686 0.8757 0.0
H1344 H 0.57212 0.39382 0.99859 0.0
H1345 H 0.5933 0.37457 0.96854 0.0
C1346 C 0.67419 0.41091 0.24638 0.0
C1347 C 0.66306 0.39238 0.2668 0.0
C1348 C 0.66077 0.42942 0.23614 0.0
C1349 C 0.58778 0.42699 0.22551 0.0
H1350 H 0.62311 0.49036 0.18103 0.0
C1351 C 0.56903 0.48608 0.12164 0.0
C1352 C 0.55607 0.46218 0.10774 0.0
C1353 C 0.57588 0.48417 0.14805 0.0
C1354 C 0.61247 0.47311 0.19364 0.0
H1355 H 0.6318 0.38156 0.295 0.0
H1356 H 0.60814 0.41388 0.27688 0.0
H1357 H 0.65069 0.47906 0.21827 0.0
H1358 H 0.53786 0.41774 0.11065 0.0
H1359 H 0.55113 0.41411 0.15657 0.0
H1360 H 0.54977 0.42056 0.20043 0.0
C1361 C 0.62687 0.41363 0.26847 0.0
C1362 C 0.62849 0.46651 0.21494 0.0
C1363 C 0.64039 0.39512 0.27879 0.0
C1364 C 0.54808 0.43642 0.12096 0.0
C1365 C 0.55547 0.43445 0.14735 0.0
C1366 C 0.57162 0.43379 0.20436 0.0
C1367 C 0.63591 0.42978 0.24608 0.0
C1368 C 0.6169 0.44231 0.23003 0.0
C1369 C 0.5705 0.45829 0.16102 0.0
C1370 C 0.58434 0.45586 0.18723 0.0
H1371 H 0.69151 0.40934 0.23658 0.0
H1372 H 0.6683 0.44138 0.2188 0.0
H1373 H 0.57806 0.40823 0.23677 0.0
H1374 H 0.57472 0.5063 0.11194 0.0
H1375 H 0.58666 0.50297 0.15804 0.0
C1376 C 0.76062 0.69933 0.19124 0.0
C1377 C 0.74688 0.69505 0.21406 0.0
C1378 C 0.74913 0.68154 0.171 0.0
C1379 C 0.69182 0.61475 0.15379 0.0
H1380 H 0.68989 0.65223 0.08693 0.0
C1381 C 0.60952 0.60552 0.05877 0.0
C1382 C 0.59825 0.57677 0.05686 0.0
C1383 C 0.6339 0.61762 0.07492 0.0
C1384 C 0.69015 0.64139 0.10546 0.0
H1385 H 0.71107 0.66778 0.23388 0.0
H1386 H 0.69081 0.63767 0.19875 0.0
H1387 H 0.72082 0.67691 0.12232 0.0
H1388 H 0.60507 0.53836 0.06937 0.0
H1389 H 0.64814 0.55956 0.09718 0.0
H1390 H 0.65935 0.57997 0.13748 0.0
C1391 C 0.71072 0.65428 0.19642 0.0
C1392 C 0.70831 0.65547 0.12576 0.0
C1393 C 0.72229 0.67183 0.21663 0.0
C1394 C 0.61302 0.56054 0.07044 0.0
C1395 C 0.63764 0.57271 0.08656 0.0
C1396 C 0.67334 0.6008 0.13359 0.0
C1397 C 0.72356 0.65919 0.17307 0.0
C1398 C 0.7086 0.64267 0.15047 0.0
C1399 C 0.64799 0.60138 0.08952 0.0
C1400 C 0.67146 0.61428 0.10939 0.0
H1401 H 0.77976 0.71686 0.18869 0.0
H1402 H 0.75993 0.68571 0.15351 0.0
H1403 H 0.692 0.60393 0.17234 0.0
H1404 H 0.59885 0.61878 0.04857 0.0
H1405 H 0.64077 0.63966 0.07688 0.0
C1406 C 0.33604 0.63457 0.19114 0.0
C1407 C 0.34831 0.66275 0.19579 0.0
C1408 C 0.34377 0.62364 0.17062 0.0
C1409 C 0.37862 0.64457 0.10928 0.0
H1410 H 0.38894 0.57339 0.11857 0.0
C1411 C 0.44505 0.60815 0.04591 0.0
C1412 C 0.43563 0.58022 0.04005 0.0
C1413 C 0.43024 0.61772 0.06196 0.0
C1414 C 0.38569 0.59309 0.11551 0.0
H1415 H 0.37887 0.70142 0.18307 0.0
H1416 H 0.39278 0.68238 0.1477 0.0
H1417 H 0.37192 0.5908 0.15317 0.0
H1418 H 0.4023 0.54074 0.04541 0.0
H1419 H 0.37651 0.55751 0.0735 0.0
H1420 H 0.39337 0.64718 0.0719 0.0
C1421 C 0.37659 0.66877 0.15936 0.0
C1422 C 0.37593 0.6031 0.13537 0.0
C1423 C 0.36872 0.67969 0.17973 0.0
C1424 C 0.41016 0.56239 0.04949 0.0
C1425 C 0.3955 0.57192 0.06577 0.0
C1426 C 0.38857 0.63464 0.08951 0.0
C1427 C 0.36409 0.64064 0.1544 0.0
C1428 C 0.37266 0.62916 0.13266 0.0
C1429 C 0.40579 0.59953 0.07268 0.0
C1430 C 0.39256 0.60895 0.09253 0.0
H1431 H 0.32 0.62107 0.20302 0.0
H1432 H 0.33347 0.60195 0.16722 0.0
H1433 H 0.37575 0.66445 0.10628 0.0
H1434 H 0.46453 0.62247 0.03891 0.0
H1435 H 0.43879 0.63908 0.06702 0.0
C1436 C 0.35166 0.33584 0.24222 0.0
C1437 C 0.32319 0.32507 0.23192 0.0
C1438 C 0.37209 0.35568 0.22803 0.0
C1439 C 0.3796 0.409 0.17628 0.0
H1440 H 0.44466 0.39233 0.15769 0.0
C1441 C 0.42996 0.45385 0.08382 0.0
C1442 C 0.45971 0.46348 0.0828 0.0
C1443 C 0.41753 0.43961 0.10559 0.0
C1444 C 0.42698 0.39762 0.16313 0.0
H1445 H 0.29362 0.32718 0.19918 0.0
H1446 H 0.32886 0.36231 0.17494 0.0
H1447 H 0.41473 0.36305 0.19032 0.0
H1448 H 0.49965 0.46504 0.10406 0.0
H1449 H 0.47764 0.43959 0.14258 0.0
H1450 H 0.39117 0.44307 0.14897 0.0
C1451 C 0.33553 0.35527 0.19378 0.0
C1452 C 0.40985 0.38084 0.18176 0.0
C1453 C 0.31537 0.33512 0.20763 0.0
C1454 C 0.47672 0.45783 0.10417 0.0
C1455 C 0.46411 0.44333 0.12622 0.0
C1456 C 0.39677 0.42581 0.15796 0.0
C1457 C 0.36417 0.36552 0.20363 0.0
C1458 C 0.38539 0.38583 0.18777 0.0
C1459 C 0.43431 0.43449 0.12725 0.0
C1460 C 0.41995 0.41969 0.15033 0.0
H1461 H 0.35833 0.32824 0.2608 0.0
H1462 H 0.39402 0.36328 0.23605 0.0
H1463 H 0.36115 0.41357 0.18085 0.0
H1464 H 0.41597 0.45731 0.0677 0.0
H1465 H 0.39451 0.43242 0.10534 0.0
C1466 C 0.81289 0.63328 0.63843 0.0
C1467 C 0.8278 0.65508 0.65457 0.0
C1468 C 0.82742 0.62057 0.625 0.0
C1469 C 0.89796 0.6112 0.62417 0.0
H1470 H 0.86912 0.58711 0.55531 0.0
C1471 C 0.96381 0.57536 0.55881 0.0
C1472 C 0.94962 0.55326 0.54279 0.0
C1473 C 0.94857 0.58673 0.57284 0.0
C1474 C 0.87732 0.59336 0.57465 0.0
H1475 H 0.8701 0.68044 0.66897 0.0
H1476 H 0.8954 0.65879 0.64515 0.0
H1477 H 0.84386 0.60943 0.5784 0.0
H1478 H 0.90792 0.52574 0.5294 0.0
H1479 H 0.88134 0.54552 0.55399 0.0
H1480 H 0.93154 0.59532 0.62032 0.0
C1481 C 0.87234 0.6512 0.64316 0.0
C1482 C 0.86279 0.60623 0.58796 0.0
C1483 C 0.85778 0.66392 0.65663 0.0
C1484 C 0.91965 0.5427 0.54148 0.0
C1485 C 0.90437 0.55421 0.55547 0.0
C1486 C 0.91252 0.5984 0.61084 0.0
C1487 C 0.8574 0.62925 0.62717 0.0
C1488 C 0.87291 0.61543 0.61293 0.0
C1489 C 0.91861 0.57649 0.5713 0.0
C1490 C 0.90249 0.58936 0.58583 0.0
H1491 H 0.78984 0.62607 0.63595 0.0
H1492 H 0.81504 0.60361 0.61315 0.0
H1493 H 0.90621 0.61744 0.6435 0.0
H1494 H 0.98683 0.58418 0.56038 0.0
H1495 H 0.96037 0.60406 0.58448 0.0
C1496 C 0.34048 0.8302 0.72439 0.0
C1497 C 0.33574 0.8019 0.7288 0.0
C1498 C 0.36406 0.84698 0.71196 0.0
C1499 C 0.41416 0.84433 0.66703 0.0
H1500 H 0.45302 0.9198 0.68621 0.0
C1501 C 0.49534 0.92131 0.60378 0.0
C1502 C 0.48827 0.94509 0.59693 0.0
C1503 C 0.48328 0.90385 0.62439 0.0
C1504 C 0.44249 0.89871 0.68075 0.0
H1505 H 0.35226 0.76905 0.72392 0.0
H1506 H 0.39351 0.79846 0.70222 0.0
H1507 H 0.41847 0.88828 0.71375 0.0
H1508 H 0.46448 0.97024 0.60703 0.0
H1509 H 0.44352 0.93995 0.64293 0.0
H1510 H 0.43745 0.85504 0.63358 0.0
C1511 C 0.37882 0.80758 0.70821 0.0
C1512 C 0.42264 0.88072 0.69642 0.0
C1513 C 0.3552 0.79076 0.72065 0.0
C1514 C 0.47021 0.95195 0.61185 0.0
C1515 C 0.45841 0.93473 0.63255 0.0
C1516 C 0.43409 0.86231 0.6514 0.0
C1517 C 0.38347 0.83586 0.7037 0.0
C1518 C 0.40756 0.85362 0.68926 0.0
C1519 C 0.4642 0.91013 0.63861 0.0
C1520 C 0.44772 0.88992 0.65768 0.0
H1521 H 0.32591 0.83944 0.73042 0.0
H1522 H 0.36673 0.8686 0.70833 0.0
H1523 H 0.40276 0.82364 0.66089 0.0
H1524 H 0.50881 0.91537 0.59236 0.0
H1525 H 0.48813 0.88503 0.6287 0.0
C1526 C 0.20564 0.31345 0.72783 0.0
C1527 C 0.22283 0.2991 0.72028 0.0
C1528 C 0.19125 0.32717 0.70958 0.0
C1529 C 0.16563 0.33084 0.63835 0.0
H1530 H 0.15585 0.39868 0.65439 0.0
C1531 C 0.09376 0.38173 0.56895 0.0
C1532 C 0.10194 0.4108 0.56577 0.0
C1533 C 0.10797 0.36849 0.58779 0.0
C1534 C 0.15831 0.37981 0.64928 0.0
H1535 H 0.23748 0.28847 0.68642 0.0
H1536 H 0.2125 0.31171 0.65506 0.0
H1537 H 0.18099 0.37578 0.68595 0.0
H1538 H 0.13231 0.44816 0.58133 0.0
H1539 H 0.15637 0.42539 0.61418 0.0
H1540 H 0.14292 0.33479 0.60173 0.0
C1541 C 0.21001 0.31247 0.67523 0.0
C1542 C 0.17272 0.36633 0.66776 0.0
C1543 C 0.22471 0.2991 0.69348 0.0
C1544 C 0.12482 0.42587 0.58287 0.0
C1545 C 0.13879 0.41261 0.60199 0.0
C1546 C 0.15086 0.34408 0.62004 0.0
C1547 C 0.19288 0.32696 0.68272 0.0
C1548 C 0.17693 0.3415 0.66279 0.0
C1549 C 0.13101 0.38351 0.6048 0.0
C1550 C 0.14684 0.36902 0.6249 0.0
H1551 H 0.20327 0.31419 0.74804 0.0
H1552 H 0.17833 0.33761 0.71667 0.0
H1553 H 0.16782 0.31181 0.63331 0.0
H1554 H 0.07657 0.36897 0.55638 0.0
H1555 H 0.10063 0.3462 0.58905 0.0
C1556 C 0.75191 0.18491 0.70539 0.0
C1557 C 0.73684 0.20301 0.7075 0.0
C1558 C 0.74464 0.16695 0.68533 0.0
C1559 C 0.70209 0.15254 0.62223 0.0
H1560 H 0.70154 0.07798 0.63915 0.0
C1561 C 0.64545 0.07153 0.55108 0.0
C1562 C 0.62575 0.04827 0.5623 0.0
C1563 C 0.66849 0.08844 0.56612 0.0
C1564 C 0.70161 0.09871 0.63405 0.0
H1565 H 0.70273 0.21692 0.69007 0.0
H1566 H 0.68911 0.18474 0.65549 0.0
H1567 H 0.72099 0.1128 0.67099 0.0
H1568 H 0.61606 0.02249 0.597 0.0
H1569 H 0.65538 0.05243 0.62362 0.0
H1570 H 0.68064 0.13814 0.58618 0.0
C1571 C 0.70709 0.18488 0.66896 0.0
C1572 C 0.71307 0.11882 0.65224 0.0
C1573 C 0.71469 0.20319 0.68886 0.0
C1574 C 0.63117 0.0403 0.58796 0.0
C1575 C 0.65378 0.0576 0.60322 0.0
C1576 C 0.69029 0.13239 0.60421 0.0
C1577 C 0.72186 0.16638 0.66706 0.0
C1578 C 0.71272 0.14581 0.64678 0.0
C1579 C 0.67157 0.08283 0.5928 0.0
C1580 C 0.68917 0.10499 0.6101 0.0
H1581 H 0.76952 0.18468 0.71923 0.0
H1582 H 0.7569 0.15349 0.68419 0.0
H1583 H 0.70209 0.17324 0.61711 0.0
H1584 H 0.64169 0.07788 0.5312 0.0
H1585 H 0.68242 0.10712 0.55724 0.0
C1586 C 0.79288 0.28002 0.35947 0.0
C1587 C 0.78684 0.29636 0.33852 0.0
C1588 C 0.80465 0.29172 0.38294 0.0
C1589 C 0.82621 0.35733 0.41777 0.0
H1590 H 0.89133 0.33534 0.44206 0.0
C1591 C 0.93474 0.43015 0.45558 0.0
C1592 C 0.95251 0.41926 0.47217 0.0
C1593 C 0.907 0.41348 0.44803 0.0
C1594 C 0.87287 0.34139 0.43616 0.0
H1595 H 0.78685 0.33734 0.32592 0.0
H1596 H 0.80872 0.35807 0.3663 0.0
H1597 H 0.85551 0.30769 0.41171 0.0
H1598 H 0.95427 0.38397 0.49672 0.0
H1599 H 0.90577 0.35506 0.48386 0.0
H1600 H 0.84519 0.39235 0.44105 0.0
C1601 C 0.80368 0.33609 0.36506 0.0
C1602 C 0.85217 0.32542 0.41866 0.0
C1603 C 0.79145 0.32428 0.34176 0.0
C1604 C 0.94122 0.39257 0.48327 0.0
C1605 C 0.91345 0.37607 0.47602 0.0
C1606 C 0.84716 0.37351 0.4352 0.0
C1607 C 0.81115 0.32011 0.38572 0.0
C1608 C 0.82918 0.33376 0.40844 0.0
C1609 C 0.89663 0.38584 0.45723 0.0
C1610 C 0.87122 0.36619 0.4438 0.0
H1611 H 0.78894 0.25828 0.35763 0.0
H1612 H 0.80956 0.2787 0.39864 0.0
H1613 H 0.80841 0.36399 0.41068 0.0
H1614 H 0.94289 0.4508 0.447 0.0
H1615 H 0.89459 0.42158 0.43345 0.0
C1616 C 0.61798 0.77527 0.34634 0.0
C1617 C 0.63523 0.75983 0.35643 0.0
C1618 C 0.61431 0.795 0.36102 0.0
C1619 C 0.64927 0.83873 0.41508 0.0
H1620 H 0.57397 0.84045 0.42326 0.0
C1621 C 0.62427 0.91572 0.47675 0.0
C1622 C 0.60212 0.9027 0.49265 0.0
C1623 C 0.63064 0.90068 0.45865 0.0
C1624 C 0.59514 0.84027 0.42098 0.0
H1625 H 0.66182 0.75261 0.3898 0.0
H1626 H 0.6548 0.78644 0.41551 0.0
H1627 H 0.57943 0.80905 0.39341 0.0
H1628 H 0.571 0.86351 0.50373 0.0
H1629 H 0.58223 0.8375 0.47241 0.0
H1630 H 0.66479 0.86935 0.44336 0.0
C1631 C 0.64445 0.78357 0.39621 0.0
C1632 C 0.59825 0.8225 0.40381 0.0
C1633 C 0.64799 0.76384 0.38166 0.0
C1634 C 0.58785 0.8742 0.49141 0.0
C1635 C 0.59412 0.85933 0.47341 0.0
C1636 C 0.64616 0.85665 0.43216 0.0
C1637 C 0.62807 0.79968 0.38585 0.0
C1638 C 0.62523 0.82101 0.40132 0.0
C1639 C 0.61484 0.8726 0.45633 0.0
C1640 C 0.61896 0.85687 0.43579 0.0
H1641 H 0.60795 0.77256 0.32692 0.0
H1642 H 0.60145 0.80713 0.3527 0.0
H1643 H 0.67036 0.83819 0.41311 0.0
H1644 H 0.63555 0.93769 0.47731 0.0
H1645 H 0.64691 0.9112 0.44572 0.0
C1646 C 0.21526 0.70344 0.33704 0.0
C1647 C 0.2075 0.71356 0.31284 0.0
C1648 C 0.19551 0.68178 0.34961 0.0
C1649 C 0.11964 0.6389 0.34996 0.0
H1650 H 0.15319 0.58499 0.37994 0.0
C1651 C 0.07023 0.55601 0.42645 0.0
C1652 C 0.0789 0.53283 0.42971 0.0
C1653 C 0.07985 0.57543 0.40651 0.0
C1654 C 0.14316 0.59938 0.37113 0.0
H1655 H 0.17275 0.71051 0.28346 0.0
H1656 H 0.13839 0.67192 0.30514 0.0
H1657 H 0.1825 0.62607 0.35821 0.0
H1658 H 0.10089 0.50949 0.41334 0.0
H1659 H 0.11644 0.54263 0.37755 0.0
H1660 H 0.08003 0.61166 0.36263 0.0
C1661 C 0.15955 0.68095 0.31454 0.0
C1662 C 0.16021 0.62332 0.35919 0.0
C1663 C 0.17924 0.70295 0.30213 0.0
C1664 C 0.09462 0.52768 0.41139 0.0
C1665 C 0.10351 0.54664 0.39102 0.0
C1666 C 0.10237 0.61465 0.36173 0.0
C1667 C 0.16787 0.66956 0.33794 0.0
C1668 C 0.14886 0.64366 0.34917 0.0
C1669 C 0.09773 0.57151 0.38932 0.0
C1670 C 0.11416 0.59493 0.37296 0.0
H1671 H 0.23681 0.71169 0.34588 0.0
H1672 H 0.20219 0.67391 0.36806 0.0
H1673 H 0.11034 0.65423 0.34219 0.0
H1674 H 0.05789 0.56017 0.4404 0.0
H1675 H 0.07508 0.59438 0.40586 0.0
C1676 C 0.42564 0.19616 0.33557 0.0
C1677 C 0.39596 0.18515 0.33656 0.0
C1678 C 0.44233 0.17931 0.3409 0.0
C1679 C 0.4397 0.10647 0.35251 0.0
H1680 H 0.50049 0.1379 0.40489 0.0
C1681 C 0.47498 0.04348 0.43544 0.0
C1682 C 0.50221 0.05447 0.4483 0.0
C1683 C 0.46688 0.0573 0.41364 0.0
C1684 C 0.48422 0.12884 0.38977 0.0
H1685 H 0.36032 0.14769 0.34267 0.0
H1686 H 0.38944 0.11836 0.35241 0.0
H1687 H 0.47678 0.16688 0.38107 0.0
H1688 H 0.54327 0.08701 0.44662 0.0
H1689 H 0.5296 0.11015 0.40799 0.0
H1690 H 0.44646 0.06802 0.36223 0.0
C1691 C 0.39983 0.13989 0.34707 0.0
C1692 C 0.47052 0.14557 0.37609 0.0
C1693 C 0.38314 0.15672 0.34164 0.0
C1694 C 0.52206 0.07796 0.43735 0.0
C1695 C 0.51413 0.09144 0.41529 0.0
C1696 C 0.45355 0.08967 0.36618 0.0
C1697 C 0.42967 0.15115 0.34747 0.0
C1698 C 0.44745 0.13439 0.35797 0.0
C1699 C 0.48598 0.08218 0.40406 0.0
C1700 C 0.4753 0.1005 0.38563 0.0
H1701 H 0.43601 0.21791 0.33116 0.0
H1702 H 0.46523 0.18849 0.34067 0.0
H1703 H 0.42225 0.09738 0.33836 0.0
H1704 H 0.4592 0.02531 0.44322 0.0
H1705 H 0.44497 0.04956 0.40559 0.0
C1706 C 0.70828 0.81462 0.73873 0.0
C1707 C 0.71416 0.79368 0.72725 0.0
C1708 C 0.69108 0.82848 0.72551 0.0
C1709 C 0.63928 0.82598 0.66793 0.0
H1710 H 0.66023 0.90384 0.67929 0.0
C1711 C 0.57366 0.89095 0.61632 0.0
C1712 C 0.5894 0.91726 0.6064 0.0
C1713 C 0.58684 0.87598 0.63368 0.0
C1714 C 0.65408 0.88217 0.67569 0.0
H1715 H 0.70597 0.77066 0.69282 0.0
H1716 H 0.67655 0.79543 0.66932 0.0
H1717 H 0.68743 0.87734 0.70247 0.0
H1718 H 0.63111 0.94901 0.60852 0.0
H1719 H 0.65392 0.9231 0.63822 0.0
H1720 H 0.60676 0.83125 0.64014 0.0
C1721 C 0.68483 0.80079 0.68885 0.0
C1722 C 0.66953 0.86676 0.68935 0.0
C1723 C 0.70185 0.78662 0.70227 0.0
C1724 C 0.61817 0.92887 0.61567 0.0
C1725 C 0.63134 0.9139 0.63287 0.0
C1726 C 0.62393 0.84149 0.65409 0.0
C1727 C 0.67944 0.82219 0.70019 0.0
C1728 C 0.66247 0.83841 0.68567 0.0
C1729 C 0.61613 0.8869 0.64158 0.0
C1730 C 0.63121 0.86989 0.65762 0.0
H1731 H 0.71699 0.82038 0.75809 0.0
H1732 H 0.68691 0.8442 0.7353 0.0
H1733 H 0.63286 0.8042 0.66472 0.0
H1734 H 0.55146 0.8813 0.60974 0.0
H1735 H 0.57418 0.85555 0.64039 0.0
C1736 C 0.68454 0.19145 0.31794 0.0
C1737 C 0.71008 0.19193 0.30867 0.0
C1738 C 0.66938 0.1696 0.3339 0.0
C1739 C 0.67928 0.1152 0.37968 0.0
H1740 H 0.59667 0.0887 0.37586 0.0
C1741 C 0.61863 0.02819 0.44898 0.0
C1742 C 0.59541 0.03116 0.45989 0.0
C1743 C 0.63077 0.04538 0.4283 0.0
C1744 C 0.61973 0.09602 0.37734 0.0
H1745 H 0.73919 0.16915 0.30847 0.0
H1746 H 0.7125 0.13072 0.33634 0.0
H1747 H 0.62146 0.12245 0.34345 0.0
H1748 H 0.56613 0.05376 0.45671 0.0
H1749 H 0.5875 0.08436 0.42073 0.0
H1750 H 0.67769 0.08929 0.41377 0.0
C1751 C 0.70444 0.14757 0.33139 0.0
C1752 C 0.63398 0.11534 0.35871 0.0
C1753 C 0.71965 0.1695 0.31527 0.0
C1754 C 0.5839 0.05103 0.44879 0.0
C1755 C 0.59619 0.06848 0.4281 0.0
C1756 C 0.66506 0.09594 0.3983 0.0
C1757 C 0.67925 0.14751 0.34113 0.0
C1758 C 0.66396 0.12537 0.35976 0.0
C1759 C 0.62022 0.06624 0.41795 0.0
C1760 C 0.63509 0.08618 0.3975 0.0
H1761 H 0.67637 0.20827 0.31327 0.0
H1762 H 0.65034 0.17051 0.34125 0.0
H1763 H 0.70235 0.1228 0.38142 0.0
H1764 H 0.62786 0.01279 0.4567 0.0
H1765 H 0.64871 0.04248 0.4206 0.0
C1766 C 0.84253 0.70021 0.30255 0.0
C1767 C 0.81846 0.70391 0.31209 0.0
C1768 C 0.85854 0.68393 0.31623 0.0
C1769 C 0.87663 0.65323 0.38383 0.0
H1770 H 0.90523 0.60684 0.34801 0.0
C1771 C 0.95869 0.59768 0.4375 0.0
C1772 C 0.95627 0.57023 0.43218 0.0
C1773 C 0.9422 0.61302 0.42323 0.0
C1774 C 0.89767 0.61956 0.3588 0.0
H1775 H 0.79431 0.69197 0.34558 0.0
H1776 H 0.82233 0.66557 0.36936 0.0
H1777 H 0.87831 0.63424 0.32399 0.0
H1778 H 0.93248 0.53888 0.40551 0.0
H1779 H 0.90554 0.56565 0.38016 0.0
H1780 H 0.8969 0.63942 0.4185 0.0
C1781 C 0.82872 0.67486 0.35073 0.0
C1782 C 0.88193 0.6358 0.34464 0.0
C1783 C 0.81217 0.69034 0.33669 0.0
C1784 C 0.93608 0.55964 0.41092 0.0
C1785 C 0.92022 0.5754 0.39604 0.0
C1786 C 0.89318 0.63773 0.39786 0.0
C1787 C 0.85251 0.67072 0.34106 0.0
C1788 C 0.87047 0.65319 0.35655 0.0
C1789 C 0.92232 0.6027 0.40175 0.0
C1790 C 0.90425 0.62 0.38604 0.0
H1791 H 0.84898 0.70969 0.28398 0.0
H1792 H 0.87628 0.68215 0.30728 0.0
H1793 H 0.86899 0.66585 0.39466 0.0
H1794 H 0.97319 0.60743 0.45349 0.0
H1795 H 0.94545 0.63356 0.42907 0.0
C1796 C 0.32426 0.79848 0.3494 0.0
C1797 C 0.30533 0.8071 0.33196 0.0
C1798 C 0.33863 0.81438 0.37026 0.0
C1799 C 0.37118 0.88309 0.39015 0.0
H1800 H 0.36337 0.85302 0.46022 0.0
C1801 C 0.44588 0.94255 0.47395 0.0
C1802 C 0.45625 0.92625 0.49241 0.0
C1803 C 0.42255 0.93024 0.45637 0.0
C1804 C 0.36615 0.86175 0.4408 0.0
H1805 H 0.28678 0.83926 0.32262 0.0
H1806 H 0.3129 0.86761 0.35866 0.0
H1807 H 0.33338 0.82647 0.42504 0.0
H1808 H 0.44864 0.88444 0.50804 0.0
H1809 H 0.40929 0.86323 0.47745 0.0
H1810 H 0.40526 0.91746 0.40536 0.0
C1811 C 0.31608 0.84826 0.35634 0.0
C1812 C 0.34874 0.84653 0.42069 0.0
C1813 C 0.3011 0.83199 0.33584 0.0
C1814 C 0.44147 0.89772 0.49401 0.0
C1815 C 0.41851 0.88547 0.47642 0.0
C1816 C 0.38912 0.89809 0.41021 0.0
C1817 C 0.33493 0.83956 0.37374 0.0
C1818 C 0.35141 0.85686 0.39516 0.0
C1819 C 0.40915 0.90135 0.45678 0.0
C1820 C 0.38734 0.88737 0.43584 0.0
H1821 H 0.32792 0.77939 0.34697 0.0
H1822 H 0.35317 0.80732 0.38339 0.0
H1823 H 0.37368 0.89143 0.37056 0.0
H1824 H 0.45667 0.96459 0.47217 0.0
H1825 H 0.41563 0.94333 0.44197 0.0
C1826 C 0.23882 0.30907 0.33943 0.0
C1827 C 0.22952 0.30315 0.31323 0.0
C1828 C 0.22595 0.32282 0.35475 0.0
C1829 C 0.15948 0.3461 0.35672 0.0
H1830 H 0.20165 0.3853 0.4162 0.0
C1831 C 0.10167 0.39235 0.42777 0.0
C1832 C 0.11668 0.41493 0.44352 0.0
C1833 C 0.11545 0.37979 0.4123 0.0
C1834 C 0.18911 0.37468 0.39968 0.0
H1835 H 0.19778 0.30831 0.28379 0.0
H1836 H 0.17573 0.33153 0.30978 0.0
H1837 H 0.22417 0.36283 0.38998 0.0
H1838 H 0.15992 0.44094 0.45409 0.0
H1839 H 0.18369 0.41937 0.42773 0.0
H1840 H 0.12448 0.35798 0.36628 0.0
C1841 C 0.19319 0.32548 0.31893 0.0
C1842 C 0.20229 0.3612 0.38435 0.0
C1843 C 0.20625 0.31197 0.30355 0.0
C1844 C 0.1468 0.42393 0.44263 0.0
C1845 C 0.1607 0.41111 0.42726 0.0
C1846 C 0.14623 0.35931 0.37217 0.0
C1847 C 0.2025 0.33151 0.34519 0.0
C1848 C 0.18804 0.34636 0.36218 0.0
C1849 C 0.14555 0.38851 0.41139 0.0
C1850 C 0.16045 0.37419 0.39432 0.0
H1851 H 0.25636 0.30298 0.34841 0.0
H1852 H 0.23439 0.32618 0.37454 0.0
H1853 H 0.14675 0.3352 0.34041 0.0
H1854 H 0.07867 0.38402 0.42733 0.0
H1855 H 0.10204 0.36257 0.40127 0.0
C1856 C 0.40145 0.2074 0.66428 0.0
C1857 C 0.37522 0.19526 0.67512 0.0
C1858 C 0.413 0.19161 0.65129 0.0
C1859 C 0.39351 0.12711 0.61709 0.0
H1860 H 0.47437 0.13867 0.62778 0.0
C1861 C 0.44575 0.05893 0.57169 0.0
C1862 C 0.47317 0.07201 0.56337 0.0
C1863 C 0.43313 0.07321 0.58549 0.0
C1864 C 0.45181 0.13538 0.62425 0.0
H1865 H 0.34094 0.15657 0.68106 0.0
H1866 H 0.36093 0.12919 0.6581 0.0
H1867 H 0.45395 0.1649 0.65154 0.0
H1868 H 0.50837 0.11075 0.56249 0.0
H1869 H 0.48625 0.13561 0.58582 0.0
H1870 H 0.39142 0.09787 0.5895 0.0
C1871 C 0.37241 0.15105 0.65948 0.0
C1872 C 0.44009 0.15042 0.63797 0.0
C1873 C 0.36093 0.1668 0.67263 0.0
C1874 C 0.48735 0.09985 0.56876 0.0
C1875 C 0.4747 0.11412 0.58236 0.0
C1876 C 0.40528 0.11216 0.60321 0.0
C1877 C 0.39859 0.16326 0.64863 0.0
C1878 C 0.41083 0.14661 0.63447 0.0
C1879 C 0.44755 0.10097 0.59121 0.0
C1880 C 0.43465 0.11623 0.60647 0.0
H1881 H 0.41286 0.22929 0.6653 0.0
H1882 H 0.433 0.20178 0.64285 0.0
H1883 H 0.37094 0.12387 0.61373 0.0
H1884 H 0.43424 0.03749 0.568 0.0
H1885 H 0.41231 0.06228 0.59216 0.0
C1886 C 0.82112 0.32871 0.70565 0.0
C1887 C 0.82077 0.30209 0.71427 0.0
C1888 C 0.84054 0.34483 0.68815 0.0
C1889 C 0.89052 0.3407 0.64044 0.0
H1890 H 0.92042 0.41985 0.64607 0.0
C1891 C 0.97624 0.41355 0.57342 0.0
C1892 C 0.97176 0.43819 0.5641 0.0
C1893 C 0.96008 0.39672 0.593 0.0
C1894 C 0.9122 0.3978 0.64394 0.0
H1895 H 0.84092 0.27175 0.71041 0.0
H1896 H 0.87472 0.29969 0.68053 0.0
H1897 H 0.8876 0.39146 0.67641 0.0
H1898 H 0.94726 0.46455 0.56893 0.0
H1899 H 0.91993 0.43599 0.60253 0.0
H1900 H 0.91525 0.34724 0.60783 0.0
C1901 C 0.85981 0.3082 0.68702 0.0
C1902 C 0.89311 0.38137 0.66146 0.0
C1903 C 0.84041 0.29212 0.70451 0.0
C1904 C 0.95152 0.44585 0.57557 0.0
C1905 C 0.93578 0.42937 0.5951 0.0
C1906 C 0.90971 0.35719 0.62288 0.0
C1907 C 0.8604 0.33496 0.67853 0.0
C1908 C 0.88158 0.35249 0.65995 0.0
C1909 C 0.93933 0.40426 0.60403 0.0
C1910 C 0.92066 0.38613 0.62408 0.0
H1911 H 0.80639 0.33725 0.71249 0.0
H1912 H 0.83969 0.36502 0.68195 0.0
H1913 H 0.88213 0.31868 0.6382 0.0
H1914 H 0.99128 0.40672 0.56489 0.0
H1915 H 0.96373 0.37769 0.59936 0.0
C1916 C 0.22149 0.70969 0.6841 0.0
C1917 C 0.23243 0.70032 0.7076 0.0
C1918 C 0.20795 0.69158 0.66412 0.0
C1919 C 0.17137 0.61642 0.65043 0.0
H1920 H 0.18322 0.64198 0.57969 0.0
C1921 C 0.11605 0.54296 0.56511 0.0
C1922 C 0.10738 0.55489 0.54198 0.0
C1923 C 0.13375 0.55959 0.58487 0.0
C1924 C 0.17908 0.63431 0.59921 0.0
H1925 H 0.23706 0.66371 0.72791 0.0
H1926 H 0.21338 0.63234 0.69347 0.0
H1927 H 0.20729 0.67254 0.61419 0.0
H1928 H 0.11202 0.59415 0.52169 0.0
H1929 H 0.14202 0.62251 0.55525 0.0
H1930 H 0.14262 0.5784 0.6355 0.0
C1931 C 0.21525 0.65382 0.69041 0.0
C1932 C 0.19317 0.6521 0.61924 0.0
C1933 C 0.22912 0.67201 0.71027 0.0
C1934 C 0.11832 0.5839 0.53893 0.0
C1935 C 0.1358 0.6004 0.55851 0.0
C1936 C 0.15699 0.59868 0.63035 0.0
C1937 C 0.2044 0.66319 0.66685 0.0
C1938 C 0.18954 0.64366 0.64532 0.0
C1939 C 0.14346 0.5888 0.58227 0.0
C1940 C 0.16029 0.60724 0.60417 0.0
H1941 H 0.22339 0.73118 0.68105 0.0
H1942 H 0.19978 0.69986 0.6466 0.0
H1943 H 0.16759 0.60892 0.67008 0.0
H1944 H 0.10782 0.52084 0.56863 0.0
H1945 H 0.13929 0.54939 0.60243 0.0
loop_
_geom_bond_atom_site_label_1
_geom_bond_atom_site_label_2
_geom_bond_distance
_geom_bond_site_symmetry_2
_ccdc_geom_bond_type
Tb0 C9 2.764 . S
Tb0 O10 2.325 . S
Tb0 O13 2.303 . S
Tb0 O17 2.322 . S
Tb0 O18 2.349 . S
Tb0 O21 2.415 . S
Tb0 O22 2.399 . S
Tb1 O11 2.322 . S
Tb1 O12 2.349 . S
Tb1 O14 2.415 . S
Tb1 O15 2.399 . S
Tb1 O16 2.325 . S
Tb1 O19 2.303 . S
Tb1 C30 2.764 . S
C2 O18 1.261 . S
C2 O19 1.257 . S
C3 C6 1.358 . S
C3 C7 1.332 . S
C3 C9 1.504 . S
C4 C5 1.373 . S
C4 C8 1.308 . S
C5 C4 1.373 . S
C5 C6 1.429 . S
C5 H32 0.932 . S
C6 C3 1.358 . S
C6 C5 1.429 . S
C6 H33 0.930 . S
C7 C3 1.332 . S
C7 C8 1.394 . S
C7 H34 0.932 . S
C8 C4 1.308 . S
C8 C7 1.394 . S
C8 H35 0.929 . S
C9 Tb0 2.764 . S
C9 C3 1.504 . S
C9 O21 1.239 . S
C9 O22 1.263 . S
O10 Tb0 2.325 . S
O10 C20 1.236 . S
O11 Tb1 2.322 . S
O11 C20 1.257 . S
O12 Tb1 2.349 . S
O12 C23 1.261 . S
O13 Tb0 2.303 . S
O13 C23 1.257 . S
O14 Tb1 2.415 . S
O14 C30 1.239 . S
O15 Tb1 2.399 . S
O15 C30 1.263 . S
O16 Tb1 2.325 . S
O16 C31 1.236 . S
O17 Tb0 2.322 . S
O17 C31 1.257 . S
O18 Tb0 2.349 . S
O18 C2 1.261 . S
O19 Tb1 2.303 . S
O19 C2 1.257 . S
C20 O10 1.236 . S
C20 O11 1.257 . S
O21 Tb0 2.415 . S
O21 C9 1.239 . S
O22 Tb0 2.399 . S
O22 C9 1.263 . S
C23 O12 1.261 . S
C23 O13 1.257 . S
C24 C27 1.358 . S
C24 C28 1.332 . S
C24 C30 1.504 . S
C25 C26 1.373 . S
C25 C29 1.308 . S
C26 C25 1.373 . S
C26 C27 1.429 . S
C26 H36 0.932 . S
C27 C24 1.358 . S
C27 C26 1.429 . S
C27 H37 0.930 . S
C28 C24 1.332 . S
C28 C29 1.394 . S
C28 H38 0.932 . S
C29 C25 1.308 . S
C29 C28 1.394 . S
C29 H39 0.929 . S
C30 Tb1 2.764 . S
C30 O14 1.239 . S
C30 O15 1.263 . S
C30 C24 1.504 . S
C31 O16 1.236 . S
C31 O17 1.257 . S
H32 C5 0.932 . S
H33 C6 0.930 . S
H34 C7 0.932 . S
H35 C8 0.929 . S
H36 C26 0.932 . S
H37 C27 0.930 . S
H38 C28 0.932 . S
H39 C29 0.929 . S
Tb40 C49 2.764 . S
Tb40 O50 2.325 . S
Tb40 O53 2.303 . S
Tb40 O57 2.322 . S
Tb40 O58 2.349 . S
Tb40 O61 2.415 . S
Tb40 O62 2.399 . S
Tb41 O51 2.322 . S
Tb41 O52 2.349 . S
Tb41 O54 2.415 . S
Tb41 O55 2.399 . S
Tb41 O56 2.325 . S
Tb41 O59 2.303 . S
Tb41 C70 2.764 . S
C42 O58 1.261 . S
C42 O59 1.257 . S
C43 C46 1.358 . S
C43 C47 1.332 . S
C43 C49 1.504 . S
C44 C45 1.373 . S
C44 C48 1.308 . S
C45 C44 1.373 . S
C45 C46 1.429 . S
C45 H72 0.932 . S
C46 C43 1.358 . S
C46 C45 1.429 . S
C46 H73 0.930 . S
C47 C43 1.332 . S
C47 C48 1.394 . S
C47 H74 0.932 . S
C48 C44 1.308 . S
C48 C47 1.394 . S
C48 H75 0.929 . S
C49 Tb40 2.764 . S
C49 C43 1.504 . S
C49 O61 1.239 . S
C49 O62 1.263 . S
O50 Tb40 2.325 . S
O50 C60 1.236 . S
O51 Tb41 2.322 . S
O51 C60 1.257 . S
O52 Tb41 2.349 . S
O52 C63 1.261 . S
O53 Tb40 2.303 . S
O53 C63 1.257 . S
O54 Tb41 2.415 . S
O54 C70 1.239 . S
O55 Tb41 2.399 . S
O55 C70 1.263 . S
O56 Tb41 2.325 . S
O56 C71 1.236 . S
O57 Tb40 2.322 . S
O57 C71 1.257 . S
O58 Tb40 2.349 . S
O58 C42 1.261 . S
O59 Tb41 2.303 . S
O59 C42 1.257 . S
C60 O50 1.236 . S
C60 O51 1.257 . S
O61 Tb40 2.415 . S
O61 C49 1.239 . S
O62 Tb40 2.399 . S
O62 C49 1.263 . S
C63 O52 1.261 . S
C63 O53 1.257 . S
C64 C67 1.358 . S
C64 C68 1.332 . S
C64 C70 1.504 . S
C65 C66 1.373 . S
C65 C69 1.308 . S
C66 C65 1.373 . S
C66 C67 1.429 . S
C66 H76 0.932 . S
C67 C64 1.358 . S
C67 C66 1.429 . S
C67 H77 0.930 . S
C68 C64 1.332 . S
C68 C69 1.394 . S
C68 H78 0.932 . S
C69 C65 1.308 . S
C69 C68 1.394 . S
C69 H79 0.929 . S
C70 Tb41 2.764 . S
C70 O54 1.239 . S
C70 O55 1.263 . S
C70 C64 1.504 . S
C71 O56 1.236 . S
C71 O57 1.257 . S
H72 C45 0.932 . S
H73 C46 0.930 . S
H74 C47 0.932 . S
H75 C48 0.929 . S
H76 C66 0.932 . S
H77 C67 0.930 . S
H78 C68 0.932 . S
H79 C69 0.929 . S
Tb80 C89 2.764 . S
Tb80 O90 2.325 . S
Tb80 O93 2.303 . S
Tb80 O97 2.322 . S
Tb80 O98 2.349 . S
Tb80 O101 2.415 . S
Tb80 O102 2.399 . S
Tb81 O91 2.322 . S
Tb81 O92 2.349 . S
Tb81 O94 2.415 . S
Tb81 O95 2.399 . S
Tb81 O96 2.325 . S
Tb81 O99 2.303 . S
Tb81 C110 2.764 . S
C82 O98 1.261 . S
C82 O99 1.257 . S
C83 C86 1.358 . S
C83 C87 1.332 . S
C83 C89 1.504 . S
C84 C85 1.373 . S
C84 C88 1.308 . S
C85 C84 1.373 . S
C85 C86 1.429 . S
C85 H112 0.932 . S
C86 C83 1.358 . S
C86 C85 1.429 . S
C86 H113 0.930 . S
C87 C83 1.332 . S
C87 C88 1.394 . S
C87 H114 0.932 . S
C88 C84 1.308 . S
C88 C87 1.394 . S
C88 H115 0.929 . S
C89 Tb80 2.764 . S
C89 C83 1.504 . S
C89 O101 1.239 . S
C89 O102 1.263 . S
O90 Tb80 2.325 . S
O90 C100 1.236 . S
O91 Tb81 2.322 . S
O91 C100 1.257 . S
O92 Tb81 2.349 . S
O92 C103 1.261 . S
O93 Tb80 2.303 . S
O93 C103 1.257 . S
O94 Tb81 2.415 . S
O94 C110 1.239 . S
O95 Tb81 2.399 . S
O95 C110 1.263 . S
O96 Tb81 2.325 . S
O96 C111 1.236 . S
O97 Tb80 2.322 . S
O97 C111 1.257 . S
O98 Tb80 2.349 . S
O98 C82 1.261 . S
O99 Tb81 2.303 . S
O99 C82 1.257 . S
C100 O90 1.236 . S
C100 O91 1.257 . S
O101 Tb80 2.415 . S
O101 C89 1.239 . S
O102 Tb80 2.399 . S
O102 C89 1.263 . S
C103 O92 1.261 . S
C103 O93 1.257 . S
C104 C107 1.358 . S
C104 C108 1.332 . S
C104 C110 1.504 . S
C105 C106 1.373 . S
C105 C109 1.308 . S
C106 C105 1.373 . S
C106 C107 1.429 . S
C106 H116 0.932 . S
C107 C104 1.358 . S
C107 C106 1.429 . S
C107 H117 0.930 . S
C108 C104 1.332 . S
C108 C109 1.394 . S
C108 H118 0.932 . S
C109 C105 1.308 . S
C109 C108 1.394 . S
C109 H119 0.929 . S
C110 Tb81 2.764 . S
C110 O94 1.239 . S
C110 O95 1.263 . S
C110 C104 1.504 . S
C111 O96 1.236 . S
C111 O97 1.257 . S
H112 C85 0.932 . S
H113 C86 0.930 . S
H114 C87 0.932 . S
H115 C88 0.929 . S
H116 C106 0.932 . S
H117 C107 0.930 . S
H118 C108 0.932 . S
H119 C109 0.929 . S
Tb120 C129 2.764 . S
Tb120 O130 2.325 . S
Tb120 O133 2.303 . S
Tb120 O137 2.322 . S
Tb120 O138 2.349 . S
Tb120 O141 2.415 . S
Tb120 O142 2.399 . S
Tb121 O131 2.322 . S
Tb121 O132 2.349 . S
Tb121 O134 2.415 . S
Tb121 O135 2.399 . S
Tb121 O136 2.325 . S
Tb121 O139 2.303 . S
Tb121 C150 2.764 . S
C122 O138 1.261 . S
C122 O139 1.257 . S
C123 C126 1.358 . S
C123 C127 1.332 . S
C123 C129 1.504 . S
C124 C125 1.373 . S
C124 C128 1.308 . S
C125 C124 1.373 . S
C125 C126 1.429 . S
C125 H152 0.932 . S
C126 C123 1.358 . S
C126 C125 1.429 . S
C126 H153 0.930 . S
C127 C123 1.332 . S
C127 C128 1.394 . S
C127 H154 0.932 . S
C128 C124 1.308 . S
C128 C127 1.394 . S
C128 H155 0.929 . S
C129 Tb120 2.764 . S
C129 C123 1.504 . S
C129 O141 1.239 . S
C129 O142 1.263 . S
O130 Tb120 2.325 . S
O130 C140 1.236 . S
O131 Tb121 2.322 . S
O131 C140 1.257 . S
O132 Tb121 2.349 . S
O132 C143 1.261 . S
O133 Tb120 2.303 . S
O133 C143 1.257 . S
O134 Tb121 2.415 . S
O134 C150 1.239 . S
O135 Tb121 2.399 . S
O135 C150 1.263 . S
O136 Tb121 2.325 . S
O136 C151 1.236 . S
O137 Tb120 2.322 . S
O137 C151 1.257 . S
O138 Tb120 2.349 . S
O138 C122 1.261 . S
O139 Tb121 2.303 . S
O139 C122 1.257 . S
C140 O130 1.236 . S
C140 O131 1.257 . S
O141 Tb120 2.415 . S
O141 C129 1.239 . S
O142 Tb120 2.399 . S
O142 C129 1.263 . S
C143 O132 1.261 . S
C143 O133 1.257 . S
C144 C147 1.358 . S
C144 C148 1.332 . S
C144 C150 1.504 . S
C145 C146 1.373 . S
C145 C149 1.308 . S
C146 C145 1.373 . S
C146 C147 1.429 . S
C146 H156 0.932 . S
C147 C144 1.358 . S
C147 C146 1.429 . S
C147 H157 0.930 . S
C148 C144 1.332 . S
C148 C149 1.394 . S
C148 H158 0.932 . S
C149 C145 1.308 . S
C149 C148 1.394 . S
C149 H159 0.929 . S
C150 Tb121 2.764 . S
C150 O134 1.239 . S
C150 O135 1.263 . S
C150 C144 1.504 . S
C151 O136 1.236 . S
C151 O137 1.257 . S
H152 C125 0.932 . S
H153 C126 0.930 . S
H154 C127 0.932 . S
H155 C128 0.929 . S
H156 C146 0.932 . S
H157 C147 0.930 . S
H158 C148 0.932 . S
H159 C149 0.929 . S
Tb160 C169 2.764 . S
Tb160 O170 2.325 . S
Tb160 O173 2.303 . S
Tb160 O177 2.322 . S
Tb160 O178 2.349 . S
Tb160 O181 2.415 . S
Tb160 O182 2.399 . S
Tb161 O171 2.322 . S
Tb161 O172 2.349 . S
Tb161 O174 2.415 . S
Tb161 O175 2.399 . S
Tb161 O176 2.325 . S
Tb161 O179 2.303 . S
Tb161 C190 2.764 . S
C162 O178 1.261 . S
C162 O179 1.257 . S
C163 C166 1.358 . S
C163 C167 1.332 . S
C163 C169 1.504 . S
C164 C165 1.373 . S
C164 C168 1.308 . S
C165 C164 1.373 . S
C165 C166 1.429 . S
C165 H192 0.932 . S
C166 C163 1.358 . S
C166 C165 1.429 . S
C166 H193 0.930 . S
C167 C163 1.332 . S
C167 C168 1.394 . S
C167 H194 0.932 . S
C168 C164 1.308 . S
C168 C167 1.394 . S
C168 H195 0.929 . S
C169 Tb160 2.764 . S
C169 C163 1.504 . S
C169 O181 1.239 . S
C169 O182 1.263 . S
O170 Tb160 2.325 . S
O170 C180 1.236 . S
O171 Tb161 2.322 . S
O171 C180 1.257 . S
O172 Tb161 2.349 . S
O172 C183 1.261 . S
O173 Tb160 2.303 . S
O173 C183 1.257 . S
O174 Tb161 2.415 . S
O174 C190 1.239 . S
O175 Tb161 2.399 . S
O175 C190 1.263 . S
O176 Tb161 2.325 . S
O176 C191 1.236 . S
O177 Tb160 2.322 . S
O177 C191 1.257 . S
O178 Tb160 2.349 . S
O178 C162 1.261 . S
O179 Tb161 2.303 . S
O179 C162 1.257 . S
C180 O170 1.236 . S
C180 O171 1.257 . S
O181 Tb160 2.415 . S
O181 C169 1.239 . S
O182 Tb160 2.399 . S
O182 C169 1.263 . S
C183 O172 1.261 . S
C183 O173 1.257 . S
C184 C187 1.358 . S
C184 C188 1.332 . S
C184 C190 1.504 . S
C185 C186 1.373 . S
C185 C189 1.308 . S
C186 C185 1.373 . S
C186 C187 1.429 . S
C186 H196 0.932 . S
C187 C184 1.358 . S
C187 C186 1.429 . S
C187 H197 0.930 . S
C188 C184 1.332 . S
C188 C189 1.394 . S
C188 H198 0.932 . S
C189 C185 1.308 . S
C189 C188 1.394 . S
C189 H199 0.929 . S
C190 Tb161 2.764 . S
C190 O174 1.239 . S
C190 O175 1.263 . S
C190 C184 1.504 . S
C191 O176 1.236 . S
C191 O177 1.257 . S
H192 C165 0.932 . S
H193 C166 0.930 . S
H194 C167 0.932 . S
H195 C168 0.929 . S
H196 C186 0.932 . S
H197 C187 0.930 . S
H198 C188 0.932 . S
H199 C189 0.929 . S
Tb200 C209 2.764 . S
Tb200 O210 2.325 . S
Tb200 O213 2.303 . S
Tb200 O217 2.322 . S
Tb200 O218 2.349 . S
Tb200 O221 2.415 . S
Tb200 O222 2.399 . S
Tb201 O211 2.322 . S
Tb201 O212 2.349 . S
Tb201 O214 2.415 . S
Tb201 O215 2.399 . S
Tb201 O216 2.325 . S
Tb201 O219 2.303 . S
Tb201 C230 2.764 . S
C202 O218 1.261 . S
C202 O219 1.257 . S
C203 C206 1.358 . S
C203 C207 1.332 . S
C203 C209 1.504 . S
C204 C205 1.373 . S
C204 C208 1.308 . S
C205 C204 1.373 . S
C205 C206 1.429 . S
C205 H232 0.932 . S
C206 C203 1.358 . S
C206 C205 1.429 . S
C206 H233 0.930 . S
C207 C203 1.332 . S
C207 C208 1.394 . S
C207 H234 0.932 . S
C208 C204 1.308 . S
C208 C207 1.394 . S
C208 H235 0.929 . S
C209 Tb200 2.764 . S
C209 C203 1.504 . S
C209 O221 1.239 . S
C209 O222 1.263 . S
O210 Tb200 2.325 . S
O210 C220 1.236 . S
O211 Tb201 2.322 . S
O211 C220 1.257 . S
O212 Tb201 2.349 . S
O212 C223 1.261 . S
O213 Tb200 2.303 . S
O213 C223 1.257 . S
O214 Tb201 2.415 . S
O214 C230 1.239 . S
O215 Tb201 2.399 . S
O215 C230 1.263 . S
O216 Tb201 2.325 . S
O216 C231 1.236 . S
O217 Tb200 2.322 . S
O217 C231 1.257 . S
O218 Tb200 2.349 . S
O218 C202 1.261 . S
O219 Tb201 2.303 . S
O219 C202 1.257 . S
C220 O210 1.236 . S
C220 O211 1.257 . S
O221 Tb200 2.415 . S
O221 C209 1.239 . S
O222 Tb200 2.399 . S
O222 C209 1.263 . S
C223 O212 1.261 . S
C223 O213 1.257 . S
C224 C227 1.358 . S
C224 C228 1.332 . S
C224 C230 1.504 . S
C225 C226 1.373 . S
C225 C229 1.308 . S
C226 C225 1.373 . S
C226 C227 1.429 . S
C226 H236 0.932 . S
C227 C224 1.358 . S
C227 C226 1.429 . S
C227 H237 0.930 . S
C228 C224 1.332 . S
C228 C229 1.394 . S
C228 H238 0.932 . S
C229 C225 1.308 . S
C229 C228 1.394 . S
C229 H239 0.929 . S
C230 Tb201 2.764 . S
C230 O214 1.239 . S
C230 O215 1.263 . S
C230 C224 1.504 . S
C231 O216 1.236 . S
C231 O217 1.257 . S
H232 C205 0.932 . S
H233 C206 0.930 . S
H234 C207 0.932 . S
H235 C208 0.929 . S
H236 C226 0.932 . S
H237 C227 0.930 . S
H238 C228 0.932 . S
H239 C229 0.929 . S
Tb240 C249 2.764 . S
Tb240 O250 2.325 . S
Tb240 O253 2.303 . S
Tb240 O257 2.322 . S
Tb240 O258 2.349 . S
Tb240 O261 2.415 . S
Tb240 O262 2.399 . S
Tb241 O251 2.322 . S
Tb241 O252 2.349 . S
Tb241 O254 2.415 . S
Tb241 O255 2.399 . S
Tb241 O256 2.325 . S
Tb241 O259 2.303 . S
Tb241 C270 2.764 . S
C242 O258 1.261 . S
C242 O259 1.257 . S
C243 C246 1.358 . S
C243 C247 1.332 . S
C243 C249 1.504 . S
C244 C245 1.373 . S
C244 C248 1.308 . S
C245 C244 1.373 . S
C245 C246 1.429 . S
C245 H272 0.932 . S
C246 C243 1.358 . S
C246 C245 1.429 . S
C246 H273 0.930 . S
C247 C243 1.332 . S
C247 C248 1.394 . S
C247 H274 0.932 . S
C248 C244 1.308 . S
C248 C247 1.394 . S
C248 H275 0.929 . S
C249 Tb240 2.764 . S
C249 C243 1.504 . S
C249 O261 1.239 . S
C249 O262 1.263 . S
O250 Tb240 2.325 . S
O250 C260 1.236 . S
O251 Tb241 2.322 . S
O251 C260 1.257 . S
O252 Tb241 2.349 . S
O252 C263 1.261 . S
O253 Tb240 2.303 . S
O253 C263 1.257 . S
O254 Tb241 2.415 . S
O254 C270 1.239 . S
O255 Tb241 2.399 . S
O255 C270 1.263 . S
O256 Tb241 2.325 . S
O256 C271 1.236 . S
O257 Tb240 2.322 . S
O257 C271 1.257 . S
O258 Tb240 2.349 . S
O258 C242 1.261 . S
O259 Tb241 2.303 . S
O259 C242 1.257 . S
C260 O250 1.236 . S
C260 O251 1.257 . S
O261 Tb240 2.415 . S
O261 C249 1.239 . S
O262 Tb240 2.399 . S
O262 C249 1.263 . S
C263 O252 1.261 . S
C263 O253 1.257 . S
C264 C267 1.358 . S
C264 C268 1.332 . S
C264 C270 1.504 . S
C265 C266 1.373 . S
C265 C269 1.308 . S
C266 C265 1.373 . S
C266 C267 1.429 . S
C266 H276 0.932 . S
C267 C264 1.358 . S
C267 C266 1.429 . S
C267 H277 0.930 . S
C268 C264 1.332 . S
C268 C269 1.394 . S
C268 H278 0.932 . S
C269 C265 1.308 . S
C269 C268 1.394 . S
C269 H279 0.929 . S
C270 Tb241 2.764 . S
C270 O254 1.239 . S
C270 O255 1.263 . S
C270 C264 1.504 . S
C271 O256 1.236 . S
C271 O257 1.257 . S
H272 C245 0.932 . S
H273 C246 0.930 . S
H274 C247 0.932 . S
H275 C248 0.929 . S
H276 C266 0.932 . S
H277 C267 0.930 . S
H278 C268 0.932 . S
H279 C269 0.929 . S
Tb280 C289 2.764 . S
Tb280 O290 2.325 . S
Tb280 O293 2.303 . S
Tb280 O297 2.322 . S
Tb280 O298 2.349 . S
Tb280 O301 2.415 . S
Tb280 O302 2.399 . S
Tb281 O291 2.322 . S
Tb281 O292 2.349 . S
Tb281 O294 2.415 . S
Tb281 O295 2.399 . S
Tb281 O296 2.325 . S
Tb281 O299 2.303 . S
Tb281 C310 2.764 . S
C282 O298 1.261 . S
C282 O299 1.257 . S
C283 C286 1.358 . S
C283 C287 1.332 . S
C283 C289 1.504 . S
C284 C285 1.373 . S
C284 C288 1.308 . S
C285 C284 1.373 . S
C285 C286 1.429 . S
C285 H312 0.932 . S
C286 C283 1.358 . S
C286 C285 1.429 . S
C286 H313 0.930 . S
C287 C283 1.332 . S
C287 C288 1.394 . S
C287 H314 0.932 . S
C288 C284 1.308 . S
C288 C287 1.394 . S
C288 H315 0.929 . S
C289 Tb280 2.764 . S
C289 C283 1.504 . S
C289 O301 1.239 . S
C289 O302 1.263 . S
O290 Tb280 2.325 . S
O290 C300 1.236 . S
O291 Tb281 2.322 . S
O291 C300 1.257 . S
O292 Tb281 2.349 . S
O292 C303 1.261 . S
O293 Tb280 2.303 . S
O293 C303 1.257 . S
O294 Tb281 2.415 . S
O294 C310 1.239 . S
O295 Tb281 2.399 . S
O295 C310 1.263 . S
O296 Tb281 2.325 . S
O296 C311 1.236 . S
O297 Tb280 2.322 . S
O297 C311 1.257 . S
O298 Tb280 2.349 . S
O298 C282 1.261 . S
O299 Tb281 2.303 . S
O299 C282 1.257 . S
C300 O290 1.236 . S
C300 O291 1.257 . S
O301 Tb280 2.415 . S
O301 C289 1.239 . S
O302 Tb280 2.399 . S
O302 C289 1.263 . S
C303 O292 1.261 . S
C303 O293 1.257 . S
C304 C307 1.358 . S
C304 C308 1.332 . S
C304 C310 1.504 . S
C305 C306 1.373 . S
C305 C309 1.308 . S
C306 C305 1.373 . S
C306 C307 1.429 . S
C306 H316 0.932 . S
C307 C304 1.358 . S
C307 C306 1.429 . S
C307 H317 0.930 . S
C308 C304 1.332 . S
C308 C309 1.394 . S
C308 H318 0.932 . S
C309 C305 1.308 . S
C309 C308 1.394 . S
C309 H319 0.929 . S
C310 Tb281 2.764 . S
C310 O294 1.239 . S
C310 O295 1.263 . S
C310 C304 1.504 . S
C311 O296 1.236 . S
C311 O297 1.257 . S
H312 C285 0.932 . S
H313 C286 0.930 . S
H314 C287 0.932 . S
H315 C288 0.929 . S
H316 C306 0.932 . S
H317 C307 0.930 . S
H318 C308 0.932 . S
H319 C309 0.929 . S
C320 O332 1.241 . S
C320 O333 1.280 . S
C321 O334 1.277 . S
C321 O335 1.245 . S
C322 O346 1.247 . S
C322 O348 1.289 . S
Mg323 O324 1.926 1_455 S
Mg323 O333 1.984 1_455 S
Mg323 O335 1.988 1_455 S
Mg323 O336 2.061 . S
O324 Mg323 1.926 1_655 S
O324 Mg325 1.986 . S
O324 Mg326 1.917 1_655 S
Mg325 O324 1.986 . S
Mg325 O332 2.042 . S
Mg325 O334 2.041 . S
Mg325 O340 2.038 1_545 S
Mg325 O348 2.238 1_545 S
Mg326 O324 1.917 1_455 S
Mg326 O327 1.917 1_545 S
Mg326 O337 2.106 . S
Mg326 O339 2.071 1_445 S
Mg326 O348 2.106 1_445 S
Mg326 O349 2.079 . S
O327 Mg326 1.917 1_565 S
O327 Mg328 1.926 . S
O327 Mg329 1.986 1_565 S
Mg328 O327 1.926 . S
Mg328 O342 1.984 . S
Mg328 O345 1.988 . S
Mg328 O346 2.061 1_455 S
Mg329 O327 1.986 1_545 S
Mg329 O337 2.238 . S
Mg329 O341 2.022 1_545 S
Mg329 O343 2.041 1_545 S
Mg329 O350 2.038 . S
C330 O336 1.247 . S
C330 O337 1.289 . S
C331 O349 1.245 . S
C331 O350 1.274 . S
O332 C320 1.241 . S
O332 Mg325 2.042 . S
O333 C320 1.280 . S
O333 Mg323 1.984 1_655 S
O334 C321 1.277 . S
O334 Mg325 2.041 . S
O335 C321 1.245 . S
O335 Mg323 1.988 1_655 S
O336 Mg323 2.061 . S
O336 C330 1.247 . S
O337 Mg326 2.106 . S
O337 Mg329 2.238 . S
O337 C330 1.289 . S
C338 O339 1.281 . S
C338 O340 1.274 . S
O339 Mg326 2.071 1_665 S
O339 C338 1.281 . S
O340 Mg325 2.038 1_565 S
O340 C338 1.274 . S
O341 Mg329 2.022 1_565 S
O341 C344 1.260 . S
O342 Mg328 1.984 . S
O342 C344 1.280 . S
O343 Mg329 2.041 1_565 S
O343 C347 1.277 . S
C344 O341 1.260 . S
C344 O342 1.280 . S
O345 Mg328 1.988 . S
O345 C347 1.245 . S
O346 C322 1.247 . S
O346 Mg328 2.061 1_655 S
C347 O343 1.277 . S
C347 O345 1.245 . S
O348 C322 1.289 . S
O348 Mg325 2.238 1_565 S
O348 Mg326 2.106 1_665 S
O349 Mg326 2.079 . S
O349 C331 1.245 . S
O350 Mg329 2.038 . S
O350 C331 1.274 . S
C351 O363 1.241 . S
C351 O364 1.280 . S
C352 O365 1.277 1_556 S
C352 O366 1.245 1_556 S
C353 O377 1.241 1_556 S
C353 O379 1.271 1_566 S
Mg354 O355 1.926 . S
Mg354 O364 1.984 . S
Mg354 O366 1.988 . S
Mg354 O367 2.061 . S
O355 Mg354 1.926 . S
O355 Mg356 1.986 . S
O355 Mg357 1.917 . S
Mg356 O355 1.986 . S
Mg356 O363 2.042 . S
Mg356 O365 2.041 . S
Mg356 O371 2.038 1_545 S
Mg356 O379 2.238 . S
Mg357 O355 1.917 . S
Mg357 O358 1.917 . S
Mg357 O368 2.106 . S
Mg357 O370 2.097 . S
Mg357 O379 2.106 . S
Mg357 O380 2.079 . S
O358 Mg357 1.917 . S
O358 Mg359 1.926 1_545 S
O358 Mg360 1.986 . S
Mg359 O358 1.926 1_565 S
Mg359 O373 1.984 . S
Mg359 O376 1.988 . S
Mg359 O377 2.061 . S
Mg360 O358 1.986 . S
Mg360 O368 2.238 . S
Mg360 O372 2.042 . S
Mg360 O374 2.041 . S
Mg360 O381 2.038 . S
C361 O367 1.247 . S
C361 O368 1.289 . S
C362 O380 1.245 1_556 S
C362 O381 1.274 1_556 S
O363 C351 1.241 . S
O363 Mg356 2.042 . S
O364 C351 1.280 . S
O364 Mg354 1.984 . S
O365 C352 1.277 1_554 S
O365 Mg356 2.041 . S
O366 C352 1.245 1_554 S
O366 Mg354 1.988 . S
O367 Mg354 2.061 . S
O367 C361 1.247 . S
O368 Mg357 2.106 . S
O368 Mg360 2.238 . S
O368 C361 1.289 . S
C369 O370 1.250 1_565 S
C369 O371 1.274 . S
O370 Mg357 2.097 . S
O370 C369 1.250 1_545 S
O371 Mg356 2.038 1_565 S
O371 C369 1.274 . S
O372 Mg360 2.042 . S
O372 C375 1.236 1_544 S
O373 Mg359 1.984 . S
O373 C375 1.278 1_554 S
O374 Mg360 2.041 . S
O374 C378 1.277 1_545 S
C375 O372 1.236 1_566 S
C375 O373 1.278 1_556 S
O376 Mg359 1.988 . S
O376 C378 1.245 . S
O377 C353 1.241 1_554 S
O377 Mg359 2.061 . S
C378 O374 1.277 1_565 S
C378 O376 1.245 . S
O379 C353 1.271 1_544 S
O379 Mg356 2.238 . S
O379 Mg357 2.106 . S
O380 Mg357 2.079 . S
O380 C362 1.245 1_554 S
O381 Mg360 2.038 . S
O381 C362 1.274 1_554 S
C382 O394 1.241 . S
C382 O395 1.280 . S
C383 O396 1.277 . S
C383 O397 1.245 . S
C384 O408 1.247 . S
C384 O410 1.289 . S
Mg385 O386 1.926 . S
Mg385 O395 1.984 . S
Mg385 O397 1.988 1_554 S
Mg385 O398 2.061 1_655 S
O386 Mg385 1.926 . S
O386 Mg387 1.979 1_554 S
O386 Mg388 1.917 1_655 S
Mg387 O386 1.979 1_556 S
Mg387 O394 2.012 1_556 S
Mg387 O396 2.075 . S
Mg387 O402 2.006 1_556 S
Mg387 O410 2.264 . S
Mg388 O386 1.917 1_455 S
Mg388 O389 1.917 1_554 S
Mg388 O399 2.106 . S
Mg388 O401 2.079 1_455 S
Mg388 O410 2.106 1_454 S
Mg388 O411 2.079 1_554 S
O389 Mg388 1.917 1_556 S
O389 Mg390 1.926 . S
O389 Mg391 1.986 1_556 S
Mg390 O389 1.926 . S
Mg390 O404 1.984 . S
Mg390 O407 1.988 1_556 S
Mg390 O408 2.061 1_455 S
Mg391 O389 1.986 1_554 S
Mg391 O399 2.238 . S
Mg391 O403 2.042 1_554 S
Mg391 O405 2.041 . S
Mg391 O412 2.038 1_554 S
C392 O398 1.247 . S
C392 O399 1.289 . S
C393 O411 1.245 . S
C393 O412 1.274 . S
O394 C382 1.241 . S
O394 Mg387 2.012 1_554 S
O395 C382 1.280 . S
O395 Mg385 1.984 . S
O396 C383 1.277 . S
O396 Mg387 2.075 . S
O397 C383 1.245 . S
O397 Mg385 1.988 1_556 S
O398 Mg385 2.061 1_455 S
O398 C392 1.247 . S
O399 Mg388 2.106 . S
O399 Mg391 2.238 . S
O399 C392 1.289 . S
C400 O401 1.245 . S
C400 O402 1.274 . S
O401 Mg388 2.079 1_655 S
O401 C400 1.245 . S
O402 Mg387 2.006 1_554 S
O402 C400 1.274 . S
O403 Mg391 2.042 1_556 S
O403 C406 1.241 . S
O404 Mg390 1.984 . S
O404 C406 1.280 . S
O405 Mg391 2.041 . S
O405 C409 1.277 . S
C406 O403 1.241 . S
C406 O404 1.280 . S
O407 Mg390 1.988 1_554 S
O407 C409 1.245 . S
O408 C384 1.247 . S
O408 Mg390 2.061 1_655 S
C409 O405 1.277 . S
C409 O407 1.245 . S
O410 C384 1.289 . S
O410 Mg387 2.264 . S
O410 Mg388 2.106 1_656 S
O411 Mg388 2.079 1_556 S
O411 C393 1.245 . S
O412 Mg391 2.038 1_556 S
O412 C393 1.274 . S
C413 O425 1.241 . S
C413 O426 1.280 . S
C414 O427 1.277 . S
C414 O428 1.245 . S
C415 O439 1.247 . S
C415 O441 1.289 . S
Mg416 O417 1.926 . S
Mg416 O426 1.984 . S
Mg416 O428 1.988 1_554 S
Mg416 O429 2.061 . S
O417 Mg416 1.926 . S
O417 Mg418 1.986 . S
O417 Mg419 1.917 . S
Mg418 O417 1.986 . S
Mg418 O425 2.042 . S
Mg418 O427 2.041 1_554 S
Mg418 O433 2.038 . S
Mg418 O441 2.238 1_554 S
Mg419 O417 1.917 . S
Mg419 O420 1.917 . S
Mg419 O430 2.106 . S
Mg419 O432 2.079 . S
Mg419 O441 2.106 1_554 S
Mg419 O442 2.079 1_554 S
O420 Mg419 1.917 . S
O420 Mg421 1.926 . S
O420 Mg422 1.986 . S
Mg421 O420 1.926 . S
Mg421 O435 1.984 1_554 S
Mg421 O438 1.988 . S
Mg421 O439 2.061 1_554 S
Mg422 O420 1.986 . S
Mg422 O430 2.238 . S
Mg422 O434 2.042 1_554 S
Mg422 O436 2.041 . S
Mg422 O443 2.038 1_554 S
C423 O429 1.247 . S
C423 O430 1.289 . S
C424 O442 1.245 . S
C424 O443 1.274 . S
O425 C413 1.241 . S
O425 Mg418 2.042 . S
O426 C413 1.280 . S
O426 Mg416 1.984 . S
O427 C414 1.277 . S
O427 Mg418 2.041 1_556 S
O428 C414 1.245 . S
O428 Mg416 1.988 1_556 S
O429 Mg416 2.061 . S
O429 C423 1.247 . S
O430 Mg419 2.106 . S
O430 Mg422 2.238 . S
O430 C423 1.289 . S
C431 O432 1.245 . S
C431 O433 1.274 . S
O432 Mg419 2.079 . S
O432 C431 1.245 . S
O433 Mg418 2.038 . S
O433 C431 1.274 . S
O434 Mg422 2.042 1_556 S
O434 C437 1.241 . S
O435 Mg421 1.984 1_556 S
O435 C437 1.280 . S
O436 Mg422 2.041 . S
O436 C440 1.277 . S
C437 O434 1.241 . S
C437 O435 1.280 . S
O438 Mg421 1.988 . S
O438 C440 1.245 . S
O439 C415 1.247 . S
O439 Mg421 2.061 1_556 S
C440 O436 1.277 . S
C440 O438 1.245 . S
O441 C415 1.289 . S
O441 Mg418 2.238 1_556 S
O441 Mg419 2.106 1_556 S
O442 Mg419 2.079 1_556 S
O442 C424 1.245 . S
O443 Mg422 2.038 1_556 S
O443 C424 1.274 . S
C444 O456 1.241 . S
C444 O457 1.280 . S
C445 O458 1.277 . S
C445 O459 1.245 1_655 S
C446 O470 1.247 . S
C446 O472 1.289 . S
Mg447 O448 1.926 . S
Mg447 O457 1.984 1_455 S
Mg447 O459 1.988 . S
Mg447 O460 2.061 . S
O448 Mg447 1.926 . S
O448 Mg449 1.986 1_455 S
O448 Mg450 1.917 . S
Mg449 O448 1.986 1_655 S
Mg449 O456 2.042 . S
Mg449 O458 2.041 . S
Mg449 O464 2.038 . S
Mg449 O472 2.238 . S
Mg450 O448 1.917 . S
Mg450 O451 1.917 . S
Mg450 O461 2.106 . S
Mg450 O463 2.079 . S
Mg450 O472 2.106 1_455 S
Mg450 O473 2.079 . S
O451 Mg450 1.917 . S
O451 Mg452 1.926 . S
O451 Mg453 1.986 . S
Mg452 O451 1.926 . S
Mg452 O466 1.984 . S
Mg452 O469 1.988 . S
Mg452 O470 2.061 1_455 S
Mg453 O451 1.986 . S
Mg453 O461 2.238 . S
Mg453 O465 2.042 . S
Mg453 O467 2.041 . S
Mg453 O474 2.038 . S
C454 O460 1.247 . S
C454 O461 1.289 . S
C455 O473 1.245 . S
C455 O474 1.274 . S
O456 C444 1.241 . S
O456 Mg449 2.042 . S
O457 C444 1.280 . S
O457 Mg447 1.984 1_655 S
O458 C445 1.277 . S
O458 Mg449 2.041 . S
O459 C445 1.245 1_455 S
O459 Mg447 1.988 . S
O460 Mg447 2.061 . S
O460 C454 1.247 . S
O461 Mg450 2.106 . S
O461 Mg453 2.238 . S
O461 C454 1.289 . S
C462 O463 1.245 1_655 S
C462 O464 1.274 . S
O463 Mg450 2.079 . S
O463 C462 1.245 1_455 S
O464 Mg449 2.038 . S
O464 C462 1.274 . S
O465 Mg453 2.042 . S
O465 C468 1.241 . S
O466 Mg452 1.984 . S
O466 C468 1.280 . S
O467 Mg453 2.041 . S
O467 C471 1.277 . S
C468 O465 1.241 . S
C468 O466 1.280 . S
O469 Mg452 1.988 . S
O469 C471 1.245 . S
O470 C446 1.247 . S
O470 Mg452 2.061 1_655 S
C471 O467 1.277 . S
C471 O469 1.245 . S
O472 C446 1.289 . S
O472 Mg449 2.238 . S
O472 Mg450 2.106 1_655 S
O473 Mg450 2.079 . S
O473 C455 1.245 . S
O474 Mg453 2.038 . S
O474 C455 1.274 . S
C475 O487 1.241 . S
C475 O488 1.280 . S
C476 O489 1.277 . S
C476 O490 1.245 . S
C477 O501 1.247 . S
C477 O503 1.289 . S
Mg478 O479 1.926 . S
Mg478 O488 1.984 . S
Mg478 O490 1.988 . S
Mg478 O491 2.061 . S
O479 Mg478 1.926 . S
O479 Mg480 1.986 . S
O479 Mg481 1.917 . S
Mg480 O479 1.986 . S
Mg480 O487 2.042 . S
Mg480 O489 2.041 . S
Mg480 O495 2.038 1_545 S
Mg480 O503 2.238 1_545 S
Mg481 O479 1.917 . S
Mg481 O482 1.917 1_545 S
Mg481 O492 2.106 . S
Mg481 O494 2.079 1_545 S
Mg481 O503 2.106 1_545 S
Mg481 O504 2.079 . S
O482 Mg481 1.917 1_565 S
O482 Mg483 1.926 . S
O482 Mg484 1.986 1_565 S
Mg483 O482 1.926 . S
Mg483 O497 1.984 . S
Mg483 O500 1.988 . S
Mg483 O501 2.061 . S
Mg484 O482 1.986 1_545 S
Mg484 O492 2.238 . S
Mg484 O496 2.042 1_545 S
Mg484 O498 2.041 1_545 S
Mg484 O505 2.038 . S
C485 O491 1.247 . S
C485 O492 1.289 . S
C486 O504 1.245 . S
C486 O505 1.274 . S
O487 C475 1.241 . S
O487 Mg480 2.042 . S
O488 C475 1.280 . S
O488 Mg478 1.984 . S
O489 C476 1.277 . S
O489 Mg480 2.041 . S
O490 C476 1.245 . S
O490 Mg478 1.988 . S
O491 Mg478 2.061 . S
O491 C485 1.247 . S
O492 Mg481 2.106 . S
O492 Mg484 2.238 . S
O492 C485 1.289 . S
C493 O494 1.245 . S
C493 O495 1.274 . S
O494 Mg481 2.079 1_565 S
O494 C493 1.245 . S
O495 Mg480 2.038 1_565 S
O495 C493 1.274 . S
O496 Mg484 2.042 1_565 S
O496 C499 1.241 . S
O497 Mg483 1.984 . S
O497 C499 1.280 . S
O498 Mg484 2.041 1_565 S
O498 C502 1.277 . S
C499 O496 1.241 . S
C499 O497 1.280 . S
O500 Mg483 1.988 . S
O500 C502 1.245 . S
O501 C477 1.247 . S
O501 Mg483 2.061 . S
C502 O498 1.277 . S
C502 O500 1.245 . S
O503 C477 1.289 . S
O503 Mg480 2.238 1_565 S
O503 Mg481 2.106 1_565 S
O504 Mg481 2.079 . S
O504 C486 1.245 . S
O505 Mg484 2.038 . S
O505 C486 1.274 . S
C506 C507 1.349 . S
C506 C508 1.327 . S
C506 H531 0.950 . S
C507 C506 1.349 . S
C507 C523 1.349 . S
C508 C506 1.327 . S
C508 C527 1.429 . S
C508 H532 0.950 . S
C509 C526 1.574 . S
C509 C528 1.368 . S
C509 H533 0.949 . S
H510 C514 0.949 . S
C511 C512 1.349 . S
C511 C513 1.327 . S
C511 H534 0.950 . S
C512 C511 1.349 . S
C512 C524 1.349 . S
C513 C511 1.327 . S
C513 C529 1.429 . S
C513 H535 0.950 . S
C514 H510 0.949 . S
C514 C522 1.574 . S
C514 C530 1.368 . S
H515 C523 0.950 . S
H516 C521 0.950 . S
H517 C522 0.949 . S
H518 C524 0.950 . S
H519 C525 0.950 . S
H520 C526 0.949 . S
C521 H516 0.950 . S
C521 C523 1.327 . S
C521 C527 1.429 . S
C522 C514 1.574 . S
C522 H517 0.949 . S
C522 C528 1.368 . S
C523 C507 1.349 . S
C523 H515 0.950 . S
C523 C521 1.327 . S
C524 C512 1.349 . S
C524 H518 0.950 . S
C524 C525 1.327 . S
C525 H519 0.950 . S
C525 C524 1.327 . S
C525 C529 1.429 . S
C526 C509 1.574 . S
C526 H520 0.949 . S
C526 C530 1.368 . S
C527 C508 1.429 . S
C527 C521 1.429 . S
C527 C528 1.523 . S
C528 C509 1.368 . S
C528 C522 1.368 . S
C528 C527 1.523 . S
C529 C513 1.429 . S
C529 C525 1.429 . S
C529 C530 1.523 . S
C530 C514 1.368 . S
C530 C526 1.368 . S
C530 C529 1.523 . S
H531 C506 0.950 . S
H532 C508 0.950 . S
H533 C509 0.949 . S
H534 C511 0.950 . S
H535 C513 0.950 . S
C536 C537 1.349 . S
C536 C538 1.327 . S
C536 H561 0.950 . S
C537 C536 1.349 . S
C537 C553 1.349 . S
C538 C536 1.327 . S
C538 C557 1.429 . S
C538 H562 0.950 . S
C539 C556 1.574 . S
C539 C558 1.368 . S
C539 H563 0.949 . S
H540 C544 0.949 . S
C541 C542 1.349 . S
C541 C543 1.327 . S
C541 H564 0.950 . S
C542 C541 1.349 . S
C542 C554 1.349 . S
C543 C541 1.327 . S
C543 C559 1.429 . S
C543 H565 0.950 . S
C544 H540 0.949 . S
C544 C552 1.574 . S
C544 C560 1.368 . S
H545 C553 0.950 . S
H546 C551 0.950 . S
H547 C552 0.949 . S
H548 C554 0.950 . S
H549 C555 0.950 . S
H550 C556 0.949 . S
C551 H546 0.950 . S
C551 C553 1.327 . S
C551 C557 1.429 . S
C552 C544 1.574 . S
C552 H547 0.949 . S
C552 C558 1.368 . S
C553 C537 1.349 . S
C553 H545 0.950 . S
C553 C551 1.327 . S
C554 C542 1.349 . S
C554 H548 0.950 . S
C554 C555 1.327 . S
C555 H549 0.950 . S
C555 C554 1.327 . S
C555 C559 1.429 . S
C556 C539 1.574 . S
C556 H550 0.949 . S
C556 C560 1.368 . S
C557 C538 1.429 . S
C557 C551 1.429 . S
C557 C558 1.523 . S
C558 C539 1.368 . S
C558 C552 1.368 . S
C558 C557 1.523 . S
C559 C543 1.429 . S
C559 C555 1.429 . S
C559 C560 1.523 . S
C560 C544 1.368 . S
C560 C556 1.368 . S
C560 C559 1.523 . S
H561 C536 0.950 . S
H562 C538 0.950 . S
H563 C539 0.949 . S
H564 C541 0.950 . S
H565 C543 0.950 . S
C566 C567 1.349 . S
C566 C568 1.327 . S
C566 H591 0.950 . S
C567 C566 1.349 . S
C567 C583 1.349 . S
C568 C566 1.327 . S
C568 C587 1.429 . S
C568 H592 0.950 . S
C569 C586 1.574 . S
C569 C588 1.368 . S
C569 H593 0.949 . S
H570 C574 0.949 . S
C571 C572 1.349 . S
C571 C573 1.327 . S
C571 H594 0.950 . S
C572 C571 1.349 . S
C572 C584 1.349 . S
C573 C571 1.327 . S
C573 C589 1.429 . S
C573 H595 0.950 . S
C574 H570 0.949 . S
C574 C582 1.574 . S
C574 C590 1.368 . S
H575 C583 0.950 . S
H576 C581 0.950 . S
H577 C582 0.949 . S
H578 C584 0.950 . S
H579 C585 0.950 . S
H580 C586 0.949 . S
C581 H576 0.950 . S
C581 C583 1.327 . S
C581 C587 1.429 . S
C582 C574 1.574 . S
C582 H577 0.949 . S
C582 C588 1.368 . S
C583 C567 1.349 . S
C583 H575 0.950 . S
C583 C581 1.327 . S
C584 C572 1.349 . S
C584 H578 0.950 . S
C584 C585 1.327 . S
C585 H579 0.950 . S
C585 C584 1.327 . S
C585 C589 1.429 . S
C586 C569 1.574 . S
C586 H580 0.949 . S
C586 C590 1.368 . S
C587 C568 1.429 . S
C587 C581 1.429 . S
C587 C588 1.523 . S
C588 C569 1.368 . S
C588 C582 1.368 . S
C588 C587 1.523 . S
C589 C573 1.429 . S
C589 C585 1.429 . S
C589 C590 1.523 . S
C590 C574 1.368 . S
C590 C586 1.368 . S
C590 C589 1.523 . S
H591 C566 0.950 . S
H592 C568 0.950 . S
H593 C569 0.949 . S
H594 C571 0.950 . S
H595 C573 0.950 . S
C596 C597 1.349 . S
C596 C598 1.327 . S
C596 H621 0.950 . S
C597 C596 1.349 . S
C597 C613 1.349 . S
C598 C596 1.327 . S
C598 C617 1.429 . S
C598 H622 0.950 . S
C599 C616 1.574 . S
C599 C618 1.368 . S
C599 H623 0.949 . S
H600 C604 0.949 . S
C601 C602 1.349 . S
C601 C603 1.327 . S
C601 H624 0.950 . S
C602 C601 1.349 . S
C602 C614 1.349 . S
C603 C601 1.327 . S
C603 C619 1.429 . S
C603 H625 0.950 . S
C604 H600 0.949 . S
C604 C612 1.574 . S
C604 C620 1.368 . S
H605 C613 0.950 . S
H606 C611 0.950 . S
H607 C612 0.949 . S
H608 C614 0.950 . S
H609 C615 0.950 . S
H610 C616 0.949 . S
C611 H606 0.950 . S
C611 C613 1.327 . S
C611 C617 1.429 . S
C612 C604 1.574 . S
C612 H607 0.949 . S
C612 C618 1.368 . S
C613 C597 1.349 . S
C613 H605 0.950 . S
C613 C611 1.327 . S
C614 C602 1.349 . S
C614 H608 0.950 . S
C614 C615 1.327 . S
C615 H609 0.950 . S
C615 C614 1.327 . S
C615 C619 1.429 . S
C616 C599 1.574 . S
C616 H610 0.949 . S
C616 C620 1.368 . S
C617 C598 1.429 . S
C617 C611 1.429 . S
C617 C618 1.523 . S
C618 C599 1.368 . S
C618 C612 1.368 . S
C618 C617 1.523 . S
C619 C603 1.429 . S
C619 C615 1.429 . S
C619 C620 1.523 . S
C620 C604 1.368 . S
C620 C616 1.368 . S
C620 C619 1.523 . S
H621 C596 0.950 . S
H622 C598 0.950 . S
H623 C599 0.949 . S
H624 C601 0.950 . S
H625 C603 0.950 . S
C626 C627 1.349 . S
C626 C628 1.327 . S
C626 H651 0.950 . S
C627 C626 1.349 . S
C627 C643 1.349 . S
C628 C626 1.327 . S
C628 C647 1.429 . S
C628 H652 0.950 . S
C629 C646 1.574 . S
C629 C648 1.368 . S
C629 H653 0.949 . S
H630 C634 0.949 . S
C631 C632 1.349 . S
C631 C633 1.327 . S
C631 H654 0.950 . S
C632 C631 1.349 . S
C632 C644 1.349 . S
C633 C631 1.327 . S
C633 C649 1.429 . S
C633 H655 0.950 . S
C634 H630 0.949 . S
C634 C642 1.574 . S
C634 C650 1.368 . S
H635 C643 0.950 . S
H636 C641 0.950 . S
H637 C642 0.949 . S
H638 C644 0.950 . S
H639 C645 0.950 . S
H640 C646 0.949 . S
C641 H636 0.950 . S
C641 C643 1.327 . S
C641 C647 1.429 . S
C642 C634 1.574 . S
C642 H637 0.949 . S
C642 C648 1.368 . S
C643 C627 1.349 . S
C643 H635 0.950 . S
C643 C641 1.327 . S
C644 C632 1.349 . S
C644 H638 0.950 . S
C644 C645 1.327 . S
C645 H639 0.950 . S
C645 C644 1.327 . S
C645 C649 1.429 . S
C646 C629 1.574 . S
C646 H640 0.949 . S
C646 C650 1.368 . S
C647 C628 1.429 . S
C647 C641 1.429 . S
C647 C648 1.523 . S
C648 C629 1.368 . S
C648 C642 1.368 . S
C648 C647 1.523 . S
C649 C633 1.429 . S
C649 C645 1.429 . S
C649 C650 1.523 . S
C650 C634 1.368 . S
C650 C646 1.368 . S
C650 C649 1.523 . S
H651 C626 0.950 . S
H652 C628 0.950 . S
H653 C629 0.949 . S
H654 C631 0.950 . S
H655 C633 0.950 . S
C656 C657 1.349 . S
C656 C658 1.327 . S
C656 H681 0.950 . S
C657 C656 1.349 . S
C657 C673 1.349 . S
C658 C656 1.327 . S
C658 C677 1.429 . S
C658 H682 0.950 . S
C659 C676 1.574 . S
C659 C678 1.368 . S
C659 H683 0.949 . S
H660 C664 0.949 . S
C661 C662 1.349 . S
C661 C663 1.327 . S
C661 H684 0.950 . S
C662 C661 1.349 . S
C662 C674 1.349 . S
C663 C661 1.327 . S
C663 C679 1.429 . S
C663 H685 0.950 . S
C664 H660 0.949 . S
C664 C672 1.574 . S
C664 C680 1.368 . S
H665 C673 0.950 . S
H666 C671 0.950 . S
H667 C672 0.949 . S
H668 C674 0.950 . S
H669 C675 0.950 . S
H670 C676 0.949 . S
C671 H666 0.950 . S
C671 C673 1.327 . S
C671 C677 1.429 . S
C672 C664 1.574 . S
C672 H667 0.949 . S
C672 C678 1.368 . S
C673 C657 1.349 . S
C673 H665 0.950 . S
C673 C671 1.327 . S
C674 C662 1.349 . S
C674 H668 0.950 . S
C674 C675 1.327 . S
C675 H669 0.950 . S
C675 C674 1.327 . S
C675 C679 1.429 . S
C676 C659 1.574 . S
C676 H670 0.949 . S
C676 C680 1.368 . S
C677 C658 1.429 . S
C677 C671 1.429 . S
C677 C678 1.523 . S
C678 C659 1.368 . S
C678 C672 1.368 . S
C678 C677 1.523 . S
C679 C663 1.429 . S
C679 C675 1.429 . S
C679 C680 1.523 . S
C680 C664 1.368 . S
C680 C676 1.368 . S
C680 C679 1.523 . S
H681 C656 0.950 . S
H682 C658 0.950 . S
H683 C659 0.949 . S
H684 C661 0.950 . S
H685 C663 0.950 . S
C686 C687 1.349 . S
C686 C688 1.327 . S
C686 H711 0.950 . S
C687 C686 1.349 . S
C687 C703 1.349 . S
C688 C686 1.327 . S
C688 C707 1.429 . S
C688 H712 0.950 . S
C689 C706 1.574 . S
C689 C708 1.368 . S
C689 H713 0.949 . S
H690 C694 0.949 . S
C691 C692 1.349 . S
C691 C693 1.327 . S
C691 H714 0.950 . S
C692 C691 1.349 . S
C692 C704 1.349 . S
C693 C691 1.327 . S
C693 C709 1.429 . S
C693 H715 0.950 . S
C694 H690 0.949 . S
C694 C702 1.574 . S
C694 C710 1.368 . S
H695 C703 0.950 . S
H696 C701 0.950 . S
H697 C702 0.949 . S
H698 C704 0.950 . S
H699 C705 0.950 . S
H700 C706 0.949 . S
C701 H696 0.950 . S
C701 C703 1.327 . S
C701 C707 1.429 . S
C702 C694 1.574 . S
C702 H697 0.949 . S
C702 C708 1.368 . S
C703 C687 1.349 . S
C703 H695 0.950 . S
C703 C701 1.327 . S
C704 C692 1.349 . S
C704 H698 0.950 . S
C704 C705 1.327 . S
C705 H699 0.950 . S
C705 C704 1.327 . S
C705 C709 1.429 . S
C706 C689 1.574 . S
C706 H700 0.949 . S
C706 C710 1.368 . S
C707 C688 1.429 . S
C707 C701 1.429 . S
C707 C708 1.523 . S
C708 C689 1.368 . S
C708 C702 1.368 . S
C708 C707 1.523 . S
C709 C693 1.429 . S
C709 C705 1.429 . S
C709 C710 1.523 . S
C710 C694 1.368 . S
C710 C706 1.368 . S
C710 C709 1.523 . S
H711 C686 0.950 . S
H712 C688 0.950 . S
H713 C689 0.949 . S
H714 C691 0.950 . S
H715 C693 0.950 . S
C716 C717 1.349 . S
C716 C718 1.327 . S
C716 H741 0.950 . S
C717 C716 1.349 . S
C717 C733 1.349 . S
C718 C716 1.327 . S
C718 C737 1.429 . S
C718 H742 0.950 . S
C719 C736 1.574 . S
C719 C738 1.368 . S
C719 H743 0.949 . S
H720 C724 0.949 . S
C721 C722 1.349 . S
C721 C723 1.327 . S
C721 H744 0.950 . S
C722 C721 1.349 . S
C722 C734 1.349 . S
C723 C721 1.327 . S
C723 C739 1.429 . S
C723 H745 0.950 . S
C724 H720 0.949 . S
C724 C732 1.574 . S
C724 C740 1.368 . S
H725 C733 0.950 . S
H726 C731 0.950 . S
H727 C732 0.949 . S
H728 C734 0.950 . S
H729 C735 0.950 . S
H730 C736 0.949 . S
C731 H726 0.950 . S
C731 C733 1.327 . S
C731 C737 1.429 . S
C732 C724 1.574 . S
C732 H727 0.949 . S
C732 C738 1.368 . S
C733 C717 1.349 . S
C733 H725 0.950 . S
C733 C731 1.327 . S
C734 C722 1.349 . S
C734 H728 0.950 . S
C734 C735 1.327 . S
C735 H729 0.950 . S
C735 C734 1.327 . S
C735 C739 1.429 . S
C736 C719 1.574 . S
C736 H730 0.949 . S
C736 C740 1.368 . S
C737 C718 1.429 . S
C737 C731 1.429 . S
C737 C738 1.523 . S
C738 C719 1.368 . S
C738 C732 1.368 . S
C738 C737 1.523 . S
C739 C723 1.429 . S
C739 C735 1.429 . S
C739 C740 1.523 . S
C740 C724 1.368 . S
C740 C736 1.368 . S
C740 C739 1.523 . S
H741 C716 0.950 . S
H742 C718 0.950 . S
H743 C719 0.949 . S
H744 C721 0.950 . S
H745 C723 0.950 . S
C746 C747 1.349 . S
C746 C748 1.327 . S
C746 H771 0.950 . S
C747 C746 1.349 . S
C747 C763 1.349 . S
C748 C746 1.327 . S
C748 C767 1.429 . S
C748 H772 0.950 . S
C749 C766 1.574 . S
C749 C768 1.368 . S
C749 H773 0.949 . S
H750 C754 0.949 . S
C751 C752 1.349 . S
C751 C753 1.327 . S
C751 H774 0.950 . S
C752 C751 1.349 . S
C752 C764 1.349 . S
C753 C751 1.327 . S
C753 C769 1.429 . S
C753 H775 0.950 . S
C754 H750 0.949 . S
C754 C762 1.574 . S
C754 C770 1.368 . S
H755 C763 0.950 . S
H756 C761 0.950 . S
H757 C762 0.949 . S
H758 C764 0.950 . S
H759 C765 0.950 . S
H760 C766 0.949 . S
C761 H756 0.950 . S
C761 C763 1.327 . S
C761 C767 1.429 . S
C762 C754 1.574 . S
C762 H757 0.949 . S
C762 C768 1.368 . S
C763 C747 1.349 . S
C763 H755 0.950 . S
C763 C761 1.327 . S
C764 C752 1.349 . S
C764 H758 0.950 . S
C764 C765 1.327 . S
C765 H759 0.950 . S
C765 C764 1.327 . S
C765 C769 1.429 . S
C766 C749 1.574 . S
C766 H760 0.949 . S
C766 C770 1.368 . S
C767 C748 1.429 . S
C767 C761 1.429 . S
C767 C768 1.523 . S
C768 C749 1.368 . S
C768 C762 1.368 . S
C768 C767 1.523 . S
C769 C753 1.429 . S
C769 C765 1.429 . S
C769 C770 1.523 . S
C770 C754 1.368 . S
C770 C766 1.368 . S
C770 C769 1.523 . S
H771 C746 0.950 . S
H772 C748 0.950 . S
H773 C749 0.949 . S
H774 C751 0.950 . S
H775 C753 0.950 . S
C776 C777 1.349 . S
C776 C778 1.327 . S
C776 H801 0.950 . S
C777 C776 1.349 . S
C777 C793 1.349 . S
C778 C776 1.327 . S
C778 C797 1.429 . S
C778 H802 0.950 . S
C779 C796 1.574 . S
C779 C798 1.368 . S
C779 H803 0.949 . S
H780 C784 0.949 . S
C781 C782 1.349 . S
C781 C783 1.327 . S
C781 H804 0.950 . S
C782 C781 1.349 . S
C782 C794 1.349 . S
C783 C781 1.327 . S
C783 C799 1.429 . S
C783 H805 0.950 . S
C784 H780 0.949 . S
C784 C792 1.574 . S
C784 C800 1.368 . S
H785 C793 0.950 . S
H786 C791 0.950 . S
H787 C792 0.949 . S
H788 C794 0.950 . S
H789 C795 0.950 . S
H790 C796 0.949 . S
C791 H786 0.950 . S
C791 C793 1.327 . S
C791 C797 1.429 . S
C792 C784 1.574 . S
C792 H787 0.949 . S
C792 C798 1.368 . S
C793 C777 1.349 . S
C793 H785 0.950 . S
C793 C791 1.327 . S
C794 C782 1.349 . S
C794 H788 0.950 . S
C794 C795 1.327 . S
C795 H789 0.950 . S
C795 C794 1.327 . S
C795 C799 1.429 . S
C796 C779 1.574 . S
C796 H790 0.949 . S
C796 C800 1.368 . S
C797 C778 1.429 . S
C797 C791 1.429 . S
C797 C798 1.523 . S
C798 C779 1.368 . S
C798 C792 1.368 . S
C798 C797 1.523 . S
C799 C783 1.429 . S
C799 C795 1.429 . S
C799 C800 1.523 . S
C800 C784 1.368 . S
C800 C796 1.368 . S
C800 C799 1.523 . S
H801 C776 0.950 . S
H802 C778 0.950 . S
H803 C779 0.949 . S
H804 C781 0.950 . S
H805 C783 0.950 . S
C806 C807 1.349 . S
C806 C808 1.327 . S
C806 H831 0.950 . S
C807 C806 1.349 . S
C807 C823 1.349 . S
C808 C806 1.327 . S
C808 C827 1.429 . S
C808 H832 0.950 . S
C809 C826 1.574 . S
C809 C828 1.368 . S
C809 H833 0.949 . S
H810 C814 0.949 . S
C811 C812 1.349 . S
C811 C813 1.327 . S
C811 H834 0.950 . S
C812 C811 1.349 . S
C812 C824 1.349 . S
C813 C811 1.327 . S
C813 C829 1.429 . S
C813 H835 0.950 . S
C814 H810 0.949 . S
C814 C822 1.574 . S
C814 C830 1.368 . S
H815 C823 0.950 . S
H816 C821 0.950 . S
H817 C822 0.949 . S
H818 C824 0.950 . S
H819 C825 0.950 . S
H820 C826 0.949 . S
C821 H816 0.950 . S
C821 C823 1.327 . S
C821 C827 1.429 . S
C822 C814 1.574 . S
C822 H817 0.949 . S
C822 C828 1.368 . S
C823 C807 1.349 . S
C823 H815 0.950 . S
C823 C821 1.327 . S
C824 C812 1.349 . S
C824 H818 0.950 . S
C824 C825 1.327 . S
C825 H819 0.950 . S
C825 C824 1.327 . S
C825 C829 1.429 . S
C826 C809 1.574 . S
C826 H820 0.949 . S
C826 C830 1.368 . S
C827 C808 1.429 . S
C827 C821 1.429 . S
C827 C828 1.523 . S
C828 C809 1.368 . S
C828 C822 1.368 . S
C828 C827 1.523 . S
C829 C813 1.429 . S
C829 C825 1.429 . S
C829 C830 1.523 . S
C830 C814 1.368 . S
C830 C826 1.368 . S
C830 C829 1.523 . S
H831 C806 0.950 . S
H832 C808 0.950 . S
H833 C809 0.949 . S
H834 C811 0.950 . S
H835 C813 0.950 . S
C836 C837 1.349 . S
C836 C838 1.327 . S
C836 H861 0.950 . S
C837 C836 1.349 . S
C837 C853 1.349 . S
C838 C836 1.327 . S
C838 C857 1.429 . S
C838 H862 0.950 . S
C839 C856 1.574 . S
C839 C858 1.368 . S
C839 H863 0.949 . S
H840 C844 0.949 . S
C841 C842 1.349 . S
C841 C843 1.327 . S
C841 H864 0.950 . S
C842 C841 1.349 . S
C842 C854 1.349 . S
C843 C841 1.327 . S
C843 C859 1.429 . S
C843 H865 0.950 . S
C844 H840 0.949 . S
C844 C852 1.574 . S
C844 C860 1.368 . S
H845 C853 0.950 . S
H846 C851 0.950 . S
H847 C852 0.949 . S
H848 C854 0.950 . S
H849 C855 0.950 . S
H850 C856 0.949 . S
C851 H846 0.950 . S
C851 C853 1.327 . S
C851 C857 1.429 . S
C852 C844 1.574 . S
C852 H847 0.949 . S
C852 C858 1.368 . S
C853 C837 1.349 . S
C853 H845 0.950 . S
C853 C851 1.327 . S
C854 C842 1.349 . S
C854 H848 0.950 . S
C854 C855 1.327 . S
C855 H849 0.950 . S
C855 C854 1.327 . S
C855 C859 1.429 . S
C856 C839 1.574 . S
C856 H850 0.949 . S
C856 C860 1.368 . S
C857 C838 1.429 . S
C857 C851 1.429 . S
C857 C858 1.523 . S
C858 C839 1.368 . S
C858 C852 1.368 . S
C858 C857 1.523 . S
C859 C843 1.429 . S
C859 C855 1.429 . S
C859 C860 1.523 . S
C860 C844 1.368 . S
C860 C856 1.368 . S
C860 C859 1.523 . S
H861 C836 0.950 . S
H862 C838 0.950 . S
H863 C839 0.949 . S
H864 C841 0.950 . S
H865 C843 0.950 . S
C866 C867 1.349 . S
C866 C868 1.327 . S
C866 H891 0.950 . S
C867 C866 1.349 . S
C867 C883 1.349 . S
C868 C866 1.327 . S
C868 C887 1.429 . S
C868 H892 0.950 . S
C869 C886 1.574 . S
C869 C888 1.368 . S
C869 H893 0.949 . S
H870 C874 0.949 . S
C871 C872 1.349 . S
C871 C873 1.327 . S
C871 H894 0.950 . S
C872 C871 1.349 . S
C872 C884 1.349 . S
C873 C871 1.327 . S
C873 C889 1.429 . S
C873 H895 0.950 . S
C874 H870 0.949 . S
C874 C882 1.574 . S
C874 C890 1.368 . S
H875 C883 0.950 . S
H876 C881 0.950 . S
H877 C882 0.949 . S
H878 C884 0.950 . S
H879 C885 0.950 . S
H880 C886 0.949 . S
C881 H876 0.950 . S
C881 C883 1.327 . S
C881 C887 1.429 . S
C882 C874 1.574 . S
C882 H877 0.949 . S
C882 C888 1.368 . S
C883 C867 1.349 . S
C883 H875 0.950 . S
C883 C881 1.327 . S
C884 C872 1.349 . S
C884 H878 0.950 . S
C884 C885 1.327 . S
C885 H879 0.950 . S
C885 C884 1.327 . S
C885 C889 1.429 . S
C886 C869 1.574 . S
C886 H880 0.949 . S
C886 C890 1.368 . S
C887 C868 1.429 . S
C887 C881 1.429 . S
C887 C888 1.523 . S
C888 C869 1.368 . S
C888 C882 1.368 . S
C888 C887 1.523 . S
C889 C873 1.429 . S
C889 C885 1.429 . S
C889 C890 1.523 . S
C890 C874 1.368 . S
C890 C886 1.368 . S
C890 C889 1.523 . S
H891 C866 0.950 . S
H892 C868 0.950 . S
H893 C869 0.949 . S
H894 C871 0.950 . S
H895 C873 0.950 . S
C896 C897 1.349 . S
C896 C898 1.327 . S
C896 H921 0.950 . S
C897 C896 1.349 . S
C897 C913 1.349 . S
C898 C896 1.327 . S
C898 C917 1.429 . S
C898 H922 0.950 . S
C899 C916 1.574 . S
C899 C918 1.368 . S
C899 H923 0.949 . S
H900 C904 0.949 . S
C901 C902 1.349 . S
C901 C903 1.327 . S
C901 H924 0.950 . S
C902 C901 1.349 . S
C902 C914 1.349 . S
C903 C901 1.327 . S
C903 C919 1.429 . S
C903 H925 0.950 . S
C904 H900 0.949 . S
C904 C912 1.574 . S
C904 C920 1.368 . S
H905 C913 0.950 . S
H906 C911 0.950 . S
H907 C912 0.949 . S
H908 C914 0.950 . S
H909 C915 0.950 . S
H910 C916 0.949 . S
C911 H906 0.950 . S
C911 C913 1.327 . S
C911 C917 1.429 . S
C912 C904 1.574 . S
C912 H907 0.949 . S
C912 C918 1.368 . S
C913 C897 1.349 . S
C913 H905 0.950 . S
C913 C911 1.327 . S
C914 C902 1.349 . S
C914 H908 0.950 . S
C914 C915 1.327 . S
C915 H909 0.950 . S
C915 C914 1.327 . S
C915 C919 1.429 . S
C916 C899 1.574 . S
C916 H910 0.949 . S
C916 C920 1.368 . S
C917 C898 1.429 . S
C917 C911 1.429 . S
C917 C918 1.523 . S
C918 C899 1.368 . S
C918 C912 1.368 . S
C918 C917 1.523 . S
C919 C903 1.429 . S
C919 C915 1.429 . S
C919 C920 1.523 . S
C920 C904 1.368 . S
C920 C916 1.368 . S
C920 C919 1.523 . S
H921 C896 0.950 . S
H922 C898 0.950 . S
H923 C899 0.949 . S
H924 C901 0.950 . S
H925 C903 0.950 . S
C926 C927 1.349 . S
C926 C928 1.327 . S
C926 H951 0.950 . S
C927 C926 1.349 . S
C927 C943 1.349 . S
C928 C926 1.327 . S
C928 C947 1.429 . S
C928 H952 0.950 . S
C929 C946 1.574 . S
C929 C948 1.368 . S
C929 H953 0.949 . S
H930 C934 0.949 . S
C931 C932 1.349 . S
C931 C933 1.327 . S
C931 H954 0.950 . S
C932 C931 1.349 . S
C932 C944 1.349 . S
C933 C931 1.327 . S
C933 C949 1.429 . S
C933 H955 0.950 . S
C934 H930 0.949 . S
C934 C942 1.574 . S
C934 C950 1.368 . S
H935 C943 0.950 . S
H936 C941 0.950 . S
H937 C942 0.949 . S
H938 C944 0.950 . S
H939 C945 0.950 . S
H940 C946 0.949 . S
C941 H936 0.950 . S
C941 C943 1.327 . S
C941 C947 1.429 . S
C942 C934 1.574 . S
C942 H937 0.949 . S
C942 C948 1.368 . S
C943 C927 1.349 . S
C943 H935 0.950 . S
C943 C941 1.327 . S
C944 C932 1.349 . S
C944 H938 0.950 . S
C944 C945 1.327 . S
C945 H939 0.950 . S
C945 C944 1.327 . S
C945 C949 1.429 . S
C946 C929 1.574 . S
C946 H940 0.949 . S
C946 C950 1.368 . S
C947 C928 1.429 . S
C947 C941 1.429 . S
C947 C948 1.523 . S
C948 C929 1.368 . S
C948 C942 1.368 . S
C948 C947 1.523 . S
C949 C933 1.429 . S
C949 C945 1.429 . S
C949 C950 1.523 . S
C950 C934 1.368 . S
C950 C946 1.368 . S
C950 C949 1.523 . S
H951 C926 0.950 . S
H952 C928 0.950 . S
H953 C929 0.949 . S
H954 C931 0.950 . S
H955 C933 0.950 . S
C956 C957 1.349 . S
C956 C958 1.327 . S
C956 H981 0.950 . S
C957 C956 1.349 . S
C957 C973 1.349 . S
C958 C956 1.327 . S
C958 C977 1.429 . S
C958 H982 0.950 . S
C959 C976 1.574 . S
C959 C978 1.368 . S
C959 H983 0.949 . S
H960 C964 0.949 . S
C961 C962 1.349 . S
C961 C963 1.327 . S
C961 H984 0.950 . S
C962 C961 1.349 . S
C962 C974 1.349 . S
C963 C961 1.327 . S
C963 C979 1.429 . S
C963 H985 0.950 . S
C964 H960 0.949 . S
C964 C972 1.574 . S
C964 C980 1.368 . S
H965 C973 0.950 . S
H966 C971 0.950 . S
H967 C972 0.949 . S
H968 C974 0.950 . S
H969 C975 0.950 . S
H970 C976 0.949 . S
C971 H966 0.950 . S
C971 C973 1.327 . S
C971 C977 1.429 . S
C972 C964 1.574 . S
C972 H967 0.949 . S
C972 C978 1.368 . S
C973 C957 1.349 . S
C973 H965 0.950 . S
C973 C971 1.327 . S
C974 C962 1.349 . S
C974 H968 0.950 . S
C974 C975 1.327 . S
C975 H969 0.950 . S
C975 C974 1.327 . S
C975 C979 1.429 . S
C976 C959 1.574 . S
C976 H970 0.949 . S
C976 C980 1.368 . S
C977 C958 1.429 . S
C977 C971 1.429 . S
C977 C978 1.523 . S
C978 C959 1.368 . S
C978 C972 1.368 . S
C978 C977 1.523 . S
C979 C963 1.429 . S
C979 C975 1.429 . S
C979 C980 1.523 . S
C980 C964 1.368 . S
C980 C976 1.368 . S
C980 C979 1.523 . S
H981 C956 0.950 . S
H982 C958 0.950 . S
H983 C959 0.949 . S
H984 C961 0.950 . S
H985 C963 0.950 . S
C986 C987 1.349 . S
C986 C988 1.327 . S
C986 H1011 0.950 . S
C987 C986 1.349 . S
C987 C1003 1.349 . S
C988 C986 1.327 . S
C988 C1007 1.429 . S
C988 H1012 0.950 . S
C989 C1006 1.574 . S
C989 C1008 1.368 . S
C989 H1013 0.949 . S
H990 C994 0.949 . S
C991 C992 1.349 . S
C991 C993 1.327 . S
C991 H1014 0.950 . S
C992 C991 1.349 . S
C992 C1004 1.349 . S
C993 C991 1.327 . S
C993 C1009 1.429 . S
C993 H1015 0.950 . S
C994 H990 0.949 . S
C994 C1002 1.574 . S
C994 C1010 1.368 . S
H995 C1003 0.950 . S
H996 C1001 0.950 . S
H997 C1002 0.949 . S
H998 C1004 0.950 . S
H999 C1005 0.950 . S
H1000 C1006 0.949 . S
C1001 H996 0.950 . S
C1001 C1003 1.327 . S
C1001 C1007 1.429 . S
C1002 C994 1.574 . S
C1002 H997 0.949 . S
C1002 C1008 1.368 . S
C1003 C987 1.349 . S
C1003 H995 0.950 . S
C1003 C1001 1.327 . S
C1004 C992 1.349 . S
C1004 H998 0.950 . S
C1004 C1005 1.327 . S
C1005 H999 0.950 . S
C1005 C1004 1.327 . S
C1005 C1009 1.429 . S
C1006 C989 1.574 . S
C1006 H1000 0.949 . S
C1006 C1010 1.368 . S
C1007 C988 1.429 . S
C1007 C1001 1.429 . S
C1007 C1008 1.523 . S
C1008 C989 1.368 . S
C1008 C1002 1.368 . S
C1008 C1007 1.523 . S
C1009 C993 1.429 . S
C1009 C1005 1.429 . S
C1009 C1010 1.523 . S
C1010 C994 1.368 . S
C1010 C1006 1.368 . S
C1010 C1009 1.523 . S
H1011 C986 0.950 . S
H1012 C988 0.950 . S
H1013 C989 0.949 . S
H1014 C991 0.950 . S
H1015 C993 0.950 . S
C1016 C1017 1.349 . S
C1016 C1018 1.327 . S
C1016 H1041 0.950 . S
C1017 C1016 1.349 . S
C1017 C1033 1.349 . S
C1018 C1016 1.327 . S
C1018 C1037 1.429 . S
C1018 H1042 0.950 . S
C1019 C1036 1.574 . S
C1019 C1038 1.368 . S
C1019 H1043 0.949 . S
H1020 C1024 0.949 . S
C1021 C1022 1.349 . S
C1021 C1023 1.327 . S
C1021 H1044 0.950 . S
C1022 C1021 1.349 . S
C1022 C1034 1.349 . S
C1023 C1021 1.327 . S
C1023 C1039 1.429 . S
C1023 H1045 0.950 . S
C1024 H1020 0.949 . S
C1024 C1032 1.574 . S
C1024 C1040 1.368 . S
H1025 C1033 0.950 . S
H1026 C1031 0.950 . S
H1027 C1032 0.949 . S
H1028 C1034 0.950 . S
H1029 C1035 0.950 . S
H1030 C1036 0.949 . S
C1031 H1026 0.950 . S
C1031 C1033 1.327 . S
C1031 C1037 1.429 . S
C1032 C1024 1.574 . S
C1032 H1027 0.949 . S
C1032 C1038 1.368 . S
C1033 C1017 1.349 . S
C1033 H1025 0.950 . S
C1033 C1031 1.327 . S
C1034 C1022 1.349 . S
C1034 H1028 0.950 . S
C1034 C1035 1.327 . S
C1035 H1029 0.950 . S
C1035 C1034 1.327 . S
C1035 C1039 1.429 . S
C1036 C1019 1.574 . S
C1036 H1030 0.949 . S
C1036 C1040 1.368 . S
C1037 C1018 1.429 . S
C1037 C1031 1.429 . S
C1037 C1038 1.523 . S
C1038 C1019 1.368 . S
C1038 C1032 1.368 . S
C1038 C1037 1.523 . S
C1039 C1023 1.429 . S
C1039 C1035 1.429 . S
C1039 C1040 1.523 . S
C1040 C1024 1.368 . S
C1040 C1036 1.368 . S
C1040 C1039 1.523 . S
H1041 C1016 0.950 . S
H1042 C1018 0.950 . S
H1043 C1019 0.949 . S
H1044 C1021 0.950 . S
H1045 C1023 0.950 . S
C1046 C1047 1.349 . S
C1046 C1048 1.327 . S
C1046 H1071 0.950 . S
C1047 C1046 1.349 . S
C1047 C1063 1.349 . S
C1048 C1046 1.327 . S
C1048 C1067 1.429 . S
C1048 H1072 0.950 . S
C1049 C1066 1.574 . S
C1049 C1068 1.368 . S
C1049 H1073 0.949 . S
H1050 C1054 0.949 . S
C1051 C1052 1.349 . S
C1051 C1053 1.327 . S
C1051 H1074 0.950 . S
C1052 C1051 1.349 . S
C1052 C1064 1.349 . S
C1053 C1051 1.327 . S
C1053 C1069 1.429 . S
C1053 H1075 0.950 . S
C1054 H1050 0.949 . S
C1054 C1062 1.574 . S
C1054 C1070 1.368 . S
H1055 C1063 0.950 . S
H1056 C1061 0.950 . S
H1057 C1062 0.949 . S
H1058 C1064 0.950 . S
H1059 C1065 0.950 . S
H1060 C1066 0.949 . S
C1061 H1056 0.950 . S
C1061 C1063 1.327 . S
C1061 C1067 1.429 . S
C1062 C1054 1.574 . S
C1062 H1057 0.949 . S
C1062 C1068 1.368 . S
C1063 C1047 1.349 . S
C1063 H1055 0.950 . S
C1063 C1061 1.327 . S
C1064 C1052 1.349 . S
C1064 H1058 0.950 . S
C1064 C1065 1.327 . S
C1065 H1059 0.950 . S
C1065 C1064 1.327 . S
C1065 C1069 1.429 . S
C1066 C1049 1.574 . S
C1066 H1060 0.949 . S
C1066 C1070 1.368 . S
C1067 C1048 1.429 . S
C1067 C1061 1.429 . S
C1067 C1068 1.523 . S
C1068 C1049 1.368 . S
C1068 C1062 1.368 . S
C1068 C1067 1.523 . S
C1069 C1053 1.429 . S
C1069 C1065 1.429 . S
C1069 C1070 1.523 . S
C1070 C1054 1.368 . S
C1070 C1066 1.368 . S
C1070 C1069 1.523 . S
H1071 C1046 0.950 . S
H1072 C1048 0.950 . S
H1073 C1049 0.949 . S
H1074 C1051 0.950 . S
H1075 C1053 0.950 . S
C1076 C1077 1.349 . S
C1076 C1078 1.327 . S
C1076 H1101 0.950 . S
C1077 C1076 1.349 . S
C1077 C1093 1.349 . S
C1078 C1076 1.327 . S
C1078 C1097 1.429 . S
C1078 H1102 0.950 . S
C1079 C1096 1.574 . S
C1079 C1098 1.368 . S
C1079 H1103 0.949 . S
H1080 C1084 0.949 . S
C1081 C1082 1.349 . S
C1081 C1083 1.327 . S
C1081 H1104 0.950 . S
C1082 C1081 1.349 . S
C1082 C1094 1.349 . S
C1083 C1081 1.327 . S
C1083 C1099 1.429 . S
C1083 H1105 0.950 . S
C1084 H1080 0.949 . S
C1084 C1092 1.574 . S
C1084 C1100 1.368 . S
H1085 C1093 0.950 . S
H1086 C1091 0.950 . S
H1087 C1092 0.949 . S
H1088 C1094 0.950 . S
H1089 C1095 0.950 . S
H1090 C1096 0.949 . S
C1091 H1086 0.950 . S
C1091 C1093 1.327 . S
C1091 C1097 1.429 . S
C1092 C1084 1.574 . S
C1092 H1087 0.949 . S
C1092 C1098 1.368 . S
C1093 C1077 1.349 . S
C1093 H1085 0.950 . S
C1093 C1091 1.327 . S
C1094 C1082 1.349 . S
C1094 H1088 0.950 . S
C1094 C1095 1.327 . S
C1095 H1089 0.950 . S
C1095 C1094 1.327 . S
C1095 C1099 1.429 . S
C1096 C1079 1.574 . S
C1096 H1090 0.949 . S
C1096 C1100 1.368 . S
C1097 C1078 1.429 . S
C1097 C1091 1.429 . S
C1097 C1098 1.523 . S
C1098 C1079 1.368 . S
C1098 C1092 1.368 . S
C1098 C1097 1.523 . S
C1099 C1083 1.429 . S
C1099 C1095 1.429 . S
C1099 C1100 1.523 . S
C1100 C1084 1.368 . S
C1100 C1096 1.368 . S
C1100 C1099 1.523 . S
H1101 C1076 0.950 . S
H1102 C1078 0.950 . S
H1103 C1079 0.949 . S
H1104 C1081 0.950 . S
H1105 C1083 0.950 . S
C1106 C1107 1.349 . S
C1106 C1108 1.327 . S
C1106 H1131 0.950 . S
C1107 C1106 1.349 . S
C1107 C1123 1.349 . S
C1108 C1106 1.327 . S
C1108 C1127 1.429 . S
C1108 H1132 0.950 . S
C1109 C1126 1.574 . S
C1109 C1128 1.368 . S
C1109 H1133 0.949 . S
H1110 C1114 0.949 . S
C1111 C1112 1.349 . S
C1111 C1113 1.327 . S
C1111 H1134 0.950 1_556 S
C1112 C1111 1.349 . S
C1112 C1124 1.349 . S
C1113 C1111 1.327 . S
C1113 C1129 1.429 . S
C1113 H1135 0.950 . S
C1114 H1110 0.949 . S
C1114 C1122 1.574 . S
C1114 C1130 1.368 . S
H1115 C1123 0.950 . S
H1116 C1121 0.950 . S
H1117 C1122 0.949 . S
H1118 C1124 0.950 . S
H1119 C1125 0.950 . S
H1120 C1126 0.949 . S
C1121 H1116 0.950 . S
C1121 C1123 1.327 . S
C1121 C1127 1.429 . S
C1122 C1114 1.574 . S
C1122 H1117 0.949 . S
C1122 C1128 1.368 . S
C1123 C1107 1.349 . S
C1123 H1115 0.950 . S
C1123 C1121 1.327 . S
C1124 C1112 1.349 . S
C1124 H1118 0.950 . S
C1124 C1125 1.327 . S
C1125 H1119 0.950 . S
C1125 C1124 1.327 . S
C1125 C1129 1.429 . S
C1126 C1109 1.574 . S
C1126 H1120 0.949 . S
C1126 C1130 1.368 . S
C1127 C1108 1.429 . S
C1127 C1121 1.429 . S
C1127 C1128 1.523 . S
C1128 C1109 1.368 . S
C1128 C1122 1.368 . S
C1128 C1127 1.523 . S
C1129 C1113 1.429 . S
C1129 C1125 1.429 . S
C1129 C1130 1.523 . S
C1130 C1114 1.368 . S
C1130 C1126 1.368 . S
C1130 C1129 1.523 . S
H1131 C1106 0.950 . S
H1132 C1108 0.950 . S
H1133 C1109 0.949 . S
H1134 C1111 0.950 1_554 S
H1135 C1113 0.950 . S
C1136 C1137 1.349 . S
C1136 C1138 1.327 . S
C1136 H1161 0.950 . S
C1137 C1136 1.349 . S
C1137 C1153 1.349 . S
C1138 C1136 1.327 . S
C1138 C1157 1.429 . S
C1138 H1162 0.950 . S
C1139 C1156 1.574 . S
C1139 C1158 1.368 . S
C1139 H1163 0.949 . S
H1140 C1144 0.949 . S
C1141 C1142 1.349 . S
C1141 C1143 1.327 . S
C1141 H1164 0.950 . S
C1142 C1141 1.349 . S
C1142 C1154 1.349 . S
C1143 C1141 1.327 . S
C1143 C1159 1.429 . S
C1143 H1165 0.950 . S
C1144 H1140 0.949 . S
C1144 C1152 1.574 . S
C1144 C1160 1.368 . S
H1145 C1153 0.950 . S
H1146 C1151 0.950 . S
H1147 C1152 0.949 . S
H1148 C1154 0.950 . S
H1149 C1155 0.950 . S
H1150 C1156 0.949 . S
C1151 H1146 0.950 . S
C1151 C1153 1.327 . S
C1151 C1157 1.429 . S
C1152 C1144 1.574 . S
C1152 H1147 0.949 . S
C1152 C1158 1.368 . S
C1153 C1137 1.349 . S
C1153 H1145 0.950 . S
C1153 C1151 1.327 . S
C1154 C1142 1.349 . S
C1154 H1148 0.950 . S
C1154 C1155 1.327 . S
C1155 H1149 0.950 . S
C1155 C1154 1.327 . S
C1155 C1159 1.429 . S
C1156 C1139 1.574 . S
C1156 H1150 0.949 . S
C1156 C1160 1.368 . S
C1157 C1138 1.429 . S
C1157 C1151 1.429 . S
C1157 C1158 1.523 . S
C1158 C1139 1.368 . S
C1158 C1152 1.368 . S
C1158 C1157 1.523 . S
C1159 C1143 1.429 . S
C1159 C1155 1.429 . S
C1159 C1160 1.523 . S
C1160 C1144 1.368 . S
C1160 C1156 1.368 . S
C1160 C1159 1.523 . S
H1161 C1136 0.950 . S
H1162 C1138 0.950 . S
H1163 C1139 0.949 . S
H1164 C1141 0.950 . S
H1165 C1143 0.950 . S
C1166 C1167 1.349 . S
C1166 C1168 1.327 . S
C1166 H1191 0.950 . S
C1167 C1166 1.349 . S
C1167 C1183 1.349 . S
C1168 C1166 1.327 . S
C1168 C1187 1.429 . S
C1168 H1192 0.950 . S
C1169 C1186 1.574 . S
C1169 C1188 1.368 . S
C1169 H1193 0.949 . S
H1170 C1174 0.949 . S
C1171 C1172 1.349 . S
C1171 C1173 1.327 . S
C1171 H1194 0.950 . S
C1172 C1171 1.349 . S
C1172 C1184 1.349 . S
C1173 C1171 1.327 . S
C1173 C1189 1.429 . S
C1173 H1195 0.950 . S
C1174 H1170 0.949 . S
C1174 C1182 1.574 . S
C1174 C1190 1.368 . S
H1175 C1183 0.950 . S
H1176 C1181 0.950 . S
H1177 C1182 0.949 . S
H1178 C1184 0.950 . S
H1179 C1185 0.950 . S
H1180 C1186 0.949 . S
C1181 H1176 0.950 . S
C1181 C1183 1.327 . S
C1181 C1187 1.429 . S
C1182 C1174 1.574 . S
C1182 H1177 0.949 . S
C1182 C1188 1.368 . S
C1183 C1167 1.349 . S
C1183 H1175 0.950 . S
C1183 C1181 1.327 . S
C1184 C1172 1.349 . S
C1184 H1178 0.950 . S
C1184 C1185 1.327 . S
C1185 H1179 0.950 . S
C1185 C1184 1.327 . S
C1185 C1189 1.429 . S
C1186 C1169 1.574 . S
C1186 H1180 0.949 . S
C1186 C1190 1.368 . S
C1187 C1168 1.429 . S
C1187 C1181 1.429 . S
C1187 C1188 1.523 . S
C1188 C1169 1.368 . S
C1188 C1182 1.368 . S
C1188 C1187 1.523 . S
C1189 C1173 1.429 . S
C1189 C1185 1.429 . S
C1189 C1190 1.523 . S
C1190 C1174 1.368 . S
C1190 C1186 1.368 . S
C1190 C1189 1.523 . S
H1191 C1166 0.950 . S
H1192 C1168 0.950 . S
H1193 C1169 0.949 . S
H1194 C1171 0.950 . S
H1195 C1173 0.950 . S
C1196 C1197 1.349 . S
C1196 C1198 1.327 . S
C1196 H1221 0.950 . S
C1197 C1196 1.349 . S
C1197 C1213 1.349 . S
C1198 C1196 1.327 . S
C1198 C1217 1.429 . S
C1198 H1222 0.950 . S
C1199 C1216 1.574 . S
C1199 C1218 1.368 . S
C1199 H1223 0.949 . S
H1200 C1204 0.949 . S
C1201 C1202 1.349 . S
C1201 C1203 1.327 . S
C1201 H1224 0.950 . S
C1202 C1201 1.349 . S
C1202 C1214 1.349 . S
C1203 C1201 1.327 . S
C1203 C1219 1.429 . S
C1203 H1225 0.950 . S
C1204 H1200 0.949 . S
C1204 C1212 1.574 . S
C1204 C1220 1.368 . S
H1205 C1213 0.950 . S
H1206 C1211 0.950 . S
H1207 C1212 0.949 . S
H1208 C1214 0.950 . S
H1209 C1215 0.950 . S
H1210 C1216 0.949 . S
C1211 H1206 0.950 . S
C1211 C1213 1.327 . S
C1211 C1217 1.429 . S
C1212 C1204 1.574 . S
C1212 H1207 0.949 . S
C1212 C1218 1.368 . S
C1213 C1197 1.349 . S
C1213 H1205 0.950 . S
C1213 C1211 1.327 . S
C1214 C1202 1.349 . S
C1214 H1208 0.950 . S
C1214 C1215 1.327 . S
C1215 H1209 0.950 . S
C1215 C1214 1.327 . S
C1215 C1219 1.429 . S
C1216 C1199 1.574 . S
C1216 H1210 0.949 . S
C1216 C1220 1.368 . S
C1217 C1198 1.429 . S
C1217 C1211 1.429 . S
C1217 C1218 1.523 . S
C1218 C1199 1.368 . S
C1218 C1212 1.368 . S
C1218 C1217 1.523 . S
C1219 C1203 1.429 . S
C1219 C1215 1.429 . S
C1219 C1220 1.523 . S
C1220 C1204 1.368 . S
C1220 C1216 1.368 . S
C1220 C1219 1.523 . S
H1221 C1196 0.950 . S
H1222 C1198 0.950 . S
H1223 C1199 0.949 . S
H1224 C1201 0.950 . S
H1225 C1203 0.950 . S
C1226 C1227 1.349 . S
C1226 C1228 1.327 . S
C1226 H1251 0.950 . S
C1227 C1226 1.349 . S
C1227 C1243 1.349 . S
C1228 C1226 1.327 . S
C1228 C1247 1.429 . S
C1228 H1252 0.950 . S
C1229 C1246 1.574 . S
C1229 C1248 1.368 . S
C1229 H1253 0.949 . S
H1230 C1234 0.949 . S
C1231 C1232 1.349 . S
C1231 C1233 1.327 . S
C1231 H1254 0.950 . S
C1232 C1231 1.349 . S
C1232 C1244 1.349 . S
C1233 C1231 1.327 . S
C1233 C1249 1.429 . S
C1233 H1255 0.950 . S
C1234 H1230 0.949 . S
C1234 C1242 1.574 . S
C1234 C1250 1.368 . S
H1235 C1243 0.950 . S
H1236 C1241 0.950 . S
H1237 C1242 0.949 . S
H1238 C1244 0.950 . S
H1239 C1245 0.950 . S
H1240 C1246 0.949 . S
C1241 H1236 0.950 . S
C1241 C1243 1.327 . S
C1241 C1247 1.429 . S
C1242 C1234 1.574 . S
C1242 H1237 0.949 . S
C1242 C1248 1.368 . S
C1243 C1227 1.349 . S
C1243 H1235 0.950 . S
C1243 C1241 1.327 . S
C1244 C1232 1.349 . S
C1244 H1238 0.950 . S
C1244 C1245 1.327 . S
C1245 H1239 0.950 . S
C1245 C1244 1.327 . S
C1245 C1249 1.429 . S
C1246 C1229 1.574 . S
C1246 H1240 0.949 . S
C1246 C1250 1.368 . S
C1247 C1228 1.429 . S
C1247 C1241 1.429 . S
C1247 C1248 1.523 . S
C1248 C1229 1.368 . S
C1248 C1242 1.368 . S
C1248 C1247 1.523 . S
C1249 C1233 1.429 . S
C1249 C1245 1.429 . S
C1249 C1250 1.523 . S
C1250 C1234 1.368 . S
C1250 C1246 1.368 . S
C1250 C1249 1.523 . S
H1251 C1226 0.950 . S
H1252 C1228 0.950 . S
H1253 C1229 0.949 . S
H1254 C1231 0.950 . S
H1255 C1233 0.950 . S
C1256 C1257 1.349 . S
C1256 C1258 1.327 . S
C1256 H1281 0.950 . S
C1257 C1256 1.349 . S
C1257 C1273 1.349 . S
C1258 C1256 1.327 . S
C1258 C1277 1.429 . S
C1258 H1282 0.950 . S
C1259 C1276 1.574 . S
C1259 C1278 1.368 . S
C1259 H1283 0.949 . S
H1260 C1264 0.949 . S
C1261 C1262 1.349 . S
C1261 C1263 1.327 . S
C1261 H1284 0.950 . S
C1262 C1261 1.349 . S
C1262 C1274 1.349 . S
C1263 C1261 1.327 . S
C1263 C1279 1.429 . S
C1263 H1285 0.950 . S
C1264 H1260 0.949 . S
C1264 C1272 1.574 . S
C1264 C1280 1.368 . S
H1265 C1273 0.950 . S
H1266 C1271 0.950 . S
H1267 C1272 0.949 . S
H1268 C1274 0.928 1_554 S
H1269 C1275 0.950 . S
H1270 C1276 0.949 . S
C1271 H1266 0.950 . S
C1271 C1273 1.327 . S
C1271 C1277 1.429 . S
C1272 C1264 1.574 . S
C1272 H1267 0.949 . S
C1272 C1278 1.368 . S
C1273 C1257 1.349 . S
C1273 H1265 0.950 . S
C1273 C1271 1.327 . S
C1274 C1262 1.349 . S
C1274 H1268 0.928 1_556 S
C1274 C1275 1.327 . S
C1275 H1269 0.950 . S
C1275 C1274 1.327 . S
C1275 C1279 1.429 . S
C1276 C1259 1.574 . S
C1276 H1270 0.949 . S
C1276 C1280 1.368 . S
C1277 C1258 1.429 . S
C1277 C1271 1.429 . S
C1277 C1278 1.523 . S
C1278 C1259 1.368 . S
C1278 C1272 1.368 . S
C1278 C1277 1.523 . S
C1279 C1263 1.429 . S
C1279 C1275 1.429 . S
C1279 C1280 1.523 . S
C1280 C1264 1.368 . S
C1280 C1276 1.368 . S
C1280 C1279 1.523 . S
H1281 C1256 0.950 . S
H1282 C1258 0.950 . S
H1283 C1259 0.949 . S
H1284 C1261 0.950 . S
H1285 C1263 0.950 . S
C1286 C1287 1.349 . S
C1286 C1288 1.327 . S
C1286 H1311 0.950 . S
C1287 C1286 1.349 . S
C1287 C1303 1.349 . S
C1288 C1286 1.327 . S
C1288 C1307 1.429 . S
C1288 H1312 0.950 . S
C1289 C1306 1.574 . S
C1289 C1308 1.368 . S
C1289 H1313 0.949 . S
H1290 C1294 0.949 . S
C1291 C1292 1.349 . S
C1291 C1293 1.327 . S
C1291 H1314 0.950 . S
C1292 C1291 1.349 . S
C1292 C1304 1.349 . S
C1293 C1291 1.327 . S
C1293 C1309 1.429 . S
C1293 H1315 0.950 . S
C1294 H1290 0.949 . S
C1294 C1302 1.574 . S
C1294 C1310 1.368 . S
H1295 C1303 0.950 . S
H1296 C1301 0.950 . S
H1297 C1302 0.949 . S
H1298 C1304 0.950 . S
H1299 C1305 0.950 . S
H1300 C1306 0.949 . S
C1301 H1296 0.950 . S
C1301 C1303 1.327 . S
C1301 C1307 1.429 . S
C1302 C1294 1.574 . S
C1302 H1297 0.949 . S
C1302 C1308 1.368 . S
C1303 C1287 1.349 . S
C1303 H1295 0.950 . S
C1303 C1301 1.327 . S
C1304 C1292 1.349 . S
C1304 H1298 0.950 . S
C1304 C1305 1.327 . S
C1305 H1299 0.950 . S
C1305 C1304 1.327 . S
C1305 C1309 1.429 . S
C1306 C1289 1.574 . S
C1306 H1300 0.949 . S
C1306 C1310 1.368 . S
C1307 C1288 1.429 . S
C1307 C1301 1.429 . S
C1307 C1308 1.523 . S
C1308 C1289 1.368 . S
C1308 C1302 1.368 . S
C1308 C1307 1.523 . S
C1309 C1293 1.429 . S
C1309 C1305 1.429 . S
C1309 C1310 1.523 . S
C1310 C1294 1.368 . S
C1310 C1306 1.368 . S
C1310 C1309 1.523 . S
H1311 C1286 0.950 . S
H1312 C1288 0.950 . S
H1313 C1289 0.949 . S
H1314 C1291 0.950 . S
H1315 C1293 0.950 . S
C1316 C1317 1.349 . S
C1316 C1318 1.327 . S
C1316 H1341 0.950 . S
C1317 C1316 1.349 . S
C1317 C1333 1.349 . S
C1318 C1316 1.327 . S
C1318 C1337 1.429 . S
C1318 H1342 0.950 . S
C1319 C1336 1.574 . S
C1319 C1338 1.368 . S
C1319 H1343 0.949 . S
H1320 C1324 0.949 . S
C1321 C1322 1.349 . S
C1321 C1323 1.327 . S
C1321 H1344 0.950 . S
C1322 C1321 1.349 . S
C1322 C1334 1.349 . S
C1323 C1321 1.327 . S
C1323 C1339 1.429 . S
C1323 H1345 0.950 . S
C1324 H1320 0.949 . S
C1324 C1332 1.574 . S
C1324 C1340 1.368 . S
H1325 C1333 0.950 . S
H1326 C1331 0.950 . S
H1327 C1332 0.949 . S
H1328 C1334 0.950 . S
H1329 C1335 0.950 . S
H1330 C1336 0.949 . S
C1331 H1326 0.950 . S
C1331 C1333 1.327 . S
C1331 C1337 1.429 . S
C1332 C1324 1.574 . S
C1332 H1327 0.949 . S
C1332 C1338 1.368 . S
C1333 C1317 1.349 . S
C1333 H1325 0.950 . S
C1333 C1331 1.327 . S
C1334 C1322 1.349 . S
C1334 H1328 0.950 . S
C1334 C1335 1.327 . S
C1335 H1329 0.950 . S
C1335 C1334 1.327 . S
C1335 C1339 1.429 . S
C1336 C1319 1.574 . S
C1336 H1330 0.949 . S
C1336 C1340 1.368 . S
C1337 C1318 1.429 . S
C1337 C1331 1.429 . S
C1337 C1338 1.523 . S
C1338 C1319 1.368 . S
C1338 C1332 1.368 . S
C1338 C1337 1.523 . S
C1339 C1323 1.429 . S
C1339 C1335 1.429 . S
C1339 C1340 1.523 . S
C1340 C1324 1.368 . S
C1340 C1336 1.368 . S
C1340 C1339 1.523 . S
H1341 C1316 0.950 . S
H1342 C1318 0.950 . S
H1343 C1319 0.949 . S
H1344 C1321 0.950 . S
H1345 C1323 0.950 . S
C1346 C1347 1.349 . S
C1346 C1348 1.327 . S
C1346 H1371 0.950 . S
C1347 C1346 1.349 . S
C1347 C1363 1.349 . S
C1348 C1346 1.327 . S
C1348 C1367 1.429 . S
C1348 H1372 0.950 . S
C1349 C1366 1.574 . S
C1349 C1368 1.368 . S
C1349 H1373 0.949 . S
H1350 C1354 0.949 . S
C1351 C1352 1.349 . S
C1351 C1353 1.327 . S
C1351 H1374 0.950 . S
C1352 C1351 1.349 . S
C1352 C1364 1.349 . S
C1353 C1351 1.327 . S
C1353 C1369 1.429 . S
C1353 H1375 0.950 . S
C1354 H1350 0.949 . S
C1354 C1362 1.574 . S
C1354 C1370 1.368 . S
H1355 C1363 0.950 . S
H1356 C1361 0.950 . S
H1357 C1362 0.949 . S
H1358 C1364 0.950 . S
H1359 C1365 0.950 . S
H1360 C1366 0.949 . S
C1361 H1356 0.950 . S
C1361 C1363 1.327 . S
C1361 C1367 1.429 . S
C1362 C1354 1.574 . S
C1362 H1357 0.949 . S
C1362 C1368 1.368 . S
C1363 C1347 1.349 . S
C1363 H1355 0.950 . S
C1363 C1361 1.327 . S
C1364 C1352 1.349 . S
C1364 H1358 0.950 . S
C1364 C1365 1.327 . S
C1365 H1359 0.950 . S
C1365 C1364 1.327 . S
C1365 C1369 1.429 . S
C1366 C1349 1.574 . S
C1366 H1360 0.949 . S
C1366 C1370 1.368 . S
C1367 C1348 1.429 . S
C1367 C1361 1.429 . S
C1367 C1368 1.523 . S
C1368 C1349 1.368 . S
C1368 C1362 1.368 . S
C1368 C1367 1.523 . S
C1369 C1353 1.429 . S
C1369 C1365 1.429 . S
C1369 C1370 1.523 . S
C1370 C1354 1.368 . S
C1370 C1366 1.368 . S
C1370 C1369 1.523 . S
H1371 C1346 0.950 . S
H1372 C1348 0.950 . S
H1373 C1349 0.949 . S
H1374 C1351 0.950 . S
H1375 C1353 0.950 . S
C1376 C1377 1.349 . S
C1376 C1378 1.327 . S
C1376 H1401 0.950 . S
C1377 C1376 1.349 . S
C1377 C1393 1.349 . S
C1378 C1376 1.327 . S
C1378 C1397 1.429 . S
C1378 H1402 0.950 . S
C1379 C1396 1.574 . S
C1379 C1398 1.368 . S
C1379 H1403 0.949 . S
H1380 C1384 0.949 . S
C1381 C1382 1.349 . S
C1381 C1383 1.327 . S
C1381 H1404 0.950 . S
C1382 C1381 1.349 . S
C1382 C1394 1.349 . S
C1383 C1381 1.327 . S
C1383 C1399 1.429 . S
C1383 H1405 0.950 . S
C1384 H1380 0.949 . S
C1384 C1392 1.574 . S
C1384 C1400 1.368 . S
H1385 C1393 0.950 . S
H1386 C1391 0.950 . S
H1387 C1392 0.949 . S
H1388 C1394 0.950 . S
H1389 C1395 0.950 . S
H1390 C1396 0.949 . S
C1391 H1386 0.950 . S
C1391 C1393 1.327 . S
C1391 C1397 1.429 . S
C1392 C1384 1.574 . S
C1392 H1387 0.949 . S
C1392 C1398 1.368 . S
C1393 C1377 1.349 . S
C1393 H1385 0.950 . S
C1393 C1391 1.327 . S
C1394 C1382 1.349 . S
C1394 H1388 0.950 . S
C1394 C1395 1.327 . S
C1395 H1389 0.950 . S
C1395 C1394 1.327 . S
C1395 C1399 1.429 . S
C1396 C1379 1.574 . S
C1396 H1390 0.949 . S
C1396 C1400 1.368 . S
C1397 C1378 1.429 . S
C1397 C1391 1.429 . S
C1397 C1398 1.523 . S
C1398 C1379 1.368 . S
C1398 C1392 1.368 . S
C1398 C1397 1.523 . S
C1399 C1383 1.429 . S
C1399 C1395 1.429 . S
C1399 C1400 1.523 . S
C1400 C1384 1.368 . S
C1400 C1396 1.368 . S
C1400 C1399 1.523 . S
H1401 C1376 0.950 . S
H1402 C1378 0.950 . S
H1403 C1379 0.949 . S
H1404 C1381 0.950 . S
H1405 C1383 0.950 . S
C1406 C1407 1.349 . S
C1406 C1408 1.327 . S
C1406 H1431 0.950 . S
C1407 C1406 1.349 . S
C1407 C1423 1.349 . S
C1408 C1406 1.327 . S
C1408 C1427 1.429 . S
C1408 H1432 0.950 . S
C1409 C1426 1.574 . S
C1409 C1428 1.368 . S
C1409 H1433 0.949 . S
H1410 C1414 0.949 . S
C1411 C1412 1.349 . S
C1411 C1413 1.327 . S
C1411 H1434 0.950 . S
C1412 C1411 1.349 . S
C1412 C1424 1.349 . S
C1413 C1411 1.327 . S
C1413 C1429 1.429 . S
C1413 H1435 0.950 . S
C1414 H1410 0.949 . S
C1414 C1422 1.574 . S
C1414 C1430 1.368 . S
H1415 C1423 0.950 . S
H1416 C1421 0.950 . S
H1417 C1422 0.949 . S
H1418 C1424 0.950 . S
H1419 C1425 0.950 . S
H1420 C1426 0.949 . S
C1421 H1416 0.950 . S
C1421 C1423 1.327 . S
C1421 C1427 1.429 . S
C1422 C1414 1.574 . S
C1422 H1417 0.949 . S
C1422 C1428 1.368 . S
C1423 C1407 1.349 . S
C1423 H1415 0.950 . S
C1423 C1421 1.327 . S
C1424 C1412 1.349 . S
C1424 H1418 0.950 . S
C1424 C1425 1.327 . S
C1425 H1419 0.950 . S
C1425 C1424 1.327 . S
C1425 C1429 1.429 . S
C1426 C1409 1.574 . S
C1426 H1420 0.949 . S
C1426 C1430 1.368 . S
C1427 C1408 1.429 . S
C1427 C1421 1.429 . S
C1427 C1428 1.523 . S
C1428 C1409 1.368 . S
C1428 C1422 1.368 . S
C1428 C1427 1.523 . S
C1429 C1413 1.429 . S
C1429 C1425 1.429 . S
C1429 C1430 1.523 . S
C1430 C1414 1.368 . S
C1430 C1426 1.368 . S
C1430 C1429 1.523 . S
H1431 C1406 0.950 . S
H1432 C1408 0.950 . S
H1433 C1409 0.949 . S
H1434 C1411 0.950 . S
H1435 C1413 0.950 . S
C1436 C1437 1.349 . S
C1436 C1438 1.327 . S
C1436 H1461 0.950 . S
C1437 C1436 1.349 . S
C1437 C1453 1.349 . S
C1438 C1436 1.327 . S
C1438 C1457 1.429 . S
C1438 H1462 0.950 . S
C1439 C1456 1.574 . S
C1439 C1458 1.368 . S
C1439 H1463 0.949 . S
H1440 C1444 0.949 . S
C1441 C1442 1.349 . S
C1441 C1443 1.327 . S
C1441 H1464 0.950 . S
C1442 C1441 1.349 . S
C1442 C1454 1.349 . S
C1443 C1441 1.327 . S
C1443 C1459 1.429 . S
C1443 H1465 0.950 . S
C1444 H1440 0.949 . S
C1444 C1452 1.574 . S
C1444 C1460 1.368 . S
H1445 C1453 0.950 . S
H1446 C1451 0.950 . S
H1447 C1452 0.949 . S
H1448 C1454 0.950 . S
H1449 C1455 0.950 . S
H1450 C1456 0.949 . S
C1451 H1446 0.950 . S
C1451 C1453 1.327 . S
C1451 C1457 1.429 . S
C1452 C1444 1.574 . S
C1452 H1447 0.949 . S
C1452 C1458 1.368 . S
C1453 C1437 1.349 . S
C1453 H1445 0.950 . S
C1453 C1451 1.327 . S
C1454 C1442 1.349 . S
C1454 H1448 0.950 . S
C1454 C1455 1.327 . S
C1455 H1449 0.950 . S
C1455 C1454 1.327 . S
C1455 C1459 1.429 . S
C1456 C1439 1.574 . S
C1456 H1450 0.949 . S
C1456 C1460 1.368 . S
C1457 C1438 1.429 . S
C1457 C1451 1.429 . S
C1457 C1458 1.523 . S
C1458 C1439 1.368 . S
C1458 C1452 1.368 . S
C1458 C1457 1.523 . S
C1459 C1443 1.429 . S
C1459 C1455 1.429 . S
C1459 C1460 1.523 . S
C1460 C1444 1.368 . S
C1460 C1456 1.368 . S
C1460 C1459 1.523 . S
H1461 C1436 0.950 . S
H1462 C1438 0.950 . S
H1463 C1439 0.949 . S
H1464 C1441 0.950 . S
H1465 C1443 0.950 . S
C1466 C1467 1.349 . S
C1466 C1468 1.327 . S
C1466 H1491 0.950 . S
C1467 C1466 1.349 . S
C1467 C1483 1.349 . S
C1468 C1466 1.327 . S
C1468 C1487 1.429 . S
C1468 H1492 0.950 . S
C1469 C1486 1.574 . S
C1469 C1488 1.368 . S
C1469 H1493 0.949 . S
H1470 C1474 0.949 . S
C1471 C1472 1.349 . S
C1471 C1473 1.327 . S
C1471 H1494 0.950 . S
C1472 C1471 1.349 . S
C1472 C1484 1.349 . S
C1473 C1471 1.327 . S
C1473 C1489 1.429 . S
C1473 H1495 0.950 . S
C1474 H1470 0.949 . S
C1474 C1482 1.574 . S
C1474 C1490 1.368 . S
H1475 C1483 0.950 . S
H1476 C1481 0.950 . S
H1477 C1482 0.949 . S
H1478 C1484 0.950 . S
H1479 C1485 0.950 . S
H1480 C1486 0.949 . S
C1481 H1476 0.950 . S
C1481 C1483 1.327 . S
C1481 C1487 1.429 . S
C1482 C1474 1.574 . S
C1482 H1477 0.949 . S
C1482 C1488 1.368 . S
C1483 C1467 1.349 . S
C1483 H1475 0.950 . S
C1483 C1481 1.327 . S
C1484 C1472 1.349 . S
C1484 H1478 0.950 . S
C1484 C1485 1.327 . S
C1485 H1479 0.950 . S
C1485 C1484 1.327 . S
C1485 C1489 1.429 . S
C1486 C1469 1.574 . S
C1486 H1480 0.949 . S
C1486 C1490 1.368 . S
C1487 C1468 1.429 . S
C1487 C1481 1.429 . S
C1487 C1488 1.523 . S
C1488 C1469 1.368 . S
C1488 C1482 1.368 . S
C1488 C1487 1.523 . S
C1489 C1473 1.429 . S
C1489 C1485 1.429 . S
C1489 C1490 1.523 . S
C1490 C1474 1.368 . S
C1490 C1486 1.368 . S
C1490 C1489 1.523 . S
H1491 C1466 0.950 . S
H1492 C1468 0.950 . S
H1493 C1469 0.949 . S
H1494 C1471 0.950 . S
H1495 C1473 0.950 . S
C1496 C1497 1.349 . S
C1496 C1498 1.327 . S
C1496 H1521 0.950 . S
C1497 C1496 1.349 . S
C1497 C1513 1.349 . S
C1498 C1496 1.327 . S
C1498 C1517 1.429 . S
C1498 H1522 0.950 . S
C1499 C1516 1.574 . S
C1499 C1518 1.368 . S
C1499 H1523 0.949 . S
H1500 C1504 0.949 . S
C1501 C1502 1.349 . S
C1501 C1503 1.327 . S
C1501 H1524 0.950 . S
C1502 C1501 1.349 . S
C1502 C1514 1.349 . S
C1503 C1501 1.327 . S
C1503 C1519 1.429 . S
C1503 H1525 0.950 . S
C1504 H1500 0.949 . S
C1504 C1512 1.574 . S
C1504 C1520 1.368 . S
H1505 C1513 0.950 . S
H1506 C1511 0.950 . S
H1507 C1512 0.949 . S
H1508 C1514 0.950 . S
H1509 C1515 0.950 . S
H1510 C1516 0.949 . S
C1511 H1506 0.950 . S
C1511 C1513 1.327 . S
C1511 C1517 1.429 . S
C1512 C1504 1.574 . S
C1512 H1507 0.949 . S
C1512 C1518 1.368 . S
C1513 C1497 1.349 . S
C1513 H1505 0.950 . S
C1513 C1511 1.327 . S
C1514 C1502 1.349 . S
C1514 H1508 0.950 . S
C1514 C1515 1.327 . S
C1515 H1509 0.950 . S
C1515 C1514 1.327 . S
C1515 C1519 1.429 . S
C1516 C1499 1.574 . S
C1516 H1510 0.949 . S
C1516 C1520 1.368 . S
C1517 C1498 1.429 . S
C1517 C1511 1.429 . S
C1517 C1518 1.523 . S
C1518 C1499 1.368 . S
C1518 C1512 1.368 . S
C1518 C1517 1.523 . S
C1519 C1503 1.429 . S
C1519 C1515 1.429 . S
C1519 C1520 1.523 . S
C1520 C1504 1.368 . S
C1520 C1516 1.368 . S
C1520 C1519 1.523 . S
H1521 C1496 0.950 . S
H1522 C1498 0.950 . S
H1523 C1499 0.949 . S
H1524 C1501 0.950 . S
H1525 C1503 0.950 . S
C1526 C1527 1.349 . S
C1526 C1528 1.327 . S
C1526 H1551 0.950 . S
C1527 C1526 1.349 . S
C1527 C1543 1.349 . S
C1528 C1526 1.327 . S
C1528 C1547 1.429 . S
C1528 H1552 0.950 . S
C1529 C1546 1.574 . S
C1529 C1548 1.368 . S
C1529 H1553 0.949 . S
H1530 C1534 0.949 . S
C1531 C1532 1.349 . S
C1531 C1533 1.327 . S
C1531 H1554 0.950 . S
C1532 C1531 1.349 . S
C1532 C1544 1.349 . S
C1533 C1531 1.327 . S
C1533 C1549 1.429 . S
C1533 H1555 0.950 . S
C1534 H1530 0.949 . S
C1534 C1542 1.574 . S
C1534 C1550 1.368 . S
H1535 C1543 0.950 . S
H1536 C1541 0.950 . S
H1537 C1542 0.949 . S
H1538 C1544 0.950 . S
H1539 C1545 0.950 . S
H1540 C1546 0.949 . S
C1541 H1536 0.950 . S
C1541 C1543 1.327 . S
C1541 C1547 1.429 . S
C1542 C1534 1.574 . S
C1542 H1537 0.949 . S
C1542 C1548 1.368 . S
C1543 C1527 1.349 . S
C1543 H1535 0.950 . S
C1543 C1541 1.327 . S
C1544 C1532 1.349 . S
C1544 H1538 0.950 . S
C1544 C1545 1.327 . S
C1545 H1539 0.950 . S
C1545 C1544 1.327 . S
C1545 C1549 1.429 . S
C1546 C1529 1.574 . S
C1546 H1540 0.949 . S
C1546 C1550 1.368 . S
C1547 C1528 1.429 . S
C1547 C1541 1.429 . S
C1547 C1548 1.523 . S
C1548 C1529 1.368 . S
C1548 C1542 1.368 . S
C1548 C1547 1.523 . S
C1549 C1533 1.429 . S
C1549 C1545 1.429 . S
C1549 C1550 1.523 . S
C1550 C1534 1.368 . S
C1550 C1546 1.368 . S
C1550 C1549 1.523 . S
H1551 C1526 0.950 . S
H1552 C1528 0.950 . S
H1553 C1529 0.949 . S
H1554 C1531 0.950 . S
H1555 C1533 0.950 . S
C1556 C1557 1.349 . S
C1556 C1558 1.327 . S
C1556 H1581 0.950 . S
C1557 C1556 1.349 . S
C1557 C1573 1.349 . S
C1558 C1556 1.327 . S
C1558 C1577 1.429 . S
C1558 H1582 0.950 . S
C1559 C1576 1.574 . S
C1559 C1578 1.368 . S
C1559 H1583 0.949 . S
H1560 C1564 0.949 . S
C1561 C1562 1.349 . S
C1561 C1563 1.327 . S
C1561 H1584 0.950 . S
C1562 C1561 1.349 . S
C1562 C1574 1.349 . S
C1563 C1561 1.327 . S
C1563 C1579 1.429 . S
C1563 H1585 0.950 . S
C1564 H1560 0.949 . S
C1564 C1572 1.574 . S
C1564 C1580 1.368 . S
H1565 C1573 0.950 . S
H1566 C1571 0.950 . S
H1567 C1572 0.949 . S
H1568 C1574 0.950 . S
H1569 C1575 0.950 . S
H1570 C1576 0.949 . S
C1571 H1566 0.950 . S
C1571 C1573 1.327 . S
C1571 C1577 1.429 . S
C1572 C1564 1.574 . S
C1572 H1567 0.949 . S
C1572 C1578 1.368 . S
C1573 C1557 1.349 . S
C1573 H1565 0.950 . S
C1573 C1571 1.327 . S
C1574 C1562 1.349 . S
C1574 H1568 0.950 . S
C1574 C1575 1.327 . S
C1575 H1569 0.950 . S
C1575 C1574 1.327 . S
C1575 C1579 1.429 . S
C1576 C1559 1.574 . S
C1576 H1570 0.949 . S
C1576 C1580 1.368 . S
C1577 C1558 1.429 . S
C1577 C1571 1.429 . S
C1577 C1578 1.523 . S
C1578 C1559 1.368 . S
C1578 C1572 1.368 . S
C1578 C1577 1.523 . S
C1579 C1563 1.429 . S
C1579 C1575 1.429 . S
C1579 C1580 1.523 . S
C1580 C1564 1.368 . S
C1580 C1576 1.368 . S
C1580 C1579 1.523 . S
H1581 C1556 0.950 . S
H1582 C1558 0.950 . S
H1583 C1559 0.949 . S
H1584 C1561 0.950 . S
H1585 C1563 0.950 . S
C1586 C1587 1.349 . S
C1586 C1588 1.327 . S
C1586 H1611 0.950 . S
C1587 C1586 1.349 . S
C1587 C1603 1.349 . S
C1588 C1586 1.327 . S
C1588 C1607 1.429 . S
C1588 H1612 0.950 . S
C1589 C1606 1.574 . S
C1589 C1608 1.368 . S
C1589 H1613 0.949 . S
H1590 C1594 0.949 . S
C1591 C1592 1.349 . S
C1591 C1593 1.327 . S
C1591 H1614 0.950 . S
C1592 C1591 1.349 . S
C1592 C1604 1.349 . S
C1593 C1591 1.327 . S
C1593 C1609 1.429 . S
C1593 H1615 0.950 . S
C1594 H1590 0.949 . S
C1594 C1602 1.574 . S
C1594 C1610 1.368 . S
H1595 C1603 0.950 . S
H1596 C1601 0.950 . S
H1597 C1602 0.949 . S
H1598 C1604 0.950 . S
H1599 C1605 0.950 . S
H1600 C1606 0.949 . S
C1601 H1596 0.950 . S
C1601 C1603 1.327 . S
C1601 C1607 1.429 . S
C1602 C1594 1.574 . S
C1602 H1597 0.949 . S
C1602 C1608 1.368 . S
C1603 C1587 1.349 . S
C1603 H1595 0.950 . S
C1603 C1601 1.327 . S
C1604 C1592 1.349 . S
C1604 H1598 0.950 . S
C1604 C1605 1.327 . S
C1605 H1599 0.950 . S
C1605 C1604 1.327 . S
C1605 C1609 1.429 . S
C1606 C1589 1.574 . S
C1606 H1600 0.949 . S
C1606 C1610 1.368 . S
C1607 C1588 1.429 . S
C1607 C1601 1.429 . S
C1607 C1608 1.523 . S
C1608 C1589 1.368 . S
C1608 C1602 1.368 . S
C1608 C1607 1.523 . S
C1609 C1593 1.429 . S
C1609 C1605 1.429 . S
C1609 C1610 1.523 . S
C1610 C1594 1.368 . S
C1610 C1606 1.368 . S
C1610 C1609 1.523 . S
H1611 C1586 0.950 . S
H1612 C1588 0.950 . S
H1613 C1589 0.949 . S
H1614 C1591 0.950 . S
H1615 C1593 0.950 . S
C1616 C1617 1.349 . S
C1616 C1618 1.327 . S
C1616 H1641 0.950 . S
C1617 C1616 1.349 . S
C1617 C1633 1.349 . S
C1618 C1616 1.327 . S
C1618 C1637 1.429 . S
C1618 H1642 0.950 . S
C1619 C1636 1.574 . S
C1619 C1638 1.368 . S
C1619 H1643 0.949 . S
H1620 C1624 0.949 . S
C1621 C1622 1.349 . S
C1621 C1623 1.327 . S
C1621 H1644 0.950 . S
C1622 C1621 1.349 . S
C1622 C1634 1.349 . S
C1623 C1621 1.327 . S
C1623 C1639 1.429 . S
C1623 H1645 0.950 . S
C1624 H1620 0.949 . S
C1624 C1632 1.574 . S
C1624 C1640 1.368 . S
H1625 C1633 0.950 . S
H1626 C1631 0.950 . S
H1627 C1632 0.949 . S
H1628 C1634 0.950 . S
H1629 C1635 0.950 . S
H1630 C1636 0.949 . S
C1631 H1626 0.950 . S
C1631 C1633 1.327 . S
C1631 C1637 1.429 . S
C1632 C1624 1.574 . S
C1632 H1627 0.949 . S
C1632 C1638 1.368 . S
C1633 C1617 1.349 . S
C1633 H1625 0.950 . S
C1633 C1631 1.327 . S
C1634 C1622 1.349 . S
C1634 H1628 0.950 . S
C1634 C1635 1.327 . S
C1635 H1629 0.950 . S
C1635 C1634 1.327 . S
C1635 C1639 1.429 . S
C1636 C1619 1.574 . S
C1636 H1630 0.949 . S
C1636 C1640 1.368 . S
C1637 C1618 1.429 . S
C1637 C1631 1.429 . S
C1637 C1638 1.523 . S
C1638 C1619 1.368 . S
C1638 C1632 1.368 . S
C1638 C1637 1.523 . S
C1639 C1623 1.429 . S
C1639 C1635 1.429 . S
C1639 C1640 1.523 . S
C1640 C1624 1.368 . S
C1640 C1636 1.368 . S
C1640 C1639 1.523 . S
H1641 C1616 0.950 . S
H1642 C1618 0.950 . S
H1643 C1619 0.949 . S
H1644 C1621 0.950 . S
H1645 C1623 0.950 . S
C1646 C1647 1.349 . S
C1646 C1648 1.327 . S
C1646 H1671 0.950 . S
C1647 C1646 1.349 . S
C1647 C1663 1.349 . S
C1648 C1646 1.327 . S
C1648 C1667 1.429 . S
C1648 H1672 0.950 . S
C1649 C1666 1.574 . S
C1649 C1668 1.368 . S
C1649 H1673 0.949 . S
H1650 C1654 0.949 . S
C1651 C1652 1.349 . S
C1651 C1653 1.327 . S
C1651 H1674 0.950 . S
C1652 C1651 1.349 . S
C1652 C1664 1.349 . S
C1653 C1651 1.327 . S
C1653 C1669 1.429 . S
C1653 H1675 0.950 . S
C1654 H1650 0.949 . S
C1654 C1662 1.574 . S
C1654 C1670 1.368 . S
H1655 C1663 0.950 . S
H1656 C1661 0.950 . S
H1657 C1662 0.949 . S
H1658 C1664 0.950 . S
H1659 C1665 0.950 . S
H1660 C1666 0.949 . S
C1661 H1656 0.950 . S
C1661 C1663 1.327 . S
C1661 C1667 1.429 . S
C1662 C1654 1.574 . S
C1662 H1657 0.949 . S
C1662 C1668 1.368 . S
C1663 C1647 1.349 . S
C1663 H1655 0.950 . S
C1663 C1661 1.327 . S
C1664 C1652 1.349 . S
C1664 H1658 0.950 . S
C1664 C1665 1.327 . S
C1665 H1659 0.950 . S
C1665 C1664 1.327 . S
C1665 C1669 1.429 . S
C1666 C1649 1.574 . S
C1666 H1660 0.949 . S
C1666 C1670 1.368 . S
C1667 C1648 1.429 . S
C1667 C1661 1.429 . S
C1667 C1668 1.523 . S
C1668 C1649 1.368 . S
C1668 C1662 1.368 . S
C1668 C1667 1.523 . S
C1669 C1653 1.429 . S
C1669 C1665 1.429 . S
C1669 C1670 1.523 . S
C1670 C1654 1.368 . S
C1670 C1666 1.368 . S
C1670 C1669 1.523 . S
H1671 C1646 0.950 . S
H1672 C1648 0.950 . S
H1673 C1649 0.949 . S
H1674 C1651 0.950 . S
H1675 C1653 0.950 . S
C1676 C1677 1.349 . S
C1676 C1678 1.327 . S
C1676 H1701 0.950 . S
C1677 C1676 1.349 . S
C1677 C1693 1.349 . S
C1678 C1676 1.327 . S
C1678 C1697 1.429 . S
C1678 H1702 0.950 . S
C1679 C1696 1.574 . S
C1679 C1698 1.368 . S
C1679 H1703 0.949 . S
H1680 C1684 0.949 . S
C1681 C1682 1.349 . S
C1681 C1683 1.327 . S
C1681 H1704 0.950 . S
C1682 C1681 1.349 . S
C1682 C1694 1.349 . S
C1683 C1681 1.327 . S
C1683 C1699 1.429 . S
C1683 H1705 0.950 . S
C1684 H1680 0.949 . S
C1684 C1692 1.574 . S
C1684 C1700 1.368 . S
H1685 C1693 0.950 . S
H1686 C1691 0.950 . S
H1687 C1692 0.949 . S
H1688 C1694 0.950 . S
H1689 C1695 0.950 . S
H1690 C1696 0.949 . S
C1691 H1686 0.950 . S
C1691 C1693 1.327 . S
C1691 C1697 1.429 . S
C1692 C1684 1.574 . S
C1692 H1687 0.949 . S
C1692 C1698 1.368 . S
C1693 C1677 1.349 . S
C1693 H1685 0.950 . S
C1693 C1691 1.327 . S
C1694 C1682 1.349 . S
C1694 H1688 0.950 . S
C1694 C1695 1.327 . S
C1695 H1689 0.950 . S
C1695 C1694 1.327 . S
C1695 C1699 1.429 . S
C1696 C1679 1.574 . S
C1696 H1690 0.949 . S
C1696 C1700 1.368 . S
C1697 C1678 1.429 . S
C1697 C1691 1.429 . S
C1697 C1698 1.523 . S
C1698 C1679 1.368 . S
C1698 C1692 1.368 . S
C1698 C1697 1.523 . S
C1699 C1683 1.429 . S
C1699 C1695 1.429 . S
C1699 C1700 1.523 . S
C1700 C1684 1.368 . S
C1700 C1696 1.368 . S
C1700 C1699 1.523 . S
H1701 C1676 0.950 . S
H1702 C1678 0.950 . S
H1703 C1679 0.949 . S
H1704 C1681 0.950 . S
H1705 C1683 0.950 . S
C1706 C1707 1.349 . S
C1706 C1708 1.327 . S
C1706 H1731 0.950 . S
C1707 C1706 1.349 . S
C1707 C1723 1.349 . S
C1708 C1706 1.327 . S
C1708 C1727 1.429 . S
C1708 H1732 0.950 . S
C1709 C1726 1.574 . S
C1709 C1728 1.368 . S
C1709 H1733 0.949 . S
H1710 C1714 0.949 . S
C1711 C1712 1.349 . S
C1711 C1713 1.327 . S
C1711 H1734 0.950 . S
C1712 C1711 1.349 . S
C1712 C1724 1.349 . S
C1713 C1711 1.327 . S
C1713 C1729 1.429 . S
C1713 H1735 0.950 . S
C1714 H1710 0.949 . S
C1714 C1722 1.574 . S
C1714 C1730 1.368 . S
H1715 C1723 0.950 . S
H1716 C1721 0.950 . S
H1717 C1722 0.949 . S
H1718 C1724 0.950 . S
H1719 C1725 0.950 . S
H1720 C1726 0.949 . S
C1721 H1716 0.950 . S
C1721 C1723 1.327 . S
C1721 C1727 1.429 . S
C1722 C1714 1.574 . S
C1722 H1717 0.949 . S
C1722 C1728 1.368 . S
C1723 C1707 1.349 . S
C1723 H1715 0.950 . S
C1723 C1721 1.327 . S
C1724 C1712 1.349 . S
C1724 H1718 0.950 . S
C1724 C1725 1.327 . S
C1725 H1719 0.950 . S
C1725 C1724 1.327 . S
C1725 C1729 1.429 . S
C1726 C1709 1.574 . S
C1726 H1720 0.949 . S
C1726 C1730 1.368 . S
C1727 C1708 1.429 . S
C1727 C1721 1.429 . S
C1727 C1728 1.523 . S
C1728 C1709 1.368 . S
C1728 C1722 1.368 . S
C1728 C1727 1.523 . S
C1729 C1713 1.429 . S
C1729 C1725 1.429 . S
C1729 C1730 1.523 . S
C1730 C1714 1.368 . S
C1730 C1726 1.368 . S
C1730 C1729 1.523 . S
H1731 C1706 0.950 . S
H1732 C1708 0.950 . S
H1733 C1709 0.949 . S
H1734 C1711 0.950 . S
H1735 C1713 0.950 . S
C1736 C1737 1.349 . S
C1736 C1738 1.327 . S
C1736 H1761 0.950 . S
C1737 C1736 1.349 . S
C1737 C1753 1.349 . S
C1738 C1736 1.327 . S
C1738 C1757 1.429 . S
C1738 H1762 0.950 . S
C1739 C1756 1.574 . S
C1739 C1758 1.368 . S
C1739 H1763 0.949 . S
H1740 C1744 0.949 . S
C1741 C1742 1.349 . S
C1741 C1743 1.327 . S
C1741 H1764 0.950 . S
C1742 C1741 1.349 . S
C1742 C1754 1.349 . S
C1743 C1741 1.327 . S
C1743 C1759 1.429 . S
C1743 H1765 0.950 . S
C1744 H1740 0.949 . S
C1744 C1752 1.574 . S
C1744 C1760 1.368 . S
H1745 C1753 0.950 . S
H1746 C1751 0.950 . S
H1747 C1752 0.949 . S
H1748 C1754 0.950 . S
H1749 C1755 0.950 . S
H1750 C1756 0.949 . S
C1751 H1746 0.950 . S
C1751 C1753 1.327 . S
C1751 C1757 1.429 . S
C1752 C1744 1.574 . S
C1752 H1747 0.949 . S
C1752 C1758 1.368 . S
C1753 C1737 1.349 . S
C1753 H1745 0.950 . S
C1753 C1751 1.327 . S
C1754 C1742 1.349 . S
C1754 H1748 0.950 . S
C1754 C1755 1.327 . S
C1755 H1749 0.950 . S
C1755 C1754 1.327 . S
C1755 C1759 1.429 . S
C1756 C1739 1.574 . S
C1756 H1750 0.949 . S
C1756 C1760 1.368 . S
C1757 C1738 1.429 . S
C1757 C1751 1.429 . S
C1757 C1758 1.523 . S
C1758 C1739 1.368 . S
C1758 C1752 1.368 . S
C1758 C1757 1.523 . S
C1759 C1743 1.429 . S
C1759 C1755 1.429 . S
C1759 C1760 1.523 . S
C1760 C1744 1.368 . S
C1760 C1756 1.368 . S
C1760 C1759 1.523 . S
H1761 C1736 0.950 . S
H1762 C1738 0.950 . S
H1763 C1739 0.949 . S
H1764 C1741 0.950 . S
H1765 C1743 0.950 . S
C1766 C1767 1.349 . S
C1766 C1768 1.327 . S
C1766 H1791 0.950 . S
C1767 C1766 1.349 . S
C1767 C1783 1.349 . S
C1768 C1766 1.327 . S
C1768 C1787 1.429 . S
C1768 H1792 0.950 . S
C1769 C1786 1.574 . S
C1769 C1788 1.368 . S
C1769 H1793 0.949 . S
H1770 C1774 0.949 . S
C1771 C1772 1.349 . S
C1771 C1773 1.327 . S
C1771 H1794 0.950 . S
C1772 C1771 1.349 . S
C1772 C1784 1.349 . S
C1773 C1771 1.327 . S
C1773 C1789 1.429 . S
C1773 H1795 0.950 . S
C1774 H1770 0.949 . S
C1774 C1782 1.574 . S
C1774 C1790 1.368 . S
H1775 C1783 0.950 . S
H1776 C1781 0.950 . S
H1777 C1782 0.949 . S
H1778 C1784 0.950 . S
H1779 C1785 0.950 . S
H1780 C1786 0.949 . S
C1781 H1776 0.950 . S
C1781 C1783 1.327 . S
C1781 C1787 1.429 . S
C1782 C1774 1.574 . S
C1782 H1777 0.949 . S
C1782 C1788 1.368 . S
C1783 C1767 1.349 . S
C1783 H1775 0.950 . S
C1783 C1781 1.327 . S
C1784 C1772 1.349 . S
C1784 H1778 0.950 . S
C1784 C1785 1.327 . S
C1785 H1779 0.950 . S
C1785 C1784 1.327 . S
C1785 C1789 1.429 . S
C1786 C1769 1.574 . S
C1786 H1780 0.949 . S
C1786 C1790 1.368 . S
C1787 C1768 1.429 . S
C1787 C1781 1.429 . S
C1787 C1788 1.523 . S
C1788 C1769 1.368 . S
C1788 C1782 1.368 . S
C1788 C1787 1.523 . S
C1789 C1773 1.429 . S
C1789 C1785 1.429 . S
C1789 C1790 1.523 . S
C1790 C1774 1.368 . S
C1790 C1786 1.368 . S
C1790 C1789 1.523 . S
H1791 C1766 0.950 . S
H1792 C1768 0.950 . S
H1793 C1769 0.949 . S
H1794 C1771 0.950 . S
H1795 C1773 0.950 . S
C1796 C1797 1.349 . S
C1796 C1798 1.327 . S
C1796 H1821 0.950 . S
C1797 C1796 1.349 . S
C1797 C1813 1.349 . S
C1798 C1796 1.327 . S
C1798 C1817 1.429 . S
C1798 H1822 0.950 . S
C1799 C1816 1.574 . S
C1799 C1818 1.368 . S
C1799 H1823 0.949 . S
H1800 C1804 0.949 . S
C1801 C1802 1.349 . S
C1801 C1803 1.327 . S
C1801 H1824 0.950 . S
C1802 C1801 1.349 . S
C1802 C1814 1.349 . S
C1803 C1801 1.327 . S
C1803 C1819 1.429 . S
C1803 H1825 0.950 . S
C1804 H1800 0.949 . S
C1804 C1812 1.574 . S
C1804 C1820 1.368 . S
H1805 C1813 0.950 . S
H1806 C1811 0.950 . S
H1807 C1812 0.949 . S
H1808 C1814 0.950 . S
H1809 C1815 0.950 . S
H1810 C1816 0.949 . S
C1811 H1806 0.950 . S
C1811 C1813 1.327 . S
C1811 C1817 1.429 . S
C1812 C1804 1.574 . S
C1812 H1807 0.949 . S
C1812 C1818 1.368 . S
C1813 C1797 1.349 . S
C1813 H1805 0.950 . S
C1813 C1811 1.327 . S
C1814 C1802 1.349 . S
C1814 H1808 0.950 . S
C1814 C1815 1.327 . S
C1815 H1809 0.950 . S
C1815 C1814 1.327 . S
C1815 C1819 1.429 . S
C1816 C1799 1.574 . S
C1816 H1810 0.949 . S
C1816 C1820 1.368 . S
C1817 C1798 1.429 . S
C1817 C1811 1.429 . S
C1817 C1818 1.523 . S
C1818 C1799 1.368 . S
C1818 C1812 1.368 . S
C1818 C1817 1.523 . S
C1819 C1803 1.429 . S
C1819 C1815 1.429 . S
C1819 C1820 1.523 . S
C1820 C1804 1.368 . S
C1820 C1816 1.368 . S
C1820 C1819 1.523 . S
H1821 C1796 0.950 . S
H1822 C1798 0.950 . S
H1823 C1799 0.949 . S
H1824 C1801 0.950 . S
H1825 C1803 0.950 . S
C1826 C1827 1.349 . S
C1826 C1828 1.327 . S
C1826 H1851 0.950 . S
C1827 C1826 1.349 . S
C1827 C1843 1.349 . S
C1828 C1826 1.327 . S
C1828 C1847 1.429 . S
C1828 H1852 0.950 . S
C1829 C1846 1.574 . S
C1829 C1848 1.368 . S
C1829 H1853 0.949 . S
H1830 C1834 0.949 . S
C1831 C1832 1.349 . S
C1831 C1833 1.327 . S
C1831 H1854 0.950 . S
C1832 C1831 1.349 . S
C1832 C1844 1.349 . S
C1833 C1831 1.327 . S
C1833 C1849 1.429 . S
C1833 H1855 0.950 . S
C1834 H1830 0.949 . S
C1834 C1842 1.574 . S
C1834 C1850 1.368 . S
H1835 C1843 0.950 . S
H1836 C1841 0.950 . S
H1837 C1842 0.949 . S
H1838 C1844 0.950 . S
H1839 C1845 0.950 . S
H1840 C1846 0.949 . S
C1841 H1836 0.950 . S
C1841 C1843 1.327 . S
C1841 C1847 1.429 . S
C1842 C1834 1.574 . S
C1842 H1837 0.949 . S
C1842 C1848 1.368 . S
C1843 C1827 1.349 . S
C1843 H1835 0.950 . S
C1843 C1841 1.327 . S
C1844 C1832 1.349 . S
C1844 H1838 0.950 . S
C1844 C1845 1.327 . S
C1845 H1839 0.950 . S
C1845 C1844 1.327 . S
C1845 C1849 1.429 . S
C1846 C1829 1.574 . S
C1846 H1840 0.949 . S
C1846 C1850 1.368 . S
C1847 C1828 1.429 . S
C1847 C1841 1.429 . S
C1847 C1848 1.523 . S
C1848 C1829 1.368 . S
C1848 C1842 1.368 . S
C1848 C1847 1.523 . S
C1849 C1833 1.429 . S
C1849 C1845 1.429 . S
C1849 C1850 1.523 . S
C1850 C1834 1.368 . S
C1850 C1846 1.368 . S
C1850 C1849 1.523 . S
H1851 C1826 0.950 . S
H1852 C1828 0.950 . S
H1853 C1829 0.949 . S
H1854 C1831 0.950 . S
H1855 C1833 0.950 . S
C1856 C1857 1.349 . S
C1856 C1858 1.327 . S
C1856 H1881 0.950 . S
C1857 C1856 1.349 . S
C1857 C1873 1.349 . S
C1858 C1856 1.327 . S
C1858 C1877 1.429 . S
C1858 H1882 0.950 . S
C1859 C1876 1.574 . S
C1859 C1878 1.368 . S
C1859 H1883 0.949 . S
H1860 C1864 0.949 . S
C1861 C1862 1.349 . S
C1861 C1863 1.327 . S
C1861 H1884 0.950 . S
C1862 C1861 1.349 . S
C1862 C1874 1.349 . S
C1863 C1861 1.327 . S
C1863 C1879 1.429 . S
C1863 H1885 0.950 . S
C1864 H1860 0.949 . S
C1864 C1872 1.574 . S
C1864 C1880 1.368 . S
H1865 C1873 0.950 . S
H1866 C1871 0.950 . S
H1867 C1872 0.949 . S
H1868 C1874 0.950 . S
H1869 C1875 0.950 . S
H1870 C1876 0.949 . S
C1871 H1866 0.950 . S
C1871 C1873 1.327 . S
C1871 C1877 1.429 . S
C1872 C1864 1.574 . S
C1872 H1867 0.949 . S
C1872 C1878 1.368 . S
C1873 C1857 1.349 . S
C1873 H1865 0.950 . S
C1873 C1871 1.327 . S
C1874 C1862 1.349 . S
C1874 H1868 0.950 . S
C1874 C1875 1.327 . S
C1875 H1869 0.950 . S
C1875 C1874 1.327 . S
C1875 C1879 1.429 . S
C1876 C1859 1.574 . S
C1876 H1870 0.949 . S
C1876 C1880 1.368 . S
C1877 C1858 1.429 . S
C1877 C1871 1.429 . S
C1877 C1878 1.523 . S
C1878 C1859 1.368 . S
C1878 C1872 1.368 . S
C1878 C1877 1.523 . S
C1879 C1863 1.429 . S
C1879 C1875 1.429 . S
C1879 C1880 1.523 . S
C1880 C1864 1.368 . S
C1880 C1876 1.368 . S
C1880 C1879 1.523 . S
H1881 C1856 0.950 . S
H1882 C1858 0.950 . S
H1883 C1859 0.949 . S
H1884 C1861 0.950 . S
H1885 C1863 0.950 . S
C1886 C1887 1.349 . S
C1886 C1888 1.327 . S
C1886 H1911 0.950 . S
C1887 C1886 1.349 . S
C1887 C1903 1.349 . S
C1888 C1886 1.327 . S
C1888 C1907 1.429 . S
C1888 H1912 0.950 . S
C1889 C1906 1.574 . S
C1889 C1908 1.368 . S
C1889 H1913 0.949 . S
H1890 C1894 0.949 . S
C1891 C1892 1.349 . S
C1891 C1893 1.327 . S
C1891 H1914 0.950 . S
C1892 C1891 1.349 . S
C1892 C1904 1.349 . S
C1893 C1891 1.327 . S
C1893 C1909 1.429 . S
C1893 H1915 0.950 . S
C1894 H1890 0.949 . S
C1894 C1902 1.574 . S
C1894 C1910 1.368 . S
H1895 C1903 0.950 . S
H1896 C1901 0.950 . S
H1897 C1902 0.949 . S
H1898 C1904 0.950 . S
H1899 C1905 0.950 . S
H1900 C1906 0.949 . S
C1901 H1896 0.950 . S
C1901 C1903 1.327 . S
C1901 C1907 1.429 . S
C1902 C1894 1.574 . S
C1902 H1897 0.949 . S
C1902 C1908 1.368 . S
C1903 C1887 1.349 . S
C1903 H1895 0.950 . S
C1903 C1901 1.327 . S
C1904 C1892 1.349 . S
C1904 H1898 0.950 . S
C1904 C1905 1.327 . S
C1905 H1899 0.950 . S
C1905 C1904 1.327 . S
C1905 C1909 1.429 . S
C1906 C1889 1.574 . S
C1906 H1900 0.949 . S
C1906 C1910 1.368 . S
C1907 C1888 1.429 . S
C1907 C1901 1.429 . S
C1907 C1908 1.523 . S
C1908 C1889 1.368 . S
C1908 C1902 1.368 . S
C1908 C1907 1.523 . S
C1909 C1893 1.429 . S
C1909 C1905 1.429 . S
C1909 C1910 1.523 . S
C1910 C1894 1.368 . S
C1910 C1906 1.368 . S
C1910 C1909 1.523 . S
H1911 C1886 0.950 . S
H1912 C1888 0.950 . S
H1913 C1889 0.949 . S
H1914 C1891 0.950 . S
H1915 C1893 0.950 . S
C1916 C1917 1.349 . S
C1916 C1918 1.327 . S
C1916 H1941 0.950 . S
C1917 C1916 1.349 . S
C1917 C1933 1.349 . S
C1918 C1916 1.327 . S
C1918 C1937 1.429 . S
C1918 H1942 0.950 . S
C1919 C1936 1.574 . S
C1919 C1938 1.368 . S
C1919 H1943 0.949 . S
H1920 C1924 0.949 . S
C1921 C1922 1.349 . S
C1921 C1923 1.327 . S
C1921 H1944 0.950 . S
C1922 C1921 1.349 . S
C1922 C1934 1.349 . S
C1923 C1921 1.327 . S
C1923 C1939 1.429 . S
C1923 H1945 0.950 . S
C1924 H1920 0.949 . S
C1924 C1932 1.574 . S
C1924 C1940 1.368 . S
H1925 C1933 0.950 . S
H1926 C1931 0.950 . S
H1927 C1932 0.949 . S
H1928 C1934 0.950 . S
H1929 C1935 0.950 . S
H1930 C1936 0.949 . S
C1931 H1926 0.950 . S
C1931 C1933 1.327 . S
C1931 C1937 1.429 . S
C1932 C1924 1.574 . S
C1932 H1927 0.949 . S
C1932 C1938 1.368 . S
C1933 C1917 1.349 . S
C1933 H1925 0.950 . S
C1933 C1931 1.327 . S
C1934 C1922 1.349 . S
C1934 H1928 0.950 . S
C1934 C1935 1.327 . S
C1935 H1929 0.950 . S
C1935 C1934 1.327 . S
C1935 C1939 1.429 . S
C1936 C1919 1.574 . S
C1936 H1930 0.949 . S
C1936 C1940 1.368 . S
C1937 C1918 1.429 . S
C1937 C1931 1.429 . S
C1937 C1938 1.523 . S
C1938 C1919 1.368 . S
C1938 C1932 1.368 . S
C1938 C1937 1.523 . S
C1939 C1923 1.429 . S
C1939 C1935 1.429 . S
C1939 C1940 1.523 . S
C1940 C1924 1.368 . S
C1940 C1936 1.368 . S
C1940 C1939 1.523 . S
H1941 C1916 0.950 . S
H1942 C1918 0.950 . S
H1943 C1919 0.949 . S
H1944 C1921 0.950 . S
H1945 C1923 0.950 . S
C512 C331 1.485 . S
C507 C2 1.496 . S
C542 C321 0.465 . S
C537 C65 0.389 . S
C572 C322 0.995 . S
C567 C82 1.007 . S
C597 C145 0.844 . S
C602 C344 0.836 . S
C627 C164 0.223 . S
C632 C347 0.424 . S
C662 C330 0.975 . S
C657 C223 0.989 . S
C687 C244 1.074 . S
C692 C320 1.061 . S
C717 C282 1.451 . S
C722 C338 1.439 . S
C752 C351 3.269 . S
C747 C31 3.299 . S
C777 C60 1.761 . S
C782 C400 1.732 . S
C812 C378 3.384 . S
C807 C111 3.437 . S
C842 C392 1.127 . S
C837 C140 1.148 . S
C867 C162 1.194 . S
C872 C353 1.196 . S
C902 C406 1.264 . S
C897 C225 1.312 . S
C927 C242 1.845 . S
C932 C362 1.792 . S
C957 C311 2.499 . S
C962 C383 2.473 . S
C987 C4 1.040 . S
C992 C409 1.027 . S
C1017 C191 1.032 . S
C1022 C393 1.001 . S
C1052 C352 3.021 . S
C1047 C220 3.028 . S
C1082 C384 0.703 . S
C1077 C271 0.691 . S
C1107 C284 1.645 . S
C1112 C375 1.631 . S
C1137 C84 0.950 . S
C1142 C382 0.940 . S
C1172 C369 1.064 . S
C1167 C143 1.081 . S
C1197 C63 0.749 . S
C1202 C361 0.749 . S
C1227 C303 1.451 . S
C1232 C424 1.439 . S
C1257 C185 0.223 . S
C1262 C414 0.424 . S
C1292 C415 0.975 . S
C1287 C202 0.989 . S
C1322 C437 1.061 . S
C1317 C265 1.074 . S
C1347 C44 0.389 . S
C1352 C440 0.465 . S
C1382 C423 0.995 . S
C1377 C103 1.007 . S
C1407 C124 0.845 . S
C1412 C413 0.836 . S
C1437 C23 1.496 . S
C1442 C431 1.485 . S
C1467 C305 1.645 . S
C1472 C444 1.624 . S
C1502 C493 1.002 . S
C1497 C180 1.033 . S
C1527 C231 3.028 . S
C1532 C471 3.021 . S
C1557 C260 0.691 . S
C1562 C485 0.703 . S
C1592 C446 0.750 . S
C1587 C42 0.750 . S
C1617 C105 0.949 . S
C1622 C499 0.940 . S
C1652 C455 1.064 . S
C1647 C122 1.081 . S
C1682 C476 1.027 . S
C1677 C25 1.040 . S
C1712 C502 2.472 . S
C1707 C300 2.499 . S
C1737 C71 1.761 . S
C1742 C486 1.732 . S
C1767 C100 3.437 . S
C1772 C445 3.385 . S
C1802 C477 1.127 . S
C1797 C151 1.147 . S
C1827 C20 3.299 . S
C1832 C468 3.269 . S
C1857 C204 1.312 . S
C1862 C475 1.264 . S
C1892 C462 1.792 . S
C1887 C263 1.845 . S
C1922 C454 1.170 . S
C1917 C183 1.194 . S
