# Generated by pormake.
# Topology pyr, (3,6)-cn, num edge types: 1
# Building blocks:
#     Node 0, Type 0, BuildingBlock: OLANEW_clean_sbu_2, # of connection points: 3
#     Node 1, Type 0, BuildingBlock: OLANEW_clean_sbu_2, # of connection points: 3
#     Node 2, Type 0, BuildingBlock: OLANEW_clean_sbu_2, # of connection points: 3
#     Node 3, Type 0, BuildingBlock: OLANEW_clean_sbu_2, # of connection points: 3
#     Node 4, Type 0, BuildingBlock: OLANEW_clean_sbu_2, # of connection points: 3
#     Node 5, Type 0, BuildingBlock: OLANEW_clean_sbu_2, # of connection points: 3
#     Node 6, Type 0, BuildingBlock: OLANEW_clean_sbu_2, # of connection points: 3
#     Node 7, Type 0, BuildingBlock: OLANEW_clean_sbu_2, # of connection points: 3
#     Node 8, Type 1, BuildingBlock: BETDEL_clean_sbu_0, # of connection points: 6
#     Node 9, Type 1, BuildingBlock: BETDEL_clean_sbu_0, # of connection points: 6
#     Node 10, Type 1, BuildingBlock: BETDEL_clean_sbu_0, # of connection points: 6
#     Node 11, Type 1, BuildingBlock: BETDEL_clean_sbu_0, # of connection points: 6
#     Edge 12, Type (0, 1), BuildingBlock: MIFKUJ_clean_linker_0, # of connection points: 2
#     Edge 13, Type (0, 1), BuildingBlock: MIFKUJ_clean_linker_0, # of connection points: 2
#     Edge 14, Type (0, 1), BuildingBlock: MIFKUJ_clean_linker_0, # of connection points: 2
#     Edge 15, Type (0, 1), BuildingBlock: MIFKUJ_clean_linker_0, # of connection points: 2
#     Edge 16, Type (0, 1), BuildingBlock: MIFKUJ_clean_linker_0, # of connection points: 2
#     Edge 17, Type (0, 1), BuildingBlock: MIFKUJ_clean_linker_0, # of connection points: 2
#     Edge 18, Type (0, 1), BuildingBlock: MIFKUJ_clean_linker_0, # of connection points: 2
#     Edge 19, Type (0, 1), BuildingBlock: MIFKUJ_clean_linker_0, # of connection points: 2
#     Edge 20, Type (0, 1), BuildingBlock: MIFKUJ_clean_linker_0, # of connection points: 2
#     Edge 21, Type (0, 1), BuildingBlock: MIFKUJ_clean_linker_0, # of connection points: 2
#     Edge 22, Type (0, 1), BuildingBlock: MIFKUJ_clean_linker_0, # of connection points: 2
#     Edge 23, Type (0, 1), BuildingBlock: MIFKUJ_clean_linker_0, # of connection points: 2
#     Edge 24, Type (0, 1), BuildingBlock: MIFKUJ_clean_linker_0, # of connection points: 2
#     Edge 25, Type (0, 1), BuildingBlock: MIFKUJ_clean_linker_0, # of connection points: 2
#     Edge 26, Type (0, 1), BuildingBlock: MIFKUJ_clean_linker_0, # of connection points: 2
#     Edge 27, Type (0, 1), BuildingBlock: MIFKUJ_clean_linker_0, # of connection points: 2
#     Edge 28, Type (0, 1), BuildingBlock: MIFKUJ_clean_linker_0, # of connection points: 2
#     Edge 29, Type (0, 1), BuildingBlock: MIFKUJ_clean_linker_0, # of connection points: 2
#     Edge 30, Type (0, 1), BuildingBlock: MIFKUJ_clean_linker_0, # of connection points: 2
#     Edge 31, Type (0, 1), BuildingBlock: MIFKUJ_clean_linker_0, # of connection points: 2
#     Edge 32, Type (0, 1), BuildingBlock: MIFKUJ_clean_linker_0, # of connection points: 2
#     Edge 33, Type (0, 1), BuildingBlock: MIFKUJ_clean_linker_0, # of connection points: 2
#     Edge 34, Type (0, 1), BuildingBlock: MIFKUJ_clean_linker_0, # of connection points: 2
#     Edge 35, Type (0, 1), BuildingBlock: MIFKUJ_clean_linker_0, # of connection points: 2
# Relax obj value: 0.050
# Max RMSD: 0.148
# Mean RMSD: 0.112
data_MOF--net-pyr--node1-OLANEW_clean_sbu_2--node2-BETDEL_clean_sbu_0--edge1-MIFKUJ_clean_linker_0
_symmetry_space_group_name_H-M    P1
_symmetry_Int_Tables_number       1
_symmetry_cell_setting            triclinic
loop_
_symmetry_equiv_pos_as_xyz
'x, y, z'
_cell_length_a     50.17034
_cell_length_b     52.660248
_cell_length_c     47.153423
_cell_angle_alpha  96.470582
_cell_angle_beta   88.060167
_cell_angle_gamma 99.309082
loop_
_atom_site_label
_atom_site_type_symbol
_atom_site_fract_x
_atom_site_fract_y
_atom_site_fract_z
_atom_type_partial_charge
O0 O 0.26685 0.24158 0.18194 0.0
Cd1 Cd 0.24882 0.28111 0.19857 0.0
O2 O 0.24564 0.22347 0.21767 0.0
Cd3 Cd 0.2314 0.19216 0.24397 0.0
O4 O 0.20726 0.16774 0.27304 0.0
C5 C 0.21451 0.16843 0.29872 0.0
O6 O 0.23716 0.1832 0.30706 0.0
C7 C 0.26141 0.22216 0.19606 0.0
C8 C 0.21729 0.29761 0.15892 0.0
O9 O 0.24304 0.30416 0.15885 0.0
O10 O 0.20651 0.28288 0.17745 0.0
O11 O 0.41056 0.9185 0.70331 0.0
Cd12 Cd 0.41195 0.90803 0.65165 0.0
O13 O 0.36641 0.91038 0.70231 0.0
Cd14 Cd 0.32546 0.91044 0.71964 0.0
O15 O 0.28392 0.91788 0.72243 0.0
C16 C 0.28023 0.93913 0.71406 0.0
O17 O 0.30131 0.95501 0.70584 0.0
C18 C 0.38798 0.91686 0.71653 0.0
C19 C 0.42593 0.85894 0.63935 0.0
O20 O 0.44406 0.87918 0.64201 0.0
O21 O 0.4011 0.86198 0.64193 0.0
O22 O 0.68554 0.39161 0.8867 0.0
Cd23 Cd 0.63909 0.37624 0.87167 0.0
O24 O 0.68496 0.35295 0.89952 0.0
Cd25 Cd 0.69889 0.32222 0.91973 0.0
O26 O 0.69382 0.2858 0.9386 0.0
C27 C 0.68546 0.28519 0.96429 0.0
O28 O 0.68202 0.30698 0.97945 0.0
C29 C 0.69768 0.37555 0.8972 0.0
C30 C 0.62547 0.4008 0.82619 0.0
O31 O 0.62044 0.40937 0.85202 0.0
O32 O 0.63697 0.38063 0.82192 0.0
O33 O 0.98707 0.70576 0.39393 0.0
Cd34 Cd 0.9968 0.66242 0.37828 0.0
O35 O 0.95057 0.68837 0.41568 0.0
Cd36 Cd 0.91267 0.68708 0.44016 0.0
O37 O 0.87267 0.6756 0.45871 0.0
C38 C 0.85266 0.66945 0.44212 0.0
O39 O 0.85667 0.671 0.41465 0.0
C40 C 0.96641 0.70849 0.40959 0.0
C41 C 0.98319 0.64455 0.32195 0.0
O42 O 0.96651 0.63936 0.34248 0.0
O43 O 0.00604 0.65858 0.32807 0.0
O44 O 0.81275 0.78762 0.83376 0.0
Cd45 Cd 0.78126 0.75524 0.85638 0.0
O46 O 0.79272 0.81735 0.85754 0.0
Cd47 Cd 0.78175 0.85465 0.87498 0.0
O48 O 0.75656 0.8818 0.89552 0.0
C49 C 0.73121 0.87419 0.89447 0.0
O50 O 0.72223 0.85138 0.88088 0.0
C51 C 0.81094 0.81141 0.83971 0.0
C52 C 0.80914 0.72372 0.88385 0.0
O53 O 0.80295 0.71823 0.85747 0.0
O54 O 0.80187 0.74405 0.89738 0.0
O55 O 0.68923 0.12435 0.39588 0.0
Cd56 Cd 0.70187 0.1241 0.4452 0.0
O57 O 0.6902 0.16599 0.40629 0.0
Cd58 Cd 0.68681 0.20534 0.39833 0.0
O59 O 0.67967 0.24517 0.40009 0.0
C60 C 0.65615 0.24955 0.39535 0.0
O61 O 0.63698 0.22988 0.38844 0.0
C62 C 0.68581 0.14596 0.3883 0.0
C63 C 0.75316 0.11165 0.45021 0.0
O64 O 0.73223 0.09404 0.44813 0.0
O65 O 0.74982 0.13521 0.44958 0.0
O66 O 0.41161 0.74508 0.21108 0.0
Cd67 Cd 0.39695 0.70229 0.22673 0.0
O68 O 0.38093 0.73029 0.1792 0.0
Cd69 Cd 0.35217 0.72945 0.14533 0.0
O70 O 0.31631 0.71085 0.12194 0.0
C71 C 0.3183 0.69421 0.10058 0.0
O72 O 0.3424 0.68988 0.0916 0.0
C73 C 0.39858 0.74874 0.18968 0.0
C74 C 0.42725 0.68921 0.26961 0.0
O75 O 0.43284 0.68319 0.24322 0.0
O76 O 0.40773 0.70199 0.27565 0.0
O77 O 0.14406 0.4411 0.66151 0.0
Cd78 Cd 0.16238 0.43421 0.61317 0.0
O79 O 0.15469 0.40421 0.67113 0.0
Cd80 Cd 0.1507 0.37175 0.69693 0.0
O81 O 0.13418 0.3329 0.70729 0.0
C82 C 0.11122 0.32399 0.69657 0.0
O83 O 0.09956 0.33893 0.68205 0.0
C84 C 0.14423 0.42436 0.67888 0.0
C85 C 0.21704 0.45431 0.60879 0.0
O86 O 0.19887 0.46821 0.60547 0.0
O87 O 0.20931 0.43097 0.61443 0.0
Dy88 Dy 0.02388 0.02148 0.55878 0.0
C89 C 0.97526 0.97767 0.66141 0.0
C90 C 0.04928 0.04749 0.51615 0.0
Dy91 Dy 0.99094 0.0006 0.61335 0.0
O92 O 0.05912 0.04714 0.54121 0.0
O93 O 0.02525 0.03373 0.51433 0.0
O94 O 0.05277 0.99399 0.56354 0.0
O95 O 0.03315 0.00937 0.59982 0.0
C96 C 0.04843 0.99339 0.59078 0.0
C97 C 0.9594 0.0202 0.57887 0.0
O98 O 0.01228 0.03937 0.63145 0.0
O99 O 0.02078 0.05743 0.58836 0.0
O100 O 0.97008 6e-05 0.6561 0.0
O101 O 0.98952 0.96792 0.64058 0.0
O102 O 0.95041 0.01085 0.60235 0.0
O103 O 0.98377 0.01788 0.57612 0.0
O104 O 0.00029 0.98456 0.53903 0.0
O105 O 0.98817 0.96543 0.58106 0.0
C106 C 0.01916 0.05955 0.6167 0.0
C107 C 0.99044 0.96428 0.55274 0.0
Dy108 Dy 0.51186 0.04696 0.09715 0.0
C109 C 0.43666 0.99482 0.00691 0.0
C110 C 0.5493 0.07929 0.13024 0.0
Dy111 Dy 0.47376 0.02035 0.04518 0.0
O112 O 0.5523 0.05654 0.11804 0.0
O113 O 0.52583 0.08451 0.1242 0.0
O114 O 0.49989 0.016 0.1271 0.0
O115 O 0.48349 0.01242 0.08699 0.0
C116 C 0.48346 0.00129 0.10911 0.0
C117 C 0.51148 0.06062 0.03457 0.0
O118 O 0.44484 0.03918 0.07467 0.0
O119 O 0.4744 0.06401 0.10847 0.0
O120 O 0.4424 0.01984 0.01229 0.0
O121 O 0.45087 0.98369 0.02293 0.0
O122 O 0.50239 0.04205 0.01515 0.0
O123 O 0.49834 0.05787 0.0575 0.0
O124 O 0.5394 0.02863 0.0652 0.0
O125 O 0.50748 0.99735 0.04099 0.0
C126 C 0.45004 0.05667 0.09726 0.0
C127 C 0.53283 0.00705 0.04767 0.0
Dy128 Dy 0.54782 0.52826 0.52262 0.0
C129 C 0.51372 0.61241 0.59422 0.0
C130 C 0.56996 0.48996 0.49118 0.0
Dy131 Dy 0.53639 0.57348 0.56474 0.0
O132 O 0.54432 0.49095 0.49382 0.0
O133 O 0.58364 0.51003 0.50563 0.0
O134 O 0.50361 0.51723 0.51362 0.0
O135 O 0.5161 0.53417 0.55442 0.0
C136 C 0.49608 0.52711 0.53846 0.0
C137 C 0.58815 0.57506 0.54833 0.0
O138 O 0.54037 0.54575 0.59612 0.0
O139 O 0.5612 0.51779 0.56439 0.0
O140 O 0.53941 0.61152 0.59219 0.0
O141 O 0.50033 0.59173 0.58061 0.0
O142 O 0.58063 0.58362 0.57377 0.0
O143 O 0.56788 0.5679 0.53265 0.0
O144 O 0.54353 0.55586 0.49116 0.0
O145 O 0.52321 0.58408 0.52295 0.0
C146 C 0.554 0.52613 0.59073 0.0
C147 C 0.53013 0.57562 0.49657 0.0
Dy148 Dy 0.0267 0.47854 0.01062 0.0
C149 C 0.98567 0.56755 0.98353 0.0
C150 C 0.05208 0.43761 0.01783 0.0
Dy151 Dy 0.01138 0.52762 0.99327 0.0
O152 O 0.03043 0.44292 0.03148 0.0
O153 O 0.05965 0.45444 0.99987 0.0
O154 O 0.9985 0.48044 0.04868 0.0
O155 O 0.0184 0.51461 0.03394 0.0
C156 C 0.00086 0.50548 0.05128 0.0
C157 C 0.03933 0.50179 0.95387 0.0
O158 O 0.05027 0.54582 0.01286 0.0
O159 O 0.06575 0.50699 0.01618 0.0
O160 O 0.99556 0.55218 0.964 0.0
O161 O 0.99026 0.56147 0.00866 0.0
O162 O 0.04222 0.52688 0.95811 0.0
O163 O 0.02059 0.49167 0.96954 0.0
O164 O 0.98849 0.46165 0.98774 0.0
O165 O 0.97211 0.50047 0.99295 0.0
C166 C 0.06976 0.53272 0.01764 0.0
C167 C 0.96833 0.475 0.9871 0.0
H168 H 0.22491 0.16449 0.35443 0.0
H169 H 0.19523 0.14213 0.38901 0.0
H170 H 0.13472 0.11728 0.32457 0.0
H171 H 0.16424 0.1398 0.2898 0.0
H172 H 0.11299 0.13647 0.37461 0.0
H173 H 0.17096 0.07451 0.34502 0.0
H174 H 0.21434 0.05881 0.33467 0.0
H175 H 0.23681 0.07911 0.42236 0.0
H176 H 0.19369 0.09528 0.43316 0.0
H177 H 0.0329 0.04805 0.46147 0.0
H178 H 0.05943 0.0674 0.42236 0.0
H179 H 0.12589 0.09493 0.47942 0.0
H180 H 0.09966 0.07547 0.51829 0.0
H181 H 0.14285 0.07175 0.43002 0.0
H182 H 0.08605 0.13595 0.45889 0.0
H183 H 0.04276 0.15183 0.46928 0.0
H184 H 0.01811 0.12723 0.38288 0.0
H185 H 0.06114 0.11087 0.37208 0.0
C186 C 0.20536 0.15417 0.34752 0.0
C187 C 0.19698 0.1539 0.31933 0.0
C188 C 0.18844 0.14132 0.36731 0.0
C189 C 0.16285 0.12786 0.3593 0.0
C190 C 0.1544 0.12754 0.33118 0.0
C191 C 0.17135 0.14033 0.31133 0.0
C192 C 0.14478 0.11461 0.38053 0.0
C193 C 0.11931 0.12199 0.3864 0.0
C194 C 0.15323 0.09606 0.39624 0.0
C195 C 0.17918 0.08631 0.38984 0.0
C196 C 0.18523 0.07582 0.36206 0.0
C197 C 0.20977 0.0668 0.35611 0.0
C198 C 0.22835 0.06802 0.37783 0.0
C199 C 0.22241 0.0782 0.40555 0.0
C200 C 0.19791 0.08727 0.4116 0.0
C201 C 0.0531 0.05839 0.46562 0.0
C202 C 0.06426 0.06028 0.49284 0.0
C203 C 0.06821 0.06947 0.44333 0.0
C204 C 0.09463 0.08269 0.448 0.0
C205 C 0.1056 0.08476 0.4753 0.0
C206 C 0.09056 0.07372 0.49751 0.0
C207 C 0.11125 0.09391 0.42445 0.0
C208 C 0.13644 0.0861 0.4181 0.0
C209 C 0.10253 0.11205 0.40833 0.0
C210 C 0.07668 0.12192 0.41477 0.0
C211 C 0.0713 0.13372 0.44218 0.0
C212 C 0.04683 0.14285 0.44812 0.0
C213 C 0.02766 0.14047 0.42678 0.0
C214 C 0.03295 0.12902 0.39941 0.0
C215 C 0.05739 0.11983 0.39336 0.0
H216 H 0.00873 0.14755 0.43142 0.0
H217 H 0.24733 0.06103 0.37319 0.0
H218 H 0.4241 0.95065 0.74931 0.0
H219 H 0.42497 0.95836 0.80139 0.0
H220 H 0.35189 0.90316 0.80672 0.0
H221 H 0.35103 0.89524 0.75456 0.0
H222 H 0.35076 0.94553 0.84492 0.0
H223 H 0.41135 0.88564 0.81834 0.0
H224 H 0.44907 0.86853 0.79196 0.0
H225 H 0.50453 0.9344 0.82728 0.0
H226 H 0.46708 0.95215 0.85348 0.0
H227 H 0.42921 0.94333 0.98811 0.0
H228 H 0.41136 0.92311 0.94182 0.0
H229 H 0.39231 0.99647 0.9232 0.0
H230 H 0.40969 0.01658 0.96949 0.0
H231 H 0.4341 0.9357 0.89349 0.0
H232 H 0.34335 0.98814 0.87431 0.0
H233 H 0.30467 0.00266 0.90146 0.0
H234 H 0.30717 0.94605 0.95969 0.0
H235 H 0.3456 0.93092 0.93268 0.0
C236 C 0.40811 0.9403 0.76159 0.0
C237 C 0.38725 0.92267 0.74788 0.0
C238 C 0.40866 0.94466 0.79131 0.0
C239 C 0.38863 0.93113 0.80791 0.0
C240 C 0.36745 0.91389 0.79429 0.0
C241 C 0.36684 0.90958 0.76449 0.0
C242 C 0.39034 0.93465 0.83945 0.0
C243 C 0.36889 0.94328 0.85563 0.0
C244 C 0.41371 0.93095 0.85343 0.0
C245 C 0.43634 0.92031 0.83772 0.0
C246 C 0.43155 0.89658 0.82031 0.0
C247 C 0.45289 0.88676 0.80541 0.0
C248 C 0.47917 0.90039 0.8079 0.0
C249 C 0.48416 0.92387 0.82534 0.0
C250 C 0.46288 0.93381 0.84024 0.0
C251 C 0.42047 0.95492 0.97446 0.0
C252 C 0.42098 0.98153 0.9822 0.0
C253 C 0.41036 0.94338 0.94802 0.0
C254 C 0.4005 0.95826 0.92903 0.0
C255 C 0.39943 0.98449 0.93761 0.0
C256 C 0.4095 0.99601 0.96403 0.0
C257 C 0.39493 0.94755 0.89899 0.0
C258 C 0.41574 0.9376 0.88297 0.0
C259 C 0.37083 0.94969 0.88532 0.0
C260 C 0.34751 0.95851 0.90154 0.0
C261 C 0.33556 0.97868 0.89281 0.0
C262 C 0.31369 0.98705 0.9082 0.0
C263 C 0.30351 0.97533 0.93232 0.0
C264 C 0.31513 0.95517 0.94106 0.0
C265 C 0.33699 0.94672 0.92574 0.0
H266 H 0.28659 0.98184 0.94421 0.0
H267 H 0.49566 0.89275 0.79635 0.0
H268 H 0.64027 0.39201 0.7701 0.0
H269 H 0.62814 0.41349 0.73011 0.0
H270 H 0.58195 0.46006 0.78737 0.0
H271 H 0.59409 0.43879 0.82756 0.0
H272 H 0.55462 0.4379 0.73719 0.0
H273 H 0.64093 0.48712 0.76506 0.0
H274 H 0.6893 0.49309 0.77642 0.0
H275 H 0.70704 0.45955 0.69201 0.0
H276 H 0.65868 0.45303 0.68027 0.0
H277 H 0.53676 0.53233 0.64641 0.0
H278 H 0.54874 0.51033 0.68597 0.0
H279 H 0.59896 0.46766 0.62908 0.0
H280 H 0.5872 0.4896 0.58937 0.0
H281 H 0.62436 0.48743 0.67883 0.0
H282 H 0.53997 0.43754 0.65014 0.0
H283 H 0.49183 0.42907 0.63753 0.0
H284 H 0.47062 0.46122 0.72141 0.0
H285 H 0.51874 0.47023 0.73444 0.0
C286 C 0.62754 0.40684 0.7742 0.0
C287 C 0.61818 0.41376 0.80199 0.0
C288 C 0.62071 0.41912 0.75135 0.0
C289 C 0.6043 0.43845 0.75587 0.0
C290 C 0.59466 0.4452 0.7835 0.0
C291 C 0.60169 0.4331 0.80642 0.0
C292 C 0.59711 0.45153 0.73169 0.0
C293 C 0.5698 0.44907 0.72467 0.0
C294 C 0.61705 0.46538 0.71489 0.0
C295 C 0.64615 0.46934 0.72189 0.0
C296 C 0.65511 0.4808 0.749 0.0
C297 C 0.68253 0.48433 0.7555 0.0
C298 C 0.70122 0.47664 0.73498 0.0
C299 C 0.69253 0.46547 0.7079 0.0
C300 C 0.66512 0.46187 0.7013 0.0
C301 C 0.55035 0.51827 0.64227 0.0
C302 C 0.56099 0.51271 0.61471 0.0
C303 C 0.55708 0.50563 0.66489 0.0
C304 C 0.57459 0.48725 0.66039 0.0
C305 C 0.58541 0.48179 0.63298 0.0
C306 C 0.57856 0.49429 0.6103 0.0
C307 C 0.58183 0.47393 0.68439 0.0
C308 C 0.60915 0.47632 0.69137 0.0
C309 C 0.56192 0.45979 0.70097 0.0
C310 C 0.53299 0.45479 0.69317 0.0
C311 C 0.52508 0.44306 0.66582 0.0
C312 C 0.4978 0.4381 0.65861 0.0
C313 C 0.47821 0.44461 0.67866 0.0
C314 C 0.48585 0.45618 0.70592 0.0
C315 C 0.51312 0.46121 0.71324 0.0
H316 H 0.4571 0.44056 0.67308 0.0
H317 H 0.72245 0.4794 0.74005 0.0
H318 H 0.94122 0.60712 0.30332 0.0
H319 H 0.93446 0.58507 0.25494 0.0
H320 H 0.00432 0.63459 0.22515 0.0
H321 H 0.01133 0.65667 0.27341 0.0
H322 H 0.96038 0.62384 0.18606 0.0
H323 H 0.01297 0.57899 0.24349 0.0
H324 H 0.02022 0.55715 0.28555 0.0
H325 H 0.94884 0.50158 0.26627 0.0
H326 H 0.94099 0.52334 0.2243 0.0
H327 H 0.01724 0.55648 0.06835 0.0
H328 H 0.00444 0.58112 0.11213 0.0
H329 H 0.94803 0.51464 0.13331 0.0
H330 H 0.96188 0.48949 0.08996 0.0
H331 H 0.97619 0.53265 0.17688 0.0
H332 H 0.92794 0.57214 0.1141 0.0
H333 H 0.9204 0.59336 0.0717 0.0
H334 H 0.98049 0.65817 0.09991 0.0
H335 H 0.9888 0.63716 0.14221 0.0
C336 C 0.95488 0.61361 0.28638 0.0
C337 C 0.977 0.63344 0.29223 0.0
C338 C 0.95097 0.601 0.25877 0.0
C339 C 0.96901 0.60811 0.23658 0.0
C340 C 0.99015 0.62888 0.242 0.0
C341 C 0.99422 0.64135 0.26963 0.0
C342 C 0.9677 0.59232 0.20848 0.0
C343 C 0.96385 0.6039 0.18388 0.0
C344 C 0.9714 0.5661 0.20589 0.0
C345 C 0.97622 0.55296 0.231 0.0
C346 C 0.99871 0.56224 0.24837 0.0
C347 C 0.00295 0.54986 0.27216 0.0
C348 C 0.98495 0.52804 0.27863 0.0
C349 C 0.96273 0.51852 0.26127 0.0
C350 C 0.95838 0.53086 0.23748 0.0
C351 C 0.00185 0.54722 0.08216 0.0
C352 C 0.99067 0.52105 0.07595 0.0
C353 C 0.99434 0.56141 0.1071 0.0
C354 C 0.97496 0.5499 0.12595 0.0
C355 C 0.963 0.52397 0.11913 0.0
C356 C 0.97088 0.50962 0.09439 0.0
C357 C 0.96931 0.56417 0.15397 0.0
C358 C 0.972 0.55235 0.17874 0.0
C359 C 0.96424 0.59007 0.1566 0.0
C360 C 0.95909 0.60297 0.13132 0.0
C361 C 0.93967 0.59085 0.1112 0.0
C362 C 0.93525 0.60285 0.08718 0.0
C363 C 0.94996 0.62709 0.08312 0.0
C364 C 0.9691 0.6394 0.1031 0.0
C365 C 0.97365 0.62746 0.12712 0.0
H366 H 0.9465 0.63635 0.06452 0.0
H367 H 0.98827 0.51848 0.29706 0.0
H368 H 0.281 0.19226 0.23144 0.0
H369 H 0.30901 0.15857 0.21786 0.0
H370 H 0.29992 0.16713 0.12901 0.0
H371 H 0.27243 0.20124 0.14247 0.0
H372 H 0.29651 0.11176 0.14729 0.0
H373 H 0.3512 0.19839 0.15158 0.0
H374 H 0.36763 0.24158 0.17644 0.0
H375 H 0.39732 0.20649 0.24438 0.0
H376 H 0.38066 0.16307 0.22007 0.0
H377 H 0.4044 0.06364 0.07136 0.0
H378 H 0.36875 0.08688 0.09173 0.0
H379 H 0.40858 0.10035 0.17306 0.0
H380 H 0.44508 0.07827 0.15224 0.0
H381 H 0.39423 0.14199 0.16379 0.0
H382 H 0.34686 0.05616 0.15905 0.0
H383 H 0.32988 0.0118 0.13772 0.0
H384 H 0.28539 0.04189 0.0765 0.0
H385 H 0.30241 0.08647 0.09719 0.0
C386 C 0.28433 0.18642 0.20901 0.0
C387 C 0.27444 0.19917 0.18796 0.0
C388 C 0.30041 0.1673 0.20131 0.0
C389 C 0.30641 0.16042 0.17247 0.0
C390 C 0.29531 0.17211 0.15137 0.0
C391 C 0.27975 0.1916 0.15907 0.0
C392 C 0.32651 0.14314 0.16434 0.0
C393 C 0.31792 0.11826 0.1507 0.0
C394 C 0.35424 0.15147 0.16975 0.0
C395 C 0.36439 0.17753 0.18422 0.0
C396 C 0.36098 0.1999 0.17196 0.0
C397 C 0.37039 0.22442 0.18591 0.0
C398 C 0.38343 0.22678 0.21203 0.0
C399 C 0.38716 0.20463 0.22419 0.0
C400 C 0.37775 0.18007 0.21033 0.0
C401 C 0.40542 0.07135 0.09366 0.0
C402 C 0.42753 0.06917 0.11021 0.0
C403 C 0.38489 0.08449 0.10538 0.0
C404 C 0.38561 0.09506 0.13415 0.0
C405 C 0.40749 0.09241 0.15083 0.0
C406 C 0.42834 0.07977 0.13893 0.0
C407 C 0.36452 0.11029 0.14621 0.0
C408 C 0.37288 0.13501 0.16062 0.0
C409 C 0.33652 0.10148 0.14202 0.0
C410 C 0.32609 0.07469 0.12956 0.0
C411 C 0.3336 0.05334 0.14091 0.0
C412 C 0.32395 0.02815 0.12896 0.0
C413 C 0.30661 0.02404 0.10574 0.0
C414 C 0.29884 0.04511 0.09448 0.0
C415 C 0.30845 0.07035 0.10634 0.0
H416 H 0.29916 0.00452 0.0965 0.0
H417 H 0.3907 0.24577 0.22279 0.0
H418 H 0.23208 0.91171 0.73068 0.0
H419 H 0.18657 0.91866 0.71984 0.0
H420 H 0.22071 0.98541 0.67773 0.0
H421 H 0.26595 0.9791 0.68922 0.0
H422 H 0.17628 0.99455 0.70443 0.0
H423 H 0.20339 0.92378 0.64082 0.0
H424 H 0.21813 0.88127 0.62919 0.0
H425 H 0.14678 0.84447 0.67022 0.0
H426 H 0.13179 0.88684 0.68235 0.0
H427 H 0.08804 0.96537 0.57389 0.0
H428 H 0.12094 0.95243 0.60395 0.0
H429 H 0.07959 0.98196 0.67928 0.0
H430 H 0.04691 0.99571 0.64904 0.0
H431 H 0.12225 0.92224 0.64434 0.0
H432 H 0.12757 0.01079 0.72757 0.0
H433 H 0.1153 0.05467 0.73288 0.0
H434 H 0.12696 0.05863 0.64276 0.0
H435 H 0.13963 0.01494 0.637 0.0
C436 C 0.22983 0.92809 0.71949 0.0
C437 C 0.25263 0.94468 0.7105 0.0
C438 C 0.20383 0.932 0.71327 0.0
C439 C 0.20024 0.95231 0.69757 0.0
C440 C 0.22294 0.96961 0.68988 0.0
C441 C 0.24885 0.96589 0.69635 0.0
C442 C 0.17329 0.95458 0.68696 0.0
C443 C 0.16427 0.97863 0.69163 0.0
C444 C 0.15767 0.93389 0.67005 0.0
C445 C 0.16667 0.90847 0.66281 0.0
C446 C 0.19097 0.90663 0.64753 0.0
C447 C 0.19934 0.88257 0.64083 0.0
C448 C 0.18345 0.8602 0.64905 0.0
C449 C 0.15911 0.86182 0.66393 0.0
C450 C 0.15066 0.88585 0.67072 0.0
C451 C 0.08572 0.96877 0.59687 0.0
C452 C 0.06526 0.9819 0.60918 0.0
C453 C 0.10445 0.96124 0.61405 0.0
C454 C 0.10299 0.9666 0.64385 0.0
C455 C 0.08135 0.97804 0.6563 0.0
C456 C 0.06268 0.9858 0.63905 0.0
C457 C 0.12564 0.96236 0.6612 0.0
C458 C 0.13382 0.93794 0.65786 0.0
C459 C 0.14095 0.98293 0.67856 0.0
C460 C 0.1342 0.00951 0.68185 0.0
C461 C 0.12762 0.0211 0.70894 0.0
C462 C 0.12059 0.04591 0.71201 0.0
C463 C 0.12022 0.05937 0.68816 0.0
C464 C 0.12714 0.04815 0.6612 0.0
C465 C 0.13425 0.02336 0.65802 0.0
H466 H 0.1146 0.0785 0.69057 0.0
H467 H 0.18996 0.84159 0.64383 0.0
H468 H 0.72159 0.42361 0.9184 0.0
H469 H 0.76848 0.43734 0.93287 0.0
H470 H 0.78447 0.35936 0.91101 0.0
H471 H 0.73747 0.34552 0.89665 0.0
H472 H 0.80779 0.37989 0.96026 0.0
H473 H 0.80484 0.40668 0.86681 0.0
H474 H 0.78827 0.42821 0.82864 0.0
H475 H 0.80624 0.50175 0.87929 0.0
H476 H 0.82241 0.48057 0.91798 0.0
H477 H 0.95181 0.42364 0.96802 0.0
H478 H 0.90653 0.4033 0.95197 0.0
H479 H 0.87801 0.47644 0.97139 0.0
H480 H 0.92276 0.49681 0.98704 0.0
H481 H 0.86288 0.4546 0.91966 0.0
H482 H 0.86249 0.42761 0.01429 0.0
H483 H 0.87939 0.40653 0.05263 0.0
H484 H 0.86824 0.33383 0.99974 0.0
H485 H 0.8516 0.35458 0.96092 0.0
C486 C 0.73509 0.40939 0.91678 0.0
C487 C 0.72579 0.38343 0.90679 0.0
C488 C 0.7619 0.41726 0.92494 0.0
C489 C 0.78008 0.39943 0.92269 0.0
C490 C 0.77077 0.37341 0.91302 0.0
C491 C 0.74385 0.36548 0.90506 0.0
C492 C 0.80881 0.4081 0.93032 0.0
C493 C 0.82 0.39595 0.95104 0.0
C494 C 0.82464 0.42926 0.91855 0.0
C495 C 0.81469 0.442 0.89537 0.0
C496 C 0.80505 0.42741 0.8699 0.0
C497 C 0.79573 0.43955 0.84816 0.0
C498 C 0.79615 0.46632 0.85155 0.0
C499 C 0.80589 0.48101 0.87669 0.0
C500 C 0.81515 0.46895 0.89852 0.0
C501 C 0.93582 0.4353 0.96903 0.0
C502 C 0.94095 0.46185 0.97873 0.0
C503 C 0.90997 0.42365 0.95992 0.0
C504 C 0.8889 0.43837 0.96056 0.0
C505 C 0.89398 0.46474 0.9706 0.0
C506 C 0.91965 0.47634 0.97961 0.0
C507 C 0.86162 0.42683 0.95008 0.0
C508 C 0.85075 0.43839 0.92869 0.0
C509 C 0.84614 0.40519 0.96127 0.0
C510 C 0.85611 0.39271 0.98459 0.0
C511 C 0.86387 0.40718 0.01074 0.0
C512 C 0.87336 0.39528 0.03258 0.0
C513 C 0.87498 0.36887 0.02859 0.0
C514 C 0.86703 0.35429 0.00278 0.0
C515 C 0.85756 0.36611 0.98086 0.0
H516 H 0.88232 0.35969 0.04552 0.0
H517 H 0.78896 0.47568 0.83468 0.0
H518 H 0.83814 0.66047 0.49705 0.0
H519 H 0.79348 0.64276 0.51499 0.0
H520 H 0.76115 0.63809 0.43062 0.0
H521 H 0.80566 0.65598 0.41253 0.0
H522 H 0.72819 0.65787 0.47118 0.0
H523 H 0.77452 0.58434 0.45627 0.0
H524 H 0.81159 0.55974 0.46149 0.0
H525 H 0.79845 0.56586 0.5523 0.0
H526 H 0.76152 0.59082 0.54766 0.0
H527 H 0.60501 0.57478 0.49276 0.0
H528 H 0.65076 0.58928 0.47494 0.0
H529 H 0.6799 0.60257 0.56121 0.0
H530 H 0.63405 0.58853 0.57922 0.0
H531 H 0.71436 0.57791 0.52001 0.0
H532 H 0.66946 0.65199 0.53563 0.0
H533 H 0.63257 0.67703 0.53148 0.0
H534 H 0.64331 0.67033 0.44037 0.0
H535 H 0.68001 0.64482 0.44394 0.0
C536 C 0.82152 0.65575 0.48231 0.0
C537 C 0.82549 0.65956 0.45333 0.0
C538 C 0.79604 0.64551 0.49258 0.0
C539 C 0.77408 0.63882 0.47406 0.0
C540 C 0.77785 0.64306 0.44525 0.0
C541 C 0.80333 0.65325 0.43495 0.0
C542 C 0.74714 0.62745 0.48472 0.0
C543 C 0.72511 0.64018 0.48147 0.0
C544 C 0.74326 0.60471 0.49879 0.0
C545 C 0.76544 0.58968 0.50164 0.0
C546 C 0.77968 0.58063 0.47738 0.0
C547 C 0.80064 0.56659 0.48023 0.0
C548 C 0.80742 0.5613 0.50722 0.0
C549 C 0.7932 0.57 0.53141 0.0
C550 C 0.77224 0.58408 0.52868 0.0
C551 C 0.62124 0.5805 0.50788 0.0
C552 C 0.61605 0.58077 0.53737 0.0
C553 C 0.64729 0.58881 0.4977 0.0
C554 C 0.66857 0.59717 0.51682 0.0
C555 C 0.66369 0.5962 0.54617 0.0
C556 C 0.63755 0.58827 0.5564 0.0
C557 C 0.69555 0.60827 0.50627 0.0
C558 C 0.71751 0.59553 0.50959 0.0
C559 C 0.69942 0.63104 0.49235 0.0
C560 C 0.67728 0.64624 0.49003 0.0
C561 C 0.66376 0.6556 0.51468 0.0
C562 C 0.64293 0.66992 0.51244 0.0
C563 C 0.63556 0.67522 0.48568 0.0
C564 C 0.64901 0.66617 0.46109 0.0
C565 C 0.66984 0.65179 0.4632 0.0
H566 H 0.61951 0.68643 0.48407 0.0
H567 H 0.82365 0.55042 0.50938 0.0
H568 H 0.23416 0.32431 0.11338 0.0
H569 H 0.20651 0.3437 0.08277 0.0
H570 H 0.1349 0.3139 0.12938 0.0
H571 H 0.16232 0.29382 0.15951 0.0
H572 H 0.12431 0.31 0.07444 0.0
H573 H 0.16723 0.37714 0.1435 0.0
H574 H 0.20552 0.40399 0.16951 0.0
H575 H 0.23917 0.43002 0.09091 0.0
H576 H 0.20123 0.40305 0.06438 0.0
H577 H 0.03788 0.40116 0.05446 0.0
H578 H 0.06651 0.37264 0.07123 0.0
H579 H 0.13079 0.40175 0.01462 0.0
H580 H 0.10217 0.43036 0.99777 0.0
H581 H 0.147 0.40472 0.06982 0.0
H582 H 0.09958 0.34037 0.00192 0.0
H583 H 0.0596 0.31453 0.97793 0.0
H584 H 0.0324 0.28431 0.05659 0.0
H585 H 0.07203 0.31026 0.08117 0.0
C586 C 0.21249 0.32169 0.11695 0.0
C587 C 0.20045 0.30772 0.13903 0.0
C588 C 0.19672 0.33285 0.09949 0.0
C589 C 0.16867 0.33065 0.1041 0.0
C590 C 0.1565 0.3159 0.12545 0.0
C591 C 0.17222 0.3045 0.14272 0.0
C592 C 0.15214 0.34464 0.08762 0.0
C593 C 0.12916 0.33074 0.07358 0.0
C594 C 0.15874 0.37164 0.08602 0.0
C595 C 0.18157 0.38785 0.10193 0.0
C596 C 0.18291 0.38843 0.13174 0.0
C597 C 0.20453 0.4037 0.14658 0.0
C598 C 0.22481 0.41863 0.13186 0.0
C599 C 0.22348 0.41839 0.10228 0.0
C600 C 0.20192 0.40313 0.08733 0.0
C601 C 0.05793 0.4011 0.04521 0.0
C602 C 0.06788 0.41796 0.02489 0.0
C603 C 0.07423 0.38474 0.05472 0.0
C604 C 0.10074 0.38501 0.04408 0.0
C605 C 0.11038 0.40123 0.02305 0.0
C606 C 0.094 0.41748 0.01339 0.0
C607 C 0.11907 0.37013 0.05682 0.0
C608 C 0.14236 0.38391 0.07029 0.0
C609 C 0.11253 0.34313 0.05817 0.0
C610 C 0.0887 0.32743 0.04343 0.0
C611 C 0.08497 0.32837 0.01416 0.0
C612 C 0.06239 0.31367 0.00045 0.0
C613 C 0.04344 0.29783 0.01574 0.0
C614 C 0.04708 0.29661 0.04477 0.0
C615 C 0.06963 0.31128 0.0586 0.0
H616 H 0.02597 0.28646 0.00508 0.0
H617 H 0.24152 0.43045 0.14339 0.0
H618 H 0.66172 0.27685 0.01623 0.0
H619 H 0.63899 0.23575 0.03108 0.0
H620 H 0.66416 0.19562 0.95239 0.0
H621 H 0.6867 0.23666 0.93721 0.0
H622 H 0.61064 0.18551 0.96059 0.0
H623 H 0.68872 0.18621 0.0163 0.0
H624 H 0.72413 0.20427 0.05126 0.0
H625 H 0.66369 0.21101 0.11716 0.0
H626 H 0.62787 0.19334 0.0825 0.0
H627 H 0.5472 0.06261 0.99014 0.0
H628 H 0.58327 0.0981 0.98126 0.0
H629 H 0.56281 0.14095 0.06031 0.0
H630 H 0.52718 0.105 0.0697 0.0
H631 H 0.61644 0.14815 0.05176 0.0
H632 H 0.53879 0.15219 0.9963 0.0
H633 H 0.50244 0.13532 0.962 0.0
H634 H 0.56141 0.12148 0.89635 0.0
H635 H 0.59813 0.13797 0.93038 0.0
C636 C 0.6629 0.25923 0.00231 0.0
C637 C 0.67574 0.26007 0.97538 0.0
C638 C 0.65 0.23571 0.01092 0.0
C639 C 0.64988 0.21262 0.99284 0.0
C640 C 0.66396 0.21324 0.96663 0.0
C641 C 0.67685 0.23672 0.95801 0.0
C642 C 0.6325 0.18846 0.99968 0.0
C643 C 0.61231 0.17704 0.98027 0.0
C644 C 0.63407 0.17796 0.02581 0.0
C645 C 0.65558 0.18865 0.04671 0.0
C646 C 0.68295 0.19176 0.03818 0.0
C647 C 0.70311 0.20188 0.05797 0.0
C648 C 0.69616 0.20884 0.0864 0.0
C649 C 0.66904 0.20564 0.09512 0.0
C650 C 0.64881 0.19554 0.07542 0.0
C651 C 0.55055 0.07954 0.0057 0.0
C652 C 0.53422 0.08134 0.03037 0.0
C653 C 0.57113 0.09979 0.00062 0.0
C654 C 0.57535 0.12241 0.01983 0.0
C655 C 0.55983 0.12373 0.04515 0.0
C656 C 0.53943 0.10328 0.05043 0.0
C657 C 0.59474 0.14525 0.01258 0.0
C658 C 0.61508 0.15649 0.03195 0.0
C659 C 0.59323 0.15584 0.9865 0.0
C660 C 0.57118 0.14606 0.96596 0.0
C661 C 0.54399 0.14539 0.9746 0.0
C662 C 0.52333 0.13592 0.9552 0.0
C663 C 0.52961 0.12727 0.92704 0.0
C664 C 0.55658 0.12815 0.91819 0.0
C665 C 0.57732 0.13757 0.93751 0.0
H666 H 0.51358 0.11994 0.91205 0.0
H667 H 0.7118 0.21667 0.10169 0.0
H668 H 0.97998 0.75286 0.38452 0.0
H669 H 0.97841 0.79712 0.40593 0.0
H670 H 0.94271 0.76785 0.4827 0.0
H671 H 0.9441 0.72355 0.4613 0.0
H672 H 0.92109 0.8094 0.47091 0.0
H673 H 0.01 0.78801 0.47806 0.0
H674 H 0.05203 0.7728 0.46002 0.0
H675 H 0.06737 0.83437 0.40628 0.0
H676 H 0.02521 0.84974 0.42373 0.0
H677 H 0.96515 0.91895 0.5715 0.0
H678 H 0.95557 0.87641 0.54402 0.0
H679 H 0.98864 0.90928 0.46819 0.0
H680 H 0.99841 0.9519 0.49544 0.0
H681 H 0.01001 0.86668 0.47768 0.0
H682 H 0.92191 0.88995 0.47422 0.0
H683 H 0.88039 0.90503 0.494 0.0
H684 H 0.86406 0.84007 0.5429 0.0
H685 H 0.90571 0.82477 0.52372 0.0
C686 C 0.97137 0.75586 0.40578 0.0
C687 C 0.96194 0.73475 0.42115 0.0
C688 C 0.97053 0.78114 0.41801 0.0
C689 C 0.9608 0.78579 0.44607 0.0
C690 C 0.95021 0.76469 0.46099 0.0
C691 C 0.95083 0.73935 0.44865 0.0
C692 C 0.96357 0.81259 0.46056 0.0
C693 C 0.94055 0.82187 0.47261 0.0
C694 C 0.98891 0.82899 0.46242 0.0
C695 C 0.01431 0.81985 0.45197 0.0
C696 C 0.02223 0.79818 0.46223 0.0
C697 C 0.04609 0.78955 0.45214 0.0
C698 C 0.06232 0.80257 0.43195 0.0
C699 C 0.05475 0.82428 0.42188 0.0
C700 C 0.03089 0.83297 0.43187 0.0
C701 C 0.97017 0.91723 0.54892 0.0
C702 C 0.98268 0.93887 0.53573 0.0
C703 C 0.96453 0.8929 0.53321 0.0
C704 C 0.97126 0.88973 0.50404 0.0
C705 C 0.98325 0.91134 0.49069 0.0
C706 C 0.98877 0.9357 0.50632 0.0
C707 C 0.96754 0.86358 0.48794 0.0
C708 C 0.99048 0.85434 0.47573 0.0
C709 C 0.94218 0.84724 0.48619 0.0
C710 C 0.91708 0.85634 0.49772 0.0
C711 C 0.90959 0.87899 0.48938 0.0
C712 C 0.886 0.88756 0.50045 0.0
C713 C 0.86963 0.87355 0.51975 0.0
C714 C 0.87678 0.85091 0.52797 0.0
C715 C 0.90036 0.84227 0.51698 0.0
H716 H 0.85137 0.88021 0.5283 0.0
H717 H 0.08078 0.79586 0.42417 0.0
H718 H 0.39237 0.81246 0.63029 0.0
H719 H 0.40506 0.76923 0.62393 0.0
H720 H 0.48914 0.80304 0.63144 0.0
H721 H 0.47668 0.84628 0.63721 0.0
H722 H 0.48271 0.76492 0.58929 0.0
H723 H 0.45312 0.77645 0.68737 0.0
H724 H 0.42139 0.78585 0.72679 0.0
H725 H 0.36337 0.72136 0.69302 0.0
H726 H 0.39465 0.71178 0.65317 0.0
H727 H 0.54077 0.65861 0.61707 0.0
H728 H 0.52294 0.69929 0.62715 0.0
H729 H 0.44296 0.65953 0.60551 0.0
H730 H 0.46074 0.61862 0.5953 0.0
H731 H 0.44506 0.69907 0.65361 0.0
H732 H 0.47584 0.68745 0.55573 0.0
H733 H 0.50919 0.67722 0.51824 0.0
H734 H 0.56615 0.74201 0.55332 0.0
H735 H 0.53326 0.75244 0.59122 0.0
C736 C 0.41357 0.81069 0.63047 0.0
C737 C 0.43352 0.83279 0.63435 0.0
C738 C 0.42078 0.78597 0.62697 0.0
C739 C 0.44803 0.7829 0.62761 0.0
C740 C 0.46799 0.80495 0.63092 0.0
C741 C 0.46082 0.82966 0.63426 0.0
C742 C 0.45586 0.75675 0.62494 0.0
C743 C 0.47464 0.75065 0.60354 0.0
C744 C 0.44491 0.73789 0.64315 0.0
C745 C 0.42611 0.74358 0.66712 0.0
C746 C 0.43351 0.7644 0.68823 0.0
C747 C 0.41563 0.76974 0.71067 0.0
C748 C 0.39035 0.75426 0.71236 0.0
C749 C 0.38294 0.73336 0.69165 0.0
C750 C 0.40074 0.72796 0.66915 0.0
C751 C 0.5193 0.65843 0.61504 0.0
C752 C 0.50213 0.6356 0.6052 0.0
C753 C 0.50917 0.68166 0.62073 0.0
C754 C 0.48175 0.68238 0.61665 0.0
C755 C 0.4642 0.65929 0.60869 0.0
C756 C 0.47436 0.63601 0.60286 0.0
C757 C 0.47206 0.70756 0.61828 0.0
C758 C 0.45293 0.71339 0.63934 0.0
C759 C 0.48273 0.72624 0.59985 0.0
C760 C 0.50218 0.72058 0.57646 0.0
C761 C 0.49552 0.69945 0.55551 0.0
C762 C 0.51433 0.69362 0.53419 0.0
C763 C 0.53981 0.70889 0.53351 0.0
C764 C 0.54642 0.73018 0.55393 0.0
C765 C 0.52769 0.73608 0.5753 0.0
H766 H 0.55444 0.7042 0.5172 0.0
H767 H 0.37653 0.75842 0.72975 0.0
H768 H 0.80527 0.86166 0.83295 0.0
H769 H 0.83615 0.89295 0.80846 0.0
H770 H 0.88901 0.83633 0.78758 0.0
H771 H 0.85903 0.80547 0.81364 0.0
H772 H 0.91831 0.8817 0.80047 0.0
H773 H 0.84306 0.84884 0.73931 0.0
H774 H 0.79504 0.83858 0.72617 0.0
H775 H 0.78784 0.91916 0.74101 0.0
H776 H 0.83576 0.92987 0.75459 0.0
H777 H 0.98285 0.93021 0.67467 0.0
H778 H 0.95777 0.90503 0.7105 0.0
H779 H 0.91465 0.96843 0.73716 0.0
H780 H 0.93969 0.99366 0.70154 0.0
H781 H 0.88103 0.92197 0.72361 0.0
H782 H 0.95909 0.95418 0.78083 0.0
H783 H 0.00773 0.96273 0.79129 0.0
H784 H 0.0104 0.88112 0.78065 0.0
H785 H 0.96182 0.87208 0.76972 0.0
C786 C 0.82381 0.85607 0.82404 0.0
C787 C 0.82979 0.83113 0.82576 0.0
C788 C 0.8413 0.87389 0.80953 0.0
C789 C 0.86479 0.86692 0.79584 0.0
C790 C 0.87105 0.8422 0.79798 0.0
C791 C 0.85375 0.82451 0.81274 0.0
C792 C 0.8823 0.8849 0.77833 0.0
C793 C 0.91018 0.89033 0.78351 0.0
C794 C 0.8717 0.8965 0.75643 0.0
C795 C 0.8429 0.89012 0.74827 0.0
C796 C 0.83117 0.86435 0.73998 0.0
C797 C 0.80399 0.85845 0.73242 0.0
C798 C 0.78838 0.8782 0.73284 0.0
C799 C 0.79995 0.90389 0.74075 0.0
C800 C 0.82712 0.90988 0.74836 0.0
C801 C 0.96838 0.93891 0.68856 0.0
C802 C 0.96311 0.9638 0.68532 0.0
C803 C 0.95412 0.92456 0.70903 0.0
C804 C 0.93437 0.9349 0.72647 0.0
C805 C 0.92979 0.96011 0.72388 0.0
C806 C 0.94416 0.97451 0.7036 0.0
C807 C 0.91696 0.91871 0.74575 0.0
C808 C 0.8891 0.91354 0.74077 0.0
C809 C 0.92766 0.9071 0.76749 0.0
C810 C 0.95685 0.91247 0.7742 0.0
C811 C 0.97009 0.93806 0.78049 0.0
C812 C 0.99764 0.94299 0.78655 0.0
C813 C 0.01216 0.92248 0.78657 0.0
C814 C 0.99913 0.89699 0.7806 0.0
C815 C 0.97158 0.89195 0.7745 0.0
H816 H 0.0335 0.92634 0.79127 0.0
H817 H 0.76734 0.8736 0.72697 0.0
H818 H 0.69668 0.11638 0.33968 0.0
H819 H 0.67743 0.11532 0.29255 0.0
H820 H 0.63334 0.17672 0.32459 0.0
H821 H 0.65187 0.17723 0.372 0.0
H822 H 0.60117 0.13684 0.29717 0.0
H823 H 0.68509 0.18801 0.27654 0.0
H824 H 0.73461 0.20034 0.27492 0.0
H825 H 0.7416 0.13041 0.2208 0.0
H826 H 0.69214 0.11745 0.22242 0.0
H827 H 0.54362 0.12525 0.16102 0.0
H828 H 0.57106 0.14708 0.20139 0.0
H829 H 0.62385 0.08962 0.18773 0.0
H830 H 0.59686 0.06811 0.14717 0.0
H831 H 0.65206 0.13677 0.20508 0.0
H832 H 0.57031 0.08228 0.23397 0.0
H833 H 0.52099 0.06834 0.23627 0.0
H834 H 0.5106 0.14375 0.27572 0.0
H835 H 0.55987 0.15823 0.2733 0.0
C836 C 0.68321 0.12992 0.33653 0.0
C837 C 0.67623 0.14727 0.35935 0.0
C838 C 0.67239 0.12944 0.30956 0.0
C839 C 0.65431 0.14626 0.30492 0.0
C840 C 0.64755 0.16384 0.32761 0.0
C841 C 0.65844 0.16436 0.35461 0.0
C842 C 0.64056 0.14358 0.27716 0.0
C843 C 0.61228 0.13751 0.27705 0.0
C844 C 0.65508 0.14394 0.25091 0.0
C845 C 0.68487 0.15169 0.24975 0.0
C846 C 0.69719 0.17516 0.26445 0.0
C847 C 0.72525 0.18228 0.26351 0.0
C848 C 0.74124 0.16615 0.2478 0.0
C849 C 0.72919 0.14288 0.23296 0.0
C850 C 0.70113 0.13566 0.23385 0.0
C851 C 0.56142 0.11765 0.1663 0.0
C852 C 0.56798 0.09484 0.1513 0.0
C853 C 0.57703 0.13008 0.18936 0.0
C854 C 0.59921 0.11969 0.19785 0.0
C855 C 0.60681 0.09794 0.18159 0.0
C856 C 0.5913 0.0856 0.1585 0.0
C857 C 0.61282 0.12956 0.22523 0.0
C858 C 0.641 0.13682 0.22525 0.0
C859 C 0.59827 0.13016 0.25149 0.0
C860 C 0.5687 0.12142 0.25313 0.0
C861 C 0.55748 0.09593 0.24295 0.0
C862 C 0.52955 0.08793 0.24429 0.0
C863 C 0.51266 0.10518 0.25605 0.0
C864 C 0.52369 0.13044 0.26656 0.0
C865 C 0.55161 0.13855 0.26521 0.0
H866 H 0.49104 0.09895 0.25707 0.0
H867 H 0.76297 0.17169 0.2471 0.0
H868 H 0.46357 0.65544 0.26372 0.0
H869 H 0.48461 0.63802 0.30174 0.0
H870 H 0.44516 0.68555 0.36499 0.0
H871 H 0.42391 0.70304 0.32711 0.0
H872 H 0.49984 0.68409 0.37714 0.0
H873 H 0.41798 0.62531 0.35094 0.0
H874 H 0.38675 0.59686 0.31736 0.0
H875 H 0.44794 0.54974 0.29368 0.0
H876 H 0.47968 0.57815 0.32685 0.0
H877 H 0.50565 0.61866 0.49947 0.0
H878 H 0.4923 0.63969 0.4599 0.0
H879 H 0.52512 0.58426 0.3999 0.0
H880 H 0.53831 0.56285 0.43939 0.0
H881 H 0.47584 0.58986 0.38474 0.0
H882 H 0.5576 0.64653 0.40938 0.0
H883 H 0.59097 0.6748 0.44065 0.0
H884 H 0.53281 0.72493 0.46577 0.0
H885 H 0.499 0.69688 0.43452 0.0
C886 C 0.45958 0.66241 0.2857 0.0
C887 C 0.44193 0.68049 0.29243 0.0
C888 C 0.47157 0.65238 0.30738 0.0
C889 C 0.4662 0.66034 0.33612 0.0
C890 C 0.44951 0.67917 0.34291 0.0
C891 C 0.43732 0.68906 0.32125 0.0
C892 C 0.47693 0.64809 0.35909 0.0
C893 C 0.49439 0.66355 0.37904 0.0
C894 C 0.47038 0.62117 0.361 0.0
C895 C 0.45129 0.60402 0.34114 0.0
C896 C 0.42485 0.60901 0.33839 0.0
C897 C 0.40704 0.59287 0.31947 0.0
C898 C 0.41538 0.57155 0.30333 0.0
C899 C 0.44153 0.56629 0.30615 0.0
C900 C 0.45942 0.58239 0.32502 0.0
C901 C 0.51017 0.61097 0.47788 0.0
C902 C 0.52301 0.589 0.47261 0.0
C903 C 0.50266 0.62313 0.45527 0.0
C904 C 0.50792 0.61367 0.42695 0.0
C905 C 0.52089 0.59188 0.4216 0.0
C906 C 0.52847 0.57971 0.44422 0.0
C907 C 0.49876 0.62584 0.40294 0.0
C908 C 0.48147 0.61038 0.38282 0.0
C909 C 0.5057 0.65269 0.40072 0.0
C910 C 0.52574 0.66952 0.41978 0.0
C911 C 0.55186 0.66349 0.42172 0.0
C912 C 0.57088 0.67951 0.43939 0.0
C913 C 0.56403 0.70166 0.45522 0.0
C914 C 0.53811 0.70781 0.45342 0.0
C915 C 0.51902 0.69189 0.43568 0.0
H916 H 0.57882 0.71406 0.46886 0.0
H917 H 0.40156 0.55907 0.2887 0.0
H918 H 0.16171 0.41322 0.72946 0.0
H919 H 0.14144 0.42133 0.77686 0.0
H920 H 0.07733 0.4515 0.73945 0.0
H921 H 0.09821 0.44429 0.69221 0.0
H922 H 0.09363 0.48198 0.78239 0.0
H923 H 0.06822 0.39091 0.76696 0.0
H924 H 0.07509 0.34572 0.75397 0.0
H925 H 0.12731 0.3512 0.82543 0.0
H926 H 0.12119 0.39661 0.83854 0.0
H927 H 0.01942 0.45486 0.92497 0.0
H928 H 0.03587 0.43647 0.87871 0.0
H929 H 0.10323 0.49905 0.88147 0.0
H930 H 0.08621 0.51799 0.9268 0.0
H931 H 0.07947 0.41926 0.85465 0.0
H932 H 0.11327 0.52196 0.81915 0.0
H933 H 0.1014 0.56579 0.82947 0.0
H934 H 0.02129 0.53329 0.85498 0.0
H935 H 0.03256 0.48929 0.84444 0.0
C936 C 0.14305 0.42118 0.73139 0.0
C937 C 0.13133 0.42791 0.70726 0.0
C938 C 0.13144 0.42578 0.75845 0.0
C939 C 0.10758 0.43668 0.76176 0.0
C940 C 0.09572 0.44308 0.7375 0.0
C941 C 0.10761 0.43895 0.71053 0.0
C942 C 0.09594 0.44295 0.79062 0.0
C943 C 0.09045 0.46816 0.79807 0.0
C944 C 0.09115 0.4248 0.81099 0.0
C945 C 0.0944 0.39727 0.80361 0.0
C946 C 0.08129 0.38254 0.77982 0.0
C947 C 0.08505 0.35688 0.77243 0.0
C948 C 0.10167 0.34562 0.78883 0.0
C949 C 0.11446 0.35996 0.81273 0.0
C950 C 0.11084 0.38567 0.82017 0.0
C951 C 0.03795 0.4644 0.91581 0.0
C952 C 0.05134 0.48805 0.92901 0.0
C953 C 0.04736 0.45386 0.88947 0.0
C954 C 0.0704 0.46674 0.8763 0.0
C955 C 0.08501 0.48915 0.89086 0.0
C956 C 0.07534 0.49992 0.91677 0.0
C957 C 0.07791 0.45839 0.84638 0.0
C958 C 0.08256 0.4329 0.83879 0.0
C959 C 0.08098 0.47594 0.8254 0.0
C960 C 0.07385 0.50235 0.83122 0.0
C961 C 0.09308 0.52418 0.82681 0.0
C962 C 0.08646 0.54904 0.83273 0.0
C963 C 0.06063 0.55232 0.84295 0.0
C964 C 0.04132 0.53073 0.84715 0.0
C965 C 0.04781 0.50583 0.84122 0.0
H966 H 0.05557 0.57159 0.84756 0.0
H967 H 0.10459 0.32576 0.78303 0.0
H968 H 0.74269 0.92183 0.92551 0.0
H969 H 0.71069 0.94699 0.9512 0.0
H970 H 0.64457 0.88746 0.92282 0.0
H971 H 0.67626 0.86245 0.89681 0.0
H972 H 0.63248 0.93456 0.91853 0.0
H973 H 0.66958 0.89229 0.99022 0.0
H974 H 0.70614 0.881 0.01769 0.0
H975 H 0.73157 0.96134 0.04636 0.0
H976 H 0.69535 0.97314 0.01875 0.0
H977 H 0.52766 0.96057 0.01448 0.0
H978 H 0.56319 0.94065 0.98854 0.0
H979 H 0.62282 0.00455 0.02182 0.0
H980 H 0.58737 0.02454 0.04829 0.0
H981 H 0.64038 0.95892 0.02303 0.0
H982 H 0.60085 0.00086 0.95404 0.0
H983 H 0.56377 0.01182 0.92711 0.0
H984 H 0.54267 0.93214 0.89328 0.0
H985 H 0.57937 0.92062 0.92038 0.0
C986 C 0.72133 0.91416 0.92464 0.0
C987 C 0.71204 0.89007 0.90922 0.0
C988 C 0.70308 0.92851 0.93942 0.0
C989 C 0.67526 0.91896 0.93919 0.0
C990 C 0.66594 0.89521 0.92331 0.0
C991 C 0.68412 0.88089 0.90852 0.0
C992 C 0.65575 0.93339 0.95577 0.0
C993 C 0.63407 0.9397 0.94141 0.0
C994 C 0.65823 0.94069 0.98551 0.0
C995 C 0.67996 0.93362 0.00217 0.0
C996 C 0.68311 0.90756 0.0022 0.0
C997 C 0.70374 0.90107 0.01783 0.0
C998 C 0.72122 0.92045 0.03369 0.0
C999 C 0.71805 0.94636 0.03402 0.0
C1000 C 0.69746 0.95296 0.01841 0.0
C1001 C 0.54832 0.9704 0.01642 0.0
C1002 C 0.55463 0.99425 0.03337 0.0
C1003 C 0.56861 0.95902 0.00145 0.0
C1004 C 0.59558 0.97134 0.00283 0.0
C1005 C 0.6021 0.99477 0.02035 0.0
C1006 C 0.5818 0.00616 0.03547 0.0
C1007 C 0.61688 0.95973 0.98584 0.0
C1008 C 0.6389 0.95399 0.0001 0.0
C1009 C 0.6147 0.95294 0.95599 0.0
C1010 C 0.59275 0.95984 0.93944 0.0
C1011 C 0.58819 0.98564 0.94102 0.0
C1012 C 0.56725 0.99196 0.9257 0.0
C1013 C 0.55084 0.97268 0.90854 0.0
C1014 C 0.55538 0.94705 0.90661 0.0
C1015 C 0.57627 0.94062 0.92192 0.0
H1016 H 0.53463 0.97761 0.8967 0.0
H1017 H 0.73718 0.91538 0.04577 0.0
H1018 H 0.80137 0.1445 0.45563 0.0
H1019 H 0.8451 0.13396 0.4676 0.0
H1020 H 0.80941 0.0537 0.46773 0.0
H1021 H 0.76595 0.06396 0.45524 0.0
H1022 H 0.8569 0.11708 0.51452 0.0
H1023 H 0.85414 0.01399 0.45224 0.0
H1024 H 0.8405 0.99155 0.40499 0.0
H1025 H 0.8502 0.06442 0.37011 0.0
H1026 H 0.86429 0.0873 0.41703 0.0
H1027 H 0.9088 0.03068 0.58867 0.0
H1028 H 0.88238 0.05189 0.55879 0.0
H1029 H 0.94799 0.0591 0.49717 0.0
H1030 H 0.97471 0.03778 0.52735 0.0
H1031 H 0.89724 0.04098 0.47261 0.0
H1032 H 0.93851 0.11173 0.53485 0.0
H1033 H 0.95444 0.13551 0.58076 0.0
H1034 H 0.87257 0.13124 0.61183 0.0
H1035 H 0.85615 0.10701 0.56629 0.0
C1036 C 0.80296 0.12454 0.45774 0.0
C1037 C 0.78016 0.10508 0.45464 0.0
C1038 C 0.82797 0.11855 0.46457 0.0
C1039 C 0.83062 0.09302 0.46832 0.0
C1040 C 0.80804 0.07346 0.46436 0.0
C1041 C 0.78311 0.0794 0.45745 0.0
C1042 C 0.85599 0.08704 0.47933 0.0
C1043 C 0.86595 0.10068 0.5051 0.0
C1044 C 0.86834 0.06608 0.46666 0.0
C1045 C 0.86016 0.05238 0.43825 0.0
C1046 C 0.85355 0.02523 0.43447 0.0
C1047 C 0.84568 0.01243 0.40774 0.0
C1048 C 0.84444 0.02655 0.38458 0.0
C1049 C 0.8511 0.05351 0.38808 0.0
C1050 C 0.85899 0.06641 0.41476 0.0
C1051 C 0.91763 0.03681 0.56878 0.0
C1052 C 0.94379 0.03273 0.56028 0.0
C1053 C 0.90258 0.04901 0.5518 0.0
C1054 C 0.91339 0.05732 0.52598 0.0
C1055 C 0.9394 0.05292 0.51713 0.0
C1056 C 0.95462 0.04083 0.53433 0.0
C1057 C 0.89688 0.07016 0.50838 0.0
C1058 C 0.8886 0.0578 0.4815 0.0
C1059 C 0.88641 0.09261 0.51972 0.0
C1060 C 0.8961 0.10745 0.54713 0.0
C1061 C 0.92389 0.11571 0.55152 0.0
C1062 C 0.93302 0.12929 0.57749 0.0
C1063 C 0.91452 0.13487 0.5992 0.0
C1064 C 0.88687 0.12691 0.59498 0.0
C1065 C 0.87764 0.11329 0.56907 0.0
H1066 H 0.92163 0.14538 0.61929 0.0
H1067 H 0.83833 0.0166 0.36391 0.0
H1068 H 0.26626 0.6928 0.12007 0.0
H1069 H 0.22644 0.66272 0.10282 0.0
H1070 H 0.2747 0.6282 0.03643 0.0
H1071 H 0.31484 0.65824 0.05361 0.0
H1072 H 0.22449 0.63587 0.01757 0.0
H1073 H 0.26028 0.59732 0.09189 0.0
H1074 H 0.2779 0.59598 0.13979 0.0
H1075 H 0.20235 0.61133 0.17781 0.0
H1076 H 0.18441 0.61315 0.13014 0.0
H1077 H 0.11479 0.514 0.03237 0.0
H1078 H 0.15967 0.53878 0.04309 0.0
H1079 H 0.13071 0.60923 0.02979 0.0
H1080 H 0.08606 0.58484 0.01897 0.0
H1081 H 0.17554 0.57814 0.08512 0.0
H1082 H 0.18053 0.64828 0.9978 0.0
H1083 H 0.16375 0.648 0.94917 0.0
H1084 H 0.16019 0.56554 0.93507 0.0
H1085 H 0.17735 0.56537 0.98342 0.0
C1086 C 0.26842 0.679 0.10162 0.0
C1087 C 0.29377 0.67779 0.08832 0.0
C1088 C 0.24566 0.66176 0.09188 0.0
C1089 C 0.24777 0.64305 0.06863 0.0
C1090 C 0.27275 0.64246 0.05451 0.0
C1091 C 0.29563 0.6596 0.06438 0.0
C1092 C 0.22393 0.62371 0.0597 0.0
C1093 C 0.21381 0.62317 0.03225 0.0
C1094 C 0.21042 0.60679 0.07873 0.0
C1095 C 0.22108 0.60557 0.10744 0.0
C1096 C 0.24749 0.60061 0.11048 0.0
C1097 C 0.25753 0.59973 0.13759 0.0
C1098 C 0.24128 0.60362 0.16183 0.0
C1099 C 0.21493 0.60834 0.15901 0.0
C1100 C 0.2048 0.60927 0.13195 0.0
C1101 C 0.11798 0.53477 0.03172 0.0
C1102 C 0.09683 0.54742 0.02476 0.0
C1103 C 0.14361 0.54887 0.03788 0.0
C1104 C 0.14854 0.57576 0.03687 0.0
C1105 C 0.12742 0.58843 0.03024 0.0
C1106 C 0.10184 0.57442 0.0242 0.0
C1107 C 0.17559 0.59087 0.04329 0.0
C1108 C 0.18632 0.59065 0.07031 0.0
C1109 C 0.18982 0.60684 0.02372 0.0
C1110 C 0.18004 0.60681 0.99435 0.0
C1111 C 0.17633 0.63011 0.98426 0.0
C1112 C 0.16672 0.63002 0.95676 0.0
C1113 C 0.16085 0.60676 0.93907 0.0
C1114 C 0.16467 0.58354 0.94882 0.0
C1115 C 0.17431 0.58352 0.97629 0.0
H1116 H 0.15337 0.60673 0.9178 0.0
H1117 H 0.24908 0.60293 0.18281 0.0
H1118 H 0.23978 0.50305 0.59758 0.0
H1119 H 0.28762 0.51929 0.58964 0.0
H1120 H 0.3077 0.44518 0.60392 0.0
H1121 H 0.25999 0.42892 0.61235 0.0
H1122 H 0.34315 0.48432 0.62951 0.0
H1123 H 0.30314 0.46161 0.53646 0.0
H1124 H 0.27049 0.4634 0.49907 0.0
H1125 H 0.29722 0.54515 0.49966 0.0
H1126 H 0.32981 0.5439 0.53734 0.0
H1127 H 0.46974 0.48349 0.55808 0.0
H1128 H 0.42247 0.4752 0.57443 0.0
H1129 H 0.41279 0.55242 0.5589 0.0
H1130 H 0.46012 0.56055 0.54233 0.0
H1131 H 0.37207 0.51637 0.53654 0.0
H1132 H 0.41683 0.53743 0.62542 0.0
H1133 H 0.44956 0.53496 0.66243 0.0
H1134 H 0.41385 0.45625 0.67042 0.0
H1135 H 0.38156 0.4579 0.63275 0.0
C1136 C 0.25439 0.49025 0.5992 0.0
C1137 C 0.24607 0.46463 0.6054 0.0
C1138 C 0.28171 0.49955 0.59458 0.0
C1139 C 0.30118 0.48334 0.59583 0.0
C1140 C 0.29301 0.45801 0.60283 0.0
C1141 C 0.26571 0.44872 0.60753 0.0
C1142 C 0.32998 0.49238 0.58896 0.0
C1143 C 0.34955 0.49112 0.6091 0.0
C1144 C 0.33819 0.50195 0.56264 0.0
C1145 C 0.31868 0.50271 0.53993 0.0
C1146 C 0.3019 0.48 0.52877 0.0
C1147 C 0.28344 0.48091 0.5075 0.0
C1148 C 0.28172 0.50439 0.49706 0.0
C1149 C 0.29853 0.52699 0.5078 0.0
C1150 C 0.31701 0.52619 0.5291 0.0
C1151 C 0.45744 0.49865 0.5584 0.0
C1152 C 0.4682 0.52261 0.54914 0.0
C1153 C 0.43059 0.494 0.56783 0.0
C1154 C 0.4142 0.5133 0.56815 0.0
C1155 C 0.42511 0.53732 0.5589 0.0
C1156 C 0.45203 0.54198 0.54954 0.0
C1157 C 0.38537 0.50787 0.57689 0.0
C1158 C 0.36575 0.50983 0.55709 0.0
C1159 C 0.37717 0.49886 0.60351 0.0
C1160 C 0.3969 0.49771 0.62597 0.0
C1161 C 0.41619 0.51946 0.63475 0.0
C1162 C 0.4347 0.5182 0.65587 0.0
C1163 C 0.43391 0.49542 0.66866 0.0
C1164 C 0.41461 0.47384 0.66036 0.0
C1165 C 0.39621 0.47491 0.63909 0.0
H1166 H 0.44818 0.49452 0.68509 0.0
H1167 H 0.26742 0.50506 0.48059 0.0
H1168 H 0.8213 0.72735 0.94049 0.0
H1169 H 0.84865 0.70115 0.9633 0.0
H1170 H 0.86022 0.65753 0.88194 0.0
H1171 H 0.83237 0.68311 0.8592 0.0
H1172 H 0.85113 0.6261 0.92209 0.0
H1173 H 0.90879 0.70761 0.91138 0.0
H1174 H 0.92163 0.75511 0.91817 0.0
H1175 H 0.91894 0.75373 0.00912 0.0
H1176 H 0.90574 0.70623 0.00285 0.0
H1177 H 0.97135 0.57747 0.93161 0.0
H1178 H 0.9389 0.60485 0.92103 0.0
H1179 H 0.92832 0.62733 0.01102 0.0
H1180 H 0.96088 0.59958 0.02185 0.0
H1181 H 0.9334 0.66902 0.9744 0.0
H1182 H 0.88222 0.58552 0.98328 0.0
H1183 H 0.87226 0.53793 0.97449 0.0
H1184 H 0.86433 0.54283 0.88499 0.0
H1185 H 0.87486 0.59047 0.89312 0.0
C1186 C 0.82957 0.71208 0.9275 0.0
C1187 C 0.82479 0.70738 0.89801 0.0
C1188 C 0.84526 0.69719 0.94055 0.0
C1189 C 0.85678 0.67759 0.92427 0.0
C1190 C 0.85153 0.67253 0.89495 0.0
C1191 C 0.83567 0.68723 0.88195 0.0
C1192 C 0.87486 0.66265 0.93738 0.0
C1193 C 0.86917 0.6355 0.93341 0.0
C1194 C 0.89802 0.67491 0.95287 0.0
C1195 C 0.90596 0.70343 0.95665 0.0
C1196 C 0.91072 0.71747 0.93283 0.0
C1197 C 0.9181 0.74438 0.93658 0.0
C1198 C 0.92101 0.75743 0.96406 0.0
C1199 C 0.91662 0.74359 0.98785 0.0
C1200 C 0.9092 0.71668 0.98421 0.0
C1201 C 0.96236 0.58845 0.94916 0.0
C1202 C 0.96849 0.58639 0.97755 0.0
C1203 C 0.94377 0.60398 0.94309 0.0
C1204 C 0.93103 0.61778 0.96527 0.0
C1205 C 0.93794 0.6167 0.99366 0.0
C1206 C 0.95647 0.60092 0.99979 0.0
C1207 C 0.90997 0.63264 0.95838 0.0
C1208 C 0.91508 0.65969 0.96352 0.0
C1209 C 0.8864 0.62031 0.94376 0.0
C1210 C 0.87956 0.59162 0.93881 0.0
C1211 C 0.87857 0.57647 0.96168 0.0
C1212 C 0.87281 0.54947 0.95682 0.0
C1213 C 0.86773 0.53737 0.92919 0.0
C1214 C 0.8683 0.55224 0.90638 0.0
C1215 C 0.87416 0.57925 0.91111 0.0
H1216 H 0.86336 0.51647 0.92546 0.0
H1217 H 0.92673 0.77827 0.96693 0.0
H1218 H 0.39151 0.75931 0.135 0.0
H1219 H 0.39907 0.8017 0.11689 0.0
H1220 H 0.42523 0.83775 0.20017 0.0
H1221 H 0.41696 0.79556 0.21857 0.0
H1222 H 0.39126 0.86484 0.17641 0.0
H1223 H 0.47051 0.82569 0.1478 0.0
H1224 H 0.49448 0.79177 0.1236 0.0
H1225 H 0.46229 0.8021 0.0432 0.0
H1226 H 0.43783 0.83588 0.06702 0.0
H1227 H 0.47725 0.98077 0.15931 0.0
H1228 H 0.45561 0.93734 0.16795 0.0
H1229 H 0.4348 0.92033 0.07902 0.0
H1230 H 0.45668 0.96408 0.0703 0.0
H1231 H 0.45881 0.88241 0.09885 0.0
H1232 H 0.38547 0.92669 0.12661 0.0
H1233 H 0.36258 0.96135 0.15084 0.0
H1234 H 0.38345 0.94194 0.23239 0.0
H1235 H 0.40685 0.9074 0.20866 0.0
C1236 C 0.39827 0.77631 0.14959 0.0
C1237 C 0.40318 0.77416 0.17833 0.0
C1238 C 0.40291 0.80049 0.13913 0.0
C1239 C 0.41272 0.82287 0.15719 0.0
C1240 C 0.41751 0.82075 0.18591 0.0
C1241 C 0.41296 0.79662 0.19634 0.0
C1242 C 0.41874 0.84852 0.14625 0.0
C1243 C 0.40609 0.86874 0.15952 0.0
C1244 C 0.43739 0.85334 0.12353 0.0
C1245 C 0.45207 0.83306 0.10923 0.0
C1246 C 0.46835 0.82056 0.125 0.0
C1247 C 0.48206 0.8014 0.11135 0.0
C1248 C 0.47983 0.79472 0.08189 0.0
C1249 C 0.46394 0.80725 0.06602 0.0
C1250 C 0.45016 0.82641 0.07958 0.0
C1251 C 0.46778 0.96788 0.14165 0.0
C1252 C 0.46848 0.97573 0.11414 0.0
C1253 C 0.45532 0.94313 0.14664 0.0
C1254 C 0.44333 0.92571 0.12419 0.0
C1255 C 0.44379 0.93356 0.09666 0.0
C1256 C 0.45614 0.95852 0.09171 0.0
C1257 C 0.43192 0.89891 0.12959 0.0
C1258 C 0.44353 0.87845 0.1153 0.0
C1259 C 0.41229 0.89386 0.15136 0.0
C1260 C 0.39806 0.91451 0.16581 0.0
C1261 C 0.38535 0.92991 0.14971 0.0
C1262 C 0.37226 0.94953 0.16335 0.0
C1263 C 0.37159 0.95386 0.19313 0.0
C1264 C 0.38398 0.93855 0.20932 0.0
C1265 C 0.39713 0.91892 0.19578 0.0
H1266 H 0.36144 0.96907 0.20366 0.0
H1267 H 0.49047 0.77988 0.07136 0.0
H1268 H 0.06843 0.29733 0.66642 0.0
H1269 H 0.05097 0.25138 0.66388 0.0
H1270 H 0.1084 0.24224 0.72663 0.0
H1271 H 0.12681 0.28848 0.72846 0.0
H1272 H 0.10855 0.20568 0.68571 0.0
H1273 H 0.0386 0.23595 0.74188 0.0
H1274 H 0.00422 0.26325 0.75777 0.0
H1275 H 0.96057 0.23717 0.68039 0.0
H1276 H 0.9949 0.21001 0.66379 0.0
H1277 H 0.04057 0.07249 0.66994 0.0
H1278 H 0.05421 0.11629 0.69419 0.0
H1279 H 0.02598 0.14879 0.62301 0.0
H1280 H 0.01289 0.10531 0.59848 0.0
H1281 H 0.01062 0.17081 0.68078 0.0
H1282 H 0.08839 0.14684 0.62358 0.0
H1283 H 0.12235 0.11822 0.61108 0.0
H1284 H 0.15032 0.13128 0.69736 0.0
H1285 H 0.1162 0.15967 0.71046 0.0
C1286 C 0.07718 0.28569 0.68 0.0
C1287 C 0.09906 0.29656 0.69759 0.0
C1288 C 0.06701 0.25935 0.67869 0.0
C1289 C 0.07802 0.2433 0.69542 0.0
C1290 C 0.0995 0.25422 0.71358 0.0
C1291 C 0.10996 0.28064 0.71464 0.0
C1292 C 0.06824 0.21493 0.69203 0.0
C1293 C 0.08713 0.19805 0.6854 0.0
C1294 C 0.04029 0.20475 0.69167 0.0
C1295 C 0.01944 0.221 0.70153 0.0
C1296 C 0.02177 0.23615 0.72815 0.0
C1297 C 0.00227 0.25159 0.7373 0.0
C1298 C 0.98024 0.25196 0.72009 0.0
C1299 C 0.97765 0.23686 0.69371 0.0
C1300 C 0.9971 0.22139 0.68444 0.0
C1301 C 0.03705 0.08901 0.65965 0.0
C1302 C 0.0258 0.08559 0.6323 0.0
C1303 C 0.04486 0.11393 0.67348 0.0
C1304 C 0.04104 0.13566 0.66033 0.0
C1305 C 0.02898 0.13221 0.63349 0.0
C1306 C 0.02169 0.10741 0.61945 0.0
C1307 C 0.05089 0.16218 0.6735 0.0
C1308 C 0.032 0.17857 0.68192 0.0
C1309 C 0.07877 0.17178 0.67613 0.0
C1310 C 0.09957 0.15512 0.66807 0.0
C1311 C 0.10165 0.14345 0.63992 0.0
C1312 C 0.12095 0.1273 0.63272 0.0
C1313 C 0.13845 0.1229 0.65342 0.0
C1314 C 0.13675 0.13471 0.68135 0.0
C1315 C 0.11743 0.15082 0.68868 0.0
H1316 H 0.15335 0.11036 0.64782 0.0
H1317 H 0.96517 0.26394 0.72722 0.0
H1318 H 0.60741 0.26526 0.39001 0.0
H1319 H 0.59647 0.30883 0.40125 0.0
H1320 H 0.67971 0.33784 0.42206 0.0
H1321 H 0.69079 0.29422 0.41125 0.0
H1322 H 0.64616 0.35398 0.46307 0.0
H1323 H 0.65267 0.3521 0.36139 0.0
H1324 H 0.64315 0.33422 0.31151 0.0
H1325 H 0.55886 0.33807 0.32588 0.0
H1326 H 0.56781 0.35564 0.37598 0.0
H1327 H 0.623 0.484 0.48633 0.0
H1328 H 0.6413 0.44572 0.46477 0.0
H1329 H 0.56091 0.40828 0.44122 0.0
H1330 H 0.54264 0.44657 0.4623 0.0
H1331 H 0.59703 0.39867 0.39933 0.0
H1332 H 0.58925 0.39579 0.50115 0.0
H1333 H 0.59743 0.41271 0.55156 0.0
H1334 H 0.68291 0.41663 0.53721 0.0
H1335 H 0.67523 0.40007 0.48658 0.0
C1336 C 0.62347 0.28094 0.39668 0.0
C1337 C 0.64996 0.27625 0.39982 0.0
C1338 C 0.6172 0.30587 0.40297 0.0
C1339 C 0.63733 0.32662 0.41227 0.0
C1340 C 0.66389 0.3221 0.41489 0.0
C1341 C 0.67018 0.29716 0.40864 0.0
C1342 C 0.63029 0.35269 0.42094 0.0
C1343 C 0.63592 0.364 0.44892 0.0
C1344 C 0.61633 0.36544 0.40271 0.0
C1345 C 0.6109 0.35502 0.37252 0.0
C1346 C 0.63207 0.34897 0.35398 0.0
C1347 C 0.62678 0.33891 0.32565 0.0
C1348 C 0.60041 0.33496 0.31555 0.0
C1349 C 0.57928 0.34112 0.33374 0.0
C1350 C 0.58445 0.35117 0.3621 0.0
C1351 C 0.60934 0.4677 0.47624 0.0
C1352 C 0.58143 0.46808 0.47612 0.0
C1353 C 0.61977 0.44585 0.46402 0.0
C1354 C 0.6024 0.42405 0.45173 0.0
C1355 C 0.57466 0.42489 0.4506 0.0
C1356 C 0.56424 0.44671 0.46274 0.0
C1357 C 0.61277 0.39979 0.44146 0.0
C1358 C 0.60765 0.38879 0.41327 0.0
C1359 C 0.62705 0.3872 0.45954 0.0
C1360 C 0.63169 0.39699 0.49001 0.0
C1361 C 0.6098 0.40045 0.5087 0.0
C1362 C 0.61434 0.40995 0.53731 0.0
C1363 C 0.64068 0.41582 0.54756 0.0
C1364 C 0.66252 0.41212 0.52923 0.0
C1365 C 0.65809 0.40268 0.50057 0.0
H1366 H 0.64416 0.42317 0.56972 0.0
H1367 H 0.59636 0.32717 0.29361 0.0
loop_
_geom_bond_atom_site_label_1
_geom_bond_atom_site_label_2
_geom_bond_distance
_geom_bond_site_symmetry_2
_ccdc_geom_bond_type
O0 Cd1 2.300 . S
O0 C7 1.275 . S
Cd1 O0 2.300 . S
Cd1 O9 2.381 . S
Cd1 O10 2.378 . S
O2 Cd3 2.385 . S
O2 C7 1.255 . S
Cd3 O2 2.385 . S
Cd3 O4 2.317 . S
O4 Cd3 2.317 . S
O4 C5 1.232 . S
C5 O4 1.232 . S
C5 O6 1.218 . S
O6 C5 1.218 . S
C7 O0 1.275 . S
C7 O2 1.255 . S
C8 O9 1.258 . S
C8 O10 1.256 . S
O9 Cd1 2.381 . S
O9 C8 1.258 . S
O10 Cd1 2.378 . S
O10 C8 1.256 . S
O11 Cd12 2.300 . S
O11 C18 1.275 . S
Cd12 O11 2.300 . S
Cd12 O20 2.381 . S
Cd12 O21 2.378 . S
O13 Cd14 2.385 . S
O13 C18 1.255 . S
Cd14 O13 2.385 . S
Cd14 O15 2.317 . S
O15 Cd14 2.317 . S
O15 C16 1.232 . S
C16 O15 1.232 . S
C16 O17 1.218 . S
O17 C16 1.218 . S
C18 O11 1.275 . S
C18 O13 1.255 . S
C19 O20 1.258 . S
C19 O21 1.256 . S
O20 Cd12 2.381 . S
O20 C19 1.258 . S
O21 Cd12 2.378 . S
O21 C19 1.256 . S
O22 Cd23 2.300 . S
O22 C29 1.275 . S
Cd23 O22 2.300 . S
Cd23 O31 2.381 . S
Cd23 O32 2.378 . S
O24 Cd25 2.385 . S
O24 C29 1.255 . S
Cd25 O24 2.385 . S
Cd25 O26 2.317 . S
O26 Cd25 2.317 . S
O26 C27 1.232 . S
C27 O26 1.232 . S
C27 O28 1.218 . S
O28 C27 1.218 . S
C29 O22 1.275 . S
C29 O24 1.255 . S
C30 O31 1.258 . S
C30 O32 1.256 . S
O31 Cd23 2.381 . S
O31 C30 1.258 . S
O32 Cd23 2.378 . S
O32 C30 1.256 . S
O33 Cd34 2.300 . S
O33 C40 1.275 . S
Cd34 O33 2.300 . S
Cd34 O42 2.381 . S
Cd34 O43 2.378 . S
O35 Cd36 2.385 . S
O35 C40 1.255 . S
Cd36 O35 2.385 . S
Cd36 O37 2.317 . S
O37 Cd36 2.317 . S
O37 C38 1.232 . S
C38 O37 1.232 . S
C38 O39 1.218 . S
O39 C38 1.218 . S
C40 O33 1.275 . S
C40 O35 1.255 . S
C41 O42 1.258 . S
C41 O43 1.256 . S
O42 Cd34 2.381 . S
O42 C41 1.258 . S
O43 Cd34 2.378 . S
O43 C41 1.256 . S
O44 Cd45 2.300 . S
O44 C51 1.275 . S
Cd45 O44 2.300 . S
Cd45 O53 2.381 . S
Cd45 O54 2.378 . S
O46 Cd47 2.385 . S
O46 C51 1.255 . S
Cd47 O46 2.385 . S
Cd47 O48 2.317 . S
O48 Cd47 2.317 . S
O48 C49 1.232 . S
C49 O48 1.232 . S
C49 O50 1.218 . S
O50 C49 1.218 . S
C51 O44 1.275 . S
C51 O46 1.255 . S
C52 O53 1.258 . S
C52 O54 1.256 . S
O53 Cd45 2.381 . S
O53 C52 1.258 . S
O54 Cd45 2.378 . S
O54 C52 1.256 . S
O55 Cd56 2.300 . S
O55 C62 1.275 . S
Cd56 O55 2.300 . S
Cd56 O64 2.381 . S
Cd56 O65 2.378 . S
O57 Cd58 2.385 . S
O57 C62 1.255 . S
Cd58 O57 2.385 . S
Cd58 O59 2.317 . S
O59 Cd58 2.317 . S
O59 C60 1.232 . S
C60 O59 1.232 . S
C60 O61 1.218 . S
O61 C60 1.218 . S
C62 O55 1.275 . S
C62 O57 1.255 . S
C63 O64 1.258 . S
C63 O65 1.256 . S
O64 Cd56 2.381 . S
O64 C63 1.258 . S
O65 Cd56 2.378 . S
O65 C63 1.256 . S
O66 Cd67 2.300 . S
O66 C73 1.275 . S
Cd67 O66 2.300 . S
Cd67 O75 2.381 . S
Cd67 O76 2.378 . S
O68 Cd69 2.385 . S
O68 C73 1.255 . S
Cd69 O68 2.385 . S
Cd69 O70 2.317 . S
O70 Cd69 2.317 . S
O70 C71 1.232 . S
C71 O70 1.232 . S
C71 O72 1.218 . S
O72 C71 1.218 . S
C73 O66 1.275 . S
C73 O68 1.255 . S
C74 O75 1.258 . S
C74 O76 1.256 . S
O75 Cd67 2.381 . S
O75 C74 1.258 . S
O76 Cd67 2.378 . S
O76 C74 1.256 . S
O77 Cd78 2.300 . S
O77 C84 1.275 . S
Cd78 O77 2.300 . S
Cd78 O86 2.381 . S
Cd78 O87 2.378 . S
O79 Cd80 2.385 . S
O79 C84 1.255 . S
Cd80 O79 2.385 . S
Cd80 O81 2.317 . S
O81 Cd80 2.317 . S
O81 C82 1.232 . S
C82 O81 1.232 . S
C82 O83 1.218 . S
O83 C82 1.218 . S
C84 O77 1.275 . S
C84 O79 1.255 . S
C85 O86 1.258 . S
C85 O87 1.256 . S
O86 Cd78 2.381 . S
O86 C85 1.258 . S
O87 Cd78 2.378 . S
O87 C85 1.256 . S
Dy88 O92 2.398 . S
Dy88 O93 2.491 . S
Dy88 O94 2.403 . S
Dy88 O95 2.664 . S
Dy88 O99 2.326 . S
Dy88 O103 2.310 1_455 S
Dy88 O104 2.351 1_545 S
C89 O100 1.185 . S
C89 O101 1.355 . S
C90 O92 1.185 . S
C90 O93 1.355 . S
Dy91 O95 2.310 1_655 S
Dy91 O98 2.351 1_655 S
Dy91 O100 2.398 1_545 S
Dy91 O101 2.491 1_545 S
Dy91 O102 2.403 . S
Dy91 O103 2.664 . S
Dy91 O105 2.326 1_545 S
O92 Dy88 2.398 . S
O92 C90 1.185 . S
O93 Dy88 2.491 . S
O93 C90 1.355 . S
O94 Dy88 2.403 . S
O94 C96 1.262 . S
O95 Dy88 2.664 . S
O95 Dy91 2.310 1_455 S
O95 C96 1.274 . S
C96 O94 1.262 . S
C96 O95 1.274 . S
C97 O102 1.254 . S
C97 O103 1.268 . S
O98 Dy91 2.351 1_455 S
O98 C106 1.249 . S
O99 Dy88 2.326 . S
O99 C106 1.267 . S
O100 C89 1.185 . S
O100 Dy91 2.398 1_565 S
O101 C89 1.355 . S
O101 Dy91 2.491 1_565 S
O102 Dy91 2.403 . S
O102 C97 1.254 . S
O103 Dy88 2.310 1_655 S
O103 Dy91 2.664 . S
O103 C97 1.268 . S
O104 Dy88 2.351 1_565 S
O104 C107 1.249 1_455 S
O105 Dy91 2.326 1_565 S
O105 C107 1.267 . S
C106 O98 1.249 . S
C106 O99 1.267 . S
C107 O104 1.249 1_655 S
C107 O105 1.267 . S
Dy108 O112 2.398 . S
Dy108 O113 2.491 . S
Dy108 O114 2.392 1_545 S
Dy108 O115 2.664 . S
Dy108 O119 2.326 . S
Dy108 O123 2.310 . S
Dy108 O124 2.351 . S
C109 O120 1.185 1_565 S
C109 O121 1.355 . S
C110 O112 1.185 . S
C110 O113 1.355 . S
Dy111 O115 2.310 . S
Dy111 O118 2.351 . S
Dy111 O120 2.398 1_554 S
Dy111 O121 2.491 1_544 S
Dy111 O122 2.403 . S
Dy111 O123 2.664 . S
Dy111 O125 2.326 . S
O112 Dy108 2.398 . S
O112 C110 1.185 . S
O113 Dy108 2.491 . S
O113 C110 1.355 . S
O114 Dy108 2.392 1_565 S
O114 C116 1.256 . S
O115 Dy108 2.664 . S
O115 Dy111 2.310 . S
O115 C116 1.268 1_545 S
C116 O114 1.256 . S
C116 O115 1.268 1_565 S
C117 O122 1.254 . S
C117 O123 1.268 . S
O118 Dy111 2.351 . S
O118 C126 1.249 . S
O119 Dy108 2.326 . S
O119 C126 1.267 . S
O120 C109 1.185 1_545 S
O120 Dy111 2.398 1_556 S
O121 C109 1.355 . S
O121 Dy111 2.491 1_566 S
O122 Dy111 2.403 . S
O122 C117 1.254 . S
O123 Dy108 2.310 . S
O123 Dy111 2.664 . S
O123 C117 1.268 . S
O124 Dy108 2.351 . S
O124 C127 1.249 . S
O125 Dy111 2.326 . S
O125 C127 1.267 . S
C126 O118 1.249 . S
C126 O119 1.267 . S
C127 O124 1.249 . S
C127 O125 1.267 . S
Dy128 O132 2.398 . S
Dy128 O133 2.491 . S
Dy128 O134 2.403 . S
Dy128 O135 2.664 . S
Dy128 O139 2.326 . S
Dy128 O143 2.310 . S
Dy128 O144 2.351 . S
C129 O140 1.185 . S
C129 O141 1.355 . S
C130 O132 1.185 . S
C130 O133 1.355 . S
Dy131 O135 2.310 . S
Dy131 O138 2.351 . S
Dy131 O140 2.398 . S
Dy131 O141 2.491 . S
Dy131 O142 2.403 . S
Dy131 O143 2.664 . S
Dy131 O145 2.326 . S
O132 Dy128 2.398 . S
O132 C130 1.185 . S
O133 Dy128 2.491 . S
O133 C130 1.355 . S
O134 Dy128 2.403 . S
O134 C136 1.254 . S
O135 Dy128 2.664 . S
O135 Dy131 2.310 . S
O135 C136 1.268 . S
C136 O134 1.254 . S
C136 O135 1.268 . S
C137 O142 1.254 . S
C137 O143 1.268 . S
O138 Dy131 2.351 . S
O138 C146 1.249 . S
O139 Dy128 2.326 . S
O139 C146 1.267 . S
O140 C129 1.185 . S
O140 Dy131 2.398 . S
O141 C129 1.355 . S
O141 Dy131 2.491 . S
O142 Dy131 2.403 . S
O142 C137 1.254 . S
O143 Dy128 2.310 . S
O143 Dy131 2.664 . S
O143 C137 1.268 . S
O144 Dy128 2.351 . S
O144 C147 1.249 . S
O145 Dy131 2.326 . S
O145 C147 1.267 . S
C146 O138 1.249 . S
C146 O139 1.267 . S
C147 O144 1.249 . S
C147 O145 1.267 . S
Dy148 O152 2.398 . S
Dy148 O153 2.491 . S
Dy148 O154 2.403 . S
Dy148 O155 2.664 . S
Dy148 O159 2.326 . S
Dy148 O163 2.310 1_554 S
Dy148 O164 2.351 1_455 S
C149 O160 1.185 1_655 S
C149 O161 1.333 1_556 S
C150 O152 1.185 . S
C150 O153 1.355 . S
Dy151 O155 2.310 1_556 S
Dy151 O158 2.351 1_556 S
Dy151 O160 2.398 . S
Dy151 O161 2.492 1_456 S
Dy151 O162 2.403 . S
Dy151 O163 2.664 . S
Dy151 O165 2.326 1_455 S
O152 Dy148 2.398 . S
O152 C150 1.185 . S
O153 Dy148 2.491 . S
O153 C150 1.355 . S
O154 Dy148 2.403 . S
O154 C156 1.254 . S
O155 Dy148 2.664 . S
O155 Dy151 2.310 1_554 S
O155 C156 1.268 . S
C156 O154 1.254 . S
C156 O155 1.268 . S
C157 O162 1.254 . S
C157 O163 1.268 . S
O158 Dy151 2.351 1_554 S
O158 C166 1.249 . S
O159 Dy148 2.326 . S
O159 C166 1.267 . S
O160 C149 1.185 1_455 S
O160 Dy151 2.398 . S
O161 C149 1.333 1_554 S
O161 Dy151 2.492 1_654 S
O162 Dy151 2.403 . S
O162 C157 1.254 . S
O163 Dy148 2.310 1_556 S
O163 Dy151 2.664 . S
O163 C157 1.268 . S
O164 Dy148 2.351 1_655 S
O164 C167 1.249 1_554 S
O165 Dy151 2.326 1_655 S
O165 C167 1.267 . S
C166 O158 1.249 . S
C166 O159 1.267 . S
C167 O164 1.249 1_556 S
C167 O165 1.267 . S
H168 C186 0.951 . S
H169 C188 0.951 . S
H170 C190 0.950 . S
H171 C191 0.950 . S
H172 C193 0.950 . S
H173 C196 0.950 . S
H174 C197 0.950 . S
H175 C199 0.950 . S
H176 C200 0.950 . S
H177 C201 0.951 . S
H178 C203 0.951 . S
H179 C205 0.950 . S
H180 C206 0.950 . S
H181 C208 0.950 . S
H182 C211 0.950 . S
H183 C212 0.950 . S
H184 C214 0.950 . S
H185 C215 0.950 . S
C186 H168 0.951 . S
C186 C187 1.366 . S
C186 C188 1.388 . S
C187 C186 1.366 . S
C187 C191 1.385 . S
C188 H169 0.951 . S
C188 C186 1.388 . S
C188 C189 1.366 . S
C189 C188 1.366 . S
C189 C190 1.414 . S
C189 C192 1.499 . S
C190 H170 0.950 . S
C190 C189 1.414 . S
C190 C191 1.374 . S
C191 H171 0.950 . S
C191 C187 1.385 . S
C191 C190 1.374 . S
C192 C189 1.499 . S
C192 C193 1.373 . S
C192 C194 1.389 . S
C193 H172 0.950 . S
C193 C192 1.373 . S
C193 C209 1.377 . S
C194 C192 1.389 . S
C194 C195 1.524 . S
C194 C208 1.377 . S
C195 C194 1.524 . S
C195 C196 1.397 . S
C195 C200 1.363 . S
C196 H173 0.950 . S
C196 C195 1.397 . S
C196 C197 1.334 . S
C197 H174 0.950 . S
C197 C196 1.334 . S
C197 C198 1.287 . S
C198 C197 1.287 . S
C198 C199 1.524 . S
C198 H217 0.913 . S
C199 H175 0.950 . S
C199 C198 1.524 . S
C199 C200 1.415 . S
C200 H176 0.950 . S
C200 C195 1.363 . S
C200 C199 1.415 . S
C201 H177 0.951 . S
C201 C202 1.366 . S
C201 C203 1.388 . S
C202 C201 1.366 . S
C202 C206 1.385 . S
C203 H178 0.951 . S
C203 C201 1.388 . S
C203 C204 1.366 . S
C204 C203 1.366 . S
C204 C205 1.414 . S
C204 C207 1.499 . S
C205 H179 0.950 . S
C205 C204 1.414 . S
C205 C206 1.374 . S
C206 H180 0.950 . S
C206 C202 1.385 . S
C206 C205 1.374 . S
C207 C204 1.499 . S
C207 C208 1.373 . S
C207 C209 1.389 . S
C208 H181 0.950 . S
C208 C194 1.377 . S
C208 C207 1.373 . S
C209 C193 1.377 . S
C209 C207 1.389 . S
C209 C210 1.524 . S
C210 C209 1.524 . S
C210 C211 1.397 . S
C210 C215 1.363 . S
C211 H182 0.950 . S
C211 C210 1.397 . S
C211 C212 1.334 . S
C212 H183 0.950 . S
C212 C211 1.334 . S
C212 C213 1.287 . S
C213 C212 1.287 . S
C213 C214 1.524 . S
C213 H216 0.999 . S
C214 H184 0.950 . S
C214 C213 1.524 . S
C214 C215 1.415 . S
C215 H185 0.950 . S
C215 C210 1.363 . S
C215 C214 1.415 . S
H216 C213 0.999 . S
H217 C198 0.913 . S
H218 C236 0.951 . S
H219 C238 0.951 . S
H220 C240 0.950 . S
H221 C241 0.950 . S
H222 C243 0.950 . S
H223 C246 0.950 . S
H224 C247 0.950 . S
H225 C249 0.991 . S
H226 C250 0.950 1_545 S
H227 C251 0.951 . S
H228 C253 0.951 . S
H229 C255 0.950 1_545 S
H230 C256 0.950 . S
H231 C258 0.950 . S
H232 C261 0.950 . S
H233 C262 0.950 . S
H234 C264 0.950 . S
H235 C265 0.950 . S
C236 H218 0.951 . S
C236 C237 1.366 . S
C236 C238 1.388 . S
C237 C236 1.366 . S
C237 C241 1.385 . S
C238 H219 0.951 . S
C238 C236 1.388 . S
C238 C239 1.366 . S
C239 C238 1.366 . S
C239 C240 1.414 . S
C239 C242 1.499 . S
C240 H220 0.950 . S
C240 C239 1.414 . S
C240 C241 1.374 . S
C241 H221 0.950 . S
C241 C237 1.385 . S
C241 C240 1.374 . S
C242 C239 1.499 . S
C242 C243 1.373 . S
C242 C244 1.389 . S
C243 H222 0.950 . S
C243 C242 1.373 . S
C243 C259 1.377 . S
C244 C242 1.389 . S
C244 C245 1.524 . S
C244 C258 1.377 . S
C245 C244 1.524 . S
C245 C246 1.397 . S
C245 C250 1.363 . S
C246 H223 0.950 . S
C246 C245 1.397 . S
C246 C247 1.334 . S
C247 H224 0.950 . S
C247 C246 1.334 . S
C247 C248 1.287 . S
C248 C247 1.287 . S
C248 C249 1.490 1_565 S
C248 H267 0.913 . S
C249 H225 0.991 . S
C249 C248 1.490 1_545 S
C249 C250 1.403 1_545 S
C250 H226 0.950 1_565 S
C250 C245 1.363 . S
C250 C249 1.403 1_565 S
C251 H227 0.951 . S
C251 C252 1.366 . S
C251 C253 1.388 . S
C252 C251 1.366 . S
C252 C256 1.385 1_565 S
C253 H228 0.951 . S
C253 C251 1.388 . S
C253 C254 1.366 . S
C254 C253 1.366 . S
C254 C255 1.414 . S
C254 C257 1.499 . S
C255 H229 0.950 1_565 S
C255 C254 1.414 . S
C255 C256 1.374 1_565 S
C256 H230 0.950 . S
C256 C252 1.385 1_545 S
C256 C255 1.374 1_545 S
C257 C254 1.499 . S
C257 C258 1.373 . S
C257 C259 1.389 . S
C258 H231 0.950 . S
C258 C244 1.377 . S
C258 C257 1.373 . S
C259 C243 1.377 . S
C259 C257 1.389 . S
C259 C260 1.524 . S
C260 C259 1.524 . S
C260 C261 1.397 . S
C260 C265 1.363 . S
C261 H232 0.950 . S
C261 C260 1.397 . S
C261 C262 1.334 . S
C262 H233 0.950 . S
C262 C261 1.334 . S
C262 C263 1.287 . S
C263 C262 1.287 . S
C263 C264 1.524 . S
C263 H266 0.999 . S
C264 H234 0.950 . S
C264 C263 1.524 . S
C264 C265 1.415 . S
C265 H235 0.950 . S
C265 C260 1.363 . S
C265 C264 1.415 . S
H266 C263 0.999 . S
H267 C248 0.913 . S
H268 C286 0.951 . S
H269 C288 0.951 . S
H270 C290 0.950 . S
H271 C291 0.950 . S
H272 C293 0.950 . S
H273 C296 0.950 . S
H274 C297 0.950 . S
H275 C299 0.950 . S
H276 C300 0.950 . S
H277 C301 0.951 . S
H278 C303 0.951 . S
H279 C305 0.950 . S
H280 C306 0.950 . S
H281 C308 0.950 . S
H282 C311 0.950 . S
H283 C312 0.950 . S
H284 C314 0.950 . S
H285 C315 0.950 . S
C286 H268 0.951 . S
C286 C287 1.366 . S
C286 C288 1.388 . S
C287 C286 1.366 . S
C287 C291 1.385 . S
C288 H269 0.951 . S
C288 C286 1.388 . S
C288 C289 1.366 . S
C289 C288 1.366 . S
C289 C290 1.414 . S
C289 C292 1.499 . S
C290 H270 0.950 . S
C290 C289 1.414 . S
C290 C291 1.374 . S
C291 H271 0.950 . S
C291 C287 1.385 . S
C291 C290 1.374 . S
C292 C289 1.499 . S
C292 C293 1.373 . S
C292 C294 1.389 . S
C293 H272 0.950 . S
C293 C292 1.373 . S
C293 C309 1.377 . S
C294 C292 1.389 . S
C294 C295 1.524 . S
C294 C308 1.377 . S
C295 C294 1.524 . S
C295 C296 1.397 . S
C295 C300 1.363 . S
C296 H273 0.950 . S
C296 C295 1.397 . S
C296 C297 1.334 . S
C297 H274 0.950 . S
C297 C296 1.334 . S
C297 C298 1.287 . S
C298 C297 1.287 . S
C298 C299 1.524 . S
C298 H317 0.913 . S
C299 H275 0.950 . S
C299 C298 1.524 . S
C299 C300 1.415 . S
C300 H276 0.950 . S
C300 C295 1.363 . S
C300 C299 1.415 . S
C301 H277 0.951 . S
C301 C302 1.366 . S
C301 C303 1.388 . S
C302 C301 1.366 . S
C302 C306 1.385 . S
C303 H278 0.951 . S
C303 C301 1.388 . S
C303 C304 1.366 . S
C304 C303 1.366 . S
C304 C305 1.414 . S
C304 C307 1.499 . S
C305 H279 0.950 . S
C305 C304 1.414 . S
C305 C306 1.374 . S
C306 H280 0.950 . S
C306 C302 1.385 . S
C306 C305 1.374 . S
C307 C304 1.499 . S
C307 C308 1.373 . S
C307 C309 1.389 . S
C308 H281 0.950 . S
C308 C294 1.377 . S
C308 C307 1.373 . S
C309 C293 1.377 . S
C309 C307 1.389 . S
C309 C310 1.524 . S
C310 C309 1.524 . S
C310 C311 1.397 . S
C310 C315 1.363 . S
C311 H282 0.950 . S
C311 C310 1.397 . S
C311 C312 1.334 . S
C312 H283 0.950 . S
C312 C311 1.334 . S
C312 C313 1.287 . S
C313 C312 1.287 . S
C313 C314 1.524 . S
C313 H316 0.999 . S
C314 H284 0.950 . S
C314 C313 1.524 . S
C314 C315 1.415 . S
C315 H285 0.950 . S
C315 C310 1.363 . S
C315 C314 1.415 . S
H316 C313 0.999 . S
H317 C298 0.913 . S
H318 C336 0.951 . S
H319 C338 0.951 . S
H320 C340 0.950 . S
H321 C341 0.950 . S
H322 C343 0.950 . S
H323 C346 0.950 . S
H324 C347 0.950 . S
H325 C349 0.950 . S
H326 C350 0.950 . S
H327 C351 0.951 . S
H328 C353 0.951 . S
H329 C355 0.950 . S
H330 C356 0.950 . S
H331 C358 0.950 . S
H332 C361 0.950 . S
H333 C362 0.950 . S
H334 C364 0.950 . S
H335 C365 0.950 . S
C336 H318 0.951 . S
C336 C337 1.366 . S
C336 C338 1.388 . S
C337 C336 1.366 . S
C337 C341 1.385 . S
C338 H319 0.951 . S
C338 C336 1.388 . S
C338 C339 1.366 . S
C339 C338 1.366 . S
C339 C340 1.414 . S
C339 C342 1.499 . S
C340 H320 0.950 . S
C340 C339 1.414 . S
C340 C341 1.374 . S
C341 H321 0.950 . S
C341 C337 1.385 . S
C341 C340 1.374 . S
C342 C339 1.499 . S
C342 C343 1.373 . S
C342 C344 1.389 . S
C343 H322 0.950 . S
C343 C342 1.373 . S
C343 C359 1.377 . S
C344 C342 1.389 . S
C344 C345 1.524 . S
C344 C358 1.377 . S
C345 C344 1.524 . S
C345 C346 1.397 . S
C345 C350 1.363 . S
C346 H323 0.950 . S
C346 C345 1.397 . S
C346 C347 1.334 . S
C347 H324 0.950 . S
C347 C346 1.334 . S
C347 C348 1.287 . S
C348 C347 1.287 . S
C348 C349 1.524 . S
C348 H367 0.913 . S
C349 H325 0.950 . S
C349 C348 1.524 . S
C349 C350 1.415 . S
C350 H326 0.950 . S
C350 C345 1.363 . S
C350 C349 1.415 . S
C351 H327 0.951 . S
C351 C352 1.366 1_455 S
C351 C353 1.388 . S
C352 C351 1.366 1_655 S
C352 C356 1.385 . S
C353 H328 0.951 . S
C353 C351 1.388 . S
C353 C354 1.366 1_455 S
C354 C353 1.366 1_655 S
C354 C355 1.414 . S
C354 C357 1.499 . S
C355 H329 0.950 . S
C355 C354 1.414 . S
C355 C356 1.374 . S
C356 H330 0.950 . S
C356 C352 1.385 . S
C356 C355 1.374 . S
C357 C354 1.499 . S
C357 C358 1.373 . S
C357 C359 1.389 . S
C358 H331 0.950 . S
C358 C344 1.377 . S
C358 C357 1.373 . S
C359 C343 1.377 . S
C359 C357 1.389 . S
C359 C360 1.524 . S
C360 C359 1.524 . S
C360 C361 1.397 . S
C360 C365 1.363 1_655 S
C361 H332 0.950 . S
C361 C360 1.397 . S
C361 C362 1.334 . S
C362 H333 0.950 . S
C362 C361 1.334 . S
C362 C363 1.287 1_655 S
C363 C362 1.287 1_455 S
C363 C364 1.524 . S
C363 H366 0.999 . S
C364 H334 0.950 . S
C364 C363 1.524 . S
C364 C365 1.415 . S
C365 H335 0.950 . S
C365 C360 1.363 1_455 S
C365 C364 1.415 . S
H366 C363 0.999 . S
H367 C348 0.913 . S
H368 C386 0.951 . S
H369 C388 0.951 . S
H370 C390 0.950 . S
H371 C391 0.950 . S
H372 C393 0.950 . S
H373 C396 0.950 . S
H374 C397 0.950 . S
H375 C399 0.950 . S
H376 C400 0.950 . S
H377 C401 0.951 . S
H378 C403 0.951 . S
H379 C405 0.950 . S
H380 C406 0.950 . S
H381 C408 0.950 . S
H382 C411 0.950 . S
H383 C412 0.950 . S
H384 C414 0.950 . S
H385 C415 0.950 . S
C386 H368 0.951 . S
C386 C387 1.366 . S
C386 C388 1.388 . S
C387 C386 1.366 . S
C387 C391 1.385 . S
C388 H369 0.951 . S
C388 C386 1.388 . S
C388 C389 1.366 . S
C389 C388 1.366 . S
C389 C390 1.414 . S
C389 C392 1.499 . S
C390 H370 0.950 . S
C390 C389 1.414 . S
C390 C391 1.374 . S
C391 H371 0.950 . S
C391 C387 1.385 . S
C391 C390 1.374 . S
C392 C389 1.499 . S
C392 C393 1.373 . S
C392 C394 1.389 . S
C393 H372 0.950 . S
C393 C392 1.373 . S
C393 C409 1.377 . S
C394 C392 1.389 . S
C394 C395 1.524 . S
C394 C408 1.377 . S
C395 C394 1.524 . S
C395 C396 1.397 . S
C395 C400 1.363 . S
C396 H373 0.950 . S
C396 C395 1.397 . S
C396 C397 1.334 . S
C397 H374 0.950 . S
C397 C396 1.334 . S
C397 C398 1.287 . S
C398 C397 1.287 . S
C398 C399 1.524 . S
C398 H417 0.913 . S
C399 H375 0.950 . S
C399 C398 1.524 . S
C399 C400 1.415 . S
C400 H376 0.950 . S
C400 C395 1.363 . S
C400 C399 1.415 . S
C401 H377 0.951 . S
C401 C402 1.366 . S
C401 C403 1.388 . S
C402 C401 1.366 . S
C402 C406 1.385 . S
C403 H378 0.951 . S
C403 C401 1.388 . S
C403 C404 1.366 . S
C404 C403 1.366 . S
C404 C405 1.414 . S
C404 C407 1.499 . S
C405 H379 0.950 . S
C405 C404 1.414 . S
C405 C406 1.374 . S
C406 H380 0.950 . S
C406 C402 1.385 . S
C406 C405 1.374 . S
C407 C404 1.499 . S
C407 C408 1.373 . S
C407 C409 1.389 . S
C408 H381 0.950 . S
C408 C394 1.377 . S
C408 C407 1.373 . S
C409 C393 1.377 . S
C409 C407 1.389 . S
C409 C410 1.524 . S
C410 C409 1.524 . S
C410 C411 1.397 . S
C410 C415 1.363 . S
C411 H382 0.950 . S
C411 C410 1.397 . S
C411 C412 1.334 . S
C412 H383 0.950 . S
C412 C411 1.334 . S
C412 C413 1.287 . S
C413 C412 1.287 . S
C413 C414 1.524 . S
C413 H416 0.999 . S
C414 H384 0.950 . S
C414 C413 1.524 . S
C414 C415 1.415 . S
C415 H385 0.950 . S
C415 C410 1.363 . S
C415 C414 1.415 . S
H416 C413 0.999 . S
H417 C398 0.913 . S
H418 C436 0.951 . S
H419 C438 0.951 . S
H420 C440 0.950 . S
H421 C441 0.950 . S
H422 C443 0.950 . S
H423 C446 0.950 . S
H424 C447 0.950 . S
H425 C449 0.950 . S
H426 C450 0.950 . S
H427 C451 0.951 1_545 S
H428 C453 0.951 . S
H429 C455 0.950 . S
H430 C456 0.950 . S
H431 C458 0.950 . S
H432 C461 0.950 . S
H433 C462 0.950 . S
H434 C464 0.950 . S
H435 C465 0.950 . S
C436 H418 0.951 . S
C436 C437 1.366 . S
C436 C438 1.388 . S
C437 C436 1.366 . S
C437 C441 1.385 . S
C438 H419 0.951 . S
C438 C436 1.388 . S
C438 C439 1.366 . S
C439 C438 1.366 . S
C439 C440 1.414 . S
C439 C442 1.499 . S
C440 H420 0.950 . S
C440 C439 1.414 . S
C440 C441 1.374 . S
C441 H421 0.950 . S
C441 C437 1.385 . S
C441 C440 1.374 . S
C442 C439 1.499 . S
C442 C443 1.373 . S
C442 C444 1.389 . S
C443 H422 0.950 . S
C443 C442 1.373 . S
C443 C459 1.377 . S
C444 C442 1.389 . S
C444 C445 1.524 . S
C444 C458 1.377 . S
C445 C444 1.524 . S
C445 C446 1.397 . S
C445 C450 1.363 . S
C446 H423 0.950 . S
C446 C445 1.397 . S
C446 C447 1.334 . S
C447 H424 0.950 . S
C447 C446 1.334 . S
C447 C448 1.287 . S
C448 C447 1.287 . S
C448 C449 1.524 . S
C448 H467 0.913 . S
C449 H425 0.950 . S
C449 C448 1.524 . S
C449 C450 1.415 . S
C450 H426 0.950 . S
C450 C445 1.363 . S
C450 C449 1.415 . S
C451 H427 0.951 1_565 S
C451 C452 1.366 . S
C451 C453 1.388 . S
C452 C451 1.366 . S
C452 C456 1.385 . S
C453 H428 0.951 . S
C453 C451 1.388 . S
C453 C454 1.366 . S
C454 C453 1.366 . S
C454 C455 1.414 . S
C454 C457 1.499 . S
C455 H429 0.950 . S
C455 C454 1.414 . S
C455 C456 1.374 . S
C456 H430 0.950 . S
C456 C452 1.385 . S
C456 C455 1.374 . S
C457 C454 1.499 . S
C457 C458 1.373 . S
C457 C459 1.389 . S
C458 H431 0.950 . S
C458 C444 1.377 . S
C458 C457 1.373 . S
C459 C443 1.377 . S
C459 C457 1.389 . S
C459 C460 1.524 1_565 S
C460 C459 1.524 1_545 S
C460 C461 1.397 . S
C460 C465 1.363 . S
C461 H432 0.950 . S
C461 C460 1.397 . S
C461 C462 1.334 . S
C462 H433 0.950 . S
C462 C461 1.334 . S
C462 C463 1.287 . S
C463 C462 1.287 . S
C463 C464 1.524 . S
C463 H466 0.999 . S
C464 H434 0.950 . S
C464 C463 1.524 . S
C464 C465 1.415 . S
C465 H435 0.950 . S
C465 C460 1.363 . S
C465 C464 1.415 . S
H466 C463 0.999 . S
H467 C448 0.913 . S
H468 C486 0.951 . S
H469 C488 0.951 . S
H470 C490 0.950 . S
H471 C491 0.950 . S
H472 C493 0.950 . S
H473 C496 0.950 . S
H474 C497 0.950 . S
H475 C499 0.950 . S
H476 C500 0.950 . S
H477 C501 0.951 . S
H478 C503 0.951 . S
H479 C505 0.950 . S
H480 C506 0.950 1_554 S
H481 C508 0.950 . S
H482 C511 0.940 1_554 S
H483 C512 0.950 . S
H484 C514 0.950 . S
H485 C515 0.950 . S
C486 H468 0.951 . S
C486 C487 1.366 . S
C486 C488 1.388 . S
C487 C486 1.366 . S
C487 C491 1.385 . S
C488 H469 0.951 . S
C488 C486 1.388 . S
C488 C489 1.366 . S
C489 C488 1.366 . S
C489 C490 1.414 . S
C489 C492 1.499 . S
C490 H470 0.950 . S
C490 C489 1.414 . S
C490 C491 1.374 . S
C491 H471 0.950 . S
C491 C487 1.385 . S
C491 C490 1.374 . S
C492 C489 1.499 . S
C492 C493 1.373 . S
C492 C494 1.389 . S
C493 H472 0.950 . S
C493 C492 1.373 . S
C493 C509 1.377 . S
C494 C492 1.389 . S
C494 C495 1.524 . S
C494 C508 1.377 . S
C495 C494 1.524 . S
C495 C496 1.397 . S
C495 C500 1.363 . S
C496 H473 0.950 . S
C496 C495 1.397 . S
C496 C497 1.334 . S
C497 H474 0.950 . S
C497 C496 1.334 . S
C497 C498 1.287 . S
C498 C497 1.287 . S
C498 C499 1.524 . S
C498 H517 0.913 . S
C499 H475 0.950 . S
C499 C498 1.524 . S
C499 C500 1.415 . S
C500 H476 0.950 . S
C500 C495 1.363 . S
C500 C499 1.415 . S
C501 H477 0.951 . S
C501 C502 1.366 . S
C501 C503 1.388 . S
C502 C501 1.366 . S
C502 C506 1.385 . S
C503 H478 0.951 . S
C503 C501 1.388 . S
C503 C504 1.366 . S
C504 C503 1.366 . S
C504 C505 1.414 . S
C504 C507 1.499 . S
C505 H479 0.950 . S
C505 C504 1.414 . S
C505 C506 1.374 . S
C506 H480 0.950 1_556 S
C506 C502 1.385 . S
C506 C505 1.374 . S
C507 C504 1.499 . S
C507 C508 1.373 . S
C507 C509 1.389 . S
C508 H481 0.950 . S
C508 C494 1.377 . S
C508 C507 1.373 . S
C509 C493 1.377 . S
C509 C507 1.389 . S
C509 C510 1.524 . S
C510 C509 1.524 . S
C510 C511 1.420 . S
C510 C515 1.363 . S
C511 H482 0.940 1_556 S
C511 C510 1.420 . S
C511 C512 1.320 1_556 S
C512 H483 0.950 . S
C512 C511 1.320 1_554 S
C512 C513 1.273 1_554 S
C513 C512 1.273 1_556 S
C513 C514 1.558 . S
C513 H516 0.981 1_556 S
C514 H484 0.950 . S
C514 C513 1.558 . S
C514 C515 1.415 . S
C515 H485 0.950 . S
C515 C510 1.363 . S
C515 C514 1.415 . S
H516 C513 0.981 1_554 S
H517 C498 0.913 . S
H518 C536 0.951 . S
H519 C538 0.951 . S
H520 C540 0.950 . S
H521 C541 0.950 . S
H522 C543 0.950 . S
H523 C546 0.950 . S
H524 C547 0.950 . S
H525 C549 0.950 . S
H526 C550 0.950 . S
H527 C551 0.951 . S
H528 C553 0.951 . S
H529 C555 0.950 . S
H530 C556 0.950 . S
H531 C558 0.950 . S
H532 C561 0.950 . S
H533 C562 0.950 . S
H534 C564 0.950 . S
H535 C565 0.950 . S
C536 H518 0.951 . S
C536 C537 1.366 . S
C536 C538 1.388 . S
C537 C536 1.366 . S
C537 C541 1.385 . S
C538 H519 0.951 . S
C538 C536 1.388 . S
C538 C539 1.366 . S
C539 C538 1.366 . S
C539 C540 1.414 . S
C539 C542 1.499 . S
C540 H520 0.950 . S
C540 C539 1.414 . S
C540 C541 1.374 . S
C541 H521 0.950 . S
C541 C537 1.385 . S
C541 C540 1.374 . S
C542 C539 1.499 . S
C542 C543 1.373 . S
C542 C544 1.389 . S
C543 H522 0.950 . S
C543 C542 1.373 . S
C543 C559 1.377 . S
C544 C542 1.389 . S
C544 C545 1.524 . S
C544 C558 1.377 . S
C545 C544 1.524 . S
C545 C546 1.397 . S
C545 C550 1.363 . S
C546 H523 0.950 . S
C546 C545 1.397 . S
C546 C547 1.334 . S
C547 H524 0.950 . S
C547 C546 1.334 . S
C547 C548 1.287 . S
C548 C547 1.287 . S
C548 C549 1.524 . S
C548 H567 0.913 . S
C549 H525 0.950 . S
C549 C548 1.524 . S
C549 C550 1.415 . S
C550 H526 0.950 . S
C550 C545 1.363 . S
C550 C549 1.415 . S
C551 H527 0.951 . S
C551 C552 1.366 . S
C551 C553 1.388 . S
C552 C551 1.366 . S
C552 C556 1.385 . S
C553 H528 0.951 . S
C553 C551 1.388 . S
C553 C554 1.366 . S
C554 C553 1.366 . S
C554 C555 1.414 . S
C554 C557 1.499 . S
C555 H529 0.950 . S
C555 C554 1.414 . S
C555 C556 1.374 . S
C556 H530 0.950 . S
C556 C552 1.385 . S
C556 C555 1.374 . S
C557 C554 1.499 . S
C557 C558 1.373 . S
C557 C559 1.389 . S
C558 H531 0.950 . S
C558 C544 1.377 . S
C558 C557 1.373 . S
C559 C543 1.377 . S
C559 C557 1.389 . S
C559 C560 1.524 . S
C560 C559 1.524 . S
C560 C561 1.397 . S
C560 C565 1.363 . S
C561 H532 0.950 . S
C561 C560 1.397 . S
C561 C562 1.334 . S
C562 H533 0.950 . S
C562 C561 1.334 . S
C562 C563 1.287 . S
C563 C562 1.287 . S
C563 C564 1.524 . S
C563 H566 0.999 . S
C564 H534 0.950 . S
C564 C563 1.524 . S
C564 C565 1.415 . S
C565 H535 0.950 . S
C565 C560 1.363 . S
C565 C564 1.415 . S
H566 C563 0.999 . S
H567 C548 0.913 . S
H568 C586 0.951 . S
H569 C588 0.951 . S
H570 C590 0.950 . S
H571 C591 0.950 . S
H572 C593 0.950 . S
H573 C596 0.950 . S
H574 C597 0.950 . S
H575 C599 0.950 . S
H576 C600 0.950 . S
H577 C601 0.951 . S
H578 C603 0.951 . S
H579 C605 0.950 . S
H580 C606 0.950 . S
H581 C608 0.950 . S
H582 C611 0.950 . S
H583 C612 0.950 . S
H584 C614 0.950 . S
H585 C615 0.950 . S
C586 H568 0.951 . S
C586 C587 1.366 . S
C586 C588 1.388 . S
C587 C586 1.366 . S
C587 C591 1.385 . S
C588 H569 0.951 . S
C588 C586 1.388 . S
C588 C589 1.366 . S
C589 C588 1.366 . S
C589 C590 1.414 . S
C589 C592 1.499 . S
C590 H570 0.950 . S
C590 C589 1.414 . S
C590 C591 1.374 . S
C591 H571 0.950 . S
C591 C587 1.385 . S
C591 C590 1.374 . S
C592 C589 1.499 . S
C592 C593 1.373 . S
C592 C594 1.389 . S
C593 H572 0.950 . S
C593 C592 1.373 . S
C593 C609 1.377 . S
C594 C592 1.389 . S
C594 C595 1.524 . S
C594 C608 1.377 . S
C595 C594 1.524 . S
C595 C596 1.397 . S
C595 C600 1.363 . S
C596 H573 0.950 . S
C596 C595 1.397 . S
C596 C597 1.334 . S
C597 H574 0.950 . S
C597 C596 1.334 . S
C597 C598 1.287 . S
C598 C597 1.287 . S
C598 C599 1.524 . S
C598 H617 0.913 . S
C599 H575 0.950 . S
C599 C598 1.524 . S
C599 C600 1.415 . S
C600 H576 0.950 . S
C600 C595 1.363 . S
C600 C599 1.415 . S
C601 H577 0.951 . S
C601 C602 1.366 . S
C601 C603 1.388 . S
C602 C601 1.366 . S
C602 C606 1.385 . S
C603 H578 0.951 . S
C603 C601 1.388 . S
C603 C604 1.366 . S
C604 C603 1.366 . S
C604 C605 1.414 . S
C604 C607 1.499 . S
C605 H579 0.950 . S
C605 C604 1.414 . S
C605 C606 1.374 . S
C606 H580 0.950 . S
C606 C602 1.385 . S
C606 C605 1.374 . S
C607 C604 1.499 . S
C607 C608 1.373 . S
C607 C609 1.389 . S
C608 H581 0.950 . S
C608 C594 1.377 . S
C608 C607 1.373 . S
C609 C593 1.377 . S
C609 C607 1.389 . S
C609 C610 1.524 . S
C610 C609 1.524 . S
C610 C611 1.397 . S
C610 C615 1.363 . S
C611 H582 0.950 . S
C611 C610 1.397 . S
C611 C612 1.334 . S
C612 H583 0.950 . S
C612 C611 1.334 . S
C612 C613 1.287 . S
C613 C612 1.287 . S
C613 C614 1.524 . S
C613 H616 0.999 . S
C614 H584 0.950 . S
C614 C613 1.524 . S
C614 C615 1.415 . S
C615 H585 0.950 . S
C615 C610 1.363 . S
C615 C614 1.415 . S
H616 C613 0.999 . S
H617 C598 0.913 . S
H618 C636 0.951 . S
H619 C638 0.951 . S
H620 C640 0.950 . S
H621 C641 0.950 . S
H622 C643 0.950 . S
H623 C646 0.950 . S
H624 C647 0.950 . S
H625 C649 0.950 . S
H626 C650 0.950 . S
H627 C651 0.951 1_556 S
H628 C653 0.951 . S
H629 C655 0.950 . S
H630 C656 0.950 . S
H631 C658 0.950 . S
H632 C661 0.950 . S
H633 C662 0.950 . S
H634 C664 0.950 . S
H635 C665 0.950 . S
C636 H618 0.951 . S
C636 C637 1.366 . S
C636 C638 1.388 . S
C637 C636 1.366 . S
C637 C641 1.385 . S
C638 H619 0.951 . S
C638 C636 1.388 . S
C638 C639 1.366 . S
C639 C638 1.366 . S
C639 C640 1.414 . S
C639 C642 1.499 . S
C640 H620 0.950 . S
C640 C639 1.414 . S
C640 C641 1.374 . S
C641 H621 0.950 . S
C641 C637 1.385 . S
C641 C640 1.374 . S
C642 C639 1.499 . S
C642 C643 1.373 . S
C642 C644 1.389 . S
C643 H622 0.950 . S
C643 C642 1.373 . S
C643 C659 1.377 . S
C644 C642 1.389 . S
C644 C645 1.524 1_556 S
C644 C658 1.377 1_556 S
C645 C644 1.524 1_554 S
C645 C646 1.397 . S
C645 C650 1.363 . S
C646 H623 0.950 . S
C646 C645 1.397 . S
C646 C647 1.334 . S
C647 H624 0.950 . S
C647 C646 1.334 . S
C647 C648 1.287 . S
C648 C647 1.287 . S
C648 C649 1.524 . S
C648 H667 0.913 . S
C649 H625 0.950 . S
C649 C648 1.524 . S
C649 C650 1.415 . S
C650 H626 0.950 . S
C650 C645 1.363 . S
C650 C649 1.415 . S
C651 H627 0.951 1_554 S
C651 C652 1.366 . S
C651 C653 1.388 1_554 S
C652 C651 1.366 . S
C652 C656 1.385 . S
C653 H628 0.951 . S
C653 C651 1.388 1_556 S
C653 C654 1.366 . S
C654 C653 1.366 . S
C654 C655 1.414 1_556 S
C654 C657 1.499 . S
C655 H629 0.950 . S
C655 C654 1.414 1_554 S
C655 C656 1.374 . S
C656 H630 0.950 . S
C656 C652 1.385 . S
C656 C655 1.374 . S
C657 C654 1.499 . S
C657 C658 1.373 1_556 S
C657 C659 1.389 . S
C658 H631 0.950 . S
C658 C644 1.377 1_554 S
C658 C657 1.373 1_554 S
C659 C643 1.377 . S
C659 C657 1.389 . S
C659 C660 1.524 . S
C660 C659 1.524 . S
C660 C661 1.397 . S
C660 C665 1.363 . S
C661 H632 0.950 . S
C661 C660 1.397 . S
C661 C662 1.334 . S
C662 H633 0.950 . S
C662 C661 1.334 . S
C662 C663 1.287 . S
C663 C662 1.287 . S
C663 C664 1.524 . S
C663 H666 0.999 . S
C664 H634 0.950 . S
C664 C663 1.524 . S
C664 C665 1.415 . S
C665 H635 0.950 . S
C665 C660 1.363 . S
C665 C664 1.415 . S
H666 C663 0.999 . S
H667 C648 0.913 . S
H668 C686 0.951 . S
H669 C688 0.951 . S
H670 C690 0.950 . S
H671 C691 0.950 . S
H672 C693 0.950 . S
H673 C696 0.950 . S
H674 C697 0.950 . S
H675 C699 0.950 . S
H676 C700 0.950 . S
H677 C701 0.951 . S
H678 C703 0.951 . S
H679 C705 0.950 . S
H680 C706 0.950 1_455 S
H681 C708 0.950 . S
H682 C711 0.950 . S
H683 C712 0.950 . S
H684 C714 0.950 . S
H685 C715 0.950 . S
C686 H668 0.951 . S
C686 C687 1.366 . S
C686 C688 1.388 . S
C687 C686 1.366 . S
C687 C691 1.385 . S
C688 H669 0.951 . S
C688 C686 1.388 . S
C688 C689 1.366 . S
C689 C688 1.366 . S
C689 C690 1.414 . S
C689 C692 1.499 . S
C690 H670 0.950 . S
C690 C689 1.414 . S
C690 C691 1.374 . S
C691 H671 0.950 . S
C691 C687 1.385 . S
C691 C690 1.374 . S
C692 C689 1.499 . S
C692 C693 1.373 . S
C692 C694 1.389 . S
C693 H672 0.950 . S
C693 C692 1.373 . S
C693 C709 1.377 . S
C694 C692 1.389 . S
C694 C695 1.524 . S
C694 C708 1.377 . S
C695 C694 1.524 . S
C695 C696 1.397 . S
C695 C700 1.363 1_655 S
C696 H673 0.950 . S
C696 C695 1.397 . S
C696 C697 1.334 . S
C697 H674 0.950 . S
C697 C696 1.334 . S
C697 C698 1.287 1_655 S
C698 C697 1.287 1_455 S
C698 C699 1.524 . S
C698 H717 0.913 . S
C699 H675 0.950 . S
C699 C698 1.524 . S
C699 C700 1.415 . S
C700 H676 0.950 . S
C700 C695 1.363 1_455 S
C700 C699 1.415 . S
C701 H677 0.951 . S
C701 C702 1.366 . S
C701 C703 1.388 . S
C702 C701 1.366 . S
C702 C706 1.385 . S
C703 H678 0.951 . S
C703 C701 1.388 . S
C703 C704 1.366 . S
C704 C703 1.366 . S
C704 C705 1.414 . S
C704 C707 1.499 . S
C705 H679 0.950 . S
C705 C704 1.414 . S
C705 C706 1.374 . S
C706 H680 0.950 1_655 S
C706 C702 1.385 . S
C706 C705 1.374 . S
C707 C704 1.499 . S
C707 C708 1.373 . S
C707 C709 1.389 . S
C708 H681 0.950 . S
C708 C694 1.377 . S
C708 C707 1.373 . S
C709 C693 1.377 . S
C709 C707 1.389 . S
C709 C710 1.524 . S
C710 C709 1.524 . S
C710 C711 1.397 . S
C710 C715 1.363 . S
C711 H682 0.950 . S
C711 C710 1.397 . S
C711 C712 1.334 . S
C712 H683 0.950 . S
C712 C711 1.334 . S
C712 C713 1.287 . S
C713 C712 1.287 . S
C713 C714 1.524 . S
C713 H716 0.999 . S
C714 H684 0.950 . S
C714 C713 1.524 . S
C714 C715 1.415 . S
C715 H685 0.950 . S
C715 C710 1.363 . S
C715 C714 1.415 . S
H716 C713 0.999 . S
H717 C698 0.913 . S
H718 C736 0.951 . S
H719 C738 0.951 . S
H720 C740 0.950 . S
H721 C741 0.950 . S
H722 C743 0.950 . S
H723 C746 0.950 . S
H724 C747 0.950 . S
H725 C749 0.950 . S
H726 C750 0.950 . S
H727 C751 0.951 . S
H728 C753 0.951 . S
H729 C755 0.950 . S
H730 C756 0.950 . S
H731 C758 0.950 . S
H732 C761 0.950 . S
H733 C762 0.950 . S
H734 C764 0.950 . S
H735 C765 0.950 . S
C736 H718 0.951 . S
C736 C737 1.366 . S
C736 C738 1.388 . S
C737 C736 1.366 . S
C737 C741 1.385 . S
C738 H719 0.951 . S
C738 C736 1.388 . S
C738 C739 1.366 . S
C739 C738 1.366 . S
C739 C740 1.414 . S
C739 C742 1.499 . S
C740 H720 0.950 . S
C740 C739 1.414 . S
C740 C741 1.374 . S
C741 H721 0.950 . S
C741 C737 1.385 . S
C741 C740 1.374 . S
C742 C739 1.499 . S
C742 C743 1.373 . S
C742 C744 1.389 . S
C743 H722 0.950 . S
C743 C742 1.373 . S
C743 C759 1.377 . S
C744 C742 1.389 . S
C744 C745 1.524 . S
C744 C758 1.377 . S
C745 C744 1.524 . S
C745 C746 1.397 . S
C745 C750 1.363 . S
C746 H723 0.950 . S
C746 C745 1.397 . S
C746 C747 1.334 . S
C747 H724 0.950 . S
C747 C746 1.334 . S
C747 C748 1.287 . S
C748 C747 1.287 . S
C748 C749 1.524 . S
C748 H767 0.913 . S
C749 H725 0.950 . S
C749 C748 1.524 . S
C749 C750 1.415 . S
C750 H726 0.950 . S
C750 C745 1.363 . S
C750 C749 1.415 . S
C751 H727 0.951 . S
C751 C752 1.366 . S
C751 C753 1.388 . S
C752 C751 1.366 . S
C752 C756 1.385 . S
C753 H728 0.951 . S
C753 C751 1.388 . S
C753 C754 1.366 . S
C754 C753 1.366 . S
C754 C755 1.414 . S
C754 C757 1.499 . S
C755 H729 0.950 . S
C755 C754 1.414 . S
C755 C756 1.374 . S
C756 H730 0.950 . S
C756 C752 1.385 . S
C756 C755 1.374 . S
C757 C754 1.499 . S
C757 C758 1.373 . S
C757 C759 1.389 . S
C758 H731 0.950 . S
C758 C744 1.377 . S
C758 C757 1.373 . S
C759 C743 1.377 . S
C759 C757 1.389 . S
C759 C760 1.524 . S
C760 C759 1.524 . S
C760 C761 1.397 . S
C760 C765 1.363 . S
C761 H732 0.950 . S
C761 C760 1.397 . S
C761 C762 1.334 . S
C762 H733 0.950 . S
C762 C761 1.334 . S
C762 C763 1.287 . S
C763 C762 1.287 . S
C763 C764 1.524 . S
C763 H766 0.999 . S
C764 H734 0.950 . S
C764 C763 1.524 . S
C764 C765 1.415 . S
C765 H735 0.950 . S
C765 C760 1.363 . S
C765 C764 1.415 . S
H766 C763 0.999 . S
H767 C748 0.913 . S
H768 C786 0.951 . S
H769 C788 0.951 . S
H770 C790 0.950 . S
H771 C791 0.950 . S
H772 C793 0.950 . S
H773 C796 0.950 . S
H774 C797 0.950 . S
H775 C799 0.950 . S
H776 C800 0.950 . S
H777 C801 0.951 . S
H778 C803 0.951 . S
H779 C805 0.950 . S
H780 C806 0.950 . S
H781 C808 0.950 . S
H782 C811 0.950 . S
H783 C812 0.950 . S
H784 C814 0.950 . S
H785 C815 0.950 . S
C786 H768 0.951 . S
C786 C787 1.366 . S
C786 C788 1.388 . S
C787 C786 1.366 . S
C787 C791 1.385 . S
C788 H769 0.951 . S
C788 C786 1.388 . S
C788 C789 1.366 . S
C789 C788 1.366 . S
C789 C790 1.414 . S
C789 C792 1.499 . S
C790 H770 0.950 . S
C790 C789 1.414 . S
C790 C791 1.374 . S
C791 H771 0.950 . S
C791 C787 1.385 . S
C791 C790 1.374 . S
C792 C789 1.499 . S
C792 C793 1.373 . S
C792 C794 1.389 . S
C793 H772 0.950 . S
C793 C792 1.373 . S
C793 C809 1.377 . S
C794 C792 1.389 . S
C794 C795 1.524 . S
C794 C808 1.377 . S
C795 C794 1.524 . S
C795 C796 1.397 . S
C795 C800 1.363 . S
C796 H773 0.950 . S
C796 C795 1.397 . S
C796 C797 1.334 . S
C797 H774 0.950 . S
C797 C796 1.334 . S
C797 C798 1.287 . S
C798 C797 1.287 . S
C798 C799 1.524 . S
C798 H817 0.913 . S
C799 H775 0.950 . S
C799 C798 1.524 . S
C799 C800 1.415 . S
C800 H776 0.950 . S
C800 C795 1.363 . S
C800 C799 1.415 . S
C801 H777 0.951 . S
C801 C802 1.366 . S
C801 C803 1.388 . S
C802 C801 1.366 . S
C802 C806 1.385 . S
C803 H778 0.951 . S
C803 C801 1.388 . S
C803 C804 1.366 . S
C804 C803 1.366 . S
C804 C805 1.414 . S
C804 C807 1.499 . S
C805 H779 0.950 . S
C805 C804 1.414 . S
C805 C806 1.374 . S
C806 H780 0.950 . S
C806 C802 1.385 . S
C806 C805 1.374 . S
C807 C804 1.499 . S
C807 C808 1.373 . S
C807 C809 1.389 . S
C808 H781 0.950 . S
C808 C794 1.377 . S
C808 C807 1.373 . S
C809 C793 1.377 . S
C809 C807 1.389 . S
C809 C810 1.524 . S
C810 C809 1.524 . S
C810 C811 1.397 . S
C810 C815 1.363 . S
C811 H782 0.950 . S
C811 C810 1.397 . S
C811 C812 1.334 . S
C812 H783 0.950 . S
C812 C811 1.334 . S
C812 C813 1.287 . S
C813 C812 1.287 . S
C813 C814 1.524 . S
C813 H816 0.999 . S
C814 H784 0.950 . S
C814 C813 1.524 . S
C814 C815 1.415 . S
C815 H785 0.950 . S
C815 C810 1.363 . S
C815 C814 1.415 . S
H816 C813 0.999 . S
H817 C798 0.913 . S
H818 C836 0.951 . S
H819 C838 0.951 . S
H820 C840 0.950 . S
H821 C841 0.950 . S
H822 C843 0.950 . S
H823 C846 0.950 . S
H824 C847 0.950 . S
H825 C849 0.950 . S
H826 C850 0.950 . S
H827 C851 0.951 . S
H828 C853 0.951 . S
H829 C855 0.950 . S
H830 C856 0.950 . S
H831 C858 0.950 . S
H832 C861 0.950 . S
H833 C862 0.950 . S
H834 C864 0.950 . S
H835 C865 0.950 . S
C836 H818 0.951 . S
C836 C837 1.366 . S
C836 C838 1.388 . S
C837 C836 1.366 . S
C837 C841 1.385 . S
C838 H819 0.951 . S
C838 C836 1.388 . S
C838 C839 1.366 . S
C839 C838 1.366 . S
C839 C840 1.414 . S
C839 C842 1.499 . S
C840 H820 0.950 . S
C840 C839 1.414 . S
C840 C841 1.374 . S
C841 H821 0.950 . S
C841 C837 1.385 . S
C841 C840 1.374 . S
C842 C839 1.499 . S
C842 C843 1.373 . S
C842 C844 1.389 . S
C843 H822 0.950 . S
C843 C842 1.373 . S
C843 C859 1.377 . S
C844 C842 1.389 . S
C844 C845 1.524 . S
C844 C858 1.377 . S
C845 C844 1.524 . S
C845 C846 1.397 . S
C845 C850 1.363 . S
C846 H823 0.950 . S
C846 C845 1.397 . S
C846 C847 1.334 . S
C847 H824 0.950 . S
C847 C846 1.334 . S
C847 C848 1.287 . S
C848 C847 1.287 . S
C848 C849 1.524 . S
C848 H867 0.913 . S
C849 H825 0.950 . S
C849 C848 1.524 . S
C849 C850 1.415 . S
C850 H826 0.950 . S
C850 C845 1.363 . S
C850 C849 1.415 . S
C851 H827 0.951 . S
C851 C852 1.366 . S
C851 C853 1.388 . S
C852 C851 1.366 . S
C852 C856 1.385 . S
C853 H828 0.951 . S
C853 C851 1.388 . S
C853 C854 1.366 . S
C854 C853 1.366 . S
C854 C855 1.414 . S
C854 C857 1.499 . S
C855 H829 0.950 . S
C855 C854 1.414 . S
C855 C856 1.374 . S
C856 H830 0.950 . S
C856 C852 1.385 . S
C856 C855 1.374 . S
C857 C854 1.499 . S
C857 C858 1.373 . S
C857 C859 1.389 . S
C858 H831 0.950 . S
C858 C844 1.377 . S
C858 C857 1.373 . S
C859 C843 1.377 . S
C859 C857 1.389 . S
C859 C860 1.524 . S
C860 C859 1.524 . S
C860 C861 1.397 . S
C860 C865 1.363 . S
C861 H832 0.950 . S
C861 C860 1.397 . S
C861 C862 1.334 . S
C862 H833 0.950 . S
C862 C861 1.334 . S
C862 C863 1.287 . S
C863 C862 1.287 . S
C863 C864 1.524 . S
C863 H866 0.999 . S
C864 H834 0.950 . S
C864 C863 1.524 . S
C864 C865 1.415 . S
C865 H835 0.950 . S
C865 C860 1.363 . S
C865 C864 1.415 . S
H866 C863 0.999 . S
H867 C848 0.913 . S
H868 C886 0.951 . S
H869 C888 0.951 . S
H870 C890 0.950 . S
H871 C891 0.950 . S
H872 C893 0.950 . S
H873 C896 0.950 . S
H874 C897 0.950 . S
H875 C899 0.950 . S
H876 C900 0.950 . S
H877 C901 0.951 . S
H878 C903 0.951 . S
H879 C905 0.950 . S
H880 C906 0.950 . S
H881 C908 0.950 . S
H882 C911 0.950 . S
H883 C912 0.950 . S
H884 C914 0.950 . S
H885 C915 0.950 . S
C886 H868 0.951 . S
C886 C887 1.366 . S
C886 C888 1.388 . S
C887 C886 1.366 . S
C887 C891 1.385 . S
C888 H869 0.951 . S
C888 C886 1.388 . S
C888 C889 1.366 . S
C889 C888 1.366 . S
C889 C890 1.414 . S
C889 C892 1.499 . S
C890 H870 0.950 . S
C890 C889 1.414 . S
C890 C891 1.374 . S
C891 H871 0.950 . S
C891 C887 1.385 . S
C891 C890 1.374 . S
C892 C889 1.499 . S
C892 C893 1.373 . S
C892 C894 1.389 . S
C893 H872 0.950 . S
C893 C892 1.373 . S
C893 C909 1.377 . S
C894 C892 1.389 . S
C894 C895 1.524 . S
C894 C908 1.377 . S
C895 C894 1.524 . S
C895 C896 1.397 . S
C895 C900 1.363 . S
C896 H873 0.950 . S
C896 C895 1.397 . S
C896 C897 1.334 . S
C897 H874 0.950 . S
C897 C896 1.334 . S
C897 C898 1.287 . S
C898 C897 1.287 . S
C898 C899 1.524 . S
C898 H917 0.913 . S
C899 H875 0.950 . S
C899 C898 1.524 . S
C899 C900 1.415 . S
C900 H876 0.950 . S
C900 C895 1.363 . S
C900 C899 1.415 . S
C901 H877 0.951 . S
C901 C902 1.366 . S
C901 C903 1.388 . S
C902 C901 1.366 . S
C902 C906 1.385 . S
C903 H878 0.951 . S
C903 C901 1.388 . S
C903 C904 1.366 . S
C904 C903 1.366 . S
C904 C905 1.414 . S
C904 C907 1.499 . S
C905 H879 0.950 . S
C905 C904 1.414 . S
C905 C906 1.374 . S
C906 H880 0.950 . S
C906 C902 1.385 . S
C906 C905 1.374 . S
C907 C904 1.499 . S
C907 C908 1.373 . S
C907 C909 1.389 . S
C908 H881 0.950 . S
C908 C894 1.377 . S
C908 C907 1.373 . S
C909 C893 1.377 . S
C909 C907 1.389 . S
C909 C910 1.524 . S
C910 C909 1.524 . S
C910 C911 1.397 . S
C910 C915 1.363 . S
C911 H882 0.950 . S
C911 C910 1.397 . S
C911 C912 1.334 . S
C912 H883 0.950 . S
C912 C911 1.334 . S
C912 C913 1.287 . S
C913 C912 1.287 . S
C913 C914 1.524 . S
C913 H916 0.999 . S
C914 H884 0.950 . S
C914 C913 1.524 . S
C914 C915 1.415 . S
C915 H885 0.950 . S
C915 C910 1.363 . S
C915 C914 1.415 . S
H916 C913 0.999 . S
H917 C898 0.913 . S
H918 C936 0.951 . S
H919 C938 0.951 . S
H920 C940 0.950 . S
H921 C941 0.950 . S
H922 C943 0.950 . S
H923 C946 0.950 . S
H924 C947 0.950 . S
H925 C949 0.950 . S
H926 C950 0.950 . S
H927 C951 0.951 . S
H928 C953 0.951 . S
H929 C955 0.950 . S
H930 C956 0.950 . S
H931 C958 0.950 . S
H932 C961 0.950 . S
H933 C962 0.950 . S
H934 C964 0.950 . S
H935 C965 0.950 . S
C936 H918 0.951 . S
C936 C937 1.366 . S
C936 C938 1.388 . S
C937 C936 1.366 . S
C937 C941 1.385 . S
C938 H919 0.951 . S
C938 C936 1.388 . S
C938 C939 1.366 . S
C939 C938 1.366 . S
C939 C940 1.414 . S
C939 C942 1.499 . S
C940 H920 0.950 . S
C940 C939 1.414 . S
C940 C941 1.374 . S
C941 H921 0.950 . S
C941 C937 1.385 . S
C941 C940 1.374 . S
C942 C939 1.499 . S
C942 C943 1.373 . S
C942 C944 1.389 . S
C943 H922 0.950 . S
C943 C942 1.373 . S
C943 C959 1.377 . S
C944 C942 1.389 . S
C944 C945 1.524 . S
C944 C958 1.377 . S
C945 C944 1.524 . S
C945 C946 1.397 . S
C945 C950 1.363 . S
C946 H923 0.950 . S
C946 C945 1.397 . S
C946 C947 1.334 . S
C947 H924 0.950 . S
C947 C946 1.334 . S
C947 C948 1.287 . S
C948 C947 1.287 . S
C948 C949 1.524 . S
C948 H967 0.913 . S
C949 H925 0.950 . S
C949 C948 1.524 . S
C949 C950 1.415 . S
C950 H926 0.950 . S
C950 C945 1.363 . S
C950 C949 1.415 . S
C951 H927 0.951 . S
C951 C952 1.366 . S
C951 C953 1.388 . S
C952 C951 1.366 . S
C952 C956 1.385 . S
C953 H928 0.951 . S
C953 C951 1.388 . S
C953 C954 1.366 . S
C954 C953 1.366 . S
C954 C955 1.414 . S
C954 C957 1.499 . S
C955 H929 0.950 . S
C955 C954 1.414 . S
C955 C956 1.374 . S
C956 H930 0.950 . S
C956 C952 1.385 . S
C956 C955 1.374 . S
C957 C954 1.499 . S
C957 C958 1.373 . S
C957 C959 1.389 . S
C958 H931 0.950 . S
C958 C944 1.377 . S
C958 C957 1.373 . S
C959 C943 1.377 . S
C959 C957 1.389 . S
C959 C960 1.524 . S
C960 C959 1.524 . S
C960 C961 1.397 . S
C960 C965 1.363 . S
C961 H932 0.950 . S
C961 C960 1.397 . S
C961 C962 1.334 . S
C962 H933 0.950 . S
C962 C961 1.334 . S
C962 C963 1.287 . S
C963 C962 1.287 . S
C963 C964 1.524 . S
C963 H966 0.999 . S
C964 H934 0.950 . S
C964 C963 1.524 . S
C964 C965 1.415 . S
C965 H935 0.950 . S
C965 C960 1.363 . S
C965 C964 1.415 . S
H966 C963 0.999 . S
H967 C948 0.913 . S
H968 C986 0.951 . S
H969 C988 0.951 . S
H970 C990 0.950 . S
H971 C991 0.950 . S
H972 C993 0.950 . S
H973 C996 0.950 . S
H974 C997 0.950 . S
H975 C999 0.950 . S
H976 C1000 0.950 . S
H977 C1001 0.951 1_554 S
H978 C1003 0.951 . S
H979 C1005 0.950 . S
H980 C1006 0.950 1_545 S
H981 C1008 0.950 . S
H982 C1011 0.950 . S
H983 C1012 0.950 . S
H984 C1014 0.950 . S
H985 C1015 0.950 . S
C986 H968 0.951 . S
C986 C987 1.366 . S
C986 C988 1.388 . S
C987 C986 1.366 . S
C987 C991 1.385 . S
C988 H969 0.951 . S
C988 C986 1.388 . S
C988 C989 1.366 . S
C989 C988 1.366 . S
C989 C990 1.414 . S
C989 C992 1.499 . S
C990 H970 0.950 . S
C990 C989 1.414 . S
C990 C991 1.374 . S
C991 H971 0.950 . S
C991 C987 1.385 . S
C991 C990 1.374 . S
C992 C989 1.499 . S
C992 C993 1.373 . S
C992 C994 1.389 . S
C993 H972 0.950 . S
C993 C992 1.373 . S
C993 C1009 1.377 . S
C994 C992 1.389 . S
C994 C995 1.524 . S
C994 C1008 1.377 . S
C995 C994 1.524 . S
C995 C996 1.397 . S
C995 C1000 1.363 . S
C996 H973 0.950 . S
C996 C995 1.397 . S
C996 C997 1.334 . S
C997 H974 0.950 . S
C997 C996 1.334 . S
C997 C998 1.287 . S
C998 C997 1.287 . S
C998 C999 1.524 . S
C998 H1017 0.913 . S
C999 H975 0.950 . S
C999 C998 1.524 . S
C999 C1000 1.415 . S
C1000 H976 0.950 . S
C1000 C995 1.363 . S
C1000 C999 1.415 . S
C1001 H977 0.951 1_556 S
C1001 C1002 1.364 . S
C1001 C1003 1.388 . S
C1002 C1001 1.364 . S
C1002 C1006 1.403 . S
C1003 H978 0.951 . S
C1003 C1001 1.388 . S
C1003 C1004 1.366 . S
C1004 C1003 1.366 . S
C1004 C1005 1.414 . S
C1004 C1007 1.499 . S
C1005 H979 0.950 . S
C1005 C1004 1.414 . S
C1005 C1006 1.374 . S
C1006 H980 0.950 1_565 S
C1006 C1002 1.403 . S
C1006 C1005 1.374 . S
C1007 C1004 1.499 . S
C1007 C1008 1.373 . S
C1007 C1009 1.389 . S
C1008 H981 0.950 . S
C1008 C994 1.377 . S
C1008 C1007 1.373 . S
C1009 C993 1.377 . S
C1009 C1007 1.389 . S
C1009 C1010 1.524 . S
C1010 C1009 1.524 . S
C1010 C1011 1.397 . S
C1010 C1015 1.363 . S
C1011 H982 0.950 . S
C1011 C1010 1.397 . S
C1011 C1012 1.334 . S
C1012 H983 0.950 . S
C1012 C1011 1.334 . S
C1012 C1013 1.287 . S
C1013 C1012 1.287 . S
C1013 C1014 1.524 . S
C1013 H1016 0.999 . S
C1014 H984 0.950 . S
C1014 C1013 1.524 . S
C1014 C1015 1.415 . S
C1015 H985 0.950 . S
C1015 C1010 1.363 . S
C1015 C1014 1.415 . S
H1016 C1013 0.999 . S
H1017 C998 0.913 . S
H1018 C1036 0.951 . S
H1019 C1038 0.951 . S
H1020 C1040 0.950 . S
H1021 C1041 0.950 . S
H1022 C1043 0.950 . S
H1023 C1046 0.950 . S
H1024 C1047 0.950 . S
H1025 C1049 0.950 . S
H1026 C1050 0.950 . S
H1027 C1051 0.951 . S
H1028 C1053 0.951 . S
H1029 C1055 0.950 . S
H1030 C1056 0.950 . S
H1031 C1058 0.950 . S
H1032 C1061 0.950 . S
H1033 C1062 0.950 . S
H1034 C1064 0.950 . S
H1035 C1065 0.950 . S
C1036 H1018 0.951 . S
C1036 C1037 1.366 . S
C1036 C1038 1.388 . S
C1037 C1036 1.366 . S
C1037 C1041 1.385 . S
C1038 H1019 0.951 . S
C1038 C1036 1.388 . S
C1038 C1039 1.366 . S
C1039 C1038 1.366 . S
C1039 C1040 1.414 . S
C1039 C1042 1.499 . S
C1040 H1020 0.950 . S
C1040 C1039 1.414 . S
C1040 C1041 1.374 . S
C1041 H1021 0.950 . S
C1041 C1037 1.385 . S
C1041 C1040 1.374 . S
C1042 C1039 1.499 . S
C1042 C1043 1.373 . S
C1042 C1044 1.389 . S
C1043 H1022 0.950 . S
C1043 C1042 1.373 . S
C1043 C1059 1.377 . S
C1044 C1042 1.389 . S
C1044 C1045 1.524 . S
C1044 C1058 1.377 . S
C1045 C1044 1.524 . S
C1045 C1046 1.397 . S
C1045 C1050 1.363 . S
C1046 H1023 0.950 . S
C1046 C1045 1.397 . S
C1046 C1047 1.334 . S
C1047 H1024 0.950 . S
C1047 C1046 1.334 . S
C1047 C1048 1.287 . S
C1048 C1047 1.287 . S
C1048 C1049 1.524 . S
C1048 H1067 0.913 . S
C1049 H1025 0.950 . S
C1049 C1048 1.524 . S
C1049 C1050 1.415 . S
C1050 H1026 0.950 . S
C1050 C1045 1.363 . S
C1050 C1049 1.415 . S
C1051 H1027 0.951 . S
C1051 C1052 1.366 . S
C1051 C1053 1.388 . S
C1052 C1051 1.366 . S
C1052 C1056 1.385 . S
C1053 H1028 0.951 . S
C1053 C1051 1.388 . S
C1053 C1054 1.366 . S
C1054 C1053 1.366 . S
C1054 C1055 1.414 . S
C1054 C1057 1.499 . S
C1055 H1029 0.950 . S
C1055 C1054 1.414 . S
C1055 C1056 1.374 . S
C1056 H1030 0.950 . S
C1056 C1052 1.385 . S
C1056 C1055 1.374 . S
C1057 C1054 1.499 . S
C1057 C1058 1.373 . S
C1057 C1059 1.389 . S
C1058 H1031 0.950 . S
C1058 C1044 1.377 . S
C1058 C1057 1.373 . S
C1059 C1043 1.377 . S
C1059 C1057 1.389 . S
C1059 C1060 1.524 . S
C1060 C1059 1.524 . S
C1060 C1061 1.397 . S
C1060 C1065 1.363 . S
C1061 H1032 0.950 . S
C1061 C1060 1.397 . S
C1061 C1062 1.334 . S
C1062 H1033 0.950 . S
C1062 C1061 1.334 . S
C1062 C1063 1.287 . S
C1063 C1062 1.287 . S
C1063 C1064 1.524 . S
C1063 H1066 0.999 . S
C1064 H1034 0.950 . S
C1064 C1063 1.524 . S
C1064 C1065 1.415 . S
C1065 H1035 0.950 . S
C1065 C1060 1.363 . S
C1065 C1064 1.415 . S
H1066 C1063 0.999 . S
H1067 C1048 0.913 . S
H1068 C1086 0.951 . S
H1069 C1088 0.951 . S
H1070 C1090 0.950 . S
H1071 C1091 0.950 . S
H1072 C1093 0.950 . S
H1073 C1096 0.950 . S
H1074 C1097 0.950 . S
H1075 C1099 0.950 . S
H1076 C1100 0.950 . S
H1077 C1101 0.951 . S
H1078 C1103 0.951 . S
H1079 C1105 0.950 . S
H1080 C1106 0.950 . S
H1081 C1108 0.950 . S
H1082 C1111 0.950 . S
H1083 C1112 0.950 . S
H1084 C1114 0.950 . S
H1085 C1115 0.950 . S
C1086 H1068 0.951 . S
C1086 C1087 1.366 . S
C1086 C1088 1.388 . S
C1087 C1086 1.366 . S
C1087 C1091 1.385 . S
C1088 H1069 0.951 . S
C1088 C1086 1.388 . S
C1088 C1089 1.366 . S
C1089 C1088 1.366 . S
C1089 C1090 1.414 . S
C1089 C1092 1.499 . S
C1090 H1070 0.950 . S
C1090 C1089 1.414 . S
C1090 C1091 1.374 . S
C1091 H1071 0.950 . S
C1091 C1087 1.385 . S
C1091 C1090 1.374 . S
C1092 C1089 1.499 . S
C1092 C1093 1.373 . S
C1092 C1094 1.389 . S
C1093 H1072 0.950 . S
C1093 C1092 1.373 . S
C1093 C1109 1.377 . S
C1094 C1092 1.389 . S
C1094 C1095 1.524 . S
C1094 C1108 1.377 . S
C1095 C1094 1.524 . S
C1095 C1096 1.397 . S
C1095 C1100 1.363 . S
C1096 H1073 0.950 . S
C1096 C1095 1.397 . S
C1096 C1097 1.334 . S
C1097 H1074 0.950 . S
C1097 C1096 1.334 . S
C1097 C1098 1.287 . S
C1098 C1097 1.287 . S
C1098 C1099 1.524 . S
C1098 H1117 0.913 . S
C1099 H1075 0.950 . S
C1099 C1098 1.524 . S
C1099 C1100 1.415 . S
C1100 H1076 0.950 . S
C1100 C1095 1.363 . S
C1100 C1099 1.415 . S
C1101 H1077 0.951 . S
C1101 C1102 1.366 . S
C1101 C1103 1.388 . S
C1102 C1101 1.366 . S
C1102 C1106 1.385 . S
C1103 H1078 0.951 . S
C1103 C1101 1.388 . S
C1103 C1104 1.366 . S
C1104 C1103 1.366 . S
C1104 C1105 1.414 . S
C1104 C1107 1.499 . S
C1105 H1079 0.950 . S
C1105 C1104 1.414 . S
C1105 C1106 1.374 . S
C1106 H1080 0.950 . S
C1106 C1102 1.385 . S
C1106 C1105 1.374 . S
C1107 C1104 1.499 . S
C1107 C1108 1.373 . S
C1107 C1109 1.389 . S
C1108 H1081 0.950 . S
C1108 C1094 1.377 . S
C1108 C1107 1.373 . S
C1109 C1093 1.377 . S
C1109 C1107 1.389 . S
C1109 C1110 1.524 . S
C1110 C1109 1.524 . S
C1110 C1111 1.397 . S
C1110 C1115 1.363 . S
C1111 H1082 0.950 . S
C1111 C1110 1.397 . S
C1111 C1112 1.334 . S
C1112 H1083 0.950 . S
C1112 C1111 1.334 . S
C1112 C1113 1.287 . S
C1113 C1112 1.287 . S
C1113 C1114 1.524 . S
C1113 H1116 0.999 . S
C1114 H1084 0.950 . S
C1114 C1113 1.524 . S
C1114 C1115 1.415 . S
C1115 H1085 0.950 . S
C1115 C1110 1.363 . S
C1115 C1114 1.415 . S
H1116 C1113 0.999 . S
H1117 C1098 0.913 . S
H1118 C1136 0.951 . S
H1119 C1138 0.951 . S
H1120 C1140 0.950 . S
H1121 C1141 0.950 . S
H1122 C1143 0.950 . S
H1123 C1146 0.950 . S
H1124 C1147 0.950 . S
H1125 C1149 0.950 . S
H1126 C1150 0.950 . S
H1127 C1151 0.951 . S
H1128 C1153 0.951 . S
H1129 C1155 0.950 . S
H1130 C1156 0.950 . S
H1131 C1158 0.950 . S
H1132 C1161 0.950 . S
H1133 C1162 0.950 . S
H1134 C1164 0.950 . S
H1135 C1165 0.950 . S
C1136 H1118 0.951 . S
C1136 C1137 1.366 . S
C1136 C1138 1.388 . S
C1137 C1136 1.366 . S
C1137 C1141 1.385 . S
C1138 H1119 0.951 . S
C1138 C1136 1.388 . S
C1138 C1139 1.366 . S
C1139 C1138 1.366 . S
C1139 C1140 1.414 . S
C1139 C1142 1.499 . S
C1140 H1120 0.950 . S
C1140 C1139 1.414 . S
C1140 C1141 1.374 . S
C1141 H1121 0.950 . S
C1141 C1137 1.385 . S
C1141 C1140 1.374 . S
C1142 C1139 1.499 . S
C1142 C1143 1.373 . S
C1142 C1144 1.389 . S
C1143 H1122 0.950 . S
C1143 C1142 1.373 . S
C1143 C1159 1.377 . S
C1144 C1142 1.389 . S
C1144 C1145 1.524 . S
C1144 C1158 1.377 . S
C1145 C1144 1.524 . S
C1145 C1146 1.397 . S
C1145 C1150 1.363 . S
C1146 H1123 0.950 . S
C1146 C1145 1.397 . S
C1146 C1147 1.334 . S
C1147 H1124 0.950 . S
C1147 C1146 1.334 . S
C1147 C1148 1.287 . S
C1148 C1147 1.287 . S
C1148 C1149 1.524 . S
C1148 H1167 0.913 . S
C1149 H1125 0.950 . S
C1149 C1148 1.524 . S
C1149 C1150 1.415 . S
C1150 H1126 0.950 . S
C1150 C1145 1.363 . S
C1150 C1149 1.415 . S
C1151 H1127 0.951 . S
C1151 C1152 1.366 . S
C1151 C1153 1.388 . S
C1152 C1151 1.366 . S
C1152 C1156 1.385 . S
C1153 H1128 0.951 . S
C1153 C1151 1.388 . S
C1153 C1154 1.366 . S
C1154 C1153 1.366 . S
C1154 C1155 1.414 . S
C1154 C1157 1.499 . S
C1155 H1129 0.950 . S
C1155 C1154 1.414 . S
C1155 C1156 1.374 . S
C1156 H1130 0.950 . S
C1156 C1152 1.385 . S
C1156 C1155 1.374 . S
C1157 C1154 1.499 . S
C1157 C1158 1.373 . S
C1157 C1159 1.389 . S
C1158 H1131 0.950 . S
C1158 C1144 1.377 . S
C1158 C1157 1.373 . S
C1159 C1143 1.377 . S
C1159 C1157 1.389 . S
C1159 C1160 1.524 . S
C1160 C1159 1.524 . S
C1160 C1161 1.397 . S
C1160 C1165 1.363 . S
C1161 H1132 0.950 . S
C1161 C1160 1.397 . S
C1161 C1162 1.334 . S
C1162 H1133 0.950 . S
C1162 C1161 1.334 . S
C1162 C1163 1.287 . S
C1163 C1162 1.287 . S
C1163 C1164 1.524 . S
C1163 H1166 0.999 . S
C1164 H1134 0.950 . S
C1164 C1163 1.524 . S
C1164 C1165 1.415 . S
C1165 H1135 0.950 . S
C1165 C1160 1.363 . S
C1165 C1164 1.415 . S
H1166 C1163 0.999 . S
H1167 C1148 0.913 . S
H1168 C1186 0.951 . S
H1169 C1188 0.951 . S
H1170 C1190 0.950 . S
H1171 C1191 0.950 . S
H1172 C1193 0.950 . S
H1173 C1196 0.950 . S
H1174 C1197 0.950 . S
H1175 C1199 0.950 . S
H1176 C1200 0.950 . S
H1177 C1201 0.951 . S
H1178 C1203 0.951 . S
H1179 C1205 0.950 . S
H1180 C1206 0.950 . S
H1181 C1208 0.950 . S
H1182 C1211 0.950 . S
H1183 C1212 0.950 . S
H1184 C1214 0.950 . S
H1185 C1215 0.950 . S
C1186 H1168 0.951 . S
C1186 C1187 1.366 . S
C1186 C1188 1.388 . S
C1187 C1186 1.366 . S
C1187 C1191 1.385 . S
C1188 H1169 0.951 . S
C1188 C1186 1.388 . S
C1188 C1189 1.366 . S
C1189 C1188 1.366 . S
C1189 C1190 1.414 . S
C1189 C1192 1.499 . S
C1190 H1170 0.950 . S
C1190 C1189 1.414 . S
C1190 C1191 1.374 . S
C1191 H1171 0.950 . S
C1191 C1187 1.385 . S
C1191 C1190 1.374 . S
C1192 C1189 1.499 . S
C1192 C1193 1.373 . S
C1192 C1194 1.389 . S
C1193 H1172 0.950 . S
C1193 C1192 1.373 . S
C1193 C1209 1.377 . S
C1194 C1192 1.389 . S
C1194 C1195 1.524 . S
C1194 C1208 1.377 . S
C1195 C1194 1.524 . S
C1195 C1196 1.397 . S
C1195 C1200 1.363 . S
C1196 H1173 0.950 . S
C1196 C1195 1.397 . S
C1196 C1197 1.334 . S
C1197 H1174 0.950 . S
C1197 C1196 1.334 . S
C1197 C1198 1.287 . S
C1198 C1197 1.287 . S
C1198 C1199 1.524 1_556 S
C1198 H1217 0.913 1_556 S
C1199 H1175 0.950 . S
C1199 C1198 1.524 1_554 S
C1199 C1200 1.415 1_554 S
C1200 H1176 0.950 . S
C1200 C1195 1.363 . S
C1200 C1199 1.415 1_556 S
C1201 H1177 0.951 . S
C1201 C1202 1.366 . S
C1201 C1203 1.388 . S
C1202 C1201 1.366 . S
C1202 C1206 1.385 . S
C1203 H1178 0.951 . S
C1203 C1201 1.388 . S
C1203 C1204 1.366 . S
C1204 C1203 1.366 . S
C1204 C1205 1.414 . S
C1204 C1207 1.499 . S
C1205 H1179 0.950 . S
C1205 C1204 1.414 . S
C1205 C1206 1.374 . S
C1206 H1180 0.950 . S
C1206 C1202 1.385 . S
C1206 C1205 1.374 . S
C1207 C1204 1.499 . S
C1207 C1208 1.373 . S
C1207 C1209 1.389 . S
C1208 H1181 0.950 . S
C1208 C1194 1.377 . S
C1208 C1207 1.373 . S
C1209 C1193 1.377 . S
C1209 C1207 1.389 . S
C1209 C1210 1.524 . S
C1210 C1209 1.524 . S
C1210 C1211 1.397 . S
C1210 C1215 1.363 . S
C1211 H1182 0.950 . S
C1211 C1210 1.397 . S
C1211 C1212 1.334 . S
C1212 H1183 0.950 . S
C1212 C1211 1.334 . S
C1212 C1213 1.287 . S
C1213 C1212 1.287 . S
C1213 C1214 1.524 . S
C1213 H1216 0.999 . S
C1214 H1184 0.950 . S
C1214 C1213 1.524 . S
C1214 C1215 1.415 . S
C1215 H1185 0.950 . S
C1215 C1210 1.363 . S
C1215 C1214 1.415 . S
H1216 C1213 0.999 . S
H1217 C1198 0.913 1_554 S
H1218 C1236 0.951 . S
H1219 C1238 0.951 . S
H1220 C1240 0.950 . S
H1221 C1241 0.950 . S
H1222 C1243 0.950 . S
H1223 C1246 0.950 . S
H1224 C1247 0.950 . S
H1225 C1249 0.950 . S
H1226 C1250 0.950 . S
H1227 C1251 0.951 . S
H1228 C1253 0.951 . S
H1229 C1255 0.950 . S
H1230 C1256 0.950 . S
H1231 C1258 0.950 . S
H1232 C1261 0.950 . S
H1233 C1262 0.950 . S
H1234 C1264 0.950 . S
H1235 C1265 0.950 . S
C1236 H1218 0.951 . S
C1236 C1237 1.366 . S
C1236 C1238 1.388 . S
C1237 C1236 1.366 . S
C1237 C1241 1.385 . S
C1238 H1219 0.951 . S
C1238 C1236 1.388 . S
C1238 C1239 1.366 . S
C1239 C1238 1.366 . S
C1239 C1240 1.414 . S
C1239 C1242 1.499 . S
C1240 H1220 0.950 . S
C1240 C1239 1.414 . S
C1240 C1241 1.374 . S
C1241 H1221 0.950 . S
C1241 C1237 1.385 . S
C1241 C1240 1.374 . S
C1242 C1239 1.499 . S
C1242 C1243 1.373 . S
C1242 C1244 1.389 . S
C1243 H1222 0.950 . S
C1243 C1242 1.373 . S
C1243 C1259 1.377 . S
C1244 C1242 1.389 . S
C1244 C1245 1.524 . S
C1244 C1258 1.377 . S
C1245 C1244 1.524 . S
C1245 C1246 1.397 . S
C1245 C1250 1.363 . S
C1246 H1223 0.950 . S
C1246 C1245 1.397 . S
C1246 C1247 1.334 . S
C1247 H1224 0.950 . S
C1247 C1246 1.334 . S
C1247 C1248 1.287 . S
C1248 C1247 1.287 . S
C1248 C1249 1.524 . S
C1248 H1267 0.913 . S
C1249 H1225 0.950 . S
C1249 C1248 1.524 . S
C1249 C1250 1.415 . S
C1250 H1226 0.950 . S
C1250 C1245 1.363 . S
C1250 C1249 1.415 . S
C1251 H1227 0.951 . S
C1251 C1252 1.366 . S
C1251 C1253 1.388 . S
C1252 C1251 1.366 . S
C1252 C1256 1.385 . S
C1253 H1228 0.951 . S
C1253 C1251 1.388 . S
C1253 C1254 1.366 . S
C1254 C1253 1.366 . S
C1254 C1255 1.414 . S
C1254 C1257 1.499 . S
C1255 H1229 0.950 . S
C1255 C1254 1.414 . S
C1255 C1256 1.374 . S
C1256 H1230 0.950 . S
C1256 C1252 1.385 . S
C1256 C1255 1.374 . S
C1257 C1254 1.499 . S
C1257 C1258 1.373 . S
C1257 C1259 1.389 . S
C1258 H1231 0.950 . S
C1258 C1244 1.377 . S
C1258 C1257 1.373 . S
C1259 C1243 1.377 . S
C1259 C1257 1.389 . S
C1259 C1260 1.524 . S
C1260 C1259 1.524 . S
C1260 C1261 1.397 . S
C1260 C1265 1.363 . S
C1261 H1232 0.950 . S
C1261 C1260 1.397 . S
C1261 C1262 1.334 . S
C1262 H1233 0.950 . S
C1262 C1261 1.334 . S
C1262 C1263 1.287 . S
C1263 C1262 1.287 . S
C1263 C1264 1.524 . S
C1263 H1266 0.999 . S
C1264 H1234 0.950 . S
C1264 C1263 1.524 . S
C1264 C1265 1.415 . S
C1265 H1235 0.950 . S
C1265 C1260 1.363 . S
C1265 C1264 1.415 . S
H1266 C1263 0.999 . S
H1267 C1248 0.913 . S
H1268 C1286 0.951 . S
H1269 C1288 0.951 . S
H1270 C1290 0.950 . S
H1271 C1291 0.950 . S
H1272 C1293 0.950 . S
H1273 C1296 0.950 . S
H1274 C1297 0.950 . S
H1275 C1299 0.950 1_655 S
H1276 C1300 0.950 . S
H1277 C1301 0.951 . S
H1278 C1303 0.951 . S
H1279 C1305 0.950 . S
H1280 C1306 0.950 . S
H1281 C1308 0.950 . S
H1282 C1311 0.950 . S
H1283 C1312 0.950 . S
H1284 C1314 0.950 . S
H1285 C1315 0.950 . S
C1286 H1268 0.951 . S
C1286 C1287 1.366 . S
C1286 C1288 1.388 . S
C1287 C1286 1.366 . S
C1287 C1291 1.385 . S
C1288 H1269 0.951 . S
C1288 C1286 1.388 . S
C1288 C1289 1.366 . S
C1289 C1288 1.366 . S
C1289 C1290 1.414 . S
C1289 C1292 1.499 . S
C1290 H1270 0.950 . S
C1290 C1289 1.414 . S
C1290 C1291 1.374 . S
C1291 H1271 0.950 . S
C1291 C1287 1.385 . S
C1291 C1290 1.374 . S
C1292 C1289 1.499 . S
C1292 C1293 1.373 . S
C1292 C1294 1.389 . S
C1293 H1272 0.950 . S
C1293 C1292 1.373 . S
C1293 C1309 1.377 . S
C1294 C1292 1.389 . S
C1294 C1295 1.524 . S
C1294 C1308 1.377 . S
C1295 C1294 1.524 . S
C1295 C1296 1.397 . S
C1295 C1300 1.363 . S
C1296 H1273 0.950 . S
C1296 C1295 1.397 . S
C1296 C1297 1.334 . S
C1297 H1274 0.950 . S
C1297 C1296 1.334 . S
C1297 C1298 1.287 . S
C1298 C1297 1.287 . S
C1298 C1299 1.524 . S
C1298 H1317 0.913 . S
C1299 H1275 0.950 1_455 S
C1299 C1298 1.524 . S
C1299 C1300 1.415 . S
C1300 H1276 0.950 . S
C1300 C1295 1.363 . S
C1300 C1299 1.415 . S
C1301 H1277 0.951 . S
C1301 C1302 1.366 . S
C1301 C1303 1.388 . S
C1302 C1301 1.366 . S
C1302 C1306 1.385 . S
C1303 H1278 0.951 . S
C1303 C1301 1.388 . S
C1303 C1304 1.366 . S
C1304 C1303 1.366 . S
C1304 C1305 1.414 . S
C1304 C1307 1.499 . S
C1305 H1279 0.950 . S
C1305 C1304 1.414 . S
C1305 C1306 1.374 . S
C1306 H1280 0.950 . S
C1306 C1302 1.385 . S
C1306 C1305 1.374 . S
C1307 C1304 1.499 . S
C1307 C1308 1.373 . S
C1307 C1309 1.389 . S
C1308 H1281 0.950 . S
C1308 C1294 1.377 . S
C1308 C1307 1.373 . S
C1309 C1293 1.377 . S
C1309 C1307 1.389 . S
C1309 C1310 1.524 . S
C1310 C1309 1.524 . S
C1310 C1311 1.397 . S
C1310 C1315 1.363 . S
C1311 H1282 0.950 . S
C1311 C1310 1.397 . S
C1311 C1312 1.334 . S
C1312 H1283 0.950 . S
C1312 C1311 1.334 . S
C1312 C1313 1.287 . S
C1313 C1312 1.287 . S
C1313 C1314 1.524 . S
C1313 H1316 0.999 . S
C1314 H1284 0.950 . S
C1314 C1313 1.524 . S
C1314 C1315 1.415 . S
C1315 H1285 0.950 . S
C1315 C1310 1.363 . S
C1315 C1314 1.415 . S
H1316 C1313 0.999 . S
H1317 C1298 0.913 . S
H1318 C1336 0.951 . S
H1319 C1338 0.951 . S
H1320 C1340 0.950 . S
H1321 C1341 0.950 . S
H1322 C1343 0.950 . S
H1323 C1346 0.950 . S
H1324 C1347 0.950 . S
H1325 C1349 0.950 . S
H1326 C1350 0.950 . S
H1327 C1351 0.951 . S
H1328 C1353 0.951 . S
H1329 C1355 0.950 . S
H1330 C1356 0.950 . S
H1331 C1358 0.950 . S
H1332 C1361 0.950 . S
H1333 C1362 0.950 . S
H1334 C1364 0.950 . S
H1335 C1365 0.950 . S
C1336 H1318 0.951 . S
C1336 C1337 1.366 . S
C1336 C1338 1.388 . S
C1337 C1336 1.366 . S
C1337 C1341 1.385 . S
C1338 H1319 0.951 . S
C1338 C1336 1.388 . S
C1338 C1339 1.366 . S
C1339 C1338 1.366 . S
C1339 C1340 1.414 . S
C1339 C1342 1.499 . S
C1340 H1320 0.950 . S
C1340 C1339 1.414 . S
C1340 C1341 1.374 . S
C1341 H1321 0.950 . S
C1341 C1337 1.385 . S
C1341 C1340 1.374 . S
C1342 C1339 1.499 . S
C1342 C1343 1.373 . S
C1342 C1344 1.389 . S
C1343 H1322 0.950 . S
C1343 C1342 1.373 . S
C1343 C1359 1.377 . S
C1344 C1342 1.389 . S
C1344 C1345 1.524 . S
C1344 C1358 1.377 . S
C1345 C1344 1.524 . S
C1345 C1346 1.397 . S
C1345 C1350 1.363 . S
C1346 H1323 0.950 . S
C1346 C1345 1.397 . S
C1346 C1347 1.334 . S
C1347 H1324 0.950 . S
C1347 C1346 1.334 . S
C1347 C1348 1.287 . S
C1348 C1347 1.287 . S
C1348 C1349 1.524 . S
C1348 H1367 0.913 . S
C1349 H1325 0.950 . S
C1349 C1348 1.524 . S
C1349 C1350 1.415 . S
C1350 H1326 0.950 . S
C1350 C1345 1.363 . S
C1350 C1349 1.415 . S
C1351 H1327 0.951 . S
C1351 C1352 1.366 . S
C1351 C1353 1.388 . S
C1352 C1351 1.366 . S
C1352 C1356 1.385 . S
C1353 H1328 0.951 . S
C1353 C1351 1.388 . S
C1353 C1354 1.366 . S
C1354 C1353 1.366 . S
C1354 C1355 1.414 . S
C1354 C1357 1.499 . S
C1355 H1329 0.950 . S
C1355 C1354 1.414 . S
C1355 C1356 1.374 . S
C1356 H1330 0.950 . S
C1356 C1352 1.385 . S
C1356 C1355 1.374 . S
C1357 C1354 1.499 . S
C1357 C1358 1.373 . S
C1357 C1359 1.389 . S
C1358 H1331 0.950 . S
C1358 C1344 1.377 . S
C1358 C1357 1.373 . S
C1359 C1343 1.377 . S
C1359 C1357 1.389 . S
C1359 C1360 1.524 . S
C1360 C1359 1.524 . S
C1360 C1361 1.397 . S
C1360 C1365 1.363 . S
C1361 H1332 0.950 . S
C1361 C1360 1.397 . S
C1361 C1362 1.334 . S
C1362 H1333 0.950 . S
C1362 C1361 1.334 . S
C1362 C1363 1.287 . S
C1363 C1362 1.287 . S
C1363 C1364 1.524 . S
C1363 H1366 0.999 . S
C1364 H1334 0.950 . S
C1364 C1363 1.524 . S
C1364 C1365 1.415 . S
C1365 H1335 0.950 . S
C1365 C1360 1.363 . S
C1365 C1364 1.415 . S
H1366 C1363 0.999 . S
H1367 C1348 0.913 . S
C187 C5 1.406 . S
C202 C90 1.694 . S
C237 C18 1.402 . S
C252 C109 1.469 . S
C302 C146 1.520 . S
C287 C30 1.530 . S
C337 C41 1.323 . S
C352 C156 1.286 1_655 S
C402 C126 2.169 . S
C387 C7 2.062 . S
C452 C96 1.666 1_565 S
C437 C16 1.460 . S
C502 C167 1.527 . S
C487 C29 1.467 . S
C552 C137 0.894 . S
C537 C38 0.858 . S
C587 C8 1.775 . S
C602 C150 1.806 . S
C652 C117 1.915 . S
C637 C27 1.734 . S
C687 C40 1.771 . S
C702 C107 1.798 . S
C737 C19 0.888 . S
C752 C129 0.890 . S
C802 C89 1.491 . S
C787 C51 1.384 . S
C837 C62 1.636 . S
C852 C110 1.647 . S
C887 C74 1.658 . S
C902 C147 1.654 . S
C937 C84 1.464 . S
C952 C157 1.506 . S
C987 C49 1.913 . S
C1002 C127 2.292 1_566 S
C1052 C97 1.522 . S
C1037 C63 1.543 . S
C1102 C166 1.441 . S
C1087 C71 1.297 . S
C1152 C136 0.997 . S
C1137 C85 1.001 . S
C1187 C52 1.689 . S
C1202 C149 1.731 . S
C1252 C116 1.979 . S
C1237 C73 1.984 . S
C1302 C106 1.364 . S
C1287 C82 1.140 . S
C1337 C60 1.099 . S
C1352 C130 1.298 . S
