# Generated by pormake.
# Topology anh, (6,3)-cn, num edge types: 1
# Building blocks:
#     Node 0, Type 0, BuildingBlock: CUKXOW_clean_sbu_0, # of connection points: 6
#     Node 1, Type 0, BuildingBlock: CUKXOW_clean_sbu_0, # of connection points: 6
#     Node 2, Type 0, BuildingBlock: CUKXOW_clean_sbu_0, # of connection points: 6
#     Node 3, Type 1, BuildingBlock: OLANEW_clean_sbu_2, # of connection points: 3
#     Node 4, Type 1, BuildingBlock: OLANEW_clean_sbu_2, # of connection points: 3
#     Node 5, Type 1, BuildingBlock: OLANEW_clean_sbu_2, # of connection points: 3
#     Node 6, Type 1, BuildingBlock: OLANEW_clean_sbu_2, # of connection points: 3
#     Node 7, Type 1, BuildingBlock: OLANEW_clean_sbu_2, # of connection points: 3
#     Node 8, Type 1, BuildingBlock: OLANEW_clean_sbu_2, # of connection points: 3
#     Edge 9, Type (0, 1), BuildingBlock: ZUJKAS_clean_linker_0, # of connection points: 2
#     Edge 10, Type (0, 1), BuildingBlock: ZUJKAS_clean_linker_0, # of connection points: 2
#     Edge 11, Type (0, 1), BuildingBlock: ZUJKAS_clean_linker_0, # of connection points: 2
#     Edge 12, Type (0, 1), BuildingBlock: ZUJKAS_clean_linker_0, # of connection points: 2
#     Edge 13, Type (0, 1), BuildingBlock: ZUJKAS_clean_linker_0, # of connection points: 2
#     Edge 14, Type (0, 1), BuildingBlock: ZUJKAS_clean_linker_0, # of connection points: 2
#     Edge 15, Type (0, 1), BuildingBlock: ZUJKAS_clean_linker_0, # of connection points: 2
#     Edge 16, Type (0, 1), BuildingBlock: ZUJKAS_clean_linker_0, # of connection points: 2
#     Edge 17, Type (0, 1), BuildingBlock: ZUJKAS_clean_linker_0, # of connection points: 2
#     Edge 18, Type (0, 1), BuildingBlock: ZUJKAS_clean_linker_0, # of connection points: 2
#     Edge 19, Type (0, 1), BuildingBlock: ZUJKAS_clean_linker_0, # of connection points: 2
#     Edge 20, Type (0, 1), BuildingBlock: ZUJKAS_clean_linker_0, # of connection points: 2
#     Edge 21, Type (0, 1), BuildingBlock: ZUJKAS_clean_linker_0, # of connection points: 2
#     Edge 22, Type (0, 1), BuildingBlock: ZUJKAS_clean_linker_0, # of connection points: 2
#     Edge 23, Type (0, 1), BuildingBlock: ZUJKAS_clean_linker_0, # of connection points: 2
#     Edge 24, Type (0, 1), BuildingBlock: ZUJKAS_clean_linker_0, # of connection points: 2
#     Edge 25, Type (0, 1), BuildingBlock: ZUJKAS_clean_linker_0, # of connection points: 2
#     Edge 26, Type (0, 1), BuildingBlock: ZUJKAS_clean_linker_0, # of connection points: 2
# Relax obj value: 0.078
# Max RMSD: 0.150
# Mean RMSD: 0.109
data_MOF--net-anh--node1-CUKXOW_clean_sbu_0--node2-OLANEW_clean_sbu_2--edge1-ZUJKAS_clean_linker_0
_symmetry_space_group_name_H-M    P1
_symmetry_Int_Tables_number       1
_symmetry_cell_setting            triclinic
loop_
_symmetry_equiv_pos_as_xyz
'x, y, z'
_cell_length_a     41.764358
_cell_length_b     40.495869
_cell_length_c     64.830117
_cell_angle_alpha  95.204567
_cell_angle_beta   90.032605
_cell_angle_gamma 117.09841
loop_
_atom_site_label
_atom_site_type_symbol
_atom_site_fract_x
_atom_site_fract_y
_atom_site_fract_z
_atom_type_partial_charge
Tb0 Tb 0.05885 0.53566 0.16779 0.0
C1 C 0.0279 0.50044 0.20956 0.0
Tb2 Tb 0.9973 0.45514 0.16538 0.0
O3 O 0.02282 0.55386 0.15303 0.0
O4 O 0.0025 0.50947 0.17096 0.0
O5 O 0.05412 0.52792 0.20071 0.0
C6 C 0.93261 0.39665 0.16561 0.0
O7 O 0.002 0.47055 0.19882 0.0
C8 C 0.06217 0.46111 0.16089 0.0
C9 C 0.03044 0.49001 0.12448 0.0
O10 O 0.96201 0.39931 0.17416 0.0
O11 O 0.9398 0.42673 0.1569 0.0
O12 O 0.03304 0.43251 0.15303 0.0
O13 O 0.05353 0.48236 0.17226 0.0
O14 O 0.00071 0.46684 0.13302 0.0
O15 O 0.05894 0.51562 0.13563 0.0
C16 C 0.12101 0.59795 0.17251 0.0
O17 O 0.11627 0.56663 0.16256 0.0
O18 O 0.09076 0.59412 0.17998 0.0
C19 C 0.99373 0.52724 0.1592 0.0
Tb20 Tb 0.47454 0.00739 0.49872 0.0
C21 C 0.51554 0.03548 0.45742 0.0
Tb22 Tb 0.55373 0.06633 0.50169 0.0
O23 O 0.45792 0.04975 0.50992 0.0
O24 O 0.50403 0.0639 0.49311 0.0
O25 O 0.48785 0.00883 0.46589 0.0
C26 C 0.61296 0.13141 0.50883 0.0
O27 O 0.54195 0.06382 0.46875 0.0
C28 C 0.54256 0.99699 0.49682 0.0
C29 C 0.51312 0.03715 0.5431 0.0
O30 O 0.61195 0.10071 0.50021 0.0
O31 O 0.58073 0.12534 0.51359 0.0
O32 O 0.5713 0.02453 0.49092 0.0
O33 O 0.52443 0.00983 0.50705 0.0
O34 O 0.54132 0.0631 0.5346 0.0
O35 O 0.48559 0.01004 0.5318 0.0
C36 C 0.41334 0.94383 0.49278 0.0
O37 O 0.41564 0.9767 0.49743 0.0
O38 O 0.44548 0.94682 0.49117 0.0
C39 C 0.48618 0.07697 0.50339 0.0
Tb40 Tb 0.51744 0.5324 0.83175 0.0
C41 C 0.55565 0.53544 0.87361 0.0
Tb42 Tb 0.59454 0.54335 0.83071 0.0
O43 O 0.49874 0.47672 0.84183 0.0
O44 O 0.54284 0.49872 0.82308 0.0
O45 O 0.53001 0.54102 0.86486 0.0
C46 C 0.65521 0.53716 0.83265 0.0
O47 O 0.58097 0.53153 0.86279 0.0
C48 C 0.58755 0.60416 0.82924 0.0
C49 C 0.55607 0.53985 0.78886 0.0
O50 O 0.65087 0.56495 0.84125 0.0
O51 O 0.62537 0.51278 0.8231 0.0
O52 O 0.61356 0.59926 0.82095 0.0
O53 O 0.56919 0.57715 0.83942 0.0
O54 O 0.58174 0.53441 0.79762 0.0
O55 O 0.53106 0.5442 0.79973 0.0
C56 C 0.45621 0.53715 0.82796 0.0
O57 O 0.46137 0.50929 0.8204 0.0
O58 O 0.48542 0.56223 0.83782 0.0
C59 C 0.52466 0.47186 0.83339 0.0
O60 O 0.50506 0.04768 0.22576 0.0
Cd61 Cd 0.50704 0.04693 0.18804 0.0
O62 O 0.5386 0.01877 0.22628 0.0
Cd63 Cd 0.52243 0.99561 0.19414 0.0
O64 O 0.47431 0.94781 0.18004 0.0
C65 C 0.44503 0.94486 0.18741 0.0
O66 O 0.44623 0.97151 0.20106 0.0
C67 C 0.52355 0.03632 0.23591 0.0
C68 C 0.57512 0.10058 0.17858 0.0
O69 O 0.54873 0.10844 0.18032 0.0
O70 O 0.56908 0.06714 0.18079 0.0
O71 O 0.5472 0.53407 0.55603 0.0
Cd72 Cd 0.5375 0.5222 0.51845 0.0
O73 O 0.50478 0.55155 0.56102 0.0
Cd74 Cd 0.50039 0.56297 0.52915 0.0
O75 O 0.50154 0.60993 0.51436 0.0
C76 C 0.50269 0.63574 0.52754 0.0
O77 O 0.50258 0.63102 0.54733 0.0
C78 C 0.52786 0.5428 0.56825 0.0
C79 C 0.52782 0.44962 0.50842 0.0
O80 O 0.55891 0.47768 0.50782 0.0
O81 O 0.50116 0.45599 0.51297 0.0
O82 O 0.06461 0.53184 0.90005 0.0
Cd83 Cd 0.06414 0.54838 0.86468 0.0
O84 O 0.04457 0.47152 0.89179 0.0
Cd85 Cd 0.03015 0.47631 0.8604 0.0
O86 O 0.99001 0.48711 0.84519 0.0
C87 C 0.97999 0.50727 0.85685 0.0
O88 O 0.99503 0.51968 0.87561 0.0
C89 C 0.05661 0.49959 0.90537 0.0
C90 C 0.12536 0.5527 0.84585 0.0
O91 O 0.12575 0.58121 0.85642 0.0
O92 O 0.09568 0.52245 0.84374 0.0
O93 O 0.025 0.51967 0.44254 0.0
Cd94 Cd 0.02948 0.5294 0.48032 0.0
O95 O 0.99376 0.55069 0.44011 0.0
Cd96 Cd 0.97798 0.54328 0.47206 0.0
O97 O 0.9355 0.50037 0.48801 0.0
C98 C 0.91438 0.473 0.47544 0.0
O99 O 0.92056 0.47399 0.45557 0.0
C100 C 0.01111 0.5347 0.43153 0.0
C101 C 0.09055 0.59721 0.49025 0.0
O102 O 0.09257 0.56644 0.48832 0.0
O103 O 0.05937 0.59574 0.48834 0.0
O104 O 0.55459 0.01127 0.77099 0.0
Cd105 Cd 0.56513 0.01217 0.80818 0.0
O106 O 0.51751 0.03619 0.77445 0.0
Cd107 Cd 0.5283 0.05465 0.80751 0.0
O108 O 0.53648 0.10679 0.82507 0.0
C109 C 0.55856 0.13617 0.81745 0.0
O110 O 0.57628 0.13275 0.80133 0.0
C111 C 0.53309 0.02134 0.76296 0.0
C112 C 0.56731 0.94636 0.81586 0.0
O113 O 0.53782 0.94887 0.81678 0.0
O114 O 0.5958 0.97514 0.81166 0.0
O115 O 0.56139 0.50354 0.10376 0.0
Cd116 Cd 0.57077 0.49911 0.14043 0.0
O117 O 0.50891 0.50459 0.10112 0.0
Cd118 Cd 0.48815 0.50044 0.13227 0.0
O119 O 0.43877 0.49712 0.14603 0.0
C120 C 0.40936 0.47325 0.13671 0.0
O121 O 0.41071 0.45127 0.12089 0.0
C122 C 0.53688 0.50525 0.09292 0.0
C123 C 0.63908 0.50286 0.14599 0.0
O124 O 0.61102 0.47152 0.14168 0.0
O125 O 0.63478 0.53235 0.14814 0.0
H126 H 0.12383 0.51308 0.18207 0.0
H127 H 0.18478 0.51897 0.17914 0.0
H128 H 0.14414 0.42342 0.13332 0.0
H129 H 0.08347 0.41794 0.13587 0.0
H130 H 0.20911 0.46679 0.18639 0.0
H131 H 0.22873 0.50123 0.10507 0.0
H132 H 0.1935 0.50396 0.12012 0.0
H133 H 0.18797 0.4597 0.10817 0.0
C134 C 0.12805 0.49367 0.17118 0.0
C135 C 0.09905 0.46529 0.15902 0.0
C136 C 0.1628 0.49693 0.16961 0.0
C137 C 0.16912 0.47198 0.15579 0.0
C138 C 0.14006 0.44346 0.14377 0.0
H139 H 0.34256 0.42393 0.12034 0.0
H140 H 0.28546 0.42501 0.12669 0.0
C141 C 0.10538 0.44022 0.14532 0.0
C142 C 0.20582 0.47495 0.15425 0.0
H143 H 0.27032 0.48364 0.11979 0.0
C144 C 0.22271 0.47086 0.1719 0.0
C145 C 0.22356 0.48039 0.13535 0.0
C146 C 0.2077 0.48694 0.11614 0.0
C147 C 0.25624 0.47056 0.17092 0.0
C148 C 0.27349 0.475 0.15186 0.0
C149 C 0.25696 0.47999 0.13437 0.0
C150 C 0.3081 0.47331 0.1494 0.0
C151 C 0.27231 0.4642 0.19009 0.0
C152 C 0.33988 0.49994 0.16022 0.0
C153 C 0.37274 0.49935 0.15666 0.0
C154 C 0.3744 0.47226 0.1421 0.0
C155 C 0.34235 0.44523 0.13163 0.0
C156 C 0.30963 0.44582 0.13522 0.0
H157 H 0.25218 0.45312 0.20209 0.0
H158 H 0.2836 0.44443 0.18621 0.0
H159 H 0.29458 0.49106 0.19683 0.0
H160 H 0.33946 0.52179 0.17099 0.0
H161 H 0.39693 0.52069 0.16489 0.0
H162 H 0.68062 0.14809 0.49689 0.0
H163 H 0.73213 0.20996 0.49743 0.0
H164 H 0.66882 0.25944 0.52612 0.0
H165 H 0.61691 0.19757 0.52517 0.0
H166 H 0.70139 0.29332 0.49304 0.0
H167 H 0.80178 0.28085 0.54306 0.0
H168 H 0.78372 0.24376 0.52243 0.0
H169 H 0.75456 0.24783 0.54186 0.0
C170 C 0.67791 0.17212 0.50361 0.0
C171 C 0.64492 0.16815 0.51104 0.0
C172 C 0.70743 0.20743 0.50407 0.0
C173 C 0.70455 0.23929 0.51217 0.0
C174 C 0.67174 0.23521 0.51998 0.0
H175 H 0.89384 0.46024 0.51542 0.0
H176 H 0.84174 0.40602 0.52673 0.0
C177 C 0.64215 0.1999 0.51945 0.0
C178 C 0.73468 0.27693 0.5106 0.0
H179 H 0.82528 0.32975 0.52022 0.0
C180 C 0.72835 0.30152 0.49929 0.0
C181 C 0.76976 0.2879 0.51901 0.0
C182 C 0.7778 0.26383 0.53245 0.0
C183 C 0.7565 0.33586 0.4952 0.0
C184 C 0.792 0.34556 0.50228 0.0
C185 C 0.79808 0.32201 0.51458 0.0
C186 C 0.82334 0.37857 0.49573 0.0
C187 C 0.74805 0.3612 0.48302 0.0
C188 C 0.83045 0.3807 0.47463 0.0
C189 C 0.86 0.4114 0.46816 0.0
C190 C 0.88325 0.4406 0.48267 0.0
C191 C 0.87635 0.43826 0.50387 0.0
C192 C 0.84666 0.40736 0.51035 0.0
H193 H 0.71953 0.35556 0.48435 0.0
H194 H 0.76576 0.39099 0.48835 0.0
H195 H 0.75246 0.35627 0.46638 0.0
H196 H 0.81322 0.35839 0.46314 0.0
H197 H 0.8646 0.41214 0.45173 0.0
H198 H 0.62523 0.66251 0.80709 0.0
H199 H 0.61968 0.71997 0.80665 0.0
H200 H 0.53408 0.67996 0.84937 0.0
H201 H 0.54112 0.62336 0.85078 0.0
H202 H 0.56502 0.73087 0.79425 0.0
H203 H 0.59739 0.78164 0.87775 0.0
H204 H 0.60398 0.74323 0.86597 0.0
H205 H 0.55983 0.73608 0.87316 0.0
C206 C 0.60539 0.66609 0.81649 0.0
C207 C 0.58338 0.63837 0.82885 0.0
C208 C 0.60216 0.69889 0.81619 0.0
C209 C 0.57679 0.70459 0.82818 0.0
C210 C 0.5544 0.67663 0.84033 0.0
H211 H 0.51284 0.88223 0.82782 0.0
H212 H 0.51403 0.82301 0.83141 0.0
C213 C 0.55798 0.64399 0.84086 0.0
C214 C 0.57354 0.73953 0.8275 0.0
H215 H 0.57781 0.81559 0.85745 0.0
C216 C 0.56786 0.74935 0.80809 0.0
C217 C 0.57733 0.76377 0.84557 0.0
C218 C 0.58531 0.7559 0.86677 0.0
C219 C 0.56594 0.78267 0.80625 0.0
C220 C 0.56963 0.80669 0.82426 0.0
C221 C 0.57483 0.79685 0.8437 0.0
C222 C 0.56935 0.8428 0.823 0.0
C223 C 0.56019 0.79228 0.78508 0.0
C224 C 0.60023 0.87344 0.81733 0.0
C225 C 0.59975 0.9073 0.81536 0.0
C226 C 0.56827 0.91101 0.81895 0.0
C227 C 0.53749 0.88028 0.82492 0.0
C228 C 0.53809 0.84647 0.827 0.0
H229 H 0.55415 0.76894 0.77282 0.0
H230 H 0.5377 0.79977 0.78513 0.0
H231 H 0.58482 0.81695 0.78113 0.0
H232 H 0.6246 0.87101 0.81422 0.0
H233 H 0.62389 0.93037 0.81073 0.0
H234 H 0.97035 0.56298 0.13387 0.0
H235 H 0.90991 0.55888 0.13136 0.0
H236 H 0.87413 0.47909 0.1766 0.0
H237 H 0.93444 0.48362 0.17945 0.0
H238 H 0.84198 0.49594 0.12084 0.0
H239 H 0.84803 0.56095 0.20087 0.0
H240 H 0.88755 0.56369 0.18821 0.0
H241 H 0.85771 0.5219 0.19926 0.0
C242 C 0.94952 0.54455 0.14323 0.0
C243 C 0.95703 0.5236 0.15683 0.0
C244 C 0.91506 0.54218 0.14177 0.0
C245 C 0.88768 0.51908 0.15402 0.0
C246 C 0.89499 0.49756 0.16727 0.0
H247 H 0.65712 0.44564 0.14064 0.0
H248 H 0.71738 0.44972 0.14241 0.0
C249 C 0.92938 0.49991 0.16873 0.0
C250 C 0.85151 0.51757 0.15303 0.0
H251 H 0.79149 0.53446 0.18228 0.0
C252 C 0.83094 0.50444 0.13424 0.0
C253 C 0.83735 0.52909 0.17049 0.0
C254 C 0.85887 0.54503 0.19082 0.0
C255 C 0.7963 0.50186 0.13254 0.0
C256 C 0.78171 0.51233 0.15017 0.0
C257 C 0.80256 0.52611 0.16885 0.0
C258 C 0.74505 0.50968 0.14947 0.0
C259 C 0.7758 0.48849 0.11181 0.0
C260 C 0.74048 0.54189 0.15343 0.0
C261 C 0.70606 0.53965 0.15253 0.0
C262 C 0.67546 0.50506 0.14779 0.0
C263 C 0.68009 0.47273 0.14424 0.0
C264 C 0.71454 0.47503 0.14511 0.0
H265 H 0.79387 0.49043 0.0989 0.0
H266 H 0.75556 0.45885 0.11181 0.0
H267 H 0.76134 0.5049 0.10882 0.0
H268 H 0.76364 0.56888 0.15695 0.0
H269 H 0.70348 0.56508 0.15539 0.0
H270 H 0.34492 0.93465 0.49638 0.0
H271 H 0.28964 0.87579 0.49685 0.0
H272 H 0.35105 0.81466 0.48719 0.0
H273 H 0.40645 0.87343 0.48683 0.0
H274 H 0.25938 0.81328 0.46587 0.0
H275 H 0.29551 0.77657 0.53995 0.0
H276 H 0.31825 0.82302 0.53192 0.0
H277 H 0.32877 0.78712 0.52068 0.0
C278 C 0.34655 0.90863 0.49426 0.0
C279 C 0.37985 0.90847 0.49163 0.0
C280 C 0.31503 0.8751 0.49455 0.0
C281 C 0.31641 0.841 0.49239 0.0
C282 C 0.34956 0.84076 0.48926 0.0
H283 H 0.1605 0.60934 0.491 0.0
H284 H 0.21474 0.66917 0.49213 0.0
C285 C 0.38108 0.87427 0.4889 0.0
C286 C 0.28311 0.80565 0.49335 0.0
H287 H 0.24282 0.73079 0.5213 0.0
C288 C 0.25561 0.79528 0.47802 0.0
C289 C 0.27842 0.78233 0.50925 0.0
C290 C 0.30663 0.79284 0.52651 0.0
C291 C 0.22377 0.76167 0.47787 0.0
C292 C 0.21904 0.7383 0.49377 0.0
C293 C 0.2465 0.7488 0.50916 0.0
C294 C 0.18614 0.70236 0.49438 0.0
C295 C 0.19595 0.75102 0.46035 0.0
C296 C 0.15216 0.70126 0.4959 0.0
C297 C 0.12107 0.66709 0.49518 0.0
C298 C 0.12348 0.63343 0.49315 0.0
C299 C 0.15769 0.63474 0.49254 0.0
C300 C 0.18873 0.6689 0.49316 0.0
H301 H 0.20754 0.76687 0.44683 0.0
H302 H 0.18407 0.72075 0.45516 0.0
H303 H 0.17396 0.75733 0.46579 0.0
H304 H 0.14964 0.72682 0.49737 0.0
H305 H 0.09514 0.66706 0.49584 0.0
H306 H 0.56766 0.45058 0.80999 0.0
H307 H 0.57634 0.39502 0.81214 0.0
H308 H 0.50316 0.36306 0.86193 0.0
H309 H 0.49461 0.41872 0.85994 0.0
H310 H 0.60017 0.37049 0.84689 0.0
H311 H 0.46046 0.27173 0.81781 0.0
H312 H 0.48023 0.32103 0.81514 0.0
H313 H 0.46433 0.30415 0.83969 0.0
C314 C 0.55384 0.43196 0.82157 0.0
C315 C 0.53059 0.43893 0.83485 0.0
C316 C 0.5587 0.40021 0.82273 0.0
C317 C 0.54012 0.37479 0.83705 0.0
C318 C 0.51734 0.38207 0.85058 0.0
H319 H 0.51993 0.15245 0.84735 0.0
H320 H 0.51807 0.21181 0.85542 0.0
C321 C 0.51252 0.41383 0.84943 0.0
C322 C 0.54392 0.34023 0.83745 0.0
H323 H 0.49769 0.2456 0.82733 0.0
C324 C 0.57777 0.34314 0.8427 0.0
C325 C 0.51458 0.30464 0.83207 0.0
C326 C 0.47787 0.29998 0.82569 0.0
C327 C 0.58312 0.31129 0.84263 0.0
C328 C 0.55398 0.27574 0.83674 0.0
C329 C 0.51996 0.27285 0.83193 0.0
C330 C 0.55852 0.24136 0.83397 0.0
C331 C 0.61986 0.31604 0.84895 0.0
C332 C 0.58219 0.2384 0.81944 0.0
C333 C 0.58338 0.20462 0.81484 0.0
C334 C 0.56064 0.17296 0.82453 0.0
C335 C 0.53783 0.1763 0.83963 0.0
C336 C 0.53669 0.21018 0.84424 0.0
H337 H 0.6352 0.34224 0.85926 0.0
H338 H 0.61785 0.2922 0.85705 0.0
H339 H 0.63541 0.31756 0.83488 0.0
H340 H 0.59869 0.26177 0.81097 0.0
H341 H 0.60121 0.20304 0.8031 0.0
H342 H 0.49295 0.941 0.51709 0.0
H343 H 0.48538 0.87744 0.51725 0.0
H344 H 0.57135 0.90169 0.47512 0.0
H345 H 0.57897 0.96544 0.47483 0.0
H346 H 0.47166 0.81937 0.48416 0.0
H347 H 0.604 0.86884 0.5265 0.0
H348 H 0.58246 0.89833 0.52456 0.0
H349 H 0.6048 0.88904 0.50281 0.0
C350 C 0.50988 0.93262 0.50762 0.0
C351 C 0.53656 0.95807 0.49594 0.0
C352 C 0.50555 0.89634 0.50775 0.0
C353 C 0.52803 0.88503 0.49636 0.0
C354 C 0.55403 0.91007 0.48421 0.0
H355 H 0.50309 0.65564 0.488 0.0
H356 H 0.50893 0.71524 0.47812 0.0
C357 C 0.55833 0.94638 0.48404 0.0
C358 C 0.52536 0.84767 0.49816 0.0
H359 H 0.56984 0.80413 0.51824 0.0
C360 C 0.49321 0.81592 0.49141 0.0
C361 C 0.55346 0.84343 0.50781 0.0
C362 C 0.58807 0.87663 0.51601 0.0
C363 C 0.48824 0.77995 0.49435 0.0
C364 C 0.51623 0.7758 0.50418 0.0
C365 C 0.54857 0.8075 0.51057 0.0
C366 C 0.51149 0.7392 0.50967 0.0
C367 C 0.45268 0.74675 0.48768 0.0
C368 C 0.51126 0.73316 0.53062 0.0
C369 C 0.50798 0.6994 0.53629 0.0
C370 C 0.50511 0.67096 0.52111 0.0
C371 C 0.50519 0.67697 0.50006 0.0
C372 C 0.50837 0.71089 0.49439 0.0
H373 H 0.43205 0.75513 0.48302 0.0
H374 H 0.45655 0.73006 0.47427 0.0
H375 H 0.44239 0.72854 0.50042 0.0
H376 H 0.51368 0.75471 0.54264 0.0
H377 H 0.50802 0.69579 0.55264 0.0
H378 H 0.71786 0.5847 0.85391 0.0
H379 H 0.77412 0.57961 0.85485 0.0
H380 H 0.72483 0.47817 0.81347 0.0
H381 H 0.66832 0.48293 0.81256 0.0
H382 H 0.77745 0.51005 0.86661 0.0
H383 H 0.82463 0.55134 0.7882 0.0
H384 H 0.79447 0.5658 0.80162 0.0
H385 H 0.77811 0.51851 0.7905 0.0
C386 C 0.7191 0.5614 0.84498 0.0
C387 C 0.68893 0.53419 0.83317 0.0
C388 C 0.75115 0.55858 0.84549 0.0
C389 C 0.75351 0.52877 0.83404 0.0
C390 C 0.72347 0.5016 0.82217 0.0
H391 H 0.93003 0.47038 0.82474 0.0
H392 H 0.87491 0.47575 0.81786 0.0
C393 C 0.6913 0.50426 0.82176 0.0
C394 C 0.78695 0.52518 0.83542 0.0
H395 H 0.86072 0.53493 0.80883 0.0
C396 C 0.7957 0.51543 0.85401 0.0
C397 C 0.81023 0.53186 0.8188 0.0
C398 C 0.8017 0.54264 0.79862 0.0
C399 C 0.82745 0.51231 0.85651 0.0
C400 C 0.85146 0.52019 0.84014 0.0
C401 C 0.84233 0.52921 0.82136 0.0
C402 C 0.88642 0.5198 0.84258 0.0
C403 C 0.83479 0.50018 0.87657 0.0
C404 C 0.91163 0.54385 0.85817 0.0
C405 C 0.94279 0.54065 0.86224 0.0
C406 C 0.94953 0.5137 0.85057 0.0
C407 C 0.92543 0.4913 0.83403 0.0
C408 C 0.89398 0.4943 0.83009 0.0
H409 H 0.80968 0.48521 0.88483 0.0
H410 H 0.8478 0.4817 0.87379 0.0
H411 H 0.8532 0.52515 0.88691 0.0
H412 H 0.90664 0.56436 0.86762 0.0
H413 H 0.96116 0.55869 0.87488 0.0
H414 H 0.1338 0.66515 0.19256 0.0
H415 H 0.18943 0.72403 0.19353 0.0
H416 H 0.24001 0.6685 0.1566 0.0
H417 H 0.1844 0.60959 0.1555 0.0
H418 H 0.2598 0.7396 0.20841 0.0
H419 H 0.25535 0.75839 0.12474 0.0
H420 H 0.21654 0.72659 0.13749 0.0
H421 H 0.25141 0.71406 0.13033 0.0
C422 C 0.15682 0.66555 0.18469 0.0
C423 C 0.15487 0.63298 0.17389 0.0
C424 C 0.18851 0.69913 0.18523 0.0
C425 C 0.21857 0.70067 0.17486 0.0
C426 C 0.21685 0.668 0.16437 0.0
H427 H 0.43408 0.88064 0.16366 0.0
H428 H 0.37889 0.82115 0.15994 0.0
C429 C 0.18521 0.63438 0.16387 0.0
C430 C 0.2519 0.73641 0.17535 0.0
H431 H 0.30743 0.80176 0.14479 0.0
C432 C 0.2702 0.75327 0.19453 0.0
C433 C 0.2654 0.75398 0.15716 0.0
C434 C 0.24609 0.73758 0.13625 0.0
C435 C 0.30189 0.78718 0.19601 0.0
C436 C 0.31517 0.80501 0.17787 0.0
C437 C 0.29709 0.788 0.15865 0.0
C438 C 0.3476 0.84161 0.1787 0.0
C439 C 0.3212 0.80335 0.21695 0.0
C440 C 0.34781 0.87302 0.18988 0.0
C441 C 0.37918 0.90694 0.19203 0.0
C442 C 0.41091 0.91015 0.18295 0.0
C443 C 0.41013 0.87906 0.17091 0.0
C444 C 0.37867 0.84506 0.16878 0.0
H445 H 0.31293 0.78198 0.22812 0.0
H446 H 0.35084 0.81571 0.21564 0.0
H447 H 0.31461 0.82575 0.22339 0.0
H448 H 0.32386 0.87109 0.19728 0.0
H449 H 0.37873 0.93039 0.20126 0.0
H450 H 0.53862 0.13349 0.48478 0.0
H451 H 0.5476 0.19763 0.48478 0.0
H452 H 0.45567 0.17207 0.52234 0.0
H453 H 0.44688 0.10793 0.52274 0.0
H454 H 0.45927 0.20865 0.48312 0.0
H455 H 0.58179 0.28098 0.53603 0.0
H456 H 0.58129 0.24744 0.51564 0.0
H457 H 0.55104 0.23203 0.53629 0.0
C458 C 0.52065 0.14169 0.49331 0.0
C459 C 0.49225 0.11589 0.50394 0.0
C460 C 0.52579 0.17827 0.49325 0.0
C461 C 0.50245 0.18953 0.50369 0.0
C462 C 0.47402 0.16384 0.51428 0.0
H463 H 0.46877 0.38551 0.51585 0.0
H464 H 0.46292 0.32251 0.51343 0.0
C465 C 0.46906 0.12731 0.5145 0.0
C466 C 0.50694 0.22778 0.50296 0.0
H467 H 0.56065 0.31865 0.52097 0.0
C468 C 0.48139 0.23278 0.49139 0.0
C469 C 0.53612 0.25906 0.51351 0.0
C470 C 0.56414 0.25488 0.52619 0.0
C471 C 0.48425 0.26842 0.49006 0.0
C472 C 0.51284 0.29974 0.50117 0.0
C473 C 0.53869 0.29467 0.51251 0.0
C474 C 0.51591 0.33784 0.50176 0.0
C475 C 0.45701 0.27214 0.47643 0.0
C476 C 0.54794 0.3677 0.49646 0.0
C477 C 0.55159 0.40395 0.49816 0.0
C478 C 0.5232 0.411 0.50515 0.0
C479 C 0.49099 0.38098 0.51017 0.0
C480 C 0.48752 0.34485 0.50868 0.0
H481 H 0.44498 0.24856 0.46402 0.0
H482 H 0.43484 0.27179 0.48598 0.0
H483 H 0.4693 0.29863 0.46908 0.0
H484 H 0.57028 0.36301 0.49118 0.0
H485 H 0.57679 0.42649 0.49423 0.0
H486 H 0.4421 0.59332 0.84403 0.0
H487 H 0.38475 0.59601 0.84168 0.0
H488 H 0.33729 0.48981 0.80439 0.0
H489 H 0.39438 0.48671 0.80694 0.0
H490 H 0.34153 0.59199 0.80603 0.0
H491 H 0.27183 0.47415 0.85403 0.0
H492 H 0.3202 0.4981 0.85282 0.0
H493 H 0.29321 0.46464 0.83185 0.0
C494 C 0.41942 0.57062 0.83531 0.0
C495 C 0.42238 0.53963 0.82584 0.0
C496 C 0.38681 0.57226 0.83391 0.0
C497 C 0.35681 0.5429 0.82307 0.0
C498 C 0.36006 0.51244 0.81308 0.0
H499 H 0.13252 0.49819 0.82132 0.0
H500 H 0.18856 0.49678 0.81183 0.0
C501 C 0.39261 0.51075 0.81452 0.0
C502 C 0.32177 0.54358 0.82291 0.0
H503 H 0.23719 0.50034 0.84072 0.0
C504 C 0.31859 0.57189 0.81352 0.0
C505 C 0.29202 0.51722 0.83265 0.0
C506 C 0.29437 0.48695 0.84357 0.0
C507 C 0.28628 0.57463 0.81368 0.0
C508 C 0.25678 0.54875 0.82383 0.0
C509 C 0.25982 0.52002 0.83284 0.0
C510 C 0.22319 0.55208 0.82661 0.0
C511 C 0.28401 0.60505 0.80293 0.0
C512 C 0.22414 0.58392 0.83773 0.0
C513 C 0.19219 0.58488 0.84309 0.0
C514 C 0.15876 0.5538 0.83765 0.0
C515 C 0.15786 0.52253 0.82579 0.0
C516 C 0.18983 0.52168 0.82034 0.0
H517 H 0.30377 0.6144 0.79059 0.0
H518 H 0.25659 0.59565 0.79592 0.0
H519 H 0.29029 0.62947 0.81442 0.0
H520 H 0.24959 0.60734 0.84314 0.0
H521 H 0.19378 0.60932 0.85231 0.0
H522 H 0.8692 0.3931 0.15261 0.0
H523 H 0.80871 0.34151 0.1542 0.0
H524 H 0.8539 0.27713 0.18079 0.0
H525 H 0.91446 0.32919 0.17977 0.0
H526 H 0.779 0.27063 0.13607 0.0
H527 H 0.7788 0.27033 0.22162 0.0
H528 H 0.81273 0.30768 0.20888 0.0
H529 H 0.81562 0.26496 0.2104 0.0
C530 C 0.86619 0.36795 0.15884 0.0
C531 C 0.89638 0.3651 0.16618 0.0
C532 C 0.83165 0.33851 0.15972 0.0
C533 C 0.8267 0.30568 0.16793 0.0
C534 C 0.85698 0.30253 0.17487 0.0
H535 H 0.63797 0.09527 0.18028 0.0
H536 H 0.69905 0.14452 0.17658 0.0
C537 C 0.89155 0.33214 0.17416 0.0
C538 C 0.78986 0.27471 0.16895 0.0
H539 H 0.72983 0.22 0.20228 0.0
C540 C 0.76822 0.25966 0.15056 0.0
C541 C 0.77574 0.26053 0.18789 0.0
C542 C 0.79677 0.27692 0.20835 0.0
C543 C 0.73305 0.23052 0.15057 0.0
C544 C 0.71922 0.21616 0.16945 0.0
C545 C 0.74076 0.23104 0.18782 0.0
C546 C 0.68217 0.18602 0.17054 0.0
C547 C 0.71093 0.21493 0.13043 0.0
C548 C 0.65258 0.1932 0.16834 0.0
C549 C 0.61767 0.16524 0.17058 0.0
C550 C 0.6118 0.12958 0.17498 0.0
C551 C 0.64155 0.12237 0.17681 0.0
C552 C 0.67645 0.15045 0.17474 0.0
H553 H 0.7274 0.225 0.11677 0.0
H554 H 0.69796 0.18397 0.12891 0.0
H555 H 0.68923 0.22354 0.13033 0.0
H556 H 0.65658 0.22065 0.16528 0.0
H557 H 0.59534 0.17169 0.16911 0.0
H558 H 0.07893 0.54141 0.10133 0.0
H559 H 0.0829 0.53711 0.06377 0.0
H560 H 0.99168 0.42766 0.05841 0.0
H561 H 0.98679 0.43223 0.0961 0.0
H562 H 0.09507 0.48873 0.03791 0.0
H563 H 0.96146 0.47888 0.01773 0.0
H564 H 0.98075 0.49124 0.04389 0.0
H565 H 0.95944 0.44328 0.03305 0.0
C566 C 0.05956 0.51645 0.09219 0.0
C567 C 0.03237 0.48723 0.10168 0.0
C568 C 0.06193 0.51402 0.07071 0.0
C569 C 0.03732 0.48229 0.05826 0.0
C570 C 0.01043 0.45279 0.06768 0.0
H571 H 0.02621 0.43428 0.92342 0.0
H572 H 0.02313 0.42692 0.96058 0.0
C573 C 0.00775 0.45538 0.08921 0.0
C574 C 0.04034 0.48033 0.03545 0.0
H575 H 0.99559 0.4731 0.98983 0.0
C576 C 0.07327 0.48519 0.0274 0.0
C577 C 0.01186 0.47579 0.02177 0.0
C578 C 0.9765 0.47235 0.02951 0.0
C579 C 0.0786 0.48607 0.00606 0.0
C580 C 0.05028 0.48183 0.9925 0.0
C581 C 0.01711 0.47608 0.0004 0.0
C582 C 0.0552 0.48569 0.97018 0.0
C583 C 0.11451 0.49189 0.99807 0.0
C584 C 0.07457 0.52115 0.96344 0.0
C585 C 0.07615 0.52554 0.9423 0.0
C586 C 0.05849 0.49445 0.92755 0.0
C587 C 0.04023 0.45875 0.93438 0.0
C588 C 0.03835 0.45446 0.95557 0.0
H589 H 0.13171 0.48884 0.01008 0.0
H590 H 0.11062 0.47169 0.98435 0.0
H591 H 0.12893 0.52036 0.99308 0.0
H592 H 0.08751 0.54557 0.97458 0.0
H593 H 0.09047 0.55339 0.93753 0.0
H594 H 0.46135 0.99132 0.42851 0.0
H595 H 0.46244 0.99275 0.39085 0.0
H596 H 0.57206 0.07995 0.39706 0.0
H597 H 0.571 0.07938 0.43463 0.0
H598 H 0.53101 0.09525 0.37094 0.0
H599 H 0.51249 0.95134 0.35054 0.0
H600 H 0.4777 0.95366 0.36591 0.0
H601 H 0.52308 0.97375 0.37672 0.0
C602 C 0.48575 0.01066 0.42186 0.0
C603 C 0.51611 0.03518 0.43459 0.0
C604 C 0.48637 0.01132 0.40032 0.0
C605 C 0.51751 0.03611 0.39114 0.0
C606 C 0.54778 0.06058 0.40382 0.0
H607 H 0.56664 0.02295 0.26208 0.0
H608 H 0.56609 0.02552 0.29986 0.0
C609 C 0.54711 0.06015 0.42531 0.0
C610 C 0.51858 0.03721 0.36836 0.0
H611 H 0.51037 0.98446 0.32266 0.0
C612 C 0.52656 0.07106 0.36036 0.0
C613 C 0.51321 0.00572 0.35464 0.0
C614 C 0.50648 0.96915 0.36235 0.0
C615 C 0.52919 0.07427 0.33898 0.0
C616 C 0.52288 0.04253 0.32523 0.0
C617 C 0.51501 0.00872 0.33324 0.0
C618 C 0.52478 0.04372 0.30246 0.0
C619 C 0.53956 0.11183 0.33141 0.0
C620 C 0.50196 0.05342 0.2914 0.0
C621 C 0.50247 0.05236 0.26979 0.0
C622 C 0.52544 0.041 0.25885 0.0
C623 C 0.54861 0.03179 0.27002 0.0
C624 C 0.54828 0.03316 0.29161 0.0
H625 H 0.55323 0.1349 0.34394 0.0
H626 H 0.55765 0.11662 0.31826 0.0
H627 H 0.51489 0.11296 0.32601 0.0
H628 H 0.48305 0.06086 0.2994 0.0
H629 H 0.48406 0.0593 0.26164 0.0
H630 H 0.51017 0.55419 0.76548 0.0
H631 H 0.50776 0.55485 0.72789 0.0
H632 H 0.59707 0.52907 0.72309 0.0
H633 H 0.59963 0.52803 0.7607 0.0
H634 H 0.56382 0.60019 0.70256 0.0
H635 H 0.51833 0.44863 0.68205 0.0
H636 H 0.51516 0.46779 0.70778 0.0
H637 H 0.55773 0.47234 0.69921 0.0
C638 C 0.52929 0.54855 0.75648 0.0
C639 C 0.55498 0.54085 0.76612 0.0
C640 C 0.52788 0.54901 0.73499 0.0
C641 C 0.55192 0.54153 0.72275 0.0
C642 C 0.57789 0.53429 0.73228 0.0
H643 H 0.57508 0.52662 0.58926 0.0
H644 H 0.58246 0.52764 0.6268 0.0
C645 C 0.5794 0.53391 0.75379 0.0
C646 C 0.55001 0.54182 0.7 0.0
H647 H 0.53165 0.4862 0.65431 0.0
C648 C 0.55678 0.5753 0.69198 0.0
C649 C 0.54094 0.50929 0.68631 0.0
C650 C 0.53232 0.47235 0.6942 0.0
C651 C 0.55493 0.5772 0.67055 0.0
C652 C 0.54535 0.54455 0.65686 0.0
C653 C 0.53898 0.51116 0.66487 0.0
C654 C 0.54103 0.54427 0.63417 0.0
C655 C 0.56372 0.61425 0.66275 0.0
C656 C 0.51494 0.55277 0.62592 0.0
C657 C 0.51068 0.55229 0.60451 0.0
C658 C 0.53227 0.543 0.59094 0.0
C659 C 0.55808 0.53401 0.59927 0.0
C660 C 0.56234 0.53455 0.6207 0.0
H661 H 0.57997 0.63794 0.6745 0.0
H662 H 0.57873 0.61783 0.6483 0.0
H663 H 0.5383 0.61551 0.65927 0.0
H664 H 0.49768 0.55954 0.63604 0.0
H665 H 0.49038 0.55913 0.59863 0.0
H666 H 0.45883 0.99259 0.56651 0.0
H667 H 0.46079 0.98918 0.60386 0.0
H668 H 0.57105 0.07498 0.60854 0.0
H669 H 0.56918 0.07921 0.57124 0.0
H670 H 0.50423 0.9709 0.62673 0.0
H671 H 0.52552 0.11382 0.65339 0.0
H672 H 0.51206 0.09353 0.62693 0.0
H673 H 0.55843 0.11283 0.6359 0.0
C674 C 0.48345 0.011 0.57547 0.0
C675 C 0.51382 0.0363 0.56587 0.0
C676 C 0.48452 0.00893 0.59683 0.0
C677 C 0.51591 0.03212 0.60901 0.0
C678 C 0.54629 0.05739 0.5995 0.0
H679 H 0.56904 0.00086 0.73316 0.0
H680 H 0.56371 0.0014 0.69563 0.0
C681 C 0.5452 0.05966 0.57814 0.0
C682 C 0.51709 0.02902 0.63157 0.0
H683 H 0.53206 0.07869 0.67905 0.0
C684 C 0.51017 0.99441 0.6382 0.0
C685 C 0.52444 0.05962 0.64648 0.0
C686 C 0.5302 0.09696 0.64037 0.0
C687 C 0.51083 0.98968 0.65935 0.0
C688 C 0.5193 0.0206 0.67423 0.0
C689 C 0.52583 0.05509 0.6676 0.0
C690 C 0.52112 0.01787 0.6968 0.0
C691 C 0.50178 0.95151 0.66557 0.0
C692 C 0.49917 0.02723 0.70992 0.0
C693 C 0.50236 0.02729 0.73136 0.0
C694 C 0.52767 0.01804 0.74013 0.0
C695 C 0.54912 0.00788 0.72691 0.0
C696 C 0.546 0.00801 0.70544 0.0
H697 H 0.48655 0.92922 0.65291 0.0
H698 H 0.5271 0.95013 0.66915 0.0
H699 H 0.48564 0.94576 0.67961 0.0
H700 H 0.47982 0.03497 0.70357 0.0
H701 H 0.48539 0.03522 0.74107 0.0
H702 H 0.6046 0.52664 0.89773 0.0
H703 H 0.60316 0.52011 0.93492 0.0
H704 H 0.50535 0.53122 0.9379 0.0
H705 H 0.50632 0.53756 0.90078 0.0
H706 H 0.60218 0.57102 0.96841 0.0
H707 H 0.48072 0.43341 0.96409 0.0
H708 H 0.50608 0.45167 0.94169 0.0
H709 H 0.47505 0.46813 0.95136 0.0
C710 C 0.58274 0.52768 0.90627 0.0
C711 C 0.55548 0.53249 0.89622 0.0
C712 C 0.58201 0.52396 0.92752 0.0
C713 C 0.55389 0.52465 0.93904 0.0
C714 C 0.52695 0.52996 0.92917 0.0
H715 H 0.49093 0.51144 0.06525 0.0
H716 H 0.49719 0.51621 0.02808 0.0
C717 C 0.52768 0.53379 0.90796 0.0
C718 C 0.55289 0.52037 0.96149 0.0
H719 H 0.5018 0.4654 0.9977 0.0
C720 C 0.58043 0.5478 0.97485 0.0
C721 C 0.52449 0.48998 0.96975 0.0
C722 C 0.49504 0.4589 0.956 0.0
C723 C 0.57968 0.54634 0.99642 0.0
C724 C 0.55093 0.51626 0.00471 0.0
C725 C 0.52375 0.48848 0.99129 0.0
C726 C 0.5478 0.51366 0.02733 0.0
C727 C 0.60895 0.57762 0.01017 0.0
C728 C 0.57407 0.51031 0.03921 0.0
C729 C 0.57067 0.50768 0.06054 0.0
C730 C 0.54075 0.50809 0.07033 0.0
C731 C 0.51435 0.5111 0.05827 0.0
C732 C 0.51783 0.51379 0.037 0.0
H733 H 0.62412 0.60262 0.00182 0.0
H734 H 0.59754 0.58579 0.02402 0.0
H735 H 0.62828 0.5681 0.01558 0.0
H736 H 0.59706 0.50942 0.03195 0.0
H737 H 0.59139 0.50516 0.06931 0.0
H738 H 0.97197 0.46052 0.23337 0.0
H739 H 0.96994 0.46767 0.27109 0.0
H740 H 0.08011 0.55375 0.27527 0.0
H741 H 0.08207 0.54759 0.23752 0.0
H742 H 0.00819 0.45815 0.30103 0.0
H743 H 0.0315 0.60495 0.30902 0.0
H744 H 0.02147 0.57721 0.28428 0.0
H745 H 0.06645 0.59877 0.29585 0.0
C746 C 0.99579 0.48101 0.2423 0.0
C747 C 0.0271 0.50369 0.23243 0.0
C748 C 0.99456 0.48507 0.26386 0.0
C749 C 0.02463 0.51175 0.27597 0.0
C750 C 0.05625 0.53373 0.2662 0.0
H751 H 0.05412 0.51218 0.40884 0.0
H752 H 0.058 0.50714 0.37118 0.0
C753 C 0.05739 0.52999 0.24462 0.0
C754 C 0.02298 0.51603 0.29883 0.0
H755 H 0.03404 0.57932 0.34023 0.0
C756 C 0.01372 0.48461 0.30961 0.0
C757 C 0.02968 0.55046 0.30995 0.0
C758 C 0.03747 0.58467 0.29918 0.0
C759 C 0.01134 0.48672 0.33122 0.0
C760 C 0.01943 0.52148 0.34242 0.0
C761 C 0.02828 0.55281 0.33163 0.0
C762 C 0.01811 0.52576 0.36529 0.0
C763 C 0.99936 0.4515 0.34177 0.0
C764 C 0.99545 0.5393 0.37453 0.0
C765 C 0.99357 0.54278 0.39608 0.0
C766 C 0.01429 0.53266 0.40878 0.0
C767 C 0.03751 0.51982 0.39949 0.0
C768 C 0.03961 0.51669 0.37795 0.0
H769 H 0.98447 0.42618 0.33074 0.0
H770 H 0.02338 0.45022 0.34815 0.0
H771 H 0.98181 0.45089 0.35474 0.0
H772 H 0.97878 0.54668 0.36505 0.0
H773 H 0.97544 0.5528 0.40274 0.0
loop_
_geom_bond_atom_site_label_1
_geom_bond_atom_site_label_2
_geom_bond_distance
_geom_bond_site_symmetry_2
_ccdc_geom_bond_type
Tb0 O3 2.453 1_455 S
Tb0 O4 2.596 1_455 S
Tb0 O5 2.374 . S
Tb0 O13 2.343 . S
Tb0 O15 2.353 . S
Tb0 O17 2.427 . S
Tb0 O18 2.513 . S
C1 O5 1.251 . S
C1 O7 1.263 . S
Tb2 O4 2.343 1_455 S
Tb2 O7 2.353 . S
Tb2 O10 2.427 1_455 S
Tb2 O11 2.513 1_455 S
Tb2 O12 2.453 . S
Tb2 O13 2.596 . S
Tb2 O14 2.374 . S
O3 Tb0 2.453 1_655 S
O3 C19 1.245 . S
O4 Tb0 2.596 1_655 S
O4 Tb2 2.343 1_655 S
O4 C19 1.259 . S
O5 Tb0 2.374 . S
O5 C1 1.251 . S
C6 O10 1.275 . S
C6 O11 1.246 . S
O7 C1 1.263 . S
O7 Tb2 2.353 . S
C8 O12 1.245 . S
C8 O13 1.259 . S
C9 O14 1.250 . S
C9 O15 1.263 . S
O10 Tb2 2.427 1_655 S
O10 C6 1.275 . S
O11 Tb2 2.513 1_655 S
O11 C6 1.246 . S
O12 Tb2 2.453 . S
O12 C8 1.245 . S
O13 Tb0 2.343 . S
O13 Tb2 2.596 . S
O13 C8 1.259 . S
O14 Tb2 2.374 . S
O14 C9 1.250 . S
O15 Tb0 2.353 . S
O15 C9 1.263 . S
C16 O17 1.275 . S
C16 O18 1.246 . S
O17 Tb0 2.427 . S
O17 C16 1.275 . S
O18 Tb0 2.513 . S
O18 C16 1.246 . S
C19 O3 1.245 . S
C19 O4 1.259 . S
Tb20 O23 2.453 . S
Tb20 O24 2.596 . S
Tb20 O25 2.374 . S
Tb20 O33 2.343 1_545 S
Tb20 O35 2.353 . S
Tb20 O37 2.427 1_545 S
Tb20 O38 2.513 1_545 S
C21 O25 1.251 . S
C21 O27 1.263 . S
Tb22 O24 2.343 . S
Tb22 O27 2.353 . S
Tb22 O30 2.427 . S
Tb22 O31 2.513 . S
Tb22 O32 2.453 1_545 S
Tb22 O33 2.596 1_545 S
Tb22 O34 2.374 . S
O23 Tb20 2.453 . S
O23 C39 1.245 . S
O24 Tb20 2.596 . S
O24 Tb22 2.343 . S
O24 C39 1.259 . S
O25 Tb20 2.374 . S
O25 C21 1.251 . S
C26 O30 1.275 . S
C26 O31 1.246 . S
O27 C21 1.263 . S
O27 Tb22 2.353 . S
C28 O32 1.245 . S
C28 O33 1.259 . S
C29 O34 1.250 . S
C29 O35 1.263 . S
O30 Tb22 2.427 . S
O30 C26 1.275 . S
O31 Tb22 2.513 . S
O31 C26 1.246 . S
O32 Tb22 2.453 1_565 S
O32 C28 1.245 . S
O33 Tb20 2.343 1_565 S
O33 Tb22 2.596 1_565 S
O33 C28 1.259 . S
O34 Tb22 2.374 . S
O34 C29 1.250 . S
O35 Tb20 2.353 . S
O35 C29 1.263 . S
C36 O37 1.275 . S
C36 O38 1.246 . S
O37 Tb20 2.427 1_565 S
O37 C36 1.275 . S
O38 Tb20 2.513 1_565 S
O38 C36 1.246 . S
C39 O23 1.245 . S
C39 O24 1.259 . S
Tb40 O43 2.453 . S
Tb40 O44 2.596 . S
Tb40 O45 2.374 . S
Tb40 O53 2.343 . S
Tb40 O55 2.353 . S
Tb40 O57 2.427 . S
Tb40 O58 2.513 . S
C41 O45 1.251 . S
C41 O47 1.263 . S
Tb42 O44 2.343 . S
Tb42 O47 2.353 . S
Tb42 O50 2.427 . S
Tb42 O51 2.513 . S
Tb42 O52 2.453 . S
Tb42 O53 2.596 . S
Tb42 O54 2.374 . S
O43 Tb40 2.453 . S
O43 C59 1.245 . S
O44 Tb40 2.596 . S
O44 Tb42 2.343 . S
O44 C59 1.259 . S
O45 Tb40 2.374 . S
O45 C41 1.251 . S
C46 O50 1.275 . S
C46 O51 1.246 . S
O47 C41 1.263 . S
O47 Tb42 2.353 . S
C48 O52 1.245 . S
C48 O53 1.259 . S
C49 O54 1.250 . S
C49 O55 1.263 . S
O50 Tb42 2.427 . S
O50 C46 1.275 . S
O51 Tb42 2.513 . S
O51 C46 1.246 . S
O52 Tb42 2.453 . S
O52 C48 1.245 . S
O53 Tb40 2.343 . S
O53 Tb42 2.596 . S
O53 C48 1.259 . S
O54 Tb42 2.374 . S
O54 C49 1.250 . S
O55 Tb40 2.353 . S
O55 C49 1.263 . S
C56 O57 1.275 . S
C56 O58 1.246 . S
O57 Tb40 2.427 . S
O57 C56 1.275 . S
O58 Tb40 2.513 . S
O58 C56 1.246 . S
C59 O43 1.245 . S
C59 O44 1.259 . S
O60 Cd61 2.300 . S
O60 C67 1.275 . S
Cd61 O60 2.300 . S
Cd61 O69 2.381 . S
Cd61 O70 2.378 . S
O62 Cd63 2.385 1_545 S
O62 C67 1.255 . S
Cd63 O62 2.385 1_565 S
Cd63 O64 2.317 . S
O64 Cd63 2.317 . S
O64 C65 1.232 . S
C65 O64 1.232 . S
C65 O66 1.218 . S
O66 C65 1.218 . S
C67 O60 1.275 . S
C67 O62 1.255 . S
C68 O69 1.258 . S
C68 O70 1.256 . S
O69 Cd61 2.381 . S
O69 C68 1.258 . S
O70 Cd61 2.378 . S
O70 C68 1.256 . S
O71 Cd72 2.300 . S
O71 C78 1.275 . S
Cd72 O71 2.300 . S
Cd72 O80 2.381 . S
Cd72 O81 2.378 . S
O73 Cd74 2.385 . S
O73 C78 1.255 . S
Cd74 O73 2.385 . S
Cd74 O75 2.317 . S
O75 Cd74 2.317 . S
O75 C76 1.232 . S
C76 O75 1.232 . S
C76 O77 1.218 . S
O77 C76 1.218 . S
C78 O71 1.275 . S
C78 O73 1.255 . S
C79 O80 1.258 . S
C79 O81 1.256 . S
O80 Cd72 2.381 . S
O80 C79 1.258 . S
O81 Cd72 2.378 . S
O81 C79 1.256 . S
O82 Cd83 2.300 . S
O82 C89 1.275 . S
Cd83 O82 2.300 . S
Cd83 O91 2.381 . S
Cd83 O92 2.378 . S
O84 Cd85 2.385 1_455 S
O84 C89 1.255 . S
Cd85 O84 2.385 1_655 S
Cd85 O86 2.315 . S
O86 Cd85 2.315 . S
O86 C87 1.247 . S
C87 O86 1.247 . S
C87 O88 1.218 . S
O88 C87 1.218 . S
C89 O82 1.275 . S
C89 O84 1.255 . S
C90 O91 1.258 . S
C90 O92 1.256 . S
O91 Cd83 2.381 . S
O91 C90 1.258 . S
O92 Cd83 2.378 . S
O92 C90 1.256 . S
O93 Cd94 2.300 . S
O93 C100 1.275 1_455 S
Cd94 O93 2.300 . S
Cd94 O102 2.381 . S
Cd94 O103 2.378 . S
O95 Cd96 2.385 . S
O95 C100 1.255 . S
Cd96 O95 2.385 . S
Cd96 O97 2.317 . S
O97 Cd96 2.317 . S
O97 C98 1.232 . S
C98 O97 1.232 . S
C98 O99 1.218 . S
O99 C98 1.218 . S
C100 O93 1.275 1_655 S
C100 O95 1.255 . S
C101 O102 1.258 . S
C101 O103 1.256 . S
O102 Cd94 2.381 . S
O102 C101 1.258 . S
O103 Cd94 2.378 . S
O103 C101 1.256 . S
O104 Cd105 2.300 . S
O104 C111 1.275 1_565 S
Cd105 O104 2.300 . S
Cd105 O113 2.381 . S
Cd105 O114 2.378 . S
O106 Cd107 2.385 . S
O106 C111 1.255 . S
Cd107 O106 2.385 . S
Cd107 O108 2.317 . S
O108 Cd107 2.317 . S
O108 C109 1.232 . S
C109 O108 1.232 . S
C109 O110 1.218 . S
O110 C109 1.218 . S
C111 O104 1.275 1_545 S
C111 O106 1.255 . S
C112 O113 1.258 . S
C112 O114 1.256 . S
O113 Cd105 2.381 . S
O113 C112 1.258 . S
O114 Cd105 2.378 . S
O114 C112 1.256 . S
O115 Cd116 2.300 . S
O115 C122 1.275 . S
Cd116 O115 2.300 . S
Cd116 O124 2.381 . S
Cd116 O125 2.378 . S
O117 Cd118 2.385 . S
O117 C122 1.255 . S
Cd118 O117 2.385 . S
Cd118 O119 2.317 . S
O119 Cd118 2.317 . S
O119 C120 1.232 . S
C120 O119 1.232 . S
C120 O121 1.218 . S
O121 C120 1.218 . S
C122 O115 1.275 . S
C122 O117 1.255 . S
C123 O124 1.258 . S
C123 O125 1.256 . S
O124 Cd116 2.381 . S
O124 C123 1.258 . S
O125 Cd116 2.378 . S
O125 C123 1.256 . S
H126 C134 0.929 . S
H127 C136 0.930 . S
H128 C138 0.930 . S
H129 C141 0.929 . S
H130 C144 0.930 . S
H131 C146 0.960 . S
H132 C146 0.960 . S
H133 C146 0.960 . S
C134 H126 0.929 . S
C134 C135 1.377 . S
C134 C136 1.384 . S
C135 C134 1.377 . S
C135 C141 1.390 . S
C136 H127 0.930 . S
C136 C134 1.384 . S
C136 C137 1.372 . S
C137 C136 1.372 . S
C137 C138 1.400 . S
C137 C142 1.490 . S
C138 H128 0.930 . S
C138 C137 1.400 . S
C138 C141 1.386 . S
H139 C155 0.930 . S
H140 C156 0.931 . S
C141 H129 0.929 . S
C141 C135 1.390 . S
C141 C138 1.386 . S
C142 C137 1.490 . S
C142 C144 1.395 . S
C142 C145 1.403 . S
H143 C149 0.930 . S
C144 H130 0.930 . S
C144 C142 1.395 . S
C144 C147 1.403 . S
C145 C142 1.403 . S
C145 C146 1.524 . S
C145 C149 1.400 . S
C146 H131 0.960 . S
C146 H132 0.960 . S
C146 H133 0.960 . S
C146 C145 1.524 . S
C147 C144 1.403 . S
C147 C148 1.392 . S
C147 C151 1.495 . S
C148 C147 1.392 . S
C148 C149 1.385 . S
C148 C150 1.478 . S
C149 H143 0.930 . S
C149 C145 1.400 . S
C149 C148 1.385 . S
C150 C148 1.478 . S
C150 C152 1.381 . S
C150 C156 1.383 . S
C151 C147 1.495 . S
C151 H157 0.959 . S
C151 H158 0.961 . S
C151 H159 0.960 . S
C152 C150 1.381 . S
C152 C153 1.394 . S
C152 H160 0.930 . S
C153 C152 1.394 . S
C153 C154 1.383 . S
C153 H161 0.929 . S
C154 C153 1.383 . S
C154 C155 1.377 . S
C155 H139 0.930 . S
C155 C154 1.377 . S
C155 C156 1.379 . S
C156 H140 0.931 . S
C156 C150 1.383 . S
C156 C155 1.379 . S
H157 C151 0.959 . S
H158 C151 0.961 . S
H159 C151 0.960 . S
H160 C152 0.930 . S
H161 C153 0.929 . S
H162 C170 0.929 . S
H163 C172 0.930 . S
H164 C174 0.930 . S
H165 C177 0.929 . S
H166 C180 0.930 . S
H167 C182 0.960 . S
H168 C182 0.960 . S
H169 C182 0.960 . S
C170 H162 0.929 . S
C170 C171 1.377 . S
C170 C172 1.384 . S
C171 C170 1.377 . S
C171 C177 1.390 . S
C172 H163 0.930 . S
C172 C170 1.384 . S
C172 C173 1.372 . S
C173 C172 1.372 . S
C173 C174 1.400 . S
C173 C178 1.490 . S
C174 H164 0.930 . S
C174 C173 1.400 . S
C174 C177 1.386 . S
H175 C191 0.930 . S
H176 C192 0.931 . S
C177 H165 0.929 . S
C177 C171 1.390 . S
C177 C174 1.386 . S
C178 C173 1.490 . S
C178 C180 1.395 . S
C178 C181 1.403 . S
H179 C185 0.930 . S
C180 H166 0.930 . S
C180 C178 1.395 . S
C180 C183 1.403 . S
C181 C178 1.403 . S
C181 C182 1.524 . S
C181 C185 1.400 . S
C182 H167 0.960 . S
C182 H168 0.960 . S
C182 H169 0.960 . S
C182 C181 1.524 . S
C183 C180 1.403 . S
C183 C184 1.392 . S
C183 C187 1.495 . S
C184 C183 1.392 . S
C184 C185 1.385 . S
C184 C186 1.478 . S
C185 H179 0.930 . S
C185 C181 1.400 . S
C185 C184 1.385 . S
C186 C184 1.478 . S
C186 C188 1.381 . S
C186 C192 1.383 . S
C187 C183 1.495 . S
C187 H193 0.959 . S
C187 H194 0.961 . S
C187 H195 0.960 . S
C188 C186 1.381 . S
C188 C189 1.394 . S
C188 H196 0.930 . S
C189 C188 1.394 . S
C189 C190 1.383 . S
C189 H197 0.929 . S
C190 C189 1.383 . S
C190 C191 1.377 . S
C191 H175 0.930 . S
C191 C190 1.377 . S
C191 C192 1.379 . S
C192 H176 0.931 . S
C192 C186 1.383 . S
C192 C191 1.379 . S
H193 C187 0.959 . S
H194 C187 0.961 . S
H195 C187 0.960 . S
H196 C188 0.930 . S
H197 C189 0.929 . S
H198 C206 0.929 . S
H199 C208 0.930 . S
H200 C210 0.930 . S
H201 C213 0.929 . S
H202 C216 0.930 . S
H203 C218 0.960 . S
H204 C218 0.960 . S
H205 C218 0.960 . S
C206 H198 0.929 . S
C206 C207 1.377 . S
C206 C208 1.384 . S
C207 C206 1.377 . S
C207 C213 1.390 . S
C208 H199 0.930 . S
C208 C206 1.384 . S
C208 C209 1.372 . S
C209 C208 1.372 . S
C209 C210 1.400 . S
C209 C214 1.490 . S
C210 H200 0.930 . S
C210 C209 1.400 . S
C210 C213 1.386 . S
H211 C227 0.930 . S
H212 C228 0.931 . S
C213 H201 0.929 . S
C213 C207 1.390 . S
C213 C210 1.386 . S
C214 C209 1.490 . S
C214 C216 1.395 . S
C214 C217 1.403 . S
H215 C221 0.930 . S
C216 H202 0.930 . S
C216 C214 1.395 . S
C216 C219 1.403 . S
C217 C214 1.403 . S
C217 C218 1.524 . S
C217 C221 1.400 . S
C218 H203 0.960 . S
C218 H204 0.960 . S
C218 H205 0.960 . S
C218 C217 1.524 . S
C219 C216 1.403 . S
C219 C220 1.392 . S
C219 C223 1.495 . S
C220 C219 1.392 . S
C220 C221 1.385 . S
C220 C222 1.478 . S
C221 H215 0.930 . S
C221 C217 1.400 . S
C221 C220 1.385 . S
C222 C220 1.478 . S
C222 C224 1.381 . S
C222 C228 1.383 . S
C223 C219 1.495 . S
C223 H229 0.959 . S
C223 H230 0.961 . S
C223 H231 0.960 . S
C224 C222 1.381 . S
C224 C225 1.394 . S
C224 H232 0.930 . S
C225 C224 1.394 . S
C225 C226 1.383 . S
C225 H233 0.929 . S
C226 C225 1.383 . S
C226 C227 1.377 . S
C227 H211 0.930 . S
C227 C226 1.377 . S
C227 C228 1.379 . S
C228 H212 0.931 . S
C228 C222 1.383 . S
C228 C227 1.379 . S
H229 C223 0.959 . S
H230 C223 0.961 . S
H231 C223 0.960 . S
H232 C224 0.930 . S
H233 C225 0.929 . S
H234 C242 0.929 . S
H235 C244 0.930 . S
H236 C246 0.930 . S
H237 C249 0.929 . S
H238 C252 0.930 . S
H239 C254 0.960 . S
H240 C254 0.960 . S
H241 C254 0.960 . S
C242 H234 0.929 . S
C242 C243 1.377 . S
C242 C244 1.384 . S
C243 C242 1.377 . S
C243 C249 1.390 . S
C244 H235 0.930 . S
C244 C242 1.384 . S
C244 C245 1.372 . S
C245 C244 1.372 . S
C245 C246 1.400 . S
C245 C250 1.490 . S
C246 H236 0.930 . S
C246 C245 1.400 . S
C246 C249 1.386 . S
H247 C263 0.930 . S
H248 C264 0.931 . S
C249 H237 0.929 . S
C249 C243 1.390 . S
C249 C246 1.386 . S
C250 C245 1.490 . S
C250 C252 1.395 . S
C250 C253 1.403 . S
H251 C257 0.930 . S
C252 H238 0.930 . S
C252 C250 1.395 . S
C252 C255 1.403 . S
C253 C250 1.403 . S
C253 C254 1.524 . S
C253 C257 1.400 . S
C254 H239 0.960 . S
C254 H240 0.960 . S
C254 H241 0.960 . S
C254 C253 1.524 . S
C255 C252 1.403 . S
C255 C256 1.392 . S
C255 C259 1.495 . S
C256 C255 1.392 . S
C256 C257 1.385 . S
C256 C258 1.478 . S
C257 H251 0.930 . S
C257 C253 1.400 . S
C257 C256 1.385 . S
C258 C256 1.478 . S
C258 C260 1.381 . S
C258 C264 1.383 . S
C259 C255 1.495 . S
C259 H265 0.959 . S
C259 H266 0.961 . S
C259 H267 0.960 . S
C260 C258 1.381 . S
C260 C261 1.394 . S
C260 H268 0.930 . S
C261 C260 1.394 . S
C261 C262 1.383 . S
C261 H269 0.929 . S
C262 C261 1.383 . S
C262 C263 1.377 . S
C263 H247 0.930 . S
C263 C262 1.377 . S
C263 C264 1.379 . S
C264 H248 0.931 . S
C264 C258 1.383 . S
C264 C263 1.379 . S
H265 C259 0.959 . S
H266 C259 0.961 . S
H267 C259 0.960 . S
H268 C260 0.930 . S
H269 C261 0.929 . S
H270 C278 0.929 . S
H271 C280 0.930 . S
H272 C282 0.930 . S
H273 C285 0.929 . S
H274 C288 0.930 . S
H275 C290 0.960 . S
H276 C290 0.960 . S
H277 C290 0.960 . S
C278 H270 0.929 . S
C278 C279 1.377 . S
C278 C280 1.384 . S
C279 C278 1.377 . S
C279 C285 1.390 . S
C280 H271 0.930 . S
C280 C278 1.384 . S
C280 C281 1.372 . S
C281 C280 1.372 . S
C281 C282 1.400 . S
C281 C286 1.490 . S
C282 H272 0.930 . S
C282 C281 1.400 . S
C282 C285 1.386 . S
H283 C299 0.930 . S
H284 C300 0.931 . S
C285 H273 0.929 . S
C285 C279 1.390 . S
C285 C282 1.386 . S
C286 C281 1.490 . S
C286 C288 1.395 . S
C286 C289 1.403 . S
H287 C293 0.930 . S
C288 H274 0.930 . S
C288 C286 1.395 . S
C288 C291 1.403 . S
C289 C286 1.403 . S
C289 C290 1.524 . S
C289 C293 1.400 . S
C290 H275 0.960 . S
C290 H276 0.960 . S
C290 H277 0.960 . S
C290 C289 1.524 . S
C291 C288 1.403 . S
C291 C292 1.392 . S
C291 C295 1.495 . S
C292 C291 1.392 . S
C292 C293 1.385 . S
C292 C294 1.478 . S
C293 H287 0.930 . S
C293 C289 1.400 . S
C293 C292 1.385 . S
C294 C292 1.478 . S
C294 C296 1.381 . S
C294 C300 1.383 . S
C295 C291 1.495 . S
C295 H301 0.959 . S
C295 H302 0.961 . S
C295 H303 0.960 . S
C296 C294 1.381 . S
C296 C297 1.394 . S
C296 H304 0.930 . S
C297 C296 1.394 . S
C297 C298 1.383 . S
C297 H305 0.929 . S
C298 C297 1.383 . S
C298 C299 1.377 . S
C299 H283 0.930 . S
C299 C298 1.377 . S
C299 C300 1.379 . S
C300 H284 0.931 . S
C300 C294 1.383 . S
C300 C299 1.379 . S
H301 C295 0.959 . S
H302 C295 0.961 . S
H303 C295 0.960 . S
H304 C296 0.930 . S
H305 C297 0.929 . S
H306 C314 0.929 . S
H307 C316 0.930 . S
H308 C318 0.930 . S
H309 C321 0.929 . S
H310 C324 0.930 . S
H311 C326 0.960 . S
H312 C326 0.960 . S
H313 C326 0.960 . S
C314 H306 0.929 . S
C314 C315 1.377 . S
C314 C316 1.384 . S
C315 C314 1.377 . S
C315 C321 1.390 . S
C316 H307 0.930 . S
C316 C314 1.384 . S
C316 C317 1.372 . S
C317 C316 1.372 . S
C317 C318 1.400 . S
C317 C322 1.490 . S
C318 H308 0.930 . S
C318 C317 1.400 . S
C318 C321 1.386 . S
H319 C335 0.930 . S
H320 C336 0.931 . S
C321 H309 0.929 . S
C321 C315 1.390 . S
C321 C318 1.386 . S
C322 C317 1.490 . S
C322 C324 1.395 . S
C322 C325 1.403 . S
H323 C329 0.930 . S
C324 H310 0.930 . S
C324 C322 1.395 . S
C324 C327 1.403 . S
C325 C322 1.403 . S
C325 C326 1.524 . S
C325 C329 1.400 . S
C326 H311 0.960 . S
C326 H312 0.960 . S
C326 H313 0.960 . S
C326 C325 1.524 . S
C327 C324 1.403 . S
C327 C328 1.392 . S
C327 C331 1.495 . S
C328 C327 1.392 . S
C328 C329 1.385 . S
C328 C330 1.478 . S
C329 H323 0.930 . S
C329 C325 1.400 . S
C329 C328 1.385 . S
C330 C328 1.478 . S
C330 C332 1.381 . S
C330 C336 1.383 . S
C331 C327 1.495 . S
C331 H337 0.959 . S
C331 H338 0.961 . S
C331 H339 0.960 . S
C332 C330 1.381 . S
C332 C333 1.394 . S
C332 H340 0.930 . S
C333 C332 1.394 . S
C333 C334 1.383 . S
C333 H341 0.929 . S
C334 C333 1.383 . S
C334 C335 1.377 . S
C335 H319 0.930 . S
C335 C334 1.377 . S
C335 C336 1.379 . S
C336 H320 0.931 . S
C336 C330 1.383 . S
C336 C335 1.379 . S
H337 C331 0.959 . S
H338 C331 0.961 . S
H339 C331 0.960 . S
H340 C332 0.930 . S
H341 C333 0.929 . S
H342 C350 0.929 . S
H343 C352 0.930 . S
H344 C354 0.930 . S
H345 C357 0.929 . S
H346 C360 0.930 . S
H347 C362 0.960 . S
H348 C362 0.960 . S
H349 C362 0.960 . S
C350 H342 0.929 . S
C350 C351 1.377 . S
C350 C352 1.384 . S
C351 C350 1.377 . S
C351 C357 1.390 . S
C352 H343 0.930 . S
C352 C350 1.384 . S
C352 C353 1.372 . S
C353 C352 1.372 . S
C353 C354 1.400 . S
C353 C358 1.490 . S
C354 H344 0.930 . S
C354 C353 1.400 . S
C354 C357 1.386 . S
H355 C371 0.930 . S
H356 C372 0.931 . S
C357 H345 0.929 . S
C357 C351 1.390 . S
C357 C354 1.386 . S
C358 C353 1.490 . S
C358 C360 1.395 . S
C358 C361 1.403 . S
H359 C365 0.930 . S
C360 H346 0.930 . S
C360 C358 1.395 . S
C360 C363 1.403 . S
C361 C358 1.403 . S
C361 C362 1.524 . S
C361 C365 1.400 . S
C362 H347 0.960 . S
C362 H348 0.960 . S
C362 H349 0.960 . S
C362 C361 1.524 . S
C363 C360 1.403 . S
C363 C364 1.392 . S
C363 C367 1.495 . S
C364 C363 1.392 . S
C364 C365 1.385 . S
C364 C366 1.478 . S
C365 H359 0.930 . S
C365 C361 1.400 . S
C365 C364 1.385 . S
C366 C364 1.478 . S
C366 C368 1.381 . S
C366 C372 1.383 . S
C367 C363 1.495 . S
C367 H373 0.959 . S
C367 H374 0.961 . S
C367 H375 0.960 . S
C368 C366 1.381 . S
C368 C369 1.394 . S
C368 H376 0.930 . S
C369 C368 1.394 . S
C369 C370 1.383 . S
C369 H377 0.929 . S
C370 C369 1.383 . S
C370 C371 1.377 . S
C371 H355 0.930 . S
C371 C370 1.377 . S
C371 C372 1.379 . S
C372 H356 0.931 . S
C372 C366 1.383 . S
C372 C371 1.379 . S
H373 C367 0.959 . S
H374 C367 0.961 . S
H375 C367 0.960 . S
H376 C368 0.930 . S
H377 C369 0.929 . S
H378 C386 0.929 . S
H379 C388 0.930 . S
H380 C390 0.930 . S
H381 C393 0.929 . S
H382 C396 0.930 . S
H383 C398 0.960 . S
H384 C398 0.960 . S
H385 C398 0.960 . S
C386 H378 0.929 . S
C386 C387 1.377 . S
C386 C388 1.384 . S
C387 C386 1.377 . S
C387 C393 1.390 . S
C388 H379 0.930 . S
C388 C386 1.384 . S
C388 C389 1.372 . S
C389 C388 1.372 . S
C389 C390 1.400 . S
C389 C394 1.490 . S
C390 H380 0.930 . S
C390 C389 1.400 . S
C390 C393 1.386 . S
H391 C407 0.930 . S
H392 C408 0.931 . S
C393 H381 0.929 . S
C393 C387 1.390 . S
C393 C390 1.386 . S
C394 C389 1.490 . S
C394 C396 1.395 . S
C394 C397 1.403 . S
H395 C401 0.930 . S
C396 H382 0.930 . S
C396 C394 1.395 . S
C396 C399 1.403 . S
C397 C394 1.403 . S
C397 C398 1.524 . S
C397 C401 1.400 . S
C398 H383 0.960 . S
C398 H384 0.960 . S
C398 H385 0.960 . S
C398 C397 1.524 . S
C399 C396 1.403 . S
C399 C400 1.392 . S
C399 C403 1.495 . S
C400 C399 1.392 . S
C400 C401 1.385 . S
C400 C402 1.478 . S
C401 H395 0.930 . S
C401 C397 1.400 . S
C401 C400 1.385 . S
C402 C400 1.478 . S
C402 C404 1.381 . S
C402 C408 1.383 . S
C403 C399 1.495 . S
C403 H409 0.959 . S
C403 H410 0.961 . S
C403 H411 0.960 . S
C404 C402 1.381 . S
C404 C405 1.394 . S
C404 H412 0.930 . S
C405 C404 1.394 . S
C405 C406 1.383 . S
C405 H413 0.929 . S
C406 C405 1.383 . S
C406 C407 1.377 . S
C407 H391 0.930 . S
C407 C406 1.377 . S
C407 C408 1.379 . S
C408 H392 0.931 . S
C408 C402 1.383 . S
C408 C407 1.379 . S
H409 C403 0.959 . S
H410 C403 0.961 . S
H411 C403 0.960 . S
H412 C404 0.930 . S
H413 C405 0.929 . S
H414 C422 0.929 . S
H415 C424 0.930 . S
H416 C426 0.930 . S
H417 C429 0.929 . S
H418 C432 0.930 . S
H419 C434 0.960 . S
H420 C434 0.960 . S
H421 C434 0.960 . S
C422 H414 0.929 . S
C422 C423 1.377 . S
C422 C424 1.384 . S
C423 C422 1.377 . S
C423 C429 1.390 . S
C424 H415 0.930 . S
C424 C422 1.384 . S
C424 C425 1.372 . S
C425 C424 1.372 . S
C425 C426 1.400 . S
C425 C430 1.490 . S
C426 H416 0.930 . S
C426 C425 1.400 . S
C426 C429 1.386 . S
H427 C443 0.930 . S
H428 C444 0.931 . S
C429 H417 0.929 . S
C429 C423 1.390 . S
C429 C426 1.386 . S
C430 C425 1.490 . S
C430 C432 1.395 . S
C430 C433 1.403 . S
H431 C437 0.930 . S
C432 H418 0.930 . S
C432 C430 1.395 . S
C432 C435 1.403 . S
C433 C430 1.403 . S
C433 C434 1.524 . S
C433 C437 1.400 . S
C434 H419 0.960 . S
C434 H420 0.960 . S
C434 H421 0.960 . S
C434 C433 1.524 . S
C435 C432 1.403 . S
C435 C436 1.392 . S
C435 C439 1.495 . S
C436 C435 1.392 . S
C436 C437 1.385 . S
C436 C438 1.478 . S
C437 H431 0.930 . S
C437 C433 1.400 . S
C437 C436 1.385 . S
C438 C436 1.478 . S
C438 C440 1.381 . S
C438 C444 1.383 . S
C439 C435 1.495 . S
C439 H445 0.959 . S
C439 H446 0.961 . S
C439 H447 0.960 . S
C440 C438 1.381 . S
C440 C441 1.394 . S
C440 H448 0.930 . S
C441 C440 1.394 . S
C441 C442 1.383 . S
C441 H449 0.929 . S
C442 C441 1.383 . S
C442 C443 1.377 . S
C443 H427 0.930 . S
C443 C442 1.377 . S
C443 C444 1.379 . S
C444 H428 0.931 . S
C444 C438 1.383 . S
C444 C443 1.379 . S
H445 C439 0.959 . S
H446 C439 0.961 . S
H447 C439 0.960 . S
H448 C440 0.930 . S
H449 C441 0.929 . S
H450 C458 0.929 . S
H451 C460 0.930 . S
H452 C462 0.930 . S
H453 C465 0.929 . S
H454 C468 0.930 . S
H455 C470 0.960 . S
H456 C470 0.960 . S
H457 C470 0.960 . S
C458 H450 0.929 . S
C458 C459 1.377 . S
C458 C460 1.384 . S
C459 C458 1.377 . S
C459 C465 1.390 . S
C460 H451 0.930 . S
C460 C458 1.384 . S
C460 C461 1.372 . S
C461 C460 1.372 . S
C461 C462 1.400 . S
C461 C466 1.490 . S
C462 H452 0.930 . S
C462 C461 1.400 . S
C462 C465 1.386 . S
H463 C479 0.930 . S
H464 C480 0.931 . S
C465 H453 0.929 . S
C465 C459 1.390 . S
C465 C462 1.386 . S
C466 C461 1.490 . S
C466 C468 1.395 . S
C466 C469 1.403 . S
H467 C473 0.930 . S
C468 H454 0.930 . S
C468 C466 1.395 . S
C468 C471 1.403 . S
C469 C466 1.403 . S
C469 C470 1.524 . S
C469 C473 1.400 . S
C470 H455 0.960 . S
C470 H456 0.960 . S
C470 H457 0.960 . S
C470 C469 1.524 . S
C471 C468 1.403 . S
C471 C472 1.392 . S
C471 C475 1.495 . S
C472 C471 1.392 . S
C472 C473 1.385 . S
C472 C474 1.478 . S
C473 H467 0.930 . S
C473 C469 1.400 . S
C473 C472 1.385 . S
C474 C472 1.478 . S
C474 C476 1.381 . S
C474 C480 1.383 . S
C475 C471 1.495 . S
C475 H481 0.959 . S
C475 H482 0.961 . S
C475 H483 0.960 . S
C476 C474 1.381 . S
C476 C477 1.394 . S
C476 H484 0.930 . S
C477 C476 1.394 . S
C477 C478 1.383 . S
C477 H485 0.929 . S
C478 C477 1.383 . S
C478 C479 1.377 . S
C479 H463 0.930 . S
C479 C478 1.377 . S
C479 C480 1.379 . S
C480 H464 0.931 . S
C480 C474 1.383 . S
C480 C479 1.379 . S
H481 C475 0.959 . S
H482 C475 0.961 . S
H483 C475 0.960 . S
H484 C476 0.930 . S
H485 C477 0.929 . S
H486 C494 0.929 . S
H487 C496 0.930 . S
H488 C498 0.930 . S
H489 C501 0.929 . S
H490 C504 0.930 . S
H491 C506 0.960 . S
H492 C506 0.960 . S
H493 C506 0.960 . S
C494 H486 0.929 . S
C494 C495 1.377 . S
C494 C496 1.384 . S
C495 C494 1.377 . S
C495 C501 1.390 . S
C496 H487 0.930 . S
C496 C494 1.384 . S
C496 C497 1.372 . S
C497 C496 1.372 . S
C497 C498 1.400 . S
C497 C502 1.490 . S
C498 H488 0.930 . S
C498 C497 1.400 . S
C498 C501 1.386 . S
H499 C515 0.930 . S
H500 C516 0.931 . S
C501 H489 0.929 . S
C501 C495 1.390 . S
C501 C498 1.386 . S
C502 C497 1.490 . S
C502 C504 1.395 . S
C502 C505 1.403 . S
H503 C509 0.930 . S
C504 H490 0.930 . S
C504 C502 1.395 . S
C504 C507 1.403 . S
C505 C502 1.403 . S
C505 C506 1.524 . S
C505 C509 1.400 . S
C506 H491 0.960 . S
C506 H492 0.960 . S
C506 H493 0.960 . S
C506 C505 1.524 . S
C507 C504 1.403 . S
C507 C508 1.392 . S
C507 C511 1.495 . S
C508 C507 1.392 . S
C508 C509 1.385 . S
C508 C510 1.478 . S
C509 H503 0.930 . S
C509 C505 1.400 . S
C509 C508 1.385 . S
C510 C508 1.478 . S
C510 C512 1.381 . S
C510 C516 1.383 . S
C511 C507 1.495 . S
C511 H517 0.959 . S
C511 H518 0.961 . S
C511 H519 0.960 . S
C512 C510 1.381 . S
C512 C513 1.394 . S
C512 H520 0.930 . S
C513 C512 1.394 . S
C513 C514 1.383 . S
C513 H521 0.929 . S
C514 C513 1.383 . S
C514 C515 1.377 . S
C515 H499 0.930 . S
C515 C514 1.377 . S
C515 C516 1.379 . S
C516 H500 0.931 . S
C516 C510 1.383 . S
C516 C515 1.379 . S
H517 C511 0.959 . S
H518 C511 0.961 . S
H519 C511 0.960 . S
H520 C512 0.930 . S
H521 C513 0.929 . S
H522 C530 0.929 . S
H523 C532 0.930 . S
H524 C534 0.930 . S
H525 C537 0.929 . S
H526 C540 0.930 . S
H527 C542 0.960 . S
H528 C542 0.960 . S
H529 C542 0.960 . S
C530 H522 0.929 . S
C530 C531 1.377 . S
C530 C532 1.384 . S
C531 C530 1.377 . S
C531 C537 1.390 . S
C532 H523 0.930 . S
C532 C530 1.384 . S
C532 C533 1.372 . S
C533 C532 1.372 . S
C533 C534 1.400 . S
C533 C538 1.490 . S
C534 H524 0.930 . S
C534 C533 1.400 . S
C534 C537 1.386 . S
H535 C551 0.930 . S
H536 C552 0.931 . S
C537 H525 0.929 . S
C537 C531 1.390 . S
C537 C534 1.386 . S
C538 C533 1.490 . S
C538 C540 1.395 . S
C538 C541 1.403 . S
H539 C545 0.930 . S
C540 H526 0.930 . S
C540 C538 1.395 . S
C540 C543 1.403 . S
C541 C538 1.403 . S
C541 C542 1.524 . S
C541 C545 1.400 . S
C542 H527 0.960 . S
C542 H528 0.960 . S
C542 H529 0.960 . S
C542 C541 1.524 . S
C543 C540 1.403 . S
C543 C544 1.392 . S
C543 C547 1.495 . S
C544 C543 1.392 . S
C544 C545 1.385 . S
C544 C546 1.478 . S
C545 H539 0.930 . S
C545 C541 1.400 . S
C545 C544 1.385 . S
C546 C544 1.478 . S
C546 C548 1.381 . S
C546 C552 1.383 . S
C547 C543 1.495 . S
C547 H553 0.959 . S
C547 H554 0.961 . S
C547 H555 0.960 . S
C548 C546 1.381 . S
C548 C549 1.394 . S
C548 H556 0.930 . S
C549 C548 1.394 . S
C549 C550 1.383 . S
C549 H557 0.929 . S
C550 C549 1.383 . S
C550 C551 1.377 . S
C551 H535 0.930 . S
C551 C550 1.377 . S
C551 C552 1.379 . S
C552 H536 0.931 . S
C552 C546 1.383 . S
C552 C551 1.379 . S
H553 C547 0.959 . S
H554 C547 0.961 . S
H555 C547 0.960 . S
H556 C548 0.930 . S
H557 C549 0.929 . S
H558 C566 0.929 . S
H559 C568 0.930 . S
H560 C570 0.930 . S
H561 C573 0.929 . S
H562 C576 0.930 . S
H563 C578 0.960 . S
H564 C578 0.960 . S
H565 C578 0.960 . S
C566 H558 0.929 . S
C566 C567 1.377 . S
C566 C568 1.384 . S
C567 C566 1.377 . S
C567 C573 1.390 . S
C568 H559 0.930 . S
C568 C566 1.384 . S
C568 C569 1.372 . S
C569 C568 1.372 . S
C569 C570 1.400 . S
C569 C574 1.490 . S
C570 H560 0.930 . S
C570 C569 1.400 . S
C570 C573 1.386 . S
H571 C587 0.930 . S
H572 C588 0.931 . S
C573 H561 0.929 . S
C573 C567 1.390 . S
C573 C570 1.386 . S
C574 C569 1.490 . S
C574 C576 1.395 . S
C574 C577 1.403 . S
H575 C581 0.930 1_556 S
C576 H562 0.930 . S
C576 C574 1.395 . S
C576 C579 1.403 . S
C577 C574 1.403 . S
C577 C578 1.524 1_455 S
C577 C581 1.400 . S
C578 H563 0.960 . S
C578 H564 0.960 . S
C578 H565 0.960 . S
C578 C577 1.524 1_655 S
C579 C576 1.403 . S
C579 C580 1.392 1_554 S
C579 C583 1.495 1_554 S
C580 C579 1.392 1_556 S
C580 C581 1.385 1_556 S
C580 C582 1.478 . S
C581 H575 0.930 1_554 S
C581 C577 1.400 . S
C581 C580 1.385 1_554 S
C582 C580 1.478 . S
C582 C584 1.381 . S
C582 C588 1.383 . S
C583 C579 1.495 1_556 S
C583 H589 0.959 1_556 S
C583 H590 0.961 . S
C583 H591 0.960 . S
C584 C582 1.381 . S
C584 C585 1.394 . S
C584 H592 0.930 . S
C585 C584 1.394 . S
C585 C586 1.383 . S
C585 H593 0.929 . S
C586 C585 1.383 . S
C586 C587 1.377 . S
C587 H571 0.930 . S
C587 C586 1.377 . S
C587 C588 1.379 . S
C588 H572 0.931 . S
C588 C582 1.383 . S
C588 C587 1.379 . S
H589 C583 0.959 1_554 S
H590 C583 0.961 . S
H591 C583 0.960 . S
H592 C584 0.930 . S
H593 C585 0.929 . S
H594 C602 0.929 . S
H595 C604 0.930 . S
H596 C606 0.930 . S
H597 C609 0.929 . S
H598 C612 0.930 . S
H599 C614 0.960 . S
H600 C614 0.960 . S
H601 C614 0.960 1_545 S
C602 H594 0.929 . S
C602 C603 1.377 . S
C602 C604 1.384 . S
C603 C602 1.377 . S
C603 C609 1.390 . S
C604 H595 0.930 . S
C604 C602 1.384 . S
C604 C605 1.372 . S
C605 C604 1.372 . S
C605 C606 1.400 . S
C605 C610 1.490 . S
C606 H596 0.930 . S
C606 C605 1.400 . S
C606 C609 1.386 . S
H607 C623 0.930 . S
H608 C624 0.931 . S
C609 H597 0.929 . S
C609 C603 1.390 . S
C609 C606 1.386 . S
C610 C605 1.490 . S
C610 C612 1.395 . S
C610 C613 1.403 . S
H611 C617 0.930 . S
C612 H598 0.930 . S
C612 C610 1.395 . S
C612 C615 1.403 . S
C613 C610 1.403 . S
C613 C614 1.524 1_545 S
C613 C617 1.400 . S
C614 H599 0.960 . S
C614 H600 0.960 . S
C614 H601 0.960 1_565 S
C614 C613 1.524 1_565 S
C615 C612 1.403 . S
C615 C616 1.392 . S
C615 C619 1.495 . S
C616 C615 1.392 . S
C616 C617 1.385 . S
C616 C618 1.478 . S
C617 H611 0.930 . S
C617 C613 1.400 . S
C617 C616 1.385 . S
C618 C616 1.478 . S
C618 C620 1.381 . S
C618 C624 1.383 . S
C619 C615 1.495 . S
C619 H625 0.959 . S
C619 H626 0.961 . S
C619 H627 0.960 . S
C620 C618 1.381 . S
C620 C621 1.394 . S
C620 H628 0.930 . S
C621 C620 1.394 . S
C621 C622 1.383 . S
C621 H629 0.929 . S
C622 C621 1.383 . S
C622 C623 1.377 . S
C623 H607 0.930 . S
C623 C622 1.377 . S
C623 C624 1.379 . S
C624 H608 0.931 . S
C624 C618 1.383 . S
C624 C623 1.379 . S
H625 C619 0.959 . S
H626 C619 0.961 . S
H627 C619 0.960 . S
H628 C620 0.930 . S
H629 C621 0.929 . S
H630 C638 0.929 . S
H631 C640 0.930 . S
H632 C642 0.930 . S
H633 C645 0.929 . S
H634 C648 0.930 . S
H635 C650 0.960 . S
H636 C650 0.960 . S
H637 C650 0.960 . S
C638 H630 0.929 . S
C638 C639 1.377 . S
C638 C640 1.384 . S
C639 C638 1.377 . S
C639 C645 1.390 . S
C640 H631 0.930 . S
C640 C638 1.384 . S
C640 C641 1.372 . S
C641 C640 1.372 . S
C641 C642 1.400 . S
C641 C646 1.490 . S
C642 H632 0.930 . S
C642 C641 1.400 . S
C642 C645 1.386 . S
H643 C659 0.930 . S
H644 C660 0.931 . S
C645 H633 0.929 . S
C645 C639 1.390 . S
C645 C642 1.386 . S
C646 C641 1.490 . S
C646 C648 1.395 . S
C646 C649 1.403 . S
H647 C653 0.930 . S
C648 H634 0.930 . S
C648 C646 1.395 . S
C648 C651 1.403 . S
C649 C646 1.403 . S
C649 C650 1.524 . S
C649 C653 1.400 . S
C650 H635 0.960 . S
C650 H636 0.960 . S
C650 H637 0.960 . S
C650 C649 1.524 . S
C651 C648 1.403 . S
C651 C652 1.392 . S
C651 C655 1.495 . S
C652 C651 1.392 . S
C652 C653 1.385 . S
C652 C654 1.478 . S
C653 H647 0.930 . S
C653 C649 1.400 . S
C653 C652 1.385 . S
C654 C652 1.478 . S
C654 C656 1.381 . S
C654 C660 1.383 . S
C655 C651 1.495 . S
C655 H661 0.959 . S
C655 H662 0.961 . S
C655 H663 0.960 . S
C656 C654 1.381 . S
C656 C657 1.394 . S
C656 H664 0.930 . S
C657 C656 1.394 . S
C657 C658 1.383 . S
C657 H665 0.929 . S
C658 C657 1.383 . S
C658 C659 1.377 . S
C659 H643 0.930 . S
C659 C658 1.377 . S
C659 C660 1.379 . S
C660 H644 0.931 . S
C660 C654 1.383 . S
C660 C659 1.379 . S
H661 C655 0.959 . S
H662 C655 0.961 . S
H663 C655 0.960 . S
H664 C656 0.930 . S
H665 C657 0.929 . S
H666 C674 0.929 . S
H667 C676 0.930 . S
H668 C678 0.930 . S
H669 C681 0.929 . S
H670 C684 0.930 1_565 S
H671 C686 0.960 . S
H672 C686 0.960 . S
H673 C686 0.960 . S
C674 H666 0.929 . S
C674 C675 1.377 . S
C674 C676 1.384 . S
C675 C674 1.377 . S
C675 C681 1.390 . S
C676 H667 0.930 . S
C676 C674 1.384 . S
C676 C677 1.372 . S
C677 C676 1.372 . S
C677 C678 1.400 . S
C677 C682 1.490 . S
C678 H668 0.930 . S
C678 C677 1.400 . S
C678 C681 1.386 . S
H679 C695 0.930 1_565 S
H680 C696 0.931 1_565 S
C681 H669 0.929 . S
C681 C675 1.390 . S
C681 C678 1.386 . S
C682 C677 1.490 . S
C682 C684 1.395 . S
C682 C685 1.403 . S
H683 C689 0.930 . S
C684 H670 0.930 1_545 S
C684 C682 1.395 . S
C684 C687 1.403 1_545 S
C685 C682 1.403 . S
C685 C686 1.524 . S
C685 C689 1.400 . S
C686 H671 0.960 . S
C686 H672 0.960 . S
C686 H673 0.960 . S
C686 C685 1.524 . S
C687 C684 1.403 1_565 S
C687 C688 1.392 1_565 S
C687 C691 1.495 . S
C688 C687 1.392 1_545 S
C688 C689 1.385 . S
C688 C690 1.478 . S
C689 H683 0.930 . S
C689 C685 1.400 . S
C689 C688 1.385 . S
C690 C688 1.478 . S
C690 C692 1.381 . S
C690 C696 1.383 . S
C691 C687 1.495 . S
C691 H697 0.959 . S
C691 H698 0.961 . S
C691 H699 0.960 . S
C692 C690 1.381 . S
C692 C693 1.394 . S
C692 H700 0.930 . S
C693 C692 1.394 . S
C693 C694 1.383 . S
C693 H701 0.929 . S
C694 C693 1.383 . S
C694 C695 1.377 . S
C695 H679 0.930 1_545 S
C695 C694 1.377 . S
C695 C696 1.379 . S
C696 H680 0.931 1_545 S
C696 C690 1.383 . S
C696 C695 1.379 . S
H697 C691 0.959 . S
H698 C691 0.961 . S
H699 C691 0.960 . S
H700 C692 0.930 . S
H701 C693 0.929 . S
H702 C710 0.929 . S
H703 C712 0.930 . S
H704 C714 0.930 . S
H705 C717 0.929 . S
H706 C720 0.930 . S
H707 C722 0.960 . S
H708 C722 0.960 . S
H709 C722 0.960 . S
C710 H702 0.929 . S
C710 C711 1.377 . S
C710 C712 1.384 . S
C711 C710 1.377 . S
C711 C717 1.390 . S
C712 H703 0.930 . S
C712 C710 1.384 . S
C712 C713 1.372 . S
C713 C712 1.372 . S
C713 C714 1.400 . S
C713 C718 1.490 . S
C714 H704 0.930 . S
C714 C713 1.400 . S
C714 C717 1.386 . S
H715 C731 0.930 . S
H716 C732 0.931 . S
C717 H705 0.929 . S
C717 C711 1.390 . S
C717 C714 1.386 . S
C718 C713 1.490 . S
C718 C720 1.395 . S
C718 C721 1.403 . S
H719 C725 0.930 . S
C720 H706 0.930 . S
C720 C718 1.395 . S
C720 C723 1.437 . S
C721 C718 1.403 . S
C721 C722 1.524 . S
C721 C725 1.400 . S
C722 H707 0.960 . S
C722 H708 0.960 . S
C722 H709 0.960 . S
C722 C721 1.524 . S
C723 C720 1.437 . S
C723 C724 1.378 1_556 S
C723 C727 1.477 1_556 S
C724 C723 1.378 1_554 S
C724 C725 1.385 1_554 S
C724 C726 1.478 . S
C725 H719 0.930 . S
C725 C721 1.400 . S
C725 C724 1.385 1_556 S
C726 C724 1.478 . S
C726 C728 1.381 . S
C726 C732 1.383 . S
C727 C723 1.477 1_554 S
C727 H733 0.959 . S
C727 H734 0.961 . S
C727 H735 0.960 . S
C728 C726 1.381 . S
C728 C729 1.394 . S
C728 H736 0.930 . S
C729 C728 1.394 . S
C729 C730 1.383 . S
C729 H737 0.929 . S
C730 C729 1.383 . S
C730 C731 1.377 . S
C731 H715 0.930 . S
C731 C730 1.377 . S
C731 C732 1.379 . S
C732 H716 0.931 . S
C732 C726 1.383 . S
C732 C731 1.379 . S
H733 C727 0.959 . S
H734 C727 0.961 . S
H735 C727 0.960 . S
H736 C728 0.930 . S
H737 C729 0.929 . S
H738 C746 0.929 . S
H739 C748 0.930 . S
H740 C750 0.930 . S
H741 C753 0.929 . S
H742 C756 0.930 . S
H743 C758 0.960 . S
H744 C758 0.960 . S
H745 C758 0.960 . S
C746 H738 0.929 . S
C746 C747 1.377 1_655 S
C746 C748 1.384 . S
C747 C746 1.377 1_455 S
C747 C753 1.390 . S
C748 H739 0.930 . S
C748 C746 1.384 . S
C748 C749 1.372 1_655 S
C749 C748 1.372 1_455 S
C749 C750 1.400 . S
C749 C754 1.490 . S
C750 H740 0.930 . S
C750 C749 1.400 . S
C750 C753 1.386 . S
H751 C767 0.930 . S
H752 C768 0.931 . S
C753 H741 0.929 . S
C753 C747 1.390 . S
C753 C750 1.386 . S
C754 C749 1.490 . S
C754 C756 1.395 1_455 S
C754 C757 1.403 . S
H755 C761 0.930 . S
C756 H742 0.930 . S
C756 C754 1.395 1_655 S
C756 C759 1.403 . S
C757 C754 1.403 . S
C757 C758 1.524 . S
C757 C761 1.400 . S
C758 H743 0.960 . S
C758 H744 0.960 . S
C758 H745 0.960 . S
C758 C757 1.524 . S
C759 C756 1.403 . S
C759 C760 1.392 . S
C759 C763 1.495 . S
C760 C759 1.392 . S
C760 C761 1.385 1_655 S
C760 C762 1.478 . S
C761 H755 0.930 . S
C761 C757 1.400 . S
C761 C760 1.385 1_455 S
C762 C760 1.478 . S
C762 C764 1.381 . S
C762 C768 1.383 1_655 S
C763 C759 1.495 . S
C763 H769 0.959 . S
C763 H770 0.961 . S
C763 H771 0.960 . S
C764 C762 1.381 . S
C764 C765 1.394 . S
C764 H772 0.930 . S
C765 C764 1.394 . S
C765 C766 1.383 . S
C765 H773 0.929 . S
C766 C765 1.383 . S
C766 C767 1.377 1_655 S
C767 H751 0.930 . S
C767 C766 1.377 1_455 S
C767 C768 1.379 . S
C768 H752 0.931 . S
C768 C762 1.383 1_455 S
C768 C767 1.379 . S
H769 C763 0.959 . S
H770 C763 0.961 . S
H771 C763 0.960 . S
H772 C764 0.930 . S
H773 C765 0.929 . S
C135 C8 2.190 . S
C154 C120 1.930 . S
C171 C26 1.497 . S
C190 C98 1.273 . S
C207 C48 1.329 . S
C226 C112 1.327 . S
C243 C19 1.568 . S
C262 C123 1.563 . S
C298 C101 1.284 . S
C279 C36 1.293 . S
C334 C109 1.533 . S
C315 C59 1.754 . S
C351 C28 1.692 . S
C370 C76 1.468 . S
C387 C46 1.365 . S
C406 C87 1.170 . S
C423 C16 1.671 . S
C442 C65 1.356 . S
C478 C79 1.459 . S
C459 C39 1.443 . S
C514 C90 0.835 . S
C495 C56 0.797 . S
C531 C6 1.184 . S
C550 C68 1.179 . S
C586 C89 1.393 . S
C567 C9 1.448 . S
C603 C21 1.490 . S
C622 C67 1.465 . S
C639 C49 1.534 . S
C658 C78 1.498 . S
C694 C111 1.436 . S
C675 C29 1.458 . S
C730 C122 1.497 . S
C711 C41 1.582 . S
C747 C1 1.535 . S
C766 C100 1.498 . S
