# Generated by pormake.
# Topology pyr, (3,6)-cn, num edge types: 1
# Building blocks:
#     Node 0, Type 0, BuildingBlock: OLANEW_clean_sbu_2, # of connection points: 3
#     Node 1, Type 0, BuildingBlock: OLANEW_clean_sbu_2, # of connection points: 3
#     Node 2, Type 0, BuildingBlock: OLANEW_clean_sbu_2, # of connection points: 3
#     Node 3, Type 0, BuildingBlock: OLANEW_clean_sbu_2, # of connection points: 3
#     Node 4, Type 0, BuildingBlock: OLANEW_clean_sbu_2, # of connection points: 3
#     Node 5, Type 0, BuildingBlock: OLANEW_clean_sbu_2, # of connection points: 3
#     Node 6, Type 0, BuildingBlock: OLANEW_clean_sbu_2, # of connection points: 3
#     Node 7, Type 0, BuildingBlock: OLANEW_clean_sbu_2, # of connection points: 3
#     Node 8, Type 1, BuildingBlock: INOVEN_clean_sbu_0, # of connection points: 6
#     Node 9, Type 1, BuildingBlock: INOVEN_clean_sbu_0, # of connection points: 6
#     Node 10, Type 1, BuildingBlock: INOVEN_clean_sbu_0, # of connection points: 6
#     Node 11, Type 1, BuildingBlock: INOVEN_clean_sbu_0, # of connection points: 6
#     Edge 12, Type (0, 1), BuildingBlock: ZUJKAS_clean_linker_0, # of connection points: 2
#     Edge 13, Type (0, 1), BuildingBlock: ZUJKAS_clean_linker_0, # of connection points: 2
#     Edge 14, Type (0, 1), BuildingBlock: ZUJKAS_clean_linker_0, # of connection points: 2
#     Edge 15, Type (0, 1), BuildingBlock: ZUJKAS_clean_linker_0, # of connection points: 2
#     Edge 16, Type (0, 1), BuildingBlock: ZUJKAS_clean_linker_0, # of connection points: 2
#     Edge 17, Type (0, 1), BuildingBlock: ZUJKAS_clean_linker_0, # of connection points: 2
#     Edge 18, Type (0, 1), BuildingBlock: ZUJKAS_clean_linker_0, # of connection points: 2
#     Edge 19, Type (0, 1), BuildingBlock: ZUJKAS_clean_linker_0, # of connection points: 2
#     Edge 20, Type (0, 1), BuildingBlock: ZUJKAS_clean_linker_0, # of connection points: 2
#     Edge 21, Type (0, 1), BuildingBlock: ZUJKAS_clean_linker_0, # of connection points: 2
#     Edge 22, Type (0, 1), BuildingBlock: ZUJKAS_clean_linker_0, # of connection points: 2
#     Edge 23, Type (0, 1), BuildingBlock: ZUJKAS_clean_linker_0, # of connection points: 2
#     Edge 24, Type (0, 1), BuildingBlock: ZUJKAS_clean_linker_0, # of connection points: 2
#     Edge 25, Type (0, 1), BuildingBlock: ZUJKAS_clean_linker_0, # of connection points: 2
#     Edge 26, Type (0, 1), BuildingBlock: ZUJKAS_clean_linker_0, # of connection points: 2
#     Edge 27, Type (0, 1), BuildingBlock: ZUJKAS_clean_linker_0, # of connection points: 2
#     Edge 28, Type (0, 1), BuildingBlock: ZUJKAS_clean_linker_0, # of connection points: 2
#     Edge 29, Type (0, 1), BuildingBlock: ZUJKAS_clean_linker_0, # of connection points: 2
#     Edge 30, Type (0, 1), BuildingBlock: ZUJKAS_clean_linker_0, # of connection points: 2
#     Edge 31, Type (0, 1), BuildingBlock: ZUJKAS_clean_linker_0, # of connection points: 2
#     Edge 32, Type (0, 1), BuildingBlock: ZUJKAS_clean_linker_0, # of connection points: 2
#     Edge 33, Type (0, 1), BuildingBlock: ZUJKAS_clean_linker_0, # of connection points: 2
#     Edge 34, Type (0, 1), BuildingBlock: ZUJKAS_clean_linker_0, # of connection points: 2
#     Edge 35, Type (0, 1), BuildingBlock: ZUJKAS_clean_linker_0, # of connection points: 2
# Relax obj value: 0.093
# Max RMSD: 0.161
# Mean RMSD: 0.120
data_MOF--net-pyr--node1-OLANEW_clean_sbu_2--node2-INOVEN_clean_sbu_0--edge1-ZUJKAS_clean_linker_0
_symmetry_space_group_name_H-M    P1
_symmetry_Int_Tables_number       1
_symmetry_cell_setting            triclinic
loop_
_symmetry_equiv_pos_as_xyz
'x, y, z'
_cell_length_a     51.961603
_cell_length_b     56.139917
_cell_length_c     48.913305
_cell_angle_alpha  94.875615
_cell_angle_beta   88.225492
_cell_angle_gamma 102.68866
loop_
_atom_site_label
_atom_site_type_symbol
_atom_site_fract_x
_atom_site_fract_y
_atom_site_fract_z
_atom_type_partial_charge
O0 O 0.3716 0.28936 0.16505 0.0
Cd1 Cd 0.36067 0.32908 0.17914 0.0
O2 O 0.34758 0.27387 0.19936 0.0
Cd3 Cd 0.33038 0.24789 0.22936 0.0
O4 O 0.30415 0.22567 0.2577 0.0
C5 C 0.30086 0.23443 0.28206 0.0
O6 O 0.31419 0.25652 0.29004 0.0
C7 C 0.3631 0.27122 0.17923 0.0
C8 C 0.31678 0.34062 0.15609 0.0
O9 O 0.33955 0.34551 0.14441 0.0
O10 O 0.31456 0.32941 0.17811 0.0
O11 O 0.30258 0.88298 0.69258 0.0
Cd12 Cd 0.28091 0.87261 0.64815 0.0
O13 O 0.28078 0.85039 0.71199 0.0
Cd14 Cd 0.25228 0.84235 0.67899 0.0
O15 O 0.22434 0.85389 0.65356 0.0
C16 C 0.2232 0.8762 0.65874 0.0
O17 O 0.23812 0.88931 0.67824 0.0
C18 C 0.29901 0.86971 0.7128 0.0
C19 C 0.30436 0.83771 0.61976 0.0
O20 O 0.28335 0.83133 0.63418 0.0
O21 O 0.31368 0.86064 0.61792 0.0
O22 O 0.70383 0.3991 0.87229 0.0
Cd23 Cd 0.66115 0.38491 0.84768 0.0
O24 O 0.70431 0.37011 0.90069 0.0
Cd25 Cd 0.66812 0.34034 0.89867 0.0
O26 O 0.64287 0.30617 0.91346 0.0
C27 C 0.65411 0.29102 0.92377 0.0
O28 O 0.68001 0.29599 0.92456 0.0
C29 C 0.71517 0.39029 0.89069 0.0
C30 C 0.64907 0.41272 0.8056 0.0
O31 O 0.64298 0.41738 0.83079 0.0
O32 O 0.66163 0.39557 0.80026 0.0
O33 O 0.89784 0.72907 0.36786 0.0
Cd34 Cd 0.87274 0.68893 0.34914 0.0
O35 O 0.89928 0.71643 0.40905 0.0
Cd36 Cd 0.87309 0.68067 0.40019 0.0
O37 O 0.83596 0.65665 0.41155 0.0
C38 C 0.8149 0.66374 0.40745 0.0
O39 O 0.81654 0.68378 0.39482 0.0
C40 C 0.90531 0.73329 0.39269 0.0
C41 C 0.8959 0.66669 0.30429 0.0
O42 O 0.88126 0.68181 0.30086 0.0
O43 O 0.90009 0.66249 0.32894 0.0
O44 O 0.73523 0.76935 0.79654 0.0
Cd45 Cd 0.70715 0.7366 0.82051 0.0
O46 O 0.72039 0.79702 0.82282 0.0
Cd47 Cd 0.7141 0.833 0.83891 0.0
O48 O 0.69856 0.86203 0.86198 0.0
C49 C 0.67364 0.85896 0.86438 0.0
O50 O 0.65872 0.83909 0.85236 0.0
C51 C 0.73564 0.79177 0.80346 0.0
C52 C 0.73847 0.71264 0.8487 0.0
O53 O 0.73169 0.70551 0.82386 0.0
O54 O 0.73008 0.73087 0.86033 0.0
O55 O 0.65049 0.08472 0.4919 0.0
Cd56 Cd 0.66149 0.07813 0.53826 0.0
O57 O 0.66477 0.12409 0.50184 0.0
Cd58 Cd 0.67059 0.16287 0.49495 0.0
O59 O 0.66878 0.20117 0.49361 0.0
C60 C 0.65095 0.20847 0.50821 0.0
O61 O 0.63509 0.19282 0.523 0.0
C62 C 0.65511 0.10642 0.48452 0.0
C63 C 0.71334 0.07251 0.53911 0.0
O64 O 0.69417 0.05396 0.53469 0.0
O65 O 0.70792 0.09372 0.54347 0.0
O66 O 0.41008 0.76574 0.2384 0.0
Cd67 Cd 0.39227 0.72467 0.2561 0.0
O68 O 0.37775 0.76392 0.20916 0.0
Cd69 Cd 0.3509 0.72763 0.21151 0.0
O70 O 0.31487 0.70021 0.19826 0.0
C71 C 0.31417 0.68867 0.17461 0.0
O72 O 0.33553 0.69243 0.15906 0.0
C73 C 0.39926 0.77547 0.22038 0.0
C74 C 0.41638 0.7071 0.2995 0.0
O75 O 0.42311 0.70312 0.27435 0.0
O76 O 0.39927 0.72032 0.30438 0.0
O77 O 0.17809 0.41372 0.75241 0.0
Cd78 Cd 0.19491 0.3925 0.71209 0.0
O79 O 0.14715 0.38133 0.76065 0.0
Cd80 Cd 0.15604 0.35641 0.72652 0.0
O81 O 0.15022 0.32245 0.69958 0.0
C82 C 0.15121 0.30275 0.71015 0.0
O83 O 0.15696 0.30385 0.73626 0.0
C84 C 0.15865 0.4035 0.76689 0.0
C85 C 0.24192 0.41862 0.68967 0.0
O86 O 0.21943 0.42125 0.68192 0.0
O87 O 0.2422 0.40395 0.70831 0.0
Gd88 Gd 0.02012 0.03023 0.5202 0.0
Gd89 Gd 0.01372 0.01262 0.57643 0.0
C90 C 0.04575 0.06663 0.57222 0.0
C91 C 0.02268 0.054 0.47682 0.0
C92 C 0.04343 0.0721 0.46436 0.0
C93 C 0.06648 0.08302 0.47885 0.0
C94 C 0.04126 0.07695 0.43703 0.0
C95 C 0.08567 0.10256 0.43817 0.0
C96 C 0.06219 0.09209 0.42402 0.0
C97 C 0.08741 0.0982 0.46588 0.0
C98 C 0.05846 1.00812 0.53458 0.0
C99 C 0.99082 0.97564 0.52375 0.0
C100 C 0.01016 0.98907 0.62015 0.0
C101 C 0.98812 0.9735 0.63407 0.0
C102 C 0.96222 0.971 0.62509 0.0
C103 C 0.9927 0.96182 0.65706 0.0
C104 C 0.94545 0.94586 0.66263 0.0
C105 C 0.97153 0.94804 0.67121 0.0
C106 C 0.94105 0.95734 0.63927 0.0
C107 C 0.9748 0.03424 0.56215 0.0
O108 O 0.03489 0.06487 0.54783 0.0
O109 O 0.04455 0.04693 0.58555 0.0
O110 O 0.02755 0.03214 0.47663 0.0
O111 O 0.01285 0.06114 0.50028 0.0
O112 O 0.04986 1.00661 0.50984 0.0
O113 O 0.04809 0.02264 0.54972 0.0
O114 O 1.00137 0.97787 0.54835 0.0
O115 O 0.99079 0.99515 0.51053 0.0
O116 O 0.00896 1.01208 0.62045 0.0
O117 O 0.0171 0.98023 0.59614 0.0
O118 O 0.98411 0.03597 0.58658 0.0
O119 O 0.98511 0.01973 0.54677 0.0
H120 H 0.06857 0.07922 0.49992 0.0
H121 H 0.02362 0.06857 0.42555 0.0
H122 H 0.06012 0.09537 0.40278 0.0
H123 H 0.10531 0.10576 0.47725 0.0
H124 H 0.95837 0.97989 0.60729 0.0
H125 H 0.0126 0.96366 0.66429 0.0
H126 H 0.97554 0.9396 0.68926 0.0
H127 H 0.92124 0.95571 0.63192 0.0
Gd128 Gd 0.53981 0.05204 0.09346 0.0
Gd129 Gd 0.49008 0.02863 0.06574 0.0
C130 C 0.48539 0.06845 0.11304 0.0
C131 C 0.57955 0.08165 0.11736 0.0
C132 C 0.5854 0.09098 0.1459 0.0
C133 C 0.56815 0.08197 0.16708 0.0
C134 C 0.60874 0.10821 0.15222 0.0
C135 C 0.59832 0.10642 0.20103 0.0
C136 C 0.61516 0.11592 0.17959 0.0
C137 C 0.57457 0.08959 0.19441 0.0
C138 C 0.5151 1.00936 0.11427 0.0
C139 C 0.54451 0.0146 0.04282 0.0
C140 C 0.44978 0.99831 0.04379 0.0
C141 C 0.44339 0.98412 0.01744 0.0
C142 C 0.46195 0.98573 0.99586 0.0
C143 C 0.41806 0.96951 0.01347 0.0
C144 C 0.42931 0.959 0.96598 0.0
C145 C 0.41105 0.95704 0.98797 0.0
C146 C 0.45496 0.97326 0.97029 0.0
C147 C 0.51511 0.07147 0.04531 0.0
O148 O 0.51134 0.07502 0.11078 0.0
O149 O 0.47248 0.04755 0.1011 0.0
O150 O 0.57816 0.05821 0.11207 0.0
O151 O 0.56052 0.08908 0.10614 0.0
O152 O 0.54037 0.01683 0.11216 0.0
O153 O 0.50387 0.02563 0.10719 0.0
O154 O 0.51872 1.00716 0.04573 0.0
O155 O 0.55718 0.03501 0.05618 0.0
O156 O 0.45369 0.02206 0.04325 0.0
O157 O 0.46695 0.99158 0.05874 0.0
O158 O 0.48974 0.06432 0.04745 0.0
O159 O 0.52597 0.05495 0.0522 0.0
H160 H 0.55003 0.0686 0.16247 0.0
H161 H 0.62219 0.11539 0.13604 0.0
H162 H 0.63342 0.12913 0.18397 0.0
H163 H 0.56133 0.08161 0.21036 0.0
H164 H 0.48166 0.99694 0.99869 0.0
H165 H 0.40351 0.96818 0.02996 0.0
H166 H 0.39104 0.94652 0.98523 0.0
H167 H 0.46952 0.97493 0.95383 0.0
Gd168 Gd 0.53189 0.5348 0.52856 0.0
Gd169 Gd 0.52177 0.57282 0.57273 0.0
C170 C 0.54882 0.53176 0.59257 0.0
C171 C 0.55339 0.50611 0.49552 0.0
C172 C 0.56377 0.48409 0.4975 0.0
C173 C 0.56161 0.47264 0.5221 0.0
C174 C 0.57628 0.47458 0.47469 0.0
C175 C 0.58432 0.44203 0.50094 0.0
C176 C 0.58645 0.45369 0.47635 0.0
C177 C 0.57185 0.4518 0.52384 0.0
C178 C 0.48353 0.52445 0.55221 0.0
C179 C 0.50571 0.57657 0.50907 0.0
C180 C 0.50072 0.6025 0.60457 0.0
C181 C 0.48519 0.62078 0.6001 0.0
C182 C 0.4912 0.64377 0.61486 0.0
C183 C 0.46496 0.61585 0.58065 0.0
C184 C 0.45682 0.65669 0.591 0.0
C185 C 0.45082 0.63362 0.57624 0.0
C186 C 0.47718 0.66161 0.61032 0.0
C187 C 0.57011 0.58219 0.54927 0.0
O188 O 0.55153 0.52506 0.5661 0.0
O189 O 0.53541 0.54861 0.60075 0.0
O190 O 0.52785 0.50345 0.49876 0.0
O191 O 0.56677 0.52612 0.50851 0.0
O192 O 0.48804 0.51906 0.52643 0.0
O193 O 0.50487 0.53359 0.56435 0.0
O194 O 0.501 0.58159 0.53551 0.0
O195 O 0.52056 0.56086 0.50109 0.0
O196 O 0.52538 0.60781 0.59642 0.0
O197 O 0.48921 0.57952 0.59858 0.0
O198 O 0.56594 0.58714 0.57524 0.0
O199 O 0.54865 0.57381 0.53713 0.0
H200 H 0.55202 0.47981 0.53993 0.0
H201 H 0.57809 0.48325 0.45555 0.0
H202 H 0.59558 0.44645 0.45824 0.0
H203 H 0.57018 0.44347 0.54317 0.0
H204 H 0.50679 0.64794 0.62986 0.0
H205 H 0.46012 0.59832 0.56876 0.0
H206 H 0.4354 0.62944 0.56105 0.0
H207 H 0.48202 0.67915 0.6222 0.0
Gd208 Gd 0.02137 0.50794 0.03856 0.0
Gd209 Gd 0.01551 0.55772 0.02272 0.0
C210 C 0.06805 0.55664 0.05365 0.0
C211 C 0.03689 0.46782 0.04409 0.0
C212 C 0.06006 0.45921 0.05235 0.0
C213 C 0.07838 0.47317 0.07115 0.0
C214 C 0.06365 0.43632 0.04129 0.0
C215 C 0.1032 0.4408 0.06844 0.0
C216 C 0.08499 0.4272 0.04919 0.0
C217 C 0.09978 0.46402 0.07916 0.0
C218 C 0.99524 0.53271 0.07546 0.0
C219 C 0.96828 0.50908 1.00796 0.0
C220 C 0.99929 0.59723 0.01637 0.0
C221 C 0.97749 0.60405 1.0026 0.0
C222 C 0.98207 0.62634 0.99045 0.0
C223 C 0.95218 0.58872 1.00151 0.0
C224 C 0.93616 0.61818 0.97654 0.0
C225 C 0.93168 0.59574 0.98862 0.0
C226 C 0.96162 0.63335 0.97753 0.0
C227 C 0.0426 0.53363 0.98633 0.0
O228 O 0.06181 0.53248 0.04837 0.0
O229 O 0.05134 0.57041 0.04878 0.0
O230 O 0.02434 0.47852 0.06336 0.0
O231 O 0.03912 0.47845 0.0211 0.0
O232 O 0.98904 0.50906 0.07046 0.0
O233 O 0.01549 0.54166 0.06189 0.0
O234 O 0.97576 0.5333 1.01079 0.0
O235 O 0.9837 0.49487 0.01517 0.0
O236 O 0.01706 0.58977 1.00034 0.0
O237 O 0.99292 0.5843 0.03759 0.0
O238 O 0.04838 0.55723 0.99167 0.0
O239 O 0.02199 0.52422 0.99923 0.0
H240 H 0.07601 0.49098 0.07983 0.0
H241 H 0.04982 0.42538 0.02657 0.0
H242 H 0.08727 0.40951 0.04007 0.0
H243 H 0.1133 0.47492 0.09415 0.0
H244 H 1.00146 0.63842 0.99113 0.0
H245 H 0.9482 0.5714 1.01073 0.0
H246 H 0.91239 0.58352 0.98793 0.0
H247 H 0.96564 0.65089 0.96875 0.0
H248 H 0.26781 0.18973 0.27073 0.0
H249 H 0.23302 0.1683 0.30024 0.0
H250 H 0.25424 0.22612 0.3647 0.0
H251 H 0.28886 0.24791 0.3352 0.0
H252 H 0.23558 0.15135 0.35213 0.0
H253 H 0.17533 0.22206 0.35498 0.0
H254 H 0.20208 0.22136 0.3307 0.0
H255 H 0.20889 0.23315 0.36565 0.0
C256 C 0.26516 0.19789 0.29121 0.0
C257 C 0.28097 0.22065 0.30053 0.0
C258 C 0.24528 0.1856 0.30805 0.0
C259 C 0.24078 0.19584 0.33445 0.0
C260 C 0.25704 0.21816 0.34416 0.0
H261 H 0.11927 0.14528 0.45692 0.0
H262 H 0.15812 0.16798 0.43326 0.0
C263 C 0.2769 0.23051 0.32732 0.0
C264 C 0.21887 0.18317 0.35163 0.0
H265 H 0.16011 0.18867 0.3819 0.0
C266 C 0.21909 0.15951 0.35869 0.0
C267 C 0.19743 0.19392 0.36019 0.0
C268 C 0.19568 0.21893 0.35235 0.0
C269 C 0.1984 0.14626 0.37407 0.0
C270 C 0.17677 0.15683 0.3822 0.0
C271 C 0.17677 0.18066 0.37562 0.0
C272 C 0.15345 0.14307 0.39662 0.0
C273 C 0.19993 0.1211 0.38162 0.0
C274 C 0.13779 0.12181 0.38364 0.0
C275 C 0.11568 0.10883 0.39705 0.0
C276 C 0.10871 0.11693 0.42369 0.0
C277 C 0.12429 0.13843 0.43653 0.0
C278 C 0.14639 0.15146 0.42303 0.0
H279 H 0.22051 0.11842 0.3804 0.0
H280 H 0.19207 0.11796 0.40269 0.0
H281 H 0.18787 0.10708 0.36713 0.0
H282 H 0.14266 0.11527 0.36306 0.0
H283 H 0.10429 0.0922 0.38671 0.0
H284 H 0.29583 0.84682 0.76048 0.0
H285 H 0.32174 0.86073 0.80204 0.0
H286 H 0.36572 0.92304 0.76238 0.0
H287 H 0.33984 0.90951 0.72087 0.0
H288 H 0.37785 0.87118 0.81025 0.0
H289 H 0.33464 0.9531 0.83242 0.0
H290 H 0.32024 0.9279 0.80832 0.0
H291 H 0.34876 0.95019 0.79864 0.0
C292 C 0.31108 0.86344 0.76054 0.0
C293 C 0.31558 0.87719 0.73744 0.0
C294 C 0.32589 0.87131 0.78427 0.0
C295 C 0.34533 0.89307 0.78533 0.0
C296 C 0.35047 0.9064 0.76207 0.0
H297 H 0.44042 0.97875 0.91669 0.0
H298 H 0.42288 0.96141 0.87177 0.0
C299 C 0.33569 0.89859 0.73835 0.0
C300 C 0.35973 0.90224 0.81104 0.0
H301 H 0.36926 0.94953 0.86087 0.0
C302 C 0.37601 0.88829 0.82138 0.0
C303 C 0.35719 0.92455 0.82543 0.0
C304 C 0.3391 0.93975 0.81584 0.0
C305 C 0.39016 0.89629 0.84568 0.0
C306 C 0.38756 0.91858 0.86008 0.0
C307 C 0.37133 0.93252 0.84965 0.0
C308 C 0.40071 0.92756 0.88654 0.0
C309 C 0.40803 0.88102 0.85551 0.0
C310 C 0.39428 0.91412 0.90963 0.0
C311 C 0.40439 0.92391 0.93529 0.0
C312 C 0.42097 0.9474 0.93834 0.0
C313 C 0.428 0.96049 0.91498 0.0
C314 C 0.41787 0.95068 0.88934 0.0
H315 H 0.41337 0.86834 0.83867 0.0
H316 H 0.42642 0.89282 0.86425 0.0
H317 H 0.39769 0.86983 0.87183 0.0
H318 H 0.3807 0.89643 0.908 0.0
H319 H 0.3988 0.91331 0.95286 0.0
H320 H 0.65751 0.40588 0.75 0.0
H321 H 0.64249 0.4266 0.7134 0.0
H322 H 0.60645 0.46992 0.77377 0.0
H323 H 0.62166 0.44954 0.81045 0.0
H324 H 0.59181 0.42794 0.69962 0.0
H325 H 0.64821 0.52226 0.72754 0.0
H326 H 0.65542 0.49581 0.74166 0.0
H327 H 0.62845 0.50869 0.75527 0.0
C328 C 0.64662 0.41999 0.75555 0.0
C329 C 0.64098 0.42609 0.7833 0.0
C330 C 0.63796 0.4318 0.73454 0.0
C331 C 0.62361 0.45014 0.7407 0.0
C332 C 0.61796 0.45626 0.76838 0.0
H333 H 0.54533 0.53905 0.64866 0.0
H334 H 0.56363 0.5188 0.6833 0.0
C335 C 0.62659 0.44446 0.7894 0.0
C336 C 0.61376 0.46221 0.7182 0.0
H337 H 0.61471 0.51797 0.69426 0.0
C338 C 0.59699 0.44762 0.69834 0.0
C339 C 0.62043 0.48791 0.71641 0.0
C340 C 0.63931 0.50459 0.73619 0.0
C341 C 0.58618 0.45799 0.67735 0.0
C342 C 0.59266 0.48372 0.67572 0.0
C343 C 0.60963 0.49828 0.69543 0.0
C344 C 0.58161 0.49597 0.65417 0.0
C345 C 0.56721 0.44131 0.65764 0.0
C346 C 0.58579 0.49022 0.62605 0.0
C347 C 0.57524 0.50178 0.60606 0.0
C348 C 0.56038 0.51954 0.61369 0.0
C349 C 0.55657 0.52548 0.64188 0.0
C350 C 0.56709 0.5139 0.66181 0.0
H351 H 0.55895 0.42334 0.66591 0.0
H352 H 0.55065 0.44982 0.65295 0.0
H353 H 0.57779 0.43787 0.63816 0.0
H354 H 0.59742 0.4769 0.6195 0.0
H355 H 0.57883 0.49683 0.58462 0.0
H356 H 0.92334 0.63032 0.30472 0.0
H357 H 0.93989 0.60806 0.26531 0.0
H358 H 0.91023 0.65177 0.21056 0.0
H359 H 0.89309 0.67376 0.24986 0.0
H360 H 0.89781 0.60336 0.19339 0.0
H361 H 0.00417 0.63119 0.21786 0.0
H362 H 0.98439 0.61713 0.2453 0.0
H363 H 0.97984 0.64591 0.23493 0.0
C364 C 0.9205 0.63534 0.28431 0.0
C365 C 0.90699 0.65391 0.28047 0.0
C366 C 0.9301 0.62266 0.26178 0.0
C367 C 0.92668 0.62848 0.23496 0.0
C368 C 0.9132 0.64701 0.23106 0.0
H369 H 0.00985 0.58149 0.09068 0.0
H370 H 0.9919 0.60466 0.12834 0.0
C371 C 0.90347 0.65962 0.25357 0.0
C372 C 0.93651 0.61482 0.21094 0.0
H373 H 0.99197 0.59921 0.18247 0.0
C374 C 0.91842 0.60253 0.19093 0.0
C375 C 0.96346 0.61399 0.20754 0.0
C376 C 0.98414 0.62795 0.22739 0.0
C377 C 0.92647 0.58917 0.16785 0.0
C378 C 0.95326 0.58761 0.16499 0.0
C379 C 0.97139 0.60018 0.1848 0.0
C380 C 0.9631 0.5735 0.14135 0.0
C381 C 0.9063 0.57729 0.1465 0.0
C382 C 0.9529 0.54823 0.13606 0.0
C383 C 0.96297 0.53497 0.1143 0.0
C384 C 0.98361 0.54671 0.09767 0.0
C385 C 0.99379 0.57197 0.10301 0.0
C386 C 0.98363 0.58522 0.12461 0.0
H387 H 0.88887 0.58582 0.14772 0.0
H388 H 0.91493 0.57857 0.12548 0.0
H389 H 0.8993 0.55763 0.14998 0.0
H390 H 0.93748 0.53865 0.14906 0.0
H391 H 0.95489 0.51548 0.11077 0.0
H392 H 0.33901 0.224 0.1903 0.0
H393 H 0.35732 0.18729 0.18282 0.0
H394 H 0.4267 0.22954 0.14524 0.0
H395 H 0.40899 0.26644 0.15348 0.0
H396 H 0.40208 0.18337 0.11538 0.0
H397 H 0.42194 0.17398 0.22472 0.0
H398 H 0.38952 0.1777 0.21678 0.0
H399 H 0.4175 0.20239 0.21282 0.0
C400 C 0.35844 0.22566 0.18114 0.0
C401 C 0.37287 0.24836 0.1733 0.0
C402 C 0.36876 0.20458 0.17661 0.0
C403 C 0.39357 0.20582 0.16394 0.0
C404 C 0.40761 0.22825 0.15527 0.0
H405 H 0.50501 0.11289 0.14089 0.0
H406 H 0.48088 0.14476 0.15542 0.0
C407 C 0.3974 0.2493 0.15993 0.0
C408 C 0.4049 0.18375 0.15921 0.0
H409 H 0.43216 0.14397 0.19192 0.0
C410 C 0.40848 0.17462 0.13209 0.0
C411 C 0.41343 0.17258 0.18109 0.0
C412 C 0.41064 0.18215 0.21054 0.0
C413 C 0.42046 0.15463 0.12625 0.0
C414 C 0.42899 0.14344 0.14811 0.0
C415 C 0.42539 0.15251 0.17525 0.0
C416 C 0.44278 0.12301 0.14284 0.0
C417 C 0.42455 0.14595 0.0967 0.0
C418 C 0.42915 0.09996 0.13187 0.0
C419 C 0.44283 0.08165 0.12367 0.0
C420 C 0.47043 0.08612 0.12617 0.0
C421 C 0.48379 0.10883 0.13857 0.0
C422 C 0.47005 0.12708 0.14691 0.0
H423 H 0.42055 0.1589 0.08224 0.0
H424 H 0.44508 0.14354 0.09324 0.0
H425 H 0.41105 0.12791 0.09188 0.0
H426 H 0.40806 0.09644 0.12879 0.0
H427 H 0.43189 0.06439 0.11424 0.0
H428 H 0.22012 0.92414 0.66243 0.0
H429 H 0.19143 0.94315 0.63697 0.0
H430 H 0.15842 0.87332 0.59403 0.0
H431 H 0.18717 0.85397 0.61952 0.0
H432 H 0.18787 0.94233 0.57699 0.0
H433 H 0.09414 0.90012 0.62927 0.0
H434 H 0.12606 0.90181 0.64387 0.0
H435 H 0.11484 0.88006 0.61542 0.0
C436 C 0.20677 0.91275 0.64761 0.0
C437 C 0.20584 0.88751 0.64307 0.0
C438 C 0.19046 0.92368 0.63303 0.0
C439 C 0.17278 0.90958 0.61382 0.0
C440 C 0.17183 0.88442 0.60901 0.0
H441 H 0.08165 0.97524 0.50439 0.0
H442 H 0.10941 0.9496 0.52138 0.0
C443 C 0.18829 0.87344 0.62352 0.0
C444 C 0.15531 0.92148 0.59909 0.0
H445 H 0.09164 0.92781 0.59646 0.0
C446 C 0.16677 0.939 0.58093 0.0
C447 C 0.12789 0.91713 0.60458 0.0
C448 C 0.11486 0.89888 0.62445 0.0
C449 C 0.15153 0.95268 0.56847 0.0
C450 C 0.12418 0.94859 0.57429 0.0
C451 C 0.11263 0.93074 0.59201 0.0
C452 C 0.10756 0.96388 0.56372 0.0
C453 C 0.16485 0.97208 0.55002 0.0
C454 C 0.09729 0.98017 0.58199 0.0
C455 C 0.08163 0.99483 0.57238 0.0
C456 C 0.07581 0.99326 0.54436 0.0
C457 C 0.08601 0.97687 0.52607 0.0
C458 C 0.10183 0.96227 0.5357 0.0
H459 H 0.18671 0.97537 0.55082 0.0
H460 H 0.15874 0.9662 0.52852 0.0
H461 H 0.15875 0.9896 0.55586 0.0
H462 H 0.10152 0.98161 0.6037 0.0
H463 H 0.0739 1.00723 0.58693 0.0
H464 H 0.74804 0.3738 0.92371 0.0
H465 H 0.79084 0.39553 0.94177 0.0
H466 H 0.78549 0.45873 0.89991 0.0
H467 H 0.74245 0.43706 0.88154 0.0
H468 H 0.83792 0.41735 0.91066 0.0
H469 H 0.80088 0.48524 0.98201 0.0
H470 H 0.77964 0.45709 0.96833 0.0
H471 H 0.79007 0.48202 0.94703 0.0
C472 C 0.75584 0.39234 0.91828 0.0
C473 C 0.74159 0.40365 0.90117 0.0
C474 C 0.78041 0.40473 0.92864 0.0
C475 C 0.7913 0.42885 0.92247 0.0
C476 C 0.77733 0.44022 0.90525 0.0
H477 H 0.93506 0.53129 0.98158 0.0
H478 H 0.8929 0.51222 0.95998 0.0
C479 C 0.75277 0.42775 0.89464 0.0
C480 C 0.81739 0.44182 0.93395 0.0
H481 H 0.84685 0.4884 0.97996 0.0
C482 C 0.8399 0.43292 0.92577 0.0
C483 C 0.82001 0.46222 0.95355 0.0
C484 C 0.79641 0.47222 0.9635 0.0
C485 C 0.86493 0.44389 0.93653 0.0
C486 C 0.86751 0.46392 0.95674 0.0
C487 C 0.84499 0.47302 0.96461 0.0
C488 C 0.89326 0.47551 0.97012 0.0
C489 C 0.88844 0.43417 0.92564 0.0
C490 C 0.90749 0.46143 0.98355 0.0
C491 C 0.93175 0.47229 0.9958 0.0
C492 C 0.94223 0.4976 0.99536 0.0
C493 C 0.92766 0.51177 0.98245 0.0
C494 C 0.90348 0.50086 0.97001 0.0
H495 H 0.88474 0.42462 0.90483 0.0
H496 H 0.90636 0.4491 0.92466 0.0
H497 H 0.89239 0.4207 0.93942 0.0
H498 H 0.89977 0.44199 0.98472 0.0
H499 H 0.94222 0.46081 1.00578 0.0
H500 H 0.76664 0.67455 0.40233 0.0
H501 H 0.72572 0.65769 0.42651 0.0
H502 H 0.76455 0.60902 0.4649 0.0
H503 H 0.80561 0.62557 0.44049 0.0
H504 H 0.7131 0.58679 0.44681 0.0
H505 H 0.71571 0.67464 0.50903 0.0
H506 H 0.71736 0.67744 0.47268 0.0
H507 H 0.74376 0.66848 0.48926 0.0
C508 C 0.76647 0.6601 0.41571 0.0
C509 C 0.78948 0.65159 0.4197 0.0
C510 C 0.74309 0.65059 0.42963 0.0
C511 C 0.74229 0.63251 0.44793 0.0
C512 C 0.76484 0.62313 0.45101 0.0
H513 H 0.61838 0.59958 0.57246 0.0
H514 H 0.66119 0.60983 0.54871 0.0
C515 C 0.78827 0.6326 0.43704 0.0
C516 C 0.71814 0.62397 0.46443 0.0
H517 H 0.67619 0.64405 0.5115 0.0
C518 C 0.70507 0.59924 0.46108 0.0
C519 C 0.70801 0.64017 0.4834 0.0
C520 C 0.72204 0.66661 0.48907 0.0
C521 C 0.68162 0.59045 0.47559 0.0
C522 C 0.67084 0.60693 0.49358 0.0
C523 C 0.68437 0.63148 0.49753 0.0
C524 C 0.6452 0.59935 0.50801 0.0
C525 C 0.66874 0.56357 0.47168 0.0
C526 C 0.62205 0.59021 0.49301 0.0
C527 C 0.59768 0.58435 0.5065 0.0
C528 C 0.596 0.58772 0.53524 0.0
C529 C 0.61916 0.5968 0.55029 0.0
C530 C 0.64357 0.60263 0.53676 0.0
H531 H 0.68309 0.55244 0.46402 0.0
H532 H 0.65974 0.55662 0.49115 0.0
H533 H 0.6529 0.56088 0.45628 0.0
H534 H 0.62275 0.5881 0.4708 0.0
H535 H 0.58009 0.57753 0.49439 0.0
H536 H 0.31535 0.36475 0.11001 0.0
H537 H 0.27907 0.3815 0.09461 0.0
H538 H 0.23076 0.35225 0.16239 0.0
H539 H 0.26696 0.33557 0.17808 0.0
H540 H 0.22648 0.35801 0.08027 0.0
H541 H 0.23009 0.42602 0.17023 0.0
H542 H 0.25643 0.41028 0.16176 0.0
H543 H 0.22694 0.39494 0.17857 0.0
C544 C 0.29696 0.36174 0.12157 0.0
C545 C 0.29412 0.34895 0.14539 0.0
C546 C 0.27625 0.37134 0.11273 0.0
C547 C 0.25241 0.36848 0.12762 0.0
C548 C 0.24919 0.35506 0.15089 0.0
H549 H 0.10217 0.39347 0.07907 0.0
H550 H 0.13874 0.37629 0.09253 0.0
C551 C 0.26986 0.34541 0.15972 0.0
C552 C 0.231 0.37975 0.11894 0.0
H553 H 0.19457 0.422 0.13963 0.0
C554 C 0.21951 0.37202 0.0932 0.0
C555 C 0.22223 0.39828 0.13571 0.0
C556 C 0.23467 0.40809 0.16301 0.0
C557 C 0.19909 0.38199 0.08401 0.0
C558 C 0.18978 0.39998 0.10114 0.0
C559 C 0.20162 0.40806 0.12664 0.0
C560 C 0.16763 0.41053 0.09301 0.0
C561 C 0.18785 0.3734 0.05592 0.0
C562 C 0.1716 0.43563 0.08944 0.0
C563 C 0.15072 0.44554 0.0816 0.0
C564 C 0.12542 0.43054 0.07737 0.0
C565 C 0.12149 0.40547 0.08152 0.0
C566 C 0.14236 0.3956 0.08927 0.0
H567 H 0.20126 0.36421 0.04286 0.0
H568 H 0.16882 0.36005 0.05807 0.0
H569 H 0.18402 0.38897 0.0453 0.0
H570 H 0.19096 0.44749 0.09235 0.0
H571 H 0.15453 0.46485 0.07838 0.0
H572 H 0.60004 0.2755 0.92907 0.0
H573 H 0.57554 0.23879 0.94998 0.0
H574 H 0.64875 0.21847 0.96545 0.0
H575 H 0.67325 0.25503 0.94511 0.0
H576 H 0.5735 0.18938 0.93646 0.0
H577 H 0.614 0.21574 0.04079 0.0
H578 H 0.61771 0.23718 0.01471 0.0
H579 H 0.63913 0.21597 0.01477 0.0
C580 C 0.61092 0.26324 0.93696 0.0
C581 C 0.63869 0.26842 0.93554 0.0
C582 C 0.59688 0.24223 0.94893 0.0
C583 C 0.61027 0.22603 0.95987 0.0
C584 C 0.63792 0.23092 0.95787 0.0
H585 H 0.56827 0.08801 0.0371 0.0
H586 H 0.59068 0.12535 0.01602 0.0
C587 C 0.65193 0.25185 0.946 0.0
C588 C 0.59552 0.20382 0.97298 0.0
H589 H 0.59049 0.17442 0.03209 0.0
C590 C 0.57705 0.18622 0.95744 0.0
C591 C 0.60012 0.19957 1.00039 0.0
C592 C 0.61862 0.21821 0.01874 0.0
C593 C 0.56369 0.16431 0.96825 0.0
C594 C 0.56854 0.15994 0.99554 0.0
C595 C 0.58683 0.17763 0.01115 0.0
C596 C 0.55483 0.1372 1.00832 0.0
C597 C 0.54502 0.14568 0.95005 0.0
C598 C 0.52723 0.13153 0.01147 0.0
C599 C 0.51442 0.11023 0.02353 0.0
C600 C 0.5289 0.09412 0.03279 0.0
C601 C 0.55654 0.09996 0.03001 0.0
C602 C 0.56937 0.12132 0.01799 0.0
H603 H 0.54863 0.14877 0.92799 0.0
H604 H 0.54685 0.12678 0.95324 0.0
H605 H 0.52444 0.14714 0.9552 0.0
H606 H 0.51557 0.1437 1.0048 0.0
H607 H 0.49312 0.10638 0.02559 0.0
H608 H 0.91304 0.77603 0.36709 0.0
H609 H 0.92885 0.81775 0.38784 0.0
H610 H 0.94284 0.78903 0.46369 0.0
H611 H 0.92676 0.74738 0.44334 0.0
H612 H 0.91268 0.82385 0.47063 0.0
H613 H 1.00229 0.85755 0.40815 0.0
H614 H 0.97309 0.84501 0.38851 0.0
H615 H 0.98687 0.82544 0.40835 0.0
C616 C 0.91998 0.77856 0.38801 0.0
C617 C 0.91855 0.75833 0.40356 0.0
C618 C 0.92909 0.80245 0.39983 0.0
C619 C 0.93718 0.80651 0.42728 0.0
C620 C 0.93669 0.78632 0.44248 0.0
H621 H 0.98718 0.9314 0.54486 0.0
H622 H 0.97309 0.89062 0.5213 0.0
C623 C 0.92753 0.7625 0.43076 0.0
C624 C 0.94424 0.83169 0.44092 0.0
H625 H 0.98756 0.88695 0.43892 0.0
C626 C 0.92912 0.83762 0.46376 0.0
C627 C 0.96558 0.84967 0.43181 0.0
C628 C 0.98307 0.84412 0.40801 0.0
C629 C 0.93465 0.86106 0.47765 0.0
C630 C 0.95611 0.87897 0.46871 0.0
C631 C 0.97109 0.87316 0.44571 0.0
C632 C 0.96367 0.9037 0.48329 0.0
C633 C 0.91722 0.86657 0.50154 0.0
C634 C 0.96325 0.92462 0.46967 0.0
C635 C 0.97131 0.948 0.48308 0.0
C636 C 0.98018 0.9509 0.51031 0.0
C637 C 0.98032 0.92986 0.52396 0.0
C638 C 0.9722 0.9065 0.51055 0.0
H639 H 0.8979 0.85327 0.50128 0.0
H640 H 0.92714 0.8654 0.521 0.0
H641 H 0.91362 0.88534 0.50144 0.0
H642 H 0.95681 0.92285 0.4486 0.0
H643 H 0.97107 0.96378 0.47189 0.0
H644 H 0.28897 0.7879 0.61909 0.0
H645 H 0.31572 0.75789 0.60568 0.0
H646 H 0.37891 0.81557 0.58023 0.0
H647 H 0.35235 0.84579 0.59354 0.0
H648 H 0.34631 0.7483 0.55254 0.0
H649 H 0.40629 0.7827 0.64599 0.0
H650 H 0.37372 0.78829 0.6422 0.0
H651 H 0.40112 0.80495 0.62352 0.0
C652 C 0.30836 0.79417 0.61017 0.0
C653 C 0.31867 0.81925 0.60766 0.0
C654 C 0.32356 0.77699 0.60246 0.0
C655 C 0.34928 0.78463 0.59225 0.0
C656 C 0.3591 0.80943 0.58823 0.0
H657 H 0.47591 0.70527 0.58467 0.0
H658 H 0.45052 0.73673 0.58071 0.0
C659 C 0.34389 0.82663 0.59582 0.0
C660 C 0.36667 0.76703 0.58849 0.0
H661 H 0.4173 0.74994 0.6187 0.0
C662 C 0.36198 0.74868 0.56682 0.0
C663 C 0.38703 0.76773 0.60721 0.0
C664 C 0.39239 0.78684 0.63118 0.0
C665 C 0.37724 0.73082 0.5634 0.0
C666 C 0.39716 0.7311 0.58261 0.0
C667 C 0.40207 0.74979 0.60396 0.0
C668 C 0.41242 0.71165 0.58193 0.0
C669 C 0.37201 0.712 0.53917 0.0
C670 C 0.39944 0.68711 0.58385 0.0
C671 C 0.4139 0.66913 0.586 0.0
C672 C 0.44159 0.67545 0.58673 0.0
C673 C 0.45457 0.69995 0.58442 0.0
C674 C 0.44011 0.71788 0.58201 0.0
H675 H 0.36277 0.71887 0.52214 0.0
H676 H 0.39047 0.70678 0.53139 0.0
H677 H 0.35815 0.69533 0.54555 0.0
H678 H 0.3781 0.68198 0.58464 0.0
H679 H 0.40338 0.65044 0.58813 0.0
H680 H 0.75852 0.83877 0.82313 0.0
H681 H 0.79113 0.8689 0.79978 0.0
H682 H 0.78885 0.81715 0.72903 0.0
H683 H 0.75551 0.78739 0.75176 0.0
H684 H 0.84006 0.86417 0.78262 0.0
H685 H 0.78352 0.8785 0.69372 0.0
H686 H 0.76785 0.86393 0.72329 0.0
H687 H 0.78247 0.84669 0.6968 0.0
C688 C 0.76418 0.83414 0.80224 0.0
C689 C 0.7539 0.8109 0.78905 0.0
C690 C 0.78311 0.85127 0.78905 0.0
C691 C 0.79207 0.84546 0.76245 0.0
C692 C 0.78175 0.8223 0.74924 0.0
H693 H 0.94099 0.90145 0.68364 0.0
H694 H 0.90367 0.87868 0.70916 0.0
C695 C 0.76283 0.80523 0.76237 0.0
C696 C 0.81359 0.86277 0.7492 0.0
H697 H 0.83067 0.89089 0.69004 0.0
C698 C 0.83793 0.87026 0.76252 0.0
C699 C 0.8107 0.87096 0.72313 0.0
C700 C 0.78464 0.86482 0.70852 0.0
C701 C 0.85973 0.88498 0.75003 0.0
C702 C 0.85726 0.89195 0.72327 0.0
C703 C 0.83265 0.88524 0.7104 0.0
C704 C 0.88003 0.90589 0.7081 0.0
C705 C 0.88516 0.89297 0.76569 0.0
C706 C 0.87886 0.92843 0.69838 0.0
C707 C 0.90008 0.94138 0.68361 0.0
C708 C 0.92287 0.93201 0.67822 0.0
C709 C 0.9239 0.90934 0.68785 0.0
C710 C 0.90262 0.89635 0.70249 0.0
H711 H 0.88163 0.89251 0.78818 0.0
H712 H 0.8983 0.88028 0.75944 0.0
H713 H 0.89554 0.91178 0.76131 0.0
H714 H 0.86158 0.93609 0.70238 0.0
H715 H 0.89878 0.95891 0.67672 0.0
H716 H 0.61645 0.07909 0.45182 0.0
H717 H 0.6084 0.08389 0.40377 0.0
H718 H 0.6726 0.14737 0.40492 0.0
H719 H 0.68111 0.14241 0.45284 0.0
H720 H 0.62467 0.15204 0.37791 0.0
H721 H 0.6601 0.06831 0.34149 0.0
H722 H 0.63517 0.06389 0.36798 0.0
H723 H 0.6669 0.08344 0.37539 0.0
C724 C 0.62871 0.0942 0.4419 0.0
C725 C 0.64911 0.11064 0.45624 0.0
C726 C 0.62411 0.09689 0.41449 0.0
C727 C 0.64001 0.1159 0.40085 0.0
C728 C 0.66001 0.13269 0.41522 0.0
H729 H 0.64726 0.11156 0.22285 0.0
H730 H 0.6592 0.11791 0.27123 0.0
C731 C 0.66465 0.13 0.44269 0.0
C732 C 0.63639 0.11751 0.37125 0.0
H733 H 0.63871 0.08595 0.30884 0.0
C734 C 0.62788 0.13772 0.36272 0.0
C735 C 0.64107 0.09898 0.35153 0.0
C736 C 0.65155 0.07752 0.35943 0.0
C737 C 0.62304 0.13945 0.33493 0.0
C738 C 0.62655 0.12032 0.31537 0.0
C739 C 0.63587 0.10053 0.32389 0.0
C740 C 0.61999 0.11988 0.28605 0.0
C741 C 0.61436 0.16175 0.32676 0.0
C742 C 0.59406 0.11922 0.27831 0.0
C743 C 0.58721 0.11584 0.25062 0.0
C744 C 0.60612 0.11279 0.23017 0.0
C745 C 0.63227 0.11419 0.238 0.0
C746 C 0.63911 0.11765 0.26566 0.0
H747 H 0.62016 0.17757 0.34223 0.0
H748 H 0.62289 0.16712 0.30652 0.0
H749 H 0.59254 0.15754 0.32523 0.0
H750 H 0.57887 0.12043 0.2937 0.0
H751 H 0.56696 0.1151 0.24528 0.0
H752 H 0.45022 0.67558 0.29518 0.0
H753 H 0.46487 0.65452 0.33163 0.0
H754 H 0.42146 0.69161 0.39136 0.0
H755 H 0.4063 0.71238 0.35494 0.0
H756 H 0.49359 0.67106 0.37776 0.0
H757 H 0.39377 0.62116 0.40775 0.0
H758 H 0.39983 0.63706 0.37686 0.0
H759 H 0.39741 0.65379 0.40954 0.0
C760 C 0.44381 0.67934 0.31607 0.0
C761 C 0.42691 0.69563 0.322 0.0
C762 C 0.45222 0.66723 0.33696 0.0
C763 C 0.44389 0.67099 0.36431 0.0
C764 C 0.42766 0.68781 0.3704 0.0
H765 H 0.47496 0.61088 0.51703 0.0
H766 H 0.46031 0.63409 0.48255 0.0
C767 C 0.41917 0.69988 0.34952 0.0
C768 C 0.45235 0.65741 0.38632 0.0
H769 H 0.42909 0.61814 0.43586 0.0
C770 C 0.47944 0.65945 0.39038 0.0
C771 C 0.43399 0.64221 0.40297 0.0
C772 C 0.40463 0.63818 0.39896 0.0
C773 C 0.48863 0.64703 0.41063 0.0
C774 C 0.47029 0.63174 0.42715 0.0
C775 C 0.4432 0.62985 0.42329 0.0
C776 C 0.47883 0.61723 0.44815 0.0
C777 C 0.51798 0.65078 0.41449 0.0
C778 C 0.49369 0.59959 0.4404 0.0
C779 C 0.50204 0.58622 0.46007 0.0
C780 C 0.49568 0.59006 0.48808 0.0
C781 C 0.48032 0.60741 0.49574 0.0
C782 C 0.47191 0.62074 0.476 0.0
H783 H 0.52896 0.66784 0.40585 0.0
H784 H 0.52283 0.65164 0.43656 0.0
H785 H 0.525 0.63515 0.40371 0.0
H786 H 0.49882 0.59609 0.41903 0.0
H787 H 0.5137 0.57299 0.45327 0.0
H788 H 0.177 0.45157 0.78604 0.0
H789 H 0.15981 0.47412 0.82499 0.0
H790 H 0.10076 0.40943 0.84029 0.0
H791 H 0.11788 0.38673 0.80182 0.0
H792 H 0.10907 0.48271 0.83215 0.0
H793 H 0.13249 0.43073 0.91603 0.0
H794 H 0.14698 0.4287 0.88212 0.0
H795 H 0.11413 0.41166 0.88877 0.0
C796 C 0.1605 0.44208 0.79783 0.0
C797 C 0.14891 0.41729 0.79082 0.0
C798 C 0.15068 0.455 0.82007 0.0
C799 C 0.12928 0.44334 0.83583 0.0
C800 C 0.11767 0.41865 0.82884 0.0
H801 H 0.02836 0.48549 0.96697 0.0
H802 H 0.05032 0.46406 0.93064 0.0
C803 C 0.12742 0.40574 0.80667 0.0
C804 C 0.1182 0.45718 0.8588 0.0
H805 H 0.10308 0.45739 0.92731 0.0
C806 C 0.108 0.47734 0.85301 0.0
C807 C 0.11672 0.45007 0.88599 0.0
C808 C 0.12838 0.42925 0.89372 0.0
C809 C 0.09569 0.49018 0.87351 0.0
C810 C 0.09393 0.48288 0.90062 0.0
C811 C 0.10438 0.46289 0.90649 0.0
C812 C 0.08116 0.49572 0.92314 0.0
C813 C 0.08398 0.51098 0.86581 0.0
C814 C 0.0915 0.52047 0.9313 0.0
C815 C 0.07905 0.53269 0.95204 0.0
C816 C 0.05611 0.52034 0.9651 0.0
C817 C 0.04606 0.49543 0.9573 0.0
C818 C 0.05855 0.4832 0.93655 0.0
H819 H 0.0813 0.51042 0.8433 0.0
H820 H 0.06459 0.51053 0.8762 0.0
H821 H 0.09741 0.52865 0.87242 0.0
H822 H 0.10921 0.53034 0.92159 0.0
H823 H 0.08733 0.55184 0.95777 0.0
H824 H 0.69853 0.90111 0.89378 0.0
H825 H 0.67808 0.92904 0.924 0.0
H826 H 0.60104 0.88504 0.90382 0.0
H827 H 0.62119 0.85698 0.87386 0.0
H828 H 0.63991 0.95636 0.91226 0.0
H829 H 0.60233 0.88857 0.98826 0.0
H830 H 0.62716 0.8844 0.96275 0.0
H831 H 0.59295 0.87801 0.95355 0.0
C832 C 0.67723 0.89741 0.89573 0.0
C833 C 0.6615 0.87669 0.88157 0.0
C834 C 0.6656 0.91339 0.91298 0.0
C835 C 0.6381 0.90885 0.91648 0.0
C836 C 0.62234 0.88859 0.90181 0.0
H837 H 0.52403 0.97353 1.00973 0.0
H838 H 0.54787 0.94925 0.97878 0.0
C839 C 0.63391 0.87263 0.88459 0.0
C840 C 0.62575 0.92515 0.93556 0.0
H841 H 0.58672 0.92544 0.99298 0.0
C842 C 0.62844 0.94971 0.93004 0.0
C843 C 0.61086 0.91637 0.95875 0.0
C844 C 0.6083 0.89046 0.9664 0.0
C845 C 0.61588 0.96555 0.94663 0.0
C846 C 0.60064 0.95665 0.96957 0.0
C847 C 0.59832 0.93219 0.97531 0.0
C848 C 0.58641 0.97216 0.98765 0.0
C849 C 0.61835 0.99145 0.93901 0.0
C850 C 0.6002 0.99308 1.00301 0.0
C851 C 0.58661 1.00707 0.02075 0.0
C852 C 0.559 1.00027 0.02358 0.0
C853 C 0.54529 0.97931 1.0081 0.0
C854 C 0.55887 0.96539 0.99038 0.0
H855 H 0.62535 0.99364 0.91749 0.0
H856 H 0.59915 0.99704 0.94162 0.0
H857 H 0.63281 1.00407 0.9527 0.0
H858 H 0.62151 0.99836 1.00161 0.0
H859 H 0.59778 0.02303 0.03247 0.0
H860 H 0.73089 0.02998 0.53081 0.0
H861 H 0.77642 0.02498 0.53179 0.0
H862 H 0.80366 0.10299 0.54852 0.0
H863 H 0.75818 0.10825 0.54734 0.0
H864 H 0.83388 0.0808 0.50752 0.0
H865 H 0.81886 0.03272 0.60342 0.0
H866 H 0.79586 0.01968 0.57665 0.0
H867 H 0.79594 0.0498 0.59238 0.0
C868 C 0.74654 0.04609 0.53468 0.0
C869 C 0.7409 0.0695 0.53922 0.0
C870 C 0.77253 0.04318 0.53528 0.0
C871 C 0.79329 0.06358 0.54054 0.0
C872 C 0.78784 0.08702 0.54449 0.0
H873 H 0.9488 0.06227 0.59558 0.0
H874 H 0.90561 0.07108 0.58837 0.0
C875 C 0.76185 0.08997 0.54391 0.0
C876 C 0.82066 0.0604 0.54257 0.0
H877 H 0.85991 0.03482 0.58045 0.0
C878 C 0.83965 0.07078 0.52345 0.0
C879 C 0.82807 0.04755 0.56357 0.0
C880 C 0.80872 0.03695 0.58535 0.0
C881 C 0.86594 0.06837 0.52463 0.0
C882 C 0.87319 0.05507 0.54531 0.0
C883 C 0.85421 0.04489 0.56452 0.0
C884 C 0.90048 0.05185 0.54799 0.0
C885 C 0.88581 0.08043 0.50412 0.0
C886 C 0.91205 0.0384 0.52747 0.0
C887 C 0.9368 0.03337 0.53153 0.0
C888 C 0.95014 0.04156 0.55627 0.0
C889 C 0.93887 0.05565 0.57637 0.0
C890 C 0.91423 0.0607 0.57229 0.0
H891 H 0.87857 0.0945 0.49375 0.0
H892 H 0.90478 0.08917 0.51423 0.0
H893 H 0.8897 0.06631 0.48819 0.0
H894 H 0.90155 0.03109 0.50875 0.0
H895 H 0.94508 0.02243 0.51574 0.0
H896 H 0.30727 0.66016 0.12607 0.0
H897 H 0.26616 0.63584 0.10654 0.0
H898 H 0.22332 0.65646 0.17832 0.0
H899 H 0.26457 0.68062 0.19832 0.0
H900 H 0.20669 0.60712 0.16032 0.0
H901 H 0.21054 0.6656 0.07377 0.0
H902 H 0.23943 0.65333 0.07624 0.0
H903 H 0.23165 0.67461 0.10315 0.0
C904 C 0.28916 0.65949 0.13784 0.0
C905 C 0.28927 0.67257 0.16372 0.0
C906 C 0.2656 0.64564 0.12652 0.0
C907 C 0.24151 0.64469 0.14066 0.0
C908 C 0.24162 0.65703 0.16692 0.0
H909 H 0.08582 0.60517 0.06988 0.0
H910 H 0.12754 0.62511 0.09143 0.0
C911 C 0.26524 0.67086 0.17832 0.0
C912 C 0.21622 0.63125 0.12781 0.0
H913 H 0.17741 0.62904 0.07205 0.0
C914 C 0.20026 0.61191 0.14103 0.0
C915 C 0.20762 0.63767 0.10278 0.0
C916 C 0.22305 0.65908 0.08825 0.0
C917 C 0.17615 0.59871 0.1298 0.0
C918 C 0.16791 0.60474 0.10441 0.0
C919 C 0.1838 0.62421 0.09134 0.0
C920 C 0.14233 0.59199 0.09161 0.0
C921 C 0.1594 0.57884 0.14559 0.0
C922 C 0.13666 0.56663 0.08421 0.0
C923 C 0.1126 0.55505 0.07186 0.0
C924 C 0.0938 0.56863 0.06645 0.0
C925 C 0.09972 0.59404 0.07367 0.0
C926 C 0.12365 0.60554 0.08603 0.0
H927 H 0.16509 0.58066 0.1675 0.0
H928 H 0.13817 0.57918 0.14452 0.0
H929 H 0.16206 0.56073 0.1365 0.0
H930 H 0.15094 0.55582 0.08771 0.0
H931 H 0.10881 0.53549 0.06648 0.0
H932 H 0.29233 0.41493 0.69985 0.0
H933 H 0.33314 0.43505 0.67746 0.0
H934 H 0.28874 0.47135 0.62796 0.0
H935 H 0.24782 0.45145 0.65037 0.0
H936 H 0.34537 0.43102 0.6211 0.0
H937 H 0.34804 0.52757 0.65923 0.0
H938 H 0.3275 0.50189 0.67485 0.0
H939 H 0.31759 0.51164 0.64352 0.0
C940 C 0.29123 0.42735 0.68438 0.0
C941 C 0.26679 0.43162 0.67695 0.0
C942 C 0.31459 0.43881 0.67157 0.0
C943 C 0.31402 0.4549 0.65127 0.0
C944 C 0.28969 0.45934 0.64392 0.0
H945 H 0.43679 0.50041 0.52936 0.0
H946 H 0.3953 0.4841 0.55326 0.0
C947 C 0.2663 0.44784 0.65666 0.0
C948 C 0.33875 0.46616 0.63696 0.0
H949 H 0.37938 0.521 0.62461 0.0
C950 C 0.35284 0.45069 0.6219 0.0
C951 C 0.34856 0.49182 0.63824 0.0
C952 C 0.33481 0.50925 0.65501 0.0
C953 C 0.3763 0.46018 0.60778 0.0
C954 C 0.38577 0.48585 0.6085 0.0
C955 C 0.37191 0.50134 0.62388 0.0
C956 C 0.41039 0.49687 0.59387 0.0
C957 C 0.39101 0.44265 0.59258 0.0
C958 C 0.43237 0.51006 0.60873 0.0
C959 C 0.45606 0.5194 0.59513 0.0
C960 C 0.45808 0.51587 0.56642 0.0
C961 C 0.43583 0.50329 0.55151 0.0
C962 C 0.41216 0.49388 0.56513 0.0
H963 H 0.38446 0.42376 0.59912 0.0
H964 H 0.38736 0.44202 0.57027 0.0
H965 H 0.41259 0.44881 0.59582 0.0
H966 H 0.43137 0.51264 0.63091 0.0
H967 H 0.4729 0.52901 0.60715 0.0
H968 H 0.76181 0.67549 0.82854 0.0
H969 H 0.79319 0.65761 0.8517 0.0
H970 H 0.78658 0.70476 0.92473 0.0
H971 H 0.75551 0.72305 0.90159 0.0
H972 H 0.83787 0.70551 0.90938 0.0
H973 H 0.78108 0.60968 0.91129 0.0
H974 H 0.78412 0.62076 0.87772 0.0
H975 H 0.76601 0.63454 0.90419 0.0
C976 C 0.76681 0.68189 0.84962 0.0
C977 C 0.75615 0.7007 0.86323 0.0
C978 C 0.78463 0.67154 0.86288 0.0
C979 C 0.79193 0.67962 0.89006 0.0
C980 C 0.7811 0.69818 0.90379 0.0
H981 H 0.88521 0.61422 0.99497 0.0
H982 H 0.84987 0.6288 0.97415 0.0
C983 C 0.76333 0.70859 0.89054 0.0
C984 C 0.81209 0.66981 0.90359 0.0
H985 H 0.82672 0.6171 0.9223 0.0
C986 C 0.83537 0.6862 0.91236 0.0
C987 C 0.80866 0.64466 0.9077 0.0
C988 C 0.78352 0.6264 0.89998 0.0
C989 C 0.85556 0.67805 0.92463 0.0
C990 C 0.85258 0.65277 0.92776 0.0
C991 C 0.82906 0.63643 0.91957 0.0
C992 C 0.87365 0.64301 0.93964 0.0
C993 C 0.87979 0.69664 0.93443 0.0
C994 C 0.89852 0.6457 0.92679 0.0
C995 C 0.91871 0.63737 0.93858 0.0
C996 C 0.91434 0.62601 0.96336 0.0
C997 C 0.88915 0.62272 0.97577 0.0
C998 C 0.86898 0.63112 0.96398 0.0
H999 H 0.87604 0.71544 0.93716 0.0
H1000 H 0.88668 0.69204 0.95419 0.0
H1001 H 0.89588 0.69669 0.91898 0.0
H1002 H 0.90234 0.65433 0.90766 0.0
H1003 H 0.93773 0.63975 0.92824 0.0
H1004 H 0.3767 0.80437 0.19055 0.0
H1005 H 0.39648 0.84446 0.17464 0.0
H1006 H 0.46923 0.84378 0.21416 0.0
H1007 H 0.44947 0.80345 0.23046 0.0
H1008 H 0.42125 0.89012 0.20732 0.0
H1009 H 0.48935 0.85599 0.1314 0.0
H1010 H 0.46067 0.836 0.14514 0.0
H1011 H 0.48948 0.84681 0.16576 0.0
C1012 C 0.39692 0.81265 0.19599 0.0
C1013 C 0.41149 0.80046 0.21176 0.0
C1014 C 0.40818 0.83569 0.18688 0.0
C1015 C 0.43442 0.84711 0.19294 0.0
C1016 C 0.44901 0.83524 0.20897 0.0
H1017 H 0.53904 0.97818 0.13819 0.0
H1018 H 0.51888 0.93995 0.15807 0.0
C1019 C 0.43765 0.8122 0.21838 0.0
C1020 C 0.44636 0.87127 0.18215 0.0
H1021 H 0.49172 0.89847 0.13585 0.0
C1022 C 0.4367 0.892 0.19173 0.0
C1023 C 0.46647 0.87373 0.16176 0.0
C1024 C 0.47709 0.85199 0.15016 0.0
C1025 C 0.44693 0.91516 0.18188 0.0
C1026 C 0.46687 0.91762 0.16118 0.0
C1027 C 0.47645 0.89678 0.15163 0.0
C1028 C 0.4787 0.94161 0.14964 0.0
C1029 C 0.43675 0.93686 0.19441 0.0
C1030 C 0.463 0.9556 0.13803 0.0
C1031 C 0.47458 0.97784 0.1269 0.0
C1032 C 0.50214 0.98634 0.1267 0.0
C1033 C 0.51775 0.97223 0.13805 0.0
C1034 C 0.50621 0.95025 0.1494 0.0
H1035 H 0.42782 0.9335 0.21505 0.0
H1036 H 0.45274 0.95364 0.19634 0.0
H1037 H 0.42122 0.94024 0.18111 0.0
H1038 H 0.4418 0.94916 0.13717 0.0
H1039 H 0.46203 0.98816 0.1181 0.0
H1040 H 0.13443 0.29334 0.65687 0.0
H1041 H 0.11883 0.25321 0.632 0.0
H1042 H 0.13594 0.21773 0.70194 0.0
H1043 H 0.15127 0.25762 0.72705 0.0
H1044 H 0.14399 0.21335 0.61863 0.0
H1045 H 0.05734 0.18805 0.6879 0.0
H1046 H 0.07643 0.21903 0.68737 0.0
H1047 H 0.0884 0.19698 0.70516 0.0
C1048 C 0.13502 0.277 0.66692 0.0
C1049 C 0.14385 0.2787 0.69407 0.0
C1050 C 0.12612 0.2541 0.65265 0.0
C1051 C 0.12579 0.23252 0.66532 0.0
C1052 C 0.13553 0.23417 0.692 0.0
H1053 H 0.06919 0.07735 0.62241 0.0
H1054 H 0.09011 0.11766 0.64369 0.0
C1055 C 0.1444 0.25701 0.70627 0.0
C1056 C 0.11469 0.20826 0.65094 0.0
H1057 H 0.06579 0.15693 0.65529 0.0
C1058 C 0.12683 0.20102 0.62654 0.0
C1059 C 0.09227 0.19226 0.6613 0.0
C1060 C 0.07766 0.19949 0.68673 0.0
C1061 C 0.11749 0.17794 0.61255 0.0
C1062 C 0.09518 0.16189 0.62305 0.0
C1063 C 0.08297 0.16922 0.64736 0.0
C1064 C 0.08398 0.1374 0.60921 0.0
C1065 C 0.13191 0.17069 0.58702 0.0
C1066 C 0.07357 0.13512 0.58274 0.0
C1067 C 0.06159 0.11208 0.57048 0.0
C1068 C 0.05965 0.0909 0.58456 0.0
C1069 C 0.07037 0.09325 0.61096 0.0
C1070 C 0.08232 0.11628 0.62318 0.0
H1071 H 0.15218 0.18219 0.58566 0.0
H1072 H 0.13319 0.15116 0.5864 0.0
H1073 H 0.12097 0.1731 0.56869 0.0
H1074 H 0.07416 0.15122 0.5718 0.0
H1075 H 0.05348 0.11095 0.55016 0.0
H1076 H 0.68063 0.24579 0.48063 0.0
H1077 H 0.67438 0.28779 0.4805 0.0
H1078 H 0.60742 0.27063 0.53527 0.0
H1079 H 0.6137 0.22888 0.53589 0.0
H1080 H 0.63067 0.30272 0.46358 0.0
H1081 H 0.65029 0.33358 0.57297 0.0
H1082 H 0.65926 0.30638 0.5568 0.0
H1083 H 0.62591 0.3055 0.56851 0.0
C1084 C 0.6647 0.25102 0.49283 0.0
C1085 C 0.64771 0.23402 0.50836 0.0
C1086 C 0.66118 0.27501 0.49272 0.0
C1087 C 0.64074 0.28242 0.50826 0.0
C1088 C 0.62373 0.26547 0.52368 0.0
H1089 H 0.56141 0.40085 0.52626 0.0
H1090 H 0.57777 0.36337 0.52783 0.0
C1091 C 0.62724 0.24154 0.52384 0.0
C1092 C 0.63618 0.30746 0.50731 0.0
H1093 H 0.62797 0.35782 0.548 0.0
C1094 C 0.63046 0.31494 0.48195 0.0
C1095 C 0.63599 0.32336 0.53133 0.0
C1096 C 0.64346 0.31692 0.5589 0.0
C1097 C 0.62334 0.33747 0.48015 0.0
C1098 C 0.62223 0.35294 0.50431 0.0
C1099 C 0.62871 0.3458 0.52955 0.0
C1100 C 0.61314 0.37608 0.504 0.0
C1101 C 0.61605 0.34413 0.45261 0.0
C1102 C 0.62787 0.39573 0.49044 0.0
C1103 C 0.61868 0.41726 0.48966 0.0
C1104 C 0.5946 0.4195 0.50249 0.0
C1105 C 0.58016 0.39986 0.51645 0.0
C1106 C 0.5894 0.37839 0.51726 0.0
H1107 H 0.6133 0.32829 0.43692 0.0
H1108 H 0.59761 0.35112 0.45432 0.0
H1109 H 0.63201 0.35888 0.44532 0.0
H1110 H 0.64648 0.39441 0.48048 0.0
H1111 H 0.6305 0.43221 0.47915 0.0
loop_
_geom_bond_atom_site_label_1
_geom_bond_atom_site_label_2
_geom_bond_distance
_geom_bond_site_symmetry_2
_ccdc_geom_bond_type
O0 Cd1 2.300 . S
O0 C7 1.275 . S
Cd1 O0 2.300 . S
Cd1 O9 2.381 . S
Cd1 O10 2.378 . S
O2 Cd3 2.385 . S
O2 C7 1.255 . S
Cd3 O2 2.385 . S
Cd3 O4 2.317 . S
O4 Cd3 2.317 . S
O4 C5 1.232 . S
C5 O4 1.232 . S
C5 O6 1.218 . S
O6 C5 1.218 . S
C7 O0 1.275 . S
C7 O2 1.255 . S
C8 O9 1.258 . S
C8 O10 1.256 . S
O9 Cd1 2.381 . S
O9 C8 1.258 . S
O10 Cd1 2.378 . S
O10 C8 1.256 . S
O11 Cd12 2.300 . S
O11 C18 1.275 . S
Cd12 O11 2.300 . S
Cd12 O20 2.381 . S
Cd12 O21 2.378 . S
O13 Cd14 2.385 . S
O13 C18 1.255 . S
Cd14 O13 2.385 . S
Cd14 O15 2.317 . S
O15 Cd14 2.317 . S
O15 C16 1.232 . S
C16 O15 1.232 . S
C16 O17 1.218 . S
O17 C16 1.218 . S
C18 O11 1.275 . S
C18 O13 1.255 . S
C19 O20 1.258 . S
C19 O21 1.256 . S
O20 Cd12 2.381 . S
O20 C19 1.258 . S
O21 Cd12 2.378 . S
O21 C19 1.256 . S
O22 Cd23 2.300 . S
O22 C29 1.275 . S
Cd23 O22 2.300 . S
Cd23 O31 2.381 . S
Cd23 O32 2.378 . S
O24 Cd25 2.385 . S
O24 C29 1.255 . S
Cd25 O24 2.385 . S
Cd25 O26 2.317 . S
O26 Cd25 2.317 . S
O26 C27 1.232 . S
C27 O26 1.232 . S
C27 O28 1.218 . S
O28 C27 1.218 . S
C29 O22 1.275 . S
C29 O24 1.255 . S
C30 O31 1.258 . S
C30 O32 1.256 . S
O31 Cd23 2.381 . S
O31 C30 1.258 . S
O32 Cd23 2.378 . S
O32 C30 1.256 . S
O33 Cd34 2.300 . S
O33 C40 1.275 . S
Cd34 O33 2.300 . S
Cd34 O42 2.381 . S
Cd34 O43 2.378 . S
O35 Cd36 2.385 . S
O35 C40 1.255 . S
Cd36 O35 2.385 . S
Cd36 O37 2.317 . S
O37 Cd36 2.317 . S
O37 C38 1.232 . S
C38 O37 1.232 . S
C38 O39 1.218 . S
O39 C38 1.218 . S
C40 O33 1.275 . S
C40 O35 1.255 . S
C41 O42 1.258 . S
C41 O43 1.256 . S
O42 Cd34 2.381 . S
O42 C41 1.258 . S
O43 Cd34 2.378 . S
O43 C41 1.256 . S
O44 Cd45 2.300 . S
O44 C51 1.275 . S
Cd45 O44 2.300 . S
Cd45 O53 2.381 . S
Cd45 O54 2.378 . S
O46 Cd47 2.385 . S
O46 C51 1.255 . S
Cd47 O46 2.385 . S
Cd47 O48 2.317 . S
O48 Cd47 2.317 . S
O48 C49 1.232 . S
C49 O48 1.232 . S
C49 O50 1.218 . S
O50 C49 1.218 . S
C51 O44 1.275 . S
C51 O46 1.255 . S
C52 O53 1.258 . S
C52 O54 1.256 . S
O53 Cd45 2.381 . S
O53 C52 1.258 . S
O54 Cd45 2.378 . S
O54 C52 1.256 . S
O55 Cd56 2.300 . S
O55 C62 1.275 . S
Cd56 O55 2.300 . S
Cd56 O64 2.381 . S
Cd56 O65 2.378 . S
O57 Cd58 2.385 . S
O57 C62 1.255 . S
Cd58 O57 2.385 . S
Cd58 O59 2.317 . S
O59 Cd58 2.317 . S
O59 C60 1.232 . S
C60 O59 1.232 . S
C60 O61 1.218 . S
O61 C60 1.218 . S
C62 O55 1.275 . S
C62 O57 1.255 . S
C63 O64 1.258 . S
C63 O65 1.256 . S
O64 Cd56 2.381 . S
O64 C63 1.258 . S
O65 Cd56 2.378 . S
O65 C63 1.256 . S
O66 Cd67 2.300 . S
O66 C73 1.275 . S
Cd67 O66 2.300 . S
Cd67 O75 2.381 . S
Cd67 O76 2.378 . S
O68 Cd69 2.385 . S
O68 C73 1.255 . S
Cd69 O68 2.385 . S
Cd69 O70 2.317 . S
O70 Cd69 2.317 . S
O70 C71 1.232 . S
C71 O70 1.232 . S
C71 O72 1.218 . S
O72 C71 1.218 . S
C73 O66 1.275 . S
C73 O68 1.255 . S
C74 O75 1.258 . S
C74 O76 1.256 . S
O75 Cd67 2.381 . S
O75 C74 1.258 . S
O76 Cd67 2.378 . S
O76 C74 1.256 . S
O77 Cd78 2.300 . S
O77 C84 1.275 . S
Cd78 O77 2.300 . S
Cd78 O86 2.381 . S
Cd78 O87 2.378 . S
O79 Cd80 2.385 . S
O79 C84 1.255 . S
Cd80 O79 2.385 . S
Cd80 O81 2.317 . S
O81 Cd80 2.317 . S
O81 C82 1.232 . S
C82 O81 1.232 . S
C82 O83 1.218 . S
O83 C82 1.218 . S
C84 O77 1.275 . S
C84 O79 1.255 . S
C85 O86 1.258 . S
C85 O87 1.256 . S
O86 Cd78 2.381 . S
O86 C85 1.258 . S
O87 Cd78 2.378 . S
O87 C85 1.256 . S
Gd88 C91 2.818 . S
Gd88 O108 2.377 . S
Gd88 O110 2.448 . S
Gd88 O111 2.506 . S
Gd88 O112 2.435 1_545 S
Gd88 O113 2.717 1_545 S
Gd88 O115 2.382 1_445 S
Gd88 O119 2.327 1_455 S
Gd89 C100 2.818 1_545 S
Gd89 O109 2.395 1_655 S
Gd89 O113 2.327 1_645 S
Gd89 O114 2.377 1_545 S
Gd89 O116 2.448 1_545 S
Gd89 O117 2.506 1_545 S
Gd89 O118 2.435 . S
Gd89 O119 2.717 . S
C90 O108 1.240 . S
C90 O109 1.240 . S
C91 Gd88 2.818 . S
C91 C92 1.510 . S
C91 O110 1.249 . S
C91 O111 1.252 . S
C92 C91 1.510 . S
C92 C93 1.404 . S
C92 C94 1.352 . S
C93 C92 1.404 . S
C93 C97 1.389 . S
C93 H120 0.930 . S
C94 C92 1.352 . S
C94 C96 1.374 . S
C94 H121 0.931 . S
C95 C96 1.359 . S
C95 C97 1.364 . S
C96 C94 1.374 . S
C96 C95 1.359 . S
C96 H122 0.931 . S
C97 C93 1.389 . S
C97 C95 1.364 . S
C97 H123 0.931 . S
C98 O112 1.256 . S
C98 O113 1.257 . S
C99 O114 1.240 . S
C99 O115 1.260 . S
C100 Gd89 2.818 1_565 S
C100 C101 1.510 . S
C100 O116 1.249 . S
C100 O117 1.252 . S
C101 C100 1.510 . S
C101 C102 1.404 . S
C101 C103 1.352 . S
C102 C101 1.404 . S
C102 C106 1.389 . S
C102 H124 0.930 . S
C103 C101 1.352 . S
C103 C105 1.374 . S
C103 H125 0.931 . S
C104 C105 1.359 . S
C104 C106 1.364 . S
C105 C103 1.374 . S
C105 C104 1.359 . S
C105 H126 0.931 . S
C106 C102 1.389 . S
C106 C104 1.364 . S
C106 H127 0.931 . S
C107 O118 1.256 . S
C107 O119 1.257 . S
O108 Gd88 2.377 . S
O108 C90 1.240 . S
O109 Gd89 2.395 1_455 S
O109 C90 1.240 . S
O110 Gd88 2.448 . S
O110 C91 1.249 . S
O111 Gd88 2.506 . S
O111 C91 1.252 . S
O112 Gd88 2.435 1_565 S
O112 C98 1.256 . S
O113 Gd88 2.717 1_565 S
O113 Gd89 2.327 1_465 S
O113 C98 1.257 . S
O114 Gd89 2.377 1_565 S
O114 C99 1.240 . S
O115 Gd88 2.382 1_665 S
O115 C99 1.260 . S
O116 Gd89 2.448 1_565 S
O116 C100 1.249 . S
O117 Gd89 2.506 1_565 S
O117 C100 1.252 . S
O118 Gd89 2.435 . S
O118 C107 1.256 . S
O119 Gd88 2.327 1_655 S
O119 Gd89 2.717 . S
O119 C107 1.257 . S
H120 C93 0.930 . S
H121 C94 0.931 . S
H122 C96 0.931 . S
H123 C97 0.931 . S
H124 C102 0.930 . S
H125 C103 0.931 . S
H126 C105 0.931 . S
H127 C106 0.931 . S
Gd128 C131 2.818 . S
Gd128 O148 2.377 . S
Gd128 O150 2.448 . S
Gd128 O151 2.506 . S
Gd128 O152 2.435 1_545 S
Gd128 O153 2.717 . S
Gd128 O155 2.395 . S
Gd128 O159 2.327 . S
Gd129 C140 2.818 1_544 S
Gd129 O149 2.395 . S
Gd129 O153 2.327 . S
Gd129 O154 2.377 . S
Gd129 O156 2.448 1_554 S
Gd129 O157 2.506 1_545 S
Gd129 O158 2.435 . S
Gd129 O159 2.717 . S
C130 O148 1.240 . S
C130 O149 1.240 . S
C131 Gd128 2.818 . S
C131 C132 1.510 . S
C131 O150 1.249 . S
C131 O151 1.252 . S
C132 C131 1.510 . S
C132 C133 1.404 . S
C132 C134 1.352 . S
C133 C132 1.404 . S
C133 C137 1.389 . S
C133 H160 0.930 . S
C134 C132 1.352 . S
C134 C136 1.374 . S
C134 H161 0.931 . S
C135 C136 1.359 . S
C135 C137 1.364 . S
C136 C134 1.374 . S
C136 C135 1.359 . S
C136 H162 0.931 . S
C137 C133 1.389 . S
C137 C135 1.364 . S
C137 H163 0.931 . S
C138 O152 1.256 . S
C138 O153 1.257 1_565 S
C139 O154 1.240 1_565 S
C139 O155 1.240 1_565 S
C140 Gd129 2.818 1_566 S
C140 C141 1.510 . S
C140 O156 1.249 1_565 S
C140 O157 1.252 1_556 S
C141 C140 1.510 . S
C141 C142 1.404 . S
C141 C143 1.352 . S
C142 C141 1.404 . S
C142 C146 1.389 . S
C142 H164 0.930 1_565 S
C143 C141 1.352 . S
C143 C145 1.374 . S
C143 H165 0.931 . S
C144 C145 1.359 . S
C144 C146 1.364 . S
C145 C143 1.374 . S
C145 C144 1.359 . S
C145 H166 0.931 . S
C146 C142 1.389 . S
C146 C144 1.364 . S
C146 H167 0.931 . S
C147 O158 1.256 . S
C147 O159 1.257 . S
O148 Gd128 2.377 . S
O148 C130 1.240 . S
O149 Gd129 2.395 . S
O149 C130 1.240 . S
O150 Gd128 2.448 . S
O150 C131 1.249 . S
O151 Gd128 2.506 . S
O151 C131 1.252 . S
O152 Gd128 2.435 1_565 S
O152 C138 1.256 . S
O153 Gd128 2.717 . S
O153 Gd129 2.327 . S
O153 C138 1.257 1_545 S
O154 Gd129 2.377 . S
O154 C139 1.240 1_545 S
O155 Gd128 2.395 . S
O155 C139 1.240 1_545 S
O156 Gd129 2.448 1_556 S
O156 C140 1.249 1_545 S
O157 Gd129 2.506 1_565 S
O157 C140 1.252 1_554 S
O158 Gd129 2.435 . S
O158 C147 1.256 . S
O159 Gd128 2.327 . S
O159 Gd129 2.717 . S
O159 C147 1.257 . S
H160 C133 0.930 . S
H161 C134 0.931 . S
H162 C136 0.931 . S
H163 C137 0.931 . S
H164 C142 0.930 1_545 S
H165 C143 0.931 . S
H166 C145 0.931 . S
H167 C146 0.931 . S
Gd168 C171 2.818 . S
Gd168 O188 2.377 . S
Gd168 O190 2.448 . S
Gd168 O191 2.506 . S
Gd168 O192 2.435 . S
Gd168 O193 2.717 . S
Gd168 O195 2.395 . S
Gd168 O199 2.327 . S
Gd169 C180 2.818 . S
Gd169 O189 2.395 . S
Gd169 O193 2.327 . S
Gd169 O194 2.377 . S
Gd169 O196 2.448 . S
Gd169 O197 2.506 . S
Gd169 O198 2.435 . S
Gd169 O199 2.717 . S
C170 O188 1.240 . S
C170 O189 1.240 . S
C171 Gd168 2.818 . S
C171 C172 1.510 . S
C171 O190 1.249 . S
C171 O191 1.252 . S
C172 C171 1.510 . S
C172 C173 1.404 . S
C172 C174 1.352 . S
C173 C172 1.404 . S
C173 C177 1.389 . S
C173 H200 0.930 . S
C174 C172 1.352 . S
C174 C176 1.374 . S
C174 H201 0.931 . S
C175 C176 1.359 . S
C175 C177 1.364 . S
C176 C174 1.374 . S
C176 C175 1.359 . S
C176 H202 0.931 . S
C177 C173 1.389 . S
C177 C175 1.364 . S
C177 H203 0.931 . S
C178 O192 1.256 . S
C178 O193 1.257 . S
C179 O194 1.240 . S
C179 O195 1.240 . S
C180 Gd169 2.818 . S
C180 C181 1.510 . S
C180 O196 1.249 . S
C180 O197 1.252 . S
C181 C180 1.510 . S
C181 C182 1.404 . S
C181 C183 1.352 . S
C182 C181 1.404 . S
C182 C186 1.389 . S
C182 H204 0.930 . S
C183 C181 1.352 . S
C183 C185 1.374 . S
C183 H205 0.931 . S
C184 C185 1.359 . S
C184 C186 1.364 . S
C185 C183 1.374 . S
C185 C184 1.359 . S
C185 H206 0.931 . S
C186 C182 1.389 . S
C186 C184 1.364 . S
C186 H207 0.931 . S
C187 O198 1.256 . S
C187 O199 1.257 . S
O188 Gd168 2.377 . S
O188 C170 1.240 . S
O189 Gd169 2.395 . S
O189 C170 1.240 . S
O190 Gd168 2.448 . S
O190 C171 1.249 . S
O191 Gd168 2.506 . S
O191 C171 1.252 . S
O192 Gd168 2.435 . S
O192 C178 1.256 . S
O193 Gd168 2.717 . S
O193 Gd169 2.327 . S
O193 C178 1.257 . S
O194 Gd169 2.377 . S
O194 C179 1.240 . S
O195 Gd168 2.395 . S
O195 C179 1.240 . S
O196 Gd169 2.448 . S
O196 C180 1.249 . S
O197 Gd169 2.506 . S
O197 C180 1.252 . S
O198 Gd169 2.435 . S
O198 C187 1.256 . S
O199 Gd168 2.327 . S
O199 Gd169 2.717 . S
O199 C187 1.257 . S
H200 C173 0.930 . S
H201 C174 0.931 . S
H202 C176 0.931 . S
H203 C177 0.931 . S
H204 C182 0.930 . S
H205 C183 0.931 . S
H206 C185 0.931 . S
H207 C186 0.931 . S
Gd208 C211 2.818 . S
Gd208 O228 2.377 . S
Gd208 O230 2.448 . S
Gd208 O231 2.506 . S
Gd208 O232 2.435 . S
Gd208 O233 2.717 . S
Gd208 O235 2.395 1_455 S
Gd208 O239 2.327 1_554 S
Gd209 C220 2.818 1_455 S
Gd209 O229 2.395 1_556 S
Gd209 O233 2.327 1_556 S
Gd209 O234 2.377 1_455 S
Gd209 O236 2.456 . S
Gd209 O237 2.506 1_455 S
Gd209 O238 2.435 . S
Gd209 O239 2.717 . S
C210 O228 1.240 . S
C210 O229 1.240 . S
C211 Gd208 2.818 . S
C211 C212 1.510 . S
C211 O230 1.249 . S
C211 O231 1.252 . S
C212 C211 1.510 . S
C212 C213 1.404 . S
C212 C214 1.352 . S
C213 C212 1.404 . S
C213 C217 1.389 . S
C213 H240 0.930 . S
C214 C212 1.352 . S
C214 C216 1.374 . S
C214 H241 0.931 . S
C215 C216 1.359 . S
C215 C217 1.364 . S
C216 C214 1.374 . S
C216 C215 1.359 . S
C216 H242 0.931 . S
C217 C213 1.389 . S
C217 C215 1.364 . S
C217 H243 0.931 . S
C218 O232 1.256 1_655 S
C218 O233 1.257 1_655 S
C219 O234 1.240 . S
C219 O235 1.240 1_556 S
C220 Gd209 2.818 1_655 S
C220 C221 1.510 . S
C220 O236 1.237 1_655 S
C220 O237 1.252 . S
C221 C220 1.510 . S
C221 C222 1.404 . S
C221 C223 1.352 . S
C222 C221 1.404 . S
C222 C226 1.389 . S
C222 H244 0.930 . S
C223 C221 1.352 . S
C223 C225 1.374 . S
C223 H245 0.931 . S
C224 C225 1.359 . S
C224 C226 1.364 . S
C225 C223 1.374 . S
C225 C224 1.359 . S
C225 H246 0.931 . S
C226 C222 1.389 . S
C226 C224 1.364 . S
C226 H247 0.931 . S
C227 O238 1.256 . S
C227 O239 1.257 . S
O228 Gd208 2.377 . S
O228 C210 1.240 . S
O229 Gd209 2.395 1_554 S
O229 C210 1.240 . S
O230 Gd208 2.448 . S
O230 C211 1.249 . S
O231 Gd208 2.506 . S
O231 C211 1.252 . S
O232 Gd208 2.435 . S
O232 C218 1.256 1_455 S
O233 Gd208 2.717 . S
O233 Gd209 2.327 1_554 S
O233 C218 1.257 1_455 S
O234 Gd209 2.377 1_655 S
O234 C219 1.240 . S
O235 Gd208 2.395 1_655 S
O235 C219 1.240 1_554 S
O236 Gd209 2.456 . S
O236 C220 1.237 1_455 S
O237 Gd209 2.506 1_655 S
O237 C220 1.252 . S
O238 Gd209 2.435 . S
O238 C227 1.256 . S
O239 Gd208 2.327 1_556 S
O239 Gd209 2.717 . S
O239 C227 1.257 . S
H240 C213 0.930 . S
H241 C214 0.931 . S
H242 C216 0.931 . S
H243 C217 0.931 . S
H244 C222 0.930 . S
H245 C223 0.931 . S
H246 C225 0.931 . S
H247 C226 0.931 . S
H248 C256 0.929 . S
H249 C258 0.930 . S
H250 C260 0.930 . S
H251 C263 0.929 . S
H252 C266 0.930 . S
H253 C268 0.960 . S
H254 C268 0.960 . S
H255 C268 0.960 . S
C256 H248 0.929 . S
C256 C257 1.377 . S
C256 C258 1.384 . S
C257 C256 1.377 . S
C257 C263 1.390 . S
C258 H249 0.930 . S
C258 C256 1.384 . S
C258 C259 1.372 . S
C259 C258 1.372 . S
C259 C260 1.400 . S
C259 C264 1.490 . S
C260 H250 0.930 . S
C260 C259 1.400 . S
C260 C263 1.386 . S
H261 C277 0.930 . S
H262 C278 0.931 . S
C263 H251 0.929 . S
C263 C257 1.390 . S
C263 C260 1.386 . S
C264 C259 1.490 . S
C264 C266 1.395 . S
C264 C267 1.403 . S
H265 C271 0.930 . S
C266 H252 0.930 . S
C266 C264 1.395 . S
C266 C269 1.403 . S
C267 C264 1.403 . S
C267 C268 1.524 . S
C267 C271 1.400 . S
C268 H253 0.960 . S
C268 H254 0.960 . S
C268 H255 0.960 . S
C268 C267 1.524 . S
C269 C266 1.403 . S
C269 C270 1.392 . S
C269 C273 1.495 . S
C270 C269 1.392 . S
C270 C271 1.385 . S
C270 C272 1.478 . S
C271 H265 0.930 . S
C271 C267 1.400 . S
C271 C270 1.385 . S
C272 C270 1.478 . S
C272 C274 1.381 . S
C272 C278 1.383 . S
C273 C269 1.495 . S
C273 H279 0.959 . S
C273 H280 0.961 . S
C273 H281 0.960 . S
C274 C272 1.381 . S
C274 C275 1.394 . S
C274 H282 0.930 . S
C275 C274 1.394 . S
C275 C276 1.383 . S
C275 H283 0.929 . S
C276 C275 1.383 . S
C276 C277 1.377 . S
C277 H261 0.930 . S
C277 C276 1.377 . S
C277 C278 1.379 . S
C278 H262 0.931 . S
C278 C272 1.383 . S
C278 C277 1.379 . S
H279 C273 0.959 . S
H280 C273 0.961 . S
H281 C273 0.960 . S
H282 C274 0.930 . S
H283 C275 0.929 . S
H284 C292 0.929 . S
H285 C294 0.930 . S
H286 C296 0.930 . S
H287 C299 0.929 . S
H288 C302 0.930 . S
H289 C304 0.960 . S
H290 C304 0.960 . S
H291 C304 0.960 . S
C292 H284 0.929 . S
C292 C293 1.377 . S
C292 C294 1.384 . S
C293 C292 1.377 . S
C293 C299 1.390 . S
C294 H285 0.930 . S
C294 C292 1.384 . S
C294 C295 1.372 . S
C295 C294 1.372 . S
C295 C296 1.400 . S
C295 C300 1.490 . S
C296 H286 0.930 . S
C296 C295 1.400 . S
C296 C299 1.386 . S
H297 C313 0.930 . S
H298 C314 0.931 . S
C299 H287 0.929 . S
C299 C293 1.390 . S
C299 C296 1.386 . S
C300 C295 1.490 . S
C300 C302 1.395 . S
C300 C303 1.403 . S
H301 C307 0.930 . S
C302 H288 0.930 . S
C302 C300 1.395 . S
C302 C305 1.403 . S
C303 C300 1.403 . S
C303 C304 1.524 . S
C303 C307 1.400 . S
C304 H289 0.960 . S
C304 H290 0.960 . S
C304 H291 0.960 . S
C304 C303 1.524 . S
C305 C302 1.403 . S
C305 C306 1.392 . S
C305 C309 1.495 . S
C306 C305 1.392 . S
C306 C307 1.385 . S
C306 C308 1.478 . S
C307 H301 0.930 . S
C307 C303 1.400 . S
C307 C306 1.385 . S
C308 C306 1.478 . S
C308 C310 1.381 . S
C308 C314 1.383 . S
C309 C305 1.495 . S
C309 H315 0.959 . S
C309 H316 0.961 . S
C309 H317 0.960 . S
C310 C308 1.381 . S
C310 C311 1.394 . S
C310 H318 0.930 . S
C311 C310 1.394 . S
C311 C312 1.383 . S
C311 H319 0.929 . S
C312 C311 1.383 . S
C312 C313 1.377 . S
C313 H297 0.930 . S
C313 C312 1.377 . S
C313 C314 1.379 . S
C314 H298 0.931 . S
C314 C308 1.383 . S
C314 C313 1.379 . S
H315 C309 0.959 . S
H316 C309 0.961 . S
H317 C309 0.960 . S
H318 C310 0.930 . S
H319 C311 0.929 . S
H320 C328 0.929 . S
H321 C330 0.930 . S
H322 C332 0.930 . S
H323 C335 0.929 . S
H324 C338 0.930 . S
H325 C340 0.960 . S
H326 C340 0.960 . S
H327 C340 0.960 . S
C328 H320 0.929 . S
C328 C329 1.377 . S
C328 C330 1.384 . S
C329 C328 1.377 . S
C329 C335 1.390 . S
C330 H321 0.930 . S
C330 C328 1.384 . S
C330 C331 1.372 . S
C331 C330 1.372 . S
C331 C332 1.400 . S
C331 C336 1.490 . S
C332 H322 0.930 . S
C332 C331 1.400 . S
C332 C335 1.386 . S
H333 C349 0.930 . S
H334 C350 0.931 . S
C335 H323 0.929 . S
C335 C329 1.390 . S
C335 C332 1.386 . S
C336 C331 1.490 . S
C336 C338 1.395 . S
C336 C339 1.403 . S
H337 C343 0.930 . S
C338 H324 0.930 . S
C338 C336 1.395 . S
C338 C341 1.403 . S
C339 C336 1.403 . S
C339 C340 1.524 . S
C339 C343 1.400 . S
C340 H325 0.960 . S
C340 H326 0.960 . S
C340 H327 0.960 . S
C340 C339 1.524 . S
C341 C338 1.403 . S
C341 C342 1.392 . S
C341 C345 1.495 . S
C342 C341 1.392 . S
C342 C343 1.385 . S
C342 C344 1.478 . S
C343 H337 0.930 . S
C343 C339 1.400 . S
C343 C342 1.385 . S
C344 C342 1.478 . S
C344 C346 1.381 . S
C344 C350 1.383 . S
C345 C341 1.495 . S
C345 H351 0.959 . S
C345 H352 0.961 . S
C345 H353 0.960 . S
C346 C344 1.381 . S
C346 C347 1.394 . S
C346 H354 0.930 . S
C347 C346 1.394 . S
C347 C348 1.383 . S
C347 H355 0.929 . S
C348 C347 1.383 . S
C348 C349 1.377 . S
C349 H333 0.930 . S
C349 C348 1.377 . S
C349 C350 1.379 . S
C350 H334 0.931 . S
C350 C344 1.383 . S
C350 C349 1.379 . S
H351 C345 0.959 . S
H352 C345 0.961 . S
H353 C345 0.960 . S
H354 C346 0.930 . S
H355 C347 0.929 . S
H356 C364 0.929 . S
H357 C366 0.930 . S
H358 C368 0.930 . S
H359 C371 0.929 . S
H360 C374 0.930 . S
H361 C376 0.960 . S
H362 C376 0.960 . S
H363 C376 0.960 . S
C364 H356 0.929 . S
C364 C365 1.377 . S
C364 C366 1.384 . S
C365 C364 1.377 . S
C365 C371 1.390 . S
C366 H357 0.930 . S
C366 C364 1.384 . S
C366 C367 1.372 . S
C367 C366 1.372 . S
C367 C368 1.400 . S
C367 C372 1.490 . S
C368 H358 0.930 . S
C368 C367 1.400 . S
C368 C371 1.386 . S
H369 C385 0.930 . S
H370 C386 0.931 . S
C371 H359 0.929 . S
C371 C365 1.390 . S
C371 C368 1.386 . S
C372 C367 1.490 . S
C372 C374 1.395 . S
C372 C375 1.403 . S
H373 C379 0.930 . S
C374 H360 0.930 . S
C374 C372 1.395 . S
C374 C377 1.403 . S
C375 C372 1.403 . S
C375 C376 1.524 . S
C375 C379 1.400 . S
C376 H361 0.960 . S
C376 H362 0.960 . S
C376 H363 0.960 . S
C376 C375 1.524 . S
C377 C374 1.403 . S
C377 C378 1.392 . S
C377 C381 1.495 . S
C378 C377 1.392 . S
C378 C379 1.385 . S
C378 C380 1.478 . S
C379 H373 0.930 . S
C379 C375 1.400 . S
C379 C378 1.385 . S
C380 C378 1.478 . S
C380 C382 1.381 . S
C380 C386 1.383 . S
C381 C377 1.495 . S
C381 H387 0.959 . S
C381 H388 0.961 . S
C381 H389 0.960 . S
C382 C380 1.381 . S
C382 C383 1.394 . S
C382 H390 0.930 . S
C383 C382 1.394 . S
C383 C384 1.383 . S
C383 H391 0.929 . S
C384 C383 1.383 . S
C384 C385 1.377 . S
C385 H369 0.930 . S
C385 C384 1.377 . S
C385 C386 1.379 . S
C386 H370 0.931 . S
C386 C380 1.383 . S
C386 C385 1.379 . S
H387 C381 0.959 . S
H388 C381 0.961 . S
H389 C381 0.960 . S
H390 C382 0.930 . S
H391 C383 0.929 . S
H392 C400 0.929 . S
H393 C402 0.930 . S
H394 C404 0.930 . S
H395 C407 0.929 . S
H396 C410 0.930 . S
H397 C412 0.960 . S
H398 C412 0.960 . S
H399 C412 0.960 . S
C400 H392 0.929 . S
C400 C401 1.377 . S
C400 C402 1.384 . S
C401 C400 1.377 . S
C401 C407 1.390 . S
C402 H393 0.930 . S
C402 C400 1.384 . S
C402 C403 1.372 . S
C403 C402 1.372 . S
C403 C404 1.400 . S
C403 C408 1.490 . S
C404 H394 0.930 . S
C404 C403 1.400 . S
C404 C407 1.386 . S
H405 C421 0.930 . S
H406 C422 0.931 . S
C407 H395 0.929 . S
C407 C401 1.390 . S
C407 C404 1.386 . S
C408 C403 1.490 . S
C408 C410 1.395 . S
C408 C411 1.403 . S
H409 C415 0.930 . S
C410 H396 0.930 . S
C410 C408 1.395 . S
C410 C413 1.403 . S
C411 C408 1.403 . S
C411 C412 1.524 . S
C411 C415 1.400 . S
C412 H397 0.960 . S
C412 H398 0.960 . S
C412 H399 0.960 . S
C412 C411 1.524 . S
C413 C410 1.403 . S
C413 C414 1.392 . S
C413 C417 1.495 . S
C414 C413 1.392 . S
C414 C415 1.385 . S
C414 C416 1.478 . S
C415 H409 0.930 . S
C415 C411 1.400 . S
C415 C414 1.385 . S
C416 C414 1.478 . S
C416 C418 1.381 . S
C416 C422 1.383 . S
C417 C413 1.495 . S
C417 H423 0.959 . S
C417 H424 0.961 . S
C417 H425 0.960 . S
C418 C416 1.381 . S
C418 C419 1.394 . S
C418 H426 0.930 . S
C419 C418 1.394 . S
C419 C420 1.383 . S
C419 H427 0.929 . S
C420 C419 1.383 . S
C420 C421 1.377 . S
C421 H405 0.930 . S
C421 C420 1.377 . S
C421 C422 1.379 . S
C422 H406 0.931 . S
C422 C416 1.383 . S
C422 C421 1.379 . S
H423 C417 0.959 . S
H424 C417 0.961 . S
H425 C417 0.960 . S
H426 C418 0.930 . S
H427 C419 0.929 . S
H428 C436 0.929 . S
H429 C438 0.930 . S
H430 C440 0.930 . S
H431 C443 0.929 . S
H432 C446 0.930 . S
H433 C448 0.960 . S
H434 C448 0.960 . S
H435 C448 0.960 . S
C436 H428 0.929 . S
C436 C437 1.377 . S
C436 C438 1.384 . S
C437 C436 1.377 . S
C437 C443 1.390 . S
C438 H429 0.930 . S
C438 C436 1.384 . S
C438 C439 1.372 . S
C439 C438 1.372 . S
C439 C440 1.400 . S
C439 C444 1.490 . S
C440 H430 0.930 . S
C440 C439 1.400 . S
C440 C443 1.386 . S
H441 C457 0.930 . S
H442 C458 0.931 . S
C443 H431 0.929 . S
C443 C437 1.390 . S
C443 C440 1.386 . S
C444 C439 1.490 . S
C444 C446 1.395 . S
C444 C447 1.403 . S
H445 C451 0.930 . S
C446 H432 0.930 . S
C446 C444 1.395 . S
C446 C449 1.403 . S
C447 C444 1.403 . S
C447 C448 1.524 . S
C447 C451 1.400 . S
C448 H433 0.960 . S
C448 H434 0.960 . S
C448 H435 0.960 . S
C448 C447 1.524 . S
C449 C446 1.403 . S
C449 C450 1.392 . S
C449 C453 1.495 . S
C450 C449 1.392 . S
C450 C451 1.385 . S
C450 C452 1.478 . S
C451 H445 0.930 . S
C451 C447 1.400 . S
C451 C450 1.385 . S
C452 C450 1.478 . S
C452 C454 1.381 . S
C452 C458 1.383 . S
C453 C449 1.495 . S
C453 H459 0.959 . S
C453 H460 0.961 . S
C453 H461 0.960 . S
C454 C452 1.381 . S
C454 C455 1.394 . S
C454 H462 0.930 . S
C455 C454 1.394 . S
C455 C456 1.383 . S
C455 H463 0.929 1_565 S
C456 C455 1.383 . S
C456 C457 1.377 . S
C457 H441 0.930 . S
C457 C456 1.377 . S
C457 C458 1.379 . S
C458 H442 0.931 . S
C458 C452 1.383 . S
C458 C457 1.379 . S
H459 C453 0.959 . S
H460 C453 0.961 . S
H461 C453 0.960 . S
H462 C454 0.930 . S
H463 C455 0.929 1_545 S
H464 C472 0.929 . S
H465 C474 0.930 . S
H466 C476 0.930 . S
H467 C479 0.929 . S
H468 C482 0.930 . S
H469 C484 0.960 . S
H470 C484 0.960 . S
H471 C484 0.960 . S
C472 H464 0.929 . S
C472 C473 1.377 . S
C472 C474 1.384 . S
C473 C472 1.377 . S
C473 C479 1.390 . S
C474 H465 0.930 . S
C474 C472 1.384 . S
C474 C475 1.372 . S
C475 C474 1.372 . S
C475 C476 1.400 . S
C475 C480 1.490 . S
C476 H466 0.930 . S
C476 C475 1.400 . S
C476 C479 1.386 . S
H477 C493 0.930 . S
H478 C494 0.931 . S
C479 H467 0.929 . S
C479 C473 1.390 . S
C479 C476 1.386 . S
C480 C475 1.490 . S
C480 C482 1.395 . S
C480 C483 1.403 . S
H481 C487 0.930 . S
C482 H468 0.930 . S
C482 C480 1.395 . S
C482 C485 1.403 . S
C483 C480 1.403 . S
C483 C484 1.524 . S
C483 C487 1.400 . S
C484 H469 0.960 . S
C484 H470 0.960 . S
C484 H471 0.960 . S
C484 C483 1.524 . S
C485 C482 1.403 . S
C485 C486 1.392 . S
C485 C489 1.495 . S
C486 C485 1.392 . S
C486 C487 1.385 . S
C486 C488 1.478 . S
C487 H481 0.930 . S
C487 C483 1.400 . S
C487 C486 1.385 . S
C488 C486 1.478 . S
C488 C490 1.381 . S
C488 C494 1.383 . S
C489 C485 1.495 . S
C489 H495 0.959 . S
C489 H496 0.961 . S
C489 H497 0.960 . S
C490 C488 1.381 . S
C490 C491 1.394 . S
C490 H498 0.930 . S
C491 C490 1.394 . S
C491 C492 1.383 . S
C491 H499 0.929 . S
C492 C491 1.383 . S
C492 C493 1.377 . S
C493 H477 0.930 . S
C493 C492 1.377 . S
C493 C494 1.379 . S
C494 H478 0.931 . S
C494 C488 1.383 . S
C494 C493 1.379 . S
H495 C489 0.959 . S
H496 C489 0.961 . S
H497 C489 0.960 . S
H498 C490 0.930 . S
H499 C491 0.929 . S
H500 C508 0.929 . S
H501 C510 0.930 . S
H502 C512 0.930 . S
H503 C515 0.929 . S
H504 C518 0.930 . S
H505 C520 0.960 . S
H506 C520 0.960 . S
H507 C520 0.960 . S
C508 H500 0.929 . S
C508 C509 1.377 . S
C508 C510 1.384 . S
C509 C508 1.377 . S
C509 C515 1.390 . S
C510 H501 0.930 . S
C510 C508 1.384 . S
C510 C511 1.372 . S
C511 C510 1.372 . S
C511 C512 1.400 . S
C511 C516 1.490 . S
C512 H502 0.930 . S
C512 C511 1.400 . S
C512 C515 1.386 . S
H513 C529 0.930 . S
H514 C530 0.931 . S
C515 H503 0.929 . S
C515 C509 1.390 . S
C515 C512 1.386 . S
C516 C511 1.490 . S
C516 C518 1.395 . S
C516 C519 1.403 . S
H517 C523 0.930 . S
C518 H504 0.930 . S
C518 C516 1.395 . S
C518 C521 1.403 . S
C519 C516 1.403 . S
C519 C520 1.524 . S
C519 C523 1.400 . S
C520 H505 0.960 . S
C520 H506 0.960 . S
C520 H507 0.960 . S
C520 C519 1.524 . S
C521 C518 1.403 . S
C521 C522 1.392 . S
C521 C525 1.495 . S
C522 C521 1.392 . S
C522 C523 1.385 . S
C522 C524 1.478 . S
C523 H517 0.930 . S
C523 C519 1.400 . S
C523 C522 1.385 . S
C524 C522 1.478 . S
C524 C526 1.381 . S
C524 C530 1.383 . S
C525 C521 1.495 . S
C525 H531 0.959 . S
C525 H532 0.961 . S
C525 H533 0.960 . S
C526 C524 1.381 . S
C526 C527 1.394 . S
C526 H534 0.930 . S
C527 C526 1.394 . S
C527 C528 1.383 . S
C527 H535 0.929 . S
C528 C527 1.383 . S
C528 C529 1.377 . S
C529 H513 0.930 . S
C529 C528 1.377 . S
C529 C530 1.379 . S
C530 H514 0.931 . S
C530 C524 1.383 . S
C530 C529 1.379 . S
H531 C525 0.959 . S
H532 C525 0.961 . S
H533 C525 0.960 . S
H534 C526 0.930 . S
H535 C527 0.929 . S
H536 C544 0.929 . S
H537 C546 0.930 . S
H538 C548 0.930 . S
H539 C551 0.929 . S
H540 C554 0.930 . S
H541 C556 0.960 . S
H542 C556 0.960 . S
H543 C556 0.960 . S
C544 H536 0.929 . S
C544 C545 1.377 . S
C544 C546 1.384 . S
C545 C544 1.377 . S
C545 C551 1.390 . S
C546 H537 0.930 . S
C546 C544 1.384 . S
C546 C547 1.372 . S
C547 C546 1.372 . S
C547 C548 1.400 . S
C547 C552 1.490 . S
C548 H538 0.930 . S
C548 C547 1.400 . S
C548 C551 1.386 . S
H549 C565 0.930 . S
H550 C566 0.931 . S
C551 H539 0.929 . S
C551 C545 1.390 . S
C551 C548 1.386 . S
C552 C547 1.490 . S
C552 C554 1.395 . S
C552 C555 1.403 . S
H553 C559 0.930 . S
C554 H540 0.930 . S
C554 C552 1.395 . S
C554 C557 1.403 . S
C555 C552 1.403 . S
C555 C556 1.524 . S
C555 C559 1.400 . S
C556 H541 0.960 . S
C556 H542 0.960 . S
C556 H543 0.960 . S
C556 C555 1.524 . S
C557 C554 1.403 . S
C557 C558 1.392 . S
C557 C561 1.495 . S
C558 C557 1.392 . S
C558 C559 1.385 . S
C558 C560 1.478 . S
C559 H553 0.930 . S
C559 C555 1.400 . S
C559 C558 1.385 . S
C560 C558 1.478 . S
C560 C562 1.381 . S
C560 C566 1.383 . S
C561 C557 1.495 . S
C561 H567 0.959 . S
C561 H568 0.961 . S
C561 H569 0.960 . S
C562 C560 1.381 . S
C562 C563 1.394 . S
C562 H570 0.930 . S
C563 C562 1.394 . S
C563 C564 1.383 . S
C563 H571 0.929 . S
C564 C563 1.383 . S
C564 C565 1.377 . S
C565 H549 0.930 . S
C565 C564 1.377 . S
C565 C566 1.379 . S
C566 H550 0.931 . S
C566 C560 1.383 . S
C566 C565 1.379 . S
H567 C561 0.959 . S
H568 C561 0.961 . S
H569 C561 0.960 . S
H570 C562 0.930 . S
H571 C563 0.929 . S
H572 C580 0.929 . S
H573 C582 0.930 . S
H574 C584 0.930 . S
H575 C587 0.929 . S
H576 C590 0.930 . S
H577 C592 0.960 . S
H578 C592 0.960 . S
H579 C592 0.960 . S
C580 H572 0.929 . S
C580 C581 1.377 . S
C580 C582 1.384 . S
C581 C580 1.377 . S
C581 C587 1.390 . S
C582 H573 0.930 . S
C582 C580 1.384 . S
C582 C583 1.372 . S
C583 C582 1.372 . S
C583 C584 1.400 . S
C583 C588 1.490 . S
C584 H574 0.930 . S
C584 C583 1.400 . S
C584 C587 1.386 . S
H585 C601 0.930 . S
H586 C602 0.931 . S
C587 H575 0.929 . S
C587 C581 1.390 . S
C587 C584 1.386 . S
C588 C583 1.490 . S
C588 C590 1.395 . S
C588 C591 1.403 . S
H589 C595 0.930 . S
C590 H576 0.930 . S
C590 C588 1.395 . S
C590 C593 1.403 . S
C591 C588 1.403 . S
C591 C592 1.524 . S
C591 C595 1.400 . S
C592 H577 0.960 . S
C592 H578 0.960 . S
C592 H579 0.960 . S
C592 C591 1.524 . S
C593 C590 1.403 . S
C593 C594 1.392 . S
C593 C597 1.495 . S
C594 C593 1.392 . S
C594 C595 1.385 . S
C594 C596 1.478 . S
C595 H589 0.930 . S
C595 C591 1.400 . S
C595 C594 1.385 . S
C596 C594 1.478 . S
C596 C598 1.381 1_556 S
C596 C602 1.383 . S
C597 C593 1.495 . S
C597 H603 0.959 . S
C597 H604 0.961 . S
C597 H605 0.960 . S
C598 C596 1.381 1_554 S
C598 C599 1.394 . S
C598 H606 0.930 . S
C599 C598 1.394 . S
C599 C600 1.383 . S
C599 H607 0.929 . S
C600 C599 1.383 . S
C600 C601 1.377 1_554 S
C601 H585 0.930 . S
C601 C600 1.377 1_556 S
C601 C602 1.379 . S
C602 H586 0.931 . S
C602 C596 1.383 . S
C602 C601 1.379 . S
H603 C597 0.959 . S
H604 C597 0.961 . S
H605 C597 0.960 . S
H606 C598 0.930 . S
H607 C599 0.929 . S
H608 C616 0.929 . S
H609 C618 0.930 . S
H610 C620 0.930 . S
H611 C623 0.929 . S
H612 C626 0.930 . S
H613 C628 0.960 . S
H614 C628 0.960 . S
H615 C628 0.960 . S
C616 H608 0.929 . S
C616 C617 1.377 . S
C616 C618 1.384 . S
C617 C616 1.377 . S
C617 C623 1.390 . S
C618 H609 0.930 . S
C618 C616 1.384 . S
C618 C619 1.372 . S
C619 C618 1.372 . S
C619 C620 1.400 . S
C619 C624 1.490 . S
C620 H610 0.930 . S
C620 C619 1.400 . S
C620 C623 1.386 . S
H621 C637 0.930 . S
H622 C638 0.931 . S
C623 H611 0.929 . S
C623 C617 1.390 . S
C623 C620 1.386 . S
C624 C619 1.490 . S
C624 C626 1.395 . S
C624 C627 1.403 . S
H625 C631 0.930 . S
C626 H612 0.930 . S
C626 C624 1.395 . S
C626 C629 1.403 . S
C627 C624 1.403 . S
C627 C628 1.524 . S
C627 C631 1.400 . S
C628 H613 0.960 . S
C628 H614 0.960 . S
C628 H615 0.960 . S
C628 C627 1.524 . S
C629 C626 1.403 . S
C629 C630 1.392 . S
C629 C633 1.495 . S
C630 C629 1.392 . S
C630 C631 1.385 . S
C630 C632 1.478 . S
C631 H625 0.930 . S
C631 C627 1.400 . S
C631 C630 1.385 . S
C632 C630 1.478 . S
C632 C634 1.381 . S
C632 C638 1.383 . S
C633 C629 1.495 . S
C633 H639 0.959 . S
C633 H640 0.961 . S
C633 H641 0.960 . S
C634 C632 1.381 . S
C634 C635 1.394 . S
C634 H642 0.930 . S
C635 C634 1.394 . S
C635 C636 1.383 . S
C635 H643 0.929 . S
C636 C635 1.383 . S
C636 C637 1.377 . S
C637 H621 0.930 . S
C637 C636 1.377 . S
C637 C638 1.379 . S
C638 H622 0.931 . S
C638 C632 1.383 . S
C638 C637 1.379 . S
H639 C633 0.959 . S
H640 C633 0.961 . S
H641 C633 0.960 . S
H642 C634 0.930 . S
H643 C635 0.929 . S
H644 C652 0.929 . S
H645 C654 0.930 . S
H646 C656 0.930 . S
H647 C659 0.929 . S
H648 C662 0.930 . S
H649 C664 0.960 . S
H650 C664 0.960 . S
H651 C664 0.960 . S
C652 H644 0.929 . S
C652 C653 1.377 . S
C652 C654 1.384 . S
C653 C652 1.377 . S
C653 C659 1.390 . S
C654 H645 0.930 . S
C654 C652 1.384 . S
C654 C655 1.372 . S
C655 C654 1.372 . S
C655 C656 1.400 . S
C655 C660 1.490 . S
C656 H646 0.930 . S
C656 C655 1.400 . S
C656 C659 1.386 . S
H657 C673 0.930 . S
H658 C674 0.931 . S
C659 H647 0.929 . S
C659 C653 1.390 . S
C659 C656 1.386 . S
C660 C655 1.490 . S
C660 C662 1.395 . S
C660 C663 1.403 . S
H661 C667 0.930 . S
C662 H648 0.930 . S
C662 C660 1.395 . S
C662 C665 1.403 . S
C663 C660 1.403 . S
C663 C664 1.524 . S
C663 C667 1.400 . S
C664 H649 0.960 . S
C664 H650 0.960 . S
C664 H651 0.960 . S
C664 C663 1.524 . S
C665 C662 1.403 . S
C665 C666 1.392 . S
C665 C669 1.495 . S
C666 C665 1.392 . S
C666 C667 1.385 . S
C666 C668 1.478 . S
C667 H661 0.930 . S
C667 C663 1.400 . S
C667 C666 1.385 . S
C668 C666 1.478 . S
C668 C670 1.381 . S
C668 C674 1.383 . S
C669 C665 1.495 . S
C669 H675 0.959 . S
C669 H676 0.961 . S
C669 H677 0.960 . S
C670 C668 1.381 . S
C670 C671 1.394 . S
C670 H678 0.930 . S
C671 C670 1.394 . S
C671 C672 1.383 . S
C671 H679 0.929 . S
C672 C671 1.383 . S
C672 C673 1.377 . S
C673 H657 0.930 . S
C673 C672 1.377 . S
C673 C674 1.379 . S
C674 H658 0.931 . S
C674 C668 1.383 . S
C674 C673 1.379 . S
H675 C669 0.959 . S
H676 C669 0.961 . S
H677 C669 0.960 . S
H678 C670 0.930 . S
H679 C671 0.929 . S
H680 C688 0.929 . S
H681 C690 0.930 . S
H682 C692 0.930 . S
H683 C695 0.929 . S
H684 C698 0.930 . S
H685 C700 0.960 . S
H686 C700 0.960 . S
H687 C700 0.960 . S
C688 H680 0.929 . S
C688 C689 1.377 . S
C688 C690 1.384 . S
C689 C688 1.377 . S
C689 C695 1.390 . S
C690 H681 0.930 . S
C690 C688 1.384 . S
C690 C691 1.372 . S
C691 C690 1.372 . S
C691 C692 1.400 . S
C691 C696 1.490 . S
C692 H682 0.930 . S
C692 C691 1.400 . S
C692 C695 1.386 . S
H693 C709 0.930 . S
H694 C710 0.931 . S
C695 H683 0.929 . S
C695 C689 1.390 . S
C695 C692 1.386 . S
C696 C691 1.490 . S
C696 C698 1.395 . S
C696 C699 1.403 . S
H697 C703 0.930 . S
C698 H684 0.930 . S
C698 C696 1.395 . S
C698 C701 1.403 . S
C699 C696 1.403 . S
C699 C700 1.524 . S
C699 C703 1.400 . S
C700 H685 0.960 . S
C700 H686 0.960 . S
C700 H687 0.960 . S
C700 C699 1.524 . S
C701 C698 1.403 . S
C701 C702 1.392 . S
C701 C705 1.495 . S
C702 C701 1.392 . S
C702 C703 1.385 . S
C702 C704 1.478 . S
C703 H697 0.930 . S
C703 C699 1.400 . S
C703 C702 1.385 . S
C704 C702 1.478 . S
C704 C706 1.381 . S
C704 C710 1.383 . S
C705 C701 1.495 . S
C705 H711 0.959 . S
C705 H712 0.961 . S
C705 H713 0.960 . S
C706 C704 1.381 . S
C706 C707 1.394 . S
C706 H714 0.930 . S
C707 C706 1.394 . S
C707 C708 1.383 . S
C707 H715 0.929 . S
C708 C707 1.383 . S
C708 C709 1.377 . S
C709 H693 0.930 . S
C709 C708 1.377 . S
C709 C710 1.379 . S
C710 H694 0.931 . S
C710 C704 1.383 . S
C710 C709 1.379 . S
H711 C705 0.959 . S
H712 C705 0.961 . S
H713 C705 0.960 . S
H714 C706 0.930 . S
H715 C707 0.929 . S
H716 C724 0.929 . S
H717 C726 0.930 . S
H718 C728 0.930 . S
H719 C731 0.929 . S
H720 C734 0.930 . S
H721 C736 0.960 . S
H722 C736 0.960 . S
H723 C736 0.960 . S
C724 H716 0.929 . S
C724 C725 1.377 . S
C724 C726 1.384 . S
C725 C724 1.377 . S
C725 C731 1.390 . S
C726 H717 0.930 . S
C726 C724 1.384 . S
C726 C727 1.372 . S
C727 C726 1.372 . S
C727 C728 1.400 . S
C727 C732 1.490 . S
C728 H718 0.930 . S
C728 C727 1.400 . S
C728 C731 1.386 . S
H729 C745 0.930 . S
H730 C746 0.931 . S
C731 H719 0.929 . S
C731 C725 1.390 . S
C731 C728 1.386 . S
C732 C727 1.490 . S
C732 C734 1.395 . S
C732 C735 1.403 . S
H733 C739 0.930 . S
C734 H720 0.930 . S
C734 C732 1.395 . S
C734 C737 1.403 . S
C735 C732 1.403 . S
C735 C736 1.524 . S
C735 C739 1.400 . S
C736 H721 0.960 . S
C736 H722 0.960 . S
C736 H723 0.960 . S
C736 C735 1.524 . S
C737 C734 1.403 . S
C737 C738 1.392 . S
C737 C741 1.495 . S
C738 C737 1.392 . S
C738 C739 1.385 . S
C738 C740 1.478 . S
C739 H733 0.930 . S
C739 C735 1.400 . S
C739 C738 1.385 . S
C740 C738 1.478 . S
C740 C742 1.381 . S
C740 C746 1.383 . S
C741 C737 1.495 . S
C741 H747 0.959 . S
C741 H748 0.961 . S
C741 H749 0.960 . S
C742 C740 1.381 . S
C742 C743 1.394 . S
C742 H750 0.930 . S
C743 C742 1.394 . S
C743 C744 1.383 . S
C743 H751 0.929 . S
C744 C743 1.383 . S
C744 C745 1.377 . S
C745 H729 0.930 . S
C745 C744 1.377 . S
C745 C746 1.379 . S
C746 H730 0.931 . S
C746 C740 1.383 . S
C746 C745 1.379 . S
H747 C741 0.959 . S
H748 C741 0.961 . S
H749 C741 0.960 . S
H750 C742 0.930 . S
H751 C743 0.929 . S
H752 C760 0.929 . S
H753 C762 0.930 . S
H754 C764 0.930 . S
H755 C767 0.929 . S
H756 C770 0.930 . S
H757 C772 0.960 . S
H758 C772 0.960 . S
H759 C772 0.960 . S
C760 H752 0.929 . S
C760 C761 1.377 . S
C760 C762 1.384 . S
C761 C760 1.377 . S
C761 C767 1.390 . S
C762 H753 0.930 . S
C762 C760 1.384 . S
C762 C763 1.372 . S
C763 C762 1.372 . S
C763 C764 1.400 . S
C763 C768 1.490 . S
C764 H754 0.930 . S
C764 C763 1.400 . S
C764 C767 1.386 . S
H765 C781 0.930 . S
H766 C782 0.931 . S
C767 H755 0.929 . S
C767 C761 1.390 . S
C767 C764 1.386 . S
C768 C763 1.490 . S
C768 C770 1.395 . S
C768 C771 1.403 . S
H769 C775 0.930 . S
C770 H756 0.930 . S
C770 C768 1.395 . S
C770 C773 1.403 . S
C771 C768 1.403 . S
C771 C772 1.524 . S
C771 C775 1.400 . S
C772 H757 0.960 . S
C772 H758 0.960 . S
C772 H759 0.960 . S
C772 C771 1.524 . S
C773 C770 1.403 . S
C773 C774 1.392 . S
C773 C777 1.495 . S
C774 C773 1.392 . S
C774 C775 1.385 . S
C774 C776 1.478 . S
C775 H769 0.930 . S
C775 C771 1.400 . S
C775 C774 1.385 . S
C776 C774 1.478 . S
C776 C778 1.381 . S
C776 C782 1.383 . S
C777 C773 1.495 . S
C777 H783 0.959 . S
C777 H784 0.961 . S
C777 H785 0.960 . S
C778 C776 1.381 . S
C778 C779 1.394 . S
C778 H786 0.930 . S
C779 C778 1.394 . S
C779 C780 1.383 . S
C779 H787 0.929 . S
C780 C779 1.383 . S
C780 C781 1.377 . S
C781 H765 0.930 . S
C781 C780 1.377 . S
C781 C782 1.379 . S
C782 H766 0.931 . S
C782 C776 1.383 . S
C782 C781 1.379 . S
H783 C777 0.959 . S
H784 C777 0.961 . S
H785 C777 0.960 . S
H786 C778 0.930 . S
H787 C779 0.929 . S
H788 C796 0.929 . S
H789 C798 0.930 . S
H790 C800 0.930 . S
H791 C803 0.929 . S
H792 C806 0.930 . S
H793 C808 0.960 . S
H794 C808 0.960 . S
H795 C808 0.960 . S
C796 H788 0.929 . S
C796 C797 1.377 . S
C796 C798 1.384 . S
C797 C796 1.377 . S
C797 C803 1.390 . S
C798 H789 0.930 . S
C798 C796 1.384 . S
C798 C799 1.372 . S
C799 C798 1.372 . S
C799 C800 1.400 . S
C799 C804 1.490 . S
C800 H790 0.930 . S
C800 C799 1.400 . S
C800 C803 1.386 . S
H801 C817 0.930 . S
H802 C818 0.931 . S
C803 H791 0.929 . S
C803 C797 1.390 . S
C803 C800 1.386 . S
C804 C799 1.490 . S
C804 C806 1.395 . S
C804 C807 1.403 . S
H805 C811 0.930 . S
C806 H792 0.930 . S
C806 C804 1.395 . S
C806 C809 1.403 . S
C807 C804 1.403 . S
C807 C808 1.524 . S
C807 C811 1.400 . S
C808 H793 0.960 . S
C808 H794 0.960 . S
C808 H795 0.960 . S
C808 C807 1.524 . S
C809 C806 1.403 . S
C809 C810 1.392 . S
C809 C813 1.495 . S
C810 C809 1.392 . S
C810 C811 1.385 . S
C810 C812 1.478 . S
C811 H805 0.930 . S
C811 C807 1.400 . S
C811 C810 1.385 . S
C812 C810 1.478 . S
C812 C814 1.381 . S
C812 C818 1.383 . S
C813 C809 1.495 . S
C813 H819 0.959 . S
C813 H820 0.961 . S
C813 H821 0.960 . S
C814 C812 1.381 . S
C814 C815 1.394 . S
C814 H822 0.930 . S
C815 C814 1.394 . S
C815 C816 1.383 . S
C815 H823 0.929 . S
C816 C815 1.383 . S
C816 C817 1.377 . S
C817 H801 0.930 . S
C817 C816 1.377 . S
C817 C818 1.379 . S
C818 H802 0.931 . S
C818 C812 1.383 . S
C818 C817 1.379 . S
H819 C813 0.959 . S
H820 C813 0.961 . S
H821 C813 0.960 . S
H822 C814 0.930 . S
H823 C815 0.929 . S
H824 C832 0.929 . S
H825 C834 0.930 . S
H826 C836 0.930 . S
H827 C839 0.929 . S
H828 C842 0.930 . S
H829 C844 0.960 . S
H830 C844 0.960 . S
H831 C844 0.960 . S
C832 H824 0.929 . S
C832 C833 1.377 . S
C832 C834 1.384 . S
C833 C832 1.377 . S
C833 C839 1.390 . S
C834 H825 0.930 . S
C834 C832 1.384 . S
C834 C835 1.372 . S
C835 C834 1.372 . S
C835 C836 1.400 . S
C835 C840 1.490 . S
C836 H826 0.930 . S
C836 C835 1.400 . S
C836 C839 1.386 . S
H837 C853 0.930 . S
H838 C854 0.931 . S
C839 H827 0.929 . S
C839 C833 1.390 . S
C839 C836 1.386 . S
C840 C835 1.490 . S
C840 C842 1.395 . S
C840 C843 1.403 . S
H841 C847 0.930 . S
C842 H828 0.930 . S
C842 C840 1.395 . S
C842 C845 1.403 . S
C843 C840 1.403 . S
C843 C844 1.524 . S
C843 C847 1.400 . S
C844 H829 0.960 . S
C844 H830 0.960 . S
C844 H831 0.960 . S
C844 C843 1.524 . S
C845 C842 1.403 . S
C845 C846 1.392 . S
C845 C849 1.495 . S
C846 C845 1.392 . S
C846 C847 1.385 . S
C846 C848 1.478 . S
C847 H841 0.930 . S
C847 C843 1.400 . S
C847 C846 1.385 . S
C848 C846 1.478 . S
C848 C850 1.381 . S
C848 C854 1.383 . S
C849 C845 1.495 . S
C849 H855 0.959 . S
C849 H856 0.961 . S
C849 H857 0.960 . S
C850 C848 1.381 . S
C850 C851 1.394 . S
C850 H858 0.930 . S
C851 C850 1.394 . S
C851 C852 1.383 . S
C851 H859 0.929 . S
C852 C851 1.383 . S
C852 C853 1.377 . S
C853 H837 0.930 . S
C853 C852 1.377 . S
C853 C854 1.379 . S
C854 H838 0.931 . S
C854 C848 1.383 . S
C854 C853 1.379 . S
H855 C849 0.959 . S
H856 C849 0.961 . S
H857 C849 0.960 . S
H858 C850 0.930 . S
H859 C851 0.929 . S
H860 C868 0.929 . S
H861 C870 0.930 . S
H862 C872 0.930 . S
H863 C875 0.929 . S
H864 C878 0.930 . S
H865 C880 0.960 . S
H866 C880 0.960 . S
H867 C880 0.960 . S
C868 H860 0.929 . S
C868 C869 1.377 . S
C868 C870 1.384 . S
C869 C868 1.377 . S
C869 C875 1.390 . S
C870 H861 0.930 . S
C870 C868 1.384 . S
C870 C871 1.372 . S
C871 C870 1.372 . S
C871 C872 1.400 . S
C871 C876 1.490 . S
C872 H862 0.930 . S
C872 C871 1.400 . S
C872 C875 1.386 . S
H873 C889 0.930 . S
H874 C890 0.931 . S
C875 H863 0.929 . S
C875 C869 1.390 . S
C875 C872 1.386 . S
C876 C871 1.490 . S
C876 C878 1.395 . S
C876 C879 1.403 . S
H877 C883 0.930 . S
C878 H864 0.930 . S
C878 C876 1.395 . S
C878 C881 1.403 . S
C879 C876 1.403 . S
C879 C880 1.524 . S
C879 C883 1.400 . S
C880 H865 0.960 . S
C880 H866 0.960 . S
C880 H867 0.960 . S
C880 C879 1.524 . S
C881 C878 1.403 . S
C881 C882 1.392 . S
C881 C885 1.495 . S
C882 C881 1.392 . S
C882 C883 1.385 . S
C882 C884 1.478 . S
C883 H877 0.930 . S
C883 C879 1.400 . S
C883 C882 1.385 . S
C884 C882 1.478 . S
C884 C886 1.381 . S
C884 C890 1.383 . S
C885 C881 1.495 . S
C885 H891 0.959 . S
C885 H892 0.961 . S
C885 H893 0.960 . S
C886 C884 1.381 . S
C886 C887 1.394 . S
C886 H894 0.930 . S
C887 C886 1.394 . S
C887 C888 1.383 . S
C887 H895 0.929 . S
C888 C887 1.383 . S
C888 C889 1.377 . S
C889 H873 0.930 . S
C889 C888 1.377 . S
C889 C890 1.379 . S
C890 H874 0.931 . S
C890 C884 1.383 . S
C890 C889 1.379 . S
H891 C885 0.959 . S
H892 C885 0.961 . S
H893 C885 0.960 . S
H894 C886 0.930 . S
H895 C887 0.929 . S
H896 C904 0.929 . S
H897 C906 0.930 . S
H898 C908 0.930 . S
H899 C911 0.929 . S
H900 C914 0.930 . S
H901 C916 0.960 . S
H902 C916 0.960 . S
H903 C916 0.960 . S
C904 H896 0.929 . S
C904 C905 1.377 . S
C904 C906 1.384 . S
C905 C904 1.377 . S
C905 C911 1.390 . S
C906 H897 0.930 . S
C906 C904 1.384 . S
C906 C907 1.372 . S
C907 C906 1.372 . S
C907 C908 1.400 . S
C907 C912 1.490 . S
C908 H898 0.930 . S
C908 C907 1.400 . S
C908 C911 1.386 . S
H909 C925 0.930 . S
H910 C926 0.931 . S
C911 H899 0.929 . S
C911 C905 1.390 . S
C911 C908 1.386 . S
C912 C907 1.490 . S
C912 C914 1.395 . S
C912 C915 1.403 . S
H913 C919 0.930 . S
C914 H900 0.930 . S
C914 C912 1.395 . S
C914 C917 1.403 . S
C915 C912 1.403 . S
C915 C916 1.524 . S
C915 C919 1.400 . S
C916 H901 0.960 . S
C916 H902 0.960 . S
C916 H903 0.960 . S
C916 C915 1.524 . S
C917 C914 1.403 . S
C917 C918 1.392 . S
C917 C921 1.495 . S
C918 C917 1.392 . S
C918 C919 1.385 . S
C918 C920 1.478 . S
C919 H913 0.930 . S
C919 C915 1.400 . S
C919 C918 1.385 . S
C920 C918 1.478 . S
C920 C922 1.381 . S
C920 C926 1.383 . S
C921 C917 1.495 . S
C921 H927 0.959 . S
C921 H928 0.961 . S
C921 H929 0.960 . S
C922 C920 1.381 . S
C922 C923 1.394 . S
C922 H930 0.930 . S
C923 C922 1.394 . S
C923 C924 1.383 . S
C923 H931 0.929 . S
C924 C923 1.383 . S
C924 C925 1.377 . S
C925 H909 0.930 . S
C925 C924 1.377 . S
C925 C926 1.379 . S
C926 H910 0.931 . S
C926 C920 1.383 . S
C926 C925 1.379 . S
H927 C921 0.959 . S
H928 C921 0.961 . S
H929 C921 0.960 . S
H930 C922 0.930 . S
H931 C923 0.929 . S
H932 C940 0.929 . S
H933 C942 0.930 . S
H934 C944 0.930 . S
H935 C947 0.929 . S
H936 C950 0.930 . S
H937 C952 0.960 . S
H938 C952 0.960 . S
H939 C952 0.960 . S
C940 H932 0.929 . S
C940 C941 1.377 . S
C940 C942 1.384 . S
C941 C940 1.377 . S
C941 C947 1.390 . S
C942 H933 0.930 . S
C942 C940 1.384 . S
C942 C943 1.372 . S
C943 C942 1.372 . S
C943 C944 1.400 . S
C943 C948 1.490 . S
C944 H934 0.930 . S
C944 C943 1.400 . S
C944 C947 1.386 . S
H945 C961 0.930 . S
H946 C962 0.931 . S
C947 H935 0.929 . S
C947 C941 1.390 . S
C947 C944 1.386 . S
C948 C943 1.490 . S
C948 C950 1.395 . S
C948 C951 1.403 . S
H949 C955 0.930 . S
C950 H936 0.930 . S
C950 C948 1.395 . S
C950 C953 1.403 . S
C951 C948 1.403 . S
C951 C952 1.524 . S
C951 C955 1.400 . S
C952 H937 0.960 . S
C952 H938 0.960 . S
C952 H939 0.960 . S
C952 C951 1.524 . S
C953 C950 1.403 . S
C953 C954 1.392 . S
C953 C957 1.495 . S
C954 C953 1.392 . S
C954 C955 1.385 . S
C954 C956 1.478 . S
C955 H949 0.930 . S
C955 C951 1.400 . S
C955 C954 1.385 . S
C956 C954 1.478 . S
C956 C958 1.381 . S
C956 C962 1.383 . S
C957 C953 1.495 . S
C957 H963 0.959 . S
C957 H964 0.961 . S
C957 H965 0.960 . S
C958 C956 1.381 . S
C958 C959 1.394 . S
C958 H966 0.930 . S
C959 C958 1.394 . S
C959 C960 1.383 . S
C959 H967 0.929 . S
C960 C959 1.383 . S
C960 C961 1.377 . S
C961 H945 0.930 . S
C961 C960 1.377 . S
C961 C962 1.379 . S
C962 H946 0.931 . S
C962 C956 1.383 . S
C962 C961 1.379 . S
H963 C957 0.959 . S
H964 C957 0.961 . S
H965 C957 0.960 . S
H966 C958 0.930 . S
H967 C959 0.929 . S
H968 C976 0.929 . S
H969 C978 0.930 . S
H970 C980 0.930 . S
H971 C983 0.929 . S
H972 C986 0.930 . S
H973 C988 0.960 . S
H974 C988 0.960 . S
H975 C988 0.960 . S
C976 H968 0.929 . S
C976 C977 1.377 . S
C976 C978 1.384 . S
C977 C976 1.377 . S
C977 C983 1.390 . S
C978 H969 0.930 . S
C978 C976 1.384 . S
C978 C979 1.372 . S
C979 C978 1.372 . S
C979 C980 1.400 . S
C979 C984 1.490 . S
C980 H970 0.930 . S
C980 C979 1.400 . S
C980 C983 1.386 . S
H981 C997 0.930 . S
H982 C998 0.931 . S
C983 H971 0.929 . S
C983 C977 1.390 . S
C983 C980 1.386 . S
C984 C979 1.490 . S
C984 C986 1.395 . S
C984 C987 1.403 . S
H985 C991 0.930 . S
C986 H972 0.930 . S
C986 C984 1.395 . S
C986 C989 1.403 . S
C987 C984 1.403 . S
C987 C988 1.524 . S
C987 C991 1.400 . S
C988 H973 0.960 . S
C988 H974 0.960 . S
C988 H975 0.960 . S
C988 C987 1.524 . S
C989 C986 1.403 . S
C989 C990 1.392 . S
C989 C993 1.495 . S
C990 C989 1.392 . S
C990 C991 1.385 . S
C990 C992 1.478 . S
C991 H985 0.930 . S
C991 C987 1.400 . S
C991 C990 1.385 . S
C992 C990 1.478 . S
C992 C994 1.381 . S
C992 C998 1.383 . S
C993 C989 1.495 . S
C993 H999 0.959 . S
C993 H1000 0.961 . S
C993 H1001 0.960 . S
C994 C992 1.381 . S
C994 C995 1.394 . S
C994 H1002 0.930 . S
C995 C994 1.394 . S
C995 C996 1.383 . S
C995 H1003 0.929 . S
C996 C995 1.383 . S
C996 C997 1.377 . S
C997 H981 0.930 . S
C997 C996 1.377 . S
C997 C998 1.379 . S
C998 H982 0.931 . S
C998 C992 1.383 . S
C998 C997 1.379 . S
H999 C993 0.959 . S
H1000 C993 0.961 . S
H1001 C993 0.960 . S
H1002 C994 0.930 . S
H1003 C995 0.929 . S
H1004 C1012 0.929 . S
H1005 C1014 0.930 . S
H1006 C1016 0.930 . S
H1007 C1019 0.929 . S
H1008 C1022 0.930 . S
H1009 C1024 0.960 . S
H1010 C1024 0.960 . S
H1011 C1024 0.960 . S
C1012 H1004 0.929 . S
C1012 C1013 1.377 . S
C1012 C1014 1.384 . S
C1013 C1012 1.377 . S
C1013 C1019 1.390 . S
C1014 H1005 0.930 . S
C1014 C1012 1.384 . S
C1014 C1015 1.372 . S
C1015 C1014 1.372 . S
C1015 C1016 1.400 . S
C1015 C1020 1.490 . S
C1016 H1006 0.930 . S
C1016 C1015 1.400 . S
C1016 C1019 1.386 . S
H1017 C1033 0.930 . S
H1018 C1034 0.931 . S
C1019 H1007 0.929 . S
C1019 C1013 1.390 . S
C1019 C1016 1.386 . S
C1020 C1015 1.490 . S
C1020 C1022 1.395 . S
C1020 C1023 1.403 . S
H1021 C1027 0.930 . S
C1022 H1008 0.930 . S
C1022 C1020 1.395 . S
C1022 C1025 1.403 . S
C1023 C1020 1.403 . S
C1023 C1024 1.524 . S
C1023 C1027 1.400 . S
C1024 H1009 0.960 . S
C1024 H1010 0.960 . S
C1024 H1011 0.960 . S
C1024 C1023 1.524 . S
C1025 C1022 1.403 . S
C1025 C1026 1.392 . S
C1025 C1029 1.495 . S
C1026 C1025 1.392 . S
C1026 C1027 1.385 . S
C1026 C1028 1.478 . S
C1027 H1021 0.930 . S
C1027 C1023 1.400 . S
C1027 C1026 1.385 . S
C1028 C1026 1.478 . S
C1028 C1030 1.381 . S
C1028 C1034 1.383 . S
C1029 C1025 1.495 . S
C1029 H1035 0.959 . S
C1029 H1036 0.961 . S
C1029 H1037 0.960 . S
C1030 C1028 1.381 . S
C1030 C1031 1.394 . S
C1030 H1038 0.930 . S
C1031 C1030 1.394 . S
C1031 C1032 1.383 . S
C1031 H1039 0.929 . S
C1032 C1031 1.383 . S
C1032 C1033 1.377 . S
C1033 H1017 0.930 . S
C1033 C1032 1.377 . S
C1033 C1034 1.379 . S
C1034 H1018 0.931 . S
C1034 C1028 1.383 . S
C1034 C1033 1.379 . S
H1035 C1029 0.959 . S
H1036 C1029 0.961 . S
H1037 C1029 0.960 . S
H1038 C1030 0.930 . S
H1039 C1031 0.929 . S
H1040 C1048 0.929 . S
H1041 C1050 0.930 . S
H1042 C1052 0.930 . S
H1043 C1055 0.929 . S
H1044 C1058 0.930 . S
H1045 C1060 0.960 . S
H1046 C1060 0.960 . S
H1047 C1060 0.960 . S
C1048 H1040 0.929 . S
C1048 C1049 1.377 . S
C1048 C1050 1.384 . S
C1049 C1048 1.377 . S
C1049 C1055 1.390 . S
C1050 H1041 0.930 . S
C1050 C1048 1.384 . S
C1050 C1051 1.372 . S
C1051 C1050 1.372 . S
C1051 C1052 1.400 . S
C1051 C1056 1.490 . S
C1052 H1042 0.930 . S
C1052 C1051 1.400 . S
C1052 C1055 1.386 . S
H1053 C1069 0.930 . S
H1054 C1070 0.931 . S
C1055 H1043 0.929 . S
C1055 C1049 1.390 . S
C1055 C1052 1.386 . S
C1056 C1051 1.490 . S
C1056 C1058 1.395 . S
C1056 C1059 1.403 . S
H1057 C1063 0.930 . S
C1058 H1044 0.930 . S
C1058 C1056 1.395 . S
C1058 C1061 1.403 . S
C1059 C1056 1.403 . S
C1059 C1060 1.524 . S
C1059 C1063 1.400 . S
C1060 H1045 0.960 . S
C1060 H1046 0.960 . S
C1060 H1047 0.960 . S
C1060 C1059 1.524 . S
C1061 C1058 1.403 . S
C1061 C1062 1.392 . S
C1061 C1065 1.495 . S
C1062 C1061 1.392 . S
C1062 C1063 1.385 . S
C1062 C1064 1.478 . S
C1063 H1057 0.930 . S
C1063 C1059 1.400 . S
C1063 C1062 1.385 . S
C1064 C1062 1.478 . S
C1064 C1066 1.381 . S
C1064 C1070 1.383 . S
C1065 C1061 1.495 . S
C1065 H1071 0.959 . S
C1065 H1072 0.961 . S
C1065 H1073 0.960 . S
C1066 C1064 1.381 . S
C1066 C1067 1.394 . S
C1066 H1074 0.930 . S
C1067 C1066 1.394 . S
C1067 C1068 1.383 . S
C1067 H1075 0.929 . S
C1068 C1067 1.383 . S
C1068 C1069 1.377 . S
C1069 H1053 0.930 . S
C1069 C1068 1.377 . S
C1069 C1070 1.379 . S
C1070 H1054 0.931 . S
C1070 C1064 1.383 . S
C1070 C1069 1.379 . S
H1071 C1065 0.959 . S
H1072 C1065 0.961 . S
H1073 C1065 0.960 . S
H1074 C1066 0.930 . S
H1075 C1067 0.929 . S
H1076 C1084 0.929 . S
H1077 C1086 0.930 . S
H1078 C1088 0.930 . S
H1079 C1091 0.929 . S
H1080 C1094 0.930 . S
H1081 C1096 0.960 . S
H1082 C1096 0.960 . S
H1083 C1096 0.960 . S
C1084 H1076 0.929 . S
C1084 C1085 1.377 . S
C1084 C1086 1.384 . S
C1085 C1084 1.377 . S
C1085 C1091 1.390 . S
C1086 H1077 0.930 . S
C1086 C1084 1.384 . S
C1086 C1087 1.372 . S
C1087 C1086 1.372 . S
C1087 C1088 1.400 . S
C1087 C1092 1.490 . S
C1088 H1078 0.930 . S
C1088 C1087 1.400 . S
C1088 C1091 1.386 . S
H1089 C1105 0.930 . S
H1090 C1106 0.931 . S
C1091 H1079 0.929 . S
C1091 C1085 1.390 . S
C1091 C1088 1.386 . S
C1092 C1087 1.490 . S
C1092 C1094 1.395 . S
C1092 C1095 1.403 . S
H1093 C1099 0.930 . S
C1094 H1080 0.930 . S
C1094 C1092 1.395 . S
C1094 C1097 1.403 . S
C1095 C1092 1.403 . S
C1095 C1096 1.524 . S
C1095 C1099 1.400 . S
C1096 H1081 0.960 . S
C1096 H1082 0.960 . S
C1096 H1083 0.960 . S
C1096 C1095 1.524 . S
C1097 C1094 1.403 . S
C1097 C1098 1.392 . S
C1097 C1101 1.495 . S
C1098 C1097 1.392 . S
C1098 C1099 1.385 . S
C1098 C1100 1.478 . S
C1099 H1093 0.930 . S
C1099 C1095 1.400 . S
C1099 C1098 1.385 . S
C1100 C1098 1.478 . S
C1100 C1102 1.381 . S
C1100 C1106 1.383 . S
C1101 C1097 1.495 . S
C1101 H1107 0.959 . S
C1101 H1108 0.961 . S
C1101 H1109 0.960 . S
C1102 C1100 1.381 . S
C1102 C1103 1.394 . S
C1102 H1110 0.930 . S
C1103 C1102 1.394 . S
C1103 C1104 1.383 . S
C1103 H1111 0.929 . S
C1104 C1103 1.383 . S
C1104 C1105 1.377 . S
C1105 H1089 0.930 . S
C1105 C1104 1.377 . S
C1105 C1106 1.379 . S
C1106 H1090 0.931 . S
C1106 C1100 1.383 . S
C1106 C1105 1.379 . S
H1107 C1101 0.959 . S
H1108 C1101 0.961 . S
H1109 C1101 0.960 . S
H1110 C1102 0.930 . S
H1111 C1103 0.929 . S
C257 C5 1.044 . S
C276 C95 1.293 . S
C293 C18 1.010 . S
C312 C144 1.085 . S
C348 C170 2.230 . S
C329 C30 2.260 . S
C365 C41 1.918 . S
C384 C218 1.874 . S
C420 C130 2.471 . S
C401 C7 2.311 . S
C456 C98 1.046 . S
C437 C16 0.985 . S
C492 C219 1.879 . S
C473 C29 1.845 . S
C528 C187 1.025 . S
C509 C38 0.945 . S
C545 C8 1.614 . S
C564 C215 1.690 . S
C600 C147 2.545 . S
C581 C27 2.388 . S
C617 C40 2.405 . S
C636 C99 2.443 . S
C653 C19 0.526 . S
C672 C184 0.496 . S
C708 C104 1.142 . S
C689 C51 1.032 . S
C725 C62 1.388 . S
C744 C135 1.396 . S
C761 C74 2.354 . S
C780 C179 2.333 . S
C797 C84 2.062 . S
C816 C227 2.097 . S
C833 C49 2.161 . S
C852 C139 2.707 1_556 S
C888 C107 1.077 . S
C869 C63 1.063 . S
C924 C210 1.774 . S
C905 C71 1.614 . S
C960 C178 1.134 . S
C941 C85 1.164 . S
C977 C52 1.585 . S
C996 C224 1.660 . S
C1032 C138 2.619 . S
C1013 C73 2.654 . S
C1068 C90 1.859 . S
C1049 C82 1.607 . S
C1085 C60 0.764 . S
C1104 C175 0.744 . S
