# Generated by pormake.
# Topology myd, (4,6)-cn, num edge types: 1
# Building blocks:
#     Node 0, Type 0, BuildingBlock: KOZSID_clean_sbu_0, # of connection points: 4
#     Node 1, Type 0, BuildingBlock: KOZSID_clean_sbu_0, # of connection points: 4
#     Node 2, Type 0, BuildingBlock: KOZSID_clean_sbu_0, # of connection points: 4
#     Node 3, Type 0, BuildingBlock: KOZSID_clean_sbu_0, # of connection points: 4
#     Node 4, Type 0, BuildingBlock: KOZSID_clean_sbu_0, # of connection points: 4
#     Node 5, Type 0, BuildingBlock: KOZSID_clean_sbu_0, # of connection points: 4
#     Node 6, Type 0, BuildingBlock: KOZSID_clean_sbu_0, # of connection points: 4
#     Node 7, Type 0, BuildingBlock: KOZSID_clean_sbu_0, # of connection points: 4
#     Node 8, Type 0, BuildingBlock: KOZSID_clean_sbu_0, # of connection points: 4
#     Node 9, Type 0, BuildingBlock: KOZSID_clean_sbu_0, # of connection points: 4
#     Node 10, Type 0, BuildingBlock: KOZSID_clean_sbu_0, # of connection points: 4
#     Node 11, Type 0, BuildingBlock: KOZSID_clean_sbu_0, # of connection points: 4
#     Node 12, Type 1, BuildingBlock: CUWYAW_clean_sbu_0, # of connection points: 6
#     Node 13, Type 1, BuildingBlock: CUWYAW_clean_sbu_0, # of connection points: 6
#     Node 14, Type 1, BuildingBlock: CUWYAW_clean_sbu_0, # of connection points: 6
#     Node 15, Type 1, BuildingBlock: CUWYAW_clean_sbu_0, # of connection points: 6
#     Node 16, Type 1, BuildingBlock: CUWYAW_clean_sbu_0, # of connection points: 6
#     Node 17, Type 1, BuildingBlock: CUWYAW_clean_sbu_0, # of connection points: 6
#     Node 18, Type 1, BuildingBlock: CUWYAW_clean_sbu_0, # of connection points: 6
#     Node 19, Type 1, BuildingBlock: CUWYAW_clean_sbu_0, # of connection points: 6
#     Edge 20, Type (0, 1), BuildingBlock: XUDNAN_clean_linker_2, # of connection points: 2
#     Edge 21, Type (0, 1), BuildingBlock: XUDNAN_clean_linker_2, # of connection points: 2
#     Edge 22, Type (0, 1), BuildingBlock: XUDNAN_clean_linker_2, # of connection points: 2
#     Edge 23, Type (0, 1), BuildingBlock: XUDNAN_clean_linker_2, # of connection points: 2
#     Edge 24, Type (0, 1), BuildingBlock: XUDNAN_clean_linker_2, # of connection points: 2
#     Edge 25, Type (0, 1), BuildingBlock: XUDNAN_clean_linker_2, # of connection points: 2
#     Edge 26, Type (0, 1), BuildingBlock: XUDNAN_clean_linker_2, # of connection points: 2
#     Edge 27, Type (0, 1), BuildingBlock: XUDNAN_clean_linker_2, # of connection points: 2
#     Edge 28, Type (0, 1), BuildingBlock: XUDNAN_clean_linker_2, # of connection points: 2
#     Edge 29, Type (0, 1), BuildingBlock: XUDNAN_clean_linker_2, # of connection points: 2
#     Edge 30, Type (0, 1), BuildingBlock: XUDNAN_clean_linker_2, # of connection points: 2
#     Edge 31, Type (0, 1), BuildingBlock: XUDNAN_clean_linker_2, # of connection points: 2
#     Edge 32, Type (0, 1), BuildingBlock: XUDNAN_clean_linker_2, # of connection points: 2
#     Edge 33, Type (0, 1), BuildingBlock: XUDNAN_clean_linker_2, # of connection points: 2
#     Edge 34, Type (0, 1), BuildingBlock: XUDNAN_clean_linker_2, # of connection points: 2
#     Edge 35, Type (0, 1), BuildingBlock: XUDNAN_clean_linker_2, # of connection points: 2
#     Edge 36, Type (0, 1), BuildingBlock: XUDNAN_clean_linker_2, # of connection points: 2
#     Edge 37, Type (0, 1), BuildingBlock: XUDNAN_clean_linker_2, # of connection points: 2
#     Edge 38, Type (0, 1), BuildingBlock: XUDNAN_clean_linker_2, # of connection points: 2
#     Edge 39, Type (0, 1), BuildingBlock: XUDNAN_clean_linker_2, # of connection points: 2
#     Edge 40, Type (0, 1), BuildingBlock: XUDNAN_clean_linker_2, # of connection points: 2
#     Edge 41, Type (0, 1), BuildingBlock: XUDNAN_clean_linker_2, # of connection points: 2
#     Edge 42, Type (0, 1), BuildingBlock: XUDNAN_clean_linker_2, # of connection points: 2
#     Edge 43, Type (0, 1), BuildingBlock: XUDNAN_clean_linker_2, # of connection points: 2
#     Edge 44, Type (0, 1), BuildingBlock: XUDNAN_clean_linker_2, # of connection points: 2
#     Edge 45, Type (0, 1), BuildingBlock: XUDNAN_clean_linker_2, # of connection points: 2
#     Edge 46, Type (0, 1), BuildingBlock: XUDNAN_clean_linker_2, # of connection points: 2
#     Edge 47, Type (0, 1), BuildingBlock: XUDNAN_clean_linker_2, # of connection points: 2
#     Edge 48, Type (0, 1), BuildingBlock: XUDNAN_clean_linker_2, # of connection points: 2
#     Edge 49, Type (0, 1), BuildingBlock: XUDNAN_clean_linker_2, # of connection points: 2
#     Edge 50, Type (0, 1), BuildingBlock: XUDNAN_clean_linker_2, # of connection points: 2
#     Edge 51, Type (0, 1), BuildingBlock: XUDNAN_clean_linker_2, # of connection points: 2
#     Edge 52, Type (0, 1), BuildingBlock: XUDNAN_clean_linker_2, # of connection points: 2
#     Edge 53, Type (0, 1), BuildingBlock: XUDNAN_clean_linker_2, # of connection points: 2
#     Edge 54, Type (0, 1), BuildingBlock: XUDNAN_clean_linker_2, # of connection points: 2
#     Edge 55, Type (0, 1), BuildingBlock: XUDNAN_clean_linker_2, # of connection points: 2
#     Edge 56, Type (0, 1), BuildingBlock: XUDNAN_clean_linker_2, # of connection points: 2
#     Edge 57, Type (0, 1), BuildingBlock: XUDNAN_clean_linker_2, # of connection points: 2
#     Edge 58, Type (0, 1), BuildingBlock: XUDNAN_clean_linker_2, # of connection points: 2
#     Edge 59, Type (0, 1), BuildingBlock: XUDNAN_clean_linker_2, # of connection points: 2
#     Edge 60, Type (0, 1), BuildingBlock: XUDNAN_clean_linker_2, # of connection points: 2
#     Edge 61, Type (0, 1), BuildingBlock: XUDNAN_clean_linker_2, # of connection points: 2
#     Edge 62, Type (0, 1), BuildingBlock: XUDNAN_clean_linker_2, # of connection points: 2
#     Edge 63, Type (0, 1), BuildingBlock: XUDNAN_clean_linker_2, # of connection points: 2
#     Edge 64, Type (0, 1), BuildingBlock: XUDNAN_clean_linker_2, # of connection points: 2
#     Edge 65, Type (0, 1), BuildingBlock: XUDNAN_clean_linker_2, # of connection points: 2
#     Edge 66, Type (0, 1), BuildingBlock: XUDNAN_clean_linker_2, # of connection points: 2
#     Edge 67, Type (0, 1), BuildingBlock: XUDNAN_clean_linker_2, # of connection points: 2
# Relax obj value: 0.326
# Max RMSD: 0.377
# Mean RMSD: 0.187
data_MOF--net-myd--node1-KOZSID_clean_sbu_0--node2-CUWYAW_clean_sbu_0--edge1-XUDNAN_clean_linker_2
_symmetry_space_group_name_H-M    P1
_symmetry_Int_Tables_number       1
_symmetry_cell_setting            triclinic
loop_
_symmetry_equiv_pos_as_xyz
'x, y, z'
_cell_length_a     54.196172
_cell_length_b     52.997766
_cell_length_c     53.490683
_cell_angle_alpha  88.854147
_cell_angle_beta   88.585756
_cell_angle_gamma 86.579145
loop_
_atom_site_label
_atom_site_type_symbol
_atom_site_fract_x
_atom_site_fract_y
_atom_site_fract_z
_atom_type_partial_charge
C0 C 0.02542 0.35261 0.38863 0.0
C1 C 1.00204 0.35654 0.39962 0.0
C2 C 0.98713 0.34025 0.38879 0.0
C3 C 1.00216 0.32707 0.37204 0.0
N4 N 0.02594 0.33352 0.37182 0.0
Co5 Co 0.05377 0.31824 0.35027 0.0
N6 N 0.0313 0.29613 0.33271 0.0
C7 C 1.0072 0.29332 0.33845 0.0
C8 C 0.99672 0.27574 0.32429 0.0
C9 C 0.01528 0.26668 0.30861 0.0
C10 C 0.03609 0.27945 0.31399 0.0
N11 N 0.08155 0.30402 0.32832 0.0
C12 C 0.08151 0.28777 0.30905 0.0
C13 C 0.10485 0.28452 0.29774 0.0
C14 C 0.12023 0.29852 0.31079 0.0
C15 C 0.10545 0.30982 0.32895 0.0
N16 N 0.07619 0.34028 0.36845 0.0
C17 C 0.10099 0.34034 0.36527 0.0
C18 C 0.11159 0.35844 0.3786 0.0
C19 C 0.09246 0.37091 0.39103 0.0
C20 C 0.07108 0.35942 0.38493 0.0
N21 N 0.06022 0.28923 0.37534 0.0
C22 C 0.06471 0.24 0.39909 0.0
C23 C 0.08511 0.2509 0.38743 0.0
C24 C 0.08255 0.27532 0.37601 0.0
C25 C 0.04287 0.25551 0.40078 0.0
C26 C 0.04116 0.27971 0.38934 0.0
N27 N 0.04706 0.34572 0.32427 0.0
C28 C 0.06117 0.37439 0.29124 0.0
C29 C 0.03695 0.38007 0.28329 0.0
C30 C 0.01799 0.36854 0.2967 0.0
C31 C 0.02335 0.35154 0.31665 0.0
C32 C 0.06575 0.35762 0.31182 0.0
H33 H 1.00797 0.34302 0.32553 0.0
H34 H 0.08456 0.35441 0.31733 0.0
H35 H 0.0988 0.28213 0.36712 0.0
H36 H 0.02377 0.28988 0.39157 0.0
C37 C 0.99475 0.30808 0.35663 0.0
C38 C 0.04632 0.36781 0.39466 0.0
C39 C 0.06008 0.27465 0.30122 0.0
C40 C 0.11331 0.32604 0.34682 0.0
H41 H 0.99627 0.36988 0.41397 0.0
H42 H 0.96764 0.33824 0.39268 0.0
H43 H 0.97781 0.27018 0.32525 0.0
H44 H 1.01369 0.25215 0.29492 0.0
H45 H 0.11035 0.27324 0.2817 0.0
H46 H 0.13981 0.30037 0.30734 0.0
H47 H 0.13079 0.36303 0.37818 0.0
H48 H 0.09429 0.38721 0.40246 0.0
H49 H 0.10273 0.24021 0.38601 0.0
H50 H 0.02671 0.24877 0.41052 0.0
H51 H 0.07649 0.38329 0.28202 0.0
H52 H 0.9989 0.37248 0.29164 0.0
C53 C 0.98768 0.7087 0.22333 0.0
C54 C 0.96467 0.70111 0.21672 0.0
C55 C 0.94743 0.71649 0.22894 0.0
C56 C 0.96077 0.73238 0.24246 0.0
N57 N 0.98545 0.72818 0.23947 0.0
Co58 Co 1.01143 0.7464 0.25634 0.0
N59 N 0.98651 0.76292 0.28004 0.0
C60 C 0.96176 0.76132 0.27983 0.0
C61 C 0.94933 0.77494 0.29821 0.0
C62 C 0.96724 0.78645 0.31052 0.0
C63 C 0.98961 0.77918 0.2988 0.0
N64 N 0.0374 0.76529 0.27249 0.0
C65 C 0.03531 0.78245 0.29097 0.0
C66 C 0.05774 0.79264 0.29544 0.0
C67 C 0.07448 0.78205 0.27866 0.0
C68 C 0.06133 0.76607 0.26502 0.0
N69 N 0.03652 0.72854 0.23384 0.0
C70 C 0.06055 0.73356 0.23071 0.0
C71 C 0.07324 0.71807 0.21397 0.0
C72 C 0.05626 0.70211 0.20607 0.0
C73 C 0.03414 0.70877 0.21858 0.0
N74 N 1.00708 0.77526 0.23165 0.0
C75 C 1.01335 0.82119 0.20514 0.0
C76 C 0.02464 0.79841 0.19661 0.0
C77 C 0.0206 0.77569 0.20956 0.0
C78 C 0.99593 0.81977 0.2247 0.0
C79 C 0.99314 0.79691 0.23765 0.0
N80 N 0.01619 0.71837 0.28105 0.0
C81 C 0.04387 0.69212 0.30654 0.0
C82 C 0.02409 0.6833 0.32099 0.0
C83 C 1.00009 0.69115 0.31368 0.0
C84 C 0.99658 0.7083 0.29353 0.0
C85 C 0.03959 0.7097 0.28713 0.0
H86 H 0.97791 0.71388 0.28871 0.0
H87 H 0.05548 0.71662 0.27754 0.0
H88 H 0.02933 0.7589 0.20167 0.0
H89 H 0.98026 0.79788 0.25307 0.0
C90 C 0.95088 0.74788 0.26137 0.0
C91 C 1.01117 0.69646 0.21468 0.0
C92 C 1.0121 0.79227 0.30233 0.0
C93 C 0.0709 0.7515 0.24525 0.0
H94 H 0.96058 0.68561 0.20498 0.0
H95 H 0.92757 0.71518 0.22914 0.0
H96 H 0.92955 0.77711 0.30158 0.0
H97 H 0.96406 0.79997 0.32532 0.0
H98 H 0.06126 0.80707 0.30873 0.0
H99 H 0.09377 0.78599 0.27628 0.0
H100 H 0.09261 0.71804 0.20855 0.0
H101 H 0.05973 0.68731 0.19255 0.0
H102 H 0.03744 0.79808 0.18074 0.0
H103 H 0.98533 0.83654 0.23097 0.0
H104 H 0.06281 0.68595 0.31042 0.0
H105 H 0.98402 0.6849 0.32392 0.0
C106 C 0.40044 0.02587 0.35158 0.0
C107 C 0.40655 1.00079 0.3579 0.0
C108 C 0.39699 0.98642 0.33994 0.0
C109 C 0.38547 1.00339 0.32371 0.0
N110 N 0.38768 0.02779 0.32979 0.0
Co111 Co 0.3704 0.05812 0.31303 0.0
N112 N 0.35058 0.03695 0.29122 0.0
C113 C 0.35371 1.01161 0.28897 0.0
C114 C 0.33757 1.00192 0.27283 0.0
C115 C 0.32329 0.02228 0.26425 0.0
C116 C 0.33149 0.04342 0.27563 0.0
N117 N 0.35216 0.08848 0.29749 0.0
C118 C 0.33246 0.09039 0.28195 0.0
C119 C 0.32534 0.11549 0.27672 0.0
C120 C 0.34081 0.12986 0.28944 0.0
C121 C 0.35648 0.11286 0.30177 0.0
N122 N 0.39018 0.07914 0.33502 0.0
C123 C 0.39135 0.10448 0.33332 0.0
C124 C 0.40499 0.1141 0.35181 0.0
C125 C 0.41254 0.09375 0.36646 0.0
C126 C 0.40299 0.07272 0.35618 0.0
N127 N 0.3968 0.05879 0.28552 0.0
C128 C 0.42908 0.05849 0.24233 0.0
C129 C 0.41792 0.08102 0.25155 0.0
C130 C 0.40231 0.08079 0.27302 0.0
C131 C 0.42444 0.03628 0.25575 0.0
C132 C 0.40864 0.03686 0.27696 0.0
N133 N 0.34452 0.05737 0.33943 0.0
C134 C 0.31723 0.07852 0.36972 0.0
C135 C 0.30724 0.05559 0.3767 0.0
C136 C 0.31701 0.03355 0.36527 0.0
C137 C 0.33499 0.03495 0.34646 0.0
C138 C 0.33601 0.07892 0.35135 0.0
H139 H 0.34085 1.01765 0.33768 0.0
H140 H 0.34322 0.09684 0.34676 0.0
H141 H 0.39491 0.09878 0.27886 0.0
H142 H 0.40627 1.01906 0.28576 0.0
C143 C 0.3699 0.99721 0.30444 0.0
C144 C 0.40621 0.04713 0.36749 0.0
C145 C 0.32034 0.06916 0.27109 0.0
C146 C 0.37521 0.11894 0.31788 0.0
H147 H 0.4161 0.99355 0.3743 0.0
H148 H 0.39721 0.966 0.33958 0.0
H149 H 0.33581 0.98226 0.26847 0.0
H150 H 0.30827 0.0216 0.25137 0.0
H151 H 0.31048 0.12266 0.2649 0.0
H152 H 0.3405 0.15028 0.28984 0.0
H153 H 0.40765 0.13379 0.3553 0.0
H154 H 0.42308 0.09442 0.38334 0.0
H155 H 0.42135 0.09892 0.24238 0.0
H156 H 0.43253 1.0182 0.24963 0.0
H157 H 0.31024 0.09617 0.3778 0.0
H158 H 0.31057 1.01517 0.37044 0.0
C159 C 0.66026 0.50729 0.34656 0.0
C160 C 0.65095 0.48439 0.34072 0.0
C161 C 0.66238 0.46653 0.35591 0.0
C162 C 0.67794 0.47954 0.37009 0.0
N163 N 0.67665 0.50473 0.36527 0.0
Co164 Co 0.69702 0.53074 0.38016 0.0
N165 N 0.71746 0.50402 0.39842 0.0
C166 C 0.71632 0.47868 0.39676 0.0
C167 C 0.7333 0.46519 0.41103 0.0
C168 C 0.74552 0.48298 0.42305 0.0
C169 C 0.73487 0.50641 0.41573 0.0
N170 N 0.71677 0.55682 0.39576 0.0
C171 C 0.73196 0.55429 0.41552 0.0
C172 C 0.73802 0.57773 0.42401 0.0
C173 C 0.72665 0.59556 0.40888 0.0
C174 C 0.71384 0.58222 0.39243 0.0
N175 N 0.67697 0.55728 0.36109 0.0
C176 C 0.67898 0.58256 0.36135 0.0
C177 C 0.66432 0.59571 0.34445 0.0
C178 C 0.65277 0.57766 0.33207 0.0
C179 C 0.66114 0.55455 0.34228 0.0
N180 N 0.67386 0.53352 0.40969 0.0
C181 C 0.654 0.53847 0.45891 0.0
C182 C 0.65567 0.55956 0.44289 0.0
C183 C 0.66529 0.55664 0.41846 0.0
C184 C 0.66034 0.51468 0.44888 0.0
C185 C 0.6697 0.51264 0.42436 0.0
N186 N 0.72086 0.52798 0.35119 0.0
C187 C 0.74969 0.5468 0.3219 0.0
C188 C 0.75774 0.52301 0.313 0.0
C189 C 0.74617 0.50197 0.32269 0.0
C190 C 0.72783 0.50487 0.34138 0.0
C191 C 0.73141 0.54884 0.34095 0.0
H192 H 0.7198 0.48802 0.34779 0.0
H193 H 0.72635 0.56741 0.34738 0.0
H194 H 0.66651 0.57347 0.40737 0.0
H195 H 0.6746 0.494 0.41812 0.0
C196 C 0.69712 0.46827 0.3842 0.0
C197 C 0.65517 0.53047 0.33217 0.0
C198 C 0.73997 0.53015 0.42745 0.0
C199 C 0.69631 0.5931 0.37619 0.0
H200 H 0.63824 0.48082 0.32608 0.0
H201 H 0.6609 0.44627 0.35535 0.0
H202 H 0.73569 0.44486 0.41338 0.0
H203 H 0.75985 0.47904 0.43655 0.0
H204 H 0.74856 0.58187 0.44016 0.0
H205 H 0.72637 0.61587 0.41077 0.0
H206 H 0.66308 0.6159 0.34074 0.0
H207 H 0.64039 0.58098 0.31662 0.0
H208 H 0.64998 0.57833 0.44924 0.0
H209 H 0.65922 0.49758 0.46015 0.0
H210 H 0.75806 0.56367 0.31485 0.0
H211 H 0.75139 0.4832 0.31598 0.0
C212 C 0.43227 0.40327 0.99688 0.0
C213 C 0.44335 0.40475 0.97325 0.0
C214 C 0.43278 0.38745 0.95888 0.0
C215 C 0.41582 0.37644 0.97442 0.0
N216 N 0.41465 0.38597 0.99762 0.0
Co217 Co 0.39322 0.37406 0.02592 0.0
N218 N 0.37277 0.35527 1.00315 0.0
C219 C 0.37911 0.3485 0.97964 0.0
C220 C 0.36156 0.33513 0.96858 0.0
C221 C 0.34299 0.33333 0.98627 0.0
C222 C 0.35028 0.34587 1.00717 0.0
N223 N 0.37178 0.36245 0.05416 0.0
C224 C 0.3489 0.35345 0.05377 0.0
C225 C 0.33974 0.34938 0.07792 0.0
C226 C 0.35777 0.35546 0.09383 0.0
C227 C 0.37677 0.36316 0.07865 0.0
N228 N 0.41405 0.39263 0.04872 0.0
C229 C 0.41422 0.39003 0.07384 0.0
C230 C 0.43062 0.40482 0.08487 0.0
C231 C 0.44187 0.41727 0.06554 0.0
C232 C 0.43176 0.40927 0.04366 0.0
N233 N 0.37015 0.40389 0.02182 0.0
C234 C 0.32244 0.42731 1.01823 0.0
C235 C 0.33454 0.42569 0.04119 0.0
C236 C 0.35861 0.41447 0.04246 0.0
C237 C 0.33654 0.42065 0.99668 0.0
C238 C 0.36035 0.40912 0.99887 0.0
N239 N 0.41501 0.3431 0.02995 0.0
C240 C 0.41789 0.29776 0.03609 0.0
C241 C 0.44304 0.29671 0.02999 0.0
C242 C 0.45429 0.31946 0.02468 0.0
C243 C 0.44002 0.34257 0.02531 0.0
C244 C 0.40425 0.32085 0.03557 0.0
H245 H 0.44907 0.35979 0.02123 0.0
H246 H 0.38464 0.32026 0.03867 0.0
H247 H 0.36662 0.41179 0.06062 0.0
H248 H 0.36961 0.40201 0.98217 0.0
C249 C 0.3995 0.35853 0.96742 0.0
C250 C 0.44154 0.41598 1.01866 0.0
C251 C 0.33624 0.34692 0.03098 0.0
C252 C 0.39702 0.37564 0.08659 0.0
H253 H 0.45817 0.41648 0.96728 0.0
H254 H 0.43697 0.38341 0.93943 0.0
H255 H 0.36179 0.32829 0.94964 0.0
H256 H 0.32611 0.32379 0.98406 0.0
H257 H 0.32188 0.34281 0.08354 0.0
H258 H 0.35662 0.35551 0.11406 0.0
H259 H 0.43378 0.4066 0.10465 0.0
H260 H 0.45632 0.43034 0.06728 0.0
H261 H 0.32494 0.43102 0.05844 0.0
H262 H 0.32873 0.42276 0.97827 0.0
H263 H 0.40844 0.28058 0.03985 0.0
H264 H 0.47379 0.31934 1.0197 0.0
C265 C 0.30877 0.72254 0.523 0.0
C266 C 0.30753 0.70806 0.50179 0.0
C267 C 0.32454 0.71672 0.485 0.0
C268 C 0.33524 0.73576 0.49697 0.0
N269 N 0.32651 0.73944 0.52059 0.0
Co270 Co 0.33678 0.7651 0.54468 0.0
N271 N 0.35869 0.78051 0.51857 0.0
C272 C 0.36177 0.77376 0.49438 0.0
C273 C 0.37847 0.7875 0.48115 0.0
C274 C 0.38686 0.80376 0.49798 0.0
C275 C 0.3747 0.79892 0.52058 0.0
N276 N 0.34749 0.79026 0.56894 0.0
C277 C 0.36518 0.80715 0.56633 0.0
C278 C 0.36801 0.82015 0.58825 0.0
C279 C 0.35187 0.81069 0.60551 0.0
C280 C 0.34017 0.79258 0.59316 0.0
N281 N 0.31415 0.74986 0.57036 0.0
C282 C 0.31054 0.75693 0.59438 0.0
C283 C 0.29221 0.74468 0.60682 0.0
C284 C 0.28314 0.72925 0.58957 0.0
C285 C 0.29664 0.73288 0.56754 0.0
N286 N 0.36557 0.74162 0.55559 0.0
C287 C 0.41155 0.71731 0.57131 0.0
C288 C 0.39282 0.7249 0.58861 0.0
C289 C 0.37027 0.7368 0.58047 0.0
C290 C 0.40582 0.72057 0.54591 0.0
C291 C 0.38304 0.73233 0.53859 0.0
N292 N 0.30857 0.78933 0.53407 0.0
C293 C 0.27609 0.82184 0.54403 0.0
C294 C 0.26994 0.82549 0.51883 0.0
C295 C 0.2837 0.81033 0.50151 0.0
C296 C 0.30255 0.79262 0.50939 0.0
C297 C 0.29507 0.80388 0.55114 0.0
H298 H 0.31214 0.78179 0.49514 0.0
H299 H 0.29846 0.80207 0.57068 0.0
H300 H 0.35723 0.7427 0.59476 0.0
H301 H 0.38031 0.73439 0.51895 0.0
C302 C 0.351 0.75256 0.4855 0.0
C303 C 0.29123 0.72111 0.54398 0.0
C304 C 0.38033 0.81079 0.54383 0.0
C305 C 0.32306 0.77673 0.60399 0.0
H306 H 0.29487 0.69351 0.49845 0.0
H307 H 0.32778 0.71076 0.4659 0.0
H308 H 0.38467 0.78515 0.4619 0.0
H309 H 0.40104 0.81697 0.49426 0.0
H310 H 0.38079 0.83459 0.59156 0.0
H311 H 0.34943 0.81593 0.62491 0.0
H312 H 0.28547 0.7475 0.62584 0.0
H313 H 0.26777 0.7174 0.59272 0.0
H314 H 0.39589 0.72274 0.60848 0.0
H315 H 0.41909 0.71439 0.53151 0.0
H316 H 0.266 0.83248 0.55846 0.0
H317 H 0.28025 0.81224 0.4817 0.0
C318 C 0.91504 0.88794 0.4859 0.0
C319 C 0.92145 0.89707 0.46226 0.0
C320 C 0.90767 0.88513 0.44565 0.0
C321 C 0.89348 0.86962 0.45998 0.0
N322 N 0.89725 0.87088 0.48479 0.0
Co323 Co 0.87951 0.85186 0.51205 0.0
N324 N 0.86072 0.83305 0.48726 0.0
C325 C 0.8628 0.83489 0.46207 0.0
C326 C 0.84719 0.82022 0.44982 0.0
C327 C 0.83427 0.80831 0.4683 0.0
C328 C 0.84286 0.81638 0.49087 0.0
N329 N 0.8613 0.83371 0.53941 0.0
C330 C 0.84295 0.81748 0.53819 0.0
C331 C 0.83488 0.80995 0.5619 0.0
C332 C 0.84816 0.82229 0.57863 0.0
C333 C 0.86361 0.83647 0.56431 0.0
N334 N 0.89919 0.87007 0.53671 0.0
C335 C 0.89822 0.8671 0.5619 0.0
C336 C 0.91514 0.88028 0.57402 0.0
C337 C 0.92785 0.89236 0.55553 0.0
C338 C 0.91769 0.88615 0.53303 0.0
N339 N 0.85205 0.87883 0.51324 0.0
C340 C 0.80281 0.89816 0.52088 0.0
C341 C 0.81975 0.8976 0.54019 0.0
C342 C 0.84428 0.88862 0.53582 0.0
C343 C 0.81193 0.89246 0.49682 0.0
C344 C 0.83667 0.8832 0.49337 0.0
N345 N 0.90582 0.82378 0.5113 0.0
C346 C 0.92634 0.78814 0.53299 0.0
C347 C 0.93491 0.77766 0.5105 0.0
C348 C 0.93019 0.7915 0.4884 0.0
C349 C 0.91562 0.8144 0.4892 0.0
C350 C 0.91242 0.81119 0.53301 0.0
H351 H 0.91184 0.82381 0.47172 0.0
H352 H 0.90654 0.81801 0.55086 0.0
H353 H 0.85609 0.88803 0.55149 0.0
H354 H 0.8425 0.87811 0.4748 0.0
C355 C 0.87773 0.85244 0.45059 0.0
C356 C 0.92636 0.89614 0.50875 0.0
C357 C 0.83265 0.80867 0.51516 0.0
C358 C 0.8811 0.85187 0.57365 0.0
H359 H 0.93481 0.91084 0.45741 0.0
H360 H 0.90822 0.88722 0.42547 0.0
H361 H 0.84484 0.81903 0.42985 0.0
H362 H 0.81968 0.79566 0.46543 0.0
H363 H 0.82085 0.79688 0.5667 0.0
H364 H 0.84678 0.82098 0.59883 0.0
H365 H 0.91805 0.88084 0.59395 0.0
H366 H 0.94303 0.90427 0.55837 0.0
H367 H 0.81379 0.90285 0.55895 0.0
H368 H 0.79968 0.8934 0.48109 0.0
H369 H 0.93009 0.77834 0.5506 0.0
H370 H 0.93683 0.7842 0.47054 0.0
C371 C 0.52885 0.87099 0.89684 0.0
C372 C 0.50563 0.87694 0.90732 0.0
C373 C 0.49005 0.86041 0.89786 0.0
C374 C 0.50452 0.84533 0.88212 0.0
N375 N 0.5285 0.85101 0.88112 0.0
Co376 Co 0.55543 0.83421 0.85955 0.0
N377 N 0.53171 0.81254 0.84308 0.0
C378 C 0.507 0.81284 0.84726 0.0
C379 C 0.49551 0.79566 0.83346 0.0
C380 C 0.51404 0.78349 0.8198 0.0
C381 C 0.53586 0.7939 0.82622 0.0
N382 N 0.5826 0.81741 0.83861 0.0
C383 C 0.5821 0.79803 0.82248 0.0
C384 C 0.60563 0.79103 0.81314 0.0
C385 C 0.62149 0.80646 0.82378 0.0
C386 C 0.6069 0.82181 0.83907 0.0
N387 N 0.57894 0.8566 0.87575 0.0
C388 C 0.60363 0.85661 0.87147 0.0
C389 C 0.61498 0.87434 0.88467 0.0
C390 C 0.59638 0.88685 0.89788 0.0
C391 C 0.57463 0.87606 0.89186 0.0
N392 N 0.56158 0.8065 0.88583 0.0
C393 C 0.57295 0.76074 0.91412 0.0
C394 C 0.59082 0.7783 0.90858 0.0
C395 C 0.58487 0.80064 0.89463 0.0
C396 C 0.54892 0.76735 0.90619 0.0
C397 C 0.5436 0.79023 0.89273 0.0
N398 N 0.54944 0.86063 0.83228 0.0
C399 C 0.56535 0.88597 0.7976 0.0
C400 C 0.54154 0.89228 0.78867 0.0
C401 C 0.52174 0.88305 0.80286 0.0
C402 C 0.52602 0.86767 0.82442 0.0
C403 C 0.56881 0.87048 0.81913 0.0
H404 H 0.51007 0.8614 0.8343 0.0
H405 H 0.58747 0.86628 0.82451 0.0
H406 H 0.59968 0.81259 0.89072 0.0
H407 H 0.52478 0.79411 0.88774 0.0
C408 C 0.49561 0.82788 0.86588 0.0
C409 C 0.55035 0.88568 0.90141 0.0
C410 C 0.56012 0.78487 0.81648 0.0
C411 C 0.61554 0.84009 0.85449 0.0
H412 H 0.50032 0.89211 0.91996 0.0
H413 H 0.47029 0.86013 0.90121 0.0
H414 H 0.47609 0.7919 0.83386 0.0
H415 H 0.51185 0.76829 0.80697 0.0
H416 H 0.61097 0.77597 0.8004 0.0
H417 H 0.64137 0.80613 0.82111 0.0
H418 H 0.63442 0.87803 0.88438 0.0
H419 H 0.59851 0.90244 0.91026 0.0
H420 H 0.60969 0.77455 0.91444 0.0
H421 H 0.5341 0.75504 0.9106 0.0
H422 H 0.58153 0.89234 0.78766 0.0
H423 H 0.50286 0.88772 0.79749 0.0
C424 C 0.54207 0.29402 0.74875 0.0
C425 C 0.56521 0.29803 0.7383 0.0
C426 C 0.57982 0.27651 0.74324 0.0
C427 C 0.56475 0.26066 0.75631 0.0
N428 N 0.54169 0.27093 0.75977 0.0
Co429 Co 0.51384 0.25469 0.77677 0.0
N430 N 0.53667 0.23093 0.79526 0.0
C431 C 0.56055 0.22525 0.78894 0.0
C432 C 0.57171 0.20759 0.80472 0.0
C433 C 0.55366 0.20158 0.82184 0.0
C434 C 0.53234 0.21601 0.81555 0.0
N435 N 0.48591 0.23799 0.79333 0.0
C436 C 0.48566 0.22228 0.81367 0.0
C437 C 0.46187 0.21491 0.8188 0.0
C438 C 0.44701 0.22596 0.80069 0.0
C439 C 0.4624 0.23959 0.78557 0.0
N440 N 0.49148 0.27903 0.75829 0.0
C441 C 0.46736 0.27664 0.7544 0.0
C442 C 0.45642 0.29786 0.74307 0.0
C443 C 0.47488 0.3145 0.73978 0.0
C444 C 0.49615 0.30245 0.74922 0.0
N445 N 0.51334 0.23067 0.74942 0.0
C446 C 0.51141 0.19623 0.7105 0.0
C447 C 0.51433 0.22194 0.70536 0.0
C448 C 0.51507 0.23886 0.72505 0.0
C449 C 0.50956 0.18816 0.7355 0.0
C450 C 0.51073 0.20557 0.75461 0.0
N451 N 0.5138 0.2787 0.80397 0.0
C452 C 0.49068 0.30921 0.82932 0.0
C453 C 0.51258 0.31913 0.83659 0.0
C454 C 0.5352 0.30744 0.82861 0.0
C455 C 0.53541 0.28691 0.81254 0.0
C456 C 0.49168 0.28915 0.81289 0.0
H457 H 0.55297 0.27851 0.80604 0.0
H458 H 0.47443 0.28307 0.8064 0.0
H459 H 0.51698 0.2586 0.72058 0.0
H460 H 0.50947 0.19862 0.77363 0.0
C461 C 0.57253 0.23896 0.76999 0.0
C462 C 0.52095 0.31255 0.74847 0.0
C463 C 0.50782 0.21256 0.82715 0.0
C464 C 0.45493 0.25738 0.76693 0.0
H465 H 0.57094 0.31494 0.72867 0.0
H466 H 0.59941 0.27344 0.73909 0.0
H467 H 0.59077 0.20022 0.80411 0.0
H468 H 0.55584 0.1876 0.83676 0.0
H469 H 0.45586 0.2027 0.83393 0.0
H470 H 0.42721 0.22493 0.79932 0.0
H471 H 0.43703 0.30152 0.73916 0.0
H472 H 0.47267 0.33331 0.73169 0.0
H473 H 0.51571 0.22899 0.68626 0.0
H474 H 0.50764 0.16841 0.74033 0.0
H475 H 0.47289 0.31793 0.83502 0.0
H476 H 0.55252 0.31471 0.834 0.0
C477 C 0.90492 0.52626 0.85768 0.0
C478 C 0.9128 0.50165 0.86401 0.0
C479 C 0.90187 0.48627 0.84785 0.0
C480 C 0.88802 0.50222 0.83242 0.0
N481 N 0.8899 0.52689 0.83741 0.0
Co482 Co 0.87073 0.556 0.82082 0.0
N483 N 0.84815 0.53344 0.80366 0.0
C484 C 0.85034 0.50791 0.8039 0.0
C485 C 0.83213 0.49716 0.79114 0.0
C486 C 0.81718 0.517 0.78256 0.0
C487 C 0.82701 0.53892 0.79066 0.0
N488 N 0.85148 0.58522 0.80438 0.0
C489 C 0.83011 0.58623 0.79113 0.0
C490 C 0.82298 0.61097 0.78438 0.0
C491 C 0.8403 0.62593 0.7934 0.0
C492 C 0.85702 0.60971 0.80533 0.0
N493 N 0.89249 0.57851 0.83922 0.0
C494 C 0.89234 0.60395 0.83675 0.0
C495 C 0.90673 0.6149 0.85373 0.0
C496 C 0.91611 0.59539 0.86843 0.0
C497 C 0.90705 0.57341 0.85952 0.0
N498 N 0.89426 0.55466 0.79073 0.0
C499 C 0.91989 0.55624 0.74342 0.0
C500 C 0.91782 0.57719 0.75898 0.0
C501 C 0.90548 0.57589 0.78231 0.0
C502 C 0.91062 0.53383 0.75291 0.0
C503 C 0.89807 0.53344 0.77635 0.0
N504 N 0.8477 0.55747 0.84984 0.0
C505 C 0.82512 0.58183 0.88135 0.0
C506 C 0.81738 0.55979 0.893 0.0
C507 C 0.8249 0.53652 0.88261 0.0
C508 C 0.83986 0.5358 0.861 0.0
C509 C 0.84013 0.58026 0.8599 0.0
H510 H 0.84497 0.51759 0.85356 0.0
H511 H 0.84552 0.59769 0.85179 0.0
H512 H 0.90492 0.59267 0.7928 0.0
H513 H 0.89117 0.51582 0.78196 0.0
C514 C 0.86923 0.49468 0.81713 0.0
C515 C 0.91183 0.54834 0.87179 0.0
C516 C 0.8156 0.56443 0.78523 0.0
C517 C 0.87581 0.61714 0.82068 0.0
H518 H 0.92446 0.49543 0.87936 0.0
H519 H 0.90255 0.46581 0.84847 0.0
H520 H 0.82978 0.47723 0.78869 0.0
H521 H 0.80082 0.51549 0.77161 0.0
H522 H 0.80662 0.61775 0.77458 0.0
H523 H 0.84004 0.64636 0.79246 0.0
H524 H 0.9089 0.63486 0.85618 0.0
H525 H 0.92745 0.59732 0.88456 0.0
H526 H 0.92532 0.59487 0.75294 0.0
H527 H 0.912 0.5169 0.74181 0.0
H528 H 0.81965 0.60025 0.88877 0.0
H529 H 0.81881 0.519 0.89075 0.0
C530 C 0.17448 0.07391 0.90875 0.0
C531 C 0.16719 0.0987 0.91438 0.0
C532 C 0.17834 0.1136 0.89685 0.0
C533 C 0.19164 0.09707 0.88153 0.0
N534 N 0.18898 0.07252 0.88774 0.0
Co535 Co 0.20636 0.04222 0.87182 0.0
N536 N 0.22761 0.06387 0.85008 0.0
C537 C 0.22736 0.08942 0.84987 0.0
C538 C 0.2436 0.09915 0.83272 0.0
C539 C 0.25473 0.07865 0.82107 0.0
C540 C 0.24462 0.05744 0.83182 0.0
N541 N 0.22338 1.01185 0.85553 0.0
C542 C 0.24023 1.01031 0.83627 0.0
C543 C 0.24626 0.98538 0.82999 0.0
C544 C 0.23237 0.97069 0.8454 0.0
C545 C 0.21872 0.98738 0.86023 0.0
N546 N 0.18565 0.02073 0.89437 0.0
C547 C 0.18549 0.99523 0.89464 0.0
C548 C 0.17218 0.98564 0.91442 0.0
C549 C 0.16403 1.00615 0.92808 0.0
C550 C 0.17276 0.02717 0.91573 0.0
N551 N 0.18119 0.04304 0.84529 0.0
C552 C 0.15283 0.04244 0.802 0.0
C553 C 0.15748 0.02045 0.81623 0.0
C554 C 0.17113 0.02129 0.83798 0.0
C555 C 0.16101 0.06504 0.81064 0.0
C556 C 0.17512 0.0649 0.83213 0.0
N557 N 0.23124 0.04126 0.89822 0.0
C558 C 0.25154 1.01761 0.93153 0.0
C559 C 0.25589 0.03989 0.94388 0.0
C560 C 0.25012 0.06288 0.93135 0.0
C561 C 0.23826 0.06308 0.90848 0.0
C562 C 0.23927 1.01872 0.90897 0.0
H563 H 0.23381 0.08115 0.90005 0.0
H564 H 0.23569 1.00106 0.90108 0.0
H565 H 0.17389 1.00394 0.84808 0.0
H566 H 0.18159 0.08259 0.83711 0.0
C567 C 0.21015 0.10383 0.8644 0.0
C568 C 0.17022 0.05269 0.92582 0.0
C569 C 0.2505 0.0318 0.82284 0.0
C570 C 0.20117 0.98078 0.87853 0.0
H571 H 0.15635 0.10528 0.9305 0.0
H572 H 0.17833 0.13403 0.89654 0.0
H573 H 0.24639 0.11886 0.82855 0.0
H574 H 0.26821 0.07934 0.80585 0.0
H575 H 0.2591 0.97858 0.81548 0.0
H576 H 0.232 0.95029 0.84552 0.0
H577 H 0.17012 0.96594 0.91932 0.0
H578 H 0.15384 1.00556 0.94569 0.0
H579 H 0.15099 1.0026 0.81036 0.0
H580 H 0.15765 0.08257 0.80016 0.0
H581 H 0.2572 0.9992 0.93927 0.0
H582 H 0.25342 0.08083 0.93954 0.0
C583 C 0.81358 0.23978 0.02474 0.0
C584 C 0.80812 0.22414 1.00531 0.0
C585 C 0.8244 0.22891 0.9861 0.0
C586 C 0.83886 0.24702 0.99484 0.0
N587 N 0.83275 0.25402 1.01836 0.0
Co588 Co 0.84925 0.27913 0.03821 0.0
N589 N 0.86483 0.29358 1.00754 0.0
C590 C 0.8667 0.28293 0.98485 0.0
C591 C 0.87842 0.29734 0.96718 0.0
C592 C 0.88473 0.31822 0.97957 0.0
C593 C 0.87651 0.31524 1.00421 0.0
N594 N 0.86593 0.3039 0.05817 0.0
C595 C 0.87797 0.3244 0.05056 0.0
C596 C 0.88751 0.33631 0.07081 0.0
C597 C 0.8817 0.32234 0.09171 0.0
C598 C 0.86891 0.30282 0.08312 0.0
N599 N 0.8333 0.26442 0.06861 0.0
C600 C 0.83994 0.2674 0.0924 0.0
C601 C 0.82517 0.25534 0.10946 0.0
C602 C 0.80825 0.24393 0.09553 0.0
C603 C 0.8138 0.24955 0.07064 0.0
N604 N 0.87878 0.25505 0.04263 0.0
C605 C 0.92124 0.225 0.0585 0.0
C606 C 0.89724 0.21603 0.06036 0.0
C607 C 0.87648 0.23108 0.05214 0.0
C608 C 0.92341 0.24874 0.04685 0.0
C609 C 0.90219 0.26331 0.03921 0.0
N610 N 0.82028 0.30401 0.03466 0.0
C611 C 0.79253 0.33589 0.05407 0.0
C612 C 0.78096 0.34237 0.03139 0.0
C613 C 0.78997 0.32904 1.01013 0.0
C614 C 0.80949 0.30998 1.01217 0.0
C615 C 0.81165 0.3169 0.05533 0.0
H616 H 0.8159 0.30018 0.99552 0.0
H617 H 0.81967 0.31295 0.07327 0.0
H618 H 0.85843 0.22366 0.05449 0.0
H619 H 0.90485 0.28187 0.03161 0.0
C620 C 0.85509 0.2608 0.98022 0.0
C621 C 0.80123 0.23937 0.04938 0.0
C622 C 0.88371 0.33113 0.02443 0.0
C623 C 0.85708 0.28501 0.09805 0.0
H624 H 0.79391 0.21065 1.00503 0.0
H625 H 0.82494 0.22087 0.96764 0.0
H626 H 0.88179 0.29326 0.9476 0.0
H627 H 0.89501 0.33346 0.97163 0.0
H628 H 0.8982 0.35294 0.07041 0.0
H629 H 0.88601 0.32615 0.11087 0.0
H630 H 0.82589 0.25569 0.12965 0.0
H631 H 0.79353 0.2328 0.10289 0.0
H632 H 0.89436 0.19762 0.06867 0.0
H633 H 0.9413 0.25675 0.04485 0.0
H634 H 0.78712 0.34569 0.07109 0.0
H635 H 0.78181 0.33298 0.9921 0.0
C636 C 0.09963 0.06684 0.18029 0.0
Eu637 Eu 0.11635 0.10286 0.15143 0.0
C638 C 0.08909 0.04189 0.17871 0.0
C639 C 0.0765 0.03486 0.15755 0.0
C640 C 0.06712 1.01081 0.15649 0.0
C641 C 0.07025 0.99326 0.17651 0.0
C642 C 0.08286 1.00057 0.19765 0.0
C643 C 0.09212 0.0246 0.19872 0.0
C644 C 0.13123 0.09291 0.10298 0.0
C645 C 0.17322 0.11102 0.16387 0.0
C646 C 0.16217 0.17354 0.09186 0.0
Eu647 Eu 0.14083 0.14467 0.12518 0.0
C648 C 0.17093 0.19875 0.08549 0.0
C649 C 0.18387 0.2122 0.10278 0.0
C650 C 0.19703 0.23293 0.09484 0.0
C651 C 0.1973 0.24069 0.06955 0.0
C652 C 0.18292 0.22833 0.05265 0.0
C653 C 0.16996 0.20743 0.06055 0.0
C654 C 0.12425 0.15807 0.17228 0.0
C655 C 0.08045 0.14209 0.12072 0.0
O656 O 0.12281 0.06801 0.1734 0.0
O657 O 0.08606 0.08661 0.17274 0.0
O658 O 0.11098 0.08532 0.11307 0.0
O659 O 0.14291 0.10381 0.11911 0.0
O660 O 0.15153 0.10635 0.17428 0.0
O661 O 0.17379 0.12174 0.14136 0.0
O662 O 0.13851 0.17007 0.09206 0.0
O663 O 0.17372 0.16072 0.1095 0.0
O664 O 0.14349 0.16672 0.16091 0.0
O665 O 0.11382 0.14446 0.15724 0.0
O666 O 0.1011 0.14921 0.1093 0.0
O667 O 0.0819 0.12609 0.14005 0.0
H668 H 0.07399 0.04792 0.14185 0.0
H669 H 0.05728 1.00604 0.14002 0.0
H670 H 0.08606 0.98754 0.21325 0.0
H671 H 0.1019 0.02961 0.21516 0.0
H672 H 0.18491 0.20591 0.12214 0.0
H673 H 0.20773 0.24236 0.1083 0.0
H674 H 0.18292 0.23384 0.03303 0.0
H675 H 0.16031 0.19717 0.04686 0.0
C676 C 0.92352 0.51126 0.10396 0.0
Eu677 Eu 0.97092 0.50821 0.09283 0.0
C678 C 0.9084 0.51476 0.12718 0.0
C679 C 0.91963 0.51414 0.15056 0.0
C680 C 0.90524 0.51502 0.17265 0.0
C681 C 0.87924 0.51656 0.1719 0.0
C682 C 0.86803 0.51811 0.1484 0.0
C683 C 0.8825 0.51712 0.12625 0.0
C684 C 0.99938 0.49002 0.1323 0.0
C685 C 1.00574 0.54974 0.10528 0.0
C686 C 0.07016 0.48586 0.07865 0.0
Eu687 Eu 0.02252 0.49787 0.07748 0.0
C688 C 0.0942 0.48037 0.0651 0.0
C689 C 0.11246 0.49819 0.06479 0.0
C690 C 0.13642 0.49202 0.05535 0.0
C691 C 0.14285 0.46778 0.04605 0.0
C692 C 0.1244 0.45011 0.04599 0.0
C693 C 0.10046 0.45629 0.05541 0.0
C694 C 1.00009 0.51935 0.03506 0.0
C695 C 0.98596 0.46062 0.05755 0.0
O696 O 0.93564 0.53054 0.09581 0.0
O697 O 0.93697 0.49 0.10275 0.0
O698 O 0.98372 0.50925 0.13247 0.0
O699 O 1.00072 0.4816 0.11015 0.0
O700 O 0.98369 0.54757 0.09618 0.0
O701 O 0.02244 0.53074 0.10371 0.0
O702 O 0.05324 0.46926 0.07831 0.0
O703 O 0.06068 0.50916 0.07899 0.0
O704 O 0.02333 0.51281 0.03725 0.0
O705 O 0.98926 0.51536 0.056 0.0
O706 O 1.00891 0.46179 0.06437 0.0
O707 O 0.96879 0.47823 0.06373 0.0
H708 H 0.93953 0.51236 0.1518 0.0
H709 H 0.91452 0.51415 0.19037 0.0
H710 H 0.84808 0.51911 0.14713 0.0
H711 H 0.87344 0.51753 0.10841 0.0
H712 H 0.10842 0.51677 0.07249 0.0
H713 H 0.14995 0.50624 0.05548 0.0
H714 H 0.12862 0.43112 0.03941 0.0
H715 H 0.08709 0.44189 0.05578 0.0
C716 C 0.13771 0.03952 0.54296 0.0
Eu717 Eu 0.11771 0.02142 0.50389 0.0
C718 C 0.13345 0.03998 0.5702 0.0
C719 C 0.1096 0.03911 0.58093 0.0
C720 C 0.10624 0.03884 0.60697 0.0
C721 C 0.1267 0.03918 0.62264 0.0
C722 C 0.15052 0.0399 0.61171 0.0
C723 C 0.15383 0.04031 0.58575 0.0
C724 C 0.0719 1.00074 0.50487 0.0
C725 C 0.14241 0.9666 0.48499 0.0
C726 C 0.08886 0.98041 0.41307 0.0
Eu727 Eu 0.10518 1.00431 0.45055 0.0
C728 C 0.06756 0.97689 0.3974 0.0
C729 C 0.0718 0.97436 0.37165 0.0
C730 C 0.05419 0.96408 0.35699 0.0
C731 C 0.03208 0.95605 0.36797 0.0
C732 C 0.02669 0.96138 0.39324 0.0
C733 C 0.04435 0.97176 0.40792 0.0
C734 C 0.14561 0.03188 0.45266 0.0
C735 C 0.09064 0.0614 0.46413 0.0
O736 O 0.14421 1.01736 0.5338 0.0
O737 O 0.12188 0.05269 0.52903 0.0
O738 O 0.08184 1.00979 0.52427 0.0
O739 O 0.08663 1.00364 0.48684 0.0
O740 O 0.14028 0.98324 0.50331 0.0
O741 O 0.13083 0.97088 0.46354 0.0
O742 O 0.08767 0.97209 0.43626 0.0
O743 O 0.10017 1.00144 0.41033 0.0
O744 O 0.13123 0.03179 0.43363 0.0
O745 O 0.13915 1.01551 0.46849 0.0
O746 O 0.08205 0.04136 0.45349 0.0
O747 O 0.10761 0.05839 0.48171 0.0
H748 H 0.09363 0.03852 0.56921 0.0
H749 H 0.08769 0.03807 0.61486 0.0
H750 H 0.16662 0.04054 0.62324 0.0
H751 H 0.17238 0.04085 0.57778 0.0
H752 H 0.08959 0.97832 0.36321 0.0
H753 H 0.05906 0.96013 0.33765 0.0
H754 H 1.00962 0.95574 0.40205 0.0
H755 H 0.04056 0.97402 0.42775 0.0
C756 C 0.07736 0.58179 0.55191 0.0
Eu757 Eu 0.04015 0.56158 0.53147 0.0
C758 C 0.09885 0.59686 0.54504 0.0
C759 C 0.12307 0.58593 0.54632 0.0
C760 C 0.14348 0.60062 0.5419 0.0
C761 C 0.14014 0.62666 0.53629 0.0
C762 C 0.11584 0.63746 0.53479 0.0
C763 C 0.09551 0.62279 0.53905 0.0
C764 C 0.03984 0.51624 0.50744 0.0
C765 C 0.02624 0.57586 0.47433 0.0
C766 C 0.95577 0.51536 0.50126 0.0
Eu767 Eu 0.98886 0.54656 0.5115 0.0
C768 C 0.93131 0.51202 0.51239 0.0
C769 C 0.92081 0.53012 0.5289 0.0
C770 C 0.89609 0.52931 0.53646 0.0
C771 C 0.88178 0.51034 0.52764 0.0
C772 C 0.89315 0.49062 0.51353 0.0
C773 C 0.91787 0.49154 0.50579 0.0
C774 C 0.98549 0.59659 0.52152 0.0
C775 C 0.99478 0.55024 0.57161 0.0
O776 O 0.05536 0.59312 0.54979 0.0
O777 O 0.07802 0.55808 0.54526 0.0
O778 O 0.05845 0.53059 0.50649 0.0
O779 O 0.02346 0.52605 0.52204 0.0
O780 O 0.03881 0.58178 0.49413 0.0
O781 O 1.00868 0.55933 0.47561 0.0
O782 O 0.97407 0.50954 0.5162 0.0
O783 O 0.95826 0.53669 0.48877 0.0
O784 O 0.96696 0.58437 0.51394 0.0
O785 O 1.00408 0.58123 0.52445 0.0
O786 O 0.97962 0.54837 0.55282 0.0
O787 O 0.0189 0.55283 0.56811 0.0
H788 H 0.12626 0.56607 0.55112 0.0
H789 H 0.16187 0.59155 0.54294 0.0
H790 H 0.11241 0.65749 0.53102 0.0
H791 H 0.07716 0.63201 0.53817 0.0
H792 H 0.9312 0.54584 0.53448 0.0
H793 H 0.88751 0.54491 0.54695 0.0
H794 H 0.88224 0.47611 0.50615 0.0
H795 H 0.92596 0.47723 0.49339 0.0
C796 C 0.41306 1.01098 0.60989 0.0
Eu797 Eu 0.4594 1.00293 0.59501 0.0
C798 C 0.39677 1.01626 0.63221 0.0
C799 C 0.40262 1.0066 0.65621 0.0
C800 C 0.38522 1.00887 0.67617 0.0
C801 C 0.36152 0.02063 0.6725 0.0
C802 C 0.35627 0.03121 0.64869 0.0
C803 C 0.37364 0.02903 0.62888 0.0
C804 C 0.49103 0.977 0.62741 0.0
C805 C 0.49298 0.05064 0.60322 0.0
C806 C 0.55422 0.9907 0.55846 0.0
Eu807 Eu 0.5083 1.00024 0.57433 0.0
C808 C 0.57754 0.9745 0.55587 0.0
C809 C 0.5894 0.97245 0.53226 0.0
C810 C 0.61305 0.96033 0.52955 0.0
C811 C 0.62556 0.94987 0.55043 0.0
C812 C 0.61337 0.9515 0.57404 0.0
C813 C 0.58973 0.96369 0.57674 0.0
C814 C 0.47516 0.02372 0.54043 0.0
C815 C 0.47568 0.95477 0.5663 0.0
O816 O 0.42653 0.02886 0.60085 0.0
O817 O 0.4247 0.98875 0.609 0.0
O818 O 0.46893 0.97113 0.62255 0.0
O819 O 0.49592 0.99684 0.61489 0.0
O820 O 0.47058 0.04223 0.60431 0.0
O821 O 0.5117 0.037 0.5935 0.0
O822 O 0.54803 1.00015 0.58023 0.0
O823 O 0.53503 0.986 0.54543 0.0
O824 O 0.49659 0.03122 0.54615 0.0
O825 O 0.47151 1.00455 0.55435 0.0
O826 O 0.49753 0.95961 0.57448 0.0
O827 O 0.45798 0.9728 0.56651 0.0
H828 H 0.42031 0.99656 0.65932 0.0
H829 H 0.38993 1.00043 0.69416 0.0
H830 H 0.33845 0.04081 0.6452 0.0
H831 H 0.36862 0.03662 0.61062 0.0
H832 H 0.5806 0.98087 0.51587 0.0
H833 H 0.62155 0.95922 0.51104 0.0
H834 H 0.6224 0.94401 0.59067 0.0
H835 H 0.58129 0.96521 0.59526 0.0
C836 C 0.57139 0.5705 0.70941 0.0
Eu837 Eu 0.59634 0.60003 0.67946 0.0
C838 C 0.56826 0.54339 0.71533 0.0
C839 C 0.5676 0.52524 0.69652 0.0
C840 C 0.56303 0.5 0.70268 0.0
C841 C 0.55918 0.49235 0.72778 0.0
C842 C 0.55988 0.51065 0.74646 0.0
C843 C 0.56435 0.5358 0.7403 0.0
C844 C 0.61183 0.58424 0.63325 0.0
C845 C 0.65603 0.60007 0.69441 0.0
C846 C 0.65288 0.66356 0.62255 0.0
Eu847 Eu 0.62847 0.63586 0.65384 0.0
C848 C 0.66674 0.67922 0.60468 0.0
C849 C 0.67567 0.70213 0.61217 0.0
C850 C 0.69127 0.71551 0.59622 0.0
C851 C 0.69803 0.70636 0.57232 0.0
C852 C 0.68785 0.6841 0.56442 0.0
C853 C 0.67256 0.67056 0.58051 0.0
C854 C 0.61163 0.651 0.6999 0.0
C855 C 0.56927 0.64114 0.64325 0.0
O856 O 0.59201 0.58007 0.71559 0.0
O857 O 0.56369 0.57908 0.68777 0.0
O858 O 0.59085 0.5798 0.64373 0.0
O859 O 0.62517 0.59468 0.64861 0.0
O860 O 0.63327 0.59342 0.70053 0.0
O861 O 0.65966 0.61485 0.67465 0.0
O862 O 0.6522 0.6391 0.62044 0.0
O863 O 0.64019 0.67308 0.64158 0.0
O864 O 0.63355 0.65462 0.6908 0.0
O865 O 0.59901 0.64096 0.68377 0.0
O866 O 0.59186 0.64285 0.63354 0.0
O867 O 0.56637 0.62861 0.66472 0.0
H868 H 0.57049 0.53057 0.67706 0.0
H869 H 0.56289 0.48642 0.68784 0.0
H870 H 0.55666 0.5056 0.76594 0.0
H871 H 0.56445 0.54945 0.7551 0.0
H872 H 0.6715 0.70916 0.63077 0.0
H873 H 0.69893 0.73236 0.60314 0.0
H874 H 0.69216 0.67676 0.54598 0.0
H875 H 0.66571 0.65304 0.57422 0.0
C876 C 0.63594 0.56297 0.07232 0.0
Eu877 Eu 0.62988 0.54326 0.02873 0.0
C878 C 0.63619 0.55536 0.09893 0.0
C879 C 0.62112 0.53663 0.10849 0.0
C880 C 0.62065 0.53076 0.13411 0.0
C881 C 0.63535 0.5434 0.15057 0.0
C882 C 0.65095 0.56162 0.14075 0.0
C883 C 0.65131 0.56756 0.11517 0.0
C884 C 0.59128 0.51358 0.02192 0.0
C885 C 0.65823 0.49071 1.01363 0.0
C886 C 0.61277 0.50655 0.93764 0.0
Eu887 Eu 0.62425 0.53042 0.97733 0.0
C888 C 0.59137 0.5003 0.92346 0.0
C889 C 0.59567 0.48623 0.90187 0.0
C890 C 0.57638 0.47454 0.89109 0.0
C891 C 0.55225 0.47693 0.90159 0.0
C892 C 0.54766 0.49297 0.92205 0.0
C893 C 0.56718 0.50444 0.93311 0.0
C894 C 0.66564 0.55571 0.98338 0.0
C895 C 0.60902 0.58725 0.98887 0.0
O896 O 0.65425 0.55385 0.05822 0.0
O897 O 0.61465 0.56325 0.06129 0.0
O898 O 0.60687 0.5106 0.0398 0.0
O899 O 0.59631 0.53244 1.00822 0.0
O900 O 0.65415 0.50703 0.03186 0.0
O901 O 0.64876 0.49564 0.99123 0.0
O902 O 0.61415 0.49616 0.95993 0.0
O903 O 0.61907 0.52996 0.93691 0.0
O904 O 0.65179 0.55814 0.96398 0.0
O905 O 0.65772 0.53901 0.99804 0.0
O906 O 0.60264 0.56863 0.97478 0.0
O907 O 0.62238 0.58173 1.00888 0.0
H908 H 0.60947 0.5268 0.09623 0.0
H909 H 0.6087 0.51639 0.14105 0.0
H910 H 0.66231 0.57187 0.15293 0.0
H911 H 0.66309 0.58204 0.1081 0.0
H912 H 0.6143 0.48271 0.89439 0.0
H913 H 0.58099 0.46201 0.87572 0.0
H914 H 0.52927 0.49562 0.93025 0.0
H915 H 0.56365 0.51527 0.94992 0.0
C916 C 0.58295 0.1083 0.04436 0.0
Eu917 Eu 0.54533 0.08596 0.02729 0.0
C918 C 0.60678 0.1199 0.03916 0.0
C919 C 0.62848 0.10504 0.0335 0.0
C920 C 0.65152 0.11568 0.03325 0.0
C921 C 0.65339 0.14135 0.03878 0.0
C922 C 0.63154 0.15643 0.04317 0.0
C923 C 0.60853 0.14579 0.04344 0.0
C924 C 0.54846 0.04083 1.00334 0.0
C925 C 0.52574 0.09528 0.97163 0.0
C926 C 0.46055 0.03874 1.00306 0.0
Eu927 Eu 0.49611 0.06584 1.01593 0.0
C928 C 0.43796 0.03254 1.01672 0.0
C929 C 0.4296 0.04703 0.03727 0.0
C930 C 0.40629 0.04372 0.04802 0.0
C931 C 0.39129 0.02569 0.03848 0.0
C932 C 0.40085 1.00945 1.01965 0.0
C933 C 0.42407 1.01296 1.00872 0.0
C934 C 0.49307 0.11522 0.03139 0.0
C935 C 0.50845 0.06698 0.07356 0.0
O936 O 0.5626 0.12053 0.03708 0.0
O937 O 0.58213 0.08373 0.04296 0.0
O938 O 0.56355 0.05872 0.99958 0.0
O939 O 0.53319 0.04699 0.02091 0.0
O940 O 0.53967 0.10439 0.989 0.0
O941 O 0.51051 0.07716 0.97711 0.0
O942 O 0.48104 0.02895 1.01259 0.0
O943 O 0.4618 0.06258 0.99643 0.0
O944 O 0.47625 0.09921 0.03632 0.0
O945 O 0.50935 0.10436 1.01766 0.0
O946 O 0.49349 0.05835 0.05724 0.0
O947 O 0.52851 0.07861 0.06649 0.0
H948 H 0.62782 0.085 0.0302 0.0
H949 H 0.66796 0.10362 0.02941 0.0
H950 H 0.63227 0.17618 0.04774 0.0
H951 H 0.59215 0.15763 0.04819 0.0
H952 H 0.44043 0.06192 0.04398 0.0
H953 H 0.39917 0.05658 0.06233 0.0
H954 H 0.38943 0.99569 1.01172 0.0
H955 H 0.43052 1.00139 0.99313 0.0
H956 H 0.10113 0.21027 0.42538 0.0
H957 H 0.02912 0.20654 0.39236 0.0
H958 H 0.02784 0.16202 0.40603 0.0
H959 H 0.12424 0.14629 0.41006 0.0
H960 H 0.14002 0.14048 0.43907 0.0
H961 H 0.13575 0.17226 0.42666 0.0
H962 H 0.11421 0.18642 0.46816 0.0
H963 H 0.11837 0.15466 0.48066 0.0
H964 H 0.08789 0.17022 0.47995 0.0
H965 H 0.03434 0.11706 0.42206 0.0
H966 H 0.04777 0.07553 0.44032 0.0
H967 H 0.11495 0.10674 0.46524 0.0
C968 C 0.08512 0.20007 0.42097 0.0
C969 C 0.06508 0.21245 0.4078 0.0
C970 C 0.04455 0.19806 0.40267 0.0
C971 C 0.04368 0.17253 0.41029 0.0
C972 C 0.06343 0.16107 0.42335 0.0
C973 C 0.08377 0.17433 0.42881 0.0
C974 C 0.10229 0.15722 0.44349 0.0
C975 C 0.12705 0.15387 0.42895 0.0
C976 C 0.1059 0.16776 0.46962 0.0
C977 C 0.08924 0.13237 0.44521 0.0
C978 C 0.06689 0.13512 0.4333 0.0
C979 C 0.05174 0.11482 0.43158 0.0
C980 C 0.05957 0.09115 0.44207 0.0
C981 C 0.08232 0.08755 0.45459 0.0
C982 C 0.09724 0.10874 0.45624 0.0
H983 H 0.06889 0.38267 0.43841 0.0
H984 H 1.0135 0.40786 0.3848 0.0
H985 H 1.0043 0.44666 0.40902 0.0
H986 H 0.0406 0.40931 0.49408 0.0
H987 H 0.06885 0.41986 0.5063 0.0
H988 H 0.06977 0.39291 0.4862 0.0
H989 H 0.10063 0.41435 0.45612 0.0
H990 H 0.09997 0.44126 0.47625 0.0
H991 H 0.09272 0.44557 0.44367 0.0
H992 H 0.99919 0.48171 0.4409 0.0
H993 H 1.00362 0.51379 0.47288 0.0
H994 H 0.06773 0.47097 0.50149 0.0
C995 C 0.05512 0.39653 0.43147 0.0
C996 C 0.04188 0.39193 0.4095 0.0
C997 C 0.02372 0.41058 0.40159 0.0
C998 C 0.01838 0.43277 0.41525 0.0
C999 C 0.03185 0.43674 0.43659 0.0
C1000 C 0.05033 0.41946 0.44429 0.0
C1001 C 0.06339 0.4294 0.46673 0.0
C1002 C 0.06048 0.41182 0.48968 0.0
C1003 C 0.09081 0.43285 0.46031 0.0
C1004 C 0.04921 0.45482 0.47058 0.0
C1005 C 0.03066 0.45828 0.45335 0.0
C1006 C 1.01403 0.4794 0.45408 0.0
C1007 C 0.01668 0.49766 0.47243 0.0
C1008 C 0.03629 0.49541 0.48949 0.0
C1009 C 0.05275 0.47352 0.48849 0.0
H1010 H 0.01768 0.86491 0.23107 0.0
H1011 H 0.02623 0.83439 0.15641 0.0
H1012 H 0.0408 0.87524 0.14081 0.0
H1013 H 0.99526 0.92841 0.21164 0.0
H1014 H 1.01134 0.94327 0.23594 0.0
H1015 H 1.00099 0.91185 0.24089 0.0
H1016 H 0.04563 0.89561 0.25134 0.0
H1017 H 0.0561 0.92693 0.24629 0.0
H1018 H 0.07044 0.90082 0.22912 0.0
H1019 H 0.05598 0.91923 0.13373 0.0
H1020 H 0.07012 0.96253 0.13562 0.0
H1021 H 0.04967 0.96475 0.2146 0.0
C1022 C 0.02207 0.86685 0.21131 0.0
C1023 C 0.02061 0.84627 0.19499 0.0
C1024 C 0.02732 0.84966 0.1694 0.0
C1025 C 0.0355 0.87288 0.16032 0.0
C1026 C 0.03681 0.89265 0.17699 0.0
C1027 C 0.03015 0.88988 0.20194 0.0
C1028 C 0.03367 0.91384 0.21614 0.0
C1029 C 1.00884 0.925 0.22677 0.0
C1030 C 0.05259 0.909 0.23694 0.0
C1031 C 0.04366 0.93048 0.19533 0.0
C1032 C 0.04528 0.91795 0.17289 0.0
C1033 C 0.05454 0.92929 0.15116 0.0
C1034 C 0.06239 0.95403 0.1524 0.0
C1035 C 0.06097 0.9673 0.17522 0.0
C1036 C 0.05129 0.95521 0.19688 0.0
H1037 H 0.99098 0.68581 0.16946 0.0
H1038 H 0.03422 0.65236 0.23006 0.0
H1039 H 0.03826 0.61177 0.20785 0.0
H1040 H 0.95672 0.62993 0.15884 0.0
H1041 H 0.956 0.63493 0.12543 0.0
H1042 H 0.95706 0.66152 0.14577 0.0
H1043 H 0.99627 0.6755 0.12192 0.0
H1044 H 0.99548 0.64884 0.10164 0.0
H1045 H 0.02288 0.65358 0.11897 0.0
H1046 H 0.03919 0.57599 0.17877 0.0
H1047 H 0.03373 0.5448 0.14635 0.0
H1048 H 0.98653 0.59953 0.10552 0.0
C1049 C 1.00094 0.66976 0.17815 0.0
C1050 C 1.0121 0.67195 0.20157 0.0
C1051 C 0.02547 0.65085 0.2122 0.0
C1052 C 0.02787 0.62783 0.19972 0.0
C1053 C 0.01657 0.62621 0.17673 0.0
C1054 C 1.00306 0.64643 0.16616 0.0
C1055 C 0.99223 0.63924 0.14155 0.0
C1056 C 0.96381 0.64154 0.14299 0.0
C1057 C 1.00232 0.65525 0.11973 0.0
C1058 C 1.00191 0.61184 0.1399 0.0
C1059 C 0.01619 0.60497 0.16028 0.0
C1060 C 0.02794 0.58107 0.16279 0.0
C1061 C 0.02485 0.56354 0.14412 0.0
C1062 C 1.00981 0.56978 0.12332 0.0
C1063 C 0.9981 0.59427 0.12122 0.0
H1064 H 0.42321 0.08581 0.19771 0.0
H1065 H 0.47234 0.02966 0.23417 0.0
H1066 H 0.49861 0.02697 0.19587 0.0
H1067 H 0.42572 0.05827 0.1376 0.0
H1068 H 0.42555 0.08787 0.12039 0.0
H1069 H 0.41131 0.08653 0.15112 0.0
H1070 H 0.43871 0.1216 0.16563 0.0
H1071 H 0.45305 0.12304 0.13491 0.0
H1072 H 0.47184 0.11737 0.16201 0.0
H1073 H 0.51997 0.03031 0.15309 0.0
H1074 H 0.5327 0.03754 0.10874 0.0
H1075 H 0.46901 0.08983 0.09915 0.0
C1076 C 0.43967 0.07319 0.19779 0.0
C1077 C 0.44555 0.05793 0.21921 0.0
C1078 C 0.46713 0.04138 0.21813 0.0
C1079 C 0.48233 0.03984 0.19643 0.0
C1080 C 0.47589 0.05493 0.17566 0.0
C1081 C 0.45501 0.07126 0.17613 0.0
C1082 C 0.45181 0.08477 0.15093 0.0
C1083 C 0.42713 0.079 0.13933 0.0
C1084 C 0.45398 0.1134 0.15353 0.0
C1085 C 0.47372 0.07301 0.13607 0.0
C1086 C 0.48769 0.05623 0.15085 0.0
C1087 C 0.50911 0.0434 0.1414 0.0
C1088 C 0.51629 0.04765 0.11623 0.0
C1089 C 0.50188 0.0642 0.10059 0.0
C1090 C 0.48034 0.07703 0.11073 0.0
H1091 H 0.68452 0.53117 0.29033 0.0
H1092 H 0.60823 0.52815 0.31561 0.0
H1093 H 0.59491 0.52886 0.2715 0.0
H1094 H 0.67413 0.57387 0.23975 0.0
H1095 H 0.69712 0.55894 0.21907 0.0
H1096 H 0.70067 0.55635 0.25241 0.0
H1097 H 0.70394 0.50758 0.24982 0.0
H1098 H 0.70052 0.50994 0.21641 0.0
H1099 H 0.67979 0.49161 0.23519 0.0
H1100 H 0.59001 0.532 0.225 0.0
H1101 H 0.59344 0.53783 0.17919 0.0
H1102 H 0.67323 0.53852 0.18407 0.0
C1103 C 0.66507 0.53035 0.28639 0.0
C1104 C 0.64727 0.5294 0.30599 0.0
C1105 C 0.62197 0.52865 0.30057 0.0
C1106 C 0.61433 0.52904 0.27569 0.0
C1107 C 0.63232 0.53012 0.25664 0.0
C1108 C 0.65718 0.53067 0.26169 0.0
C1109 C 0.67267 0.53267 0.23784 0.0
C1110 C 0.68698 0.55691 0.23724 0.0
C1111 C 0.69027 0.50904 0.23463 0.0
C1112 C 0.65257 0.53382 0.21859 0.0
C1113 C 0.62947 0.53203 0.22982 0.0
C1114 C 0.60801 0.53316 0.21596 0.0
C1115 C 0.61015 0.53634 0.18993 0.0
C1116 C 0.63359 0.5385 0.178 0.0
C1117 C 0.65505 0.53705 0.19263 0.0
H1118 H 0.38978 0.05371 0.41748 0.0
H1119 H 0.4544 0.02989 0.3728 0.0
H1120 H 0.47797 0.02124 0.41141 0.0
H1121 H 0.4229 0.08417 0.46634 0.0
H1122 H 0.403 0.07399 0.49161 0.0
H1123 H 0.39106 0.07858 0.46059 0.0
H1124 H 0.3771 0.03279 0.46155 0.0
H1125 H 0.38902 0.02803 0.49256 0.0
H1126 H 0.39936 1.00695 0.4679 0.0
H1127 H 0.49512 1.01545 0.45503 0.0
H1128 H 0.50453 1.01251 0.49991 0.0
H1129 H 0.42915 0.03866 0.51864 0.0
C1130 C 0.40891 0.04671 0.41589 0.0
C1131 C 0.42018 0.04244 0.3918 0.0
C1132 C 0.44528 0.03327 0.39077 0.0
C1133 C 0.45883 0.02829 0.41272 0.0
C1134 C 0.44726 0.03247 0.43607 0.0
C1135 C 0.42282 0.04146 0.43789 0.0
C1136 C 0.41498 0.04413 0.46553 0.0
C1137 C 0.40754 0.07187 0.47136 0.0
C1138 C 0.39386 0.02695 0.47228 0.0
C1139 C 0.43873 0.03521 0.47893 0.0
C1140 C 0.45709 0.02873 0.46139 0.0
C1141 C 0.4808 0.02044 0.46881 0.0
C1142 C 0.48601 1.01884 0.49452 0.0
C1143 C 0.46775 0.02522 0.51318 0.0
C1144 C 0.44361 0.03341 0.50507 0.0
H1145 H 0.66351 0.57664 0.49159 0.0
H1146 H 0.62641 0.50639 0.48759 0.0
H1147 H 0.61549 0.50901 0.53236 0.0
H1148 H 0.6874 0.56745 0.55384 0.0
H1149 H 0.68132 0.59995 0.56258 0.0
H1150 H 0.68753 0.59225 0.53028 0.0
H1151 H 0.64628 0.61572 0.51794 0.0
H1152 H 0.63988 0.62352 0.55015 0.0
H1153 H 0.61783 0.607 0.53302 0.0
H1154 H 0.60728 0.51937 0.57691 0.0
H1155 H 0.59984 0.5384 0.61824 0.0
H1156 H 0.64114 0.60256 0.5944 0.0
C1157 C 0.65292 0.56187 0.50002 0.0
C1158 C 0.64616 0.54108 0.48585 0.0
C1159 C 0.63242 0.52218 0.49791 0.0
C1160 C 0.626 0.52355 0.52341 0.0
C1161 C 0.63325 0.54401 0.53679 0.0
C1162 C 0.64617 0.56301 0.52555 0.0
C1163 C 0.65058 0.58354 0.54416 0.0
C1164 C 0.67837 0.58592 0.54793 0.0
C1165 C 0.63789 0.60895 0.53582 0.0
C1166 C 0.6381 0.57303 0.56758 0.0
C1167 C 0.62835 0.55014 0.5628 0.0
C1168 C 0.61499 0.53718 0.58093 0.0
C1169 C 0.6109 0.54814 0.60438 0.0
C1170 C 0.62025 0.57178 0.60973 0.0
C1171 C 0.6344 0.58418 0.59117 0.0
H1172 H 0.29169 0.45909 0.0482 0.0
H1173 H 0.29011 0.40741 0.98624 0.0
H1174 H 0.24494 0.41391 0.98541 0.0
H1175 H 0.23783 0.4375 0.07977 0.0
H1176 H 0.22683 0.46831 0.09042 0.0
H1177 H 0.25944 0.46131 0.08507 0.0
H1178 H 0.26109 0.49982 0.05461 0.0
H1179 H 0.22846 0.50693 0.05987 0.0
H1180 H 0.24061 0.50237 0.02851 0.0
H1181 H 0.19951 0.42451 0.99201 0.0
H1182 H 0.15724 0.43811 1.00606 0.0
H1183 H 0.18732 0.4812 0.06519 0.0
C1184 C 0.28196 0.4492 0.03434 0.0
C1185 C 0.29495 0.43303 1.01699 0.0
C1186 C 0.28108 0.42054 0.99927 0.0
C1187 C 0.25522 0.4239 0.99877 0.0
C1188 C 0.24312 0.43978 1.01615 0.0
C1189 C 0.25598 0.45223 0.03364 0.0
C1190 C 0.23826 0.46742 0.05087 0.0
C1191 C 0.24074 0.45807 0.07815 0.0
C1192 C 0.24236 0.49582 0.04831 0.0
C1193 C 0.21349 0.46135 0.04045 0.0
C1194 C 0.21677 0.44547 0.02034 0.0
C1195 C 0.19673 0.43693 1.00778 0.0
C1196 C 0.17271 0.44464 1.01605 0.0
C1197 C 0.16869 0.46068 0.03687 0.0
C1198 C 0.18956 0.46922 0.04904 0.0
H1199 H 0.27239 0.67858 0.56591 0.0
H1200 H 0.25585 0.73914 0.5122 0.0
H1201 H 0.21627 0.72061 0.50298 0.0
H1202 H 0.24604 0.62882 0.53242 0.0
H1203 H 0.23352 0.61373 0.56003 0.0
H1204 H 0.26078 0.63138 0.56204 0.0
H1205 H 0.23937 0.65919 0.5965 0.0
H1206 H 0.21215 0.64146 0.59479 0.0
H1207 H 0.20982 0.67534 0.59057 0.0
H1208 H 0.17897 0.69518 0.4992 0.0
H1209 H 0.14496 0.66641 0.50303 0.0
H1210 H 0.18437 0.62361 0.56126 0.0
C1211 C 0.26022 0.68803 0.55246 0.0
C1212 C 0.26688 0.7104 0.53992 0.0
C1213 C 0.25085 0.72207 0.52207 0.0
C1214 C 0.22844 0.71164 0.51668 0.0
C1215 C 0.22232 0.68957 0.52938 0.0
C1216 C 0.23761 0.67801 0.54706 0.0
C1217 C 0.2263 0.65481 0.55848 0.0
C1218 C 0.24264 0.63076 0.5529 0.0
C1219 C 0.22163 0.65789 0.58676 0.0
C1220 C 0.20224 0.65521 0.54453 0.0
C1221 C 0.20046 0.67527 0.52766 0.0
C1222 C 0.18005 0.67953 0.51252 0.0
C1223 C 0.16072 0.66313 0.51497 0.0
C1224 C 0.1617 0.64279 0.53265 0.0
C1225 C 0.183 0.63874 0.54739 0.0
H1226 H 0.97325 0.89496 0.48617 0.0
H1227 H 0.92114 0.94294 0.52913 0.0
H1228 H 0.95196 0.97538 0.5309 0.0
H1229 H 0.02772 0.90962 0.51681 0.0
H1230 H 0.04724 0.91024 0.48906 0.0
H1231 H 0.02092 0.89102 0.49025 0.0
H1232 H 1.00376 0.91357 0.45025 0.0
H1233 H 0.03052 0.93217 0.44883 0.0
H1234 H 0.99992 0.94759 0.44923 0.0
H1235 H 0.98963 1.00044 0.53209 0.0
H1236 H 0.03046 1.01879 0.52903 0.0
H1237 H 0.05788 0.95757 0.48146 0.0
C1238 C 0.9683 0.91248 0.49562 0.0
C1239 C 0.94481 0.91635 0.50776 0.0
C1240 C 0.93903 0.93949 0.51994 0.0
C1241 C 0.95642 0.95804 0.52099 0.0
C1242 C 0.97949 0.95353 0.50925 0.0
C1243 C 0.98537 0.93154 0.49639 0.0
C1244 C 1.01162 0.93161 0.48545 0.0
C1245 C 0.02783 0.9093 0.49603 0.0
C1246 C 1.01143 0.93123 0.45673 0.0
C1247 C 0.01975 0.95679 0.49469 0.0
C1248 C 1.00087 0.96895 0.50855 0.0
C1249 C 1.00434 0.99138 0.52083 0.0
C1250 C 0.02762 1.00166 0.51903 0.0
C1251 C 0.04716 0.98996 0.50463 0.0
C1252 C 0.04306 0.96731 0.49204 0.0
H1253 H 0.42603 0.68489 0.6116 0.0
H1254 H 0.45601 0.72827 0.54946 0.0
H1255 H 0.49814 0.7136 0.56118 0.0
H1256 H 0.47433 0.69578 0.65549 0.0
H1257 H 0.47521 0.66431 0.669 0.0
H1258 H 0.44701 0.67795 0.65593 0.0
H1259 H 0.44523 0.63967 0.62693 0.0
H1260 H 0.47343 0.6259 0.63992 0.0
H1261 H 0.47136 0.63125 0.60663 0.0
H1262 H 0.5375 0.69456 0.57924 0.0
H1263 H 0.5713 0.67238 0.60212 0.0
H1264 H 0.51786 0.64045 0.65367 0.0
C1265 C 0.44145 0.69138 0.60048 0.0
C1266 C 0.43725 0.70771 0.57925 0.0
C1267 C 0.45826 0.71547 0.56537 0.0
C1268 C 0.48246 0.70733 0.57203 0.0
C1269 C 0.4859 0.69121 0.59275 0.0
C1270 C 0.46602 0.68321 0.60681 0.0
C1271 C 0.47521 0.66555 0.62807 0.0
C1272 C 0.46748 0.67656 0.65365 0.0
C1273 C 0.46574 0.63902 0.62522 0.0
C1274 C 0.50328 0.66518 0.62391 0.0
C1275 C 0.50886 0.68012 0.60331 0.0
C1276 C 0.53328 0.68281 0.59538 0.0
C1277 C 0.55249 0.67 0.60863 0.0
C1278 C 0.54766 0.65444 0.62992 0.0
C1279 C 0.52247 0.65214 0.6376 0.0
H1280 H 0.55988 0.71094 0.90597 0.0
H1281 H 0.60087 0.7553 0.95609 0.0
H1282 H 0.61286 0.71665 0.98035 0.0
H1283 H 0.53793 0.66579 0.9532 0.0
H1284 H 0.54167 0.6389 0.93307 0.0
H1285 H 0.53527 0.67009 0.91984 0.0
H1286 H 0.57442 0.66466 0.89139 0.0
H1287 H 0.58092 0.63346 0.90451 0.0
H1288 H 0.60391 0.65663 0.90525 0.0
H1289 H 0.62059 0.67336 0.99974 0.0
H1290 H 0.62557 0.62843 1.01167 0.0
H1291 H 0.5814 0.60946 0.94882 0.0
C1292 C 0.5712 0.71254 0.92219 0.0
C1293 C 0.57935 0.73657 0.92897 0.0
C1294 C 0.59446 0.73744 0.95019 0.0
C1295 C 0.60131 0.71546 0.96425 0.0
C1296 C 0.59319 0.69224 0.957 0.0
C1297 C 0.57859 0.6905 0.93638 0.0
C1298 C 0.57326 0.6628 0.93235 0.0
C1299 C 0.54537 0.65919 0.93476 0.0
C1300 C 0.58375 0.65386 0.90686 0.0
C1301 C 0.58716 0.64933 0.95386 0.0
C1302 C 0.59828 0.66689 0.9679 0.0
C1303 C 0.61198 0.6595 0.9888 0.0
C1304 C 0.61466 0.63368 0.99549 0.0
C1305 C 0.60395 0.61486 0.98139 0.0
C1306 C 0.58987 0.62307 0.96019 0.0
H1307 H 0.53733 0.89945 0.95055 0.0
H1308 H 0.55822 0.9305 0.87806 0.0
H1309 H 0.55773 0.97316 0.89599 0.0
H1310 H 0.49581 0.95443 0.96971 0.0
H1311 H 0.50473 0.95224 1.00196 0.0
H1312 H 0.50544 0.92418 0.98338 0.0
H1313 H 0.55146 0.91462 0.99384 0.0
H1314 H 0.5509 0.94267 1.01237 0.0
H1315 H 0.57337 0.9383 0.98718 0.0
H1316 H 0.55804 1.01177 0.92187 0.0
H1317 H 0.55784 0.0446 0.95373 0.0
H1318 H 0.5348 0.99071 1.01046 0.0
C1319 C 0.54133 0.91536 0.93843 0.0
C1320 C 0.54763 0.91164 0.91273 0.0
C1321 C 0.55321 0.93289 0.89764 0.0
C1322 C 0.55298 0.9572 0.9077 0.0
C1323 C 0.54694 0.96026 0.93302 0.0
C1324 C 0.54099 0.94003 0.94823 0.0
C1325 C 0.53575 0.94878 0.97501 0.0
C1326 C 0.50883 0.94466 0.98299 0.0
C1327 C 0.55396 0.93529 0.99317 0.0
C1328 C 0.54014 0.97693 0.97253 0.0
C1329 C 0.54657 0.98297 0.94804 0.0
C1330 C 0.55275 1.00728 0.94101 0.0
C1331 C 0.55263 0.02586 0.95935 0.0
C1332 C 0.54611 0.02046 0.98464 0.0
C1333 C 0.53944 0.99561 0.99124 0.0
H1334 H 0.50674 0.35351 0.71682 0.0
H1335 H 0.54886 0.33289 0.78277 0.0
H1336 H 0.56318 0.37587 0.78401 0.0
H1337 H 0.55011 0.39364 0.68937 0.0
H1338 H 0.52779 0.41711 0.67737 0.0
H1339 H 0.51963 0.38483 0.68167 0.0
H1340 H 0.48216 0.39937 0.70988 0.0
H1341 H 0.49001 0.43176 0.70539 0.0
H1342 H 0.48693 0.4186 0.73657 0.0
H1343 H 0.57251 0.42089 0.77953 0.0
H1344 H 0.57901 0.46495 0.767 0.0
H1345 H 0.53046 0.45839 0.70435 0.0
C1346 C 0.51789 0.3584 0.73229 0.0
C1347 C 0.52584 0.33993 0.75037 0.0
C1348 C 0.54192 0.3468 0.76921 0.0
C1349 C 0.55012 0.37126 0.77015 0.0
C1350 C 0.54173 0.38911 0.75247 0.0
C1351 C 0.52597 0.38314 0.73385 0.0
C1352 C 0.52099 0.40586 0.71643 0.0
C1353 C 0.53018 0.4 0.68962 0.0
C1354 C 0.49338 0.4144 0.71711 0.0
C1355 C 0.53645 0.42532 0.72824 0.0
C1356 C 0.54812 0.41514 0.74909 0.0
C1357 C 0.5634 0.42914 0.76328 0.0
C1358 C 0.56688 0.45426 0.75606 0.0
C1359 C 0.55519 0.46536 0.73475 0.0
C1360 C 0.53983 0.4505 0.72062 0.0
H1361 H 0.47913 0.15872 0.70534 0.0
H1362 H 0.54264 0.19176 0.66968 0.0
H1363 H 0.54338 0.15946 0.6369 0.0
H1364 H 0.49813 0.09464 0.69505 0.0
H1365 H 0.46762 0.08484 0.68891 0.0
H1366 H 0.47132 0.11131 0.70877 0.0
H1367 H 0.44251 0.13957 0.68052 0.0
H1368 H 0.43872 0.11316 0.66055 0.0
H1369 H 0.44958 0.14222 0.64749 0.0
H1370 H 0.53943 0.12144 0.61024 0.0
H1371 H 0.52964 0.08179 0.59011 0.0
H1372 H 0.4674 0.07454 0.64179 0.0
C1373 C 0.4931 0.15921 0.69054 0.0
C1374 C 0.51085 0.17774 0.69002 0.0
C1375 C 0.52873 0.1779 0.67027 0.0
C1376 C 0.52934 0.15958 0.65164 0.0
C1377 C 0.51173 0.14143 0.65283 0.0
C1378 C 0.49377 0.14126 0.67162 0.0
C1379 C 0.47722 0.11945 0.66879 0.0
C1380 C 0.47867 0.1015 0.69174 0.0
C1381 C 0.45042 0.12919 0.66405 0.0
C1382 C 0.48899 0.10707 0.64577 0.0
C1383 C 0.50891 0.12002 0.6369 0.0
C1384 C 0.52365 0.11136 0.61678 0.0
C1385 C 0.51799 0.0888 0.60551 0.0
C1386 C 0.4976 0.07528 0.61419 0.0
C1387 C 0.48278 0.08476 0.63441 0.0
H1388 H 0.95451 0.52493 0.71688 0.0
H1389 H 0.90695 0.59338 0.70972 0.0
H1390 H 0.92164 0.59899 0.66616 0.0
H1391 H 1.00604 0.54838 0.67953 0.0
H1392 H 1.01424 0.51851 0.66507 0.0
H1393 H 0.99993 0.51924 0.69585 0.0
H1394 H 0.96527 0.49219 0.68062 0.0
H1395 H 0.9795 0.49133 0.64982 0.0
H1396 H 0.94768 0.50276 0.65382 0.0
H1397 H 0.93959 0.59675 0.62304 0.0
H1398 H 0.9617 0.58802 0.58303 0.0
H1399 H 1.00053 0.5225 0.61673 0.0
C1400 C 0.94721 0.54105 0.70608 0.0
C1401 C 0.92955 0.55881 0.71694 0.0
C1402 C 0.92062 0.5797 0.7021 0.0
C1403 C 0.9288 0.583 0.67722 0.0
C1404 C 0.94623 0.56541 0.66716 0.0
C1405 C 0.95557 0.54492 0.68107 0.0
C1406 C 0.97459 0.52921 0.66546 0.0
C1407 C 1.00023 0.52882 0.67718 0.0
C1408 C 0.96626 0.50227 0.66224 0.0
C1409 C 0.97424 0.54397 0.64063 0.0
C1410 C 0.95752 0.56467 0.64218 0.0
C1411 C 0.9529 0.58076 0.6217 0.0
C1412 C 0.96555 0.57563 0.59901 0.0
C1413 C 0.98302 0.55481 0.59676 0.0
C1414 C 0.98757 0.5388 0.61798 0.0
H1415 H 0.1686 1.01344 0.76279 0.0
H1416 H 0.1125 0.07072 0.78527 0.0
H1417 H 0.09654 0.07261 0.74221 0.0
H1418 H 0.18305 0.04181 0.70583 0.0
H1419 H 0.18869 1.01289 0.6889 0.0
H1420 H 0.19307 1.01304 0.72211 0.0
H1421 H 0.16264 0.97743 0.72839 0.0
H1422 H 0.15826 0.97704 0.69511 0.0
H1423 H 0.13195 0.98165 0.71614 0.0
H1424 H 0.08917 0.07086 0.69609 0.0
H1425 H 0.0922 0.06735 0.6501 0.0
H1426 H 0.15409 1.01212 0.65759 0.0
C1427 C 0.15247 0.02578 0.75875 0.0
C1428 C 0.1414 0.04161 0.77727 0.0
C1429 C 0.12096 0.05828 0.77126 0.0
C1430 C 0.11178 0.0594 0.74694 0.0
C1431 C 0.12341 0.04387 0.7289 0.0
C1432 C 0.14335 0.02739 0.73451 0.0
C1433 C 0.1542 1.01473 0.71127 0.0
C1434 C 0.18135 0.02101 0.70677 0.0
C1435 C 0.15159 0.98601 0.71283 0.0
C1436 C 0.13761 0.02708 0.6916 0.0
C1437 C 0.11971 0.04348 0.70218 0.0
C1438 C 0.10293 0.05785 0.68761 0.0
C1439 C 0.10473 0.05568 0.66152 0.0
C1440 C 0.12337 0.03948 0.65027 0.0
C1441 C 0.13972 0.02475 0.66564 0.0
H1442 H 0.90015 0.5325 0.92134 0.0
H1443 H 0.96098 0.55668 0.87446 0.0
H1444 H 0.98843 0.55311 0.91075 0.0
H1445 H 0.91651 0.56519 0.97763 0.0
H1446 H 0.90808 0.5404 0.99918 0.0
H1447 H 0.8928 0.54448 0.96968 0.0
H1448 H 0.90498 0.49799 0.95892 0.0
H1449 H 0.92008 0.49387 0.9885 0.0
H1450 H 0.93702 0.48676 0.95982 0.0
H1451 H 1.00984 0.54701 0.95195 0.0
H1452 H 0.02425 0.53777 0.99457 0.0
H1453 H 0.95067 0.5173 1.0176 0.0
C1454 C 0.91928 0.537 0.91877 0.0
C1455 C 0.92824 0.54517 0.89473 0.0
C1456 C 0.95348 0.55067 0.89241 0.0
C1457 C 0.96926 0.54866 0.91306 0.0
C1458 C 0.95989 0.54098 0.93642 0.0
C1459 C 0.93549 0.5351 0.93948 0.0
C1460 C 0.93047 0.52721 0.96688 0.0
C1461 C 0.91079 0.54541 0.97906 0.0
C1462 C 0.92267 0.49983 0.96862 0.0
C1463 C 0.9558 0.52952 0.97865 0.0
C1464 C 0.97236 0.53754 0.96051 0.0
C1465 C 0.99693 0.54079 0.96622 0.0
C1466 C 1.00499 0.53549 0.99072 0.0
C1467 C 0.98882 0.527 1.00999 0.0
C1468 C 0.96362 0.52416 1.0037 0.0
H1469 H 0.13152 0.04567 0.96026 0.0
H1470 H 0.20553 0.07186 0.95329 0.0
H1471 H 0.20413 0.08314 0.99774 0.0
H1472 H 0.1075 0.09436 1.00051 0.0
H1473 H 0.08832 0.07457 1.01951 0.0
H1474 H 0.09561 0.06653 0.9875 0.0
H1475 H 0.11335 0.02229 1.00182 0.0
H1476 H 0.10592 0.03012 0.03388 0.0
H1477 H 0.13713 1.01984 0.02488 0.0
H1478 H 0.19403 0.09423 0.04189 0.0
H1479 H 0.17646 0.10316 0.08392 0.0
H1480 H 0.10849 0.06994 0.06407 0.0
C1481 C 0.14758 0.05321 0.96834 0.0
C1482 C 0.16904 0.05725 0.95343 0.0
C1483 C 0.18931 0.06799 0.96446 0.0
C1484 C 0.18857 0.07463 0.9897 0.0
C1485 C 0.16722 0.07059 1.00387 0.0
C1486 C 0.14709 0.06004 0.99374 0.0
C1487 C 0.12614 0.05869 1.01316 0.0
C1488 C 0.10303 0.07448 1.00466 0.0
C1489 C 0.12029 0.03109 1.01877 0.0
C1490 C 0.13759 0.0704 0.03558 0.0
C1491 C 0.16133 0.07707 0.02967 0.0
C1492 C 0.17555 0.08888 0.04681 0.0
C1493 C 0.16537 0.09391 0.07067 0.0
C1494 C 0.14117 0.08712 0.07741 0.0
C1495 C 0.12711 0.07517 0.05955 0.0
H1496 H 0.76799 0.93367 0.50146 0.0
H1497 H 0.77645 0.87022 0.55359 0.0
H1498 H 0.73209 0.8753 0.56521 0.0
H1499 H 0.72606 0.9714 0.54039 0.0
H1500 H 0.70756 0.98423 0.51509 0.0
H1501 H 0.73965 0.97473 0.50949 0.0
H1502 H 0.72746 0.94512 0.47451 0.0
H1503 H 0.69531 0.95454 0.48002 0.0
H1504 H 0.70551 0.92156 0.48145 0.0
H1505 H 0.68716 0.88787 0.57236 0.0
H1506 H 0.6448 0.90742 0.57508 0.0
H1507 H 0.66473 0.96411 0.51964 0.0
C1508 C 0.76037 0.92079 0.51516 0.0
C1509 C 0.77572 0.90159 0.52673 0.0
C1510 C 0.76511 0.8852 0.5447 0.0
C1511 C 0.73989 0.88787 0.55135 0.0
C1512 C 0.72532 0.90719 0.54 0.0
C1513 C 0.7351 0.92343 0.52232 0.0
C1514 C 0.71538 0.94324 0.51385 0.0
C1515 C 0.7226 0.96998 0.52008 0.0
C1516 C 0.71064 0.94097 0.48579 0.0
C1517 C 0.69315 0.93567 0.52964 0.0
C1518 C 0.69933 0.91471 0.54445 0.0
C1519 C 0.68214 0.90433 0.56088 0.0
C1520 C 0.65808 0.91574 0.56243 0.0
C1521 C 0.65118 0.9375 0.54775 0.0
C1522 C 0.66912 0.94737 0.53098 0.0
H1523 H 0.75405 0.24647 0.03266 0.0
H1524 H 0.80296 0.19318 0.07279 0.0
H1525 H 0.77046 0.16223 0.07437 0.0
H1526 H 0.69638 0.23062 0.06455 0.0
H1527 H 0.67864 0.23395 0.03649 0.0
H1528 H 0.70523 0.2523 0.03999 0.0
H1529 H 0.72389 0.23471 0.99836 0.0
H1530 H 0.69752 0.21606 0.99485 0.0
H1531 H 0.72823 0.201 0.99461 0.0
H1532 H 0.73341 0.13662 0.07001 0.0
H1533 H 0.69352 0.1186 0.062 0.0
H1534 H 0.66876 0.18814 0.02357 0.0
C1535 C 0.75756 0.2285 0.0423 0.0
C1536 C 0.7806 0.22236 0.05332 0.0
C1537 C 0.78508 0.1984 0.06499 0.0
C1538 C 0.76684 0.18068 0.06575 0.0
C1539 C 0.74435 0.18718 0.05451 0.0
C1540 C 0.73957 0.21055 0.04312 0.0
C1541 C 0.71416 0.21243 0.03175 0.0
C1542 C 0.69763 0.23358 0.04393 0.0
C1543 C 0.71608 0.21627 1.0032 0.0
C1544 C 0.70533 0.18653 0.03867 0.0
C1545 C 0.7231 0.17224 0.05166 0.0
C1546 C 0.71934 0.14763 0.05986 0.0
C1547 C 0.69668 0.13747 0.055 0.0
C1548 C 0.67797 0.15186 0.04205 0.0
C1549 C 0.68256 0.17669 0.03367 0.0
H1550 H 0.45385 0.46532 1.00723 0.0
H1551 H 0.48555 0.39068 0.02644 0.0
H1552 H 0.52722 0.40727 0.02625 0.0
H1553 H 0.50497 0.48315 0.9659 0.0
H1554 H 0.50443 0.51568 0.97527 0.0
H1555 H 0.47636 0.499 0.97625 0.0
H1556 H 0.46894 0.50809 0.02295 0.0
H1557 H 0.49621 0.52593 0.02253 0.0
H1558 H 0.49318 0.50019 0.04474 0.0
H1559 H 0.56461 0.43198 0.02756 0.0
H1560 H 0.59636 0.46326 0.02906 0.0
H1561 H 0.54242 0.52269 1.00685 0.0
C1562 C 0.46968 0.45253 1.01109 0.0
C1563 C 0.46658 0.42665 1.0168 0.0
C1564 C 0.48762 0.41048 0.02195 0.0
C1565 C 0.51133 0.41976 0.02188 0.0
C1566 C 0.51386 0.44533 1.01643 0.0
C1567 C 0.49371 0.46155 1.01099 0.0
C1568 C 0.50184 0.48835 1.00632 0.0
C1569 C 0.49659 0.49709 0.97933 0.0
C1570 C 0.4893 0.50672 0.02527 0.0
C1571 C 0.52957 0.4847 1.01054 0.0
C1572 C 0.53593 0.45963 1.01634 0.0
C1573 C 0.55993 0.45156 0.02267 0.0
C1574 C 0.57786 0.46951 0.0235 0.0
C1575 C 0.57202 0.49532 1.01774 0.0
C1576 C 0.54757 0.50298 1.01075 0.0
H1577 H 0.97088 0.21793 0.04128 0.0
H1578 H 0.92194 0.20028 0.10385 0.0
H1579 H 0.95681 0.17822 0.12534 0.0
H1580 H 1.00788 0.15751 0.04394 0.0
H1581 H 0.03669 0.1712 0.03572 0.0
H1582 H 1.00799 0.18582 0.0247 0.0
H1583 H 0.01821 0.22796 0.04444 0.0
H1584 H 0.04691 0.21347 0.05557 0.0
H1585 H 0.02501 0.22858 0.07724 0.0
H1586 H 0.99651 0.15829 0.14083 0.0
H1587 H 0.03836 0.14072 0.14925 0.0
H1588 H 0.06426 0.16993 0.07744 0.0
C1589 C 0.96749 0.2094 0.0595 0.0
C1590 C 0.94319 0.21082 0.07061 0.0
C1591 C 0.93991 0.19922 0.0945 0.0
C1592 C 0.95978 0.18672 0.10703 0.0
C1593 C 0.98325 0.18558 0.09561 0.0
C1594 C 0.9873 0.19643 0.07232 0.0
C1595 C 0.01456 0.19181 0.06433 0.0
C1596 C 0.01692 0.17563 0.04077 0.0
C1597 C 0.0269 0.21696 0.06015 0.0
C1598 C 0.02518 0.17715 0.08701 0.0
C1599 C 1.00654 0.17378 0.10466 0.0
C1600 C 1.01118 0.16074 0.12706 0.0
C1601 C 0.03526 0.15068 0.13163 0.0
C1602 C 0.05506 0.15354 0.11408 0.0
C1603 C 0.04979 0.16725 0.09138 0.0
H1604 H 0.09018 0.23122 0.2989 0.0
H1605 H 0.0373 0.27777 0.25623 0.0
H1606 H 0.04527 0.25012 0.21976 0.0
H1607 H 0.13414 0.22447 0.25024 0.0
H1608 H 0.14459 0.19245 0.25821 0.0
H1609 H 0.13176 0.21308 0.28214 0.0
H1610 H 0.0993 0.18071 0.29413 0.0
H1611 H 0.11212 0.15984 0.27031 0.0
H1612 H 0.0797 0.16969 0.2704 0.0
H1613 H 0.06078 0.21908 0.18738 0.0
H1614 H 0.0846 0.18871 0.16028 0.0
H1615 H 0.13066 0.16485 0.22253 0.0
C1616 C 0.07997 0.23521 0.28198 0.0
C1617 C 0.06294 0.25641 0.28031 0.0
C1618 C 0.05015 0.2614 0.25787 0.0
C1619 C 0.05461 0.24583 0.23712 0.0
C1620 C 0.07208 0.22551 0.2391 0.0
C1621 C 0.08467 0.22023 0.26092 0.0
C1622 C 0.1043 0.19887 0.25736 0.0
C1623 C 0.13023 0.20776 0.26227 0.0
C1624 C 0.0985 0.17592 0.27404 0.0
C1625 C 0.10121 0.19333 0.22996 0.0
C1626 C 0.0821 0.20853 0.21998 0.0
C1627 C 0.0757 0.20705 0.19501 0.0
C1628 C 0.08929 0.18977 0.17979 0.0
C1629 C 0.10934 0.17456 0.18944 0.0
C1630 C 0.11535 0.17629 0.21483 0.0
H1631 H 0.05269 0.38171 0.23258 0.0
H1632 H 1.00659 0.42232 0.28767 0.0
H1633 H 0.99391 0.45407 0.25547 0.0
H1634 H 0.07187 0.43769 0.19648 0.0
H1635 H 0.07025 0.42317 0.16643 0.0
H1636 H 0.07718 0.40394 0.19384 0.0
H1637 H 0.0405 0.37668 0.18495 0.0
H1638 H 0.03343 0.39584 0.15754 0.0
H1639 H 1.01002 0.39175 0.18156 0.0
H1640 H 0.98621 0.48172 0.21845 0.0
H1641 H 0.98121 0.50301 0.17793 0.0
H1642 H 0.02949 0.44479 0.1429 0.0
C1643 C 0.04014 0.39747 0.23783 0.0
C1644 C 0.03078 0.39952 0.26296 0.0
C1645 C 1.01406 0.42024 0.2688 0.0
C1646 C 1.00677 0.43845 0.25056 0.0
C1647 C 0.01603 0.43584 0.22611 0.0
C1648 C 0.03221 0.41585 0.21949 0.0
C1649 C 0.03832 0.41745 0.19133 0.0
C1650 C 0.06606 0.42075 0.18675 0.0
C1651 C 0.03008 0.39403 0.17806 0.0
C1652 C 0.02291 0.44131 0.18325 0.0
C1653 C 1.01058 0.45157 0.20396 0.0
C1654 C 0.99565 0.47374 0.20212 0.0
C1655 C 0.99295 0.48576 0.17869 0.0
C1656 C 1.00466 0.47575 0.15664 0.0
C1657 C 0.02005 0.45303 0.15911 0.0
H1658 H 1.00701 0.81413 0.34838 0.0
H1659 H 1.01372 0.83141 0.2693 0.0
H1660 H 1.00918 0.87703 0.2777 0.0
H1661 H 0.96512 0.86971 0.36687 0.0
H1662 H 0.98165 0.87417 0.39513 0.0
H1663 H 0.98008 0.8429 0.38279 0.0
H1664 H 0.02801 0.8371 0.3817 0.0
H1665 H 0.02954 0.86801 0.39451 0.0
H1666 H 0.0457 0.8604 0.36552 0.0
H1667 H 1.0087 0.92008 0.29449 0.0
H1668 H 0.01913 0.95706 0.31858 0.0
H1669 H 0.01559 0.91209 0.3871 0.0
C1670 C 1.00687 0.82766 0.33294 0.0
C1671 C 1.00959 0.81953 0.30809 0.0
C1672 C 1.01047 0.83748 0.28827 0.0
C1673 C 1.00795 0.86337 0.29291 0.0
C1674 C 1.00498 0.87097 0.3176 0.0
C1675 C 1.00487 0.85367 0.33735 0.0
C1676 C 1.0055 0.86678 0.36217 0.0
C1677 C 0.98166 0.86317 0.37765 0.0
C1678 C 0.02856 0.85753 0.37682 0.0
C1679 C 1.00692 0.89396 0.35322 0.0
C1680 C 1.00584 0.89605 0.32748 0.0
C1681 C 1.00919 0.91882 0.3147 0.0
C1682 C 0.01512 0.93971 0.32851 0.0
C1683 C 0.01808 0.93748 0.3547 0.0
C1684 C 1.01274 0.91464 0.36722 0.0
H1685 H 0.99556 0.64598 0.34287 0.0
H1686 H 0.06293 0.68501 0.35278 0.0
H1687 H 0.07184 0.6591 0.39017 0.0
H1688 H 0.97926 0.64405 0.40873 0.0
H1689 H 0.96644 0.61348 0.40789 0.0
H1690 H 0.9659 0.63372 0.38043 0.0
H1691 H 0.98875 0.59798 0.35502 0.0
H1692 H 0.98953 0.5777 0.38248 0.0
H1693 H 0.01784 0.58407 0.36578 0.0
H1694 H 0.07372 0.63023 0.4268 0.0
H1695 H 0.06672 0.60213 0.46296 0.0
H1696 H 0.99698 0.58254 0.43236 0.0
C1697 C 1.01219 0.64916 0.35284 0.0
C1698 C 0.02883 0.66731 0.34408 0.0
C1699 C 0.05027 0.67071 0.35811 0.0
C1700 C 0.05546 0.65618 0.37967 0.0
C1701 C 0.03893 0.6384 0.3875 0.0
C1702 C 0.01756 0.63498 0.3748 0.0
C1703 C 1.0023 0.61549 0.38837 0.0
C1704 C 0.97698 0.6274 0.39686 0.0
C1705 C 0.99944 0.59244 0.37192 0.0
C1706 C 0.0185 0.60863 0.41063 0.0
C1707 C 0.03961 0.62202 0.40948 0.0
C1708 C 0.05728 0.61961 0.42793 0.0
C1709 C 0.05308 0.60353 0.44845 0.0
C1710 C 0.0313 0.58999 0.45061 0.0
C1711 C 1.01396 0.59232 0.43115 0.0
H1712 H 0.26958 0.08193 0.27755 0.0
H1713 H 0.32634 0.0677 0.22033 0.0
H1714 H 0.2953 0.07637 0.18754 0.0
H1715 H 0.22003 0.05304 0.24509 0.0
H1716 H 0.19619 0.07601 0.25523 0.0
H1717 H 0.22274 0.06889 0.27432 0.0
H1718 H 0.23182 0.11624 0.27395 0.0
H1719 H 0.20531 0.12351 0.25485 0.0
H1720 H 0.23537 0.13285 0.24447 0.0
H1721 H 0.25832 0.08827 0.16058 0.0
H1722 H 0.21825 0.10017 0.14147 0.0
H1723 H 0.1834 0.10495 0.21523 0.0
C1724 C 0.27538 0.08057 0.25809 0.0
C1725 C 0.30058 0.07404 0.25155 0.0
C1726 C 0.30731 0.07255 0.22585 0.0
C1727 C 0.28973 0.07751 0.20707 0.0
C1728 C 0.26513 0.08389 0.21403 0.0
C1729 C 0.25785 0.08528 0.23894 0.0
C1730 C 0.23008 0.09239 0.24113 0.0
C1731 C 0.21645 0.07133 0.25475 0.0
C1732 C 0.22537 0.11775 0.25439 0.0
C1733 C 0.2229 0.09475 0.21364 0.0
C1734 C 0.24357 0.08998 0.19841 0.0
C1735 C 0.24205 0.09185 0.17241 0.0
C1736 C 0.21906 0.09873 0.16166 0.0
C1737 C 0.19732 0.10345 0.17659 0.0
C1738 C 0.19943 0.10123 0.2031 0.0
H1739 H 0.76551 0.54876 0.2682 0.0
H1740 H 0.79758 0.48949 0.31655 0.0
H1741 H 0.83226 0.4823 0.28629 0.0
H1742 H 0.78074 0.51763 0.21049 0.0
H1743 H 0.78766 0.54608 0.19335 0.0
H1744 H 0.76584 0.54756 0.21932 0.0
H1745 H 0.79136 0.58069 0.24038 0.0
H1746 H 0.81324 0.57936 0.21444 0.0
H1747 H 0.82373 0.57346 0.24585 0.0
H1748 H 0.86313 0.48097 0.25091 0.0
H1749 H 0.88789 0.48471 0.21191 0.0
H1750 H 0.83605 0.54432 0.18533 0.0
C1751 C 0.78 0.53447 0.27247 0.0
C1752 C 0.77884 0.51965 0.29475 0.0
C1753 C 0.79797 0.50089 0.29953 0.0
C1754 C 0.8178 0.49675 0.2825 0.0
C1755 C 0.81828 0.51142 0.26062 0.0
C1756 C 0.7999 0.52987 0.25547 0.0
C1757 C 0.8046 0.54234 0.2301 0.0
C1758 C 0.78345 0.53814 0.21226 0.0
C1759 C 0.80846 0.57064 0.23287 0.0
C1760 C 0.8284 0.52794 0.22181 0.0
C1761 C 0.83601 0.51035 0.23986 0.0
C1762 C 0.85742 0.49475 0.23668 0.0
C1763 C 0.87146 0.49714 0.21448 0.0
C1764 C 0.86409 0.51492 0.19554 0.0
C1765 C 0.84216 0.53047 0.19935 0.0
H1766 H 0.26935 0.02417 0.37455 0.0
H1767 H 0.29544 0.08515 0.41807 0.0
H1768 H 0.25767 0.0842 0.445 0.0
H1769 H 0.2081 0.04268 0.37423 0.0
H1770 H 0.1972 1.01128 0.37749 0.0
H1771 H 0.22695 1.01583 0.36313 0.0
H1772 H 0.24769 0.98448 0.39526 0.0
H1773 H 0.21789 0.97968 0.40969 0.0
H1774 H 0.24271 0.98968 0.42825 0.0
H1775 H 0.21484 0.07795 0.46524 0.0
H1776 H 0.17172 0.06699 0.47604 0.0
H1777 H 0.17691 1.0091 0.41991 0.0
C1778 C 0.26778 0.03686 0.39018 0.0
C1779 C 0.28562 0.05457 0.39423 0.0
C1780 C 0.28197 0.0715 0.41439 0.0
C1781 C 0.2607 0.07094 0.42995 0.0
C1782 C 0.24355 0.05309 0.4253 0.0
C1783 C 0.24713 0.03622 0.406 0.0
C1784 C 0.22582 1.01945 0.40396 0.0
C1785 C 0.21382 0.02253 0.37819 0.0
C1786 C 0.23402 0.99168 0.40964 0.0
C1787 C 0.20906 0.03018 0.42444 0.0
C1788 C 0.21956 0.04935 0.4369 0.0
C1789 C 0.20663 0.06275 0.45582 0.0
C1790 C 0.18229 0.05648 0.46183 0.0
C1791 C 0.17146 0.03729 0.4487 0.0
C1792 C 0.18508 0.02382 0.43016 0.0
H1793 H 0.7834 0.55203 0.43338 0.0
H1794 H 0.73109 0.5055 0.47208 0.0
H1795 H 0.75978 0.49937 0.50746 0.0
H1796 H 0.83632 0.52179 0.4486 0.0
H1797 H 0.85351 0.54924 0.45368 0.0
H1798 H 0.82774 0.55152 0.43324 0.0
H1799 H 0.80727 0.58816 0.45944 0.0
H1800 H 0.83318 0.58602 0.48006 0.0
H1801 H 0.80222 0.58364 0.49262 0.0
H1802 H 0.79906 0.49062 0.53248 0.0
H1803 H 0.84213 0.48561 0.54773 0.0
H1804 H 0.86309 0.54598 0.49747 0.0
C1805 C 0.77743 0.54156 0.44981 0.0
C1806 C 0.75508 0.52944 0.45023 0.0
C1807 C 0.74826 0.51498 0.47159 0.0
C1808 C 0.7643 0.51156 0.49175 0.0
C1809 C 0.78638 0.52381 0.49064 0.0
C1810 C 0.79238 0.53931 0.47056 0.0
C1811 C 0.81733 0.54984 0.47321 0.0
C1812 C 0.83472 0.54264 0.45088 0.0
C1813 C 0.81484 0.57863 0.47654 0.0
C1814 C 0.82532 0.53642 0.497 0.0
C1815 C 0.80742 0.52129 0.50688 0.0
C1816 C 0.81278 0.50334 0.52581 0.0
C1817 C 0.83714 0.50058 0.53439 0.0
C1818 C 0.8553 0.5162 0.52439 0.0
C1819 C 0.84903 0.53482 0.50623 0.0
H1820 H 0.32749 0.30221 0.05467 0.0
H1821 H 0.29188 0.36321 1.01126 0.0
H1822 H 0.25211 0.34218 1.01491 0.0
H1823 H 0.2938 0.25123 0.03133 0.0
H1824 H 0.29214 0.23521 0.06131 0.0
H1825 H 0.31771 0.25439 0.0537 0.0
H1826 H 0.30803 0.28059 0.09354 0.0
H1827 H 0.28242 0.26152 0.10128 0.0
H1828 H 0.27751 0.29538 0.09837 0.0
H1829 H 0.21615 0.31389 0.02398 0.0
H1830 H 0.18696 0.28231 0.0392 0.0
H1831 H 0.24637 0.24184 0.07883 0.0
C1832 C 0.31123 0.31115 0.04607 0.0
C1833 C 0.31241 0.33445 0.03304 0.0
C1834 C 0.29105 0.34546 0.02155 0.0
C1835 C 0.26852 0.33363 0.0235 0.0
C1836 C 0.26781 0.31087 0.03705 0.0
C1837 C 0.28864 0.29985 0.04822 0.0
C1838 C 0.28296 0.27598 0.06262 0.0
C1839 C 0.29751 0.25284 0.05157 0.0
C1840 C 0.28802 0.27853 0.09061 0.0
C1841 C 0.2556 0.27528 0.05804 0.0
C1842 C 0.24719 0.29532 0.04298 0.0
C1843 C 0.22254 0.29823 0.03591 0.0
C1844 C 0.20612 0.28025 0.0446 0.0
C1845 C 0.21437 0.25994 0.06048 0.0
C1846 C 0.23945 0.25749 0.06713 0.0
H1847 H 0.25383 0.87254 0.53903 0.0
H1848 H 0.23784 0.82118 0.48007 0.0
H1849 H 0.2044 0.85104 0.46584 0.0
H1850 H 0.18977 0.89328 0.55315 0.0
H1851 H 0.19646 0.92556 0.55879 0.0
H1852 H 0.21959 0.90037 0.56449 0.0
H1853 H 0.25038 0.9225 0.53492 0.0
H1854 H 0.22736 0.94776 0.52915 0.0
H1855 H 0.24164 0.93059 0.50333 0.0
H1856 H 0.17245 0.88674 0.45724 0.0
H1857 H 0.14452 0.92506 0.45522 0.0
H1858 H 0.17915 0.95406 0.5202 0.0
C1859 C 0.24324 0.86738 0.52323 0.0
C1860 C 0.24909 0.84418 0.51066 0.0
C1861 C 0.23454 0.83876 0.48989 0.0
C1862 C 0.21519 0.85564 0.4817 0.0
C1863 C 0.21011 0.87821 0.49436 0.0
C1864 C 0.22366 0.88415 0.51473 0.0
C1865 C 0.21424 0.90983 0.52487 0.0
C1866 C 0.20443 0.90709 0.55194 0.0
C1867 C 0.23462 0.92879 0.52295 0.0
C1868 C 0.19326 0.91732 0.5071 0.0
C1869 C 0.19135 0.89873 0.48961 0.0
C1870 C 0.1738 0.90132 0.47093 0.0
C1871 C 0.15792 0.92334 0.46994 0.0
C1872 C 0.15926 0.94289 0.48755 0.0
C1873 C 0.17728 0.93956 0.50651 0.0
H1874 H 0.9157 0.7332 0.52514 0.0
H1875 H 0.98282 0.76439 0.49593 0.0
H1876 H 1.00454 0.72177 0.49869 0.0
H1877 H 0.94348 0.68737 0.5681 0.0
H1878 H 0.92226 0.66349 0.56177 0.0
H1879 H 0.91253 0.69646 0.55843 0.0
H1880 H 0.90044 0.68953 0.5126 0.0
H1881 H 0.90977 0.6565 0.51595 0.0
H1882 H 0.92299 0.67519 0.49108 0.0
H1883 H 0.01911 0.675 0.50637 0.0
H1884 H 0.02323 0.6283 0.51181 0.0
H1885 H 0.94554 0.62796 0.53278 0.0
C1886 C 0.93498 0.73099 0.51933 0.0
C1887 C 0.9477 0.75202 0.51047 0.0
C1888 C 0.97281 0.74845 0.50274 0.0
C1889 C 0.98528 0.72437 0.50442 0.0
C1890 C 0.97227 0.70399 0.51355 0.0
C1891 C 0.94751 0.70706 0.52042 0.0
C1892 C 0.93722 0.68205 0.52824 0.0
C1893 C 0.92835 0.68238 0.55577 0.0
C1894 C 0.91638 0.67543 0.51093 0.0
C1895 C 0.95998 0.66433 0.52468 0.0
C1896 C 0.9802 0.6773 0.51669 0.0
C1897 C 1.00332 0.66472 0.5125 0.0
C1898 C 1.00558 0.63821 0.51583 0.0
C1899 C 0.98472 0.62456 0.52274 0.0
C1900 C 0.96181 0.63794 0.52754 0.0
H1901 H 0.38051 0.85889 0.52632 0.0
H1902 H 0.42577 0.8001 0.56329 0.0
H1903 H 0.45944 0.82956 0.56681 0.0
H1904 H 0.43207 0.89055 0.49248 0.0
H1905 H 0.41714 0.92143 0.49736 0.0
H1906 H 0.3988 0.89448 0.49394 0.0
H1907 H 0.3764 0.90426 0.53639 0.0
H1908 H 0.39456 0.93116 0.53986 0.0
H1909 H 0.39446 0.90691 0.56398 0.0
H1910 H 0.48539 0.86696 0.57106 0.0
H1911 H 0.50032 0.90949 0.57793 0.0
H1912 H 0.43764 0.9432 0.53785 0.0
C1913 C 0.39782 0.85221 0.53456 0.0
C1914 C 0.40101 0.82751 0.54436 0.0
C1915 C 0.42342 0.81913 0.55557 0.0
C1916 C 0.44256 0.8356 0.55745 0.0
C1917 C 0.43882 0.86015 0.54783 0.0
C1918 C 0.41699 0.86836 0.53652 0.0
C1919 C 0.4163 0.89626 0.53027 0.0
C1920 C 0.41607 0.90094 0.50182 0.0
C1921 C 0.39414 0.91047 0.54342 0.0
C1922 C 0.44057 0.90278 0.54098 0.0
C1923 C 0.45364 0.88169 0.55048 0.0
C1924 C 0.47559 0.88355 0.56326 0.0
C1925 C 0.48394 0.90772 0.56705 0.0
C1926 C 0.47005 0.92945 0.55842 0.0
C1927 C 0.44864 0.92682 0.54455 0.0
H1928 H 0.57247 0.78044 0.7669 0.0
H1929 H 0.5546 0.73662 0.83336 0.0
H1930 H 0.56303 0.69696 0.8099 0.0
H1931 H 0.54779 0.73756 0.72098 0.0
H1932 H 0.5724 0.74289 0.69857 0.0
H1933 H 0.56201 0.76747 0.71985 0.0
H1934 H 0.60681 0.76991 0.73511 0.0
H1935 H 0.61732 0.74527 0.71406 0.0
H1936 H 0.62309 0.74172 0.74704 0.0
H1937 H 0.57584 0.6621 0.77942 0.0
H1938 H 0.59318 0.63513 0.74496 0.0
H1939 H 0.6048 0.70211 0.69953 0.0
C1940 C 0.56992 0.76243 0.77626 0.0
C1941 C 0.5628 0.76133 0.80176 0.0
C1942 C 0.55987 0.73762 0.81371 0.0
C1943 C 0.56463 0.71511 0.80055 0.0
C1944 C 0.57222 0.71675 0.77548 0.0
C1945 C 0.57478 0.73985 0.76346 0.0
C1946 C 0.58474 0.73653 0.73697 0.0
C1947 C 0.56559 0.74672 0.71797 0.0
C1948 C 0.60946 0.74909 0.73309 0.0
C1949 C 0.5882 0.70801 0.73618 0.0
C1950 C 0.5804 0.69686 0.75836 0.0
C1951 C 0.58192 0.67064 0.76196 0.0
C1952 C 0.59177 0.65549 0.74241 0.0
C1953 C 0.60035 0.66672 0.71992 0.0
C1954 C 0.59843 0.69322 0.71673 0.0
H1955 H 0.50551 0.88965 0.75226 0.0
H1956 H 0.56857 0.93185 0.7708 0.0
H1957 H 0.56355 0.95708 0.73183 0.0
H1958 H 0.51769 0.88781 0.68576 0.0
H1959 H 0.4856 0.89174 0.67762 0.0
H1960 H 0.4941 0.87688 0.707 0.0
H1961 H 0.46532 0.90953 0.73069 0.0
H1962 H 0.45663 0.9244 0.70137 0.0
H1963 H 0.46908 0.94282 0.72551 0.0
H1964 H 0.55144 0.97843 0.68953 0.0
H1965 H 0.53272 0.99365 0.64963 0.0
H1966 H 0.47746 0.93813 0.6588 0.0
C1967 C 0.51819 0.90433 0.74836 0.0
C1968 C 0.53764 0.90833 0.765 0.0
C1969 C 0.55381 0.92775 0.75853 0.0
C1970 C 0.55101 0.94243 0.73633 0.0
C1971 C 0.53187 0.93779 0.72034 0.0
C1972 C 0.51567 0.91921 0.72616 0.0
C1973 C 0.4966 0.91801 0.70581 0.0
C1974 C 0.49862 0.89207 0.69331 0.0
C1975 C 0.47036 0.92405 0.71649 0.0
C1976 C 0.5045 0.93878 0.68772 0.0
C1977 C 0.52493 0.94999 0.69635 0.0
C1978 C 0.53543 0.96969 0.68271 0.0
C1979 C 0.52471 0.97824 0.65995 0.0
C1980 C 0.50359 0.96722 0.65083 0.0
C1981 C 0.49361 0.94708 0.66506 0.0
H1982 H 0.53084 0.36276 0.8198 0.0
H1983 H 0.49126 0.32993 0.88245 0.0
H1984 H 0.48917 0.37135 0.90362 0.0
H1985 H 0.56766 0.4013 0.85424 0.0
H1986 H 0.5666 0.42615 0.83071 0.0
H1987 H 0.56306 0.39406 0.82212 0.0
H1988 H 0.52081 0.40989 0.80164 0.0
H1989 H 0.52498 0.44145 0.81203 0.0
H1990 H 0.49731 0.42587 0.8209 0.0
H1991 H 0.49851 0.41386 0.92037 0.0
H1992 H 0.51851 0.4525 0.93116 0.0
H1993 H 0.54515 0.46026 0.85439 0.0
C1994 C 0.52162 0.36442 0.83788 0.0
C1995 C 0.51154 0.34333 0.84975 0.0
C1996 C 0.49929 0.34602 0.87328 0.0
C1997 C 0.49783 0.36944 0.88525 0.0
C1998 C 0.50802 0.39 0.87297 0.0
C1999 C 0.51946 0.3877 0.84967 0.0
C2000 C 0.53036 0.41203 0.84103 0.0
C2001 C 0.55856 0.40816 0.83677 0.0
C2002 C 0.5176 0.42296 0.81751 0.0
C2003 C 0.52419 0.42821 0.8635 0.0
C2004 C 0.51133 0.41523 0.88182 0.0
C2005 C 0.50784 0.42455 0.90592 0.0
C2006 C 0.51914 0.44675 0.91184 0.0
C2007 C 0.53359 0.45944 0.89362 0.0
C2008 C 0.53436 0.45098 0.86877 0.0
H2009 H 0.52238 0.21383 0.8759 0.0
H2010 H 0.49114 0.16548 0.82212 0.0
H2011 H 0.49316 0.12998 0.85291 0.0
H2012 H 0.56548 0.16722 0.90063 0.0
H2013 H 0.5624 0.17765 0.93248 0.0
H2014 H 0.55687 0.19988 0.90703 0.0
H2015 H 0.51304 0.21204 0.92506 0.0
H2016 H 0.51893 0.19037 0.95086 0.0
H2017 H 0.49211 0.18752 0.932 0.0
H2018 H 0.4998 0.09942 0.889 0.0
H2019 H 0.50867 0.07634 0.92865 0.0
H2020 H 0.53699 0.14399 0.9589 0.0
C2021 C 0.51546 0.19589 0.87094 0.0
C2022 C 0.50594 0.19249 0.84695 0.0
C2023 C 0.49778 0.16859 0.84068 0.0
C2024 C 0.4991 0.14829 0.85795 0.0
C2025 C 0.50888 0.15212 0.88135 0.0
C2026 C 0.5168 0.17534 0.88795 0.0
C2027 C 0.52717 0.17416 0.91408 0.0
C2028 C 0.55461 0.18007 0.9135 0.0
C2029 C 0.51188 0.19208 0.93154 0.0
C2030 C 0.52389 0.14664 0.92113 0.0
C2031 C 0.51331 0.1343 0.90195 0.0
C2032 C 0.5081 0.10889 0.90414 0.0
C2033 C 0.51329 0.0959 0.92671 0.0
C2034 C 0.52375 0.10822 0.94681 0.0
C2035 C 0.52945 0.13386 0.94374 0.0
H2036 H 0.79894 0.58823 0.74048 0.0
H2037 H 0.77274 0.54772 0.8061 0.0
H2038 H 0.7302 0.55149 0.79003 0.0
H2039 H 0.74489 0.63279 0.73619 0.0
H2040 H 0.74514 0.63355 0.70248 0.0
H2041 H 0.77358 0.62725 0.71886 0.0
H2042 H 0.78159 0.58556 0.69486 0.0
H2043 H 0.75312 0.59169 0.6785 0.0
H2044 H 0.75846 0.56246 0.69589 0.0
H2045 H 0.68968 0.55953 0.76636 0.0
H2046 H 0.65528 0.57213 0.73845 0.0
H2047 H 0.70648 0.60909 0.68822 0.0
C2048 C 0.78421 0.58038 0.75161 0.0
C2049 C 0.78948 0.56774 0.77486 0.0
C2050 C 0.76946 0.55745 0.78839 0.0
C2051 C 0.74511 0.55954 0.77935 0.0
C2052 C 0.74055 0.57215 0.75655 0.0
C2053 C 0.75955 0.58255 0.7429 0.0
C2054 C 0.74946 0.5955 0.71912 0.0
C2055 C 0.75351 0.62396 0.71917 0.0
C2056 C 0.76137 0.58306 0.6957 0.0
C2057 C 0.72192 0.59068 0.72141 0.0
C2058 C 0.71724 0.57708 0.74315 0.0
C2059 C 0.69328 0.57022 0.74935 0.0
C2060 C 0.67371 0.57748 0.73322 0.0
C2061 C 0.67771 0.59168 0.71083 0.0
C2062 C 0.70243 0.59824 0.70502 0.0
H2063 H 0.30017 0.03604 0.81114 0.0
H2064 H 0.23061 1.019 0.77904 0.0
H2065 H 0.25148 1.01362 0.73759 0.0
H2066 H 0.32294 0.0718 0.75849 0.0
H2067 H 0.35466 0.06004 0.76142 0.0
H2068 H 0.33447 0.06186 0.78866 0.0
H2069 H 0.3441 1.01422 0.79799 0.0
H2070 H 0.36435 1.01224 0.77078 0.0
H2071 H 0.33922 0.99155 0.77419 0.0
H2072 H 0.27959 1.01123 0.6995 0.0
H2073 H 0.31289 1.01109 0.66732 0.0
H2074 H 0.36506 0.0296 0.72346 0.0
C2075 C 0.28947 0.03106 0.79532 0.0
C2076 C 0.26377 0.02792 0.79817 0.0
C2077 C 0.25028 0.02142 0.77717 0.0
C2078 C 0.262 1.01837 0.7536 0.0
C2079 C 0.28731 0.02177 0.75129 0.0
C2080 C 0.30095 0.02788 0.77158 0.0
C2081 C 0.32788 0.03069 0.76383 0.0
C2082 C 0.33543 0.05771 0.76837 0.0
C2083 C 0.34489 1.011 0.77752 0.0
C2084 C 0.32723 0.02536 0.73601 0.0
C2085 C 0.3036 0.02029 0.72925 0.0
C2086 C 0.29815 1.0152 0.70461 0.0
C2087 C 0.31723 1.01534 0.68637 0.0
C2088 C 0.3417 0.02053 0.69263 0.0
C2089 C 0.34667 0.02542 0.71797 0.0
H2090 H 0.77603 0.59082 0.8979 0.0
H2091 H 0.81914 0.53115 0.93633 0.0
H2092 H 0.78724 0.53075 0.97023 0.0
H2093 H 0.74765 0.6228 0.95563 0.0
H2094 H 0.71869 0.62889 0.94011 0.0
H2095 H 0.7474 0.62872 0.92233 0.0
H2096 H 0.73168 0.59499 0.89308 0.0
H2097 H 0.70307 0.59514 0.91063 0.0
H2098 H 0.72129 0.56587 0.9065 0.0
H2099 H 0.74813 0.53197 0.99576 0.0
H2100 H 0.70401 0.53157 1.00822 0.0
H2101 H 0.68632 0.59006 0.95264 0.0
C2102 C 0.77922 0.5784 0.91397 0.0
C2103 C 0.80008 0.56125 0.91475 0.0
C2104 C 0.80322 0.54449 0.9355 0.0
C2105 C 0.78537 0.54435 0.95493 0.0
C2106 C 0.76465 0.56119 0.95332 0.0
C2107 C 0.76154 0.57793 0.93331 0.0
C2108 C 0.73607 0.59117 0.93375 0.0
C2109 C 0.73755 0.61958 0.93823 0.0
C2110 C 0.72223 0.58648 0.90958 0.0
C2111 C 0.72471 0.57806 0.95617 0.0
C2112 C 0.74172 0.56149 0.96777 0.0
C2113 C 0.7348 0.54528 0.98722 0.0
C2114 C 0.7097 0.5452 0.99419 0.0
C2115 C 0.69194 0.56082 0.98129 0.0
C2116 C 0.69969 0.5782 0.96292 0.0
H2117 H 0.28528 0.07419 0.96462 0.0
H2118 H 0.25161 1.0032 0.98097 0.0
H2119 H 0.277 0.99708 1.01815 0.0
H2120 H 0.34108 0.05869 0.9754 0.0
H2121 H 0.34973 0.08652 0.99111 0.0
H2122 H 0.32421 0.08872 0.97059 0.0
H2123 H 0.29571 0.10691 1.00631 0.0
H2124 H 0.32144 0.10468 0.02716 0.0
H2125 H 0.29331 0.08976 0.03562 0.0
H2126 H 0.31491 0.99163 0.04242 0.0
H2127 H 0.35901 0.9899 0.05327 0.0
H2128 H 0.36364 0.06747 0.02808 0.0
C2129 C 0.28214 0.05798 0.97658 0.0
C2130 C 0.26696 0.03886 0.96916 0.0
C2131 C 0.26392 1.01772 0.98543 0.0
C2132 C 0.27787 1.01431 1.00703 0.0
C2133 C 0.2939 0.03277 1.0129 0.0
C2134 C 0.29534 0.05472 0.99863 0.0
C2135 C 0.31621 0.07008 1.00683 0.0
C2136 C 0.33383 0.07629 0.98468 0.0
C2137 C 0.30605 0.09429 1.01976 0.0
C2138 C 0.32831 0.05173 0.02548 0.0
C2139 C 0.31478 0.03056 0.02934 0.0
C2140 C 0.3251 1.00855 0.04075 0.0
C2141 C 0.35015 1.00765 0.0469 0.0
C2142 C 0.36429 0.0288 0.04202 0.0
C2143 C 0.35275 0.05152 0.03295 0.0
H2144 H 0.78525 0.8173 0.53316 0.0
H2145 H 0.83578 0.75942 0.50147 0.0
H2146 H 0.80404 0.72802 0.50754 0.0
H2147 H 0.76293 0.7799 0.58128 0.0
H2148 H 0.73145 0.79296 0.58102 0.0
H2149 H 0.75619 0.81186 0.57019 0.0
H2150 H 0.7349 0.81961 0.52778 0.0
H2151 H 0.70991 0.80083 0.53843 0.0
H2152 H 0.7267 0.79302 0.50985 0.0
H2153 H 0.7694 0.70223 0.5215 0.0
H2154 H 0.73473 0.68299 0.5435 0.0
H2155 H 0.70594 0.75736 0.56675 0.0
C2156 C 0.78926 0.79811 0.527 0.0
C2157 C 0.81269 0.79063 0.51661 0.0
C2158 C 0.81775 0.76538 0.50918 0.0
C2159 C 0.79985 0.74752 0.51251 0.0
C2160 C 0.77706 0.75528 0.52335 0.0
C2161 C 0.77166 0.77998 0.53046 0.0
C2162 C 0.74678 0.78274 0.54403 0.0
C2163 C 0.74952 0.79243 0.57071 0.0
C2164 C 0.72849 0.80007 0.52912 0.0
C2165 C 0.73948 0.75555 0.54427 0.0
C2166 C 0.75701 0.74017 0.53181 0.0
C2167 C 0.75528 0.71411 0.53088 0.0
C2168 C 0.73535 0.70337 0.54337 0.0
C2169 C 0.71733 0.71859 0.55675 0.0
C2170 C 0.71932 0.74513 0.55675 0.0
H2171 H 0.7671 0.37905 0.99406 0.0
H2172 H 0.74485 0.35104 0.0676 0.0
H2173 H 0.71212 0.38488 0.0702 0.0
H2174 H 0.75556 0.44538 1.00608 0.0
H2175 H 0.74286 0.4536 0.97598 0.0
H2176 H 0.7649 0.42696 0.97912 0.0
H2177 H 0.73394 0.39789 0.96003 0.0
H2178 H 0.71184 0.42448 0.95674 0.0
H2179 H 0.70334 0.39651 0.9738 0.0
H2180 H 0.68336 0.42349 0.067 0.0
H2181 H 0.65789 0.46213 0.05623 0.0
H2182 H 0.69447 0.46511 0.98331 0.0
C2183 C 0.75519 0.37981 1.0106 0.0
C2184 C 0.75941 0.36226 0.03091 0.0
C2185 C 0.74302 0.36435 0.05206 0.0
C2186 C 0.72403 0.38355 0.05369 0.0
C2187 C 0.72086 0.40079 0.03385 0.0
C2188 C 0.73567 0.39898 1.01249 0.0
C2189 C 0.72777 0.42016 0.9939 0.0
C2190 C 0.74904 0.43755 0.98845 0.0
C2191 C 0.71868 0.40909 0.96967 0.0
C2192 C 0.70648 0.43411 1.0083 0.0
C2193 C 0.7031 0.42258 0.03143 0.0
C2194 C 0.68563 0.43244 0.0488 0.0
C2195 C 0.67122 0.45453 0.04252 0.0
C2196 C 0.67375 0.46668 1.01883 0.0
C2197 C 0.69164 0.45609 1.00141 0.0
H2198 H 0.45298 0.25942 0.06545 0.0
H2199 H 0.46045 0.27686 0.98625 0.0
H2200 H 0.47416 0.23227 0.97835 0.0
H2201 H 0.50812 0.21299 0.06687 0.0
H2202 H 0.49378 0.19311 0.09003 0.0
H2203 H 0.48643 0.22675 0.08955 0.0
H2204 H 0.43996 0.21858 0.08665 0.0
H2205 H 0.44718 0.18497 0.08666 0.0
H2206 H 0.42976 0.19985 0.06153 0.0
H2207 H 0.48245 0.1855 0.97857 0.0
H2208 H 0.49125 0.14002 0.98692 0.0
H2209 H 0.47986 0.15191 0.06645 0.0
C2210 C 0.45822 0.25389 0.04658 0.0
C2211 C 0.45608 0.27157 0.02643 0.0
C2212 C 0.46254 0.2637 1.00192 0.0
C2213 C 0.4701 0.23839 0.99727 0.0
C2214 C 0.47147 0.22127 1.01743 0.0
C2215 C 0.46631 0.22874 0.04169 0.0
C2216 C 0.46934 0.20639 0.0599 0.0
C2217 C 0.49068 0.21003 0.07764 0.0
C2218 C 0.44511 0.20221 0.07454 0.0
C2219 C 0.47587 0.18499 0.04198 0.0
C2220 C 0.47711 0.19416 1.01761 0.0
C2221 C 0.48226 0.17822 0.99757 0.0
C2222 C 0.48712 0.15239 1.00253 0.0
C2223 C 0.4865 0.14251 0.02733 0.0
C2224 C 0.48048 0.15899 0.04733 0.0
H2225 H 0.88272 0.38083 1.01145 0.0
H2226 H 0.93203 0.31575 0.02778 0.0
H2227 H 0.96759 0.34267 0.02669 0.0
H2228 H 0.9319 0.4177 0.97255 0.0
H2229 H 0.91902 0.44699 0.98515 0.0
H2230 H 0.89912 0.42189 0.97898 0.0
H2231 H 0.88274 0.42343 0.02492 0.0
H2232 H 0.90255 0.44829 0.03114 0.0
H2233 H 0.90442 0.41966 0.04997 0.0
H2234 H 0.99467 0.37649 0.03497 0.0
H2235 H 1.01092 0.41459 0.05261 0.0
H2236 H 0.94477 0.45849 0.0302 0.0
C2237 C 0.90123 0.37237 1.01369 0.0
C2238 C 0.90501 0.34657 1.01957 0.0
C2239 C 0.92911 0.33564 0.02307 0.0
C2240 C 0.94937 0.35072 0.02224 0.0
C2241 C 0.94511 0.37652 1.01747 0.0
C2242 C 0.92165 0.38724 1.01283 0.0
C2243 C 0.92136 0.41574 1.0124 0.0
C2244 C 0.91764 0.42619 0.98567 0.0
C2245 C 0.90163 0.42743 0.03072 0.0
C2246 C 0.94734 0.41926 0.02077 0.0
C2247 C 0.96113 0.3965 0.02238 0.0
C2248 C 0.98442 0.39455 0.03304 0.0
C2249 C 0.99344 0.41623 0.04315 0.0
C2250 C 0.9789 0.43926 0.0429 0.0
C2251 C 0.95617 0.44101 0.03059 0.0
loop_
_geom_bond_atom_site_label_1
_geom_bond_atom_site_label_2
_geom_bond_distance
_geom_bond_site_symmetry_2
_ccdc_geom_bond_type
C0 C1 1.443 . S
C0 N4 1.376 . S
C0 C38 1.389 1_655 S
C1 C0 1.443 . S
C1 C2 1.340 . S
C1 H41 0.951 . S
C2 C1 1.340 . S
C2 C3 1.439 . S
C2 H42 0.950 . S
C3 C2 1.439 . S
C3 N4 1.374 . S
C3 C37 1.395 . S
N4 C0 1.376 . S
N4 C3 1.374 . S
N4 Co5 2.008 1_655 S
Co5 N4 2.008 1_455 S
Co5 N6 1.995 . S
Co5 N11 2.008 . S
Co5 N16 1.995 . S
Co5 N21 2.282 . S
Co5 N27 2.282 . S
N6 Co5 1.995 . S
N6 C7 1.376 1_455 S
N6 C10 1.383 . S
C7 N6 1.376 1_655 S
C7 C8 1.446 . S
C7 C37 1.391 . S
C8 C7 1.446 . S
C8 C9 1.339 . S
C8 H43 0.949 . S
C9 C8 1.339 . S
C9 C10 1.439 1_655 S
C9 H44 0.952 . S
C10 N6 1.383 . S
C10 C9 1.439 1_455 S
C10 C39 1.392 . S
N11 Co5 2.008 . S
N11 C12 1.376 . S
N11 C15 1.374 . S
C12 N11 1.376 . S
C12 C13 1.443 . S
C12 C39 1.389 . S
C13 C12 1.443 . S
C13 C14 1.340 . S
C13 H45 0.951 . S
C14 C13 1.340 . S
C14 C15 1.439 . S
C14 H46 0.950 . S
C15 N11 1.374 . S
C15 C14 1.439 . S
C15 C40 1.395 . S
N16 Co5 1.995 . S
N16 C17 1.376 . S
N16 C20 1.383 . S
C17 N16 1.376 . S
C17 C18 1.446 . S
C17 C40 1.391 . S
C18 C17 1.446 . S
C18 C19 1.339 . S
C18 H47 0.949 . S
C19 C18 1.339 . S
C19 C20 1.439 . S
C19 H48 0.950 . S
C20 N16 1.383 . S
C20 C19 1.439 . S
C20 C38 1.392 . S
N21 Co5 2.282 . S
N21 C24 1.332 . S
N21 C26 1.332 . S
C22 C23 1.386 . S
C22 C25 1.388 . S
C23 C22 1.386 . S
C23 C24 1.382 . S
C23 H49 0.950 . S
C24 N21 1.332 . S
C24 C23 1.382 . S
C24 H35 0.952 . S
C25 C22 1.388 . S
C25 C26 1.382 . S
C25 H50 0.950 . S
C26 N21 1.332 . S
C26 C25 1.382 . S
C26 H36 0.948 . S
N27 Co5 2.282 . S
N27 C31 1.332 . S
N27 C32 1.332 . S
C28 C29 1.388 . S
C28 C32 1.382 . S
C28 H51 0.950 . S
C29 C28 1.388 . S
C29 C30 1.386 1_455 S
C30 C29 1.386 1_655 S
C30 C31 1.382 1_655 S
C30 H52 0.950 . S
C31 N27 1.332 . S
C31 C30 1.382 1_455 S
C31 H33 0.952 1_455 S
C32 N27 1.332 . S
C32 C28 1.382 . S
C32 H34 0.948 . S
H33 C31 0.952 1_655 S
H34 C32 0.948 . S
H35 C24 0.952 . S
H36 C26 0.948 . S
C37 C3 1.395 . S
C37 C7 1.391 . S
C38 C0 1.389 1_455 S
C38 C20 1.392 . S
C39 C10 1.392 . S
C39 C12 1.389 . S
C40 C15 1.395 . S
C40 C17 1.391 . S
H41 C1 0.951 . S
H42 C2 0.950 . S
H43 C8 0.949 . S
H44 C9 0.952 . S
H45 C13 0.951 . S
H46 C14 0.950 . S
H47 C18 0.949 . S
H48 C19 0.950 . S
H49 C23 0.950 . S
H50 C25 0.950 . S
H51 C28 0.950 . S
H52 C30 0.950 . S
C53 C54 1.443 . S
C53 N57 1.376 . S
C53 C91 1.389 . S
C54 C53 1.443 . S
C54 C55 1.340 . S
C54 H94 0.951 . S
C55 C54 1.340 . S
C55 C56 1.439 . S
C55 H95 0.950 . S
C56 C55 1.439 . S
C56 N57 1.374 . S
C56 C90 1.395 . S
N57 C53 1.376 . S
N57 C56 1.374 . S
N57 Co58 2.008 1_655 S
Co58 N57 2.008 1_455 S
Co58 N59 1.995 1_455 S
Co58 N64 2.008 . S
Co58 N69 1.995 . S
Co58 N74 2.282 . S
Co58 N80 2.282 1_455 S
N59 Co58 1.995 1_655 S
N59 C60 1.376 . S
N59 C63 1.383 . S
C60 N59 1.376 . S
C60 C61 1.446 . S
C60 C90 1.391 . S
C61 C60 1.446 . S
C61 C62 1.339 . S
C61 H96 0.949 . S
C62 C61 1.339 . S
C62 C63 1.439 . S
C62 H97 0.950 . S
C63 N59 1.383 . S
C63 C62 1.439 . S
C63 C92 1.392 1_655 S
N64 Co58 2.008 . S
N64 C65 1.376 . S
N64 C68 1.374 . S
C65 N64 1.376 . S
C65 C66 1.443 . S
C65 C92 1.389 . S
C66 C65 1.443 . S
C66 C67 1.340 . S
C66 H98 0.951 . S
C67 C66 1.340 . S
C67 C68 1.439 . S
C67 H99 0.950 . S
C68 N64 1.374 . S
C68 C67 1.439 . S
C68 C93 1.395 . S
N69 Co58 1.995 . S
N69 C70 1.376 . S
N69 C73 1.383 . S
C70 N69 1.376 . S
C70 C71 1.446 . S
C70 C93 1.391 . S
C71 C70 1.446 . S
C71 C72 1.339 . S
C71 H100 0.949 . S
C72 C71 1.339 . S
C72 C73 1.439 . S
C72 H101 0.950 . S
C73 N69 1.383 . S
C73 C72 1.439 . S
C73 C91 1.392 1_455 S
N74 Co58 2.282 . S
N74 C77 1.332 . S
N74 C79 1.332 1_455 S
C75 C76 1.386 . S
C75 C78 1.388 1_455 S
C76 C75 1.386 . S
C76 C77 1.382 . S
C76 H102 0.950 . S
C77 N74 1.332 . S
C77 C76 1.382 . S
C77 H88 0.952 . S
C78 C75 1.388 1_655 S
C78 C79 1.382 . S
C78 H103 0.950 . S
C79 N74 1.332 1_655 S
C79 C78 1.382 . S
C79 H89 0.948 . S
N80 Co58 2.282 1_655 S
N80 C84 1.332 . S
N80 C85 1.332 1_655 S
C81 C82 1.388 1_455 S
C81 C85 1.382 . S
C81 H104 0.950 . S
C82 C81 1.388 1_655 S
C82 C83 1.386 . S
C83 C82 1.386 . S
C83 C84 1.382 . S
C83 H105 0.950 . S
C84 N80 1.332 . S
C84 C83 1.382 . S
C84 H86 0.952 . S
C85 N80 1.332 1_455 S
C85 C81 1.382 . S
C85 H87 0.948 . S
H86 C84 0.952 . S
H87 C85 0.948 . S
H88 C77 0.952 . S
H89 C79 0.948 . S
C90 C56 1.395 . S
C90 C60 1.391 . S
C91 C53 1.389 . S
C91 C73 1.392 1_655 S
C92 C63 1.392 1_455 S
C92 C65 1.389 . S
C93 C68 1.395 . S
C93 C70 1.391 . S
H94 C54 0.951 . S
H95 C55 0.950 . S
H96 C61 0.949 . S
H97 C62 0.950 . S
H98 C66 0.951 . S
H99 C67 0.950 . S
H100 C71 0.949 . S
H101 C72 0.950 . S
H102 C76 0.950 . S
H103 C78 0.950 . S
H104 C81 0.950 . S
H105 C83 0.950 . S
C106 C107 1.443 . S
C106 N110 1.376 . S
C106 C144 1.398 . S
C107 C106 1.443 . S
C107 C108 1.340 . S
C107 H147 0.951 . S
C108 C107 1.340 . S
C108 C109 1.439 . S
C108 H148 0.950 . S
C109 C108 1.439 . S
C109 N110 1.374 . S
C109 C143 1.395 . S
N110 C106 1.376 . S
N110 C109 1.374 . S
N110 Co111 2.008 1_565 S
Co111 N110 2.008 1_545 S
Co111 N112 1.995 1_545 S
Co111 N117 2.008 . S
Co111 N122 1.995 . S
Co111 N127 2.282 . S
Co111 N133 2.282 . S
N112 Co111 1.995 1_565 S
N112 C113 1.376 . S
N112 C116 1.383 1_565 S
C113 N112 1.376 . S
C113 C114 1.446 . S
C113 C143 1.391 . S
C114 C113 1.446 . S
C114 C115 1.339 . S
C114 H149 0.949 . S
C115 C114 1.339 . S
C115 C116 1.439 1_565 S
C115 H150 0.950 . S
C116 N112 1.383 1_545 S
C116 C115 1.439 1_545 S
C116 C145 1.392 . S
N117 Co111 2.008 . S
N117 C118 1.376 . S
N117 C121 1.374 . S
C118 N117 1.376 . S
C118 C119 1.443 . S
C118 C145 1.389 . S
C119 C118 1.443 . S
C119 C120 1.340 . S
C119 H151 0.951 . S
C120 C119 1.340 . S
C120 C121 1.439 . S
C120 H152 0.950 . S
C121 N117 1.374 . S
C121 C120 1.439 . S
C121 C146 1.395 . S
N122 Co111 1.995 . S
N122 C123 1.376 . S
N122 C126 1.383 . S
C123 N122 1.376 . S
C123 C124 1.446 . S
C123 C146 1.391 . S
C124 C123 1.446 . S
C124 C125 1.339 . S
C124 H153 0.949 . S
C125 C124 1.339 . S
C125 C126 1.439 . S
C125 H154 0.950 . S
C126 N122 1.383 . S
C126 C125 1.439 . S
C126 C144 1.380 1_545 S
N127 Co111 2.282 . S
N127 C130 1.332 . S
N127 C132 1.332 . S
C128 C129 1.386 . S
C128 C131 1.388 . S
C129 C128 1.386 . S
C129 C130 1.382 . S
C129 H155 0.950 . S
C130 N127 1.332 . S
C130 C129 1.382 . S
C130 H141 0.952 . S
C131 C128 1.388 . S
C131 C132 1.382 . S
C131 H156 0.950 1_545 S
C132 N127 1.332 . S
C132 C131 1.382 . S
C132 H142 0.948 1_545 S
N133 Co111 2.282 . S
N133 C137 1.332 1_545 S
N133 C138 1.332 . S
C134 C135 1.388 1_545 S
C134 C138 1.382 . S
C134 H157 0.950 . S
C135 C134 1.388 1_565 S
C135 C136 1.386 . S
C136 C135 1.386 . S
C136 C137 1.382 . S
C136 H158 0.950 . S
C137 N133 1.332 1_565 S
C137 C136 1.382 . S
C137 H139 0.952 . S
C138 N133 1.332 . S
C138 C134 1.382 . S
C138 H140 0.948 . S
H139 C137 0.952 . S
H140 C138 0.948 . S
H141 C130 0.952 . S
H142 C132 0.948 1_565 S
C143 C109 1.395 . S
C143 C113 1.391 . S
C144 C106 1.398 . S
C144 C126 1.380 1_565 S
C145 C116 1.392 . S
C145 C118 1.389 . S
C146 C121 1.395 . S
C146 C123 1.391 . S
H147 C107 0.951 . S
H148 C108 0.950 . S
H149 C114 0.949 . S
H150 C115 0.950 . S
H151 C119 0.951 . S
H152 C120 0.950 . S
H153 C124 0.949 . S
H154 C125 0.950 . S
H155 C129 0.950 . S
H156 C131 0.950 1_565 S
H157 C134 0.950 . S
H158 C136 0.950 . S
C159 C160 1.443 . S
C159 N163 1.376 . S
C159 C197 1.389 . S
C160 C159 1.443 . S
C160 C161 1.340 . S
C160 H200 0.951 . S
C161 C160 1.340 . S
C161 C162 1.439 . S
C161 H201 0.950 . S
C162 C161 1.439 . S
C162 N163 1.374 . S
C162 C196 1.395 . S
N163 C159 1.376 . S
N163 C162 1.374 . S
N163 Co164 2.008 . S
Co164 N163 2.008 . S
Co164 N165 1.995 . S
Co164 N170 2.008 . S
Co164 N175 1.995 . S
Co164 N180 2.282 . S
Co164 N186 2.282 . S
N165 Co164 1.995 . S
N165 C166 1.376 . S
N165 C169 1.383 . S
C166 N165 1.376 . S
C166 C167 1.446 . S
C166 C196 1.391 . S
C167 C166 1.446 . S
C167 C168 1.339 . S
C167 H202 0.949 . S
C168 C167 1.339 . S
C168 C169 1.439 . S
C168 H203 0.950 . S
C169 N165 1.383 . S
C169 C168 1.439 . S
C169 C198 1.392 . S
N170 Co164 2.008 . S
N170 C171 1.376 . S
N170 C174 1.374 . S
C171 N170 1.376 . S
C171 C172 1.443 . S
C171 C198 1.389 . S
C172 C171 1.443 . S
C172 C173 1.340 . S
C172 H204 0.951 . S
C173 C172 1.340 . S
C173 C174 1.439 . S
C173 H205 0.950 . S
C174 N170 1.374 . S
C174 C173 1.439 . S
C174 C199 1.395 . S
N175 Co164 1.995 . S
N175 C176 1.376 . S
N175 C179 1.383 . S
C176 N175 1.376 . S
C176 C177 1.446 . S
C176 C199 1.391 . S
C177 C176 1.446 . S
C177 C178 1.339 . S
C177 H206 0.949 . S
C178 C177 1.339 . S
C178 C179 1.439 . S
C178 H207 0.950 . S
C179 N175 1.383 . S
C179 C178 1.439 . S
C179 C197 1.392 . S
N180 Co164 2.282 . S
N180 C183 1.332 . S
N180 C185 1.332 . S
C181 C182 1.386 . S
C181 C184 1.388 . S
C182 C181 1.386 . S
C182 C183 1.382 . S
C182 H208 0.950 . S
C183 N180 1.332 . S
C183 C182 1.382 . S
C183 H194 0.952 . S
C184 C181 1.388 . S
C184 C185 1.382 . S
C184 H209 0.950 . S
C185 N180 1.332 . S
C185 C184 1.382 . S
C185 H195 0.948 . S
N186 Co164 2.282 . S
N186 C190 1.332 . S
N186 C191 1.332 . S
C187 C188 1.388 . S
C187 C191 1.382 . S
C187 H210 0.950 . S
C188 C187 1.388 . S
C188 C189 1.386 . S
C189 C188 1.386 . S
C189 C190 1.382 . S
C189 H211 0.950 . S
C190 N186 1.332 . S
C190 C189 1.382 . S
C190 H192 0.952 . S
C191 N186 1.332 . S
C191 C187 1.382 . S
C191 H193 0.948 . S
H192 C190 0.952 . S
H193 C191 0.948 . S
H194 C183 0.952 . S
H195 C185 0.948 . S
C196 C162 1.395 . S
C196 C166 1.391 . S
C197 C159 1.389 . S
C197 C179 1.392 . S
C198 C169 1.392 . S
C198 C171 1.389 . S
C199 C174 1.395 . S
C199 C176 1.391 . S
H200 C160 0.951 . S
H201 C161 0.950 . S
H202 C167 0.949 . S
H203 C168 0.950 . S
H204 C172 0.951 . S
H205 C173 0.950 . S
H206 C177 0.949 . S
H207 C178 0.950 . S
H208 C182 0.950 . S
H209 C184 0.950 . S
H210 C187 0.950 . S
H211 C189 0.950 . S
C212 C213 1.443 . S
C212 N216 1.376 . S
C212 C250 1.389 . S
C213 C212 1.443 . S
C213 C214 1.340 . S
C213 H253 0.951 . S
C214 C213 1.340 . S
C214 C215 1.439 . S
C214 H254 0.950 . S
C215 C214 1.439 . S
C215 N216 1.374 . S
C215 C249 1.395 . S
N216 C212 1.376 . S
N216 C215 1.374 . S
N216 Co217 2.008 1_556 S
Co217 N216 2.008 1_554 S
Co217 N218 1.995 1_554 S
Co217 N223 2.008 . S
Co217 N228 1.995 . S
Co217 N233 2.282 . S
Co217 N239 2.282 1_554 S
N218 Co217 1.995 1_556 S
N218 C219 1.376 . S
N218 C222 1.383 . S
C219 N218 1.376 . S
C219 C220 1.446 . S
C219 C249 1.391 . S
C220 C219 1.446 . S
C220 C221 1.339 . S
C220 H255 0.949 . S
C221 C220 1.339 . S
C221 C222 1.439 . S
C221 H256 0.950 . S
C222 N218 1.383 . S
C222 C221 1.439 . S
C222 C251 1.392 1_556 S
N223 Co217 2.008 . S
N223 C224 1.376 . S
N223 C227 1.374 . S
C224 N223 1.376 . S
C224 C225 1.443 . S
C224 C251 1.389 . S
C225 C224 1.443 . S
C225 C226 1.340 . S
C225 H257 0.951 . S
C226 C225 1.340 . S
C226 C227 1.439 . S
C226 H258 0.950 . S
C227 N223 1.374 . S
C227 C226 1.439 . S
C227 C252 1.395 . S
N228 Co217 1.995 . S
N228 C229 1.376 . S
N228 C232 1.383 . S
C229 N228 1.376 . S
C229 C230 1.446 . S
C229 C252 1.391 . S
C230 C229 1.446 . S
C230 C231 1.339 . S
C230 H259 0.949 . S
C231 C230 1.339 . S
C231 C232 1.439 . S
C231 H260 0.950 . S
C232 N228 1.383 . S
C232 C231 1.439 . S
C232 C250 1.392 1_554 S
N233 Co217 2.282 . S
N233 C236 1.332 . S
N233 C238 1.332 1_554 S
C234 C235 1.386 . S
C234 C237 1.388 1_554 S
C235 C234 1.386 . S
C235 C236 1.382 . S
C235 H261 0.950 . S
C236 N233 1.332 . S
C236 C235 1.382 . S
C236 H247 0.952 . S
C237 C234 1.388 1_556 S
C237 C238 1.382 . S
C237 H262 0.950 . S
C238 N233 1.332 1_556 S
C238 C237 1.382 . S
C238 H248 0.948 . S
N239 Co217 2.282 1_556 S
N239 C243 1.332 . S
N239 C244 1.332 1_556 S
C240 C241 1.388 1_554 S
C240 C244 1.382 . S
C240 H263 0.950 . S
C241 C240 1.388 1_556 S
C241 C242 1.386 . S
C242 C241 1.386 . S
C242 C243 1.382 . S
C242 H264 0.950 . S
C243 N239 1.332 . S
C243 C242 1.382 . S
C243 H245 0.952 . S
C244 N239 1.332 1_554 S
C244 C240 1.382 . S
C244 H246 0.948 . S
H245 C243 0.952 . S
H246 C244 0.948 . S
H247 C236 0.952 . S
H248 C238 0.948 . S
C249 C215 1.395 . S
C249 C219 1.391 . S
C250 C212 1.389 . S
C250 C232 1.392 1_556 S
C251 C222 1.392 1_554 S
C251 C224 1.389 . S
C252 C227 1.395 . S
C252 C229 1.391 . S
H253 C213 0.951 . S
H254 C214 0.950 . S
H255 C220 0.949 . S
H256 C221 0.950 . S
H257 C225 0.951 . S
H258 C226 0.950 . S
H259 C230 0.949 . S
H260 C231 0.950 . S
H261 C235 0.950 . S
H262 C237 0.950 . S
H263 C240 0.950 . S
H264 C242 0.950 . S
C265 C266 1.443 . S
C265 N269 1.376 . S
C265 C303 1.389 . S
C266 C265 1.443 . S
C266 C267 1.340 . S
C266 H306 0.951 . S
C267 C266 1.340 . S
C267 C268 1.439 . S
C267 H307 0.950 . S
C268 C267 1.439 . S
C268 N269 1.374 . S
C268 C302 1.395 . S
N269 C265 1.376 . S
N269 C268 1.374 . S
N269 Co270 2.008 . S
Co270 N269 2.008 . S
Co270 N271 1.995 . S
Co270 N276 2.008 . S
Co270 N281 1.995 . S
Co270 N286 2.282 . S
Co270 N292 2.282 . S
N271 Co270 1.995 . S
N271 C272 1.376 . S
N271 C275 1.383 . S
C272 N271 1.376 . S
C272 C273 1.446 . S
C272 C302 1.391 . S
C273 C272 1.446 . S
C273 C274 1.339 . S
C273 H308 0.949 . S
C274 C273 1.339 . S
C274 C275 1.439 . S
C274 H309 0.950 . S
C275 N271 1.383 . S
C275 C274 1.439 . S
C275 C304 1.392 . S
N276 Co270 2.008 . S
N276 C277 1.376 . S
N276 C280 1.374 . S
C277 N276 1.376 . S
C277 C278 1.443 . S
C277 C304 1.389 . S
C278 C277 1.443 . S
C278 C279 1.340 . S
C278 H310 0.951 . S
C279 C278 1.340 . S
C279 C280 1.439 . S
C279 H311 0.950 . S
C280 N276 1.374 . S
C280 C279 1.439 . S
C280 C305 1.395 . S
N281 Co270 1.995 . S
N281 C282 1.376 . S
N281 C285 1.383 . S
C282 N281 1.376 . S
C282 C283 1.446 . S
C282 C305 1.391 . S
C283 C282 1.446 . S
C283 C284 1.339 . S
C283 H312 0.949 . S
C284 C283 1.339 . S
C284 C285 1.439 . S
C284 H313 0.950 . S
C285 N281 1.383 . S
C285 C284 1.439 . S
C285 C303 1.392 . S
N286 Co270 2.282 . S
N286 C289 1.332 . S
N286 C291 1.332 . S
C287 C288 1.386 . S
C287 C290 1.388 . S
C288 C287 1.386 . S
C288 C289 1.382 . S
C288 H314 0.950 . S
C289 N286 1.332 . S
C289 C288 1.382 . S
C289 H300 0.952 . S
C290 C287 1.388 . S
C290 C291 1.382 . S
C290 H315 0.950 . S
C291 N286 1.332 . S
C291 C290 1.382 . S
C291 H301 0.948 . S
N292 Co270 2.282 . S
N292 C296 1.332 . S
N292 C297 1.332 . S
C293 C294 1.388 . S
C293 C297 1.382 . S
C293 H316 0.950 . S
C294 C293 1.388 . S
C294 C295 1.386 . S
C295 C294 1.386 . S
C295 C296 1.382 . S
C295 H317 0.950 . S
C296 N292 1.332 . S
C296 C295 1.382 . S
C296 H298 0.952 . S
C297 N292 1.332 . S
C297 C293 1.382 . S
C297 H299 0.948 . S
H298 C296 0.952 . S
H299 C297 0.948 . S
H300 C289 0.952 . S
H301 C291 0.948 . S
C302 C268 1.395 . S
C302 C272 1.391 . S
C303 C265 1.389 . S
C303 C285 1.392 . S
C304 C275 1.392 . S
C304 C277 1.389 . S
C305 C280 1.395 . S
C305 C282 1.391 . S
H306 C266 0.951 . S
H307 C267 0.950 . S
H308 C273 0.949 . S
H309 C274 0.950 . S
H310 C278 0.951 . S
H311 C279 0.950 . S
H312 C283 0.949 . S
H313 C284 0.950 . S
H314 C288 0.950 . S
H315 C290 0.950 . S
H316 C293 0.950 . S
H317 C295 0.950 . S
C318 C319 1.443 . S
C318 N322 1.376 . S
C318 C356 1.389 . S
C319 C318 1.443 . S
C319 C320 1.340 . S
C319 H359 0.951 . S
C320 C319 1.340 . S
C320 C321 1.439 . S
C320 H360 0.950 . S
C321 C320 1.439 . S
C321 N322 1.374 . S
C321 C355 1.395 . S
N322 C318 1.376 . S
N322 C321 1.374 . S
N322 Co323 2.008 . S
Co323 N322 2.008 . S
Co323 N324 1.995 . S
Co323 N329 2.008 . S
Co323 N334 1.995 . S
Co323 N339 2.282 . S
Co323 N345 2.282 . S
N324 Co323 1.995 . S
N324 C325 1.376 . S
N324 C328 1.383 . S
C325 N324 1.376 . S
C325 C326 1.446 . S
C325 C355 1.391 . S
C326 C325 1.446 . S
C326 C327 1.339 . S
C326 H361 0.949 . S
C327 C326 1.339 . S
C327 C328 1.439 . S
C327 H362 0.950 . S
C328 N324 1.383 . S
C328 C327 1.439 . S
C328 C357 1.392 . S
N329 Co323 2.008 . S
N329 C330 1.376 . S
N329 C333 1.374 . S
C330 N329 1.376 . S
C330 C331 1.443 . S
C330 C357 1.389 . S
C331 C330 1.443 . S
C331 C332 1.340 . S
C331 H363 0.951 . S
C332 C331 1.340 . S
C332 C333 1.439 . S
C332 H364 0.950 . S
C333 N329 1.374 . S
C333 C332 1.439 . S
C333 C358 1.395 . S
N334 Co323 1.995 . S
N334 C335 1.376 . S
N334 C338 1.383 . S
C335 N334 1.376 . S
C335 C336 1.446 . S
C335 C358 1.391 . S
C336 C335 1.446 . S
C336 C337 1.339 . S
C336 H365 0.949 . S
C337 C336 1.339 . S
C337 C338 1.439 . S
C337 H366 0.950 . S
C338 N334 1.383 . S
C338 C337 1.439 . S
C338 C356 1.392 . S
N339 Co323 2.282 . S
N339 C342 1.332 . S
N339 C344 1.332 . S
C340 C341 1.386 . S
C340 C343 1.388 . S
C341 C340 1.386 . S
C341 C342 1.382 . S
C341 H367 0.950 . S
C342 N339 1.332 . S
C342 C341 1.382 . S
C342 H353 0.952 . S
C343 C340 1.388 . S
C343 C344 1.382 . S
C343 H368 0.950 . S
C344 N339 1.332 . S
C344 C343 1.382 . S
C344 H354 0.948 . S
N345 Co323 2.282 . S
N345 C349 1.332 . S
N345 C350 1.332 . S
C346 C347 1.388 . S
C346 C350 1.382 . S
C346 H369 0.950 . S
C347 C346 1.388 . S
C347 C348 1.386 . S
C348 C347 1.386 . S
C348 C349 1.382 . S
C348 H370 0.950 . S
C349 N345 1.332 . S
C349 C348 1.382 . S
C349 H351 0.952 . S
C350 N345 1.332 . S
C350 C346 1.382 . S
C350 H352 0.948 . S
H351 C349 0.952 . S
H352 C350 0.948 . S
H353 C342 0.952 . S
H354 C344 0.948 . S
C355 C321 1.395 . S
C355 C325 1.391 . S
C356 C318 1.389 . S
C356 C338 1.392 . S
C357 C328 1.392 . S
C357 C330 1.389 . S
C358 C333 1.395 . S
C358 C335 1.391 . S
H359 C319 0.951 . S
H360 C320 0.950 . S
H361 C326 0.949 . S
H362 C327 0.950 . S
H363 C331 0.951 . S
H364 C332 0.950 . S
H365 C336 0.949 . S
H366 C337 0.950 . S
H367 C341 0.950 . S
H368 C343 0.950 . S
H369 C346 0.950 . S
H370 C348 0.950 . S
C371 C372 1.443 . S
C371 N375 1.376 . S
C371 C409 1.389 . S
C372 C371 1.443 . S
C372 C373 1.340 . S
C372 H412 0.951 . S
C373 C372 1.340 . S
C373 C374 1.439 . S
C373 H413 0.950 . S
C374 C373 1.439 . S
C374 N375 1.374 . S
C374 C408 1.395 . S
N375 C371 1.376 . S
N375 C374 1.374 . S
N375 Co376 2.008 . S
Co376 N375 2.008 . S
Co376 N377 1.995 . S
Co376 N382 2.008 . S
Co376 N387 1.995 . S
Co376 N392 2.282 . S
Co376 N398 2.282 . S
N377 Co376 1.995 . S
N377 C378 1.376 . S
N377 C381 1.383 . S
C378 N377 1.376 . S
C378 C379 1.446 . S
C378 C408 1.391 . S
C379 C378 1.446 . S
C379 C380 1.339 . S
C379 H414 0.949 . S
C380 C379 1.339 . S
C380 C381 1.439 . S
C380 H415 0.950 . S
C381 N377 1.383 . S
C381 C380 1.439 . S
C381 C410 1.392 . S
N382 Co376 2.008 . S
N382 C383 1.376 . S
N382 C386 1.374 . S
C383 N382 1.376 . S
C383 C384 1.443 . S
C383 C410 1.389 . S
C384 C383 1.443 . S
C384 C385 1.340 . S
C384 H416 0.951 . S
C385 C384 1.340 . S
C385 C386 1.439 . S
C385 H417 0.950 . S
C386 N382 1.374 . S
C386 C385 1.439 . S
C386 C411 1.395 . S
N387 Co376 1.995 . S
N387 C388 1.376 . S
N387 C391 1.383 . S
C388 N387 1.376 . S
C388 C389 1.446 . S
C388 C411 1.391 . S
C389 C388 1.446 . S
C389 C390 1.339 . S
C389 H418 0.949 . S
C390 C389 1.339 . S
C390 C391 1.439 . S
C390 H419 0.950 . S
C391 N387 1.383 . S
C391 C390 1.439 . S
C391 C409 1.392 . S
N392 Co376 2.282 . S
N392 C395 1.332 . S
N392 C397 1.332 . S
C393 C394 1.386 . S
C393 C396 1.388 . S
C394 C393 1.386 . S
C394 C395 1.382 . S
C394 H420 0.950 . S
C395 N392 1.332 . S
C395 C394 1.382 . S
C395 H406 0.952 . S
C396 C393 1.388 . S
C396 C397 1.382 . S
C396 H421 0.950 . S
C397 N392 1.332 . S
C397 C396 1.382 . S
C397 H407 0.948 . S
N398 Co376 2.282 . S
N398 C402 1.332 . S
N398 C403 1.332 . S
C399 C400 1.388 . S
C399 C403 1.382 . S
C399 H422 0.950 . S
C400 C399 1.388 . S
C400 C401 1.386 . S
C401 C400 1.386 . S
C401 C402 1.382 . S
C401 H423 0.950 . S
C402 N398 1.332 . S
C402 C401 1.382 . S
C402 H404 0.952 . S
C403 N398 1.332 . S
C403 C399 1.382 . S
C403 H405 0.948 . S
H404 C402 0.952 . S
H405 C403 0.948 . S
H406 C395 0.952 . S
H407 C397 0.948 . S
C408 C374 1.395 . S
C408 C378 1.391 . S
C409 C371 1.389 . S
C409 C391 1.392 . S
C410 C381 1.392 . S
C410 C383 1.389 . S
C411 C386 1.395 . S
C411 C388 1.391 . S
H412 C372 0.951 . S
H413 C373 0.950 . S
H414 C379 0.949 . S
H415 C380 0.950 . S
H416 C384 0.951 . S
H417 C385 0.950 . S
H418 C389 0.949 . S
H419 C390 0.950 . S
H420 C394 0.950 . S
H421 C396 0.950 . S
H422 C399 0.950 . S
H423 C401 0.950 . S
C424 C425 1.443 . S
C424 N428 1.376 . S
C424 C462 1.389 . S
C425 C424 1.443 . S
C425 C426 1.340 . S
C425 H465 0.951 . S
C426 C425 1.340 . S
C426 C427 1.439 . S
C426 H466 0.950 . S
C427 C426 1.439 . S
C427 N428 1.374 . S
C427 C461 1.395 . S
N428 C424 1.376 . S
N428 C427 1.374 . S
N428 Co429 2.008 . S
Co429 N428 2.008 . S
Co429 N430 1.995 . S
Co429 N435 2.008 . S
Co429 N440 1.995 . S
Co429 N445 2.282 . S
Co429 N451 2.282 . S
N430 Co429 1.995 . S
N430 C431 1.376 . S
N430 C434 1.383 . S
C431 N430 1.376 . S
C431 C432 1.446 . S
C431 C461 1.391 . S
C432 C431 1.446 . S
C432 C433 1.339 . S
C432 H467 0.949 . S
C433 C432 1.339 . S
C433 C434 1.439 . S
C433 H468 0.950 . S
C434 N430 1.383 . S
C434 C433 1.439 . S
C434 C463 1.392 . S
N435 Co429 2.008 . S
N435 C436 1.376 . S
N435 C439 1.374 . S
C436 N435 1.376 . S
C436 C437 1.443 . S
C436 C463 1.389 . S
C437 C436 1.443 . S
C437 C438 1.340 . S
C437 H469 0.951 . S
C438 C437 1.340 . S
C438 C439 1.439 . S
C438 H470 0.950 . S
C439 N435 1.374 . S
C439 C438 1.439 . S
C439 C464 1.395 . S
N440 Co429 1.995 . S
N440 C441 1.376 . S
N440 C444 1.383 . S
C441 N440 1.376 . S
C441 C442 1.446 . S
C441 C464 1.391 . S
C442 C441 1.446 . S
C442 C443 1.339 . S
C442 H471 0.949 . S
C443 C442 1.339 . S
C443 C444 1.439 . S
C443 H472 0.950 . S
C444 N440 1.383 . S
C444 C443 1.439 . S
C444 C462 1.392 . S
N445 Co429 2.282 . S
N445 C448 1.332 . S
N445 C450 1.332 . S
C446 C447 1.386 . S
C446 C449 1.388 . S
C447 C446 1.386 . S
C447 C448 1.382 . S
C447 H473 0.950 . S
C448 N445 1.332 . S
C448 C447 1.382 . S
C448 H459 0.952 . S
C449 C446 1.388 . S
C449 C450 1.382 . S
C449 H474 0.950 . S
C450 N445 1.332 . S
C450 C449 1.382 . S
C450 H460 0.948 . S
N451 Co429 2.282 . S
N451 C455 1.332 . S
N451 C456 1.332 . S
C452 C453 1.388 . S
C452 C456 1.382 . S
C452 H475 0.950 . S
C453 C452 1.388 . S
C453 C454 1.386 . S
C454 C453 1.386 . S
C454 C455 1.382 . S
C454 H476 0.950 . S
C455 N451 1.332 . S
C455 C454 1.382 . S
C455 H457 0.952 . S
C456 N451 1.332 . S
C456 C452 1.382 . S
C456 H458 0.948 . S
H457 C455 0.952 . S
H458 C456 0.948 . S
H459 C448 0.952 . S
H460 C450 0.948 . S
C461 C427 1.395 . S
C461 C431 1.391 . S
C462 C424 1.389 . S
C462 C444 1.392 . S
C463 C434 1.392 . S
C463 C436 1.389 . S
C464 C439 1.395 . S
C464 C441 1.391 . S
H465 C425 0.951 . S
H466 C426 0.950 . S
H467 C432 0.949 . S
H468 C433 0.950 . S
H469 C437 0.951 . S
H470 C438 0.950 . S
H471 C442 0.949 . S
H472 C443 0.950 . S
H473 C447 0.950 . S
H474 C449 0.950 . S
H475 C452 0.950 . S
H476 C454 0.950 . S
C477 C478 1.443 . S
C477 N481 1.376 . S
C477 C515 1.389 . S
C478 C477 1.443 . S
C478 C479 1.340 . S
C478 H518 0.951 . S
C479 C478 1.340 . S
C479 C480 1.439 . S
C479 H519 0.950 . S
C480 C479 1.439 . S
C480 N481 1.374 . S
C480 C514 1.395 . S
N481 C477 1.376 . S
N481 C480 1.374 . S
N481 Co482 2.008 . S
Co482 N481 2.008 . S
Co482 N483 1.995 . S
Co482 N488 2.008 . S
Co482 N493 1.995 . S
Co482 N498 2.282 . S
Co482 N504 2.282 . S
N483 Co482 1.995 . S
N483 C484 1.376 . S
N483 C487 1.383 . S
C484 N483 1.376 . S
C484 C485 1.446 . S
C484 C514 1.391 . S
C485 C484 1.446 . S
C485 C486 1.339 . S
C485 H520 0.949 . S
C486 C485 1.339 . S
C486 C487 1.439 . S
C486 H521 0.950 . S
C487 N483 1.383 . S
C487 C486 1.439 . S
C487 C516 1.392 . S
N488 Co482 2.008 . S
N488 C489 1.376 . S
N488 C492 1.374 . S
C489 N488 1.376 . S
C489 C490 1.443 . S
C489 C516 1.389 . S
C490 C489 1.443 . S
C490 C491 1.340 . S
C490 H522 0.951 . S
C491 C490 1.340 . S
C491 C492 1.439 . S
C491 H523 0.950 . S
C492 N488 1.374 . S
C492 C491 1.439 . S
C492 C517 1.395 . S
N493 Co482 1.995 . S
N493 C494 1.376 . S
N493 C497 1.383 . S
C494 N493 1.376 . S
C494 C495 1.446 . S
C494 C517 1.391 . S
C495 C494 1.446 . S
C495 C496 1.339 . S
C495 H524 0.949 . S
C496 C495 1.339 . S
C496 C497 1.439 . S
C496 H525 0.950 . S
C497 N493 1.383 . S
C497 C496 1.439 . S
C497 C515 1.392 . S
N498 Co482 2.282 . S
N498 C501 1.332 . S
N498 C503 1.332 . S
C499 C500 1.386 . S
C499 C502 1.388 . S
C500 C499 1.386 . S
C500 C501 1.382 . S
C500 H526 0.950 . S
C501 N498 1.332 . S
C501 C500 1.382 . S
C501 H512 0.952 . S
C502 C499 1.388 . S
C502 C503 1.382 . S
C502 H527 0.950 . S
C503 N498 1.332 . S
C503 C502 1.382 . S
C503 H513 0.948 . S
N504 Co482 2.282 . S
N504 C508 1.332 . S
N504 C509 1.332 . S
C505 C506 1.388 . S
C505 C509 1.382 . S
C505 H528 0.950 . S
C506 C505 1.388 . S
C506 C507 1.386 . S
C507 C506 1.386 . S
C507 C508 1.382 . S
C507 H529 0.950 . S
C508 N504 1.332 . S
C508 C507 1.382 . S
C508 H510 0.952 . S
C509 N504 1.332 . S
C509 C505 1.382 . S
C509 H511 0.948 . S
H510 C508 0.952 . S
H511 C509 0.948 . S
H512 C501 0.952 . S
H513 C503 0.948 . S
C514 C480 1.395 . S
C514 C484 1.391 . S
C515 C477 1.389 . S
C515 C497 1.392 . S
C516 C487 1.392 . S
C516 C489 1.389 . S
C517 C492 1.395 . S
C517 C494 1.391 . S
H518 C478 0.951 . S
H519 C479 0.950 . S
H520 C485 0.949 . S
H521 C486 0.950 . S
H522 C490 0.951 . S
H523 C491 0.950 . S
H524 C495 0.949 . S
H525 C496 0.950 . S
H526 C500 0.950 . S
H527 C502 0.950 . S
H528 C505 0.950 . S
H529 C507 0.950 . S
C530 C531 1.443 . S
C530 N534 1.376 . S
C530 C568 1.389 . S
C531 C530 1.443 . S
C531 C532 1.340 . S
C531 H571 0.951 . S
C532 C531 1.340 . S
C532 C533 1.439 . S
C532 H572 0.950 . S
C533 C532 1.439 . S
C533 N534 1.374 . S
C533 C567 1.395 . S
N534 C530 1.376 . S
N534 C533 1.374 . S
N534 Co535 2.008 . S
Co535 N534 2.008 . S
Co535 N536 1.995 . S
Co535 N541 2.008 1_545 S
Co535 N546 1.995 1_545 S
Co535 N551 2.282 1_545 S
Co535 N557 2.282 . S
N536 Co535 1.995 . S
N536 C537 1.376 . S
N536 C540 1.383 . S
C537 N536 1.376 . S
C537 C538 1.446 . S
C537 C567 1.391 . S
C538 C537 1.446 . S
C538 C539 1.339 . S
C538 H573 0.949 . S
C539 C538 1.339 . S
C539 C540 1.439 . S
C539 H574 0.950 . S
C540 N536 1.383 . S
C540 C539 1.439 . S
C540 C569 1.392 1_545 S
N541 Co535 2.008 1_565 S
N541 C542 1.376 . S
N541 C545 1.374 . S
C542 N541 1.376 . S
C542 C543 1.443 . S
C542 C569 1.389 . S
C543 C542 1.443 . S
C543 C544 1.340 . S
C543 H575 0.951 . S
C544 C543 1.340 . S
C544 C545 1.439 . S
C544 H576 0.950 . S
C545 N541 1.374 . S
C545 C544 1.439 . S
C545 C570 1.395 . S
N546 Co535 1.995 1_565 S
N546 C547 1.376 . S
N546 C550 1.383 . S
C547 N546 1.376 . S
C547 C548 1.446 . S
C547 C570 1.391 . S
C548 C547 1.446 . S
C548 C549 1.339 . S
C548 H577 0.949 . S
C549 C548 1.339 . S
C549 C550 1.439 . S
C549 H578 0.950 . S
C550 N546 1.383 . S
C550 C549 1.439 . S
C550 C568 1.392 1_565 S
N551 Co535 2.282 1_565 S
N551 C554 1.332 . S
N551 C556 1.332 1_565 S
C552 C553 1.386 . S
C552 C555 1.388 1_565 S
C553 C552 1.386 . S
C553 C554 1.382 . S
C553 H579 0.950 . S
C554 N551 1.332 . S
C554 C553 1.382 . S
C554 H565 0.952 . S
C555 C552 1.388 1_545 S
C555 C556 1.382 . S
C555 H580 0.950 . S
C556 N551 1.332 1_545 S
C556 C555 1.382 . S
C556 H566 0.948 . S
N557 Co535 2.282 . S
N557 C561 1.332 . S
N557 C562 1.332 1_545 S
C558 C559 1.388 1_565 S
C558 C562 1.382 . S
C558 H581 0.950 . S
C559 C558 1.388 1_545 S
C559 C560 1.386 . S
C560 C559 1.386 . S
C560 C561 1.382 . S
C560 H582 0.950 . S
C561 N557 1.332 . S
C561 C560 1.382 . S
C561 H563 0.952 . S
C562 N557 1.332 1_565 S
C562 C558 1.382 . S
C562 H564 0.948 . S
H563 C561 0.952 . S
H564 C562 0.948 . S
H565 C554 0.952 . S
H566 C556 0.948 . S
C567 C533 1.395 . S
C567 C537 1.391 . S
C568 C530 1.389 . S
C568 C550 1.392 1_545 S
C569 C540 1.392 1_565 S
C569 C542 1.389 . S
C570 C545 1.395 . S
C570 C547 1.391 . S
H571 C531 0.951 . S
H572 C532 0.950 . S
H573 C538 0.949 . S
H574 C539 0.950 . S
H575 C543 0.951 . S
H576 C544 0.950 . S
H577 C548 0.949 . S
H578 C549 0.950 . S
H579 C553 0.950 . S
H580 C555 0.950 . S
H581 C558 0.950 . S
H582 C560 0.950 . S
C583 C584 1.443 . S
C583 N587 1.376 . S
C583 C621 1.389 . S
C584 C583 1.443 . S
C584 C585 1.340 . S
C584 H624 0.951 . S
C585 C584 1.340 . S
C585 C586 1.439 . S
C585 H625 0.950 . S
C586 C585 1.439 . S
C586 N587 1.374 . S
C586 C620 1.395 . S
N587 C583 1.376 . S
N587 C586 1.374 . S
N587 Co588 2.008 1_556 S
Co588 N587 2.008 1_554 S
Co588 N589 1.995 1_554 S
Co588 N594 2.008 . S
Co588 N599 1.995 . S
Co588 N604 2.282 . S
Co588 N610 2.282 1_554 S
N589 Co588 1.995 1_556 S
N589 C590 1.376 . S
N589 C593 1.383 . S
C590 N589 1.376 . S
C590 C591 1.446 . S
C590 C620 1.391 . S
C591 C590 1.446 . S
C591 C592 1.339 . S
C591 H626 0.949 . S
C592 C591 1.339 . S
C592 C593 1.439 . S
C592 H627 0.950 . S
C593 N589 1.383 . S
C593 C592 1.439 . S
C593 C622 1.392 1_556 S
N594 Co588 2.008 . S
N594 C595 1.376 . S
N594 C598 1.374 . S
C595 N594 1.376 . S
C595 C596 1.443 . S
C595 C622 1.389 . S
C596 C595 1.443 . S
C596 C597 1.340 . S
C596 H628 0.951 . S
C597 C596 1.340 . S
C597 C598 1.439 . S
C597 H629 0.950 . S
C598 N594 1.374 . S
C598 C597 1.439 . S
C598 C623 1.395 . S
N599 Co588 1.995 . S
N599 C600 1.376 . S
N599 C603 1.383 . S
C600 N599 1.376 . S
C600 C601 1.446 . S
C600 C623 1.391 . S
C601 C600 1.446 . S
C601 C602 1.339 . S
C601 H630 0.949 . S
C602 C601 1.339 . S
C602 C603 1.439 . S
C602 H631 0.950 . S
C603 N599 1.383 . S
C603 C602 1.439 . S
C603 C621 1.392 1_554 S
N604 Co588 2.282 . S
N604 C607 1.332 . S
N604 C609 1.332 1_554 S
C605 C606 1.386 . S
C605 C608 1.388 1_554 S
C606 C605 1.386 . S
C606 C607 1.382 . S
C606 H632 0.950 . S
C607 N604 1.332 . S
C607 C606 1.382 . S
C607 H618 0.952 . S
C608 C605 1.388 1_556 S
C608 C609 1.382 . S
C608 H633 0.950 . S
C609 N604 1.332 1_556 S
C609 C608 1.382 . S
C609 H619 0.948 . S
N610 Co588 2.282 1_556 S
N610 C614 1.332 . S
N610 C615 1.332 1_556 S
C611 C612 1.388 1_554 S
C611 C615 1.382 . S
C611 H634 0.950 . S
C612 C611 1.388 1_556 S
C612 C613 1.386 . S
C613 C612 1.386 . S
C613 C614 1.382 . S
C613 H635 0.950 . S
C614 N610 1.332 . S
C614 C613 1.382 . S
C614 H616 0.952 . S
C615 N610 1.332 1_554 S
C615 C611 1.382 . S
C615 H617 0.948 . S
H616 C614 0.952 . S
H617 C615 0.948 . S
H618 C607 0.952 . S
H619 C609 0.948 . S
C620 C586 1.395 . S
C620 C590 1.391 . S
C621 C583 1.389 . S
C621 C603 1.392 1_556 S
C622 C593 1.392 1_554 S
C622 C595 1.389 . S
C623 C598 1.395 . S
C623 C600 1.391 . S
H624 C584 0.951 . S
H625 C585 0.950 . S
H626 C591 0.949 . S
H627 C592 0.950 . S
H628 C596 0.951 . S
H629 C597 0.950 . S
H630 C601 0.949 . S
H631 C602 0.950 . S
H632 C606 0.950 . S
H633 C608 0.950 . S
H634 C611 0.950 . S
H635 C613 0.950 . S
C636 Eu637 2.835 . S
C636 C638 1.500 . S
C636 O656 1.257 . S
C636 O657 1.260 . S
Eu637 C636 2.835 . S
Eu637 O656 2.473 . S
Eu637 O657 2.480 . S
Eu637 O658 2.430 . S
Eu637 O659 2.670 . S
Eu637 O660 2.394 . S
Eu637 O665 2.355 . S
Eu637 O667 2.374 . S
C638 C636 1.500 . S
C638 C639 1.377 1_545 S
C638 C643 1.377 . S
C639 C638 1.377 1_565 S
C639 C640 1.395 . S
C639 H668 0.931 . S
C640 C639 1.395 . S
C640 C641 1.383 . S
C640 H669 0.931 . S
C641 C640 1.383 . S
C641 C642 1.394 1_565 S
C642 C641 1.394 1_545 S
C642 C643 1.378 . S
C642 H670 0.931 . S
C643 C638 1.377 . S
C643 C642 1.378 . S
C643 H671 0.931 . S
C644 O658 1.259 . S
C644 O659 1.270 . S
C645 O660 1.251 . S
C645 O661 1.251 . S
C646 Eu647 2.835 . S
C646 C648 1.500 . S
C646 O662 1.257 . S
C646 O663 1.260 . S
Eu647 C646 2.835 . S
Eu647 O659 2.355 . S
Eu647 O661 2.374 . S
Eu647 O662 2.473 . S
Eu647 O663 2.480 . S
Eu647 O664 2.430 . S
Eu647 O665 2.670 . S
Eu647 O666 2.394 . S
C648 C646 1.500 . S
C648 C649 1.377 . S
C648 C653 1.377 . S
C649 C648 1.377 . S
C649 C650 1.395 . S
C649 H672 0.931 . S
C650 C649 1.395 . S
C650 C651 1.383 . S
C650 H673 0.931 . S
C651 C650 1.383 . S
C651 C652 1.394 . S
C652 C651 1.394 . S
C652 C653 1.378 . S
C652 H674 0.931 . S
C653 C648 1.377 . S
C653 C652 1.378 . S
C653 H675 0.931 . S
C654 O664 1.259 . S
C654 O665 1.270 . S
C655 O666 1.251 . S
C655 O667 1.251 . S
O656 C636 1.257 . S
O656 Eu637 2.473 . S
O657 C636 1.260 . S
O657 Eu637 2.480 . S
O658 Eu637 2.430 . S
O658 C644 1.259 . S
O659 Eu637 2.670 . S
O659 C644 1.270 . S
O659 Eu647 2.355 . S
O660 Eu637 2.394 . S
O660 C645 1.251 . S
O661 C645 1.251 . S
O661 Eu647 2.374 . S
O662 C646 1.257 . S
O662 Eu647 2.473 . S
O663 C646 1.260 . S
O663 Eu647 2.480 . S
O664 Eu647 2.430 . S
O664 C654 1.259 . S
O665 Eu637 2.355 . S
O665 Eu647 2.670 . S
O665 C654 1.270 . S
O666 Eu647 2.394 . S
O666 C655 1.251 . S
O667 Eu637 2.374 . S
O667 C655 1.251 . S
H668 C639 0.931 . S
H669 C640 0.931 . S
H670 C642 0.931 . S
H671 C643 0.931 . S
H672 C649 0.931 . S
H673 C650 0.931 . S
H674 C652 0.931 . S
H675 C653 0.931 . S
C676 Eu677 2.835 . S
C676 C678 1.500 . S
C676 O696 1.257 . S
C676 O697 1.260 . S
Eu677 C676 2.835 . S
Eu677 O696 2.473 . S
Eu677 O697 2.480 . S
Eu677 O698 2.430 . S
Eu677 O699 2.670 . S
Eu677 O700 2.394 . S
Eu677 O705 2.355 . S
Eu677 O707 2.374 . S
C678 C676 1.500 . S
C678 C679 1.377 . S
C678 C683 1.377 . S
C679 C678 1.377 . S
C679 C680 1.395 . S
C679 H708 0.931 . S
C680 C679 1.395 . S
C680 C681 1.383 . S
C680 H709 0.931 . S
C681 C680 1.383 . S
C681 C682 1.394 . S
C682 C681 1.394 . S
C682 C683 1.378 . S
C682 H710 0.931 . S
C683 C678 1.377 . S
C683 C682 1.378 . S
C683 H711 0.931 . S
C684 O698 1.259 . S
C684 O699 1.270 . S
C685 O700 1.251 . S
C685 O701 1.251 1_655 S
C686 Eu687 2.835 . S
C686 C688 1.500 . S
C686 O702 1.257 . S
C686 O703 1.260 . S
Eu687 C686 2.835 . S
Eu687 O699 2.355 1_455 S
Eu687 O701 2.374 . S
Eu687 O702 2.473 . S
Eu687 O703 2.480 . S
Eu687 O704 2.430 1_455 S
Eu687 O705 2.670 1_455 S
Eu687 O706 2.394 1_455 S
C688 C686 1.500 . S
C688 C689 1.377 . S
C688 C693 1.377 . S
C689 C688 1.377 . S
C689 C690 1.396 . S
C689 H712 0.931 . S
C690 C689 1.396 . S
C690 C691 1.384 . S
C690 H713 0.930 1_554 S
C691 C690 1.384 . S
C691 C692 1.394 . S
C692 C691 1.394 . S
C692 C693 1.378 . S
C692 H714 0.931 . S
C693 C688 1.377 . S
C693 C692 1.378 . S
C693 H715 0.931 . S
C694 O704 1.259 . S
C694 O705 1.270 . S
C695 O706 1.251 . S
C695 O707 1.251 . S
O696 C676 1.257 . S
O696 Eu677 2.473 . S
O697 C676 1.260 . S
O697 Eu677 2.480 . S
O698 Eu677 2.430 . S
O698 C684 1.259 . S
O699 Eu677 2.670 . S
O699 C684 1.270 . S
O699 Eu687 2.355 1_655 S
O700 Eu677 2.394 . S
O700 C685 1.251 . S
O701 C685 1.251 1_455 S
O701 Eu687 2.374 . S
O702 C686 1.257 . S
O702 Eu687 2.473 . S
O703 C686 1.260 . S
O703 Eu687 2.480 . S
O704 Eu687 2.430 1_655 S
O704 C694 1.259 . S
O705 Eu677 2.355 . S
O705 Eu687 2.670 1_655 S
O705 C694 1.270 . S
O706 Eu687 2.394 1_655 S
O706 C695 1.251 . S
O707 Eu677 2.374 . S
O707 C695 1.251 . S
H708 C679 0.931 . S
H709 C680 0.931 . S
H710 C682 0.931 . S
H711 C683 0.931 . S
H712 C689 0.931 . S
H713 C690 0.930 1_556 S
H714 C692 0.931 . S
H715 C693 0.931 . S
C716 Eu717 2.835 . S
C716 C718 1.500 . S
C716 O736 1.257 . S
C716 O737 1.260 . S
Eu717 C716 2.835 . S
Eu717 O736 2.473 . S
Eu717 O737 2.480 . S
Eu717 O738 2.430 . S
Eu717 O739 2.670 . S
Eu717 O740 2.394 . S
Eu717 O745 2.355 . S
Eu717 O747 2.374 1_565 S
C718 C716 1.500 . S
C718 C719 1.377 . S
C718 C723 1.377 . S
C719 C718 1.377 . S
C719 C720 1.395 . S
C719 H748 0.931 . S
C720 C719 1.395 . S
C720 C721 1.383 1_565 S
C720 H749 0.931 . S
C721 C720 1.383 1_545 S
C721 C722 1.394 . S
C722 C721 1.394 . S
C722 C723 1.378 1_545 S
C722 H750 0.931 . S
C723 C718 1.377 . S
C723 C722 1.378 1_565 S
C723 H751 0.931 . S
C724 O738 1.259 . S
C724 O739 1.270 . S
C725 O740 1.251 . S
C725 O741 1.251 . S
C726 Eu727 2.835 . S
C726 C728 1.500 . S
C726 O742 1.257 . S
C726 O743 1.260 . S
Eu727 C726 2.835 . S
Eu727 O739 2.355 . S
Eu727 O741 2.374 . S
Eu727 O742 2.473 . S
Eu727 O743 2.480 . S
Eu727 O744 2.430 . S
Eu727 O745 2.670 . S
Eu727 O746 2.394 . S
C728 C726 1.500 . S
C728 C729 1.377 . S
C728 C733 1.377 . S
C729 C728 1.377 . S
C729 C730 1.395 . S
C729 H752 0.931 . S
C730 C729 1.395 . S
C730 C731 1.383 . S
C730 H753 0.931 . S
C731 C730 1.383 . S
C731 C732 1.394 . S
C732 C731 1.394 . S
C732 C733 1.378 . S
C732 H754 0.931 1_455 S
C733 C728 1.377 . S
C733 C732 1.378 . S
C733 H755 0.931 . S
C734 O744 1.259 . S
C734 O745 1.270 . S
C735 O746 1.251 1_545 S
C735 O747 1.251 . S
O736 C716 1.257 . S
O736 Eu717 2.473 . S
O737 C716 1.260 . S
O737 Eu717 2.480 . S
O738 Eu717 2.430 . S
O738 C724 1.259 . S
O739 Eu717 2.670 . S
O739 C724 1.270 . S
O739 Eu727 2.355 . S
O740 Eu717 2.394 . S
O740 C725 1.251 . S
O741 C725 1.251 . S
O741 Eu727 2.374 . S
O742 C726 1.257 . S
O742 Eu727 2.473 . S
O743 C726 1.260 . S
O743 Eu727 2.480 . S
O744 Eu727 2.430 . S
O744 C734 1.259 . S
O745 Eu717 2.355 . S
O745 Eu727 2.670 . S
O745 C734 1.270 . S
O746 Eu727 2.394 . S
O746 C735 1.251 1_565 S
O747 Eu717 2.374 1_545 S
O747 C735 1.251 . S
H748 C719 0.931 . S
H749 C720 0.931 . S
H750 C722 0.931 . S
H751 C723 0.931 . S
H752 C729 0.931 . S
H753 C730 0.931 . S
H754 C732 0.931 1_655 S
H755 C733 0.931 . S
C756 Eu757 2.835 . S
C756 C758 1.500 . S
C756 O776 1.257 . S
C756 O777 1.260 . S
Eu757 C756 2.835 . S
Eu757 O776 2.473 . S
Eu757 O777 2.480 . S
Eu757 O778 2.430 . S
Eu757 O779 2.670 . S
Eu757 O780 2.394 . S
Eu757 O785 2.355 1_455 S
Eu757 O787 2.351 1_455 S
C758 C756 1.500 . S
C758 C759 1.377 . S
C758 C763 1.377 . S
C759 C758 1.377 . S
C759 C760 1.395 . S
C759 H788 0.931 . S
C760 C759 1.395 . S
C760 C761 1.383 . S
C760 H789 0.931 . S
C761 C760 1.383 . S
C761 C762 1.394 . S
C762 C761 1.394 . S
C762 C763 1.378 . S
C762 H790 0.931 . S
C763 C758 1.377 . S
C763 C762 1.378 . S
C763 H791 0.931 . S
C764 O778 1.259 . S
C764 O779 1.270 . S
C765 O780 1.251 . S
C765 O781 1.271 . S
C766 Eu767 2.835 . S
C766 C768 1.500 . S
C766 O782 1.257 . S
C766 O783 1.260 . S
Eu767 C766 2.835 . S
Eu767 O779 2.355 1_655 S
Eu767 O781 2.359 1_655 S
Eu767 O782 2.473 . S
Eu767 O783 2.480 . S
Eu767 O784 2.430 . S
Eu767 O785 2.670 . S
Eu767 O786 2.394 . S
C768 C766 1.500 . S
C768 C769 1.377 . S
C768 C773 1.377 . S
C769 C768 1.377 . S
C769 C770 1.395 . S
C769 H792 0.931 . S
C770 C769 1.395 . S
C770 C771 1.383 . S
C770 H793 0.931 . S
C771 C770 1.383 . S
C771 C772 1.394 . S
C772 C771 1.394 . S
C772 C773 1.378 . S
C772 H794 0.931 . S
C773 C768 1.377 . S
C773 C772 1.378 . S
C773 H795 0.931 . S
C774 O784 1.259 . S
C774 O785 1.270 . S
C775 O786 1.251 . S
C775 O787 1.282 . S
O776 C756 1.257 . S
O776 Eu757 2.473 . S
O777 C756 1.260 . S
O777 Eu757 2.480 . S
O778 Eu757 2.430 . S
O778 C764 1.259 . S
O779 Eu757 2.670 . S
O779 C764 1.270 . S
O779 Eu767 2.355 1_455 S
O780 Eu757 2.394 . S
O780 C765 1.251 . S
O781 C765 1.271 . S
O781 Eu767 2.359 1_455 S
O782 C766 1.257 . S
O782 Eu767 2.473 . S
O783 C766 1.260 . S
O783 Eu767 2.480 . S
O784 Eu767 2.430 . S
O784 C774 1.259 . S
O785 Eu757 2.355 1_655 S
O785 Eu767 2.670 . S
O785 C774 1.270 . S
O786 Eu767 2.394 . S
O786 C775 1.251 . S
O787 Eu757 2.351 1_655 S
O787 C775 1.282 . S
H788 C759 0.931 . S
H789 C760 0.931 . S
H790 C762 0.931 . S
H791 C763 0.931 . S
H792 C769 0.931 . S
H793 C770 0.931 . S
H794 C772 0.931 . S
H795 C773 0.931 . S
C796 Eu797 2.835 1_545 S
C796 C798 1.500 . S
C796 O816 1.257 . S
C796 O817 1.260 1_545 S
Eu797 C796 2.835 1_565 S
Eu797 O816 2.473 1_565 S
Eu797 O817 2.480 . S
Eu797 O818 2.430 . S
Eu797 O819 2.670 . S
Eu797 O820 2.394 1_565 S
Eu797 O825 2.355 1_565 S
Eu797 O827 2.374 . S
C798 C796 1.500 . S
C798 C799 1.377 . S
C798 C803 1.377 . S
C799 C798 1.377 . S
C799 C800 1.395 . S
C799 H828 0.931 . S
C800 C799 1.395 . S
C800 C801 1.383 . S
C800 H829 0.931 . S
C801 C800 1.383 . S
C801 C802 1.394 . S
C802 C801 1.394 . S
C802 C803 1.378 . S
C802 H830 0.931 . S
C803 C798 1.377 . S
C803 C802 1.378 . S
C803 H831 0.931 . S
C804 O818 1.259 . S
C804 O819 1.270 . S
C805 O820 1.251 . S
C805 O821 1.251 . S
C806 Eu807 2.835 . S
C806 C808 1.500 . S
C806 O822 1.257 . S
C806 O823 1.260 . S
Eu807 C806 2.835 . S
Eu807 O819 2.355 . S
Eu807 O821 2.374 1_565 S
Eu807 O822 2.473 . S
Eu807 O823 2.480 . S
Eu807 O824 2.430 1_565 S
Eu807 O825 2.670 1_565 S
Eu807 O826 2.394 . S
C808 C806 1.500 . S
C808 C809 1.377 . S
C808 C813 1.377 . S
C809 C808 1.377 . S
C809 C810 1.395 . S
C809 H832 0.931 . S
C810 C809 1.395 . S
C810 C811 1.383 . S
C810 H833 0.931 . S
C811 C810 1.383 . S
C811 C812 1.394 . S
C812 C811 1.394 . S
C812 C813 1.378 . S
C812 H834 0.931 . S
C813 C808 1.377 . S
C813 C812 1.378 . S
C813 H835 0.931 . S
C814 O824 1.259 . S
C814 O825 1.270 . S
C815 O826 1.251 . S
C815 O827 1.251 . S
O816 C796 1.257 . S
O816 Eu797 2.473 1_545 S
O817 C796 1.260 1_565 S
O817 Eu797 2.480 . S
O818 Eu797 2.430 . S
O818 C804 1.259 . S
O819 Eu797 2.670 . S
O819 C804 1.270 . S
O819 Eu807 2.355 . S
O820 Eu797 2.394 1_545 S
O820 C805 1.251 . S
O821 C805 1.251 . S
O821 Eu807 2.374 1_545 S
O822 C806 1.257 . S
O822 Eu807 2.473 . S
O823 C806 1.260 . S
O823 Eu807 2.480 . S
O824 Eu807 2.430 1_545 S
O824 C814 1.259 . S
O825 Eu797 2.355 1_545 S
O825 Eu807 2.670 1_545 S
O825 C814 1.270 . S
O826 Eu807 2.394 . S
O826 C815 1.251 . S
O827 Eu797 2.374 . S
O827 C815 1.251 . S
H828 C799 0.931 . S
H829 C800 0.931 . S
H830 C802 0.931 . S
H831 C803 0.931 . S
H832 C809 0.931 . S
H833 C810 0.931 . S
H834 C812 0.931 . S
H835 C813 0.931 . S
C836 Eu837 2.835 . S
C836 C838 1.500 . S
C836 O856 1.257 . S
C836 O857 1.260 . S
Eu837 C836 2.835 . S
Eu837 O856 2.473 . S
Eu837 O857 2.480 . S
Eu837 O858 2.430 . S
Eu837 O859 2.670 . S
Eu837 O860 2.394 . S
Eu837 O865 2.355 . S
Eu837 O867 2.374 . S
C838 C836 1.500 . S
C838 C839 1.377 . S
C838 C843 1.377 . S
C839 C838 1.377 . S
C839 C840 1.395 . S
C839 H868 0.931 . S
C840 C839 1.395 . S
C840 C841 1.383 . S
C840 H869 0.931 . S
C841 C840 1.383 . S
C841 C842 1.394 . S
C842 C841 1.394 . S
C842 C843 1.378 . S
C842 H870 0.931 . S
C843 C838 1.377 . S
C843 C842 1.378 . S
C843 H871 0.931 . S
C844 O858 1.259 . S
C844 O859 1.270 . S
C845 O860 1.251 . S
C845 O861 1.251 . S
C846 Eu847 2.835 . S
C846 C848 1.500 . S
C846 O862 1.257 . S
C846 O863 1.260 . S
Eu847 C846 2.835 . S
Eu847 O859 2.355 . S
Eu847 O861 2.374 . S
Eu847 O862 2.473 . S
Eu847 O863 2.480 . S
Eu847 O864 2.430 . S
Eu847 O865 2.670 . S
Eu847 O866 2.394 . S
C848 C846 1.500 . S
C848 C849 1.377 . S
C848 C853 1.377 . S
C849 C848 1.377 . S
C849 C850 1.395 . S
C849 H872 0.931 . S
C850 C849 1.395 . S
C850 C851 1.383 . S
C850 H873 0.931 . S
C851 C850 1.383 . S
C851 C852 1.394 . S
C852 C851 1.394 . S
C852 C853 1.378 . S
C852 H874 0.931 . S
C853 C848 1.377 . S
C853 C852 1.378 . S
C853 H875 0.931 . S
C854 O864 1.259 . S
C854 O865 1.270 . S
C855 O866 1.251 . S
C855 O867 1.251 . S
O856 C836 1.257 . S
O856 Eu837 2.473 . S
O857 C836 1.260 . S
O857 Eu837 2.480 . S
O858 Eu837 2.430 . S
O858 C844 1.259 . S
O859 Eu837 2.670 . S
O859 C844 1.270 . S
O859 Eu847 2.355 . S
O860 Eu837 2.394 . S
O860 C845 1.251 . S
O861 C845 1.251 . S
O861 Eu847 2.374 . S
O862 C846 1.257 . S
O862 Eu847 2.473 . S
O863 C846 1.260 . S
O863 Eu847 2.480 . S
O864 Eu847 2.430 . S
O864 C854 1.259 . S
O865 Eu837 2.355 . S
O865 Eu847 2.670 . S
O865 C854 1.270 . S
O866 Eu847 2.394 . S
O866 C855 1.251 . S
O867 Eu837 2.374 . S
O867 C855 1.251 . S
H868 C839 0.931 . S
H869 C840 0.931 . S
H870 C842 0.931 . S
H871 C843 0.931 . S
H872 C849 0.931 . S
H873 C850 0.931 . S
H874 C852 0.931 . S
H875 C853 0.931 . S
C876 Eu877 2.835 . S
C876 C878 1.500 . S
C876 O896 1.257 . S
C876 O897 1.260 . S
Eu877 C876 2.835 . S
Eu877 O896 2.473 . S
Eu877 O897 2.480 . S
Eu877 O898 2.430 . S
Eu877 O899 2.670 . S
Eu877 O900 2.394 . S
Eu877 O905 2.355 1_554 S
Eu877 O907 2.374 1_554 S
C878 C876 1.500 . S
C878 C879 1.377 . S
C878 C883 1.377 . S
C879 C878 1.377 . S
C879 C880 1.395 . S
C879 H908 0.931 . S
C880 C879 1.395 . S
C880 C881 1.383 . S
C880 H909 0.931 . S
C881 C880 1.383 . S
C881 C882 1.394 . S
C882 C881 1.394 . S
C882 C883 1.378 . S
C882 H910 0.931 . S
C883 C878 1.377 . S
C883 C882 1.378 . S
C883 H911 0.931 . S
C884 O898 1.259 . S
C884 O899 1.270 . S
C885 O900 1.251 . S
C885 O901 1.251 . S
C886 Eu887 2.835 . S
C886 C888 1.500 . S
C886 O902 1.257 . S
C886 O903 1.260 . S
Eu887 C886 2.835 . S
Eu887 O899 2.355 1_556 S
Eu887 O901 2.374 1_556 S
Eu887 O902 2.473 . S
Eu887 O903 2.480 . S
Eu887 O904 2.430 . S
Eu887 O905 2.670 . S
Eu887 O906 2.394 . S
C888 C886 1.500 . S
C888 C889 1.377 . S
C888 C893 1.377 . S
C889 C888 1.377 . S
C889 C890 1.395 . S
C889 H912 0.931 . S
C890 C889 1.395 . S
C890 C891 1.383 . S
C890 H913 0.931 . S
C891 C890 1.383 . S
C891 C892 1.394 . S
C892 C891 1.394 . S
C892 C893 1.378 . S
C892 H914 0.931 . S
C893 C888 1.377 . S
C893 C892 1.378 . S
C893 H915 0.931 . S
C894 O904 1.259 . S
C894 O905 1.270 . S
C895 O906 1.251 . S
C895 O907 1.251 . S
O896 C876 1.257 . S
O896 Eu877 2.473 . S
O897 C876 1.260 . S
O897 Eu877 2.480 . S
O898 Eu877 2.430 . S
O898 C884 1.259 . S
O899 Eu877 2.670 . S
O899 C884 1.270 . S
O899 Eu887 2.355 1_554 S
O900 Eu877 2.394 . S
O900 C885 1.251 . S
O901 C885 1.251 . S
O901 Eu887 2.374 1_554 S
O902 C886 1.257 . S
O902 Eu887 2.473 . S
O903 C886 1.260 . S
O903 Eu887 2.480 . S
O904 Eu887 2.430 . S
O904 C894 1.259 . S
O905 Eu877 2.355 1_556 S
O905 Eu887 2.670 . S
O905 C894 1.270 . S
O906 Eu887 2.394 . S
O906 C895 1.251 . S
O907 Eu877 2.374 1_556 S
O907 C895 1.251 . S
H908 C879 0.931 . S
H909 C880 0.931 . S
H910 C882 0.931 . S
H911 C883 0.931 . S
H912 C889 0.931 . S
H913 C890 0.931 . S
H914 C892 0.931 . S
H915 C893 0.931 . S
C916 Eu917 2.835 . S
C916 C918 1.500 . S
C916 O936 1.257 . S
C916 O937 1.260 . S
Eu917 C916 2.835 . S
Eu917 O936 2.473 . S
Eu917 O937 2.480 . S
Eu917 O938 2.430 1_554 S
Eu917 O939 2.670 1_554 S
Eu917 O940 2.394 1_554 S
Eu917 O945 2.355 . S
Eu917 O947 2.374 . S
C918 C916 1.500 . S
C918 C919 1.377 . S
C918 C923 1.377 . S
C919 C918 1.377 . S
C919 C920 1.395 . S
C919 H948 0.933 . S
C920 C919 1.395 . S
C920 C921 1.383 . S
C920 H949 0.931 1_554 S
C921 C920 1.383 . S
C921 C922 1.394 . S
C922 C921 1.394 . S
C922 C923 1.378 . S
C922 H950 0.931 . S
C923 C918 1.377 . S
C923 C922 1.378 . S
C923 H951 0.931 . S
C924 O938 1.259 . S
C924 O939 1.270 . S
C925 O940 1.251 . S
C925 O941 1.251 . S
C926 Eu927 2.835 . S
C926 C928 1.500 . S
C926 O942 1.257 . S
C926 O943 1.260 . S
Eu927 C926 2.835 . S
Eu927 O939 2.355 . S
Eu927 O941 2.374 . S
Eu927 O942 2.473 . S
Eu927 O943 2.480 . S
Eu927 O944 2.430 1_556 S
Eu927 O945 2.670 1_556 S
Eu927 O946 2.394 1_556 S
C928 C926 1.500 . S
C928 C929 1.377 . S
C928 C933 1.377 . S
C929 C928 1.377 . S
C929 C930 1.396 . S
C929 H952 0.934 . S
C930 C929 1.396 . S
C930 C931 1.383 . S
C930 H953 0.931 1_556 S
C931 C930 1.383 . S
C931 C932 1.395 1_545 S
C932 C931 1.395 1_565 S
C932 C933 1.378 1_565 S
C932 H954 0.931 . S
C933 C928 1.377 . S
C933 C932 1.378 1_545 S
C933 H955 0.931 . S
C934 O944 1.259 . S
C934 O945 1.270 . S
C935 O946 1.251 . S
C935 O947 1.251 . S
O936 C916 1.257 . S
O936 Eu917 2.473 . S
O937 C916 1.260 . S
O937 Eu917 2.480 . S
O938 Eu917 2.430 1_556 S
O938 C924 1.259 . S
O939 Eu917 2.670 1_556 S
O939 C924 1.270 . S
O939 Eu927 2.355 . S
O940 Eu917 2.394 1_556 S
O940 C925 1.251 . S
O941 C925 1.251 . S
O941 Eu927 2.374 . S
O942 C926 1.257 . S
O942 Eu927 2.473 . S
O943 C926 1.260 . S
O943 Eu927 2.480 . S
O944 Eu927 2.430 1_554 S
O944 C934 1.259 . S
O945 Eu917 2.355 . S
O945 Eu927 2.670 1_554 S
O945 C934 1.270 . S
O946 Eu927 2.394 1_554 S
O946 C935 1.251 . S
O947 Eu917 2.374 . S
O947 C935 1.251 . S
H948 C919 0.933 . S
H949 C920 0.931 1_556 S
H950 C922 0.931 . S
H951 C923 0.931 . S
H952 C929 0.934 . S
H953 C930 0.931 1_554 S
H954 C932 0.931 . S
H955 C933 0.931 . S
H956 C968 0.930 . S
H957 C970 0.930 . S
H958 C971 0.930 . S
H959 C975 0.959 . S
H960 C975 0.959 . S
H961 C975 0.961 . S
H962 C976 0.960 . S
H963 C976 0.961 . S
H964 C976 0.959 . S
H965 C979 0.929 . S
H966 C980 0.931 . S
H967 C982 0.930 . S
C968 H956 0.930 . S
C968 C969 1.399 . S
C968 C973 1.399 . S
C969 C968 1.399 . S
C969 C970 1.376 . S
C970 H957 0.930 . S
C970 C969 1.376 . S
C970 C971 1.388 . S
C971 H958 0.930 . S
C971 C970 1.388 . S
C971 C972 1.390 . S
C972 C971 1.390 . S
C972 C973 1.394 . S
C972 C978 1.465 . S
C973 C968 1.399 . S
C973 C972 1.394 . S
C973 C974 1.516 . S
C974 C973 1.516 . S
C974 C975 1.502 . S
C974 C976 1.561 . S
C974 C977 1.526 . S
C975 H959 0.959 . S
C975 H960 0.959 . S
C975 H961 0.961 . S
C975 C974 1.502 . S
C976 H962 0.960 . S
C976 H963 0.961 . S
C976 H964 0.959 . S
C976 C974 1.561 . S
C977 C974 1.526 . S
C977 C978 1.396 . S
C977 C982 1.390 . S
C978 C972 1.465 . S
C978 C977 1.396 . S
C978 C979 1.399 . S
C979 H965 0.929 . S
C979 C978 1.399 . S
C979 C980 1.385 . S
C980 H966 0.931 . S
C980 C979 1.385 . S
C980 C981 1.389 . S
C981 C980 1.389 . S
C981 C982 1.387 . S
C982 H967 0.930 . S
C982 C977 1.390 . S
C982 C981 1.387 . S
H983 C995 0.930 . S
H984 C997 0.930 . S
H985 C998 0.930 . S
H986 C1002 0.959 . S
H987 C1002 0.959 . S
H988 C1002 0.961 . S
H989 C1003 0.960 . S
H990 C1003 0.961 . S
H991 C1003 0.959 . S
H992 C1006 0.929 . S
H993 C1007 0.931 . S
H994 C1009 0.930 . S
C995 H983 0.930 . S
C995 C996 1.399 . S
C995 C1000 1.399 . S
C996 C995 1.399 . S
C996 C997 1.376 1_455 S
C997 H984 0.930 . S
C997 C996 1.376 1_655 S
C997 C998 1.388 . S
C998 H985 0.930 . S
C998 C997 1.388 . S
C998 C999 1.390 1_655 S
C999 C998 1.390 1_455 S
C999 C1000 1.394 . S
C999 C1005 1.465 . S
C1000 C995 1.399 . S
C1000 C999 1.394 . S
C1000 C1001 1.516 . S
C1001 C1000 1.516 . S
C1001 C1002 1.502 . S
C1001 C1003 1.561 . S
C1001 C1004 1.526 . S
C1002 H986 0.959 . S
C1002 H987 0.959 . S
C1002 H988 0.961 . S
C1002 C1001 1.502 . S
C1003 H989 0.960 . S
C1003 H990 0.961 . S
C1003 H991 0.959 . S
C1003 C1001 1.561 . S
C1004 C1001 1.526 . S
C1004 C1005 1.396 . S
C1004 C1009 1.390 . S
C1005 C999 1.465 . S
C1005 C1004 1.396 . S
C1005 C1006 1.399 1_455 S
C1006 H992 0.929 . S
C1006 C1005 1.399 1_655 S
C1006 C1007 1.385 . S
C1007 H993 0.931 . S
C1007 C1006 1.385 . S
C1007 C1008 1.389 1_655 S
C1008 C1007 1.389 1_455 S
C1008 C1009 1.387 . S
C1009 H994 0.930 . S
C1009 C1004 1.390 . S
C1009 C1008 1.387 . S
H1010 C1022 0.930 . S
H1011 C1024 0.930 . S
H1012 C1025 0.930 . S
H1013 C1029 0.937 1_655 S
H1014 C1029 0.959 . S
H1015 C1029 0.961 1_655 S
H1016 C1030 0.960 . S
H1017 C1030 0.961 . S
H1018 C1030 0.959 . S
H1019 C1033 0.929 . S
H1020 C1034 0.931 . S
H1021 C1036 0.930 . S
C1022 H1010 0.930 . S
C1022 C1023 1.399 . S
C1022 C1027 1.399 . S
C1023 C1022 1.399 . S
C1023 C1024 1.376 . S
C1024 H1011 0.930 . S
C1024 C1023 1.376 . S
C1024 C1025 1.388 . S
C1025 H1012 0.930 . S
C1025 C1024 1.388 . S
C1025 C1026 1.390 . S
C1026 C1025 1.390 . S
C1026 C1027 1.394 . S
C1026 C1032 1.465 . S
C1027 C1022 1.399 . S
C1027 C1026 1.394 . S
C1027 C1028 1.516 . S
C1028 C1027 1.516 . S
C1028 C1029 1.502 . S
C1028 C1030 1.561 . S
C1028 C1031 1.526 . S
C1029 H1013 0.937 1_455 S
C1029 H1014 0.959 . S
C1029 H1015 0.961 1_455 S
C1029 C1028 1.502 . S
C1030 H1016 0.960 . S
C1030 H1017 0.961 . S
C1030 H1018 0.959 . S
C1030 C1028 1.561 . S
C1031 C1028 1.526 . S
C1031 C1032 1.396 . S
C1031 C1036 1.390 . S
C1032 C1026 1.465 . S
C1032 C1031 1.396 . S
C1032 C1033 1.399 . S
C1033 H1019 0.929 . S
C1033 C1032 1.399 . S
C1033 C1034 1.385 . S
C1034 H1020 0.931 . S
C1034 C1033 1.385 . S
C1034 C1035 1.389 . S
C1035 C1034 1.389 . S
C1035 C1036 1.387 . S
C1036 H1021 0.930 . S
C1036 C1031 1.390 . S
C1036 C1035 1.387 . S
H1037 C1049 0.930 . S
H1038 C1051 0.930 . S
H1039 C1052 0.930 . S
H1040 C1056 0.959 . S
H1041 C1056 0.959 . S
H1042 C1056 0.961 . S
H1043 C1057 0.960 . S
H1044 C1057 0.961 . S
H1045 C1057 0.959 . S
H1046 C1060 0.929 . S
H1047 C1061 0.931 . S
H1048 C1063 0.930 . S
C1049 H1037 0.930 . S
C1049 C1050 1.399 . S
C1049 C1054 1.399 . S
C1050 C1049 1.399 . S
C1050 C1051 1.376 1_655 S
C1051 H1038 0.930 . S
C1051 C1050 1.376 1_455 S
C1051 C1052 1.388 . S
C1052 H1039 0.930 . S
C1052 C1051 1.388 . S
C1052 C1053 1.390 1_455 S
C1053 C1052 1.390 1_655 S
C1053 C1054 1.394 . S
C1053 C1059 1.465 . S
C1054 C1049 1.399 . S
C1054 C1053 1.394 . S
C1054 C1055 1.516 . S
C1055 C1054 1.516 . S
C1055 C1056 1.502 . S
C1055 C1057 1.561 . S
C1055 C1058 1.526 . S
C1056 H1040 0.959 . S
C1056 H1041 0.959 . S
C1056 H1042 0.961 . S
C1056 C1055 1.502 . S
C1057 H1043 0.960 . S
C1057 H1044 0.961 . S
C1057 H1045 0.959 . S
C1057 C1055 1.561 . S
C1058 C1055 1.526 . S
C1058 C1059 1.396 . S
C1058 C1063 1.390 . S
C1059 C1053 1.465 . S
C1059 C1058 1.396 . S
C1059 C1060 1.399 1_655 S
C1060 H1046 0.929 . S
C1060 C1059 1.399 1_455 S
C1060 C1061 1.385 . S
C1061 H1047 0.931 . S
C1061 C1060 1.385 . S
C1061 C1062 1.389 1_455 S
C1062 C1061 1.389 1_655 S
C1062 C1063 1.387 . S
C1063 H1048 0.930 . S
C1063 C1058 1.390 . S
C1063 C1062 1.387 . S
H1064 C1076 0.930 . S
H1065 C1078 0.930 1_565 S
H1066 C1079 0.930 1_565 S
H1067 C1083 0.959 . S
H1068 C1083 0.959 . S
H1069 C1083 0.961 . S
H1070 C1084 0.960 . S
H1071 C1084 0.961 . S
H1072 C1084 0.959 . S
H1073 C1087 0.929 1_565 S
H1074 C1088 0.931 . S
H1075 C1090 0.930 . S
C1076 H1064 0.930 . S
C1076 C1077 1.399 . S
C1076 C1081 1.399 . S
C1077 C1076 1.399 . S
C1077 C1078 1.376 . S
C1078 H1065 0.930 1_545 S
C1078 C1077 1.376 . S
C1078 C1079 1.388 . S
C1079 H1066 0.930 1_545 S
C1079 C1078 1.388 . S
C1079 C1080 1.390 . S
C1080 C1079 1.390 . S
C1080 C1081 1.394 . S
C1080 C1086 1.465 . S
C1081 C1076 1.399 . S
C1081 C1080 1.394 . S
C1081 C1082 1.516 . S
C1082 C1081 1.516 . S
C1082 C1083 1.502 . S
C1082 C1084 1.561 . S
C1082 C1085 1.526 . S
C1083 H1067 0.959 . S
C1083 H1068 0.959 . S
C1083 H1069 0.961 . S
C1083 C1082 1.502 . S
C1084 H1070 0.960 . S
C1084 H1071 0.961 . S
C1084 H1072 0.959 . S
C1084 C1082 1.561 . S
C1085 C1082 1.526 . S
C1085 C1086 1.396 . S
C1085 C1090 1.390 . S
C1086 C1080 1.465 . S
C1086 C1085 1.396 . S
C1086 C1087 1.399 . S
C1087 H1073 0.929 1_545 S
C1087 C1086 1.399 . S
C1087 C1088 1.385 . S
C1088 H1074 0.931 . S
C1088 C1087 1.385 . S
C1088 C1089 1.389 . S
C1089 C1088 1.389 . S
C1089 C1090 1.387 . S
C1090 H1075 0.930 . S
C1090 C1085 1.390 . S
C1090 C1089 1.387 . S
H1091 C1103 0.930 . S
H1092 C1105 0.930 . S
H1093 C1106 0.930 . S
H1094 C1110 0.959 . S
H1095 C1110 0.959 . S
H1096 C1110 0.961 . S
H1097 C1111 0.960 . S
H1098 C1111 0.961 . S
H1099 C1111 0.959 . S
H1100 C1114 0.929 . S
H1101 C1115 0.931 . S
H1102 C1117 0.930 . S
C1103 H1091 0.930 . S
C1103 C1104 1.399 . S
C1103 C1108 1.399 . S
C1104 C1103 1.399 . S
C1104 C1105 1.376 . S
C1105 H1092 0.930 . S
C1105 C1104 1.376 . S
C1105 C1106 1.388 . S
C1106 H1093 0.930 . S
C1106 C1105 1.388 . S
C1106 C1107 1.390 . S
C1107 C1106 1.390 . S
C1107 C1108 1.394 . S
C1107 C1113 1.465 . S
C1108 C1103 1.399 . S
C1108 C1107 1.394 . S
C1108 C1109 1.516 . S
C1109 C1108 1.516 . S
C1109 C1110 1.502 . S
C1109 C1111 1.561 . S
C1109 C1112 1.526 . S
C1110 H1094 0.959 . S
C1110 H1095 0.959 . S
C1110 H1096 0.961 . S
C1110 C1109 1.502 . S
C1111 H1097 0.960 . S
C1111 H1098 0.961 . S
C1111 H1099 0.959 . S
C1111 C1109 1.561 . S
C1112 C1109 1.526 . S
C1112 C1113 1.396 . S
C1112 C1117 1.390 . S
C1113 C1107 1.465 . S
C1113 C1112 1.396 . S
C1113 C1114 1.399 . S
C1114 H1100 0.929 . S
C1114 C1113 1.399 . S
C1114 C1115 1.385 . S
C1115 H1101 0.931 . S
C1115 C1114 1.385 . S
C1115 C1116 1.389 . S
C1116 C1115 1.389 . S
C1116 C1117 1.387 . S
C1117 H1102 0.930 . S
C1117 C1112 1.390 . S
C1117 C1116 1.387 . S
H1118 C1130 0.930 . S
H1119 C1132 0.930 . S
H1120 C1133 0.930 . S
H1121 C1137 0.959 . S
H1122 C1137 0.959 . S
H1123 C1137 0.961 . S
H1124 C1138 0.960 . S
H1125 C1138 0.961 . S
H1126 C1138 0.959 . S
H1127 C1141 0.929 . S
H1128 C1142 0.931 . S
H1129 C1144 0.930 . S
C1130 H1118 0.930 . S
C1130 C1131 1.399 1_545 S
C1130 C1135 1.399 . S
C1131 C1130 1.399 1_565 S
C1131 C1132 1.376 . S
C1132 H1119 0.930 . S
C1132 C1131 1.376 . S
C1132 C1133 1.388 . S
C1133 H1120 0.930 . S
C1133 C1132 1.388 . S
C1133 C1134 1.390 . S
C1134 C1133 1.390 . S
C1134 C1135 1.394 1_565 S
C1134 C1140 1.465 . S
C1135 C1130 1.399 . S
C1135 C1134 1.394 1_545 S
C1135 C1136 1.516 . S
C1136 C1135 1.516 . S
C1136 C1137 1.502 . S
C1136 C1138 1.561 . S
C1136 C1139 1.526 . S
C1137 H1121 0.959 . S
C1137 H1122 0.959 . S
C1137 H1123 0.961 . S
C1137 C1136 1.502 . S
C1138 H1124 0.960 . S
C1138 H1125 0.961 . S
C1138 H1126 0.959 . S
C1138 C1136 1.561 . S
C1139 C1136 1.526 . S
C1139 C1140 1.396 1_545 S
C1139 C1144 1.390 . S
C1140 C1134 1.465 . S
C1140 C1139 1.396 1_565 S
C1140 C1141 1.399 . S
C1141 H1127 0.929 . S
C1141 C1140 1.399 . S
C1141 C1142 1.385 . S
C1142 H1128 0.931 . S
C1142 C1141 1.385 . S
C1142 C1143 1.389 1_565 S
C1143 C1142 1.389 1_545 S
C1143 C1144 1.387 . S
C1144 H1129 0.930 . S
C1144 C1139 1.390 . S
C1144 C1143 1.387 . S
H1145 C1157 0.930 . S
H1146 C1159 0.930 . S
H1147 C1160 0.930 . S
H1148 C1164 0.959 . S
H1149 C1164 0.959 . S
H1150 C1164 0.961 . S
H1151 C1165 0.960 . S
H1152 C1165 0.961 . S
H1153 C1165 0.959 . S
H1154 C1168 0.929 . S
H1155 C1169 0.931 . S
H1156 C1171 0.930 . S
C1157 H1145 0.930 . S
C1157 C1158 1.399 . S
C1157 C1162 1.399 . S
C1158 C1157 1.399 . S
C1158 C1159 1.376 . S
C1159 H1146 0.930 . S
C1159 C1158 1.376 . S
C1159 C1160 1.388 . S
C1160 H1147 0.930 . S
C1160 C1159 1.388 . S
C1160 C1161 1.390 . S
C1161 C1160 1.390 . S
C1161 C1162 1.394 . S
C1161 C1167 1.465 . S
C1162 C1157 1.399 . S
C1162 C1161 1.394 . S
C1162 C1163 1.516 . S
C1163 C1162 1.516 . S
C1163 C1164 1.502 . S
C1163 C1165 1.561 . S
C1163 C1166 1.526 . S
C1164 H1148 0.959 . S
C1164 H1149 0.959 . S
C1164 H1150 0.961 . S
C1164 C1163 1.502 . S
C1165 H1151 0.960 . S
C1165 H1152 0.961 . S
C1165 H1153 0.959 . S
C1165 C1163 1.561 . S
C1166 C1163 1.526 . S
C1166 C1167 1.396 . S
C1166 C1171 1.390 . S
C1167 C1161 1.465 . S
C1167 C1166 1.396 . S
C1167 C1168 1.399 . S
C1168 H1154 0.929 . S
C1168 C1167 1.399 . S
C1168 C1169 1.385 . S
C1169 H1155 0.931 . S
C1169 C1168 1.385 . S
C1169 C1170 1.389 . S
C1170 C1169 1.389 . S
C1170 C1171 1.387 . S
C1171 H1156 0.930 . S
C1171 C1166 1.390 . S
C1171 C1170 1.387 . S
H1172 C1184 0.930 . S
H1173 C1186 0.930 . S
H1174 C1187 0.930 . S
H1175 C1191 0.959 . S
H1176 C1191 0.959 . S
H1177 C1191 0.961 . S
H1178 C1192 0.960 . S
H1179 C1192 0.961 . S
H1180 C1192 0.991 . S
H1181 C1195 0.929 . S
H1182 C1196 0.931 . S
H1183 C1198 0.930 . S
C1184 H1172 0.930 . S
C1184 C1185 1.399 . S
C1184 C1189 1.399 . S
C1185 C1184 1.399 . S
C1185 C1186 1.376 1_554 S
C1186 H1173 0.930 . S
C1186 C1185 1.376 1_556 S
C1186 C1187 1.388 . S
C1187 H1174 0.930 . S
C1187 C1186 1.388 . S
C1187 C1188 1.392 1_556 S
C1188 C1187 1.392 1_554 S
C1188 C1189 1.390 . S
C1188 C1194 1.466 1_554 S
C1189 C1184 1.399 . S
C1189 C1188 1.390 . S
C1189 C1190 1.516 . S
C1190 C1189 1.516 . S
C1190 C1191 1.502 . S
C1190 C1192 1.561 . S
C1190 C1193 1.526 . S
C1191 H1175 0.959 . S
C1191 H1176 0.959 . S
C1191 H1177 0.961 . S
C1191 C1190 1.502 . S
C1192 H1178 0.960 . S
C1192 H1179 0.961 . S
C1192 H1180 0.991 . S
C1192 C1190 1.561 . S
C1193 C1190 1.526 . S
C1193 C1194 1.396 1_554 S
C1193 C1198 1.390 . S
C1194 C1188 1.466 1_556 S
C1194 C1193 1.396 1_556 S
C1194 C1195 1.399 . S
C1195 H1181 0.929 . S
C1195 C1194 1.399 . S
C1195 C1196 1.385 . S
C1196 H1182 0.931 . S
C1196 C1195 1.385 . S
C1196 C1197 1.389 1_556 S
C1197 C1196 1.389 1_554 S
C1197 C1198 1.387 . S
C1198 H1183 0.930 . S
C1198 C1193 1.390 . S
C1198 C1197 1.387 . S
H1199 C1211 0.930 . S
H1200 C1213 0.930 . S
H1201 C1214 0.930 . S
H1202 C1218 0.959 . S
H1203 C1218 0.959 . S
H1204 C1218 0.961 . S
H1205 C1219 0.960 . S
H1206 C1219 0.961 . S
H1207 C1219 0.959 . S
H1208 C1222 0.929 . S
H1209 C1223 0.931 . S
H1210 C1225 0.930 . S
C1211 H1199 0.930 . S
C1211 C1212 1.399 . S
C1211 C1216 1.399 . S
C1212 C1211 1.399 . S
C1212 C1213 1.376 . S
C1213 H1200 0.930 . S
C1213 C1212 1.376 . S
C1213 C1214 1.388 . S
C1214 H1201 0.930 . S
C1214 C1213 1.388 . S
C1214 C1215 1.390 . S
C1215 C1214 1.390 . S
C1215 C1216 1.394 . S
C1215 C1221 1.465 . S
C1216 C1211 1.399 . S
C1216 C1215 1.394 . S
C1216 C1217 1.516 . S
C1217 C1216 1.516 . S
C1217 C1218 1.502 . S
C1217 C1219 1.561 . S
C1217 C1220 1.526 . S
C1218 H1202 0.959 . S
C1218 H1203 0.959 . S
C1218 H1204 0.961 . S
C1218 C1217 1.502 . S
C1219 H1205 0.960 . S
C1219 H1206 0.961 . S
C1219 H1207 0.959 . S
C1219 C1217 1.561 . S
C1220 C1217 1.526 . S
C1220 C1221 1.396 . S
C1220 C1225 1.390 . S
C1221 C1215 1.465 . S
C1221 C1220 1.396 . S
C1221 C1222 1.399 . S
C1222 H1208 0.929 . S
C1222 C1221 1.399 . S
C1222 C1223 1.385 . S
C1223 H1209 0.931 . S
C1223 C1222 1.385 . S
C1223 C1224 1.389 . S
C1224 C1223 1.389 . S
C1224 C1225 1.387 . S
C1225 H1210 0.930 . S
C1225 C1220 1.390 . S
C1225 C1224 1.387 . S
H1226 C1238 0.930 . S
H1227 C1240 0.930 . S
H1228 C1241 0.930 . S
H1229 C1245 0.959 . S
H1230 C1245 0.959 1_455 S
H1231 C1245 0.961 . S
H1232 C1246 0.960 . S
H1233 C1246 0.961 . S
H1234 C1246 0.959 . S
H1235 C1249 0.929 . S
H1236 C1250 0.931 . S
H1237 C1252 0.930 . S
C1238 H1226 0.930 . S
C1238 C1239 1.399 . S
C1238 C1243 1.399 . S
C1239 C1238 1.399 . S
C1239 C1240 1.376 . S
C1240 H1227 0.930 . S
C1240 C1239 1.376 . S
C1240 C1241 1.388 . S
C1241 H1228 0.930 . S
C1241 C1240 1.388 . S
C1241 C1242 1.390 . S
C1242 C1241 1.390 . S
C1242 C1243 1.394 . S
C1242 C1248 1.465 . S
C1243 C1238 1.399 . S
C1243 C1242 1.394 . S
C1243 C1244 1.516 . S
C1244 C1243 1.516 . S
C1244 C1245 1.502 . S
C1244 C1246 1.561 . S
C1244 C1247 1.526 . S
C1245 H1229 0.959 . S
C1245 H1230 0.959 1_655 S
C1245 H1231 0.961 . S
C1245 C1244 1.502 . S
C1246 H1232 0.960 . S
C1246 H1233 0.961 . S
C1246 H1234 0.959 . S
C1246 C1244 1.561 . S
C1247 C1244 1.526 . S
C1247 C1248 1.396 . S
C1247 C1252 1.390 1_655 S
C1248 C1242 1.465 . S
C1248 C1247 1.396 . S
C1248 C1249 1.399 . S
C1249 H1235 0.929 . S
C1249 C1248 1.399 . S
C1249 C1250 1.385 1_655 S
C1250 H1236 0.931 . S
C1250 C1249 1.385 1_455 S
C1250 C1251 1.389 . S
C1251 C1250 1.389 . S
C1251 C1252 1.387 . S
C1252 H1237 0.930 . S
C1252 C1247 1.390 1_455 S
C1252 C1251 1.387 . S
H1253 C1265 0.930 . S
H1254 C1267 0.930 . S
H1255 C1268 0.930 . S
H1256 C1272 0.959 . S
H1257 C1272 0.959 . S
H1258 C1272 0.961 . S
H1259 C1273 0.960 . S
H1260 C1273 0.961 . S
H1261 C1273 0.959 . S
H1262 C1276 0.929 . S
H1263 C1277 0.931 . S
H1264 C1279 0.930 . S
C1265 H1253 0.930 . S
C1265 C1266 1.399 . S
C1265 C1270 1.399 . S
C1266 C1265 1.399 . S
C1266 C1267 1.376 . S
C1267 H1254 0.930 . S
C1267 C1266 1.376 . S
C1267 C1268 1.388 . S
C1268 H1255 0.930 . S
C1268 C1267 1.388 . S
C1268 C1269 1.390 . S
C1269 C1268 1.390 . S
C1269 C1270 1.394 . S
C1269 C1275 1.465 . S
C1270 C1265 1.399 . S
C1270 C1269 1.394 . S
C1270 C1271 1.516 . S
C1271 C1270 1.516 . S
C1271 C1272 1.502 . S
C1271 C1273 1.561 . S
C1271 C1274 1.526 . S
C1272 H1256 0.959 . S
C1272 H1257 0.959 . S
C1272 H1258 0.961 . S
C1272 C1271 1.502 . S
C1273 H1259 0.960 . S
C1273 H1260 0.961 . S
C1273 H1261 0.959 . S
C1273 C1271 1.561 . S
C1274 C1271 1.526 . S
C1274 C1275 1.396 . S
C1274 C1279 1.390 . S
C1275 C1269 1.465 . S
C1275 C1274 1.396 . S
C1275 C1276 1.399 . S
C1276 H1262 0.929 . S
C1276 C1275 1.399 . S
C1276 C1277 1.385 . S
C1277 H1263 0.931 . S
C1277 C1276 1.385 . S
C1277 C1278 1.389 . S
C1278 C1277 1.389 . S
C1278 C1279 1.387 . S
C1279 H1264 0.930 . S
C1279 C1274 1.390 . S
C1279 C1278 1.387 . S
H1280 C1292 0.930 . S
H1281 C1294 0.930 . S
H1282 C1295 0.930 . S
H1283 C1299 0.959 . S
H1284 C1299 0.959 . S
H1285 C1299 0.961 . S
H1286 C1300 0.960 . S
H1287 C1300 0.961 . S
H1288 C1300 0.959 . S
H1289 C1303 0.929 . S
H1290 C1304 0.931 . S
H1291 C1306 0.930 . S
C1292 H1280 0.930 . S
C1292 C1293 1.399 . S
C1292 C1297 1.399 . S
C1293 C1292 1.399 . S
C1293 C1294 1.376 . S
C1294 H1281 0.930 . S
C1294 C1293 1.376 . S
C1294 C1295 1.388 . S
C1295 H1282 0.930 . S
C1295 C1294 1.388 . S
C1295 C1296 1.390 . S
C1296 C1295 1.390 . S
C1296 C1297 1.394 . S
C1296 C1302 1.465 . S
C1297 C1292 1.399 . S
C1297 C1296 1.394 . S
C1297 C1298 1.516 . S
C1298 C1297 1.516 . S
C1298 C1299 1.502 . S
C1298 C1300 1.561 . S
C1298 C1301 1.526 . S
C1299 H1283 0.959 . S
C1299 H1284 0.959 . S
C1299 H1285 0.961 . S
C1299 C1298 1.502 . S
C1300 H1286 0.960 . S
C1300 H1287 0.961 . S
C1300 H1288 0.959 . S
C1300 C1298 1.561 . S
C1301 C1298 1.526 . S
C1301 C1302 1.396 . S
C1301 C1306 1.390 . S
C1302 C1296 1.465 . S
C1302 C1301 1.396 . S
C1302 C1303 1.399 . S
C1303 H1289 0.929 . S
C1303 C1302 1.399 . S
C1303 C1304 1.385 . S
C1304 H1290 0.931 . S
C1304 C1303 1.385 . S
C1304 C1305 1.389 . S
C1305 C1304 1.389 . S
C1305 C1306 1.387 . S
C1306 H1291 0.930 . S
C1306 C1301 1.390 . S
C1306 C1305 1.387 . S
H1307 C1319 0.930 . S
H1308 C1321 0.930 . S
H1309 C1322 0.930 . S
H1310 C1326 0.959 . S
H1311 C1326 0.959 . S
H1312 C1326 0.961 . S
H1313 C1327 0.960 . S
H1314 C1327 0.961 . S
H1315 C1327 0.959 . S
H1316 C1330 0.929 . S
H1317 C1331 0.931 1_545 S
H1318 C1333 0.930 . S
C1319 H1307 0.930 . S
C1319 C1320 1.399 . S
C1319 C1324 1.399 . S
C1320 C1319 1.399 . S
C1320 C1321 1.376 . S
C1321 H1308 0.930 . S
C1321 C1320 1.376 . S
C1321 C1322 1.388 . S
C1322 H1309 0.930 . S
C1322 C1321 1.388 . S
C1322 C1323 1.390 . S
C1323 C1322 1.390 . S
C1323 C1324 1.394 . S
C1323 C1329 1.465 . S
C1324 C1319 1.399 . S
C1324 C1323 1.394 . S
C1324 C1325 1.516 . S
C1325 C1324 1.516 . S
C1325 C1326 1.502 . S
C1325 C1327 1.561 . S
C1325 C1328 1.526 . S
C1326 H1310 0.959 . S
C1326 H1311 0.959 . S
C1326 H1312 0.961 . S
C1326 C1325 1.502 . S
C1327 H1313 0.960 . S
C1327 H1314 0.961 . S
C1327 H1315 0.959 . S
C1327 C1325 1.561 . S
C1328 C1325 1.526 . S
C1328 C1329 1.396 . S
C1328 C1333 1.390 . S
C1329 C1323 1.465 . S
C1329 C1328 1.396 . S
C1329 C1330 1.399 . S
C1330 H1316 0.929 . S
C1330 C1329 1.399 . S
C1330 C1331 1.385 . S
C1331 H1317 0.931 1_565 S
C1331 C1330 1.385 . S
C1331 C1332 1.389 . S
C1332 C1331 1.389 . S
C1332 C1333 1.387 . S
C1333 H1318 0.930 . S
C1333 C1328 1.390 . S
C1333 C1332 1.387 . S
H1334 C1346 0.930 . S
H1335 C1348 0.930 . S
H1336 C1349 0.930 . S
H1337 C1353 0.959 . S
H1338 C1353 0.959 . S
H1339 C1353 0.961 . S
H1340 C1354 0.960 . S
H1341 C1354 0.961 . S
H1342 C1354 0.959 . S
H1343 C1357 0.929 . S
H1344 C1358 0.931 . S
H1345 C1360 0.930 . S
C1346 H1334 0.930 . S
C1346 C1347 1.399 . S
C1346 C1351 1.399 . S
C1347 C1346 1.399 . S
C1347 C1348 1.376 . S
C1348 H1335 0.930 . S
C1348 C1347 1.376 . S
C1348 C1349 1.388 . S
C1349 H1336 0.930 . S
C1349 C1348 1.388 . S
C1349 C1350 1.390 . S
C1350 C1349 1.390 . S
C1350 C1351 1.394 . S
C1350 C1356 1.465 . S
C1351 C1346 1.399 . S
C1351 C1350 1.394 . S
C1351 C1352 1.516 . S
C1352 C1351 1.516 . S
C1352 C1353 1.502 . S
C1352 C1354 1.561 . S
C1352 C1355 1.526 . S
C1353 H1337 0.959 . S
C1353 H1338 0.959 . S
C1353 H1339 0.961 . S
C1353 C1352 1.502 . S
C1354 H1340 0.960 . S
C1354 H1341 0.961 . S
C1354 H1342 0.959 . S
C1354 C1352 1.561 . S
C1355 C1352 1.526 . S
C1355 C1356 1.396 . S
C1355 C1360 1.390 . S
C1356 C1350 1.465 . S
C1356 C1355 1.396 . S
C1356 C1357 1.399 . S
C1357 H1343 0.929 . S
C1357 C1356 1.399 . S
C1357 C1358 1.385 . S
C1358 H1344 0.931 . S
C1358 C1357 1.385 . S
C1358 C1359 1.389 . S
C1359 C1358 1.389 . S
C1359 C1360 1.387 . S
C1360 H1345 0.930 . S
C1360 C1355 1.390 . S
C1360 C1359 1.387 . S
H1361 C1373 0.930 . S
H1362 C1375 0.930 . S
H1363 C1376 0.930 . S
H1364 C1380 0.959 . S
H1365 C1380 0.959 . S
H1366 C1380 0.961 . S
H1367 C1381 0.960 . S
H1368 C1381 0.961 . S
H1369 C1381 0.959 . S
H1370 C1384 0.929 . S
H1371 C1385 0.931 . S
H1372 C1387 0.930 . S
C1373 H1361 0.930 . S
C1373 C1374 1.399 . S
C1373 C1378 1.399 . S
C1374 C1373 1.399 . S
C1374 C1375 1.376 . S
C1375 H1362 0.930 . S
C1375 C1374 1.376 . S
C1375 C1376 1.388 . S
C1376 H1363 0.930 . S
C1376 C1375 1.388 . S
C1376 C1377 1.390 . S
C1377 C1376 1.390 . S
C1377 C1378 1.394 . S
C1377 C1383 1.465 . S
C1378 C1373 1.399 . S
C1378 C1377 1.394 . S
C1378 C1379 1.516 . S
C1379 C1378 1.516 . S
C1379 C1380 1.502 . S
C1379 C1381 1.561 . S
C1379 C1382 1.526 . S
C1380 H1364 0.959 . S
C1380 H1365 0.959 . S
C1380 H1366 0.961 . S
C1380 C1379 1.502 . S
C1381 H1367 0.960 . S
C1381 H1368 0.961 . S
C1381 H1369 0.959 . S
C1381 C1379 1.561 . S
C1382 C1379 1.526 . S
C1382 C1383 1.396 . S
C1382 C1387 1.390 . S
C1383 C1377 1.465 . S
C1383 C1382 1.396 . S
C1383 C1384 1.399 . S
C1384 H1370 0.929 . S
C1384 C1383 1.399 . S
C1384 C1385 1.385 . S
C1385 H1371 0.931 . S
C1385 C1384 1.385 . S
C1385 C1386 1.389 . S
C1386 C1385 1.389 . S
C1386 C1387 1.387 . S
C1387 H1372 0.930 . S
C1387 C1382 1.390 . S
C1387 C1386 1.387 . S
H1388 C1400 0.930 . S
H1389 C1402 0.930 . S
H1390 C1403 0.930 . S
H1391 C1407 0.959 . S
H1392 C1407 0.959 . S
H1393 C1407 0.961 . S
H1394 C1408 0.960 . S
H1395 C1408 0.961 . S
H1396 C1408 0.959 . S
H1397 C1411 0.929 . S
H1398 C1412 0.931 . S
H1399 C1414 0.930 . S
C1400 H1388 0.930 . S
C1400 C1401 1.399 . S
C1400 C1405 1.399 . S
C1401 C1400 1.399 . S
C1401 C1402 1.376 . S
C1402 H1389 0.930 . S
C1402 C1401 1.376 . S
C1402 C1403 1.388 . S
C1403 H1390 0.930 . S
C1403 C1402 1.388 . S
C1403 C1404 1.390 . S
C1404 C1403 1.390 . S
C1404 C1405 1.394 . S
C1404 C1410 1.465 . S
C1405 C1400 1.399 . S
C1405 C1404 1.394 . S
C1405 C1406 1.516 . S
C1406 C1405 1.516 . S
C1406 C1407 1.502 . S
C1406 C1408 1.561 . S
C1406 C1409 1.526 . S
C1407 H1391 0.959 . S
C1407 H1392 0.959 . S
C1407 H1393 0.961 . S
C1407 C1406 1.502 . S
C1408 H1394 0.960 . S
C1408 H1395 0.961 . S
C1408 H1396 0.959 . S
C1408 C1406 1.561 . S
C1409 C1406 1.526 . S
C1409 C1410 1.396 . S
C1409 C1414 1.390 . S
C1410 C1404 1.465 . S
C1410 C1409 1.396 . S
C1410 C1411 1.399 . S
C1411 H1397 0.929 . S
C1411 C1410 1.399 . S
C1411 C1412 1.385 . S
C1412 H1398 0.931 . S
C1412 C1411 1.385 . S
C1412 C1413 1.389 . S
C1413 C1412 1.389 . S
C1413 C1414 1.387 . S
C1414 H1399 0.930 . S
C1414 C1409 1.390 . S
C1414 C1413 1.387 . S
H1415 C1427 0.930 . S
H1416 C1429 0.930 . S
H1417 C1430 0.930 . S
H1418 C1434 0.959 . S
H1419 C1434 0.959 . S
H1420 C1434 0.961 . S
H1421 C1435 0.960 . S
H1422 C1435 0.961 . S
H1423 C1435 0.959 . S
H1424 C1438 0.929 . S
H1425 C1439 0.931 . S
H1426 C1441 0.930 . S
C1427 H1415 0.930 . S
C1427 C1428 1.399 . S
C1427 C1432 1.399 . S
C1428 C1427 1.399 . S
C1428 C1429 1.376 1_565 S
C1429 H1416 0.930 . S
C1429 C1428 1.376 1_545 S
C1429 C1430 1.388 . S
C1430 H1417 0.930 . S
C1430 C1429 1.388 . S
C1430 C1431 1.390 . S
C1431 C1430 1.390 . S
C1431 C1432 1.394 1_545 S
C1431 C1437 1.465 . S
C1432 C1427 1.399 . S
C1432 C1431 1.394 1_565 S
C1432 C1433 1.516 . S
C1433 C1432 1.516 . S
C1433 C1434 1.502 . S
C1433 C1435 1.561 . S
C1433 C1436 1.526 . S
C1434 H1418 0.959 . S
C1434 H1419 0.959 . S
C1434 H1420 0.961 . S
C1434 C1433 1.502 . S
C1435 H1421 0.960 . S
C1435 H1422 0.961 . S
C1435 H1423 0.959 . S
C1435 C1433 1.561 . S
C1436 C1433 1.526 . S
C1436 C1437 1.396 1_565 S
C1436 C1441 1.390 . S
C1437 C1431 1.465 . S
C1437 C1436 1.396 1_545 S
C1437 C1438 1.399 . S
C1438 H1424 0.929 . S
C1438 C1437 1.399 . S
C1438 C1439 1.385 . S
C1439 H1425 0.931 . S
C1439 C1438 1.385 . S
C1439 C1440 1.389 . S
C1440 C1439 1.389 . S
C1440 C1441 1.387 1_545 S
C1441 H1426 0.930 . S
C1441 C1436 1.390 . S
C1441 C1440 1.387 1_565 S
H1442 C1454 0.930 . S
H1443 C1456 0.930 . S
H1444 C1457 0.930 . S
H1445 C1461 0.959 . S
H1446 C1461 0.959 . S
H1447 C1461 0.961 . S
H1448 C1462 0.960 . S
H1449 C1462 0.961 . S
H1450 C1462 0.959 . S
H1451 C1465 0.929 . S
H1452 C1466 0.950 . S
H1453 C1468 0.930 . S
C1454 H1442 0.930 . S
C1454 C1455 1.399 . S
C1454 C1459 1.399 . S
C1455 C1454 1.399 . S
C1455 C1456 1.376 . S
C1456 H1443 0.930 . S
C1456 C1455 1.376 . S
C1456 C1457 1.388 . S
C1457 H1444 0.930 . S
C1457 C1456 1.388 . S
C1457 C1458 1.390 . S
C1458 C1457 1.390 . S
C1458 C1459 1.394 . S
C1458 C1464 1.465 . S
C1459 C1454 1.399 . S
C1459 C1458 1.394 . S
C1459 C1460 1.516 . S
C1460 C1459 1.516 . S
C1460 C1461 1.502 . S
C1460 C1462 1.561 . S
C1460 C1463 1.526 . S
C1461 H1445 0.959 . S
C1461 H1446 0.959 . S
C1461 H1447 0.961 . S
C1461 C1460 1.502 . S
C1462 H1448 0.960 . S
C1462 H1449 0.961 . S
C1462 H1450 0.959 . S
C1462 C1460 1.561 . S
C1463 C1460 1.526 . S
C1463 C1464 1.396 . S
C1463 C1468 1.390 1_556 S
C1464 C1458 1.465 . S
C1464 C1463 1.396 . S
C1464 C1465 1.399 . S
C1465 H1451 0.929 . S
C1465 C1464 1.399 . S
C1465 C1466 1.342 1_556 S
C1466 H1452 0.950 . S
C1466 C1465 1.342 1_554 S
C1466 C1467 1.415 . S
C1467 C1466 1.415 . S
C1467 C1468 1.387 . S
C1468 H1453 0.930 . S
C1468 C1463 1.390 1_554 S
C1468 C1467 1.387 . S
H1469 C1481 0.930 1_565 S
H1470 C1483 0.930 . S
H1471 C1484 0.930 . S
H1472 C1488 0.969 . S
H1473 C1488 0.959 . S
H1474 C1488 0.961 1_566 S
H1475 C1489 0.960 1_565 S
H1476 C1489 0.969 . S
H1477 C1489 0.959 . S
H1478 C1492 0.929 1_556 S
H1479 C1493 0.931 . S
H1480 C1495 0.930 . S
C1481 H1469 0.930 1_545 S
C1481 C1482 1.399 . S
C1481 C1486 1.399 . S
C1482 C1481 1.399 . S
C1482 C1483 1.376 . S
C1483 H1470 0.930 . S
C1483 C1482 1.376 . S
C1483 C1484 1.388 . S
C1484 H1471 0.930 . S
C1484 C1483 1.388 . S
C1484 C1485 1.390 . S
C1485 C1484 1.390 . S
C1485 C1486 1.394 . S
C1485 C1491 1.483 . S
C1486 C1481 1.399 . S
C1486 C1485 1.394 . S
C1486 C1487 1.516 1_556 S
C1487 C1486 1.516 1_554 S
C1487 C1488 1.502 . S
C1487 C1489 1.561 . S
C1487 C1490 1.526 . S
C1488 H1472 0.969 . S
C1488 H1473 0.959 . S
C1488 H1474 0.961 1_544 S
C1488 C1487 1.502 . S
C1489 H1475 0.960 1_545 S
C1489 H1476 0.969 . S
C1489 H1477 0.959 . S
C1489 C1487 1.561 . S
C1490 C1487 1.526 . S
C1490 C1491 1.384 1_554 S
C1490 C1495 1.390 . S
C1491 C1485 1.483 . S
C1491 C1490 1.384 1_556 S
C1491 C1492 1.393 1_556 S
C1492 H1478 0.929 1_554 S
C1492 C1491 1.393 1_554 S
C1492 C1493 1.385 . S
C1493 H1479 0.931 . S
C1493 C1492 1.385 . S
C1493 C1494 1.389 . S
C1494 C1493 1.389 . S
C1494 C1495 1.387 . S
C1495 H1480 0.930 . S
C1495 C1490 1.390 . S
C1495 C1494 1.387 . S
H1496 C1508 0.930 . S
H1497 C1510 0.930 . S
H1498 C1511 0.930 . S
H1499 C1515 0.959 . S
H1500 C1515 0.959 . S
H1501 C1515 0.961 . S
H1502 C1516 0.960 . S
H1503 C1516 0.961 . S
H1504 C1516 0.959 . S
H1505 C1519 0.929 . S
H1506 C1520 0.931 . S
H1507 C1522 0.930 . S
C1508 H1496 0.930 . S
C1508 C1509 1.399 . S
C1508 C1513 1.399 . S
C1509 C1508 1.399 . S
C1509 C1510 1.376 . S
C1510 H1497 0.930 . S
C1510 C1509 1.376 . S
C1510 C1511 1.388 . S
C1511 H1498 0.930 . S
C1511 C1510 1.388 . S
C1511 C1512 1.390 . S
C1512 C1511 1.390 . S
C1512 C1513 1.394 . S
C1512 C1518 1.465 . S
C1513 C1508 1.399 . S
C1513 C1512 1.394 . S
C1513 C1514 1.516 . S
C1514 C1513 1.516 . S
C1514 C1515 1.502 . S
C1514 C1516 1.561 . S
C1514 C1517 1.526 . S
C1515 H1499 0.959 . S
C1515 H1500 0.959 . S
C1515 H1501 0.961 . S
C1515 C1514 1.502 . S
C1516 H1502 0.960 . S
C1516 H1503 0.961 . S
C1516 H1504 0.959 . S
C1516 C1514 1.561 . S
C1517 C1514 1.526 . S
C1517 C1518 1.396 . S
C1517 C1522 1.390 . S
C1518 C1512 1.465 . S
C1518 C1517 1.396 . S
C1518 C1519 1.399 . S
C1519 H1505 0.929 . S
C1519 C1518 1.399 . S
C1519 C1520 1.385 . S
C1520 H1506 0.931 . S
C1520 C1519 1.385 . S
C1520 C1521 1.389 . S
C1521 C1520 1.389 . S
C1521 C1522 1.387 . S
C1522 H1507 0.930 . S
C1522 C1517 1.390 . S
C1522 C1521 1.387 . S
H1523 C1535 0.930 . S
H1524 C1537 0.930 . S
H1525 C1538 0.930 . S
H1526 C1542 0.959 . S
H1527 C1542 0.959 . S
H1528 C1542 0.961 . S
H1529 C1543 0.960 . S
H1530 C1543 0.961 . S
H1531 C1543 0.959 . S
H1532 C1546 0.929 . S
H1533 C1547 0.931 . S
H1534 C1549 0.930 . S
C1535 H1523 0.930 . S
C1535 C1536 1.399 . S
C1535 C1540 1.399 . S
C1536 C1535 1.399 . S
C1536 C1537 1.376 1_556 S
C1537 H1524 0.930 . S
C1537 C1536 1.376 1_554 S
C1537 C1538 1.388 . S
C1538 H1525 0.930 . S
C1538 C1537 1.388 . S
C1538 C1539 1.387 1_554 S
C1539 C1538 1.387 1_556 S
C1539 C1540 1.397 . S
C1539 C1545 1.465 1_556 S
C1540 C1535 1.399 . S
C1540 C1539 1.397 . S
C1540 C1541 1.516 . S
C1541 C1540 1.516 . S
C1541 C1542 1.502 . S
C1541 C1543 1.561 . S
C1541 C1544 1.526 . S
C1542 H1526 0.959 . S
C1542 H1527 0.959 . S
C1542 H1528 0.961 . S
C1542 C1541 1.502 . S
C1543 H1529 0.960 . S
C1543 H1530 0.961 . S
C1543 H1531 0.959 . S
C1543 C1541 1.561 . S
C1544 C1541 1.526 . S
C1544 C1545 1.396 1_556 S
C1544 C1549 1.390 . S
C1545 C1539 1.465 1_554 S
C1545 C1544 1.396 1_554 S
C1545 C1546 1.399 . S
C1546 H1532 0.929 . S
C1546 C1545 1.399 . S
C1546 C1547 1.385 . S
C1547 H1533 0.931 . S
C1547 C1546 1.385 . S
C1547 C1548 1.393 . S
C1548 C1547 1.393 . S
C1548 C1549 1.384 1_554 S
C1549 H1534 0.930 . S
C1549 C1544 1.390 . S
C1549 C1548 1.384 1_556 S
H1550 C1562 0.930 . S
H1551 C1564 0.930 . S
H1552 C1565 0.930 . S
H1553 C1569 0.959 . S
H1554 C1569 0.959 . S
H1555 C1569 0.961 . S
H1556 C1570 0.960 . S
H1557 C1570 0.961 . S
H1558 C1570 0.959 1_554 S
H1559 C1573 0.929 . S
H1560 C1574 0.931 . S
H1561 C1576 0.930 1_556 S
C1562 H1550 0.930 . S
C1562 C1563 1.399 . S
C1562 C1567 1.399 . S
C1563 C1562 1.399 . S
C1563 C1564 1.376 1_556 S
C1564 H1551 0.930 . S
C1564 C1563 1.376 1_554 S
C1564 C1565 1.388 . S
C1565 H1552 0.930 . S
C1565 C1564 1.388 . S
C1565 C1566 1.390 . S
C1566 C1565 1.390 . S
C1566 C1567 1.394 1_554 S
C1566 C1572 1.465 . S
C1567 C1562 1.399 . S
C1567 C1566 1.394 1_556 S
C1567 C1568 1.516 . S
C1568 C1567 1.516 . S
C1568 C1569 1.502 . S
C1568 C1570 1.561 . S
C1568 C1571 1.526 1_556 S
C1569 H1553 0.959 . S
C1569 H1554 0.959 . S
C1569 H1555 0.961 . S
C1569 C1568 1.502 . S
C1570 H1556 0.960 . S
C1570 H1557 0.961 . S
C1570 H1558 0.959 1_556 S
C1570 C1568 1.561 . S
C1571 C1568 1.526 1_554 S
C1571 C1572 1.396 . S
C1571 C1576 1.390 . S
C1572 C1566 1.465 . S
C1572 C1571 1.396 . S
C1572 C1573 1.399 . S
C1573 H1559 0.929 . S
C1573 C1572 1.399 . S
C1573 C1574 1.385 . S
C1574 H1560 0.931 . S
C1574 C1573 1.385 . S
C1574 C1575 1.389 . S
C1575 C1574 1.389 . S
C1575 C1576 1.387 . S
C1576 H1561 0.930 1_554 S
C1576 C1571 1.390 . S
C1576 C1575 1.387 . S
H1577 C1589 0.930 . S
H1578 C1591 0.930 . S
H1579 C1592 0.930 . S
H1580 C1596 0.959 . S
H1581 C1596 0.959 . S
H1582 C1596 0.961 . S
H1583 C1597 0.997 . S
H1584 C1597 0.973 . S
H1585 C1597 0.949 1_554 S
H1586 C1600 0.929 . S
H1587 C1601 0.931 . S
H1588 C1603 0.930 . S
C1589 H1577 0.930 . S
C1589 C1590 1.399 . S
C1589 C1594 1.399 1_655 S
C1590 C1589 1.399 . S
C1590 C1591 1.376 . S
C1591 H1578 0.930 . S
C1591 C1590 1.376 . S
C1591 C1592 1.388 1_655 S
C1592 H1579 0.930 . S
C1592 C1591 1.388 1_455 S
C1592 C1593 1.390 . S
C1593 C1592 1.390 . S
C1593 C1594 1.394 . S
C1593 C1599 1.465 . S
C1594 C1589 1.399 1_455 S
C1594 C1593 1.394 . S
C1594 C1595 1.516 . S
C1595 C1594 1.516 . S
C1595 C1596 1.502 . S
C1595 C1597 1.525 1_554 S
C1595 C1598 1.526 . S
C1596 H1580 0.959 . S
C1596 H1581 0.959 . S
C1596 H1582 0.961 . S
C1596 C1595 1.502 . S
C1597 H1583 0.997 . S
C1597 H1584 0.973 . S
C1597 H1585 0.949 1_556 S
C1597 C1595 1.525 1_556 S
C1598 C1595 1.526 . S
C1598 C1599 1.396 . S
C1598 C1603 1.390 . S
C1599 C1593 1.465 . S
C1599 C1598 1.396 . S
C1599 C1600 1.399 . S
C1600 H1586 0.929 . S
C1600 C1599 1.399 . S
C1600 C1601 1.385 . S
C1601 H1587 0.931 . S
C1601 C1600 1.385 . S
C1601 C1602 1.389 . S
C1602 C1601 1.389 . S
C1602 C1603 1.387 . S
C1603 H1588 0.930 . S
C1603 C1598 1.390 . S
C1603 C1602 1.387 . S
H1604 C1616 0.930 . S
H1605 C1618 0.930 . S
H1606 C1619 0.930 . S
H1607 C1623 0.959 . S
H1608 C1623 0.959 . S
H1609 C1623 0.961 . S
H1610 C1624 0.960 . S
H1611 C1624 0.961 . S
H1612 C1624 0.959 . S
H1613 C1627 0.929 . S
H1614 C1628 0.931 . S
H1615 C1630 0.930 . S
C1616 H1604 0.930 . S
C1616 C1617 1.399 . S
C1616 C1621 1.399 . S
C1617 C1616 1.399 . S
C1617 C1618 1.376 . S
C1618 H1605 0.930 . S
C1618 C1617 1.376 . S
C1618 C1619 1.388 . S
C1619 H1606 0.930 . S
C1619 C1618 1.388 . S
C1619 C1620 1.390 . S
C1620 C1619 1.390 . S
C1620 C1621 1.394 . S
C1620 C1626 1.465 . S
C1621 C1616 1.399 . S
C1621 C1620 1.394 . S
C1621 C1622 1.516 . S
C1622 C1621 1.516 . S
C1622 C1623 1.502 . S
C1622 C1624 1.561 . S
C1622 C1625 1.526 . S
C1623 H1607 0.959 . S
C1623 H1608 0.959 . S
C1623 H1609 0.961 . S
C1623 C1622 1.502 . S
C1624 H1610 0.960 . S
C1624 H1611 0.961 . S
C1624 H1612 0.959 . S
C1624 C1622 1.561 . S
C1625 C1622 1.526 . S
C1625 C1626 1.396 . S
C1625 C1630 1.390 . S
C1626 C1620 1.465 . S
C1626 C1625 1.396 . S
C1626 C1627 1.399 . S
C1627 H1613 0.929 . S
C1627 C1626 1.399 . S
C1627 C1628 1.385 . S
C1628 H1614 0.931 . S
C1628 C1627 1.385 . S
C1628 C1629 1.389 . S
C1629 C1628 1.389 . S
C1629 C1630 1.387 . S
C1630 H1615 0.930 . S
C1630 C1625 1.390 . S
C1630 C1629 1.387 . S
H1631 C1643 0.930 . S
H1632 C1645 0.930 . S
H1633 C1646 0.930 . S
H1634 C1650 0.959 . S
H1635 C1650 0.959 . S
H1636 C1650 0.961 . S
H1637 C1651 0.960 . S
H1638 C1651 0.961 . S
H1639 C1651 0.959 . S
H1640 C1654 0.929 . S
H1641 C1655 0.931 . S
H1642 C1657 0.930 . S
C1643 H1631 0.930 . S
C1643 C1644 1.399 . S
C1643 C1648 1.399 . S
C1644 C1643 1.399 . S
C1644 C1645 1.376 1_455 S
C1645 H1632 0.930 . S
C1645 C1644 1.376 1_655 S
C1645 C1646 1.388 . S
C1646 H1633 0.930 . S
C1646 C1645 1.388 . S
C1646 C1647 1.390 . S
C1647 C1646 1.390 . S
C1647 C1648 1.394 1_655 S
C1647 C1653 1.465 . S
C1648 C1643 1.399 . S
C1648 C1647 1.394 1_455 S
C1648 C1649 1.516 . S
C1649 C1648 1.516 . S
C1649 C1650 1.502 . S
C1649 C1651 1.561 . S
C1649 C1652 1.526 . S
C1650 H1634 0.959 . S
C1650 H1635 0.959 . S
C1650 H1636 0.961 . S
C1650 C1649 1.502 . S
C1651 H1637 0.960 . S
C1651 H1638 0.961 . S
C1651 H1639 0.959 . S
C1651 C1649 1.561 . S
C1652 C1649 1.526 . S
C1652 C1653 1.396 1_455 S
C1652 C1657 1.390 . S
C1653 C1647 1.465 . S
C1653 C1652 1.396 1_655 S
C1653 C1654 1.399 . S
C1654 H1640 0.929 . S
C1654 C1653 1.399 . S
C1654 C1655 1.385 . S
C1655 H1641 0.931 . S
C1655 C1654 1.385 . S
C1655 C1656 1.389 1_655 S
C1656 C1655 1.389 1_455 S
C1656 C1657 1.387 . S
C1657 H1642 0.930 . S
C1657 C1652 1.390 . S
C1657 C1656 1.387 . S
H1658 C1670 0.930 . S
H1659 C1672 0.930 . S
H1660 C1673 0.930 . S
H1661 C1677 0.959 . S
H1662 C1677 0.959 . S
H1663 C1677 0.961 . S
H1664 C1678 0.960 . S
H1665 C1678 0.961 . S
H1666 C1678 0.959 . S
H1667 C1681 0.929 . S
H1668 C1682 0.931 . S
H1669 C1684 0.930 . S
C1670 H1658 0.930 . S
C1670 C1671 1.399 . S
C1670 C1675 1.399 . S
C1671 C1670 1.399 . S
C1671 C1672 1.376 . S
C1672 H1659 0.930 . S
C1672 C1671 1.376 . S
C1672 C1673 1.388 . S
C1673 H1660 0.930 . S
C1673 C1672 1.388 . S
C1673 C1674 1.390 . S
C1674 C1673 1.390 . S
C1674 C1675 1.394 . S
C1674 C1680 1.465 . S
C1675 C1670 1.399 . S
C1675 C1674 1.394 . S
C1675 C1676 1.516 . S
C1676 C1675 1.516 . S
C1676 C1677 1.502 1_455 S
C1676 C1678 1.561 . S
C1676 C1679 1.526 . S
C1677 H1661 0.959 . S
C1677 H1662 0.959 . S
C1677 H1663 0.961 . S
C1677 C1676 1.502 1_655 S
C1678 H1664 0.960 . S
C1678 H1665 0.961 . S
C1678 H1666 0.959 . S
C1678 C1676 1.561 . S
C1679 C1676 1.526 . S
C1679 C1680 1.396 . S
C1679 C1684 1.390 . S
C1680 C1674 1.465 . S
C1680 C1679 1.396 . S
C1680 C1681 1.399 . S
C1681 H1667 0.929 . S
C1681 C1680 1.399 . S
C1681 C1682 1.385 . S
C1682 H1668 0.931 . S
C1682 C1681 1.385 . S
C1682 C1683 1.389 . S
C1683 C1682 1.389 . S
C1683 C1684 1.387 . S
C1684 H1669 0.930 . S
C1684 C1679 1.390 . S
C1684 C1683 1.387 . S
H1685 C1697 0.930 . S
H1686 C1699 0.930 . S
H1687 C1700 0.930 . S
H1688 C1704 0.959 . S
H1689 C1704 0.959 . S
H1690 C1704 0.961 . S
H1691 C1705 0.960 . S
H1692 C1705 0.961 . S
H1693 C1705 0.959 1_455 S
H1694 C1708 0.929 . S
H1695 C1709 0.931 . S
H1696 C1711 0.930 1_655 S
C1697 H1685 0.930 . S
C1697 C1698 1.399 . S
C1697 C1702 1.399 . S
C1698 C1697 1.399 . S
C1698 C1699 1.376 1_655 S
C1699 H1686 0.930 . S
C1699 C1698 1.376 1_455 S
C1699 C1700 1.388 . S
C1700 H1687 0.930 . S
C1700 C1699 1.388 . S
C1700 C1701 1.390 . S
C1701 C1700 1.390 . S
C1701 C1702 1.394 1_455 S
C1701 C1707 1.465 . S
C1702 C1697 1.399 . S
C1702 C1701 1.394 1_655 S
C1702 C1703 1.516 . S
C1703 C1702 1.516 . S
C1703 C1704 1.502 . S
C1703 C1705 1.561 . S
C1703 C1706 1.526 1_655 S
C1704 H1688 0.959 . S
C1704 H1689 0.959 . S
C1704 H1690 0.961 . S
C1704 C1703 1.502 . S
C1705 H1691 0.960 . S
C1705 H1692 0.961 . S
C1705 H1693 0.959 1_655 S
C1705 C1703 1.561 . S
C1706 C1703 1.526 1_455 S
C1706 C1707 1.396 . S
C1706 C1711 1.390 . S
C1707 C1701 1.465 . S
C1707 C1706 1.396 . S
C1707 C1708 1.399 . S
C1708 H1694 0.929 . S
C1708 C1707 1.399 . S
C1708 C1709 1.385 . S
C1709 H1695 0.931 . S
C1709 C1708 1.385 . S
C1709 C1710 1.389 . S
C1710 C1709 1.389 . S
C1710 C1711 1.387 . S
C1711 H1696 0.930 1_455 S
C1711 C1706 1.390 . S
C1711 C1710 1.387 . S
H1712 C1724 0.930 . S
H1713 C1726 0.904 1_565 S
H1714 C1727 0.930 . S
H1715 C1731 0.959 . S
H1716 C1731 0.959 . S
H1717 C1731 0.961 . S
H1718 C1732 0.960 . S
H1719 C1732 0.961 . S
H1720 C1732 0.959 . S
H1721 C1735 0.929 . S
H1722 C1736 0.931 . S
H1723 C1738 0.930 . S
C1724 H1712 0.930 . S
C1724 C1725 1.399 . S
C1724 C1729 1.399 . S
C1725 C1724 1.399 . S
C1725 C1726 1.376 . S
C1726 H1713 0.904 1_545 S
C1726 C1725 1.376 . S
C1726 C1727 1.388 . S
C1727 H1714 0.930 . S
C1727 C1726 1.388 . S
C1727 C1728 1.390 . S
C1728 C1727 1.390 . S
C1728 C1729 1.394 . S
C1728 C1734 1.465 . S
C1729 C1724 1.399 . S
C1729 C1728 1.394 . S
C1729 C1730 1.516 . S
C1730 C1729 1.516 . S
C1730 C1731 1.502 . S
C1730 C1732 1.561 . S
C1730 C1733 1.526 . S
C1731 H1715 0.959 . S
C1731 H1716 0.959 . S
C1731 H1717 0.961 . S
C1731 C1730 1.502 . S
C1732 H1718 0.960 . S
C1732 H1719 0.961 . S
C1732 H1720 0.959 . S
C1732 C1730 1.561 . S
C1733 C1730 1.526 . S
C1733 C1734 1.396 . S
C1733 C1738 1.390 . S
C1734 C1728 1.465 . S
C1734 C1733 1.396 . S
C1734 C1735 1.399 . S
C1735 H1721 0.929 . S
C1735 C1734 1.399 . S
C1735 C1736 1.385 . S
C1736 H1722 0.931 . S
C1736 C1735 1.385 . S
C1736 C1737 1.389 . S
C1737 C1736 1.389 . S
C1737 C1738 1.387 . S
C1738 H1723 0.930 . S
C1738 C1733 1.390 . S
C1738 C1737 1.387 . S
H1739 C1751 0.930 . S
H1740 C1753 0.930 . S
H1741 C1754 0.930 . S
H1742 C1758 0.959 . S
H1743 C1758 0.959 . S
H1744 C1758 0.961 . S
H1745 C1759 0.960 . S
H1746 C1759 0.961 . S
H1747 C1759 0.959 . S
H1748 C1762 0.929 . S
H1749 C1763 0.931 . S
H1750 C1765 0.930 . S
C1751 H1739 0.930 . S
C1751 C1752 1.399 . S
C1751 C1756 1.399 . S
C1752 C1751 1.399 . S
C1752 C1753 1.376 . S
C1753 H1740 0.930 . S
C1753 C1752 1.376 . S
C1753 C1754 1.388 . S
C1754 H1741 0.930 . S
C1754 C1753 1.388 . S
C1754 C1755 1.390 . S
C1755 C1754 1.390 . S
C1755 C1756 1.394 . S
C1755 C1761 1.465 . S
C1756 C1751 1.399 . S
C1756 C1755 1.394 . S
C1756 C1757 1.516 . S
C1757 C1756 1.516 . S
C1757 C1758 1.502 . S
C1757 C1759 1.561 . S
C1757 C1760 1.526 . S
C1758 H1742 0.959 . S
C1758 H1743 0.959 . S
C1758 H1744 0.961 . S
C1758 C1757 1.502 . S
C1759 H1745 0.960 . S
C1759 H1746 0.961 . S
C1759 H1747 0.959 . S
C1759 C1757 1.561 . S
C1760 C1757 1.526 . S
C1760 C1761 1.396 . S
C1760 C1765 1.390 . S
C1761 C1755 1.465 . S
C1761 C1760 1.396 . S
C1761 C1762 1.399 . S
C1762 H1748 0.929 . S
C1762 C1761 1.399 . S
C1762 C1763 1.385 . S
C1763 H1749 0.931 . S
C1763 C1762 1.385 . S
C1763 C1764 1.389 . S
C1764 C1763 1.389 . S
C1764 C1765 1.387 . S
C1765 H1750 0.930 . S
C1765 C1760 1.390 . S
C1765 C1764 1.387 . S
H1766 C1778 0.930 . S
H1767 C1780 0.930 . S
H1768 C1781 0.930 . S
H1769 C1785 0.959 . S
H1770 C1785 0.959 . S
H1771 C1785 0.961 . S
H1772 C1786 0.960 . S
H1773 C1786 0.961 . S
H1774 C1786 0.959 . S
H1775 C1789 0.929 . S
H1776 C1790 0.931 . S
H1777 C1792 0.930 . S
C1778 H1766 0.930 . S
C1778 C1779 1.399 . S
C1778 C1783 1.399 . S
C1779 C1778 1.399 . S
C1779 C1780 1.376 1_565 S
C1780 H1767 0.930 . S
C1780 C1779 1.376 1_545 S
C1780 C1781 1.388 . S
C1781 H1768 0.930 . S
C1781 C1780 1.388 . S
C1781 C1782 1.390 . S
C1782 C1781 1.390 . S
C1782 C1783 1.394 1_545 S
C1782 C1788 1.465 . S
C1783 C1778 1.399 . S
C1783 C1782 1.394 1_565 S
C1783 C1784 1.516 . S
C1784 C1783 1.516 . S
C1784 C1785 1.502 . S
C1784 C1786 1.561 . S
C1784 C1787 1.526 . S
C1785 H1769 0.959 . S
C1785 H1770 0.959 . S
C1785 H1771 0.961 . S
C1785 C1784 1.502 . S
C1786 H1772 0.960 . S
C1786 H1773 0.961 . S
C1786 H1774 0.959 . S
C1786 C1784 1.561 . S
C1787 C1784 1.526 . S
C1787 C1788 1.396 1_565 S
C1787 C1792 1.390 . S
C1788 C1782 1.465 . S
C1788 C1787 1.396 1_545 S
C1788 C1789 1.399 . S
C1789 H1775 0.929 . S
C1789 C1788 1.399 . S
C1789 C1790 1.385 . S
C1790 H1776 0.931 . S
C1790 C1789 1.385 . S
C1790 C1791 1.389 1_545 S
C1791 C1790 1.389 1_565 S
C1791 C1792 1.387 . S
C1792 H1777 0.930 . S
C1792 C1787 1.390 . S
C1792 C1791 1.387 . S
H1793 C1805 0.930 . S
H1794 C1807 0.930 . S
H1795 C1808 0.930 . S
H1796 C1812 0.959 . S
H1797 C1812 0.959 . S
H1798 C1812 0.961 . S
H1799 C1813 0.960 . S
H1800 C1813 0.961 . S
H1801 C1813 0.959 . S
H1802 C1816 0.929 . S
H1803 C1817 0.931 . S
H1804 C1819 0.930 . S
C1805 H1793 0.930 . S
C1805 C1806 1.399 . S
C1805 C1810 1.399 . S
C1806 C1805 1.399 . S
C1806 C1807 1.376 . S
C1807 H1794 0.930 . S
C1807 C1806 1.376 . S
C1807 C1808 1.388 . S
C1808 H1795 0.930 . S
C1808 C1807 1.388 . S
C1808 C1809 1.390 . S
C1809 C1808 1.390 . S
C1809 C1810 1.394 . S
C1809 C1815 1.465 . S
C1810 C1805 1.399 . S
C1810 C1809 1.394 . S
C1810 C1811 1.516 . S
C1811 C1810 1.516 . S
C1811 C1812 1.502 . S
C1811 C1813 1.561 . S
C1811 C1814 1.526 . S
C1812 H1796 0.959 . S
C1812 H1797 0.959 . S
C1812 H1798 0.961 . S
C1812 C1811 1.502 . S
C1813 H1799 0.960 . S
C1813 H1800 0.961 . S
C1813 H1801 0.959 . S
C1813 C1811 1.561 . S
C1814 C1811 1.526 . S
C1814 C1815 1.396 . S
C1814 C1819 1.390 . S
C1815 C1809 1.465 . S
C1815 C1814 1.396 . S
C1815 C1816 1.399 . S
C1816 H1802 0.929 . S
C1816 C1815 1.399 . S
C1816 C1817 1.385 . S
C1817 H1803 0.931 . S
C1817 C1816 1.385 . S
C1817 C1818 1.389 . S
C1818 C1817 1.389 . S
C1818 C1819 1.387 . S
C1819 H1804 0.930 . S
C1819 C1814 1.390 . S
C1819 C1818 1.387 . S
H1820 C1832 0.930 . S
H1821 C1834 0.930 . S
H1822 C1835 0.930 . S
H1823 C1839 0.959 . S
H1824 C1839 0.959 . S
H1825 C1839 0.961 . S
H1826 C1840 0.960 . S
H1827 C1840 0.961 . S
H1828 C1840 0.959 . S
H1829 C1843 0.929 . S
H1830 C1844 0.908 1_556 S
H1831 C1846 0.930 . S
C1832 H1820 0.930 . S
C1832 C1833 1.399 . S
C1832 C1837 1.399 . S
C1833 C1832 1.399 . S
C1833 C1834 1.376 1_554 S
C1834 H1821 0.930 . S
C1834 C1833 1.376 1_556 S
C1834 C1835 1.388 . S
C1835 H1822 0.930 . S
C1835 C1834 1.388 . S
C1835 C1836 1.390 1_556 S
C1836 C1835 1.390 1_554 S
C1836 C1837 1.394 . S
C1836 C1842 1.465 . S
C1837 C1832 1.399 . S
C1837 C1836 1.394 . S
C1837 C1838 1.516 . S
C1838 C1837 1.516 . S
C1838 C1839 1.502 . S
C1838 C1840 1.561 . S
C1838 C1841 1.526 . S
C1839 H1823 0.959 . S
C1839 H1824 0.959 . S
C1839 H1825 0.961 . S
C1839 C1838 1.502 . S
C1840 H1826 0.960 . S
C1840 H1827 0.961 . S
C1840 H1828 0.959 . S
C1840 C1838 1.561 . S
C1841 C1838 1.526 . S
C1841 C1842 1.396 . S
C1841 C1846 1.390 . S
C1842 C1836 1.465 . S
C1842 C1841 1.396 . S
C1842 C1843 1.399 1_554 S
C1843 H1829 0.929 . S
C1843 C1842 1.399 1_556 S
C1843 C1844 1.377 1_556 S
C1844 H1830 0.908 1_554 S
C1844 C1843 1.377 1_554 S
C1844 C1845 1.420 . S
C1845 C1844 1.420 . S
C1845 C1846 1.387 . S
C1846 H1831 0.930 . S
C1846 C1841 1.390 . S
C1846 C1845 1.387 . S
H1847 C1859 0.930 . S
H1848 C1861 0.930 . S
H1849 C1862 0.930 . S
H1850 C1866 0.959 . S
H1851 C1866 0.959 . S
H1852 C1866 0.961 . S
H1853 C1867 0.960 . S
H1854 C1867 0.961 . S
H1855 C1867 0.959 . S
H1856 C1870 0.929 . S
H1857 C1871 0.931 . S
H1858 C1873 0.930 . S
C1859 H1847 0.930 . S
C1859 C1860 1.399 . S
C1859 C1864 1.399 . S
C1860 C1859 1.399 . S
C1860 C1861 1.376 . S
C1861 H1848 0.930 . S
C1861 C1860 1.376 . S
C1861 C1862 1.388 . S
C1862 H1849 0.930 . S
C1862 C1861 1.388 . S
C1862 C1863 1.390 . S
C1863 C1862 1.390 . S
C1863 C1864 1.394 . S
C1863 C1869 1.465 . S
C1864 C1859 1.399 . S
C1864 C1863 1.394 . S
C1864 C1865 1.516 . S
C1865 C1864 1.516 . S
C1865 C1866 1.502 . S
C1865 C1867 1.561 . S
C1865 C1868 1.526 . S
C1866 H1850 0.959 . S
C1866 H1851 0.959 . S
C1866 H1852 0.961 . S
C1866 C1865 1.502 . S
C1867 H1853 0.960 . S
C1867 H1854 0.961 . S
C1867 H1855 0.959 . S
C1867 C1865 1.561 . S
C1868 C1865 1.526 . S
C1868 C1869 1.396 . S
C1868 C1873 1.390 . S
C1869 C1863 1.465 . S
C1869 C1868 1.396 . S
C1869 C1870 1.399 . S
C1870 H1856 0.929 . S
C1870 C1869 1.399 . S
C1870 C1871 1.385 . S
C1871 H1857 0.931 . S
C1871 C1870 1.385 . S
C1871 C1872 1.389 . S
C1872 C1871 1.389 . S
C1872 C1873 1.387 . S
C1873 H1858 0.930 . S
C1873 C1868 1.390 . S
C1873 C1872 1.387 . S
H1874 C1886 0.930 . S
H1875 C1888 0.930 . S
H1876 C1889 0.930 . S
H1877 C1893 0.959 . S
H1878 C1893 0.959 . S
H1879 C1893 0.961 . S
H1880 C1894 0.960 . S
H1881 C1894 0.961 . S
H1882 C1894 0.959 . S
H1883 C1897 0.929 . S
H1884 C1898 0.931 1_455 S
H1885 C1900 0.930 . S
C1886 H1874 0.930 . S
C1886 C1887 1.399 . S
C1886 C1891 1.399 . S
C1887 C1886 1.399 . S
C1887 C1888 1.376 . S
C1888 H1875 0.930 . S
C1888 C1887 1.376 . S
C1888 C1889 1.388 . S
C1889 H1876 0.930 . S
C1889 C1888 1.388 . S
C1889 C1890 1.390 . S
C1890 C1889 1.390 . S
C1890 C1891 1.394 . S
C1890 C1896 1.465 . S
C1891 C1886 1.399 . S
C1891 C1890 1.394 . S
C1891 C1892 1.516 . S
C1892 C1891 1.516 . S
C1892 C1893 1.502 . S
C1892 C1894 1.561 . S
C1892 C1895 1.526 . S
C1893 H1877 0.959 . S
C1893 H1878 0.959 . S
C1893 H1879 0.961 . S
C1893 C1892 1.502 . S
C1894 H1880 0.960 . S
C1894 H1881 0.961 . S
C1894 H1882 0.959 . S
C1894 C1892 1.561 . S
C1895 C1892 1.526 . S
C1895 C1896 1.396 . S
C1895 C1900 1.390 . S
C1896 C1890 1.465 . S
C1896 C1895 1.396 . S
C1896 C1897 1.399 . S
C1897 H1883 0.929 . S
C1897 C1896 1.399 . S
C1897 C1898 1.385 . S
C1898 H1884 0.931 1_655 S
C1898 C1897 1.385 . S
C1898 C1899 1.389 . S
C1899 C1898 1.389 . S
C1899 C1900 1.387 . S
C1900 H1885 0.930 . S
C1900 C1895 1.390 . S
C1900 C1899 1.387 . S
H1901 C1913 0.930 . S
H1902 C1915 0.930 . S
H1903 C1916 0.930 . S
H1904 C1920 0.959 . S
H1905 C1920 0.959 . S
H1906 C1920 0.961 . S
H1907 C1921 0.960 . S
H1908 C1921 0.961 . S
H1909 C1921 0.959 . S
H1910 C1924 0.929 . S
H1911 C1925 0.931 . S
H1912 C1927 0.930 . S
C1913 H1901 0.930 . S
C1913 C1914 1.399 . S
C1913 C1918 1.399 . S
C1914 C1913 1.399 . S
C1914 C1915 1.376 . S
C1915 H1902 0.930 . S
C1915 C1914 1.376 . S
C1915 C1916 1.388 . S
C1916 H1903 0.930 . S
C1916 C1915 1.388 . S
C1916 C1917 1.390 . S
C1917 C1916 1.390 . S
C1917 C1918 1.394 . S
C1917 C1923 1.465 . S
C1918 C1913 1.399 . S
C1918 C1917 1.394 . S
C1918 C1919 1.516 . S
C1919 C1918 1.516 . S
C1919 C1920 1.502 . S
C1919 C1921 1.561 . S
C1919 C1922 1.526 . S
C1920 H1904 0.959 . S
C1920 H1905 0.959 . S
C1920 H1906 0.961 . S
C1920 C1919 1.502 . S
C1921 H1907 0.960 . S
C1921 H1908 0.961 . S
C1921 H1909 0.959 . S
C1921 C1919 1.561 . S
C1922 C1919 1.526 . S
C1922 C1923 1.396 . S
C1922 C1927 1.390 . S
C1923 C1917 1.465 . S
C1923 C1922 1.396 . S
C1923 C1924 1.399 . S
C1924 H1910 0.929 . S
C1924 C1923 1.399 . S
C1924 C1925 1.385 . S
C1925 H1911 0.931 . S
C1925 C1924 1.385 . S
C1925 C1926 1.389 . S
C1926 C1925 1.389 . S
C1926 C1927 1.387 . S
C1927 H1912 0.930 . S
C1927 C1922 1.390 . S
C1927 C1926 1.387 . S
H1928 C1940 0.930 . S
H1929 C1942 0.930 . S
H1930 C1943 0.930 . S
H1931 C1947 0.959 . S
H1932 C1947 0.959 . S
H1933 C1947 0.961 . S
H1934 C1948 0.960 . S
H1935 C1948 0.961 . S
H1936 C1948 0.959 . S
H1937 C1951 0.929 . S
H1938 C1952 0.931 . S
H1939 C1954 0.930 . S
C1940 H1928 0.930 . S
C1940 C1941 1.399 . S
C1940 C1945 1.399 . S
C1941 C1940 1.399 . S
C1941 C1942 1.376 . S
C1942 H1929 0.930 . S
C1942 C1941 1.376 . S
C1942 C1943 1.388 . S
C1943 H1930 0.930 . S
C1943 C1942 1.388 . S
C1943 C1944 1.390 . S
C1944 C1943 1.390 . S
C1944 C1945 1.394 . S
C1944 C1950 1.465 . S
C1945 C1940 1.399 . S
C1945 C1944 1.394 . S
C1945 C1946 1.516 . S
C1946 C1945 1.516 . S
C1946 C1947 1.502 . S
C1946 C1948 1.561 . S
C1946 C1949 1.526 . S
C1947 H1931 0.959 . S
C1947 H1932 0.959 . S
C1947 H1933 0.961 . S
C1947 C1946 1.502 . S
C1948 H1934 0.960 . S
C1948 H1935 0.961 . S
C1948 H1936 0.959 . S
C1948 C1946 1.561 . S
C1949 C1946 1.526 . S
C1949 C1950 1.396 . S
C1949 C1954 1.390 . S
C1950 C1944 1.465 . S
C1950 C1949 1.396 . S
C1950 C1951 1.399 . S
C1951 H1937 0.929 . S
C1951 C1950 1.399 . S
C1951 C1952 1.385 . S
C1952 H1938 0.931 . S
C1952 C1951 1.385 . S
C1952 C1953 1.389 . S
C1953 C1952 1.389 . S
C1953 C1954 1.387 . S
C1954 H1939 0.930 . S
C1954 C1949 1.390 . S
C1954 C1953 1.387 . S
H1955 C1967 0.930 . S
H1956 C1969 0.930 . S
H1957 C1970 0.930 . S
H1958 C1974 0.959 . S
H1959 C1974 0.959 . S
H1960 C1974 0.961 . S
H1961 C1975 0.960 . S
H1962 C1975 0.961 . S
H1963 C1975 0.959 . S
H1964 C1978 0.929 . S
H1965 C1979 0.931 . S
H1966 C1981 0.930 . S
C1967 H1955 0.930 . S
C1967 C1968 1.399 . S
C1967 C1972 1.399 . S
C1968 C1967 1.399 . S
C1968 C1969 1.376 . S
C1969 H1956 0.930 . S
C1969 C1968 1.376 . S
C1969 C1970 1.388 . S
C1970 H1957 0.930 . S
C1970 C1969 1.388 . S
C1970 C1971 1.390 . S
C1971 C1970 1.390 . S
C1971 C1972 1.394 . S
C1971 C1977 1.465 . S
C1972 C1967 1.399 . S
C1972 C1971 1.394 . S
C1972 C1973 1.516 . S
C1973 C1972 1.516 . S
C1973 C1974 1.502 . S
C1973 C1975 1.561 . S
C1973 C1976 1.526 . S
C1974 H1958 0.959 . S
C1974 H1959 0.959 . S
C1974 H1960 0.961 . S
C1974 C1973 1.502 . S
C1975 H1961 0.960 . S
C1975 H1962 0.961 . S
C1975 H1963 0.959 . S
C1975 C1973 1.561 . S
C1976 C1973 1.526 . S
C1976 C1977 1.396 . S
C1976 C1981 1.390 . S
C1977 C1971 1.465 . S
C1977 C1976 1.396 . S
C1977 C1978 1.399 . S
C1978 H1964 0.929 . S
C1978 C1977 1.399 . S
C1978 C1979 1.385 . S
C1979 H1965 0.931 . S
C1979 C1978 1.385 . S
C1979 C1980 1.389 . S
C1980 C1979 1.389 . S
C1980 C1981 1.387 . S
C1981 H1966 0.930 . S
C1981 C1976 1.390 . S
C1981 C1980 1.387 . S
H1982 C1994 0.930 . S
H1983 C1996 0.930 . S
H1984 C1997 0.930 . S
H1985 C2001 0.959 . S
H1986 C2001 0.959 . S
H1987 C2001 0.961 . S
H1988 C2002 0.960 . S
H1989 C2002 0.961 . S
H1990 C2002 0.959 . S
H1991 C2005 0.929 . S
H1992 C2006 0.931 . S
H1993 C2008 0.930 . S
C1994 H1982 0.930 . S
C1994 C1995 1.399 . S
C1994 C1999 1.399 . S
C1995 C1994 1.399 . S
C1995 C1996 1.376 . S
C1996 H1983 0.930 . S
C1996 C1995 1.376 . S
C1996 C1997 1.388 . S
C1997 H1984 0.930 . S
C1997 C1996 1.388 . S
C1997 C1998 1.390 . S
C1998 C1997 1.390 . S
C1998 C1999 1.394 . S
C1998 C2004 1.465 . S
C1999 C1994 1.399 . S
C1999 C1998 1.394 . S
C1999 C2000 1.516 . S
C2000 C1999 1.516 . S
C2000 C2001 1.502 . S
C2000 C2002 1.561 . S
C2000 C2003 1.526 . S
C2001 H1985 0.959 . S
C2001 H1986 0.959 . S
C2001 H1987 0.961 . S
C2001 C2000 1.502 . S
C2002 H1988 0.960 . S
C2002 H1989 0.961 . S
C2002 H1990 0.959 . S
C2002 C2000 1.561 . S
C2003 C2000 1.526 . S
C2003 C2004 1.396 . S
C2003 C2008 1.390 . S
C2004 C1998 1.465 . S
C2004 C2003 1.396 . S
C2004 C2005 1.399 . S
C2005 H1991 0.929 . S
C2005 C2004 1.399 . S
C2005 C2006 1.385 . S
C2006 H1992 0.931 . S
C2006 C2005 1.385 . S
C2006 C2007 1.389 . S
C2007 C2006 1.389 . S
C2007 C2008 1.387 . S
C2008 H1993 0.930 . S
C2008 C2003 1.390 . S
C2008 C2007 1.387 . S
H2009 C2021 0.930 . S
H2010 C2023 0.930 . S
H2011 C2024 0.930 . S
H2012 C2028 0.959 . S
H2013 C2028 0.959 . S
H2014 C2028 0.961 . S
H2015 C2029 0.960 . S
H2016 C2029 0.961 . S
H2017 C2029 0.959 . S
H2018 C2032 0.929 . S
H2019 C2033 0.931 . S
H2020 C2035 0.930 . S
C2021 H2009 0.930 . S
C2021 C2022 1.399 . S
C2021 C2026 1.399 . S
C2022 C2021 1.399 . S
C2022 C2023 1.376 . S
C2023 H2010 0.930 . S
C2023 C2022 1.376 . S
C2023 C2024 1.388 . S
C2024 H2011 0.930 . S
C2024 C2023 1.388 . S
C2024 C2025 1.390 . S
C2025 C2024 1.390 . S
C2025 C2026 1.394 . S
C2025 C2031 1.465 . S
C2026 C2021 1.399 . S
C2026 C2025 1.394 . S
C2026 C2027 1.516 . S
C2027 C2026 1.516 . S
C2027 C2028 1.502 . S
C2027 C2029 1.561 . S
C2027 C2030 1.526 . S
C2028 H2012 0.959 . S
C2028 H2013 0.959 . S
C2028 H2014 0.961 . S
C2028 C2027 1.502 . S
C2029 H2015 0.960 . S
C2029 H2016 0.961 . S
C2029 H2017 0.959 . S
C2029 C2027 1.561 . S
C2030 C2027 1.526 . S
C2030 C2031 1.396 . S
C2030 C2035 1.390 . S
C2031 C2025 1.465 . S
C2031 C2030 1.396 . S
C2031 C2032 1.399 . S
C2032 H2018 0.929 . S
C2032 C2031 1.399 . S
C2032 C2033 1.385 . S
C2033 H2019 0.931 . S
C2033 C2032 1.385 . S
C2033 C2034 1.389 . S
C2034 C2033 1.389 . S
C2034 C2035 1.387 . S
C2035 H2020 0.930 . S
C2035 C2030 1.390 . S
C2035 C2034 1.387 . S
H2036 C2048 0.930 . S
H2037 C2050 0.930 . S
H2038 C2051 0.930 . S
H2039 C2055 0.959 . S
H2040 C2055 0.959 . S
H2041 C2055 0.961 . S
H2042 C2056 0.960 . S
H2043 C2056 0.961 . S
H2044 C2056 0.959 . S
H2045 C2059 0.929 . S
H2046 C2060 0.931 . S
H2047 C2062 0.930 . S
C2048 H2036 0.930 . S
C2048 C2049 1.399 . S
C2048 C2053 1.399 . S
C2049 C2048 1.399 . S
C2049 C2050 1.376 . S
C2050 H2037 0.930 . S
C2050 C2049 1.376 . S
C2050 C2051 1.388 . S
C2051 H2038 0.930 . S
C2051 C2050 1.388 . S
C2051 C2052 1.390 . S
C2052 C2051 1.390 . S
C2052 C2053 1.394 . S
C2052 C2058 1.465 . S
C2053 C2048 1.399 . S
C2053 C2052 1.394 . S
C2053 C2054 1.516 . S
C2054 C2053 1.516 . S
C2054 C2055 1.502 . S
C2054 C2056 1.561 . S
C2054 C2057 1.526 . S
C2055 H2039 0.959 . S
C2055 H2040 0.959 . S
C2055 H2041 0.961 . S
C2055 C2054 1.502 . S
C2056 H2042 0.960 . S
C2056 H2043 0.961 . S
C2056 H2044 0.959 . S
C2056 C2054 1.561 . S
C2057 C2054 1.526 . S
C2057 C2058 1.396 . S
C2057 C2062 1.390 . S
C2058 C2052 1.465 . S
C2058 C2057 1.396 . S
C2058 C2059 1.399 . S
C2059 H2045 0.929 . S
C2059 C2058 1.399 . S
C2059 C2060 1.385 . S
C2060 H2046 0.931 . S
C2060 C2059 1.385 . S
C2060 C2061 1.389 . S
C2061 C2060 1.389 . S
C2061 C2062 1.387 . S
C2062 H2047 0.930 . S
C2062 C2057 1.390 . S
C2062 C2061 1.387 . S
H2063 C2075 0.930 . S
H2064 C2077 0.930 . S
H2065 C2078 0.930 . S
H2066 C2082 0.959 . S
H2067 C2082 0.959 . S
H2068 C2082 0.961 . S
H2069 C2083 0.960 . S
H2070 C2083 0.961 . S
H2071 C2083 0.959 . S
H2072 C2086 0.929 1_565 S
H2073 C2087 0.931 . S
H2074 C2089 0.930 . S
C2075 H2063 0.930 . S
C2075 C2076 1.399 1_545 S
C2075 C2080 1.399 . S
C2076 C2075 1.399 1_565 S
C2076 C2077 1.376 . S
C2077 H2064 0.930 . S
C2077 C2076 1.376 . S
C2077 C2078 1.388 . S
C2078 H2065 0.930 . S
C2078 C2077 1.388 . S
C2078 C2079 1.390 1_565 S
C2079 C2078 1.390 1_545 S
C2079 C2080 1.394 . S
C2079 C2085 1.465 . S
C2080 C2075 1.399 . S
C2080 C2079 1.394 . S
C2080 C2081 1.516 . S
C2081 C2080 1.516 . S
C2081 C2082 1.502 . S
C2081 C2083 1.561 . S
C2081 C2084 1.526 . S
C2082 H2066 0.959 . S
C2082 H2067 0.959 . S
C2082 H2068 0.961 . S
C2082 C2081 1.502 . S
C2083 H2069 0.960 . S
C2083 H2070 0.961 . S
C2083 H2071 0.959 . S
C2083 C2081 1.561 . S
C2084 C2081 1.526 . S
C2084 C2085 1.396 . S
C2084 C2089 1.390 . S
C2085 C2079 1.465 . S
C2085 C2084 1.396 . S
C2085 C2086 1.399 . S
C2086 H2072 0.929 1_545 S
C2086 C2085 1.399 . S
C2086 C2087 1.385 . S
C2087 H2073 0.931 . S
C2087 C2086 1.385 . S
C2087 C2088 1.389 . S
C2088 C2087 1.389 . S
C2088 C2089 1.387 . S
C2089 H2074 0.930 . S
C2089 C2084 1.390 . S
C2089 C2088 1.387 . S
H2090 C2102 0.930 . S
H2091 C2104 0.930 . S
H2092 C2105 0.930 . S
H2093 C2109 0.959 . S
H2094 C2109 0.959 . S
H2095 C2109 0.961 . S
H2096 C2110 0.960 . S
H2097 C2110 0.961 . S
H2098 C2110 0.959 . S
H2099 C2113 0.929 . S
H2100 C2114 0.931 . S
H2101 C2116 0.930 . S
C2102 H2090 0.930 . S
C2102 C2103 1.399 . S
C2102 C2107 1.399 . S
C2103 C2102 1.399 . S
C2103 C2104 1.376 . S
C2104 H2091 0.930 . S
C2104 C2103 1.376 . S
C2104 C2105 1.388 . S
C2105 H2092 0.930 . S
C2105 C2104 1.388 . S
C2105 C2106 1.390 . S
C2106 C2105 1.390 . S
C2106 C2107 1.394 . S
C2106 C2112 1.465 . S
C2107 C2102 1.399 . S
C2107 C2106 1.394 . S
C2107 C2108 1.516 . S
C2108 C2107 1.516 . S
C2108 C2109 1.502 . S
C2108 C2110 1.561 . S
C2108 C2111 1.526 . S
C2109 H2093 0.959 . S
C2109 H2094 0.959 . S
C2109 H2095 0.961 . S
C2109 C2108 1.502 . S
C2110 H2096 0.960 . S
C2110 H2097 0.961 . S
C2110 H2098 0.959 . S
C2110 C2108 1.561 . S
C2111 C2108 1.526 . S
C2111 C2112 1.396 . S
C2111 C2116 1.390 . S
C2112 C2106 1.465 . S
C2112 C2111 1.396 . S
C2112 C2113 1.399 . S
C2113 H2099 0.929 . S
C2113 C2112 1.399 . S
C2113 C2114 1.385 . S
C2114 H2100 0.931 . S
C2114 C2113 1.385 . S
C2114 C2115 1.389 . S
C2115 C2114 1.389 . S
C2115 C2116 1.387 . S
C2116 H2101 0.930 . S
C2116 C2111 1.390 . S
C2116 C2115 1.387 . S
H2117 C2129 0.930 . S
H2118 C2131 0.930 . S
H2119 C2132 0.930 . S
H2120 C2136 0.959 . S
H2121 C2136 0.959 . S
H2122 C2136 0.961 . S
H2123 C2137 0.960 . S
H2124 C2137 0.961 . S
H2125 C2137 0.942 1_554 S
H2126 C2140 0.929 . S
H2127 C2141 0.929 . S
H2128 C2143 0.930 . S
C2129 H2117 0.930 . S
C2129 C2130 1.399 . S
C2129 C2134 1.399 . S
C2130 C2129 1.399 . S
C2130 C2131 1.376 1_545 S
C2131 H2118 0.930 . S
C2131 C2130 1.376 1_565 S
C2131 C2132 1.388 . S
C2132 H2119 0.930 . S
C2132 C2131 1.388 . S
C2132 C2133 1.405 . S
C2133 C2132 1.405 . S
C2133 C2134 1.373 1_565 S
C2133 C2139 1.467 . S
C2134 C2129 1.399 . S
C2134 C2133 1.373 1_545 S
C2134 C2135 1.516 . S
C2135 C2134 1.516 . S
C2135 C2136 1.502 . S
C2135 C2137 1.561 . S
C2135 C2138 1.526 . S
C2136 H2120 0.959 . S
C2136 H2121 0.959 . S
C2136 H2122 0.961 . S
C2136 C2135 1.502 . S
C2137 H2123 0.960 . S
C2137 H2124 0.961 . S
C2137 H2125 0.942 1_556 S
C2137 C2135 1.561 . S
C2138 C2135 1.526 . S
C2138 C2139 1.396 1_545 S
C2138 C2143 1.390 . S
C2139 C2133 1.467 . S
C2139 C2138 1.396 1_565 S
C2139 C2140 1.399 . S
C2140 H2126 0.929 . S
C2140 C2139 1.399 . S
C2140 C2141 1.387 1_556 S
C2141 H2127 0.929 . S
C2141 C2140 1.387 1_554 S
C2141 C2142 1.352 1_565 S
C2142 C2141 1.352 1_545 S
C2142 C2143 1.411 1_554 S
C2143 H2128 0.930 . S
C2143 C2138 1.390 . S
C2143 C2142 1.411 1_556 S
H2144 C2156 0.930 . S
H2145 C2158 0.930 . S
H2146 C2159 0.930 . S
H2147 C2163 0.959 . S
H2148 C2163 0.959 . S
H2149 C2163 0.961 . S
H2150 C2164 0.960 . S
H2151 C2164 0.961 . S
H2152 C2164 0.959 . S
H2153 C2167 0.929 . S
H2154 C2168 0.931 . S
H2155 C2170 0.930 . S
C2156 H2144 0.930 . S
C2156 C2157 1.399 . S
C2156 C2161 1.399 . S
C2157 C2156 1.399 . S
C2157 C2158 1.376 . S
C2158 H2145 0.930 . S
C2158 C2157 1.376 . S
C2158 C2159 1.388 . S
C2159 H2146 0.930 . S
C2159 C2158 1.388 . S
C2159 C2160 1.390 . S
C2160 C2159 1.390 . S
C2160 C2161 1.394 . S
C2160 C2166 1.465 . S
C2161 C2156 1.399 . S
C2161 C2160 1.394 . S
C2161 C2162 1.516 . S
C2162 C2161 1.516 . S
C2162 C2163 1.502 . S
C2162 C2164 1.561 . S
C2162 C2165 1.526 . S
C2163 H2147 0.959 . S
C2163 H2148 0.959 . S
C2163 H2149 0.961 . S
C2163 C2162 1.502 . S
C2164 H2150 0.960 . S
C2164 H2151 0.961 . S
C2164 H2152 0.959 . S
C2164 C2162 1.561 . S
C2165 C2162 1.526 . S
C2165 C2166 1.396 . S
C2165 C2170 1.390 . S
C2166 C2160 1.465 . S
C2166 C2165 1.396 . S
C2166 C2167 1.399 . S
C2167 H2153 0.929 . S
C2167 C2166 1.399 . S
C2167 C2168 1.385 . S
C2168 H2154 0.931 . S
C2168 C2167 1.385 . S
C2168 C2169 1.389 . S
C2169 C2168 1.389 . S
C2169 C2170 1.387 . S
C2170 H2155 0.930 . S
C2170 C2165 1.390 . S
C2170 C2169 1.387 . S
H2171 C2183 0.930 . S
H2172 C2185 0.930 . S
H2173 C2186 0.930 . S
H2174 C2190 0.997 . S
H2175 C2190 0.959 . S
H2176 C2190 0.961 . S
H2177 C2191 0.960 . S
H2178 C2191 0.961 . S
H2179 C2191 0.959 . S
H2180 C2194 0.929 . S
H2181 C2195 0.931 . S
H2182 C2197 0.930 1_556 S
C2183 H2171 0.930 . S
C2183 C2184 1.399 . S
C2183 C2188 1.399 . S
C2184 C2183 1.399 . S
C2184 C2185 1.376 1_556 S
C2185 H2172 0.930 . S
C2185 C2184 1.376 1_554 S
C2185 C2186 1.388 . S
C2186 H2173 0.930 . S
C2186 C2185 1.388 . S
C2186 C2187 1.390 . S
C2187 C2186 1.390 . S
C2187 C2188 1.394 1_554 S
C2187 C2193 1.465 . S
C2188 C2183 1.399 . S
C2188 C2187 1.394 1_556 S
C2188 C2189 1.516 . S
C2189 C2188 1.516 . S
C2189 C2190 1.502 . S
C2189 C2191 1.561 . S
C2189 C2192 1.526 1_556 S
C2190 H2174 0.997 . S
C2190 H2175 0.959 . S
C2190 H2176 0.961 . S
C2190 C2189 1.502 . S
C2191 H2177 0.960 . S
C2191 H2178 0.961 . S
C2191 H2179 0.959 . S
C2191 C2189 1.561 . S
C2192 C2189 1.526 1_554 S
C2192 C2193 1.396 . S
C2192 C2197 1.390 . S
C2193 C2187 1.465 . S
C2193 C2192 1.396 . S
C2193 C2194 1.399 . S
C2194 H2180 0.929 . S
C2194 C2193 1.399 . S
C2194 C2195 1.385 . S
C2195 H2181 0.931 . S
C2195 C2194 1.385 . S
C2195 C2196 1.389 . S
C2196 C2195 1.389 . S
C2196 C2197 1.387 . S
C2197 H2182 0.930 1_554 S
C2197 C2192 1.390 . S
C2197 C2196 1.387 . S
H2198 C2210 0.930 . S
H2199 C2212 0.930 . S
H2200 C2213 0.930 . S
H2201 C2217 0.959 . S
H2202 C2217 0.959 . S
H2203 C2217 0.961 . S
H2204 C2218 0.960 . S
H2205 C2218 0.961 . S
H2206 C2218 0.959 . S
H2207 C2221 0.929 . S
H2208 C2222 0.931 . S
H2209 C2224 0.930 . S
C2210 H2198 0.930 . S
C2210 C2211 1.399 1_554 S
C2210 C2215 1.399 . S
C2211 C2210 1.399 1_556 S
C2211 C2212 1.376 . S
C2212 H2199 0.930 . S
C2212 C2211 1.376 . S
C2212 C2213 1.388 . S
C2213 H2200 0.930 . S
C2213 C2212 1.388 . S
C2213 C2214 1.390 . S
C2214 C2213 1.390 . S
C2214 C2215 1.394 1_556 S
C2214 C2220 1.465 . S
C2215 C2210 1.399 . S
C2215 C2214 1.394 1_554 S
C2215 C2216 1.516 . S
C2216 C2215 1.516 . S
C2216 C2217 1.502 . S
C2216 C2218 1.561 . S
C2216 C2219 1.526 . S
C2217 H2201 0.959 . S
C2217 H2202 0.959 . S
C2217 H2203 0.961 . S
C2217 C2216 1.502 . S
C2218 H2204 0.960 . S
C2218 H2205 0.961 . S
C2218 H2206 0.959 . S
C2218 C2216 1.561 . S
C2219 C2216 1.526 . S
C2219 C2220 1.396 1_554 S
C2219 C2224 1.390 . S
C2220 C2214 1.465 . S
C2220 C2219 1.396 1_556 S
C2220 C2221 1.399 . S
C2221 H2207 0.929 . S
C2221 C2220 1.399 . S
C2221 C2222 1.385 . S
C2222 H2208 0.931 . S
C2222 C2221 1.385 . S
C2222 C2223 1.389 1_556 S
C2223 C2222 1.389 1_554 S
C2223 C2224 1.387 . S
C2224 H2209 0.930 . S
C2224 C2219 1.390 . S
C2224 C2223 1.387 . S
H2225 C2237 0.930 1_556 S
H2226 C2239 0.930 . S
H2227 C2240 0.930 . S
H2228 C2244 0.959 . S
H2229 C2244 0.959 . S
H2230 C2244 0.961 . S
H2231 C2245 0.960 . S
H2232 C2245 0.961 . S
H2233 C2245 0.959 1_554 S
H2234 C2248 0.929 . S
H2235 C2249 0.931 . S
H2236 C2251 0.930 . S
C2237 H2225 0.930 1_554 S
C2237 C2238 1.399 . S
C2237 C2242 1.399 . S
C2238 C2237 1.399 . S
C2238 C2239 1.376 . S
C2239 H2226 0.930 . S
C2239 C2238 1.376 . S
C2239 C2240 1.388 . S
C2240 H2227 0.930 . S
C2240 C2239 1.388 . S
C2240 C2241 1.390 . S
C2241 C2240 1.390 . S
C2241 C2242 1.394 . S
C2241 C2247 1.465 . S
C2242 C2237 1.399 . S
C2242 C2241 1.394 . S
C2242 C2243 1.516 . S
C2243 C2242 1.516 . S
C2243 C2244 1.502 1_554 S
C2243 C2245 1.561 1_554 S
C2243 C2246 1.526 . S
C2244 H2228 0.959 . S
C2244 H2229 0.959 . S
C2244 H2230 0.961 . S
C2244 C2243 1.502 1_556 S
C2245 H2231 0.960 . S
C2245 H2232 0.961 . S
C2245 H2233 0.959 1_556 S
C2245 C2243 1.561 1_556 S
C2246 C2243 1.526 . S
C2246 C2247 1.396 . S
C2246 C2251 1.390 . S
C2247 C2241 1.465 . S
C2247 C2246 1.396 . S
C2247 C2248 1.399 . S
C2248 H2234 0.929 . S
C2248 C2247 1.399 . S
C2248 C2249 1.385 . S
C2249 H2235 0.931 . S
C2249 C2248 1.385 . S
C2249 C2250 1.389 . S
C2250 C2249 1.389 . S
C2250 C2251 1.387 . S
C2251 H2236 0.930 . S
C2251 C2246 1.390 . S
C2251 C2250 1.387 . S
C969 C22 2.357 . S
C981 C735 2.243 . S
C1008 C764 3.218 . S
C996 C38 3.204 . S
C1035 C641 1.425 . S
C1023 C75 1.470 . S
C1050 C91 1.763 . S
C1062 C685 1.756 . S
C1077 C128 3.065 . S
C1089 C935 3.004 . S
C1104 C197 2.053 . S
C1116 C881 2.049 . S
C1143 C814 2.695 . S
C1131 C144 2.808 . S
C1158 C181 1.220 . S
C1170 C844 1.104 . S
C1197 C691 1.983 . S
C1185 C234 1.962 . S
C1224 C761 2.339 . S
C1212 C303 2.334 . S
C1239 C356 2.005 . S
C1251 C724 2.061 . S
C1266 C287 1.966 . S
C1278 C855 1.943 . S
C1305 C895 2.226 . S
C1293 C393 2.401 . S
C1332 C924 3.099 1_565 S
C1320 C409 3.073 . S
C1347 C462 1.588 . S
C1359 C841 1.649 . S
C1386 C805 1.825 . S
C1374 C446 1.801 . S
C1401 C499 2.828 . S
C1413 C775 2.729 . S
C1428 C552 1.787 . S
C1440 C721 1.803 . S
C1467 C694 2.832 . S
C1455 C515 2.893 . S
C1482 C568 1.483 . S
C1494 C644 1.493 . S
C1521 C811 1.827 . S
C1509 C340 1.803 . S
C1548 C921 2.287 . S
C1536 C621 2.273 . S
C1563 C250 1.759 . S
C1575 C884 1.810 . S
C1590 C605 1.827 . S
C1602 C655 1.762 . S
C1629 C654 1.364 . S
C1617 C39 1.393 . S
C1644 C29 1.836 . S
C1656 C684 1.626 1_455 S
C1683 C731 1.141 . S
C1671 C92 1.228 . S
C1710 C765 1.942 . S
C1698 C82 1.891 . S
C1725 C145 2.052 . S
C1737 C645 2.026 . S
C1752 C188 1.635 . S
C1764 C681 1.428 . S
C1791 C734 1.004 . S
C1779 C135 0.977 . S
C1806 C198 0.989 . S
C1818 C771 1.004 . S
C1833 C251 1.379 . S
C1845 C651 1.329 . S
C1872 C725 2.240 . S
C1860 C294 2.322 . S
C1887 C347 1.978 . S
C1899 C774 1.793 . S
C1914 C304 1.028 . S
C1926 C815 1.068 . S
C1953 C854 1.337 . S
C1941 C410 1.400 . S
C1968 C400 1.852 . S
C1980 C804 1.712 . S
C1995 C453 0.923 . S
C2007 C891 0.799 . S
C2022 C463 2.484 . S
C2034 C925 2.369 . S
C2049 C516 2.158 . S
C2061 C845 2.165 . S
C2088 C801 1.647 . S
C2076 C569 1.842 . S
C2103 C506 0.748 . S
C2115 C894 0.624 . S
C2142 C931 0.839 1_554 S
C2130 C559 0.698 . S
C2169 C851 1.169 . S
C2157 C357 1.329 . S
C2196 C885 2.332 . S
C2184 C612 2.377 . S
C2223 C934 1.641 . S
C2211 C241 1.745 . S
C2238 C622 0.564 . S
C2250 C695 0.618 . S
