# Generated by pormake.
# Topology anh, (6,3)-cn, num edge types: 1
# Building blocks:
#     Node 0, Type 0, BuildingBlock: PAMTUU_clean_sbu_0, # of connection points: 6
#     Node 1, Type 0, BuildingBlock: PAMTUU_clean_sbu_0, # of connection points: 6
#     Node 2, Type 0, BuildingBlock: PAMTUU_clean_sbu_0, # of connection points: 6
#     Node 3, Type 1, BuildingBlock: OLANEW_clean_sbu_2, # of connection points: 3
#     Node 4, Type 1, BuildingBlock: OLANEW_clean_sbu_2, # of connection points: 3
#     Node 5, Type 1, BuildingBlock: OLANEW_clean_sbu_2, # of connection points: 3
#     Node 6, Type 1, BuildingBlock: OLANEW_clean_sbu_2, # of connection points: 3
#     Node 7, Type 1, BuildingBlock: OLANEW_clean_sbu_2, # of connection points: 3
#     Node 8, Type 1, BuildingBlock: OLANEW_clean_sbu_2, # of connection points: 3
#     Edge 9, Type (0, 1), BuildingBlock: ZUJKAS_clean_linker_0, # of connection points: 2
#     Edge 10, Type (0, 1), BuildingBlock: ZUJKAS_clean_linker_0, # of connection points: 2
#     Edge 11, Type (0, 1), BuildingBlock: ZUJKAS_clean_linker_0, # of connection points: 2
#     Edge 12, Type (0, 1), BuildingBlock: ZUJKAS_clean_linker_0, # of connection points: 2
#     Edge 13, Type (0, 1), BuildingBlock: ZUJKAS_clean_linker_0, # of connection points: 2
#     Edge 14, Type (0, 1), BuildingBlock: ZUJKAS_clean_linker_0, # of connection points: 2
#     Edge 15, Type (0, 1), BuildingBlock: ZUJKAS_clean_linker_0, # of connection points: 2
#     Edge 16, Type (0, 1), BuildingBlock: ZUJKAS_clean_linker_0, # of connection points: 2
#     Edge 17, Type (0, 1), BuildingBlock: ZUJKAS_clean_linker_0, # of connection points: 2
#     Edge 18, Type (0, 1), BuildingBlock: ZUJKAS_clean_linker_0, # of connection points: 2
#     Edge 19, Type (0, 1), BuildingBlock: ZUJKAS_clean_linker_0, # of connection points: 2
#     Edge 20, Type (0, 1), BuildingBlock: ZUJKAS_clean_linker_0, # of connection points: 2
#     Edge 21, Type (0, 1), BuildingBlock: ZUJKAS_clean_linker_0, # of connection points: 2
#     Edge 22, Type (0, 1), BuildingBlock: ZUJKAS_clean_linker_0, # of connection points: 2
#     Edge 23, Type (0, 1), BuildingBlock: ZUJKAS_clean_linker_0, # of connection points: 2
#     Edge 24, Type (0, 1), BuildingBlock: ZUJKAS_clean_linker_0, # of connection points: 2
#     Edge 25, Type (0, 1), BuildingBlock: ZUJKAS_clean_linker_0, # of connection points: 2
#     Edge 26, Type (0, 1), BuildingBlock: ZUJKAS_clean_linker_0, # of connection points: 2
# Relax obj value: 0.168
# Max RMSD: 0.137
# Mean RMSD: 0.107
data_MOF--net-anh--node1-PAMTUU_clean_sbu_0--node2-OLANEW_clean_sbu_2--edge1-ZUJKAS_clean_linker_0
_symmetry_space_group_name_H-M    P1
_symmetry_Int_Tables_number       1
_symmetry_cell_setting            triclinic
loop_
_symmetry_equiv_pos_as_xyz
'x, y, z'
_cell_length_a     45.457761
_cell_length_b     45.424747
_cell_length_c     65.373196
_cell_angle_alpha  93.215854
_cell_angle_beta   90.908619
_cell_angle_gamma 120.38639
loop_
_atom_site_label
_atom_site_type_symbol
_atom_site_fract_x
_atom_site_fract_y
_atom_site_fract_z
_atom_type_partial_charge
Tb0 Tb 0.02797 0.56688 0.16342 0.0
Tb1 Tb 0.06056 0.51704 0.15934 0.0
C2 C 0.04671 0.54629 0.12077 0.0
C3 C 0.97037 0.60012 0.17545 0.0
C4 C 0.90613 0.58869 0.18652 0.0
C5 C 0.9305 0.62029 0.17948 0.0
C6 C 0.96236 0.62588 0.17391 0.0
C7 C 0.94702 0.56934 0.18362 0.0
C8 C 0.91509 0.56364 0.18911 0.0
C9 C 1.00149 0.60415 0.16666 0.0
O10 O 0.98599 0.51622 0.16947 0.0
O11 O 1.0055 0.48372 0.15325 0.0
O12 O 0.0401 0.51133 0.18946 0.0
O13 O 0.044 0.5634 0.19435 0.0
O14 O 0.0661 0.47973 0.1422 0.0
O15 O 0.08846 0.49758 0.17302 0.0
O16 O 0.10326 0.56822 0.16907 0.0
O17 O 0.08159 0.60083 0.15788 0.0
O18 O 0.0248 0.55138 0.13092 0.0
O19 O 0.06813 0.53953 0.13009 0.0
C20 C 0.98091 0.48648 0.16183 0.0
O21 O 0.02486 0.60657 0.17954 0.0
O22 O 0.9964 0.58314 0.15085 0.0
C23 C 0.04182 0.53608 0.20165 0.0
C24 C 0.11667 0.47956 0.15037 0.0
C25 C 0.17799 0.4811 0.14229 0.0
C26 C 0.14805 0.44999 0.14523 0.0
C27 C 0.11769 0.44927 0.14923 0.0
C28 C 0.14604 0.51061 0.14682 0.0
C29 C 0.17656 0.51138 0.1428 0.0
C30 C 0.08534 0.47832 0.15664 0.0
C31 C 0.10736 0.59803 0.16474 0.0
H32 H 0.92452 0.64027 0.17762 0.0
H33 H 0.98021 0.64982 0.16768 0.0
H34 H 0.95291 0.54918 0.18489 0.0
H35 H 0.89681 0.53894 0.1943 0.0
H36 H 0.14836 0.42631 0.14532 0.0
H37 H 0.09521 0.42515 0.15205 0.0
H38 H 0.14555 0.53425 0.14765 0.0
H39 H 0.19911 0.53568 0.14043 0.0
Tb40 Tb 0.48202 1.00706 0.49384 0.0
Tb41 Tb 0.56515 0.05036 0.49691 0.0
C42 C 0.52428 0.0256 0.45533 0.0
C43 C 0.39213 0.93827 0.49653 0.0
C44 C 0.3428 0.87096 0.50435 0.0
C45 C 0.33285 0.89363 0.49752 0.0
C46 C 0.35737 0.92703 0.49361 0.0
C47 C 0.40226 0.91626 0.50404 0.0
C48 C 0.37779 0.88284 0.50789 0.0
C49 C 0.41768 0.97238 0.4909 0.0
O50 O 0.49695 0.96796 0.4916 0.0
O51 O 0.55312 0.99917 0.50393 0.0
O52 O 0.54728 0.05548 0.52685 0.0
O53 O 0.4978 1.00377 0.52464 0.0
O54 O 0.61026 0.0771 0.48143 0.0
O55 O 0.61199 0.07238 0.514 0.0
O56 O 0.55022 0.08816 0.49139 0.0
O57 O 0.49535 0.05987 0.50204 0.0
O58 O 0.49999 0.02784 0.46444 0.0
O59 O 0.54797 0.02449 0.46636 0.0
C60 C 0.52512 0.96967 0.49886 0.0
O61 O 0.43509 0.99478 0.50613 0.0
O62 O 0.43723 0.97293 0.47636 0.0
C63 C 0.52258 0.0298 0.53563 0.0
C64 C 0.65183 0.1248 0.50124 0.0
C65 C 0.69156 0.19632 0.5 0.0
C66 C 0.70503 0.17534 0.49421 0.0
C67 C 0.68525 0.13985 0.49477 0.0
C68 C 0.6388 0.14565 0.50797 0.0
C69 C 0.65849 0.18115 0.50733 0.0
C70 C 0.62933 0.08759 0.49835 0.0
C71 C 0.52285 0.08825 0.49756 0.0
H72 H 0.30611 0.8854 0.49492 0.0
H73 H 0.34921 0.94385 0.48792 0.0
H74 H 0.4291 0.92467 0.5064 0.0
H75 H 0.38635 0.86594 0.51288 0.0
H76 H 0.73021 0.18615 0.4882 0.0
H77 H 0.69552 0.12407 0.4893 0.0
H78 H 0.61293 0.13436 0.51297 0.0
H79 H 0.64753 0.19664 0.51205 0.0
Tb80 Tb 0.5364 0.51212 0.82614 0.0
Tb81 Tb 0.5782 0.59554 0.83177 0.0
C82 C 0.5568 0.55655 0.78883 0.0
C83 C 0.51338 0.4222 0.82888 0.0
C84 C 0.52899 0.37302 0.84096 0.0
C85 C 0.49824 0.36297 0.82979 0.0
C86 C 0.49052 0.38742 0.82379 0.0
C87 C 0.54387 0.43243 0.84027 0.0
C88 C 0.55161 0.408 0.8463 0.0
C89 C 0.50544 0.44769 0.82214 0.0
O90 O 0.59003 0.52632 0.82432 0.0
O91 O 0.61707 0.58209 0.83815 0.0
O92 O 0.55509 0.5762 0.86055 0.0
O93 O 0.55715 0.52706 0.85755 0.0
O94 O 0.59412 0.64216 0.8189 0.0
O95 O 0.60929 0.64097 0.85015 0.0
O96 O 0.52496 0.58186 0.8266 0.0
O97 O 0.49749 0.52518 0.83361 0.0
O98 O 0.53146 0.53095 0.79721 0.0
O99 O 0.58279 0.5804 0.80032 0.0
C100 C 0.61754 0.55412 0.83231 0.0
O101 O 0.50037 0.46508 0.83677 0.0
O102 O 0.52515 0.46732 0.80847 0.0
C103 C 0.5556 0.55088 0.8689 0.0
C104 C 0.59769 0.6842 0.84273 0.0
C105 C 0.57527 0.73098 0.85071 0.0
C106 C 0.60995 0.74263 0.84765 0.0
C107 C 0.62102 0.71938 0.84358 0.0
C108 C 0.56344 0.67238 0.8468 0.0
C109 C 0.55226 0.69557 0.8507 0.0
C110 C 0.60857 0.65998 0.83617 0.0
C111 C 0.49716 0.55349 0.8308 0.0
H112 H 0.48014 0.33618 0.82568 0.0
H113 H 0.46681 0.37919 0.81509 0.0
H114 H 0.56179 0.45931 0.8443 0.0
H115 H 0.57566 0.41653 0.85468 0.0
H116 H 0.62844 0.76974 0.84794 0.0
H117 H 0.64759 0.72885 0.84057 0.0
H118 H 0.54516 0.6452 0.84629 0.0
H119 H 0.52536 0.68569 0.8528 0.0
O120 O 0.58577 0.08334 0.23337 0.0
Cd121 Cd 0.60643 0.10896 0.19999 0.0
O122 O 0.53798 0.03581 0.22294 0.0
Cd123 Cd 0.48911 0.98512 0.22225 0.0
O124 O 0.43835 0.9374 0.21516 0.0
C125 C 0.43354 0.90737 0.21652 0.0
O126 O 0.45938 0.90417 0.22268 0.0
C127 C 0.55899 0.05562 0.23756 0.0
C128 C 0.66903 0.17222 0.19889 0.0
O129 O 0.64086 0.17133 0.20215 0.0
O130 O 0.66807 0.14349 0.19695 0.0
O131 O 0.53103 0.50408 0.56411 0.0
Cd132 Cd 0.52914 0.47359 0.53061 0.0
O133 O 0.53375 0.55202 0.55576 0.0
Cd134 Cd 0.5349 0.60231 0.55779 0.0
O135 O 0.53773 0.65232 0.55249 0.0
C136 C 0.51289 0.65349 0.54397 0.0
O137 O 0.48471 0.62451 0.53855 0.0
C138 C 0.53264 0.53246 0.56947 0.0
C139 C 0.52975 0.41102 0.53007 0.0
O140 O 0.55751 0.44002 0.53017 0.0
O141 O 0.5018 0.41143 0.53099 0.0
O142 O 0.09348 0.55694 0.89688 0.0
Cd143 Cd 0.1183 0.55246 0.86376 0.0
O144 O 0.04286 0.54886 0.88688 0.0
Cd145 Cd 0.99164 0.54502 0.8886 0.0
O146 O 0.94026 0.5398 0.88226 0.0
C147 C 0.93628 0.56567 0.88199 0.0
O148 O 0.96311 0.59634 0.88597 0.0
C149 C 0.06493 0.55438 0.90122 0.0
C150 C 0.18216 0.55465 0.86363 0.0
O151 O 0.18054 0.58201 0.86336 0.0
O152 O 0.15396 0.52641 0.8648 0.0
O153 O 0.07094 0.46364 0.41743 0.0
Cd154 Cd 0.07523 0.45149 0.45295 0.0
O155 O 0.04724 0.4921 0.42944 0.0
Cd156 Cd 1.01618 0.51632 0.42902 0.0
O157 O 0.9671 0.50661 0.43956 0.0
C158 C 0.9411 0.49433 0.42719 0.0
O159 O 0.94517 0.49171 0.40745 0.0
C160 C 0.0574 0.48162 0.41419 0.0
C161 C 0.11635 0.51336 0.47562 0.0
O162 O 0.12891 0.49583 0.46783 0.0
O163 O 0.08408 0.50105 0.4732 0.0
O164 O 0.5179 0.04316 0.76623 0.0
Cd165 Cd 0.51395 0.0503 0.80354 0.0
O166 O 0.56388 0.03845 0.76452 0.0
Cd167 Cd 0.57877 0.05618 0.79653 0.0
O168 O 0.58855 0.09311 0.82215 0.0
C169 C 0.61153 0.12387 0.82011 0.0
O170 O 0.6299 0.13075 0.80385 0.0
C171 C 0.53835 0.03779 0.75574 0.0
C172 C 0.50713 0.99458 0.82353 0.0
O173 O 0.53591 0.02224 0.82303 0.0
O174 O 0.48092 0.99328 0.81494 0.0
O175 O 0.52659 0.52716 0.09777 0.0
Cd176 Cd 0.51823 0.52238 0.13442 0.0
O177 O 0.48875 0.47294 0.08939 0.0
Cd178 Cd 0.48385 0.45791 0.12094 0.0
O179 O 0.4823 0.43388 0.14945 0.0
C180 C 0.459 0.42569 0.16218 0.0
O181 O 0.45875 0.40881 0.17791 0.0
C182 C 0.50956 0.50282 0.08415 0.0
C183 C 0.57354 0.52596 0.15547 0.0
O184 O 0.54832 0.49713 0.14837 0.0
O185 O 0.57244 0.5531 0.15267 0.0
H186 H 0.18979 0.43546 0.12017 0.0
H187 H 0.24125 0.43124 0.12199 0.0
H188 H 0.2923 0.52465 0.16123 0.0
H189 H 0.24046 0.52831 0.16024 0.0
H190 H 0.30906 0.4734 0.11308 0.0
H191 H 0.2951 0.45443 0.19642 0.0
H192 H 0.26202 0.45317 0.18014 0.0
H193 H 0.29857 0.49353 0.18909 0.0
C194 C 0.21202 0.45519 0.12913 0.0
C195 C 0.21084 0.48188 0.14036 0.0
C196 C 0.24145 0.45287 0.13003 0.0
C197 C 0.27024 0.47721 0.14212 0.0
C198 C 0.27005 0.50522 0.15216 0.0
H199 H 0.46493 0.48321 0.14753 0.0
H200 H 0.41985 0.49662 0.14191 0.0
C201 C 0.24053 0.50748 0.15137 0.0
C202 C 0.29943 0.47184 0.14524 0.0
H203 H 0.34286 0.45583 0.18184 0.0
C204 C 0.31661 0.46971 0.1281 0.0
C205 C 0.30873 0.46646 0.16485 0.0
C206 C 0.29 0.46668 0.18367 0.0
C207 C 0.34295 0.46231 0.13004 0.0
C208 C 0.35259 0.45748 0.14969 0.0
C209 C 0.33546 0.45971 0.16682 0.0
C210 C 0.37991 0.44935 0.15281 0.0
C211 C 0.35954 0.45876 0.11097 0.0
C212 C 0.37263 0.41883 0.16136 0.0
C213 C 0.39843 0.41118 0.16452 0.0
C214 C 0.43183 0.43385 0.15904 0.0
C215 C 0.43917 0.46469 0.15097 0.0
C216 C 0.41346 0.47243 0.14788 0.0
H217 H 0.3436 0.45463 0.09684 0.0
H218 H 0.38445 0.48259 0.10983 0.0
H219 H 0.36431 0.43714 0.11158 0.0
H220 H 0.34692 0.40085 0.16546 0.0
H221 H 0.39219 0.38736 0.17097 0.0
H222 H 0.66718 0.23452 0.48371 0.0
H223 H 0.70068 0.29268 0.47266 0.0
H224 H 0.79295 0.29941 0.49656 0.0
H225 H 0.75973 0.24153 0.50797 0.0
H226 H 0.75996 0.36246 0.49579 0.0
H227 H 0.79272 0.30315 0.42997 0.0
H228 H 0.75543 0.27908 0.44449 0.0
H229 H 0.7969 0.29045 0.45493 0.0
C230 C 0.69449 0.24875 0.48719 0.0
C231 C 0.7109 0.23331 0.49653 0.0
C232 C 0.71353 0.28192 0.48083 0.0
C233 C 0.74916 0.30004 0.48372 0.0
C234 C 0.76541 0.28562 0.49418 0.0
H235 H 0.9245 0.48688 0.46732 0.0
H236 H 0.8708 0.44366 0.48008 0.0
C237 C 0.74644 0.25253 0.50055 0.0
C238 C 0.76993 0.33205 0.47367 0.0
H239 H 0.82444 0.36348 0.43504 0.0
C240 C 0.77378 0.36282 0.48234 0.0
C241 C 0.7872 0.33214 0.4559 0.0
C242 C 0.78278 0.29946 0.4456 0.0
C243 C 0.79617 0.39416 0.47424 0.0
C244 C 0.81529 0.39448 0.45728 0.0
C245 C 0.8098 0.36334 0.44801 0.0
C246 C 0.84403 0.4264 0.45024 0.0
C247 C 0.79946 0.42658 0.48408 0.0
C248 C 0.84671 0.43191 0.42925 0.0
C249 C 0.87772 0.45634 0.42182 0.0
C250 C 0.90658 0.47557 0.43528 0.0
C251 C 0.90285 0.47233 0.4565 0.0
C252 C 0.87194 0.44778 0.46388 0.0
H253 H 0.77531 0.42145 0.49104 0.0
H254 H 0.81976 0.43713 0.49656 0.0
H255 H 0.80629 0.4462 0.47283 0.0
H256 H 0.82548 0.41568 0.41844 0.0
H257 H 0.87963 0.4584 0.40541 0.0
H258 H 0.59496 0.7868 0.82886 0.0
H259 H 0.57281 0.82567 0.82986 0.0
H260 H 0.50338 0.76856 0.87579 0.0
H261 H 0.52648 0.73006 0.87553 0.0
H262 H 0.50479 0.80693 0.82087 0.0
H263 H 0.54971 0.86887 0.89996 0.0
H264 H 0.56695 0.84507 0.88717 0.0
H265 H 0.52525 0.82286 0.89718 0.0
C266 C 0.57555 0.78286 0.83955 0.0
C267 C 0.56272 0.75547 0.85226 0.0
C268 C 0.56265 0.80491 0.83993 0.0
C269 C 0.53661 0.80006 0.85296 0.0
C270 C 0.52377 0.77294 0.8658 0.0
H271 H 0.45086 0.93051 0.82534 0.0
H272 H 0.45014 0.87922 0.836 0.0
C273 C 0.53679 0.75083 0.86549 0.0
C274 C 0.52271 0.82323 0.8524 0.0
H275 H 0.52317 0.89014 0.87916 0.0
C276 C 0.50821 0.82479 0.83369 0.0
C277 C 0.52729 0.84635 0.86921 0.0
C278 C 0.54331 0.84604 0.88952 0.0
C279 C 0.50009 0.85027 0.83089 0.0
C280 C 0.50592 0.87432 0.84747 0.0
C281 C 0.51855 0.87149 0.86655 0.0
C282 C 0.50425 0.90546 0.84432 0.0
C283 C 0.48766 0.85265 0.80983 0.0
C284 C 0.53448 0.93735 0.84651 0.0
C285 C 0.53492 0.96658 0.84066 0.0
C286 C 0.5051 0.96447 0.83244 0.0
C287 C 0.47431 0.93286 0.83143 0.0
C288 C 0.47388 0.90354 0.83743 0.0
H289 H 0.49004 0.83556 0.79797 0.0
H290 H 0.46035 0.84511 0.81011 0.0
H291 H 0.50226 0.8793 0.80518 0.0
H292 H 0.5582 0.9394 0.85183 0.0
H293 H 0.55901 0.99057 0.84179 0.0
H294 H 0.86315 0.55436 0.21686 0.0
H295 H 0.80234 0.53623 0.21837 0.0
H296 H 0.80815 0.58636 0.16323 0.0
H297 H 0.86821 0.60381 0.16131 0.0
H298 H 0.76882 0.57793 0.21817 0.0
H299 H 0.73108 0.48394 0.151 0.0
H300 H 0.77112 0.50076 0.16561 0.0
H301 H 0.76642 0.52542 0.14661 0.0
C302 C 0.85142 0.56156 0.20512 0.0
C303 C 0.87047 0.58052 0.18897 0.0
C304 C 0.81682 0.55131 0.20605 0.0
C305 C 0.80087 0.55962 0.19075 0.0
C306 C 0.82005 0.57942 0.17504 0.0
H307 H 0.63342 0.58349 0.16844 0.0
H308 H 0.68554 0.58685 0.18168 0.0
C309 C 0.85447 0.5897 0.17411 0.0
C310 C 0.76397 0.54725 0.19059 0.0
H311 H 0.6918 0.50277 0.15952 0.0
C312 C 0.75168 0.56095 0.20561 0.0
C313 C 0.74162 0.52452 0.17444 0.0
C314 C 0.7531 0.5075 0.1586 0.0
C315 C 0.71804 0.55446 0.204 0.0
C316 C 0.69665 0.53429 0.18676 0.0
C317 C 0.70829 0.51854 0.17263 0.0
C318 C 0.66365 0.53201 0.18175 0.0
C319 C 0.70605 0.5699 0.2205 0.0
C320 C 0.63405 0.50004 0.17722 0.0
C321 C 0.6043 0.49803 0.16932 0.0
C322 C 0.60373 0.52799 0.16576 0.0
C323 C 0.63301 0.55996 0.17106 0.0
C324 C 0.66276 0.56193 0.17884 0.0
H325 H 0.7196 0.57324 0.23551 0.0
H326 H 0.71177 0.59559 0.2164 0.0
H327 H 0.67813 0.55383 0.22224 0.0
H328 H 0.63429 0.47664 0.17919 0.0
H329 H 0.58209 0.47302 0.16546 0.0
H330 H 0.34019 0.8297 0.53426 0.0
H331 H 0.30141 0.76777 0.53476 0.0
H332 H 0.24847 0.76799 0.47952 0.0
H333 H 0.28749 0.8294 0.47851 0.0
H334 H 0.22618 0.72547 0.53356 0.0
H335 H 0.28523 0.70193 0.4656 0.0
H336 H 0.30527 0.74225 0.48088 0.0
H337 H 0.27126 0.73204 0.46232 0.0
C338 C 0.3202 0.81654 0.52226 0.0
C339 C 0.31709 0.83442 0.50625 0.0
C340 C 0.29797 0.78129 0.52267 0.0
C341 C 0.27245 0.76343 0.50705 0.0
C342 C 0.26826 0.78139 0.49161 0.0
H343 H 0.09942 0.5615 0.48697 0.0
H344 H 0.13843 0.62145 0.49838 0.0
C345 C 0.29042 0.81654 0.49117 0.0
C346 C 0.25153 0.72572 0.50597 0.0
H347 H 0.23374 0.65471 0.47555 0.0
C348 C 0.22793 0.70985 0.52101 0.0
C349 C 0.25444 0.70555 0.48979 0.0
C350 C 0.28062 0.72121 0.47381 0.0
C351 C 0.20611 0.67416 0.5198 0.0
C352 C 0.20783 0.65415 0.50299 0.0
C353 C 0.23234 0.67007 0.4884 0.0
C354 C 0.18358 0.61689 0.49943 0.0
C355 C 0.1815 0.65826 0.5365 0.0
C356 C 0.19596 0.59435 0.49628 0.0
C357 C 0.1738 0.56019 0.48945 0.0
C358 C 0.13884 0.54795 0.48566 0.0
C359 C 0.12621 0.57012 0.48984 0.0
C360 C 0.14845 0.60438 0.49652 0.0
H361 H 0.19065 0.6748 0.55106 0.0
H362 H 0.15647 0.6551 0.53171 0.0
H363 H 0.17759 0.6327 0.53941 0.0
H364 H 0.22301 0.60353 0.49836 0.0
H365 H 0.18428 0.5437 0.48645 0.0
H366 H 0.5217 0.31919 0.81636 0.0
H367 H 0.53755 0.27717 0.82443 0.0
H368 H 0.5733 0.32645 0.88531 0.0
H369 H 0.55741 0.36892 0.87729 0.0
H370 H 0.61888 0.31221 0.86674 0.0
H371 H 0.49042 0.19718 0.86001 0.0
H372 H 0.498 0.22085 0.83774 0.0
H373 H 0.49698 0.23993 0.86245 0.0
C374 C 0.53237 0.32078 0.83159 0.0
C375 C 0.53799 0.34715 0.84626 0.0
C376 C 0.54137 0.29671 0.8362 0.0
C377 C 0.55585 0.29824 0.85563 0.0
C378 C 0.56182 0.32467 0.8703 0.0
H379 H 0.57774 0.11902 0.85522 0.0
H380 H 0.56918 0.1634 0.87201 0.0
C381 C 0.55288 0.34893 0.86567 0.0
C382 C 0.56633 0.27312 0.85985 0.0
H383 H 0.53756 0.18787 0.85279 0.0
C384 C 0.60103 0.28493 0.86422 0.0
C385 C 0.54293 0.23754 0.85722 0.0
C386 C 0.50495 0.22316 0.85434 0.0
C387 C 0.61336 0.26215 0.86401 0.0
C388 C 0.59048 0.22692 0.8588 0.0
C389 C 0.55534 0.21492 0.85647 0.0
C390 C 0.60237 0.20292 0.85259 0.0
C391 C 0.65092 0.27627 0.8687 0.0
C392 C 0.62493 0.21069 0.83664 0.0
C393 C 0.63016 0.18553 0.82719 0.0
C394 C 0.61233 0.15188 0.83321 0.0
C395 C 0.59165 0.14468 0.85014 0.0
C396 C 0.58675 0.17002 0.85976 0.0
H397 H 0.6612 0.2983 0.8804 0.0
H398 H 0.65598 0.25657 0.87435 0.0
H399 H 0.66497 0.2858 0.85458 0.0
H400 H 0.6366 0.23552 0.83041 0.0
H401 H 0.64625 0.19194 0.8142 0.0
H402 H 0.47189 0.90296 0.49234 0.0
H403 H 0.47122 0.85045 0.50008 0.0
H404 H 0.577 0.90996 0.52126 0.0
H405 H 0.57787 0.96249 0.51381 0.0
H406 H 0.50951 0.82217 0.48555 0.0
H407 H 0.53397 0.85262 0.56961 0.0
H408 H 0.52187 0.87601 0.55337 0.0
H409 H 0.56522 0.885 0.5547 0.0
C410 C 0.49509 0.90497 0.49861 0.0
C411 C 0.52491 0.93724 0.50248 0.0
C412 C 0.49464 0.87481 0.50306 0.0
C413 C 0.52388 0.87607 0.51165 0.0
C414 C 0.55384 0.90816 0.51512 0.0
H415 H 0.568 0.71935 0.55102 0.0
H416 H 0.57144 0.77315 0.54288 0.0
C417 C 0.55434 0.93829 0.51066 0.0
C418 C 0.52317 0.84389 0.51673 0.0
H419 H 0.53529 0.80376 0.55611 0.0
C420 C 0.51502 0.81814 0.501 0.0
C421 C 0.53053 0.83846 0.53687 0.0
C422 C 0.53809 0.86431 0.55467 0.0
C423 C 0.5145 0.78759 0.50476 0.0
C424 C 0.52157 0.78201 0.52494 0.0
C425 C 0.52993 0.80786 0.54064 0.0
C426 C 0.51955 0.74924 0.53012 0.0
C427 C 0.5071 0.76188 0.4869 0.0
C428 C 0.48911 0.71773 0.5261 0.0
C429 C 0.48711 0.68699 0.5307 0.0
C430 C 0.5154 0.68675 0.53965 0.0
C431 C 0.54572 0.7184 0.54408 0.0
C432 C 0.54771 0.74925 0.53943 0.0
H433 H 0.51258 0.77404 0.47208 0.0
H434 H 0.52237 0.74923 0.48855 0.0
H435 H 0.47964 0.74193 0.48627 0.0
H436 H 0.46668 0.71685 0.51946 0.0
H437 H 0.46321 0.6633 0.52719 0.0
H438 H 0.68079 0.60739 0.8459 0.0
H439 H 0.73286 0.60597 0.85344 0.0
H440 H 0.67986 0.49793 0.83541 0.0
H441 H 0.62772 0.49923 0.82746 0.0
H442 H 0.74516 0.57127 0.88133 0.0
H443 H 0.76519 0.53025 0.80385 0.0
H444 H 0.73525 0.5447 0.80811 0.0
H445 H 0.72406 0.50186 0.81324 0.0
C446 C 0.68016 0.58331 0.8433 0.0
C447 C 0.64986 0.55347 0.83588 0.0
C448 C 0.71009 0.58254 0.84769 0.0
C449 C 0.71073 0.55196 0.84477 0.0
C450 C 0.68052 0.52208 0.83736 0.0
H451 H 0.8751 0.50689 0.87001 0.0
H452 H 0.81979 0.50189 0.8615 0.0
C453 C 0.65055 0.52285 0.83288 0.0
C454 C 0.74263 0.55137 0.85027 0.0
H455 H 0.80175 0.53294 0.83109 0.0
C456 C 0.75749 0.56293 0.87028 0.0
C457 C 0.75888 0.54029 0.836 0.0
C458 C 0.74527 0.52886 0.81405 0.0
C459 C 0.78779 0.56371 0.87638 0.0
C460 C 0.80431 0.55315 0.86204 0.0
C461 C 0.7892 0.54101 0.84213 0.0
C462 C 0.83794 0.55591 0.86721 0.0
C463 C 0.80164 0.57549 0.89827 0.0
C464 C 0.86683 0.58792 0.87303 0.0
C465 C 0.89842 0.59085 0.87786 0.0
C466 C 0.90217 0.56185 0.87698 0.0
C467 C 0.87325 0.52977 0.87099 0.0
C468 C 0.84157 0.52688 0.86606 0.0
H469 H 0.7815 0.57317 0.90861 0.0
H470 H 0.81279 0.56054 0.90407 0.0
H471 H 0.82203 0.60284 0.89903 0.0
H472 H 0.86506 0.61085 0.87366 0.0
H473 H 0.92 0.61604 0.88227 0.0
H474 H 0.125 0.66445 0.15938 0.0
H475 H 0.18021 0.71657 0.16714 0.0
H476 H 0.22268 0.65629 0.18698 0.0
H477 H 0.16759 0.60389 0.17903 0.0
H478 H 0.21676 0.74229 0.2043 0.0
H479 H 0.29359 0.71787 0.14823 0.0
H480 H 0.24751 0.69364 0.14694 0.0
H481 H 0.27132 0.68398 0.16486 0.0
C482 C 0.14611 0.66211 0.16519 0.0
C483 C 0.14165 0.62971 0.16846 0.0
C484 C 0.17774 0.69208 0.16969 0.0
C485 C 0.20592 0.69055 0.17743 0.0
C486 C 0.20165 0.65827 0.18064 0.0
H487 H 0.41534 0.84026 0.21887 0.0
H488 H 0.36016 0.78896 0.20962 0.0
C489 C 0.16997 0.62823 0.17616 0.0
C490 C 0.23928 0.72277 0.18281 0.0
H491 H 0.32416 0.76493 0.17289 0.0
C492 C 0.2402 0.74731 0.19733 0.0
C493 C 0.27001 0.72948 0.17379 0.0
C494 C 0.27066 0.70504 0.15745 0.0
C495 C 0.27092 0.77778 0.20341 0.0
C496 C 0.30169 0.78446 0.19443 0.0
C497 C 0.30072 0.75998 0.17983 0.0
C498 C 0.33525 0.81625 0.20023 0.0
C499 C 0.27024 0.80205 0.21987 0.0
C500 C 0.34007 0.84902 0.19793 0.0
C501 C 0.37176 0.87861 0.20332 0.0
C502 C 0.39952 0.87617 0.21098 0.0
C503 C 0.39465 0.8433 0.21309 0.0
C504 C 0.36301 0.81381 0.20775 0.0
H505 H 0.24722 0.78916 0.22901 0.0
H506 H 0.29329 0.81321 0.23045 0.0
H507 H 0.26975 0.82328 0.21257 0.0
H508 H 0.31942 0.85175 0.19174 0.0
H509 H 0.37455 0.90339 0.20133 0.0
H510 H 0.57659 0.15329 0.49321 0.0
H511 H 0.57833 0.20773 0.49964 0.0
H512 H 0.47225 0.15352 0.51399 0.0
H513 H 0.47057 0.09905 0.50821 0.0
H514 H 0.54475 0.23487 0.48195 0.0
H515 H 0.51215 0.22037 0.5634 0.0
H516 H 0.5231 0.19231 0.54923 0.0
H517 H 0.4806 0.18563 0.54663 0.0
C518 C 0.5536 0.15284 0.49781 0.0
C519 C 0.52351 0.12153 0.50035 0.0
C520 C 0.55464 0.18414 0.50147 0.0
C521 C 0.52564 0.18505 0.50778 0.0
C522 C 0.49532 0.15379 0.50976 0.0
H523 H 0.47533 0.34547 0.53096 0.0
H524 H 0.47517 0.29152 0.52573 0.0
C525 C 0.49431 0.1225 0.50625 0.0
C526 C 0.52696 0.21857 0.51186 0.0
H527 H 0.51119 0.26608 0.54783 0.0
C528 C 0.53762 0.24173 0.49642 0.0
C529 C 0.51776 0.22784 0.53076 0.0
C530 C 0.5081 0.2054 0.54853 0.0
C531 C 0.53856 0.27323 0.49914 0.0
C532 C 0.52895 0.28225 0.51793 0.0
C533 C 0.51842 0.25922 0.5334 0.0
C534 C 0.52944 0.31534 0.52173 0.0
C535 C 0.54906 0.29627 0.48166 0.0
C536 C 0.5601 0.34691 0.52169 0.0
C537 C 0.56031 0.37787 0.52479 0.0
C538 C 0.52984 0.37809 0.52803 0.0
C539 C 0.49928 0.34641 0.52848 0.0
C540 C 0.49913 0.31546 0.52548 0.0
H541 H 0.54776 0.28235 0.46683 0.0
H542 H 0.5326 0.30767 0.48012 0.0
H543 H 0.5758 0.31746 0.48476 0.0
H544 H 0.58395 0.34763 0.51923 0.0
H545 H 0.58435 0.40168 0.52438 0.0
H546 H 0.48615 0.60771 0.82895 0.0
H547 H 0.43364 0.60853 0.83536 0.0
H548 H 0.3816 0.50087 0.84482 0.0
H549 H 0.43407 0.49996 0.83891 0.0
H550 H 0.37056 0.57474 0.81598 0.0
H551 H 0.35907 0.53769 0.89602 0.0
H552 H 0.39731 0.55036 0.88228 0.0
H553 H 0.3613 0.50757 0.87811 0.0
C554 C 0.4636 0.58417 0.83243 0.0
C555 C 0.46467 0.55381 0.83355 0.0
C556 C 0.43348 0.58469 0.8361 0.0
C557 C 0.40363 0.55494 0.84104 0.0
C558 C 0.40439 0.52443 0.84163 0.0
H559 H 0.19394 0.50096 0.86397 0.0
H560 H 0.24764 0.50187 0.85866 0.0
C561 C 0.43449 0.5239 0.83804 0.0
C562 C 0.37163 0.55567 0.84521 0.0
H563 H 0.31107 0.5374 0.88067 0.0
C564 C 0.35773 0.56679 0.83019 0.0
C565 C 0.35466 0.54532 0.86376 0.0
C566 C 0.36899 0.53488 0.88105 0.0
C567 C 0.32715 0.56707 0.83297 0.0
C568 C 0.31005 0.55645 0.85143 0.0
C569 C 0.324 0.54546 0.86649 0.0
C570 C 0.27757 0.5563 0.85532 0.0
C571 C 0.31294 0.57791 0.81583 0.0
C572 C 0.27641 0.58668 0.8557 0.0
C573 C 0.2457 0.58627 0.8588 0.0
C574 C 0.21531 0.55544 0.86167 0.0
C575 C 0.21673 0.52517 0.86178 0.0
C576 C 0.24749 0.52564 0.85874 0.0
H577 H 0.32399 0.57684 0.80096 0.0
H578 H 0.28472 0.56145 0.81403 0.0
H579 H 0.31923 0.60468 0.81948 0.0
H580 H 0.29932 0.61082 0.85356 0.0
H581 H 0.24572 0.61011 0.85869 0.0
H582 H 0.9224 0.48073 0.17747 0.0
H583 H 0.86944 0.42825 0.18417 0.0
H584 H 0.91072 0.36763 0.15934 0.0
H585 H 0.96365 0.41975 0.1526 0.0
H586 H 0.82292 0.37051 0.15652 0.0
H587 H 0.88179 0.33267 0.21696 0.0
H588 H 0.90233 0.37542 0.20838 0.0
H589 H 0.90293 0.34154 0.19318 0.0
C590 C 0.92022 0.45626 0.17332 0.0
C591 C 0.94755 0.45468 0.16452 0.0
C592 C 0.88986 0.42622 0.17719 0.0
C593 C 0.8862 0.39389 0.17259 0.0
C594 C 0.91307 0.39221 0.16338 0.0
H595 H 0.73116 0.1819 0.18774 0.0
H596 H 0.78286 0.23574 0.18157 0.0
C597 C 0.94332 0.42216 0.15938 0.0
C598 C 0.8544 0.36193 0.17739 0.0
H599 H 0.82467 0.29222 0.20582 0.0
C600 C 0.82324 0.35348 0.16739 0.0
C601 C 0.85476 0.33957 0.19152 0.0
C602 C 0.88714 0.34777 0.20329 0.0
C603 C 0.79272 0.32298 0.17071 0.0
C604 C 0.79302 0.30056 0.18488 0.0
C605 C 0.82422 0.30921 0.19497 0.0
C606 C 0.76148 0.26781 0.1892 0.0
C607 C 0.76069 0.31457 0.15843 0.0
C608 C 0.7322 0.26763 0.19604 0.0
C609 C 0.70244 0.23676 0.19948 0.0
C610 C 0.7013 0.20525 0.19645 0.0
C611 C 0.73099 0.20558 0.19023 0.0
C612 C 0.76066 0.23644 0.18667 0.0
H613 H 0.76662 0.32868 0.14431 0.0
H614 H 0.74503 0.28673 0.15395 0.0
H615 H 0.74519 0.32215 0.16787 0.0
H616 H 0.73229 0.29141 0.19872 0.0
H617 H 0.68022 0.2376 0.2044 0.0
H618 H 0.03046 0.58469 0.0975 0.0
H619 H 0.03087 0.5867 0.06018 0.0
H620 H 0.06082 0.51037 0.05558 0.0
H621 H 0.06275 0.51019 0.09297 0.0
H622 H 0.09504 0.55409 0.03126 0.0
H623 H 0.96286 0.52564 0.01713 0.0
H624 H 0.98648 0.56358 0.03391 0.0
H625 H 0.97861 0.523 0.04202 0.0
C626 C 0.03707 0.56832 0.08848 0.0
C627 C 0.04655 0.54727 0.09814 0.0
C628 C 0.03691 0.56916 0.06708 0.0
C629 C 0.04495 0.548 0.0548 0.0
C630 C 0.05437 0.52691 0.06455 0.0
H631 H 1.0074 0.51245 0.92105 0.0
H632 H 1.00157 0.51085 0.95834 0.0
C633 C 0.05549 0.52681 0.08596 0.0
C634 C 0.04528 0.54894 0.03194 0.0
H635 H 0.99985 0.54751 0.98925 0.0
C636 C 0.07399 0.55231 0.02213 0.0
C637 C 1.01767 0.54599 0.01974 0.0
C638 C 0.98455 0.53895 0.02873 0.0
C639 C 0.07611 0.55318 1.00073 0.0
C640 C 0.04958 0.55265 0.98868 0.0
C641 C 0.02056 0.54868 0.99841 0.0
C642 C 0.05137 0.55557 0.96601 0.0
C643 C 0.10642 0.55351 0.99134 0.0
C644 C 0.08048 0.58206 0.95774 0.0
C645 C 0.08415 0.58239 0.93655 0.0
C646 C 0.05813 0.55716 0.92307 0.0
C647 C 0.02775 0.53231 0.93113 0.0
C648 C 0.0245 0.53135 0.95245 0.0
H649 H 0.11733 0.54195 1.00127 0.0
H650 H 0.0994 0.53928 0.97601 0.0
H651 H 0.12675 0.58036 0.98969 0.0
H652 H 0.10096 0.60196 0.96771 0.0
H653 H 0.10771 0.60202 0.93069 0.0
H654 H 0.56891 0.01779 0.43104 0.0
H655 H 0.57188 0.01942 0.39369 0.0
H656 H 0.48557 0.03436 0.39079 0.0
H657 H 0.48235 0.03279 0.42807 0.0
H658 H 0.51903 0.97744 0.36134 0.0
H659 H 0.56298 0.11618 0.36213 0.0
H660 H 0.56541 0.09633 0.38477 0.0
H661 H 0.52524 0.09072 0.37578 0.0
C662 C 0.55048 0.02134 0.42247 0.0
C663 C 0.5255 0.02535 0.43261 0.0
C664 C 0.55217 0.02217 0.40111 0.0
C665 C 0.52916 0.02733 0.38949 0.0
C666 C 0.50383 0.03074 0.39949 0.0
H667 H 0.49874 1.01202 0.25553 0.0
H668 H 0.49033 1.00249 0.29201 0.0
C669 C 0.50199 0.02974 0.42082 0.0
C670 C 0.53212 0.02992 0.36696 0.0
H671 H 0.55175 0.08595 0.3297 0.0
C672 C 0.52608 1.0011 0.35438 0.0
C673 C 0.5416 0.06091 0.35796 0.0
C674 C 0.54947 0.09295 0.3708 0.0
C675 C 0.5291 1.00245 0.33301 0.0
C676 C 0.5383 0.03338 0.32401 0.0
C677 C 0.54445 0.06219 0.33661 0.0
C678 C 0.54332 0.03702 0.30167 0.0
C679 C 0.52321 0.97108 0.32022 0.0
C680 C 0.57582 0.05959 0.29496 0.0
C681 C 0.58075 0.06478 0.27413 0.0
C682 C 0.55326 0.04765 0.25944 0.0
C683 C 0.52068 0.02484 0.2662 0.0
C684 C 0.51578 0.01953 0.28712 0.0
H685 H 0.5222 0.9512 0.32983 0.0
H686 H 0.49858 0.95992 0.31118 0.0
H687 H 0.54373 0.97794 0.30926 0.0
H688 H 0.59741 0.07345 0.30591 0.0
H689 H 0.60621 0.08257 0.26957 0.0
H690 H 0.59967 0.60997 0.76631 0.0
H691 H 0.59587 0.61395 0.72922 0.0
H692 H 0.50774 0.51214 0.72314 0.0
H693 H 0.51083 0.50828 0.7601 0.0
H694 H 0.60036 0.57677 0.69725 0.0
H695 H 0.47253 0.56315 0.69245 0.0
H696 H 0.49604 0.57107 0.7166 0.0
H697 H 0.47157 0.52827 0.70458 0.0
C698 C 0.5794 0.58846 0.75709 0.0
C699 C 0.55541 0.55889 0.76626 0.0
C700 C 0.57723 0.5908 0.73586 0.0
C701 C 0.55102 0.56368 0.72337 0.0
C702 C 0.52755 0.53387 0.73246 0.0
H703 H 0.50453 0.48849 0.59921 0.0
H704 H 0.50987 0.50155 0.63627 0.0
C705 C 0.52955 0.53159 0.75364 0.0
C706 C 0.54881 0.56579 0.70075 0.0
H707 H 0.49299 0.55239 0.66071 0.0
C708 C 0.57709 0.5721 0.68931 0.0
C709 C 0.51856 0.56 0.69031 0.0
C710 C 0.4881 0.55562 0.70166 0.0
C711 C 0.57526 0.57084 0.66774 0.0
C712 C 0.54441 0.56315 0.65734 0.0
C713 C 0.5166 0.55821 0.66874 0.0
C714 C 0.53947 0.55638 0.63469 0.0
C715 C 0.60571 0.5761 0.65607 0.0
C716 C 0.55378 0.58302 0.62144 0.0
C717 C 0.55048 0.57563 0.60007 0.0
C718 C 0.53312 0.54147 0.59172 0.0
C719 C 0.51817 0.51507 0.60512 0.0
C720 C 0.52113 0.52245 0.62633 0.0
H721 H 0.62744 0.58056 0.66641 0.0
H722 H 0.59842 0.55336 0.64536 0.0
H723 H 0.6143 0.59846 0.64674 0.0
H724 H 0.56802 0.60941 0.62765 0.0
H725 H 0.56267 0.5965 0.59019 0.0
H726 H 0.4902 0.97482 0.55852 0.0
H727 H 0.49156 0.97456 0.59586 0.0
H728 H 0.556 0.08454 0.60106 0.0
H729 H 0.55597 0.08478 0.56364 0.0
H730 H 0.57902 0.05745 0.62636 0.0
H731 H 0.44005 0.99878 0.63538 0.0
H732 H 0.44975 0.97213 0.61904 0.0
H733 H 0.45922 1.01336 0.61131 0.0
C734 C 0.50448 0.99897 0.56764 0.0
C735 C 0.52282 0.02986 0.5582 0.0
C736 C 0.50504 0.9988 0.58899 0.0
C737 C 0.52321 0.02959 0.60131 0.0
C738 C 0.54164 0.06047 0.59188 0.0
H739 H 0.50048 0.0544 0.73134 0.0
H740 H 0.49705 0.05174 0.69392 0.0
C741 C 0.54161 0.0606 0.5705 0.0
C742 C 0.52403 0.02954 0.62401 0.0
H743 H 0.4734 1.00194 0.66487 0.0
C744 C 0.55591 0.04549 0.63479 0.0
C745 C 0.49388 0.01434 0.63504 0.0
C746 C 0.45882 0.99902 0.62461 0.0
C747 C 0.55854 0.04648 0.65625 0.0
C748 C 0.5284 0.0299 0.66721 0.0
C749 C 0.4965 0.01419 0.65645 0.0
C750 C 0.52936 0.02978 0.6899 0.0
C751 C 0.5936 0.06618 0.66693 0.0
C752 C 0.54794 0.01748 0.70012 0.0
C753 C 0.55044 0.0195 0.72155 0.0
C754 C 0.53366 0.03307 0.73313 0.0
C755 C 0.51371 0.04379 0.72285 0.0
C756 C 0.51172 0.04231 0.70145 0.0
H757 H 0.61253 0.08547 0.65714 0.0
H758 H 0.59326 0.07956 0.68159 0.0
H759 H 0.60244 0.04817 0.67032 0.0
H760 H 0.56085 1.00665 0.69153 0.0
H761 H 0.56564 1.01065 0.72903 0.0
H762 H 0.52561 0.57554 0.89498 0.0
H763 H 0.5189 0.56853 0.93173 0.0
H764 H 0.57457 0.51467 0.93006 0.0
H765 H 0.57953 0.5199 0.89309 0.0
H766 H 0.52249 0.4826 0.95132 0.0
H767 H 0.58438 0.61912 0.97874 0.0
H768 H 0.54923 0.60748 0.96091 0.0
H769 H 0.58588 0.60561 0.95252 0.0
C770 C 0.53665 0.56247 0.90253 0.0
C771 C 0.5532 0.54837 0.89126 0.0
C772 C 0.53304 0.55869 0.92357 0.0
C773 C 0.54691 0.54175 0.93384 0.0
C774 C 0.56373 0.52794 0.92255 0.0
H775 H 0.56694 0.55078 0.06704 0.0
H776 H 0.57633 0.55926 0.03058 0.0
C777 C 0.56661 0.53098 0.90143 0.0
C778 C 0.54249 0.53691 0.95612 0.0
H779 H 0.5511 0.57875 0.00284 0.0
C780 C 0.52908 0.50372 0.9626 0.0
C781 C 0.55158 0.56447 0.97095 0.0
C782 C 0.56892 0.60118 0.96545 0.0
C783 C 0.52415 0.49724 0.98337 0.0
C784 C 0.53128 0.52447 0.99804 0.0
C785 C 0.54512 0.55774 0.99161 0.0
C786 C 0.52529 0.51922 0.02018 0.0
C787 C 0.51227 0.4614 0.9893 0.0
C788 C 0.49335 0.49426 0.02657 0.0
C789 C 0.48825 0.4888 0.04737 0.0
C790 C 0.51462 0.50902 0.06222 0.0
C791 C 0.54614 0.53486 0.0559 0.0
C792 C 0.55151 0.53972 0.03508 0.0
H793 H 0.51917 0.44717 0.97785 0.0
H794 H 0.5235 0.46161 0.00455 0.0
H795 H 0.48404 0.44717 0.98987 0.0
H796 H 0.4723 0.47898 0.0155 0.0
H797 H 0.46354 0.46903 0.05186 0.0
H798 H 0.0435 0.58085 0.23238 0.0
H799 H 0.04546 0.57592 0.26952 0.0
H800 H 0.04131 0.47938 0.25864 0.0
H801 H 0.03949 0.48398 0.22175 0.0
H802 H 0.99782 0.52036 0.29389 0.0
H803 H 0.12851 0.53962 0.29665 0.0
H804 H 0.11165 0.55138 0.27542 0.0
H805 H 0.09989 0.50749 0.27741 0.0
C806 C 0.04295 0.55855 0.2379 0.0
C807 C 0.04162 0.53295 0.22408 0.0
C808 C 0.04401 0.55577 0.2591 0.0
C809 C 0.04403 0.52754 0.26675 0.0
C810 C 0.04188 0.50163 0.25301 0.0
H811 H 0.05239 0.44432 0.37894 0.0
H812 H 0.04793 0.45758 0.3437 0.0
C813 C 0.04073 0.5043 0.2319 0.0
C814 C 0.04664 0.52492 0.28908 0.0
H815 H 0.09608 0.51786 0.32605 0.0
C816 C 0.01944 0.52024 0.30105 0.0
C817 C 0.07498 0.52492 0.2983 0.0
C818 C 0.1056 0.53144 0.28635 0.0
C819 C 0.01915 0.51391 0.32187 0.0
C820 C 0.04699 0.5127 0.33088 0.0
C821 C 0.07465 0.51853 0.31904 0.0
C822 C 0.04752 0.50405 0.35233 0.0
C823 C 0.98855 0.5072 0.33387 0.0
C824 C 0.04884 0.52586 0.36884 0.0
C825 C 0.05143 0.51835 0.38903 0.0
C826 C 0.05271 0.4889 0.393 0.0
C827 C 0.0513 0.46712 0.37639 0.0
C828 C 0.04871 0.47463 0.35626 0.0
H829 H 0.96652 0.50247 0.32372 0.0
H830 H 0.98054 0.48481 0.34311 0.0
H831 H 0.99543 0.5298 0.3446 0.0
H832 H 0.04883 0.54916 0.36611 0.0
H833 H 0.05378 0.53631 0.40143 0.0
loop_
_geom_bond_atom_site_label_1
_geom_bond_atom_site_label_2
_geom_bond_distance
_geom_bond_site_symmetry_2
_ccdc_geom_bond_type
Tb0 C9 2.730 1_455 S
Tb0 O10 2.323 1_455 S
Tb0 O13 2.322 . S
Tb0 O17 2.350 . S
Tb0 O18 2.358 . S
Tb0 O21 2.386 1_455 S
Tb0 O22 2.367 1_455 S
Tb1 O11 2.322 1_455 S
Tb1 O12 2.349 . S
Tb1 O14 2.415 . S
Tb1 O15 2.399 . S
Tb1 O16 2.325 . S
Tb1 O19 2.303 . S
Tb1 C30 2.764 . S
C2 O18 1.261 . S
C2 O19 1.257 . S
C3 C6 1.358 . S
C3 C7 1.332 . S
C3 C9 1.504 . S
C4 C5 1.373 . S
C4 C8 1.308 . S
C5 C4 1.373 . S
C5 C6 1.429 . S
C5 H32 0.932 . S
C6 C3 1.358 . S
C6 C5 1.429 . S
C6 H33 0.930 . S
C7 C3 1.332 . S
C7 C8 1.394 . S
C7 H34 0.932 . S
C8 C4 1.308 . S
C8 C7 1.394 . S
C8 H35 0.929 . S
C9 Tb0 2.730 1_655 S
C9 C3 1.504 . S
C9 O21 1.239 . S
C9 O22 1.263 . S
O10 Tb0 2.323 1_655 S
O10 C20 1.236 . S
O11 Tb1 2.322 1_655 S
O11 C20 1.257 . S
O12 Tb1 2.349 . S
O12 C23 1.261 . S
O13 Tb0 2.322 . S
O13 C23 1.257 . S
O14 Tb1 2.415 . S
O14 C30 1.239 . S
O15 Tb1 2.399 . S
O15 C30 1.263 . S
O16 Tb1 2.325 . S
O16 C31 1.236 . S
O17 Tb0 2.350 . S
O17 C31 1.257 . S
O18 Tb0 2.358 . S
O18 C2 1.261 . S
O19 Tb1 2.303 . S
O19 C2 1.257 . S
C20 O10 1.236 . S
C20 O11 1.257 . S
O21 Tb0 2.386 1_655 S
O21 C9 1.239 . S
O22 Tb0 2.367 1_655 S
O22 C9 1.263 . S
C23 O12 1.261 . S
C23 O13 1.257 . S
C24 C27 1.358 . S
C24 C28 1.332 . S
C24 C30 1.504 . S
C25 C26 1.373 . S
C25 C29 1.308 . S
C26 C25 1.373 . S
C26 C27 1.429 . S
C26 H36 0.932 . S
C27 C24 1.358 . S
C27 C26 1.429 . S
C27 H37 0.930 . S
C28 C24 1.332 . S
C28 C29 1.394 . S
C28 H38 0.932 . S
C29 C25 1.308 . S
C29 C28 1.394 . S
C29 H39 0.929 . S
C30 Tb1 2.764 . S
C30 O14 1.239 . S
C30 O15 1.263 . S
C30 C24 1.504 . S
C31 O16 1.236 . S
C31 O17 1.257 . S
H32 C5 0.932 . S
H33 C6 0.930 . S
H34 C7 0.932 . S
H35 C8 0.929 . S
H36 C26 0.932 . S
H37 C27 0.930 . S
H38 C28 0.932 . S
H39 C29 0.929 . S
Tb40 C49 2.764 1_545 S
Tb40 O50 2.325 1_545 S
Tb40 O53 2.303 . S
Tb40 O57 2.322 . S
Tb40 O58 2.349 . S
Tb40 O61 2.415 1_545 S
Tb40 O62 2.399 1_545 S
Tb41 O51 2.325 . S
Tb41 O52 2.349 . S
Tb41 O54 2.415 . S
Tb41 O55 2.399 . S
Tb41 O56 2.325 . S
Tb41 O59 2.303 . S
Tb41 C70 2.764 . S
C42 O58 1.261 . S
C42 O59 1.257 . S
C43 C46 1.358 . S
C43 C47 1.332 . S
C43 C49 1.504 . S
C44 C45 1.373 . S
C44 C48 1.308 . S
C45 C44 1.373 . S
C45 C46 1.429 . S
C45 H72 0.932 . S
C46 C43 1.358 . S
C46 C45 1.429 . S
C46 H73 0.930 . S
C47 C43 1.332 . S
C47 C48 1.394 . S
C47 H74 0.932 . S
C48 C44 1.308 . S
C48 C47 1.394 . S
C48 H75 0.929 . S
C49 Tb40 2.764 1_565 S
C49 C43 1.504 . S
C49 O61 1.239 . S
C49 O62 1.263 . S
O50 Tb40 2.325 1_565 S
O50 C60 1.236 . S
O51 Tb41 2.325 . S
O51 C60 1.256 1_545 S
O52 Tb41 2.349 . S
O52 C63 1.261 . S
O53 Tb40 2.303 . S
O53 C63 1.257 . S
O54 Tb41 2.415 . S
O54 C70 1.239 . S
O55 Tb41 2.399 . S
O55 C70 1.263 . S
O56 Tb41 2.325 . S
O56 C71 1.236 . S
O57 Tb40 2.322 . S
O57 C71 1.257 . S
O58 Tb40 2.349 . S
O58 C42 1.261 . S
O59 Tb41 2.303 . S
O59 C42 1.257 . S
C60 O50 1.236 . S
C60 O51 1.256 1_565 S
O61 Tb40 2.415 1_565 S
O61 C49 1.239 . S
O62 Tb40 2.399 1_565 S
O62 C49 1.263 . S
C63 O52 1.261 . S
C63 O53 1.257 . S
C64 C67 1.358 . S
C64 C68 1.332 . S
C64 C70 1.504 . S
C65 C66 1.373 . S
C65 C69 1.308 . S
C66 C65 1.373 . S
C66 C67 1.429 . S
C66 H76 0.932 . S
C67 C64 1.358 . S
C67 C66 1.429 . S
C67 H77 0.930 . S
C68 C64 1.332 . S
C68 C69 1.394 . S
C68 H78 0.932 . S
C69 C65 1.308 . S
C69 C68 1.394 . S
C69 H79 0.929 . S
C70 Tb41 2.764 . S
C70 O54 1.239 . S
C70 O55 1.263 . S
C70 C64 1.504 . S
C71 O56 1.236 . S
C71 O57 1.257 . S
H72 C45 0.932 . S
H73 C46 0.930 . S
H74 C47 0.932 . S
H75 C48 0.929 . S
H76 C66 0.932 . S
H77 C67 0.930 . S
H78 C68 0.932 . S
H79 C69 0.929 . S
Tb80 C89 2.764 . S
Tb80 O90 2.325 . S
Tb80 O93 2.303 . S
Tb80 O97 2.322 . S
Tb80 O98 2.349 . S
Tb80 O101 2.415 . S
Tb80 O102 2.399 . S
Tb81 O91 2.322 . S
Tb81 O92 2.349 . S
Tb81 O94 2.415 . S
Tb81 O95 2.399 . S
Tb81 O96 2.325 . S
Tb81 O99 2.303 . S
Tb81 C110 2.764 . S
C82 O98 1.261 . S
C82 O99 1.257 . S
C83 C86 1.358 . S
C83 C87 1.332 . S
C83 C89 1.504 . S
C84 C85 1.373 . S
C84 C88 1.308 . S
C85 C84 1.373 . S
C85 C86 1.429 . S
C85 H112 0.932 . S
C86 C83 1.358 . S
C86 C85 1.429 . S
C86 H113 0.930 . S
C87 C83 1.332 . S
C87 C88 1.394 . S
C87 H114 0.932 . S
C88 C84 1.308 . S
C88 C87 1.394 . S
C88 H115 0.929 . S
C89 Tb80 2.764 . S
C89 C83 1.504 . S
C89 O101 1.239 . S
C89 O102 1.263 . S
O90 Tb80 2.325 . S
O90 C100 1.236 . S
O91 Tb81 2.322 . S
O91 C100 1.257 . S
O92 Tb81 2.349 . S
O92 C103 1.261 . S
O93 Tb80 2.303 . S
O93 C103 1.257 . S
O94 Tb81 2.415 . S
O94 C110 1.239 . S
O95 Tb81 2.399 . S
O95 C110 1.263 . S
O96 Tb81 2.325 . S
O96 C111 1.236 . S
O97 Tb80 2.322 . S
O97 C111 1.257 . S
O98 Tb80 2.349 . S
O98 C82 1.261 . S
O99 Tb81 2.303 . S
O99 C82 1.257 . S
C100 O90 1.236 . S
C100 O91 1.257 . S
O101 Tb80 2.415 . S
O101 C89 1.239 . S
O102 Tb80 2.399 . S
O102 C89 1.263 . S
C103 O92 1.261 . S
C103 O93 1.257 . S
C104 C107 1.358 . S
C104 C108 1.332 . S
C104 C110 1.504 . S
C105 C106 1.373 . S
C105 C109 1.308 . S
C106 C105 1.373 . S
C106 C107 1.429 . S
C106 H116 0.932 . S
C107 C104 1.358 . S
C107 C106 1.429 . S
C107 H117 0.930 . S
C108 C104 1.332 . S
C108 C109 1.394 . S
C108 H118 0.932 . S
C109 C105 1.308 . S
C109 C108 1.394 . S
C109 H119 0.929 . S
C110 Tb81 2.764 . S
C110 O94 1.239 . S
C110 O95 1.263 . S
C110 C104 1.504 . S
C111 O96 1.236 . S
C111 O97 1.257 . S
H112 C85 0.932 . S
H113 C86 0.930 . S
H114 C87 0.932 . S
H115 C88 0.929 . S
H116 C106 0.932 . S
H117 C107 0.930 . S
H118 C108 0.932 . S
H119 C109 0.929 . S
O120 Cd121 2.300 . S
O120 C127 1.275 . S
Cd121 O120 2.300 . S
Cd121 O129 2.381 . S
Cd121 O130 2.378 . S
O122 Cd123 2.385 1_545 S
O122 C127 1.255 . S
Cd123 O122 2.385 1_565 S
Cd123 O124 2.317 . S
O124 Cd123 2.317 . S
O124 C125 1.232 . S
C125 O124 1.232 . S
C125 O126 1.218 . S
O126 C125 1.218 . S
C127 O120 1.275 . S
C127 O122 1.255 . S
C128 O129 1.258 . S
C128 O130 1.256 . S
O129 Cd121 2.381 . S
O129 C128 1.258 . S
O130 Cd121 2.378 . S
O130 C128 1.256 . S
O131 Cd132 2.300 . S
O131 C138 1.275 . S
Cd132 O131 2.300 . S
Cd132 O140 2.381 . S
Cd132 O141 2.378 . S
O133 Cd134 2.385 . S
O133 C138 1.255 . S
Cd134 O133 2.385 . S
Cd134 O135 2.317 . S
O135 Cd134 2.317 . S
O135 C136 1.232 . S
C136 O135 1.232 . S
C136 O137 1.218 . S
O137 C136 1.218 . S
C138 O131 1.275 . S
C138 O133 1.255 . S
C139 O140 1.258 . S
C139 O141 1.256 . S
O140 Cd132 2.381 . S
O140 C139 1.258 . S
O141 Cd132 2.378 . S
O141 C139 1.256 . S
O142 Cd143 2.300 . S
O142 C149 1.275 . S
Cd143 O142 2.300 . S
Cd143 O151 2.381 . S
Cd143 O152 2.378 . S
O144 Cd145 2.385 1_455 S
O144 C149 1.255 . S
Cd145 O144 2.385 1_655 S
Cd145 O146 2.317 . S
O146 Cd145 2.317 . S
O146 C147 1.232 . S
C147 O146 1.232 . S
C147 O148 1.218 . S
O148 C147 1.218 . S
C149 O142 1.275 . S
C149 O144 1.255 . S
C150 O151 1.258 . S
C150 O152 1.256 . S
O151 Cd143 2.381 . S
O151 C150 1.258 . S
O152 Cd143 2.378 . S
O152 C150 1.256 . S
O153 Cd154 2.300 . S
O153 C160 1.275 1_455 S
Cd154 O153 2.300 . S
Cd154 O162 2.381 . S
Cd154 O163 2.378 . S
O155 Cd156 2.385 . S
O155 C160 1.255 . S
Cd156 O155 2.385 . S
Cd156 O157 2.317 . S
O157 Cd156 2.317 . S
O157 C158 1.232 . S
C158 O157 1.232 . S
C158 O159 1.218 . S
O159 C158 1.218 . S
C160 O153 1.275 1_655 S
C160 O155 1.255 . S
C161 O162 1.258 . S
C161 O163 1.256 . S
O162 Cd154 2.381 . S
O162 C161 1.258 . S
O163 Cd154 2.378 . S
O163 C161 1.256 . S
O164 Cd165 2.300 . S
O164 C171 1.275 1_565 S
Cd165 O164 2.300 . S
Cd165 O173 2.381 . S
Cd165 O174 2.378 . S
O166 Cd167 2.385 . S
O166 C171 1.255 . S
Cd167 O166 2.385 . S
Cd167 O168 2.317 . S
O168 Cd167 2.317 . S
O168 C169 1.232 . S
C169 O168 1.232 . S
C169 O170 1.218 . S
O170 C169 1.218 . S
C171 O164 1.275 1_545 S
C171 O166 1.255 . S
C172 O173 1.258 . S
C172 O174 1.256 . S
O173 Cd165 2.381 . S
O173 C172 1.258 . S
O174 Cd165 2.378 . S
O174 C172 1.256 . S
O175 Cd176 2.300 . S
O175 C182 1.275 . S
Cd176 O175 2.300 . S
Cd176 O184 2.381 . S
Cd176 O185 2.378 . S
O177 Cd178 2.385 . S
O177 C182 1.255 . S
Cd178 O177 2.385 . S
Cd178 O179 2.317 . S
O179 Cd178 2.317 . S
O179 C180 1.232 . S
C180 O179 1.232 . S
C180 O181 1.218 . S
O181 C180 1.218 . S
C182 O175 1.275 . S
C182 O177 1.255 . S
C183 O184 1.258 . S
C183 O185 1.256 . S
O184 Cd176 2.381 . S
O184 C183 1.258 . S
O185 Cd176 2.378 . S
O185 C183 1.256 . S
H186 C194 0.929 . S
H187 C196 0.930 . S
H188 C198 0.930 . S
H189 C201 0.929 . S
H190 C204 0.930 . S
H191 C206 0.960 . S
H192 C206 0.960 . S
H193 C206 0.960 . S
C194 H186 0.929 . S
C194 C195 1.377 . S
C194 C196 1.384 . S
C195 C194 1.377 . S
C195 C201 1.390 . S
C196 H187 0.930 . S
C196 C194 1.384 . S
C196 C197 1.372 . S
C197 C196 1.372 . S
C197 C198 1.400 . S
C197 C202 1.490 . S
C198 H188 0.930 . S
C198 C197 1.400 . S
C198 C201 1.386 . S
H199 C215 0.930 . S
H200 C216 0.931 . S
C201 H189 0.929 . S
C201 C195 1.390 . S
C201 C198 1.386 . S
C202 C197 1.490 . S
C202 C204 1.395 . S
C202 C205 1.403 . S
H203 C209 0.930 . S
C204 H190 0.930 . S
C204 C202 1.395 . S
C204 C207 1.403 . S
C205 C202 1.403 . S
C205 C206 1.524 . S
C205 C209 1.400 . S
C206 H191 0.960 . S
C206 H192 0.960 . S
C206 H193 0.960 . S
C206 C205 1.524 . S
C207 C204 1.403 . S
C207 C208 1.392 . S
C207 C211 1.495 . S
C208 C207 1.392 . S
C208 C209 1.385 . S
C208 C210 1.478 . S
C209 H203 0.930 . S
C209 C205 1.400 . S
C209 C208 1.385 . S
C210 C208 1.478 . S
C210 C212 1.381 . S
C210 C216 1.383 . S
C211 C207 1.495 . S
C211 H217 0.959 . S
C211 H218 0.961 . S
C211 H219 0.960 . S
C212 C210 1.381 . S
C212 C213 1.394 . S
C212 H220 0.930 . S
C213 C212 1.394 . S
C213 C214 1.383 . S
C213 H221 0.929 . S
C214 C213 1.383 . S
C214 C215 1.377 . S
C215 H199 0.930 . S
C215 C214 1.377 . S
C215 C216 1.379 . S
C216 H200 0.931 . S
C216 C210 1.383 . S
C216 C215 1.379 . S
H217 C211 0.959 . S
H218 C211 0.961 . S
H219 C211 0.960 . S
H220 C212 0.930 . S
H221 C213 0.929 . S
H222 C230 0.929 . S
H223 C232 0.930 . S
H224 C234 0.930 . S
H225 C237 0.929 . S
H226 C240 0.930 . S
H227 C242 0.960 . S
H228 C242 0.960 . S
H229 C242 0.960 . S
C230 H222 0.929 . S
C230 C231 1.377 . S
C230 C232 1.384 . S
C231 C230 1.377 . S
C231 C237 1.390 . S
C232 H223 0.930 . S
C232 C230 1.384 . S
C232 C233 1.372 . S
C233 C232 1.372 . S
C233 C234 1.400 . S
C233 C238 1.490 . S
C234 H224 0.930 . S
C234 C233 1.400 . S
C234 C237 1.386 . S
H235 C251 0.930 . S
H236 C252 0.931 . S
C237 H225 0.929 . S
C237 C231 1.390 . S
C237 C234 1.386 . S
C238 C233 1.490 . S
C238 C240 1.395 . S
C238 C241 1.403 . S
H239 C245 0.930 . S
C240 H226 0.930 . S
C240 C238 1.395 . S
C240 C243 1.403 . S
C241 C238 1.403 . S
C241 C242 1.524 . S
C241 C245 1.400 . S
C242 H227 0.960 . S
C242 H228 0.960 . S
C242 H229 0.960 . S
C242 C241 1.524 . S
C243 C240 1.403 . S
C243 C244 1.392 . S
C243 C247 1.495 . S
C244 C243 1.392 . S
C244 C245 1.385 . S
C244 C246 1.478 . S
C245 H239 0.930 . S
C245 C241 1.400 . S
C245 C244 1.385 . S
C246 C244 1.478 . S
C246 C248 1.381 . S
C246 C252 1.383 . S
C247 C243 1.495 . S
C247 H253 0.959 . S
C247 H254 0.961 . S
C247 H255 0.960 . S
C248 C246 1.381 . S
C248 C249 1.394 . S
C248 H256 0.930 . S
C249 C248 1.394 . S
C249 C250 1.383 . S
C249 H257 0.929 . S
C250 C249 1.383 . S
C250 C251 1.377 . S
C251 H235 0.930 . S
C251 C250 1.377 . S
C251 C252 1.379 . S
C252 H236 0.931 . S
C252 C246 1.383 . S
C252 C251 1.379 . S
H253 C247 0.959 . S
H254 C247 0.961 . S
H255 C247 0.960 . S
H256 C248 0.930 . S
H257 C249 0.929 . S
H258 C266 0.929 . S
H259 C268 0.930 . S
H260 C270 0.930 . S
H261 C273 0.929 . S
H262 C276 0.930 . S
H263 C278 0.960 . S
H264 C278 0.960 . S
H265 C278 0.960 . S
C266 H258 0.929 . S
C266 C267 1.377 . S
C266 C268 1.384 . S
C267 C266 1.377 . S
C267 C273 1.390 . S
C268 H259 0.930 . S
C268 C266 1.384 . S
C268 C269 1.372 . S
C269 C268 1.372 . S
C269 C270 1.400 . S
C269 C274 1.490 . S
C270 H260 0.930 . S
C270 C269 1.400 . S
C270 C273 1.386 . S
H271 C287 0.930 . S
H272 C288 0.931 . S
C273 H261 0.929 . S
C273 C267 1.390 . S
C273 C270 1.386 . S
C274 C269 1.490 . S
C274 C276 1.395 . S
C274 C277 1.403 . S
H275 C281 0.930 . S
C276 H262 0.930 . S
C276 C274 1.395 . S
C276 C279 1.403 . S
C277 C274 1.403 . S
C277 C278 1.524 . S
C277 C281 1.400 . S
C278 H263 0.960 . S
C278 H264 0.960 . S
C278 H265 0.960 . S
C278 C277 1.524 . S
C279 C276 1.403 . S
C279 C280 1.392 . S
C279 C283 1.495 . S
C280 C279 1.392 . S
C280 C281 1.385 . S
C280 C282 1.478 . S
C281 H275 0.930 . S
C281 C277 1.400 . S
C281 C280 1.385 . S
C282 C280 1.478 . S
C282 C284 1.381 . S
C282 C288 1.383 . S
C283 C279 1.495 . S
C283 H289 0.959 . S
C283 H290 0.961 . S
C283 H291 0.960 . S
C284 C282 1.381 . S
C284 C285 1.394 . S
C284 H292 0.930 . S
C285 C284 1.394 . S
C285 C286 1.383 . S
C285 H293 0.929 . S
C286 C285 1.383 . S
C286 C287 1.377 . S
C287 H271 0.930 . S
C287 C286 1.377 . S
C287 C288 1.379 . S
C288 H272 0.931 . S
C288 C282 1.383 . S
C288 C287 1.379 . S
H289 C283 0.959 . S
H290 C283 0.961 . S
H291 C283 0.960 . S
H292 C284 0.930 . S
H293 C285 0.929 . S
H294 C302 0.929 . S
H295 C304 0.930 . S
H296 C306 0.930 . S
H297 C309 0.929 . S
H298 C312 0.930 . S
H299 C314 0.960 . S
H300 C314 0.960 . S
H301 C314 0.960 . S
C302 H294 0.929 . S
C302 C303 1.377 . S
C302 C304 1.384 . S
C303 C302 1.377 . S
C303 C309 1.390 . S
C304 H295 0.930 . S
C304 C302 1.384 . S
C304 C305 1.372 . S
C305 C304 1.372 . S
C305 C306 1.400 . S
C305 C310 1.490 . S
C306 H296 0.930 . S
C306 C305 1.400 . S
C306 C309 1.386 . S
H307 C323 0.930 . S
H308 C324 0.931 . S
C309 H297 0.929 . S
C309 C303 1.390 . S
C309 C306 1.386 . S
C310 C305 1.490 . S
C310 C312 1.395 . S
C310 C313 1.403 . S
H311 C317 0.930 . S
C312 H298 0.930 . S
C312 C310 1.395 . S
C312 C315 1.403 . S
C313 C310 1.403 . S
C313 C314 1.524 . S
C313 C317 1.400 . S
C314 H299 0.960 . S
C314 H300 0.960 . S
C314 H301 0.960 . S
C314 C313 1.524 . S
C315 C312 1.403 . S
C315 C316 1.392 . S
C315 C319 1.495 . S
C316 C315 1.392 . S
C316 C317 1.385 . S
C316 C318 1.478 . S
C317 H311 0.930 . S
C317 C313 1.400 . S
C317 C316 1.385 . S
C318 C316 1.478 . S
C318 C320 1.381 . S
C318 C324 1.383 . S
C319 C315 1.495 . S
C319 H325 0.959 . S
C319 H326 0.961 . S
C319 H327 0.960 . S
C320 C318 1.381 . S
C320 C321 1.394 . S
C320 H328 0.930 . S
C321 C320 1.394 . S
C321 C322 1.383 . S
C321 H329 0.929 . S
C322 C321 1.383 . S
C322 C323 1.377 . S
C323 H307 0.930 . S
C323 C322 1.377 . S
C323 C324 1.379 . S
C324 H308 0.931 . S
C324 C318 1.383 . S
C324 C323 1.379 . S
H325 C319 0.959 . S
H326 C319 0.961 . S
H327 C319 0.960 . S
H328 C320 0.930 . S
H329 C321 0.929 . S
H330 C338 0.929 . S
H331 C340 0.930 . S
H332 C342 0.930 . S
H333 C345 0.929 . S
H334 C348 0.930 . S
H335 C350 0.960 . S
H336 C350 0.960 . S
H337 C350 0.960 . S
C338 H330 0.929 . S
C338 C339 1.377 . S
C338 C340 1.384 . S
C339 C338 1.377 . S
C339 C345 1.390 . S
C340 H331 0.930 . S
C340 C338 1.384 . S
C340 C341 1.372 . S
C341 C340 1.372 . S
C341 C342 1.400 . S
C341 C346 1.490 . S
C342 H332 0.930 . S
C342 C341 1.400 . S
C342 C345 1.386 . S
H343 C359 0.930 . S
H344 C360 0.931 . S
C345 H333 0.929 . S
C345 C339 1.390 . S
C345 C342 1.386 . S
C346 C341 1.490 . S
C346 C348 1.395 . S
C346 C349 1.403 . S
H347 C353 0.930 . S
C348 H334 0.930 . S
C348 C346 1.395 . S
C348 C351 1.403 . S
C349 C346 1.403 . S
C349 C350 1.524 . S
C349 C353 1.400 . S
C350 H335 0.960 . S
C350 H336 0.960 . S
C350 H337 0.960 . S
C350 C349 1.524 . S
C351 C348 1.403 . S
C351 C352 1.392 . S
C351 C355 1.495 . S
C352 C351 1.392 . S
C352 C353 1.385 . S
C352 C354 1.478 . S
C353 H347 0.930 . S
C353 C349 1.400 . S
C353 C352 1.385 . S
C354 C352 1.478 . S
C354 C356 1.381 . S
C354 C360 1.383 . S
C355 C351 1.495 . S
C355 H361 0.959 . S
C355 H362 0.961 . S
C355 H363 0.960 . S
C356 C354 1.381 . S
C356 C357 1.394 . S
C356 H364 0.930 . S
C357 C356 1.394 . S
C357 C358 1.383 . S
C357 H365 0.929 . S
C358 C357 1.383 . S
C358 C359 1.377 . S
C359 H343 0.930 . S
C359 C358 1.377 . S
C359 C360 1.379 . S
C360 H344 0.931 . S
C360 C354 1.383 . S
C360 C359 1.379 . S
H361 C355 0.959 . S
H362 C355 0.961 . S
H363 C355 0.960 . S
H364 C356 0.930 . S
H365 C357 0.929 . S
H366 C374 0.929 . S
H367 C376 0.930 . S
H368 C378 0.930 . S
H369 C381 0.929 . S
H370 C384 0.930 . S
H371 C386 0.960 . S
H372 C386 0.960 . S
H373 C386 0.960 . S
C374 H366 0.929 . S
C374 C375 1.377 . S
C374 C376 1.384 . S
C375 C374 1.377 . S
C375 C381 1.390 . S
C376 H367 0.930 . S
C376 C374 1.384 . S
C376 C377 1.372 . S
C377 C376 1.372 . S
C377 C378 1.400 . S
C377 C382 1.490 . S
C378 H368 0.930 . S
C378 C377 1.400 . S
C378 C381 1.386 . S
H379 C395 0.930 . S
H380 C396 0.931 . S
C381 H369 0.929 . S
C381 C375 1.390 . S
C381 C378 1.386 . S
C382 C377 1.490 . S
C382 C384 1.395 . S
C382 C385 1.403 . S
H383 C389 0.930 . S
C384 H370 0.930 . S
C384 C382 1.395 . S
C384 C387 1.403 . S
C385 C382 1.403 . S
C385 C386 1.524 . S
C385 C389 1.400 . S
C386 H371 0.960 . S
C386 H372 0.960 . S
C386 H373 0.960 . S
C386 C385 1.524 . S
C387 C384 1.403 . S
C387 C388 1.392 . S
C387 C391 1.495 . S
C388 C387 1.392 . S
C388 C389 1.385 . S
C388 C390 1.478 . S
C389 H383 0.930 . S
C389 C385 1.400 . S
C389 C388 1.385 . S
C390 C388 1.478 . S
C390 C392 1.381 . S
C390 C396 1.383 . S
C391 C387 1.495 . S
C391 H397 0.959 . S
C391 H398 0.961 . S
C391 H399 0.960 . S
C392 C390 1.381 . S
C392 C393 1.394 . S
C392 H400 0.930 . S
C393 C392 1.394 . S
C393 C394 1.383 . S
C393 H401 0.929 . S
C394 C393 1.383 . S
C394 C395 1.377 . S
C395 H379 0.930 . S
C395 C394 1.377 . S
C395 C396 1.379 . S
C396 H380 0.931 . S
C396 C390 1.383 . S
C396 C395 1.379 . S
H397 C391 0.959 . S
H398 C391 0.961 . S
H399 C391 0.960 . S
H400 C392 0.930 . S
H401 C393 0.929 . S
H402 C410 0.929 . S
H403 C412 0.930 . S
H404 C414 0.930 . S
H405 C417 0.929 . S
H406 C420 0.930 . S
H407 C422 0.960 . S
H408 C422 0.960 . S
H409 C422 0.960 . S
C410 H402 0.929 . S
C410 C411 1.377 . S
C410 C412 1.384 . S
C411 C410 1.377 . S
C411 C417 1.390 . S
C412 H403 0.930 . S
C412 C410 1.384 . S
C412 C413 1.372 . S
C413 C412 1.372 . S
C413 C414 1.400 . S
C413 C418 1.490 . S
C414 H404 0.930 . S
C414 C413 1.400 . S
C414 C417 1.386 . S
H415 C431 0.930 . S
H416 C432 0.931 . S
C417 H405 0.929 . S
C417 C411 1.390 . S
C417 C414 1.386 . S
C418 C413 1.490 . S
C418 C420 1.395 . S
C418 C421 1.403 . S
H419 C425 0.930 . S
C420 H406 0.930 . S
C420 C418 1.395 . S
C420 C423 1.403 . S
C421 C418 1.403 . S
C421 C422 1.524 . S
C421 C425 1.400 . S
C422 H407 0.960 . S
C422 H408 0.960 . S
C422 H409 0.960 . S
C422 C421 1.524 . S
C423 C420 1.403 . S
C423 C424 1.392 . S
C423 C427 1.495 . S
C424 C423 1.392 . S
C424 C425 1.385 . S
C424 C426 1.478 . S
C425 H419 0.930 . S
C425 C421 1.400 . S
C425 C424 1.385 . S
C426 C424 1.478 . S
C426 C428 1.381 . S
C426 C432 1.383 . S
C427 C423 1.495 . S
C427 H433 0.959 . S
C427 H434 0.961 . S
C427 H435 0.960 . S
C428 C426 1.381 . S
C428 C429 1.394 . S
C428 H436 0.930 . S
C429 C428 1.394 . S
C429 C430 1.383 . S
C429 H437 0.929 . S
C430 C429 1.383 . S
C430 C431 1.377 . S
C431 H415 0.930 . S
C431 C430 1.377 . S
C431 C432 1.379 . S
C432 H416 0.931 . S
C432 C426 1.383 . S
C432 C431 1.379 . S
H433 C427 0.959 . S
H434 C427 0.961 . S
H435 C427 0.960 . S
H436 C428 0.930 . S
H437 C429 0.929 . S
H438 C446 0.929 . S
H439 C448 0.930 . S
H440 C450 0.930 . S
H441 C453 0.929 . S
H442 C456 0.930 . S
H443 C458 0.960 . S
H444 C458 0.960 . S
H445 C458 0.960 . S
C446 H438 0.929 . S
C446 C447 1.377 . S
C446 C448 1.384 . S
C447 C446 1.377 . S
C447 C453 1.390 . S
C448 H439 0.930 . S
C448 C446 1.384 . S
C448 C449 1.372 . S
C449 C448 1.372 . S
C449 C450 1.400 . S
C449 C454 1.490 . S
C450 H440 0.930 . S
C450 C449 1.400 . S
C450 C453 1.386 . S
H451 C467 0.930 . S
H452 C468 0.931 . S
C453 H441 0.929 . S
C453 C447 1.390 . S
C453 C450 1.386 . S
C454 C449 1.490 . S
C454 C456 1.395 . S
C454 C457 1.403 . S
H455 C461 0.930 . S
C456 H442 0.930 . S
C456 C454 1.395 . S
C456 C459 1.403 . S
C457 C454 1.403 . S
C457 C458 1.524 . S
C457 C461 1.400 . S
C458 H443 0.960 . S
C458 H444 0.960 . S
C458 H445 0.960 . S
C458 C457 1.524 . S
C459 C456 1.403 . S
C459 C460 1.392 . S
C459 C463 1.495 . S
C460 C459 1.392 . S
C460 C461 1.385 . S
C460 C462 1.478 . S
C461 H455 0.930 . S
C461 C457 1.400 . S
C461 C460 1.385 . S
C462 C460 1.478 . S
C462 C464 1.381 . S
C462 C468 1.383 . S
C463 C459 1.495 . S
C463 H469 0.959 . S
C463 H470 0.961 . S
C463 H471 0.960 . S
C464 C462 1.381 . S
C464 C465 1.394 . S
C464 H472 0.930 . S
C465 C464 1.394 . S
C465 C466 1.383 . S
C465 H473 0.929 . S
C466 C465 1.383 . S
C466 C467 1.377 . S
C467 H451 0.930 . S
C467 C466 1.377 . S
C467 C468 1.379 . S
C468 H452 0.931 . S
C468 C462 1.383 . S
C468 C467 1.379 . S
H469 C463 0.959 . S
H470 C463 0.961 . S
H471 C463 0.960 . S
H472 C464 0.930 . S
H473 C465 0.929 . S
H474 C482 0.929 . S
H475 C484 0.930 . S
H476 C486 0.930 . S
H477 C489 0.929 . S
H478 C492 0.930 . S
H479 C494 0.960 . S
H480 C494 0.960 . S
H481 C494 0.960 . S
C482 H474 0.929 . S
C482 C483 1.377 . S
C482 C484 1.384 . S
C483 C482 1.377 . S
C483 C489 1.390 . S
C484 H475 0.930 . S
C484 C482 1.384 . S
C484 C485 1.372 . S
C485 C484 1.372 . S
C485 C486 1.400 . S
C485 C490 1.490 . S
C486 H476 0.930 . S
C486 C485 1.400 . S
C486 C489 1.386 . S
H487 C503 0.930 . S
H488 C504 0.931 . S
C489 H477 0.929 . S
C489 C483 1.390 . S
C489 C486 1.386 . S
C490 C485 1.490 . S
C490 C492 1.395 . S
C490 C493 1.403 . S
H491 C497 0.930 . S
C492 H478 0.930 . S
C492 C490 1.395 . S
C492 C495 1.403 . S
C493 C490 1.403 . S
C493 C494 1.524 . S
C493 C497 1.400 . S
C494 H479 0.960 . S
C494 H480 0.960 . S
C494 H481 0.960 . S
C494 C493 1.524 . S
C495 C492 1.403 . S
C495 C496 1.392 . S
C495 C499 1.495 . S
C496 C495 1.392 . S
C496 C497 1.385 . S
C496 C498 1.478 . S
C497 H491 0.930 . S
C497 C493 1.400 . S
C497 C496 1.385 . S
C498 C496 1.478 . S
C498 C500 1.381 . S
C498 C504 1.383 . S
C499 C495 1.495 . S
C499 H505 0.959 . S
C499 H506 0.961 . S
C499 H507 0.960 . S
C500 C498 1.381 . S
C500 C501 1.394 . S
C500 H508 0.930 . S
C501 C500 1.394 . S
C501 C502 1.383 . S
C501 H509 0.929 . S
C502 C501 1.383 . S
C502 C503 1.377 . S
C503 H487 0.930 . S
C503 C502 1.377 . S
C503 C504 1.379 . S
C504 H488 0.931 . S
C504 C498 1.383 . S
C504 C503 1.379 . S
H505 C499 0.959 . S
H506 C499 0.961 . S
H507 C499 0.960 . S
H508 C500 0.930 . S
H509 C501 0.929 . S
H510 C518 0.929 . S
H511 C520 0.930 . S
H512 C522 0.930 . S
H513 C525 0.929 . S
H514 C528 0.930 . S
H515 C530 0.960 . S
H516 C530 0.960 . S
H517 C530 0.960 . S
C518 H510 0.929 . S
C518 C519 1.377 . S
C518 C520 1.384 . S
C519 C518 1.377 . S
C519 C525 1.390 . S
C520 H511 0.930 . S
C520 C518 1.384 . S
C520 C521 1.372 . S
C521 C520 1.372 . S
C521 C522 1.400 . S
C521 C526 1.490 . S
C522 H512 0.930 . S
C522 C521 1.400 . S
C522 C525 1.386 . S
H523 C539 0.930 . S
H524 C540 0.931 . S
C525 H513 0.929 . S
C525 C519 1.390 . S
C525 C522 1.386 . S
C526 C521 1.490 . S
C526 C528 1.395 . S
C526 C529 1.403 . S
H527 C533 0.930 . S
C528 H514 0.930 . S
C528 C526 1.395 . S
C528 C531 1.403 . S
C529 C526 1.403 . S
C529 C530 1.524 . S
C529 C533 1.400 . S
C530 H515 0.960 . S
C530 H516 0.960 . S
C530 H517 0.960 . S
C530 C529 1.524 . S
C531 C528 1.403 . S
C531 C532 1.392 . S
C531 C535 1.495 . S
C532 C531 1.392 . S
C532 C533 1.385 . S
C532 C534 1.478 . S
C533 H527 0.930 . S
C533 C529 1.400 . S
C533 C532 1.385 . S
C534 C532 1.478 . S
C534 C536 1.381 . S
C534 C540 1.383 . S
C535 C531 1.495 . S
C535 H541 0.959 . S
C535 H542 0.961 . S
C535 H543 0.960 . S
C536 C534 1.381 . S
C536 C537 1.394 . S
C536 H544 0.930 . S
C537 C536 1.394 . S
C537 C538 1.383 . S
C537 H545 0.929 . S
C538 C537 1.383 . S
C538 C539 1.377 . S
C539 H523 0.930 . S
C539 C538 1.377 . S
C539 C540 1.379 . S
C540 H524 0.931 . S
C540 C534 1.383 . S
C540 C539 1.379 . S
H541 C535 0.959 . S
H542 C535 0.961 . S
H543 C535 0.960 . S
H544 C536 0.930 . S
H545 C537 0.929 . S
H546 C554 0.929 . S
H547 C556 0.930 . S
H548 C558 0.930 . S
H549 C561 0.929 . S
H550 C564 0.930 . S
H551 C566 0.960 . S
H552 C566 0.960 . S
H553 C566 0.960 . S
C554 H546 0.929 . S
C554 C555 1.377 . S
C554 C556 1.384 . S
C555 C554 1.377 . S
C555 C561 1.390 . S
C556 H547 0.930 . S
C556 C554 1.384 . S
C556 C557 1.372 . S
C557 C556 1.372 . S
C557 C558 1.400 . S
C557 C562 1.490 . S
C558 H548 0.930 . S
C558 C557 1.400 . S
C558 C561 1.386 . S
H559 C575 0.930 . S
H560 C576 0.931 . S
C561 H549 0.929 . S
C561 C555 1.390 . S
C561 C558 1.386 . S
C562 C557 1.490 . S
C562 C564 1.395 . S
C562 C565 1.403 . S
H563 C569 0.930 . S
C564 H550 0.930 . S
C564 C562 1.395 . S
C564 C567 1.403 . S
C565 C562 1.403 . S
C565 C566 1.524 . S
C565 C569 1.400 . S
C566 H551 0.960 . S
C566 H552 0.960 . S
C566 H553 0.960 . S
C566 C565 1.524 . S
C567 C564 1.403 . S
C567 C568 1.392 . S
C567 C571 1.495 . S
C568 C567 1.392 . S
C568 C569 1.385 . S
C568 C570 1.478 . S
C569 H563 0.930 . S
C569 C565 1.400 . S
C569 C568 1.385 . S
C570 C568 1.478 . S
C570 C572 1.381 . S
C570 C576 1.383 . S
C571 C567 1.495 . S
C571 H577 0.959 . S
C571 H578 0.961 . S
C571 H579 0.960 . S
C572 C570 1.381 . S
C572 C573 1.394 . S
C572 H580 0.930 . S
C573 C572 1.394 . S
C573 C574 1.383 . S
C573 H581 0.929 . S
C574 C573 1.383 . S
C574 C575 1.377 . S
C575 H559 0.930 . S
C575 C574 1.377 . S
C575 C576 1.379 . S
C576 H560 0.931 . S
C576 C570 1.383 . S
C576 C575 1.379 . S
H577 C571 0.959 . S
H578 C571 0.961 . S
H579 C571 0.960 . S
H580 C572 0.930 . S
H581 C573 0.929 . S
H582 C590 0.929 . S
H583 C592 0.930 . S
H584 C594 0.930 . S
H585 C597 0.929 . S
H586 C600 0.930 . S
H587 C602 0.960 . S
H588 C602 0.960 . S
H589 C602 0.960 . S
C590 H582 0.929 . S
C590 C591 1.377 . S
C590 C592 1.384 . S
C591 C590 1.377 . S
C591 C597 1.390 . S
C592 H583 0.930 . S
C592 C590 1.384 . S
C592 C593 1.372 . S
C593 C592 1.372 . S
C593 C594 1.400 . S
C593 C598 1.490 . S
C594 H584 0.930 . S
C594 C593 1.400 . S
C594 C597 1.386 . S
H595 C611 0.930 . S
H596 C612 0.931 . S
C597 H585 0.929 . S
C597 C591 1.390 . S
C597 C594 1.386 . S
C598 C593 1.490 . S
C598 C600 1.395 . S
C598 C601 1.403 . S
H599 C605 0.930 . S
C600 H586 0.930 . S
C600 C598 1.395 . S
C600 C603 1.403 . S
C601 C598 1.403 . S
C601 C602 1.524 . S
C601 C605 1.400 . S
C602 H587 0.960 . S
C602 H588 0.960 . S
C602 H589 0.960 . S
C602 C601 1.524 . S
C603 C600 1.403 . S
C603 C604 1.392 . S
C603 C607 1.495 . S
C604 C603 1.392 . S
C604 C605 1.385 . S
C604 C606 1.478 . S
C605 H599 0.930 . S
C605 C601 1.400 . S
C605 C604 1.385 . S
C606 C604 1.478 . S
C606 C608 1.381 . S
C606 C612 1.383 . S
C607 C603 1.495 . S
C607 H613 0.959 . S
C607 H614 0.961 . S
C607 H615 0.960 . S
C608 C606 1.381 . S
C608 C609 1.394 . S
C608 H616 0.930 . S
C609 C608 1.394 . S
C609 C610 1.383 . S
C609 H617 0.929 . S
C610 C609 1.383 . S
C610 C611 1.377 . S
C611 H595 0.930 . S
C611 C610 1.377 . S
C611 C612 1.379 . S
C612 H596 0.931 . S
C612 C606 1.383 . S
C612 C611 1.379 . S
H613 C607 0.959 . S
H614 C607 0.961 . S
H615 C607 0.960 . S
H616 C608 0.930 . S
H617 C609 0.929 . S
H618 C626 0.929 . S
H619 C628 0.930 . S
H620 C630 0.930 . S
H621 C633 0.929 . S
H622 C636 0.930 . S
H623 C638 0.960 . S
H624 C638 0.960 . S
H625 C638 0.960 . S
C626 H618 0.929 . S
C626 C627 1.377 . S
C626 C628 1.384 . S
C627 C626 1.377 . S
C627 C633 1.390 . S
C628 H619 0.930 . S
C628 C626 1.384 . S
C628 C629 1.372 . S
C629 C628 1.372 . S
C629 C630 1.400 . S
C629 C634 1.490 . S
C630 H620 0.930 . S
C630 C629 1.400 . S
C630 C633 1.386 . S
H631 C647 0.930 . S
H632 C648 0.931 . S
C633 H621 0.929 . S
C633 C627 1.390 . S
C633 C630 1.386 . S
C634 C629 1.490 . S
C634 C636 1.395 . S
C634 C637 1.403 . S
H635 C641 0.954 1_655 S
C636 H622 0.930 . S
C636 C634 1.395 . S
C636 C639 1.403 . S
C637 C634 1.403 . S
C637 C638 1.524 1_455 S
C637 C641 1.400 . S
C638 H623 0.960 . S
C638 H624 0.960 . S
C638 H625 0.960 . S
C638 C637 1.524 1_655 S
C639 C636 1.403 . S
C639 C640 1.393 . S
C639 C643 1.495 . S
C640 C639 1.393 . S
C640 C641 1.386 . S
C640 C642 1.475 1_554 S
C641 H635 0.954 1_455 S
C641 C637 1.400 . S
C641 C640 1.386 . S
C642 C640 1.475 1_556 S
C642 C644 1.381 . S
C642 C648 1.383 . S
C643 C639 1.495 . S
C643 H649 0.959 . S
C643 H650 0.961 1_554 S
C643 H651 0.960 1_554 S
C644 C642 1.381 . S
C644 C645 1.394 . S
C644 H652 0.930 . S
C645 C644 1.394 . S
C645 C646 1.383 . S
C645 H653 0.929 . S
C646 C645 1.383 . S
C646 C647 1.377 . S
C647 H631 0.930 . S
C647 C646 1.377 . S
C647 C648 1.379 . S
C648 H632 0.931 . S
C648 C642 1.383 . S
C648 C647 1.379 . S
H649 C643 0.959 . S
H650 C643 0.961 1_556 S
H651 C643 0.960 1_556 S
H652 C644 0.930 . S
H653 C645 0.929 . S
H654 C662 0.929 . S
H655 C664 0.930 . S
H656 C666 0.930 . S
H657 C669 0.929 . S
H658 C672 0.918 1_565 S
H659 C674 0.960 . S
H660 C674 0.960 . S
H661 C674 0.960 . S
C662 H654 0.929 . S
C662 C663 1.377 . S
C662 C664 1.384 . S
C663 C662 1.377 . S
C663 C669 1.390 . S
C664 H655 0.930 . S
C664 C662 1.384 . S
C664 C665 1.372 . S
C665 C664 1.372 . S
C665 C666 1.400 . S
C665 C670 1.490 . S
C666 H656 0.930 . S
C666 C665 1.400 . S
C666 C669 1.386 . S
H667 C683 0.930 . S
H668 C684 0.931 . S
C669 H657 0.929 . S
C669 C663 1.390 . S
C669 C666 1.386 . S
C670 C665 1.490 . S
C670 C672 1.407 . S
C670 C673 1.403 . S
H671 C677 0.930 . S
C672 H658 0.918 1_545 S
C672 C670 1.407 . S
C672 C675 1.403 1_545 S
C673 C670 1.403 . S
C673 C674 1.524 . S
C673 C677 1.400 . S
C674 H659 0.960 . S
C674 H660 0.960 . S
C674 H661 0.960 . S
C674 C673 1.524 . S
C675 C672 1.403 1_565 S
C675 C676 1.392 1_565 S
C675 C679 1.495 . S
C676 C675 1.392 1_545 S
C676 C677 1.385 . S
C676 C678 1.478 . S
C677 H671 0.930 . S
C677 C673 1.400 . S
C677 C676 1.385 . S
C678 C676 1.478 . S
C678 C680 1.381 . S
C678 C684 1.383 . S
C679 C675 1.495 . S
C679 H685 0.959 . S
C679 H686 0.961 . S
C679 H687 0.960 . S
C680 C678 1.381 . S
C680 C681 1.394 . S
C680 H688 0.930 . S
C681 C680 1.394 . S
C681 C682 1.383 . S
C681 H689 0.929 . S
C682 C681 1.383 . S
C682 C683 1.377 . S
C683 H667 0.930 . S
C683 C682 1.377 . S
C683 C684 1.379 . S
C684 H668 0.931 . S
C684 C678 1.383 . S
C684 C683 1.379 . S
H685 C679 0.959 . S
H686 C679 0.961 . S
H687 C679 0.960 . S
H688 C680 0.930 . S
H689 C681 0.929 . S
H690 C698 0.929 . S
H691 C700 0.930 . S
H692 C702 0.930 . S
H693 C705 0.929 . S
H694 C708 0.930 . S
H695 C710 0.960 . S
H696 C710 0.960 . S
H697 C710 0.960 . S
C698 H690 0.929 . S
C698 C699 1.377 . S
C698 C700 1.384 . S
C699 C698 1.377 . S
C699 C705 1.390 . S
C700 H691 0.930 . S
C700 C698 1.384 . S
C700 C701 1.372 . S
C701 C700 1.372 . S
C701 C702 1.400 . S
C701 C706 1.490 . S
C702 H692 0.930 . S
C702 C701 1.400 . S
C702 C705 1.386 . S
H703 C719 0.930 . S
H704 C720 0.931 . S
C705 H693 0.929 . S
C705 C699 1.390 . S
C705 C702 1.386 . S
C706 C701 1.490 . S
C706 C708 1.395 . S
C706 C709 1.403 . S
H707 C713 0.930 . S
C708 H694 0.930 . S
C708 C706 1.395 . S
C708 C711 1.403 . S
C709 C706 1.403 . S
C709 C710 1.524 . S
C709 C713 1.400 . S
C710 H695 0.960 . S
C710 H696 0.960 . S
C710 H697 0.960 . S
C710 C709 1.524 . S
C711 C708 1.403 . S
C711 C712 1.392 . S
C711 C715 1.495 . S
C712 C711 1.392 . S
C712 C713 1.385 . S
C712 C714 1.478 . S
C713 H707 0.930 . S
C713 C709 1.400 . S
C713 C712 1.385 . S
C714 C712 1.478 . S
C714 C716 1.381 . S
C714 C720 1.383 . S
C715 C711 1.495 . S
C715 H721 0.959 . S
C715 H722 0.961 . S
C715 H723 0.960 . S
C716 C714 1.381 . S
C716 C717 1.394 . S
C716 H724 0.930 . S
C717 C716 1.394 . S
C717 C718 1.383 . S
C717 H725 0.929 . S
C718 C717 1.383 . S
C718 C719 1.377 . S
C719 H703 0.930 . S
C719 C718 1.377 . S
C719 C720 1.379 . S
C720 H704 0.931 . S
C720 C714 1.383 . S
C720 C719 1.379 . S
H721 C715 0.959 . S
H722 C715 0.961 . S
H723 C715 0.960 . S
H724 C716 0.930 . S
H725 C717 0.929 . S
H726 C734 0.929 . S
H727 C736 0.930 . S
H728 C738 0.930 . S
H729 C741 0.929 . S
H730 C744 0.930 . S
H731 C746 0.960 . S
H732 C746 0.960 1_565 S
H733 C746 0.960 . S
C734 H726 0.929 . S
C734 C735 1.377 1_565 S
C734 C736 1.384 . S
C735 C734 1.377 1_545 S
C735 C741 1.390 . S
C736 H727 0.930 . S
C736 C734 1.384 . S
C736 C737 1.372 1_565 S
C737 C736 1.372 1_545 S
C737 C738 1.400 . S
C737 C742 1.490 . S
C738 H728 0.930 . S
C738 C737 1.400 . S
C738 C741 1.386 . S
H739 C755 0.930 . S
H740 C756 0.931 . S
C741 H729 0.929 . S
C741 C735 1.390 . S
C741 C738 1.386 . S
C742 C737 1.490 . S
C742 C744 1.395 . S
C742 C745 1.403 . S
H743 C749 0.930 . S
C744 H730 0.930 . S
C744 C742 1.395 . S
C744 C747 1.403 . S
C745 C742 1.403 . S
C745 C746 1.524 . S
C745 C749 1.400 . S
C746 H731 0.960 . S
C746 H732 0.960 1_545 S
C746 H733 0.960 . S
C746 C745 1.524 . S
C747 C744 1.403 . S
C747 C748 1.392 . S
C747 C751 1.495 . S
C748 C747 1.392 . S
C748 C749 1.385 . S
C748 C750 1.478 . S
C749 H743 0.930 . S
C749 C745 1.400 . S
C749 C748 1.385 . S
C750 C748 1.478 . S
C750 C752 1.381 1_545 S
C750 C756 1.383 . S
C751 C747 1.495 . S
C751 H757 0.959 . S
C751 H758 0.961 . S
C751 H759 0.960 1_545 S
C752 C750 1.381 1_565 S
C752 C753 1.394 . S
C752 H760 0.930 . S
C753 C752 1.394 . S
C753 C754 1.383 1_565 S
C753 H761 0.929 . S
C754 C753 1.383 1_545 S
C754 C755 1.377 . S
C755 H739 0.930 . S
C755 C754 1.377 . S
C755 C756 1.379 . S
C756 H740 0.931 . S
C756 C750 1.383 . S
C756 C755 1.379 . S
H757 C751 0.959 . S
H758 C751 0.961 . S
H759 C751 0.960 1_565 S
H760 C752 0.930 . S
H761 C753 0.929 . S
H762 C770 0.929 . S
H763 C772 0.930 . S
H764 C774 0.930 . S
H765 C777 0.929 . S
H766 C780 0.930 . S
H767 C782 0.960 . S
H768 C782 0.960 . S
H769 C782 0.960 . S
C770 H762 0.929 . S
C770 C771 1.377 . S
C770 C772 1.384 . S
C771 C770 1.377 . S
C771 C777 1.390 . S
C772 H763 0.930 . S
C772 C770 1.384 . S
C772 C773 1.372 . S
C773 C772 1.372 . S
C773 C774 1.400 . S
C773 C778 1.490 . S
C774 H764 0.930 . S
C774 C773 1.400 . S
C774 C777 1.386 . S
H775 C791 0.930 . S
H776 C792 0.931 . S
C777 H765 0.929 . S
C777 C771 1.390 . S
C777 C774 1.386 . S
C778 C773 1.490 . S
C778 C780 1.395 . S
C778 C781 1.403 . S
H779 C785 0.930 1_554 S
C780 H766 0.930 . S
C780 C778 1.395 . S
C780 C783 1.403 . S
C781 C778 1.403 . S
C781 C782 1.524 . S
C781 C785 1.400 . S
C782 H767 0.960 . S
C782 H768 0.960 . S
C782 H769 0.960 . S
C782 C781 1.524 . S
C783 C780 1.403 . S
C783 C784 1.358 1_556 S
C783 C787 1.495 . S
C784 C783 1.358 1_554 S
C784 C785 1.369 1_554 S
C784 C786 1.530 . S
C785 H779 0.930 1_556 S
C785 C781 1.400 . S
C785 C784 1.369 1_556 S
C786 C784 1.530 . S
C786 C788 1.381 . S
C786 C792 1.383 . S
C787 C783 1.495 . S
C787 H793 0.959 . S
C787 H794 0.961 . S
C787 H795 0.960 . S
C788 C786 1.381 . S
C788 C789 1.394 . S
C788 H796 0.930 . S
C789 C788 1.394 . S
C789 C790 1.383 . S
C789 H797 0.929 . S
C790 C789 1.383 . S
C790 C791 1.377 . S
C791 H775 0.930 . S
C791 C790 1.377 . S
C791 C792 1.379 . S
C792 H776 0.931 . S
C792 C786 1.383 . S
C792 C791 1.379 . S
H793 C787 0.959 . S
H794 C787 0.961 . S
H795 C787 0.960 . S
H796 C788 0.930 . S
H797 C789 0.929 . S
H798 C806 0.929 . S
H799 C808 0.930 . S
H800 C810 0.930 . S
H801 C813 0.929 . S
H802 C816 0.930 . S
H803 C818 0.960 . S
H804 C818 0.960 . S
H805 C818 0.960 . S
C806 H798 0.929 . S
C806 C807 1.377 . S
C806 C808 1.384 . S
C807 C806 1.377 . S
C807 C813 1.390 . S
C808 H799 0.930 . S
C808 C806 1.384 . S
C808 C809 1.372 . S
C809 C808 1.372 . S
C809 C810 1.400 . S
C809 C814 1.490 . S
C810 H800 0.930 . S
C810 C809 1.400 . S
C810 C813 1.386 . S
H811 C827 0.930 . S
H812 C828 0.931 . S
C813 H801 0.929 . S
C813 C807 1.390 . S
C813 C810 1.386 . S
C814 C809 1.490 . S
C814 C816 1.395 1_455 S
C814 C817 1.403 . S
H815 C821 0.930 . S
C816 H802 0.930 . S
C816 C814 1.395 1_655 S
C816 C819 1.403 . S
C817 C814 1.403 . S
C817 C818 1.524 . S
C817 C821 1.400 . S
C818 H803 0.960 . S
C818 H804 0.960 . S
C818 H805 0.960 . S
C818 C817 1.524 . S
C819 C816 1.403 . S
C819 C820 1.392 . S
C819 C823 1.495 . S
C820 C819 1.392 . S
C820 C821 1.385 1_655 S
C820 C822 1.478 . S
C821 H815 0.930 . S
C821 C817 1.400 . S
C821 C820 1.385 1_455 S
C822 C820 1.478 . S
C822 C824 1.381 . S
C822 C828 1.383 . S
C823 C819 1.495 . S
C823 H829 0.959 . S
C823 H830 0.961 . S
C823 H831 0.960 . S
C824 C822 1.381 . S
C824 C825 1.394 . S
C824 H832 0.922 . S
C825 C824 1.394 . S
C825 C826 1.383 . S
C825 H833 0.929 . S
C826 C825 1.383 . S
C826 C827 1.377 . S
C827 H811 0.930 . S
C827 C826 1.377 . S
C827 C828 1.379 . S
C828 H812 0.931 . S
C828 C822 1.383 . S
C828 C827 1.379 . S
H829 C823 0.959 . S
H830 C823 0.961 . S
H831 C823 0.960 . S
H832 C824 0.922 . S
H833 C825 0.929 . S
C195 C25 0.406 . S
C214 C180 0.741 . S
C231 C65 0.267 . S
C250 C158 0.540 . S
C267 C105 0.288 . S
C286 C172 0.299 . S
C303 C4 0.300 . S
C322 C183 0.364 . S
C358 C161 0.285 . S
C339 C44 0.154 . S
C394 C169 0.621 . S
C375 C84 0.364 . S
C411 C60 3.121 . S
C430 C136 2.769 . S
C447 C100 3.280 . S
C466 C147 2.906 . S
C483 C31 3.252 . S
C502 C125 2.906 . S
C538 C139 2.809 . S
C519 C71 2.876 . S
C574 C150 2.650 . S
C555 C111 2.700 . S
C591 C20 2.737 . S
C610 C128 2.676 . S
C646 C149 1.647 . S
C627 C2 1.670 . S
C663 C42 1.673 . S
C682 C127 1.653 . S
C699 C82 1.713 . S
C718 C138 1.687 . S
C754 C171 1.150 . S
C735 C63 1.214 . S
C790 C182 1.236 . S
C771 C103 1.251 . S
C807 C23 1.256 . S
C826 C160 1.224 . S
