# Generated by pormake.
# Topology rtl, (3,6)-cn, num edge types: 1
# Building blocks:
#     Node 0, Type 0, BuildingBlock: WUSLED_clean_sbu_0, # of connection points: 3
#     Node 1, Type 0, BuildingBlock: WUSLED_clean_sbu_0, # of connection points: 3
#     Node 2, Type 0, BuildingBlock: WUSLED_clean_sbu_0, # of connection points: 3
#     Node 3, Type 0, BuildingBlock: WUSLED_clean_sbu_0, # of connection points: 3
#     Node 4, Type 1, BuildingBlock: CIFDUS_clean_sbu_1, # of connection points: 6
#     Node 5, Type 1, BuildingBlock: CIFDUS_clean_sbu_1, # of connection points: 6
#     Edge 6, Type (0, 1), BuildingBlock: ZUJKAS_clean_linker_0, # of connection points: 2
#     Edge 7, Type (0, 1), BuildingBlock: ZUJKAS_clean_linker_0, # of connection points: 2
#     Edge 8, Type (0, 1), BuildingBlock: ZUJKAS_clean_linker_0, # of connection points: 2
#     Edge 9, Type (0, 1), BuildingBlock: ZUJKAS_clean_linker_0, # of connection points: 2
#     Edge 10, Type (0, 1), BuildingBlock: ZUJKAS_clean_linker_0, # of connection points: 2
#     Edge 11, Type (0, 1), BuildingBlock: ZUJKAS_clean_linker_0, # of connection points: 2
#     Edge 12, Type (0, 1), BuildingBlock: ZUJKAS_clean_linker_0, # of connection points: 2
#     Edge 13, Type (0, 1), BuildingBlock: ZUJKAS_clean_linker_0, # of connection points: 2
#     Edge 14, Type (0, 1), BuildingBlock: ZUJKAS_clean_linker_0, # of connection points: 2
#     Edge 15, Type (0, 1), BuildingBlock: ZUJKAS_clean_linker_0, # of connection points: 2
#     Edge 16, Type (0, 1), BuildingBlock: ZUJKAS_clean_linker_0, # of connection points: 2
#     Edge 17, Type (0, 1), BuildingBlock: ZUJKAS_clean_linker_0, # of connection points: 2
# Relax obj value: 0.026
# Max RMSD: 0.062
# Mean RMSD: 0.045
data_MOF--net-rtl--node1-WUSLED_clean_sbu_0--node2-CIFDUS_clean_sbu_1--edge1-ZUJKAS_clean_linker_0
_symmetry_space_group_name_H-M    P1
_symmetry_Int_Tables_number       1
_symmetry_cell_setting            triclinic
loop_
_symmetry_equiv_pos_as_xyz
'x, y, z'
_cell_length_a     49.377778
_cell_length_b     54.909074
_cell_length_c     37.608237
_cell_angle_alpha  90.588524
_cell_angle_beta   98.097413
_cell_angle_gamma 90.090382
loop_
_atom_site_label
_atom_site_type_symbol
_atom_site_fract_x
_atom_site_fract_y
_atom_site_fract_z
_atom_type_partial_charge
C0 C 0.26624 0.92207 0.20936 0.0
C1 C 0.25209 0.94389 0.2006 0.0
C2 C 0.23416 0.94354 0.25797 0.0
C3 C 0.23631 0.95465 0.22486 0.0
C4 C 0.24886 0.92199 0.2667 0.0
C5 C 0.26471 0.91144 0.24271 0.0
U6 U 0.28454 0.90838 0.11461 0.0
O7 O 0.32409 0.89762 0.09793 0.0
O8 O 0.28885 0.87284 0.08867 0.0
C9 C 0.31494 0.87603 0.08644 0.0
C10 C 0.28162 0.90917 0.18394 0.0
C11 C 0.33296 0.85485 0.09581 0.0
C12 C 0.34585 0.81875 0.1314 0.0
C13 C 0.33095 0.84051 0.12606 0.0
C14 C 0.36575 0.82592 0.0772 0.0
C15 C 0.36308 0.81094 0.10665 0.0
C16 C 0.35083 0.84756 0.07186 0.0
C17 C 0.24678 0.94516 0.03458 0.0
C18 C 0.23557 0.933 0.97177 0.0
C19 C 0.22503 0.97377 0.99061 0.0
C20 C 0.23636 0.9684 0.02585 0.0
C21 C 0.22378 0.95595 0.96324 0.0
C22 C 0.24694 0.92764 1.00714 0.0
C23 C 0.25447 0.9391 0.07283 0.0
O24 O 0.26705 0.89442 0.16106 0.0
O25 O 0.29964 0.92194 0.16927 0.0
O26 O 0.27969 0.94397 0.08749 0.0
O27 O 0.24539 0.91814 0.08294 0.0
H28 H 0.25288 0.95235 0.17486 0.0
H29 H 0.22516 0.97121 0.21733 0.0
H30 H 0.24802 0.91318 0.29216 0.0
H31 H 0.27549 0.89465 0.25002 0.0
H32 H 0.34358 0.80784 0.15464 0.0
H33 H 0.31732 0.84577 0.14497 0.0
H34 H 0.3785 0.82043 0.05735 0.0
H35 H 0.35255 0.85823 0.04819 0.0
H36 H 0.23488 0.91878 0.9515 0.0
H37 H 0.21672 0.99179 0.98498 0.0
H38 H 0.23609 0.9822 0.04661 0.0
H39 H 0.25489 0.90956 1.01329 0.0
C40 C 0.73156 0.65538 0.69945 0.0
C41 C 0.70508 0.64628 0.6882 0.0
C42 C 0.70266 0.63078 0.74837 0.0
C43 C 0.69074 0.63416 0.71244 0.0
C44 C 0.72952 0.63933 0.75902 0.0
C45 C 0.74373 0.65153 0.73487 0.0
U46 U 0.74818 0.67064 0.60566 0.0
O47 O 0.75452 0.70596 0.58106 0.0
O48 O 0.78771 0.67911 0.58738 0.0
C49 C 0.78009 0.70123 0.57743 0.0
C50 C 0.74664 0.66938 0.67515 0.0
C51 C 0.80022 0.72108 0.58691 0.0
C52 C 0.81595 0.75783 0.62062 0.0
C53 C 0.79836 0.73757 0.61529 0.0
C54 C 0.83804 0.74485 0.57017 0.0
C55 C 0.83564 0.76203 0.59759 0.0
C56 C 0.82053 0.72468 0.56492 0.0
C57 C 0.70895 0.63363 0.52605 0.0
C58 C 0.70315 0.64334 0.46249 0.0
C59 C 0.68709 0.60463 0.48187 0.0
C60 C 0.69646 0.611 0.51752 0.0
C61 C 0.69001 0.62082 0.45391 0.0
C62 C 0.71261 0.64969 0.4983 0.0
C63 C 0.71645 0.64032 0.56417 0.0
O64 O 0.76449 0.65704 0.65941 0.0
O65 O 0.73205 0.68458 0.65349 0.0
O66 O 0.70846 0.6619 0.57392 0.0
O67 O 0.74136 0.63478 0.57893 0.0
H68 H 0.69531 0.64889 0.66085 0.0
H69 H 0.67006 0.62803 0.70324 0.0
H70 H 0.73967 0.63662 0.78613 0.0
H71 H 0.76422 0.6582 0.74401 0.0
H72 H 0.81339 0.77069 0.64191 0.0
H73 H 0.78284 0.73519 0.63266 0.0
H74 H 0.85326 0.74714 0.55236 0.0
H75 H 0.82239 0.71218 0.54291 0.0
H76 H 0.70597 0.65611 0.44154 0.0
H77 H 0.67672 0.58732 0.47636 0.0
H78 H 0.69335 0.59842 0.53861 0.0
H79 H 0.7223 0.66725 0.50438 0.0
C80 C 0.77887 0.14267 0.12035 0.0
C81 C 0.80208 0.12956 0.11364 0.0
C82 C 0.81175 0.11859 0.17693 0.0
C83 C 0.81841 0.11766 0.14172 0.0
C84 C 0.78789 0.13102 0.18305 0.0
C85 C 0.77168 0.14293 0.15506 0.0
U86 U 0.75942 0.16203 0.0223 0.0
O87 O 0.71933 0.17288 0.99305 0.0
O88 O 0.75364 0.19875 0.9999 0.0
C89 C 0.72751 0.19529 0.98843 0.0
C90 C 0.76293 0.15744 0.0923 0.0
C91 C 0.7089 0.21524 0.99586 0.0
C92 C 0.69598 0.24852 0.03347 0.0
C93 C 0.71178 0.22772 0.02901 0.0
C94 C 0.67346 0.2439 0.97234 0.0
C95 C 0.67706 0.25727 1.00483 0.0
C96 C 0.68923 0.22323 0.96793 0.0
C97 C 0.79861 0.12693 0.95341 0.0
C98 C 0.7976 0.13172 0.88891 0.0
C99 C 0.82842 0.10263 0.92113 0.0
C100 C 0.81881 0.10911 0.95303 0.0
C101 C 0.81798 0.11375 0.88854 0.0
C102 C 0.78795 0.13826 0.92115 0.0
C103 C 0.79005 0.13328 0.98832 0.0
O104 O 0.77709 0.17346 0.07681 0.0
O105 O 0.74473 0.14572 0.06949 0.0
O106 O 0.76488 0.12778 0.99302 0.0
O107 O 0.79849 0.15436 1.00265 0.0
H108 H 0.8079 0.12904 0.08692 0.0
H109 H 0.83643 0.10801 0.13597 0.0
H110 H 0.7823 0.13243 0.20982 0.0
H111 H 0.7539 0.15299 0.16077 0.0
H112 H 0.69942 0.25828 0.05887 0.0
H113 H 0.7268 0.22186 0.05104 0.0
H114 H 0.65867 0.2496 0.94996 0.0
H115 H 0.68657 0.21383 0.94219 0.0
H116 H 0.789 0.14057 0.8643 0.0
H117 H 0.84452 0.08917 0.92222 0.0
H118 H 0.82744 0.1003 0.9777 0.0
H119 H 0.77234 0.15212 0.92094 0.0
C120 C 0.2499 0.42097 0.41077 0.0
C121 C 0.2703 0.43809 0.42326 0.0
C122 C 0.28129 0.44309 0.3623 0.0
C123 C 0.28584 0.44907 0.39924 0.0
C124 C 0.26046 0.4262 0.35008 0.0
C125 C 0.24497 0.41532 0.37404 0.0
U126 U 0.23217 0.40722 0.50498 0.0
O127 O 0.19287 0.39652 0.52225 0.0
O128 O 0.22807 0.37184 0.53046 0.0
C129 C 0.20211 0.37507 0.53343 0.0
C130 C 0.23464 0.40767 0.43557 0.0
C131 C 0.18386 0.35383 0.52454 0.0
C132 C 0.16982 0.31747 0.48894 0.0
C133 C 0.18508 0.33917 0.49399 0.0
C134 C 0.15124 0.32536 0.54414 0.0
C135 C 0.15305 0.31008 0.5143 0.0
C136 C 0.1665 0.34693 0.54917 0.0
C137 C 0.26958 0.44368 0.58591 0.0
C138 C 0.27882 0.43006 0.64776 0.0
C139 C 0.29214 0.47072 0.6326 0.0
C140 C 0.28131 0.46633 0.59667 0.0
C141 C 0.29168 0.45238 0.65831 0.0
C142 C 0.2677 0.42578 0.61187 0.0
C143 C 0.26227 0.43832 0.54723 0.0
O144 O 0.24941 0.39317 0.45809 0.0
O145 O 0.21654 0.42022 0.45061 0.0
O146 O 0.23702 0.44297 0.5328 0.0
O147 O 0.27149 0.41755 0.53616 0.0
H148 H 0.27444 0.44269 0.45159 0.0
H149 H 0.30143 0.46219 0.40962 0.0
H150 H 0.25658 0.42077 0.32207 0.0
H151 H 0.22946 0.40203 0.36391 0.0
H152 H 0.17144 0.30631 0.46544 0.0
H153 H 0.19832 0.34414 0.47458 0.0
H154 H 0.13887 0.32017 0.56445 0.0
H155 H 0.16541 0.35787 0.57308 0.0
H156 H 0.27797 0.41572 0.66716 0.0
H157 H 0.30208 0.48801 0.63994 0.0
H158 H 0.28307 0.48032 0.57701 0.0
H159 H 0.25861 0.4082 0.60414 0.0
O160 O 0.99318 0.04521 0.52237 0.0
Mn161 Mn 0.0177 0.02707 0.56484 0.0
O162 O 0.97358 0.01641 0.4851 0.0
Mn163 Mn 0.99633 0.99295 0.50643 0.0
O164 O 0.04253 1.00967 0.60799 0.0
O165 O 0.03645 0.06026 0.57611 0.0
Mn166 Mn 0.03997 0.06335 0.62345 0.0
O167 O 0.98766 0.03521 0.59821 0.0
O168 O 0.06226 0.03928 0.64443 0.0
O169 O 0.04831 0.01941 0.53174 0.0
O170 O 0.03034 0.99093 0.49253 0.0
O171 O 0.055 0.09106 0.60932 0.0
O172 O 1.00542 0.0648 0.63639 0.0
C173 C 0.98597 0.97198 0.54732 0.0
C174 C 0.97644 0.03846 0.49472 0.0
C175 C 0.05922 0.01701 0.63554 0.0
C176 C 0.04787 0.08183 0.57754 0.0
C177 C 0.98584 0.05083 0.62361 0.0
C178 C 0.0502 1.00432 0.50574 0.0
O179 O 0.99824 0.99328 0.55415 0.0
O180 O 0.98054 0.9648 0.51411 0.0
O181 O 0.52595 0.54187 0.09806 0.0
Mn182 Mn 0.49883 0.5259 0.0563 0.0
O183 O 0.52655 0.51407 0.14046 0.0
Mn184 Mn 0.50814 0.49157 0.10957 0.0
O185 O 0.47142 0.51017 1.01343 0.0
O186 O 0.48314 0.56058 0.04702 0.0
Mn187 Mn 0.48016 0.56318 0.99967 0.0
O188 O 0.52902 0.53117 0.02222 0.0
O189 O 0.45472 0.54122 0.97876 0.0
O190 O 0.46741 0.52271 0.09001 0.0
O191 O 0.47229 0.48628 0.1128 0.0
O192 O 0.46812 0.59221 1.01349 0.0
O193 O 0.51409 0.56158 0.9851 0.0
C194 C 0.52711 0.4694 0.07827 0.0
C195 C 0.53376 0.53454 0.13002 0.0
C196 C 0.45504 0.51886 0.98684 0.0
C197 C 0.47326 0.5828 0.04517 0.0
C198 C 0.53211 0.54613 0.99692 0.0
C199 C 0.45804 0.50494 0.10657 0.0
O200 O 0.51685 0.49038 0.06466 0.0
O201 O 0.52584 0.46427 0.11155 0.0
H202 H 0.17309 0.26621 0.49467 0.0
H203 H 0.15126 0.22611 0.49389 0.0
H204 H 0.07938 0.25875 0.52688 0.0
H205 H 0.10098 0.29905 0.5275 0.0
H206 H 0.13007 0.20615 0.55911 0.0
H207 H 0.0514 0.21174 0.43799 0.0
H208 H 0.08194 0.2304 0.44352 0.0
H209 H 0.05477 0.23714 0.46902 0.0
C210 C 0.15242 0.26499 0.50106 0.0
C211 C 0.13879 0.28594 0.51102 0.0
C212 C 0.14003 0.24201 0.50078 0.0
C213 C 0.1136 0.23945 0.50997 0.0
C214 C 0.09966 0.26032 0.51925 0.0
H215 H 0.01303 0.11671 0.55047 0.0
H216 H 0.02849 0.15531 0.52832 0.0
C217 C 0.11213 0.28333 0.51985 0.0
C218 C 0.10156 0.21476 0.51236 0.0
H219 H 0.05172 0.17598 0.47257 0.0
C220 C 0.11307 0.19947 0.54005 0.0
C221 C 0.07907 0.20628 0.48786 0.0
C222 C 0.06601 0.2221 0.45772 0.0
C223 C 0.10262 0.176 0.54411 0.0
C224 C 0.08065 0.16709 0.51891 0.0
C225 C 0.06888 0.18255 0.49142 0.0
C226 C 0.06891 0.14228 0.52226 0.0
C227 C 0.11463 0.16132 0.57624 0.0
C228 C 0.08559 0.12147 0.52327 0.0
C229 C 0.07665 0.09929 0.53575 0.0
C230 C 0.05073 0.09746 0.54678 0.0
C231 C 0.03283 0.11739 0.5412 0.0
C232 C 0.04184 0.13963 0.52909 0.0
H233 H 0.12609 0.17299 0.59757 0.0
H234 H 0.09839 0.15144 0.58792 0.0
H235 H 0.1291 0.14772 0.56776 0.0
H236 H 0.10637 0.1229 0.51734 0.0
H237 H 0.09112 0.08447 0.54063 0.0
H238 H 0.34195 0.76745 0.12531 0.0
H239 H 0.3631 0.72711 0.12623 0.0
H240 H 0.43626 0.75863 0.09567 0.0
H241 H 0.41533 0.79916 0.09487 0.0
H242 H 0.38618 0.70647 0.06055 0.0
H243 H 0.46081 0.71195 0.18591 0.0
H244 H 0.43025 0.73041 0.17932 0.0
H245 H 0.4584 0.73743 0.15582 0.0
C246 C 0.36274 0.76594 0.11946 0.0
C247 C 0.37691 0.78665 0.1101 0.0
C248 C 0.37474 0.74281 0.11981 0.0
C249 C 0.40133 0.73986 0.1113 0.0
C250 C 0.41582 0.7605 0.10269 0.0
H251 H 0.50572 0.61799 0.07863 0.0
H252 H 0.48772 0.65615 0.0997 0.0
C253 C 0.40374 0.78364 0.10201 0.0
C254 C 0.41309 0.71501 0.10907 0.0
H255 H 0.46135 0.67616 0.15063 0.0
C256 C 0.40248 0.69974 0.08036 0.0
C257 C 0.43465 0.70646 0.13461 0.0
C258 C 0.44676 0.72227 0.16585 0.0
C259 C 0.41304 0.67627 0.07614 0.0
C260 C 0.43417 0.6673 0.10227 0.0
C261 C 0.44488 0.68272 0.13095 0.0
C262 C 0.44644 0.64261 0.09872 0.0
C263 C 0.40216 0.66178 0.04282 0.0
C264 C 0.42996 0.62157 0.09418 0.0
C265 C 0.44039 0.5996 0.08241 0.0
C266 C 0.4676 0.59816 0.07559 0.0
C267 C 0.48488 0.61832 0.0846 0.0
C268 C 0.47443 0.64034 0.09606 0.0
H269 H 0.39201 0.67366 0.02119 0.0
H270 H 0.4188 0.65163 0.03223 0.0
H271 H 0.38675 0.64848 0.04945 0.0
H272 H 0.40847 0.62259 0.09704 0.0
H273 H 0.42637 0.58464 0.07478 0.0
H274 H 0.86018 0.78558 0.659 0.0
H275 H 0.88678 0.82357 0.66336 0.0
H276 H 0.87685 0.82752 0.54785 0.0
H277 H 0.84972 0.79018 0.54325 0.0
H278 H 0.9352 0.83543 0.63747 0.0
H279 H 0.85114 0.89457 0.57613 0.0
H280 H 0.84528 0.86432 0.59186 0.0
H281 H 0.85609 0.86852 0.54859 0.0
C282 C 0.86343 0.79466 0.63453 0.0
C283 C 0.85265 0.78476 0.60077 0.0
C284 C 0.87879 0.81632 0.63707 0.0
C285 C 0.88343 0.82871 0.60595 0.0
C286 C 0.87311 0.81863 0.57229 0.0
H287 H 1.00368 0.92629 0.55428 0.0
H288 H 0.97906 0.8926 0.57606 0.0
C289 C 0.85785 0.79703 0.56971 0.0
C290 C 0.89937 0.85194 0.60832 0.0
H291 H 0.8966 0.91066 0.57872 0.0
C292 C 0.92664 0.85199 0.62508 0.0
C293 C 0.88814 0.87377 0.5929 0.0
C294 C 0.85847 0.87544 0.57669 0.0
C295 C 0.94336 0.8728 0.62507 0.0
C296 C 0.93273 0.89412 0.60726 0.0
C297 C 0.90499 0.89443 0.59225 0.0
C298 C 0.95057 0.91513 0.60032 0.0
C299 C 0.97238 0.87157 0.64394 0.0
C300 C 0.94319 0.93944 0.60678 0.0
C301 C 0.95737 0.95902 0.59384 0.0
C302 C 0.97915 0.95454 0.57437 0.0
C303 C 0.98762 0.93035 0.57034 0.0
C304 C 0.97339 0.91095 0.58273 0.0
H305 H 0.97404 0.8588 0.66686 0.0
H306 H 0.98583 0.86459 0.62487 0.0
H307 H 0.98 0.88974 0.65407 0.0
H308 H 0.92552 0.94322 0.62001 0.0
H309 H 0.94976 0.97737 0.59623 0.0
H310 H 0.65543 0.27598 0.0633 0.0
H311 H 0.63157 0.31484 0.06772 0.0
H312 H 0.64062 0.3306 0.95804 0.0
H313 H 0.66502 0.29231 0.95355 0.0
H314 H 0.65195 0.36508 0.052 0.0
H315 H 0.5561 0.33676 0.96511 0.0
H316 H 0.5794 0.31504 0.98856 0.0
H317 H 0.58799 0.32978 0.94929 0.0
C318 C 0.65258 0.28776 0.04018 0.0
C319 C 0.66208 0.28076 1.00796 0.0
C320 C 0.63883 0.30995 0.04272 0.0
C321 C 0.63413 0.32554 1.0131 0.0
C322 C 0.64369 0.31873 0.98108 0.0
H323 H 0.55589 0.47315 1.01897 0.0
H324 H 0.5844 0.44057 0.9969 0.0
C325 C 0.65751 0.29668 0.97854 0.0
C326 C 0.6192 0.34893 1.01551 0.0
H327 H 0.55817 0.3769 0.98757 0.0
C328 C 0.63161 0.36782 0.03749 0.0
C329 C 0.59263 0.35246 0.99666 0.0
C330 C 0.57802 0.33247 0.97369 0.0
C331 C 0.61792 0.38996 0.04156 0.0
C332 C 0.59114 0.3933 0.02326 0.0
C333 C 0.57899 0.37459 1.00072 0.0
C334 C 0.57338 0.41327 0.03354 0.0
C335 C 0.6315 0.40921 0.06689 0.0
C336 C 0.55722 0.40841 0.0602 0.0
C337 C 0.54093 0.42647 0.07213 0.0
C338 C 0.54042 0.45029 0.05823 0.0
C339 C 0.55572 0.45508 0.03018 0.0
C340 C 0.57219 0.43658 1.01789 0.0
H341 H 0.65353 0.40534 0.07537 0.0
H342 H 0.62948 0.42734 0.054 0.0
H343 H 0.6211 0.41011 0.0912 0.0
H344 H 0.55763 0.39061 0.07246 0.0
H345 H 0.52933 0.42182 0.09352 0.0
H346 H 0.22951 0.99108 0.28064 0.0
H347 H 0.20234 1.00632 0.32622 0.0
H348 H 0.17043 0.93401 0.33674 0.0
H349 H 0.19768 0.91874 0.29201 0.0
H350 H 0.14665 1.00621 0.33175 0.0
H351 H 0.20233 0.94994 0.43933 0.0
H352 H 0.21449 0.95427 0.39677 0.0
H353 H 0.18819 0.93214 0.40092 0.0
C354 C 0.21656 0.97851 0.29257 0.0
C355 C 0.21614 0.95361 0.2832 0.0
C356 C 0.20109 0.98722 0.31866 0.0
C357 C 0.18492 0.97119 0.33572 0.0
C358 C 0.18343 0.94661 0.32493 0.0
H359 H 0.06965 0.96297 0.47988 0.0
H360 H 0.10505 0.95852 0.44151 0.0
C361 C 0.19898 0.9379 0.29924 0.0
C362 C 0.16979 0.97977 0.36514 0.0
H363 H 0.1599 0.96699 0.45115 0.0
C364 C 0.14982 0.99796 0.35808 0.0
C365 C 0.17403 0.96912 0.39963 0.0
C366 C 0.19612 0.95046 0.40978 0.0
C367 C 0.13291 1.00468 0.38379 0.0
C368 C 0.13641 0.99323 0.41774 0.0
C369 C 0.15719 0.97583 0.42523 0.0
C370 C 0.11668 0.99656 0.44402 0.0
C371 C 0.11046 0.02299 0.37371 0.0
C372 C 0.11195 0.01936 0.45958 0.0
C373 C 0.09151 0.02198 0.48199 0.0
C374 C 0.07555 1.00182 0.48897 0.0
C375 C 0.08148 0.9789 0.47489 0.0
C376 C 0.10175 0.97631 0.45284 0.0
H377 H 0.10744 0.0269 0.34449 0.0
H378 H 0.09082 0.01635 0.38127 0.0
H379 H 0.11584 0.04031 0.38848 0.0
H380 H 0.12361 0.03519 0.45378 0.0
H381 H 0.0873 0.03987 0.49227 0.0
H382 H 0.70317 0.64306 0.81932 0.0
H383 H 0.6781 0.62414 0.86314 0.0
H384 H 0.63997 0.57434 0.7817 0.0
H385 H 0.66616 0.59235 0.73794 0.0
H386 H 0.62425 0.62184 0.86366 0.0
H387 H 0.66453 0.52769 0.86158 0.0
H388 H 0.67986 0.55273 0.84085 0.0
H389 H 0.64939 0.53824 0.81833 0.0
C390 C 0.68995 0.62773 0.81076 0.0
C391 C 0.68703 0.61911 0.77501 0.0
C392 C 0.6754 0.61704 0.83588 0.0
C393 C 0.65747 0.59749 0.82603 0.0
C394 C 0.65418 0.58899 0.79029 0.0
H395 H 0.53726 0.52402 0.93391 0.0
H396 H 0.57017 0.53503 0.89363 0.0
C397 C 0.6689 0.59958 0.76511 0.0
C398 C 0.6414 0.58696 0.85293 0.0
H399 H 0.62723 0.53414 0.89429 0.0
C400 C 0.62509 0.60269 0.87052 0.0
C401 C 0.64231 0.56192 0.86179 0.0
C402 C 0.66015 0.54418 0.84491 0.0
C403 C 0.60948 0.59412 0.89629 0.0
C404 C 0.61053 0.56912 0.90536 0.0
C405 C 0.62665 0.55332 0.88761 0.0
C406 C 0.59397 0.55904 0.932 0.0
C407 C 0.5914 0.61185 0.91283 0.0
C408 C 0.59729 0.5678 0.96763 0.0
C409 C 0.57861 0.56132 0.99076 0.0
C410 C 0.55663 0.54567 0.97878 0.0
C411 C 0.55453 0.53554 0.94407 0.0
C412 C 0.57315 0.54203 0.92094 0.0
H413 H 0.58779 0.6287 0.89676 0.0
H414 H 0.5713 0.60347 0.91543 0.0
H415 H 0.60144 0.61717 0.94007 0.0
H416 H 0.61344 0.58067 0.97693 0.0
H417 H 0.58017 0.56991 1.01704 0.0
H418 H 0.79796 0.0935 0.23464 0.0
H419 H 0.8282 0.08163 0.28895 0.0
H420 H 0.8979 0.10799 0.24338 0.0
H421 H 0.86781 0.12043 0.18931 0.0
H422 H 0.87647 0.0507 0.29963 0.0
H423 H 0.89895 0.14739 0.33887 0.0
H424 H 0.87046 0.13857 0.3057 0.0
H425 H 0.90456 0.1386 0.2943 0.0
C426 C 0.81974 0.09673 0.2361 0.0
C427 C 0.83038 0.10825 0.20776 0.0
C428 C 0.837 0.08981 0.26709 0.0
C429 C 0.86521 0.0944 0.27048 0.0
C430 C 0.87611 0.10468 0.24155 0.0
H431 H 0.99612 0.06938 0.44845 0.0
H432 H 0.96929 0.08542 0.39363 0.0
C433 C 0.85888 0.11155 0.21049 0.0
C434 C 0.88296 0.0894 0.30489 0.0
H435 H 0.92129 0.11737 0.37676 0.0
C436 C 0.88629 0.06525 0.31648 0.0
C437 C 0.89581 0.10843 0.32678 0.0
C438 C 0.89221 0.13475 0.31608 0.0
C439 C 0.9022 0.05964 0.34934 0.0
C440 C 0.91459 0.07872 0.37159 0.0
C441 C 0.91166 0.10282 0.35975 0.0
C442 C 0.93025 0.07374 0.40746 0.0
C443 C 0.90588 0.03327 0.35987 0.0
C444 C 0.91703 0.06331 0.43428 0.0
C445 C 0.93225 0.05434 0.46551 0.0
C446 C 0.96091 0.05605 0.47076 0.0
C447 C 0.97399 0.06848 0.44546 0.0
C448 C 0.95871 0.07734 0.41397 0.0
H449 H 0.90065 0.02077 0.33647 0.0
H450 H 0.92728 0.02972 0.37217 0.0
H451 H 0.89223 0.02891 0.37999 0.0
H452 H 0.89506 0.06069 0.43002 0.0
H453 H 0.9218 0.04436 0.48428 0.0
H454 H 0.33 0.42258 0.69395 0.0
H455 H 0.35702 0.42925 0.75317 0.0
H456 H 0.31445 0.49669 0.76488 0.0
H457 H 0.28759 0.49029 0.70525 0.0
H458 H 0.39002 0.47701 0.77427 0.0
H459 H 0.31071 0.45211 0.85908 0.0
H460 H 0.30963 0.4411 0.81343 0.0
H461 H 0.30089 0.47211 0.82182 0.0
C462 C 0.32617 0.43868 0.70936 0.0
C463 C 0.30658 0.45584 0.69517 0.0
C464 C 0.34171 0.44252 0.74304 0.0
C465 C 0.33761 0.46337 0.7634 0.0
C466 C 0.3178 0.48042 0.74959 0.0
H467 H 0.40156 0.5268 0.9658 0.0
H468 H 0.37369 0.51009 0.9125 0.0
C469 C 0.30253 0.47678 0.7156 0.0
C470 C 0.35464 0.46761 0.79868 0.0
H471 H 0.35257 0.46754 0.88902 0.0
C472 C 0.38199 0.47478 0.79945 0.0
C473 C 0.34398 0.46478 0.83131 0.0
C474 C 0.31473 0.45698 0.8317 0.0
C475 C 0.3988 0.47996 0.83207 0.0
C476 C 0.3882 0.47703 0.86494 0.0
C477 C 0.36087 0.46947 0.86399 0.0
C478 C 0.4041 0.48416 0.90023 0.0
C479 C 0.42728 0.48962 0.83083 0.0
C480 C 0.43005 0.4743 0.91242 0.0
C481 C 0.44608 0.48383 0.94332 0.0
C482 C 0.43623 0.50321 0.96249 0.0
C483 C 0.40951 0.51167 0.95174 0.0
C484 C 0.39362 0.50223 0.92108 0.0
H485 H 0.42979 0.49633 0.8037 0.0
H486 H 0.43225 0.50474 0.85051 0.0
H487 H 0.44229 0.4748 0.83766 0.0
H488 H 0.43837 0.45996 0.89725 0.0
H489 H 0.4668 0.47731 0.95063 0.0
H490 H 0.69094 0.57678 0.41904 0.0
H491 H 0.66727 0.56558 0.35957 0.0
H492 H 0.6378 0.63917 0.34461 0.0
H493 H 0.6614 0.65052 0.40401 0.0
H494 H 0.61245 0.56729 0.33876 0.0
H495 H 0.66471 0.62535 0.24944 0.0
H496 H 0.67853 0.62009 0.29576 0.0
H497 H 0.6518 0.64209 0.28468 0.0
C498 C 0.6796 0.59064 0.40298 0.0
C499 C 0.67806 0.61456 0.41633 0.0
C500 C 0.66617 0.58423 0.36893 0.0
C501 C 0.651 0.60159 0.34742 0.0
C502 C 0.64991 0.6256 0.36032 0.0
H503 H 0.53116 0.58226 0.15264 0.0
H504 H 0.56024 0.60095 0.20471 0.0
C505 C 0.66341 0.63206 0.39434 0.0
C506 C 0.63462 0.5941 0.31285 0.0
H507 H 0.62381 0.60546 0.22269 0.0
C508 C 0.61501 0.57562 0.31341 0.0
C509 C 0.63791 0.60501 0.27975 0.0
C510 C 0.65955 0.62407 0.27719 0.0
C511 C 0.59853 0.56787 0.2819 0.0
C512 C 0.60179 0.57879 0.24887 0.0
C513 C 0.62119 0.59738 0.24818 0.0
C514 C 0.5866 0.56955 0.21466 0.0
C515 C 0.57772 0.54795 0.28408 0.0
C516 C 0.59253 0.54626 0.2025 0.0
C517 C 0.57611 0.53571 0.17328 0.0
C518 C 0.55364 0.54836 0.1553 0.0
C519 C 0.54863 0.57234 0.16587 0.0
C520 C 0.56507 0.5829 0.19559 0.0
H521 H 0.57371 0.5451 0.31208 0.0
H522 H 0.55811 0.55226 0.26703 0.0
H523 H 0.58551 0.53061 0.27405 0.0
H524 H 0.6092 0.5358 0.21665 0.0
H525 H 0.58032 0.51717 0.16557 0.0
H526 H 0.82974 0.14337 0.83401 0.0
H527 H 0.85197 0.13195 0.78198 0.0
H528 H 0.85513 0.05717 0.81621 0.0
H529 H 0.83186 0.06816 0.86698 0.0
H530 H 0.90233 0.11339 0.78322 0.0
H531 H 0.82824 0.04792 0.71146 0.0
H532 H 0.81959 0.06784 0.74661 0.0
H533 H 0.83779 0.0399 0.75761 0.0
C534 C 0.83451 0.1244 0.82994 0.0
C535 C 0.82906 0.10673 0.85489 0.0
C536 C 0.84742 0.11791 0.8003 0.0
C537 C 0.85498 0.09362 0.79481 0.0
C538 C 0.84902 0.07592 0.81925 0.0
H539 H 0.96364 0.01909 0.66701 0.0
H540 H 0.92981 0.02942 0.70702 0.0
C541 C 0.83602 0.08234 0.84868 0.0
C542 C 0.87095 0.087 0.7653 0.0
H543 H 0.87362 0.04692 0.69556 0.0
C544 C 0.89585 0.09907 0.76378 0.0
C545 C 0.86264 0.06819 0.73997 0.0
C546 C 0.83547 0.05539 0.73872 0.0
C547 C 0.91296 0.09245 0.73844 0.0
C548 C 0.90486 0.07337 0.71353 0.0
C549 C 0.87987 0.06143 0.71475 0.0
C550 C 0.92219 0.06573 0.68608 0.0
C551 C 0.94 0.10547 0.73925 0.0
C552 C 0.92816 0.08224 0.66002 0.0
C553 C 0.9473 0.07634 0.63727 0.0
C554 C 0.96042 0.05362 0.63959 0.0
C555 C 0.9532 0.03644 0.66404 0.0
C556 C 0.93413 0.04245 0.6871 0.0
H557 H 0.94594 0.11559 0.7649 0.0
H558 H 0.95651 0.0924 0.73543 0.0
H559 H 0.93837 0.11878 0.71706 0.0
H560 H 0.9189 0.10014 0.65834 0.0
H561 H 0.95295 0.09003 0.61909 0.0
H562 H 0.33663 0.45267 0.37334 0.0
H563 H 0.3651 0.46779 0.33001 0.0
H564 H 0.2941 0.47116 0.24914 0.0
H565 H 0.26535 0.45718 0.29257 0.0
H566 H 0.3747 0.44686 0.26747 0.0
H567 H 0.32747 0.53719 0.23861 0.0
H568 H 0.32084 0.51914 0.27629 0.0
H569 H 0.303 0.5128 0.23203 0.0
C570 C 0.32692 0.45714 0.34659 0.0
C571 C 0.29858 0.45367 0.33661 0.0
C572 C 0.34331 0.4656 0.3217 0.0
C573 C 0.33176 0.47094 0.28633 0.0
C574 C 0.30349 0.46768 0.27639 0.0
H575 H 0.40264 0.4979 0.08955 0.0
H576 H 0.37069 0.49074 0.1333 0.0
C577 C 0.28709 0.45933 0.30123 0.0
C578 C 0.34938 0.47878 0.25935 0.0
H579 H 0.35761 0.5232 0.19848 0.0
C580 C 0.37102 0.46363 0.25258 0.0
C581 C 0.34469 0.50069 0.23985 0.0
C582 C 0.32292 0.51852 0.24728 0.0
C583 C 0.38769 0.46955 0.22649 0.0
C584 C 0.3827 0.49125 0.20667 0.0
C585 C 0.36118 0.50645 0.21344 0.0
C586 C 0.40044 0.49881 0.1799 0.0
C587 C 0.41043 0.45246 0.22001 0.0
C588 C 0.42722 0.50677 0.19157 0.0
C589 C 0.44506 0.5115 0.16673 0.0
C590 C 0.43656 0.50826 0.1297 0.0
C591 C 0.40938 0.50133 0.11783 0.0
C592 C 0.39131 0.49691 0.14281 0.0
H593 H 0.40842 0.43442 0.23253 0.0
H594 H 0.41075 0.44974 0.19077 0.0
H595 H 0.43036 0.46055 0.2317 0.0
H596 H 0.43468 0.50835 0.22001 0.0
H597 H 0.46618 0.51601 0.1766 0.0
H598 H 0.17583 0.981 0.9461 0.0
H599 H 0.1499 0.98753 0.8868 0.0
H600 H 0.21086 0.94827 0.83798 0.0
H601 H 0.23724 0.94183 0.89738 0.0
H602 H 0.16461 1.01047 0.82607 0.0
H603 H 0.13936 0.91281 0.79813 0.0
H604 H 0.15221 0.92418 0.84253 0.0
H605 H 0.17512 0.91966 0.80998 0.0
C606 C 0.18401 0.974 0.9228 0.0
C607 C 0.20869 0.96081 0.92668 0.0
C608 C 0.16901 0.97763 0.88885 0.0
C609 C 0.17816 0.96805 0.85794 0.0
C610 C 0.20306 0.95536 0.86151 0.0
H611 H 0.10911 0.99603 0.63407 0.0
H612 H 0.13922 0.98107 0.68711 0.0
C613 C 0.21813 0.95171 0.89552 0.0
C614 C 0.16146 0.9714 0.82214 0.0
H615 H 0.12419 0.94062 0.75199 0.0
C616 C 0.15593 0.99518 0.80981 0.0
C617 C 0.14993 0.95145 0.801 0.0
C618 C 0.15419 0.92556 0.81357 0.0
C619 C 0.13925 0.99952 0.77702 0.0
C620 C 0.12765 0.9796 0.75604 0.0
C621 C 0.13331 0.95582 0.76806 0.0
C622 C 0.10842 0.98356 0.72254 0.0
C623 C 0.13369 0.0254 0.76511 0.0
C624 C 0.08089 0.98879 0.72461 0.0
C625 C 0.06366 0.99686 0.69432 0.0
C626 C 0.07361 0.99981 0.66141 0.0
C627 C 0.1007 0.9931 0.65878 0.0
C628 C 0.11797 0.98487 0.68914 0.0
H629 H 0.14629 0.03877 0.78266 0.0
H630 H 0.13788 0.02761 0.73707 0.0
H631 H 0.11177 0.02963 0.76556 0.0
H632 H 0.07321 0.98811 0.75019 0.0
H633 H 0.04315 1.00275 0.69734 0.0
loop_
_geom_bond_atom_site_label_1
_geom_bond_atom_site_label_2
_geom_bond_distance
_geom_bond_site_symmetry_2
_ccdc_geom_bond_type
C0 C1 1.264 . S
C0 C5 1.479 . S
C0 C10 1.465 . S
C1 C0 1.264 . S
C1 C3 1.339 . S
C1 H28 0.931 . S
C2 C3 1.395 . S
C2 C4 1.320 . S
C3 C1 1.339 . S
C3 C2 1.395 . S
C3 H29 0.929 . S
C4 C2 1.320 . S
C4 C5 1.405 . S
C4 H30 0.930 . S
C5 C0 1.479 . S
C5 C4 1.405 . S
C5 H31 0.931 . S
U6 O7 2.454 . S
U6 O8 2.458 . S
U6 C9 2.984 . S
U6 C10 2.847 . S
U6 C23 2.882 . S
U6 O24 2.441 . S
U6 O25 2.420 . S
U6 O26 2.455 . S
U6 O27 2.449 . S
O7 U6 2.454 . S
O7 C9 1.353 . S
O8 U6 2.458 . S
O8 C9 1.286 . S
C9 U6 2.984 . S
C9 O7 1.353 . S
C9 O8 1.286 . S
C9 C11 1.363 . S
C10 C0 1.465 . S
C10 U6 2.847 . S
C10 O24 1.249 . S
C10 O25 1.202 . S
C11 C9 1.363 . S
C11 C13 1.408 . S
C11 C16 1.342 . S
C12 C13 1.310 . S
C12 C15 1.461 . S
C12 H32 0.932 . S
C13 C11 1.408 . S
C13 C12 1.310 . S
C13 H33 0.930 . S
C14 C15 1.474 . S
C14 C16 1.285 . S
C14 H34 0.929 . S
C15 C12 1.461 . S
C15 C14 1.474 . S
C16 C11 1.342 . S
C16 C14 1.285 . S
C16 H35 0.930 . S
C17 C20 1.424 . S
C17 C22 1.245 . S
C17 C23 1.428 1_556 S
C18 C21 1.260 . S
C18 C22 1.477 . S
C18 H36 0.932 . S
C19 C20 1.384 . S
C19 C21 1.479 . S
C19 H37 0.929 . S
C20 C17 1.424 . S
C20 C19 1.384 . S
C20 H38 0.928 1_556 S
C21 C18 1.260 . S
C21 C19 1.479 . S
C22 C17 1.245 . S
C22 C18 1.477 . S
C22 H39 0.932 . S
C23 U6 2.882 . S
C23 C17 1.428 1_554 S
C23 O26 1.301 . S
C23 O27 1.282 . S
O24 U6 2.441 . S
O24 C10 1.249 . S
O25 U6 2.420 . S
O25 C10 1.202 . S
O26 U6 2.455 . S
O26 C23 1.301 . S
O27 U6 2.449 . S
O27 C23 1.282 . S
H28 C1 0.931 . S
H29 C3 0.929 . S
H30 C4 0.930 . S
H31 C5 0.931 . S
H32 C12 0.932 . S
H33 C13 0.930 . S
H34 C14 0.929 . S
H35 C16 0.930 . S
H36 C18 0.932 . S
H37 C19 0.929 . S
H38 C20 0.928 1_554 S
H39 C22 0.932 . S
C40 C41 1.264 . S
C40 C45 1.479 . S
C40 C50 1.465 . S
C41 C40 1.264 . S
C41 C43 1.339 . S
C41 H68 0.931 . S
C42 C43 1.395 . S
C42 C44 1.320 . S
C43 C41 1.339 . S
C43 C42 1.395 . S
C43 H69 0.929 . S
C44 C42 1.320 . S
C44 C45 1.405 . S
C44 H70 0.930 . S
C45 C40 1.479 . S
C45 C44 1.405 . S
C45 H71 0.931 . S
U46 O47 2.454 . S
U46 O48 2.458 . S
U46 C49 2.984 . S
U46 C50 2.847 . S
U46 C63 2.882 . S
U46 O64 2.441 . S
U46 O65 2.420 . S
U46 O66 2.455 . S
U46 O67 2.449 . S
O47 U46 2.454 . S
O47 C49 1.353 . S
O48 U46 2.458 . S
O48 C49 1.286 . S
C49 U46 2.984 . S
C49 O47 1.353 . S
C49 O48 1.286 . S
C49 C51 1.363 . S
C50 C40 1.465 . S
C50 U46 2.847 . S
C50 O64 1.249 . S
C50 O65 1.202 . S
C51 C49 1.363 . S
C51 C53 1.408 . S
C51 C56 1.342 . S
C52 C53 1.310 . S
C52 C55 1.461 . S
C52 H72 0.932 . S
C53 C51 1.408 . S
C53 C52 1.310 . S
C53 H73 0.930 . S
C54 C55 1.474 . S
C54 C56 1.285 . S
C54 H74 0.929 . S
C55 C52 1.461 . S
C55 C54 1.474 . S
C56 C51 1.342 . S
C56 C54 1.285 . S
C56 H75 0.930 . S
C57 C60 1.424 . S
C57 C62 1.245 . S
C57 C63 1.428 . S
C58 C61 1.260 . S
C58 C62 1.477 . S
C58 H76 0.932 . S
C59 C60 1.384 . S
C59 C61 1.479 . S
C59 H77 0.929 . S
C60 C57 1.424 . S
C60 C59 1.384 . S
C60 H78 0.928 . S
C61 C58 1.260 . S
C61 C59 1.479 . S
C62 C57 1.245 . S
C62 C58 1.477 . S
C62 H79 0.932 . S
C63 U46 2.882 . S
C63 C57 1.428 . S
C63 O66 1.301 . S
C63 O67 1.282 . S
O64 U46 2.441 . S
O64 C50 1.249 . S
O65 U46 2.420 . S
O65 C50 1.202 . S
O66 U46 2.455 . S
O66 C63 1.301 . S
O67 U46 2.449 . S
O67 C63 1.282 . S
H68 C41 0.931 . S
H69 C43 0.929 . S
H70 C44 0.930 . S
H71 C45 0.931 . S
H72 C52 0.932 . S
H73 C53 0.930 . S
H74 C54 0.929 . S
H75 C56 0.930 . S
H76 C58 0.932 . S
H77 C59 0.929 . S
H78 C60 0.928 . S
H79 C62 0.932 . S
C80 C81 1.264 . S
C80 C85 1.479 . S
C80 C90 1.465 . S
C81 C80 1.264 . S
C81 C83 1.339 . S
C81 H108 0.931 . S
C82 C83 1.395 . S
C82 C84 1.320 . S
C83 C81 1.339 . S
C83 C82 1.395 . S
C83 H109 0.929 . S
C84 C82 1.320 . S
C84 C85 1.405 . S
C84 H110 0.930 . S
C85 C80 1.479 . S
C85 C84 1.405 . S
C85 H111 0.931 . S
U86 O87 2.454 . S
U86 O88 2.458 1_554 S
U86 C89 2.984 1_554 S
U86 C90 2.847 . S
U86 C103 2.882 1_554 S
U86 O104 2.441 . S
U86 O105 2.420 . S
U86 O106 2.455 1_554 S
U86 O107 2.449 1_554 S
O87 U86 2.454 . S
O87 C89 1.353 1_554 S
O88 U86 2.458 1_556 S
O88 C89 1.286 . S
C89 U86 2.984 1_556 S
C89 O87 1.353 1_556 S
C89 O88 1.286 . S
C89 C91 1.363 . S
C90 C80 1.465 . S
C90 U86 2.847 . S
C90 O104 1.249 . S
C90 O105 1.202 . S
C91 C89 1.363 . S
C91 C93 1.408 1_556 S
C91 C96 1.342 . S
C92 C93 1.310 . S
C92 C95 1.461 1_554 S
C92 H112 0.932 . S
C93 C91 1.408 1_554 S
C93 C92 1.310 . S
C93 H113 0.930 . S
C94 C95 1.474 . S
C94 C96 1.285 . S
C94 H114 0.929 . S
C95 C92 1.461 1_556 S
C95 C94 1.474 . S
C96 C91 1.342 . S
C96 C94 1.285 . S
C96 H115 0.930 . S
C97 C100 1.424 . S
C97 C102 1.245 . S
C97 C103 1.428 . S
C98 C101 1.260 . S
C98 C102 1.477 . S
C98 H116 0.932 . S
C99 C100 1.384 . S
C99 C101 1.479 . S
C99 H117 0.929 . S
C100 C97 1.424 . S
C100 C99 1.384 . S
C100 H118 0.928 . S
C101 C98 1.260 . S
C101 C99 1.479 . S
C102 C97 1.245 . S
C102 C98 1.477 . S
C102 H119 0.932 . S
C103 U86 2.882 1_556 S
C103 C97 1.428 . S
C103 O106 1.301 . S
C103 O107 1.282 . S
O104 U86 2.441 . S
O104 C90 1.249 . S
O105 U86 2.420 . S
O105 C90 1.202 . S
O106 U86 2.455 1_556 S
O106 C103 1.301 . S
O107 U86 2.449 1_556 S
O107 C103 1.282 . S
H108 C81 0.931 . S
H109 C83 0.929 . S
H110 C84 0.930 . S
H111 C85 0.931 . S
H112 C92 0.932 . S
H113 C93 0.930 . S
H114 C94 0.929 . S
H115 C96 0.930 . S
H116 C98 0.932 . S
H117 C99 0.929 . S
H118 C100 0.928 . S
H119 C102 0.932 . S
C120 C121 1.264 . S
C120 C125 1.479 . S
C120 C130 1.465 . S
C121 C120 1.264 . S
C121 C123 1.339 . S
C121 H148 0.931 . S
C122 C123 1.395 . S
C122 C124 1.320 . S
C123 C121 1.339 . S
C123 C122 1.395 . S
C123 H149 0.929 . S
C124 C122 1.320 . S
C124 C125 1.405 . S
C124 H150 0.930 . S
C125 C120 1.479 . S
C125 C124 1.405 . S
C125 H151 0.931 . S
U126 O127 2.454 . S
U126 O128 2.458 . S
U126 C129 2.984 . S
U126 C130 2.847 . S
U126 C143 2.882 . S
U126 O144 2.441 . S
U126 O145 2.420 . S
U126 O146 2.455 . S
U126 O147 2.449 . S
O127 U126 2.454 . S
O127 C129 1.353 . S
O128 U126 2.458 . S
O128 C129 1.286 . S
C129 U126 2.984 . S
C129 O127 1.353 . S
C129 O128 1.286 . S
C129 C131 1.363 . S
C130 C120 1.465 . S
C130 U126 2.847 . S
C130 O144 1.249 . S
C130 O145 1.202 . S
C131 C129 1.363 . S
C131 C133 1.408 . S
C131 C136 1.342 . S
C132 C133 1.310 . S
C132 C135 1.461 . S
C132 H152 0.932 . S
C133 C131 1.408 . S
C133 C132 1.310 . S
C133 H153 0.930 . S
C134 C135 1.474 . S
C134 C136 1.285 . S
C134 H154 0.929 . S
C135 C132 1.461 . S
C135 C134 1.474 . S
C136 C131 1.342 . S
C136 C134 1.285 . S
C136 H155 0.930 . S
C137 C140 1.424 . S
C137 C142 1.245 . S
C137 C143 1.428 . S
C138 C141 1.260 . S
C138 C142 1.477 . S
C138 H156 0.932 . S
C139 C140 1.384 . S
C139 C141 1.479 . S
C139 H157 0.929 . S
C140 C137 1.424 . S
C140 C139 1.384 . S
C140 H158 0.928 . S
C141 C138 1.260 . S
C141 C139 1.479 . S
C142 C137 1.245 . S
C142 C138 1.477 . S
C142 H159 0.932 . S
C143 U126 2.882 . S
C143 C137 1.428 . S
C143 O146 1.301 . S
C143 O147 1.282 . S
O144 U126 2.441 . S
O144 C130 1.249 . S
O145 U126 2.420 . S
O145 C130 1.202 . S
O146 U126 2.455 . S
O146 C143 1.301 . S
O147 U126 2.449 . S
O147 C143 1.282 . S
H148 C121 0.931 . S
H149 C123 0.929 . S
H150 C124 0.930 . S
H151 C125 0.931 . S
H152 C132 0.932 . S
H153 C133 0.930 . S
H154 C134 0.929 . S
H155 C136 0.930 . S
H156 C138 0.932 . S
H157 C139 0.929 . S
H158 C140 0.928 . S
H159 C142 0.932 . S
O160 Mn161 2.163 1_655 S
O160 C174 1.244 . S
Mn161 O160 2.163 1_455 S
Mn161 O164 2.160 1_545 S
Mn161 O165 2.221 . S
Mn161 O167 2.163 1_455 S
Mn161 O169 2.160 . S
Mn161 O179 2.221 1_445 S
O162 Mn163 2.087 1_545 S
O162 C174 1.256 . S
Mn163 O162 2.087 1_565 S
Mn163 O170 2.089 1_655 S
Mn163 O179 2.290 . S
Mn163 O180 2.251 . S
O164 Mn161 2.160 1_565 S
O164 C175 1.239 1_565 S
O165 Mn161 2.221 . S
O165 Mn166 2.290 . S
O165 C176 1.278 . S
Mn166 O165 2.290 . S
Mn166 O168 2.089 . S
Mn166 O171 2.251 . S
Mn166 O172 2.087 1_455 S
O167 Mn161 2.163 1_655 S
O167 C177 1.244 . S
O168 Mn166 2.089 . S
O168 C175 1.256 . S
O169 Mn161 2.160 . S
O169 C178 1.239 1_545 S
O170 Mn163 2.089 1_455 S
O170 C178 1.256 . S
O171 Mn166 2.251 . S
O171 C176 1.241 . S
O172 Mn166 2.087 1_655 S
O172 C177 1.256 . S
C173 O179 1.278 . S
C173 O180 1.241 . S
C174 O160 1.244 . S
C174 O162 1.256 . S
C175 O164 1.239 1_545 S
C175 O168 1.256 . S
C176 O165 1.278 . S
C176 O171 1.241 . S
C177 O167 1.244 . S
C177 O172 1.256 . S
C178 O169 1.239 1_565 S
C178 O170 1.256 . S
O179 Mn161 2.221 1_665 S
O179 Mn163 2.290 . S
O179 C173 1.278 . S
O180 Mn163 2.251 . S
O180 C173 1.241 . S
O181 Mn182 2.163 . S
O181 C195 1.244 . S
Mn182 O181 2.163 . S
Mn182 O185 2.160 1_554 S
Mn182 O186 2.221 . S
Mn182 O188 2.163 . S
Mn182 O190 2.160 . S
Mn182 O200 2.221 . S
O183 Mn184 2.087 . S
O183 C195 1.256 . S
Mn184 O183 2.087 . S
Mn184 O191 2.089 . S
Mn184 O200 2.290 . S
Mn184 O201 2.251 . S
O185 Mn182 2.160 1_556 S
O185 C196 1.239 . S
O186 Mn182 2.221 . S
O186 Mn187 2.290 1_554 S
O186 C197 1.278 . S
Mn187 O186 2.290 1_556 S
Mn187 O189 2.089 . S
Mn187 O192 2.251 1_556 S
Mn187 O193 2.087 . S
O188 Mn182 2.163 . S
O188 C198 1.244 1_554 S
O189 Mn187 2.089 . S
O189 C196 1.256 . S
O190 Mn182 2.160 . S
O190 C199 1.239 . S
O191 Mn184 2.089 . S
O191 C199 1.256 . S
O192 Mn187 2.251 1_554 S
O192 C197 1.241 . S
O193 Mn187 2.087 . S
O193 C198 1.256 . S
C194 O200 1.278 . S
C194 O201 1.241 . S
C195 O181 1.244 . S
C195 O183 1.256 . S
C196 O185 1.239 . S
C196 O189 1.256 . S
C197 O186 1.278 . S
C197 O192 1.241 . S
C198 O188 1.244 1_556 S
C198 O193 1.256 . S
C199 O190 1.239 . S
C199 O191 1.256 . S
O200 Mn182 2.221 . S
O200 Mn184 2.290 . S
O200 C194 1.278 . S
O201 Mn184 2.251 . S
O201 C194 1.241 . S
H202 C210 0.929 . S
H203 C212 0.930 . S
H204 C214 0.930 . S
H205 C217 0.929 . S
H206 C220 0.930 . S
H207 C222 0.960 . S
H208 C222 0.960 . S
H209 C222 0.960 . S
C210 H202 0.929 . S
C210 C211 1.377 . S
C210 C212 1.384 . S
C211 C210 1.377 . S
C211 C217 1.390 . S
C212 H203 0.930 . S
C212 C210 1.384 . S
C212 C213 1.372 . S
C213 C212 1.372 . S
C213 C214 1.400 . S
C213 C218 1.490 . S
C214 H204 0.930 . S
C214 C213 1.400 . S
C214 C217 1.386 . S
H215 C231 0.930 . S
H216 C232 0.931 . S
C217 H205 0.929 . S
C217 C211 1.390 . S
C217 C214 1.386 . S
C218 C213 1.490 . S
C218 C220 1.395 . S
C218 C221 1.403 . S
H219 C225 0.930 . S
C220 H206 0.930 . S
C220 C218 1.395 . S
C220 C223 1.403 . S
C221 C218 1.403 . S
C221 C222 1.524 . S
C221 C225 1.400 . S
C222 H207 0.960 . S
C222 H208 0.960 . S
C222 H209 0.960 . S
C222 C221 1.524 . S
C223 C220 1.403 . S
C223 C224 1.392 . S
C223 C227 1.495 . S
C224 C223 1.392 . S
C224 C225 1.385 . S
C224 C226 1.478 . S
C225 H219 0.930 . S
C225 C221 1.400 . S
C225 C224 1.385 . S
C226 C224 1.478 . S
C226 C228 1.381 . S
C226 C232 1.383 . S
C227 C223 1.495 . S
C227 H233 0.959 . S
C227 H234 0.961 . S
C227 H235 0.960 . S
C228 C226 1.381 . S
C228 C229 1.394 . S
C228 H236 0.930 . S
C229 C228 1.394 . S
C229 C230 1.383 . S
C229 H237 0.929 . S
C230 C229 1.383 . S
C230 C231 1.377 . S
C231 H215 0.930 . S
C231 C230 1.377 . S
C231 C232 1.379 . S
C232 H216 0.931 . S
C232 C226 1.383 . S
C232 C231 1.379 . S
H233 C227 0.959 . S
H234 C227 0.961 . S
H235 C227 0.960 . S
H236 C228 0.930 . S
H237 C229 0.929 . S
H238 C246 0.929 . S
H239 C248 0.930 . S
H240 C250 0.930 . S
H241 C253 0.929 . S
H242 C256 0.930 . S
H243 C258 0.960 . S
H244 C258 0.960 . S
H245 C258 0.960 . S
C246 H238 0.929 . S
C246 C247 1.377 . S
C246 C248 1.384 . S
C247 C246 1.377 . S
C247 C253 1.390 . S
C248 H239 0.930 . S
C248 C246 1.384 . S
C248 C249 1.372 . S
C249 C248 1.372 . S
C249 C250 1.400 . S
C249 C254 1.490 . S
C250 H240 0.930 . S
C250 C249 1.400 . S
C250 C253 1.386 . S
H251 C267 0.930 . S
H252 C268 0.931 . S
C253 H241 0.929 . S
C253 C247 1.390 . S
C253 C250 1.386 . S
C254 C249 1.490 . S
C254 C256 1.395 . S
C254 C257 1.403 . S
H255 C261 0.930 . S
C256 H242 0.930 . S
C256 C254 1.395 . S
C256 C259 1.403 . S
C257 C254 1.403 . S
C257 C258 1.524 . S
C257 C261 1.400 . S
C258 H243 0.960 . S
C258 H244 0.960 . S
C258 H245 0.960 . S
C258 C257 1.524 . S
C259 C256 1.403 . S
C259 C260 1.392 . S
C259 C263 1.495 . S
C260 C259 1.392 . S
C260 C261 1.385 . S
C260 C262 1.478 . S
C261 H255 0.930 . S
C261 C257 1.400 . S
C261 C260 1.385 . S
C262 C260 1.478 . S
C262 C264 1.381 . S
C262 C268 1.383 . S
C263 C259 1.495 . S
C263 H269 0.959 1_554 S
C263 H270 0.961 1_554 S
C263 H271 0.960 . S
C264 C262 1.381 . S
C264 C265 1.394 . S
C264 H272 0.930 . S
C265 C264 1.394 . S
C265 C266 1.383 . S
C265 H273 0.929 . S
C266 C265 1.383 . S
C266 C267 1.377 . S
C267 H251 0.930 . S
C267 C266 1.377 . S
C267 C268 1.379 . S
C268 H252 0.931 . S
C268 C262 1.383 . S
C268 C267 1.379 . S
H269 C263 0.959 1_556 S
H270 C263 0.961 1_556 S
H271 C263 0.960 . S
H272 C264 0.930 . S
H273 C265 0.929 . S
H274 C282 0.929 . S
H275 C284 0.930 . S
H276 C286 0.930 . S
H277 C289 0.929 . S
H278 C292 0.930 . S
H279 C294 0.960 . S
H280 C294 0.960 . S
H281 C294 0.960 . S
C282 H274 0.929 . S
C282 C283 1.377 . S
C282 C284 1.384 . S
C283 C282 1.377 . S
C283 C289 1.390 . S
C284 H275 0.930 . S
C284 C282 1.384 . S
C284 C285 1.372 . S
C285 C284 1.372 . S
C285 C286 1.400 . S
C285 C290 1.490 . S
C286 H276 0.930 . S
C286 C285 1.400 . S
C286 C289 1.386 . S
H287 C303 0.930 . S
H288 C304 0.931 . S
C289 H277 0.929 . S
C289 C283 1.390 . S
C289 C286 1.386 . S
C290 C285 1.490 . S
C290 C292 1.395 . S
C290 C293 1.403 . S
H291 C297 0.930 . S
C292 H278 0.930 . S
C292 C290 1.395 . S
C292 C295 1.403 . S
C293 C290 1.403 . S
C293 C294 1.524 . S
C293 C297 1.400 . S
C294 H279 0.960 . S
C294 H280 0.960 . S
C294 H281 0.960 . S
C294 C293 1.524 . S
C295 C292 1.403 . S
C295 C296 1.392 . S
C295 C299 1.495 . S
C296 C295 1.392 . S
C296 C297 1.385 . S
C296 C298 1.478 . S
C297 H291 0.930 . S
C297 C293 1.400 . S
C297 C296 1.385 . S
C298 C296 1.478 . S
C298 C300 1.381 . S
C298 C304 1.383 . S
C299 C295 1.495 . S
C299 H305 0.959 . S
C299 H306 0.961 . S
C299 H307 0.960 . S
C300 C298 1.381 . S
C300 C301 1.394 . S
C300 H308 0.930 . S
C301 C300 1.394 . S
C301 C302 1.383 . S
C301 H309 0.929 . S
C302 C301 1.383 . S
C302 C303 1.377 . S
C303 H287 0.930 . S
C303 C302 1.377 . S
C303 C304 1.379 . S
C304 H288 0.931 . S
C304 C298 1.383 . S
C304 C303 1.379 . S
H305 C299 0.959 . S
H306 C299 0.961 . S
H307 C299 0.960 . S
H308 C300 0.930 . S
H309 C301 0.929 . S
H310 C318 0.929 . S
H311 C320 0.930 . S
H312 C322 0.930 . S
H313 C325 0.929 . S
H314 C328 0.930 . S
H315 C330 0.960 . S
H316 C330 0.960 . S
H317 C330 0.960 . S
C318 H310 0.929 . S
C318 C319 1.377 1_554 S
C318 C320 1.384 . S
C319 C318 1.377 1_556 S
C319 C325 1.390 . S
C320 H311 0.930 . S
C320 C318 1.384 . S
C320 C321 1.372 . S
C321 C320 1.372 . S
C321 C322 1.400 1_554 S
C321 C326 1.490 . S
C322 H312 0.930 . S
C322 C321 1.400 1_556 S
C322 C325 1.386 . S
H323 C339 0.930 . S
H324 C340 0.931 . S
C325 H313 0.929 . S
C325 C319 1.390 . S
C325 C322 1.386 . S
C326 C321 1.490 . S
C326 C328 1.395 . S
C326 C329 1.403 1_554 S
H327 C333 0.930 . S
C328 H314 0.930 . S
C328 C326 1.395 . S
C328 C331 1.403 . S
C329 C326 1.403 1_556 S
C329 C330 1.524 . S
C329 C333 1.400 . S
C330 H315 0.960 . S
C330 H316 0.960 . S
C330 H317 0.960 . S
C330 C329 1.524 . S
C331 C328 1.403 . S
C331 C332 1.392 . S
C331 C335 1.495 . S
C332 C331 1.392 . S
C332 C333 1.385 1_554 S
C332 C334 1.478 . S
C333 H327 0.930 . S
C333 C329 1.400 . S
C333 C332 1.385 1_556 S
C334 C332 1.478 . S
C334 C336 1.381 . S
C334 C340 1.383 1_554 S
C335 C331 1.495 . S
C335 H341 0.959 . S
C335 H342 0.961 . S
C335 H343 0.960 . S
C336 C334 1.381 . S
C336 C337 1.394 . S
C336 H344 0.930 . S
C337 C336 1.394 . S
C337 C338 1.383 . S
C337 H345 0.929 . S
C338 C337 1.383 . S
C338 C339 1.377 1_554 S
C339 H323 0.930 . S
C339 C338 1.377 1_556 S
C339 C340 1.379 . S
C340 H324 0.931 . S
C340 C334 1.383 1_556 S
C340 C339 1.379 . S
H341 C335 0.959 . S
H342 C335 0.961 . S
H343 C335 0.960 . S
H344 C336 0.930 . S
H345 C337 0.929 . S
H346 C354 0.929 . S
H347 C356 0.930 . S
H348 C358 0.930 . S
H349 C361 0.929 . S
H350 C364 0.930 . S
H351 C366 0.960 . S
H352 C366 0.960 . S
H353 C366 0.960 . S
C354 H346 0.929 . S
C354 C355 1.377 . S
C354 C356 1.384 . S
C355 C354 1.377 . S
C355 C361 1.390 . S
C356 H347 0.930 . S
C356 C354 1.384 . S
C356 C357 1.372 . S
C357 C356 1.372 . S
C357 C358 1.400 . S
C357 C362 1.490 . S
C358 H348 0.930 . S
C358 C357 1.400 . S
C358 C361 1.386 . S
H359 C375 0.930 . S
H360 C376 0.931 . S
C361 H349 0.929 . S
C361 C355 1.390 . S
C361 C358 1.386 . S
C362 C357 1.490 . S
C362 C364 1.395 . S
C362 C365 1.403 . S
H363 C369 0.930 . S
C364 H350 0.930 . S
C364 C362 1.395 . S
C364 C367 1.403 . S
C365 C362 1.403 . S
C365 C366 1.524 . S
C365 C369 1.400 . S
C366 H351 0.960 . S
C366 H352 0.960 . S
C366 H353 0.960 . S
C366 C365 1.524 . S
C367 C364 1.403 . S
C367 C368 1.392 . S
C367 C371 1.495 1_565 S
C368 C367 1.392 . S
C368 C369 1.385 . S
C368 C370 1.478 . S
C369 H363 0.930 . S
C369 C365 1.400 . S
C369 C368 1.385 . S
C370 C368 1.478 . S
C370 C372 1.381 1_565 S
C370 C376 1.383 . S
C371 C367 1.495 1_545 S
C371 H377 0.959 . S
C371 H378 0.961 . S
C371 H379 0.960 . S
C372 C370 1.381 1_545 S
C372 C373 1.394 . S
C372 H380 0.930 . S
C373 C372 1.394 . S
C373 C374 1.383 1_545 S
C373 H381 0.929 . S
C374 C373 1.383 1_565 S
C374 C375 1.377 . S
C375 H359 0.930 . S
C375 C374 1.377 . S
C375 C376 1.379 . S
C376 H360 0.931 . S
C376 C370 1.383 . S
C376 C375 1.379 . S
H377 C371 0.959 . S
H378 C371 0.961 . S
H379 C371 0.960 . S
H380 C372 0.930 . S
H381 C373 0.929 . S
H382 C390 0.929 . S
H383 C392 0.930 . S
H384 C394 0.930 . S
H385 C397 0.929 . S
H386 C400 0.930 . S
H387 C402 0.960 . S
H388 C402 0.960 . S
H389 C402 0.960 . S
C390 H382 0.929 . S
C390 C391 1.377 . S
C390 C392 1.384 . S
C391 C390 1.377 . S
C391 C397 1.390 . S
C392 H383 0.930 . S
C392 C390 1.384 . S
C392 C393 1.372 . S
C393 C392 1.372 . S
C393 C394 1.400 . S
C393 C398 1.490 . S
C394 H384 0.930 . S
C394 C393 1.400 . S
C394 C397 1.386 . S
H395 C411 0.930 . S
H396 C412 0.931 . S
C397 H385 0.929 . S
C397 C391 1.390 . S
C397 C394 1.386 . S
C398 C393 1.490 . S
C398 C400 1.395 . S
C398 C401 1.403 . S
H399 C405 0.930 . S
C400 H386 0.930 . S
C400 C398 1.395 . S
C400 C403 1.403 . S
C401 C398 1.403 . S
C401 C402 1.524 . S
C401 C405 1.400 . S
C402 H387 0.960 . S
C402 H388 0.960 . S
C402 H389 0.960 . S
C402 C401 1.524 . S
C403 C400 1.403 . S
C403 C404 1.392 . S
C403 C407 1.495 . S
C404 C403 1.392 . S
C404 C405 1.385 . S
C404 C406 1.478 . S
C405 H399 0.930 . S
C405 C401 1.400 . S
C405 C404 1.385 . S
C406 C404 1.478 . S
C406 C408 1.381 . S
C406 C412 1.383 . S
C407 C403 1.495 . S
C407 H413 0.959 . S
C407 H414 0.961 . S
C407 H415 0.960 . S
C408 C406 1.381 . S
C408 C409 1.394 . S
C408 H416 0.930 . S
C409 C408 1.394 . S
C409 C410 1.383 . S
C409 H417 0.929 . S
C410 C409 1.383 . S
C410 C411 1.377 . S
C411 H395 0.930 . S
C411 C410 1.377 . S
C411 C412 1.379 . S
C412 H396 0.931 . S
C412 C406 1.383 . S
C412 C411 1.379 . S
H413 C407 0.959 . S
H414 C407 0.961 . S
H415 C407 0.960 . S
H416 C408 0.930 . S
H417 C409 0.929 . S
H418 C426 0.929 . S
H419 C428 0.930 . S
H420 C430 0.930 . S
H421 C433 0.929 . S
H422 C436 0.930 . S
H423 C438 0.960 . S
H424 C438 0.960 . S
H425 C438 0.960 . S
C426 H418 0.929 . S
C426 C427 1.377 . S
C426 C428 1.384 . S
C427 C426 1.377 . S
C427 C433 1.390 . S
C428 H419 0.930 . S
C428 C426 1.384 . S
C428 C429 1.372 . S
C429 C428 1.372 . S
C429 C430 1.400 . S
C429 C434 1.490 . S
C430 H420 0.930 . S
C430 C429 1.400 . S
C430 C433 1.386 . S
H431 C447 0.930 . S
H432 C448 0.931 . S
C433 H421 0.929 . S
C433 C427 1.390 . S
C433 C430 1.386 . S
C434 C429 1.490 . S
C434 C436 1.395 . S
C434 C437 1.403 . S
H435 C441 0.930 . S
C436 H422 0.930 . S
C436 C434 1.395 . S
C436 C439 1.403 . S
C437 C434 1.403 . S
C437 C438 1.524 . S
C437 C441 1.400 . S
C438 H423 0.960 . S
C438 H424 0.960 . S
C438 H425 0.960 . S
C438 C437 1.524 . S
C439 C436 1.403 . S
C439 C440 1.392 . S
C439 C443 1.495 . S
C440 C439 1.392 . S
C440 C441 1.385 . S
C440 C442 1.478 . S
C441 H435 0.930 . S
C441 C437 1.400 . S
C441 C440 1.385 . S
C442 C440 1.478 . S
C442 C444 1.381 . S
C442 C448 1.383 . S
C443 C439 1.495 . S
C443 H449 0.959 . S
C443 H450 0.961 . S
C443 H451 0.960 . S
C444 C442 1.381 . S
C444 C445 1.394 . S
C444 H452 0.930 . S
C445 C444 1.394 . S
C445 C446 1.383 . S
C445 H453 0.929 . S
C446 C445 1.383 . S
C446 C447 1.377 . S
C447 H431 0.930 . S
C447 C446 1.377 . S
C447 C448 1.379 . S
C448 H432 0.931 . S
C448 C442 1.383 . S
C448 C447 1.379 . S
H449 C443 0.959 . S
H450 C443 0.961 . S
H451 C443 0.960 . S
H452 C444 0.930 . S
H453 C445 0.929 . S
H454 C462 0.929 . S
H455 C464 0.930 . S
H456 C466 0.930 . S
H457 C469 0.929 . S
H458 C472 0.930 . S
H459 C474 0.960 . S
H460 C474 0.960 . S
H461 C474 0.960 . S
C462 H454 0.929 . S
C462 C463 1.377 . S
C462 C464 1.384 . S
C463 C462 1.377 . S
C463 C469 1.390 . S
C464 H455 0.930 . S
C464 C462 1.384 . S
C464 C465 1.372 . S
C465 C464 1.372 . S
C465 C466 1.400 . S
C465 C470 1.490 . S
C466 H456 0.930 . S
C466 C465 1.400 . S
C466 C469 1.386 . S
H467 C483 0.930 . S
H468 C484 0.931 . S
C469 H457 0.929 . S
C469 C463 1.390 . S
C469 C466 1.386 . S
C470 C465 1.490 . S
C470 C472 1.395 . S
C470 C473 1.403 . S
H471 C477 0.930 . S
C472 H458 0.930 . S
C472 C470 1.395 . S
C472 C475 1.403 . S
C473 C470 1.403 . S
C473 C474 1.524 . S
C473 C477 1.400 . S
C474 H459 0.960 . S
C474 H460 0.960 . S
C474 H461 0.960 . S
C474 C473 1.524 . S
C475 C472 1.403 . S
C475 C476 1.392 . S
C475 C479 1.495 . S
C476 C475 1.392 . S
C476 C477 1.385 . S
C476 C478 1.478 . S
C477 H471 0.930 . S
C477 C473 1.400 . S
C477 C476 1.385 . S
C478 C476 1.478 . S
C478 C480 1.381 . S
C478 C484 1.383 . S
C479 C475 1.495 . S
C479 H485 0.959 . S
C479 H486 0.961 . S
C479 H487 0.960 . S
C480 C478 1.381 . S
C480 C481 1.394 . S
C480 H488 0.930 . S
C481 C480 1.394 . S
C481 C482 1.383 . S
C481 H489 0.929 . S
C482 C481 1.383 . S
C482 C483 1.377 . S
C483 H467 0.930 . S
C483 C482 1.377 . S
C483 C484 1.379 . S
C484 H468 0.931 . S
C484 C478 1.383 . S
C484 C483 1.379 . S
H485 C479 0.959 . S
H486 C479 0.961 . S
H487 C479 0.960 . S
H488 C480 0.930 . S
H489 C481 0.929 . S
H490 C498 0.929 . S
H491 C500 0.930 . S
H492 C502 0.930 . S
H493 C505 0.929 . S
H494 C508 0.930 . S
H495 C510 0.960 . S
H496 C510 0.960 . S
H497 C510 0.960 . S
C498 H490 0.929 . S
C498 C499 1.377 . S
C498 C500 1.384 . S
C499 C498 1.377 . S
C499 C505 1.390 . S
C500 H491 0.930 . S
C500 C498 1.384 . S
C500 C501 1.372 . S
C501 C500 1.372 . S
C501 C502 1.400 . S
C501 C506 1.490 . S
C502 H492 0.930 . S
C502 C501 1.400 . S
C502 C505 1.386 . S
H503 C519 0.930 . S
H504 C520 0.931 . S
C505 H493 0.929 . S
C505 C499 1.390 . S
C505 C502 1.386 . S
C506 C501 1.490 . S
C506 C508 1.395 . S
C506 C509 1.403 . S
H507 C513 0.930 . S
C508 H494 0.930 . S
C508 C506 1.395 . S
C508 C511 1.403 . S
C509 C506 1.403 . S
C509 C510 1.524 . S
C509 C513 1.400 . S
C510 H495 0.960 . S
C510 H496 0.960 . S
C510 H497 0.960 . S
C510 C509 1.524 . S
C511 C508 1.403 . S
C511 C512 1.392 . S
C511 C515 1.495 . S
C512 C511 1.392 . S
C512 C513 1.385 . S
C512 C514 1.478 . S
C513 H507 0.930 . S
C513 C509 1.400 . S
C513 C512 1.385 . S
C514 C512 1.478 . S
C514 C516 1.381 . S
C514 C520 1.383 . S
C515 C511 1.495 . S
C515 H521 0.959 . S
C515 H522 0.961 . S
C515 H523 0.960 . S
C516 C514 1.381 . S
C516 C517 1.394 . S
C516 H524 0.930 . S
C517 C516 1.394 . S
C517 C518 1.383 . S
C517 H525 0.929 . S
C518 C517 1.383 . S
C518 C519 1.377 . S
C519 H503 0.930 . S
C519 C518 1.377 . S
C519 C520 1.379 . S
C520 H504 0.931 . S
C520 C514 1.383 . S
C520 C519 1.379 . S
H521 C515 0.959 . S
H522 C515 0.961 . S
H523 C515 0.960 . S
H524 C516 0.930 . S
H525 C517 0.929 . S
H526 C534 0.929 . S
H527 C536 0.930 . S
H528 C538 0.930 . S
H529 C541 0.929 . S
H530 C544 0.930 . S
H531 C546 0.960 . S
H532 C546 0.960 . S
H533 C546 0.960 . S
C534 H526 0.929 . S
C534 C535 1.377 . S
C534 C536 1.384 . S
C535 C534 1.377 . S
C535 C541 1.390 . S
C536 H527 0.930 . S
C536 C534 1.384 . S
C536 C537 1.372 . S
C537 C536 1.372 . S
C537 C538 1.400 . S
C537 C542 1.490 . S
C538 H528 0.930 . S
C538 C537 1.400 . S
C538 C541 1.386 . S
H539 C555 0.930 . S
H540 C556 0.931 . S
C541 H529 0.929 . S
C541 C535 1.390 . S
C541 C538 1.386 . S
C542 C537 1.490 . S
C542 C544 1.395 . S
C542 C545 1.403 . S
H543 C549 0.930 . S
C544 H530 0.930 . S
C544 C542 1.395 . S
C544 C547 1.403 . S
C545 C542 1.403 . S
C545 C546 1.524 . S
C545 C549 1.400 . S
C546 H531 0.960 . S
C546 H532 0.960 . S
C546 H533 0.960 . S
C546 C545 1.524 . S
C547 C544 1.403 . S
C547 C548 1.392 . S
C547 C551 1.495 . S
C548 C547 1.392 . S
C548 C549 1.385 . S
C548 C550 1.478 . S
C549 H543 0.930 . S
C549 C545 1.400 . S
C549 C548 1.385 . S
C550 C548 1.478 . S
C550 C552 1.381 . S
C550 C556 1.383 . S
C551 C547 1.495 . S
C551 H557 0.959 . S
C551 H558 0.961 . S
C551 H559 0.960 . S
C552 C550 1.381 . S
C552 C553 1.394 . S
C552 H560 0.930 . S
C553 C552 1.394 . S
C553 C554 1.383 . S
C553 H561 0.929 . S
C554 C553 1.383 . S
C554 C555 1.377 . S
C555 H539 0.930 . S
C555 C554 1.377 . S
C555 C556 1.379 . S
C556 H540 0.931 . S
C556 C550 1.383 . S
C556 C555 1.379 . S
H557 C551 0.959 . S
H558 C551 0.961 . S
H559 C551 0.960 . S
H560 C552 0.930 . S
H561 C553 0.929 . S
H562 C570 0.929 . S
H563 C572 0.930 . S
H564 C574 0.930 . S
H565 C577 0.929 . S
H566 C580 0.930 . S
H567 C582 0.960 . S
H568 C582 0.960 . S
H569 C582 0.960 . S
C570 H562 0.929 . S
C570 C571 1.377 . S
C570 C572 1.384 . S
C571 C570 1.377 . S
C571 C577 1.390 . S
C572 H563 0.930 . S
C572 C570 1.384 . S
C572 C573 1.372 . S
C573 C572 1.372 . S
C573 C574 1.400 . S
C573 C578 1.490 . S
C574 H564 0.930 . S
C574 C573 1.400 . S
C574 C577 1.386 . S
H575 C591 0.930 . S
H576 C592 0.931 . S
C577 H565 0.929 . S
C577 C571 1.390 . S
C577 C574 1.386 . S
C578 C573 1.490 . S
C578 C580 1.395 . S
C578 C581 1.403 . S
H579 C585 0.930 . S
C580 H566 0.930 . S
C580 C578 1.395 . S
C580 C583 1.403 . S
C581 C578 1.403 . S
C581 C582 1.524 . S
C581 C585 1.400 . S
C582 H567 0.960 . S
C582 H568 0.960 . S
C582 H569 0.960 . S
C582 C581 1.524 . S
C583 C580 1.403 . S
C583 C584 1.392 . S
C583 C587 1.495 . S
C584 C583 1.392 . S
C584 C585 1.385 . S
C584 C586 1.478 . S
C585 H579 0.930 . S
C585 C581 1.400 . S
C585 C584 1.385 . S
C586 C584 1.478 . S
C586 C588 1.381 . S
C586 C592 1.383 . S
C587 C583 1.495 . S
C587 H593 0.959 . S
C587 H594 0.961 . S
C587 H595 0.960 . S
C588 C586 1.381 . S
C588 C589 1.394 . S
C588 H596 0.930 . S
C589 C588 1.394 . S
C589 C590 1.383 . S
C589 H597 0.929 . S
C590 C589 1.383 . S
C590 C591 1.377 . S
C591 H575 0.930 . S
C591 C590 1.377 . S
C591 C592 1.379 . S
C592 H576 0.931 . S
C592 C586 1.383 . S
C592 C591 1.379 . S
H593 C587 0.959 . S
H594 C587 0.961 . S
H595 C587 0.960 . S
H596 C588 0.930 . S
H597 C589 0.929 . S
H598 C606 0.929 . S
H599 C608 0.930 . S
H600 C610 0.930 . S
H601 C613 0.929 . S
H602 C616 0.930 1_545 S
H603 C618 0.960 . S
H604 C618 0.960 . S
H605 C618 0.960 . S
C606 H598 0.929 . S
C606 C607 1.377 . S
C606 C608 1.384 . S
C607 C606 1.377 . S
C607 C613 1.390 . S
C608 H599 0.930 . S
C608 C606 1.384 . S
C608 C609 1.372 . S
C609 C608 1.372 . S
C609 C610 1.400 . S
C609 C614 1.490 . S
C610 H600 0.930 . S
C610 C609 1.400 . S
C610 C613 1.386 . S
H611 C627 0.930 . S
H612 C628 0.931 . S
C613 H601 0.929 . S
C613 C607 1.390 . S
C613 C610 1.386 . S
C614 C609 1.490 . S
C614 C616 1.395 . S
C614 C617 1.403 . S
H615 C621 0.930 . S
C616 H602 0.930 1_565 S
C616 C614 1.395 . S
C616 C619 1.403 . S
C617 C614 1.403 . S
C617 C618 1.524 . S
C617 C621 1.400 . S
C618 H603 0.960 . S
C618 H604 0.960 . S
C618 H605 0.960 . S
C618 C617 1.524 . S
C619 C616 1.403 . S
C619 C620 1.392 . S
C619 C623 1.495 1_565 S
C620 C619 1.392 . S
C620 C621 1.385 . S
C620 C622 1.478 . S
C621 H615 0.930 . S
C621 C617 1.400 . S
C621 C620 1.385 . S
C622 C620 1.478 . S
C622 C624 1.381 . S
C622 C628 1.383 . S
C623 C619 1.495 1_545 S
C623 H629 0.959 . S
C623 H630 0.961 . S
C623 H631 0.960 . S
C624 C622 1.381 . S
C624 C625 1.394 . S
C624 H632 0.930 1_565 S
C625 C624 1.394 . S
C625 C626 1.383 . S
C625 H633 0.929 1_565 S
C626 C625 1.383 . S
C626 C627 1.377 . S
C627 H611 0.930 . S
C627 C626 1.377 . S
C627 C628 1.379 . S
C628 H612 0.931 . S
C628 C622 1.383 . S
C628 C627 1.379 . S
H629 C623 0.959 . S
H630 C623 0.961 . S
H631 C623 0.960 . S
H632 C624 0.930 1_545 S
H633 C625 0.929 1_545 S
C230 C176 1.301 . S
C211 C135 1.510 . S
C247 C15 1.508 . S
C266 C197 1.294 . S
C283 C55 1.703 . S
C302 C173 1.511 . S
C319 C95 1.719 . S
C338 C194 1.494 . S
C374 C178 1.627 . S
C355 C2 1.665 . S
C410 C198 1.543 . S
C391 C42 1.573 . S
C427 C82 1.568 . S
C446 C174 1.468 . S
C463 C141 1.650 . S
C482 C196 1.552 . S
C518 C195 1.513 . S
C499 C61 1.554 . S
C554 C177 1.578 . S
C535 C101 1.643 . S
C590 C199 1.647 . S
C571 C122 1.694 . S
C607 C21 1.679 . S
C626 C175 1.565 1_565 S
