# Generated by pormake.
# Topology ocu, (6,8)-cn, num edge types: 1
# Building blocks:
#     Node 0, Type 0, BuildingBlock: CUKXOW_clean_sbu_0, # of connection points: 6
#     Node 1, Type 0, BuildingBlock: CUKXOW_clean_sbu_0, # of connection points: 6
#     Node 2, Type 0, BuildingBlock: CUKXOW_clean_sbu_0, # of connection points: 6
#     Node 3, Type 0, BuildingBlock: CUKXOW_clean_sbu_0, # of connection points: 6
#     Node 4, Type 0, BuildingBlock: CUKXOW_clean_sbu_0, # of connection points: 6
#     Node 5, Type 0, BuildingBlock: CUKXOW_clean_sbu_0, # of connection points: 6
#     Node 6, Type 0, BuildingBlock: CUKXOW_clean_sbu_0, # of connection points: 6
#     Node 7, Type 0, BuildingBlock: CUKXOW_clean_sbu_0, # of connection points: 6
#     Node 8, Type 1, BuildingBlock: GIZVER_clean_sbu_0, # of connection points: 8
#     Node 9, Type 1, BuildingBlock: GIZVER_clean_sbu_0, # of connection points: 8
#     Node 10, Type 1, BuildingBlock: GIZVER_clean_sbu_0, # of connection points: 8
#     Node 11, Type 1, BuildingBlock: GIZVER_clean_sbu_0, # of connection points: 8
#     Node 12, Type 1, BuildingBlock: GIZVER_clean_sbu_0, # of connection points: 8
#     Node 13, Type 1, BuildingBlock: GIZVER_clean_sbu_0, # of connection points: 8
#     Edge 14, Type (0, 1), BuildingBlock: MIFKUJ_clean_linker_0, # of connection points: 2
#     Edge 15, Type (0, 1), BuildingBlock: MIFKUJ_clean_linker_0, # of connection points: 2
#     Edge 16, Type (0, 1), BuildingBlock: MIFKUJ_clean_linker_0, # of connection points: 2
#     Edge 17, Type (0, 1), BuildingBlock: MIFKUJ_clean_linker_0, # of connection points: 2
#     Edge 18, Type (0, 1), BuildingBlock: MIFKUJ_clean_linker_0, # of connection points: 2
#     Edge 19, Type (0, 1), BuildingBlock: MIFKUJ_clean_linker_0, # of connection points: 2
#     Edge 20, Type (0, 1), BuildingBlock: MIFKUJ_clean_linker_0, # of connection points: 2
#     Edge 21, Type (0, 1), BuildingBlock: MIFKUJ_clean_linker_0, # of connection points: 2
#     Edge 22, Type (0, 1), BuildingBlock: MIFKUJ_clean_linker_0, # of connection points: 2
#     Edge 23, Type (0, 1), BuildingBlock: MIFKUJ_clean_linker_0, # of connection points: 2
#     Edge 24, Type (0, 1), BuildingBlock: MIFKUJ_clean_linker_0, # of connection points: 2
#     Edge 25, Type (0, 1), BuildingBlock: MIFKUJ_clean_linker_0, # of connection points: 2
#     Edge 26, Type (0, 1), BuildingBlock: MIFKUJ_clean_linker_0, # of connection points: 2
#     Edge 27, Type (0, 1), BuildingBlock: MIFKUJ_clean_linker_0, # of connection points: 2
#     Edge 28, Type (0, 1), BuildingBlock: MIFKUJ_clean_linker_0, # of connection points: 2
#     Edge 29, Type (0, 1), BuildingBlock: MIFKUJ_clean_linker_0, # of connection points: 2
#     Edge 30, Type (0, 1), BuildingBlock: MIFKUJ_clean_linker_0, # of connection points: 2
#     Edge 31, Type (0, 1), BuildingBlock: MIFKUJ_clean_linker_0, # of connection points: 2
#     Edge 32, Type (0, 1), BuildingBlock: MIFKUJ_clean_linker_0, # of connection points: 2
#     Edge 33, Type (0, 1), BuildingBlock: MIFKUJ_clean_linker_0, # of connection points: 2
#     Edge 34, Type (0, 1), BuildingBlock: MIFKUJ_clean_linker_0, # of connection points: 2
#     Edge 35, Type (0, 1), BuildingBlock: MIFKUJ_clean_linker_0, # of connection points: 2
#     Edge 36, Type (0, 1), BuildingBlock: MIFKUJ_clean_linker_0, # of connection points: 2
#     Edge 37, Type (0, 1), BuildingBlock: MIFKUJ_clean_linker_0, # of connection points: 2
#     Edge 38, Type (0, 1), BuildingBlock: MIFKUJ_clean_linker_0, # of connection points: 2
#     Edge 39, Type (0, 1), BuildingBlock: MIFKUJ_clean_linker_0, # of connection points: 2
#     Edge 40, Type (0, 1), BuildingBlock: MIFKUJ_clean_linker_0, # of connection points: 2
#     Edge 41, Type (0, 1), BuildingBlock: MIFKUJ_clean_linker_0, # of connection points: 2
#     Edge 42, Type (0, 1), BuildingBlock: MIFKUJ_clean_linker_0, # of connection points: 2
#     Edge 43, Type (0, 1), BuildingBlock: MIFKUJ_clean_linker_0, # of connection points: 2
#     Edge 44, Type (0, 1), BuildingBlock: MIFKUJ_clean_linker_0, # of connection points: 2
#     Edge 45, Type (0, 1), BuildingBlock: MIFKUJ_clean_linker_0, # of connection points: 2
#     Edge 46, Type (0, 1), BuildingBlock: MIFKUJ_clean_linker_0, # of connection points: 2
#     Edge 47, Type (0, 1), BuildingBlock: MIFKUJ_clean_linker_0, # of connection points: 2
#     Edge 48, Type (0, 1), BuildingBlock: MIFKUJ_clean_linker_0, # of connection points: 2
#     Edge 49, Type (0, 1), BuildingBlock: MIFKUJ_clean_linker_0, # of connection points: 2
#     Edge 50, Type (0, 1), BuildingBlock: MIFKUJ_clean_linker_0, # of connection points: 2
#     Edge 51, Type (0, 1), BuildingBlock: MIFKUJ_clean_linker_0, # of connection points: 2
#     Edge 52, Type (0, 1), BuildingBlock: MIFKUJ_clean_linker_0, # of connection points: 2
#     Edge 53, Type (0, 1), BuildingBlock: MIFKUJ_clean_linker_0, # of connection points: 2
#     Edge 54, Type (0, 1), BuildingBlock: MIFKUJ_clean_linker_0, # of connection points: 2
#     Edge 55, Type (0, 1), BuildingBlock: MIFKUJ_clean_linker_0, # of connection points: 2
#     Edge 56, Type (0, 1), BuildingBlock: MIFKUJ_clean_linker_0, # of connection points: 2
#     Edge 57, Type (0, 1), BuildingBlock: MIFKUJ_clean_linker_0, # of connection points: 2
#     Edge 58, Type (0, 1), BuildingBlock: MIFKUJ_clean_linker_0, # of connection points: 2
#     Edge 59, Type (0, 1), BuildingBlock: MIFKUJ_clean_linker_0, # of connection points: 2
#     Edge 60, Type (0, 1), BuildingBlock: MIFKUJ_clean_linker_0, # of connection points: 2
#     Edge 61, Type (0, 1), BuildingBlock: MIFKUJ_clean_linker_0, # of connection points: 2
# Relax obj value: 0.135
# Max RMSD: 0.287
# Mean RMSD: 0.177
data_MOF--net-ocu--node1-CUKXOW_clean_sbu_0--node2-GIZVER_clean_sbu_0--edge1-MIFKUJ_clean_linker_0
_symmetry_space_group_name_H-M    P1
_symmetry_Int_Tables_number       1
_symmetry_cell_setting            triclinic
loop_
_symmetry_equiv_pos_as_xyz
'x, y, z'
_cell_length_a     50.370554
_cell_length_b     54.71743
_cell_length_c     39.040017
_cell_angle_alpha  91.403842
_cell_angle_beta   92.512158
_cell_angle_gamma 97.812035
loop_
_atom_site_label
_atom_site_type_symbol
_atom_site_fract_x
_atom_site_fract_y
_atom_site_fract_z
_atom_type_partial_charge
Tb0 Tb 0.26982 0.24126 0.22144 0.0
C1 C 0.30469 0.29337 0.22026 0.0
Tb2 Tb 0.26208 0.27961 0.27766 0.0
O3 O 0.25592 0.26412 0.18131 0.0
O4 O 0.24151 0.26643 0.23034 0.0
O5 O 0.30425 0.2694 0.21274 0.0
C6 C 0.24371 0.31674 0.3094 0.0
O7 O 0.28751 0.3013 0.24156 0.0
C8 C 0.2982 0.2514 0.29908 0.0
C9 C 0.22996 0.22583 0.28208 0.0
O10 O 0.26884 0.31543 0.30492 0.0
O11 O 0.2291 0.29713 0.29634 0.0
O12 O 0.29074 0.26905 0.31771 0.0
O13 O 0.28546 0.25146 0.27068 0.0
O14 O 0.23277 0.24914 0.2939 0.0
O15 O 0.24309 0.21878 0.25545 0.0
C16 C 0.27808 0.20171 0.18562 0.0
O17 O 0.25665 0.21235 0.1826 0.0
O18 O 0.29504 0.21354 0.2083 0.0
C19 C 0.24167 0.27601 0.20102 0.0
Tb20 Tb 0.74789 0.2543 0.27628 0.0
C21 C 0.73504 0.2218 0.20649 0.0
Tb22 Tb 0.78417 0.26231 0.2199 0.0
O23 O 0.73332 0.28966 0.26808 0.0
O24 O 0.74421 0.26907 0.22666 0.0
O25 O 0.73101 0.22428 0.23976 0.0
C26 C 0.81144 0.28658 0.17119 0.0
O27 O 0.75407 0.23636 0.1916 0.0
C28 C 0.796 0.22748 0.26135 0.0
C29 C 0.79552 0.29579 0.2892 0.0
O30 O 0.81871 0.26786 0.18718 0.0
O31 O 0.78873 0.29114 0.18225 0.0
O32 O 0.79915 0.22709 0.22843 0.0
O33 O 0.78802 0.24768 0.26971 0.0
O34 O 0.80073 0.29245 0.25647 0.0
O35 O 0.77661 0.28132 0.30425 0.0
C36 C 0.71939 0.23237 0.32557 0.0
O37 O 0.71277 0.25047 0.30773 0.0
O38 O 0.74217 0.22689 0.31584 0.0
C39 C 0.73647 0.2893 0.23522 0.0
Tb40 Tb 0.7577 0.76829 0.23772 0.0
C41 C 0.72162 0.71742 0.24815 0.0
Tb42 Tb 0.77144 0.73427 0.29877 0.0
O43 O 0.77989 0.75168 0.19772 0.0
O44 O 0.78056 0.73924 0.24667 0.0
O45 O 0.72282 0.74022 0.23673 0.0
C46 C 0.79298 0.70515 0.34219 0.0
O47 O 0.73987 0.71022 0.26994 0.0
C48 C 0.73887 0.76673 0.31758 0.0
C49 C 0.80725 0.78418 0.28733 0.0
O50 O 0.77663 0.69738 0.31628 0.0
O51 O 0.79751 0.72902 0.34297 0.0
O52 O 0.7467 0.75007 0.33724 0.0
O53 O 0.74899 0.76332 0.28932 0.0
O54 O 0.8075 0.76071 0.29488 0.0
O55 O 0.78689 0.79185 0.27014 0.0
C56 C 0.73934 0.80329 0.20187 0.0
O57 O 0.76372 0.80424 0.21443 0.0
O58 O 0.72522 0.78266 0.20948 0.0
C59 C 0.78911 0.73559 0.21731 0.0
Tb60 Tb 0.27977 0.77247 0.22825 0.0
C61 C 0.3022 0.7846 0.30538 0.0
Tb62 Tb 0.25501 0.74047 0.29086 0.0
O63 O 0.25658 0.80379 0.23627 0.0
O64 O 0.25278 0.77418 0.26711 0.0
O65 O 0.30605 0.78661 0.27204 0.0
C66 C 0.22014 0.72505 0.33757 0.0
O67 O 0.28298 0.769 0.31864 0.0
C68 C 0.28921 0.71777 0.25468 0.0
C69 C 0.23113 0.73045 0.21387 0.0
O70 O 0.24535 0.72196 0.33887 0.0
O71 O 0.21478 0.73668 0.31011 0.0
O72 O 0.27699 0.7084 0.28107 0.0
O73 O 0.28216 0.73884 0.25199 0.0
O74 O 0.22698 0.72902 0.24729 0.0
O75 O 0.25203 0.74397 0.20075 0.0
C76 C 0.31538 0.79091 0.18434 0.0
O77 O 0.28956 0.79097 0.18056 0.0
O78 O 0.32075 0.77949 0.21205 0.0
C79 C 0.24497 0.79486 0.26329 0.0
Tb80 Tb 0.24338 0.75158 0.79186 0.0
C81 C 0.23648 0.72421 0.71859 0.0
Tb82 Tb 0.2821 0.76746 0.73435 0.0
O83 O 0.20949 0.77108 0.77438 0.0
O84 O 0.24399 0.77335 0.74854 0.0
O85 O 0.2341 0.72231 0.75225 0.0
C86 C 0.31078 0.79548 0.69089 0.0
O87 O 0.25136 0.74302 0.7048 0.0
C88 C 0.29504 0.73156 0.77323 0.0
C89 C 0.28909 0.79622 0.80749 0.0
O90 O 0.31576 0.77394 0.70037 0.0
O91 O 0.28944 0.80066 0.70508 0.0
O92 O 0.30064 0.73373 0.74115 0.0
O93 O 0.28444 0.75014 0.78245 0.0
O94 O 0.29591 0.79523 0.77502 0.0
O95 O 0.27044 0.78005 0.82061 0.0
C96 C 0.22134 0.72524 0.84192 0.0
O97 O 0.21749 0.74769 0.83534 0.0
O98 O 0.23766 0.71776 0.8204 0.0
C99 C 0.22137 0.78071 0.74805 0.0
Tb100 Tb 0.26044 0.2741 0.71769 0.0
C101 C 0.22364 0.22511 0.73055 0.0
Tb102 Tb 0.2731 0.24491 0.77945 0.0
O103 O 0.28246 0.25675 0.6783 0.0
O104 O 0.28312 0.24474 0.72753 0.0
O105 O 0.22445 0.24758 0.71861 0.0
C106 C 0.284 0.2128 0.82618 0.0
O107 O 0.24281 0.21889 0.75152 0.0
C108 C 0.25009 0.28463 0.79392 0.0
C109 C 0.3117 0.29158 0.7646 0.0
O110 O 0.26012 0.21715 0.81688 0.0
O111 O 0.30162 0.2261 0.80877 0.0
O112 O 0.26682 0.27538 0.81422 0.0
O113 O 0.24502 0.27027 0.76787 0.0
O114 O 0.31067 0.26861 0.77474 0.0
O115 O 0.29186 0.29888 0.74584 0.0
C116 C 0.24108 0.30484 0.67434 0.0
O117 O 0.2622 0.31043 0.69472 0.0
O118 O 0.23079 0.28223 0.67879 0.0
C119 C 0.29151 0.24085 0.69815 0.0
Tb120 Tb 0.7711 0.27436 0.71254 0.0
C121 C 0.80115 0.28641 0.78644 0.0
Tb122 Tb 0.75847 0.24057 0.77325 0.0
O123 O 0.7472 0.30409 0.7246 0.0
O124 O 0.74874 0.27467 0.75664 0.0
O125 O 0.80077 0.28945 0.7528 0.0
C126 C 0.73763 0.20888 0.81886 0.0
O127 O 0.78472 0.26939 0.80139 0.0
C128 C 0.79634 0.22937 0.733 0.0
C129 C 0.72218 0.23296 0.70285 0.0
O130 O 0.75406 0.20444 0.79573 0.0
O131 O 0.73276 0.23154 0.81663 0.0
O132 O 0.79725 0.22741 0.76607 0.0
O133 O 0.77468 0.23722 0.72433 0.0
O134 O 0.72458 0.22897 0.73636 0.0
O135 O 0.73934 0.24893 0.68693 0.0
C136 C 0.80639 0.28963 0.66655 0.0
O137 O 0.78179 0.29477 0.66615 0.0
O138 O 0.81053 0.27599 0.69235 0.0
C139 C 0.73934 0.29488 0.75359 0.0
Tb140 Tb 0.77286 0.73692 0.71929 0.0
C141 C 0.80425 0.79158 0.71625 0.0
Tb142 Tb 0.76406 0.77712 0.77645 0.0
O143 O 0.74403 0.74793 0.67979 0.0
O144 O 0.75011 0.7657 0.72652 0.0
O145 O 0.80356 0.76781 0.70717 0.0
C146 C 0.74426 0.81368 0.80717 0.0
O147 O 0.78851 0.7992 0.73977 0.0
C148 C 0.79964 0.74811 0.79767 0.0
C149 C 0.73307 0.72217 0.77966 0.0
O150 O 0.76926 0.81408 0.8001 0.0
O151 O 0.73053 0.79267 0.79734 0.0
O152 O 0.79295 0.76629 0.81609 0.0
O153 O 0.78684 0.74841 0.76931 0.0
O154 O 0.73346 0.74601 0.78845 0.0
O155 O 0.74876 0.71456 0.75602 0.0
C156 C 0.79353 0.70227 0.68547 0.0
O157 O 0.76807 0.70206 0.68985 0.0
O158 O 0.80721 0.72172 0.70047 0.0
C159 C 0.73727 0.76603 0.69823 0.0
Co160 Co 0.05735 0.96118 0.48333 0.0
Co161 Co 0.05648 0.97638 0.5456 0.0
Co162 Co 0.01816 0.00809 0.49969 0.0
O163 O 0.05295 0.9928 0.50487 0.0
H164 H 0.06853 1.00495 0.50251 0.0
O165 O 0.98344 0.02368 0.49492 0.0
Co166 Co 0.98018 0.05532 0.51784 0.0
Co167 Co 0.98065 0.04182 0.45618 0.0
H168 H 0.96765 0.01169 0.49677 0.0
O169 O 0.08997 0.97257 0.5655 0.0
O170 O 0.06404 0.946 0.52892 0.0
O171 O 0.02418 0.96827 0.56936 0.0
O172 O 0.99657 0.98434 0.53249 0.0
O173 O 0.03141 0.03186 0.53782 0.0
O174 O 0.97562 0.0828 0.5406 0.0
O175 O 0.94415 0.05043 0.52701 0.0
O176 O 0.01756 0.06463 0.51392 0.0
O177 O 0.03996 0.03178 0.46678 0.0
O178 O 1.01264 0.05013 0.43245 0.0
O179 O 0.97058 0.07128 0.47293 0.0
O180 O 0.94812 0.04319 0.4347 0.0
C181 C 0.08823 0.94437 0.46306 0.0
C182 C 1.00415 0.96071 0.4643 0.0
C183 C 1.00067 0.97073 0.55825 0.0
C184 C 0.08478 0.95089 0.55056 0.0
C185 C 0.9511 0.07215 0.54225 0.0
C186 C 0.03339 0.05519 0.5346 0.0
C187 C 0.03606 0.04641 0.44212 0.0
C188 C 0.95092 0.06495 0.44966 0.0
O189 O 0.06376 0.93313 0.46262 0.0
O190 O 0.09363 0.96663 0.47694 0.0
O191 O 1.00485 0.98404 0.46152 0.0
O192 O 0.02014 0.95174 0.48519 0.0
Co193 Co 0.55458 0.97063 0.99885 0.0
Co194 Co 0.55165 0.99283 0.05731 0.0
Co195 Co 0.5132 0.01221 0.99879 0.0
O196 O 0.54745 1.00209 0.01342 0.0
H197 H 0.56213 0.01485 0.00939 0.0
O198 O 0.47923 0.02238 0.98313 0.0
Co199 Co 0.47239 0.05509 0.98991 0.0
Co200 Co 0.47759 0.02685 0.93592 0.0
H201 H 0.46424 0.01047 0.98893 0.0
O202 O 0.58555 0.9953 0.0781 0.0
O203 O 0.56329 0.96307 0.04685 0.0
O204 O 0.51948 0.98783 0.08126 0.0
O205 O 0.49231 0.9951 0.0368 0.0
O206 O 0.52255 0.04241 0.02847 0.0
O207 O 0.46196 0.08432 0.99654 0.0
O208 O 0.4372 0.04665 0.99283 0.0
O209 O 0.51003 0.06823 0.99012 0.0
O210 O 0.53456 0.02904 0.96158 0.0
O211 O 0.51031 0.03009 0.91266 0.0
O212 O 0.46776 0.05784 0.93941 0.0
O213 O 0.44483 0.02409 0.91218 0.0
C214 C 0.58685 0.95822 0.97987 0.0
C215 C 0.50075 0.96101 0.98101 0.0
C216 C 0.49619 0.98782 0.06738 0.0
C217 C 0.58449 0.97312 0.06491 0.0
C218 C 0.4389 0.07043 0.99771 0.0
C219 C 0.52493 0.06377 0.01588 0.0
C220 C 0.53259 0.03308 0.9296 0.0
C221 C 0.4468 0.0473 0.9212 0.0
O222 O 0.565 0.94307 0.98386 0.0
O223 O 0.58887 0.98099 0.99123 0.0
O224 O 0.50336 0.98239 0.9687 0.0
O225 O 0.51817 0.95561 0.00309 0.0
Co226 Co 0.05233 0.46076 0.98232 0.0
Co227 Co 0.05914 0.47969 0.04308 0.0
Co228 Co 1.01525 0.50874 1.00142 0.0
O229 O 0.05028 0.49358 1.00191 0.0
H230 H 0.06508 0.50536 0.99546 0.0
O231 O 0.98038 0.52398 1.00099 0.0
Co232 Co 0.97851 0.55707 0.0197 0.0
Co233 Co 0.97158 0.5374 0.95958 0.0
H234 H 0.96548 0.51226 0.00776 0.0
O235 O 0.09424 0.47576 0.05671 0.0
O236 O 0.0638 0.44792 0.02784 0.0
O237 O 0.03096 0.47556 0.07466 0.0
O238 O 0.99956 0.4888 0.04031 0.0
O239 O 0.03302 0.53549 0.0337 0.0
O240 O 0.97435 0.58622 0.03917 0.0
O241 O 0.94369 0.55237 0.03325 0.0
O242 O 1.0151 0.56641 0.01007 0.0
O243 O 0.03076 0.52832 0.96239 0.0
O244 O 0.99916 0.54016 0.92708 0.0
O245 O 0.96632 0.56926 0.97373 0.0
O246 O 0.93681 0.54036 0.94501 0.0
C247 C 0.08054 0.44297 0.95738 0.0
C248 C 0.99801 0.45928 0.97227 0.0
C249 C 1.0067 0.47805 0.06725 0.0
C250 C 0.08676 0.45329 0.0452 0.0
C251 C 0.95047 0.57516 0.04481 0.0
C252 C 0.03392 0.55844 0.02757 0.0
C253 C 0.02343 0.53782 0.93455 0.0
C254 C 0.94379 0.56316 0.95546 0.0
O255 O 0.05649 0.43192 0.96203 0.0
O256 O 0.08736 0.46555 0.96973 0.0
O257 O 0.99762 0.48234 0.96867 0.0
O258 O 1.01594 0.45148 0.99142 0.0
Co259 Co 0.5529 0.46041 0.98253 0.0
Co260 Co 0.55343 0.47665 0.04399 0.0
Co261 Co 0.51652 0.5093 1.00005 0.0
O262 O 0.55059 0.49285 0.00352 0.0
H263 H 0.56659 0.50442 1.00072 0.0
O264 O 0.48236 0.52584 0.99683 0.0
Co265 Co 0.47928 0.55699 0.02158 0.0
Co266 Co 0.48043 0.54542 0.95957 0.0
H267 H 0.46631 0.51403 0.99763 0.0
O268 O 0.58623 0.4744 0.06392 0.0
O269 O 0.56096 0.44598 0.02866 0.0
O270 O 0.52228 0.47095 0.07048 0.0
O271 O 0.49459 0.48581 0.03279 0.0
O272 O 0.53095 0.53244 0.03846 0.0
O273 O 0.47483 0.58414 0.04575 0.0
O274 O 0.44311 0.5523 0.03102 0.0
O275 O 0.51676 0.56615 0.01753 0.0
O276 O 0.53878 0.53272 0.96724 0.0
O277 O 0.51262 0.55465 0.93664 0.0
O278 O 0.46969 0.57397 0.97768 0.0
O279 O 0.44836 0.54652 0.93757 0.0
C280 C 0.58186 0.44133 0.96067 0.0
C281 C 0.49999 0.46245 0.96475 0.0
C282 C 0.4987 0.4732 0.05955 0.0
C283 C 0.58157 0.45216 0.05048 0.0
C284 C 0.45014 0.57378 0.04699 0.0
C285 C 0.53318 0.55589 0.03637 0.0
C286 C 0.5356 0.54896 0.94448 0.0
C287 C 0.45045 0.5678 0.9538 0.0
O288 O 0.55691 0.4317 0.96202 0.0
O289 O 0.58916 0.46359 0.97411 0.0
O290 O 0.5021 0.48586 0.96178 0.0
O291 O 0.51528 0.4528 0.98596 0.0
Co292 Co 0.07862 0.483 0.48901 0.0
Co293 Co 0.04194 0.48886 0.44017 0.0
Co294 Co 0.02124 0.50365 0.51137 0.0
O295 O 0.04074 0.48071 0.48638 0.0
H296 H 0.03226 0.46385 0.48783 0.0
O297 O 1.00161 0.52657 0.53626 0.0
Co298 Co 0.96376 0.523 0.53067 0.0
Co299 Co 0.99849 0.51878 0.58216 0.0
H300 H 1.00977 0.54351 0.53464 0.0
O301 O 0.05113 0.46764 0.40585 0.0
O302 O 0.07901 0.49328 0.44104 0.0
O303 O 0.0314 0.51985 0.42776 0.0
O304 O 0.03344 0.53286 0.48221 0.0
O305 O 0.98965 0.49225 0.4794 0.0
O306 O 0.92883 0.52304 0.52547 0.0
O307 O 0.96144 0.55506 0.53735 0.0
O308 O 0.96121 0.48887 0.52078 0.0
O309 O 1.00962 0.47466 0.54085 0.0
O310 O 1.00776 0.48738 0.59519 0.0
O311 O 0.96146 0.5167 0.58008 0.0
O312 O 0.9906 0.5419 0.61452 0.0
C313 C 0.10473 0.45833 0.48236 0.0
C314 C 0.07508 0.5238 0.5328 0.0
C315 C 0.03423 0.53721 0.45023 0.0
C316 C 0.07525 0.4778 0.4151 0.0
C317 C 0.93639 0.54666 0.52937 0.0
C318 C 0.96762 0.48243 0.49113 0.0
C319 C 1.00765 0.47023 0.57271 0.0
C320 C 0.96608 0.53385 0.60401 0.0
O321 O 0.11356 0.48136 0.49016 0.0
O322 O 0.07909 0.45135 0.47664 0.0
O323 O 0.05246 0.5147 0.5434 0.0
O324 O 0.08322 0.51651 0.50443 0.0
Co325 Co 0.5704 0.97382 0.51428 0.0
Co326 Co 0.55331 0.97513 0.45341 0.0
Co327 Co 0.51823 0.00922 0.49876 0.0
O328 O 0.53559 0.9779 0.49307 0.0
H329 H 0.52267 0.96333 0.49533 0.0
O330 O 0.50047 0.04036 0.50436 0.0
Co331 Co 0.46529 0.04363 0.48295 0.0
Co332 Co 0.48301 0.04358 0.5443 0.0
H333 H 0.51316 0.05501 0.50154 0.0
O334 O 0.55292 0.9451 0.43213 0.0
O335 O 0.58542 0.96507 0.46865 0.0
O336 O 0.56012 1.00448 0.42846 0.0
O337 O 0.53814 0.02797 0.46177 0.0
O338 O 0.4895 0.99513 0.46484 0.0
O339 O 0.43475 0.04932 0.46127 0.0
O340 O 0.47135 0.07675 0.47463 0.0
O341 O 0.45407 0.00866 0.4869 0.0
O342 O 0.4984 0.99068 0.53586 0.0
O343 O 0.479 0.01492 0.57115 0.0
O344 O 0.44971 0.05145 0.5287 0.0
O345 O 0.48086 0.07355 0.56514 0.0
C346 C 0.5881 0.94553 0.53711 0.0
C347 C 0.57225 0.02479 0.5273 0.0
C348 C 0.55286 0.02505 0.43656 0.0
C349 C 0.57694 0.94686 0.44646 0.0
C350 C 0.44721 0.07172 0.46013 0.0
C351 C 0.46478 0.99185 0.47146 0.0
C352 C 0.48536 0.99407 0.56252 0.0
C353 C 0.4567 0.06982 0.55111 0.0
O354 O 0.60083 0.96779 0.53584 0.0
O355 O 0.5638 0.94074 0.523 0.0
O356 O 0.54728 0.02319 0.53263 0.0
O357 O 0.582 0.00845 0.50968 0.0
H358 H 0.18143 0.22989 0.30964 0.0
H359 H 0.15141 0.19821 0.33722 0.0
H360 H 0.20823 0.14669 0.32446 0.0
H361 H 0.23719 0.17792 0.29435 0.0
H362 H 0.16488 0.12098 0.31723 0.0
H363 H 0.1948 0.18017 0.40704 0.0
H364 H 0.20395 0.22147 0.43532 0.0
H365 H 0.11992 0.22804 0.42848 0.0
H366 H 0.11027 0.18691 0.39981 0.0
H367 H 0.09078 0.04143 0.44191 0.0
H368 H 0.12696 0.06972 0.41699 0.0
H369 H 0.06937 0.11674 0.38416 0.0
H370 H 0.0336 0.08881 0.40766 0.0
H371 H 0.11715 0.1425 0.41975 0.0
H372 H 0.09026 0.08184 0.3267 0.0
H373 H 0.08378 0.03955 0.3015 0.0
H374 H 0.16735 0.03444 0.32131 0.0
H375 H 0.17423 0.07661 0.34707 0.0
C376 C 0.18752 0.21181 0.31276 0.0
C377 C 0.21181 0.20657 0.29979 0.0
C378 C 0.1704 0.1936 0.32902 0.0
C379 C 0.17754 0.16983 0.33438 0.0
C380 C 0.20189 0.16465 0.32117 0.0
C381 C 0.21859 0.18263 0.30389 0.0
C382 C 0.15956 0.15042 0.35305 0.0
C383 C 0.15497 0.12582 0.34003 0.0
C384 C 0.14619 0.15605 0.38306 0.0
C385 C 0.15185 0.18054 0.40101 0.0
C386 C 0.17828 0.19046 0.41148 0.0
C387 C 0.18356 0.21383 0.42757 0.0
C388 C 0.16254 0.22739 0.43356 0.0
C389 C 0.13618 0.21752 0.42375 0.0
C390 C 0.13079 0.19417 0.40764 0.0
C391 C 0.08583 0.05769 0.42915 0.0
C392 C 0.05899 0.06247 0.42668 0.0
C393 C 0.10656 0.07391 0.41491 0.0
C394 C 0.10102 0.09555 0.3986 0.0
C395 C 0.07437 0.10034 0.39653 0.0
C396 C 0.05377 0.08406 0.40995 0.0
C397 C 0.12247 0.11354 0.38357 0.0
C398 C 0.12756 0.13782 0.39726 0.0
C399 C 0.13683 0.10746 0.35488 0.0
C400 C 0.13269 0.08224 0.33917 0.0
C401 C 0.1072 0.07161 0.32596 0.0
C402 C 0.10346 0.04769 0.31151 0.0
C403 C 0.12512 0.03429 0.30991 0.0
C404 C 0.15058 0.04482 0.32263 0.0
C405 C 0.15441 0.06873 0.33714 0.0
H406 H 0.12219 0.01577 0.29872 0.0
H407 H 0.16666 0.24555 0.44575 0.0
H408 H 0.80943 0.18158 0.24825 0.0
H409 H 0.83359 0.15612 0.28621 0.0
H410 H 0.83835 0.21216 0.36656 0.0
H411 H 0.81345 0.23747 0.32886 0.0
H412 H 0.88911 0.19286 0.35454 0.0
H413 H 0.79795 0.16419 0.37792 0.0
H414 H 0.75047 0.14868 0.36308 0.0
H415 H 0.77357 0.08451 0.31328 0.0
H416 H 0.82126 0.09982 0.3274 0.0
H417 H 0.94757 0.1131 0.47269 0.0
H418 H 0.91975 0.1424 0.44755 0.0
H419 H 0.88757 0.08748 0.37012 0.0
H420 H 0.91424 0.0583 0.39544 0.0
H421 H 0.84887 0.10936 0.38708 0.0
H422 H 0.9394 0.13936 0.35741 0.0
H423 H 0.98731 0.15495 0.3692 0.0
H424 H 0.96609 0.21624 0.42785 0.0
H425 H 0.91803 0.20082 0.41673 0.0
C426 C 0.8154 0.18841 0.27411 0.0
C427 C 0.80938 0.21155 0.28547 0.0
C428 C 0.82928 0.17382 0.29583 0.0
C429 C 0.83796 0.18213 0.32939 0.0
C430 C 0.83201 0.20529 0.34083 0.0
C431 C 0.8176 0.21969 0.31929 0.0
C432 C 0.85322 0.1665 0.35215 0.0
C433 C 0.88017 0.17476 0.36218 0.0
C434 C 0.84189 0.14268 0.36175 0.0
C435 C 0.81322 0.13327 0.35346 0.0
C436 C 0.79293 0.14687 0.36356 0.0
C437 C 0.76597 0.1381 0.35532 0.0
C438 C 0.75901 0.11566 0.33716 0.0
C439 C 0.779 0.1019 0.32731 0.0
C440 C 0.806 0.11061 0.33546 0.0
C441 C 0.93446 0.10726 0.45041 0.0
C442 C 0.93345 0.0832 0.4362 0.0
C443 C 0.91859 0.12413 0.43582 0.0
C444 C 0.90156 0.11752 0.40633 0.0
C445 C 0.90028 0.09335 0.39274 0.0
C446 C 0.91581 0.07655 0.40738 0.0
C447 C 0.88519 0.13536 0.38898 0.0
C448 C 0.8579 0.12753 0.37985 0.0
C449 C 0.89632 0.15949 0.37994 0.0
C450 C 0.92516 0.16879 0.38659 0.0
C451 C 0.94497 0.15607 0.37302 0.0
C452 C 0.97214 0.16488 0.37955 0.0
C453 C 0.97974 0.18653 0.39936 0.0
C454 C 0.96017 0.19944 0.41258 0.0
C455 C 0.93297 0.19068 0.40616 0.0
H456 H 1.00078 0.19332 0.40438 0.0
H457 H 0.73813 0.1089 0.3308 0.0
H458 H 0.8555 0.77623 0.31671 0.0
H459 H 0.8905 0.80724 0.34286 0.0
H460 H 0.84393 0.86487 0.31448 0.0
H461 H 0.80929 0.83419 0.28747 0.0
H462 H 0.89592 0.87919 0.30635 0.0
H463 H 0.84191 0.84179 0.39496 0.0
H464 H 0.8202 0.80677 0.42686 0.0
H465 H 0.89722 0.78543 0.45356 0.0
H466 H 0.91937 0.82017 0.42146 0.0
H467 H 0.95976 0.9712 0.42736 0.0
H468 H 0.92668 0.9419 0.39423 0.0
H469 H 0.97124 0.88252 0.42105 0.0
H470 H 1.00383 0.91136 0.45467 0.0
H471 H 0.91954 0.86977 0.42962 0.0
H472 H 0.97354 0.90789 0.34099 0.0
H473 H 0.9947 0.94302 0.30885 0.0
H474 H 0.9172 0.96349 0.28253 0.0
H475 H 0.8956 0.92865 0.3149 0.0
C476 C 0.85286 0.79552 0.31572 0.0
C477 C 0.82953 0.80275 0.30038 0.0
C478 C 0.87281 0.81319 0.33072 0.0
C479 C 0.86949 0.83825 0.33113 0.0
C480 C 0.8468 0.84559 0.3145 0.0
C481 C 0.82699 0.828 0.29918 0.0
C482 C 0.8889 0.85672 0.35048 0.0
C483 C 0.90093 0.8773 0.33338 0.0
C484 C 0.89551 0.85404 0.38564 0.0
C485 C 0.88227 0.83345 0.40557 0.0
C486 C 0.8542 0.82956 0.40751 0.0
C487 C 0.84182 0.80977 0.42563 0.0
C488 C 0.85732 0.79385 0.44216 0.0
C489 C 0.88524 0.79776 0.44072 0.0
C490 C 0.89772 0.81752 0.42261 0.0
C491 C 0.9625 0.95191 0.42606 0.0
C492 C 0.98433 0.94356 0.44363 0.0
C493 C 0.94368 0.93523 0.40707 0.0
C494 C 0.9467 0.91011 0.40501 0.0
C495 C 0.96854 0.90183 0.42242 0.0
C496 C 0.98714 0.91837 0.44159 0.0
C497 C 0.9269 0.89213 0.38541 0.0
C498 C 0.91462 0.87168 0.40256 0.0
C499 C 0.92002 0.89501 0.35036 0.0
C500 C 0.93298 0.91581 0.33063 0.0
C501 C 0.96103 0.91998 0.32853 0.0
C502 C 0.9731 0.93983 0.31025 0.0
C503 C 0.95731 0.95551 0.29373 0.0
C504 C 0.92941 0.95134 0.29537 0.0
C505 C 0.91724 0.93154 0.31365 0.0
H506 H 0.96669 0.97087 0.2796 0.0
H507 H 0.8477 0.77851 0.45612 0.0
H508 H 0.2284 0.8392 0.25216 0.0
H509 H 0.20451 0.86392 0.29005 0.0
H510 H 0.20139 0.8072 0.36502 0.0
H511 H 0.22611 0.78256 0.32724 0.0
H512 H 0.15231 0.82613 0.35594 0.0
H513 H 0.24396 0.85788 0.38112 0.0
H514 H 0.29037 0.87396 0.36801 0.0
H515 H 0.26275 0.93555 0.31815 0.0
H516 H 0.21607 0.91978 0.33096 0.0
H517 H 0.10145 0.89985 0.48133 0.0
H518 H 0.13106 0.8748 0.45248 0.0
H519 H 0.14999 0.93252 0.38072 0.0
H520 H 0.12169 0.95833 0.41119 0.0
H521 H 0.19241 0.91144 0.39107 0.0
H522 H 0.09964 0.87763 0.36453 0.0
H523 H 0.05368 0.86081 0.37905 0.0
H524 H 0.08399 0.80189 0.43233 0.0
H525 H 0.13016 0.81854 0.4185 0.0
C526 C 0.22253 0.83184 0.27663 0.0
C527 C 0.22885 0.80863 0.28635 0.0
C528 C 0.20893 0.84611 0.29841 0.0
C529 C 0.20116 0.83762 0.33064 0.0
C530 C 0.20702 0.81421 0.34028 0.0
C531 C 0.22098 0.79998 0.31852 0.0
C532 C 0.18715 0.85343 0.35397 0.0
C533 C 0.16126 0.84464 0.36407 0.0
C534 C 0.19849 0.8778 0.36426 0.0
C535 C 0.2265 0.88754 0.35674 0.0
C536 C 0.24776 0.87478 0.36717 0.0
C537 C 0.27412 0.88384 0.35981 0.0
C538 C 0.27952 0.90569 0.34206 0.0
C539 C 0.25854 0.9186 0.33184 0.0
C540 C 0.23213 0.90965 0.33924 0.0
C541 C 0.11236 0.90737 0.45978 0.0
C542 C 0.10928 0.93107 0.44854 0.0
C543 C 0.12903 0.89287 0.44296 0.0
C544 C 0.14217 0.90116 0.41344 0.0
C545 C 0.14002 0.92539 0.40315 0.0
C546 C 0.12388 0.94023 0.42063 0.0
C547 C 0.15724 0.88434 0.3928 0.0
C548 C 0.18339 0.89294 0.3831 0.0
C549 C 0.14614 0.85971 0.38295 0.0
C550 C 0.11835 0.84943 0.39068 0.0
C551 C 0.09649 0.86113 0.37943 0.0
C552 C 0.07042 0.85164 0.38756 0.0
C553 C 0.06593 0.83033 0.40668 0.0
C554 C 0.0875 0.81841 0.41757 0.0
C555 C 0.11362 0.82785 0.40956 0.0
H556 H 0.04573 0.82303 0.41299 0.0
H557 H 0.29995 0.91264 0.33634 0.0
H558 H 0.24619 0.81702 0.70763 0.0
H559 H 0.22484 0.84382 0.66855 0.0
H560 H 0.14701 0.80713 0.69284 0.0
H561 H 0.16839 0.78029 0.73163 0.0
H562 H 0.14996 0.81615 0.62285 0.0
H563 H 0.17103 0.86172 0.73078 0.0
H564 H 0.20153 0.87997 0.7786 0.0
H565 H 0.24896 0.92402 0.70805 0.0
H566 H 0.2189 0.90578 0.65973 0.0
H567 H 0.06547 0.90313 0.56489 0.0
H568 H 0.08955 0.87296 0.59375 0.0
H569 H 0.16332 0.92326 0.59148 0.0
H570 H 0.13863 0.9541 0.56531 0.0
H571 H 0.16446 0.9063 0.64818 0.0
H572 H 0.1441 0.86285 0.53964 0.0
H573 H 0.11577 0.8436 0.49037 0.0
H574 H 0.06999 0.79549 0.55779 0.0
H575 H 0.0979 0.81441 0.60751 0.0
C576 C 0.22464 0.81424 0.70398 0.0
C577 C 0.20911 0.79621 0.7224 0.0
C578 C 0.21234 0.82981 0.6819 0.0
C579 C 0.18417 0.82766 0.67763 0.0
C580 C 0.16871 0.80922 0.69542 0.0
C581 C 0.18099 0.79391 0.71774 0.0
C582 C 0.17069 0.8452 0.65599 0.0
C583 C 0.15299 0.83587 0.62845 0.0
C584 C 0.17503 0.87103 0.66256 0.0
C585 C 0.19288 0.88221 0.69163 0.0
C586 C 0.18806 0.87518 0.72545 0.0
C587 C 0.20525 0.88554 0.75264 0.0
C588 C 0.22721 0.90309 0.74636 0.0
C589 C 0.23197 0.91039 0.71287 0.0
C590 C 0.21485 0.90007 0.68558 0.0
C591 C 0.08692 0.90754 0.57004 0.0
C592 C 0.10015 0.93099 0.56263 0.0
C593 C 0.10085 0.89014 0.58646 0.0
C594 C 0.12868 0.8953 0.59468 0.0
C595 C 0.14197 0.91851 0.58589 0.0
C596 C 0.12786 0.93618 0.57059 0.0
C597 C 0.14362 0.87746 0.61433 0.0
C598 C 0.16154 0.88668 0.64187 0.0
C599 C 0.13979 0.85155 0.60727 0.0
C600 C 0.12297 0.8402 0.57736 0.0
C601 C 0.12789 0.84826 0.54399 0.0
C602 C 0.11193 0.83741 0.51598 0.0
C603 C 0.09105 0.81846 0.52096 0.0
C604 C 0.08615 0.8102 0.55396 0.0
C605 C 0.10207 0.82094 0.58207 0.0
H606 H 0.07871 0.81012 0.49924 0.0
H607 H 0.24051 0.91108 0.76744 0.0
H608 H 0.21951 0.17515 0.738 0.0
H609 H 0.18562 0.14365 0.71051 0.0
H610 H 0.14426 0.20056 0.6672 0.0
H611 H 0.17779 0.23213 0.69466 0.0
H612 H 0.1094 0.16132 0.68892 0.0
H613 H 0.18771 0.17609 0.62116 0.0
H614 H 0.23612 0.17901 0.61175 0.0
H615 H 0.23462 0.10264 0.6355 0.0
H616 H 0.18625 0.09939 0.64565 0.0
H617 H 0.03921 0.10548 0.5414 0.0
H618 H 0.07125 0.13198 0.57949 0.0
H619 H 0.10517 0.06826 0.61465 0.0
H620 H 0.07336 0.04156 0.57645 0.0
H621 H 0.14371 0.1076 0.6016 0.0
H622 H 0.06361 0.09223 0.66387 0.0
H623 H 1.01496 0.08993 0.67117 0.0
H624 H 0.01957 0.16785 0.65628 0.0
H625 H 0.06821 0.17056 0.64833 0.0
C626 C 0.20294 0.18097 0.72313 0.0
C627 C 0.20149 0.20612 0.71812 0.0
C628 C 0.18366 0.16295 0.70741 0.0
C629 C 0.16272 0.16986 0.68652 0.0
C630 C 0.16034 0.19491 0.6832 0.0
C631 C 0.17961 0.21291 0.69876 0.0
C632 C 0.14455 0.15122 0.66575 0.0
C633 C 0.11684 0.14962 0.66975 0.0
C634 C 0.15443 0.13574 0.64116 0.0
C635 C 0.18343 0.13757 0.63458 0.0
C636 C 0.19774 0.15997 0.62464 0.0
C637 C 0.22517 0.16168 0.61914 0.0
C638 C 0.23846 0.14105 0.62313 0.0
C639 C 0.22431 0.11863 0.6325 0.0
C640 C 0.19689 0.11683 0.63813 0.0
C641 C 0.05358 0.0971 0.55706 0.0
C642 C 0.05362 0.07141 0.55612 0.0
C643 C 0.07177 0.11224 0.57889 0.0
C644 C 0.09025 0.10197 0.60015 0.0
C645 C 0.09094 0.07646 0.59851 0.0
C646 C 0.07269 0.06127 0.57677 0.0
C647 C 0.10854 0.1179 0.6245 0.0
C648 C 0.13627 0.11902 0.62112 0.0
C649 C 0.09866 0.13299 0.64956 0.0
C650 C 0.06954 0.13156 0.65524 0.0
C651 C 0.05423 0.10886 0.66197 0.0
C652 C 0.02666 0.10748 0.66622 0.0
C653 C 1.01417 0.12872 0.66409 0.0
C654 C 0.02927 0.15141 0.65789 0.0
C655 C 0.05685 0.15288 0.65354 0.0
H656 H 0.99281 0.1276 0.6673 0.0
H657 H 0.2597 0.14241 0.61888 0.0
H658 H 0.84653 0.21675 0.74463 0.0
H659 H 0.87041 0.1903 0.70864 0.0
H660 H 0.80401 0.18157 0.6339 0.0
H661 H 0.78042 0.20869 0.66932 0.0
H662 H 0.82379 0.13531 0.65483 0.0
H663 H 0.85573 0.2139 0.60825 0.0
H664 H 0.87626 0.25745 0.60843 0.0
H665 H 0.94726 0.23884 0.6607 0.0
H666 H 0.92721 0.19509 0.66051 0.0
H667 H 0.89584 0.07056 0.53219 0.0
H668 H 0.86699 0.09669 0.56126 0.0
H669 H 0.93507 0.12971 0.62533 0.0
H670 H 0.9637 0.1046 0.5958 0.0
H671 H 0.91099 0.16445 0.60527 0.0
H672 H 0.8799 0.08605 0.65305 0.0
H673 H 0.8606 0.04212 0.65193 0.0
H674 H 0.78869 0.0595 0.60056 0.0
H675 H 0.80772 0.10352 0.60097 0.0
C676 C 0.83718 0.20947 0.72031 0.0
C677 C 0.81166 0.21498 0.70978 0.0
C678 C 0.85082 0.1943 0.69975 0.0
C679 C 0.83905 0.18382 0.66849 0.0
C680 C 0.81356 0.18937 0.65786 0.0
C681 C 0.80016 0.20502 0.67805 0.0
C682 C 0.85328 0.16682 0.64745 0.0
C683 C 0.84269 0.14171 0.64353 0.0
C684 C 0.87819 0.17492 0.63324 0.0
C685 C 0.88987 0.2013 0.63467 0.0
C686 C 0.8756 0.21915 0.62013 0.0
C687 C 0.88719 0.24386 0.62012 0.0
C688 C 0.91299 0.25095 0.63477 0.0
C689 C 0.92726 0.23333 0.64942 0.0
C690 C 0.91583 0.20857 0.64926 0.0
C691 C 0.90448 0.08318 0.55278 0.0
C692 C 0.93212 0.08546 0.56155 0.0
C693 C 0.88796 0.09816 0.5695 0.0
C694 C 0.89864 0.11537 0.59582 0.0
C695 C 0.92612 0.11695 0.60505 0.0
C696 C 0.94255 0.1024 0.58812 0.0
C697 C 0.88198 0.13254 0.61316 0.0
C698 C 0.89209 0.15783 0.6164 0.0
C699 C 0.85679 0.12446 0.62704 0.0
C700 C 0.84537 0.09802 0.62664 0.0
C701 C 0.86007 0.08047 0.64124 0.0
C702 C 0.84916 0.05556 0.64079 0.0
C703 C 0.82347 0.04801 0.62608 0.0
C704 C 0.80861 0.06537 0.61187 0.0
C705 C 0.81944 0.0903 0.61221 0.0
H706 H 0.81505 0.02872 0.62577 0.0
H707 H 0.92202 0.27005 0.63456 0.0
H708 H 0.80184 0.84142 0.7114 0.0
H709 H 0.83272 0.87263 0.68371 0.0
H710 H 0.88084 0.81683 0.65486 0.0
H711 H 0.84972 0.78538 0.68186 0.0
H712 H 0.9111 0.86096 0.68579 0.0
H713 H 0.84295 0.83798 0.5953 0.0
H714 H 0.79648 0.83179 0.5708 0.0
H715 H 0.79045 0.90837 0.59017 0.0
H716 H 0.83679 0.91495 0.61525 0.0
H717 H 1.00167 0.92369 0.57747 0.0
H718 H 0.96699 0.89518 0.60206 0.0
H719 H 0.91346 0.95035 0.59824 0.0
H720 H 0.94819 0.97877 0.57107 0.0
H721 H 0.88421 0.90879 0.58683 0.0
H722 H 0.9497 0.9337 0.6765 0.0
H723 H 0.99474 0.9421 0.7052 0.0
H724 H 1.00413 0.86553 0.6939 0.0
H725 H 0.95927 0.85672 0.66474 0.0
C726 C 0.81895 0.83569 0.69913 0.0
C727 C 0.82314 0.8107 0.69904 0.0
C728 C 0.8366 0.85364 0.68311 0.0
C729 C 0.85925 0.84726 0.66694 0.0
C730 C 0.8636 0.82237 0.66704 0.0
C731 C 0.84567 0.80432 0.68248 0.0
C732 C 0.87865 0.86651 0.65059 0.0
C733 C 0.90527 0.87117 0.66387 0.0
C734 C 0.87099 0.88079 0.62288 0.0
C735 C 0.84325 0.8769 0.60748 0.0
C736 C 0.83165 0.85346 0.59459 0.0
C737 C 0.80534 0.84989 0.58055 0.0
C738 C 0.79049 0.86966 0.57903 0.0
C739 C 0.80196 0.89307 0.59142 0.0
C740 C 0.82826 0.89673 0.60552 0.0
C741 C 0.98257 0.92994 0.58189 0.0
C742 C 0.97807 0.95386 0.57279 0.0
C743 C 0.96262 0.91352 0.59634 0.0
C744 C 0.93756 0.92057 0.60361 0.0
C745 C 0.93259 0.94427 0.59352 0.0
C746 C 0.95252 0.96064 0.57803 0.0
C747 C 0.91706 0.90304 0.62162 0.0
C748 C 0.89016 0.89871 0.6088 0.0
C749 C 0.92427 0.88943 0.65043 0.0
C750 C 0.9512 0.89459 0.66819 0.0
C751 C 0.96143 0.91868 0.67997 0.0
C752 C 0.98692 0.92351 0.69633 0.0
C753 C 1.00231 0.90437 0.7013 0.0
C754 C 0.9922 0.88034 0.69001 0.0
C755 C 0.96672 0.87541 0.6736 0.0
H756 H 0.02205 0.90815 0.71396 0.0
H757 H 0.77012 0.86685 0.56817 0.0
H758 H 0.26043 0.19038 0.11968 0.0
H759 H 0.27879 0.16196 0.08046 0.0
H760 H 0.32596 0.13785 0.16502 0.0
H761 H 0.30883 0.16716 0.2036 0.0
H762 H 0.35647 0.15687 0.11892 0.0
H763 H 0.27674 0.10028 0.1203 0.0
H764 H 0.22843 0.08504 0.11451 0.0
H765 H 0.22826 0.09879 0.00672 0.0
H766 H 0.2765 0.11433 0.0119 0.0
H767 H 0.39091 0.04724 0.01724 0.0
H768 H 0.35448 0.06696 0.03991 0.0
H769 H 0.39554 0.13827 0.0147 0.0
H770 H 0.43243 0.11878 0.9933 0.0
H771 H 0.31878 0.09576 0.02758 0.0
H772 H 0.39559 0.17828 0.07752 0.0
H773 H 0.44433 0.1884 0.09042 0.0
H774 H 0.4496 0.11227 0.10998 0.0
H775 H 0.40086 0.10179 0.09759 0.0
C776 C 0.27419 0.17848 0.12985 0.0
C777 C 0.2838 0.18107 0.16421 0.0
C778 C 0.2845 0.1622 0.10755 0.0
C779 C 0.30393 0.14807 0.11985 0.0
C780 C 0.31121 0.14886 0.15504 0.0
C781 C 0.30152 0.16556 0.177 0.0
C782 C 0.32032 0.13616 0.09585 0.0
C783 C 0.3481 0.14341 0.09909 0.0
C784 C 0.30936 0.1187 0.06992 0.0
C785 C 0.28023 0.10923 0.06668 0.0
C786 C 0.26637 0.10049 0.09545 0.0
C787 C 0.23897 0.09163 0.09225 0.0
C788 C 0.22522 0.09114 0.06033 0.0
C789 C 0.23888 0.09934 0.0315 0.0
C790 C 0.26627 0.10822 0.03457 0.0
C791 C 0.39189 0.06709 0.01596 0.0
C792 C 0.41481 0.08163 0.00471 0.0
C793 C 0.37095 0.07831 0.02861 0.0
C794 C 0.37265 0.10411 0.02974 0.0
C795 C 0.39414 0.11836 0.01476 0.0
C796 C 0.41527 0.10723 0.00275 0.0
C797 C 0.35472 0.11607 0.05155 0.0
C798 C 0.32682 0.10921 0.04754 0.0
C799 C 0.36545 0.13305 0.07814 0.0
C800 C 0.39469 0.13924 0.08625 0.0
C801 C 0.40717 0.16374 0.08469 0.0
C802 C 0.43478 0.16953 0.09189 0.0
C803 C 0.45006 0.15098 0.10089 0.0
C804 C 0.43775 0.12661 0.1029 0.0
C805 C 0.41014 0.12074 0.0958 0.0
H806 H 0.47144 0.15549 0.10639 0.0
H807 H 0.20402 0.08426 0.0579 0.0
H808 H 0.864 0.28534 0.15803 0.0
H809 H 0.89529 0.3197 0.13802 0.0
H810 H 0.82985 0.36214 0.12193 0.0
H811 H 0.79853 0.32777 0.14121 0.0
H812 H 0.86609 0.37263 0.07521 0.0
H813 H 0.86473 0.36663 0.19523 0.0
H814 H 0.86725 0.34782 0.25125 0.0
H815 H 0.94982 0.33957 0.23826 0.0
H816 H 0.94765 0.35823 0.18145 0.0
H817 H 0.95418 0.48538 0.07215 0.0
H818 H 0.91759 0.45561 0.09174 0.0
H819 H 0.9747 0.40665 0.12024 0.0
H820 H 1.01114 0.43679 0.10306 0.0
H821 H 0.93838 0.40222 0.16282 0.0
H822 H 0.93513 0.40817 0.03644 0.0
H823 H 0.92796 0.42975 0.98292 0.0
H824 H 0.84922 0.4407 0.0115 0.0
H825 H 0.85609 0.41997 0.06595 0.0
C826 C 0.85623 0.30171 0.14918 0.0
C827 C 0.829 0.30411 0.15152 0.0
C828 C 0.8741 0.32136 0.13799 0.0
C829 C 0.86493 0.34365 0.12933 0.0
C830 C 0.83735 0.34517 0.12871 0.0
C831 C 0.8195 0.32553 0.13977 0.0
C832 C 0.88417 0.36611 0.12446 0.0
C833 C 0.88188 0.3792 0.09437 0.0
C834 C 0.90436 0.3749 0.14983 0.0
C835 C 0.9059 0.36353 0.18385 0.0
C836 C 0.88334 0.36048 0.20402 0.0
C837 C 0.88471 0.3498 0.23599 0.0
C838 C 0.90863 0.34223 0.24837 0.0
C839 C 0.93127 0.34539 0.22865 0.0
C840 C 0.92998 0.35604 0.19652 0.0
C841 C 0.9589 0.46855 0.08357 0.0
C842 C 0.98551 0.46337 0.0859 0.0
C843 C 0.93796 0.4514 0.09431 0.0
C844 C 0.94323 0.42844 0.10629 0.0
C845 C 0.96999 0.42409 0.11082 0.0
C846 C 0.99091 0.44146 0.10108 0.0
C847 C 0.92134 0.4082 0.11262 0.0
C848 C 0.92283 0.3956 0.14339 0.0
C849 C 0.90009 0.40018 0.08809 0.0
C850 C 0.89627 0.41279 0.05545 0.0
C851 C 0.91637 0.41535 0.03147 0.0
C852 C 0.91236 0.4274 1.00094 0.0
C853 C 0.88821 0.4365 0.99367 0.0
C854 C 0.86796 0.43368 0.01712 0.0
C855 C 0.87192 0.42188 0.0479 0.0
H856 H 0.88522 0.44573 0.96988 0.0
H857 H 0.90966 0.33404 0.27326 0.0
H858 H 0.76401 0.85005 0.19486 0.0
H859 H 0.74568 0.88348 0.16503 0.0
H860 H 0.67371 0.83381 0.13602 0.0
H861 H 0.6917 0.80049 0.16615 0.0
H862 H 0.69769 0.86482 0.08212 0.0
H863 H 0.67068 0.86871 0.20129 0.0
H864 H 0.68161 0.87245 0.26361 0.0
H865 H 0.7304 0.94195 0.25042 0.0
H866 H 0.71999 0.93847 0.18793 0.0
H867 H 0.58574 0.92438 0.05007 0.0
H868 H 0.62153 0.90028 0.0649 0.0
H869 H 0.67042 0.96592 0.10726 0.0
H870 H 0.63428 0.9901 0.09326 0.0
H871 H 0.66842 0.9325 0.15168 0.0
H872 H 0.6893 0.93375 0.03558 0.0
H873 H 0.68661 0.93007 0.9727 0.0
H874 H 0.65565 0.85319 0.97721 0.0
H875 H 0.65771 0.85649 0.04038 0.0
C876 C 0.74436 0.84632 0.1819 0.0
C877 C 0.7291 0.8229 0.18277 0.0
C878 C 0.734 0.86532 0.16497 0.0
C879 C 0.70845 0.86092 0.14854 0.0
C880 C 0.69354 0.83736 0.14857 0.0
C881 C 0.70372 0.81847 0.16584 0.0
C882 C 0.69645 0.88104 0.13256 0.0
C883 C 0.69106 0.87964 0.09709 0.0
C884 C 0.68923 0.90082 0.1523 0.0
C885 C 0.69484 0.90318 0.18993 0.0
C886 C 0.68388 0.8847 0.21166 0.0
C887 C 0.68996 0.88678 0.247 0.0
C888 C 0.70684 0.90733 0.26091 0.0
C889 C 0.71743 0.92599 0.23957 0.0
C890 C 0.71142 0.92399 0.20421 0.0
C891 C 0.60423 0.93376 0.06215 0.0
C892 C 0.60705 0.95904 0.07107 0.0
C893 C 0.62483 0.92001 0.07025 0.0
C894 C 0.64876 0.93133 0.08698 0.0
C895 C 0.65211 0.95682 0.09439 0.0
C896 C 0.6314 0.97057 0.08654 0.0
C897 C 0.66842 0.91594 0.10081 0.0
C898 C 0.67534 0.91813 0.13614 0.0
C899 C 0.67736 0.89703 0.08076 0.0
C900 C 0.67364 0.89541 0.0428 0.0
C901 C 0.6815 0.91614 0.02322 0.0
C902 C 0.68025 0.91406 0.98745 0.0
C903 C 0.67122 0.89132 0.97089 0.0
C904 C 0.66282 0.87074 0.99008 0.0
C905 C 0.66403 0.87272 0.02588 0.0
H906 H 0.6707 0.88957 0.94321 0.0
H907 H 0.71169 0.90882 0.28823 0.0
H908 H 0.24154 0.70382 0.15742 0.0
H909 H 0.20942 0.67513 0.12199 0.0
H910 H 0.14482 0.69511 0.18143 0.0
H911 H 0.17715 0.72241 0.21813 0.0
H912 H 0.13826 0.64928 0.17416 0.0
H913 H 0.15905 0.71458 0.09534 0.0
H914 H 0.18977 0.7434 0.06298 0.0
H915 H 0.21634 0.68236 0.0094 0.0
H916 H 0.18619 0.65316 0.04196 0.0
H917 H 0.04371 0.608 0.01697 0.0
H918 H 0.07895 0.63803 0.04453 0.0
H919 H 0.11096 0.57954 0.09783 0.0
H920 H 0.07563 0.54933 0.07063 0.0
H921 H 0.13323 0.64523 0.04691 0.0
H922 H 0.12907 0.60028 0.18007 0.0
H923 H 0.09675 0.57529 0.21527 0.0
H924 H 0.03134 0.60218 0.16055 0.0
H925 H 0.06327 0.62757 0.12538 0.0
C926 C 0.22041 0.7022 0.16254 0.0
C927 C 0.21168 0.71526 0.19032 0.0
C928 C 0.20205 0.6859 0.14224 0.0
C929 C 0.17456 0.68311 0.1487 0.0
C930 C 0.16589 0.6968 0.17597 0.0
C931 C 0.18431 0.71247 0.19684 0.0
C932 C 0.15486 0.66511 0.12839 0.0
C933 C 0.13724 0.64849 0.14633 0.0
C934 C 0.15326 0.66409 0.09201 0.0
C935 C 0.1706 0.68167 0.07143 0.0
C936 C 0.17157 0.7073 0.07682 0.0
C937 C 0.18894 0.7237 0.05851 0.0
C938 C 0.20518 0.71471 0.03438 0.0
C939 C 0.2039 0.6893 0.02828 0.0
C940 C 0.18666 0.67281 0.04664 0.0
C941 C 0.05833 0.60146 0.03438 0.0
C942 C 0.05662 0.57629 0.04197 0.0
C943 C 0.07856 0.61865 0.04996 0.0
C944 C 0.09733 0.61104 0.07354 0.0
C945 C 0.09641 0.58582 0.08004 0.0
C946 C 0.07622 0.56859 0.06443 0.0
C947 C 0.11685 0.62961 0.09286 0.0
C948 C 0.13441 0.64616 0.07474 0.0
C949 C 0.11798 0.63109 0.12913 0.0
C950 C 0.09857 0.61557 0.14979 0.0
C951 C 0.10779 0.60084 0.17555 0.0
C952 C 0.08954 0.58663 0.19552 0.0
C953 C 0.06201 0.58707 0.19006 0.0
C954 C 0.05267 0.60175 0.16464 0.0
C955 C 0.07083 0.61602 0.14463 0.0
H956 H 0.04793 0.5761 0.20559 0.0
H957 H 0.21858 0.72744 0.02019 0.0
H958 H 0.29752 0.84638 0.80631 0.0
H959 H 0.33116 0.87416 0.84102 0.0
H960 H 0.35583 0.81138 0.89264 0.0
H961 H 0.3206 0.78413 0.86014 0.0
H962 H 0.36129 0.84527 0.93569 0.0
H963 H 0.38738 0.84146 0.82067 0.0
H964 H 0.38183 0.84431 0.75802 0.0
H965 H 0.37889 0.92217 0.76903 0.0
H966 H 0.3832 0.91958 0.83198 0.0
H967 H 0.49263 0.91056 0.98837 0.0
H968 H 0.45502 0.88121 0.96365 0.0
H969 H 0.41822 0.9417 0.92266 0.0
H970 H 0.45557 0.97079 0.94658 0.0
H971 H 0.42076 0.90742 0.87422 0.0
H972 H 0.39203 0.9055 0.99456 0.0
H973 H 0.39488 0.89616 0.0561 0.0
H974 H 0.40984 0.82264 0.03071 0.0
H975 H 0.40677 0.83142 0.96914 0.0
C976 C 0.30976 0.83877 0.82575 0.0
C977 C 0.30653 0.81331 0.83094 0.0
C978 C 0.32922 0.85453 0.84524 0.0
C979 C 0.34673 0.84488 0.86885 0.0
C980 C 0.34273 0.81941 0.87467 0.0
C981 C 0.32261 0.80381 0.85614 0.0
C982 C 0.36972 0.86103 0.88665 0.0
C983 C 0.37444 0.85865 0.92203 0.0
C984 C 0.38717 0.87848 0.86905 0.0
C985 C 0.38535 0.88027 0.83112 0.0
C986 C 0.38538 0.85917 0.80978 0.0
C987 C 0.38241 0.86074 0.77418 0.0
C988 C 0.38011 0.88344 0.75951 0.0
C989 C 0.38067 0.9046 0.78044 0.0
C990 C 0.38326 0.90307 0.8161 0.0
C991 C 0.47631 0.91755 0.97449 0.0
C992 C 0.47724 0.94298 0.9692 0.0
C993 C 0.45477 0.90078 0.96045 0.0
C994 C 0.43371 0.90923 0.94126 0.0
C995 C 0.43426 0.93468 0.93713 0.0
C996 C 0.45571 0.95132 0.95086 0.0
C997 C 0.41191 0.89189 0.92329 0.0
C998 C 0.40755 0.894 0.88773 0.0
C999 C 0.39549 0.87351 0.94041 0.0
C1000 C 0.39937 0.86917 0.97738 0.0
C1001 C 0.39626 0.88747 1.00218 0.0
C1002 C 0.39778 0.88222 0.03703 0.0
C1003 C 0.40259 0.85883 0.0472 0.0
C1004 C 0.40612 0.84072 0.02272 0.0
C1005 C 0.40441 0.84579 0.98791 0.0
H1006 H 0.40334 0.85451 0.07396 0.0
H1007 H 0.37795 0.88467 0.73194 0.0
H1008 H 0.19778 0.29021 0.77512 0.0
H1009 H 0.17023 0.31879 0.80095 0.0
H1010 H 0.23852 0.35119 0.86523 0.0
H1011 H 0.26541 0.32173 0.84078 0.0
H1012 H 0.19986 0.34766 0.90291 0.0
H1013 H 0.20944 0.38009 0.79115 0.0
H1014 H 0.20773 0.37906 0.72789 0.0
H1015 H 0.12262 0.35649 0.72579 0.0
H1016 H 0.12388 0.35702 0.78907 0.0
H1017 H 0.13607 0.45161 0.9583 0.0
H1018 H 0.16634 0.42739 0.92838 0.0
H1019 H 0.09804 0.37964 0.88322 0.0
H1020 H 0.06794 0.40333 0.91321 0.0
H1021 H 0.13787 0.39324 0.8357 0.0
H1022 H 0.1309 0.36197 0.95035 0.0
H1023 H 0.1348 0.36664 0.01334 0.0
H1024 H 0.21924 0.39116 0.00919 0.0
H1025 H 0.21568 0.38735 0.94599 0.0
C1026 C 0.20693 0.30366 0.79445 0.0
C1027 C 0.2338 0.30374 0.80585 0.0
C1028 C 0.19118 0.32015 0.80924 0.0
C1029 C 0.20212 0.33766 0.83506 0.0
C1030 C 0.22925 0.33799 0.84567 0.0
C1031 C 0.24475 0.32119 0.83147 0.0
C1032 C 0.18534 0.35502 0.85188 0.0
C1033 C 0.18671 0.35788 0.88795 0.0
C1034 C 0.16771 0.36842 0.83292 0.0
C1035 C 0.1668 0.36837 0.79487 0.0
C1036 C 0.19038 0.37477 0.7772 0.0
C1037 C 0.1895 0.37428 0.74134 0.0
C1038 C 0.1651 0.36765 0.72284 0.0
C1039 C 0.14152 0.36158 0.74016 0.0
C1040 C 0.1423 0.36199 0.77603 0.0
C1041 C 0.12753 0.43605 0.94183 0.0
C1042 C 0.09952 0.42943 0.93834 0.0
C1043 C 0.14486 0.42216 0.92477 0.0
C1044 C 0.13455 0.40155 0.90347 0.0
C1045 C 0.10659 0.3954 0.89933 0.0
C1046 C 0.08937 0.40896 0.91674 0.0
C1047 C 0.15259 0.38575 0.88638 0.0
C1048 C 0.15131 0.38313 0.85039 0.0
C1049 C 0.17072 0.37299 0.90533 0.0
C1050 C 0.17296 0.37466 0.94338 0.0
C1051 C 0.15027 0.36855 0.96283 0.0
C1052 C 0.15242 0.37104 0.99861 0.0
C1053 C 0.17726 0.37922 0.01529 0.0
C1054 C 0.2 0.38487 0.99623 0.0
C1055 C 0.19792 0.38259 0.96042 0.0
H1056 H 0.17894 0.38116 0.04297 0.0
H1057 H 0.16446 0.36726 0.69507 0.0
H1058 H 0.69858 0.21322 0.8646 0.0
H1059 H 0.66938 0.17889 0.88901 0.0
H1060 H 0.71445 0.12687 0.84128 0.0
H1061 H 0.74392 0.16076 0.81777 0.0
H1062 H 0.65685 0.12479 0.82097 0.0
H1063 H 0.71959 0.1248 0.9136 0.0
H1064 H 0.74949 0.13943 0.96353 0.0
H1065 H 0.68173 0.15234 0.02075 0.0
H1066 H 0.65128 0.13903 0.97045 0.0
H1067 H 0.5844 0.02664 0.94388 0.0
H1068 H 0.6245 0.05228 0.92527 0.0
H1069 H 0.57446 0.09439 0.86421 0.0
H1070 H 0.5346 0.06798 0.88126 0.0
H1071 H 0.63939 0.09763 0.93909 0.0
H1072 H 0.60659 0.12275 0.80087 0.0
H1073 H 0.58028 0.10313 0.75034 0.0
H1074 H 0.59496 0.03171 0.78342 0.0
H1075 H 0.62169 0.05091 0.8339 0.0
C1076 C 0.70269 0.19448 0.8603 0.0
C1077 C 0.72325 0.18953 0.83913 0.0
C1078 C 0.68611 0.17497 0.87425 0.0
C1079 C 0.68991 0.15049 0.86682 0.0
C1080 C 0.71139 0.14569 0.84735 0.0
C1081 C 0.72813 0.16507 0.83392 0.0
C1082 C 0.66922 0.12996 0.87444 0.0
C1083 C 0.65294 0.11879 0.84679 0.0
C1084 C 0.66491 0.12187 0.90804 0.0
C1085 C 0.68314 0.13143 0.93779 0.0
C1086 C 0.71102 0.13146 0.93639 0.0
C1087 C 0.72808 0.13946 0.96484 0.0
C1088 C 0.71749 0.14711 0.99513 0.0
C1089 C 0.68983 0.14679 0.99703 0.0
C1090 C 0.67268 0.1391 0.9685 0.0
C1091 C 0.58212 0.04094 0.92568 0.0
C1092 C 0.55654 0.04528 0.91373 0.0
C1093 C 0.60497 0.05567 0.91528 0.0
C1094 C 0.60253 0.07522 0.89324 0.0
C1095 C 0.57695 0.07907 0.88055 0.0
C1096 C 0.55415 0.06397 0.89029 0.0
C1097 C 0.62645 0.09275 0.88564 0.0
C1098 C 0.64327 0.10352 0.91324 0.0
C1099 C 0.6318 0.10005 0.85184 0.0
C1100 C 0.61598 0.08829 0.82134 0.0
C1101 C 0.60432 0.10287 0.79728 0.0
C1102 C 0.58931 0.09182 0.76866 0.0
C1103 C 0.58589 0.06619 0.76372 0.0
C1104 C 0.59755 0.05156 0.78734 0.0
C1105 C 0.61261 0.06252 0.81599 0.0
H1106 H 0.57424 0.05767 0.74156 0.0
H1107 H 0.73071 0.15308 0.01724 0.0
H1108 H 0.80133 0.70046 0.77318 0.0
H1109 H 0.8258 0.66907 0.79961 0.0
H1110 H 0.86014 0.7224 0.87791 0.0
H1111 H 0.83534 0.7534 0.85222 0.0
H1112 H 0.89801 0.69369 0.85212 0.0
H1113 H 0.8102 0.68267 0.89747 0.0
H1114 H 0.76074 0.67548 0.89456 0.0
H1115 H 0.76183 0.60589 0.84177 0.0
H1116 H 0.81135 0.61286 0.84384 0.0
H1117 H 0.94994 0.61331 0.9715 0.0
H1118 H 0.92573 0.64471 0.94539 0.0
H1119 H 0.87831 0.58837 0.88113 0.0
H1120 H 0.90164 0.55704 0.90778 0.0
H1121 H 0.847 0.61896 0.89898 0.0
H1122 H 0.93445 0.62957 0.85266 0.0
H1123 H 0.98393 0.63638 0.85514 0.0
H1124 H 0.98374 0.70619 0.90777 0.0
H1125 H 0.93423 0.69963 0.906 0.0
C1126 C 0.81434 0.70552 0.79578 0.0
C1127 C 0.81641 0.72946 0.81055 0.0
C1128 C 0.82824 0.68754 0.81101 0.0
C1129 C 0.84484 0.69325 0.84098 0.0
C1130 C 0.84759 0.71743 0.85487 0.0
C1131 C 0.83335 0.73517 0.84012 0.0
C1132 C 0.85867 0.67404 0.85867 0.0
C1133 C 0.88683 0.67744 0.8626 0.0
C1134 C 0.84427 0.65257 0.87201 0.0
C1135 C 0.8145 0.64841 0.87049 0.0
C1136 C 0.7999 0.66595 0.8849 0.0
C1137 C 0.77186 0.6619 0.88347 0.0
C1138 C 0.75816 0.64025 0.86798 0.0
C1139 C 0.77248 0.62266 0.85376 0.0
C1140 C 0.80054 0.62664 0.85505 0.0
C1141 C 0.93423 0.60758 0.95199 0.0
C1142 C 0.928 0.58251 0.94176 0.0
C1143 C 0.92045 0.62564 0.93679 0.0
C1144 C 0.90035 0.61921 0.91052 0.0
C1145 C 0.89364 0.59409 0.90112 0.0
C1146 C 0.90716 0.57607 0.91649 0.0
C1147 C 0.88654 0.63842 0.89236 0.0
C1148 C 0.85831 0.63508 0.88838 0.0
C1149 C 0.90091 0.65988 0.87872 0.0
C1150 C 0.93065 0.664 0.8795 0.0
C1151 C 0.94497 0.64631 0.86494 0.0
C1152 C 0.97301 0.65013 0.8662 0.0
C1153 C 0.98697 0.67168 0.88168 0.0
C1154 C 0.9729 0.68949 0.89583 0.0
C1155 C 0.94485 0.68574 0.89468 0.0
H1156 H 1.00868 0.67459 0.88266 0.0
H1157 H 0.73646 0.63705 0.86717 0.0
H1158 H 0.20323 0.29912 0.2336 0.0
H1159 H 0.1752 0.32839 0.20845 0.0
H1160 H 0.21501 0.32446 0.11335 0.0
H1161 H 0.24271 0.29559 0.13807 0.0
H1162 H 0.18576 0.37424 0.1803 0.0
H1163 H 0.17082 0.32623 0.04575 0.0
H1164 H 0.16834 0.28449 0.01947 0.0
H1165 H 0.14233 0.25262 0.11382 0.0
H1166 H 0.14426 0.29417 0.14051 0.0
H1167 H 0.14032 0.45769 0.06352 0.0
H1168 H 0.1652 0.42681 0.08921 0.0
H1169 H 0.09372 0.37341 0.08091 0.0
H1170 H 0.06911 0.40399 0.05348 0.0
H1171 H 0.13371 0.35021 0.07103 0.0
H1172 H 0.11743 0.41014 0.15517 0.0
H1173 H 0.11898 0.45253 0.1784 0.0
H1174 H 0.20494 0.46002 0.1884 0.0
H1175 H 0.20405 0.41821 0.16301 0.0
C1176 C 0.20607 0.30464 0.20744 0.0
C1177 C 0.22512 0.2948 0.18784 0.0
C1178 C 0.19002 0.32139 0.19302 0.0
C1179 C 0.19254 0.32842 0.15864 0.0
C1180 C 0.21214 0.31907 0.13959 0.0
C1181 C 0.22809 0.30254 0.15391 0.0
C1182 C 0.17476 0.34522 0.14214 0.0
C1183 C 0.17441 0.369 0.15639 0.0
C1184 C 0.15949 0.33842 0.11112 0.0
C1185 C 0.15792 0.31333 0.09521 0.0
C1186 C 0.16445 0.31032 0.06084 0.0
C1187 C 0.16316 0.28669 0.04588 0.0
C1188 C 0.15526 0.26591 0.06499 0.0
C1189 C 0.14854 0.26873 0.09908 0.0
C1190 C 0.14976 0.29232 0.11415 0.0
C1191 C 0.12995 0.43926 0.06673 0.0
C1192 C 0.10258 0.43346 0.0567 0.0
C1193 C 0.1442 0.42159 0.08175 0.0
C1194 C 0.13128 0.39781 0.08833 0.0
C1195 C 0.10426 0.3916 0.07665 0.0
C1196 C 0.09014 0.40915 0.06088 0.0
C1197 C 0.14564 0.3798 0.1082 0.0
C1198 C 0.14515 0.35565 0.09479 0.0
C1199 C 0.16013 0.38632 0.13999 0.0
C1200 C 0.16066 0.41106 0.15677 0.0
C1201 C 0.1367 0.42088 0.162 0.0
C1202 C 0.13748 0.44489 0.17536 0.0
C1203 C 0.16205 0.45896 0.18498 0.0
C1204 C 0.18592 0.44911 0.18093 0.0
C1205 C 0.1853 0.42531 0.16677 0.0
H1206 H 0.16257 0.47749 0.19561 0.0
H1207 H 0.1543 0.24763 0.05337 0.0
H1208 H 0.16994 0.72812 0.85661 0.0
H1209 H 0.13791 0.6944 0.87559 0.0
H1210 H 0.20225 0.65078 0.89369 0.0
H1211 H 0.23407 0.68414 0.87222 0.0
H1212 H 0.16692 0.62586 0.85533 0.0
H1213 H 0.16097 0.6721 0.96003 0.0
H1214 H 0.15495 0.70789 0.9971 0.0
H1215 H 0.07624 0.70897 0.95122 0.0
H1216 H 0.08183 0.67354 0.9133 0.0
H1217 H 0.07649 0.53223 0.93574 0.0
H1218 H 0.11277 0.56253 0.91718 0.0
H1219 H 0.05478 0.60429 0.87074 0.0
H1220 H 0.01835 0.57411 0.88893 0.0
H1221 H 0.08801 0.62849 0.92611 0.0
H1222 H 0.09551 0.58317 0.82036 0.0
H1223 H 0.10117 0.54654 0.7848 0.0
H1224 H 0.17749 0.54285 0.83647 0.0
H1225 H 0.17214 0.5793 0.87265 0.0
C1226 C 0.17732 0.71165 0.86579 0.0
C1227 C 0.20427 0.70847 0.86288 0.0
C1228 C 0.15901 0.69236 0.87679 0.0
C1229 C 0.16762 0.66998 0.8862 0.0
C1230 C 0.1951 0.66779 0.88631 0.0
C1231 C 0.21327 0.68682 0.8743 0.0
C1232 C 0.14769 0.64792 0.89087 0.0
C1233 C 0.15 0.62634 0.87149 0.0
C1234 C 0.12512 0.64867 0.91105 0.0
C1235 C 0.12192 0.67023 0.9336 0.0
C1236 C 0.14246 0.68009 0.9576 0.0
C1237 C 0.13911 0.70028 0.97884 0.0
C1238 C 0.11529 0.71067 0.97657 0.0
C1239 C 0.09471 0.70091 0.95298 0.0
C1240 C 0.09794 0.68077 0.9316 0.0
C1241 C 0.07146 0.54739 0.92051 0.0
C1242 C 0.04458 0.55107 0.91438 0.0
C1243 C 0.09222 0.56463 0.90988 0.0
C1244 C 0.08629 0.58568 0.89305 0.0
C1245 C 0.05959 0.58811 0.88386 0.0
C1246 C 0.03883 0.57078 0.89417 0.0
C1247 C 0.10732 0.60692 0.89042 0.0
C1248 C 0.10516 0.62818 0.91029 0.0
C1249 C 0.13011 0.60579 0.87107 0.0
C1250 C 0.13326 0.58378 0.8495 0.0
C1251 C 0.11337 0.57439 0.8244 0.0
C1252 C 0.11656 0.5537 0.80406 0.0
C1253 C 0.13963 0.54232 0.80846 0.0
C1254 C 0.1596 0.55165 0.83314 0.0
C1255 C 0.15651 0.57234 0.85354 0.0
H1256 H 0.14207 0.5263 0.79268 0.0
H1257 H 0.11278 0.72628 0.9931 0.0
H1258 H 0.25226 0.17076 0.84237 0.0
H1259 H 0.26688 0.13608 0.87359 0.0
H1260 H 0.34432 0.17907 0.89599 0.0
H1261 H 0.33017 0.21319 0.86395 0.0
H1262 H 0.31156 0.11765 0.8453 0.0
H1263 H 0.36991 0.15847 0.97219 0.0
H1264 H 0.36245 0.18287 0.02387 0.0
H1265 H 0.27728 0.16656 0.0044 0.0
H1266 H 0.28418 0.14131 0.95325 0.0
H1267 H 0.44668 0.09706 0.92457 0.0
H1268 H 0.40779 0.11917 0.91893 0.0
H1269 H 0.35629 0.05036 0.89745 0.0
H1270 H 0.39511 0.02804 0.90313 0.0
H1271 H 0.36157 0.11395 0.95667 0.0
H1272 H 0.30691 0.06452 0.83811 0.0
H1273 H 0.31615 0.04058 0.78656 0.0
H1274 H 0.39622 0.07946 0.78765 0.0
H1275 H 0.38733 0.10376 0.83892 0.0
C1276 C 0.2721 0.17294 0.85488 0.0
C1277 C 0.29034 0.19428 0.8505 0.0
C1278 C 0.28033 0.15326 0.87279 0.0
C1279 C 0.30655 0.15517 0.88725 0.0
C1280 C 0.32386 0.17741 0.88546 0.0
C1281 C 0.3159 0.19676 0.86687 0.0
C1282 C 0.31828 0.13296 0.89687 0.0
C1283 C 0.32176 0.11626 0.87011 0.0
C1284 C 0.33194 0.13162 0.929 0.0
C1285 C 0.32761 0.14782 0.95884 0.0
C1286 C 0.34957 0.15986 0.97906 0.0
C1287 C 0.34544 0.17389 0.00828 0.0
C1288 C 0.3194 0.17626 0.01742 0.0
C1289 C 0.29745 0.16477 0.99721 0.0
C1290 C 0.30147 0.15058 0.96808 0.0
C1291 C 0.42712 0.08666 0.91839 0.0
C1292 C 0.42391 0.06086 0.9143 0.0
C1293 C 0.40493 0.09926 0.91545 0.0
C1294 C 0.37925 0.08631 0.90807 0.0
C1295 C 0.376 0.06061 0.90321 0.0
C1296 C 0.39821 0.04796 0.90621 0.0
C1297 C 0.35615 0.1001 0.90458 0.0
C1298 C 0.35059 0.11492 0.93244 0.0
C1299 C 0.34097 0.10015 0.87334 0.0
C1300 C 0.34657 0.08562 0.84262 0.0
C1301 C 0.32648 0.0679 0.82733 0.0
C1302 C 0.33165 0.05431 0.79816 0.0
C1303 C 0.3568 0.05841 0.78395 0.0
C1304 C 0.3768 0.07619 0.7988 0.0
C1305 C 0.37173 0.08984 0.82795 0.0
H1306 H 0.36076 0.04787 0.76136 0.0
H1307 H 0.31624 0.18701 0.04016 0.0
H1308 H 0.82864 0.27731 0.84561 0.0
H1309 H 0.86212 0.30632 0.8787 0.0
H1310 H 0.84807 0.36395 0.80913 0.0
H1311 H 0.81609 0.33468 0.77509 0.0
H1312 H 0.89748 0.36614 0.81905 0.0
H1313 H 0.82492 0.35896 0.89539 0.0
H1314 H 0.79037 0.33804 0.93152 0.0
H1315 H 0.85128 0.3099 0.9934 0.0
H1316 H 0.88618 0.33033 0.95731 0.0
H1317 H 0.96054 0.4685 0.9232 0.0
H1318 H 0.92717 0.43843 0.89208 0.0
H1319 H 0.95681 0.3794 0.94687 0.0
H1320 H 0.99025 0.40923 0.97815 0.0
H1321 H 0.90058 0.37777 0.94561 0.0
H1322 H 0.9729 0.38759 0.86723 0.0
H1323 H 1.00574 0.41153 0.83168 0.0
H1324 H 0.94177 0.43845 0.77399 0.0
H1325 H 0.90856 0.41496 0.80955 0.0
C1326 C 0.83272 0.29623 0.83764 0.0
C1327 C 0.82004 0.30382 0.80782 0.0
C1328 C 0.85168 0.31283 0.85663 0.0
C1329 C 0.85745 0.33746 0.84667 0.0
C1330 C 0.84415 0.34506 0.81727 0.0
C1331 C 0.82585 0.32835 0.79784 0.0
C1332 C 0.87822 0.35514 0.86565 0.0
C1333 C 0.89782 0.36886 0.84669 0.0
C1334 C 0.87914 0.35843 0.90183 0.0
C1335 C 0.85814 0.34594 0.92337 0.0
C1336 C 0.83093 0.34812 0.91649 0.0
C1337 C 0.81128 0.33638 0.93701 0.0
C1338 C 0.81862 0.32259 0.96467 0.0
C1339 C 0.84562 0.32054 0.97191 0.0
C1340 C 0.86534 0.33219 0.95144 0.0
C1341 C 0.96001 0.44913 0.92859 0.0
C1342 C 0.97795 0.44125 0.95324 0.0
C1343 C 0.94103 0.43199 0.91071 0.0
C1344 C 0.93971 0.40677 0.91718 0.0
C1345 C 0.9576 0.39882 0.94162 0.0
C1346 C 0.97669 0.4159 0.95937 0.0
C1347 C 0.91933 0.38865 0.89886 0.0
C1348 C 0.89998 0.3749 0.91796 0.0
C1349 C 0.91825 0.38568 0.86278 0.0
C1350 C 0.93826 0.39969 0.84128 0.0
C1351 C 0.96585 0.39877 0.84716 0.0
C1352 C 0.98453 0.41224 0.82697 0.0
C1353 C 0.97586 0.42655 0.80065 0.0
C1354 C 0.94847 0.42738 0.79441 0.0
C1355 C 0.92971 0.41398 0.81456 0.0
H1356 H 0.99035 0.43696 0.78504 0.0
H1357 H 0.80338 0.31354 0.98054 0.0
H1358 H 0.76517 0.86231 0.80902 0.0
H1359 H 0.74332 0.89709 0.82926 0.0
H1360 H 0.67589 0.84581 0.85907 0.0
H1361 H 0.69698 0.81144 0.83733 0.0
H1362 H 0.65876 0.88066 0.82596 0.0
H1363 H 0.72716 0.87771 0.91855 0.0
H1364 H 0.77379 0.8801 0.94199 0.0
H1365 H 0.7924 0.95255 0.90204 0.0
H1366 H 0.74589 0.95046 0.87815 0.0
H1367 H 0.59197 0.91116 0.96119 0.0
H1368 H 0.62281 0.8977 0.92107 0.0
H1369 H 0.66099 0.97277 0.91308 0.0
H1370 H 0.6298 0.98657 0.95362 0.0
H1371 H 0.69732 0.94136 0.91705 0.0
H1372 H 0.62155 0.94672 0.84565 0.0
H1373 H 0.57386 0.94307 0.8265 0.0
H1374 H 0.56749 0.86409 0.82901 0.0
H1375 H 0.61495 0.8672 0.84876 0.0
C1376 C 0.74576 0.85864 0.82016 0.0
C1377 C 0.73261 0.8344 0.82176 0.0
C1378 C 0.73337 0.87843 0.83174 0.0
C1379 C 0.70803 0.87402 0.84574 0.0
C1380 C 0.69534 0.84966 0.84805 0.0
C1381 C 0.70741 0.83003 0.83583 0.0
C1382 C 0.6939 0.8944 0.85747 0.0
C1383 C 0.66717 0.89403 0.84573 0.0
C1384 C 0.70537 0.91262 0.8821 0.0
C1385 C 0.73327 0.91377 0.89616 0.0
C1386 C 0.74129 0.89404 0.91454 0.0
C1387 C 0.76766 0.89537 0.92796 0.0
C1388 C 0.78608 0.91642 0.92338 0.0
C1389 C 0.77814 0.93623 0.90547 0.0
C1390 C 0.75179 0.93499 0.892 0.0
C1391 C 0.60698 0.92484 0.95112 0.0
C1392 C 0.60832 0.94991 0.96023 0.0
C1393 C 0.6244 0.91718 0.92785 0.0
C1394 C 0.64353 0.9344 0.91321 0.0
C1395 C 0.646 0.95932 0.92367 0.0
C1396 C 0.62839 0.96708 0.94702 0.0
C1397 C 0.66139 0.92549 0.88821 0.0
C1398 C 0.68903 0.92851 0.89652 0.0
C1399 C 0.65065 0.90935 0.86073 0.0
C1400 C 0.62195 0.90724 0.84869 0.0
C1401 C 0.60998 0.92856 0.8423 0.0
C1402 C 0.58295 0.92658 0.83133 0.0
C1403 C 0.56766 0.90337 0.82652 0.0
C1404 C 0.57937 0.88207 0.83267 0.0
C1405 C 0.60637 0.88394 0.84369 0.0
H1406 H 0.54674 0.90188 0.81804 0.0
H1407 H 0.80648 0.91742 0.93379 0.0
H1408 H 0.80261 0.72834 0.15219 0.0
H1409 H 0.82735 0.69729 0.12839 0.0
H1410 H 0.83569 0.66682 0.22848 0.0
H1411 H 0.81068 0.69855 0.25284 0.0
H1412 H 0.88238 0.66872 0.19582 0.0
H1413 H 0.79195 0.63641 0.16655 0.0
H1414 H 0.74536 0.63613 0.14427 0.0
H1415 H 0.77325 0.65313 0.04411 0.0
H1416 H 0.82007 0.65382 0.06587 0.0
H1417 H 0.89958 0.55833 0.06632 0.0
H1418 H 0.87058 0.58111 0.10054 0.0
H1419 H 0.92989 0.64584 0.10132 0.0
H1420 H 0.95886 0.6233 0.06794 0.0
H1421 H 0.84607 0.62 0.09117 0.0
H1422 H 0.93061 0.6803 0.17391 0.0
H1423 H 0.9757 0.67694 0.19908 0.0
H1424 H 0.95677 0.59801 0.19838 0.0
H1425 H 0.91144 0.6009 0.17369 0.0
C1426 C 0.80959 0.71505 0.16934 0.0
C1427 C 0.8045 0.71596 0.2045 0.0
C1428 C 0.8237 0.69711 0.15553 0.0
C1429 C 0.83317 0.67925 0.1763 0.0
C1430 C 0.82852 0.68024 0.21171 0.0
C1431 C 0.81418 0.69834 0.22567 0.0
C1432 C 0.84819 0.66013 0.1605 0.0
C1433 C 0.87434 0.658 0.17306 0.0
C1434 C 0.83771 0.64551 0.13114 0.0
C1435 C 0.80957 0.64528 0.11792 0.0
C1436 C 0.78818 0.64027 0.13983 0.0
C1437 C 0.76171 0.64 0.12727 0.0
C1438 C 0.75635 0.64459 0.09279 0.0
C1439 C 0.77744 0.64953 0.0708 0.0
C1440 C 0.80395 0.64982 0.08323 0.0
C1441 C 0.90644 0.57742 0.07379 0.0
C1442 C 0.93176 0.5888 0.06439 0.0
C1443 C 0.88979 0.59048 0.09341 0.0
C1444 C 0.89809 0.61522 0.10433 0.0
C1445 C 0.92309 0.62668 0.09421 0.0
C1446 C 0.93967 0.6137 0.07476 0.0
C1447 C 0.88067 0.62934 0.12565 0.0
C1448 C 0.85406 0.63055 0.11409 0.0
C1449 C 0.89057 0.64272 0.1563 0.0
C1450 C 0.91767 0.64083 0.17167 0.0
C1451 C 0.93601 0.66223 0.1793 0.0
C1452 C 0.96163 0.66041 0.19345 0.0
C1453 C 0.96912 0.63727 0.20023 0.0
C1454 C 0.95097 0.61592 0.193 0.0
C1455 C 0.92532 0.61764 0.1789 0.0
H1456 H 0.98898 0.6359 0.21114 0.0
H1457 H 0.73584 0.6443 0.08309 0.0
H1458 H 0.36772 0.8034 0.20457 0.0
H1459 H 0.39725 0.83971 0.18798 0.0
H1460 H 0.33816 0.85396 0.11014 0.0
H1461 H 0.30785 0.81823 0.12809 0.0
H1462 H 0.42194 0.85677 0.13815 0.0
H1463 H 0.3366 0.91467 0.10036 0.0
H1464 H 0.29006 0.91801 0.115 0.0
H1465 H 0.30373 0.88624 0.21262 0.0
H1466 H 0.35035 0.88299 0.19873 0.0
H1467 H 0.44511 0.97295 0.04093 0.0
H1468 H 0.41166 0.94256 0.0653 0.0
H1469 H 0.46198 0.94261 0.15756 0.0
H1470 H 0.49548 0.97305 0.13368 0.0
H1471 H 0.38305 0.93508 0.1282 0.0
H1472 H 0.46947 0.88138 0.16792 0.0
H1473 H 0.51626 0.87888 0.15338 0.0
H1474 H 0.49937 0.90202 0.05136 0.0
H1475 H 0.45244 0.9042 0.06504 0.0
C1476 C 0.3612 0.81402 0.1835 0.0
C1477 C 0.33537 0.8083 0.16791 0.0
C1478 C 0.37806 0.83489 0.17416 0.0
C1479 C 0.36947 0.85023 0.14883 0.0
C1480 C 0.34474 0.84303 0.13082 0.0
C1481 C 0.32761 0.8224 0.14065 0.0
C1482 C 0.38608 0.87398 0.14197 0.0
C1483 C 0.41344 0.87391 0.13664 0.0
C1484 C 0.37504 0.89645 0.13967 0.0
C1485 C 0.34698 0.89843 0.14837 0.0
C1486 C 0.32971 0.9085 0.12501 0.0
C1487 C 0.30329 0.91035 0.13316 0.0
C1488 C 0.29392 0.90229 0.16468 0.0
C1489 C 0.31097 0.89242 0.18816 0.0
C1490 C 0.33741 0.89056 0.18015 0.0
C1491 C 0.44869 0.96717 0.06687 0.0
C1492 C 0.47322 0.97502 0.08509 0.0
C1493 C 0.42951 0.94981 0.08075 0.0
C1494 C 0.43471 0.94009 0.11287 0.0
C1495 C 0.45785 0.94977 0.13253 0.0
C1496 C 0.47698 0.96712 0.11877 0.0
C1497 C 0.41832 0.91737 0.12341 0.0
C1498 C 0.39131 0.91782 0.13003 0.0
C1499 C 0.42952 0.89515 0.12657 0.0
C1500 C 0.45754 0.89327 0.11771 0.0
C1501 C 0.47574 0.88583 0.14235 0.0
C1502 C 0.50227 0.88446 0.13424 0.0
C1503 C 0.5108 0.89038 0.1015 0.0
C1504 C 0.49276 0.89752 0.07672 0.0
C1505 C 0.46619 0.89883 0.08466 0.0
H1506 H 0.53137 0.88939 0.09531 0.0
H1507 H 0.27345 0.90372 0.17092 0.0
H1508 H 0.68821 0.19565 0.2258 0.0
H1509 H 0.65427 0.16987 0.18982 0.0
H1510 H 0.70323 0.18237 0.10235 0.0
H1511 H 0.73715 0.20903 0.13816 0.0
H1512 H 0.65141 0.18634 0.0855 0.0
H1513 H 0.69715 0.12578 0.14511 0.0
H1514 H 0.71518 0.10792 0.19721 0.0
H1515 H 0.63665 0.09797 0.23765 0.0
H1516 H 0.6182 0.11569 0.18588 0.0
H1517 H 0.56534 0.09231 0.98463 0.0
H1518 H 0.60314 0.11957 0.01322 0.0
H1519 H 0.56812 0.10547 0.11108 0.0
H1520 H 0.53159 0.07728 0.08277 0.0
H1521 H 0.61668 0.10152 0.11881 0.0
H1522 H 0.56951 0.1614 0.06431 0.0
H1523 H 0.54873 0.1814 0.0161 0.0
H1524 H 0.6252 0.19642 0.97085 0.0
H1525 H 0.64637 0.17645 0.01869 0.0
C1526 C 0.69201 0.19277 0.19901 0.0
C1527 C 0.7156 0.20432 0.185 0.0
C1528 C 0.67252 0.17794 0.1784 0.0
C1529 C 0.6763 0.17381 0.14339 0.0
C1530 C 0.69986 0.18521 0.12929 0.0
C1531 C 0.71932 0.20032 0.14987 0.0
C1532 C 0.65542 0.15783 0.12166 0.0
C1533 C 0.64407 0.16762 0.09237 0.0
C1534 C 0.64531 0.13366 0.13113 0.0
C1535 C 0.65632 0.12211 0.16166 0.0
C1536 C 0.68375 0.11973 0.16512 0.0
C1537 C 0.69404 0.10961 0.19459 0.0
C1538 C 0.67708 0.10176 0.22073 0.0
C1539 C 0.64977 0.1039 0.21737 0.0
C1540 C 0.63936 0.1139 0.18791 0.0
C1541 C 0.56565 0.09548 0.01217 0.0
C1542 C 0.54556 0.08295 0.03159 0.0
C1543 C 0.58721 0.11103 0.02853 0.0
C1544 C 0.58856 0.11481 0.06446 0.0
C1545 C 0.56783 0.10282 0.08346 0.0
C1546 C 0.5468 0.08686 0.06728 0.0
C1547 C 0.61194 0.13016 0.08291 0.0
C1548 C 0.62398 0.12016 0.11155 0.0
C1549 C 0.62215 0.15434 0.07324 0.0
C1550 C 0.60946 0.16682 0.04472 0.0
C1551 C 0.58186 0.16872 0.04391 0.0
C1552 C 0.57001 0.18015 0.01669 0.0
C1553 C 0.58559 0.19002 0.9903 0.0
C1554 C 0.6131 0.18864 0.9912 0.0
C1555 C 0.62504 0.17725 0.01837 0.0
H1556 H 0.57638 0.19884 0.96924 0.0
H1557 H 0.6851 0.09404 0.2436 0.0
H1558 H 0.68863 0.72827 0.81619 0.0
H1559 H 0.65878 0.69713 0.84492 0.0
H1560 H 0.70635 0.64127 0.81402 0.0
H1561 H 0.73558 0.67225 0.784 0.0
H1562 H 0.65987 0.61981 0.81078 0.0
H1563 H 0.70626 0.66791 0.90152 0.0
H1564 H 0.72534 0.70488 0.93624 0.0
H1565 H 0.64615 0.72266 0.95139 0.0
H1566 H 0.62659 0.68596 0.91633 0.0
H1567 H 0.58783 0.53835 0.93518 0.0
H1568 H 0.62487 0.56487 0.90904 0.0
H1569 H 0.5737 0.62107 0.89427 0.0
H1570 H 0.537 0.59493 0.91906 0.0
H1571 H 0.62695 0.63888 0.92489 0.0
H1572 H 0.58385 0.58717 0.82789 0.0
H1573 H 0.56979 0.54663 0.79882 0.0
H1574 H 0.6513 0.5315 0.80406 0.0
H1575 H 0.66578 0.57187 0.83349 0.0
C1576 C 0.69284 0.70938 0.81553 0.0
C1577 C 0.71473 0.703 0.79765 0.0
C1578 C 0.67577 0.69143 0.83236 0.0
C1579 C 0.68034 0.66653 0.83281 0.0
C1580 C 0.70209 0.66013 0.81458 0.0
C1581 C 0.71894 0.67802 0.79729 0.0
C1582 C 0.66232 0.64734 0.85178 0.0
C1583 C 0.65315 0.62405 0.83597 0.0
C1584 C 0.65338 0.65209 0.88508 0.0
C1585 C 0.66497 0.6743 0.90601 0.0
C1586 C 0.69292 0.67981 0.91202 0.0
C1587 C 0.70382 0.7007 0.9318 0.0
C1588 C 0.68697 0.71614 0.94595 0.0
C1589 C 0.65918 0.7107 0.94038 0.0
C1590 C 0.64816 0.68984 0.92057 0.0
C1591 C 0.58449 0.55631 0.92625 0.0
C1592 C 0.55912 0.5642 0.92907 0.0
C1593 C 0.6057 0.57151 0.91126 0.0
C1594 C 0.60222 0.59515 0.89952 0.0
C1595 C 0.57711 0.60306 0.90299 0.0
C1596 C 0.55596 0.58785 0.91712 0.0
C1597 C 0.62419 0.61197 0.88343 0.0
C1598 C 0.63403 0.63478 0.89983 0.0
C1599 C 0.63453 0.60639 0.85141 0.0
C1600 C 0.62584 0.5824 0.83316 0.0
C1601 C 0.59873 0.57512 0.82302 0.0
C1602 C 0.5907 0.5522 0.80644 0.0
C1603 C 0.60963 0.53647 0.79967 0.0
C1604 C 0.63665 0.54369 0.80934 0.0
C1605 C 0.64479 0.56659 0.82592 0.0
H1606 H 0.60337 0.51872 0.78688 0.0
H1607 H 0.69545 0.7323 0.96129 0.0
H1608 H 0.31323 0.68834 0.75663 0.0
H1609 H 0.33646 0.66195 0.79418 0.0
H1610 H 0.32921 0.71087 0.88044 0.0
H1611 H 0.30517 0.73701 0.84303 0.0
H1612 H 0.38379 0.69691 0.87061 0.0
H1613 H 0.2925 0.66026 0.88228 0.0
H1614 H 0.24694 0.64207 0.86161 0.0
H1615 H 0.27937 0.58466 0.80723 0.0
H1616 H 0.32517 0.60259 0.8273 0.0
H1617 H 0.44295 0.61343 0.98217 0.0
H1618 H 0.41404 0.64253 0.95891 0.0
H1619 H 0.38958 0.59224 0.87298 0.0
H1620 H 0.41722 0.56319 0.89635 0.0
H1621 H 0.34818 0.60962 0.89016 0.0
H1622 H 0.43834 0.64726 0.87062 0.0
H1623 H 0.48495 0.66493 0.88713 0.0
H1624 H 0.45646 0.71993 0.95094 0.0
H1625 H 0.40964 0.70236 0.93511 0.0
C1626 C 0.31631 0.69334 0.78367 0.0
C1627 C 0.30732 0.71476 0.79682 0.0
C1628 C 0.32964 0.67825 0.80513 0.0
C1629 C 0.33472 0.6844 0.8402 0.0
C1630 C 0.32563 0.70574 0.8535 0.0
C1631 C 0.31176 0.7206 0.83212 0.0
C1632 C 0.34987 0.66861 0.86249 0.0
C1633 C 0.37584 0.67795 0.87548 0.0
C1634 C 0.33983 0.6437 0.86825 0.0
C1635 C 0.3123 0.6329 0.85609 0.0
C1636 C 0.28995 0.64388 0.86568 0.0
C1637 C 0.26407 0.6336 0.85412 0.0
C1638 C 0.26027 0.61229 0.83304 0.0
C1639 C 0.28234 0.60118 0.82354 0.0
C1640 C 0.30826 0.61136 0.83505 0.0
C1641 C 0.43131 0.6086 0.9584 0.0
C1642 C 0.43262 0.58587 0.94124 0.0
C1643 C 0.41483 0.62533 0.94494 0.0
C1644 C 0.39963 0.6199 0.91375 0.0
C1645 C 0.40081 0.59708 0.89705 0.0
C1646 C 0.41687 0.58037 0.91057 0.0
C1647 C 0.3826 0.63762 0.89777 0.0
C1648 C 0.35618 0.62866 0.88582 0.0
C1649 C 0.39244 0.66276 0.89247 0.0
C1650 C 0.42052 0.67331 0.90204 0.0
C1651 C 0.44203 0.663 0.88838 0.0
C1652 C 0.46848 0.67302 0.89758 0.0
C1653 C 0.47367 0.69349 0.92016 0.0
C1654 C 0.45241 0.70403 0.93352 0.0
C1655 C 0.42592 0.69406 0.92444 0.0
H1656 H 0.49416 0.70122 0.92724 0.0
H1657 H 0.24022 0.60437 0.82414 0.0
H1658 H 0.35402 0.28386 0.80718 0.0
H1659 H 0.38564 0.31508 0.8385 0.0
H1660 H 0.35051 0.37258 0.78691 0.0
H1661 H 0.31865 0.34144 0.75524 0.0
H1662 H 0.40627 0.38211 0.79443 0.0
H1663 H 0.33141 0.35891 0.86338 0.0
H1664 H 0.29803 0.33099 0.89318 0.0
H1665 H 0.36103 0.30527 0.95414 0.0
H1666 H 0.39487 0.33275 0.92432 0.0
H1667 H 0.46386 0.47591 0.91671 0.0
H1668 H 0.43125 0.44861 0.88021 0.0
H1669 H 0.45777 0.38515 0.92754 0.0
H1670 H 0.49014 0.41217 0.96432 0.0
H1671 H 0.40364 0.3812 0.92136 0.0
H1672 H 0.47851 0.40266 0.8495 0.0
H1673 H 0.51169 0.43151 0.82071 0.0
H1674 H 0.44809 0.46124 0.7661 0.0
H1675 H 0.41451 0.43277 0.79494 0.0
C1676 C 0.35321 0.30311 0.80201 0.0
C1677 C 0.3336 0.31017 0.77898 0.0
C1678 C 0.37124 0.32092 0.82008 0.0
C1679 C 0.36998 0.34606 0.81545 0.0
C1680 C 0.35161 0.35321 0.79094 0.0
C1681 C 0.33346 0.33539 0.77288 0.0
C1682 C 0.38702 0.36477 0.83751 0.0
C1683 C 0.40547 0.38218 0.82216 0.0
C1684 C 0.38604 0.36459 0.87368 0.0
C1685 C 0.36572 0.34772 0.8913 0.0
C1686 C 0.33819 0.34709 0.88284 0.0
C1687 C 0.31917 0.33137 0.89978 0.0
C1688 C 0.32741 0.31629 0.92542 0.0
C1689 C 0.35469 0.31691 0.9342 0.0
C1690 C 0.3738 0.33257 0.91729 0.0
C1691 C 0.4627 0.45614 0.91942 0.0
C1692 C 0.47967 0.4462 0.94332 0.0
C1693 C 0.44414 0.4406 0.89846 0.0
C1694 C 0.44235 0.4149 0.90098 0.0
C1695 C 0.45889 0.40496 0.92522 0.0
C1696 C 0.47742 0.42044 0.94616 0.0
C1697 C 0.42333 0.39818 0.87836 0.0
C1698 C 0.40438 0.3812 0.89362 0.0
C1699 C 0.42384 0.39879 0.84218 0.0
C1700 C 0.44401 0.41578 0.82465 0.0
C1701 C 0.4716 0.41548 0.83155 0.0
C1702 C 0.49048 0.43174 0.81519 0.0
C1703 C 0.482 0.44824 0.79166 0.0
C1704 C 0.45463 0.44847 0.78437 0.0
C1705 C 0.43567 0.43227 0.80069 0.0
H1706 H 0.49665 0.46082 0.77903 0.0
H1707 H 0.31265 0.30417 0.93857 0.0
H1708 H 0.73695 0.29059 0.82403 0.0
H1709 H 0.71416 0.31546 0.8637 0.0
H1710 H 0.68202 0.35209 0.77775 0.0
H1711 H 0.70608 0.3285 0.73875 0.0
H1712 H 0.69479 0.385 0.82205 0.0
H1713 H 0.64314 0.30388 0.83069 0.0
H1714 H 0.63762 0.25924 0.84143 0.0
H1715 H 0.67316 0.2741 0.9431 0.0
H1716 H 0.67926 0.31879 0.93267 0.0
H1717 H 0.57012 0.39568 0.92965 0.0
H1718 H 0.59931 0.37128 0.89998 0.0
H1719 H 0.66668 0.42743 0.92409 0.0
H1720 H 0.63704 0.45254 0.95351 0.0
H1721 H 0.63957 0.34886 0.915 0.0
H1722 H 0.71194 0.42757 0.86069 0.0
H1723 H 0.71275 0.47099 0.84448 0.0
H1724 H 0.62738 0.45893 0.82469 0.0
H1725 H 0.62612 0.4154 0.84039 0.0
C1726 C 0.72475 0.30376 0.81369 0.0
C1727 C 0.72318 0.30738 0.77815 0.0
C1728 C 0.71157 0.31803 0.83643 0.0
C1729 C 0.69582 0.33577 0.82411 0.0
C1730 C 0.69401 0.33888 0.78843 0.0
C1731 C 0.70765 0.32513 0.76594 0.0
C1732 C 0.68144 0.35141 0.84777 0.0
C1733 C 0.68283 0.37695 0.84241 0.0
C1734 C 0.66553 0.3414 0.87455 0.0
C1735 C 0.66166 0.31461 0.88093 0.0
C1736 C 0.64981 0.29759 0.8553 0.0
C1737 C 0.64662 0.27229 0.8613 0.0
C1738 C 0.65504 0.26383 0.89292 0.0
C1739 C 0.66662 0.28067 0.91863 0.0
C1740 C 0.66989 0.30598 0.91273 0.0
C1741 C 0.59114 0.40304 0.92883 0.0
C1742 C 0.60099 0.42641 0.94387 0.0
C1743 C 0.60797 0.38883 0.91184 0.0
C1744 C 0.63537 0.39736 0.90915 0.0
C1745 C 0.64557 0.42043 0.92502 0.0
C1746 C 0.62859 0.43482 0.94203 0.0
C1747 C 0.65253 0.38227 0.88872 0.0
C1748 C 0.65173 0.35689 0.89479 0.0
C1749 C 0.66836 0.39228 0.86192 0.0
C1750 C 0.66892 0.41834 0.85213 0.0
C1751 C 0.69336 0.43419 0.85281 0.0
C1752 C 0.6939 0.45881 0.84372 0.0
C1753 C 0.67012 0.46774 0.8337 0.0
C1754 C 0.64576 0.45202 0.8326 0.0
C1755 C 0.64513 0.42739 0.84162 0.0
H1756 H 0.67057 0.4868 0.8267 0.0
H1757 H 0.6526 0.24424 0.8975 0.0
H1758 H 0.72649 0.33621 0.24762 0.0
H1759 H 0.70108 0.36146 0.21136 0.0
H1760 H 0.68897 0.30314 0.13353 0.0
H1761 H 0.71592 0.27839 0.1692 0.0
H1762 H 0.69284 0.3438 0.1019 0.0
H1763 H 0.63903 0.31447 0.19277 0.0
H1764 H 0.62718 0.30581 0.2523 0.0
H1765 H 0.63789 0.38349 0.27733 0.0
H1766 H 0.65018 0.39261 0.21805 0.0
H1767 H 0.58186 0.40342 0.02858 0.0
H1768 H 0.60776 0.37291 0.05467 0.0
H1769 H 0.64401 0.42803 0.12953 0.0
H1770 H 0.61879 0.45827 0.1039 0.0
H1771 H 0.62329 0.384 0.15892 0.0
H1772 H 0.67964 0.41074 0.06404 0.0
H1773 H 0.68632 0.41635 0.00231 0.0
H1774 H 0.66337 0.33864 0.98263 0.0
H1775 H 0.65645 0.3326 0.04416 0.0
C1776 C 0.71867 0.32888 0.22261 0.0
C1777 C 0.72305 0.30523 0.21145 0.0
C1778 C 0.70386 0.34326 0.20191 0.0
C1779 C 0.69213 0.33407 0.1699 0.0
C1780 C 0.69746 0.31076 0.1581 0.0
C1781 C 0.71289 0.29656 0.17856 0.0
C1782 C 0.67379 0.34855 0.14963 0.0
C1783 C 0.67742 0.35226 0.11442 0.0
C1784 C 0.65323 0.35956 0.16534 0.0
C1785 C 0.64574 0.3542 0.20102 0.0
C1786 C 0.63902 0.3297 0.21102 0.0
C1787 C 0.63221 0.32471 0.24472 0.0
C1788 C 0.63183 0.34409 0.2686 0.0
C1789 C 0.63821 0.3685 0.25881 0.0
C1790 C 0.64507 0.37359 0.22515 0.0
C1791 C 0.59548 0.40904 0.05046 0.0
C1792 C 0.59804 0.43339 0.06408 0.0
C1793 C 0.61033 0.39159 0.06534 0.0
C1794 C 0.62786 0.3981 0.09425 0.0
C1795 C 0.63059 0.42242 0.10743 0.0
C1796 C 0.61611 0.4398 0.09251 0.0
C1797 C 0.64304 0.37987 0.11183 0.0
C1798 C 0.63866 0.37537 0.14652 0.0
C1799 C 0.66229 0.36769 0.0954 0.0
C1800 C 0.66741 0.37124 0.05864 0.0
C1801 C 0.67599 0.39486 0.04651 0.0
C1802 C 0.67986 0.39811 0.01157 0.0
C1803 C 0.67536 0.37785 0.98856 0.0
C1804 C 0.667 0.3543 1.00046 0.0
C1805 C 0.66315 0.35094 0.03537 0.0
H1806 H 0.67841 0.3804 0.96156 0.0
H1807 H 0.62656 0.34019 0.29467 0.0
H1808 H 0.71797 0.66704 0.2503 0.0
H1809 H 0.6866 0.63686 0.21615 0.0
H1810 H 0.64575 0.69554 0.17733 0.0
H1811 H 0.67682 0.72575 0.21108 0.0
H1812 H 0.63042 0.62468 0.20985 0.0
H1813 H 0.63667 0.68553 0.08938 0.0
H1814 H 0.66852 0.71787 0.06467 0.0
H1815 H 0.7342 0.69115 0.119 0.0
H1816 H 0.70287 0.65821 0.14321 0.0
H1817 H 0.54183 0.60624 0.04301 0.0
H1818 H 0.57535 0.63146 0.08067 0.0
H1819 H 0.60649 0.56589 0.11411 0.0
H1820 H 0.57289 0.54047 0.07689 0.0
H1821 H 0.63007 0.63736 0.08432 0.0
H1822 H 0.62445 0.57407 0.19987 0.0
H1823 H 0.59273 0.54163 0.22469 0.0
H1824 H 0.52631 0.57351 0.18051 0.0
H1825 H 0.55761 0.6063 0.15583 0.0
C1826 C 0.70195 0.67347 0.23507 0.0
C1827 C 0.70011 0.69882 0.23299 0.0
C1828 C 0.6841 0.65621 0.21558 0.0
C1829 C 0.66432 0.66413 0.19379 0.0
C1830 C 0.66126 0.68919 0.19358 0.0
C1831 C 0.67903 0.70641 0.21293 0.0
C1832 C 0.64794 0.64662 0.16944 0.0
C1833 C 0.63061 0.62717 0.18237 0.0
C1834 C 0.64817 0.65015 0.13364 0.0
C1835 C 0.66732 0.66954 0.11845 0.0
C1836 C 0.65792 0.68643 0.09588 0.0
C1837 C 0.6759 0.70487 0.08192 0.0
C1838 C 0.70335 0.7066 0.09033 0.0
C1839 C 0.71292 0.68982 0.11256 0.0
C1840 C 0.69505 0.67125 0.12639 0.0
C1841 C 0.55589 0.59717 0.05822 0.0
C1842 C 0.55452 0.57134 0.05724 0.0
C1843 C 0.57506 0.61161 0.07963 0.0
C1844 C 0.5931 0.60047 0.10045 0.0
C1845 C 0.59243 0.57478 0.09863 0.0
C1846 C 0.57324 0.56031 0.07729 0.0
C1847 C 0.61207 0.61578 0.12476 0.0
C1848 C 0.63001 0.63477 0.11178 0.0
C1849 C 0.61245 0.61178 0.16046 0.0
C1850 C 0.59339 0.59246 0.17571 0.0
C1851 C 0.60307 0.57419 0.19558 0.0
C1852 C 0.58517 0.55574 0.2096 0.0
C1853 C 0.55753 0.55545 0.20407 0.0
C1854 C 0.54773 0.57369 0.18465 0.0
C1855 C 0.56554 0.5922 0.17062 0.0
H1856 H 0.5437 0.54113 0.21491 0.0
H1857 H 0.71722 0.72093 0.07958 0.0
H1858 H 0.30817 0.67436 0.26573 0.0
H1859 H 0.33316 0.65073 0.22778 0.0
H1860 H 0.33043 0.70585 0.15104 0.0
H1861 H 0.30601 0.72999 0.18977 0.0
H1862 H 0.32352 0.62751 0.17035 0.0
H1863 H 0.38298 0.70632 0.09901 0.0
H1864 H 0.40058 0.75045 0.10834 0.0
H1865 H 0.40642 0.74056 0.21705 0.0
H1866 H 0.38918 0.69634 0.20832 0.0
H1867 H 0.39434 0.57013 0.04002 0.0
H1868 H 0.36503 0.59489 0.07069 0.0
H1869 H 0.43391 0.63209 0.12953 0.0
H1870 H 0.46294 0.60839 0.09826 0.0
H1871 H 0.40559 0.66489 0.1155 0.0
H1872 H 0.38328 0.58351 0.16071 0.0
H1873 H 0.36757 0.53875 0.15717 0.0
H1874 H 0.29228 0.55236 0.11084 0.0
H1875 H 0.30767 0.59719 0.11378 0.0
C1876 C 0.31308 0.68161 0.24088 0.0
C1877 C 0.30533 0.70429 0.23108 0.0
C1878 C 0.32729 0.66791 0.21895 0.0
C1879 C 0.33414 0.67632 0.18629 0.0
C1880 C 0.32607 0.69894 0.17622 0.0
C1881 C 0.31203 0.71283 0.19843 0.0
C1882 C 0.34979 0.66134 0.16337 0.0
C1883 C 0.34141 0.63581 0.15829 0.0
C1884 C 0.37338 0.67172 0.14754 0.0
C1885 C 0.38452 0.6981 0.15301 0.0
C1886 C 0.38815 0.71355 0.12488 0.0
C1887 C 0.39803 0.73858 0.13007 0.0
C1888 C 0.4045 0.74832 0.16327 0.0
C1889 C 0.4013 0.73302 0.19135 0.0
C1890 C 0.39147 0.70798 0.1863 0.0
C1891 C 0.40314 0.58347 0.05967 0.0
C1892 C 0.4311 0.5871 0.06659 0.0
C1893 C 0.38633 0.59769 0.07737 0.0
C1894 C 0.39696 0.61554 0.103 0.0
C1895 C 0.42487 0.61882 0.10992 0.0
C1896 C 0.44157 0.60501 0.09199 0.0
C1897 C 0.37958 0.63091 0.12284 0.0
C1898 C 0.38759 0.65658 0.1273 0.0
C1899 C 0.35601 0.62054 0.13879 0.0
C1900 C 0.34673 0.59365 0.13713 0.0
C1901 C 0.36344 0.57693 0.14958 0.0
C1902 C 0.35459 0.55156 0.14771 0.0
C1903 C 0.32897 0.54272 0.1337 0.0
C1904 C 0.31213 0.55923 0.12163 0.0
C1905 C 0.3209 0.58462 0.12341 0.0
H1906 H 0.32216 0.52307 0.13227 0.0
H1907 H 0.41204 0.76772 0.16724 0.0
H1908 H 0.30965 0.34392 0.22741 0.0
H1909 H 0.33921 0.37507 0.19858 0.0
H1910 H 0.37315 0.31781 0.14488 0.0
H1911 H 0.34305 0.28636 0.17331 0.0
H1912 H 0.38933 0.38841 0.1997 0.0
H1913 H 0.39766 0.3393 0.06712 0.0
H1914 H 0.37004 0.31001 0.02657 0.0
H1915 H 0.29835 0.32908 0.0697 0.0
H1916 H 0.32549 0.35882 0.11004 0.0
H1917 H 0.50141 0.44703 0.11817 0.0
H1918 H 0.46693 0.41842 0.14286 0.0
H1919 H 0.40923 0.43506 0.06509 0.0
H1920 H 0.44439 0.46352 0.03913 0.0
H1921 H 0.40124 0.38737 0.0743 0.0
H1922 H 0.40927 0.45638 0.15204 0.0
H1923 H 0.43226 0.48986 0.19043 0.0
H1924 H 0.46285 0.4366 0.25487 0.0
H1925 H 0.44032 0.40279 0.21661 0.0
C1926 C 0.32335 0.33777 0.20949 0.0
C1927 C 0.32376 0.31235 0.20295 0.0
C1928 C 0.34042 0.35578 0.19292 0.0
C1929 C 0.35855 0.34915 0.16904 0.0
C1930 C 0.35918 0.32373 0.1626 0.0
C1931 C 0.342 0.30564 0.17918 0.0
C1932 C 0.37705 0.36885 0.15185 0.0
C1933 C 0.39186 0.388 0.17225 0.0
C1934 C 0.38018 0.36914 0.11582 0.0
C1935 C 0.36367 0.35106 0.09194 0.0
C1936 C 0.376 0.33726 0.06794 0.0
C1937 C 0.36043 0.3206 0.04495 0.0
C1938 C 0.33246 0.31761 0.04565 0.0
C1939 C 0.32002 0.33133 0.06929 0.0
C1940 C 0.33549 0.34807 0.09225 0.0
C1941 C 0.48138 0.44498 0.10625 0.0
C1942 C 0.47593 0.45802 0.07655 0.0
C1943 C 0.46145 0.42848 0.12069 0.0
C1944 C 0.43504 0.42454 0.10644 0.0
C1945 C 0.42931 0.43764 0.07688 0.0
C1946 C 0.44945 0.45419 0.06218 0.0
C1947 C 0.41394 0.40644 0.12232 0.0
C1948 C 0.39868 0.38765 0.10173 0.0
C1949 C 0.40979 0.4068 0.15809 0.0
C1950 C 0.42327 0.42706 0.1813 0.0
C1951 C 0.42104 0.45181 0.17428 0.0
C1952 C 0.43397 0.47085 0.19603 0.0
C1953 C 0.44906 0.46536 0.22503 0.0
C1954 C 0.45118 0.44082 0.23239 0.0
C1955 C 0.4383 0.42171 0.2107 0.0
H1956 H 0.45906 0.48013 0.24184 0.0
H1957 H 0.32045 0.30473 0.02781 0.0
H1958 H 0.84559 0.70359 0.67175 0.0
H1959 H 0.86702 0.67072 0.6467 0.0
H1960 H 0.79014 0.62501 0.6327 0.0
H1961 H 0.76847 0.65817 0.65847 0.0
H1962 H 0.82437 0.6006 0.6639 0.0
H1963 H 0.82447 0.64193 0.56327 0.0
H1964 H 0.82768 0.67346 0.51925 0.0
H1965 H 0.91233 0.69074 0.54236 0.0
H1966 H 0.90969 0.6595 0.58691 0.0
H1967 H 0.91241 0.51772 0.59648 0.0
H1968 H 0.87602 0.54254 0.60397 0.0
H1969 H 0.93341 0.60365 0.64315 0.0
H1970 H 0.96986 0.57921 0.6353 0.0
H1971 H 0.90066 0.6147 0.58769 0.0
H1972 H 0.89218 0.57298 0.69614 0.0
H1973 H 0.88505 0.5361 0.73145 0.0
H1974 H 0.80868 0.5136 0.67875 0.0
H1975 H 0.81552 0.55022 0.64284 0.0
C1976 C 0.83319 0.68668 0.66288 0.0
C1977 C 0.80551 0.68319 0.66723 0.0
C1978 C 0.8454 0.668 0.64821 0.0
C1979 C 0.8301 0.64554 0.63748 0.0
C1980 C 0.80221 0.64229 0.64069 0.0
C1981 C 0.78992 0.66114 0.65539 0.0
C1982 C 0.8442 0.62483 0.62725 0.0
C1983 C 0.84042 0.60324 0.64616 0.0
C1984 C 0.86509 0.62832 0.60414 0.0
C1985 C 0.86682 0.64837 0.5788 0.0
C1986 C 0.84374 0.65269 0.55945 0.0
C1987 C 0.84547 0.67047 0.53425 0.0
C1988 C 0.87016 0.68418 0.52813 0.0
C1989 C 0.89319 0.68013 0.5472 0.0
C1990 C 0.8916 0.66234 0.57242 0.0
C1991 C 0.91717 0.53629 0.60735 0.0
C1992 C 0.94394 0.54666 0.61501 0.0
C1993 C 0.8964 0.55037 0.61161 0.0
C1994 C 0.9022 0.57486 0.62391 0.0
C1995 C 0.9287 0.58476 0.63345 0.0
C1996 C 0.94944 0.57072 0.62922 0.0
C1997 C 0.8811 0.59094 0.62458 0.0
C1998 C 0.88385 0.6117 0.60408 0.0
C1999 C 0.8586 0.58607 0.64487 0.0
C2000 C 0.8545 0.56416 0.66656 0.0
C2001 C 0.87398 0.56005 0.69189 0.0
C2002 C 0.86996 0.53922 0.71206 0.0
C2003 C 0.84647 0.52247 0.70727 0.0
C2004 C 0.82689 0.52656 0.68238 0.0
C2005 C 0.83081 0.54736 0.66214 0.0
H2006 H 0.8434 0.50636 0.7229 0.0
H2007 H 0.87143 0.69789 0.50855 0.0
H2008 H 0.35231 0.78795 0.65069 0.0
H2009 H 0.38575 0.81998 0.62875 0.0
H2010 H 0.34643 0.87612 0.67758 0.0
H2011 H 0.31235 0.84459 0.69696 0.0
H2012 H 0.35845 0.89076 0.62067 0.0
H2013 H 0.40929 0.85501 0.70993 0.0
H2014 H 0.42803 0.8213 0.73936 0.0
H2015 H 0.47004 0.80628 0.64946 0.0
H2016 H 0.45116 0.83974 0.61955 0.0
H2017 H 0.45618 0.99317 0.61997 0.0
H2018 H 0.43059 0.95706 0.64389 0.0
H2019 H 0.46331 0.90969 0.57168 0.0
H2020 H 0.48914 0.94561 0.54749 0.0
H2021 H 0.45647 0.88942 0.63706 0.0
H2022 H 0.40465 0.92669 0.5491 0.0
H2023 H 0.3844 0.96035 0.52181 0.0
H2024 H 0.34494 0.97397 0.61412 0.0
H2025 H 0.36454 0.94008 0.6419 0.0
C2026 C 0.35078 0.8072 0.65613 0.0
C2027 C 0.32979 0.81394 0.67512 0.0
C2028 C 0.37003 0.82544 0.64411 0.0
C2029 C 0.36896 0.85047 0.65216 0.0
C2030 C 0.34774 0.85699 0.67096 0.0
C2031 C 0.32819 0.83894 0.68196 0.0
C2032 C 0.3892 0.87027 0.64043 0.0
C2033 C 0.37985 0.89054 0.62494 0.0
C2034 C 0.41721 0.86974 0.64475 0.0
C2035 C 0.42853 0.8496 0.6625 0.0
C2036 C 0.42231 0.84432 0.69647 0.0
C2037 C 0.433 0.82532 0.71321 0.0
C2038 C 0.45015 0.81158 0.69624 0.0
C2039 C 0.4567 0.81689 0.66255 0.0
C2040 C 0.44602 0.83589 0.64572 0.0
C2041 C 0.4584 0.97507 0.60956 0.0
C2042 C 0.47429 0.9723 0.58139 0.0
C2043 C 0.44374 0.95449 0.62326 0.0
C2044 C 0.44471 0.93092 0.60892 0.0
C2045 C 0.46221 0.92784 0.58276 0.0
C2046 C 0.47691 0.94841 0.56901 0.0
C2047 C 0.42545 0.90995 0.6188 0.0
C2048 C 0.43501 0.88951 0.63339 0.0
C2049 C 0.39757 0.91039 0.6142 0.0
C2050 C 0.38623 0.93101 0.59765 0.0
C2051 C 0.39179 0.93694 0.56365 0.0
C2052 C 0.3804 0.95603 0.54807 0.0
C2053 C 0.36362 0.96943 0.56626 0.0
C2054 C 0.358 0.96363 0.60006 0.0
C2055 C 0.36913 0.94442 0.6157 0.0
H2056 H 0.35489 0.98422 0.55411 0.0
H2057 H 0.45843 0.79687 0.70923 0.0
H2058 H 0.19357 0.29712 0.63805 0.0
H2059 H 0.17788 0.32221 0.59259 0.0
H2060 H 0.25194 0.37233 0.60431 0.0
H2061 H 0.26723 0.34765 0.65099 0.0
H2062 H 0.21211 0.39701 0.6003 0.0
H2063 H 0.23716 0.33145 0.53299 0.0
H2064 H 0.23972 0.28833 0.51528 0.0
H2065 H 0.15442 0.27583 0.49495 0.0
H2066 H 0.15128 0.31881 0.5129 0.0
H2067 H 0.15911 0.46683 0.47787 0.0
H2068 H 0.19063 0.43844 0.49423 0.0
H2069 H 0.12446 0.38063 0.50506 0.0
H2070 H 0.09299 0.40856 0.48737 0.0
H2071 H 0.16897 0.36126 0.4902 0.0
H2072 H 0.14446 0.42269 0.57147 0.0
H2073 H 0.14082 0.46542 0.5904 0.0
H2074 H 0.22599 0.48486 0.58462 0.0
H2075 H 0.23004 0.44227 0.56519 0.0
C2076 C 0.20646 0.31351 0.63091 0.0
C2077 C 0.23153 0.32057 0.64791 0.0
C2078 C 0.19765 0.32766 0.60465 0.0
C2079 C 0.21403 0.3488 0.5944 0.0
C2080 C 0.23908 0.35595 0.61159 0.0
C2081 C 0.24774 0.34197 0.63829 0.0
C2082 C 0.204 0.36433 0.56753 0.0
C2083 C 0.20347 0.38932 0.57577 0.0
C2084 C 0.1922 0.3542 0.53578 0.0
C2085 C 0.19398 0.32836 0.52453 0.0
C2086 C 0.21892 0.31948 0.52493 0.0
C2087 C 0.22048 0.29506 0.5148 0.0
C2088 C 0.19725 0.27933 0.50407 0.0
C2089 C 0.17241 0.28803 0.50327 0.0
C2090 C 0.17073 0.31245 0.51334 0.0
C2091 C 0.15137 0.44784 0.48265 0.0
C2092 C 0.12361 0.44005 0.48246 0.0
C2093 C 0.16938 0.43164 0.49193 0.0
C2094 C 0.15977 0.40776 0.50204 0.0
C2095 C 0.13228 0.39909 0.49768 0.0
C2096 C 0.11428 0.41513 0.48774 0.0
C2097 C 0.17704 0.3937 0.52325 0.0
C2098 C 0.17856 0.369 0.51421 0.0
C2099 C 0.18987 0.40402 0.55432 0.0
C2100 C 0.18752 0.42944 0.56659 0.0
C2101 C 0.16238 0.43612 0.57414 0.0
C2102 C 0.16024 0.4603 0.58493 0.0
C2103 C 0.18315 0.47786 0.58863 0.0
C2104 C 0.20826 0.47125 0.58167 0.0
C2105 C 0.2105 0.44711 0.57078 0.0
H2106 H 0.18145 0.49658 0.59695 0.0
H2107 H 0.19852 0.2604 0.4964 0.0
H2108 H 0.68463 0.19675 0.72518 0.0
H2109 H 0.6585 0.16357 0.69049 0.0
H2110 H 0.68798 0.19715 0.59831 0.0
H2111 H 0.71431 0.23062 0.63276 0.0
H2112 H 0.63274 0.17394 0.59209 0.0
H2113 H 0.72037 0.15568 0.62631 0.0
H2114 H 0.75829 0.15335 0.6677 0.0
H2115 H 0.7082 0.10207 0.72668 0.0
H2116 H 0.66987 0.10434 0.68583 0.0
H2117 H 0.61005 0.05628 0.49663 0.0
H2118 H 0.63629 0.094 0.52273 0.0
H2119 H 0.60073 0.07769 0.61951 0.0
H2120 H 0.57378 0.04077 0.59328 0.0
H2121 H 0.66221 0.09302 0.61784 0.0
H2122 H 0.57403 0.11446 0.58642 0.0
H2123 H 0.53603 0.11637 0.54504 0.0
H2124 H 0.58759 0.16173 0.4805 0.0
H2125 H 0.62619 0.15955 0.52098 0.0
C2126 C 0.68517 0.19748 0.69751 0.0
C2127 C 0.70197 0.21616 0.68181 0.0
C2128 C 0.6702 0.17846 0.67774 0.0
C2129 C 0.67176 0.17774 0.64195 0.0
C2130 C 0.68666 0.19738 0.62593 0.0
C2131 C 0.70172 0.21646 0.64573 0.0
C2132 C 0.66028 0.15518 0.622 0.0
C2133 C 0.63945 0.15632 0.59728 0.0
C2134 C 0.66906 0.13221 0.62892 0.0
C2135 C 0.6922 0.13031 0.65313 0.0
C2136 C 0.71741 0.144 0.6482 0.0
C2137 C 0.73898 0.14268 0.67155 0.0
C2138 C 0.73564 0.1276 0.69984 0.0
C2139 C 0.71075 0.11374 0.70475 0.0
C2140 C 0.6891 0.115 0.68148 0.0
C2141 C 0.60821 0.0607 0.52355 0.0
C2142 C 0.5901 0.04581 0.54313 0.0
C2143 C 0.62305 0.08215 0.53833 0.0
C2144 C 0.62034 0.08845 0.57297 0.0
C2145 C 0.60306 0.073 0.59279 0.0
C2146 C 0.58771 0.05204 0.57782 0.0
C2147 C 0.63443 0.11175 0.58845 0.0
C2148 C 0.65579 0.11071 0.61231 0.0
C2149 C 0.62621 0.13475 0.58064 0.0
C2150 C 0.60307 0.1365 0.55646 0.0
C2151 C 0.57736 0.12458 0.56316 0.0
C2152 C 0.55572 0.12574 0.53987 0.0
C2153 C 0.55947 0.13905 0.51 0.0
C2154 C 0.58483 0.15133 0.50349 0.0
C2155 C 0.6066 0.15012 0.52657 0.0
H2156 H 0.54271 0.13996 0.49197 0.0
H2157 H 0.75235 0.12663 0.71792 0.0
H2158 H 0.78051 0.32297 0.34275 0.0
H2159 H 0.80827 0.35614 0.37646 0.0
H2160 H 0.87619 0.34539 0.31704 0.0
H2161 H 0.84828 0.31263 0.28282 0.0
H2162 H 0.85003 0.35637 0.41722 0.0
H2163 H 0.91818 0.4012 0.31073 0.0
H2164 H 0.91478 0.412 0.2499 0.0
H2165 H 0.82919 0.40692 0.25411 0.0
H2166 H 0.83209 0.39679 0.31518 0.0
H2167 H 0.97981 0.4541 0.4367 0.0
H2168 H 0.94964 0.42223 0.40378 0.0
H2169 H 0.88431 0.43656 0.46589 0.0
H2170 H 0.91456 0.46752 0.49969 0.0
H2171 H 0.9071 0.4251 0.36462 0.0
H2172 H 0.83711 0.38862 0.46763 0.0
H2173 H 0.83686 0.38362 0.53029 0.0
H2174 H 0.92035 0.37541 0.53281 0.0
H2175 H 0.92131 0.38064 0.47027 0.0
C2176 C 0.80134 0.32783 0.33681 0.0
C2177 C 0.81219 0.31561 0.30982 0.0
C2178 C 0.81718 0.34676 0.35605 0.0
C2179 C 0.84423 0.35365 0.34883 0.0
C2180 C 0.8552 0.34097 0.32238 0.0
C2181 C 0.83928 0.32226 0.3029 0.0
C2182 C 0.8613 0.37334 0.36981 0.0
C2183 C 0.86227 0.37154 0.40564 0.0
C2184 C 0.87747 0.39312 0.35483 0.0
C2185 C 0.87536 0.39795 0.31757 0.0
C2186 C 0.89863 0.40242 0.29873 0.0
C2187 C 0.89681 0.40861 0.26425 0.0
C2188 C 0.8718 0.41028 0.24822 0.0
C2189 C 0.84855 0.40563 0.26658 0.0
C2190 C 0.85028 0.39965 0.30114 0.0
C2191 C 0.95905 0.4503 0.44343 0.0
C2192 C 0.9496 0.46322 0.47088 0.0
C2193 C 0.9418 0.43209 0.42462 0.0
C2194 C 0.91473 0.42659 0.43267 0.0
C2195 C 0.90522 0.43982 0.45975 0.0
C2196 C 0.92253 0.4577 0.47892 0.0
C2197 C 0.89632 0.40773 0.41183 0.0
C2198 C 0.89501 0.40976 0.37603 0.0
C2199 C 0.87941 0.38848 0.42682 0.0
C2200 C 0.87931 0.38524 0.46437 0.0
C2201 C 0.85544 0.38576 0.4816 0.0
C2202 C 0.85522 0.38298 0.51708 0.0
C2203 C 0.87869 0.37944 0.53553 0.0
C2204 C 0.90237 0.37849 0.51853 0.0
C2205 C 0.90278 0.38143 0.48308 0.0
H2206 H 0.8785 0.37742 0.56297 0.0
H2207 H 0.87043 0.41501 0.2215 0.0
H2208 H 0.7216 0.77396 0.38109 0.0
H2209 H 0.69579 0.80532 0.4019 0.0
H2210 H 0.69295 0.8352 0.3008 0.0
H2211 H 0.71975 0.8038 0.2799 0.0
H2212 H 0.70006 0.87224 0.34662 0.0
H2213 H 0.63911 0.7986 0.33398 0.0
H2214 H 0.62101 0.75488 0.34026 0.0
H2215 H 0.61941 0.76653 0.44926 0.0
H2216 H 0.63771 0.81025 0.44371 0.0
H2217 H 0.56665 0.91198 0.3945 0.0
H2218 H 0.59559 0.88344 0.37301 0.0
H2219 H 0.65754 0.91234 0.44841 0.0
H2220 H 0.62856 0.94134 0.47034 0.0
H2221 H 0.61997 0.84669 0.41352 0.0
H2222 H 0.69831 0.92026 0.41592 0.0
H2223 H 0.71146 0.9639 0.40188 0.0
H2224 H 0.67124 0.95053 0.30252 0.0
H2225 H 0.65742 0.90697 0.3164 0.0
C2226 C 0.71546 0.78712 0.36311 0.0
C2227 C 0.72255 0.78613 0.32868 0.0
C2228 C 0.70054 0.80511 0.37511 0.0
C2229 C 0.69179 0.82257 0.35298 0.0
C2230 C 0.69923 0.82195 0.31853 0.0
C2231 C 0.71444 0.8039 0.30648 0.0
C2232 C 0.67484 0.84113 0.36619 0.0
C2233 C 0.68264 0.86646 0.36131 0.0
C2234 C 0.65162 0.83402 0.38502 0.0
C2235 C 0.64039 0.80768 0.38849 0.0
C2236 C 0.63521 0.79181 0.35935 0.0
C2237 C 0.62481 0.76701 0.36276 0.0
C2238 C 0.61922 0.75789 0.39516 0.0
C2239 C 0.62388 0.77359 0.42419 0.0
C2240 C 0.6343 0.79839 0.42092 0.0
C2241 C 0.58643 0.91244 0.40673 0.0
C2242 C 0.59515 0.92922 0.43428 0.0
C2243 C 0.60304 0.89601 0.39421 0.0
C2244 C 0.62898 0.8958 0.40866 0.0
C2245 C 0.63782 0.91233 0.43636 0.0
C2246 C 0.62114 0.92889 0.44901 0.0
C2247 C 0.64598 0.87753 0.39522 0.0
C2248 C 0.63782 0.85226 0.39952 0.0
C2249 C 0.66847 0.88457 0.37544 0.0
C2250 C 0.6766 0.91062 0.36733 0.0
C2251 C 0.69207 0.92676 0.39125 0.0
C2252 C 0.69964 0.95144 0.38332 0.0
C2253 C 0.6921 0.96001 0.35138 0.0
C2254 C 0.67694 0.94392 0.32732 0.0
C2255 C 0.66917 0.91928 0.33525 0.0
H2256 H 0.69806 0.9791 0.34524 0.0
H2257 H 0.61116 0.7387 0.39774 0.0
H2258 H 0.17034 0.73754 0.34467 0.0
H2259 H 0.13325 0.71412 0.37343 0.0
H2260 H 0.18595 0.6627 0.40719 0.0
H2261 H 0.2233 0.68675 0.38007 0.0
H2262 H 0.11543 0.66759 0.3521 0.0
H2263 H 0.17727 0.64612 0.46202 0.0
H2264 H 0.20534 0.66341 0.5126 0.0
H2265 H 0.15285 0.718 0.52738 0.0
H2266 H 0.12443 0.70078 0.47694 0.0
H2267 H 0.05843 0.54978 0.39107 0.0
H2268 H 0.08428 0.58882 0.37851 0.0
H2269 H 0.06072 0.62108 0.47259 0.0
H2270 H 0.03607 0.58108 0.48656 0.0
H2271 H 0.10941 0.63488 0.46922 0.0
H2272 H 0.03851 0.63752 0.38641 0.0
H2273 H 1.00506 0.62325 0.33967 0.0
H2274 H 0.06815 0.61308 0.27245 0.0
H2275 H 0.10199 0.62696 0.31888 0.0
C2276 C 0.17416 0.72172 0.35933 0.0
C2277 C 0.19958 0.71386 0.36022 0.0
C2278 C 0.153 0.7084 0.37578 0.0
C2279 C 0.15688 0.6869 0.39311 0.0
C2280 C 0.18265 0.67975 0.39532 0.0
C2281 C 0.20395 0.69334 0.37941 0.0
C2282 C 0.13343 0.66971 0.40331 0.0
C2283 C 0.11399 0.66044 0.37772 0.0
C2284 C 0.13098 0.6611 0.43692 0.0
C2285 C 0.14888 0.67223 0.4658 0.0
C2286 C 0.17179 0.66181 0.47608 0.0
C2287 C 0.18775 0.67158 0.50469 0.0
C2288 C 0.18089 0.6918 0.52322 0.0
C2289 C 0.15816 0.70236 0.513 0.0
C2290 C 0.14217 0.69262 0.48438 0.0
C2291 C 0.05811 0.56528 0.40878 0.0
C2292 C 0.04497 0.56232 0.43973 0.0
C2293 C 0.07288 0.58779 0.40143 0.0
C2294 C 0.07413 0.60827 0.42417 0.0
C2295 C 0.06007 0.60566 0.45451 0.0
C2296 C 0.04578 0.58284 0.46235 0.0
C2297 C 0.09206 0.63147 0.41739 0.0
C2298 C 0.11044 0.64205 0.4436 0.0
C2299 C 0.09313 0.64167 0.38434 0.0
C2300 C 0.07281 0.63322 0.35625 0.0
C2301 C 0.04526 0.6321 0.36174 0.0
C2302 C 0.02623 0.6241 0.33527 0.0
C2303 C 0.03447 0.61725 0.30312 0.0
C2304 C 0.06178 0.61841 0.29736 0.0
C2305 C 0.0809 0.6264 0.32373 0.0
H2306 H 0.0197 0.61107 0.28267 0.0
H2307 H 0.19316 0.69926 0.54548 0.0
H2308 H 0.29907 0.20324 0.27674 0.0
H2309 H 0.32542 0.17293 0.30236 0.0
H2310 H 0.36263 0.22841 0.37615 0.0
H2311 H 0.33607 0.25842 0.35115 0.0
H2312 H 0.39957 0.19905 0.3472 0.0
H2313 H 0.31463 0.18932 0.40134 0.0
H2314 H 0.26523 0.18208 0.40174 0.0
H2315 H 0.26449 0.11134 0.35137 0.0
H2316 H 0.3139 0.11834 0.35015 0.0
H2317 H 0.45846 0.1226 0.46661 0.0
H2318 H 0.43419 0.15333 0.43895 0.0
H2319 H 0.38103 0.0949 0.38539 0.0
H2320 H 0.40426 0.06436 0.41421 0.0
H2321 H 0.35213 0.12629 0.40293 0.0
H2322 H 0.43585 0.13475 0.34726 0.0
H2323 H 0.48509 0.14142 0.34399 0.0
H2324 H 0.48835 0.21304 0.39272 0.0
H2325 H 0.43914 0.20667 0.39666 0.0
C2326 C 0.31319 0.20902 0.29805 0.0
C2327 C 0.31563 0.23328 0.31175 0.0
C2328 C 0.32812 0.19165 0.31286 0.0
C2329 C 0.34608 0.19831 0.34132 0.0
C2330 C 0.34906 0.22276 0.35422 0.0
C2331 C 0.33381 0.23991 0.33991 0.0
C2332 C 0.36103 0.17975 0.35863 0.0
C2333 C 0.38922 0.18322 0.35961 0.0
C2334 C 0.34764 0.15881 0.37435 0.0
C2335 C 0.31795 0.15447 0.37533 0.0
C2336 C 0.30392 0.17231 0.39007 0.0
C2337 C 0.27593 0.16824 0.39049 0.0
C2338 C 0.26173 0.14628 0.37654 0.0
C2339 C 0.27551 0.12835 0.36214 0.0
C2340 C 0.30352 0.13235 0.36159 0.0
C2341 C 0.44167 0.11634 0.44882 0.0
C2342 C 0.43346 0.09093 0.44263 0.0
C2343 C 0.42779 0.13398 0.43278 0.0
C2344 C 0.40581 0.1267 0.40934 0.0
C2345 C 0.39774 0.10128 0.40325 0.0
C2346 C 0.41121 0.08372 0.41974 0.0
C2347 C 0.39096 0.14527 0.39133 0.0
C2348 C 0.36267 0.14193 0.39034 0.0
C2349 C 0.40429 0.16615 0.37514 0.0
C2350 C 0.43385 0.17013 0.37255 0.0
C2351 C 0.44709 0.15186 0.35745 0.0
C2352 C 0.47499 0.1556 0.35547 0.0
C2353 C 0.48985 0.17761 0.36823 0.0
C2354 C 0.47682 0.19598 0.38289 0.0
C2355 C 0.44892 0.19233 0.38498 0.0
H2356 H 0.51145 0.18046 0.36669 0.0
H2357 H 0.24007 0.14313 0.37701 0.0
H2358 H 0.73194 0.8124 0.72525 0.0
H2359 H 0.70617 0.84306 0.69957 0.0
H2360 H 0.67775 0.79118 0.61667 0.0
H2361 H 0.70405 0.76119 0.6415 0.0
H2362 H 0.69153 0.83289 0.59032 0.0
H2363 H 0.64009 0.8084 0.68891 0.0
H2364 H 0.63167 0.80353 0.75031 0.0
H2365 H 0.65077 0.8819 0.76778 0.0
H2366 H 0.6604 0.88706 0.70715 0.0
H2367 H 0.58296 0.89534 0.52236 0.0
H2368 H 0.60803 0.8648 0.54997 0.0
H2369 H 0.649 0.92185 0.61877 0.0
H2370 H 0.62479 0.95232 0.59081 0.0
H2371 H 0.62889 0.87846 0.65232 0.0
H2372 H 0.68179 0.90406 0.55866 0.0
H2373 H 0.69375 0.91183 0.49903 0.0
H2374 H 0.67482 0.83458 0.47331 0.0
H2375 H 0.66179 0.82635 0.5326 0.0
C2376 C 0.71992 0.80752 0.70178 0.0
C2377 C 0.71996 0.78429 0.68552 0.0
C2378 C 0.7051 0.82506 0.68705 0.0
C2379 C 0.68961 0.81958 0.65605 0.0
C2380 C 0.68946 0.79615 0.64036 0.0
C2381 C 0.70445 0.77887 0.65476 0.0
C2382 C 0.67419 0.83811 0.63902 0.0
C2383 C 0.67747 0.84246 0.6039 0.0
C2384 C 0.65646 0.85153 0.65666 0.0
C2385 C 0.65132 0.84808 0.69348 0.0
C2386 C 0.64293 0.82453 0.706 0.0
C2387 C 0.63798 0.8217 0.74077 0.0
C2388 C 0.64092 0.84233 0.76314 0.0
C2389 C 0.64881 0.86582 0.75076 0.0
C2390 C 0.65409 0.86871 0.71619 0.0
C2391 C 0.5972 0.90129 0.5435 0.0
C2392 C 0.60177 0.92627 0.55444 0.0
C2393 C 0.61166 0.88386 0.55914 0.0
C2394 C 0.63052 0.89097 0.58652 0.0
C2395 C 0.63462 0.91582 0.5978 0.0
C2396 C 0.62074 0.93326 0.5817 0.0
C2397 C 0.64594 0.87271 0.60377 0.0
C2398 C 0.64272 0.86856 0.63882 0.0
C2399 C 0.66393 0.85967 0.58621 0.0
C2400 C 0.6703 0.86465 0.55002 0.0
C2401 C 0.67956 0.88877 0.54016 0.0
C2402 C 0.68662 0.89324 0.50642 0.0
C2403 C 0.68475 0.87372 0.4823 0.0
C2404 C 0.67585 0.84969 0.49191 0.0
C2405 C 0.66861 0.84511 0.52558 0.0
H2406 H 0.69037 0.87719 0.45623 0.0
H2407 H 0.63693 0.84014 0.79 0.0
H2408 H 0.66749 0.23689 0.33806 0.0
H2409 H 0.63419 0.20443 0.35882 0.0
H2410 H 0.69643 0.15893 0.37842 0.0
H2411 H 0.72972 0.19121 0.35776 0.0
H2412 H 0.65427 0.13865 0.3306 0.0
H2413 H 0.66437 0.17503 0.44932 0.0
H2414 H 0.66465 0.21016 0.49035 0.0
H2415 H 0.58685 0.22215 0.45024 0.0
H2416 H 0.58617 0.18704 0.40905 0.0
H2417 H 0.60182 0.0324 0.40997 0.0
H2418 H 0.62511 0.07078 0.39008 0.0
H2419 H 0.5546 0.10623 0.40416 0.0
H2420 H 0.53171 0.06791 0.42658 0.0
H2421 H 0.59432 0.13503 0.42832 0.0
H2422 H 0.57885 0.09222 0.32064 0.0
H2423 H 0.57707 0.05749 0.27876 0.0
H2424 H 0.66247 0.05952 0.29117 0.0
H2425 H 0.66477 0.09412 0.33331 0.0
C2426 C 0.67414 0.22028 0.34788 0.0
C2427 C 0.701 0.21631 0.34601 0.0
C2428 C 0.65514 0.20181 0.35969 0.0
C2429 C 0.66294 0.17932 0.36977 0.0
C2430 C 0.69012 0.17619 0.37054 0.0
C2431 C 0.70908 0.19463 0.35886 0.0
C2432 C 0.64266 0.15791 0.37507 0.0
C2433 C 0.64124 0.13765 0.35209 0.0
C2434 C 0.62477 0.1574 0.40182 0.0
C2435 C 0.62526 0.17855 0.4262 0.0
C2436 C 0.6474 0.18525 0.44923 0.0
C2437 C 0.6476 0.20511 0.47253 0.0
C2438 C 0.62579 0.21839 0.47288 0.0
C2439 C 0.60373 0.21186 0.44993 0.0
C2440 C 0.60341 0.19198 0.42664 0.0
C2441 C 0.59104 0.0482 0.40809 0.0
C2442 C 0.56488 0.04716 0.41938 0.0
C2443 C 0.60435 0.07017 0.39652 0.0
C2444 C 0.59142 0.09132 0.39472 0.0
C2445 C 0.56493 0.09012 0.4051 0.0
C2446 C 0.55183 0.06824 0.41768 0.0
C2447 C 0.60657 0.11498 0.38468 0.0
C2448 C 0.60693 0.1359 0.40646 0.0
C2449 C 0.62314 0.11628 0.35619 0.0
C2450 C 0.62194 0.09571 0.33033 0.0
C2451 C 0.59724 0.0852 0.31455 0.0
C2452 C 0.59614 0.06553 0.29075 0.0
C2453 C 0.61962 0.05624 0.28243 0.0
C2454 C 0.64428 0.06669 0.29773 0.0
C2455 C 0.64551 0.0864 0.32146 0.0
H2456 H 0.61873 0.04101 0.264 0.0
H2457 H 0.62596 0.23374 0.49096 0.0
H2458 H 0.82306 0.72102 0.39956 0.0
H2459 H 0.84232 0.69591 0.44246 0.0
H2460 H 0.80666 0.62972 0.38644 0.0
H2461 H 0.78684 0.65486 0.34358 0.0
H2462 H 0.8042 0.6259 0.45767 0.0
H2463 H 0.86902 0.65274 0.37375 0.0
H2464 H 0.89616 0.68389 0.34059 0.0
H2465 H 0.93397 0.71773 0.43394 0.0
H2466 H 0.90685 0.68692 0.46766 0.0
H2467 H 0.88731 0.53595 0.4969 0.0
H2468 H 0.85866 0.56503 0.47575 0.0
H2469 H 0.91201 0.62512 0.52565 0.0
H2470 H 0.94159 0.59601 0.54561 0.0
H2471 H 0.90362 0.63628 0.46579 0.0
H2472 H 0.84544 0.60037 0.54796 0.0
H2473 H 0.81768 0.56914 0.57983 0.0
H2474 H 0.7669 0.54957 0.48941 0.0
H2475 H 0.79458 0.58066 0.45696 0.0
C2476 C 0.8192 0.7011 0.3965 0.0
C2477 C 0.80382 0.68977 0.36812 0.0
C2478 C 0.83009 0.68683 0.42108 0.0
C2479 C 0.82604 0.66104 0.41738 0.0
C2480 C 0.80989 0.64964 0.38969 0.0
C2481 C 0.79883 0.66394 0.36514 0.0
C2482 C 0.84059 0.64605 0.44062 0.0
C2483 C 0.82594 0.62783 0.45947 0.0
C2484 C 0.8689 0.64947 0.44358 0.0
C2485 C 0.88553 0.6678 0.42327 0.0
C2486 C 0.88293 0.66697 0.38722 0.0
C2487 C 0.89836 0.68453 0.36831 0.0
C2488 C 0.91667 0.70286 0.38515 0.0
C2489 C 0.9197 0.70358 0.42093 0.0
C2490 C 0.90429 0.68608 0.43996 0.0
C2491 C 0.89266 0.5553 0.50409 0.0
C2492 C 0.91679 0.56378 0.52267 0.0
C2493 C 0.87608 0.57194 0.49215 0.0
C2494 C 0.88286 0.59731 0.49953 0.0
C2495 C 0.90631 0.60563 0.51966 0.0
C2496 C 0.92318 0.58901 0.53112 0.0
C2497 C 0.86738 0.61525 0.48274 0.0
C2498 C 0.88187 0.63425 0.4649 0.0
C2499 C 0.83889 0.61224 0.48062 0.0
C2500 C 0.82216 0.59321 0.50007 0.0
C2501 C 0.82836 0.58956 0.53489 0.0
C2502 C 0.81263 0.57178 0.55306 0.0
C2503 C 0.79046 0.55741 0.53669 0.0
C2504 C 0.78403 0.56079 0.50211 0.0
C2505 C 0.79975 0.57857 0.48385 0.0
H2506 H 0.77829 0.54362 0.55077 0.0
H2507 H 0.9286 0.71645 0.37047 0.0
H2508 H 0.30335 0.8333 0.29933 0.0
H2509 H 0.3311 0.8664 0.33243 0.0
H2510 H 0.36469 0.81242 0.39375 0.0
H2511 H 0.33555 0.77912 0.36139 0.0
H2512 H 0.36044 0.8489 0.43303 0.0
H2513 H 0.39834 0.8426 0.32506 0.0
H2514 H 0.40189 0.84072 0.26225 0.0
H2515 H 0.37884 0.9132 0.25523 0.0
H2516 H 0.37476 0.91539 0.31797 0.0
H2517 H 0.48208 0.95274 0.43876 0.0
H2518 H 0.4554 0.91476 0.41648 0.0
H2519 H 0.38434 0.93843 0.45644 0.0
H2520 H 0.41087 0.97732 0.47779 0.0
H2521 H 0.41138 0.91494 0.3679 0.0
H2522 H 0.35079 0.87787 0.48575 0.0
H2523 H 0.35877 0.86958 0.547 0.0
H2524 H 0.44325 0.8739 0.53263 0.0
H2525 H 0.43584 0.88213 0.47149 0.0
C2526 C 0.31655 0.82857 0.3201 0.0
C2527 C 0.31769 0.80382 0.32776 0.0
C2528 C 0.33252 0.84746 0.33885 0.0
C2529 C 0.3506 0.84197 0.365 0.0
C2530 C 0.35102 0.81715 0.37356 0.0
C2531 C 0.33447 0.79815 0.35515 0.0
C2532 C 0.36928 0.86222 0.38271 0.0
C2533 C 0.37142 0.86341 0.41873 0.0
C2534 C 0.38461 0.88066 0.36414 0.0
C2535 C 0.3861 0.8791 0.32624 0.0
C2536 C 0.39376 0.85804 0.3101 0.0
C2537 C 0.39593 0.85694 0.27452 0.0
C2538 C 0.3907 0.87687 0.25483 0.0
C2539 C 0.38297 0.89782 0.27058 0.0
C2540 C 0.38073 0.899 0.30614 0.0
C2541 C 0.46079 0.94996 0.44304 0.0
C2542 C 0.44854 0.96816 0.46005 0.0
C2543 C 0.44563 0.92814 0.43039 0.0
C2544 C 0.418 0.92377 0.43502 0.0
C2545 C 0.40575 0.94141 0.45298 0.0
C2546 C 0.42088 0.96356 0.46515 0.0
C2547 C 0.4017 0.90195 0.41799 0.0
C2548 C 0.40004 0.90057 0.38207 0.0
C2549 C 0.38801 0.88274 0.43659 0.0
C2550 C 0.39276 0.88093 0.47411 0.0
C2551 C 0.3711 0.87739 0.49579 0.0
C2552 C 0.37552 0.87258 0.53045 0.0
C2553 C 0.40148 0.87109 0.54355 0.0
C2554 C 0.42317 0.87514 0.52241 0.0
C2555 C 0.41889 0.88003 0.48781 0.0
H2556 H 0.40482 0.86653 0.56998 0.0
H2557 H 0.39277 0.87615 0.22738 0.0
H2558 H 0.2715 0.35849 0.3401 0.0
H2559 H 0.25279 0.3958 0.35825 0.0
H2560 H 0.17344 0.36058 0.32593 0.0
H2561 H 0.19176 0.3235 0.30837 0.0
H2562 H 0.18897 0.40856 0.29925 0.0
H2563 H 0.19215 0.36205 0.40387 0.0
H2564 H 0.21462 0.34368 0.45213 0.0
H2565 H 0.25378 0.41536 0.48585 0.0
H2566 H 0.23249 0.43408 0.43677 0.0
H2567 H 0.07569 0.43816 0.3719 0.0
H2568 H 0.11494 0.42121 0.35271 0.0
H2569 H 0.16689 0.48141 0.40427 0.0
H2570 H 0.12755 0.49867 0.42363 0.0
H2571 H 0.17898 0.43388 0.42033 0.0
H2572 H 0.1685 0.48061 0.32033 0.0
H2573 H 0.13973 0.49758 0.27676 0.0
H2574 H 0.1091 0.42424 0.23947 0.0
H2575 H 0.13777 0.40684 0.28271 0.0
C2576 C 0.25006 0.35877 0.33728 0.0
C2577 C 0.23297 0.33831 0.32294 0.0
C2578 C 0.2395 0.37998 0.3475 0.0
C2579 C 0.21188 0.38081 0.34304 0.0
C2580 C 0.19487 0.36021 0.32923 0.0
C2581 C 0.2053 0.33905 0.31946 0.0
C2582 C 0.20003 0.40297 0.3522 0.0
C2583 C 0.18713 0.41441 0.3257 0.0
C2584 C 0.1983 0.41086 0.38671 0.0
C2585 C 0.21137 0.3994 0.41591 0.0
C2586 C 0.20609 0.37385 0.42098 0.0
C2587 C 0.21861 0.36336 0.44854 0.0
C2588 C 0.2359 0.37831 0.47179 0.0
C2589 C 0.24064 0.40378 0.46758 0.0
C2590 C 0.22848 0.41431 0.43977 0.0
C2591 C 0.0954 0.4481 0.37855 0.0
C2592 C 0.0986 0.46961 0.39938 0.0
C2593 C 0.1178 0.43842 0.3676 0.0
C2594 C 0.14368 0.45025 0.37696 0.0
C2595 C 0.14701 0.47217 0.39678 0.0
C2596 C 0.12455 0.48194 0.4077 0.0
C2597 C 0.1669 0.43838 0.36759 0.0
C2598 C 0.18197 0.42892 0.39388 0.0
C2599 C 0.1705 0.4321 0.33303 0.0
C2600 C 0.1553 0.44245 0.30474 0.0
C2601 C 0.15579 0.46812 0.30263 0.0
C2602 C 0.13945 0.47781 0.27807 0.0
C2603 C 0.12247 0.46199 0.25554 0.0
C2604 C 0.12222 0.43646 0.25702 0.0
C2605 C 0.13868 0.42668 0.28136 0.0
H2606 H 0.10958 0.46953 0.23684 0.0
H2607 H 0.24538 0.37019 0.49331 0.0
H2608 H 0.31236 0.2039 0.73456 0.0
H2609 H 0.33803 0.17229 0.71161 0.0
H2610 H 0.33187 0.20237 0.61096 0.0
H2611 H 0.30631 0.23335 0.63346 0.0
H2612 H 0.32348 0.15409 0.60455 0.0
H2613 H 0.39082 0.21318 0.66568 0.0
H2614 H 0.41104 0.23711 0.71695 0.0
H2615 H 0.41687 0.16991 0.76961 0.0
H2616 H 0.39641 0.1456 0.71876 0.0
H2617 H 0.42312 0.09827 0.51739 0.0
H2618 H 0.39425 0.12565 0.5431 0.0
H2619 H 0.41485 0.10051 0.64357 0.0
H2620 H 0.44528 0.07489 0.61792 0.0
H2621 H 0.41407 0.14453 0.65248 0.0
H2622 H 0.34838 0.08472 0.59239 0.0
H2623 H 0.32737 0.05989 0.5423 0.0
H2624 H 0.31672 0.12608 0.48957 0.0
H2625 H 0.33787 0.15131 0.53925 0.0
C2626 C 0.31656 0.20372 0.70759 0.0
C2627 C 0.30735 0.22132 0.68596 0.0
C2628 C 0.33132 0.18567 0.69441 0.0
C2629 C 0.33725 0.18485 0.65934 0.0
C2630 C 0.32769 0.20232 0.63794 0.0
C2631 C 0.3131 0.22022 0.65101 0.0
C2632 C 0.35355 0.16628 0.64446 0.0
C2633 C 0.34338 0.15213 0.61497 0.0
C2634 C 0.3793 0.163 0.65819 0.0
C2635 C 0.39186 0.1776 0.68857 0.0
C2636 C 0.39628 0.20352 0.68827 0.0
C2637 C 0.4078 0.21715 0.71724 0.0
C2638 C 0.41517 0.20504 0.74655 0.0
C2639 C 0.41112 0.17927 0.74691 0.0
C2640 C 0.39959 0.16556 0.71802 0.0
C2641 C 0.42122 0.09844 0.54488 0.0
C2642 C 0.43638 0.08424 0.56553 0.0
C2643 C 0.40447 0.11405 0.55976 0.0
C2644 C 0.40158 0.11515 0.59564 0.0
C2645 C 0.41645 0.10042 0.616 0.0
C2646 C 0.43378 0.08551 0.60124 0.0
C2647 C 0.3841 0.13213 0.61231 0.0
C2648 C 0.39407 0.14612 0.64212 0.0
C2649 C 0.35799 0.13501 0.59909 0.0
C2650 C 0.3449 0.11989 0.56942 0.0
C2651 C 0.34164 0.09397 0.57006 0.0
C2652 C 0.3297 0.07983 0.54175 0.0
C2653 C 0.32077 0.0914 0.51275 0.0
C2654 C 0.32365 0.11715 0.51205 0.0
C2655 C 0.33557 0.13137 0.54029 0.0
H2656 H 0.31157 0.08042 0.49084 0.0
H2657 H 0.42407 0.21562 0.76895 0.0
H2658 H 0.85692 0.27862 0.66755 0.0
H2659 H 0.89624 0.30402 0.64736 0.0
H2660 H 0.84546 0.35247 0.60036 0.0
H2661 H 0.80577 0.32742 0.62174 0.0
H2662 H 0.9172 0.32149 0.58944 0.0
H2663 H 0.87232 0.41048 0.62097 0.0
H2664 H 0.83822 0.42441 0.65763 0.0
H2665 H 0.84937 0.36737 0.72838 0.0
H2666 H 0.88374 0.35333 0.69235 0.0
H2667 H 0.99209 0.43011 0.52996 0.0
H2668 H 0.96473 0.39233 0.54466 0.0
H2669 H 0.9749 0.41407 0.65201 0.0
H2670 H 1.00201 0.45243 0.63734 0.0
H2671 H 0.92533 0.4075 0.63594 0.0
H2672 H 0.99524 0.35936 0.61665 0.0
H2673 H 0.03192 0.34427 0.58609 0.0
H2674 H 0.97677 0.31727 0.50236 0.0
H2675 H 0.93981 0.33249 0.53219 0.0
C2676 C 0.85403 0.29435 0.65216 0.0
C2677 C 0.8284 0.30134 0.64656 0.0
C2678 C 0.87655 0.30872 0.64045 0.0
C2679 C 0.87381 0.33023 0.62277 0.0
C2680 C 0.84798 0.33603 0.61434 0.0
C2681 C 0.82534 0.32169 0.62636 0.0
C2682 C 0.898 0.34804 0.61745 0.0
C2683 C 0.91907 0.34036 0.59943 0.0
C2684 C 0.90081 0.37226 0.63181 0.0
C2685 C 0.88039 0.38075 0.65382 0.0
C2686 C 0.86754 0.401 0.64442 0.0
C2687 C 0.84816 0.40889 0.66506 0.0
C2688 C 0.84158 0.39673 0.69525 0.0
C2689 C 0.85442 0.37671 0.70493 0.0
C2690 C 0.87383 0.36878 0.6844 0.0
C2691 C 0.98926 0.42659 0.55683 0.0
C2692 C 0.99863 0.44462 0.58243 0.0
C2693 C 0.9735 0.40481 0.56525 0.0
C2694 C 0.96714 0.40052 0.59943 0.0
C2695 C 0.97913 0.41719 0.62537 0.0
C2696 C 0.99471 0.43909 0.61696 0.0
C2697 C 0.94478 0.38125 0.6074 0.0
C2698 C 0.92383 0.38865 0.62598 0.0
C2699 C 0.94264 0.35659 0.59457 0.0
C2700 C 0.96477 0.34724 0.57659 0.0
C2701 C 0.99096 0.35036 0.59161 0.0
C2702 C 1.0118 0.34175 0.57444 0.0
C2703 C 1.00669 0.32986 0.54228 0.0
C2704 C 0.9807 0.32649 0.52727 0.0
C2705 C 0.95979 0.33507 0.54433 0.0
H2706 H 0.02285 0.32321 0.52902 0.0
H2707 H 0.82655 0.40286 0.71118 0.0
H2708 H 0.21738 0.72738 0.65217 0.0
H2709 H 0.18877 0.69512 0.61758 0.0
H2710 H 0.1946 0.64415 0.69933 0.0
H2711 H 0.22202 0.67639 0.73426 0.0
H2712 H 0.19269 0.65108 0.59127 0.0
H2713 H 0.13826 0.60739 0.70795 0.0
H2714 H 0.12557 0.6204 0.76524 0.0
H2715 H 0.12485 0.69435 0.73119 0.0
H2716 H 0.13719 0.68172 0.67359 0.0
H2717 H 0.1291 0.53196 0.5441 0.0
H2718 H 0.15566 0.56719 0.57483 0.0
H2719 H 0.0832 0.59859 0.59316 0.0
H2720 H 0.05654 0.56246 0.56454 0.0
H2721 H 0.11438 0.60622 0.64673 0.0
H2722 H 0.12653 0.61529 0.52706 0.0
H2723 H 0.13721 0.59911 0.47056 0.0
H2724 H 0.21869 0.5977 0.50662 0.0
H2725 H 0.20819 0.61247 0.56394 0.0
C2726 C 0.21262 0.70922 0.66258 0.0
C2727 C 0.22155 0.70447 0.69607 0.0
C2728 C 0.19632 0.69082 0.64282 0.0
C2729 C 0.18895 0.66738 0.65619 0.0
C2730 C 0.19927 0.66229 0.68885 0.0
C2731 C 0.21504 0.68072 0.70877 0.0
C2732 C 0.16989 0.64831 0.6368 0.0
C2733 C 0.17547 0.64135 0.60327 0.0
C2734 C 0.14701 0.63599 0.65215 0.0
C2735 C 0.13883 0.64363 0.68649 0.0
C2736 C 0.1352 0.62639 0.71261 0.0
C2737 C 0.12812 0.6337 0.74516 0.0
C2738 C 0.12447 0.65819 0.75187 0.0
C2739 C 0.12776 0.6754 0.72599 0.0
C2740 C 0.13482 0.66818 0.69339 0.0
C2741 C 0.11893 0.54636 0.55493 0.0
C2742 C 0.0909 0.54469 0.55193 0.0
C2743 C 0.13407 0.56652 0.57231 0.0
C2744 C 0.12151 0.5859 0.58558 0.0
C2745 C 0.09338 0.58396 0.58306 0.0
C2746 C 0.07817 0.56338 0.56666 0.0
C2747 C 0.13769 0.60832 0.60169 0.0
C2748 C 0.13143 0.61605 0.63452 0.0
C2749 C 0.15955 0.62161 0.58535 0.0
C2750 C 0.16647 0.61479 0.55003 0.0
C2751 C 0.1467 0.6114 0.52306 0.0
C2752 C 0.15265 0.60224 0.49095 0.0
C2753 C 0.17857 0.59728 0.48507 0.0
C2754 C 0.19859 0.60147 0.51127 0.0
C2755 C 0.19261 0.6101 0.54365 0.0
H2756 H 0.18318 0.59037 0.46012 0.0
H2757 H 0.11907 0.66383 0.77711 0.0
loop_
_geom_bond_atom_site_label_1
_geom_bond_atom_site_label_2
_geom_bond_distance
_geom_bond_site_symmetry_2
_ccdc_geom_bond_type
Tb0 O3 2.453 . S
Tb0 O4 2.596 . S
Tb0 O5 2.374 . S
Tb0 O13 2.343 . S
Tb0 O15 2.353 . S
Tb0 O17 2.427 . S
Tb0 O18 2.513 . S
C1 O5 1.251 . S
C1 O7 1.263 . S
Tb2 O4 2.343 . S
Tb2 O7 2.353 . S
Tb2 O10 2.427 . S
Tb2 O11 2.513 . S
Tb2 O12 2.453 . S
Tb2 O13 2.596 . S
Tb2 O14 2.374 . S
O3 Tb0 2.453 . S
O3 C19 1.245 . S
O4 Tb0 2.596 . S
O4 Tb2 2.343 . S
O4 C19 1.259 . S
O5 Tb0 2.374 . S
O5 C1 1.251 . S
C6 O10 1.275 . S
C6 O11 1.246 . S
O7 C1 1.263 . S
O7 Tb2 2.353 . S
C8 O12 1.245 . S
C8 O13 1.259 . S
C9 O14 1.250 . S
C9 O15 1.263 . S
O10 Tb2 2.427 . S
O10 C6 1.275 . S
O11 Tb2 2.513 . S
O11 C6 1.246 . S
O12 Tb2 2.453 . S
O12 C8 1.245 . S
O13 Tb0 2.343 . S
O13 Tb2 2.596 . S
O13 C8 1.259 . S
O14 Tb2 2.374 . S
O14 C9 1.250 . S
O15 Tb0 2.353 . S
O15 C9 1.263 . S
C16 O17 1.275 . S
C16 O18 1.246 . S
O17 Tb0 2.427 . S
O17 C16 1.275 . S
O18 Tb0 2.513 . S
O18 C16 1.246 . S
C19 O3 1.245 . S
C19 O4 1.259 . S
Tb20 O23 2.453 . S
Tb20 O24 2.596 . S
Tb20 O25 2.374 . S
Tb20 O33 2.343 . S
Tb20 O35 2.353 . S
Tb20 O37 2.427 . S
Tb20 O38 2.513 . S
C21 O25 1.251 . S
C21 O27 1.263 . S
Tb22 O24 2.343 . S
Tb22 O27 2.353 . S
Tb22 O30 2.427 . S
Tb22 O31 2.513 . S
Tb22 O32 2.453 . S
Tb22 O33 2.596 . S
Tb22 O34 2.374 . S
O23 Tb20 2.453 . S
O23 C39 1.245 . S
O24 Tb20 2.596 . S
O24 Tb22 2.343 . S
O24 C39 1.259 . S
O25 Tb20 2.374 . S
O25 C21 1.251 . S
C26 O30 1.275 . S
C26 O31 1.246 . S
O27 C21 1.263 . S
O27 Tb22 2.353 . S
C28 O32 1.245 . S
C28 O33 1.259 . S
C29 O34 1.250 . S
C29 O35 1.263 . S
O30 Tb22 2.427 . S
O30 C26 1.275 . S
O31 Tb22 2.513 . S
O31 C26 1.246 . S
O32 Tb22 2.453 . S
O32 C28 1.245 . S
O33 Tb20 2.343 . S
O33 Tb22 2.596 . S
O33 C28 1.259 . S
O34 Tb22 2.374 . S
O34 C29 1.250 . S
O35 Tb20 2.353 . S
O35 C29 1.263 . S
C36 O37 1.275 . S
C36 O38 1.246 . S
O37 Tb20 2.427 . S
O37 C36 1.275 . S
O38 Tb20 2.513 . S
O38 C36 1.246 . S
C39 O23 1.245 . S
C39 O24 1.259 . S
Tb40 O43 2.453 . S
Tb40 O44 2.596 . S
Tb40 O45 2.374 . S
Tb40 O53 2.343 . S
Tb40 O55 2.353 . S
Tb40 O57 2.427 . S
Tb40 O58 2.513 . S
C41 O45 1.251 . S
C41 O47 1.263 . S
Tb42 O44 2.343 . S
Tb42 O47 2.353 . S
Tb42 O50 2.427 . S
Tb42 O51 2.513 . S
Tb42 O52 2.453 . S
Tb42 O53 2.596 . S
Tb42 O54 2.374 . S
O43 Tb40 2.453 . S
O43 C59 1.245 . S
O44 Tb40 2.596 . S
O44 Tb42 2.343 . S
O44 C59 1.259 . S
O45 Tb40 2.374 . S
O45 C41 1.251 . S
C46 O50 1.275 . S
C46 O51 1.246 . S
O47 C41 1.263 . S
O47 Tb42 2.353 . S
C48 O52 1.245 . S
C48 O53 1.259 . S
C49 O54 1.250 . S
C49 O55 1.263 . S
O50 Tb42 2.427 . S
O50 C46 1.275 . S
O51 Tb42 2.513 . S
O51 C46 1.246 . S
O52 Tb42 2.453 . S
O52 C48 1.245 . S
O53 Tb40 2.343 . S
O53 Tb42 2.596 . S
O53 C48 1.259 . S
O54 Tb42 2.374 . S
O54 C49 1.250 . S
O55 Tb40 2.353 . S
O55 C49 1.263 . S
C56 O57 1.275 . S
C56 O58 1.246 . S
O57 Tb40 2.427 . S
O57 C56 1.275 . S
O58 Tb40 2.513 . S
O58 C56 1.246 . S
C59 O43 1.245 . S
C59 O44 1.259 . S
Tb60 O63 2.453 . S
Tb60 O64 2.596 . S
Tb60 O65 2.374 . S
Tb60 O73 2.343 . S
Tb60 O75 2.353 . S
Tb60 O77 2.427 . S
Tb60 O78 2.513 . S
C61 O65 1.251 . S
C61 O67 1.263 . S
Tb62 O64 2.343 . S
Tb62 O67 2.353 . S
Tb62 O70 2.427 . S
Tb62 O71 2.513 . S
Tb62 O72 2.453 . S
Tb62 O73 2.596 . S
Tb62 O74 2.374 . S
O63 Tb60 2.453 . S
O63 C79 1.245 . S
O64 Tb60 2.596 . S
O64 Tb62 2.343 . S
O64 C79 1.259 . S
O65 Tb60 2.374 . S
O65 C61 1.251 . S
C66 O70 1.275 . S
C66 O71 1.246 . S
O67 C61 1.263 . S
O67 Tb62 2.353 . S
C68 O72 1.245 . S
C68 O73 1.259 . S
C69 O74 1.250 . S
C69 O75 1.263 . S
O70 Tb62 2.427 . S
O70 C66 1.275 . S
O71 Tb62 2.513 . S
O71 C66 1.246 . S
O72 Tb62 2.453 . S
O72 C68 1.245 . S
O73 Tb60 2.343 . S
O73 Tb62 2.596 . S
O73 C68 1.259 . S
O74 Tb62 2.374 . S
O74 C69 1.250 . S
O75 Tb60 2.353 . S
O75 C69 1.263 . S
C76 O77 1.275 . S
C76 O78 1.246 . S
O77 Tb60 2.427 . S
O77 C76 1.275 . S
O78 Tb60 2.513 . S
O78 C76 1.246 . S
C79 O63 1.245 . S
C79 O64 1.259 . S
Tb80 O83 2.453 . S
Tb80 O84 2.596 . S
Tb80 O85 2.374 . S
Tb80 O93 2.343 . S
Tb80 O95 2.353 . S
Tb80 O97 2.427 . S
Tb80 O98 2.513 . S
C81 O85 1.251 . S
C81 O87 1.263 . S
Tb82 O84 2.343 . S
Tb82 O87 2.353 . S
Tb82 O90 2.427 . S
Tb82 O91 2.513 . S
Tb82 O92 2.453 . S
Tb82 O93 2.596 . S
Tb82 O94 2.374 . S
O83 Tb80 2.453 . S
O83 C99 1.245 . S
O84 Tb80 2.596 . S
O84 Tb82 2.343 . S
O84 C99 1.259 . S
O85 Tb80 2.374 . S
O85 C81 1.251 . S
C86 O90 1.275 . S
C86 O91 1.246 . S
O87 C81 1.263 . S
O87 Tb82 2.353 . S
C88 O92 1.245 . S
C88 O93 1.259 . S
C89 O94 1.250 . S
C89 O95 1.263 . S
O90 Tb82 2.427 . S
O90 C86 1.275 . S
O91 Tb82 2.513 . S
O91 C86 1.246 . S
O92 Tb82 2.453 . S
O92 C88 1.245 . S
O93 Tb80 2.343 . S
O93 Tb82 2.596 . S
O93 C88 1.259 . S
O94 Tb82 2.374 . S
O94 C89 1.250 . S
O95 Tb80 2.353 . S
O95 C89 1.263 . S
C96 O97 1.275 . S
C96 O98 1.246 . S
O97 Tb80 2.427 . S
O97 C96 1.275 . S
O98 Tb80 2.513 . S
O98 C96 1.246 . S
C99 O83 1.245 . S
C99 O84 1.259 . S
Tb100 O103 2.453 . S
Tb100 O104 2.596 . S
Tb100 O105 2.374 . S
Tb100 O113 2.343 . S
Tb100 O115 2.353 . S
Tb100 O117 2.427 . S
Tb100 O118 2.513 . S
C101 O105 1.251 . S
C101 O107 1.263 . S
Tb102 O104 2.343 . S
Tb102 O107 2.353 . S
Tb102 O110 2.427 . S
Tb102 O111 2.513 . S
Tb102 O112 2.453 . S
Tb102 O113 2.596 . S
Tb102 O114 2.374 . S
O103 Tb100 2.453 . S
O103 C119 1.245 . S
O104 Tb100 2.596 . S
O104 Tb102 2.343 . S
O104 C119 1.259 . S
O105 Tb100 2.374 . S
O105 C101 1.251 . S
C106 O110 1.275 . S
C106 O111 1.246 . S
O107 C101 1.263 . S
O107 Tb102 2.353 . S
C108 O112 1.245 . S
C108 O113 1.259 . S
C109 O114 1.250 . S
C109 O115 1.263 . S
O110 Tb102 2.427 . S
O110 C106 1.275 . S
O111 Tb102 2.513 . S
O111 C106 1.246 . S
O112 Tb102 2.453 . S
O112 C108 1.245 . S
O113 Tb100 2.343 . S
O113 Tb102 2.596 . S
O113 C108 1.259 . S
O114 Tb102 2.374 . S
O114 C109 1.250 . S
O115 Tb100 2.353 . S
O115 C109 1.263 . S
C116 O117 1.275 . S
C116 O118 1.246 . S
O117 Tb100 2.427 . S
O117 C116 1.275 . S
O118 Tb100 2.513 . S
O118 C116 1.246 . S
C119 O103 1.245 . S
C119 O104 1.259 . S
Tb120 O123 2.453 . S
Tb120 O124 2.596 . S
Tb120 O125 2.374 . S
Tb120 O133 2.343 . S
Tb120 O135 2.353 . S
Tb120 O137 2.427 . S
Tb120 O138 2.513 . S
C121 O125 1.251 . S
C121 O127 1.263 . S
Tb122 O124 2.343 . S
Tb122 O127 2.353 . S
Tb122 O130 2.427 . S
Tb122 O131 2.513 . S
Tb122 O132 2.453 . S
Tb122 O133 2.596 . S
Tb122 O134 2.374 . S
O123 Tb120 2.453 . S
O123 C139 1.245 . S
O124 Tb120 2.596 . S
O124 Tb122 2.343 . S
O124 C139 1.259 . S
O125 Tb120 2.374 . S
O125 C121 1.251 . S
C126 O130 1.275 . S
C126 O131 1.246 . S
O127 C121 1.263 . S
O127 Tb122 2.353 . S
C128 O132 1.245 . S
C128 O133 1.259 . S
C129 O134 1.250 . S
C129 O135 1.263 . S
O130 Tb122 2.427 . S
O130 C126 1.275 . S
O131 Tb122 2.513 . S
O131 C126 1.246 . S
O132 Tb122 2.453 . S
O132 C128 1.245 . S
O133 Tb120 2.343 . S
O133 Tb122 2.596 . S
O133 C128 1.259 . S
O134 Tb122 2.374 . S
O134 C129 1.250 . S
O135 Tb120 2.353 . S
O135 C129 1.263 . S
C136 O137 1.275 . S
C136 O138 1.246 . S
O137 Tb120 2.427 . S
O137 C136 1.275 . S
O138 Tb120 2.513 . S
O138 C136 1.246 . S
C139 O123 1.245 . S
C139 O124 1.259 . S
Tb140 O143 2.453 . S
Tb140 O144 2.596 . S
Tb140 O145 2.374 . S
Tb140 O153 2.343 . S
Tb140 O155 2.353 . S
Tb140 O157 2.427 . S
Tb140 O158 2.513 . S
C141 O145 1.251 . S
C141 O147 1.263 . S
Tb142 O144 2.343 . S
Tb142 O147 2.353 . S
Tb142 O150 2.427 . S
Tb142 O151 2.513 . S
Tb142 O152 2.453 . S
Tb142 O153 2.596 . S
Tb142 O154 2.374 . S
O143 Tb140 2.453 . S
O143 C159 1.245 . S
O144 Tb140 2.596 . S
O144 Tb142 2.343 . S
O144 C159 1.259 . S
O145 Tb140 2.374 . S
O145 C141 1.251 . S
C146 O150 1.275 . S
C146 O151 1.246 . S
O147 C141 1.263 . S
O147 Tb142 2.353 . S
C148 O152 1.245 . S
C148 O153 1.259 . S
C149 O154 1.250 . S
C149 O155 1.263 . S
O150 Tb142 2.427 . S
O150 C146 1.275 . S
O151 Tb142 2.513 . S
O151 C146 1.246 . S
O152 Tb142 2.453 . S
O152 C148 1.245 . S
O153 Tb140 2.343 . S
O153 Tb142 2.596 . S
O153 C148 1.259 . S
O154 Tb142 2.374 . S
O154 C149 1.250 . S
O155 Tb140 2.353 . S
O155 C149 1.263 . S
C156 O157 1.275 . S
C156 O158 1.246 . S
O157 Tb140 2.427 . S
O157 C156 1.275 . S
O158 Tb140 2.513 . S
O158 C156 1.246 . S
C159 O143 1.245 . S
C159 O144 1.259 . S
Co160 O163 2.042 . S
Co160 O170 2.264 . S
Co160 O189 2.286 . S
Co160 O190 2.069 . S
Co160 O192 2.015 1_455 S
Co161 O163 2.122 . S
Co161 O169 2.073 . S
Co161 O170 2.327 . S
Co161 O171 1.976 1_455 S
Co162 O163 2.078 1_545 S
Co162 O165 2.096 1_455 S
Co162 O172 2.108 1_445 S
Co162 O173 2.149 . S
Co162 O177 2.115 . S
Co162 O191 2.138 1_445 S
O163 Co160 2.042 . S
O163 Co161 2.122 . S
O163 Co162 2.078 1_565 S
O163 H164 0.980 . S
H164 O163 0.980 . S
O165 Co162 2.096 1_655 S
O165 Co166 2.042 . S
O165 Co167 2.122 . S
O165 H168 0.980 . S
Co166 O165 2.042 . S
Co166 O174 2.286 . S
Co166 O175 2.069 . S
Co166 O176 2.015 1_655 S
Co166 O179 2.264 . S
Co167 O165 2.122 . S
Co167 O178 1.976 1_655 S
Co167 O179 2.327 . S
Co167 O180 2.073 . S
H168 O165 0.980 . S
O169 Co161 2.073 . S
O169 C184 1.245 . S
O170 Co160 2.264 . S
O170 Co161 2.327 . S
O170 C184 1.257 . S
O171 Co161 1.976 1_655 S
O171 C183 1.251 . S
O172 Co162 2.108 1_665 S
O172 C183 1.274 . S
O173 Co162 2.149 . S
O173 C186 1.246 . S
O174 Co166 2.286 . S
O174 C185 1.259 . S
O175 Co166 2.069 . S
O175 C185 1.289 . S
O176 Co166 2.015 1_455 S
O176 C186 1.257 . S
O177 Co162 2.115 . S
O177 C187 1.274 . S
O178 Co167 1.976 1_455 S
O178 C187 1.251 . S
O179 Co166 2.264 . S
O179 Co167 2.327 . S
O179 C188 1.257 . S
O180 Co167 2.073 . S
O180 C188 1.245 . S
C181 O189 1.259 . S
C181 O190 1.289 . S
C182 O191 1.246 . S
C182 O192 1.257 . S
C183 O171 1.251 . S
C183 O172 1.274 . S
C184 O169 1.245 . S
C184 O170 1.257 . S
C185 O174 1.259 . S
C185 O175 1.289 . S
C186 O173 1.246 . S
C186 O176 1.257 . S
C187 O177 1.274 . S
C187 O178 1.251 . S
C188 O179 1.257 . S
C188 O180 1.245 . S
O189 Co160 2.286 . S
O189 C181 1.259 . S
O190 Co160 2.069 . S
O190 C181 1.289 . S
O191 Co162 2.138 1_665 S
O191 C182 1.246 . S
O192 Co160 2.015 1_655 S
O192 C182 1.257 . S
Co193 O196 2.042 1_556 S
Co193 O203 2.264 1_556 S
Co193 O222 2.286 . S
Co193 O223 2.069 . S
Co193 O225 2.015 . S
Co194 O196 2.122 . S
Co194 O202 2.073 . S
Co194 O203 2.327 . S
Co194 O204 1.976 . S
Co195 O196 2.078 1_545 S
Co195 O198 2.096 1_554 S
Co195 O205 2.108 1_545 S
Co195 O206 2.150 . S
Co195 O210 2.115 1_554 S
Co195 O224 2.137 1_544 S
O196 Co193 2.042 1_554 S
O196 Co194 2.122 . S
O196 Co195 2.078 1_565 S
O196 H197 0.980 . S
H197 O196 0.980 . S
O198 Co195 2.096 1_556 S
O198 Co199 2.042 1_556 S
O198 Co200 2.122 . S
O198 H201 0.980 . S
Co199 O198 2.042 1_554 S
Co199 O207 2.286 . S
Co199 O208 2.069 . S
Co199 O209 2.015 . S
Co199 O212 2.264 1_554 S
Co200 O198 2.122 . S
Co200 O211 1.976 . S
Co200 O212 2.327 . S
Co200 O213 2.073 . S
H201 O198 0.980 . S
O202 Co194 2.073 . S
O202 C217 1.245 . S
O203 Co193 2.264 1_554 S
O203 Co194 2.327 . S
O203 C217 1.257 . S
O204 Co194 1.976 . S
O204 C216 1.251 . S
O205 Co195 2.108 1_565 S
O205 C216 1.274 . S
O206 Co195 2.150 . S
O206 C219 1.246 . S
O207 Co199 2.286 . S
O207 C218 1.259 . S
O208 Co199 2.069 . S
O208 C218 1.289 . S
O209 Co199 2.015 . S
O209 C219 1.257 . S
O210 Co195 2.115 1_556 S
O210 C220 1.274 . S
O211 Co200 1.976 . S
O211 C220 1.251 . S
O212 Co199 2.264 1_556 S
O212 Co200 2.327 . S
O212 C221 1.257 . S
O213 Co200 2.073 . S
O213 C221 1.245 . S
C214 O222 1.259 . S
C214 O223 1.289 . S
C215 O224 1.246 . S
C215 O225 1.257 . S
C216 O204 1.251 . S
C216 O205 1.274 . S
C217 O202 1.245 . S
C217 O203 1.257 . S
C218 O207 1.259 . S
C218 O208 1.289 . S
C219 O206 1.246 . S
C219 O209 1.257 . S
C220 O210 1.274 . S
C220 O211 1.251 . S
C221 O212 1.257 . S
C221 O213 1.245 . S
O222 Co193 2.286 . S
O222 C214 1.259 . S
O223 Co193 2.069 . S
O223 C214 1.289 . S
O224 Co195 2.137 1_566 S
O224 C215 1.246 . S
O225 Co193 2.015 . S
O225 C215 1.257 . S
Co226 O229 2.042 1_556 S
Co226 O236 2.264 1_556 S
Co226 O255 2.286 . S
Co226 O256 2.069 . S
Co226 O258 2.015 1_455 S
Co227 O229 2.122 . S
Co227 O235 2.073 . S
Co227 O236 2.327 . S
Co227 O237 1.976 1_455 S
Co228 O229 2.087 . S
Co228 O231 2.087 1_454 S
Co228 O238 2.111 1_455 S
Co228 O239 2.143 . S
Co228 O243 2.111 1_554 S
Co228 O257 2.143 1_454 S
O229 Co226 2.042 1_554 S
O229 Co227 2.122 . S
O229 Co228 2.087 . S
O229 H230 0.980 . S
H230 O229 0.980 . S
O231 Co228 2.087 1_656 S
O231 Co232 2.042 1_556 S
O231 Co233 2.122 . S
O231 H234 0.980 . S
Co232 O231 2.042 1_554 S
Co232 O240 2.286 . S
Co232 O241 2.069 . S
Co232 O242 2.015 1_655 S
Co232 O245 2.264 1_554 S
Co233 O231 2.122 . S
Co233 O244 1.976 1_655 S
Co233 O245 2.327 . S
Co233 O246 2.073 . S
H234 O231 0.980 . S
O235 Co227 2.073 . S
O235 C250 1.245 . S
O236 Co226 2.264 1_554 S
O236 Co227 2.327 . S
O236 C250 1.257 . S
O237 Co227 1.976 1_655 S
O237 C249 1.251 . S
O238 Co228 2.111 1_655 S
O238 C249 1.274 . S
O239 Co228 2.143 . S
O239 C252 1.246 . S
O240 Co232 2.286 . S
O240 C251 1.259 . S
O241 Co232 2.069 . S
O241 C251 1.289 . S
O242 Co232 2.015 1_455 S
O242 C252 1.257 . S
O243 Co228 2.111 1_556 S
O243 C253 1.274 . S
O244 Co233 1.976 1_455 S
O244 C253 1.251 . S
O245 Co232 2.264 1_556 S
O245 Co233 2.327 . S
O245 C254 1.257 . S
O246 Co233 2.073 . S
O246 C254 1.245 . S
C247 O255 1.259 . S
C247 O256 1.289 . S
C248 O257 1.246 . S
C248 O258 1.257 . S
C249 O237 1.251 . S
C249 O238 1.274 . S
C250 O235 1.245 . S
C250 O236 1.257 . S
C251 O240 1.259 . S
C251 O241 1.289 . S
C252 O239 1.246 . S
C252 O242 1.257 . S
C253 O243 1.274 . S
C253 O244 1.251 . S
C254 O245 1.257 . S
C254 O246 1.245 . S
O255 Co226 2.286 . S
O255 C247 1.259 . S
O256 Co226 2.069 . S
O256 C247 1.289 . S
O257 Co228 2.143 1_656 S
O257 C248 1.246 . S
O258 Co226 2.015 1_655 S
O258 C248 1.257 . S
Co259 O262 2.042 1_556 S
Co259 O269 2.264 1_556 S
Co259 O288 2.286 . S
Co259 O289 2.069 . S
Co259 O291 2.015 . S
Co260 O262 2.122 . S
Co260 O268 2.073 . S
Co260 O269 2.327 . S
Co260 O270 1.976 . S
Co261 O262 2.087 . S
Co261 O264 2.087 1_554 S
Co261 O271 2.111 . S
Co261 O272 2.143 . S
Co261 O276 2.111 1_554 S
Co261 O290 2.143 1_554 S
O262 Co259 2.042 1_554 S
O262 Co260 2.122 . S
O262 Co261 2.087 . S
O262 H263 0.980 . S
H263 O262 0.980 . S
O264 Co261 2.087 1_556 S
O264 Co265 2.042 1_556 S
O264 Co266 2.122 . S
O264 H267 0.980 . S
Co265 O264 2.042 1_554 S
Co265 O273 2.286 . S
Co265 O274 2.069 . S
Co265 O275 2.015 . S
Co265 O278 2.264 1_554 S
Co266 O264 2.122 . S
Co266 O277 1.976 . S
Co266 O278 2.327 . S
Co266 O279 2.073 . S
H267 O264 0.980 . S
O268 Co260 2.073 . S
O268 C283 1.245 . S
O269 Co259 2.264 1_554 S
O269 Co260 2.327 . S
O269 C283 1.257 . S
O270 Co260 1.976 . S
O270 C282 1.251 . S
O271 Co261 2.111 . S
O271 C282 1.274 . S
O272 Co261 2.143 . S
O272 C285 1.246 . S
O273 Co265 2.286 . S
O273 C284 1.259 . S
O274 Co265 2.069 . S
O274 C284 1.289 . S
O275 Co265 2.015 . S
O275 C285 1.257 . S
O276 Co261 2.111 1_556 S
O276 C286 1.274 . S
O277 Co266 1.976 . S
O277 C286 1.251 . S
O278 Co265 2.264 1_556 S
O278 Co266 2.327 . S
O278 C287 1.257 . S
O279 Co266 2.073 . S
O279 C287 1.245 . S
C280 O288 1.259 . S
C280 O289 1.289 . S
C281 O290 1.246 . S
C281 O291 1.257 . S
C282 O270 1.251 . S
C282 O271 1.274 . S
C283 O268 1.245 . S
C283 O269 1.257 . S
C284 O273 1.259 . S
C284 O274 1.289 . S
C285 O272 1.246 . S
C285 O275 1.257 . S
C286 O276 1.274 . S
C286 O277 1.251 . S
C287 O278 1.257 . S
C287 O279 1.245 . S
O288 Co259 2.286 . S
O288 C280 1.259 . S
O289 Co259 2.069 . S
O289 C280 1.289 . S
O290 Co261 2.143 1_556 S
O290 C281 1.246 . S
O291 Co259 2.015 . S
O291 C281 1.257 . S
Co292 O295 2.042 . S
Co292 O302 2.264 . S
Co292 O321 2.286 . S
Co292 O322 2.069 . S
Co292 O324 2.015 . S
Co293 O295 2.122 . S
Co293 O301 2.073 . S
Co293 O302 2.327 . S
Co293 O303 1.976 . S
Co294 O295 2.087 . S
Co294 O297 2.087 1_455 S
Co294 O304 2.111 . S
Co294 O305 2.143 1_455 S
Co294 O309 2.111 1_455 S
Co294 O323 2.143 . S
O295 Co292 2.042 . S
O295 Co293 2.122 . S
O295 Co294 2.087 . S
O295 H296 0.980 . S
H296 O295 0.980 . S
O297 Co294 2.087 1_655 S
O297 Co298 2.042 . S
O297 Co299 2.122 . S
O297 H300 0.980 . S
Co298 O297 2.042 . S
Co298 O306 2.286 . S
Co298 O307 2.069 . S
Co298 O308 2.015 . S
Co298 O311 2.264 . S
Co299 O297 2.122 . S
Co299 O310 1.976 . S
Co299 O311 2.327 . S
Co299 O312 2.073 . S
H300 O297 0.980 . S
O301 Co293 2.073 . S
O301 C316 1.245 . S
O302 Co292 2.264 . S
O302 Co293 2.327 . S
O302 C316 1.257 . S
O303 Co293 1.976 . S
O303 C315 1.251 . S
O304 Co294 2.111 . S
O304 C315 1.274 . S
O305 Co294 2.143 1_655 S
O305 C318 1.246 . S
O306 Co298 2.286 . S
O306 C317 1.259 . S
O307 Co298 2.069 . S
O307 C317 1.289 . S
O308 Co298 2.015 . S
O308 C318 1.257 . S
O309 Co294 2.111 1_655 S
O309 C319 1.274 . S
O310 Co299 1.976 . S
O310 C319 1.251 . S
O311 Co298 2.264 . S
O311 Co299 2.327 . S
O311 C320 1.257 . S
O312 Co299 2.073 . S
O312 C320 1.245 . S
C313 O321 1.259 . S
C313 O322 1.289 . S
C314 O323 1.246 . S
C314 O324 1.257 . S
C315 O303 1.251 . S
C315 O304 1.274 . S
C316 O301 1.245 . S
C316 O302 1.257 . S
C317 O306 1.259 . S
C317 O307 1.289 . S
C318 O305 1.246 . S
C318 O308 1.257 . S
C319 O309 1.274 . S
C319 O310 1.251 . S
C320 O311 1.257 . S
C320 O312 1.245 . S
O321 Co292 2.286 . S
O321 C313 1.259 . S
O322 Co292 2.069 . S
O322 C313 1.289 . S
O323 Co294 2.143 . S
O323 C314 1.246 . S
O324 Co292 2.015 . S
O324 C314 1.257 . S
Co325 O328 2.042 . S
Co325 O335 2.264 . S
Co325 O354 2.286 . S
Co325 O355 2.069 . S
Co325 O357 2.015 1_565 S
Co326 O328 2.122 . S
Co326 O334 2.073 . S
Co326 O335 2.327 . S
Co326 O336 1.976 1_565 S
Co327 O328 2.078 1_545 S
Co327 O330 2.096 . S
Co327 O337 2.118 . S
Co327 O338 2.139 1_545 S
Co327 O342 2.105 1_545 S
Co327 O356 2.148 . S
O328 Co325 2.042 . S
O328 Co326 2.122 . S
O328 Co327 2.078 1_565 S
O328 H329 0.980 . S
H329 O328 0.980 . S
O330 Co327 2.096 . S
O330 Co331 2.042 . S
O330 Co332 2.122 . S
O330 H333 0.980 . S
Co331 O330 2.042 . S
Co331 O339 2.286 . S
Co331 O340 2.069 . S
Co331 O341 2.015 1_545 S
Co331 O344 2.264 . S
Co332 O330 2.122 . S
Co332 O343 1.976 1_545 S
Co332 O344 2.327 . S
Co332 O345 2.073 . S
H333 O330 0.980 . S
O334 Co326 2.073 . S
O334 C349 1.245 . S
O335 Co325 2.264 . S
O335 Co326 2.327 . S
O335 C349 1.257 . S
O336 Co326 1.976 1_545 S
O336 C348 1.251 . S
O337 Co327 2.118 . S
O337 C348 1.274 . S
O338 Co327 2.139 1_565 S
O338 C351 1.246 . S
O339 Co331 2.286 . S
O339 C350 1.259 . S
O340 Co331 2.069 . S
O340 C350 1.289 . S
O341 Co331 2.015 1_565 S
O341 C351 1.257 . S
O342 Co327 2.105 1_565 S
O342 C352 1.274 . S
O343 Co332 1.976 1_565 S
O343 C352 1.251 . S
O344 Co331 2.264 . S
O344 Co332 2.327 . S
O344 C353 1.257 . S
O345 Co332 2.073 . S
O345 C353 1.245 . S
C346 O354 1.259 . S
C346 O355 1.289 . S
C347 O356 1.246 . S
C347 O357 1.257 . S
C348 O336 1.251 . S
C348 O337 1.274 . S
C349 O334 1.245 . S
C349 O335 1.257 . S
C350 O339 1.259 . S
C350 O340 1.289 . S
C351 O338 1.246 . S
C351 O341 1.257 . S
C352 O342 1.274 . S
C352 O343 1.251 . S
C353 O344 1.257 . S
C353 O345 1.245 . S
O354 Co325 2.286 . S
O354 C346 1.259 . S
O355 Co325 2.069 . S
O355 C346 1.289 . S
O356 Co327 2.148 . S
O356 C347 1.246 . S
O357 Co325 2.015 1_545 S
O357 C347 1.257 . S
H358 C376 0.951 . S
H359 C378 0.951 . S
H360 C380 0.950 . S
H361 C381 0.950 . S
H362 C383 0.950 . S
H363 C386 0.950 . S
H364 C387 0.950 . S
H365 C389 0.950 . S
H366 C390 0.950 . S
H367 C391 0.951 . S
H368 C393 0.951 . S
H369 C395 0.950 . S
H370 C396 0.950 . S
H371 C398 0.950 . S
H372 C401 0.950 . S
H373 C402 0.950 . S
H374 C404 0.950 . S
H375 C405 0.950 . S
C376 H358 0.951 . S
C376 C377 1.366 . S
C376 C378 1.388 . S
C377 C376 1.366 . S
C377 C381 1.385 . S
C378 H359 0.951 . S
C378 C376 1.388 . S
C378 C379 1.366 . S
C379 C378 1.366 . S
C379 C380 1.414 . S
C379 C382 1.499 . S
C380 H360 0.950 . S
C380 C379 1.414 . S
C380 C381 1.374 . S
C381 H361 0.950 . S
C381 C377 1.385 . S
C381 C380 1.374 . S
C382 C379 1.499 . S
C382 C383 1.373 . S
C382 C384 1.389 . S
C383 H362 0.950 . S
C383 C382 1.373 . S
C383 C399 1.377 . S
C384 C382 1.389 . S
C384 C385 1.524 . S
C384 C398 1.377 . S
C385 C384 1.524 . S
C385 C386 1.397 . S
C385 C390 1.363 . S
C386 H363 0.950 . S
C386 C385 1.397 . S
C386 C387 1.334 . S
C387 H364 0.950 . S
C387 C386 1.334 . S
C387 C388 1.287 . S
C388 C387 1.287 . S
C388 C389 1.524 . S
C388 H407 0.913 . S
C389 H365 0.950 . S
C389 C388 1.524 . S
C389 C390 1.415 . S
C390 H366 0.950 . S
C390 C385 1.363 . S
C390 C389 1.415 . S
C391 H367 0.951 . S
C391 C392 1.366 . S
C391 C393 1.388 . S
C392 C391 1.366 . S
C392 C396 1.385 . S
C393 H368 0.951 . S
C393 C391 1.388 . S
C393 C394 1.366 . S
C394 C393 1.366 . S
C394 C395 1.414 . S
C394 C397 1.499 . S
C395 H369 0.950 . S
C395 C394 1.414 . S
C395 C396 1.374 . S
C396 H370 0.950 . S
C396 C392 1.385 . S
C396 C395 1.374 . S
C397 C394 1.499 . S
C397 C398 1.373 . S
C397 C399 1.389 . S
C398 H371 0.950 . S
C398 C384 1.377 . S
C398 C397 1.373 . S
C399 C383 1.377 . S
C399 C397 1.389 . S
C399 C400 1.524 . S
C400 C399 1.524 . S
C400 C401 1.397 . S
C400 C405 1.363 . S
C401 H372 0.950 . S
C401 C400 1.397 . S
C401 C402 1.334 . S
C402 H373 0.950 . S
C402 C401 1.334 . S
C402 C403 1.287 . S
C403 C402 1.287 . S
C403 C404 1.524 . S
C403 H406 0.999 . S
C404 H374 0.950 . S
C404 C403 1.524 . S
C404 C405 1.415 . S
C405 H375 0.950 . S
C405 C400 1.363 . S
C405 C404 1.415 . S
H406 C403 0.999 . S
H407 C388 0.913 . S
H408 C426 0.951 . S
H409 C428 0.951 . S
H410 C430 0.950 . S
H411 C431 0.950 . S
H412 C433 0.950 . S
H413 C436 0.950 . S
H414 C437 0.950 . S
H415 C439 0.950 . S
H416 C440 0.950 . S
H417 C441 0.951 . S
H418 C443 0.951 . S
H419 C445 0.950 . S
H420 C446 0.950 . S
H421 C448 0.950 . S
H422 C451 0.950 . S
H423 C452 0.950 . S
H424 C454 0.950 . S
H425 C455 0.950 . S
C426 H408 0.951 . S
C426 C427 1.366 . S
C426 C428 1.388 . S
C427 C426 1.366 . S
C427 C431 1.385 . S
C428 H409 0.951 . S
C428 C426 1.388 . S
C428 C429 1.366 . S
C429 C428 1.366 . S
C429 C430 1.414 . S
C429 C432 1.499 . S
C430 H410 0.950 . S
C430 C429 1.414 . S
C430 C431 1.374 . S
C431 H411 0.950 . S
C431 C427 1.385 . S
C431 C430 1.374 . S
C432 C429 1.499 . S
C432 C433 1.373 . S
C432 C434 1.389 . S
C433 H412 0.950 . S
C433 C432 1.373 . S
C433 C449 1.377 . S
C434 C432 1.389 . S
C434 C435 1.524 . S
C434 C448 1.377 . S
C435 C434 1.524 . S
C435 C436 1.397 . S
C435 C440 1.363 . S
C436 H413 0.950 . S
C436 C435 1.397 . S
C436 C437 1.334 . S
C437 H414 0.950 . S
C437 C436 1.334 . S
C437 C438 1.287 . S
C438 C437 1.287 . S
C438 C439 1.524 . S
C438 H457 0.913 . S
C439 H415 0.950 . S
C439 C438 1.524 . S
C439 C440 1.415 . S
C440 H416 0.950 . S
C440 C435 1.363 . S
C440 C439 1.415 . S
C441 H417 0.951 . S
C441 C442 1.366 . S
C441 C443 1.388 . S
C442 C441 1.366 . S
C442 C446 1.385 . S
C443 H418 0.951 . S
C443 C441 1.388 . S
C443 C444 1.366 . S
C444 C443 1.366 . S
C444 C445 1.414 . S
C444 C447 1.499 . S
C445 H419 0.950 . S
C445 C444 1.414 . S
C445 C446 1.374 . S
C446 H420 0.950 . S
C446 C442 1.385 . S
C446 C445 1.374 . S
C447 C444 1.499 . S
C447 C448 1.373 . S
C447 C449 1.389 . S
C448 H421 0.950 . S
C448 C434 1.377 . S
C448 C447 1.373 . S
C449 C433 1.377 . S
C449 C447 1.389 . S
C449 C450 1.524 . S
C450 C449 1.524 . S
C450 C451 1.397 . S
C450 C455 1.363 . S
C451 H422 0.950 . S
C451 C450 1.397 . S
C451 C452 1.334 . S
C452 H423 0.950 . S
C452 C451 1.334 . S
C452 C453 1.287 . S
C453 C452 1.287 . S
C453 C454 1.524 . S
C453 H456 0.999 . S
C454 H424 0.950 . S
C454 C453 1.524 . S
C454 C455 1.415 . S
C455 H425 0.950 . S
C455 C450 1.363 . S
C455 C454 1.415 . S
H456 C453 0.999 . S
H457 C438 0.913 . S
H458 C476 0.951 . S
H459 C478 0.951 . S
H460 C480 0.950 . S
H461 C481 0.950 . S
H462 C483 0.950 . S
H463 C486 0.950 . S
H464 C487 0.950 . S
H465 C489 0.950 . S
H466 C490 0.950 . S
H467 C491 0.951 . S
H468 C493 0.951 . S
H469 C495 0.950 . S
H470 C496 0.950 . S
H471 C498 0.950 . S
H472 C501 0.950 . S
H473 C502 0.950 . S
H474 C504 0.950 . S
H475 C505 0.950 . S
C476 H458 0.951 . S
C476 C477 1.366 . S
C476 C478 1.388 . S
C477 C476 1.366 . S
C477 C481 1.385 . S
C478 H459 0.951 . S
C478 C476 1.388 . S
C478 C479 1.366 . S
C479 C478 1.366 . S
C479 C480 1.414 . S
C479 C482 1.499 . S
C480 H460 0.950 . S
C480 C479 1.414 . S
C480 C481 1.374 . S
C481 H461 0.950 . S
C481 C477 1.385 . S
C481 C480 1.374 . S
C482 C479 1.499 . S
C482 C483 1.373 . S
C482 C484 1.389 . S
C483 H462 0.950 . S
C483 C482 1.373 . S
C483 C499 1.377 . S
C484 C482 1.389 . S
C484 C485 1.524 . S
C484 C498 1.377 . S
C485 C484 1.524 . S
C485 C486 1.397 . S
C485 C490 1.363 . S
C486 H463 0.950 . S
C486 C485 1.397 . S
C486 C487 1.334 . S
C487 H464 0.950 . S
C487 C486 1.334 . S
C487 C488 1.287 . S
C488 C487 1.287 . S
C488 C489 1.524 . S
C488 H507 0.913 . S
C489 H465 0.950 . S
C489 C488 1.524 . S
C489 C490 1.415 . S
C490 H466 0.950 . S
C490 C485 1.363 . S
C490 C489 1.415 . S
C491 H467 0.951 . S
C491 C492 1.366 . S
C491 C493 1.388 . S
C492 C491 1.366 . S
C492 C496 1.385 . S
C493 H468 0.951 . S
C493 C491 1.388 . S
C493 C494 1.366 . S
C494 C493 1.366 . S
C494 C495 1.414 . S
C494 C497 1.499 . S
C495 H469 0.950 . S
C495 C494 1.414 . S
C495 C496 1.374 . S
C496 H470 0.950 . S
C496 C492 1.385 . S
C496 C495 1.374 . S
C497 C494 1.499 . S
C497 C498 1.373 . S
C497 C499 1.389 . S
C498 H471 0.950 . S
C498 C484 1.377 . S
C498 C497 1.373 . S
C499 C483 1.377 . S
C499 C497 1.389 . S
C499 C500 1.524 . S
C500 C499 1.524 . S
C500 C501 1.397 . S
C500 C505 1.363 . S
C501 H472 0.950 . S
C501 C500 1.397 . S
C501 C502 1.334 . S
C502 H473 0.950 . S
C502 C501 1.334 . S
C502 C503 1.287 . S
C503 C502 1.287 . S
C503 C504 1.524 . S
C503 H506 0.999 . S
C504 H474 0.950 . S
C504 C503 1.524 . S
C504 C505 1.415 . S
C505 H475 0.950 . S
C505 C500 1.363 . S
C505 C504 1.415 . S
H506 C503 0.999 . S
H507 C488 0.913 . S
H508 C526 0.951 . S
H509 C528 0.951 . S
H510 C530 0.950 . S
H511 C531 0.950 . S
H512 C533 0.950 . S
H513 C536 0.950 . S
H514 C537 0.950 . S
H515 C539 0.950 . S
H516 C540 0.950 . S
H517 C541 0.951 . S
H518 C543 0.951 . S
H519 C545 0.950 . S
H520 C546 0.950 . S
H521 C548 0.950 . S
H522 C551 0.950 . S
H523 C552 0.950 . S
H524 C554 0.950 . S
H525 C555 0.950 . S
C526 H508 0.951 . S
C526 C527 1.366 . S
C526 C528 1.388 . S
C527 C526 1.366 . S
C527 C531 1.385 . S
C528 H509 0.951 . S
C528 C526 1.388 . S
C528 C529 1.366 . S
C529 C528 1.366 . S
C529 C530 1.414 . S
C529 C532 1.499 . S
C530 H510 0.950 . S
C530 C529 1.414 . S
C530 C531 1.374 . S
C531 H511 0.950 . S
C531 C527 1.385 . S
C531 C530 1.374 . S
C532 C529 1.499 . S
C532 C533 1.373 . S
C532 C534 1.389 . S
C533 H512 0.950 . S
C533 C532 1.373 . S
C533 C549 1.377 . S
C534 C532 1.389 . S
C534 C535 1.524 . S
C534 C548 1.377 . S
C535 C534 1.524 . S
C535 C536 1.397 . S
C535 C540 1.363 . S
C536 H513 0.950 . S
C536 C535 1.397 . S
C536 C537 1.334 . S
C537 H514 0.950 . S
C537 C536 1.334 . S
C537 C538 1.287 . S
C538 C537 1.287 . S
C538 C539 1.524 . S
C538 H557 0.913 . S
C539 H515 0.950 . S
C539 C538 1.524 . S
C539 C540 1.415 . S
C540 H516 0.950 . S
C540 C535 1.363 . S
C540 C539 1.415 . S
C541 H517 0.951 . S
C541 C542 1.366 . S
C541 C543 1.388 . S
C542 C541 1.366 . S
C542 C546 1.385 . S
C543 H518 0.951 . S
C543 C541 1.388 . S
C543 C544 1.366 . S
C544 C543 1.366 . S
C544 C545 1.414 . S
C544 C547 1.499 . S
C545 H519 0.950 . S
C545 C544 1.414 . S
C545 C546 1.374 . S
C546 H520 0.950 . S
C546 C542 1.385 . S
C546 C545 1.374 . S
C547 C544 1.499 . S
C547 C548 1.373 . S
C547 C549 1.389 . S
C548 H521 0.950 . S
C548 C534 1.377 . S
C548 C547 1.373 . S
C549 C533 1.377 . S
C549 C547 1.389 . S
C549 C550 1.524 . S
C550 C549 1.524 . S
C550 C551 1.397 . S
C550 C555 1.363 . S
C551 H522 0.950 . S
C551 C550 1.397 . S
C551 C552 1.334 . S
C552 H523 0.950 . S
C552 C551 1.334 . S
C552 C553 1.287 . S
C553 C552 1.287 . S
C553 C554 1.524 . S
C553 H556 0.999 . S
C554 H524 0.950 . S
C554 C553 1.524 . S
C554 C555 1.415 . S
C555 H525 0.950 . S
C555 C550 1.363 . S
C555 C554 1.415 . S
H556 C553 0.999 . S
H557 C538 0.913 . S
H558 C576 0.951 . S
H559 C578 0.951 . S
H560 C580 0.950 . S
H561 C581 0.950 . S
H562 C583 0.950 . S
H563 C586 0.950 . S
H564 C587 0.950 . S
H565 C589 0.950 . S
H566 C590 0.950 . S
H567 C591 0.951 . S
H568 C593 0.951 . S
H569 C595 0.950 . S
H570 C596 0.950 . S
H571 C598 0.950 . S
H572 C601 0.950 . S
H573 C602 0.950 . S
H574 C604 0.950 . S
H575 C605 0.950 . S
C576 H558 0.951 . S
C576 C577 1.366 . S
C576 C578 1.388 . S
C577 C576 1.366 . S
C577 C581 1.385 . S
C578 H559 0.951 . S
C578 C576 1.388 . S
C578 C579 1.366 . S
C579 C578 1.366 . S
C579 C580 1.414 . S
C579 C582 1.499 . S
C580 H560 0.950 . S
C580 C579 1.414 . S
C580 C581 1.374 . S
C581 H561 0.950 . S
C581 C577 1.385 . S
C581 C580 1.374 . S
C582 C579 1.499 . S
C582 C583 1.373 . S
C582 C584 1.389 . S
C583 H562 0.950 . S
C583 C582 1.373 . S
C583 C599 1.377 . S
C584 C582 1.389 . S
C584 C585 1.524 . S
C584 C598 1.377 . S
C585 C584 1.524 . S
C585 C586 1.397 . S
C585 C590 1.363 . S
C586 H563 0.950 . S
C586 C585 1.397 . S
C586 C587 1.334 . S
C587 H564 0.950 . S
C587 C586 1.334 . S
C587 C588 1.287 . S
C588 C587 1.287 . S
C588 C589 1.524 . S
C588 H607 0.913 . S
C589 H565 0.950 . S
C589 C588 1.524 . S
C589 C590 1.415 . S
C590 H566 0.950 . S
C590 C585 1.363 . S
C590 C589 1.415 . S
C591 H567 0.951 . S
C591 C592 1.366 . S
C591 C593 1.388 . S
C592 C591 1.366 . S
C592 C596 1.385 . S
C593 H568 0.951 . S
C593 C591 1.388 . S
C593 C594 1.366 . S
C594 C593 1.366 . S
C594 C595 1.414 . S
C594 C597 1.499 . S
C595 H569 0.950 . S
C595 C594 1.414 . S
C595 C596 1.374 . S
C596 H570 0.950 . S
C596 C592 1.385 . S
C596 C595 1.374 . S
C597 C594 1.499 . S
C597 C598 1.373 . S
C597 C599 1.389 . S
C598 H571 0.950 . S
C598 C584 1.377 . S
C598 C597 1.373 . S
C599 C583 1.377 . S
C599 C597 1.389 . S
C599 C600 1.524 . S
C600 C599 1.524 . S
C600 C601 1.397 . S
C600 C605 1.363 . S
C601 H572 0.950 . S
C601 C600 1.397 . S
C601 C602 1.334 . S
C602 H573 0.950 . S
C602 C601 1.334 . S
C602 C603 1.287 . S
C603 C602 1.287 . S
C603 C604 1.524 . S
C603 H606 0.999 . S
C604 H574 0.950 . S
C604 C603 1.524 . S
C604 C605 1.415 . S
C605 H575 0.950 . S
C605 C600 1.363 . S
C605 C604 1.415 . S
H606 C603 0.999 . S
H607 C588 0.913 . S
H608 C626 0.951 . S
H609 C628 0.951 . S
H610 C630 0.950 . S
H611 C631 0.950 . S
H612 C633 0.950 . S
H613 C636 0.950 . S
H614 C637 0.950 . S
H615 C639 0.950 . S
H616 C640 0.950 . S
H617 C641 0.951 . S
H618 C643 0.951 . S
H619 C645 0.950 . S
H620 C646 0.950 . S
H621 C648 0.950 . S
H622 C651 0.950 . S
H623 C652 0.950 . S
H624 C654 0.950 . S
H625 C655 0.950 . S
C626 H608 0.951 . S
C626 C627 1.366 . S
C626 C628 1.388 . S
C627 C626 1.366 . S
C627 C631 1.385 . S
C628 H609 0.951 . S
C628 C626 1.388 . S
C628 C629 1.366 . S
C629 C628 1.366 . S
C629 C630 1.414 . S
C629 C632 1.499 . S
C630 H610 0.950 . S
C630 C629 1.414 . S
C630 C631 1.374 . S
C631 H611 0.950 . S
C631 C627 1.385 . S
C631 C630 1.374 . S
C632 C629 1.499 . S
C632 C633 1.373 . S
C632 C634 1.389 . S
C633 H612 0.950 . S
C633 C632 1.373 . S
C633 C649 1.377 . S
C634 C632 1.389 . S
C634 C635 1.524 . S
C634 C648 1.377 . S
C635 C634 1.524 . S
C635 C636 1.397 . S
C635 C640 1.363 . S
C636 H613 0.950 . S
C636 C635 1.397 . S
C636 C637 1.334 . S
C637 H614 0.950 . S
C637 C636 1.334 . S
C637 C638 1.287 . S
C638 C637 1.287 . S
C638 C639 1.524 . S
C638 H657 0.913 . S
C639 H615 0.950 . S
C639 C638 1.524 . S
C639 C640 1.415 . S
C640 H616 0.950 . S
C640 C635 1.363 . S
C640 C639 1.415 . S
C641 H617 0.951 . S
C641 C642 1.366 . S
C641 C643 1.388 . S
C642 C641 1.366 . S
C642 C646 1.385 . S
C643 H618 0.951 . S
C643 C641 1.388 . S
C643 C644 1.366 . S
C644 C643 1.366 . S
C644 C645 1.414 . S
C644 C647 1.499 . S
C645 H619 0.950 . S
C645 C644 1.414 . S
C645 C646 1.374 . S
C646 H620 0.950 . S
C646 C642 1.385 . S
C646 C645 1.374 . S
C647 C644 1.499 . S
C647 C648 1.373 . S
C647 C649 1.389 . S
C648 H621 0.950 . S
C648 C634 1.377 . S
C648 C647 1.373 . S
C649 C633 1.377 . S
C649 C647 1.389 . S
C649 C650 1.524 . S
C650 C649 1.524 . S
C650 C651 1.397 . S
C650 C655 1.363 . S
C651 H622 0.950 . S
C651 C650 1.397 . S
C651 C652 1.334 . S
C652 H623 0.950 . S
C652 C651 1.334 . S
C652 C653 1.287 . S
C653 C652 1.287 . S
C653 C654 1.524 . S
C653 H656 0.999 . S
C654 H624 0.950 . S
C654 C653 1.524 . S
C654 C655 1.415 . S
C655 H625 0.950 . S
C655 C650 1.363 . S
C655 C654 1.415 . S
H656 C653 0.999 . S
H657 C638 0.913 . S
H658 C676 0.951 . S
H659 C678 0.951 . S
H660 C680 0.950 . S
H661 C681 0.950 . S
H662 C683 0.950 . S
H663 C686 0.950 . S
H664 C687 0.950 . S
H665 C689 0.950 . S
H666 C690 0.950 . S
H667 C691 0.951 . S
H668 C693 0.951 . S
H669 C695 0.950 . S
H670 C696 0.950 . S
H671 C698 0.950 . S
H672 C701 0.950 . S
H673 C702 0.950 . S
H674 C704 0.950 . S
H675 C705 0.950 . S
C676 H658 0.951 . S
C676 C677 1.366 . S
C676 C678 1.388 . S
C677 C676 1.366 . S
C677 C681 1.385 . S
C678 H659 0.951 . S
C678 C676 1.388 . S
C678 C679 1.366 . S
C679 C678 1.366 . S
C679 C680 1.414 . S
C679 C682 1.499 . S
C680 H660 0.950 . S
C680 C679 1.414 . S
C680 C681 1.374 . S
C681 H661 0.950 . S
C681 C677 1.385 . S
C681 C680 1.374 . S
C682 C679 1.499 . S
C682 C683 1.373 . S
C682 C684 1.389 . S
C683 H662 0.950 . S
C683 C682 1.373 . S
C683 C699 1.377 . S
C684 C682 1.389 . S
C684 C685 1.524 . S
C684 C698 1.377 . S
C685 C684 1.524 . S
C685 C686 1.397 . S
C685 C690 1.363 . S
C686 H663 0.950 . S
C686 C685 1.397 . S
C686 C687 1.334 . S
C687 H664 0.950 . S
C687 C686 1.334 . S
C687 C688 1.287 . S
C688 C687 1.287 . S
C688 C689 1.524 . S
C688 H707 0.913 . S
C689 H665 0.950 . S
C689 C688 1.524 . S
C689 C690 1.415 . S
C690 H666 0.950 . S
C690 C685 1.363 . S
C690 C689 1.415 . S
C691 H667 0.951 . S
C691 C692 1.366 . S
C691 C693 1.388 . S
C692 C691 1.366 . S
C692 C696 1.385 . S
C693 H668 0.951 . S
C693 C691 1.388 . S
C693 C694 1.366 . S
C694 C693 1.366 . S
C694 C695 1.414 . S
C694 C697 1.499 . S
C695 H669 0.950 . S
C695 C694 1.414 . S
C695 C696 1.374 . S
C696 H670 0.950 . S
C696 C692 1.385 . S
C696 C695 1.374 . S
C697 C694 1.499 . S
C697 C698 1.373 . S
C697 C699 1.389 . S
C698 H671 0.950 . S
C698 C684 1.377 . S
C698 C697 1.373 . S
C699 C683 1.377 . S
C699 C697 1.389 . S
C699 C700 1.524 . S
C700 C699 1.524 . S
C700 C701 1.397 . S
C700 C705 1.363 . S
C701 H672 0.950 . S
C701 C700 1.397 . S
C701 C702 1.334 . S
C702 H673 0.950 . S
C702 C701 1.334 . S
C702 C703 1.287 . S
C703 C702 1.287 . S
C703 C704 1.524 . S
C703 H706 0.999 . S
C704 H674 0.950 . S
C704 C703 1.524 . S
C704 C705 1.415 . S
C705 H675 0.950 . S
C705 C700 1.363 . S
C705 C704 1.415 . S
H706 C703 0.999 . S
H707 C688 0.913 . S
H708 C726 0.951 . S
H709 C728 0.951 . S
H710 C730 0.950 . S
H711 C731 0.950 . S
H712 C733 0.950 . S
H713 C736 0.950 . S
H714 C737 0.950 . S
H715 C739 0.950 . S
H716 C740 0.950 . S
H717 C741 0.951 . S
H718 C743 0.951 . S
H719 C745 0.950 . S
H720 C746 0.950 . S
H721 C748 0.950 . S
H722 C751 0.950 . S
H723 C752 0.950 . S
H724 C754 0.950 . S
H725 C755 0.950 . S
C726 H708 0.951 . S
C726 C727 1.366 . S
C726 C728 1.388 . S
C727 C726 1.366 . S
C727 C731 1.385 . S
C728 H709 0.951 . S
C728 C726 1.388 . S
C728 C729 1.366 . S
C729 C728 1.366 . S
C729 C730 1.414 . S
C729 C732 1.499 . S
C730 H710 0.950 . S
C730 C729 1.414 . S
C730 C731 1.374 . S
C731 H711 0.950 . S
C731 C727 1.385 . S
C731 C730 1.374 . S
C732 C729 1.499 . S
C732 C733 1.373 . S
C732 C734 1.389 . S
C733 H712 0.950 . S
C733 C732 1.373 . S
C733 C749 1.377 . S
C734 C732 1.389 . S
C734 C735 1.524 . S
C734 C748 1.377 . S
C735 C734 1.524 . S
C735 C736 1.397 . S
C735 C740 1.363 . S
C736 H713 0.950 . S
C736 C735 1.397 . S
C736 C737 1.334 . S
C737 H714 0.950 . S
C737 C736 1.334 . S
C737 C738 1.287 . S
C738 C737 1.287 . S
C738 C739 1.524 . S
C738 H757 0.913 . S
C739 H715 0.950 . S
C739 C738 1.524 . S
C739 C740 1.415 . S
C740 H716 0.950 . S
C740 C735 1.363 . S
C740 C739 1.415 . S
C741 H717 0.951 . S
C741 C742 1.366 . S
C741 C743 1.388 . S
C742 C741 1.366 . S
C742 C746 1.385 . S
C743 H718 0.951 . S
C743 C741 1.388 . S
C743 C744 1.366 . S
C744 C743 1.366 . S
C744 C745 1.414 . S
C744 C747 1.499 . S
C745 H719 0.950 . S
C745 C744 1.414 . S
C745 C746 1.374 . S
C746 H720 0.950 . S
C746 C742 1.385 . S
C746 C745 1.374 . S
C747 C744 1.499 . S
C747 C748 1.373 . S
C747 C749 1.389 . S
C748 H721 0.950 . S
C748 C734 1.377 . S
C748 C747 1.373 . S
C749 C733 1.377 . S
C749 C747 1.389 . S
C749 C750 1.524 . S
C750 C749 1.524 . S
C750 C751 1.397 . S
C750 C755 1.363 . S
C751 H722 0.950 . S
C751 C750 1.397 . S
C751 C752 1.334 . S
C752 H723 0.950 . S
C752 C751 1.334 . S
C752 C753 1.287 . S
C753 C752 1.287 . S
C753 C754 1.524 . S
C753 H756 0.999 . S
C754 H724 0.950 . S
C754 C753 1.524 . S
C754 C755 1.415 . S
C755 H725 0.950 . S
C755 C750 1.363 . S
C755 C754 1.415 . S
H756 C753 0.999 . S
H757 C738 0.913 . S
H758 C776 0.951 . S
H759 C778 0.951 . S
H760 C780 0.950 . S
H761 C781 0.950 . S
H762 C783 0.950 . S
H763 C786 0.950 . S
H764 C787 0.950 . S
H765 C789 0.950 . S
H766 C790 0.950 . S
H767 C791 0.951 . S
H768 C793 0.951 . S
H769 C795 0.950 . S
H770 C796 0.950 . S
H771 C798 0.950 . S
H772 C801 0.950 . S
H773 C802 0.950 . S
H774 C804 0.950 . S
H775 C805 0.950 . S
C776 H758 0.951 . S
C776 C777 1.366 . S
C776 C778 1.388 . S
C777 C776 1.366 . S
C777 C781 1.385 . S
C778 H759 0.951 . S
C778 C776 1.388 . S
C778 C779 1.366 . S
C779 C778 1.366 . S
C779 C780 1.414 . S
C779 C782 1.499 . S
C780 H760 0.950 . S
C780 C779 1.414 . S
C780 C781 1.374 . S
C781 H761 0.950 . S
C781 C777 1.385 . S
C781 C780 1.374 . S
C782 C779 1.499 . S
C782 C783 1.373 . S
C782 C784 1.389 . S
C783 H762 0.950 . S
C783 C782 1.373 . S
C783 C799 1.377 . S
C784 C782 1.389 . S
C784 C785 1.524 . S
C784 C798 1.377 . S
C785 C784 1.524 . S
C785 C786 1.397 . S
C785 C790 1.363 . S
C786 H763 0.950 . S
C786 C785 1.397 . S
C786 C787 1.334 . S
C787 H764 0.950 . S
C787 C786 1.334 . S
C787 C788 1.287 . S
C788 C787 1.287 . S
C788 C789 1.524 . S
C788 H807 0.913 . S
C789 H765 0.950 . S
C789 C788 1.524 . S
C789 C790 1.415 . S
C790 H766 0.950 . S
C790 C785 1.363 . S
C790 C789 1.415 . S
C791 H767 0.951 . S
C791 C792 1.366 . S
C791 C793 1.388 . S
C792 C791 1.366 . S
C792 C796 1.385 . S
C793 H768 0.951 . S
C793 C791 1.388 . S
C793 C794 1.366 . S
C794 C793 1.366 . S
C794 C795 1.414 . S
C794 C797 1.499 . S
C795 H769 0.950 . S
C795 C794 1.414 . S
C795 C796 1.374 . S
C796 H770 0.950 . S
C796 C792 1.385 . S
C796 C795 1.374 . S
C797 C794 1.499 . S
C797 C798 1.373 . S
C797 C799 1.389 . S
C798 H771 0.950 . S
C798 C784 1.377 . S
C798 C797 1.373 . S
C799 C783 1.377 . S
C799 C797 1.389 . S
C799 C800 1.524 . S
C800 C799 1.524 . S
C800 C801 1.397 . S
C800 C805 1.363 . S
C801 H772 0.950 . S
C801 C800 1.397 . S
C801 C802 1.334 . S
C802 H773 0.950 . S
C802 C801 1.334 . S
C802 C803 1.287 . S
C803 C802 1.287 . S
C803 C804 1.524 . S
C803 H806 0.999 . S
C804 H774 0.950 . S
C804 C803 1.524 . S
C804 C805 1.415 . S
C805 H775 0.950 . S
C805 C800 1.363 . S
C805 C804 1.415 . S
H806 C803 0.999 . S
H807 C788 0.913 . S
H808 C826 0.951 . S
H809 C828 0.951 . S
H810 C830 0.950 . S
H811 C831 0.950 . S
H812 C833 0.950 . S
H813 C836 0.950 . S
H814 C837 0.950 . S
H815 C839 0.950 . S
H816 C840 0.950 . S
H817 C841 0.951 . S
H818 C843 0.951 . S
H819 C845 0.950 . S
H820 C846 0.950 . S
H821 C848 0.950 . S
H822 C851 0.950 . S
H823 C852 0.950 . S
H824 C854 0.950 . S
H825 C855 0.950 . S
C826 H808 0.951 . S
C826 C827 1.366 . S
C826 C828 1.388 . S
C827 C826 1.366 . S
C827 C831 1.385 . S
C828 H809 0.951 . S
C828 C826 1.388 . S
C828 C829 1.366 . S
C829 C828 1.366 . S
C829 C830 1.414 . S
C829 C832 1.499 . S
C830 H810 0.950 . S
C830 C829 1.414 . S
C830 C831 1.374 . S
C831 H811 0.950 . S
C831 C827 1.385 . S
C831 C830 1.374 . S
C832 C829 1.499 . S
C832 C833 1.373 . S
C832 C834 1.389 . S
C833 H812 0.950 . S
C833 C832 1.373 . S
C833 C849 1.377 . S
C834 C832 1.389 . S
C834 C835 1.524 . S
C834 C848 1.377 . S
C835 C834 1.524 . S
C835 C836 1.397 . S
C835 C840 1.363 . S
C836 H813 0.950 . S
C836 C835 1.397 . S
C836 C837 1.334 . S
C837 H814 0.950 . S
C837 C836 1.334 . S
C837 C838 1.287 . S
C838 C837 1.287 . S
C838 C839 1.524 . S
C838 H857 0.913 . S
C839 H815 0.950 . S
C839 C838 1.524 . S
C839 C840 1.415 . S
C840 H816 0.950 . S
C840 C835 1.363 . S
C840 C839 1.415 . S
C841 H817 0.951 . S
C841 C842 1.366 . S
C841 C843 1.388 . S
C842 C841 1.366 . S
C842 C846 1.385 . S
C843 H818 0.951 . S
C843 C841 1.388 . S
C843 C844 1.366 . S
C844 C843 1.366 . S
C844 C845 1.414 . S
C844 C847 1.499 . S
C845 H819 0.950 . S
C845 C844 1.414 . S
C845 C846 1.374 . S
C846 H820 0.950 . S
C846 C842 1.385 . S
C846 C845 1.374 . S
C847 C844 1.499 . S
C847 C848 1.373 . S
C847 C849 1.389 . S
C848 H821 0.950 . S
C848 C834 1.377 . S
C848 C847 1.373 . S
C849 C833 1.377 . S
C849 C847 1.389 . S
C849 C850 1.524 . S
C850 C849 1.524 . S
C850 C851 1.397 . S
C850 C855 1.363 . S
C851 H822 0.950 . S
C851 C850 1.397 . S
C851 C852 1.334 1_554 S
C852 H823 0.950 . S
C852 C851 1.334 1_556 S
C852 C853 1.287 1_556 S
C853 C852 1.287 1_554 S
C853 C854 1.524 . S
C853 H856 0.999 1_554 S
C854 H824 0.950 . S
C854 C853 1.524 . S
C854 C855 1.415 . S
C855 H825 0.950 . S
C855 C850 1.363 . S
C855 C854 1.415 . S
H856 C853 0.999 1_556 S
H857 C838 0.913 . S
H858 C876 0.951 . S
H859 C878 0.951 . S
H860 C880 0.950 . S
H861 C881 0.950 . S
H862 C883 0.950 . S
H863 C886 0.950 . S
H864 C887 0.950 . S
H865 C889 0.950 . S
H866 C890 0.950 . S
H867 C891 0.951 . S
H868 C893 0.951 . S
H869 C895 0.950 . S
H870 C896 0.950 . S
H871 C898 0.950 . S
H872 C901 0.950 . S
H873 C902 0.950 . S
H874 C904 0.950 . S
H875 C905 0.950 . S
C876 H858 0.951 . S
C876 C877 1.366 . S
C876 C878 1.388 . S
C877 C876 1.366 . S
C877 C881 1.385 . S
C878 H859 0.951 . S
C878 C876 1.388 . S
C878 C879 1.366 . S
C879 C878 1.366 . S
C879 C880 1.414 . S
C879 C882 1.499 . S
C880 H860 0.950 . S
C880 C879 1.414 . S
C880 C881 1.374 . S
C881 H861 0.950 . S
C881 C877 1.385 . S
C881 C880 1.374 . S
C882 C879 1.499 . S
C882 C883 1.373 . S
C882 C884 1.389 . S
C883 H862 0.950 . S
C883 C882 1.373 . S
C883 C899 1.377 . S
C884 C882 1.389 . S
C884 C885 1.524 . S
C884 C898 1.377 . S
C885 C884 1.524 . S
C885 C886 1.397 . S
C885 C890 1.363 . S
C886 H863 0.950 . S
C886 C885 1.397 . S
C886 C887 1.334 . S
C887 H864 0.950 . S
C887 C886 1.334 . S
C887 C888 1.287 . S
C888 C887 1.287 . S
C888 C889 1.524 . S
C888 H907 0.913 . S
C889 H865 0.950 . S
C889 C888 1.524 . S
C889 C890 1.415 . S
C890 H866 0.950 . S
C890 C885 1.363 . S
C890 C889 1.415 . S
C891 H867 0.951 . S
C891 C892 1.366 . S
C891 C893 1.388 . S
C892 C891 1.366 . S
C892 C896 1.385 . S
C893 H868 0.951 . S
C893 C891 1.388 . S
C893 C894 1.366 . S
C894 C893 1.366 . S
C894 C895 1.414 . S
C894 C897 1.499 . S
C895 H869 0.950 . S
C895 C894 1.414 . S
C895 C896 1.374 . S
C896 H870 0.950 . S
C896 C892 1.385 . S
C896 C895 1.374 . S
C897 C894 1.499 . S
C897 C898 1.373 . S
C897 C899 1.389 . S
C898 H871 0.950 . S
C898 C884 1.377 . S
C898 C897 1.373 . S
C899 C883 1.377 . S
C899 C897 1.389 . S
C899 C900 1.524 . S
C900 C899 1.524 . S
C900 C901 1.397 . S
C900 C905 1.363 . S
C901 H872 0.950 . S
C901 C900 1.397 . S
C901 C902 1.334 1_554 S
C902 H873 0.950 . S
C902 C901 1.334 1_556 S
C902 C903 1.287 . S
C903 C902 1.287 . S
C903 C904 1.524 1_556 S
C903 H906 0.999 . S
C904 H874 0.950 . S
C904 C903 1.524 1_554 S
C904 C905 1.415 . S
C905 H875 0.950 . S
C905 C900 1.363 . S
C905 C904 1.415 . S
H906 C903 0.999 . S
H907 C888 0.913 . S
H908 C926 0.951 . S
H909 C928 0.951 . S
H910 C930 0.950 . S
H911 C931 0.950 . S
H912 C933 0.950 . S
H913 C936 0.950 . S
H914 C937 0.950 . S
H915 C939 0.950 1_556 S
H916 C940 0.950 . S
H917 C941 0.951 . S
H918 C943 0.951 . S
H919 C945 0.950 . S
H920 C946 0.950 . S
H921 C948 0.950 . S
H922 C951 0.950 . S
H923 C952 0.950 . S
H924 C954 0.950 . S
H925 C955 0.950 . S
C926 H908 0.951 . S
C926 C927 1.366 . S
C926 C928 1.388 . S
C927 C926 1.366 . S
C927 C931 1.385 . S
C928 H909 0.951 . S
C928 C926 1.388 . S
C928 C929 1.366 . S
C929 C928 1.366 . S
C929 C930 1.414 . S
C929 C932 1.499 . S
C930 H910 0.950 . S
C930 C929 1.414 . S
C930 C931 1.374 . S
C931 H911 0.950 . S
C931 C927 1.385 . S
C931 C930 1.374 . S
C932 C929 1.499 . S
C932 C933 1.373 . S
C932 C934 1.389 . S
C933 H912 0.950 . S
C933 C932 1.373 . S
C933 C949 1.377 . S
C934 C932 1.389 . S
C934 C935 1.524 . S
C934 C948 1.377 . S
C935 C934 1.524 . S
C935 C936 1.397 . S
C935 C940 1.363 . S
C936 H913 0.950 . S
C936 C935 1.397 . S
C936 C937 1.334 . S
C937 H914 0.950 . S
C937 C936 1.334 . S
C937 C938 1.287 . S
C938 C937 1.287 . S
C938 C939 1.524 . S
C938 H957 0.913 . S
C939 H915 0.950 1_554 S
C939 C938 1.524 . S
C939 C940 1.415 . S
C940 H916 0.950 . S
C940 C935 1.363 . S
C940 C939 1.415 . S
C941 H917 0.951 . S
C941 C942 1.366 . S
C941 C943 1.388 . S
C942 C941 1.366 . S
C942 C946 1.385 . S
C943 H918 0.951 . S
C943 C941 1.388 . S
C943 C944 1.366 . S
C944 C943 1.366 . S
C944 C945 1.414 . S
C944 C947 1.499 . S
C945 H919 0.950 . S
C945 C944 1.414 . S
C945 C946 1.374 . S
C946 H920 0.950 . S
C946 C942 1.385 . S
C946 C945 1.374 . S
C947 C944 1.499 . S
C947 C948 1.373 . S
C947 C949 1.389 . S
C948 H921 0.950 . S
C948 C934 1.377 . S
C948 C947 1.373 . S
C949 C933 1.377 . S
C949 C947 1.389 . S
C949 C950 1.524 . S
C950 C949 1.524 . S
C950 C951 1.397 . S
C950 C955 1.363 . S
C951 H922 0.950 . S
C951 C950 1.397 . S
C951 C952 1.334 . S
C952 H923 0.950 . S
C952 C951 1.334 . S
C952 C953 1.287 . S
C953 C952 1.287 . S
C953 C954 1.524 . S
C953 H956 0.999 . S
C954 H924 0.950 . S
C954 C953 1.524 . S
C954 C955 1.415 . S
C955 H925 0.950 . S
C955 C950 1.363 . S
C955 C954 1.415 . S
H956 C953 0.999 . S
H957 C938 0.913 . S
H958 C976 0.951 . S
H959 C978 0.951 . S
H960 C980 0.950 . S
H961 C981 0.950 . S
H962 C983 0.950 . S
H963 C986 0.950 . S
H964 C987 0.950 . S
H965 C989 0.950 . S
H966 C990 0.950 . S
H967 C991 0.951 . S
H968 C993 0.951 . S
H969 C995 0.950 . S
H970 C996 0.950 . S
H971 C998 0.950 . S
H972 C1001 0.950 . S
H973 C1002 0.950 . S
H974 C1004 0.950 . S
H975 C1005 0.950 . S
C976 H958 0.951 . S
C976 C977 1.366 . S
C976 C978 1.388 . S
C977 C976 1.366 . S
C977 C981 1.385 . S
C978 H959 0.951 . S
C978 C976 1.388 . S
C978 C979 1.366 . S
C979 C978 1.366 . S
C979 C980 1.414 . S
C979 C982 1.499 . S
C980 H960 0.950 . S
C980 C979 1.414 . S
C980 C981 1.374 . S
C981 H961 0.950 . S
C981 C977 1.385 . S
C981 C980 1.374 . S
C982 C979 1.499 . S
C982 C983 1.373 . S
C982 C984 1.389 . S
C983 H962 0.950 . S
C983 C982 1.373 . S
C983 C999 1.377 . S
C984 C982 1.389 . S
C984 C985 1.524 . S
C984 C998 1.377 . S
C985 C984 1.524 . S
C985 C986 1.397 . S
C985 C990 1.363 . S
C986 H963 0.950 . S
C986 C985 1.397 . S
C986 C987 1.334 . S
C987 H964 0.950 . S
C987 C986 1.334 . S
C987 C988 1.287 . S
C988 C987 1.287 . S
C988 C989 1.524 . S
C988 H1007 0.913 . S
C989 H965 0.950 . S
C989 C988 1.524 . S
C989 C990 1.415 . S
C990 H966 0.950 . S
C990 C985 1.363 . S
C990 C989 1.415 . S
C991 H967 0.951 . S
C991 C992 1.366 . S
C991 C993 1.388 . S
C992 C991 1.366 . S
C992 C996 1.385 . S
C993 H968 0.951 . S
C993 C991 1.388 . S
C993 C994 1.366 . S
C994 C993 1.366 . S
C994 C995 1.414 . S
C994 C997 1.499 . S
C995 H969 0.950 . S
C995 C994 1.414 . S
C995 C996 1.374 . S
C996 H970 0.950 . S
C996 C992 1.385 . S
C996 C995 1.374 . S
C997 C994 1.499 . S
C997 C998 1.373 . S
C997 C999 1.389 . S
C998 H971 0.950 . S
C998 C984 1.377 . S
C998 C997 1.373 . S
C999 C983 1.377 . S
C999 C997 1.389 . S
C999 C1000 1.524 . S
C1000 C999 1.524 . S
C1000 C1001 1.397 . S
C1000 C1005 1.363 . S
C1001 H972 0.950 . S
C1001 C1000 1.397 . S
C1001 C1002 1.334 1_556 S
C1002 H973 0.950 . S
C1002 C1001 1.334 1_554 S
C1002 C1003 1.287 . S
C1003 C1002 1.287 . S
C1003 C1004 1.524 . S
C1003 H1006 0.999 . S
C1004 H974 0.950 . S
C1004 C1003 1.524 . S
C1004 C1005 1.415 1_554 S
C1005 H975 0.950 . S
C1005 C1000 1.363 . S
C1005 C1004 1.415 1_556 S
H1006 C1003 0.999 . S
H1007 C988 0.913 . S
H1008 C1026 0.951 . S
H1009 C1028 0.951 . S
H1010 C1030 0.950 . S
H1011 C1031 0.950 . S
H1012 C1033 0.950 . S
H1013 C1036 0.950 . S
H1014 C1037 0.950 . S
H1015 C1039 0.950 . S
H1016 C1040 0.950 . S
H1017 C1041 0.951 . S
H1018 C1043 0.951 . S
H1019 C1045 0.950 . S
H1020 C1046 0.950 . S
H1021 C1048 0.950 . S
H1022 C1051 0.950 . S
H1023 C1052 0.950 1_554 S
H1024 C1054 0.950 1_554 S
H1025 C1055 0.950 . S
C1026 H1008 0.951 . S
C1026 C1027 1.366 . S
C1026 C1028 1.388 . S
C1027 C1026 1.366 . S
C1027 C1031 1.385 . S
C1028 H1009 0.951 . S
C1028 C1026 1.388 . S
C1028 C1029 1.366 . S
C1029 C1028 1.366 . S
C1029 C1030 1.414 . S
C1029 C1032 1.499 . S
C1030 H1010 0.950 . S
C1030 C1029 1.414 . S
C1030 C1031 1.374 . S
C1031 H1011 0.950 . S
C1031 C1027 1.385 . S
C1031 C1030 1.374 . S
C1032 C1029 1.499 . S
C1032 C1033 1.373 . S
C1032 C1034 1.389 . S
C1033 H1012 0.950 . S
C1033 C1032 1.373 . S
C1033 C1049 1.377 . S
C1034 C1032 1.389 . S
C1034 C1035 1.524 . S
C1034 C1048 1.377 . S
C1035 C1034 1.524 . S
C1035 C1036 1.397 . S
C1035 C1040 1.363 . S
C1036 H1013 0.950 . S
C1036 C1035 1.397 . S
C1036 C1037 1.334 . S
C1037 H1014 0.950 . S
C1037 C1036 1.334 . S
C1037 C1038 1.287 . S
C1038 C1037 1.287 . S
C1038 C1039 1.524 . S
C1038 H1057 0.913 . S
C1039 H1015 0.950 . S
C1039 C1038 1.524 . S
C1039 C1040 1.415 . S
C1040 H1016 0.950 . S
C1040 C1035 1.363 . S
C1040 C1039 1.415 . S
C1041 H1017 0.951 . S
C1041 C1042 1.366 . S
C1041 C1043 1.388 . S
C1042 C1041 1.366 . S
C1042 C1046 1.385 . S
C1043 H1018 0.951 . S
C1043 C1041 1.388 . S
C1043 C1044 1.366 . S
C1044 C1043 1.366 . S
C1044 C1045 1.414 . S
C1044 C1047 1.499 . S
C1045 H1019 0.950 . S
C1045 C1044 1.414 . S
C1045 C1046 1.374 . S
C1046 H1020 0.950 . S
C1046 C1042 1.385 . S
C1046 C1045 1.374 . S
C1047 C1044 1.499 . S
C1047 C1048 1.373 . S
C1047 C1049 1.389 . S
C1048 H1021 0.950 . S
C1048 C1034 1.377 . S
C1048 C1047 1.373 . S
C1049 C1033 1.377 . S
C1049 C1047 1.389 . S
C1049 C1050 1.524 . S
C1050 C1049 1.524 . S
C1050 C1051 1.397 . S
C1050 C1055 1.363 . S
C1051 H1022 0.950 . S
C1051 C1050 1.397 . S
C1051 C1052 1.334 . S
C1052 H1023 0.950 1_556 S
C1052 C1051 1.334 . S
C1052 C1053 1.287 1_556 S
C1053 C1052 1.287 1_554 S
C1053 C1054 1.524 1_554 S
C1053 H1056 0.999 . S
C1054 H1024 0.950 1_556 S
C1054 C1053 1.524 1_556 S
C1054 C1055 1.415 . S
C1055 H1025 0.950 . S
C1055 C1050 1.363 . S
C1055 C1054 1.415 . S
H1056 C1053 0.999 . S
H1057 C1038 0.913 . S
H1058 C1076 0.951 . S
H1059 C1078 0.951 . S
H1060 C1080 0.950 . S
H1061 C1081 0.950 . S
H1062 C1083 0.950 . S
H1063 C1086 0.950 . S
H1064 C1087 0.950 . S
H1065 C1089 0.946 . S
H1066 C1090 0.950 . S
H1067 C1091 0.951 . S
H1068 C1093 0.951 . S
H1069 C1095 0.950 . S
H1070 C1096 0.950 1_554 S
H1071 C1098 0.950 . S
H1072 C1101 0.950 . S
H1073 C1102 0.950 . S
H1074 C1104 0.950 . S
H1075 C1105 0.950 . S
C1076 H1058 0.951 . S
C1076 C1077 1.366 . S
C1076 C1078 1.388 . S
C1077 C1076 1.366 . S
C1077 C1081 1.385 . S
C1078 H1059 0.951 . S
C1078 C1076 1.388 . S
C1078 C1079 1.366 . S
C1079 C1078 1.366 . S
C1079 C1080 1.414 . S
C1079 C1082 1.499 . S
C1080 H1060 0.950 . S
C1080 C1079 1.414 . S
C1080 C1081 1.374 . S
C1081 H1061 0.950 . S
C1081 C1077 1.385 . S
C1081 C1080 1.374 . S
C1082 C1079 1.499 . S
C1082 C1083 1.373 . S
C1082 C1084 1.389 . S
C1083 H1062 0.950 . S
C1083 C1082 1.373 . S
C1083 C1099 1.377 . S
C1084 C1082 1.389 . S
C1084 C1085 1.524 . S
C1084 C1098 1.377 . S
C1085 C1084 1.524 . S
C1085 C1086 1.397 . S
C1085 C1090 1.363 . S
C1086 H1063 0.950 . S
C1086 C1085 1.397 . S
C1086 C1087 1.334 . S
C1087 H1064 0.950 . S
C1087 C1086 1.334 . S
C1087 C1088 1.287 . S
C1088 C1087 1.287 . S
C1088 C1089 1.526 1_556 S
C1088 H1107 0.913 . S
C1089 H1065 0.946 . S
C1089 C1088 1.526 1_554 S
C1089 C1090 1.417 1_554 S
C1090 H1066 0.950 . S
C1090 C1085 1.363 . S
C1090 C1089 1.417 1_556 S
C1091 H1067 0.951 . S
C1091 C1092 1.366 . S
C1091 C1093 1.388 . S
C1092 C1091 1.366 . S
C1092 C1096 1.385 . S
C1093 H1068 0.951 . S
C1093 C1091 1.388 . S
C1093 C1094 1.366 . S
C1094 C1093 1.366 . S
C1094 C1095 1.414 . S
C1094 C1097 1.499 . S
C1095 H1069 0.950 . S
C1095 C1094 1.414 . S
C1095 C1096 1.374 . S
C1096 H1070 0.950 1_556 S
C1096 C1092 1.385 . S
C1096 C1095 1.374 . S
C1097 C1094 1.499 . S
C1097 C1098 1.373 . S
C1097 C1099 1.389 . S
C1098 H1071 0.950 . S
C1098 C1084 1.377 . S
C1098 C1097 1.373 . S
C1099 C1083 1.377 . S
C1099 C1097 1.389 . S
C1099 C1100 1.524 . S
C1100 C1099 1.524 . S
C1100 C1101 1.397 . S
C1100 C1105 1.363 . S
C1101 H1072 0.950 . S
C1101 C1100 1.397 . S
C1101 C1102 1.334 . S
C1102 H1073 0.950 . S
C1102 C1101 1.334 . S
C1102 C1103 1.287 . S
C1103 C1102 1.287 . S
C1103 C1104 1.524 . S
C1103 H1106 0.999 . S
C1104 H1074 0.950 . S
C1104 C1103 1.524 . S
C1104 C1105 1.415 . S
C1105 H1075 0.950 . S
C1105 C1100 1.363 . S
C1105 C1104 1.415 . S
H1106 C1103 0.999 . S
H1107 C1088 0.913 . S
H1108 C1126 0.951 . S
H1109 C1128 0.951 . S
H1110 C1130 0.950 . S
H1111 C1131 0.950 . S
H1112 C1133 0.950 . S
H1113 C1136 0.950 . S
H1114 C1137 0.950 . S
H1115 C1139 0.950 . S
H1116 C1140 0.950 . S
H1117 C1141 0.951 . S
H1118 C1143 0.951 . S
H1119 C1145 0.950 . S
H1120 C1146 0.950 . S
H1121 C1148 0.950 . S
H1122 C1151 0.950 . S
H1123 C1152 0.950 . S
H1124 C1154 0.950 . S
H1125 C1155 0.950 . S
C1126 H1108 0.951 . S
C1126 C1127 1.366 . S
C1126 C1128 1.388 . S
C1127 C1126 1.366 . S
C1127 C1131 1.385 . S
C1128 H1109 0.951 . S
C1128 C1126 1.388 . S
C1128 C1129 1.366 . S
C1129 C1128 1.366 . S
C1129 C1130 1.414 . S
C1129 C1132 1.499 . S
C1130 H1110 0.950 . S
C1130 C1129 1.414 . S
C1130 C1131 1.374 . S
C1131 H1111 0.950 . S
C1131 C1127 1.385 . S
C1131 C1130 1.374 . S
C1132 C1129 1.499 . S
C1132 C1133 1.373 . S
C1132 C1134 1.389 . S
C1133 H1112 0.950 . S
C1133 C1132 1.373 . S
C1133 C1149 1.377 . S
C1134 C1132 1.389 . S
C1134 C1135 1.524 . S
C1134 C1148 1.377 . S
C1135 C1134 1.524 . S
C1135 C1136 1.397 . S
C1135 C1140 1.363 . S
C1136 H1113 0.950 . S
C1136 C1135 1.397 . S
C1136 C1137 1.334 . S
C1137 H1114 0.950 . S
C1137 C1136 1.334 . S
C1137 C1138 1.287 . S
C1138 C1137 1.287 . S
C1138 C1139 1.524 . S
C1138 H1157 0.913 . S
C1139 H1115 0.950 . S
C1139 C1138 1.524 . S
C1139 C1140 1.415 . S
C1140 H1116 0.950 . S
C1140 C1135 1.363 . S
C1140 C1139 1.415 . S
C1141 H1117 0.951 . S
C1141 C1142 1.366 . S
C1141 C1143 1.388 . S
C1142 C1141 1.366 . S
C1142 C1146 1.385 . S
C1143 H1118 0.951 . S
C1143 C1141 1.388 . S
C1143 C1144 1.366 . S
C1144 C1143 1.366 . S
C1144 C1145 1.414 . S
C1144 C1147 1.499 . S
C1145 H1119 0.950 . S
C1145 C1144 1.414 . S
C1145 C1146 1.374 . S
C1146 H1120 0.950 . S
C1146 C1142 1.385 . S
C1146 C1145 1.374 . S
C1147 C1144 1.499 . S
C1147 C1148 1.373 . S
C1147 C1149 1.389 . S
C1148 H1121 0.950 . S
C1148 C1134 1.377 . S
C1148 C1147 1.373 . S
C1149 C1133 1.377 . S
C1149 C1147 1.389 . S
C1149 C1150 1.524 . S
C1150 C1149 1.524 . S
C1150 C1151 1.397 . S
C1150 C1155 1.363 . S
C1151 H1122 0.950 . S
C1151 C1150 1.397 . S
C1151 C1152 1.334 . S
C1152 H1123 0.950 . S
C1152 C1151 1.334 . S
C1152 C1153 1.287 . S
C1153 C1152 1.287 . S
C1153 C1154 1.524 . S
C1153 H1156 0.999 . S
C1154 H1124 0.950 . S
C1154 C1153 1.524 . S
C1154 C1155 1.415 . S
C1155 H1125 0.950 . S
C1155 C1150 1.363 . S
C1155 C1154 1.415 . S
H1156 C1153 0.999 . S
H1157 C1138 0.913 . S
H1158 C1176 0.951 . S
H1159 C1178 0.951 . S
H1160 C1180 0.950 . S
H1161 C1181 0.950 . S
H1162 C1183 0.950 . S
H1163 C1186 0.950 . S
H1164 C1187 0.950 . S
H1165 C1189 0.950 . S
H1166 C1190 0.950 . S
H1167 C1191 0.951 . S
H1168 C1193 0.951 . S
H1169 C1195 0.950 . S
H1170 C1196 0.950 . S
H1171 C1198 0.950 . S
H1172 C1201 0.950 . S
H1173 C1202 0.950 . S
H1174 C1204 0.950 . S
H1175 C1205 0.950 . S
C1176 H1158 0.951 . S
C1176 C1177 1.366 . S
C1176 C1178 1.388 . S
C1177 C1176 1.366 . S
C1177 C1181 1.385 . S
C1178 H1159 0.951 . S
C1178 C1176 1.388 . S
C1178 C1179 1.366 . S
C1179 C1178 1.366 . S
C1179 C1180 1.414 . S
C1179 C1182 1.499 . S
C1180 H1160 0.950 . S
C1180 C1179 1.414 . S
C1180 C1181 1.374 . S
C1181 H1161 0.950 . S
C1181 C1177 1.385 . S
C1181 C1180 1.374 . S
C1182 C1179 1.499 . S
C1182 C1183 1.373 . S
C1182 C1184 1.389 . S
C1183 H1162 0.950 . S
C1183 C1182 1.373 . S
C1183 C1199 1.377 . S
C1184 C1182 1.389 . S
C1184 C1185 1.524 . S
C1184 C1198 1.377 . S
C1185 C1184 1.524 . S
C1185 C1186 1.397 . S
C1185 C1190 1.363 . S
C1186 H1163 0.950 . S
C1186 C1185 1.397 . S
C1186 C1187 1.334 . S
C1187 H1164 0.950 . S
C1187 C1186 1.334 . S
C1187 C1188 1.287 . S
C1188 C1187 1.287 . S
C1188 C1189 1.524 . S
C1188 H1207 0.913 . S
C1189 H1165 0.950 . S
C1189 C1188 1.524 . S
C1189 C1190 1.415 . S
C1190 H1166 0.950 . S
C1190 C1185 1.363 . S
C1190 C1189 1.415 . S
C1191 H1167 0.951 . S
C1191 C1192 1.366 . S
C1191 C1193 1.388 . S
C1192 C1191 1.366 . S
C1192 C1196 1.385 . S
C1193 H1168 0.951 . S
C1193 C1191 1.388 . S
C1193 C1194 1.366 . S
C1194 C1193 1.366 . S
C1194 C1195 1.414 . S
C1194 C1197 1.499 . S
C1195 H1169 0.950 . S
C1195 C1194 1.414 . S
C1195 C1196 1.374 . S
C1196 H1170 0.950 . S
C1196 C1192 1.385 . S
C1196 C1195 1.374 . S
C1197 C1194 1.499 . S
C1197 C1198 1.373 . S
C1197 C1199 1.389 . S
C1198 H1171 0.950 . S
C1198 C1184 1.377 . S
C1198 C1197 1.373 . S
C1199 C1183 1.377 . S
C1199 C1197 1.389 . S
C1199 C1200 1.524 . S
C1200 C1199 1.524 . S
C1200 C1201 1.397 . S
C1200 C1205 1.363 . S
C1201 H1172 0.950 . S
C1201 C1200 1.397 . S
C1201 C1202 1.334 . S
C1202 H1173 0.950 . S
C1202 C1201 1.334 . S
C1202 C1203 1.287 . S
C1203 C1202 1.287 . S
C1203 C1204 1.524 . S
C1203 H1206 0.999 . S
C1204 H1174 0.950 . S
C1204 C1203 1.524 . S
C1204 C1205 1.415 . S
C1205 H1175 0.950 . S
C1205 C1200 1.363 . S
C1205 C1204 1.415 . S
H1206 C1203 0.999 . S
H1207 C1188 0.913 . S
H1208 C1226 0.951 . S
H1209 C1228 0.951 . S
H1210 C1230 0.950 . S
H1211 C1231 0.950 . S
H1212 C1233 0.950 . S
H1213 C1236 0.950 . S
H1214 C1237 0.950 . S
H1215 C1239 0.950 . S
H1216 C1240 0.950 . S
H1217 C1241 0.951 . S
H1218 C1243 0.951 . S
H1219 C1245 0.950 . S
H1220 C1246 0.950 . S
H1221 C1248 0.950 . S
H1222 C1251 0.950 . S
H1223 C1252 0.950 . S
H1224 C1254 0.950 . S
H1225 C1255 0.950 . S
C1226 H1208 0.951 . S
C1226 C1227 1.366 . S
C1226 C1228 1.388 . S
C1227 C1226 1.366 . S
C1227 C1231 1.385 . S
C1228 H1209 0.951 . S
C1228 C1226 1.388 . S
C1228 C1229 1.366 . S
C1229 C1228 1.366 . S
C1229 C1230 1.414 . S
C1229 C1232 1.499 . S
C1230 H1210 0.950 . S
C1230 C1229 1.414 . S
C1230 C1231 1.374 . S
C1231 H1211 0.950 . S
C1231 C1227 1.385 . S
C1231 C1230 1.374 . S
C1232 C1229 1.499 . S
C1232 C1233 1.373 . S
C1232 C1234 1.389 . S
C1233 H1212 0.950 . S
C1233 C1232 1.373 . S
C1233 C1249 1.377 . S
C1234 C1232 1.389 . S
C1234 C1235 1.524 . S
C1234 C1248 1.377 . S
C1235 C1234 1.524 . S
C1235 C1236 1.397 . S
C1235 C1240 1.363 . S
C1236 H1213 0.950 . S
C1236 C1235 1.397 . S
C1236 C1237 1.334 . S
C1237 H1214 0.950 . S
C1237 C1236 1.334 . S
C1237 C1238 1.287 . S
C1238 C1237 1.287 . S
C1238 C1239 1.524 . S
C1238 H1257 0.913 . S
C1239 H1215 0.950 . S
C1239 C1238 1.524 . S
C1239 C1240 1.415 . S
C1240 H1216 0.950 . S
C1240 C1235 1.363 . S
C1240 C1239 1.415 . S
C1241 H1217 0.951 . S
C1241 C1242 1.366 . S
C1241 C1243 1.388 . S
C1242 C1241 1.366 . S
C1242 C1246 1.385 . S
C1243 H1218 0.951 . S
C1243 C1241 1.388 . S
C1243 C1244 1.366 . S
C1244 C1243 1.366 . S
C1244 C1245 1.414 . S
C1244 C1247 1.499 . S
C1245 H1219 0.950 . S
C1245 C1244 1.414 . S
C1245 C1246 1.374 . S
C1246 H1220 0.950 . S
C1246 C1242 1.385 . S
C1246 C1245 1.374 . S
C1247 C1244 1.499 . S
C1247 C1248 1.373 . S
C1247 C1249 1.389 . S
C1248 H1221 0.950 . S
C1248 C1234 1.377 . S
C1248 C1247 1.373 . S
C1249 C1233 1.377 . S
C1249 C1247 1.389 . S
C1249 C1250 1.524 . S
C1250 C1249 1.524 . S
C1250 C1251 1.397 . S
C1250 C1255 1.363 . S
C1251 H1222 0.950 . S
C1251 C1250 1.397 . S
C1251 C1252 1.334 . S
C1252 H1223 0.950 . S
C1252 C1251 1.334 . S
C1252 C1253 1.287 . S
C1253 C1252 1.287 . S
C1253 C1254 1.524 . S
C1253 H1256 0.999 . S
C1254 H1224 0.950 . S
C1254 C1253 1.524 . S
C1254 C1255 1.415 . S
C1255 H1225 0.950 . S
C1255 C1250 1.363 . S
C1255 C1254 1.415 . S
H1256 C1253 0.999 . S
H1257 C1238 0.913 . S
H1258 C1276 0.951 . S
H1259 C1278 0.951 . S
H1260 C1280 0.950 . S
H1261 C1281 0.950 . S
H1262 C1283 0.950 . S
H1263 C1286 0.950 . S
H1264 C1287 0.950 . S
H1265 C1289 0.950 . S
H1266 C1290 0.950 . S
H1267 C1291 0.951 . S
H1268 C1293 0.951 . S
H1269 C1295 0.950 . S
H1270 C1296 0.950 . S
H1271 C1298 0.950 . S
H1272 C1301 0.950 . S
H1273 C1302 0.950 . S
H1274 C1304 0.950 . S
H1275 C1305 0.950 . S
C1276 H1258 0.951 . S
C1276 C1277 1.366 . S
C1276 C1278 1.388 . S
C1277 C1276 1.366 . S
C1277 C1281 1.385 . S
C1278 H1259 0.951 . S
C1278 C1276 1.388 . S
C1278 C1279 1.366 . S
C1279 C1278 1.366 . S
C1279 C1280 1.414 . S
C1279 C1282 1.499 . S
C1280 H1260 0.950 . S
C1280 C1279 1.414 . S
C1280 C1281 1.374 . S
C1281 H1261 0.950 . S
C1281 C1277 1.385 . S
C1281 C1280 1.374 . S
C1282 C1279 1.499 . S
C1282 C1283 1.373 . S
C1282 C1284 1.389 . S
C1283 H1262 0.950 . S
C1283 C1282 1.373 . S
C1283 C1299 1.377 . S
C1284 C1282 1.389 . S
C1284 C1285 1.524 . S
C1284 C1298 1.377 . S
C1285 C1284 1.524 . S
C1285 C1286 1.397 . S
C1285 C1290 1.363 . S
C1286 H1263 0.950 . S
C1286 C1285 1.397 . S
C1286 C1287 1.334 . S
C1287 H1264 0.950 . S
C1287 C1286 1.334 . S
C1287 C1288 1.287 . S
C1288 C1287 1.287 . S
C1288 C1289 1.524 . S
C1288 H1307 0.913 . S
C1289 H1265 0.950 . S
C1289 C1288 1.524 . S
C1289 C1290 1.415 . S
C1290 H1266 0.950 . S
C1290 C1285 1.363 . S
C1290 C1289 1.415 . S
C1291 H1267 0.951 . S
C1291 C1292 1.366 . S
C1291 C1293 1.388 . S
C1292 C1291 1.366 . S
C1292 C1296 1.385 . S
C1293 H1268 0.951 . S
C1293 C1291 1.388 . S
C1293 C1294 1.366 . S
C1294 C1293 1.366 . S
C1294 C1295 1.414 . S
C1294 C1297 1.499 . S
C1295 H1269 0.950 . S
C1295 C1294 1.414 . S
C1295 C1296 1.374 . S
C1296 H1270 0.950 . S
C1296 C1292 1.385 . S
C1296 C1295 1.374 . S
C1297 C1294 1.499 . S
C1297 C1298 1.373 . S
C1297 C1299 1.389 . S
C1298 H1271 0.950 . S
C1298 C1284 1.377 . S
C1298 C1297 1.373 . S
C1299 C1283 1.377 . S
C1299 C1297 1.389 . S
C1299 C1300 1.524 . S
C1300 C1299 1.524 . S
C1300 C1301 1.397 . S
C1300 C1305 1.363 . S
C1301 H1272 0.950 . S
C1301 C1300 1.397 . S
C1301 C1302 1.334 . S
C1302 H1273 0.950 . S
C1302 C1301 1.334 . S
C1302 C1303 1.287 . S
C1303 C1302 1.287 . S
C1303 C1304 1.524 . S
C1303 H1306 0.999 . S
C1304 H1274 0.950 . S
C1304 C1303 1.524 . S
C1304 C1305 1.415 . S
C1305 H1275 0.950 . S
C1305 C1300 1.363 . S
C1305 C1304 1.415 . S
H1306 C1303 0.999 . S
H1307 C1288 0.913 . S
H1308 C1326 0.951 . S
H1309 C1328 0.951 . S
H1310 C1330 0.950 . S
H1311 C1331 0.950 . S
H1312 C1333 0.950 . S
H1313 C1336 0.950 . S
H1314 C1337 0.950 . S
H1315 C1339 0.950 . S
H1316 C1340 0.950 . S
H1317 C1341 0.951 . S
H1318 C1343 0.951 . S
H1319 C1345 0.950 . S
H1320 C1346 0.950 . S
H1321 C1348 0.950 . S
H1322 C1351 0.950 . S
H1323 C1352 0.950 . S
H1324 C1354 0.950 . S
H1325 C1355 0.950 . S
C1326 H1308 0.951 . S
C1326 C1327 1.366 . S
C1326 C1328 1.388 . S
C1327 C1326 1.366 . S
C1327 C1331 1.385 . S
C1328 H1309 0.951 . S
C1328 C1326 1.388 . S
C1328 C1329 1.366 . S
C1329 C1328 1.366 . S
C1329 C1330 1.414 . S
C1329 C1332 1.499 . S
C1330 H1310 0.950 . S
C1330 C1329 1.414 . S
C1330 C1331 1.374 . S
C1331 H1311 0.950 . S
C1331 C1327 1.385 . S
C1331 C1330 1.374 . S
C1332 C1329 1.499 . S
C1332 C1333 1.373 . S
C1332 C1334 1.389 . S
C1333 H1312 0.950 . S
C1333 C1332 1.373 . S
C1333 C1349 1.377 . S
C1334 C1332 1.389 . S
C1334 C1335 1.524 . S
C1334 C1348 1.377 . S
C1335 C1334 1.524 . S
C1335 C1336 1.397 . S
C1335 C1340 1.363 . S
C1336 H1313 0.950 . S
C1336 C1335 1.397 . S
C1336 C1337 1.334 . S
C1337 H1314 0.950 . S
C1337 C1336 1.334 . S
C1337 C1338 1.287 . S
C1338 C1337 1.287 . S
C1338 C1339 1.524 . S
C1338 H1357 0.913 . S
C1339 H1315 0.950 . S
C1339 C1338 1.524 . S
C1339 C1340 1.415 . S
C1340 H1316 0.950 . S
C1340 C1335 1.363 . S
C1340 C1339 1.415 . S
C1341 H1317 0.951 . S
C1341 C1342 1.366 . S
C1341 C1343 1.388 . S
C1342 C1341 1.366 . S
C1342 C1346 1.385 . S
C1343 H1318 0.951 . S
C1343 C1341 1.388 . S
C1343 C1344 1.366 . S
C1344 C1343 1.366 . S
C1344 C1345 1.414 . S
C1344 C1347 1.499 . S
C1345 H1319 0.950 . S
C1345 C1344 1.414 . S
C1345 C1346 1.374 . S
C1346 H1320 0.950 . S
C1346 C1342 1.385 . S
C1346 C1345 1.374 . S
C1347 C1344 1.499 . S
C1347 C1348 1.373 . S
C1347 C1349 1.389 . S
C1348 H1321 0.950 . S
C1348 C1334 1.377 . S
C1348 C1347 1.373 . S
C1349 C1333 1.377 . S
C1349 C1347 1.389 . S
C1349 C1350 1.524 . S
C1350 C1349 1.524 . S
C1350 C1351 1.397 . S
C1350 C1355 1.363 . S
C1351 H1322 0.950 . S
C1351 C1350 1.397 . S
C1351 C1352 1.334 . S
C1352 H1323 0.950 . S
C1352 C1351 1.334 . S
C1352 C1353 1.287 . S
C1353 C1352 1.287 . S
C1353 C1354 1.524 . S
C1353 H1356 0.999 . S
C1354 H1324 0.950 . S
C1354 C1353 1.524 . S
C1354 C1355 1.415 . S
C1355 H1325 0.950 . S
C1355 C1350 1.363 . S
C1355 C1354 1.415 . S
H1356 C1353 0.999 . S
H1357 C1338 0.913 . S
H1358 C1376 0.951 . S
H1359 C1378 0.951 . S
H1360 C1380 0.950 . S
H1361 C1381 0.950 . S
H1362 C1383 0.950 . S
H1363 C1386 0.950 . S
H1364 C1387 0.950 . S
H1365 C1389 0.950 . S
H1366 C1390 0.950 . S
H1367 C1391 0.951 . S
H1368 C1393 0.951 . S
H1369 C1395 0.950 . S
H1370 C1396 0.950 . S
H1371 C1398 0.950 . S
H1372 C1401 0.950 . S
H1373 C1402 0.950 . S
H1374 C1404 0.950 . S
H1375 C1405 0.950 . S
C1376 H1358 0.951 . S
C1376 C1377 1.366 . S
C1376 C1378 1.388 . S
C1377 C1376 1.366 . S
C1377 C1381 1.385 . S
C1378 H1359 0.951 . S
C1378 C1376 1.388 . S
C1378 C1379 1.366 . S
C1379 C1378 1.366 . S
C1379 C1380 1.414 . S
C1379 C1382 1.499 . S
C1380 H1360 0.950 . S
C1380 C1379 1.414 . S
C1380 C1381 1.374 . S
C1381 H1361 0.950 . S
C1381 C1377 1.385 . S
C1381 C1380 1.374 . S
C1382 C1379 1.499 . S
C1382 C1383 1.373 . S
C1382 C1384 1.389 . S
C1383 H1362 0.950 . S
C1383 C1382 1.373 . S
C1383 C1399 1.377 . S
C1384 C1382 1.389 . S
C1384 C1385 1.524 . S
C1384 C1398 1.377 . S
C1385 C1384 1.524 . S
C1385 C1386 1.397 . S
C1385 C1390 1.363 . S
C1386 H1363 0.950 . S
C1386 C1385 1.397 . S
C1386 C1387 1.334 . S
C1387 H1364 0.950 . S
C1387 C1386 1.334 . S
C1387 C1388 1.287 . S
C1388 C1387 1.287 . S
C1388 C1389 1.524 . S
C1388 H1407 0.913 . S
C1389 H1365 0.950 . S
C1389 C1388 1.524 . S
C1389 C1390 1.415 . S
C1390 H1366 0.950 . S
C1390 C1385 1.363 . S
C1390 C1389 1.415 . S
C1391 H1367 0.951 . S
C1391 C1392 1.366 . S
C1391 C1393 1.388 . S
C1392 C1391 1.366 . S
C1392 C1396 1.385 . S
C1393 H1368 0.951 . S
C1393 C1391 1.388 . S
C1393 C1394 1.366 . S
C1394 C1393 1.366 . S
C1394 C1395 1.414 . S
C1394 C1397 1.499 . S
C1395 H1369 0.950 . S
C1395 C1394 1.414 . S
C1395 C1396 1.374 . S
C1396 H1370 0.950 . S
C1396 C1392 1.385 . S
C1396 C1395 1.374 . S
C1397 C1394 1.499 . S
C1397 C1398 1.373 . S
C1397 C1399 1.389 . S
C1398 H1371 0.950 . S
C1398 C1384 1.377 . S
C1398 C1397 1.373 . S
C1399 C1383 1.377 . S
C1399 C1397 1.389 . S
C1399 C1400 1.524 . S
C1400 C1399 1.524 . S
C1400 C1401 1.397 . S
C1400 C1405 1.363 . S
C1401 H1372 0.950 . S
C1401 C1400 1.397 . S
C1401 C1402 1.334 . S
C1402 H1373 0.950 . S
C1402 C1401 1.334 . S
C1402 C1403 1.287 . S
C1403 C1402 1.287 . S
C1403 C1404 1.524 . S
C1403 H1406 0.999 . S
C1404 H1374 0.950 . S
C1404 C1403 1.524 . S
C1404 C1405 1.415 . S
C1405 H1375 0.950 . S
C1405 C1400 1.363 . S
C1405 C1404 1.415 . S
H1406 C1403 0.999 . S
H1407 C1388 0.913 . S
H1408 C1426 0.951 . S
H1409 C1428 0.951 . S
H1410 C1430 0.950 . S
H1411 C1431 0.950 . S
H1412 C1433 0.950 . S
H1413 C1436 0.950 . S
H1414 C1437 0.950 . S
H1415 C1439 0.950 . S
H1416 C1440 0.950 . S
H1417 C1441 0.951 . S
H1418 C1443 0.951 . S
H1419 C1445 0.950 . S
H1420 C1446 0.950 . S
H1421 C1448 0.950 . S
H1422 C1451 0.950 . S
H1423 C1452 0.950 . S
H1424 C1454 0.950 . S
H1425 C1455 0.950 . S
C1426 H1408 0.951 . S
C1426 C1427 1.366 . S
C1426 C1428 1.388 . S
C1427 C1426 1.366 . S
C1427 C1431 1.385 . S
C1428 H1409 0.951 . S
C1428 C1426 1.388 . S
C1428 C1429 1.366 . S
C1429 C1428 1.366 . S
C1429 C1430 1.414 . S
C1429 C1432 1.499 . S
C1430 H1410 0.950 . S
C1430 C1429 1.414 . S
C1430 C1431 1.374 . S
C1431 H1411 0.950 . S
C1431 C1427 1.385 . S
C1431 C1430 1.374 . S
C1432 C1429 1.499 . S
C1432 C1433 1.373 . S
C1432 C1434 1.389 . S
C1433 H1412 0.950 . S
C1433 C1432 1.373 . S
C1433 C1449 1.377 . S
C1434 C1432 1.389 . S
C1434 C1435 1.524 . S
C1434 C1448 1.377 . S
C1435 C1434 1.524 . S
C1435 C1436 1.397 . S
C1435 C1440 1.363 . S
C1436 H1413 0.950 . S
C1436 C1435 1.397 . S
C1436 C1437 1.334 . S
C1437 H1414 0.950 . S
C1437 C1436 1.334 . S
C1437 C1438 1.287 . S
C1438 C1437 1.287 . S
C1438 C1439 1.524 . S
C1438 H1457 0.913 . S
C1439 H1415 0.950 . S
C1439 C1438 1.524 . S
C1439 C1440 1.415 . S
C1440 H1416 0.950 . S
C1440 C1435 1.363 . S
C1440 C1439 1.415 . S
C1441 H1417 0.951 . S
C1441 C1442 1.366 . S
C1441 C1443 1.388 . S
C1442 C1441 1.366 . S
C1442 C1446 1.385 . S
C1443 H1418 0.951 . S
C1443 C1441 1.388 . S
C1443 C1444 1.366 . S
C1444 C1443 1.366 . S
C1444 C1445 1.414 . S
C1444 C1447 1.499 . S
C1445 H1419 0.950 . S
C1445 C1444 1.414 . S
C1445 C1446 1.374 . S
C1446 H1420 0.950 . S
C1446 C1442 1.385 . S
C1446 C1445 1.374 . S
C1447 C1444 1.499 . S
C1447 C1448 1.373 . S
C1447 C1449 1.389 . S
C1448 H1421 0.950 . S
C1448 C1434 1.377 . S
C1448 C1447 1.373 . S
C1449 C1433 1.377 . S
C1449 C1447 1.389 . S
C1449 C1450 1.524 . S
C1450 C1449 1.524 . S
C1450 C1451 1.397 . S
C1450 C1455 1.363 . S
C1451 H1422 0.950 . S
C1451 C1450 1.397 . S
C1451 C1452 1.334 . S
C1452 H1423 0.950 . S
C1452 C1451 1.334 . S
C1452 C1453 1.287 . S
C1453 C1452 1.287 . S
C1453 C1454 1.524 . S
C1453 H1456 0.999 . S
C1454 H1424 0.950 . S
C1454 C1453 1.524 . S
C1454 C1455 1.415 . S
C1455 H1425 0.950 . S
C1455 C1450 1.363 . S
C1455 C1454 1.415 . S
H1456 C1453 0.999 . S
H1457 C1438 0.913 . S
H1458 C1476 0.951 . S
H1459 C1478 0.951 . S
H1460 C1480 0.950 . S
H1461 C1481 0.950 . S
H1462 C1483 0.950 . S
H1463 C1486 0.950 . S
H1464 C1487 0.950 . S
H1465 C1489 0.950 . S
H1466 C1490 0.950 . S
H1467 C1491 0.951 1_556 S
H1468 C1493 0.951 . S
H1469 C1495 0.950 . S
H1470 C1496 0.950 . S
H1471 C1498 0.950 . S
H1472 C1501 0.950 . S
H1473 C1502 0.950 . S
H1474 C1504 0.950 . S
H1475 C1505 0.950 . S
C1476 H1458 0.951 . S
C1476 C1477 1.366 . S
C1476 C1478 1.388 . S
C1477 C1476 1.366 . S
C1477 C1481 1.385 . S
C1478 H1459 0.951 . S
C1478 C1476 1.388 . S
C1478 C1479 1.366 . S
C1479 C1478 1.366 . S
C1479 C1480 1.414 . S
C1479 C1482 1.499 . S
C1480 H1460 0.950 . S
C1480 C1479 1.414 . S
C1480 C1481 1.374 . S
C1481 H1461 0.950 . S
C1481 C1477 1.385 . S
C1481 C1480 1.374 . S
C1482 C1479 1.499 . S
C1482 C1483 1.373 . S
C1482 C1484 1.389 . S
C1483 H1462 0.950 . S
C1483 C1482 1.373 . S
C1483 C1499 1.377 . S
C1484 C1482 1.389 . S
C1484 C1485 1.524 . S
C1484 C1498 1.377 . S
C1485 C1484 1.524 . S
C1485 C1486 1.397 . S
C1485 C1490 1.363 . S
C1486 H1463 0.950 . S
C1486 C1485 1.397 . S
C1486 C1487 1.334 . S
C1487 H1464 0.950 . S
C1487 C1486 1.334 . S
C1487 C1488 1.287 . S
C1488 C1487 1.287 . S
C1488 C1489 1.524 . S
C1488 H1507 0.913 . S
C1489 H1465 0.950 . S
C1489 C1488 1.524 . S
C1489 C1490 1.415 . S
C1490 H1466 0.950 . S
C1490 C1485 1.363 . S
C1490 C1489 1.415 . S
C1491 H1467 0.951 1_554 S
C1491 C1492 1.366 . S
C1491 C1493 1.388 . S
C1492 C1491 1.366 . S
C1492 C1496 1.385 . S
C1493 H1468 0.951 . S
C1493 C1491 1.388 . S
C1493 C1494 1.366 . S
C1494 C1493 1.366 . S
C1494 C1495 1.414 . S
C1494 C1497 1.499 . S
C1495 H1469 0.950 . S
C1495 C1494 1.414 . S
C1495 C1496 1.374 . S
C1496 H1470 0.950 . S
C1496 C1492 1.385 . S
C1496 C1495 1.374 . S
C1497 C1494 1.499 . S
C1497 C1498 1.373 . S
C1497 C1499 1.389 . S
C1498 H1471 0.950 . S
C1498 C1484 1.377 . S
C1498 C1497 1.373 . S
C1499 C1483 1.377 . S
C1499 C1497 1.389 . S
C1499 C1500 1.524 . S
C1500 C1499 1.524 . S
C1500 C1501 1.397 . S
C1500 C1505 1.363 1_554 S
C1501 H1472 0.950 . S
C1501 C1500 1.397 . S
C1501 C1502 1.334 1_554 S
C1502 H1473 0.950 . S
C1502 C1501 1.334 1_556 S
C1502 C1503 1.287 . S
C1503 C1502 1.287 . S
C1503 C1504 1.524 . S
C1503 H1506 0.999 . S
C1504 H1474 0.950 . S
C1504 C1503 1.524 . S
C1504 C1505 1.415 . S
C1505 H1475 0.950 . S
C1505 C1500 1.363 1_556 S
C1505 C1504 1.415 . S
H1506 C1503 0.999 . S
H1507 C1488 0.913 . S
H1508 C1526 0.951 . S
H1509 C1528 0.951 . S
H1510 C1530 0.950 . S
H1511 C1531 0.950 . S
H1512 C1533 0.950 . S
H1513 C1536 0.950 . S
H1514 C1537 0.950 . S
H1515 C1539 0.950 . S
H1516 C1540 0.950 . S
H1517 C1541 0.951 . S
H1518 C1543 0.951 . S
H1519 C1545 0.950 . S
H1520 C1546 0.950 . S
H1521 C1548 0.950 . S
H1522 C1551 0.950 . S
H1523 C1552 0.950 1_556 S
H1524 C1554 0.950 . S
H1525 C1555 0.950 . S
C1526 H1508 0.951 . S
C1526 C1527 1.366 . S
C1526 C1528 1.388 . S
C1527 C1526 1.366 . S
C1527 C1531 1.385 . S
C1528 H1509 0.951 . S
C1528 C1526 1.388 . S
C1528 C1529 1.366 . S
C1529 C1528 1.366 . S
C1529 C1530 1.414 . S
C1529 C1532 1.499 . S
C1530 H1510 0.950 . S
C1530 C1529 1.414 . S
C1530 C1531 1.374 . S
C1531 H1511 0.950 . S
C1531 C1527 1.385 . S
C1531 C1530 1.374 . S
C1532 C1529 1.499 . S
C1532 C1533 1.373 . S
C1532 C1534 1.389 . S
C1533 H1512 0.950 . S
C1533 C1532 1.373 . S
C1533 C1549 1.377 . S
C1534 C1532 1.389 . S
C1534 C1535 1.524 . S
C1534 C1548 1.377 . S
C1535 C1534 1.524 . S
C1535 C1536 1.397 . S
C1535 C1540 1.363 . S
C1536 H1513 0.950 . S
C1536 C1535 1.397 . S
C1536 C1537 1.334 . S
C1537 H1514 0.950 . S
C1537 C1536 1.334 . S
C1537 C1538 1.287 . S
C1538 C1537 1.287 . S
C1538 C1539 1.524 . S
C1538 H1557 0.913 . S
C1539 H1515 0.950 . S
C1539 C1538 1.524 . S
C1539 C1540 1.415 . S
C1540 H1516 0.950 . S
C1540 C1535 1.363 . S
C1540 C1539 1.415 . S
C1541 H1517 0.951 . S
C1541 C1542 1.366 . S
C1541 C1543 1.388 . S
C1542 C1541 1.366 . S
C1542 C1546 1.385 . S
C1543 H1518 0.951 . S
C1543 C1541 1.388 . S
C1543 C1544 1.366 . S
C1544 C1543 1.366 . S
C1544 C1545 1.414 . S
C1544 C1547 1.499 . S
C1545 H1519 0.950 . S
C1545 C1544 1.414 . S
C1545 C1546 1.374 . S
C1546 H1520 0.950 . S
C1546 C1542 1.385 . S
C1546 C1545 1.374 . S
C1547 C1544 1.499 . S
C1547 C1548 1.373 . S
C1547 C1549 1.389 . S
C1548 H1521 0.950 . S
C1548 C1534 1.377 . S
C1548 C1547 1.373 . S
C1549 C1533 1.377 . S
C1549 C1547 1.389 . S
C1549 C1550 1.524 . S
C1550 C1549 1.524 . S
C1550 C1551 1.397 . S
C1550 C1555 1.363 . S
C1551 H1522 0.950 . S
C1551 C1550 1.397 . S
C1551 C1552 1.334 . S
C1552 H1523 0.950 1_554 S
C1552 C1551 1.334 . S
C1552 C1553 1.287 1_554 S
C1553 C1552 1.287 1_556 S
C1553 C1554 1.524 . S
C1553 H1556 0.999 . S
C1554 H1524 0.950 . S
C1554 C1553 1.524 . S
C1554 C1555 1.415 1_556 S
C1555 H1525 0.950 . S
C1555 C1550 1.363 . S
C1555 C1554 1.415 1_554 S
H1556 C1553 0.999 . S
H1557 C1538 0.913 . S
H1558 C1576 0.951 . S
H1559 C1578 0.951 . S
H1560 C1580 0.950 . S
H1561 C1581 0.950 . S
H1562 C1583 0.950 . S
H1563 C1586 0.950 . S
H1564 C1587 0.950 . S
H1565 C1589 0.950 . S
H1566 C1590 0.950 . S
H1567 C1591 0.951 . S
H1568 C1593 0.951 . S
H1569 C1595 0.950 . S
H1570 C1596 0.950 . S
H1571 C1598 0.950 . S
H1572 C1601 0.950 . S
H1573 C1602 0.950 . S
H1574 C1604 0.950 . S
H1575 C1605 0.950 . S
C1576 H1558 0.951 . S
C1576 C1577 1.366 . S
C1576 C1578 1.388 . S
C1577 C1576 1.366 . S
C1577 C1581 1.385 . S
C1578 H1559 0.951 . S
C1578 C1576 1.388 . S
C1578 C1579 1.366 . S
C1579 C1578 1.366 . S
C1579 C1580 1.414 . S
C1579 C1582 1.499 . S
C1580 H1560 0.950 . S
C1580 C1579 1.414 . S
C1580 C1581 1.374 . S
C1581 H1561 0.950 . S
C1581 C1577 1.385 . S
C1581 C1580 1.374 . S
C1582 C1579 1.499 . S
C1582 C1583 1.373 . S
C1582 C1584 1.389 . S
C1583 H1562 0.950 . S
C1583 C1582 1.373 . S
C1583 C1599 1.377 . S
C1584 C1582 1.389 . S
C1584 C1585 1.524 . S
C1584 C1598 1.377 . S
C1585 C1584 1.524 . S
C1585 C1586 1.397 . S
C1585 C1590 1.363 . S
C1586 H1563 0.950 . S
C1586 C1585 1.397 . S
C1586 C1587 1.334 . S
C1587 H1564 0.950 . S
C1587 C1586 1.334 . S
C1587 C1588 1.287 . S
C1588 C1587 1.287 . S
C1588 C1589 1.524 . S
C1588 H1607 0.913 . S
C1589 H1565 0.950 . S
C1589 C1588 1.524 . S
C1589 C1590 1.415 . S
C1590 H1566 0.950 . S
C1590 C1585 1.363 . S
C1590 C1589 1.415 . S
C1591 H1567 0.951 . S
C1591 C1592 1.366 . S
C1591 C1593 1.388 . S
C1592 C1591 1.366 . S
C1592 C1596 1.385 . S
C1593 H1568 0.951 . S
C1593 C1591 1.388 . S
C1593 C1594 1.366 . S
C1594 C1593 1.366 . S
C1594 C1595 1.414 . S
C1594 C1597 1.499 . S
C1595 H1569 0.950 . S
C1595 C1594 1.414 . S
C1595 C1596 1.374 . S
C1596 H1570 0.950 . S
C1596 C1592 1.385 . S
C1596 C1595 1.374 . S
C1597 C1594 1.499 . S
C1597 C1598 1.373 . S
C1597 C1599 1.389 . S
C1598 H1571 0.950 . S
C1598 C1584 1.377 . S
C1598 C1597 1.373 . S
C1599 C1583 1.377 . S
C1599 C1597 1.389 . S
C1599 C1600 1.524 . S
C1600 C1599 1.524 . S
C1600 C1601 1.397 . S
C1600 C1605 1.363 . S
C1601 H1572 0.950 . S
C1601 C1600 1.397 . S
C1601 C1602 1.334 . S
C1602 H1573 0.950 . S
C1602 C1601 1.334 . S
C1602 C1603 1.287 . S
C1603 C1602 1.287 . S
C1603 C1604 1.524 . S
C1603 H1606 0.999 . S
C1604 H1574 0.950 . S
C1604 C1603 1.524 . S
C1604 C1605 1.415 . S
C1605 H1575 0.950 . S
C1605 C1600 1.363 . S
C1605 C1604 1.415 . S
H1606 C1603 0.999 . S
H1607 C1588 0.913 . S
H1608 C1626 0.951 . S
H1609 C1628 0.951 . S
H1610 C1630 0.950 . S
H1611 C1631 0.950 . S
H1612 C1633 0.950 . S
H1613 C1636 0.950 . S
H1614 C1637 0.950 . S
H1615 C1639 0.950 . S
H1616 C1640 0.950 . S
H1617 C1641 0.951 . S
H1618 C1643 0.951 . S
H1619 C1645 0.950 . S
H1620 C1646 0.950 . S
H1621 C1648 0.950 . S
H1622 C1651 0.950 . S
H1623 C1652 0.950 . S
H1624 C1654 0.950 . S
H1625 C1655 0.950 . S
C1626 H1608 0.951 . S
C1626 C1627 1.366 . S
C1626 C1628 1.388 . S
C1627 C1626 1.366 . S
C1627 C1631 1.385 . S
C1628 H1609 0.951 . S
C1628 C1626 1.388 . S
C1628 C1629 1.366 . S
C1629 C1628 1.366 . S
C1629 C1630 1.414 . S
C1629 C1632 1.499 . S
C1630 H1610 0.950 . S
C1630 C1629 1.414 . S
C1630 C1631 1.374 . S
C1631 H1611 0.950 . S
C1631 C1627 1.385 . S
C1631 C1630 1.374 . S
C1632 C1629 1.499 . S
C1632 C1633 1.373 . S
C1632 C1634 1.389 . S
C1633 H1612 0.950 . S
C1633 C1632 1.373 . S
C1633 C1649 1.377 . S
C1634 C1632 1.389 . S
C1634 C1635 1.524 . S
C1634 C1648 1.377 . S
C1635 C1634 1.524 . S
C1635 C1636 1.397 . S
C1635 C1640 1.363 . S
C1636 H1613 0.950 . S
C1636 C1635 1.397 . S
C1636 C1637 1.334 . S
C1637 H1614 0.950 . S
C1637 C1636 1.334 . S
C1637 C1638 1.287 . S
C1638 C1637 1.287 . S
C1638 C1639 1.524 . S
C1638 H1657 0.913 . S
C1639 H1615 0.950 . S
C1639 C1638 1.524 . S
C1639 C1640 1.415 . S
C1640 H1616 0.950 . S
C1640 C1635 1.363 . S
C1640 C1639 1.415 . S
C1641 H1617 0.951 . S
C1641 C1642 1.366 . S
C1641 C1643 1.388 . S
C1642 C1641 1.366 . S
C1642 C1646 1.385 . S
C1643 H1618 0.951 . S
C1643 C1641 1.388 . S
C1643 C1644 1.366 . S
C1644 C1643 1.366 . S
C1644 C1645 1.414 . S
C1644 C1647 1.499 . S
C1645 H1619 0.950 . S
C1645 C1644 1.414 . S
C1645 C1646 1.374 . S
C1646 H1620 0.950 . S
C1646 C1642 1.385 . S
C1646 C1645 1.374 . S
C1647 C1644 1.499 . S
C1647 C1648 1.373 . S
C1647 C1649 1.389 . S
C1648 H1621 0.950 . S
C1648 C1634 1.377 . S
C1648 C1647 1.373 . S
C1649 C1633 1.377 . S
C1649 C1647 1.389 . S
C1649 C1650 1.524 . S
C1650 C1649 1.524 . S
C1650 C1651 1.397 . S
C1650 C1655 1.363 . S
C1651 H1622 0.950 . S
C1651 C1650 1.397 . S
C1651 C1652 1.334 . S
C1652 H1623 0.950 . S
C1652 C1651 1.334 . S
C1652 C1653 1.287 . S
C1653 C1652 1.287 . S
C1653 C1654 1.524 . S
C1653 H1656 0.999 . S
C1654 H1624 0.950 . S
C1654 C1653 1.524 . S
C1654 C1655 1.415 . S
C1655 H1625 0.950 . S
C1655 C1650 1.363 . S
C1655 C1654 1.415 . S
H1656 C1653 0.999 . S
H1657 C1638 0.913 . S
H1658 C1676 0.951 . S
H1659 C1678 0.951 . S
H1660 C1680 0.950 . S
H1661 C1681 0.950 . S
H1662 C1683 0.950 . S
H1663 C1686 0.950 . S
H1664 C1687 0.950 . S
H1665 C1689 0.950 . S
H1666 C1690 0.950 . S
H1667 C1691 0.951 . S
H1668 C1693 0.951 . S
H1669 C1695 0.950 . S
H1670 C1696 0.950 . S
H1671 C1698 0.950 . S
H1672 C1701 0.950 . S
H1673 C1702 0.950 . S
H1674 C1704 0.950 . S
H1675 C1705 0.950 . S
C1676 H1658 0.951 . S
C1676 C1677 1.366 . S
C1676 C1678 1.388 . S
C1677 C1676 1.366 . S
C1677 C1681 1.385 . S
C1678 H1659 0.951 . S
C1678 C1676 1.388 . S
C1678 C1679 1.366 . S
C1679 C1678 1.366 . S
C1679 C1680 1.414 . S
C1679 C1682 1.499 . S
C1680 H1660 0.950 . S
C1680 C1679 1.414 . S
C1680 C1681 1.374 . S
C1681 H1661 0.950 . S
C1681 C1677 1.385 . S
C1681 C1680 1.374 . S
C1682 C1679 1.499 . S
C1682 C1683 1.373 . S
C1682 C1684 1.389 . S
C1683 H1662 0.950 . S
C1683 C1682 1.373 . S
C1683 C1699 1.377 . S
C1684 C1682 1.389 . S
C1684 C1685 1.524 . S
C1684 C1698 1.377 . S
C1685 C1684 1.524 . S
C1685 C1686 1.397 . S
C1685 C1690 1.363 . S
C1686 H1663 0.950 . S
C1686 C1685 1.397 . S
C1686 C1687 1.334 . S
C1687 H1664 0.950 . S
C1687 C1686 1.334 . S
C1687 C1688 1.287 . S
C1688 C1687 1.287 . S
C1688 C1689 1.524 . S
C1688 H1707 0.913 . S
C1689 H1665 0.950 . S
C1689 C1688 1.524 . S
C1689 C1690 1.415 . S
C1690 H1666 0.950 . S
C1690 C1685 1.363 . S
C1690 C1689 1.415 . S
C1691 H1667 0.951 . S
C1691 C1692 1.366 . S
C1691 C1693 1.388 . S
C1692 C1691 1.366 . S
C1692 C1696 1.385 . S
C1693 H1668 0.951 . S
C1693 C1691 1.388 . S
C1693 C1694 1.366 . S
C1694 C1693 1.366 . S
C1694 C1695 1.414 . S
C1694 C1697 1.499 . S
C1695 H1669 0.950 . S
C1695 C1694 1.414 . S
C1695 C1696 1.374 . S
C1696 H1670 0.950 . S
C1696 C1692 1.385 . S
C1696 C1695 1.374 . S
C1697 C1694 1.499 . S
C1697 C1698 1.373 . S
C1697 C1699 1.389 . S
C1698 H1671 0.950 . S
C1698 C1684 1.377 . S
C1698 C1697 1.373 . S
C1699 C1683 1.377 . S
C1699 C1697 1.389 . S
C1699 C1700 1.524 . S
C1700 C1699 1.524 . S
C1700 C1701 1.397 . S
C1700 C1705 1.363 . S
C1701 H1672 0.950 . S
C1701 C1700 1.397 . S
C1701 C1702 1.334 . S
C1702 H1673 0.950 . S
C1702 C1701 1.334 . S
C1702 C1703 1.287 . S
C1703 C1702 1.287 . S
C1703 C1704 1.524 . S
C1703 H1706 0.999 . S
C1704 H1674 0.950 . S
C1704 C1703 1.524 . S
C1704 C1705 1.415 . S
C1705 H1675 0.950 . S
C1705 C1700 1.363 . S
C1705 C1704 1.415 . S
H1706 C1703 0.999 . S
H1707 C1688 0.913 . S
H1708 C1726 0.951 . S
H1709 C1728 0.951 . S
H1710 C1730 0.950 . S
H1711 C1731 0.950 . S
H1712 C1733 0.950 . S
H1713 C1736 0.950 . S
H1714 C1737 0.950 . S
H1715 C1739 0.950 . S
H1716 C1740 0.950 . S
H1717 C1741 0.951 . S
H1718 C1743 0.951 . S
H1719 C1745 0.950 . S
H1720 C1746 0.950 . S
H1721 C1748 0.950 . S
H1722 C1751 0.950 . S
H1723 C1752 0.950 . S
H1724 C1754 0.950 . S
H1725 C1755 0.950 . S
C1726 H1708 0.951 . S
C1726 C1727 1.366 . S
C1726 C1728 1.388 . S
C1727 C1726 1.366 . S
C1727 C1731 1.385 . S
C1728 H1709 0.951 . S
C1728 C1726 1.388 . S
C1728 C1729 1.366 . S
C1729 C1728 1.366 . S
C1729 C1730 1.414 . S
C1729 C1732 1.499 . S
C1730 H1710 0.950 . S
C1730 C1729 1.414 . S
C1730 C1731 1.374 . S
C1731 H1711 0.950 . S
C1731 C1727 1.385 . S
C1731 C1730 1.374 . S
C1732 C1729 1.499 . S
C1732 C1733 1.373 . S
C1732 C1734 1.389 . S
C1733 H1712 0.950 . S
C1733 C1732 1.373 . S
C1733 C1749 1.377 . S
C1734 C1732 1.389 . S
C1734 C1735 1.524 . S
C1734 C1748 1.377 . S
C1735 C1734 1.524 . S
C1735 C1736 1.397 . S
C1735 C1740 1.363 . S
C1736 H1713 0.950 . S
C1736 C1735 1.397 . S
C1736 C1737 1.334 . S
C1737 H1714 0.950 . S
C1737 C1736 1.334 . S
C1737 C1738 1.287 . S
C1738 C1737 1.287 . S
C1738 C1739 1.524 . S
C1738 H1757 0.913 . S
C1739 H1715 0.950 . S
C1739 C1738 1.524 . S
C1739 C1740 1.415 . S
C1740 H1716 0.950 . S
C1740 C1735 1.363 . S
C1740 C1739 1.415 . S
C1741 H1717 0.951 . S
C1741 C1742 1.366 . S
C1741 C1743 1.388 . S
C1742 C1741 1.366 . S
C1742 C1746 1.385 . S
C1743 H1718 0.951 . S
C1743 C1741 1.388 . S
C1743 C1744 1.366 . S
C1744 C1743 1.366 . S
C1744 C1745 1.414 . S
C1744 C1747 1.499 . S
C1745 H1719 0.950 . S
C1745 C1744 1.414 . S
C1745 C1746 1.374 . S
C1746 H1720 0.950 . S
C1746 C1742 1.385 . S
C1746 C1745 1.374 . S
C1747 C1744 1.499 . S
C1747 C1748 1.373 . S
C1747 C1749 1.389 . S
C1748 H1721 0.950 . S
C1748 C1734 1.377 . S
C1748 C1747 1.373 . S
C1749 C1733 1.377 . S
C1749 C1747 1.389 . S
C1749 C1750 1.524 . S
C1750 C1749 1.524 . S
C1750 C1751 1.397 . S
C1750 C1755 1.363 . S
C1751 H1722 0.950 . S
C1751 C1750 1.397 . S
C1751 C1752 1.334 . S
C1752 H1723 0.950 . S
C1752 C1751 1.334 . S
C1752 C1753 1.287 . S
C1753 C1752 1.287 . S
C1753 C1754 1.524 . S
C1753 H1756 0.999 . S
C1754 H1724 0.950 . S
C1754 C1753 1.524 . S
C1754 C1755 1.415 . S
C1755 H1725 0.950 . S
C1755 C1750 1.363 . S
C1755 C1754 1.415 . S
H1756 C1753 0.999 . S
H1757 C1738 0.913 . S
H1758 C1776 0.951 . S
H1759 C1778 0.951 . S
H1760 C1780 0.950 . S
H1761 C1781 0.950 . S
H1762 C1783 0.950 . S
H1763 C1786 0.950 . S
H1764 C1787 0.950 . S
H1765 C1789 0.950 . S
H1766 C1790 0.950 . S
H1767 C1791 0.951 . S
H1768 C1793 0.951 . S
H1769 C1795 0.950 . S
H1770 C1796 0.950 . S
H1771 C1798 0.950 . S
H1772 C1801 0.950 . S
H1773 C1802 0.950 1_556 S
H1774 C1804 0.950 1_556 S
H1775 C1805 0.950 . S
C1776 H1758 0.951 . S
C1776 C1777 1.366 . S
C1776 C1778 1.388 . S
C1777 C1776 1.366 . S
C1777 C1781 1.385 . S
C1778 H1759 0.951 . S
C1778 C1776 1.388 . S
C1778 C1779 1.366 . S
C1779 C1778 1.366 . S
C1779 C1780 1.414 . S
C1779 C1782 1.499 . S
C1780 H1760 0.950 . S
C1780 C1779 1.414 . S
C1780 C1781 1.374 . S
C1781 H1761 0.950 . S
C1781 C1777 1.385 . S
C1781 C1780 1.374 . S
C1782 C1779 1.499 . S
C1782 C1783 1.373 . S
C1782 C1784 1.389 . S
C1783 H1762 0.950 . S
C1783 C1782 1.373 . S
C1783 C1799 1.377 . S
C1784 C1782 1.389 . S
C1784 C1785 1.524 . S
C1784 C1798 1.377 . S
C1785 C1784 1.524 . S
C1785 C1786 1.397 . S
C1785 C1790 1.363 . S
C1786 H1763 0.950 . S
C1786 C1785 1.397 . S
C1786 C1787 1.334 . S
C1787 H1764 0.950 . S
C1787 C1786 1.334 . S
C1787 C1788 1.287 . S
C1788 C1787 1.287 . S
C1788 C1789 1.524 . S
C1788 H1807 0.913 . S
C1789 H1765 0.950 . S
C1789 C1788 1.524 . S
C1789 C1790 1.415 . S
C1790 H1766 0.950 . S
C1790 C1785 1.363 . S
C1790 C1789 1.415 . S
C1791 H1767 0.951 . S
C1791 C1792 1.366 . S
C1791 C1793 1.388 . S
C1792 C1791 1.366 . S
C1792 C1796 1.385 . S
C1793 H1768 0.951 . S
C1793 C1791 1.388 . S
C1793 C1794 1.366 . S
C1794 C1793 1.366 . S
C1794 C1795 1.414 . S
C1794 C1797 1.499 . S
C1795 H1769 0.950 . S
C1795 C1794 1.414 . S
C1795 C1796 1.374 . S
C1796 H1770 0.950 . S
C1796 C1792 1.385 . S
C1796 C1795 1.374 . S
C1797 C1794 1.499 . S
C1797 C1798 1.373 . S
C1797 C1799 1.389 . S
C1798 H1771 0.950 . S
C1798 C1784 1.377 . S
C1798 C1797 1.373 . S
C1799 C1783 1.377 . S
C1799 C1797 1.389 . S
C1799 C1800 1.524 . S
C1800 C1799 1.524 . S
C1800 C1801 1.397 . S
C1800 C1805 1.363 . S
C1801 H1772 0.950 . S
C1801 C1800 1.397 . S
C1801 C1802 1.334 . S
C1802 H1773 0.950 1_554 S
C1802 C1801 1.334 . S
C1802 C1803 1.287 1_554 S
C1803 C1802 1.287 1_556 S
C1803 C1804 1.524 1_556 S
C1803 H1806 0.999 . S
C1804 H1774 0.950 1_554 S
C1804 C1803 1.524 1_554 S
C1804 C1805 1.415 . S
C1805 H1775 0.950 . S
C1805 C1800 1.363 . S
C1805 C1804 1.415 . S
H1806 C1803 0.999 . S
H1807 C1788 0.913 . S
H1808 C1826 0.951 . S
H1809 C1828 0.951 . S
H1810 C1830 0.950 . S
H1811 C1831 0.950 . S
H1812 C1833 0.950 . S
H1813 C1836 0.950 . S
H1814 C1837 0.950 . S
H1815 C1839 0.950 . S
H1816 C1840 0.950 . S
H1817 C1841 0.951 . S
H1818 C1843 0.951 . S
H1819 C1845 0.950 . S
H1820 C1846 0.950 . S
H1821 C1848 0.950 . S
H1822 C1851 0.950 . S
H1823 C1852 0.950 . S
H1824 C1854 0.950 . S
H1825 C1855 0.950 . S
C1826 H1808 0.951 . S
C1826 C1827 1.366 . S
C1826 C1828 1.388 . S
C1827 C1826 1.366 . S
C1827 C1831 1.385 . S
C1828 H1809 0.951 . S
C1828 C1826 1.388 . S
C1828 C1829 1.366 . S
C1829 C1828 1.366 . S
C1829 C1830 1.414 . S
C1829 C1832 1.499 . S
C1830 H1810 0.950 . S
C1830 C1829 1.414 . S
C1830 C1831 1.374 . S
C1831 H1811 0.950 . S
C1831 C1827 1.385 . S
C1831 C1830 1.374 . S
C1832 C1829 1.499 . S
C1832 C1833 1.373 . S
C1832 C1834 1.389 . S
C1833 H1812 0.950 . S
C1833 C1832 1.373 . S
C1833 C1849 1.377 . S
C1834 C1832 1.389 . S
C1834 C1835 1.524 . S
C1834 C1848 1.377 . S
C1835 C1834 1.524 . S
C1835 C1836 1.397 . S
C1835 C1840 1.363 . S
C1836 H1813 0.950 . S
C1836 C1835 1.397 . S
C1836 C1837 1.334 . S
C1837 H1814 0.950 . S
C1837 C1836 1.334 . S
C1837 C1838 1.287 . S
C1838 C1837 1.287 . S
C1838 C1839 1.524 . S
C1838 H1857 0.913 . S
C1839 H1815 0.950 . S
C1839 C1838 1.524 . S
C1839 C1840 1.415 . S
C1840 H1816 0.950 . S
C1840 C1835 1.363 . S
C1840 C1839 1.415 . S
C1841 H1817 0.951 . S
C1841 C1842 1.366 . S
C1841 C1843 1.388 . S
C1842 C1841 1.366 . S
C1842 C1846 1.385 . S
C1843 H1818 0.951 . S
C1843 C1841 1.388 . S
C1843 C1844 1.366 . S
C1844 C1843 1.366 . S
C1844 C1845 1.414 . S
C1844 C1847 1.499 . S
C1845 H1819 0.950 . S
C1845 C1844 1.414 . S
C1845 C1846 1.374 . S
C1846 H1820 0.950 . S
C1846 C1842 1.385 . S
C1846 C1845 1.374 . S
C1847 C1844 1.499 . S
C1847 C1848 1.373 . S
C1847 C1849 1.389 . S
C1848 H1821 0.950 . S
C1848 C1834 1.377 . S
C1848 C1847 1.373 . S
C1849 C1833 1.377 . S
C1849 C1847 1.389 . S
C1849 C1850 1.524 . S
C1850 C1849 1.524 . S
C1850 C1851 1.397 . S
C1850 C1855 1.363 . S
C1851 H1822 0.950 . S
C1851 C1850 1.397 . S
C1851 C1852 1.334 . S
C1852 H1823 0.950 . S
C1852 C1851 1.334 . S
C1852 C1853 1.287 . S
C1853 C1852 1.287 . S
C1853 C1854 1.524 . S
C1853 H1856 0.999 . S
C1854 H1824 0.950 . S
C1854 C1853 1.524 . S
C1854 C1855 1.415 . S
C1855 H1825 0.950 . S
C1855 C1850 1.363 . S
C1855 C1854 1.415 . S
H1856 C1853 0.999 . S
H1857 C1838 0.913 . S
H1858 C1876 0.951 . S
H1859 C1878 0.951 . S
H1860 C1880 0.950 . S
H1861 C1881 0.950 . S
H1862 C1883 0.950 . S
H1863 C1886 0.950 . S
H1864 C1887 0.950 . S
H1865 C1889 0.950 . S
H1866 C1890 0.950 . S
H1867 C1891 0.951 . S
H1868 C1893 0.951 . S
H1869 C1895 0.950 . S
H1870 C1896 0.950 . S
H1871 C1898 0.950 . S
H1872 C1901 0.950 . S
H1873 C1902 0.950 . S
H1874 C1904 0.950 . S
H1875 C1905 0.950 . S
C1876 H1858 0.951 . S
C1876 C1877 1.366 . S
C1876 C1878 1.388 . S
C1877 C1876 1.366 . S
C1877 C1881 1.385 . S
C1878 H1859 0.951 . S
C1878 C1876 1.388 . S
C1878 C1879 1.366 . S
C1879 C1878 1.366 . S
C1879 C1880 1.414 . S
C1879 C1882 1.499 . S
C1880 H1860 0.950 . S
C1880 C1879 1.414 . S
C1880 C1881 1.374 . S
C1881 H1861 0.950 . S
C1881 C1877 1.385 . S
C1881 C1880 1.374 . S
C1882 C1879 1.499 . S
C1882 C1883 1.373 . S
C1882 C1884 1.389 . S
C1883 H1862 0.950 . S
C1883 C1882 1.373 . S
C1883 C1899 1.377 . S
C1884 C1882 1.389 . S
C1884 C1885 1.524 . S
C1884 C1898 1.377 . S
C1885 C1884 1.524 . S
C1885 C1886 1.397 . S
C1885 C1890 1.363 . S
C1886 H1863 0.950 . S
C1886 C1885 1.397 . S
C1886 C1887 1.334 . S
C1887 H1864 0.950 . S
C1887 C1886 1.334 . S
C1887 C1888 1.287 . S
C1888 C1887 1.287 . S
C1888 C1889 1.524 . S
C1888 H1907 0.913 . S
C1889 H1865 0.950 . S
C1889 C1888 1.524 . S
C1889 C1890 1.415 . S
C1890 H1866 0.950 . S
C1890 C1885 1.363 . S
C1890 C1889 1.415 . S
C1891 H1867 0.951 . S
C1891 C1892 1.366 . S
C1891 C1893 1.388 . S
C1892 C1891 1.366 . S
C1892 C1896 1.385 . S
C1893 H1868 0.951 . S
C1893 C1891 1.388 . S
C1893 C1894 1.366 . S
C1894 C1893 1.366 . S
C1894 C1895 1.414 . S
C1894 C1897 1.499 . S
C1895 H1869 0.950 . S
C1895 C1894 1.414 . S
C1895 C1896 1.374 . S
C1896 H1870 0.950 . S
C1896 C1892 1.385 . S
C1896 C1895 1.374 . S
C1897 C1894 1.499 . S
C1897 C1898 1.373 . S
C1897 C1899 1.389 . S
C1898 H1871 0.950 . S
C1898 C1884 1.377 . S
C1898 C1897 1.373 . S
C1899 C1883 1.377 . S
C1899 C1897 1.389 . S
C1899 C1900 1.524 . S
C1900 C1899 1.524 . S
C1900 C1901 1.397 . S
C1900 C1905 1.363 . S
C1901 H1872 0.950 . S
C1901 C1900 1.397 . S
C1901 C1902 1.334 . S
C1902 H1873 0.950 . S
C1902 C1901 1.334 . S
C1902 C1903 1.287 . S
C1903 C1902 1.287 . S
C1903 C1904 1.524 . S
C1903 H1906 0.999 . S
C1904 H1874 0.950 . S
C1904 C1903 1.524 . S
C1904 C1905 1.415 . S
C1905 H1875 0.950 . S
C1905 C1900 1.363 . S
C1905 C1904 1.415 . S
H1906 C1903 0.999 . S
H1907 C1888 0.913 . S
H1908 C1926 0.951 . S
H1909 C1928 0.951 . S
H1910 C1930 0.950 . S
H1911 C1931 0.950 . S
H1912 C1933 0.950 . S
H1913 C1936 0.950 . S
H1914 C1937 0.950 . S
H1915 C1939 0.950 . S
H1916 C1940 0.950 . S
H1917 C1941 0.951 . S
H1918 C1943 0.951 . S
H1919 C1945 0.950 . S
H1920 C1946 0.950 . S
H1921 C1948 0.950 . S
H1922 C1951 0.950 . S
H1923 C1952 0.950 . S
H1924 C1954 0.950 . S
H1925 C1955 0.950 . S
C1926 H1908 0.951 . S
C1926 C1927 1.366 . S
C1926 C1928 1.388 . S
C1927 C1926 1.366 . S
C1927 C1931 1.385 . S
C1928 H1909 0.951 . S
C1928 C1926 1.388 . S
C1928 C1929 1.366 . S
C1929 C1928 1.366 . S
C1929 C1930 1.414 . S
C1929 C1932 1.499 . S
C1930 H1910 0.950 . S
C1930 C1929 1.414 . S
C1930 C1931 1.374 . S
C1931 H1911 0.950 . S
C1931 C1927 1.385 . S
C1931 C1930 1.374 . S
C1932 C1929 1.499 . S
C1932 C1933 1.373 . S
C1932 C1934 1.389 . S
C1933 H1912 0.950 . S
C1933 C1932 1.373 . S
C1933 C1949 1.377 . S
C1934 C1932 1.389 . S
C1934 C1935 1.524 . S
C1934 C1948 1.377 . S
C1935 C1934 1.524 . S
C1935 C1936 1.397 . S
C1935 C1940 1.363 . S
C1936 H1913 0.950 . S
C1936 C1935 1.397 . S
C1936 C1937 1.334 . S
C1937 H1914 0.950 . S
C1937 C1936 1.334 . S
C1937 C1938 1.287 . S
C1938 C1937 1.287 . S
C1938 C1939 1.524 . S
C1938 H1957 0.913 . S
C1939 H1915 0.950 . S
C1939 C1938 1.524 . S
C1939 C1940 1.415 . S
C1940 H1916 0.950 . S
C1940 C1935 1.363 . S
C1940 C1939 1.415 . S
C1941 H1917 0.951 . S
C1941 C1942 1.366 . S
C1941 C1943 1.388 . S
C1942 C1941 1.366 . S
C1942 C1946 1.385 . S
C1943 H1918 0.951 . S
C1943 C1941 1.388 . S
C1943 C1944 1.366 . S
C1944 C1943 1.366 . S
C1944 C1945 1.414 . S
C1944 C1947 1.499 . S
C1945 H1919 0.950 . S
C1945 C1944 1.414 . S
C1945 C1946 1.374 . S
C1946 H1920 0.950 . S
C1946 C1942 1.385 . S
C1946 C1945 1.374 . S
C1947 C1944 1.499 . S
C1947 C1948 1.373 . S
C1947 C1949 1.389 . S
C1948 H1921 0.950 . S
C1948 C1934 1.377 . S
C1948 C1947 1.373 . S
C1949 C1933 1.377 . S
C1949 C1947 1.389 . S
C1949 C1950 1.524 . S
C1950 C1949 1.524 . S
C1950 C1951 1.397 . S
C1950 C1955 1.363 . S
C1951 H1922 0.950 . S
C1951 C1950 1.397 . S
C1951 C1952 1.334 . S
C1952 H1923 0.950 . S
C1952 C1951 1.334 . S
C1952 C1953 1.287 . S
C1953 C1952 1.287 . S
C1953 C1954 1.524 . S
C1953 H1956 0.999 . S
C1954 H1924 0.950 . S
C1954 C1953 1.524 . S
C1954 C1955 1.415 . S
C1955 H1925 0.950 . S
C1955 C1950 1.363 . S
C1955 C1954 1.415 . S
H1956 C1953 0.999 . S
H1957 C1938 0.913 . S
H1958 C1976 0.951 . S
H1959 C1978 0.951 . S
H1960 C1980 0.950 . S
H1961 C1981 0.950 . S
H1962 C1983 0.950 . S
H1963 C1986 0.950 . S
H1964 C1987 0.950 . S
H1965 C1989 0.950 . S
H1966 C1990 0.950 . S
H1967 C1991 0.951 . S
H1968 C1993 0.951 . S
H1969 C1995 0.950 . S
H1970 C1996 0.950 . S
H1971 C1998 0.950 . S
H1972 C2001 0.950 . S
H1973 C2002 0.950 . S
H1974 C2004 0.950 . S
H1975 C2005 0.950 . S
C1976 H1958 0.951 . S
C1976 C1977 1.366 . S
C1976 C1978 1.388 . S
C1977 C1976 1.366 . S
C1977 C1981 1.385 . S
C1978 H1959 0.951 . S
C1978 C1976 1.388 . S
C1978 C1979 1.366 . S
C1979 C1978 1.366 . S
C1979 C1980 1.414 . S
C1979 C1982 1.499 . S
C1980 H1960 0.950 . S
C1980 C1979 1.414 . S
C1980 C1981 1.374 . S
C1981 H1961 0.950 . S
C1981 C1977 1.385 . S
C1981 C1980 1.374 . S
C1982 C1979 1.499 . S
C1982 C1983 1.373 . S
C1982 C1984 1.389 . S
C1983 H1962 0.950 . S
C1983 C1982 1.373 . S
C1983 C1999 1.377 . S
C1984 C1982 1.389 . S
C1984 C1985 1.524 . S
C1984 C1998 1.377 . S
C1985 C1984 1.524 . S
C1985 C1986 1.397 . S
C1985 C1990 1.363 . S
C1986 H1963 0.950 . S
C1986 C1985 1.397 . S
C1986 C1987 1.334 . S
C1987 H1964 0.950 . S
C1987 C1986 1.334 . S
C1987 C1988 1.287 . S
C1988 C1987 1.287 . S
C1988 C1989 1.524 . S
C1988 H2007 0.913 . S
C1989 H1965 0.950 . S
C1989 C1988 1.524 . S
C1989 C1990 1.415 . S
C1990 H1966 0.950 . S
C1990 C1985 1.363 . S
C1990 C1989 1.415 . S
C1991 H1967 0.951 . S
C1991 C1992 1.366 . S
C1991 C1993 1.388 . S
C1992 C1991 1.366 . S
C1992 C1996 1.385 . S
C1993 H1968 0.951 . S
C1993 C1991 1.388 . S
C1993 C1994 1.366 . S
C1994 C1993 1.366 . S
C1994 C1995 1.414 . S
C1994 C1997 1.499 . S
C1995 H1969 0.950 . S
C1995 C1994 1.414 . S
C1995 C1996 1.374 . S
C1996 H1970 0.950 . S
C1996 C1992 1.385 . S
C1996 C1995 1.374 . S
C1997 C1994 1.499 . S
C1997 C1998 1.373 . S
C1997 C1999 1.389 . S
C1998 H1971 0.950 . S
C1998 C1984 1.377 . S
C1998 C1997 1.373 . S
C1999 C1983 1.377 . S
C1999 C1997 1.389 . S
C1999 C2000 1.524 . S
C2000 C1999 1.524 . S
C2000 C2001 1.397 . S
C2000 C2005 1.363 . S
C2001 H1972 0.950 . S
C2001 C2000 1.397 . S
C2001 C2002 1.334 . S
C2002 H1973 0.950 . S
C2002 C2001 1.334 . S
C2002 C2003 1.287 . S
C2003 C2002 1.287 . S
C2003 C2004 1.524 . S
C2003 H2006 0.999 . S
C2004 H1974 0.950 . S
C2004 C2003 1.524 . S
C2004 C2005 1.415 . S
C2005 H1975 0.950 . S
C2005 C2000 1.363 . S
C2005 C2004 1.415 . S
H2006 C2003 0.999 . S
H2007 C1988 0.913 . S
H2008 C2026 0.951 . S
H2009 C2028 0.951 . S
H2010 C2030 0.950 . S
H2011 C2031 0.950 . S
H2012 C2033 0.950 . S
H2013 C2036 0.950 . S
H2014 C2037 0.950 . S
H2015 C2039 0.950 . S
H2016 C2040 0.950 . S
H2017 C2041 0.951 . S
H2018 C2043 0.951 . S
H2019 C2045 0.950 . S
H2020 C2046 0.950 . S
H2021 C2048 0.950 . S
H2022 C2051 0.950 . S
H2023 C2052 0.950 . S
H2024 C2054 0.950 . S
H2025 C2055 0.950 . S
C2026 H2008 0.951 . S
C2026 C2027 1.366 . S
C2026 C2028 1.388 . S
C2027 C2026 1.366 . S
C2027 C2031 1.385 . S
C2028 H2009 0.951 . S
C2028 C2026 1.388 . S
C2028 C2029 1.366 . S
C2029 C2028 1.366 . S
C2029 C2030 1.414 . S
C2029 C2032 1.499 . S
C2030 H2010 0.950 . S
C2030 C2029 1.414 . S
C2030 C2031 1.374 . S
C2031 H2011 0.950 . S
C2031 C2027 1.385 . S
C2031 C2030 1.374 . S
C2032 C2029 1.499 . S
C2032 C2033 1.373 . S
C2032 C2034 1.389 . S
C2033 H2012 0.950 . S
C2033 C2032 1.373 . S
C2033 C2049 1.377 . S
C2034 C2032 1.389 . S
C2034 C2035 1.524 . S
C2034 C2048 1.377 . S
C2035 C2034 1.524 . S
C2035 C2036 1.397 . S
C2035 C2040 1.363 . S
C2036 H2013 0.950 . S
C2036 C2035 1.397 . S
C2036 C2037 1.334 . S
C2037 H2014 0.950 . S
C2037 C2036 1.334 . S
C2037 C2038 1.287 . S
C2038 C2037 1.287 . S
C2038 C2039 1.524 . S
C2038 H2057 0.913 . S
C2039 H2015 0.950 . S
C2039 C2038 1.524 . S
C2039 C2040 1.415 . S
C2040 H2016 0.950 . S
C2040 C2035 1.363 . S
C2040 C2039 1.415 . S
C2041 H2017 0.951 . S
C2041 C2042 1.366 . S
C2041 C2043 1.388 . S
C2042 C2041 1.366 . S
C2042 C2046 1.385 . S
C2043 H2018 0.951 . S
C2043 C2041 1.388 . S
C2043 C2044 1.366 . S
C2044 C2043 1.366 . S
C2044 C2045 1.414 . S
C2044 C2047 1.499 . S
C2045 H2019 0.950 . S
C2045 C2044 1.414 . S
C2045 C2046 1.374 . S
C2046 H2020 0.950 . S
C2046 C2042 1.385 . S
C2046 C2045 1.374 . S
C2047 C2044 1.499 . S
C2047 C2048 1.373 . S
C2047 C2049 1.389 . S
C2048 H2021 0.950 . S
C2048 C2034 1.377 . S
C2048 C2047 1.373 . S
C2049 C2033 1.377 . S
C2049 C2047 1.389 . S
C2049 C2050 1.524 . S
C2050 C2049 1.524 . S
C2050 C2051 1.397 . S
C2050 C2055 1.363 . S
C2051 H2022 0.950 . S
C2051 C2050 1.397 . S
C2051 C2052 1.334 . S
C2052 H2023 0.950 . S
C2052 C2051 1.334 . S
C2052 C2053 1.287 . S
C2053 C2052 1.287 . S
C2053 C2054 1.524 . S
C2053 H2056 0.999 . S
C2054 H2024 0.950 . S
C2054 C2053 1.524 . S
C2054 C2055 1.415 . S
C2055 H2025 0.950 . S
C2055 C2050 1.363 . S
C2055 C2054 1.415 . S
H2056 C2053 0.999 . S
H2057 C2038 0.913 . S
H2058 C2076 0.951 . S
H2059 C2078 0.951 . S
H2060 C2080 0.950 . S
H2061 C2081 0.950 . S
H2062 C2083 0.950 . S
H2063 C2086 0.950 . S
H2064 C2087 0.950 . S
H2065 C2089 0.950 . S
H2066 C2090 0.950 . S
H2067 C2091 0.951 . S
H2068 C2093 0.951 . S
H2069 C2095 0.950 . S
H2070 C2096 0.950 . S
H2071 C2098 0.950 . S
H2072 C2101 0.950 . S
H2073 C2102 0.950 . S
H2074 C2104 0.950 . S
H2075 C2105 0.950 . S
C2076 H2058 0.951 . S
C2076 C2077 1.366 . S
C2076 C2078 1.388 . S
C2077 C2076 1.366 . S
C2077 C2081 1.385 . S
C2078 H2059 0.951 . S
C2078 C2076 1.388 . S
C2078 C2079 1.366 . S
C2079 C2078 1.366 . S
C2079 C2080 1.414 . S
C2079 C2082 1.499 . S
C2080 H2060 0.950 . S
C2080 C2079 1.414 . S
C2080 C2081 1.374 . S
C2081 H2061 0.950 . S
C2081 C2077 1.385 . S
C2081 C2080 1.374 . S
C2082 C2079 1.499 . S
C2082 C2083 1.373 . S
C2082 C2084 1.389 . S
C2083 H2062 0.950 . S
C2083 C2082 1.373 . S
C2083 C2099 1.377 . S
C2084 C2082 1.389 . S
C2084 C2085 1.524 . S
C2084 C2098 1.377 . S
C2085 C2084 1.524 . S
C2085 C2086 1.397 . S
C2085 C2090 1.363 . S
C2086 H2063 0.950 . S
C2086 C2085 1.397 . S
C2086 C2087 1.334 . S
C2087 H2064 0.950 . S
C2087 C2086 1.334 . S
C2087 C2088 1.287 . S
C2088 C2087 1.287 . S
C2088 C2089 1.524 . S
C2088 H2107 0.913 . S
C2089 H2065 0.950 . S
C2089 C2088 1.524 . S
C2089 C2090 1.415 . S
C2090 H2066 0.950 . S
C2090 C2085 1.363 . S
C2090 C2089 1.415 . S
C2091 H2067 0.951 . S
C2091 C2092 1.366 . S
C2091 C2093 1.388 . S
C2092 C2091 1.366 . S
C2092 C2096 1.385 . S
C2093 H2068 0.951 . S
C2093 C2091 1.388 . S
C2093 C2094 1.366 . S
C2094 C2093 1.366 . S
C2094 C2095 1.414 . S
C2094 C2097 1.499 . S
C2095 H2069 0.950 . S
C2095 C2094 1.414 . S
C2095 C2096 1.374 . S
C2096 H2070 0.950 . S
C2096 C2092 1.385 . S
C2096 C2095 1.374 . S
C2097 C2094 1.499 . S
C2097 C2098 1.373 . S
C2097 C2099 1.389 . S
C2098 H2071 0.950 . S
C2098 C2084 1.377 . S
C2098 C2097 1.373 . S
C2099 C2083 1.377 . S
C2099 C2097 1.389 . S
C2099 C2100 1.524 . S
C2100 C2099 1.524 . S
C2100 C2101 1.397 . S
C2100 C2105 1.363 . S
C2101 H2072 0.950 . S
C2101 C2100 1.397 . S
C2101 C2102 1.334 . S
C2102 H2073 0.950 . S
C2102 C2101 1.334 . S
C2102 C2103 1.287 . S
C2103 C2102 1.287 . S
C2103 C2104 1.524 . S
C2103 H2106 0.999 . S
C2104 H2074 0.950 . S
C2104 C2103 1.524 . S
C2104 C2105 1.415 . S
C2105 H2075 0.950 . S
C2105 C2100 1.363 . S
C2105 C2104 1.415 . S
H2106 C2103 0.999 . S
H2107 C2088 0.913 . S
H2108 C2126 0.951 . S
H2109 C2128 0.951 . S
H2110 C2130 0.950 . S
H2111 C2131 0.950 . S
H2112 C2133 0.950 . S
H2113 C2136 0.950 . S
H2114 C2137 0.950 . S
H2115 C2139 0.950 . S
H2116 C2140 0.950 . S
H2117 C2141 0.951 . S
H2118 C2143 0.951 . S
H2119 C2145 0.950 . S
H2120 C2146 0.950 . S
H2121 C2148 0.950 . S
H2122 C2151 0.950 . S
H2123 C2152 0.950 . S
H2124 C2154 0.950 . S
H2125 C2155 0.950 . S
C2126 H2108 0.951 . S
C2126 C2127 1.366 . S
C2126 C2128 1.388 . S
C2127 C2126 1.366 . S
C2127 C2131 1.385 . S
C2128 H2109 0.951 . S
C2128 C2126 1.388 . S
C2128 C2129 1.366 . S
C2129 C2128 1.366 . S
C2129 C2130 1.414 . S
C2129 C2132 1.499 . S
C2130 H2110 0.950 . S
C2130 C2129 1.414 . S
C2130 C2131 1.374 . S
C2131 H2111 0.950 . S
C2131 C2127 1.385 . S
C2131 C2130 1.374 . S
C2132 C2129 1.499 . S
C2132 C2133 1.373 . S
C2132 C2134 1.389 . S
C2133 H2112 0.950 . S
C2133 C2132 1.373 . S
C2133 C2149 1.377 . S
C2134 C2132 1.389 . S
C2134 C2135 1.524 . S
C2134 C2148 1.377 . S
C2135 C2134 1.524 . S
C2135 C2136 1.397 . S
C2135 C2140 1.363 . S
C2136 H2113 0.950 . S
C2136 C2135 1.397 . S
C2136 C2137 1.334 . S
C2137 H2114 0.950 . S
C2137 C2136 1.334 . S
C2137 C2138 1.287 . S
C2138 C2137 1.287 . S
C2138 C2139 1.524 . S
C2138 H2157 0.913 . S
C2139 H2115 0.950 . S
C2139 C2138 1.524 . S
C2139 C2140 1.415 . S
C2140 H2116 0.950 . S
C2140 C2135 1.363 . S
C2140 C2139 1.415 . S
C2141 H2117 0.951 . S
C2141 C2142 1.366 . S
C2141 C2143 1.388 . S
C2142 C2141 1.366 . S
C2142 C2146 1.385 . S
C2143 H2118 0.951 . S
C2143 C2141 1.388 . S
C2143 C2144 1.366 . S
C2144 C2143 1.366 . S
C2144 C2145 1.414 . S
C2144 C2147 1.499 . S
C2145 H2119 0.950 . S
C2145 C2144 1.414 . S
C2145 C2146 1.374 . S
C2146 H2120 0.950 . S
C2146 C2142 1.385 . S
C2146 C2145 1.374 . S
C2147 C2144 1.499 . S
C2147 C2148 1.373 . S
C2147 C2149 1.389 . S
C2148 H2121 0.950 . S
C2148 C2134 1.377 . S
C2148 C2147 1.373 . S
C2149 C2133 1.377 . S
C2149 C2147 1.389 . S
C2149 C2150 1.524 . S
C2150 C2149 1.524 . S
C2150 C2151 1.397 . S
C2150 C2155 1.363 . S
C2151 H2122 0.950 . S
C2151 C2150 1.397 . S
C2151 C2152 1.334 . S
C2152 H2123 0.950 . S
C2152 C2151 1.334 . S
C2152 C2153 1.287 . S
C2153 C2152 1.287 . S
C2153 C2154 1.524 . S
C2153 H2156 0.999 . S
C2154 H2124 0.950 . S
C2154 C2153 1.524 . S
C2154 C2155 1.415 . S
C2155 H2125 0.950 . S
C2155 C2150 1.363 . S
C2155 C2154 1.415 . S
H2156 C2153 0.999 . S
H2157 C2138 0.913 . S
H2158 C2176 0.951 . S
H2159 C2178 0.951 . S
H2160 C2180 0.950 . S
H2161 C2181 0.950 . S
H2162 C2183 0.950 . S
H2163 C2186 0.950 . S
H2164 C2187 0.950 . S
H2165 C2189 0.950 . S
H2166 C2190 0.950 . S
H2167 C2191 0.951 . S
H2168 C2193 0.951 . S
H2169 C2195 0.950 . S
H2170 C2196 0.950 . S
H2171 C2198 0.950 . S
H2172 C2201 0.950 . S
H2173 C2202 0.950 . S
H2174 C2204 0.950 . S
H2175 C2205 0.950 . S
C2176 H2158 0.951 . S
C2176 C2177 1.366 . S
C2176 C2178 1.388 . S
C2177 C2176 1.366 . S
C2177 C2181 1.385 . S
C2178 H2159 0.951 . S
C2178 C2176 1.388 . S
C2178 C2179 1.366 . S
C2179 C2178 1.366 . S
C2179 C2180 1.414 . S
C2179 C2182 1.499 . S
C2180 H2160 0.950 . S
C2180 C2179 1.414 . S
C2180 C2181 1.374 . S
C2181 H2161 0.950 . S
C2181 C2177 1.385 . S
C2181 C2180 1.374 . S
C2182 C2179 1.499 . S
C2182 C2183 1.373 . S
C2182 C2184 1.389 . S
C2183 H2162 0.950 . S
C2183 C2182 1.373 . S
C2183 C2199 1.377 . S
C2184 C2182 1.389 . S
C2184 C2185 1.524 . S
C2184 C2198 1.377 . S
C2185 C2184 1.524 . S
C2185 C2186 1.397 . S
C2185 C2190 1.363 . S
C2186 H2163 0.950 . S
C2186 C2185 1.397 . S
C2186 C2187 1.334 . S
C2187 H2164 0.950 . S
C2187 C2186 1.334 . S
C2187 C2188 1.287 . S
C2188 C2187 1.287 . S
C2188 C2189 1.524 . S
C2188 H2207 0.913 . S
C2189 H2165 0.950 . S
C2189 C2188 1.524 . S
C2189 C2190 1.415 . S
C2190 H2166 0.950 . S
C2190 C2185 1.363 . S
C2190 C2189 1.415 . S
C2191 H2167 0.951 . S
C2191 C2192 1.366 . S
C2191 C2193 1.388 . S
C2192 C2191 1.366 . S
C2192 C2196 1.385 . S
C2193 H2168 0.951 . S
C2193 C2191 1.388 . S
C2193 C2194 1.366 . S
C2194 C2193 1.366 . S
C2194 C2195 1.414 . S
C2194 C2197 1.499 . S
C2195 H2169 0.950 . S
C2195 C2194 1.414 . S
C2195 C2196 1.374 . S
C2196 H2170 0.950 . S
C2196 C2192 1.385 . S
C2196 C2195 1.374 . S
C2197 C2194 1.499 . S
C2197 C2198 1.373 . S
C2197 C2199 1.389 . S
C2198 H2171 0.950 . S
C2198 C2184 1.377 . S
C2198 C2197 1.373 . S
C2199 C2183 1.377 . S
C2199 C2197 1.389 . S
C2199 C2200 1.524 . S
C2200 C2199 1.524 . S
C2200 C2201 1.397 . S
C2200 C2205 1.363 . S
C2201 H2172 0.950 . S
C2201 C2200 1.397 . S
C2201 C2202 1.334 . S
C2202 H2173 0.950 . S
C2202 C2201 1.334 . S
C2202 C2203 1.287 . S
C2203 C2202 1.287 . S
C2203 C2204 1.524 . S
C2203 H2206 0.999 . S
C2204 H2174 0.950 . S
C2204 C2203 1.524 . S
C2204 C2205 1.415 . S
C2205 H2175 0.950 . S
C2205 C2200 1.363 . S
C2205 C2204 1.415 . S
H2206 C2203 0.999 . S
H2207 C2188 0.913 . S
H2208 C2226 0.951 . S
H2209 C2228 0.951 . S
H2210 C2230 0.950 . S
H2211 C2231 0.950 . S
H2212 C2233 0.950 . S
H2213 C2236 0.950 . S
H2214 C2237 0.950 . S
H2215 C2239 0.950 . S
H2216 C2240 0.950 . S
H2217 C2241 0.951 . S
H2218 C2243 0.951 . S
H2219 C2245 0.950 . S
H2220 C2246 0.950 . S
H2221 C2248 0.950 . S
H2222 C2251 0.950 . S
H2223 C2252 0.950 . S
H2224 C2254 0.950 . S
H2225 C2255 0.950 . S
C2226 H2208 0.951 . S
C2226 C2227 1.366 . S
C2226 C2228 1.388 . S
C2227 C2226 1.366 . S
C2227 C2231 1.385 . S
C2228 H2209 0.951 . S
C2228 C2226 1.388 . S
C2228 C2229 1.366 . S
C2229 C2228 1.366 . S
C2229 C2230 1.414 . S
C2229 C2232 1.499 . S
C2230 H2210 0.950 . S
C2230 C2229 1.414 . S
C2230 C2231 1.374 . S
C2231 H2211 0.950 . S
C2231 C2227 1.385 . S
C2231 C2230 1.374 . S
C2232 C2229 1.499 . S
C2232 C2233 1.373 . S
C2232 C2234 1.389 . S
C2233 H2212 0.950 . S
C2233 C2232 1.373 . S
C2233 C2249 1.377 . S
C2234 C2232 1.389 . S
C2234 C2235 1.524 . S
C2234 C2248 1.377 . S
C2235 C2234 1.524 . S
C2235 C2236 1.397 . S
C2235 C2240 1.363 . S
C2236 H2213 0.950 . S
C2236 C2235 1.397 . S
C2236 C2237 1.334 . S
C2237 H2214 0.950 . S
C2237 C2236 1.334 . S
C2237 C2238 1.287 . S
C2238 C2237 1.287 . S
C2238 C2239 1.524 . S
C2238 H2257 0.913 . S
C2239 H2215 0.950 . S
C2239 C2238 1.524 . S
C2239 C2240 1.415 . S
C2240 H2216 0.950 . S
C2240 C2235 1.363 . S
C2240 C2239 1.415 . S
C2241 H2217 0.951 . S
C2241 C2242 1.366 . S
C2241 C2243 1.388 . S
C2242 C2241 1.366 . S
C2242 C2246 1.385 . S
C2243 H2218 0.951 . S
C2243 C2241 1.388 . S
C2243 C2244 1.366 . S
C2244 C2243 1.366 . S
C2244 C2245 1.414 . S
C2244 C2247 1.499 . S
C2245 H2219 0.950 . S
C2245 C2244 1.414 . S
C2245 C2246 1.374 . S
C2246 H2220 0.950 . S
C2246 C2242 1.385 . S
C2246 C2245 1.374 . S
C2247 C2244 1.499 . S
C2247 C2248 1.373 . S
C2247 C2249 1.389 . S
C2248 H2221 0.950 . S
C2248 C2234 1.377 . S
C2248 C2247 1.373 . S
C2249 C2233 1.377 . S
C2249 C2247 1.389 . S
C2249 C2250 1.524 . S
C2250 C2249 1.524 . S
C2250 C2251 1.397 . S
C2250 C2255 1.363 . S
C2251 H2222 0.950 . S
C2251 C2250 1.397 . S
C2251 C2252 1.334 . S
C2252 H2223 0.950 . S
C2252 C2251 1.334 . S
C2252 C2253 1.287 . S
C2253 C2252 1.287 . S
C2253 C2254 1.524 . S
C2253 H2256 0.999 . S
C2254 H2224 0.950 . S
C2254 C2253 1.524 . S
C2254 C2255 1.415 . S
C2255 H2225 0.950 . S
C2255 C2250 1.363 . S
C2255 C2254 1.415 . S
H2256 C2253 0.999 . S
H2257 C2238 0.913 . S
H2258 C2276 0.951 . S
H2259 C2278 0.951 . S
H2260 C2280 0.950 . S
H2261 C2281 0.950 . S
H2262 C2283 0.950 . S
H2263 C2286 0.950 . S
H2264 C2287 0.950 . S
H2265 C2289 0.950 . S
H2266 C2290 0.950 . S
H2267 C2291 0.951 . S
H2268 C2293 0.951 . S
H2269 C2295 0.950 . S
H2270 C2296 0.950 . S
H2271 C2298 0.950 . S
H2272 C2301 0.950 . S
H2273 C2302 0.950 . S
H2274 C2304 0.950 . S
H2275 C2305 0.950 . S
C2276 H2258 0.951 . S
C2276 C2277 1.366 . S
C2276 C2278 1.388 . S
C2277 C2276 1.366 . S
C2277 C2281 1.385 . S
C2278 H2259 0.951 . S
C2278 C2276 1.388 . S
C2278 C2279 1.366 . S
C2279 C2278 1.366 . S
C2279 C2280 1.414 . S
C2279 C2282 1.499 . S
C2280 H2260 0.950 . S
C2280 C2279 1.414 . S
C2280 C2281 1.374 . S
C2281 H2261 0.950 . S
C2281 C2277 1.385 . S
C2281 C2280 1.374 . S
C2282 C2279 1.499 . S
C2282 C2283 1.373 . S
C2282 C2284 1.389 . S
C2283 H2262 0.950 . S
C2283 C2282 1.373 . S
C2283 C2299 1.377 . S
C2284 C2282 1.389 . S
C2284 C2285 1.524 . S
C2284 C2298 1.377 . S
C2285 C2284 1.524 . S
C2285 C2286 1.397 . S
C2285 C2290 1.363 . S
C2286 H2263 0.950 . S
C2286 C2285 1.397 . S
C2286 C2287 1.334 . S
C2287 H2264 0.950 . S
C2287 C2286 1.334 . S
C2287 C2288 1.287 . S
C2288 C2287 1.287 . S
C2288 C2289 1.524 . S
C2288 H2307 0.913 . S
C2289 H2265 0.950 . S
C2289 C2288 1.524 . S
C2289 C2290 1.415 . S
C2290 H2266 0.950 . S
C2290 C2285 1.363 . S
C2290 C2289 1.415 . S
C2291 H2267 0.951 . S
C2291 C2292 1.366 . S
C2291 C2293 1.388 . S
C2292 C2291 1.366 . S
C2292 C2296 1.385 . S
C2293 H2268 0.951 . S
C2293 C2291 1.388 . S
C2293 C2294 1.366 . S
C2294 C2293 1.366 . S
C2294 C2295 1.414 . S
C2294 C2297 1.499 . S
C2295 H2269 0.950 . S
C2295 C2294 1.414 . S
C2295 C2296 1.374 . S
C2296 H2270 0.950 . S
C2296 C2292 1.385 . S
C2296 C2295 1.374 . S
C2297 C2294 1.499 . S
C2297 C2298 1.373 . S
C2297 C2299 1.389 . S
C2298 H2271 0.950 . S
C2298 C2284 1.377 . S
C2298 C2297 1.373 . S
C2299 C2283 1.377 . S
C2299 C2297 1.389 . S
C2299 C2300 1.524 . S
C2300 C2299 1.524 . S
C2300 C2301 1.397 . S
C2300 C2305 1.363 . S
C2301 H2272 0.950 . S
C2301 C2300 1.397 . S
C2301 C2302 1.334 . S
C2302 H2273 0.950 . S
C2302 C2301 1.334 . S
C2302 C2303 1.287 . S
C2303 C2302 1.287 . S
C2303 C2304 1.524 . S
C2303 H2306 0.999 . S
C2304 H2274 0.950 . S
C2304 C2303 1.524 . S
C2304 C2305 1.415 . S
C2305 H2275 0.950 . S
C2305 C2300 1.363 . S
C2305 C2304 1.415 . S
H2306 C2303 0.999 . S
H2307 C2288 0.913 . S
H2308 C2326 0.951 . S
H2309 C2328 0.951 . S
H2310 C2330 0.950 . S
H2311 C2331 0.950 . S
H2312 C2333 0.950 . S
H2313 C2336 0.950 . S
H2314 C2337 0.950 . S
H2315 C2339 0.950 . S
H2316 C2340 0.950 . S
H2317 C2341 0.951 . S
H2318 C2343 0.951 . S
H2319 C2345 0.950 . S
H2320 C2346 0.950 . S
H2321 C2348 0.950 . S
H2322 C2351 0.950 . S
H2323 C2352 0.950 . S
H2324 C2354 0.950 . S
H2325 C2355 0.950 . S
C2326 H2308 0.951 . S
C2326 C2327 1.366 . S
C2326 C2328 1.388 . S
C2327 C2326 1.366 . S
C2327 C2331 1.385 . S
C2328 H2309 0.951 . S
C2328 C2326 1.388 . S
C2328 C2329 1.366 . S
C2329 C2328 1.366 . S
C2329 C2330 1.414 . S
C2329 C2332 1.499 . S
C2330 H2310 0.950 . S
C2330 C2329 1.414 . S
C2330 C2331 1.374 . S
C2331 H2311 0.950 . S
C2331 C2327 1.385 . S
C2331 C2330 1.374 . S
C2332 C2329 1.499 . S
C2332 C2333 1.373 . S
C2332 C2334 1.389 . S
C2333 H2312 0.950 . S
C2333 C2332 1.373 . S
C2333 C2349 1.377 . S
C2334 C2332 1.389 . S
C2334 C2335 1.524 . S
C2334 C2348 1.377 . S
C2335 C2334 1.524 . S
C2335 C2336 1.397 . S
C2335 C2340 1.363 . S
C2336 H2313 0.950 . S
C2336 C2335 1.397 . S
C2336 C2337 1.334 . S
C2337 H2314 0.950 . S
C2337 C2336 1.334 . S
C2337 C2338 1.287 . S
C2338 C2337 1.287 . S
C2338 C2339 1.524 . S
C2338 H2357 0.913 . S
C2339 H2315 0.950 . S
C2339 C2338 1.524 . S
C2339 C2340 1.415 . S
C2340 H2316 0.950 . S
C2340 C2335 1.363 . S
C2340 C2339 1.415 . S
C2341 H2317 0.951 . S
C2341 C2342 1.366 . S
C2341 C2343 1.388 . S
C2342 C2341 1.366 . S
C2342 C2346 1.385 . S
C2343 H2318 0.951 . S
C2343 C2341 1.388 . S
C2343 C2344 1.366 . S
C2344 C2343 1.366 . S
C2344 C2345 1.414 . S
C2344 C2347 1.499 . S
C2345 H2319 0.950 . S
C2345 C2344 1.414 . S
C2345 C2346 1.374 . S
C2346 H2320 0.950 . S
C2346 C2342 1.385 . S
C2346 C2345 1.374 . S
C2347 C2344 1.499 . S
C2347 C2348 1.373 . S
C2347 C2349 1.389 . S
C2348 H2321 0.950 . S
C2348 C2334 1.377 . S
C2348 C2347 1.373 . S
C2349 C2333 1.377 . S
C2349 C2347 1.389 . S
C2349 C2350 1.524 . S
C2350 C2349 1.524 . S
C2350 C2351 1.397 . S
C2350 C2355 1.363 . S
C2351 H2322 0.950 . S
C2351 C2350 1.397 . S
C2351 C2352 1.334 . S
C2352 H2323 0.950 . S
C2352 C2351 1.334 . S
C2352 C2353 1.287 . S
C2353 C2352 1.287 . S
C2353 C2354 1.524 . S
C2353 H2356 0.999 . S
C2354 H2324 0.950 . S
C2354 C2353 1.524 . S
C2354 C2355 1.415 . S
C2355 H2325 0.950 . S
C2355 C2350 1.363 . S
C2355 C2354 1.415 . S
H2356 C2353 0.999 . S
H2357 C2338 0.913 . S
H2358 C2376 0.951 . S
H2359 C2378 0.951 . S
H2360 C2380 0.950 . S
H2361 C2381 0.950 . S
H2362 C2383 0.950 . S
H2363 C2386 0.950 . S
H2364 C2387 0.950 . S
H2365 C2389 0.950 . S
H2366 C2390 0.950 . S
H2367 C2391 0.951 . S
H2368 C2393 0.951 . S
H2369 C2395 0.950 . S
H2370 C2396 0.950 . S
H2371 C2398 0.950 . S
H2372 C2401 0.950 . S
H2373 C2402 0.950 . S
H2374 C2404 0.950 . S
H2375 C2405 0.950 . S
C2376 H2358 0.951 . S
C2376 C2377 1.366 . S
C2376 C2378 1.388 . S
C2377 C2376 1.366 . S
C2377 C2381 1.385 . S
C2378 H2359 0.951 . S
C2378 C2376 1.388 . S
C2378 C2379 1.366 . S
C2379 C2378 1.366 . S
C2379 C2380 1.414 . S
C2379 C2382 1.499 . S
C2380 H2360 0.950 . S
C2380 C2379 1.414 . S
C2380 C2381 1.374 . S
C2381 H2361 0.950 . S
C2381 C2377 1.385 . S
C2381 C2380 1.374 . S
C2382 C2379 1.499 . S
C2382 C2383 1.373 . S
C2382 C2384 1.389 . S
C2383 H2362 0.950 . S
C2383 C2382 1.373 . S
C2383 C2399 1.377 . S
C2384 C2382 1.389 . S
C2384 C2385 1.524 . S
C2384 C2398 1.377 . S
C2385 C2384 1.524 . S
C2385 C2386 1.397 . S
C2385 C2390 1.363 . S
C2386 H2363 0.950 . S
C2386 C2385 1.397 . S
C2386 C2387 1.334 . S
C2387 H2364 0.950 . S
C2387 C2386 1.334 . S
C2387 C2388 1.287 . S
C2388 C2387 1.287 . S
C2388 C2389 1.524 . S
C2388 H2407 0.913 . S
C2389 H2365 0.950 . S
C2389 C2388 1.524 . S
C2389 C2390 1.415 . S
C2390 H2366 0.950 . S
C2390 C2385 1.363 . S
C2390 C2389 1.415 . S
C2391 H2367 0.951 . S
C2391 C2392 1.366 . S
C2391 C2393 1.388 . S
C2392 C2391 1.366 . S
C2392 C2396 1.385 . S
C2393 H2368 0.951 . S
C2393 C2391 1.388 . S
C2393 C2394 1.366 . S
C2394 C2393 1.366 . S
C2394 C2395 1.414 . S
C2394 C2397 1.499 . S
C2395 H2369 0.950 . S
C2395 C2394 1.414 . S
C2395 C2396 1.374 . S
C2396 H2370 0.950 . S
C2396 C2392 1.385 . S
C2396 C2395 1.374 . S
C2397 C2394 1.499 . S
C2397 C2398 1.373 . S
C2397 C2399 1.389 . S
C2398 H2371 0.950 . S
C2398 C2384 1.377 . S
C2398 C2397 1.373 . S
C2399 C2383 1.377 . S
C2399 C2397 1.389 . S
C2399 C2400 1.524 . S
C2400 C2399 1.524 . S
C2400 C2401 1.397 . S
C2400 C2405 1.363 . S
C2401 H2372 0.950 . S
C2401 C2400 1.397 . S
C2401 C2402 1.334 . S
C2402 H2373 0.950 . S
C2402 C2401 1.334 . S
C2402 C2403 1.287 . S
C2403 C2402 1.287 . S
C2403 C2404 1.524 . S
C2403 H2406 0.999 . S
C2404 H2374 0.950 . S
C2404 C2403 1.524 . S
C2404 C2405 1.415 . S
C2405 H2375 0.950 . S
C2405 C2400 1.363 . S
C2405 C2404 1.415 . S
H2406 C2403 0.999 . S
H2407 C2388 0.913 . S
H2408 C2426 0.951 . S
H2409 C2428 0.951 . S
H2410 C2430 0.950 . S
H2411 C2431 0.950 . S
H2412 C2433 0.950 . S
H2413 C2436 0.950 . S
H2414 C2437 0.950 . S
H2415 C2439 0.950 . S
H2416 C2440 0.950 . S
H2417 C2441 0.951 . S
H2418 C2443 0.951 . S
H2419 C2445 0.950 . S
H2420 C2446 0.950 . S
H2421 C2448 0.950 . S
H2422 C2451 0.950 . S
H2423 C2452 0.950 . S
H2424 C2454 0.950 . S
H2425 C2455 0.950 . S
C2426 H2408 0.951 . S
C2426 C2427 1.366 . S
C2426 C2428 1.388 . S
C2427 C2426 1.366 . S
C2427 C2431 1.385 . S
C2428 H2409 0.951 . S
C2428 C2426 1.388 . S
C2428 C2429 1.366 . S
C2429 C2428 1.366 . S
C2429 C2430 1.414 . S
C2429 C2432 1.499 . S
C2430 H2410 0.950 . S
C2430 C2429 1.414 . S
C2430 C2431 1.374 . S
C2431 H2411 0.950 . S
C2431 C2427 1.385 . S
C2431 C2430 1.374 . S
C2432 C2429 1.499 . S
C2432 C2433 1.373 . S
C2432 C2434 1.389 . S
C2433 H2412 0.950 . S
C2433 C2432 1.373 . S
C2433 C2449 1.377 . S
C2434 C2432 1.389 . S
C2434 C2435 1.524 . S
C2434 C2448 1.377 . S
C2435 C2434 1.524 . S
C2435 C2436 1.397 . S
C2435 C2440 1.363 . S
C2436 H2413 0.950 . S
C2436 C2435 1.397 . S
C2436 C2437 1.334 . S
C2437 H2414 0.950 . S
C2437 C2436 1.334 . S
C2437 C2438 1.287 . S
C2438 C2437 1.287 . S
C2438 C2439 1.524 . S
C2438 H2457 0.913 . S
C2439 H2415 0.950 . S
C2439 C2438 1.524 . S
C2439 C2440 1.415 . S
C2440 H2416 0.950 . S
C2440 C2435 1.363 . S
C2440 C2439 1.415 . S
C2441 H2417 0.951 . S
C2441 C2442 1.366 . S
C2441 C2443 1.388 . S
C2442 C2441 1.366 . S
C2442 C2446 1.385 . S
C2443 H2418 0.951 . S
C2443 C2441 1.388 . S
C2443 C2444 1.366 . S
C2444 C2443 1.366 . S
C2444 C2445 1.414 . S
C2444 C2447 1.499 . S
C2445 H2419 0.950 . S
C2445 C2444 1.414 . S
C2445 C2446 1.374 . S
C2446 H2420 0.950 . S
C2446 C2442 1.385 . S
C2446 C2445 1.374 . S
C2447 C2444 1.499 . S
C2447 C2448 1.373 . S
C2447 C2449 1.389 . S
C2448 H2421 0.950 . S
C2448 C2434 1.377 . S
C2448 C2447 1.373 . S
C2449 C2433 1.377 . S
C2449 C2447 1.389 . S
C2449 C2450 1.524 . S
C2450 C2449 1.524 . S
C2450 C2451 1.397 . S
C2450 C2455 1.363 . S
C2451 H2422 0.950 . S
C2451 C2450 1.397 . S
C2451 C2452 1.334 . S
C2452 H2423 0.950 . S
C2452 C2451 1.334 . S
C2452 C2453 1.287 . S
C2453 C2452 1.287 . S
C2453 C2454 1.524 . S
C2453 H2456 0.999 . S
C2454 H2424 0.950 . S
C2454 C2453 1.524 . S
C2454 C2455 1.415 . S
C2455 H2425 0.950 . S
C2455 C2450 1.363 . S
C2455 C2454 1.415 . S
H2456 C2453 0.999 . S
H2457 C2438 0.913 . S
H2458 C2476 0.951 . S
H2459 C2478 0.951 . S
H2460 C2480 0.950 . S
H2461 C2481 0.950 . S
H2462 C2483 0.950 . S
H2463 C2486 0.950 . S
H2464 C2487 0.950 . S
H2465 C2489 0.950 . S
H2466 C2490 0.950 . S
H2467 C2491 0.951 . S
H2468 C2493 0.951 . S
H2469 C2495 0.950 . S
H2470 C2496 0.950 . S
H2471 C2498 0.950 . S
H2472 C2501 0.950 . S
H2473 C2502 0.950 . S
H2474 C2504 0.950 . S
H2475 C2505 0.950 . S
C2476 H2458 0.951 . S
C2476 C2477 1.366 . S
C2476 C2478 1.388 . S
C2477 C2476 1.366 . S
C2477 C2481 1.385 . S
C2478 H2459 0.951 . S
C2478 C2476 1.388 . S
C2478 C2479 1.366 . S
C2479 C2478 1.366 . S
C2479 C2480 1.414 . S
C2479 C2482 1.499 . S
C2480 H2460 0.950 . S
C2480 C2479 1.414 . S
C2480 C2481 1.374 . S
C2481 H2461 0.950 . S
C2481 C2477 1.385 . S
C2481 C2480 1.374 . S
C2482 C2479 1.499 . S
C2482 C2483 1.373 . S
C2482 C2484 1.389 . S
C2483 H2462 0.950 . S
C2483 C2482 1.373 . S
C2483 C2499 1.377 . S
C2484 C2482 1.389 . S
C2484 C2485 1.524 . S
C2484 C2498 1.377 . S
C2485 C2484 1.524 . S
C2485 C2486 1.397 . S
C2485 C2490 1.363 . S
C2486 H2463 0.950 . S
C2486 C2485 1.397 . S
C2486 C2487 1.334 . S
C2487 H2464 0.950 . S
C2487 C2486 1.334 . S
C2487 C2488 1.287 . S
C2488 C2487 1.287 . S
C2488 C2489 1.524 . S
C2488 H2507 0.913 . S
C2489 H2465 0.950 . S
C2489 C2488 1.524 . S
C2489 C2490 1.415 . S
C2490 H2466 0.950 . S
C2490 C2485 1.363 . S
C2490 C2489 1.415 . S
C2491 H2467 0.951 . S
C2491 C2492 1.366 . S
C2491 C2493 1.388 . S
C2492 C2491 1.366 . S
C2492 C2496 1.385 . S
C2493 H2468 0.951 . S
C2493 C2491 1.388 . S
C2493 C2494 1.366 . S
C2494 C2493 1.366 . S
C2494 C2495 1.414 . S
C2494 C2497 1.499 . S
C2495 H2469 0.950 . S
C2495 C2494 1.414 . S
C2495 C2496 1.374 . S
C2496 H2470 0.950 . S
C2496 C2492 1.385 . S
C2496 C2495 1.374 . S
C2497 C2494 1.499 . S
C2497 C2498 1.373 . S
C2497 C2499 1.389 . S
C2498 H2471 0.950 . S
C2498 C2484 1.377 . S
C2498 C2497 1.373 . S
C2499 C2483 1.377 . S
C2499 C2497 1.389 . S
C2499 C2500 1.524 . S
C2500 C2499 1.524 . S
C2500 C2501 1.397 . S
C2500 C2505 1.363 . S
C2501 H2472 0.950 . S
C2501 C2500 1.397 . S
C2501 C2502 1.334 . S
C2502 H2473 0.950 . S
C2502 C2501 1.334 . S
C2502 C2503 1.287 . S
C2503 C2502 1.287 . S
C2503 C2504 1.524 . S
C2503 H2506 0.999 . S
C2504 H2474 0.950 . S
C2504 C2503 1.524 . S
C2504 C2505 1.415 . S
C2505 H2475 0.950 . S
C2505 C2500 1.363 . S
C2505 C2504 1.415 . S
H2506 C2503 0.999 . S
H2507 C2488 0.913 . S
H2508 C2526 0.951 . S
H2509 C2528 0.951 . S
H2510 C2530 0.950 . S
H2511 C2531 0.950 . S
H2512 C2533 0.950 . S
H2513 C2536 0.950 . S
H2514 C2537 0.950 . S
H2515 C2539 0.950 . S
H2516 C2540 0.950 . S
H2517 C2541 0.951 . S
H2518 C2543 0.951 . S
H2519 C2545 0.950 . S
H2520 C2546 0.950 . S
H2521 C2548 0.950 . S
H2522 C2551 0.950 . S
H2523 C2552 0.950 . S
H2524 C2554 0.950 . S
H2525 C2555 0.950 . S
C2526 H2508 0.951 . S
C2526 C2527 1.366 . S
C2526 C2528 1.388 . S
C2527 C2526 1.366 . S
C2527 C2531 1.385 . S
C2528 H2509 0.951 . S
C2528 C2526 1.388 . S
C2528 C2529 1.366 . S
C2529 C2528 1.366 . S
C2529 C2530 1.414 . S
C2529 C2532 1.499 . S
C2530 H2510 0.950 . S
C2530 C2529 1.414 . S
C2530 C2531 1.374 . S
C2531 H2511 0.950 . S
C2531 C2527 1.385 . S
C2531 C2530 1.374 . S
C2532 C2529 1.499 . S
C2532 C2533 1.373 . S
C2532 C2534 1.389 . S
C2533 H2512 0.950 . S
C2533 C2532 1.373 . S
C2533 C2549 1.377 . S
C2534 C2532 1.389 . S
C2534 C2535 1.524 . S
C2534 C2548 1.377 . S
C2535 C2534 1.524 . S
C2535 C2536 1.397 . S
C2535 C2540 1.363 . S
C2536 H2513 0.950 . S
C2536 C2535 1.397 . S
C2536 C2537 1.334 . S
C2537 H2514 0.950 . S
C2537 C2536 1.334 . S
C2537 C2538 1.287 . S
C2538 C2537 1.287 . S
C2538 C2539 1.524 . S
C2538 H2557 0.913 . S
C2539 H2515 0.950 . S
C2539 C2538 1.524 . S
C2539 C2540 1.415 . S
C2540 H2516 0.950 . S
C2540 C2535 1.363 . S
C2540 C2539 1.415 . S
C2541 H2517 0.951 . S
C2541 C2542 1.366 . S
C2541 C2543 1.388 . S
C2542 C2541 1.366 . S
C2542 C2546 1.385 . S
C2543 H2518 0.951 . S
C2543 C2541 1.388 . S
C2543 C2544 1.366 . S
C2544 C2543 1.366 . S
C2544 C2545 1.414 . S
C2544 C2547 1.499 . S
C2545 H2519 0.950 . S
C2545 C2544 1.414 . S
C2545 C2546 1.374 . S
C2546 H2520 0.950 . S
C2546 C2542 1.385 . S
C2546 C2545 1.374 . S
C2547 C2544 1.499 . S
C2547 C2548 1.373 . S
C2547 C2549 1.389 . S
C2548 H2521 0.950 . S
C2548 C2534 1.377 . S
C2548 C2547 1.373 . S
C2549 C2533 1.377 . S
C2549 C2547 1.389 . S
C2549 C2550 1.524 . S
C2550 C2549 1.524 . S
C2550 C2551 1.397 . S
C2550 C2555 1.363 . S
C2551 H2522 0.950 . S
C2551 C2550 1.397 . S
C2551 C2552 1.334 . S
C2552 H2523 0.950 . S
C2552 C2551 1.334 . S
C2552 C2553 1.287 . S
C2553 C2552 1.287 . S
C2553 C2554 1.524 . S
C2553 H2556 0.999 . S
C2554 H2524 0.950 . S
C2554 C2553 1.524 . S
C2554 C2555 1.415 . S
C2555 H2525 0.950 . S
C2555 C2550 1.363 . S
C2555 C2554 1.415 . S
H2556 C2553 0.999 . S
H2557 C2538 0.913 . S
H2558 C2576 0.951 . S
H2559 C2578 0.951 . S
H2560 C2580 0.950 . S
H2561 C2581 0.950 . S
H2562 C2583 0.950 . S
H2563 C2586 0.950 . S
H2564 C2587 0.950 . S
H2565 C2589 0.950 . S
H2566 C2590 0.950 . S
H2567 C2591 0.951 . S
H2568 C2593 0.951 . S
H2569 C2595 0.950 . S
H2570 C2596 0.950 . S
H2571 C2598 0.950 . S
H2572 C2601 0.950 . S
H2573 C2602 0.950 . S
H2574 C2604 0.950 . S
H2575 C2605 0.950 . S
C2576 H2558 0.951 . S
C2576 C2577 1.366 . S
C2576 C2578 1.388 . S
C2577 C2576 1.366 . S
C2577 C2581 1.385 . S
C2578 H2559 0.951 . S
C2578 C2576 1.388 . S
C2578 C2579 1.366 . S
C2579 C2578 1.366 . S
C2579 C2580 1.414 . S
C2579 C2582 1.499 . S
C2580 H2560 0.950 . S
C2580 C2579 1.414 . S
C2580 C2581 1.374 . S
C2581 H2561 0.950 . S
C2581 C2577 1.385 . S
C2581 C2580 1.374 . S
C2582 C2579 1.499 . S
C2582 C2583 1.373 . S
C2582 C2584 1.389 . S
C2583 H2562 0.950 . S
C2583 C2582 1.373 . S
C2583 C2599 1.377 . S
C2584 C2582 1.389 . S
C2584 C2585 1.524 . S
C2584 C2598 1.377 . S
C2585 C2584 1.524 . S
C2585 C2586 1.397 . S
C2585 C2590 1.363 . S
C2586 H2563 0.950 . S
C2586 C2585 1.397 . S
C2586 C2587 1.334 . S
C2587 H2564 0.950 . S
C2587 C2586 1.334 . S
C2587 C2588 1.287 . S
C2588 C2587 1.287 . S
C2588 C2589 1.524 . S
C2588 H2607 0.913 . S
C2589 H2565 0.950 . S
C2589 C2588 1.524 . S
C2589 C2590 1.415 . S
C2590 H2566 0.950 . S
C2590 C2585 1.363 . S
C2590 C2589 1.415 . S
C2591 H2567 0.951 . S
C2591 C2592 1.366 . S
C2591 C2593 1.388 . S
C2592 C2591 1.366 . S
C2592 C2596 1.385 . S
C2593 H2568 0.951 . S
C2593 C2591 1.388 . S
C2593 C2594 1.366 . S
C2594 C2593 1.366 . S
C2594 C2595 1.414 . S
C2594 C2597 1.499 . S
C2595 H2569 0.950 . S
C2595 C2594 1.414 . S
C2595 C2596 1.374 . S
C2596 H2570 0.950 . S
C2596 C2592 1.385 . S
C2596 C2595 1.374 . S
C2597 C2594 1.499 . S
C2597 C2598 1.373 . S
C2597 C2599 1.389 . S
C2598 H2571 0.950 . S
C2598 C2584 1.377 . S
C2598 C2597 1.373 . S
C2599 C2583 1.377 . S
C2599 C2597 1.389 . S
C2599 C2600 1.524 . S
C2600 C2599 1.524 . S
C2600 C2601 1.397 . S
C2600 C2605 1.363 . S
C2601 H2572 0.950 . S
C2601 C2600 1.397 . S
C2601 C2602 1.334 . S
C2602 H2573 0.950 . S
C2602 C2601 1.334 . S
C2602 C2603 1.287 . S
C2603 C2602 1.287 . S
C2603 C2604 1.524 . S
C2603 H2606 0.999 . S
C2604 H2574 0.950 . S
C2604 C2603 1.524 . S
C2604 C2605 1.415 . S
C2605 H2575 0.950 . S
C2605 C2600 1.363 . S
C2605 C2604 1.415 . S
H2606 C2603 0.999 . S
H2607 C2588 0.913 . S
H2608 C2626 0.951 . S
H2609 C2628 0.951 . S
H2610 C2630 0.950 . S
H2611 C2631 0.950 . S
H2612 C2633 0.950 . S
H2613 C2636 0.950 . S
H2614 C2637 0.950 . S
H2615 C2639 0.950 . S
H2616 C2640 0.950 . S
H2617 C2641 0.951 . S
H2618 C2643 0.951 . S
H2619 C2645 0.950 . S
H2620 C2646 0.950 . S
H2621 C2648 0.950 . S
H2622 C2651 0.950 . S
H2623 C2652 0.950 . S
H2624 C2654 0.950 . S
H2625 C2655 0.950 . S
C2626 H2608 0.951 . S
C2626 C2627 1.366 . S
C2626 C2628 1.388 . S
C2627 C2626 1.366 . S
C2627 C2631 1.385 . S
C2628 H2609 0.951 . S
C2628 C2626 1.388 . S
C2628 C2629 1.366 . S
C2629 C2628 1.366 . S
C2629 C2630 1.414 . S
C2629 C2632 1.499 . S
C2630 H2610 0.950 . S
C2630 C2629 1.414 . S
C2630 C2631 1.374 . S
C2631 H2611 0.950 . S
C2631 C2627 1.385 . S
C2631 C2630 1.374 . S
C2632 C2629 1.499 . S
C2632 C2633 1.373 . S
C2632 C2634 1.389 . S
C2633 H2612 0.950 . S
C2633 C2632 1.373 . S
C2633 C2649 1.377 . S
C2634 C2632 1.389 . S
C2634 C2635 1.524 . S
C2634 C2648 1.377 . S
C2635 C2634 1.524 . S
C2635 C2636 1.397 . S
C2635 C2640 1.363 . S
C2636 H2613 0.950 . S
C2636 C2635 1.397 . S
C2636 C2637 1.334 . S
C2637 H2614 0.950 . S
C2637 C2636 1.334 . S
C2637 C2638 1.287 . S
C2638 C2637 1.287 . S
C2638 C2639 1.524 . S
C2638 H2657 0.913 . S
C2639 H2615 0.950 . S
C2639 C2638 1.524 . S
C2639 C2640 1.415 . S
C2640 H2616 0.950 . S
C2640 C2635 1.363 . S
C2640 C2639 1.415 . S
C2641 H2617 0.951 . S
C2641 C2642 1.366 . S
C2641 C2643 1.388 . S
C2642 C2641 1.366 . S
C2642 C2646 1.385 . S
C2643 H2618 0.951 . S
C2643 C2641 1.388 . S
C2643 C2644 1.366 . S
C2644 C2643 1.366 . S
C2644 C2645 1.414 . S
C2644 C2647 1.499 . S
C2645 H2619 0.950 . S
C2645 C2644 1.414 . S
C2645 C2646 1.374 . S
C2646 H2620 0.950 . S
C2646 C2642 1.385 . S
C2646 C2645 1.374 . S
C2647 C2644 1.499 . S
C2647 C2648 1.373 . S
C2647 C2649 1.389 . S
C2648 H2621 0.950 . S
C2648 C2634 1.377 . S
C2648 C2647 1.373 . S
C2649 C2633 1.377 . S
C2649 C2647 1.389 . S
C2649 C2650 1.524 . S
C2650 C2649 1.524 . S
C2650 C2651 1.397 . S
C2650 C2655 1.363 . S
C2651 H2622 0.950 . S
C2651 C2650 1.397 . S
C2651 C2652 1.334 . S
C2652 H2623 0.950 . S
C2652 C2651 1.334 . S
C2652 C2653 1.287 . S
C2653 C2652 1.287 . S
C2653 C2654 1.524 . S
C2653 H2656 0.999 . S
C2654 H2624 0.950 . S
C2654 C2653 1.524 . S
C2654 C2655 1.415 . S
C2655 H2625 0.950 . S
C2655 C2650 1.363 . S
C2655 C2654 1.415 . S
H2656 C2653 0.999 . S
H2657 C2638 0.913 . S
H2658 C2676 0.951 . S
H2659 C2678 0.951 . S
H2660 C2680 0.950 . S
H2661 C2681 0.950 . S
H2662 C2683 0.950 . S
H2663 C2686 0.950 . S
H2664 C2687 0.950 . S
H2665 C2689 0.950 . S
H2666 C2690 0.950 . S
H2667 C2691 0.951 . S
H2668 C2693 0.951 . S
H2669 C2695 0.950 . S
H2670 C2696 0.950 . S
H2671 C2698 0.950 . S
H2672 C2701 0.950 . S
H2673 C2702 0.950 . S
H2674 C2704 0.950 . S
H2675 C2705 0.950 . S
C2676 H2658 0.951 . S
C2676 C2677 1.366 . S
C2676 C2678 1.388 . S
C2677 C2676 1.366 . S
C2677 C2681 1.385 . S
C2678 H2659 0.951 . S
C2678 C2676 1.388 . S
C2678 C2679 1.366 . S
C2679 C2678 1.366 . S
C2679 C2680 1.414 . S
C2679 C2682 1.499 . S
C2680 H2660 0.950 . S
C2680 C2679 1.414 . S
C2680 C2681 1.374 . S
C2681 H2661 0.950 . S
C2681 C2677 1.385 . S
C2681 C2680 1.374 . S
C2682 C2679 1.499 . S
C2682 C2683 1.373 . S
C2682 C2684 1.389 . S
C2683 H2662 0.950 . S
C2683 C2682 1.373 . S
C2683 C2699 1.377 . S
C2684 C2682 1.389 . S
C2684 C2685 1.524 . S
C2684 C2698 1.377 . S
C2685 C2684 1.524 . S
C2685 C2686 1.397 . S
C2685 C2690 1.363 . S
C2686 H2663 0.950 . S
C2686 C2685 1.397 . S
C2686 C2687 1.334 . S
C2687 H2664 0.950 . S
C2687 C2686 1.334 . S
C2687 C2688 1.287 . S
C2688 C2687 1.287 . S
C2688 C2689 1.524 . S
C2688 H2707 0.913 . S
C2689 H2665 0.950 . S
C2689 C2688 1.524 . S
C2689 C2690 1.415 . S
C2690 H2666 0.950 . S
C2690 C2685 1.363 . S
C2690 C2689 1.415 . S
C2691 H2667 0.951 . S
C2691 C2692 1.366 . S
C2691 C2693 1.388 . S
C2692 C2691 1.366 . S
C2692 C2696 1.385 . S
C2693 H2668 0.951 . S
C2693 C2691 1.388 . S
C2693 C2694 1.366 . S
C2694 C2693 1.366 . S
C2694 C2695 1.414 . S
C2694 C2697 1.499 . S
C2695 H2669 0.950 . S
C2695 C2694 1.414 . S
C2695 C2696 1.374 . S
C2696 H2670 0.950 . S
C2696 C2692 1.385 . S
C2696 C2695 1.374 . S
C2697 C2694 1.499 . S
C2697 C2698 1.373 . S
C2697 C2699 1.389 . S
C2698 H2671 0.950 . S
C2698 C2684 1.377 . S
C2698 C2697 1.373 . S
C2699 C2683 1.377 . S
C2699 C2697 1.389 . S
C2699 C2700 1.524 . S
C2700 C2699 1.524 . S
C2700 C2701 1.397 . S
C2700 C2705 1.363 . S
C2701 H2672 0.950 . S
C2701 C2700 1.397 . S
C2701 C2702 1.334 . S
C2702 H2673 0.950 . S
C2702 C2701 1.334 . S
C2702 C2703 1.287 . S
C2703 C2702 1.287 . S
C2703 C2704 1.524 . S
C2703 H2706 0.999 . S
C2704 H2674 0.950 . S
C2704 C2703 1.524 . S
C2704 C2705 1.415 . S
C2705 H2675 0.950 . S
C2705 C2700 1.363 . S
C2705 C2704 1.415 . S
H2706 C2703 0.999 . S
H2707 C2688 0.913 . S
H2708 C2726 0.951 . S
H2709 C2728 0.951 . S
H2710 C2730 0.950 . S
H2711 C2731 0.950 . S
H2712 C2733 0.950 . S
H2713 C2736 0.950 . S
H2714 C2737 0.950 . S
H2715 C2739 0.950 . S
H2716 C2740 0.950 . S
H2717 C2741 0.951 . S
H2718 C2743 0.951 . S
H2719 C2745 0.950 . S
H2720 C2746 0.950 . S
H2721 C2748 0.950 . S
H2722 C2751 0.950 . S
H2723 C2752 0.950 . S
H2724 C2754 0.950 . S
H2725 C2755 0.950 . S
C2726 H2708 0.951 . S
C2726 C2727 1.366 . S
C2726 C2728 1.388 . S
C2727 C2726 1.366 . S
C2727 C2731 1.385 . S
C2728 H2709 0.951 . S
C2728 C2726 1.388 . S
C2728 C2729 1.366 . S
C2729 C2728 1.366 . S
C2729 C2730 1.414 . S
C2729 C2732 1.499 . S
C2730 H2710 0.950 . S
C2730 C2729 1.414 . S
C2730 C2731 1.374 . S
C2731 H2711 0.950 . S
C2731 C2727 1.385 . S
C2731 C2730 1.374 . S
C2732 C2729 1.499 . S
C2732 C2733 1.373 . S
C2732 C2734 1.389 . S
C2733 H2712 0.950 . S
C2733 C2732 1.373 . S
C2733 C2749 1.377 . S
C2734 C2732 1.389 . S
C2734 C2735 1.524 . S
C2734 C2748 1.377 . S
C2735 C2734 1.524 . S
C2735 C2736 1.397 . S
C2735 C2740 1.363 . S
C2736 H2713 0.950 . S
C2736 C2735 1.397 . S
C2736 C2737 1.334 . S
C2737 H2714 0.950 . S
C2737 C2736 1.334 . S
C2737 C2738 1.287 . S
C2738 C2737 1.287 . S
C2738 C2739 1.524 . S
C2738 H2757 0.913 . S
C2739 H2715 0.950 . S
C2739 C2738 1.524 . S
C2739 C2740 1.415 . S
C2740 H2716 0.950 . S
C2740 C2735 1.363 . S
C2740 C2739 1.415 . S
C2741 H2717 0.951 . S
C2741 C2742 1.366 . S
C2741 C2743 1.388 . S
C2742 C2741 1.366 . S
C2742 C2746 1.385 . S
C2743 H2718 0.951 . S
C2743 C2741 1.388 . S
C2743 C2744 1.366 . S
C2744 C2743 1.366 . S
C2744 C2745 1.414 . S
C2744 C2747 1.499 . S
C2745 H2719 0.950 . S
C2745 C2744 1.414 . S
C2745 C2746 1.374 . S
C2746 H2720 0.950 . S
C2746 C2742 1.385 . S
C2746 C2745 1.374 . S
C2747 C2744 1.499 . S
C2747 C2748 1.373 . S
C2747 C2749 1.389 . S
C2748 H2721 0.950 . S
C2748 C2734 1.377 . S
C2748 C2747 1.373 . S
C2749 C2733 1.377 . S
C2749 C2747 1.389 . S
C2749 C2750 1.524 . S
C2750 C2749 1.524 . S
C2750 C2751 1.397 . S
C2750 C2755 1.363 . S
C2751 H2722 0.950 . S
C2751 C2750 1.397 . S
C2751 C2752 1.334 . S
C2752 H2723 0.950 . S
C2752 C2751 1.334 . S
C2752 C2753 1.287 . S
C2753 C2752 1.287 . S
C2753 C2754 1.524 . S
C2753 H2756 0.999 . S
C2754 H2724 0.950 . S
C2754 C2753 1.524 . S
C2754 C2755 1.415 . S
C2755 H2725 0.950 . S
C2755 C2750 1.363 . S
C2755 C2754 1.415 . S
H2756 C2753 0.999 . S
H2757 C2738 0.913 . S
C392 C187 1.521 . S
C377 C9 1.615 . S
C442 C188 2.343 . S
C427 C28 2.340 . S
C492 C182 1.016 . S
C477 C49 1.025 . S
C527 C79 1.671 . S
C542 C181 1.728 . S
C577 C99 2.340 . S
C592 C184 2.343 . S
C642 C186 1.017 . S
C627 C101 1.024 . S
C677 C128 1.670 . S
C692 C185 1.728 . S
C727 C141 1.615 . S
C742 C183 1.521 . S
C792 C218 1.313 . S
C777 C16 1.292 . S
C827 C26 1.139 . S
C842 C249 1.162 . S
C892 C217 1.141 . S
C877 C56 1.173 . S
C942 C252 0.930 . S
C927 C69 0.925 . S
C977 C89 1.189 . S
C992 C215 1.194 . S
C1042 C247 2.086 . S
C1027 C108 2.043 . S
C1077 C126 0.943 . S
C1092 C220 0.958 . S
C1127 C148 1.972 . S
C1142 C254 1.930 . S
C1177 C19 1.972 . S
C1192 C250 1.928 . S
C1227 C96 1.138 . S
C1242 C253 1.164 . S
C1292 C221 1.142 . S
C1277 C106 1.176 . S
C1342 C248 0.930 . S
C1327 C121 0.931 . S
C1377 C146 1.293 . S
C1392 C214 1.315 . S
C1427 C59 2.043 . S
C1442 C251 2.085 . S
C1492 C216 0.957 . S
C1477 C76 0.941 . S
C1527 C21 1.189 . S
C1542 C219 1.192 . S
C1577 C149 1.571 . S
C1592 C286 1.482 . S
C1627 C88 1.828 . S
C1642 C287 1.800 . S
C1692 C281 0.984 . S
C1677 C109 0.994 . S
C1742 C280 2.226 . S
C1727 C139 2.134 . S
C1777 C39 1.829 . S
C1792 C283 1.797 . S
C1842 C285 0.983 . S
C1827 C41 0.992 . S
C1877 C68 2.132 . S
C1892 C284 2.225 . S
C1927 C1 1.571 . S
C1942 C282 1.480 . S
C1977 C156 1.405 . S
C1992 C320 1.360 . S
C2042 C352 0.927 . S
C2027 C86 0.919 . S
C2077 C116 1.091 . S
C2092 C313 1.103 . S
C2127 C129 1.207 . S
C2142 C347 1.219 . S
C2192 C318 0.980 . S
C2177 C29 0.960 . S
C2227 C48 2.219 . S
C2242 C349 2.176 . S
C2292 C315 1.231 . S
C2277 C66 1.174 . S
C2342 C350 1.925 . S
C2327 C8 1.894 . S
C2392 C346 1.925 . S
C2377 C159 1.893 . S
C2427 C36 0.918 . S
C2442 C348 0.929 . S
C2477 C46 1.090 . S
C2492 C317 1.102 . S
C2542 C351 1.219 . S
C2527 C61 1.208 . S
C2577 C6 1.405 . S
C2592 C316 1.359 . S
C2627 C119 2.218 . S
C2642 C353 2.176 . S
C2692 C319 1.230 . S
C2677 C136 1.175 . S
C2742 C314 0.980 . S
C2727 C81 0.959 . S
