# Generated by pormake.
# Topology iac, (4,6)-cn, num edge types: 1
# Building blocks:
#     Node 0, Type 0, BuildingBlock: AZAVOO_clean_sbu_0, # of connection points: 4
#     Node 1, Type 0, BuildingBlock: AZAVOO_clean_sbu_0, # of connection points: 4
#     Node 2, Type 0, BuildingBlock: AZAVOO_clean_sbu_0, # of connection points: 4
#     Node 3, Type 0, BuildingBlock: AZAVOO_clean_sbu_0, # of connection points: 4
#     Node 4, Type 0, BuildingBlock: AZAVOO_clean_sbu_0, # of connection points: 4
#     Node 5, Type 0, BuildingBlock: AZAVOO_clean_sbu_0, # of connection points: 4
#     Node 6, Type 0, BuildingBlock: AZAVOO_clean_sbu_0, # of connection points: 4
#     Node 7, Type 0, BuildingBlock: AZAVOO_clean_sbu_0, # of connection points: 4
#     Node 8, Type 0, BuildingBlock: AZAVOO_clean_sbu_0, # of connection points: 4
#     Node 9, Type 0, BuildingBlock: AZAVOO_clean_sbu_0, # of connection points: 4
#     Node 10, Type 0, BuildingBlock: AZAVOO_clean_sbu_0, # of connection points: 4
#     Node 11, Type 0, BuildingBlock: AZAVOO_clean_sbu_0, # of connection points: 4
#     Node 12, Type 0, BuildingBlock: AZAVOO_clean_sbu_0, # of connection points: 4
#     Node 13, Type 0, BuildingBlock: AZAVOO_clean_sbu_0, # of connection points: 4
#     Node 14, Type 0, BuildingBlock: AZAVOO_clean_sbu_0, # of connection points: 4
#     Node 15, Type 0, BuildingBlock: AZAVOO_clean_sbu_0, # of connection points: 4
#     Node 16, Type 0, BuildingBlock: AZAVOO_clean_sbu_0, # of connection points: 4
#     Node 17, Type 0, BuildingBlock: AZAVOO_clean_sbu_0, # of connection points: 4
#     Node 18, Type 0, BuildingBlock: AZAVOO_clean_sbu_0, # of connection points: 4
#     Node 19, Type 0, BuildingBlock: AZAVOO_clean_sbu_0, # of connection points: 4
#     Node 20, Type 0, BuildingBlock: AZAVOO_clean_sbu_0, # of connection points: 4
#     Node 21, Type 0, BuildingBlock: AZAVOO_clean_sbu_0, # of connection points: 4
#     Node 22, Type 0, BuildingBlock: AZAVOO_clean_sbu_0, # of connection points: 4
#     Node 23, Type 0, BuildingBlock: AZAVOO_clean_sbu_0, # of connection points: 4
#     Node 24, Type 1, BuildingBlock: CIFDUS_clean_sbu_1, # of connection points: 6
#     Node 25, Type 1, BuildingBlock: CIFDUS_clean_sbu_1, # of connection points: 6
#     Node 26, Type 1, BuildingBlock: CIFDUS_clean_sbu_1, # of connection points: 6
#     Node 27, Type 1, BuildingBlock: CIFDUS_clean_sbu_1, # of connection points: 6
#     Node 28, Type 1, BuildingBlock: CIFDUS_clean_sbu_1, # of connection points: 6
#     Node 29, Type 1, BuildingBlock: CIFDUS_clean_sbu_1, # of connection points: 6
#     Node 30, Type 1, BuildingBlock: CIFDUS_clean_sbu_1, # of connection points: 6
#     Node 31, Type 1, BuildingBlock: CIFDUS_clean_sbu_1, # of connection points: 6
#     Node 32, Type 1, BuildingBlock: CIFDUS_clean_sbu_1, # of connection points: 6
#     Node 33, Type 1, BuildingBlock: CIFDUS_clean_sbu_1, # of connection points: 6
#     Node 34, Type 1, BuildingBlock: CIFDUS_clean_sbu_1, # of connection points: 6
#     Node 35, Type 1, BuildingBlock: CIFDUS_clean_sbu_1, # of connection points: 6
#     Node 36, Type 1, BuildingBlock: CIFDUS_clean_sbu_1, # of connection points: 6
#     Node 37, Type 1, BuildingBlock: CIFDUS_clean_sbu_1, # of connection points: 6
#     Node 38, Type 1, BuildingBlock: CIFDUS_clean_sbu_1, # of connection points: 6
#     Node 39, Type 1, BuildingBlock: CIFDUS_clean_sbu_1, # of connection points: 6
#     Edge 40, Type (0, 1), BuildingBlock: ZUJKAS_clean_linker_0, # of connection points: 2
#     Edge 41, Type (0, 1), BuildingBlock: ZUJKAS_clean_linker_0, # of connection points: 2
#     Edge 42, Type (0, 1), BuildingBlock: ZUJKAS_clean_linker_0, # of connection points: 2
#     Edge 43, Type (0, 1), BuildingBlock: ZUJKAS_clean_linker_0, # of connection points: 2
#     Edge 44, Type (0, 1), BuildingBlock: ZUJKAS_clean_linker_0, # of connection points: 2
#     Edge 45, Type (0, 1), BuildingBlock: ZUJKAS_clean_linker_0, # of connection points: 2
#     Edge 46, Type (0, 1), BuildingBlock: ZUJKAS_clean_linker_0, # of connection points: 2
#     Edge 47, Type (0, 1), BuildingBlock: ZUJKAS_clean_linker_0, # of connection points: 2
#     Edge 48, Type (0, 1), BuildingBlock: ZUJKAS_clean_linker_0, # of connection points: 2
#     Edge 49, Type (0, 1), BuildingBlock: ZUJKAS_clean_linker_0, # of connection points: 2
#     Edge 50, Type (0, 1), BuildingBlock: ZUJKAS_clean_linker_0, # of connection points: 2
#     Edge 51, Type (0, 1), BuildingBlock: ZUJKAS_clean_linker_0, # of connection points: 2
#     Edge 52, Type (0, 1), BuildingBlock: ZUJKAS_clean_linker_0, # of connection points: 2
#     Edge 53, Type (0, 1), BuildingBlock: ZUJKAS_clean_linker_0, # of connection points: 2
#     Edge 54, Type (0, 1), BuildingBlock: ZUJKAS_clean_linker_0, # of connection points: 2
#     Edge 55, Type (0, 1), BuildingBlock: ZUJKAS_clean_linker_0, # of connection points: 2
#     Edge 56, Type (0, 1), BuildingBlock: ZUJKAS_clean_linker_0, # of connection points: 2
#     Edge 57, Type (0, 1), BuildingBlock: ZUJKAS_clean_linker_0, # of connection points: 2
#     Edge 58, Type (0, 1), BuildingBlock: ZUJKAS_clean_linker_0, # of connection points: 2
#     Edge 59, Type (0, 1), BuildingBlock: ZUJKAS_clean_linker_0, # of connection points: 2
#     Edge 60, Type (0, 1), BuildingBlock: ZUJKAS_clean_linker_0, # of connection points: 2
#     Edge 61, Type (0, 1), BuildingBlock: ZUJKAS_clean_linker_0, # of connection points: 2
#     Edge 62, Type (0, 1), BuildingBlock: ZUJKAS_clean_linker_0, # of connection points: 2
#     Edge 63, Type (0, 1), BuildingBlock: ZUJKAS_clean_linker_0, # of connection points: 2
#     Edge 64, Type (0, 1), BuildingBlock: ZUJKAS_clean_linker_0, # of connection points: 2
#     Edge 65, Type (0, 1), BuildingBlock: ZUJKAS_clean_linker_0, # of connection points: 2
#     Edge 66, Type (0, 1), BuildingBlock: ZUJKAS_clean_linker_0, # of connection points: 2
#     Edge 67, Type (0, 1), BuildingBlock: ZUJKAS_clean_linker_0, # of connection points: 2
#     Edge 68, Type (0, 1), BuildingBlock: ZUJKAS_clean_linker_0, # of connection points: 2
#     Edge 69, Type (0, 1), BuildingBlock: ZUJKAS_clean_linker_0, # of connection points: 2
#     Edge 70, Type (0, 1), BuildingBlock: ZUJKAS_clean_linker_0, # of connection points: 2
#     Edge 71, Type (0, 1), BuildingBlock: ZUJKAS_clean_linker_0, # of connection points: 2
#     Edge 72, Type (0, 1), BuildingBlock: ZUJKAS_clean_linker_0, # of connection points: 2
#     Edge 73, Type (0, 1), BuildingBlock: ZUJKAS_clean_linker_0, # of connection points: 2
#     Edge 74, Type (0, 1), BuildingBlock: ZUJKAS_clean_linker_0, # of connection points: 2
#     Edge 75, Type (0, 1), BuildingBlock: ZUJKAS_clean_linker_0, # of connection points: 2
#     Edge 76, Type (0, 1), BuildingBlock: ZUJKAS_clean_linker_0, # of connection points: 2
#     Edge 77, Type (0, 1), BuildingBlock: ZUJKAS_clean_linker_0, # of connection points: 2
#     Edge 78, Type (0, 1), BuildingBlock: ZUJKAS_clean_linker_0, # of connection points: 2
#     Edge 79, Type (0, 1), BuildingBlock: ZUJKAS_clean_linker_0, # of connection points: 2
#     Edge 80, Type (0, 1), BuildingBlock: ZUJKAS_clean_linker_0, # of connection points: 2
#     Edge 81, Type (0, 1), BuildingBlock: ZUJKAS_clean_linker_0, # of connection points: 2
#     Edge 82, Type (0, 1), BuildingBlock: ZUJKAS_clean_linker_0, # of connection points: 2
#     Edge 83, Type (0, 1), BuildingBlock: ZUJKAS_clean_linker_0, # of connection points: 2
#     Edge 84, Type (0, 1), BuildingBlock: ZUJKAS_clean_linker_0, # of connection points: 2
#     Edge 85, Type (0, 1), BuildingBlock: ZUJKAS_clean_linker_0, # of connection points: 2
#     Edge 86, Type (0, 1), BuildingBlock: ZUJKAS_clean_linker_0, # of connection points: 2
#     Edge 87, Type (0, 1), BuildingBlock: ZUJKAS_clean_linker_0, # of connection points: 2
#     Edge 88, Type (0, 1), BuildingBlock: ZUJKAS_clean_linker_0, # of connection points: 2
#     Edge 89, Type (0, 1), BuildingBlock: ZUJKAS_clean_linker_0, # of connection points: 2
#     Edge 90, Type (0, 1), BuildingBlock: ZUJKAS_clean_linker_0, # of connection points: 2
#     Edge 91, Type (0, 1), BuildingBlock: ZUJKAS_clean_linker_0, # of connection points: 2
#     Edge 92, Type (0, 1), BuildingBlock: ZUJKAS_clean_linker_0, # of connection points: 2
#     Edge 93, Type (0, 1), BuildingBlock: ZUJKAS_clean_linker_0, # of connection points: 2
#     Edge 94, Type (0, 1), BuildingBlock: ZUJKAS_clean_linker_0, # of connection points: 2
#     Edge 95, Type (0, 1), BuildingBlock: ZUJKAS_clean_linker_0, # of connection points: 2
#     Edge 96, Type (0, 1), BuildingBlock: ZUJKAS_clean_linker_0, # of connection points: 2
#     Edge 97, Type (0, 1), BuildingBlock: ZUJKAS_clean_linker_0, # of connection points: 2
#     Edge 98, Type (0, 1), BuildingBlock: ZUJKAS_clean_linker_0, # of connection points: 2
#     Edge 99, Type (0, 1), BuildingBlock: ZUJKAS_clean_linker_0, # of connection points: 2
#     Edge 100, Type (0, 1), BuildingBlock: ZUJKAS_clean_linker_0, # of connection points: 2
#     Edge 101, Type (0, 1), BuildingBlock: ZUJKAS_clean_linker_0, # of connection points: 2
#     Edge 102, Type (0, 1), BuildingBlock: ZUJKAS_clean_linker_0, # of connection points: 2
#     Edge 103, Type (0, 1), BuildingBlock: ZUJKAS_clean_linker_0, # of connection points: 2
#     Edge 104, Type (0, 1), BuildingBlock: ZUJKAS_clean_linker_0, # of connection points: 2
#     Edge 105, Type (0, 1), BuildingBlock: ZUJKAS_clean_linker_0, # of connection points: 2
#     Edge 106, Type (0, 1), BuildingBlock: ZUJKAS_clean_linker_0, # of connection points: 2
#     Edge 107, Type (0, 1), BuildingBlock: ZUJKAS_clean_linker_0, # of connection points: 2
#     Edge 108, Type (0, 1), BuildingBlock: ZUJKAS_clean_linker_0, # of connection points: 2
#     Edge 109, Type (0, 1), BuildingBlock: ZUJKAS_clean_linker_0, # of connection points: 2
#     Edge 110, Type (0, 1), BuildingBlock: ZUJKAS_clean_linker_0, # of connection points: 2
#     Edge 111, Type (0, 1), BuildingBlock: ZUJKAS_clean_linker_0, # of connection points: 2
#     Edge 112, Type (0, 1), BuildingBlock: ZUJKAS_clean_linker_0, # of connection points: 2
#     Edge 113, Type (0, 1), BuildingBlock: ZUJKAS_clean_linker_0, # of connection points: 2
#     Edge 114, Type (0, 1), BuildingBlock: ZUJKAS_clean_linker_0, # of connection points: 2
#     Edge 115, Type (0, 1), BuildingBlock: ZUJKAS_clean_linker_0, # of connection points: 2
#     Edge 116, Type (0, 1), BuildingBlock: ZUJKAS_clean_linker_0, # of connection points: 2
#     Edge 117, Type (0, 1), BuildingBlock: ZUJKAS_clean_linker_0, # of connection points: 2
#     Edge 118, Type (0, 1), BuildingBlock: ZUJKAS_clean_linker_0, # of connection points: 2
#     Edge 119, Type (0, 1), BuildingBlock: ZUJKAS_clean_linker_0, # of connection points: 2
#     Edge 120, Type (0, 1), BuildingBlock: ZUJKAS_clean_linker_0, # of connection points: 2
#     Edge 121, Type (0, 1), BuildingBlock: ZUJKAS_clean_linker_0, # of connection points: 2
#     Edge 122, Type (0, 1), BuildingBlock: ZUJKAS_clean_linker_0, # of connection points: 2
#     Edge 123, Type (0, 1), BuildingBlock: ZUJKAS_clean_linker_0, # of connection points: 2
#     Edge 124, Type (0, 1), BuildingBlock: ZUJKAS_clean_linker_0, # of connection points: 2
#     Edge 125, Type (0, 1), BuildingBlock: ZUJKAS_clean_linker_0, # of connection points: 2
#     Edge 126, Type (0, 1), BuildingBlock: ZUJKAS_clean_linker_0, # of connection points: 2
#     Edge 127, Type (0, 1), BuildingBlock: ZUJKAS_clean_linker_0, # of connection points: 2
#     Edge 128, Type (0, 1), BuildingBlock: ZUJKAS_clean_linker_0, # of connection points: 2
#     Edge 129, Type (0, 1), BuildingBlock: ZUJKAS_clean_linker_0, # of connection points: 2
#     Edge 130, Type (0, 1), BuildingBlock: ZUJKAS_clean_linker_0, # of connection points: 2
#     Edge 131, Type (0, 1), BuildingBlock: ZUJKAS_clean_linker_0, # of connection points: 2
#     Edge 132, Type (0, 1), BuildingBlock: ZUJKAS_clean_linker_0, # of connection points: 2
#     Edge 133, Type (0, 1), BuildingBlock: ZUJKAS_clean_linker_0, # of connection points: 2
#     Edge 134, Type (0, 1), BuildingBlock: ZUJKAS_clean_linker_0, # of connection points: 2
#     Edge 135, Type (0, 1), BuildingBlock: ZUJKAS_clean_linker_0, # of connection points: 2
# Relax obj value: 0.127
# Max RMSD: 0.178
# Mean RMSD: 0.151
data_MOF--net-iac--node1-AZAVOO_clean_sbu_0--node2-CIFDUS_clean_sbu_1--edge1-ZUJKAS_clean_linker_0
_symmetry_space_group_name_H-M    P1
_symmetry_Int_Tables_number       1
_symmetry_cell_setting            triclinic
loop_
_symmetry_equiv_pos_as_xyz
'x, y, z'
_cell_length_a     71.262476
_cell_length_b     68.101039
_cell_length_c     69.737282
_cell_angle_alpha  92.252658
_cell_angle_beta   89.849686
_cell_angle_gamma 91.114837
loop_
_atom_site_label
_atom_site_type_symbol
_atom_site_fract_x
_atom_site_fract_y
_atom_site_fract_z
_atom_type_partial_charge
Mg0 Mg 0.98915 0.26147 0.13184 0.0
O1 O -0.00644 0.23362 0.11239 0.0
O2 O 0.96965 0.23145 0.09181 0.0
Mg3 Mg 0.94957 0.25683 0.09834 0.0
C4 C 0.98491 0.22488 0.09837 0.0
C5 C 0.0251 0.24395 0.14993 0.0
O6 O 0.01406 0.22826 0.14927 0.0
O7 O -0.0028 0.28243 0.10793 0.0
O8 O 0.97122 0.28043 0.08994 0.0
O9 O 0.97128 0.24486 0.15266 0.0
O10 O 0.96015 0.25988 0.12788 0.0
C11 C 0.9873 0.28816 0.09398 0.0
C12 C 0.95691 0.24975 0.14271 0.0
O13 O 0.01922 0.25981 0.14321 0.0
Mg14 Mg 0.97782 0.73186 0.35824 0.0
O15 O 0.97772 0.75955 0.37842 0.0
O16 O 0.95068 0.75846 0.39478 0.0
Mg17 Mg 0.93437 0.73033 0.38652 0.0
C18 C 0.96621 0.767 0.39066 0.0
C19 C 0.01402 0.75156 0.34111 0.0
O20 O 0.00177 0.7651 0.3375 0.0
O21 O 0.98499 0.71271 0.38331 0.0
O22 O 0.95772 0.71193 0.39923 0.0
O23 O 0.96222 0.74819 0.33644 0.0
O24 O 0.9486 0.73061 0.3587 0.0
C25 C 0.97481 0.70686 0.39716 0.0
C26 C 0.947 0.74251 0.34495 0.0
O27 O 0.00873 0.73674 0.35044 0.0
Mg28 Mg 0.48405 0.76361 0.63571 0.0
O29 O 0.48715 0.73564 0.61628 0.0
O30 O 0.46362 0.73492 0.59523 0.0
Mg31 Mg 0.44459 0.76113 0.60202 0.0
C32 C 0.47841 0.72751 0.60201 0.0
C33 C 0.51891 0.74455 0.65455 0.0
O34 O 0.50675 0.72986 0.65542 0.0
O35 O 0.49318 0.78426 0.61187 0.0
O36 O 0.46738 0.78343 0.59357 0.0
O37 O 0.46524 0.74757 0.65619 0.0
O38 O 0.45517 0.76367 0.63158 0.0
C39 C 0.48375 0.79032 0.59773 0.0
C40 C 0.45129 0.75343 0.64617 0.0
O41 O 0.51401 0.76026 0.6468 0.0
Mg42 Mg 0.48058 0.23304 0.85684 0.0
O43 O 0.48255 0.26201 0.87493 0.0
O44 O 0.45924 0.26132 0.89641 0.0
Mg45 Mg 0.44291 0.23233 0.89285 0.0
C46 C 0.47325 0.26999 0.88876 0.0
C47 C 0.51077 0.24143 0.82592 0.0
O48 O 0.49534 0.24017 0.81564 0.0
O49 O 0.49279 0.21545 0.88111 0.0
O50 O 0.46864 0.21506 0.90165 0.0
O51 O 0.46053 0.2473 0.83744 0.0
O52 O 0.45181 0.23079 0.86269 0.0
C53 C 0.48524 0.21012 0.89678 0.0
C54 C 0.44727 0.24167 0.84882 0.0
O55 O 0.50963 0.23921 0.84393 0.0
Mg56 Mg 0.11628 -0.00255 0.26787 0.0
O57 O 0.13451 0.02541 0.26454 0.0
O58 O 0.15605 0.0264 0.28768 0.0
Mg59 Mg 0.15038 0.00057 0.30724 0.0
C60 C 0.14867 0.03362 0.27292 0.0
C61 C 0.09024 0.99178 0.23189 0.0
O62 O 0.08158 0.98009 0.24372 0.0
O63 O 0.13975 0.97672 0.25778 0.0
O64 O 0.1581 0.9776 0.28381 0.0
O65 O 0.09624 0.01331 0.28795 0.0
O66 O 0.12115 -0.0023 0.29728 0.0
C67 C 0.15373 0.97049 0.26715 0.0
C68 C 0.10661 0.00767 0.30185 0.0
O69 O 0.10512 0.00088 0.23748 0.0
Mg70 Mg 0.25891 0.88227 0.51254 0.0
O71 O 0.25752 0.86422 0.48391 0.0
O72 O 0.28221 0.84445 0.48336 0.0
Mg73 Mg 0.29932 0.8497 0.5107 0.0
C74 C 0.26749 0.85098 0.47561 0.0
C75 C 0.22713 0.91149 0.50934 0.0
O76 O 0.24209 0.92268 0.51264 0.0
O77 O 0.24923 0.85585 0.52975 0.0
O78 O 0.27513 0.83783 0.52901 0.0
O79 O 0.27669 0.90478 0.49843 0.0
O80 O 0.28808 0.8795 0.51313 0.0
C81 C 0.25831 0.84082 0.53463 0.0
C82 C 0.29108 0.89467 0.50303 0.0
O83 O 0.22897 0.89292 0.50842 0.0
Mg84 Mg 0.38226 0.00892 0.76721 0.0
O85 O 0.36674 0.97897 0.76558 0.0
O86 O 0.34679 0.97884 0.79036 0.0
Mg87 Mg 0.34858 0.00825 0.80711 0.0
C88 C 0.35431 0.97037 0.77569 0.0
C89 C 0.40918 0.99394 0.73444 0.0
O90 O 0.41714 0.98627 0.7493 0.0
O91 O 0.35676 0.02464 0.75589 0.0
O92 O 0.33776 0.02487 0.78144 0.0
O93 O 0.40308 -0.00379 0.78686 0.0
O94 O 0.37749 0.01134 0.79675 0.0
C95 C 0.3415 0.02962 0.76427 0.0
C96 C 0.39199 0.00138 0.80081 0.0
O97 O 0.39418 0.00356 0.73696 0.0
Mg98 Mg 0.27705 0.1208 0.97625 0.0
O99 O 0.27848 0.13976 0.00439 0.0
O100 O 0.30604 0.15586 0.00499 0.0
Mg101 Mg 0.32299 0.14608 0.9783 0.0
C102 C 0.29017 0.15182 0.01257 0.0
C103 C 0.23586 0.10758 0.9668 0.0
O104 O 0.2448 0.10135 0.95129 0.0
O105 O 0.27354 0.14752 0.95759 0.0
O106 O 0.30275 0.16012 0.95743 0.0
O107 O 0.2907 0.0955 0.99046 0.0
O108 O 0.30624 0.11861 0.97555 0.0
C109 C 0.28582 0.15971 0.95141 0.0
C110 C 0.30666 0.10286 0.98504 0.0
O111 O 0.24517 0.11658 0.9801 0.0
Mg112 Mg 0.76006 0.37671 0.00961 0.0
O113 O 0.7595 0.35695 0.98202 0.0
O114 O 0.78602 0.33991 0.98188 0.0
Mg115 Mg 0.80315 0.34813 0.00871 0.0
C116 C 0.77053 0.34441 0.97415 0.0
C117 C 0.72419 0.39466 0.99216 0.0
O118 O 0.73645 0.39844 0.97864 0.0
O119 O 0.75295 0.35051 0.02797 0.0
O120 O 0.7803 0.33498 0.02811 0.0
O121 O 0.77566 0.39999 -0.00579 0.0
O122 O 0.7893 0.37659 0.00981 0.0
C123 C 0.76327 0.33673 0.03364 0.0
C124 C 0.79091 0.39148 -0.00091 0.0
O125 O 0.72926 0.38472 0.00626 0.0
Mg126 Mg 0.88875 0.51163 0.26889 0.0
O127 O 0.87269 0.48194 0.26567 0.0
O128 O 0.85127 0.48217 0.28916 0.0
Mg129 Mg 0.85322 0.51084 0.30705 0.0
C130 C 0.85929 0.47369 0.27478 0.0
C131 C 0.91258 0.49362 0.23385 0.0
O132 O 0.91584 0.47972 0.24588 0.0
O133 O 0.86409 0.52819 0.25685 0.0
O134 O 0.8439 0.5284 0.28142 0.0
O135 O 0.90851 0.498 0.28914 0.0
O136 O 0.88267 0.51317 0.29815 0.0
C137 C 0.84857 0.53336 0.26456 0.0
C138 C 0.89686 0.50297 0.30269 0.0
O139 O 0.90186 0.50761 0.239 0.0
Mg140 Mg 0.77619 0.61537 0.46992 0.0
O141 O 0.7777 0.63343 0.49863 0.0
O142 O 0.80429 0.65125 0.49855 0.0
Mg143 Mg 0.82049 0.64366 0.47074 0.0
C144 C 0.78904 0.64594 0.50669 0.0
C145 C 0.73309 0.60869 0.46137 0.0
O146 O 0.73899 0.61352 0.44429 0.0
O147 O 0.77005 0.64247 0.45265 0.0
O148 O 0.7983 0.65728 0.45156 0.0
O149 O 0.79197 0.59063 0.48253 0.0
O150 O 0.80545 0.61515 0.46771 0.0
C151 C 0.78109 0.65584 0.44644 0.0
C152 C 0.80722 0.59912 0.47659 0.0
O153 O 0.74487 0.60849 0.47505 0.0
Mg154 Mg 0.61556 0.49719 0.75619 0.0
O155 O 0.63451 0.52446 0.75105 0.0
O156 O 0.65634 0.52573 0.77392 0.0
Mg157 Mg 0.65098 0.5006 0.79433 0.0
C158 C 0.64892 0.53265 0.75904 0.0
C159 C 0.59597 0.51544 0.72104 0.0
O160 O 0.59733 0.53109 0.73262 0.0
O161 O 0.63796 0.47527 0.74593 0.0
O162 O 0.65714 0.47657 0.77133 0.0
O163 O 0.59658 0.51431 0.77631 0.0
O164 O 0.62145 0.49852 0.78544 0.0
C165 C 0.65203 0.46894 0.75509 0.0
C166 C 0.60725 0.50896 0.7901 0.0
O167 O 0.60265 0.49933 0.72634 0.0
Mg168 Mg 0.98864 0.75072 0.85195 0.0
O169 O 0.98536 0.77866 0.87159 0.0
O170 O 0.95635 0.77716 0.88377 0.0
Mg171 Mg 0.94124 0.74926 0.87174 0.0
C172 C 0.97226 0.78591 0.88211 0.0
C173 C 0.02806 0.74371 0.83762 0.0
O174 O 0.01719 0.73262 0.82631 0.0
O175 O 0.99092 0.73122 0.87761 0.0
O176 O 0.9612 0.7288 0.88755 0.0
O177 O 0.97788 0.76654 0.82686 0.0
O178 O 0.95988 0.7499 0.84651 0.0
C179 C 0.97842 0.72397 0.88855 0.0
C180 C 0.9612 0.76089 0.83192 0.0
O181 O 0.02048 0.75434 0.85077 0.0
Mg182 Mg 0.98667 0.25292 0.65246 0.0
O183 O 0.98307 0.22412 0.63502 0.0
O184 O 0.95428 0.22195 0.62256 0.0
Mg185 Mg 0.9396 0.25047 0.63173 0.0
C186 C 0.97049 0.21486 0.62513 0.0
C187 C 0.03077 0.25967 0.64914 0.0
O188 O 0.0261 0.27759 0.645 0.0
O189 O 0.98949 0.26982 0.62508 0.0
O190 O 0.96027 0.26866 0.61348 0.0
O191 O 0.97499 0.23852 0.67822 0.0
O192 O 0.95778 0.25387 0.65739 0.0
C193 C 0.97747 0.27431 0.61252 0.0
C194 C 0.95855 0.24349 0.67242 0.0
O195 O 0.01799 0.24715 0.65299 0.0
Mg196 Mg 0.49453 0.24879 0.35313 0.0
O197 O 0.49118 0.27687 0.37266 0.0
O198 O 0.46232 0.27495 0.38518 0.0
Mg199 Mg 0.44738 0.24679 0.37373 0.0
C200 C 0.47806 0.28397 0.38327 0.0
C201 C 0.53582 0.2372 0.35004 0.0
O202 O 0.52686 0.2202 0.35088 0.0
O203 O 0.49737 0.22947 0.37894 0.0
O204 O 0.46787 0.22696 0.3895 0.0
O205 O 0.483 0.26447 0.32827 0.0
O206 O 0.46567 0.24753 0.34828 0.0
C207 C 0.48514 0.22229 0.39023 0.0
C208 C 0.46651 0.25866 0.33377 0.0
O209 O 0.52639 0.25289 0.35124 0.0
Mg210 Mg 0.48859 0.75427 0.1464 0.0
O211 O 0.48541 0.72396 0.1316 0.0
O212 O 0.45682 0.72098 0.11869 0.0
Mg213 Mg 0.44145 0.74969 0.12582 0.0
C214 C 0.47294 0.71404 0.12216 0.0
C215 C 0.53234 0.76066 0.13963 0.0
O216 O 0.52679 0.7762 0.13082 0.0
O217 O 0.49092 0.76849 0.11748 0.0
O218 O 0.46142 0.7677 0.10671 0.0
O219 O 0.47697 0.74246 0.17359 0.0
O220 O 0.45969 0.75519 0.15116 0.0
C221 C 0.47868 0.77289 0.10512 0.0
C222 C 0.4605 0.74655 0.16723 0.0
O223 O 0.52024 0.74961 0.14754 0.0
Mg224 Mg 0.88745 0.00284 0.75317 0.0
O225 O 0.86873 0.97534 0.75844 0.0
O226 O 0.85861 0.97865 0.78874 0.0
Mg227 Mg 0.87087 0.00712 0.80272 0.0
C228 C 0.85934 0.96899 0.77268 0.0
C229 C 0.88682 0.01283 0.71065 0.0
O230 O 0.88611 0.03016 0.71957 0.0
O231 O 0.86209 0.02257 0.75197 0.0
O232 O 0.85413 0.02683 0.7828 0.0
O233 O 0.91286 0.98743 0.76329 0.0
O234 O 0.89436 0.00517 0.78219 0.0
C235 C 0.85215 0.03075 0.76513 0.0
C236 C 0.90875 0.99408 0.78041 0.0
O237 O 0.88688 -0.00245 0.7206 0.0
Mg238 Mg 0.7595 0.10262 0.48928 0.0
O239 O 0.76368 0.12007 0.51746 0.0
O240 O 0.79348 0.13039 0.52019 0.0
Mg241 Mg 0.8085 0.11918 0.49279 0.0
C242 C 0.77676 0.12922 0.52672 0.0
C243 C 0.72093 0.09896 0.50929 0.0
O244 O 0.73204 0.09156 0.52204 0.0
O245 O 0.76042 0.131 0.47311 0.0
O246 O 0.79093 0.13929 0.47409 0.0
O247 O 0.76766 0.07495 0.50315 0.0
O248 O 0.78767 0.09487 0.48899 0.0
C249 C 0.77415 0.14221 0.46852 0.0
C250 C 0.78483 0.07935 0.49865 0.0
O251 O 0.72795 0.10486 0.49371 0.0
Mg252 Mg 0.60257 -0.00373 0.25484 0.0
O253 O 0.61932 0.02447 0.26154 0.0
O254 O 0.62968 0.02451 0.29169 0.0
Mg255 Mg 0.61887 -0.00411 0.30447 0.0
C256 C 0.62828 0.03265 0.27559 0.0
C257 C 0.60988 0.99065 0.2102 0.0
O258 O 0.6141 0.97276 0.21486 0.0
O259 O 0.62933 0.97858 0.25325 0.0
O260 O 0.63745 0.97708 0.28405 0.0
O261 O 0.57659 0.01102 0.26543 0.0
O262 O 0.59543 0.99442 0.28369 0.0
C263 C 0.63997 0.97239 0.26631 0.0
C264 C 0.58096 0.00535 0.28233 0.0
O265 O 0.60461 0.00295 0.22319 0.0
Mg266 Mg 0.76455 0.88108 8e-05 0.0
O267 O 0.76233 0.86251 0.9717 0.0
O268 O 0.7847 0.84005 0.97249 0.0
Mg269 Mg 0.80105 0.84429 0.00076 0.0
C270 C 0.7711 0.84801 0.96399 0.0
C271 C 0.72875 0.90343 0.00972 0.0
O272 O 0.73935 0.90702 0.0249 0.0
O273 O 0.75177 0.85655 0.01732 0.0
O274 O 0.77529 0.83554 0.01919 0.0
O275 O 0.78548 0.90168 0.98692 0.0
O276 O 0.79313 0.87545 0.00245 0.0
C277 C 0.7587 0.84095 0.02368 0.0
C278 C 0.79847 0.89045 0.99306 0.0
O279 O 0.73535 0.89323 -0.00431 0.0
Mg280 Mg 0.25921 0.60647 0.99077 0.0
O281 O 0.26044 0.62262 0.02004 0.0
O282 O 0.28869 0.6369 0.02377 0.0
Mg283 Mg 0.30585 0.62906 -0.0033 0.0
C284 C 0.27219 0.63305 0.02995 0.0
C285 C 0.21653 0.61805 -0.00253 0.0
O286 O 0.22344 0.63609 -0.0016 0.0
O287 O 0.25734 0.6354 0.97553 0.0
O288 O 0.28669 0.64737 0.97783 0.0
O289 O 0.27003 0.5794 0.00354 0.0
O290 O 0.2882 0.60236 0.99124 0.0
C291 C 0.26985 0.64834 0.97167 0.0
C292 C 0.28677 0.58606 -2e-05 0.0
O293 O 0.22744 0.60375 0.99414 0.0
Mg294 Mg 0.10704 0.49252 0.75494 0.0
O295 O 0.12058 0.5226 0.76165 0.0
O296 O 0.12939 0.52417 0.79239 0.0
Mg297 Mg 0.12183 0.49453 0.80511 0.0
C298 C 0.12782 0.53193 0.77611 0.0
C299 C 0.09775 0.49035 0.71156 0.0
O300 O 0.08365 0.48006 0.71844 0.0
O301 O 0.13543 0.47813 0.75454 0.0
O302 O 0.14303 0.47794 0.78557 0.0
O303 O 0.07929 0.50439 0.76437 0.0
O304 O 0.09923 0.49041 0.78358 0.0
C305 C 0.14643 0.47344 0.76794 0.0
C306 C 0.0838 0.49964 0.78155 0.0
O307 O 0.10985 0.49789 0.72309 0.0
Mg308 Mg 0.25839 0.38524 0.50717 0.0
O309 O 0.25679 0.36785 0.47794 0.0
O310 O 0.28102 0.34752 0.47748 0.0
Mg311 Mg 0.29853 0.35264 0.50488 0.0
C312 C 0.26648 0.35437 0.46962 0.0
C313 C 0.21969 0.39861 0.52081 0.0
O314 O 0.2292 0.39712 0.53679 0.0
O315 O 0.2488 0.35849 0.52344 0.0
O316 O 0.27473 0.34067 0.52403 0.0
O317 O 0.27669 0.40873 0.49448 0.0
O318 O 0.2875 0.38254 0.50795 0.0
C319 C 0.25775 0.34378 0.52914 0.0
C320 C 0.29098 0.39854 0.49929 0.0
O321 O 0.22791 0.3948 0.50489 0.0
Mg322 Mg 0.39332 0.50792 0.24813 0.0
O323 O 0.37414 0.48042 0.25149 0.0
O324 O 0.36252 0.48269 0.2813 0.0
Mg325 Mg 0.37485 0.5102 0.29698 0.0
C326 C 0.36389 0.4737 0.26494 0.0
C327 C 0.39488 0.52026 0.20651 0.0
O328 O 0.395 0.53706 0.21644 0.0
O329 O 0.3682 0.52786 0.2468 0.0
O330 O 0.35879 0.53079 0.27729 0.0
O331 O 0.41792 0.49143 0.25823 0.0
O332 O 0.39916 0.50864 0.27737 0.0
C333 C 0.35759 0.5354 0.25974 0.0
C334 C 0.41328 0.49716 0.27549 0.0
O335 O 0.39372 0.50435 0.21547 0.0
O336 O 0.04199 0.01859 0.99107 0.0
Mn337 Mn 0.01826 0.00025 -0.00431 0.0
O338 O 0.06697 -0.00102 0.98903 0.0
Mn339 Mn 0.05494 0.97789 -0.00015 0.0
O340 O -0.00549 0.9821 -5e-05 0.0
O341 O 0.00367 0.02482 0.0025 0.0
Mn342 Mn 0.98201 0.02316 0.99025 0.0
O343 O 0.01142 0.00143 0.96652 0.0
O344 O 0.96922 0.00135 -0.00103 0.0
O345 O 0.02515 -0.00122 0.02487 0.0
O346 O 0.05072 0.97996 0.02605 0.0
O347 O 0.98154 0.04657 0.00414 0.0
O348 O 0.98749 0.0222 0.96429 0.0
C349 C 0.03761 0.95813 0.98278 0.0
C350 C 0.05951 0.01567 0.98764 0.0
C351 C 0.97673 0.98481 0.00131 0.0
C352 C -0.00198 0.04155 0.00971 0.0
C353 C -0.00028 0.01096 0.9566 0.0
C354 C 0.03775 0.98987 0.03423 0.0
O355 O 0.0326 0.97547 0.98905 0.0
O356 O 0.05453 0.95367 0.98747 0.0
O357 O 0.26735 0.74174 0.24719 0.0
Mn358 Mn 0.23836 0.74121 0.25217 0.0
O359 O 0.27311 0.76364 0.22447 0.0
Mn360 Mn 0.24825 0.76649 0.2175 0.0
O361 O 0.20931 0.74048 0.25751 0.0
O362 O 0.24154 0.71588 0.26525 0.0
Mn363 Mn 0.22919 0.71544 0.28701 0.0
O364 O 0.24264 0.75739 0.278 0.0
O365 O 0.20432 0.71817 0.28015 0.0
O366 O 0.23428 0.72492 0.22626 0.0
O367 O 0.23795 0.7461 0.20243 0.0
O368 O 0.24147 0.69173 0.28446 0.0
O369 O 0.23944 0.73612 0.30183 0.0
C370 C 0.23022 0.78422 0.23514 0.0
C371 C 0.27868 0.75159 0.23668 0.0
C372 C 0.19833 0.73037 0.26824 0.0
C373 C 0.24769 0.69872 0.26863 0.0
C374 C 0.24339 0.75317 0.2958 0.0
C375 C 0.23388 0.72909 0.20843 0.0
O376 O 0.2353 0.76673 0.23904 0.0
O377 O 0.23698 0.79061 0.21927 0.0
O378 O 0.4743 0.0001 0.50144 0.0
Mn379 Mn 0.49872 0.01633 0.50807 0.0
O380 O 0.44999 0.02035 0.50651 0.0
Mn381 Mn 0.46351 0.04085 0.51858 0.0
O382 O 0.52316 0.03281 0.5146 0.0
O383 O 0.51246 0.99086 0.50989 0.0
Mn384 Mn 0.534 0.99241 0.49757 0.0
O385 O 0.50462 0.0176 0.47874 0.0
O386 O 0.54749 0.01248 0.51014 0.0
O387 O 0.49251 0.01506 0.53742 0.0
O388 O 0.4699 0.03704 0.54389 0.0
O389 O 0.53294 0.96763 0.50724 0.0
O390 O 0.5279 -0.00352 0.47224 0.0
C391 C 0.48098 0.05894 0.50103 0.0
C392 C 0.45669 0.00385 0.50086 0.0
C393 C 0.54074 0.02901 0.51549 0.0
C394 C 0.51692 0.97322 0.51403 0.0
C395 C 0.51561 0.00849 0.46692 0.0
C396 C 0.48166 0.02446 0.54921 0.0
O397 O 0.485 0.04159 0.50623 0.0
O398 O 0.46515 0.06522 0.50767 0.0
O399 O 0.26617 0.25991 0.7589 0.0
Mn400 Mn 0.24473 0.25161 0.73954 0.0
O401 O 0.29246 0.26419 0.74149 0.0
Mn402 Mn 0.28352 0.25206 0.71906 0.0
O403 O 0.22341 0.24352 0.71987 0.0
O404 O 0.22903 0.24386 0.76224 0.0
Mn405 Mn 0.20554 0.25013 0.7581 0.0
O406 O 0.2344 0.27997 0.74187 0.0
O407 O 0.19787 0.23527 0.7368 0.0
O408 O 0.25511 0.22306 0.73697 0.0
O409 O 0.28141 0.22486 0.71899 0.0
O410 O 0.20588 0.23995 0.78211 0.0
O411 O 0.20586 0.27726 0.75555 0.0
C412 C 0.26479 0.2675 0.70118 0.0
C413 C 0.28353 0.26518 0.75736 0.0
C414 C 0.20676 0.23609 0.72103 0.0
C415 C 0.22374 0.23847 0.77904 0.0
C416 C 0.21913 0.28751 0.74833 0.0
C417 C 0.26894 0.21503 0.72793 0.0
O418 O 0.26029 0.25977 0.71715 0.0
O419 O 0.28226 0.26556 0.69656 0.0
O420 O -0.00138 0.96138 0.49875 0.0
Mn421 Mn 0.0005 0.98916 0.5123 0.0
O422 O 0.01175 0.94068 0.51914 0.0
Mn423 Mn 0.01772 0.95877 0.53903 0.0
O424 O 0.00266 0.017 0.52609 0.0
O425 O -0.0002 0.0012 0.4866 0.0
Mn426 Mn 0.98448 0.02112 0.48657 0.0
O427 O 0.97122 0.9899 0.51449 0.0
O428 O -0.00521 0.03911 0.50439 0.0
O429 O 0.02999 0.98833 0.51019 0.0
O430 O 0.04004 0.97248 0.53585 0.0
O431 O -0.00582 0.01855 0.46198 0.0
O432 O 0.96103 0.01121 0.49306 0.0
C433 C -0.00533 0.97227 0.55448 0.0
C434 C 0.00392 0.94418 0.50317 0.0
C435 C 0.00084 0.03478 0.52088 0.0
C436 C 0.00357 0.00441 0.46893 0.0
C437 C 0.95806 -0.00126 0.50594 0.0
C438 C 0.04316 0.98275 0.52125 0.0
O439 O 0.00067 0.97688 0.53781 0.0
O440 O 0.00445 0.95874 0.56199 0.0
O441 O 0.26519 0.77107 0.75733 0.0
Mn442 Mn 0.24405 0.74913 0.75497 0.0
O443 O 0.25062 0.79999 0.76227 0.0
Mn444 Mn 0.22698 0.79104 0.7549 0.0
O445 O 0.22263 0.72762 0.75292 0.0
O446 O 0.26336 0.73004 0.74471 0.0
Mn447 Mn 0.2601 0.70741 0.7558 0.0
O448 O 0.24918 0.74155 0.78332 0.0
O449 O 0.2364 0.69829 0.749 0.0
O450 O 0.23872 0.75694 0.7268 0.0
O451 O 0.22387 0.78592 0.72869 0.0
O452 O 0.27982 0.70375 0.73915 0.0
O453 O 0.26389 0.71259 0.78181 0.0
C454 C 0.21056 0.77406 0.77447 0.0
C455 C 0.26538 0.78974 0.76112 0.0
C456 C 0.2219 0.7089 0.74979 0.0
C457 C 0.277 0.72189 0.73524 0.0
C458 C 0.2574 0.72735 0.79132 0.0
C459 C 0.23043 0.77125 0.71901 0.0
O460 O 0.22485 0.7679 0.7649 0.0
O461 O 0.2067 0.79219 0.77168 0.0
O462 O 0.49201 0.98314 0.97878 0.0
Mn463 Mn 0.5133 0.9913 -0.00175 0.0
O464 O 0.50581 0.97564 0.9505 0.0
Mn465 Mn 0.52885 0.98693 0.95687 0.0
O466 O 0.53449 -0.00048 0.01792 0.0
O467 O 0.49323 0.00188 0.01581 0.0
Mn468 Mn 0.49812 -0.00315 0.03978 0.0
O469 O 0.51066 0.96385 0.01043 0.0
O470 O 0.52039 0.01025 0.04513 0.0
O471 O 0.51598 0.01889 0.9862 0.0
O472 O 0.53 0.01422 0.95745 0.0
O473 O 0.47513 0.00896 0.03995 0.0
O474 O 0.49901 0.96958 0.04018 0.0
C475 C 0.54796 0.97145 0.97419 0.0
C476 C 0.49136 0.97656 0.96127 0.0
C477 C 0.53494 0.00798 0.03472 0.0
C478 C 0.47747 0.00901 0.02155 0.0
C479 C 0.50475 0.95789 0.0267 0.0
C480 C 0.52322 0.02547 0.97072 0.0
O481 O 0.53327 0.98042 0.98059 0.0
O482 O 0.55031 0.97219 0.95582 0.0
O483 O 0.27848 0.25818 0.24297 0.0
Mn484 Mn 0.24922 0.25563 0.23931 0.0
O485 O 0.28762 0.23245 0.25944 0.0
Mn486 Mn 0.26375 0.22663 0.26806 0.0
O487 O 0.21985 0.25363 0.23532 0.0
O488 O 0.25025 0.28321 0.23022 0.0
Mn489 Mn 0.23574 0.28569 0.2102 0.0
O490 O 0.25332 0.24439 0.2111 0.0
O491 O 0.2118 0.27997 0.21879 0.0
O492 O 0.24528 0.26707 0.26753 0.0
O493 O 0.25457 0.24365 0.28712 0.0
O494 O 0.24731 0.30997 0.21483 0.0
O495 O 0.24503 0.26827 0.19148 0.0
C496 C 0.24465 0.20921 0.25106 0.0
C497 C 0.29134 0.24769 0.2501 0.0
C498 C 0.20748 0.26472 0.228 0.0
C499 C 0.25551 0.30129 0.22859 0.0
C500 C 0.25144 0.25121 0.19422 0.0
C501 C 0.24779 0.26053 0.28442 0.0
O502 O 0.24827 0.22767 0.2484 0.0
O503 O 0.25395 0.20171 0.26482 0.0
O504 O 0.50049 0.46696 0.98811 0.0
Mn505 Mn 0.50458 0.49244 0.00549 0.0
O506 O 0.50343 0.44132 0.00728 0.0
Mn507 Mn 0.51198 0.4556 0.02875 0.0
O508 O 0.5087 0.51807 0.02285 0.0
O509 O 0.50963 0.50731 0.98168 0.0
Mn510 Mn 0.49709 0.52928 0.98226 0.0
O511 O 0.4757 0.49783 0.00393 0.0
O512 O 0.5062 0.54359 0.00345 0.0
O513 O 0.53349 0.48674 0.0069 0.0
O514 O 0.53699 0.46315 0.02824 0.0
O515 O 0.51015 0.52878 0.95943 0.0
O516 O 0.47199 0.52195 0.98324 0.0
C517 C 0.49198 0.47227 0.04531 0.0
C518 C 0.49992 0.44842 0.99104 0.0
C519 C 0.50953 0.53659 0.01977 0.0
C520 C 0.51625 0.5123 0.96532 0.0
C521 C 0.46527 0.50899 0.99418 0.0
C522 C 0.54382 0.47566 0.01689 0.0
O523 O 0.49927 0.47749 0.02927 0.0
O524 O 0.49825 0.45583 0.05117 0.0
O525 O 0.76852 0.27548 0.25985 0.0
Mn526 Mn 0.74999 0.25123 0.25712 0.0
O527 O 0.75094 0.30255 0.26305 0.0
Mn528 Mn 0.72864 0.29051 0.25512 0.0
O529 O 0.73172 0.22677 0.2545 0.0
O530 O 0.77181 0.23497 0.24853 0.0
Mn531 Mn 0.77198 0.21249 0.26002 0.0
O532 O 0.75471 0.24501 0.28583 0.0
O533 O 0.7498 0.1999 0.25252 0.0
O534 O 0.745 0.25761 0.22846 0.0
O535 O 0.72675 0.28435 0.229 0.0
O536 O 0.79272 0.21257 0.24404 0.0
O537 O 0.77397 0.21917 0.286 0.0
C538 C 0.71312 0.27273 0.2746 0.0
C539 C 0.76674 0.29409 0.26298 0.0
C540 C 0.73389 0.20811 0.25207 0.0
C541 C 0.7869 0.2297 0.23972 0.0
C542 C 0.76475 0.23276 0.29466 0.0
C543 C 0.73525 0.27042 0.22 0.0
O544 O 0.72825 0.26758 0.26579 0.0
O545 O 0.7078 0.29025 0.27103 0.0
O546 O 0.98988 0.48237 0.48316 0.0
Mn547 Mn 0.01046 0.49122 0.50321 0.0
O548 O 0.00446 0.47847 0.45468 0.0
Mn549 Mn 0.0271 0.48977 0.46247 0.0
O550 O 0.03105 0.50043 0.52332 0.0
O551 O 0.98962 0.5005 0.52041 0.0
Mn552 Mn -0.0057 0.49533 0.54437 0.0
O553 O 0.00881 0.4634 0.51491 0.0
O554 O 0.01584 0.50971 0.55031 0.0
O555 O 0.01195 0.51925 0.49201 0.0
O556 O 0.02784 0.51699 0.46423 0.0
O557 O 0.97084 0.5065 0.54418 0.0
O558 O -0.0034 0.46821 0.54455 0.0
C559 C 0.04595 0.47294 0.47881 0.0
C560 C 0.98984 0.4774 0.46519 0.0
C561 C 0.03079 0.50853 0.5403 0.0
C562 C 0.97355 0.5071 0.52586 0.0
C563 C 0.00314 0.457 0.53111 0.0
C564 C 0.01962 0.5271 0.4774 0.0
O565 O 0.03119 0.48148 0.48574 0.0
O566 O 0.04869 0.47555 0.46071 0.0
O567 O 0.763 0.75796 0.25282 0.0
Mn568 Mn 0.74177 0.74901 0.23335 0.0
O569 O 0.78767 0.76812 0.23531 0.0
Mn570 Mn 0.78057 0.75372 0.21344 0.0
O571 O 0.72076 0.74026 0.21369 0.0
O572 O 0.72675 0.73914 0.25558 0.0
Mn573 Mn 0.70299 0.74512 0.2531 0.0
O574 O 0.7298 0.77667 0.2368 0.0
O575 O 0.69493 0.73256 0.23055 0.0
O576 O 0.75394 0.7215 0.22999 0.0
O577 O 0.7816 0.72652 0.21495 0.0
O578 O 0.70455 0.73172 0.27555 0.0
O579 O 0.70291 0.77243 0.25334 0.0
C580 C 0.76008 0.76464 0.19416 0.0
C581 C 0.77923 0.76641 0.2513 0.0
C582 C 0.70386 0.73344 0.21475 0.0
C583 C 0.72225 0.73109 0.27145 0.0
C584 C 0.71505 0.78343 0.24523 0.0
C585 C 0.76933 0.71523 0.22249 0.0
O586 O 0.75662 0.75857 0.21108 0.0
O587 O 0.7777 0.76455 0.1897 0.0
O588 O 0.76625 0.23777 0.74844 0.0
Mn589 Mn 0.73695 0.2406 0.74794 0.0
O590 O 0.77857 0.26283 0.73213 0.0
Mn591 Mn 0.75632 0.26967 0.72084 0.0
O592 O 0.70756 0.24349 0.74747 0.0
O593 O 0.73481 0.21311 0.75702 0.0
Mn594 Mn 0.71672 0.2109 0.77399 0.0
O595 O 0.73748 0.25165 0.77629 0.0
O596 O 0.69513 0.21675 0.76101 0.0
O597 O 0.73651 0.22918 0.71969 0.0
O598 O 0.74791 0.25288 0.70097 0.0
O599 O 0.72754 0.18642 0.77141 0.0
O600 O 0.72328 0.2286 0.79397 0.0
C601 C 0.73644 0.28675 0.73684 0.0
C602 C 0.78035 0.24795 0.74246 0.0
C603 C 0.69345 0.23244 0.75189 0.0
C604 C 0.73847 0.1949 0.75929 0.0
C605 C 0.73164 0.24525 0.79242 0.0
C606 C 0.74069 0.23582 0.70317 0.0
O607 O 0.73912 0.26825 0.7389 0.0
O608 O 0.74717 0.29469 0.72419 0.0
O609 O 0.77618 0.75634 0.7354 0.0
Mn610 Mn 0.74689 0.75501 0.73141 0.0
O611 O 0.78345 0.73133 0.75398 0.0
Mn612 Mn 0.75919 0.72656 0.76226 0.0
O613 O 0.71758 0.75345 0.72762 0.0
O614 O 0.74859 0.78261 0.72122 0.0
Mn615 Mn 0.73483 0.78207 0.70009 0.0
O616 O 0.75121 0.74171 0.70382 0.0
O617 O 0.71035 0.77659 0.70697 0.0
O618 O 0.74312 0.76802 0.75901 0.0
O619 O 0.74987 0.74486 0.78006 0.0
O620 O 0.74393 0.8072 0.70267 0.0
O621 O 0.74551 0.76467 0.68252 0.0
C622 C 0.73965 0.70987 0.74471 0.0
C623 C 0.78823 0.74566 0.74369 0.0
C624 C 0.70555 0.76319 0.71831 0.0
C625 C 0.75182 0.80108 0.71799 0.0
C626 C 0.75091 0.7476 0.68647 0.0
C627 C 0.74441 0.762 0.77624 0.0
O628 O 0.74487 0.72782 0.74183 0.0
O629 O 0.74769 0.70219 0.75916 0.0
O630 O 0.53919 0.51744 0.48846 0.0
Mn631 Mn 0.51182 0.506 0.4916 0.0
O632 O 0.55886 0.49385 0.49704 0.0
Mn633 Mn 0.54077 0.47618 0.50551 0.0
O634 O 0.48438 0.49458 0.49445 0.0
O635 O 0.5023 0.53391 0.49275 0.0
Mn636 Mn 0.48409 0.53501 0.47574 0.0
O637 O 0.50928 0.50324 0.4616 0.0
O638 O 0.46541 0.51759 0.4833 0.0
O639 O 0.51477 0.50795 0.52172 0.0
O640 O 0.53145 0.48173 0.52982 0.0
O641 O 0.48606 0.55987 0.48661 0.0
O642 O 0.49412 0.52946 0.45178 0.0
C643 C 0.52365 0.46048 0.48447 0.0
C644 C 0.55584 0.51088 0.49079 0.0
C645 C 0.46795 0.50087 0.49045 0.0
C646 C 0.49912 0.55234 0.49673 0.0
C647 C 0.50314 0.51382 0.44822 0.0
C648 C 0.52187 0.49686 0.53431 0.0
O649 O 0.52141 0.47849 0.4903 0.0
O650 O 0.5373 0.45199 0.49283 0.0
O651 O 0.97477 0.50008 0.00039 0.0
Mn652 Mn -0.00025 0.5157 0.00631 0.0
O653 O 0.95126 0.52149 0.0044 0.0
Mn654 Mn 0.96539 0.54115 0.01694 0.0
O655 O 0.02485 0.53132 0.01194 0.0
O656 O 0.01277 0.48984 0.00817 0.0
Mn657 Mn 0.03361 0.4902 -0.00544 0.0
O658 O 0.00486 0.51637 0.97671 0.0
O659 O 0.04833 0.51041 0.00539 0.0
O660 O -0.00581 0.515 0.03591 0.0
O661 O 0.97137 0.53677 0.04222 0.0
O662 O 0.03246 0.46589 0.00525 0.0
O663 O 0.02616 0.49329 0.96949 0.0
C664 C 0.98317 0.55922 -0.00015 0.0
C665 C 0.95741 0.50463 -0.00078 0.0
C666 C 0.04237 0.52713 0.01132 0.0
C667 C 0.01695 0.47222 0.01267 0.0
C668 C 0.01447 0.50606 0.96452 0.0
C669 C 0.98324 0.52435 0.04766 0.0
O670 O 0.98688 0.54156 0.00452 0.0
O671 O 0.96755 0.56576 0.00681 0.0
H672 H 0.96733 0.19914 0.07294 0.0
H673 H 0.97829 0.16759 0.06025 0.0
H674 H 0.0302 0.17628 0.09137 0.0
H675 H 0.01901 0.20778 0.10475 0.0
H676 H 0.00713 0.15805 0.03807 0.0
H677 H 0.01509 0.12235 0.10779 0.0
H678 H 0.00365 0.14557 0.10583 0.0
H679 H 0.02883 0.14447 0.10526 0.0
C680 C 0.9811 0.19443 0.07714 0.0
C681 C -0.00778 0.20606 0.08998 0.0
C682 C 0.98738 0.17631 0.06982 0.0
C683 C 0.00499 0.1693 0.07502 0.0
C684 C 0.01637 0.18106 0.08748 0.0
H685 H 0.03038 0.06277 0.00414 0.0
H686 H 0.03868 0.0936 0.02195 0.0
C687 C 0.01 0.19918 0.095 0.0
C688 C 0.01109 0.14971 0.06717 0.0
H689 H 0.02173 0.10321 0.07992 0.0
C690 C 0.01054 0.1461 0.04721 0.0
C691 C 0.01553 0.13408 0.0791 0.0
C692 C 0.01569 0.13667 0.10069 0.0
C693 C 0.01321 0.12722 0.0389 0.0
C694 C 0.01729 0.11145 0.05083 0.0
C695 C 0.01883 0.11528 0.07074 0.0
C696 C 0.01678 0.09058 0.04332 0.0
C697 C 0.01028 0.12417 0.01754 0.0
C698 C 0.00315 0.07764 0.05052 0.0
C699 C -0.00108 0.05982 0.04076 0.0
C700 C 0.00825 0.0545 0.02365 0.0
C701 C 0.02331 0.06631 0.01757 0.0
C702 C 0.02772 0.08416 0.0275 0.0
H703 H 0.00362 0.13699 0.01114 0.0
H704 H 0.02405 0.122 0.01038 0.0
H705 H 0.00128 0.11096 0.01432 0.0
H706 H -0.00544 0.08207 0.06273 0.0
H707 H 0.98704 0.05111 0.04556 0.0
H708 H 0.03016 0.78139 0.32112 0.0
H709 H 0.06033 0.78119 0.30414 0.0
H710 H 0.07084 0.72329 0.324 0.0
H711 H 0.04083 0.72333 0.34105 0.0
H712 H 0.09832 0.77439 0.31936 0.0
H713 H 0.07502 0.71869 0.26381 0.0
H714 H 0.05876 0.73284 0.27839 0.0
H715 H 0.07023 0.71218 0.2881 0.0
C716 C 0.03895 0.76867 0.32201 0.0
C717 C 0.03301 0.75232 0.33237 0.0
C718 C 0.05616 0.76859 0.31227 0.0
C719 C 0.06762 0.75209 0.31255 0.0
C720 C 0.06203 0.73603 0.32335 0.0
H721 H 0.17066 0.70536 0.27946 0.0
H722 H 0.13818 0.71311 0.28673 0.0
C723 C 0.04491 0.73614 0.33319 0.0
C724 C 0.08543 0.75146 0.30155 0.0
H725 H 0.10797 0.72514 0.26609 0.0
C726 C 0.10041 0.76388 0.30749 0.0
C727 C 0.088 0.73782 0.28601 0.0
C728 C 0.07212 0.72472 0.27853 0.0
C729 C 0.11831 0.76211 0.29911 0.0
C730 C 0.1211 0.74782 0.28411 0.0
C731 C 0.10581 0.73612 0.27754 0.0
C732 C 0.14016 0.74286 0.27699 0.0
C733 C 0.1343 0.7747 0.30719 0.0
C734 C 0.15194 0.75674 0.26827 0.0
C735 C 0.1707 0.75232 0.26407 0.0
C736 C 0.17789 0.73396 0.26856 0.0
C737 C 0.16564 0.71971 0.27601 0.0
C738 C 0.14701 0.72411 0.28015 0.0
H739 H 0.13042 0.78258 0.32084 0.0
H740 H 0.14673 0.76561 0.30982 0.0
H741 H 0.13839 0.78583 0.29667 0.0
H742 H 0.14682 0.77118 0.26533 0.0
H743 H 0.17979 0.7636 0.25835 0.0
H744 H 0.50844 0.81931 0.61061 0.0
H745 H 0.51295 0.85189 0.59731 0.0
H746 H 0.47735 0.83451 0.54948 0.0
H747 H 0.47277 0.80202 0.56259 0.0
H748 H 0.51123 0.85706 0.54028 0.0
H749 H 0.4686 0.89184 0.59883 0.0
H750 H 0.48775 0.87694 0.606 0.0
H751 H 0.46809 0.86565 0.59357 0.0
C752 C 0.50197 0.82224 0.59701 0.0
C753 C 0.49015 0.80808 0.58772 0.0
C754 C 0.50437 0.84095 0.58956 0.0
C755 C 0.49512 0.84572 0.57265 0.0
C756 C 0.48444 0.83119 0.56266 0.0
H757 H 0.4909 0.94676 0.50092 0.0
H758 H 0.48237 0.91625 0.51656 0.0
C759 C 0.4819 0.81259 0.57015 0.0
C760 C 0.49592 0.86601 0.56563 0.0
H761 H 0.48136 0.91284 0.5758 0.0
C762 C 0.50471 0.86926 0.54801 0.0
C763 C 0.48736 0.88187 0.57579 0.0
C764 C 0.47728 0.87901 0.59455 0.0
C765 C 0.50543 0.88804 0.54037 0.0
C766 C 0.4966 0.9039 0.55035 0.0
C767 C 0.48791 0.90065 0.56806 0.0
C768 C 0.49716 0.92407 0.54293 0.0
C769 C 0.51612 0.89078 0.52191 0.0
C770 C 0.50675 0.93928 0.55322 0.0
C771 C 0.51104 0.95698 0.54448 0.0
C772 C 0.50565 0.95975 0.52546 0.0
C773 C 0.49457 0.94526 0.51584 0.0
C774 C 0.4901 0.92765 0.52463 0.0
H775 H 0.52597 0.87859 0.51882 0.0
H776 H 0.50606 0.89105 0.50982 0.0
H777 H 0.52427 0.90486 0.52245 0.0
H778 H 0.51225 0.93689 0.56739 0.0
H779 H 0.52008 0.96772 0.55195 0.0
H780 H 0.43408 0.26725 0.8231 0.0
H781 H 0.40158 0.2764 0.81807 0.0
H782 H 0.3838 0.24031 0.86448 0.0
H783 H 0.41623 0.23061 0.86924 0.0
H784 H 0.36382 0.23234 0.83295 0.0
H785 H 0.36573 0.31266 0.84598 0.0
H786 H 0.38392 0.30542 0.82953 0.0
H787 H 0.38429 0.29714 0.85377 0.0
C788 C 0.4233 0.26145 0.8324 0.0
C789 C 0.42777 0.24825 0.8466 0.0
C790 C 0.40474 0.26689 0.82967 0.0
C791 C 0.39029 0.25942 0.84121 0.0
C792 C 0.39475 0.24649 0.85561 0.0
H793 H 0.27512 0.25829 0.79515 0.0
H794 H 0.29752 0.25967 0.82189 0.0
C795 C 0.41332 0.24097 0.8583 0.0
C796 C 0.37044 0.26324 0.83654 0.0
H797 H 0.34165 0.29986 0.8236 0.0
C798 C 0.35871 0.2471 0.83143 0.0
C799 C 0.36371 0.28249 0.83486 0.0
C800 C 0.37504 0.30039 0.84155 0.0
C801 C 0.34123 0.24966 0.82279 0.0
C802 C 0.3353 0.26894 0.81938 0.0
C803 C 0.34627 0.2851 0.82612 0.0
C804 C 0.32016 0.27235 0.80547 0.0
C805 C 0.33006 0.23169 0.81586 0.0
C806 C 0.32512 0.28025 0.78788 0.0
C807 C 0.31249 0.27941 0.77267 0.0
C808 C 0.29462 0.27063 0.77474 0.0
C809 C 0.28892 0.2647 0.79299 0.0
C810 C 0.30168 0.26547 0.80827 0.0
H811 H 0.33771 0.21786 0.81782 0.0
H812 H 0.31668 0.23082 0.82399 0.0
H813 H 0.3266 0.23264 0.80041 0.0
H814 H 0.33925 0.28578 0.78544 0.0
H815 H 0.31721 0.28453 0.75893 0.0
H816 H -0.00039 0.78796 0.39058 0.0
H817 H 0.00679 0.81933 0.40775 0.0
H818 H 0.94995 0.8213 0.429 0.0
H819 H 0.94274 0.78998 0.41235 0.0
H820 H 0.99074 0.85681 0.40625 0.0
H821 H 0.98128 0.8254 0.4779 0.0
H822 H 0.98318 0.81025 0.4562 0.0
H823 H 0.96128 0.82151 0.46254 0.0
C824 C 0.98865 0.79508 0.39891 0.0
C825 C 0.97068 0.78629 0.40032 0.0
C826 C -0.00725 0.81302 0.40865 0.0
C827 C 0.97898 0.82243 0.4199 0.0
C828 C 0.9609 0.81405 0.42074 0.0
H829 H 0.98047 0.94142 0.47182 0.0
H830 H 0.97496 0.91255 0.45026 0.0
C831 C 0.95681 0.79613 0.41118 0.0
C832 C 0.98352 0.84072 0.43128 0.0
H833 H 0.9839 0.86013 0.4771 0.0
C834 C 0.98936 0.85757 0.42175 0.0
C835 C 0.9819 0.84156 0.45151 0.0
C836 C 0.97675 0.82367 0.46268 0.0
C837 C -0.00665 0.87538 0.43195 0.0
C838 C 0.99111 0.87635 0.45213 0.0
C839 C 0.98546 0.85942 0.46161 0.0
C840 C -0.00478 0.89446 0.46401 0.0
C841 C 0.00027 0.89284 0.4211 0.0
C842 C 0.00826 0.89382 0.47897 0.0
C843 C 0.01116 0.91006 0.49145 0.0
C844 C 0.00115 0.92741 0.48922 0.0
C845 C 0.98843 0.92828 0.4739 0.0
C846 C 0.98537 0.91185 0.46148 0.0
H847 H 0.00586 0.88834 0.40673 0.0
H848 H 0.98842 0.90286 0.41897 0.0
H849 H 0.01142 0.90115 0.42923 0.0
H850 H 0.01603 0.88058 0.48118 0.0
H851 H 0.02124 0.90893 0.50294 0.0
H852 H 0.42078 0.77221 0.63328 0.0
H853 H 0.38903 0.77146 0.64621 0.0
H854 H 0.40495 0.72707 0.68523 0.0
H855 H 0.43719 0.72855 0.67297 0.0
H856 H 0.36212 0.74622 0.64792 0.0
H857 H 0.38327 0.76606 0.72242 0.0
H858 H 0.39964 0.76658 0.70269 0.0
H859 H 0.39423 0.74384 0.71412 0.0
C860 C 0.41753 0.76216 0.64453 0.0
C861 C 0.43155 0.75054 0.65223 0.0
C862 C 0.39933 0.76179 0.65195 0.0
C863 C 0.39466 0.74963 0.66709 0.0
C864 C 0.40836 0.73712 0.67403 0.0
H865 H 0.28917 0.70595 0.70182 0.0
H866 H 0.31605 0.71685 0.68328 0.0
C867 C 0.42673 0.73777 0.66686 0.0
C868 C 0.37549 0.75017 0.67556 0.0
H869 H 0.35193 0.75318 0.71819 0.0
C870 C 0.35991 0.74798 0.66328 0.0
C871 C 0.37244 0.75321 0.69552 0.0
C872 C 0.38829 0.75779 0.7094 0.0
C873 C 0.3415 0.74769 0.67049 0.0
C874 C 0.33857 0.74884 0.69059 0.0
C875 C 0.35408 0.75208 0.70278 0.0
C876 C 0.32002 0.74446 0.69943 0.0
C877 C 0.32542 0.74617 0.65644 0.0
C878 C 0.31304 0.75632 0.71473 0.0
C879 C 0.29773 0.74984 0.72562 0.0
C880 C 0.28916 0.73154 0.72125 0.0
C881 C 0.29537 0.72032 0.70526 0.0
C882 C 0.3107 0.72663 0.69453 0.0
H883 H 0.32906 0.75372 0.64304 0.0
H884 H 0.32257 0.73046 0.65243 0.0
H885 H 0.31244 0.75266 0.66256 0.0
H886 H 0.32015 0.77001 0.71897 0.0
H887 H 0.29372 0.75822 0.73838 0.0
H888 H 0.51272 0.1843 0.88593 0.0
H889 H 0.52282 0.15596 0.90358 0.0
H890 H 0.48934 0.17507 0.95214 0.0
H891 H 0.47884 0.20312 0.9345 0.0
H892 H 0.53973 0.14929 0.9393 0.0
H893 H 0.4658 0.12168 0.9366 0.0
H894 H 0.47394 0.14208 0.92289 0.0
H895 H 0.46897 0.14556 0.94808 0.0
C896 C 0.50786 0.18273 0.90053 0.0
C897 C 0.49473 0.19577 0.9087 0.0
C898 C 0.51361 0.16649 0.91058 0.0
C899 C 0.50642 0.16314 0.92897 0.0
C900 C 0.49466 0.17711 0.93778 0.0
H901 H 0.50716 0.05487 0.99309 0.0
H902 H 0.50466 0.08961 0.98567 0.0
C903 C 0.48876 0.19318 0.9277 0.0
C904 C 0.50983 0.14425 0.93815 0.0
H905 H 0.48748 0.10244 0.9524 0.0
C906 C 0.52832 0.13908 0.94228 0.0
C907 C 0.49489 0.13093 0.942 0.0
C908 C 0.4748 0.1352 0.93703 0.0
C909 C 0.53227 0.12088 0.95005 0.0
C910 C 0.51736 0.10745 0.95354 0.0
C911 C 0.49886 0.11283 0.94986 0.0
C912 C 0.52062 0.08707 0.95928 0.0
C913 C 0.55236 0.11614 0.9544 0.0
C914 C 0.53042 0.07415 0.94693 0.0
C915 C 0.5317 0.05433 0.951 0.0
C916 C 0.52313 0.0469 0.96751 0.0
C917 C 0.5138 0.06002 0.98019 0.0
C918 C 0.51242 0.07989 0.97602 0.0
H919 H 0.56114 0.1297 0.95656 0.0
H920 H 0.5533 0.10731 0.96741 0.0
H921 H 0.55829 0.10744 0.94211 0.0
H922 H 0.5365 0.07926 0.93373 0.0
H923 H 0.53905 0.04474 0.94089 0.0
H924 H 0.04359 0.21175 0.16184 0.0
H925 H 0.07343 0.21115 0.17921 0.0
H926 H 0.0781 0.27426 0.17764 0.0
H927 H 0.0484 0.27504 0.16015 0.0
H928 H 0.11022 0.22894 0.16648 0.0
H929 H 0.08353 0.25959 0.23611 0.0
H930 H 0.06837 0.24776 0.21822 0.0
H931 H 0.07693 0.2724 0.21515 0.0
C932 C 0.05098 0.22551 0.16514 0.0
C933 C 0.04358 0.24346 0.15963 0.0
C934 C 0.068 0.22512 0.17508 0.0
C935 C 0.07779 0.24267 0.17992 0.0
C936 C 0.0706 0.26057 0.17425 0.0
H937 H 0.17768 0.28887 0.22917 0.0
H938 H 0.14546 0.28034 0.22008 0.0
C939 C 0.05368 0.26098 0.16415 0.0
C940 C 0.09577 0.24237 0.19053 0.0
H941 H 0.11664 0.25793 0.23259 0.0
C942 C 0.11166 0.235 0.18104 0.0
C943 C 0.09748 0.25027 0.2095 0.0
C944 C 0.08067 0.25784 0.22048 0.0
C945 C 0.12948 0.23633 0.18962 0.0
C946 C 0.13134 0.24475 0.20847 0.0
C947 C 0.11524 0.25138 0.21822 0.0
C948 C 0.15004 0.24903 0.21728 0.0
C949 C 0.14628 0.22977 0.17796 0.0
C950 C 0.16317 0.23419 0.21976 0.0
C951 C 0.18175 0.23908 0.22487 0.0
C952 C 0.18737 0.25886 0.22784 0.0
C953 C 0.17378 0.27349 0.22694 0.0
C954 C 0.15533 0.26863 0.22174 0.0
H955 H 0.14288 0.22756 0.16248 0.0
H956 H 0.15799 0.24072 0.17944 0.0
H957 H 0.15119 0.2156 0.18322 0.0
H958 H 0.15931 0.21891 0.21681 0.0
H959 H 0.19197 0.22757 0.22501 0.0
H960 H 0.0616 0.97104 0.21401 0.0
H961 H 0.05033 0.97397 0.18117 0.0
H962 H 0.0903 0.02123 0.17274 0.0
H963 H 0.102 0.01806 0.2054 0.0
H964 H 0.03493 0.00427 0.16172 0.0
H965 H 0.10309 0.98257 0.12928 0.0
H966 H 0.09803 0.98014 0.15442 0.0
H967 H 0.1046 0.00371 0.14544 0.0
C968 C 0.068 0.98208 0.20519 0.0
C969 C 0.08287 0.99414 0.21226 0.0
C970 C 0.06148 0.98379 0.18644 0.0
C971 C 0.06965 -0.00238 0.17439 0.0
C972 C 0.08404 0.01017 0.18163 0.0
H973 H 0.0277 0.0209 0.05836 0.0
H974 H 0.03377 0.02435 0.09308 0.0
C975 C 0.09069 0.00836 0.20033 0.0
C976 C 0.06361 -0.00174 0.15405 0.0
H977 H 0.07941 0.99162 0.10807 0.0
C978 C 0.04464 0.00157 0.14995 0.0
C979 C 0.07627 0.99457 0.13873 0.0
C980 C 0.09659 0.98986 0.14212 0.0
C981 C 0.03798 0.00105 0.13095 0.0
C982 C 0.05069 -0.00258 0.11567 0.0
C983 C 0.06969 0.99449 0.1198 0.0
C984 C 0.04462 0.99503 0.09533 0.0
C985 C 0.01733 0.0037 0.12741 0.0
C986 C 0.04846 0.97741 0.08513 0.0
C987 C 0.04528 0.97554 0.06545 0.0
C988 C 0.03803 0.99121 0.05545 0.0
C989 C 0.03315 0.00854 0.06576 0.0
C990 C 0.03659 0.0105 0.08558 0.0
H991 H 0.00889 0.00214 0.1407 0.0
H992 H 0.01512 0.01863 0.12211 0.0
H993 H 0.01203 0.99284 0.11632 0.0
H994 H 0.05454 0.96524 0.09234 0.0
H995 H 0.04903 0.96195 0.05792 0.0
H996 H 0.2436 0.86723 0.44999 0.0
H997 H 0.23869 0.85699 0.41625 0.0
H998 H 0.27589 0.80851 0.4228 0.0
H999 H 0.28115 0.81878 0.45623 0.0
H1000 H 0.28433 0.83017 0.39107 0.0
H1001 H 0.20813 0.81046 0.39338 0.0
H1002 H 0.21469 0.83481 0.40211 0.0
H1003 H 0.22207 0.81392 0.41487 0.0
C1004 C 0.25053 0.85423 0.4443 0.0
C1005 C 0.26279 0.84383 0.45582 0.0
C1006 C 0.24769 0.84839 0.42502 0.0
C1007 C 0.25687 0.83194 0.41704 0.0
C1008 C 0.26873 0.82131 0.42864 0.0
H1009 H 0.26348 0.74894 0.32814 0.0
H1010 H 0.26753 0.77269 0.35502 0.0
C1011 C 0.27168 0.82718 0.4478 0.0
C1012 C 0.25478 0.82584 0.3965 0.0
H1013 H 0.22381 0.80495 0.36405 0.0
C1014 C 0.27103 0.82493 0.38508 0.0
C1015 C 0.23739 0.81919 0.38864 0.0
C1016 C 0.21956 0.81947 0.40035 0.0
C1017 C 0.27055 0.81657 0.36639 0.0
C1018 C 0.2534 0.80892 0.35896 0.0
C1019 C 0.23692 0.81095 0.36984 0.0
C1020 C 0.25285 0.79593 0.34148 0.0
C1021 C 0.28851 0.81521 0.35497 0.0
C1022 C 0.24348 0.8013 0.32484 0.0
C1023 C 0.24138 0.78777 0.30927 0.0
C1024 C 0.24824 0.76864 0.31043 0.0
C1025 C 0.25807 0.7636 0.32689 0.0
C1026 C 0.26043 0.77715 0.34222 0.0
H1027 H 0.29927 0.82606 0.36041 0.0
H1028 H 0.29426 0.80028 0.35612 0.0
H1029 H 0.28589 0.81765 0.33955 0.0
H1030 H 0.23741 0.81571 0.32413 0.0
H1031 H 0.23353 0.7919 0.29683 0.0
H1032 H 0.44274 0.97716 0.72507 0.0
H1033 H 0.45933 0.97784 0.69432 0.0
H1034 H 0.41361 0.0091 0.67009 0.0
H1035 H 0.39685 0.00844 0.70073 0.0
H1036 H 0.4284 0.97719 0.64603 0.0
H1037 H 0.48368 0.02939 0.67445 0.0
H1038 H 0.47957 0.0074 0.68744 0.0
H1039 H 0.46168 0.02554 0.68678 0.0
C1040 C 0.43612 0.98406 0.71317 0.0
C1041 C 0.41851 0.9929 0.71541 0.0
C1042 C 0.44568 0.98448 0.69564 0.0
C1043 C 0.4378 0.99374 0.68004 0.0
C1044 C 0.41995 0.00194 0.682 0.0
H1045 H 0.47112 0.04792 0.5796 0.0
H1046 H 0.46388 0.03796 0.61204 0.0
C1047 C 0.4104 0.00157 0.69953 0.0
C1048 C 0.44833 -0.00444 0.66183 0.0
H1049 H 0.48522 0.0201 0.64169 0.0
C1050 C 0.44098 0.98633 0.64507 0.0
C1051 C 0.46469 0.00757 0.6607 0.0
C1052 C 0.47289 0.01819 0.67823 0.0
C1053 C 0.44924 0.98927 0.62708 0.0
C1054 C 0.46533 0.00168 0.62588 0.0
C1055 C 0.47301 0.01042 0.64272 0.0
C1056 C 0.47264 0.00795 0.60713 0.0
C1057 C 0.44014 0.97994 0.60936 0.0
C1058 C 0.48072 0.99455 0.59384 0.0
C1059 C 0.485 0.00027 0.57521 0.0
C1060 C 0.48112 0.0194 0.56964 0.0
C1061 C 0.47414 0.03304 0.58341 0.0
C1062 C 0.47003 0.02738 0.60197 0.0
H1063 H 0.42639 0.97282 0.61256 0.0
H1064 H 0.43798 0.99113 0.59844 0.0
H1065 H 0.4495 0.96859 0.60299 0.0
H1066 H 0.48302 0.97952 0.59764 0.0
H1067 H 0.49027 0.98942 0.56489 0.0
H1068 H 0.2535 0.15892 0.9299 0.0
H1069 H 0.24868 0.17431 0.89924 0.0
H1070 H 0.30346 0.20209 0.90366 0.0
H1071 H 0.30829 0.18715 0.93445 0.0
H1072 H 0.27758 0.22682 0.89033 0.0
H1073 H 0.27348 0.15574 0.84919 0.0
H1074 H 0.25674 0.15702 0.86844 0.0
H1075 H 0.28146 0.1578 0.87375 0.0
C1076 C 0.26442 0.16855 0.92454 0.0
C1077 C 0.28136 0.17162 0.93464 0.0
C1078 C 0.26174 0.17713 0.90686 0.0
C1079 C 0.27596 0.18885 0.89886 0.0
C1080 C 0.29241 0.19287 0.90941 0.0
H1081 H 0.25803 0.21975 0.77785 0.0
H1082 H 0.27585 0.20908 0.80587 0.0
C1083 C 0.2951 0.18434 0.92708 0.0
C1084 C 0.27364 0.19695 0.87955 0.0
H1085 H 0.26237 0.18386 0.83314 0.0
C1086 C 0.27453 0.2174 0.87778 0.0
C1087 C 0.27026 0.18469 0.86299 0.0
C1088 C 0.27064 0.16259 0.8636 0.0
C1089 C 0.27072 0.22595 0.86025 0.0
C1090 C 0.26564 0.21374 0.8441 0.0
C1091 C 0.26614 0.19326 0.84551 0.0
C1092 C 0.25673 0.22178 0.82693 0.0
C1093 C 0.27152 0.24805 0.85949 0.0
C1094 C 0.24023 0.2324 0.82948 0.0
C1095 C 0.23018 0.2383 0.81374 0.0
C1096 C 0.23628 0.23371 0.79495 0.0
C1097 C 0.25309 0.22353 0.79219 0.0
C1098 C 0.26321 0.21744 0.80815 0.0
H1099 H 0.28318 0.25426 0.86853 0.0
H1100 H 0.2734 0.25305 0.84466 0.0
H1101 H 0.25825 0.25409 0.86538 0.0
H1102 H 0.23467 0.23554 0.84372 0.0
H1103 H 0.21729 0.24615 0.81635 0.0
H1104 H 0.0749 0.02479 0.31669 0.0
H1105 H 0.0629 0.02248 0.34953 0.0
H1106 H 0.11288 0.99259 0.36565 0.0
H1107 H 0.12498 0.99481 0.33307 0.0
H1108 H 0.07818 0.97214 0.37317 0.0
H1109 H 0.07887 0.0493 0.40202 0.0
H1110 H 0.06874 0.04573 0.37852 0.0
H1111 H 0.09324 0.04125 0.38193 0.0
C1112 C 0.08355 0.01821 0.32735 0.0
C1113 C 0.10088 0.00998 0.32223 0.0
C1114 C 0.07668 0.0169 0.3461 0.0
C1115 C 0.08704 0.00737 0.35998 0.0
C1116 C 0.1047 0.0 0.35514 0.0
H1117 H 0.04088 0.00641 0.47606 0.0
H1118 H 0.06538 0.00301 0.4514 0.0
C1119 C 0.11161 0.00139 0.33649 0.0
C1120 C 0.0787 0.00347 0.37895 0.0
H1121 H 0.06039 0.02611 0.41904 0.0
C1122 C 0.07452 0.9839 0.38336 0.0
C1123 C 0.07421 0.0188 0.39229 0.0
C1124 C 0.07913 0.03996 0.3886 0.0
C1125 C 0.06502 0.97937 0.40033 0.0
C1126 C 0.05954 0.9948 0.41313 0.0
C1127 C 0.06464 0.01428 0.40921 0.0
C1128 C 0.04646 0.99153 0.42927 0.0
C1129 C 0.0605 0.95817 0.40421 0.0
C1130 C 0.02795 0.98529 0.42524 0.0
C1131 C 0.01406 0.98718 0.43928 0.0
C1132 C 0.0185 0.99512 0.45759 0.0
C1133 C 0.03728 -0.00034 0.46219 0.0
C1134 C 0.0512 -0.00204 0.44806 0.0
H1135 H 0.07033 0.94811 0.39653 0.0
H1136 H 0.06108 0.95553 0.41981 0.0
H1137 H 0.04609 0.95447 0.39907 0.0
H1138 H 0.0239 0.98065 0.41077 0.0
H1139 H -0.00043 0.98408 0.43534 0.0
H1140 H 0.22954 0.84814 0.56001 0.0
H1141 H 0.22166 0.82949 0.58837 0.0
H1142 H 0.26124 0.78524 0.57067 0.0
H1143 H 0.26944 0.80387 0.54252 0.0
H1144 H 0.20975 0.78994 0.59593 0.0
H1145 H 0.28206 0.80738 0.6222 0.0
H1146 H 0.27204 0.81924 0.60205 0.0
H1147 H 0.28067 0.79468 0.59918 0.0
C1148 C 0.23624 0.83421 0.56189 0.0
C1149 C 0.25036 0.82767 0.54917 0.0
C1150 C 0.23174 0.82358 0.57813 0.0
C1151 C 0.24121 0.80624 0.58184 0.0
C1152 C 0.25408 0.79882 0.56829 0.0
H1153 H 0.25049 0.74966 0.69214 0.0
H1154 H 0.25163 0.7542 0.65744 0.0
C1155 C 0.2587 0.80947 0.55218 0.0
C1156 C 0.23898 0.79702 0.60066 0.0
H1157 H 0.26257 0.78887 0.64207 0.0
C1158 C 0.22131 0.78956 0.60598 0.0
C1159 C 0.25412 0.79651 0.61374 0.0
C1160 C 0.27327 0.80501 0.60915 0.0
C1161 C 0.21833 0.78178 0.62415 0.0
C1162 C 0.23333 0.78181 0.63742 0.0
C1163 C 0.25112 0.78873 0.63185 0.0
C1164 C 0.23061 0.77673 0.65777 0.0
C1165 C 0.19912 0.77369 0.62899 0.0
C1166 C 0.2183 0.78772 0.66943 0.0
C1167 C 0.21763 0.7852 0.68918 0.0
C1168 C 0.22938 0.7717 0.69778 0.0
C1169 C 0.24118 0.7601 0.68598 0.0
C1170 C 0.24188 0.7627 0.66616 0.0
H1171 H 0.19141 0.76853 0.61585 0.0
H1172 H 0.20002 0.7613 0.63882 0.0
H1173 H 0.19082 0.78548 0.63618 0.0
H1174 H 0.2098 0.79896 0.6634 0.0
H1175 H 0.20834 0.79437 0.69779 0.0
H1176 H 0.41681 0.97439 0.81277 0.0
H1177 H 0.42353 0.96603 0.84581 0.0
H1178 H 0.38144 0.0063 0.86653 0.0
H1179 H 0.37463 0.0148 0.83355 0.0
H1180 H 0.41789 0.01258 0.882 0.0
H1181 H 0.39462 0.93491 0.88707 0.0
H1182 H 0.40808 0.93957 0.86585 0.0
H1183 H 0.38565 0.95087 0.86925 0.0
C1184 C 0.4088 0.98126 0.82434 0.0
C1185 C 0.39523 0.99528 0.82058 0.0
C1186 C 0.4125 0.9763 0.84318 0.0
C1187 C 0.40272 0.98529 0.85854 0.0
C1188 C 0.38891 -0.001 0.85482 0.0
H1189 H 0.45684 0.99085 0.9715 0.0
H1190 H 0.42907 0.99074 0.9508 0.0
C1191 C 0.38509 0.00385 0.83598 0.0
C1192 C 0.40886 0.98236 0.87842 0.0
H1193 H 0.41833 0.94659 0.90968 0.0
C1194 C 0.41754 -0.0017 0.88839 0.0
C1195 C 0.40834 0.9637 0.88657 0.0
C1196 C 0.39851 0.9463 0.87671 0.0
C1197 C 0.42725 -0.00426 0.90552 0.0
C1198 C 0.42772 0.97678 0.91316 0.0
C1199 C 0.41781 0.96112 0.90388 0.0
C1200 C 0.44137 0.97237 0.92825 0.0
C1201 C 0.43841 0.01293 0.91423 0.0
C1202 C 0.45674 0.96076 0.92311 0.0
C1203 C 0.47245 0.96063 0.93491 0.0
C1204 C 0.47305 0.97214 0.95208 0.0
C1205 C 0.45681 0.98195 0.9583 0.0
C1206 C 0.441 0.98202 0.94642 0.0
H1207 H 0.43828 0.02597 0.90515 0.0
H1208 H 0.43241 0.01724 0.9284 0.0
H1209 H 0.45322 0.00878 0.91645 0.0
H1210 H 0.45726 0.95308 0.90921 0.0
H1211 H 0.48464 0.95266 0.9299 0.0
H1212 H 0.31024 0.17999 0.03345 0.0
H1213 H 0.30336 0.19376 0.06548 0.0
H1214 H 0.25324 0.15744 0.06786 0.0
H1215 H 0.25979 0.14384 0.03559 0.0
H1216 H 0.24655 0.1943 0.08045 0.0
H1217 H 0.31019 0.16892 0.1165 0.0
H1218 H 0.31579 0.18301 0.09599 0.0
H1219 H 0.30329 0.15988 0.09283 0.0
C1220 C 0.29775 0.17487 0.04074 0.0
C1221 C 0.28562 0.16071 0.03187 0.0
C1222 C 0.29393 0.18265 0.05919 0.0
C1223 C 0.27802 0.17631 0.06934 0.0
C1224 C 0.26571 0.16244 0.06042 0.0
H1225 H 0.25899 0.21148 0.19133 0.0
H1226 H 0.26487 0.19154 0.16181 0.0
C1227 C 0.26946 0.1547 0.04191 0.0
C1228 C 0.27385 0.18479 0.08891 0.0
H1229 H 0.29288 0.1941 0.13343 0.0
C1230 C 0.25662 0.19405 0.09207 0.0
C1231 C 0.28679 0.18418 0.10427 0.0
C1232 C 0.30496 0.17328 0.10232 0.0
C1233 C 0.25234 0.20344 0.10981 0.0
C1234 C 0.2658 0.20396 0.12474 0.0
C1235 C 0.28267 0.19394 0.12192 0.0
C1236 C 0.26299 0.21586 0.14287 0.0
C1237 C 0.23342 0.21278 0.11235 0.0
C1238 C 0.26055 0.23618 0.14211 0.0
C1239 C 0.25719 0.24753 0.15882 0.0
C1240 C 0.25636 0.23891 0.17685 0.0
C1241 C 0.2595 0.21861 0.17772 0.0
C1242 C 0.26282 0.20719 0.16086 0.0
H1243 H 0.22287 0.20595 0.10231 0.0
H1244 H 0.22816 0.21152 0.12726 0.0
H1245 H 0.2347 0.22861 0.10924 0.0
H1246 H 0.26113 0.24331 0.1285 0.0
H1247 H 0.25512 0.26313 0.15751 0.0
H1248 H 0.21295 0.08649 0.94197 0.0
H1249 H 0.17982 0.07809 0.94591 0.0
H1250 H 0.17898 0.11085 9e-05 0.0
H1251 H 0.21245 0.11899 -0.00354 0.0
H1252 H 0.16263 0.07546 0.00302 0.0
H1253 H 0.13336 0.10944 0.93938 0.0
H1254 H 0.15215 0.09342 0.93273 0.0
H1255 H 0.15685 0.11501 0.94788 0.0
C1256 C 0.20573 0.09211 0.95466 0.0
C1257 C 0.21541 0.10345 0.96889 0.0
C1258 C 0.18667 0.08743 0.9568 0.0
C1259 C 0.17671 0.09419 0.97309 0.0
C1260 C 0.18629 0.10563 0.9873 0.0
H1261 H 0.06314 0.05177 0.00617 0.0
H1262 H 0.08962 0.07523 0.00307 0.0
C1263 C 0.20544 0.11026 0.9852 0.0
C1264 C 0.15676 0.08793 0.97583 0.0
H1265 H 0.11459 0.08312 0.95264 0.0
C1266 C 0.152 0.07754 0.99222 0.0
C1267 C 0.14281 0.09072 0.96181 0.0
C1268 C 0.14651 0.10295 0.94457 0.0
C1269 C 0.13412 0.0688 -0.00567 0.0
C1270 C 0.12058 0.07058 0.97974 0.0
C1271 C 0.125 0.08175 0.9638 0.0
C1272 C 0.10282 0.05881 0.97968 0.0
C1273 C 0.13016 0.05671 0.01162 0.0
C1274 C 0.10109 0.04235 0.96705 0.0
C1275 C 0.08609 0.02906 0.9688 0.0
C1276 C 0.07233 0.03212 0.98302 0.0
C1277 C 0.07332 0.04932 -0.00518 0.0
C1278 C 0.08854 0.06257 0.9932 0.0
H1279 H 0.14277 0.05523 0.02074 0.0
H1280 H 0.11902 0.06377 0.02048 0.0
H1281 H 0.12496 0.04179 0.007 0.0
H1282 H 0.11196 0.03917 0.95654 0.0
H1283 H 0.08571 0.01584 0.95963 0.0
H1284 H 0.7086 0.41597 0.96397 0.0
H1285 H 0.67937 0.43433 0.96562 0.0
H1286 H 0.66869 0.41348 0.02225 0.0
H1287 H 0.6978 0.39505 0.02077 0.0
H1288 H 0.64098 0.41992 0.97332 0.0
H1289 H 0.66738 0.47505 0.02797 0.0
H1290 H 0.6828 0.45981 0.01346 0.0
H1291 H 0.67084 0.44988 0.03373 0.0
C1292 C 0.69997 0.41515 0.97673 0.0
C1293 C 0.70561 0.40412 0.99229 0.0
C1294 C 0.68329 0.42569 0.97764 0.0
C1295 C 0.67209 0.42554 0.99419 0.0
C1296 C 0.67734 0.41404 0.00948 0.0
H1297 H 0.57034 0.46418 0.04179 0.0
H1298 H 0.60259 0.45548 0.0343 0.0
C1299 C 0.69392 0.40341 0.00855 0.0
C1300 C 0.65486 0.43735 -0.00439 0.0
H1301 H 0.63444 0.4743 0.02221 0.0
C1302 C 0.63956 0.43201 0.98378 0.0
C1303 C 0.65318 0.45316 0.00921 0.0
C1304 C 0.66946 0.45999 0.02173 0.0
C1305 C 0.62221 0.44132 0.986 0.0
C1306 C 0.62031 0.4567 0.00013 0.0
C1307 C 0.63591 0.46258 0.01135 0.0
C1308 C 0.60175 0.46509 0.00511 0.0
C1309 C 0.60581 0.43381 0.97398 0.0
C1310 C 0.5908 0.47434 0.9915 0.0
C1311 C 0.5722 0.47931 -0.00424 0.0
C1312 C 0.56437 0.47519 0.01372 0.0
C1313 C 0.5759 0.4674 0.02776 0.0
C1314 C 0.59438 0.46243 0.02351 0.0
H1315 H 0.60874 0.4195 0.96647 0.0
H1316 H 0.59307 0.432 0.98299 0.0
H1317 H 0.60271 0.44459 0.96295 0.0
H1318 H 0.59635 0.47693 0.97733 0.0
H1319 H 0.56364 0.48511 0.98463 0.0
H1320 H 0.87669 0.44734 0.24987 0.0
H1321 H 0.86902 0.41217 0.24483 0.0
H1322 H 0.82202 0.41822 0.28351 0.0
H1323 H 0.82943 0.45304 0.28865 0.0
H1324 H 0.8498 0.38686 0.29105 0.0
H1325 H 0.82146 0.38554 0.21649 0.0
H1326 H 0.84316 0.39857 0.22207 0.0
H1327 H 0.82148 0.40782 0.23143 0.0
C1328 C 0.86456 0.44123 0.25708 0.0
C1329 C 0.85373 0.45303 0.26973 0.0
C1330 C 0.86025 0.42115 0.2542 0.0
C1331 C 0.84502 0.41266 0.26388 0.0
C1332 C 0.8339 0.42451 0.27601 0.0
H1333 H 0.77079 0.32544 0.28762 0.0
H1334 H 0.7955 0.3507 0.28753 0.0
C1335 C 0.83816 0.44445 0.27888 0.0
C1336 C 0.84066 0.39135 0.26216 0.0
H1337 H 0.81622 0.35744 0.23439 0.0
C1338 C 0.84288 0.38022 0.27849 0.0
C1339 C 0.83185 0.38272 0.2457 0.0
C1340 C 0.82925 0.39417 0.22785 0.0
C1341 C 0.83526 0.36114 0.27927 0.0
C1342 C 0.82494 0.35316 0.26345 0.0
C1343 C 0.82413 0.36362 0.24652 0.0
C1344 C 0.81207 0.33603 0.26541 0.0
C1345 C 0.83746 0.35006 0.29741 0.0
C1346 C 0.81329 0.31924 0.25315 0.0
C1347 C 0.79917 0.3046 0.25333 0.0
C1348 C 0.78353 0.30688 0.26547 0.0
C1349 C 0.78277 0.32331 0.27821 0.0
C1350 C 0.79693 0.3377 0.27823 0.0
H1351 H 0.85053 0.35471 0.30513 0.0
H1352 H 0.82544 0.35327 0.30711 0.0
H1353 H 0.83773 0.33395 0.29431 0.0
H1354 H 0.82476 0.31782 0.24299 0.0
H1355 H 0.79985 0.29225 0.24311 0.0
H1356 H 0.84065 0.61165 0.46168 0.0
H1357 H 0.87087 0.59539 0.46248 0.0
H1358 H 0.84646 0.55028 0.49699 0.0
H1359 H 0.81603 0.56625 0.49589 0.0
H1360 H 0.8935 0.58738 0.4914 0.0
H1361 H 0.87103 0.51747 0.45489 0.0
H1362 H 0.85669 0.53905 0.45537 0.0
H1363 H 0.85653 0.52306 0.47536 0.0
C1364 C 0.8417 0.59832 0.46954 0.0
C1365 C 0.82589 0.59022 0.47871 0.0
C1366 C 0.859 0.58898 0.46989 0.0
C1367 C 0.86086 0.57133 0.47936 0.0
C1368 C 0.84524 0.56355 0.48906 0.0
H1369 H 0.93655 0.50315 0.53199 0.0
H1370 H 0.9111 0.51813 0.51499 0.0
C1371 C 0.8279 0.57283 0.48863 0.0
C1372 C 0.87926 0.56141 0.47975 0.0
H1373 H 0.89947 0.51649 0.47377 0.0
C1374 C 0.89493 0.57199 0.48714 0.0
C1375 C 0.88126 0.54143 0.47381 0.0
C1376 C 0.86552 0.52967 0.46421 0.0
C1377 C 0.91203 0.56272 0.49024 0.0
C1378 C 0.91349 0.54236 0.48582 0.0
C1379 C 0.89827 0.53209 0.4772 0.0
C1380 C 0.92903 0.53096 0.49358 0.0
C1381 C 0.92806 0.57439 0.49947 0.0
C1382 C 0.94755 0.53262 0.48672 0.0
C1383 C 0.96225 0.52381 0.49642 0.0
C1384 C 0.95853 0.51356 0.51315 0.0
C1385 C 0.93986 0.51112 0.51923 0.0
C1386 C 0.92528 0.51961 0.50949 0.0
H1387 H 0.92439 0.58995 0.50272 0.0
H1388 H 0.93224 0.56763 0.51301 0.0
H1389 H 0.94039 0.57414 0.48972 0.0
H1390 H 0.95068 0.54124 0.47434 0.0
H1391 H 0.97647 0.52582 0.49138 0.0
H1392 H 0.13356 0.05725 0.24605 0.0
H1393 H 0.14529 0.08939 0.23629 0.0
H1394 H 0.19284 0.0849 0.27387 0.0
H1395 H 0.18105 0.05309 0.28403 0.0
H1396 H 0.17613 0.11987 0.27866 0.0
H1397 H 0.1882 0.10392 0.20093 0.0
H1398 H 0.16483 0.09863 0.20921 0.0
H1399 H 0.18411 0.08478 0.21771 0.0
C1400 C 0.14663 0.063 0.25211 0.0
C1401 C 0.15634 0.05252 0.26587 0.0
C1402 C 0.15337 0.08137 0.24641 0.0
C1403 C 0.17008 0.08953 0.25417 0.0
C1404 C 0.17992 0.07894 0.26766 0.0
H1405 H 0.25038 0.17639 0.22939 0.0
H1406 H 0.22815 0.14874 0.22656 0.0
C1407 C 0.17315 0.0607 0.27345 0.0
C1408 C 0.17701 0.10949 0.24916 0.0
H1409 H 0.19401 0.13656 0.2124 0.0
C1410 C 0.17989 0.12358 0.26414 0.0
C1411 C 0.18194 0.11432 0.2302 0.0
C1412 C 0.17979 0.0996 0.21357 0.0
C1413 C 0.1882 0.14202 0.2609 0.0
C1414 C 0.19329 0.14687 0.24196 0.0
C1415 C 0.18985 0.133 0.22684 0.0
C1416 C 0.20462 0.16495 0.23819 0.0
C1417 C 0.19247 0.15563 0.27803 0.0
C1418 C 0.19847 0.18374 0.24418 0.0
C1419 C 0.21129 0.19962 0.24585 0.0
C1420 C 0.23024 0.197 0.24105 0.0
C1421 C 0.23575 0.17888 0.2328 0.0
C1422 C 0.22305 0.163 0.23133 0.0
H1423 H 0.19112 0.14803 0.29179 0.0
H1424 H 0.20693 0.16191 0.2771 0.0
H1425 H 0.18247 0.16791 0.27841 0.0
H1426 H 0.18421 0.18573 0.24916 0.0
H1427 H 0.20684 0.21325 0.25282 0.0
H1428 H 0.30169 0.92689 0.48335 0.0
H1429 H 0.33355 0.93846 0.47673 0.0
H1430 H 0.35574 0.88706 0.50214 0.0
H1431 H 0.32392 0.87578 0.50952 0.0
H1432 H 0.37139 0.91909 0.51721 0.0
H1433 H 0.37368 0.92487 0.4386 0.0
H1434 H 0.35381 0.93753 0.44839 0.0
H1435 H 0.35532 0.9113 0.45049 0.0
C1436 C 0.31332 0.91785 0.48723 0.0
C1437 C 0.31024 0.9004 0.49696 0.0
C1438 C 0.33156 0.92439 0.48323 0.0
C1439 C 0.34706 0.91344 0.48859 0.0
C1440 C 0.34399 0.89565 0.4977 0.0
H1441 H 0.46183 0.96405 0.499 0.0
H1442 H 0.43776 0.9383 0.49295 0.0
C1443 C 0.32576 0.8892 0.50189 0.0
C1444 C 0.3663 0.9219 0.487 0.0
H1445 H 0.39537 0.94657 0.45684 0.0
C1446 C 0.37688 0.92461 0.5039 0.0
C1447 C 0.37351 0.92903 0.46962 0.0
C1448 C 0.36354 0.92533 0.45073 0.0
C1449 C 0.39374 0.93555 0.50417 0.0
C1450 C 0.40023 0.94387 0.48707 0.0
C1451 C 0.39028 0.94019 0.46993 0.0
C1452 C 0.41565 0.95866 0.48747 0.0
C1453 C 0.40385 0.93927 0.52301 0.0
C1454 C 0.41128 0.97847 0.48569 0.0
C1455 C 0.4249 0.99311 0.48919 0.0
C1456 C 0.44321 0.98819 0.49444 0.0
C1457 C 0.44787 0.96825 0.495 0.0
C1458 C 0.43415 0.95356 0.49161 0.0
H1459 H 0.39589 0.93339 0.53532 0.0
H1460 H 0.41772 0.93215 0.52234 0.0
H1461 H 0.40633 0.95529 0.52574 0.0
H1462 H 0.39706 0.98266 0.48251 0.0
H1463 H 0.4209 0.00832 0.48841 0.0
H1464 H 0.81362 0.54556 0.27532 0.0
H1465 H 0.79679 0.5734 0.26346 0.0
H1466 H 0.83933 0.58139 0.22024 0.0
H1467 H 0.8565 0.55362 0.23217 0.0
H1468 H 0.83385 0.61422 0.24429 0.0
H1469 H 0.7655 0.58531 0.2164 0.0
H1470 H 0.77121 0.57721 0.23984 0.0
H1471 H 0.78546 0.56981 0.2196 0.0
C1472 C 0.81923 0.55291 0.26299 0.0
C1473 C 0.83656 0.54747 0.25485 0.0
C1474 C 0.80946 0.56875 0.25613 0.0
C1475 C 0.81674 0.57939 0.2409 0.0
C1476 C 0.83344 0.57329 0.23197 0.0
H1477 H 0.79434 0.69495 0.2002 0.0
H1478 H 0.80439 0.66124 0.20346 0.0
C1479 C 0.84322 0.5574 0.2388 0.0
C1480 C 0.80845 0.5984 0.23624 0.0
H1481 H 0.76801 0.62009 0.22259 0.0
C1482 C 0.81953 0.61548 0.23931 0.0
C1483 C 0.78966 0.60001 0.23007 0.0
C1484 C 0.77729 0.5821 0.22611 0.0
C1485 C 0.81228 0.63415 0.2367 0.0
C1486 C 0.79353 0.63579 0.23045 0.0
C1487 C 0.78239 0.61874 0.22735 0.0
C1488 C 0.78552 0.65521 0.22694 0.0
C1489 C 0.82464 0.65201 0.24114 0.0
C1490 C 0.77095 0.66267 0.23851 0.0
C1491 C 0.76502 0.682 0.2366 0.0
C1492 C 0.77367 0.6941 0.22312 0.0
C1493 C 0.78759 0.68614 0.21093 0.0
C1494 C 0.79336 0.66687 0.21276 0.0
H1495 H 0.83677 0.64849 0.25028 0.0
H1496 H 0.83022 0.65772 0.22753 0.0
H1497 H 0.81656 0.66386 0.24855 0.0
H1498 H 0.76469 0.65383 0.24951 0.0
H1499 H 0.75427 0.68769 0.24619 0.0
H1500 H 0.63685 0.4395 0.73155 0.0
H1501 H 0.64672 0.40518 0.72942 0.0
H1502 H 0.6955 0.42059 0.76362 0.0
H1503 H 0.68574 0.45475 0.76596 0.0
H1504 H 0.68001 0.38558 0.71752 0.0
H1505 H 0.66736 0.37958 0.79548 0.0
H1506 H 0.65892 0.39977 0.7821 0.0
H1507 H 0.68295 0.39959 0.78991 0.0
C1508 C 0.64996 0.4357 0.73815 0.0
C1509 C 0.66039 0.44985 0.74911 0.0
C1510 C 0.65548 0.41603 0.73707 0.0
C1511 C 0.6715 0.41024 0.74692 0.0
C1512 C 0.68279 0.42464 0.7564 0.0
H1513 H 0.74258 0.31657 0.76247 0.0
H1514 H 0.72217 0.34478 0.76702 0.0
C1515 C 0.67728 0.44422 0.75755 0.0
C1516 C 0.67617 0.38916 0.74802 0.0
H1517 H 0.68496 0.35378 0.78011 0.0
C1518 C 0.68078 0.37848 0.73113 0.0
C1519 C 0.67698 0.37988 0.76583 0.0
C1520 C 0.6711 0.39022 0.78435 0.0
C1521 C 0.68736 0.35917 0.73169 0.0
C1522 C 0.68904 0.35022 0.74961 0.0
C1523 C 0.6836 0.36061 0.7664 0.0
C1524 C 0.69882 0.33132 0.7513 0.0
C1525 C 0.69352 0.34893 0.7132 0.0
C1526 C 0.69193 0.31384 0.74226 0.0
C1527 C 0.70356 0.29753 0.73991 0.0
C1528 C 0.72211 0.29861 0.74666 0.0
C1529 C 0.7282 0.3153 0.75749 0.0
C1530 C 0.7166 0.33149 0.75991 0.0
H1531 H 0.69395 0.35899 0.70103 0.0
H1532 H 0.70766 0.34265 0.71486 0.0
H1533 H 0.68356 0.33665 0.70949 0.0
H1534 H 0.67814 0.31331 0.73576 0.0
H1535 H 0.69873 0.28495 0.73115 0.0
H1536 H 0.00414 0.80935 0.88299 0.0
H1537 H 0.00864 0.84155 0.89937 0.0
H1538 H 0.95152 0.83934 0.91977 0.0
H1539 H 0.94693 0.80707 0.90375 0.0
H1540 H 0.98918 0.87735 0.89568 0.0
H1541 H 0.98194 0.84877 0.9691 0.0
H1542 H 0.98532 0.83276 0.94819 0.0
H1543 H 0.96277 0.84323 0.95298 0.0
C1544 C -0.00747 0.81564 0.89101 0.0
C1545 C 0.97522 0.80543 0.89217 0.0
C1546 C -0.0049 0.83413 0.90028 0.0
C1547 C 0.98047 0.8428 0.91094 0.0
C1548 C 0.9631 0.83283 0.91188 0.0
H1549 H 0.00244 0.96228 0.96605 0.0
H1550 H 0.98416 0.93646 0.94798 0.0
C1551 C 0.96052 0.81434 0.90267 0.0
C1552 C 0.9837 0.86195 0.92155 0.0
H1553 H 0.98878 0.88239 0.96681 0.0
C1554 C 0.98881 0.87857 0.91122 0.0
C1555 C 0.9831 0.86354 0.94184 0.0
C1556 C 0.97813 0.84614 0.95376 0.0
C1557 C -0.00584 0.89644 0.92069 0.0
C1558 C -0.00557 0.89768 0.94096 0.0
C1559 C 0.98836 0.88142 0.95125 0.0
C1560 C 0.00464 0.91385 0.95162 0.0
C1561 C 0.00062 0.91353 0.90908 0.0
C1562 C 0.02203 0.90966 0.95956 0.0
C1563 C 0.03237 0.92418 0.96959 0.0
C1564 C 0.02559 0.94339 0.97213 0.0
C1565 C 0.00802 0.94767 0.96435 0.0
C1566 C -0.00238 0.93297 0.95402 0.0
H1567 H -0.00032 0.91018 0.89338 0.0
H1568 H 0.99193 0.92651 0.91269 0.0
H1569 H 0.01539 0.91756 0.91274 0.0
H1570 H 0.02774 0.89505 0.95787 0.0
H1571 H 0.04579 0.92022 0.9754 0.0
H1572 H 0.95538 0.2204 0.70369 0.0
H1573 H 0.92665 0.21183 0.72122 0.0
H1574 H 0.89412 0.24456 0.68185 0.0
H1575 H 0.92252 0.25303 0.66431 0.0
H1576 H 0.90241 0.23692 0.73976 0.0
H1577 H 0.86413 0.1934 0.68357 0.0
H1578 H 0.88902 0.19867 0.68201 0.0
H1579 H 0.87229 0.21635 0.67458 0.0
C1580 C 0.94206 0.22555 0.69864 0.0
C1581 C 0.94123 0.23728 0.68249 0.0
C1582 C 0.92568 0.22063 0.70867 0.0
C1583 C 0.90819 0.22722 0.70262 0.0
C1584 C 0.90737 0.23883 0.68647 0.0
H1585 H 0.81152 0.27082 0.74783 0.0
H1586 H 0.84384 0.26078 0.74339 0.0
C1587 C 0.92368 0.24376 0.67648 0.0
C1588 C 0.89085 0.22339 0.71382 0.0
H1589 H 0.84483 0.21014 0.70771 0.0
C1590 C 0.8899 0.23062 0.73293 0.0
C1591 C 0.87466 0.21466 0.70515 0.0
C1592 C 0.87513 0.20513 0.68526 0.0
C1593 C 0.87277 0.23105 0.74292 0.0
C1594 C 0.85615 0.22445 0.73341 0.0
C1595 C 0.85747 0.21547 0.71499 0.0
C1596 C 0.8372 0.22961 0.74072 0.0
C1597 C 0.87255 0.23926 0.76332 0.0
C1598 C 0.82258 0.21545 0.74107 0.0
C1599 C 0.80393 0.22125 0.74352 0.0
C1600 C 0.79967 0.24129 0.74545 0.0
C1601 C 0.81442 0.25526 0.74647 0.0
C1602 C 0.83297 0.2495 0.74409 0.0
H1603 H 0.88577 0.23587 0.7708 0.0
H1604 H 0.87153 0.2555 0.76324 0.0
H1605 H 0.8605 0.23331 0.77154 0.0
H1606 H 0.82547 0.20004 0.73829 0.0
H1607 H 0.79282 0.21024 0.74222 0.0
H1608 H 0.46326 0.20374 0.41657 0.0
H1609 H 0.47135 0.17586 0.43555 0.0
H1610 H 0.52761 0.17725 0.41271 0.0
H1611 H 0.51958 0.20511 0.39333 0.0
H1612 H 0.51196 0.13998 0.41098 0.0
H1613 H 0.50269 0.17332 0.48376 0.0
H1614 H 0.48244 0.17679 0.46916 0.0
H1615 H 0.50461 0.18789 0.46274 0.0
C1616 C 0.47746 0.19836 0.41573 0.0
C1617 C 0.49076 0.20678 0.4034 0.0
C1618 C 0.48209 0.18243 0.42671 0.0
C1619 C 0.50017 0.1746 0.42578 0.0
C1620 C 0.51361 0.18312 0.41374 0.0
H1621 H 0.5112 0.0827 0.5088 0.0
H1622 H 0.52241 0.10963 0.48904 0.0
C1623 C 0.50899 0.19911 0.40273 0.0
C1624 C 0.50447 0.15683 0.43658 0.0
H1625 H 0.49997 0.13792 0.48095 0.0
C1626 C 0.5097 0.1396 0.42635 0.0
C1627 C 0.50201 0.15637 0.45669 0.0
C1628 C 0.49783 0.17466 0.46875 0.0
C1629 C 0.51116 0.12163 0.43549 0.0
C1630 C 0.50691 0.12083 0.45529 0.0
C1631 C 0.50305 0.13838 0.46573 0.0
C1632 C 0.50407 0.10194 0.46506 0.0
C1633 C 0.51686 0.10364 0.42373 0.0
C1634 C 0.49061 0.0882 0.45792 0.0
C1635 C 0.48453 0.07271 0.46907 0.0
C1636 C 0.49184 0.07057 0.48749 0.0
C1637 C 0.50601 0.08359 0.49428 0.0
C1638 C 0.51219 0.0991 0.4831 0.0
H1639 H 0.52649 0.10768 0.41191 0.0
H1640 H 0.52386 0.0928 0.43266 0.0
H1641 H 0.50419 0.09653 0.4171 0.0
H1642 H 0.48366 0.09031 0.44439 0.0
H1643 H 0.47311 0.06322 0.46385 0.0
H1644 H 0.54886 0.73221 0.15995 0.0
H1645 H 0.5823 0.72558 0.16245 0.0
H1646 H 0.59492 0.77136 0.12312 0.0
H1647 H 0.56147 0.77844 0.12088 0.0
H1648 H 0.60977 0.71504 0.13526 0.0
H1649 H 0.62535 0.78846 0.17041 0.0
H1650 H 0.60168 0.77912 0.16714 0.0
H1651 H 0.61456 0.78846 0.14717 0.0
C1652 C 0.55872 0.74086 0.15179 0.0
C1653 C 0.55253 0.75605 0.14044 0.0
C1654 C 0.57783 0.73698 0.15315 0.0
C1655 C 0.5911 0.74814 0.14315 0.0
C1656 C 0.58493 0.76282 0.13122 0.0
H1657 H 0.70752 0.75131 0.18055 0.0
H1658 H 0.68309 0.7528 0.15611 0.0
C1659 C 0.56581 0.76682 0.12996 0.0
C1660 C 0.61135 0.74503 0.14632 0.0
H1661 H 0.64969 0.7661 0.16854 0.0
C1662 C 0.61863 0.7263 0.14225 0.0
C1663 C 0.62295 0.75979 0.15525 0.0
C1664 C 0.61579 0.78006 0.1604 0.0
C1665 C 0.63688 0.72163 0.14783 0.0
C1666 C 0.64798 0.73599 0.15792 0.0
C1667 C 0.64118 0.75511 0.16073 0.0
C1668 C 0.66499 0.73093 0.16871 0.0
C1669 C 0.64386 0.70119 0.14343 0.0
C1670 C 0.66327 0.71756 0.18346 0.0
C1671 C 0.6771 0.71684 0.1975 0.0
C1672 C 0.6929 0.72947 0.19704 0.0
C1673 C 0.69558 0.74132 0.18118 0.0
C1674 C 0.6816 0.74221 0.16721 0.0
H1675 H 0.63751 0.69484 0.12997 0.0
H1676 H 0.65938 0.70108 0.14201 0.0
H1677 H 0.63967 0.69155 0.15524 0.0
H1678 H 0.65045 0.709 0.18518 0.0
H1679 H 0.67469 0.70754 0.20956 0.0
H1680 H 0.00506 0.19845 0.62114 0.0
H1681 H 0.01271 0.16686 0.60556 0.0
H1682 H 0.95397 0.15522 0.59433 0.0
H1683 H 0.9462 0.18707 0.60938 0.0
H1684 H 0.00293 0.1291 0.61266 0.0
H1685 H 0.97649 0.14883 0.5414 0.0
H1686 H 0.97942 0.1667 0.56098 0.0
H1687 H 0.95896 0.15076 0.55985 0.0
C1688 C -0.00626 0.18919 0.61535 0.0
C1689 C 0.97502 0.1954 0.61629 0.0
C1690 C -0.00185 0.1711 0.60651 0.0
C1691 C 0.98396 0.15884 0.59849 0.0
C1692 C 0.9652 0.16467 0.6 0.0
H1693 H 0.99165 0.03675 0.55897 0.0
H1694 H 0.98977 0.06666 0.57939 0.0
C1695 C 0.96078 0.18286 0.60865 0.0
C1696 C 0.98885 0.1402 0.58814 0.0
H1697 H 0.98435 0.11552 0.5449 0.0
C1698 C -0.00102 0.12612 0.5978 0.0
C1699 C 0.98398 0.13652 0.56867 0.0
C1700 C 0.97429 0.15158 0.55705 0.0
C1701 C 0.00412 0.1083 0.58857 0.0
C1702 C -0.00142 0.10431 0.56932 0.0
C1703 C 0.9886 0.11852 0.55967 0.0
C1704 C 0.00272 0.08559 0.55865 0.0
C1705 C 0.01572 0.09415 0.59942 0.0
C1706 C 0.01083 0.08613 0.54029 0.0
C1707 C 0.01138 0.06918 0.52845 0.0
C1708 C 0.00417 0.05127 0.53485 0.0
C1709 C -0.00256 0.05033 0.55375 0.0
C1710 C -0.00354 0.06744 0.56548 0.0
H1711 H 0.02377 0.10184 0.61119 0.0
H1712 H 0.00625 0.08316 0.60598 0.0
H1713 H 0.0257 0.08624 0.58978 0.0
H1714 H 0.01583 0.09992 0.53473 0.0
H1715 H 0.01669 0.07026 0.51394 0.0
H1716 H 0.558 0.26923 0.34216 0.0
H1717 H 0.59091 0.26934 0.33198 0.0
H1718 H 0.59268 0.20666 0.33803 0.0
H1719 H 0.55981 0.20636 0.34829 0.0
H1720 H 0.62567 0.22898 0.35239 0.0
H1721 H 0.60567 0.24552 0.27792 0.0
H1722 H 0.59626 0.26199 0.2961 0.0
H1723 H 0.58898 0.23656 0.2952 0.0
C1724 C 0.56543 0.2555 0.34154 0.0
C1725 C 0.55621 0.23777 0.34584 0.0
C1726 C 0.58421 0.25558 0.33566 0.0
C1727 C 0.5941 0.23796 0.33401 0.0
C1728 C 0.58524 0.22038 0.33914 0.0
H1729 H 0.69501 0.23889 0.26353 0.0
H1730 H 0.66761 0.22467 0.2797 0.0
C1731 C 0.56644 0.22026 0.34495 0.0
C1732 C 0.61336 0.2378 0.32598 0.0
H1733 H 0.63808 0.24817 0.28558 0.0
C1734 C 0.62843 0.23299 0.33774 0.0
C1735 C 0.61684 0.24256 0.30673 0.0
C1736 C 0.60109 0.24678 0.29315 0.0
C1737 C 0.64704 0.23382 0.33098 0.0
C1738 C 0.65058 0.23976 0.31207 0.0
C1739 C 0.6354 0.24362 0.30009 0.0
C1740 C 0.66977 0.2442 0.3049 0.0
C1741 C 0.66272 0.22852 0.34418 0.0
C1742 C 0.68055 0.25928 0.31404 0.0
C1743 C 0.69624 0.2672 0.30488 0.0
C1744 C 0.7015 0.26009 0.28655 0.0
C1745 C 0.6916 0.24409 0.27798 0.0
C1746 C 0.67583 0.23615 0.28712 0.0
H1747 H 0.65773 0.21809 0.35503 0.0
H1748 H 0.67458 0.22187 0.33606 0.0
H1749 H 0.66798 0.24203 0.35199 0.0
H1750 H 0.67593 0.26611 0.32748 0.0
H1751 H 0.70341 0.27992 0.31148 0.0
H1752 H 0.51417 0.78249 0.09279 0.0
H1753 H 0.5232 0.80988 0.0728 0.0
H1754 H 0.46483 0.82241 0.06406 0.0
H1755 H 0.45568 0.79476 0.08345 0.0
H1756 H 0.486 0.82985 0.03217 0.0
H1757 H 0.51907 0.86416 0.09784 0.0
H1758 H 0.5287 0.84112 0.08975 0.0
H1759 H 0.50493 0.84198 0.09843 0.0
C1760 C 0.50325 0.79083 0.0863 0.0
C1761 C 0.4842 0.78667 0.09005 0.0
C1762 C 0.50844 0.80653 0.07493 0.0
C1763 C 0.4947 0.81854 0.06741 0.0
C1764 C 0.47569 0.81343 0.06983 0.0
H1765 H 0.48716 0.93973 0.05601 0.0
H1766 H 0.48698 0.90511 0.06307 0.0
C1767 C 0.47048 0.79759 0.08097 0.0
C1768 C 0.49982 0.83758 0.0589 0.0
H1769 H 0.51831 0.88309 0.07066 0.0
C1770 C 0.49331 0.84144 0.04044 0.0
C1771 C 0.50921 0.85274 0.06982 0.0
C1772 C 0.51577 0.84994 0.09011 0.0
C1773 C 0.49528 0.86025 0.03293 0.0
C1774 C 0.50424 0.87545 0.04408 0.0
C1775 C 0.51152 0.87134 0.06213 0.0
C1776 C 0.50407 0.89629 0.03866 0.0
C1777 C 0.48686 0.86401 0.01363 0.0
C1778 C 0.51368 0.90289 0.02244 0.0
C1779 C 0.51376 0.92289 0.01824 0.0
C1780 C 0.50436 0.93656 0.03033 0.0
C1781 C 0.49467 0.92973 0.04643 0.0
C1782 C 0.49453 0.90988 0.05051 0.0
H1783 H 0.47804 0.85142 0.00808 0.0
H1784 H 0.47815 0.87736 0.01453 0.0
H1785 H 0.4983 0.86661 0.00315 0.0
H1786 H 0.52136 0.89268 0.01324 0.0
H1787 H 0.52144 0.92768 0.00578 0.0
H1788 H 0.95998 0.78111 0.7988 0.0
H1789 H 0.93256 0.7863 0.77862 0.0
H1790 H 0.89724 0.75708 0.81938 0.0
H1791 H 0.92444 0.75182 0.83955 0.0
H1792 H 0.91008 0.75626 0.76211 0.0
H1793 H 0.86736 0.80612 0.80808 0.0
H1794 H 0.89213 0.8028 0.81207 0.0
H1795 H 0.87514 0.78532 0.82071 0.0
C1796 C 0.94632 0.77611 0.80364 0.0
C1797 C 0.94441 0.76609 0.82084 0.0
C1798 C 0.93068 0.77908 0.79207 0.0
C1799 C 0.91282 0.77232 0.79761 0.0
C1800 C 0.91081 0.76281 0.81502 0.0
H1801 H 0.81764 0.72181 0.74933 0.0
H1802 H 0.84964 0.73178 0.75756 0.0
C1803 C 0.92643 0.75973 0.82652 0.0
C1804 C 0.89651 0.77345 0.78455 0.0
H1805 H 0.85052 0.78644 0.7839 0.0
C1806 C 0.89717 0.76324 0.76667 0.0
C1807 C 0.87978 0.78285 0.7903 0.0
C1808 C 0.87858 0.79507 0.80876 0.0
C1809 C 0.8811 0.76085 0.75514 0.0
C1810 C 0.86392 0.7687 0.76175 0.0
C1811 C 0.86365 0.78027 0.77887 0.0
C1812 C 0.8457 0.76265 0.75289 0.0
C1813 C 0.88249 0.74932 0.7363 0.0
C1814 C 0.83287 0.77663 0.74703 0.0
C1815 C 0.81443 0.77089 0.74214 0.0
C1816 C 0.80846 0.75119 0.74357 0.0
C1817 C 0.82173 0.73712 0.74819 0.0
C1818 C 0.84012 0.74279 0.75281 0.0
H1819 H 0.89686 0.75047 0.73018 0.0
H1820 H 0.87943 0.73357 0.73871 0.0
H1821 H 0.87229 0.75447 0.72568 0.0
H1822 H 0.83688 0.79206 0.74706 0.0
H1823 H 0.80462 0.78205 0.73851 0.0
H1824 H 0.90252 0.00444 0.81812 0.0
H1825 H 0.92377 0.00103 0.84511 0.0
H1826 H 0.96349 0.97164 0.80775 0.0
H1827 H 0.94217 0.97484 0.78052 0.0
H1828 H 0.94219 0.96506 0.85965 0.0
H1829 H 0.99103 0.02258 0.83237 0.0
H1830 H 0.96698 0.02031 0.82436 0.0
H1831 H 0.98374 0.00247 0.81636 0.0
C1832 C 0.9156 -0.00305 0.81563 0.0
C1833 C 0.92064 0.98995 0.79713 0.0
C1834 C 0.92775 0.99502 0.83109 0.0
C1835 C 0.94523 0.98623 0.82837 0.0
C1836 C 0.95009 0.97858 0.81009 0.0
H1837 H 0.01116 0.97849 0.93527 0.0
H1838 H 0.00216 0.96961 0.90204 0.0
C1839 C 0.93786 0.98037 0.79459 0.0
C1840 C 0.95863 0.98631 0.84456 0.0
H1841 H -0.00384 0.01217 0.86354 0.0
C1842 C 0.95427 0.97499 0.8604 0.0
C1843 C 0.97431 -0.00064 0.84541 0.0
C1844 C 0.97939 0.01199 0.8288 0.0
C1845 C 0.96464 0.97712 0.87749 0.0
C1846 C 0.97974 0.99093 0.87869 0.0
C1847 C 0.98468 0.00149 0.86249 0.0
C1848 C 0.98826 -0.003 0.89741 0.0
C1849 C 0.95859 0.96557 0.89456 0.0
C1850 C 0.98424 0.01564 0.90542 0.0
C1851 C 0.98925 0.02069 0.9243 0.0
C1852 C -0.00148 0.00723 0.93557 0.0
C1853 C 0.00394 0.98913 0.92702 0.0
C1854 C -0.00128 0.984 0.90807 0.0
H1855 H 0.94538 0.957 0.89182 0.0
H1856 H 0.96974 0.95516 0.8981 0.0
H1857 H 0.95651 0.9756 0.9073 0.0
H1858 H 0.97626 0.02593 0.8974 0.0
H1859 H 0.98503 0.03481 0.93038 0.0
H1860 H 0.74197 0.13757 0.54093 0.0
H1861 H 0.73417 0.15432 0.57138 0.0
H1862 H 0.79296 0.1587 0.58588 0.0
H1863 H 0.80097 0.14257 0.55504 0.0
H1864 H 0.73936 0.14555 0.60778 0.0
H1865 H 0.77797 0.21486 0.59334 0.0
H1866 H 0.77413 0.19576 0.57507 0.0
H1867 H 0.79279 0.19387 0.59223 0.0
C1868 C 0.75328 0.14214 0.55056 0.0
C1869 C 0.77213 0.13893 0.54546 0.0
C1870 C 0.74878 0.15167 0.568 0.0
C1871 C 0.76298 0.15809 0.58078 0.0
C1872 C 0.78179 0.15437 0.57601 0.0
H1873 H 0.74659 0.19639 0.70027 0.0
H1874 H 0.75028 0.17636 0.67065 0.0
C1875 C 0.78634 0.14507 0.55842 0.0
C1876 C 0.75803 0.16881 0.59898 0.0
H1877 H 0.76622 0.21159 0.62491 0.0
C1878 C 0.74516 0.16004 0.61151 0.0
C1879 C 0.76535 0.18784 0.60369 0.0
C1880 C 0.77817 0.19873 0.59029 0.0
C1881 C 0.73954 0.16972 0.62868 0.0
C1882 C 0.74741 0.18845 0.6337 0.0
C1883 C 0.76022 0.19721 0.62112 0.0
C1884 C 0.74266 0.19947 0.65182 0.0
C1885 C 0.7249 0.15998 0.64098 0.0
C1886 C 0.73707 0.2191 0.65118 0.0
C1887 C 0.73537 0.23064 0.66805 0.0
C1888 C 0.73894 0.2227 0.68592 0.0
C1889 C 0.74343 0.20275 0.68669 0.0
C1890 C 0.74551 0.19128 0.66975 0.0
H1891 H 0.71616 0.14917 0.63242 0.0
H1892 H 0.732 0.15191 0.65233 0.0
H1893 H 0.71553 0.17095 0.64798 0.0
H1894 H 0.73474 0.22574 0.63754 0.0
H1895 H 0.73189 0.24599 0.66707 0.0
H1896 H 0.58709 0.99547 0.31924 0.0
H1897 H 0.56889 0.00462 0.34766 0.0
H1898 H 0.5317 0.03786 0.31331 0.0
H1899 H 0.55016 0.02899 0.28452 0.0
H1900 H 0.55784 0.04713 0.36142 0.0
H1901 H 0.49982 0.99342 0.34356 0.0
H1902 H 0.52303 0.98969 0.33383 0.0
H1903 H 0.50919 0.00938 0.32567 0.0
C1904 C 0.57525 0.00497 0.31765 0.0
C1905 C 0.57017 0.01159 0.29959 0.0
C1906 C 0.56484 0.01016 0.33394 0.0
C1907 C 0.54902 0.02191 0.33253 0.0
C1908 C 0.54391 0.02878 0.31462 0.0
H1909 H 0.50356 0.04171 0.44997 0.0
H1910 H 0.50639 0.04941 0.4159 0.0
C1911 C 0.55445 0.02369 0.29824 0.0
C1912 C 0.53769 0.02593 0.34995 0.0
H1913 H 0.50227 0.00516 0.37566 0.0
C1914 C 0.5453 0.03851 0.36444 0.0
C1915 C 0.52137 0.01461 0.35368 0.0
C1916 C 0.51274 0.00097 0.33844 0.0
C1917 C 0.53789 0.03883 0.38312 0.0
C1918 C 0.52256 0.02618 0.38728 0.0
C1919 C 0.51399 0.01487 0.37236 0.0
C1920 C 0.51808 0.02131 0.40728 0.0
C1921 C 0.54753 0.05134 0.39865 0.0
C1922 C 0.52314 0.00283 0.41351 0.0
C1923 C 0.5216 -0.00152 0.43279 0.0
C1924 C 0.5148 0.01248 0.44626 0.0
C1925 C 0.50876 0.03065 0.43988 0.0
C1926 C 0.51046 0.03509 0.42048 0.0
H1927 H 0.55996 0.05949 0.39318 0.0
H1928 H 0.53753 0.06216 0.40484 0.0
H1929 H 0.55212 0.042 0.4104 0.0
H1930 H 0.52907 0.99201 0.40354 0.0
H1931 H 0.5262 0.98428 0.43721 0.0
H1932 H 0.72667 0.85227 0.04272 0.0
H1933 H 0.71358 0.83846 0.07186 0.0
H1934 H 0.75419 0.79239 0.06845 0.0
H1935 H 0.76745 0.80602 0.03938 0.0
H1936 H 0.71392 0.78175 0.0812 0.0
H1937 H 0.7488 0.84504 0.121 0.0
H1938 H 0.73369 0.84971 0.1011 0.0
H1939 H 0.75568 0.83794 0.09683 0.0
C1940 C 0.73256 0.83892 0.04786 0.0
C1941 C 0.74832 0.83041 0.0388 0.0
C1942 C 0.72505 0.83109 0.06456 0.0
C1943 C 0.73306 0.81456 0.07238 0.0
C1944 C 0.74783 0.80518 0.06262 0.0
H1945 H 0.75693 0.74558 0.16016 0.0
H1946 H 0.74217 0.75752 0.13171 0.0
C1947 C 0.75542 0.81304 0.04601 0.0
C1948 C 0.72782 0.80831 0.09183 0.0
H1949 H 0.73807 0.81889 0.13886 0.0
C1950 C 0.7188 0.79003 0.09389 0.0
C1951 C 0.73389 0.8193 0.10836 0.0
C1952 C 0.74361 0.83908 0.1069 0.0
C1953 C 0.71677 0.78188 0.11201 0.0
C1954 C 0.72452 0.79201 0.12837 0.0
C1955 C 0.73211 0.81103 0.12642 0.0
C1956 C 0.72852 0.78196 0.14647 0.0
C1957 C 0.70692 0.76218 0.11325 0.0
C1958 C 0.72549 0.79131 0.16459 0.0
C1959 C 0.73418 0.78445 0.18103 0.0
C1960 C 0.74599 0.76824 0.17944 0.0
C1961 C 0.74767 0.75798 0.16172 0.0
C1962 C 0.73907 0.76476 0.14542 0.0
H1963 H 0.69481 0.7611 0.10324 0.0
H1964 H 0.71676 0.75039 0.10883 0.0
H1965 H 0.70181 0.75956 0.12798 0.0
H1966 H 0.71754 0.8047 0.16577 0.0
H1967 H 0.73294 0.79273 0.19454 0.0
H1968 H 0.88731 0.04278 0.68568 0.0
H1969 H 0.89689 0.04131 0.65198 0.0
H1970 H 0.90353 0.97865 0.6545 0.0
H1971 H 0.89371 0.97993 0.68807 0.0
H1972 H 0.93101 0.03066 0.64064 0.0
H1973 H 0.87946 0.98233 0.60249 0.0
H1974 H 0.87474 0.99349 0.6259 0.0
H1975 H 0.88743 0.97086 0.6236 0.0
C1976 C 0.89041 0.0286 0.67895 0.0
C1977 C 0.88989 0.01147 0.68962 0.0
C1978 C 0.89584 0.02781 0.65966 0.0
C1979 C 0.90072 0.00986 0.65061 0.0
C1980 C 0.89938 0.99261 0.66099 0.0
H1981 H 0.97492 0.9547 0.58215 0.0
H1982 H 0.94865 0.96752 0.60073 0.0
C1983 C 0.89392 0.99338 0.68027 0.0
C1984 C 0.90981 0.00938 0.63141 0.0
H1985 H 0.91152 0.98195 0.58946 0.0
C1986 C 0.92644 0.02048 0.62916 0.0
C1987 C 0.90372 -0.00367 0.61632 0.0
C1988 C 0.88523 0.98527 0.61713 0.0
C1989 C 0.93813 0.01732 0.61315 0.0
C1990 C 0.93297 0.00274 0.59906 0.0
C1991 C 0.9155 0.99301 0.6004 0.0
C1992 C 0.94709 0.99453 0.58556 0.0
C1993 C 0.95671 0.02829 0.61227 0.0
C1994 C 0.95469 0.00533 0.57055 0.0
C1995 C 0.96982 -0.00207 0.55974 0.0
C1996 C 0.97758 0.97981 0.56403 0.0
C1997 C 0.96939 0.96882 0.5786 0.0
C1998 C 0.95427 0.97605 0.58916 0.0
H1999 H 0.95893 0.03858 0.62486 0.0
H2000 H 0.96839 0.01774 0.61159 0.0
H2001 H 0.95734 0.03687 0.59907 0.0
H2002 H 0.94929 0.01964 0.56756 0.0
H2003 H 0.97579 0.00667 0.54861 0.0
H2004 H 0.74065 0.15853 0.45909 0.0
H2005 H 0.73512 0.18206 0.43414 0.0
H2006 H 0.79447 0.18453 0.42191 0.0
H2007 H 0.80018 0.16176 0.44726 0.0
H2008 H 0.77955 0.22006 0.41922 0.0
H2009 H 0.73522 0.1646 0.37869 0.0
H2010 H 0.72662 0.17143 0.40215 0.0
H2011 H 0.74836 0.15858 0.39961 0.0
C2012 C 0.75254 0.16428 0.45123 0.0
C2013 C 0.77084 0.15807 0.45501 0.0
C2014 C 0.74934 0.17764 0.43689 0.0
C2015 C 0.76432 0.18467 0.42578 0.0
C2016 C 0.78267 0.17925 0.43021 0.0
H2017 H 0.79312 0.2231 0.31818 0.0
H2018 H 0.79096 0.21664 0.35231 0.0
C2019 C 0.78591 0.16617 0.44472 0.0
C2020 C 0.76105 0.19663 0.40876 0.0
H2021 H 0.74122 0.19446 0.36415 0.0
C2022 C 0.77096 0.21457 0.40729 0.0
C2023 C 0.74982 0.1895 0.39314 0.0
C2024 C 0.73952 0.16991 0.39332 0.0
C2025 C 0.77058 0.22509 0.39037 0.0
C2026 C 0.75998 0.21753 0.37458 0.0
C2027 C 0.74921 0.20026 0.3764 0.0
C2028 C 0.76205 0.22544 0.35521 0.0
C2029 C 0.782 0.24388 0.38922 0.0
C2030 C 0.7466 0.23294 0.34562 0.0
C2031 C 0.74789 0.23691 0.32608 0.0
C2032 C 0.7645 0.23292 0.31584 0.0
C2033 C 0.78017 0.22631 0.32573 0.0
C2034 C 0.77898 0.22271 0.34525 0.0
H2035 H 0.78522 0.25043 0.40371 0.0
H2036 H 0.79549 0.24068 0.38186 0.0
H2037 H 0.77451 0.2548 0.38081 0.0
H2038 H 0.73336 0.23491 0.35303 0.0
H2039 H 0.73554 0.2418 0.31875 0.0
H2040 H 0.61533 0.96681 0.17821 0.0
H2041 H 0.61172 0.9754 0.14473 0.0
H2042 H 0.60157 0.03556 0.16279 0.0
H2043 H 0.60485 0.02707 0.19628 0.0
H2044 H 0.5733 0.0186 0.1414 0.0
H2045 H 0.64123 0.00574 0.10469 0.0
H2046 H 0.63332 0.98552 0.11858 0.0
H2047 H 0.63919 0.00873 0.13048 0.0
C2048 C 0.61269 0.98195 0.17504 0.0
C2049 C 0.61011 -0.0038 0.18991 0.0
C2050 C 0.61084 0.98688 0.15587 0.0
C2051 C 0.60661 0.00618 0.15126 0.0
C2052 C 0.60498 0.02062 0.16604 0.0
H2053 H 0.54823 0.04273 0.05007 0.0
H2054 H 0.57124 0.04607 0.07612 0.0
C2055 C 0.60674 0.0157 0.18518 0.0
C2056 C 0.60082 0.01053 0.13153 0.0
H2057 H 0.61402 0.00713 0.0844 0.0
C2058 C 0.58232 0.01651 0.12896 0.0
C2059 C 0.61258 0.00754 0.11535 0.0
C2060 C 0.63275 0.00169 0.11738 0.0
C2061 C 0.57491 0.01868 0.11064 0.0
C2062 C 0.58653 0.01537 0.09436 0.0
C2063 C 0.60524 0.0099 0.0969 0.0
C2064 C 0.57857 0.01536 0.07477 0.0
C2065 C 0.55434 0.02334 0.10892 0.0
C2066 C 0.57656 -0.00254 0.06424 0.0
C2067 C 0.56381 -0.00432 0.04907 0.0
C2068 C 0.55297 0.01177 0.04434 0.0
C2069 C 0.5566 0.0302 0.05341 0.0
C2070 C 0.56961 0.03206 0.06835 0.0
H2071 H 0.54661 0.02134 0.12259 0.0
H2072 H 0.55292 0.03888 0.10504 0.0
H2073 H 0.5475 0.01383 0.09756 0.0
H2074 H 0.58334 0.9844 0.06896 0.0
H2075 H 0.56086 0.98123 0.04262 0.0
H2076 H 0.73935 0.85564 0.94335 0.0
H2077 H 0.73108 0.84314 0.91094 0.0
H2078 H 0.7832 0.81207 0.90734 0.0
H2079 H 0.79124 0.82387 0.93978 0.0
H2080 H 0.74703 0.84713 0.87633 0.0
H2081 H 0.74678 0.76854 0.89326 0.0
H2082 H 0.74788 0.78785 0.91168 0.0
H2083 H 0.76886 0.78026 0.89918 0.0
C2084 C 0.74899 0.84603 0.9357 0.0
C2085 C 0.76585 0.84056 0.94433 0.0
C2086 C 0.74426 0.83894 0.91713 0.0
C2087 C 0.75632 0.8263 0.90678 0.0
C2088 C 0.77337 0.82129 0.91519 0.0
H2089 H 0.76127 0.79757 0.7845 0.0
H2090 H 0.76194 0.81507 0.81585 0.0
C2091 C 0.77799 0.82814 0.93378 0.0
C2092 C 0.75123 0.81836 0.88719 0.0
H2093 H 0.74804 0.77566 0.86001 0.0
C2094 C 0.74703 0.83148 0.87279 0.0
C2095 C 0.75085 0.79793 0.88256 0.0
C2096 C 0.75363 0.78284 0.89755 0.0
C2097 C 0.74308 0.82476 0.85382 0.0
C2098 C 0.74384 0.80438 0.84896 0.0
C2099 C 0.74755 0.7913 0.86353 0.0
C2100 C 0.74123 0.79604 0.82896 0.0
C2101 C 0.73788 0.83959 0.83933 0.0
C2102 C 0.72931 0.77956 0.8256 0.0
C2103 C 0.72933 0.76929 0.80784 0.0
C2104 C 0.7409 0.77554 0.79286 0.0
C2105 C 0.75186 0.79276 0.79567 0.0
C2106 C 0.75221 0.80279 0.81365 0.0
H2107 H 0.73149 0.85275 0.84642 0.0
H2108 H 0.75075 0.84458 0.83181 0.0
H2109 H 0.72786 0.83322 0.82851 0.0
H2110 H 0.72066 0.77401 0.83706 0.0
H2111 H 0.72093 0.75591 0.80608 0.0
H2112 H 0.82822 0.8733 0.00997 0.0
H2113 H 0.86076 0.88526 0.01118 0.0
H2114 H 0.84723 0.93111 0.9729 0.0
H2115 H 0.81447 0.9196 0.97208 0.0
H2116 H 0.8891 0.8914 0.98579 0.0
H2117 H 0.86684 0.96237 0.01927 0.0
H2118 H 0.85094 0.94161 0.01592 0.0
H2119 H 0.85627 0.95717 -0.00373 0.0
C2120 C 0.83219 0.88577 0.00158 0.0
C2121 C 0.81867 0.89566 0.99111 0.0
C2122 C 0.85084 0.89259 0.0023 0.0
C2123 C 0.85636 0.90939 0.99253 0.0
C2124 C 0.84318 0.91845 0.98099 0.0
H2125 H 0.96767 0.95759 0.97367 0.0
H2126 H 0.93969 0.93629 0.97276 0.0
C2127 C 0.82448 0.91177 0.98042 0.0
C2128 C 0.87555 0.91805 -0.00466 0.0
H2129 H 0.89875 0.96028 0.00999 0.0
C2130 C 0.89125 0.90644 0.99116 0.0
C2131 C 0.87837 0.93751 0.00281 0.0
C2132 C 0.86223 0.95033 0.00902 0.0
C2133 C 0.90966 0.91394 0.99378 0.0
C2134 C 0.91245 0.93372 0.00038 0.0
C2135 C 0.89671 0.94514 0.0049 0.0
C2136 C 0.93137 0.94335 0.0021 0.0
C2137 C 0.92588 0.90046 0.98972 0.0
C2138 C 0.93632 0.9543 0.01894 0.0
C2139 C 0.95225 0.96665 0.01934 0.0
C2140 C 0.96373 0.96795 0.00306 0.0
C2141 C 0.95948 0.95614 0.98665 0.0
C2142 C 0.9434 0.94402 0.98612 0.0
H2143 H 0.92168 0.88483 0.99146 0.0
H2144 H 0.93054 0.90198 0.97465 0.0
H2145 H 0.93795 0.90412 -0.00066 0.0
H2146 H 0.92727 0.95415 0.03143 0.0
H2147 H 0.95501 0.97604 0.03196 0.0
H2148 H 0.28811 0.54932 0.01442 0.0
H2149 H 0.31605 0.52979 0.01969 0.0
H2150 H 0.3513 0.57806 0.00219 0.0
H2151 H 0.3236 0.59753 -0.0033 0.0
H2152 H 0.34267 0.52024 0.99006 0.0
H2153 H 0.37635 0.56 0.05206 0.0
H2154 H 0.35175 0.56225 0.04645 0.0
H2155 H 0.36921 0.57598 0.03364 0.0
C2156 C 0.30183 0.5559 0.012 0.0
C2157 C 0.30362 0.57503 0.00518 0.0
C2158 C 0.31775 0.54471 0.01501 0.0
C2159 C 0.33573 0.55258 0.01157 0.0
C2160 C 0.33757 0.57185 0.00529 0.0
H2161 H 0.43906 0.52193 0.96969 0.0
H2162 H 0.40592 0.52708 0.97612 0.0
C2163 C 0.32168 0.58295 0.0021 0.0
C2164 C 0.35256 0.54025 0.01269 0.0
H2165 H 0.3966 0.54019 0.03176 0.0
C2166 C 0.35432 0.52429 -0.00051 0.0
C2167 C 0.36763 0.54537 0.02517 0.0
C2168 C 0.36612 0.56172 0.04027 0.0
C2169 C 0.37131 0.51433 -0.00259 0.0
C2170 C 0.38688 0.52059 0.00874 0.0
C2171 C 0.38466 0.53548 0.02301 0.0
C2172 C 0.40615 0.51421 0.00399 0.0
C2173 C 0.37273 0.49777 0.98251 0.0
C2174 C 0.41724 0.5049 0.0174 0.0
C2175 C 0.4363 0.50168 0.01363 0.0
C2176 C 0.44462 0.50834 -0.00331 0.0
C2177 C 0.43317 0.51677 0.98296 0.0
C2178 C 0.41416 0.51964 0.98656 0.0
H2179 H 0.35878 0.49077 0.97948 0.0
H2180 H 0.37817 0.5037 0.96893 0.0
H2181 H 0.3825 0.48639 0.98717 0.0
H2182 H 0.4113 0.50067 0.03098 0.0
H2183 H 0.44467 0.49495 0.02438 0.0
H2184 H 0.13521 0.55971 0.80466 0.0
H2185 H 0.14429 0.59418 0.80112 0.0
H2186 H 0.14358 0.58537 0.73952 0.0
H2187 H 0.13392 0.55111 0.7429 0.0
H2188 H 0.17502 0.60852 0.78582 0.0
H2189 H 0.11486 0.63522 0.74507 0.0
H2190 H 0.11423 0.61187 0.75649 0.0
H2191 H 0.12498 0.61411 0.73324 0.0
C2192 C 0.1369 0.56513 0.79035 0.0
C2193 C 0.13382 0.55267 0.77406 0.0
C2194 C 0.14198 0.58487 0.78835 0.0
C2195 C 0.14418 0.5925 0.77005 0.0
C2196 C 0.14134 0.58002 0.75377 0.0
H2197 H 0.20827 0.68291 0.72274 0.0
H2198 H 0.18454 0.65721 0.72824 0.0
C2199 C 0.13604 0.56035 0.75575 0.0
C2200 C 0.151 0.61302 0.76796 0.0
H2201 H 0.14342 0.65496 0.74395 0.0
C2202 C 0.1679 0.6188 0.77698 0.0
C2203 C 0.14166 0.62647 0.75645 0.0
C2204 C 0.12283 0.62166 0.74744 0.0
C2205 C 0.17621 0.63724 0.77405 0.0
C2206 C 0.16733 0.65029 0.76185 0.0
C2207 C 0.15013 0.64487 0.7533 0.0
C2208 C 0.17692 0.66868 0.75649 0.0
C2209 C 0.1949 0.64232 0.78334 0.0
C2210 C 0.17965 0.68414 0.77015 0.0
C2211 C 0.19306 0.69889 0.76694 0.0
C2212 C 0.2038 0.69832 0.75004 0.0
C2213 C 0.19987 0.6838 0.73571 0.0
C2214 C 0.18638 0.66914 0.73885 0.0
H2215 H 0.20093 0.62964 0.79058 0.0
H2216 H 0.20511 0.64743 0.77246 0.0
H2217 H 0.1931 0.65448 0.79421 0.0
H2218 H 0.17263 0.68383 0.78393 0.0
H2219 H 0.19641 0.70945 0.7785 0.0
H2220 H 0.19533 0.40172 0.49079 0.0
H2221 H 0.16244 0.41137 0.49228 0.0
H2222 H 0.16589 0.41805 0.55391 0.0
H2223 H 0.19882 0.40853 0.5526 0.0
H2224 H 0.13198 0.39294 0.51384 0.0
H2225 H 0.14538 0.47142 0.53648 0.0
H2226 H 0.16356 0.45636 0.52591 0.0
H2227 H 0.15603 0.4527 0.55009 0.0
C2228 C 0.18913 0.40528 0.50466 0.0
C2229 C 0.19975 0.40444 0.52155 0.0
C2230 C 0.17032 0.41074 0.5055 0.0
C2231 C 0.16179 0.41558 0.52319 0.0
C2232 C 0.17227 0.41462 0.5401 0.0
H2233 H 0.04897 0.46859 0.5182 0.0
H2234 H 0.07468 0.45243 0.53476 0.0
C2235 C 0.19108 0.40911 0.53929 0.0
C2236 C 0.14192 0.42164 0.52368 0.0
H2237 H 0.11457 0.46222 0.52793 0.0
C2238 C 0.12809 0.408 0.51729 0.0
C2239 C 0.13682 0.44119 0.52857 0.0
C2240 C 0.15116 0.45638 0.53559 0.0
C2241 C 0.10956 0.41372 0.51436 0.0
C2242 C 0.10484 0.43366 0.51754 0.0
C2243 C 0.11825 0.44694 0.52552 0.0
C2244 C 0.088 0.44172 0.50854 0.0
C2245 C 0.09538 0.39862 0.50682 0.0
C2246 C 0.08701 0.44101 0.48849 0.0
C2247 C 0.07284 0.45055 0.47917 0.0
C2248 C 0.05919 0.46109 0.48962 0.0
C2249 C 0.0595 0.46098 0.50978 0.0
C2250 C 0.07408 0.45164 0.51923 0.0
H2251 H 0.09878 0.38371 0.51153 0.0
H2252 H 0.08096 0.40227 0.51168 0.0
H2253 H 0.09565 0.39822 0.4909 0.0
H2254 H 0.09773 0.43371 0.47995 0.0
H2255 H 0.07295 0.45009 0.46362 0.0
H2256 H 0.84241 0.94847 0.80122 0.0
H2257 H 0.82698 0.91618 0.79875 0.0
H2258 H 0.8383 0.91288 0.73794 0.0
H2259 H 0.85422 0.94501 0.74036 0.0
H2260 H 0.7966 0.90473 0.77998 0.0
H2261 H 0.85491 0.85945 0.75244 0.0
H2262 H 0.85856 0.88424 0.76205 0.0
H2263 H 0.8513 0.87985 0.73749 0.0
C2264 C 0.84173 0.94088 0.7873 0.0
C2265 C 0.84962 0.94943 0.77097 0.0
C2266 C 0.83293 0.92233 0.78594 0.0
C2267 C 0.83179 0.91181 0.76825 0.0
C2268 C 0.83949 0.92036 0.75188 0.0
H2269 H 0.75419 0.84022 0.71438 0.0
H2270 H 0.77393 0.86413 0.73157 0.0
C2271 C 0.84842 0.93889 0.75324 0.0
C2272 C 0.82137 0.89261 0.76664 0.0
H2273 H 0.82347 0.8461 0.74646 0.0
C2274 C 0.80267 0.89179 0.77305 0.0
C2275 C 0.82928 0.87546 0.75802 0.0
C2276 C 0.84969 0.87471 0.75232 0.0
C2277 C 0.79131 0.87494 0.76965 0.0
C2278 C 0.7987 0.85855 0.75934 0.0
C2279 C 0.81777 0.85871 0.75429 0.0
C2280 C 0.78607 0.8433 0.7503 0.0
C2281 C 0.77114 0.87514 0.77624 0.0
C2282 C 0.78626 0.82342 0.75515 0.0
C2283 C 0.77461 0.80943 0.74531 0.0
C2284 C 0.76315 0.81514 0.7302 0.0
C2285 C 0.76293 0.83513 0.72579 0.0
C2286 C 0.77419 0.84895 0.73567 0.0
H2287 H 0.76919 0.88563 0.78867 0.0
H2288 H 0.76215 0.87984 0.76435 0.0
H2289 H 0.76629 0.86027 0.78032 0.0
H2290 H 0.79539 0.81877 0.76643 0.0
H2291 H 0.77484 0.79423 0.74923 0.0
H2292 H 0.69455 0.11799 0.48883 0.0
H2293 H 0.66048 0.11705 0.49342 0.0
H2294 H 0.66709 0.07976 0.54147 0.0
H2295 H 0.70102 0.08121 0.53741 0.0
H2296 H 0.63902 0.08594 0.48934 0.0
H2297 H 0.62821 0.11554 0.56305 0.0
H2298 H 0.65023 0.11864 0.55055 0.0
H2299 H 0.64517 0.09649 0.56313 0.0
C2300 C 0.68874 0.10987 0.50057 0.0
C2301 C 0.70046 0.09961 0.51272 0.0
C2302 C 0.66928 0.10942 0.50322 0.0
C2303 C 0.66119 0.09866 0.51802 0.0
C2304 C 0.67295 0.08872 0.53036 0.0
H2305 H 0.5715 0.0256 0.53767 0.0
H2306 H 0.59827 0.04853 0.54006 0.0
C2307 C 0.69239 0.08936 0.52786 0.0
C2308 C 0.64055 0.09558 0.5191 0.0
H2309 H 0.60431 0.09176 0.55099 0.0
C2310 C 0.63129 0.0878 0.50268 0.0
C2311 C 0.63039 0.09809 0.53648 0.0
C2312 C 0.63902 0.10786 0.55421 0.0
C2313 C 0.61265 0.08093 0.50355 0.0
C2314 C 0.60301 0.08197 0.52129 0.0
C2315 C 0.6118 0.09094 0.53743 0.0
C2316 C 0.58519 0.07094 0.52382 0.0
C2317 C 0.60385 0.07126 0.48581 0.0
C2318 C 0.56867 0.07642 0.51467 0.0
C2319 C 0.55329 0.06333 0.51339 0.0
C2320 C 0.55435 0.04468 0.52117 0.0
C2321 C 0.57036 0.03993 0.53159 0.0
C2322 C 0.58561 0.05302 0.533 0.0
H2323 H 0.61384 0.07016 0.47358 0.0
H2324 H 0.5986 0.05625 0.48891 0.0
H2325 H 0.59168 0.07991 0.48137 0.0
H2326 H 0.56814 0.0902 0.50746 0.0
H2327 H 0.54128 0.06711 0.50494 0.0
H2328 H 0.16693 0.45203 0.79242 0.0
H2329 H 0.18742 0.42492 0.78386 0.0
H2330 H 0.18221 0.43745 0.72396 0.0
H2331 H 0.16108 0.46429 0.7324 0.0
H2332 H 0.17257 0.4013 0.72918 0.0
H2333 H 0.23967 0.41426 0.76687 0.0
H2334 H 0.22076 0.41743 0.7836 0.0
H2335 H 0.22314 0.43367 0.76387 0.0
C2336 C 0.17055 0.44943 0.77746 0.0
C2337 C 0.16214 0.46018 0.76308 0.0
C2338 C 0.18246 0.43397 0.77257 0.0
C2339 C 0.18654 0.42918 0.75325 0.0
C2340 C 0.1793 0.44087 0.73897 0.0
H2341 H 0.24292 0.31516 0.73287 0.0
H2342 H 0.23762 0.35056 0.73082 0.0
C2343 C 0.1672 0.4562 0.74382 0.0
C2344 C 0.19546 0.41017 0.748 0.0
H2345 H 0.23 0.37957 0.7616 0.0
C2346 C 0.18543 0.39679 0.73588 0.0
C2347 C 0.21238 0.40421 0.75644 0.0
C2348 C 0.22468 0.41828 0.76824 0.0
C2349 C 0.19097 0.37725 0.73328 0.0
C2350 C 0.20673 0.3708 0.74336 0.0
C2351 C 0.21771 0.38449 0.75417 0.0
C2352 C 0.21046 0.34961 0.74469 0.0
C2353 C 0.17943 0.36343 0.72039 0.0
C2354 C 0.19711 0.33754 0.75348 0.0
C2355 C 0.20004 0.31748 0.75472 0.0
C2356 C 0.2165 0.30899 0.74727 0.0
C2357 C 0.23008 0.3212 0.73873 0.0
C2358 C 0.2271 0.3414 0.73754 0.0
H2359 H 0.1719 0.37152 0.70932 0.0
H2360 H 0.18835 0.3522 0.7131 0.0
H2361 H 0.16877 0.35574 0.72915 0.0
H2362 H 0.18433 0.34369 0.75941 0.0
H2363 H 0.18931 0.30865 0.7615 0.0
H2364 H 0.3321 0.55457 0.28284 0.0
H2365 H 0.31326 0.58274 0.27516 0.0
H2366 H 0.33499 0.58062 0.21738 0.0
H2367 H 0.35407 0.55246 0.22493 0.0
H2368 H 0.3371 0.6181 0.23481 0.0
H2369 H 0.26583 0.58588 0.24275 0.0
H2370 H 0.28029 0.58186 0.2632 0.0
H2371 H 0.28644 0.57098 0.24014 0.0
C2372 C 0.33271 0.55987 0.2684 0.0
C2373 C 0.34462 0.55117 0.25452 0.0
C2374 C 0.32184 0.57595 0.26401 0.0
C2375 C 0.32255 0.58366 0.24563 0.0
C2376 C 0.33416 0.57485 0.23162 0.0
H2377 H 0.24152 0.67734 0.2355 0.0
H2378 H 0.26134 0.65056 0.22308 0.0
C2379 C 0.34501 0.55869 0.23597 0.0
C2380 C 0.31198 0.60161 0.24158 0.0
H2381 H 0.26844 0.6212 0.24586 0.0
C2382 C 0.32203 0.61872 0.23684 0.0
C2383 C 0.29228 0.60235 0.24379 0.0
C2384 C 0.28055 0.58422 0.24755 0.0
C2385 C 0.31305 0.63684 0.23569 0.0
C2386 C 0.2936 0.6379 0.23964 0.0
C2387 C 0.28337 0.6205 0.24294 0.0
C2388 C 0.28402 0.65691 0.24314 0.0
C2389 C 0.32459 0.65475 0.23073 0.0
C2390 C 0.29048 0.66988 0.25794 0.0
C2391 C 0.27926 0.68517 0.26484 0.0
C2392 C 0.26147 0.68789 0.25698 0.0
C2393 C 0.25549 0.67588 0.2413 0.0
C2394 C 0.26672 0.66048 0.23438 0.0
H2395 H 0.33648 0.65067 0.22114 0.0
H2396 H 0.31598 0.66577 0.22362 0.0
H2397 H 0.3306 0.66167 0.24408 0.0
H2398 H 0.30348 0.66719 0.26532 0.0
H2399 H 0.28388 0.69394 0.27732 0.0
H2400 H 0.50482 0.70296 0.61622 0.0
H2401 H 0.51391 0.67061 0.6031 0.0
H2402 H 0.47638 0.67673 0.55539 0.0
H2403 H 0.46689 0.7087 0.56859 0.0
H2404 H 0.47174 0.64167 0.5712 0.0
H2405 H 0.54771 0.65562 0.55832 0.0
H2406 H 0.53996 0.66066 0.58252 0.0
H2407 H 0.53153 0.67519 0.5635 0.0
C2408 C 0.49864 0.69751 0.60283 0.0
C2409 C 0.48508 0.70849 0.59349 0.0
C2410 C 0.50394 0.67902 0.59528 0.0
C2411 C 0.496 0.67125 0.57812 0.0
C2412 C 0.48272 0.68235 0.56865 0.0
H2413 H 0.51953 0.58544 0.49239 0.0
H2414 H 0.52201 0.61261 0.51618 0.0
C2415 C 0.47731 0.7007 0.57623 0.0
C2416 C 0.50066 0.65124 0.57027 0.0
H2417 H 0.53613 0.62345 0.55122 0.0
C2418 C 0.48586 0.63762 0.56699 0.0
C2419 C 0.51908 0.64595 0.56475 0.0
C2420 C 0.53549 0.66014 0.56727 0.0
C2421 C 0.48876 0.61927 0.55767 0.0
C2422 C 0.50716 0.61399 0.55196 0.0
C2423 C 0.5221 0.62734 0.55584 0.0
C2424 C 0.51056 0.59608 0.53952 0.0
C2425 C 0.47184 0.60626 0.55301 0.0
C2426 C 0.50464 0.57725 0.545 0.0
C2427 C 0.50315 0.56166 0.53127 0.0
C2428 C 0.50808 0.56457 0.51209 0.0
C2429 C 0.51602 0.58273 0.5072 0.0
C2430 C 0.51731 0.59832 0.52079 0.0
H2431 H 0.45847 0.61424 0.55491 0.0
H2432 H 0.47251 0.60027 0.53799 0.0
H2433 H 0.47148 0.59374 0.56272 0.0
H2434 H 0.49973 0.57502 0.55947 0.0
H2435 H 0.49642 0.54801 0.53524 0.0
H2436 H 0.51774 0.24436 0.78757 0.0
H2437 H 0.54818 0.24702 0.77158 0.0
H2438 H 0.57593 0.24855 0.82651 0.0
H2439 H 0.54551 0.24553 0.84266 0.0
H2440 H 0.57813 0.27461 0.7741 0.0
H2441 H 0.59892 0.20127 0.79784 0.0
H2442 H 0.57518 0.20981 0.79994 0.0
H2443 H 0.59266 0.21817 0.81709 0.0
C2444 C 0.53029 0.24535 0.7963 0.0
C2445 C 0.52919 0.24446 0.81641 0.0
C2446 C 0.54769 0.24696 0.78711 0.0
C2447 C 0.56433 0.2477 0.79782 0.0
C2448 C 0.56326 0.24765 0.81794 0.0
H2449 H 0.67957 0.26801 0.76302 0.0
H2450 H 0.64667 0.27404 0.77111 0.0
C2451 C 0.54586 0.24596 0.82715 0.0
C2452 C 0.58277 0.24737 0.78787 0.0
H2453 H 0.62203 0.21993 0.782 0.0
C2454 C 0.58775 0.26265 0.77575 0.0
C2455 C 0.59515 0.23159 0.7898 0.0
C2456 C 0.59019 0.21417 0.80172 0.0
C2457 C 0.60495 0.26271 0.76575 0.0
C2458 C 0.61752 0.24716 0.76811 0.0
C2459 C 0.6124 0.23185 0.78012 0.0
C2460 C 0.63625 0.24627 0.75871 0.0
C2461 C 0.60937 0.27919 0.75255 0.0
C2462 C 0.64129 0.22908 0.74832 0.0
C2463 C 0.66008 0.22554 0.74394 0.0
C2464 C 0.67413 0.23926 0.74962 0.0
C2465 C 0.66894 0.25739 0.75813 0.0
C2466 C 0.65011 0.26081 0.76282 0.0
H2467 H 0.59643 0.28654 0.74799 0.0
H2468 H 0.6184 0.29037 0.76024 0.0
H2469 H 0.61703 0.27376 0.73957 0.0
H2470 H 0.63087 0.21769 0.74494 0.0
H2471 H 0.66378 0.21138 0.73754 0.0
H2472 H 0.0127 0.31692 0.10593 0.0
H2473 H 0.01571 0.35015 0.09389 0.0
H2474 H 0.97676 0.33442 0.0484 0.0
H2475 H 0.97344 0.30135 0.06043 0.0
H2476 H 0.02594 0.36554 0.05919 0.0
H2477 H 0.9513 0.38106 0.07516 0.0
H2478 H 0.9629 0.35985 0.08387 0.0
H2479 H 0.95446 0.35978 0.05957 0.0
C2480 C 0.00509 0.32037 0.09311 0.0
C2481 C -0.00733 0.30649 0.08429 0.0
C2482 C 0.0067 0.33945 0.08634 0.0
C2483 C -0.00404 0.34496 0.07064 0.0
C2484 C 0.9847 0.33069 0.06092 0.0
H2485 H 0.98921 0.44647 0.00216 0.0
H2486 H 0.98174 0.41628 0.0189 0.0
C2487 C 0.98299 0.3117 0.06771 0.0
C2488 C -0.00378 0.36567 0.0646 0.0
H2489 H 0.96803 0.40477 0.05714 0.0
C2490 C 0.01332 0.37417 0.05891 0.0
C2491 C 0.97972 0.37696 0.0643 0.0
C2492 C 0.96108 0.36904 0.07123 0.0
C2493 C 0.01429 0.39341 0.05235 0.0
C2494 C -0.00225 0.40459 0.05178 0.0
C2495 C 0.98067 0.3962 0.05766 0.0
C2496 C -0.00199 0.42464 0.04416 0.0
C2497 C 0.03293 0.40142 0.04551 0.0
C2498 C 0.00849 0.43989 0.05341 0.0
C2499 C 0.01257 0.45719 0.04393 0.0
C2500 C 0.00599 0.45959 0.02524 0.0
C2501 C -0.00606 0.44519 0.01681 0.0
C2502 C 0.98988 0.42785 0.02627 0.0
H2503 H 0.04342 0.38968 0.04331 0.0
H2504 H 0.03126 0.40902 0.03184 0.0
H2505 H 0.03857 0.41229 0.05639 0.0
H2506 H 0.01473 0.43778 0.06731 0.0
H2507 H 0.02232 0.46786 0.05048 0.0
H2508 H 0.93963 0.77313 0.3221 0.0
H2509 H 0.90886 0.78429 0.31209 0.0
H2510 H 0.88194 0.73966 0.34539 0.0
H2511 H 0.91255 0.72876 0.35579 0.0
H2512 H 0.88469 0.76247 0.29127 0.0
H2513 H 0.84942 0.78584 0.3589 0.0
H2514 H 0.8744 0.78202 0.35745 0.0
H2515 H 0.85838 0.76147 0.35983 0.0
C2516 C 0.92714 0.76589 0.32751 0.0
C2517 C 0.9285 0.75007 0.33973 0.0
C2518 C 0.90957 0.77234 0.32186 0.0
C2519 C 0.89307 0.76305 0.32827 0.0
C2520 C 0.89442 0.74746 0.34073 0.0
H2521 H 0.78487 0.74343 0.28147 0.0
H2522 H 0.81101 0.74661 0.30407 0.0
C2523 C 0.91196 0.74112 0.34652 0.0
C2524 C 0.87466 0.768 0.32009 0.0
H2525 H 0.82923 0.77879 0.33161 0.0
C2526 C 0.87268 0.76641 0.30009 0.0
C2527 C 0.85894 0.77299 0.33164 0.0
C2528 C 0.86042 0.77587 0.35313 0.0
C2529 C 0.8553 0.76894 0.29133 0.0
C2530 C 0.83949 0.77341 0.30287 0.0
C2531 C 0.84144 0.77542 0.32285 0.0
C2532 C 0.82075 0.77472 0.29411 0.0
C2533 C 0.85381 0.76606 0.26979 0.0
C2534 C 0.81698 0.79004 0.28191 0.0
C2535 C 0.80195 0.7883 0.26912 0.0
C2536 C 0.7904 0.77134 0.26857 0.0
C2537 C 0.79309 0.75696 0.28212 0.0
C2538 C 0.80816 0.75867 0.29489 0.0
H2539 H 0.86669 0.75964 0.26332 0.0
H2540 H 0.84165 0.75628 0.26588 0.0
H2541 H 0.85156 0.78047 0.26336 0.0
H2542 H 0.82659 0.8025 0.28113 0.0
H2543 H 0.80024 0.79946 0.25864 0.0
H2544 H 0.45792 0.29073 0.91898 0.0
H2545 H 0.46351 0.32507 0.92852 0.0
H2546 H 0.50425 0.33051 0.88314 0.0
H2547 H 0.49888 0.29583 0.87344 0.0
H2548 H 0.51606 0.34745 0.91836 0.0
H2549 H 0.44523 0.37274 0.90066 0.0
H2550 H 0.44411 0.35171 0.91534 0.0
H2551 H 0.45414 0.34948 0.89163 0.0
C2552 C 0.4681 0.29913 0.91096 0.0
C2553 C 0.47785 0.29049 0.89533 0.0
C2554 C 0.47114 0.31885 0.91635 0.0
C2555 C 0.48388 0.33047 0.90619 0.0
C2556 C 0.49414 0.32184 0.89097 0.0
H2557 H 0.50658 0.45242 0.95249 0.0
H2558 H 0.50327 0.42651 0.92695 0.0
C2559 C 0.49111 0.30201 0.88553 0.0
C2560 C 0.48681 0.3514 0.91222 0.0
H2561 H 0.46227 0.39244 0.92501 0.0
C2562 C 0.50447 0.35754 0.91928 0.0
C2563 C 0.47172 0.36461 0.91319 0.0
C2564 C 0.45279 0.35936 0.9046 0.0
C2565 C 0.50695 0.3759 0.92889 0.0
C2566 C 0.49139 0.38828 0.93144 0.0
C2567 C 0.47414 0.38284 0.92304 0.0
C2568 C 0.49191 0.40476 0.9458 0.0
C2569 C 0.52577 0.3814 0.9376 0.0
C2570 C 0.48623 0.40108 0.96456 0.0
C2571 C 0.48817 0.41563 0.97903 0.0
C2572 C 0.49572 0.43423 0.97499 0.0
C2573 C 0.50061 0.43824 0.95596 0.0
C2574 C 0.49882 0.42349 0.94142 0.0
H2575 H 0.53687 0.37103 0.93292 0.0
H2576 H 0.53004 0.39647 0.93359 0.0
H2577 H 0.52466 0.38146 0.95349 0.0
H2578 H 0.48082 0.38669 0.96814 0.0
H2579 H 0.48413 0.41214 0.99351 0.0
H2580 H 0.92449 0.25964 0.12498 0.0
H2581 H 0.89277 0.25897 0.13822 0.0
H2582 H 0.91326 0.23221 0.18891 0.0
H2583 H 0.94514 0.23259 0.17566 0.0
H2584 H 0.87909 0.21587 0.17492 0.0
H2585 H 0.87678 0.29735 0.18218 0.0
H2586 H 0.88212 0.28761 0.15851 0.0
H2587 H 0.89829 0.28433 0.17779 0.0
C2588 C 0.92226 0.25328 0.13881 0.0
C2589 C 0.9374 0.24623 0.14931 0.0
C2590 C 0.90411 0.25311 0.14643 0.0
C2591 C 0.90076 0.246 0.16473 0.0
C2592 C 0.91561 0.23795 0.17482 0.0
H2593 H 0.81428 0.25633 0.24863 0.0
H2594 H 0.84087 0.26361 0.22756 0.0
C2595 C 0.9338 0.2381 0.1672 0.0
C2596 C 0.88184 0.24727 0.17355 0.0
H2597 H 0.84913 0.27978 0.19044 0.0
C2598 C 0.87248 0.22982 0.1782 0.0
C2599 C 0.87337 0.26555 0.178 0.0
C2600 C 0.88318 0.28481 0.17404 0.0
C2601 C 0.85489 0.2301 0.18728 0.0
C2602 C 0.84628 0.24835 0.19151 0.0
C2603 C 0.85562 0.26584 0.18685 0.0
C2604 C 0.82836 0.24934 0.2023 0.0
C2605 C 0.84596 0.21085 0.19286 0.0
C2606 C 0.812 0.24028 0.1947 0.0
C2607 C 0.79679 0.23623 0.20672 0.0
C2608 C 0.79768 0.24152 0.22634 0.0
C2609 C 0.81314 0.25257 0.23343 0.0
C2610 C 0.82839 0.25655 0.22144 0.0
H2611 H 0.85605 0.19861 0.19202 0.0
H2612 H 0.84025 0.21205 0.20769 0.0
H2613 H 0.83415 0.20702 0.18298 0.0
H2614 H 0.81163 0.23482 0.17991 0.0
H2615 H 0.78518 0.22728 0.20109 0.0
H2616 H 0.9602 0.69656 0.43169 0.0
H2617 H 0.97014 0.67007 0.4517 0.0
H2618 H 0.01578 0.65766 0.4126 0.0
H2619 H 0.00621 0.68447 0.39275 0.0
H2620 H 0.97 0.6324 0.44043 0.0
H2621 H 0.04196 0.6539 0.46328 0.0
H2622 H 0.0261 0.67106 0.45317 0.0
H2623 H 0.03933 0.65458 0.43776 0.0
C2624 C 0.97258 0.68845 0.42752 0.0
C2625 C 0.98236 0.69259 0.41055 0.0
C2626 C 0.97825 0.67331 0.43901 0.0
C2627 C -0.00619 0.66197 0.43379 0.0
C2628 C 0.00401 0.6665 0.41721 0.0
H2629 H 0.03593 0.54907 0.44974 0.0
H2630 H 0.02984 0.5831 0.44274 0.0
C2631 C -0.00156 0.68178 0.40578 0.0
C2632 C -0.00192 0.64412 0.44442 0.0
H2633 H 0.03373 0.61941 0.46473 0.0
C2634 C 0.98384 0.62973 0.44609 0.0
C2635 C 0.01613 0.64065 0.45184 0.0
C2636 C 0.03169 0.65597 0.45161 0.0
C2637 C 0.98741 0.61155 0.45401 0.0
C2638 C 0.00568 0.60774 0.46061 0.0
C2639 C 0.01975 0.62239 0.45963 0.0
C2640 C 0.01085 0.58795 0.46662 0.0
C2641 C 0.97185 0.59618 0.45434 0.0
C2642 C 0.00262 0.57956 0.48276 0.0
C2643 C 0.00607 0.55999 0.48686 0.0
C2644 C 0.01776 0.5485 0.47481 0.0
C2645 C 0.0267 0.55736 0.45924 0.0
C2646 C 0.0233 0.57687 0.45523 0.0
H2647 H 0.95949 0.60031 0.44581 0.0
H2648 H 0.9769 0.58177 0.44864 0.0
H2649 H 0.96718 0.59433 0.46936 0.0
H2650 H -0.00683 0.588 0.4919 0.0
H2651 H -0.00089 0.55373 0.49908 0.0
H2652 H 0.5459 0.77352 0.65886 0.0
H2653 H 0.57635 0.77163 0.67472 0.0
H2654 H 0.56498 0.71089 0.68651 0.0
H2655 H 0.53443 0.71259 0.67066 0.0
H2656 H 0.58231 0.75957 0.71484 0.0
H2657 H 0.61791 0.7122 0.65939 0.0
H2658 H 0.59745 0.72618 0.65391 0.0
H2659 H 0.59505 0.70459 0.66769 0.0
C2660 C 0.54988 0.75971 0.66471 0.0
C2661 C 0.53771 0.7432 0.66345 0.0
C2662 C 0.56726 0.75868 0.67383 0.0
C2663 C 0.57292 0.7411 0.6817 0.0
C2664 C 0.56092 0.72454 0.68037 0.0
H2665 H 0.68847 0.72725 0.72387 0.0
H2666 H 0.65495 0.71892 0.71931 0.0
C2667 C 0.54346 0.72557 0.67134 0.0
C2668 C 0.59133 0.74039 0.69148 0.0
H2669 H 0.63612 0.72437 0.68536 0.0
C2670 C 0.59403 0.75167 0.70855 0.0
C2671 C 0.60649 0.72981 0.68341 0.0
C2672 C 0.60426 0.71754 0.66504 0.0
C2673 C 0.61172 0.75333 0.71733 0.0
C2674 C 0.62721 0.74385 0.70856 0.0
C2675 C 0.62425 0.73163 0.6921 0.0
C2676 C 0.64683 0.74878 0.71438 0.0
C2677 C 0.61373 0.76562 0.73571 0.0
C2678 C 0.6533 0.76829 0.71343 0.0
C2679 C 0.67226 0.77301 0.71598 0.0
C2680 C 0.68526 0.75833 0.71949 0.0
C2681 C 0.67872 0.73889 0.72142 0.0
C2682 C 0.65962 0.73412 0.71869 0.0
H2683 H 0.60046 0.76551 0.74411 0.0
H2684 H 0.62521 0.7603 0.7448 0.0
H2685 H 0.61697 0.78108 0.73221 0.0
H2686 H 0.64385 0.7798 0.7097 0.0
H2687 H 0.67687 0.78812 0.7144 0.0
H2688 H 0.58409 0.54814 0.70336 0.0
H2689 H 0.56669 0.54946 0.67316 0.0
H2690 H 0.5675 0.48627 0.66681 0.0
H2691 H 0.58498 0.48477 0.69686 0.0
H2692 H 0.57891 0.53207 0.63547 0.0
H2693 H 0.51072 0.50209 0.66108 0.0
H2694 H 0.52817 0.51312 0.67713 0.0
H2695 H 0.53107 0.48855 0.66744 0.0
C2696 C 0.58055 0.53451 0.69555 0.0
C2697 C 0.5859 0.51633 0.70253 0.0
C2698 C 0.5706 0.53531 0.67833 0.0
C2699 C 0.56559 0.51796 0.66795 0.0
C2700 C 0.571 0.49981 0.67479 0.0
H2701 H 0.52034 0.47257 0.56417 0.0
H2702 H 0.52809 0.48106 0.59754 0.0
C2703 C 0.5811 0.499 0.69189 0.0
C2704 C 0.55534 0.5187 0.64955 0.0
H2705 H 0.51471 0.50353 0.62724 0.0
C2706 C 0.56476 0.52615 0.63366 0.0
C2707 C 0.5369 0.51096 0.64735 0.0
C2708 C 0.526 0.50335 0.66417 0.0
C2709 C 0.55665 0.52499 0.61529 0.0
C2710 C 0.53836 0.51665 0.61292 0.0
C2711 C 0.52865 0.51001 0.62906 0.0
C2712 C 0.53019 0.51239 0.59358 0.0
C2713 C 0.56823 0.53156 0.59847 0.0
C2714 C 0.52777 0.52726 0.58043 0.0
C2715 C 0.52346 0.52239 0.5612 0.0
C2716 C 0.52123 0.50261 0.55496 0.0
C2717 C 0.52202 0.48795 0.56855 0.0
C2718 C 0.52644 0.49279 0.58765 0.0
H2719 H 0.58328 0.53379 0.60226 0.0
H2720 H 0.56721 0.52062 0.58627 0.0
H2721 H 0.5629 0.54573 0.59362 0.0
H2722 H 0.53021 0.54254 0.58477 0.0
H2723 H 0.5234 0.53393 0.551 0.0
H2724 H 0.73747 0.34658 0.95415 0.0
H2725 H 0.72985 0.33099 0.92277 0.0
H2726 H 0.78518 0.30655 0.91951 0.0
H2727 H 0.79278 0.32158 0.95086 0.0
H2728 H 0.74639 0.33479 0.88707 0.0
H2729 H 0.75167 0.25832 0.91059 0.0
H2730 H 0.75084 0.27915 0.92734 0.0
H2731 H 0.77251 0.27281 0.91554 0.0
C2732 C 0.74798 0.3378 0.9468 0.0
C2733 C 0.76566 0.33515 0.95516 0.0
C2734 C 0.74362 0.32897 0.92885 0.0
C2735 C 0.75684 0.31734 0.91898 0.0
C2736 C 0.77461 0.31506 0.92708 0.0
H2737 H 0.75598 0.27674 0.79856 0.0
H2738 H 0.7616 0.29543 0.82885 0.0
C2739 C 0.77894 0.32374 0.94502 0.0
C2740 C 0.75216 0.30747 0.90022 0.0
H2741 H 0.7503 0.26249 0.87693 0.0
C2742 C 0.74711 0.31897 0.88483 0.0
C2743 C 0.75291 0.28682 0.89742 0.0
C2744 C 0.75709 0.27353 0.91364 0.0
C2745 C 0.7431 0.31037 0.86661 0.0
C2746 C 0.74456 0.28977 0.86366 0.0
C2747 C 0.74936 0.2783 0.87914 0.0
C2748 C 0.74056 0.27954 0.84489 0.0
C2749 C 0.737 0.32335 0.85083 0.0
C2750 C 0.72709 0.26426 0.84389 0.0
C2751 C 0.72411 0.25338 0.82679 0.0
C2752 C 0.7345 0.25756 0.8102 0.0
C2753 C 0.74771 0.27319 0.81106 0.0
C2754 C 0.75084 0.28397 0.82832 0.0
H2755 H 0.73163 0.33759 0.85668 0.0
H2756 H 0.74921 0.32657 0.84148 0.0
H2757 H 0.72589 0.316 0.84184 0.0
H2758 H 0.71898 0.26057 0.85646 0.0
H2759 H 0.71368 0.24158 0.82663 0.0
H2760 H 0.93524 0.46548 0.21733 0.0
H2761 H 0.95267 0.4671 0.187 0.0
H2762 H 0.9297 0.52402 0.17771 0.0
H2763 H 0.91224 0.52256 0.2078 0.0
H2764 H 0.93764 0.47353 0.14826 0.0
H2765 H 0.98813 0.53172 0.17378 0.0
H2766 H 0.97479 0.51671 0.18995 0.0
H2767 H 0.96399 0.53703 0.1789 0.0
C2768 C 0.93386 0.47832 0.2088 0.0
C2769 C 0.9224 0.49393 0.21506 0.0
C2770 C 0.94384 0.47921 0.19149 0.0
C2771 C 0.9427 0.49582 0.1803 0.0
C2772 C 0.93101 0.51122 0.18631 0.0
H2773 H 0.96984 0.54712 0.0773 0.0
H2774 H 0.96365 0.53765 0.10999 0.0
C2775 C 0.92095 0.51029 0.20349 0.0
C2776 C 0.95347 0.4972 0.16216 0.0
H2777 H 0.98566 0.52622 0.1398 0.0
C2778 C 0.94841 0.48477 0.14642 0.0
C2779 C 0.96758 0.5118 0.15992 0.0
C2780 C 0.97411 0.52499 0.17657 0.0
C2781 C 0.95616 0.48749 0.12812 0.0
C2782 C 0.96959 0.50282 0.12565 0.0
C2783 C 0.9754 0.51448 0.14169 0.0
C2784 C 0.97567 0.50882 0.1063 0.0
C2785 C 0.94901 0.4748 0.11137 0.0
C2786 C 0.98517 0.49602 0.09346 0.0
C2787 C 0.98875 0.50143 0.07455 0.0
C2788 C 0.98286 0.5197 0.06826 0.0
C2789 C 0.9744 0.53285 0.08157 0.0
C2790 C 0.97088 0.52748 0.10033 0.0
H2791 H 0.93647 0.46583 0.11521 0.0
H2792 H 0.94533 0.484 0.09918 0.0
H2793 H 0.96018 0.46465 0.10645 0.0
H2794 H 0.98934 0.48168 0.09787 0.0
H2795 H -0.00472 0.49099 0.06466 0.0
H2796 H 0.79891 0.68805 0.4319 0.0
H2797 H 0.79226 0.70338 0.40156 0.0
H2798 H 0.74328 0.66588 0.39369 0.0
H2799 H 0.74967 0.65049 0.42406 0.0
H2800 H 0.77681 0.66704 0.36257 0.0
H2801 H 0.74384 0.73802 0.38459 0.0
H2802 H 0.76324 0.72912 0.39815 0.0
H2803 H 0.74097 0.71652 0.39879 0.0
C2804 C 0.78646 0.68334 0.42397 0.0
C2805 C 0.77488 0.66793 0.43043 0.0
C2806 C 0.78273 0.69211 0.40661 0.0
C2807 C 0.76737 0.68565 0.39539 0.0
C2808 C 0.75522 0.67103 0.4022 0.0
H2809 H 0.72102 0.6945 0.2845 0.0
H2810 H 0.73588 0.68354 0.31359 0.0
C2811 C 0.75884 0.66234 0.41963 0.0
C2812 C 0.76483 0.69296 0.37587 0.0
H2813 H 0.74693 0.73077 0.35148 0.0
C2814 C 0.77038 0.68102 0.36009 0.0
C2815 C 0.7568 0.71134 0.37278 0.0
C2816 C 0.75079 0.72461 0.38939 0.0
C2817 C 0.76766 0.68679 0.3412 0.0
C2818 C 0.75872 0.70476 0.33802 0.0
C2819 C 0.75381 0.71702 0.35388 0.0
C2820 C 0.75255 0.71017 0.3186 0.0
C2821 C 0.77437 0.67355 0.32484 0.0
C2822 C 0.75708 0.72873 0.3115 0.0
C2823 C 0.74853 0.73498 0.29476 0.0
C2824 C 0.73541 0.72276 0.28494 0.0
C2825 C 0.73155 0.70392 0.29155 0.0
C2826 C 0.74005 0.69766 0.30819 0.0
H2827 H 0.78646 0.66472 0.32925 0.0
H2828 H 0.76286 0.66314 0.32042 0.0
H2829 H 0.7786 0.68209 0.31224 0.0
H2830 H 0.7665 0.73873 0.31941 0.0
H2831 H 0.75108 0.74988 0.29037 0.0
H2832 H 0.62747 0.49953 0.82151 0.0
H2833 H 0.61624 0.49777 0.85446 0.0
H2834 H 0.5635 0.52207 0.83805 0.0
H2835 H 0.57472 0.52413 0.80494 0.0
H2836 H 0.57748 0.53677 0.87391 0.0
H2837 H 0.57711 0.4551 0.86831 0.0
H2838 H 0.59915 0.46696 0.86298 0.0
H2839 H 0.57933 0.47011 0.84762 0.0
C2840 C 0.61362 0.50491 0.82492 0.0
C2841 C 0.60193 0.51185 0.81053 0.0
C2842 C 0.60717 0.50369 0.84376 0.0
C2843 C 0.58889 0.50929 0.84855 0.0
C2844 C 0.57762 0.51748 0.83456 0.0
H2845 H 0.50951 0.48685 0.93549 0.0
H2846 H 0.53077 0.48271 0.90807 0.0
C2847 C 0.58408 0.51875 0.81567 0.0
C2848 C 0.58121 0.50589 0.86792 0.0
H2849 H 0.56824 0.46968 0.89818 0.0
C2850 C 0.5756 0.52214 0.87931 0.0
C2851 C 0.57861 0.48671 0.87478 0.0
C2852 C 0.5837 0.46867 0.86277 0.0
C2853 C 0.56725 0.51975 0.89732 0.0
C2854 C 0.56476 0.50059 0.90426 0.0
C2855 C 0.5705 0.48433 0.89294 0.0
C2856 C 0.55441 0.49733 0.92233 0.0
C2857 C 0.56047 0.53774 0.90844 0.0
C2858 C 0.56115 0.50546 0.93984 0.0
C2859 C 0.54901 0.50774 0.95551 0.0
C2860 C 0.53018 0.50153 0.95391 0.0
C2861 C 0.52413 0.49124 0.93718 0.0
C2862 C 0.53622 0.48907 0.92146 0.0
H2863 H 0.56027 0.55088 0.89949 0.0
H2864 H 0.54612 0.53515 0.91417 0.0
H2865 H 0.56998 0.54106 0.92077 0.0
H2866 H 0.57522 0.51172 0.94083 0.0
H2867 H 0.55379 0.51621 0.96811 0.0
H2868 H 0.78089 0.30552 0.04878 0.0
H2869 H 0.77223 0.28851 0.07768 0.0
H2870 H 0.72123 0.32143 0.08212 0.0
H2871 H 0.72988 0.33881 0.05328 0.0
H2872 H 0.7437 0.32535 0.11419 0.0
H2873 H 0.73414 0.24643 0.09315 0.0
H2874 H 0.75559 0.25723 0.08455 0.0
H2875 H 0.73347 0.26561 0.076 0.0
C2876 C 0.7676 0.30887 0.05559 0.0
C2877 C 0.75619 0.32374 0.04878 0.0
C2878 C 0.7626 0.29896 0.07208 0.0
C2879 C 0.74602 0.30359 0.082 0.0
C2880 C 0.73405 0.31757 0.07461 0.0
H2881 H 0.70783 0.28469 0.1977 0.0
H2882 H 0.70925 0.29014 0.16335 0.0
C2883 C 0.73903 0.3275 0.05811 0.0
C2884 C 0.74263 0.29606 0.1014 0.0
H2885 H 0.73783 0.25427 0.12674 0.0
C2886 C 0.74218 0.30982 0.11689 0.0
C2887 C 0.74097 0.27577 0.10492 0.0
C2888 C 0.7409 0.26039 0.08876 0.0
C2889 C 0.74042 0.30389 0.13582 0.0
C2890 C 0.73868 0.28362 0.13938 0.0
C2891 C 0.73912 0.26979 0.12393 0.0
C2892 C 0.73634 0.27684 0.15918 0.0
C2893 C 0.74096 0.31939 0.15192 0.0
C2894 C 0.75063 0.26651 0.16798 0.0
C2895 C 0.74977 0.26317 0.18767 0.0
C2896 C 0.73467 0.27025 0.19878 0.0
C2897 C 0.71979 0.27932 0.18958 0.0
C2898 C 0.72057 0.28246 0.16996 0.0
H2899 H 0.74697 0.33357 0.14716 0.0
H2900 H 0.72646 0.32205 0.1571 0.0
H2901 H 0.74938 0.3145 0.16417 0.0
H2902 H 0.7629 0.262 0.15986 0.0
H2903 H 0.76144 0.25616 0.19438 0.0
H2904 H 0.92241 0.47728 0.31583 0.0
H2905 H 0.92733 0.46822 0.34897 0.0
H2906 H 0.88157 0.50492 0.36757 0.0
H2907 H 0.87678 0.51436 0.33452 0.0
H2908 H 0.91333 0.51258 0.38792 0.0
H2909 H 0.89904 0.43266 0.38516 0.0
H2910 H 0.91477 0.43944 0.36633 0.0
H2911 H 0.89118 0.44849 0.36672 0.0
C2912 C 0.91324 0.48324 0.32692 0.0
C2913 C 0.89918 0.49649 0.32252 0.0
C2914 C 0.91592 0.47787 0.34584 0.0
C2915 C 0.90453 0.48556 0.36069 0.0
C2916 C 0.89032 0.49859 0.35629 0.0
H2917 H 0.95387 0.48671 0.47636 0.0
H2918 H 0.92622 0.48601 0.45539 0.0
C2919 C 0.88762 0.50396 0.33738 0.0
C2920 C 0.90906 0.48177 0.38091 0.0
H2921 H 0.92106 0.44482 0.40982 0.0
C2922 C 0.91452 0.4978 0.393 0.0
C2923 C 0.91026 0.46251 0.38759 0.0
C2924 C 0.90329 0.44482 0.37582 0.0
C2925 C 0.92316 0.49501 0.41072 0.0
C2926 C 0.92614 0.47561 0.41653 0.0
C2927 C 0.91888 0.45967 0.4053 0.0
C2928 C 0.94034 0.47164 0.4313 0.0
C2929 C 0.93059 0.51281 0.42213 0.0
C2930 C 0.95687 0.46241 0.42525 0.0
C2931 C 0.97251 0.46271 0.43714 0.0
C2932 C 0.97197 0.47228 0.45534 0.0
C2933 C 0.95478 0.47954 0.46227 0.0
C2934 C 0.93901 0.47924 0.45028 0.0
H2935 H 0.92873 0.52666 0.41452 0.0
H2936 H 0.92303 0.51416 0.43604 0.0
H2937 H 0.94576 0.51125 0.42521 0.0
H2938 H 0.95819 0.45629 0.41074 0.0
H2939 H 0.98543 0.45661 0.43152 0.0
H2940 H 0.80947 0.67323 0.52829 0.0
H2941 H 0.80277 0.68622 0.56065 0.0
H2942 H 0.75251 0.65007 0.56239 0.0
H2943 H 0.75891 0.63717 0.52982 0.0
H2944 H 0.74609 0.68726 0.5751 0.0
H2945 H 0.80895 0.66067 0.61163 0.0
H2946 H 0.81494 0.67463 0.59113 0.0
H2947 H 0.80205 0.65174 0.58791 0.0
C2948 C 0.79699 0.66795 0.53552 0.0
C2949 C 0.78476 0.65408 0.52636 0.0
C2950 C 0.79329 0.67528 0.55416 0.0
C2951 C 0.77736 0.66882 0.5642 0.0
C2952 C 0.76499 0.65515 0.55504 0.0
H2953 H 0.75662 0.70739 0.68554 0.0
H2954 H 0.76245 0.68591 0.65695 0.0
C2955 C 0.76867 0.64781 0.53637 0.0
C2956 C 0.77312 0.67719 0.58378 0.0
H2957 H 0.79211 0.68649 0.62834 0.0
C2958 C 0.75606 0.68683 0.58679 0.0
C2959 C 0.78594 0.67638 0.59924 0.0
C2960 C 0.8039 0.66511 0.59741 0.0
C2961 C 0.75193 0.69653 0.60441 0.0
C2962 C 0.76532 0.69691 0.6194 0.0
C2963 C 0.78194 0.6864 0.61679 0.0
C2964 C 0.76289 0.70956 0.63709 0.0
C2965 C 0.73333 0.70658 0.60673 0.0
C2966 C 0.76185 0.72995 0.63551 0.0
C2967 C 0.75853 0.74212 0.65166 0.0
C2968 C 0.75626 0.73429 0.66995 0.0
C2969 C 0.75816 0.7139 0.6717 0.0
C2970 C 0.76147 0.70162 0.65538 0.0
H2971 H 0.72266 0.70009 0.59662 0.0
H2972 H 0.72791 0.7056 0.62161 0.0
H2973 H 0.73519 0.72235 0.60358 0.0
H2974 H 0.76337 0.73647 0.62166 0.0
H2975 H 0.75748 0.75775 0.64966 0.0
H2976 H 0.71694 0.59382 0.49363 0.0
H2977 H 0.68494 0.58067 0.49717 0.0
H2978 H 0.67227 0.59612 0.43932 0.0
H2979 H 0.70428 0.60897 0.43552 0.0
H2980 H 0.64931 0.59709 0.49358 0.0
H2981 H 0.66057 0.53712 0.43863 0.0
H2982 H 0.67963 0.55199 0.44865 0.0
H2983 H 0.66489 0.56148 0.43045 0.0
C2984 C 0.70733 0.59453 0.48169 0.0
C2985 C 0.71328 0.60224 0.46421 0.0
C2986 C 0.68901 0.58705 0.48376 0.0
C2987 C 0.6763 0.5871 0.4684 0.0
C2988 C 0.68195 0.59555 0.45123 0.0
H2989 H 0.55711 0.54955 0.48 0.0
H2990 H 0.58522 0.56976 0.47359 0.0
C2991 C 0.70026 0.60296 0.44912 0.0
C2992 C 0.65745 0.57756 0.47014 0.0
H2993 H 0.63037 0.53919 0.45224 0.0
C2994 C 0.64509 0.58451 0.48447 0.0
C2995 C 0.65204 0.56104 0.45833 0.0
C2996 C 0.665 0.55231 0.44325 0.0
C2997 C 0.62756 0.57522 0.48747 0.0
C2998 C 0.62219 0.55869 0.47567 0.0
C2999 C 0.63443 0.55197 0.46114 0.0
C3000 C 0.60487 0.54687 0.47932 0.0
C3001 C 0.61525 0.58266 0.50372 0.0
C3002 C 0.60655 0.52724 0.48427 0.0
C3003 C 0.59064 0.5157 0.4878 0.0
C3004 C 0.57252 0.52343 0.48641 0.0
C3005 C 0.57081 0.5431 0.48123 0.0
C3006 C 0.58686 0.55472 0.47769 0.0
H3007 H 0.62287 0.59323 0.51358 0.0
H3008 H 0.60306 0.59023 0.49774 0.0
H3009 H 0.60979 0.57025 0.51211 0.0
H3010 H 0.62028 0.52085 0.48558 0.0
H3011 H 0.59263 0.50064 0.49169 0.0
H3012 H 0.21914 0.95053 0.51164 0.0
H3013 H 0.18843 0.96565 0.51004 0.0
H3014 H 0.16232 0.90848 0.50039 0.0
H3015 H 0.19305 0.89311 0.50227 0.0
H3016 H 0.16041 0.96503 0.48162 0.0
H3017 H 0.13569 0.93078 0.5484 0.0
H3018 H 0.15999 0.93082 0.5411 0.0
H3019 H 0.14349 0.91366 0.52996 0.0
C3020 C 0.20689 0.94112 0.50911 0.0
C3021 C 0.20853 0.92056 0.50731 0.0
C3022 C 0.18935 0.94983 0.50812 0.0
C3023 C 0.17308 0.93819 0.50533 0.0
C3024 C 0.17469 0.91771 0.50285 0.0
H3025 H 0.05853 0.97367 0.4864 0.0
H3026 H 0.09151 0.9659 0.48057 0.0
C3027 C 0.19226 0.90896 0.5039 0.0
C3028 C 0.15441 0.94748 0.50601 0.0
H3029 H 0.11369 0.94905 0.53174 0.0
C3030 C 0.15015 0.96157 0.49256 0.0
C3031 C 0.14121 0.94315 0.52048 0.0
C3032 C 0.14532 0.92892 0.53593 0.0
C3033 C 0.13291 0.97133 0.49312 0.0
C3034 C 0.11959 0.9667 0.50739 0.0
C3035 C 0.12393 0.95265 0.52083 0.0
C3036 C 0.10091 0.97595 0.50886 0.0
C3037 C 0.12925 0.98671 0.47869 0.0
C3038 C 0.09532 0.98488 0.52639 0.0
C3039 C 0.07651 0.98921 0.52974 0.0
C3040 C 0.06297 0.98489 0.51553 0.0
C3041 C 0.06878 0.97768 0.49737 0.0
C3042 C 0.08764 0.97312 0.49408 0.0
H3043 H 0.14249 0.9923 0.47224 0.0
H3044 H 0.12041 0.98014 0.46694 0.0
H3045 H 0.12163 -0.0007 0.48539 0.0
H3046 H 0.10531 0.98721 0.53799 0.0
H3047 H 0.07232 0.99455 0.54392 0.0
H3048 H 0.3327 0.94601 0.79711 0.0
H3049 H 0.32614 0.91109 0.79127 0.0
H3050 H 0.35824 0.91182 0.73883 0.0
H3051 H 0.36511 0.94705 0.74457 0.0
H3052 H 0.32057 0.89309 0.73693 0.0
H3053 H 0.36436 0.86534 0.7951 0.0
H3054 H 0.35003 0.88568 0.80257 0.0
H3055 H 0.36827 0.88919 0.78511 0.0
C3056 C 0.33839 0.93886 0.78428 0.0
C3057 C 0.34947 0.94939 0.77131 0.0
C3058 C 0.33476 0.91883 0.78108 0.0
C3059 C 0.34204 0.90884 0.76485 0.0
C3060 C 0.35273 0.91928 0.75158 0.0
H3061 H 0.29305 0.79234 0.73433 0.0
H3062 H 0.31771 0.81789 0.73357 0.0
C3063 C 0.35655 0.93939 0.75485 0.0
C3064 C 0.33747 0.88771 0.76158 0.0
H3065 H 0.33905 0.84402 0.78378 0.0
C3066 C 0.32496 0.88215 0.7468 0.0
C3067 C 0.34332 0.87358 0.7745 0.0
C3068 C 0.35739 0.87867 0.79012 0.0
C3069 C 0.31682 0.8632 0.74561 0.0
C3070 C 0.32173 0.84938 0.75935 0.0
C3071 C 0.33532 0.85459 0.77326 0.0
C3072 C 0.31068 0.83092 0.76142 0.0
C3073 C 0.30191 0.8587 0.73063 0.0
C3074 C 0.29959 0.82887 0.77791 0.0
C3075 C 0.28592 0.81398 0.77856 0.0
C3076 C 0.28325 0.80078 0.76282 0.0
C3077 C 0.29535 0.80181 0.74695 0.0
C3078 C 0.30915 0.8167 0.74634 0.0
H3079 H 0.29772 0.87203 0.72314 0.0
H3080 H 0.30736 0.84797 0.71971 0.0
H3081 H 0.28921 0.8521 0.73726 0.0
H3082 H 0.30052 0.83968 0.78971 0.0
H3083 H 0.27654 0.81363 0.7908 0.0
H3084 H 0.31256 0.06866 0.00352 0.0
H3085 H 0.34224 0.05145 0.00651 0.0
H3086 H 0.37115 0.09771 0.97715 0.0
H3087 H 0.34164 0.11475 0.97378 0.0
H3088 H 0.38034 0.06042 0.96289 0.0
H3089 H 0.38609 0.06572 0.04229 0.0
H3090 H 0.3643 0.05508 0.03371 0.0
H3091 H 0.36999 0.08033 0.02923 0.0
C3092 C 0.32527 0.07529 -0.00208 0.0
C3093 C 0.32472 0.09319 0.98859 0.0
C3094 C 0.34224 0.06545 -0.00035 0.0
C3095 C 0.35895 0.0734 0.9922 0.0
C3096 C 0.35844 0.09132 0.98303 0.0
H3097 H 0.47606 0.03902 -0.00337 0.0
H3098 H 0.44699 0.05406 0.98581 0.0
C3099 C 0.34154 0.10113 0.98127 0.0
C3100 C 0.37694 0.06291 0.9936 0.0
H3101 H 0.40774 0.04518 0.02574 0.0
C3102 C 0.3864 0.05716 0.97662 0.0
C3103 C 0.38487 0.05877 0.01152 0.0
C3104 C 0.37591 0.06544 0.03024 0.0
C3105 C 0.40336 0.04694 0.97713 0.0
C3106 C 0.41106 0.04253 -0.00495 0.0
C3107 C 0.40171 0.04848 0.01199 0.0
C3108 C 0.42862 0.03143 -0.00314 0.0
C3109 C 0.41265 0.04037 0.95862 0.0
C3110 C 0.42795 0.0134 0.00587 0.0
C3111 C 0.44442 0.00495 0.01203 0.0
C3112 C 0.46187 0.01428 0.00916 0.0
C3113 C 0.46278 0.0314 -0.00138 0.0
C3114 C 0.44618 0.04 0.99254 0.0
H3115 H 0.40354 0.04236 0.94597 0.0
H3116 H 0.42586 0.04898 0.95672 0.0
H3117 H 0.41635 0.02464 0.95912 0.0
H3118 H 0.41458 0.00656 0.00934 0.0
H3119 H 0.44341 0.99184 0.02032 0.0
H3120 H 0.63872 0.55161 0.72651 0.0
H3121 H 0.65147 0.58275 0.71498 0.0
H3122 H 0.68902 0.58733 0.76339 0.0
H3123 H 0.67683 0.55623 0.77468 0.0
H3124 H 0.6519 0.61955 0.73081 0.0
H3125 H 0.72502 0.59647 0.72023 0.0
H3126 H 0.70609 0.57904 0.72399 0.0
H3127 H 0.71742 0.5917 0.74413 0.0
C3128 C 0.64984 0.55914 0.73459 0.0
C3129 C 0.65685 0.55123 0.75146 0.0
C3130 C 0.65708 0.57699 0.72799 0.0
C3131 C 0.67151 0.58725 0.73807 0.0
C3132 C 0.67831 0.57947 0.75501 0.0
H3133 H 0.70463 0.70424 0.75772 0.0
H3134 H 0.68524 0.67518 0.7503 0.0
C3135 C 0.67121 0.56166 0.76153 0.0
C3136 C 0.67915 0.60641 0.73151 0.0
H3137 H 0.72052 0.63141 0.72524 0.0
C3138 C 0.66689 0.62207 0.72922 0.0
C3139 C 0.69864 0.60971 0.7288 0.0
C3140 C 0.7125 0.59325 0.7292 0.0
C3141 C 0.67371 0.64118 0.72577 0.0
C3142 C 0.69335 0.64485 0.72508 0.0
C3143 C 0.70547 0.62886 0.72595 0.0
C3144 C 0.70184 0.66513 0.72588 0.0
C3145 C 0.65974 0.6572 0.72313 0.0
C3146 C 0.71741 0.66983 0.71431 0.0
C3147 C 0.72869 0.68649 0.71877 0.0
C3148 C 0.72442 0.69886 0.73467 0.0
C3149 C 0.70788 0.69526 0.74502 0.0
C3150 C 0.69675 0.67853 0.74075 0.0
H3151 H 0.64689 0.65122 0.71585 0.0
H3152 H 0.65544 0.66335 0.73741 0.0
H3153 H 0.6657 0.66927 0.71459 0.0
H3154 H 0.72174 0.65975 0.7028 0.0
H3155 H 0.74171 0.68856 0.71101 0.0
H3156 H 0.82534 0.37887 0.00996 0.0
H3157 H 0.85583 0.39463 0.00407 0.0
H3158 H 0.82919 0.43693 0.96926 0.0
H3159 H 0.7986 0.42133 0.97508 0.0
H3160 H 0.87662 0.40698 0.96831 0.0
H3161 H 0.85249 0.46754 0.01776 0.0
H3162 H 0.84109 0.44363 0.01645 0.0
H3163 H 0.83707 0.46084 -0.00189 0.0
C3164 C 0.82599 0.39125 0.00069 0.0
C3165 C 0.80953 0.39901 0.99316 0.0
C3166 C 0.84344 0.40018 -0.00269 0.0
C3167 C 0.84466 0.41698 0.98638 0.0
C3168 C 0.82845 0.424 0.97782 0.0
H3169 H 0.92573 0.51073 0.97918 0.0
H3170 H 0.89982 0.48747 0.97287 0.0
C3171 C 0.811 0.4151 0.9812 0.0
C3172 C 0.86233 0.42861 0.98598 0.0
H3173 H 0.88196 0.47175 0.00319 0.0
C3174 C 0.87787 0.42117 0.97586 0.0
C3175 C 0.86386 0.44696 -0.00392 0.0
C3176 C 0.84783 0.45522 0.00786 0.0
C3177 C 0.89487 0.43198 0.97517 0.0
C3178 C 0.89628 0.45046 0.98511 0.0
C3179 C 0.88077 0.45767 -0.00459 0.0
C3180 C 0.91355 0.4629 0.98523 0.0
C3181 C 0.911 0.42378 0.96357 0.0
C3182 C 0.93017 0.45659 0.99366 0.0
C3183 C 0.94515 0.46988 -0.0029 0.0
C3184 C 0.94349 0.48966 0.99247 0.0
C3185 C 0.92728 0.4956 0.98306 0.0
C3186 C 0.9125 0.48232 0.9794 0.0
H3187 H 0.90623 0.41208 0.95304 0.0
H3188 H 0.9184 0.43555 0.95576 0.0
H3189 H 0.9212 0.41728 0.97338 0.0
H3190 H 0.93114 0.44178 -0.00137 0.0
H3191 H 0.95744 0.46501 0.00451 0.0
H3192 H 0.30737 0.04237 0.77713 0.0
H3193 H 0.29047 0.07069 0.76648 0.0
H3194 H 0.33015 0.07736 0.7203 0.0
H3195 H 0.34742 0.04915 0.73103 0.0
H3196 H 0.32779 0.11002 0.74467 0.0
H3197 H 0.25634 0.08488 0.72248 0.0
H3198 H 0.26336 0.07639 0.74539 0.0
H3199 H 0.2757 0.06828 0.72409 0.0
C3200 C 0.31228 0.04949 0.76439 0.0
C3201 C 0.32895 0.04362 0.75511 0.0
C3202 C 0.30246 0.06563 0.75823 0.0
C3203 C 0.30899 0.0761 0.74255 0.0
C3204 C 0.32484 0.06943 0.73241 0.0
H3205 H 0.28912 0.19215 0.70294 0.0
H3206 H 0.29683 0.15767 0.70559 0.0
C3207 C 0.33469 0.05327 0.73856 0.0
C3208 C 0.30117 0.09557 0.73874 0.0
H3209 H 0.26086 0.11951 0.72862 0.0
C3210 C 0.31321 0.11205 0.74093 0.0
C3211 C 0.28206 0.09821 0.73421 0.0
C3212 C 0.26863 0.08099 0.73124 0.0
C3213 C 0.30665 0.13111 0.73897 0.0
C3214 C 0.28759 0.13378 0.73434 0.0
C3215 C 0.27547 0.11736 0.73217 0.0
C3216 C 0.28039 0.15365 0.73128 0.0
C3217 C 0.32013 0.1483 0.74224 0.0
C3218 C 0.26787 0.16254 0.7444 0.0
C3219 C 0.2633 0.18235 0.74288 0.0
C3220 C 0.27131 0.19349 0.72827 0.0
C3221 C 0.28295 0.1841 0.71456 0.0
C3222 C 0.28736 0.16438 0.71601 0.0
H3223 H 0.33288 0.14409 0.75011 0.0
H3224 H 0.32463 0.15385 0.72817 0.0
H3225 H 0.31329 0.1605 0.75046 0.0
H3226 H 0.26231 0.15442 0.75627 0.0
H3227 H 0.25424 0.18914 0.75362 0.0
H3228 H 0.1405 0.94191 0.24152 0.0
H3229 H 0.15158 0.90813 0.23797 0.0
H3230 H 0.19843 0.92316 0.27505 0.0
H3231 H 0.18739 0.9568 0.27888 0.0
H3232 H 0.18506 0.89062 0.22617 0.0
H3233 H 0.17162 0.8791 0.30333 0.0
H3234 H 0.1631 0.90012 0.29126 0.0
H3235 H 0.18712 0.89956 0.29904 0.0
C3236 C 0.15344 0.93818 0.24851 0.0
C3237 C 0.16293 0.95202 0.26068 0.0
C3238 C 0.15966 0.91881 0.24661 0.0
C3239 C 0.17545 0.91298 0.2568 0.0
C3240 C 0.18586 0.92718 0.26756 0.0
H3241 H 0.24104 0.80998 0.26353 0.0
H3242 H 0.22476 0.84063 0.27147 0.0
C3243 C 0.17963 0.94648 0.26955 0.0
C3244 C 0.18075 0.89199 0.25672 0.0
H3245 H 0.18807 0.85383 0.28614 0.0
C3246 C 0.18554 0.88251 0.23924 0.0
C3247 C 0.18129 0.88141 0.27381 0.0
C3248 C 0.17534 0.89048 0.29291 0.0
C3249 C 0.1915 0.86296 0.23845 0.0
C3250 C 0.19236 0.8525 0.25559 0.0
C3251 C 0.18731 0.86186 0.27304 0.0
C3252 C 0.19965 0.83224 0.25556 0.0
C3253 C 0.19748 0.85388 0.21936 0.0
C3254 C 0.19032 0.81685 0.24529 0.0
C3255 C 0.19955 0.79929 0.24093 0.0
C3256 C 0.21808 0.79685 0.24702 0.0
C3257 C 0.22656 0.81136 0.25912 0.0
C3258 C 0.21736 0.82894 0.26345 0.0
H3259 H 0.19946 0.86505 0.20831 0.0
H3260 H 0.21079 0.84586 0.22082 0.0
H3261 H 0.18652 0.84317 0.21417 0.0
H3262 H 0.17655 0.81903 0.23927 0.0
H3263 H 0.19293 0.78848 0.23119 0.0
H3264 H 0.50847 0.30943 0.38147 0.0
H3265 H 0.51171 0.34253 0.39637 0.0
H3266 H 0.45648 0.33677 0.4211 0.0
H3267 H 0.45316 0.30373 0.40657 0.0
H3268 H 0.48863 0.37591 0.39193 0.0
H3269 H 0.48934 0.35268 0.46746 0.0
H3270 H 0.49289 0.33566 0.44735 0.0
H3271 H 0.46967 0.34363 0.45346 0.0
C3272 C 0.49706 0.31512 0.39021 0.0
C3273 C 0.48061 0.30376 0.39289 0.0
C3274 C 0.4989 0.33409 0.39863 0.0
C3275 C 0.4844 0.34207 0.41 0.0
C3276 C 0.46797 0.33083 0.41265 0.0
H3277 H 0.48653 0.44983 0.48312 0.0
H3278 H 0.47296 0.42325 0.46227 0.0
C3279 C 0.4661 0.3119 0.40426 0.0
C3280 C 0.48649 0.3621 0.41914 0.0
H3281 H 0.48967 0.3867 0.46268 0.0
C3282 C 0.4888 0.37829 0.4074 0.0
C3283 C 0.48648 0.36524 0.43932 0.0
C3284 C 0.48462 0.3484 0.45269 0.0
C3285 C 0.49137 0.39747 0.41533 0.0
C3286 C 0.49195 0.40051 0.43551 0.0
C3287 C 0.48905 0.38441 0.44721 0.0
C3288 C 0.49796 0.41961 0.44485 0.0
C3289 C 0.49346 0.41435 0.40207 0.0
C3290 C 0.51619 0.4269 0.44155 0.0
C3291 C 0.52384 0.44195 0.45343 0.0
C3292 C 0.51338 0.45016 0.4687 0.0
C3293 C 0.49465 0.44406 0.47112 0.0
C3294 C 0.487 0.42876 0.45933 0.0
H3295 H 0.4869 0.41077 0.38789 0.0
H3296 H 0.48701 0.42783 0.4084 0.0
H3297 H 0.5086 0.4175 0.39964 0.0
H3298 H 0.52508 0.41987 0.43081 0.0
H3299 H 0.53845 0.44618 0.45155 0.0
H3300 H 0.45746 0.73008 0.20244 0.0
H3301 H 0.4286 0.72385 0.22075 0.0
H3302 H 0.39575 0.74554 0.17457 0.0
H3303 H 0.42424 0.75203 0.15644 0.0
H3304 H 0.40187 0.75328 0.23181 0.0
H3305 H 0.36909 0.69299 0.18733 0.0
H3306 H 0.39389 0.69896 0.18633 0.0
H3307 H 0.37737 0.71296 0.17331 0.0
C3308 C 0.44406 0.73328 0.1961 0.0
C3309 C 0.44317 0.74141 0.17788 0.0
C3310 C 0.42762 0.7297 0.20658 0.0
C3311 C 0.41005 0.73391 0.19886 0.0
C3312 C 0.40914 0.74176 0.1806 0.0
H3313 H 0.30706 0.7771 0.22846 0.0
H3314 H 0.34024 0.7699 0.22455 0.0
C3315 C 0.4255 0.74551 0.17025 0.0
C3316 C 0.39259 0.73178 0.21023 0.0
H3317 H 0.34797 0.71297 0.20663 0.0
C3318 C 0.3902 0.7441 0.22662 0.0
C3319 C 0.37749 0.71956 0.20365 0.0
C3320 C 0.37961 0.70521 0.1868 0.0
C3321 C 0.37261 0.74579 0.23557 0.0
C3322 C 0.35706 0.73502 0.2278 0.0
C3323 C 0.35986 0.72138 0.21248 0.0
C3324 C 0.33751 0.73981 0.23325 0.0
C3325 C 0.37064 0.75972 0.25277 0.0
C3326 C 0.3249 0.72529 0.23954 0.0
C3327 C 0.30582 0.72944 0.24186 0.0
C3328 C 0.29906 0.74801 0.23754 0.0
C3329 C 0.31185 0.76265 0.2319 0.0
C3330 C 0.33086 0.7586 0.22981 0.0
H3331 H 0.38405 0.76135 0.26082 0.0
H3332 H 0.3669 0.77444 0.24785 0.0
H3333 H 0.35946 0.75462 0.26264 0.0
H3334 H 0.32971 0.71061 0.24203 0.0
H3335 H 0.29624 0.71782 0.24598 0.0
H3336 H 0.01368 0.71044 0.89611 0.0
H3337 H 0.02178 0.68246 0.91525 0.0
H3338 H 0.9633 0.67325 0.92893 0.0
H3339 H 0.95513 0.7014 0.91033 0.0
H3340 H 0.98507 0.66975 0.95986 0.0
H3341 H 0.01423 0.62522 0.89873 0.0
H3342 H 0.02544 0.64882 0.903 0.0
H3343 H 0.00135 0.64737 0.89542 0.0
C3344 C 0.00254 0.70256 0.90331 0.0
C3345 C 0.98371 0.70818 0.90156 0.0
C3346 C 0.0072 0.68643 0.91411 0.0
C3347 C -0.00688 0.67544 0.92319 0.0
C3348 C 0.97442 0.6814 0.92197 0.0
H3349 H 0.97816 0.56033 0.96173 0.0
H3350 H 0.9855 0.58873 0.94247 0.0
C3351 C 0.96976 0.69757 0.91132 0.0
C3352 C -0.0024 0.6577 0.93401 0.0
H3353 H 0.01459 0.61112 0.92907 0.0
C3354 C 0.9917 0.65699 0.95318 0.0
C3355 C 0.00611 0.64098 0.92523 0.0
C3356 C 0.01202 0.64047 0.90442 0.0
C3357 C -0.00654 0.63992 0.96363 0.0
C3358 C 0.00196 0.62317 0.95488 0.0
C3359 C 0.00836 0.62403 0.93586 0.0
C3360 C 0.00213 0.60404 0.96451 0.0
C3361 C 0.98516 0.6397 0.98359 0.0
C3362 C 0.01016 0.60249 0.98277 0.0
C3363 C 0.00586 0.58625 0.99381 0.0
C3364 C -0.00597 0.57106 0.98648 0.0
C3365 C 0.98773 0.57163 0.96748 0.0
C3366 C 0.99181 0.58795 0.95653 0.0
H3367 H 0.97557 0.65215 0.98646 0.0
H3368 H 0.97722 0.62578 0.98577 0.0
H3369 H -0.00336 0.64094 -0.00569 0.0
H3370 H 0.0185 0.61452 0.98908 0.0
H3371 H 0.01036 0.58643 0.00864 0.0
H3372 H 0.04474 0.22296 0.65264 0.0
H3373 H 0.07747 0.21408 0.65689 0.0
H3374 H 0.09468 0.27474 0.65208 0.0
H3375 H 0.06193 0.28378 0.64748 0.0
H3376 H 0.11942 0.24612 0.6332 0.0
H3377 H 0.10229 0.22978 0.7089 0.0
H3378 H 0.08816 0.21685 0.69105 0.0
H3379 H 0.0867 0.2431 0.69403 0.0
C3380 C 0.05548 0.23442 0.65231 0.0
C3381 C 0.05071 0.25414 0.65005 0.0
C3382 C 0.07417 0.22929 0.65469 0.0
C3383 C 0.08841 0.2438 0.65505 0.0
C3384 C 0.08385 0.26334 0.65185 0.0
H3385 H 0.19935 0.26192 0.69393 0.0
H3386 H 0.17237 0.26028 0.67252 0.0
C3387 C 0.06513 0.26849 0.64934 0.0
C3388 C 0.10773 0.23889 0.66061 0.0
H3389 H 0.13319 0.22474 0.69877 0.0
C3390 C 0.12249 0.24128 0.64747 0.0
C3391 C 0.11162 0.23261 0.67923 0.0
C3392 C 0.09643 0.23056 0.69421 0.0
C3393 C 0.14115 0.23763 0.65257 0.0
C3394 C 0.14507 0.23174 0.67136 0.0
C3395 C 0.13019 0.22897 0.68428 0.0
C3396 C 0.1644 0.23038 0.67895 0.0
C3397 C 0.15646 0.24017 0.63785 0.0
C3398 C 0.16942 0.21389 0.68916 0.0
C3399 C 0.18482 0.21491 0.70153 0.0
C3400 C 0.19561 0.2323 0.70357 0.0
C3401 C 0.19172 0.24808 0.69197 0.0
C3402 C 0.17619 0.24716 0.67977 0.0
H3403 H 0.15095 0.23764 0.62305 0.0
H3404 H 0.16211 0.25546 0.63908 0.0
H3405 H 0.16816 0.22997 0.64006 0.0
H3406 H 0.16047 0.20083 0.68884 0.0
H3407 H 0.18739 0.20271 0.71063 0.0
H3408 H 0.44847 0.68511 0.10899 0.0
H3409 H 0.45595 0.65193 0.09708 0.0
H3410 H 0.51482 0.66431 0.10695 0.0
H3411 H 0.50742 0.69722 0.11945 0.0
H3412 H 0.47555 0.64227 0.06665 0.0
H3413 H 0.51025 0.61097 0.12901 0.0
H3414 H 0.49718 0.63342 0.13094 0.0
H3415 H 0.52115 0.63377 0.12267 0.0
C3416 C 0.46299 0.68071 0.10879 0.0
C3417 C 0.47734 0.69383 0.11516 0.0
C3418 C 0.46725 0.66171 0.10206 0.0
C3419 C 0.48592 0.65546 0.10145 0.0
C3420 C 0.50026 0.66853 0.10783 0.0
H3421 H 0.52724 0.57206 0.01851 0.0
H3422 H 0.52334 0.59984 0.04123 0.0
C3423 C 0.49601 0.68745 0.11478 0.0
C3424 C 0.49053 0.63603 0.09243 0.0
H3425 H 0.51556 0.59432 0.09833 0.0
C3426 C 0.48411 0.63173 0.07372 0.0
C3427 C 0.50152 0.6221 0.1017 0.0
C3428 C 0.50775 0.6252 0.12226 0.0
C3429 C 0.48886 0.61427 0.06377 0.0
C3430 C 0.50084 0.60095 0.07255 0.0
C3431 C 0.5067 0.60478 0.09153 0.0
C3432 C 0.50747 0.58325 0.06177 0.0
C3433 C 0.481 0.61027 0.04387 0.0
C3434 C 0.50123 0.56441 0.06663 0.0
C3435 C 0.50379 0.54833 0.05378 0.0
C3436 C 0.51233 0.5511 0.03586 0.0
C3437 C 0.52034 0.56958 0.03208 0.0
C3438 C 0.51806 0.58547 0.04501 0.0
H3439 H 0.46829 0.61902 0.04139 0.0
H3440 H 0.49172 0.61436 0.03309 0.0
H3441 H 0.47731 0.59445 0.04144 0.0
H3442 H 0.49322 0.5624 0.07965 0.0
H3443 H 0.49769 0.53424 0.05717 0.0
H3444 H 0.05529 0.75998 0.86141 0.0
H3445 H 0.08932 0.76008 0.85621 0.0
H3446 H 0.08131 0.72783 0.80228 0.0
H3447 H 0.04746 0.72713 0.80763 0.0
H3448 H 0.11101 0.71417 0.82206 0.0
H3449 H 0.1154 0.79559 0.81915 0.0
H3450 H 0.10592 0.78678 0.84113 0.0
H3451 H 0.09331 0.78225 0.81904 0.0
C3452 C 0.0608 0.7529 0.84847 0.0
C3453 C 0.04866 0.74373 0.83484 0.0
C3454 C 0.08023 0.753 0.84549 0.0
C3455 C 0.08784 0.74424 0.8287 0.0
C3456 C 0.07577 0.7347 0.81533 0.0
H3457 H 0.18701 0.74499 0.7615 0.0
H3458 H 0.15872 0.73378 0.77814 0.0
C3459 C 0.0564 0.7344 0.81838 0.0
C3460 C 0.10825 0.74563 0.82452 0.0
H3461 H 0.14357 0.77858 0.81568 0.0
C3462 C 0.1182 0.72825 0.82082 0.0
C3463 C 0.11759 0.76401 0.82282 0.0
C3464 C 0.10751 0.78323 0.82556 0.0
C3465 C 0.13717 0.72877 0.81524 0.0
C3466 C 0.14637 0.74715 0.81323 0.0
C3467 C 0.13656 0.76448 0.81746 0.0
C3468 C 0.16554 0.74914 0.8051 0.0
C3469 C 0.14709 0.70967 0.81132 0.0
C3470 C 0.1791 0.76091 0.81487 0.0
C3471 C 0.1952 0.76735 0.80532 0.0
C3472 C 0.19807 0.76188 0.78596 0.0
C3473 C 0.18534 0.74884 0.77663 0.0
C3474 C 0.16914 0.74249 0.78613 0.0
H3475 H 0.1407 0.69763 0.81961 0.0
H3476 H 0.14574 0.70544 0.79585 0.0
H3477 H 0.16225 0.71103 0.81488 0.0
H3478 H 0.17655 0.76634 0.82944 0.0
H3479 H 0.20466 0.7778 0.81261 0.0
H3480 H 0.95879 0.28188 0.57942 0.0
H3481 H 0.96576 0.30798 0.55725 0.0
H3482 H 0.01519 0.32468 0.59006 0.0
H3483 H 0.00873 0.2982 0.61176 0.0
H3484 H 0.96472 0.34474 0.56688 0.0
H3485 H 0.03549 0.33182 0.53763 0.0
H3486 H 0.02231 0.31303 0.5497 0.0
H3487 H 0.03602 0.33125 0.56327 0.0
C3488 C 0.97141 0.2908 0.58163 0.0
C3489 C 0.98314 0.28802 0.59744 0.0
C3490 C 0.9754 0.30571 0.56891 0.0
C3491 C 0.99112 0.31825 0.5718 0.0
C3492 C 0.00328 0.31492 0.58712 0.0
H3493 H -0.00057 0.43974 0.56543 0.0
H3494 H -0.00295 0.40493 0.57155 0.0
C3495 C -0.00055 0.29984 0.59967 0.0
C3496 C -0.00675 0.33643 0.56077 0.0
H3497 H 0.0257 0.36613 0.53938 0.0
C3498 C 0.97796 0.34912 0.56046 0.0
C3499 C 0.0104 0.34223 0.55212 0.0
C3500 C 0.02689 0.32872 0.55051 0.0
C3501 C 0.97971 0.36787 0.55299 0.0
C3502 C -0.00267 0.37432 0.54602 0.0
C3503 C 0.01228 0.36123 0.54503 0.0
C3504 C 0.00076 0.39526 0.54191 0.0
C3505 C 0.96284 0.38094 0.55332 0.0
C3506 C 0.00442 0.40136 0.52324 0.0
C3507 C 0.00586 0.42148 0.51961 0.0
C3508 C 0.00363 0.43567 0.53464 0.0
C3509 C 0.00089 0.4293 0.55342 0.0
C3510 C -0.00047 0.40936 0.55699 0.0
H3511 H 0.94952 0.37219 0.55361 0.0
H3512 H 0.96332 0.3907 0.56644 0.0
H3513 H 0.96274 0.3903 0.54064 0.0
H3514 H 0.00555 0.39062 0.51144 0.0
H3515 H 0.0081 0.4259 0.50502 0.0
H3516 H 0.46378 0.28219 0.30294 0.0
H3517 H 0.43553 0.28895 0.28452 0.0
H3518 H 0.40237 0.25387 0.32262 0.0
H3519 H 0.43034 0.24722 0.34111 0.0
H3520 H 0.41323 0.2621 0.26505 0.0
H3521 H 0.37067 0.30235 0.31926 0.0
H3522 H 0.39555 0.29889 0.32217 0.0
H3523 H 0.37896 0.27987 0.32841 0.0
C3524 C 0.45041 0.27619 0.30758 0.0
C3525 C 0.44931 0.26425 0.32358 0.0
C3526 C 0.43429 0.28006 0.29702 0.0
C3527 C 0.41677 0.2722 0.30237 0.0
C3528 C 0.41563 0.26054 0.31851 0.0
H3529 H 0.3223 0.22519 0.24857 0.0
H3530 H 0.35421 0.23554 0.25701 0.0
C3531 C 0.43169 0.25666 0.32904 0.0
C3532 C 0.39989 0.27465 0.29033 0.0
H3533 H 0.35336 0.2852 0.29355 0.0
C3534 C 0.40022 0.26756 0.27115 0.0
C3535 C 0.38301 0.28221 0.29807 0.0
C3536 C 0.38207 0.29146 0.31805 0.0
C3537 C 0.38379 0.26631 0.26005 0.0
C3538 C 0.36654 0.27198 0.26848 0.0
C3539 C 0.36652 0.28061 0.28711 0.0
C3540 C 0.34818 0.26658 0.25949 0.0
C3541 C 0.38499 0.25838 0.2396 0.0
C3542 C 0.3341 0.28059 0.25778 0.0
C3543 C 0.31571 0.27462 0.25298 0.0
C3544 C 0.31113 0.25457 0.25001 0.0
C3545 C 0.32547 0.24075 0.25062 0.0
C3546 C 0.34378 0.24669 0.25533 0.0
H3547 H 0.39886 0.26202 0.23319 0.0
H3548 H 0.38348 0.24212 0.23937 0.0
H3549 H 0.37379 0.2643 0.23055 0.0
H3550 H 0.3371 0.29599 0.26115 0.0
H3551 H 0.30484 0.2855 0.25314 0.0
H3552 H 0.4441 0.47379 0.2758 0.0
H3553 H 0.46416 0.4673 0.30323 0.0
H3554 H 0.42779 0.50157 0.34037 0.0
H3555 H 0.40766 0.50797 0.31319 0.0
H3556 H 0.48353 0.49495 0.32481 0.0
H3557 H 0.43594 0.4536 0.37176 0.0
H3558 H 0.43102 0.45662 0.34665 0.0
H3559 H 0.42518 0.4756 0.36426 0.0
C3560 C 0.44018 0.47964 0.28989 0.0
C3561 C 0.42423 0.49136 0.29232 0.0
C3562 C 0.45168 0.47592 0.30553 0.0
C3563 C 0.44734 0.4837 0.32391 0.0
C3564 C 0.43117 0.49499 0.32643 0.0
H3565 H 0.50219 0.5352 0.4162 0.0
H3566 H 0.49343 0.52323 0.3841 0.0
C3567 C 0.41971 0.49874 0.31082 0.0
C3568 C 0.46051 0.48178 0.34016 0.0
H3569 H 0.46134 0.47204 0.38773 0.0
C3570 C 0.47883 0.48951 0.33846 0.0
C3571 C 0.45461 0.47425 0.35784 0.0
C3572 C 0.43567 0.46435 0.36018 0.0
C3573 C 0.49078 0.4915 0.35443 0.0
C3574 C 0.4841 0.48593 0.37259 0.0
C3575 C 0.46643 0.47656 0.37388 0.0
C3576 C 0.49367 0.49243 0.3907 0.0
C3577 C 0.51019 0.50021 0.35182 0.0
C3578 C 0.49719 0.4791 0.40509 0.0
C3579 C 0.5022 0.48598 0.42362 0.0
C3580 C 0.50346 0.5063 0.42804 0.0
C3581 C 0.50133 0.51948 0.41323 0.0
C3582 C 0.49644 0.51262 0.39478 0.0
H3583 H 0.51572 0.49641 0.33726 0.0
H3584 H 0.50953 0.51647 0.35327 0.0
H3585 H 0.52013 0.49503 0.36267 0.0
H3586 H 0.49503 0.46347 0.40228 0.0
H3587 H 0.50355 0.47548 0.43477 0.0
H3588 H 0.23771 0.62965 0.04714 0.0
H3589 H 0.22818 0.6428 0.07872 0.0
H3590 H 0.28403 0.66658 0.08828 0.0
H3591 H 0.2937 0.65372 0.05664 0.0
H3592 H 0.24225 0.63643 0.11585 0.0
H3593 H 0.25033 0.71437 0.09632 0.0
H3594 H 0.25004 0.69432 0.07862 0.0
H3595 H 0.271 0.70013 0.09216 0.0
C3596 C 0.24801 0.63767 0.05593 0.0
C3597 C 0.26647 0.64077 0.04924 0.0
C3598 C 0.24253 0.64511 0.07401 0.0
C3599 C 0.25533 0.65585 0.08573 0.0
C3600 C 0.27385 0.6586 0.07931 0.0
H3601 H 0.25157 0.69419 0.20492 0.0
H3602 H 0.25397 0.67351 0.17555 0.0
C3603 C 0.27935 0.65121 0.06122 0.0
C3604 C 0.24922 0.6646 0.10445 0.0
H3605 H 0.24515 0.70849 0.12918 0.0
C3606 C 0.24275 0.65219 0.11878 0.0
C3607 C 0.24963 0.68517 0.10811 0.0
C3608 C 0.25545 0.69931 0.09295 0.0
C3609 C 0.23711 0.65983 0.13688 0.0
C3610 C 0.23818 0.68036 0.14075 0.0
C3611 C 0.24432 0.69273 0.12625 0.0
C3612 C 0.23357 0.68962 0.15977 0.0
C3613 C 0.22989 0.64588 0.1516 0.0
C3614 C 0.22095 0.70521 0.1609 0.0
C3615 C 0.21972 0.71709 0.17761 0.0
C3616 C 0.23089 0.71342 0.19357 0.0
C3617 C 0.24238 0.6969 0.19303 0.0
C3618 C 0.24381 0.68513 0.17618 0.0
H3619 H 0.2246 0.63185 0.14473 0.0
H3620 H 0.24153 0.64238 0.16136 0.0
H3621 H 0.21845 0.65253 0.16035 0.0
H3622 H 0.21294 0.70897 0.14843 0.0
H3623 H 0.21093 0.7299 0.17764 0.0
H3624 H 0.05099 0.52026 0.78247 0.0
H3625 H 0.03193 0.52917 0.81084 0.0
H3626 H 0.07144 0.50092 0.8469 0.0
H3627 H 0.09018 0.49165 0.81893 0.0
H3628 H 0.01651 0.50101 0.83881 0.0
H3629 H 0.0644 0.55761 0.87187 0.0
H3630 H 0.06491 0.55076 0.84655 0.0
H3631 H 0.07622 0.5358 0.8636 0.0
C3632 C 0.05564 0.51605 0.79647 0.0
C3633 C 0.07226 0.50545 0.79845 0.0
C3634 C 0.04476 0.52117 0.81262 0.0
C3635 C 0.05051 0.51601 0.83095 0.0
C3636 C 0.067 0.50541 0.83291 0.0
H3637 H 0.01899 0.47939 0.93513 0.0
H3638 H 0.02194 0.48568 0.90114 0.0
C3639 C 0.07772 0.50012 0.81685 0.0
C3640 C 0.03906 0.52056 0.84821 0.0
H3641 H 0.04357 0.54082 0.89347 0.0
C3642 C 0.02209 0.51016 0.85062 0.0
C3643 C 0.0462 0.53276 0.86345 0.0
C3644 C 0.06385 0.54504 0.86122 0.0
C3645 C 0.01306 0.51016 0.86854 0.0
C3646 C 0.02136 0.52065 0.88436 0.0
C3647 C 0.03727 0.53262 0.88139 0.0
C3648 C 0.01599 0.51669 0.9044 0.0
C3649 C -0.00476 0.49812 0.87062 0.0
C3650 C 0.01157 0.53203 0.91761 0.0
C3651 C 0.00986 0.52842 0.9372 0.0
C3652 C 0.01293 0.50952 0.94382 0.0
C3653 C 0.01658 0.49411 0.93044 0.0
C3654 C 0.01808 0.49765 0.91096 0.0
H3655 H 0.9872 0.49727 0.85698 0.0
H3656 H -0.00113 0.48291 0.87417 0.0
H3657 H 0.98617 0.50433 0.88222 0.0
H3658 H 0.01017 0.54689 0.91287 0.0
H3659 H 0.00729 0.54059 0.94724 0.0
H3660 H 0.27411 0.31437 0.5483 0.0
H3661 H 0.26268 0.29901 0.57699 0.0
H3662 H 0.21058 0.32983 0.57316 0.0
H3663 H 0.22226 0.34594 0.5446 0.0
H3664 H 0.22375 0.33498 0.60746 0.0
H3665 H 0.22759 0.2559 0.59025 0.0
H3666 H 0.24974 0.26688 0.58423 0.0
H3667 H 0.2288 0.27375 0.57179 0.0
C3668 C 0.26003 0.31758 0.5532 0.0
C3669 C 0.24918 0.33152 0.54413 0.0
C3670 C 0.2534 0.30859 0.56961 0.0
C3671 C 0.23561 0.31297 0.57717 0.0
C3672 C 0.22431 0.32611 0.56757 0.0
H3673 H 0.23314 0.25176 0.68451 0.0
H3674 H 0.21759 0.26383 0.65603 0.0
C3675 C 0.23101 0.33528 0.5512 0.0
C3676 C 0.23017 0.30584 0.59635 0.0
H3677 H 0.23467 0.26599 0.62394 0.0
C3678 C 0.2256 0.31976 0.61096 0.0
C3679 C 0.23186 0.28591 0.60103 0.0
C3680 C 0.23453 0.26978 0.58588 0.0
C3681 C 0.22476 0.31467 0.63027 0.0
C3682 C 0.22924 0.29534 0.63516 0.0
C3683 C 0.23168 0.28097 0.62038 0.0
C3684 C 0.23461 0.29049 0.65502 0.0
C3685 C 0.21979 0.3303 0.64525 0.0
C3686 C 0.24882 0.30174 0.66442 0.0
C3687 C 0.25731 0.29505 0.68087 0.0
C3688 C 0.25185 0.27697 0.68824 0.0
C3689 C 0.23696 0.26618 0.6796 0.0
C3690 C 0.22832 0.27294 0.66313 0.0
H3691 H 0.20905 0.34018 0.63964 0.0
H3692 H 0.21435 0.32385 0.65859 0.0
H3693 H 0.23245 0.33948 0.64876 0.0
H3694 H 0.25448 0.31493 0.65822 0.0
H3695 H 0.26912 0.30333 0.68701 0.0
H3696 H 0.39841 0.55178 0.18358 0.0
H3697 H 0.40733 0.55155 0.14969 0.0
H3698 H 0.40804 0.48819 0.14822 0.0
H3699 H 0.39888 0.48826 0.18195 0.0
H3700 H 0.43986 0.53792 0.13584 0.0
H3701 H 0.3822 0.49782 0.09815 0.0
H3702 H 0.37959 0.50823 0.12223 0.0
H3703 H 0.38966 0.48432 0.11822 0.0
C3704 C 0.40011 0.53777 0.17595 0.0
C3705 C 0.39803 0.52002 0.1855 0.0
C3706 C 0.40517 0.53769 0.15656 0.0
C3707 C 0.40808 0.51987 0.14631 0.0
C3708 C 0.40538 0.50212 0.15566 0.0
H3709 H 0.47192 0.45829 0.07469 0.0
H3710 H 0.4488 0.47496 0.09457 0.0
C3711 C 0.4003 0.50218 0.17503 0.0
C3712 C 0.41626 0.51964 0.12672 0.0
H3713 H 0.41351 0.4942 0.08369 0.0
C3714 C 0.43382 0.52892 0.12416 0.0
C3715 C 0.40825 0.50822 0.11136 0.0
C3716 C 0.38877 0.49929 0.11258 0.0
C3717 C 0.4445 0.52518 0.10752 0.0
C3718 C 0.43737 0.51187 0.09316 0.0
C3719 C 0.419 0.5043 0.09482 0.0
C3720 C 0.45013 0.50198 0.0793 0.0
C3721 C 0.46404 0.53396 0.10616 0.0
C3722 C 0.45843 0.51161 0.06388 0.0
C3723 C 0.47183 0.50196 0.0523 0.0
C3724 C 0.47715 0.48276 0.05619 0.0
C3725 C 0.46834 0.47315 0.07135 0.0
C3726 C 0.45498 0.48261 0.0827 0.0
H3727 H 0.4675 0.54407 0.11859 0.0
H3728 H 0.4745 0.52207 0.1054 0.0
H3729 H 0.46537 0.54225 0.09283 0.0
H3730 H 0.45476 0.52656 0.06098 0.0
H3731 H 0.47812 0.5096 0.04056 0.0
H3732 H 0.29413 0.67397 0.95462 0.0
H3733 H 0.28769 0.69481 0.92797 0.0
H3734 H 0.22895 0.67864 0.93071 0.0
H3735 H 0.23538 0.65718 0.95712 0.0
H3736 H 0.24183 0.67228 0.896 0.0
H3737 H 0.26538 0.74701 0.91935 0.0
H3738 H 0.28355 0.72979 0.92322 0.0
H3739 H 0.26167 0.72775 0.93611 0.0
C3740 C 0.27974 0.67516 0.94991 0.0
C3741 C 0.26531 0.66371 0.95795 0.0
C3742 C 0.27605 0.68729 0.93472 0.0
C3743 C 0.25778 0.68855 0.92742 0.0
C3744 C 0.24315 0.67799 0.93612 0.0
H3745 H 0.23466 0.74601 0.81801 0.0
H3746 H 0.23286 0.73981 0.85251 0.0
C3747 C 0.24686 0.66569 0.95123 0.0
C3748 C 0.25458 0.69846 0.90909 0.0
H3749 H 0.2659 0.73972 0.88473 0.0
C3750 C 0.24667 0.68721 0.89374 0.0
C3751 C 0.26077 0.718 0.90601 0.0
C3752 C 0.26812 0.73138 0.92214 0.0
C3753 C 0.24591 0.69446 0.87523 0.0
C3754 C 0.25346 0.71335 0.87188 0.0
C3755 C 0.26031 0.72514 0.88735 0.0
C3756 C 0.25612 0.71987 0.85205 0.0
C3757 C 0.23779 0.68153 0.85912 0.0
C3758 C 0.27016 0.71121 0.84066 0.0
C3759 C 0.2712 0.71464 0.82112 0.0
C3760 C 0.25823 0.72687 0.81253 0.0
C3761 C 0.24489 0.73659 0.82422 0.0
C3762 C 0.24381 0.73304 0.84389 0.0
H3763 H 0.22908 0.66925 0.8646 0.0
H3764 H 0.22907 0.69023 0.84952 0.0
H3765 H 0.24941 0.67516 0.85044 0.0
H3766 H 0.27982 0.70108 0.84676 0.0
H3767 H 0.28175 0.70708 0.81258 0.0
H3768 H 0.12769 0.5056 0.69183 0.0
H3769 H 0.12997 0.51039 0.65721 0.0
H3770 H 0.07377 0.48663 0.64981 0.0
H3771 H 0.07162 0.48127 0.68407 0.0
H3772 H 0.09814 0.47227 0.62244 0.0
H3773 H 0.10467 0.55394 0.62963 0.0
H3774 H 0.12209 0.53968 0.64105 0.0
H3775 H 0.09835 0.53932 0.64975 0.0
C3776 C 0.11584 0.50138 0.68278 0.0
C3777 C 0.09941 0.49317 0.69069 0.0
C3778 C 0.11716 0.50419 0.66302 0.0
C3779 C 0.10196 0.49908 0.65095 0.0
C3780 C 0.0857 0.49063 0.65884 0.0
H3781 H 0.03494 0.53209 0.57233 0.0
H3782 H 0.06083 0.53195 0.59463 0.0
C3783 C 0.08445 0.48764 0.67846 0.0
C3784 C 0.10227 0.50291 0.63016 0.0
H3785 H 0.09701 0.54018 0.59948 0.0
C3786 C 0.09833 0.48708 0.61722 0.0
C3787 C 0.10295 0.52222 0.6234 0.0
C3788 C 0.10716 0.53984 0.63661 0.0
C3789 C 0.09268 0.49014 0.59834 0.0
C3790 C 0.09143 0.50966 0.59213 0.0
C3791 C 0.09784 0.52528 0.60432 0.0
C3792 C 0.07885 0.51432 0.57605 0.0
C3793 C 0.08617 0.47257 0.58603 0.0
C3794 C 0.08083 0.50583 0.55746 0.0
C3795 C 0.0657 0.50564 0.54461 0.0
C3796 C 0.04856 0.51403 0.55025 0.0
C3797 C 0.04774 0.52495 0.56774 0.0
C3798 C 0.06267 0.525 0.58052 0.0
H3799 H 0.08667 0.45864 0.59378 0.0
H3800 H 0.07153 0.47454 0.58115 0.0
H3801 H 0.09529 0.47101 0.57317 0.0
H3802 H 0.09348 0.49815 0.55339 0.0
H3803 H 0.06698 0.49763 0.53099 0.0
H3804 H 0.23733 0.36561 0.44676 0.0
H3805 H 0.23004 0.35385 0.41385 0.0
H3806 H 0.27664 0.3145 0.41494 0.0
H3807 H 0.28412 0.32617 0.44755 0.0
H3808 H 0.27537 0.33651 0.38167 0.0
H3809 H 0.2065 0.30022 0.39655 0.0
H3810 H 0.20922 0.32553 0.4046 0.0
H3811 H 0.22299 0.30713 0.41535 0.0
C3812 C 0.24596 0.35437 0.44005 0.0
C3813 C 0.26131 0.34684 0.44992 0.0
C3814 C 0.24173 0.34762 0.42123 0.0
C3815 C 0.25271 0.33319 0.41195 0.0
C3816 C 0.26797 0.32566 0.42178 0.0
H3817 H 0.24271 0.2488 0.32098 0.0
H3818 H 0.24155 0.2692 0.35038 0.0
C3819 C 0.27219 0.33233 0.44051 0.0
C3820 C 0.24868 0.32591 0.39193 0.0
H3821 H 0.21749 0.29817 0.36472 0.0
C3822 C 0.2626 0.32835 0.37787 0.0
C3823 C 0.23205 0.3152 0.38702 0.0
C3824 C 0.21684 0.31168 0.40164 0.0
C3825 C 0.26065 0.31981 0.35927 0.0
C3826 C 0.2442 0.30871 0.35447 0.0
C3827 C 0.23 0.30683 0.36834 0.0
C3828 C 0.24263 0.29683 0.33612 0.0
C3829 C 0.27667 0.32184 0.34523 0.0
C3830 C 0.24297 0.30554 0.31815 0.0
C3831 C 0.24362 0.29381 0.30113 0.0
C3832 C 0.24401 0.27319 0.30183 0.0
C3833 C 0.24263 0.26462 0.31984 0.0
C3834 C 0.2419 0.27628 0.33673 0.0
H3835 H 0.28958 0.32809 0.3522 0.0
H3836 H 0.28001 0.30735 0.33833 0.0
H3837 H 0.27255 0.33175 0.33377 0.0
H3838 H 0.24323 0.32138 0.3173 0.0
H3839 H 0.24463 0.30088 0.28752 0.0
H3840 H 0.32344 0.38127 0.51012 0.0
H3841 H 0.35545 0.39467 0.50831 0.0
H3842 H 0.33497 0.44537 0.48037 0.0
H3843 H 0.30288 0.43195 0.48191 0.0
H3844 H 0.3684 0.42961 0.46395 0.0
H3845 H 0.37417 0.44121 0.54317 0.0
H3846 H 0.36795 0.4167 0.53468 0.0
H3847 H 0.35199 0.43635 0.53131 0.0
C3848 C 0.32573 0.39515 0.50335 0.0
C3849 C 0.31056 0.40557 0.4962 0.0
C3850 C 0.34405 0.40286 0.50249 0.0
C3851 C 0.34755 0.42119 0.49454 0.0
C3852 C 0.33256 0.43125 0.48668 0.0
H3853 H 0.43209 0.50819 0.47966 0.0
H3854 H 0.40461 0.48672 0.48099 0.0
C3855 C 0.31422 0.42355 0.48754 0.0
C3856 C 0.36672 0.43017 0.49479 0.0
H3857 H 0.40044 0.45037 0.52475 0.0
C3858 C 0.37546 0.43402 0.47724 0.0
C3859 C 0.37599 0.43579 0.51216 0.0
C3860 C 0.36705 0.43247 0.53143 0.0
C3861 C 0.39303 0.44367 0.47659 0.0
C3862 C 0.40196 0.44997 0.49393 0.0
C3863 C 0.39358 0.44549 0.51149 0.0
C3864 C 0.41894 0.46295 0.494 0.0
C3865 C 0.40183 0.44727 0.45731 0.0
C3866 C 0.43609 0.45703 0.5016 0.0
C3867 C 0.45205 0.46944 0.50098 0.0
C3868 C 0.45104 0.488 0.49285 0.0
C3869 C 0.43358 0.49401 0.48593 0.0
C3870 C 0.41779 0.48167 0.48653 0.0
H3871 H 0.39626 0.43678 0.44602 0.0
H3872 H 0.39855 0.46235 0.45306 0.0
H3873 H 0.41733 0.446 0.45789 0.0
H3874 H 0.43719 0.4427 0.50768 0.0
H3875 H 0.46515 0.46444 0.50669 0.0
H3876 H 0.82188 0.08456 0.49001 0.0
H3877 H 0.84765 0.06284 0.4965 0.0
H3878 H 0.80966 0.02384 0.52551 0.0
H3879 H 0.78359 0.0458 0.51928 0.0
H3880 H 0.84552 0.0306 0.54436 0.0
H3881 H 0.85306 0.0091 0.46748 0.0
H3882 H 0.85297 0.03529 0.47147 0.0
H3883 H 0.83238 0.02088 0.47708 0.0
C3884 C 0.81895 0.07152 0.49797 0.0
C3885 C 0.80064 0.0669 0.50406 0.0
C3886 C 0.83371 0.05904 0.50156 0.0
C3887 C 0.83049 0.04157 0.51117 0.0
C3888 C 0.81239 0.0372 0.51795 0.0
H3889 H 0.9307 0.97168 0.49577 0.0
H3890 H 0.89686 0.97564 0.50131 0.0
C3891 C 0.79754 0.04975 0.51436 0.0
C3892 C 0.84614 0.02785 0.51348 0.0
H3893 H 0.88013 0.00471 0.48728 0.0
C3894 C 0.85292 0.02455 0.53193 0.0
C3895 C 0.85542 0.01942 0.49732 0.0
C3896 C 0.84797 0.02116 0.47723 0.0
C3897 C 0.86973 0.01448 0.53451 0.0
C3898 C 0.88012 0.00798 0.51819 0.0
C3899 C 0.87237 0.0098 0.49986 0.0
C3900 C 0.90009 0.00216 0.51933 0.0
C3901 C 0.87638 0.0114 0.55467 0.0
C3902 C 0.91319 0.01522 0.52821 0.0
C3903 C 0.93236 0.01279 0.52521 0.0
C3904 C 0.93881 -0.00265 0.51323 0.0
C3905 C 0.92595 0.98348 0.50535 0.0
C3906 C 0.90667 0.98582 0.50845 0.0
H3907 H 0.86427 0.00901 0.56443 0.0
H3908 H 0.88582 -0.00135 0.5553 0.0
H3909 H 0.88408 0.02479 0.56013 0.0
H3910 H 0.90862 0.02827 0.53612 0.0
H3911 H 0.9421 0.02389 0.53104 0.0
H3912 H 0.64815 0.05551 0.30202 0.0
H3913 H 0.66222 0.08809 0.29769 0.0
H3914 H 0.64221 0.08694 0.23936 0.0
H3915 H 0.62794 0.05454 0.24353 0.0
H3916 H 0.68957 0.09746 0.27114 0.0
H3917 H 0.62567 0.14097 0.26047 0.0
H3918 H 0.62492 0.11692 0.27054 0.0
H3919 H 0.62703 0.11929 0.24504 0.0
C3920 C 0.64664 0.06221 0.2883 0.0
C3921 C 0.6369 0.05237 0.27313 0.0
C3922 C 0.65464 0.08085 0.28588 0.0
C3923 C 0.65295 0.09005 0.26832 0.0
C3924 C 0.64328 0.0803 0.25316 0.0
H3925 H 0.72718 0.17906 0.22525 0.0
H3926 H 0.70491 0.15144 0.2281 0.0
C3927 C 0.63528 0.06167 0.25555 0.0
C3928 C 0.66242 0.10923 0.26542 0.0
H3929 H 0.65499 0.15651 0.25296 0.0
C3930 C 0.68199 0.11039 0.26728 0.0
C3931 C 0.65246 0.1261 0.26052 0.0
C3932 C 0.63134 0.12589 0.25919 0.0
C3933 C 0.69196 0.12786 0.26397 0.0
C3934 C 0.68209 0.14451 0.25838 0.0
C3935 C 0.66248 0.14358 0.25697 0.0
C3936 C 0.69221 0.16301 0.25429 0.0
C3937 C 0.713 0.1284 0.26653 0.0
C3938 C 0.69169 0.17902 0.26754 0.0
C3939 C 0.70432 0.19483 0.26585 0.0
C3940 C 0.71742 0.19485 0.25079 0.0
C3941 C 0.71699 0.17946 0.23681 0.0
C3942 C 0.70437 0.16369 0.23847 0.0
H3943 H 0.71793 0.11574 0.27461 0.0
H3944 H 0.71986 0.12787 0.25222 0.0
H3945 H 0.71764 0.14222 0.27423 0.0
H3946 H 0.68251 0.17861 0.27994 0.0
H3947 H 0.705 0.20606 0.27724 0.0
H3948 H 0.71222 0.92933 0.03514 0.0
H3949 H 0.67962 0.94003 0.03546 0.0
H3950 H 0.66828 0.90371 0.98464 0.0
H3951 H 0.7009 0.89299 0.98408 0.0
H3952 H 0.66059 0.95847 0.00302 0.0
H3953 H 0.62646 0.88896 0.02532 0.0
H3954 H 0.65094 0.89483 0.02983 0.0
H3955 H 0.64344 0.88656 0.00627 0.0
C3956 C 0.7028 0.92359 0.02402 0.0
C3957 C 0.70916 0.9103 0.00957 0.0
C3958 C 0.68418 0.9297 0.02427 0.0
C3959 C 0.67153 0.92242 0.01025 0.0
C3960 C 0.6778 0.90924 -0.00424 0.0
H3961 H 0.56329 0.93628 0.96644 0.0
H3962 H 0.59235 0.92421 0.9797 0.0
C3963 C 0.69647 0.90326 -0.00462 0.0
C3964 C 0.65195 0.92926 0.0102 0.0
H3965 H 0.60641 0.9133 0.01361 0.0
C3966 C 0.6487 0.94874 0.0056 0.0
C3967 C 0.63657 0.91646 0.01363 0.0
C3968 C 0.63942 0.89555 0.0192 0.0
C3969 C 0.6304 0.95551 0.00322 0.0
C3970 C 0.61492 0.94254 0.00611 0.0
C3971 C 0.61824 0.92326 0.01152 0.0
C3972 C 0.59549 0.94793 0.00112 0.0
C3973 C 0.62792 0.9761 -0.00354 0.0
C3974 C 0.58701 0.96471 0.00941 0.0
C3975 C 0.57041 0.97171 0.00167 0.0
C3976 C 0.56186 0.96174 0.98593 0.0
C3977 C 0.56953 0.94411 0.97875 0.0
C3978 C 0.58614 0.93722 0.98631 0.0
H3979 H 0.64126 0.98257 0.99106 0.0
H3980 H 0.61732 0.97626 0.98483 0.0
H3981 H 0.62299 0.98567 0.00861 0.0
H3982 H 0.59382 0.97305 0.02106 0.0
H3983 H 0.56526 0.98574 0.00689 0.0
H3984 H 0.36904 0.44573 0.23604 0.0
H3985 H 0.35378 0.41331 0.23238 0.0
H3986 H 0.32101 0.42548 0.28339 0.0
H3987 H 0.33654 0.45765 0.28747 0.0
H3988 H 0.33461 0.38864 0.28312 0.0
H3989 H 0.30159 0.40156 0.21291 0.0
H3990 H 0.32661 0.40495 0.21266 0.0
H3991 H 0.31243 0.42111 0.22741 0.0
C3992 C 0.35847 0.44159 0.2464 0.0
C3993 C 0.35395 0.45441 0.26197 0.0
C3994 C 0.34972 0.42304 0.24427 0.0
C3995 C 0.33602 0.41702 0.25745 0.0
C3996 C 0.33151 0.42976 0.27302 0.0
H3997 H 0.25354 0.32352 0.26162 0.0
H3998 H 0.27605 0.34975 0.27135 0.0
C3999 C 0.34037 0.44822 0.27527 0.0
C4000 C 0.32633 0.39749 0.25508 0.0
H4001 H 0.29933 0.3692 0.22397 0.0
C4002 C 0.32689 0.3844 0.27019 0.0
C4003 C 0.31616 0.39195 0.23825 0.0
C4004 C 0.31397 0.40569 0.22196 0.0
C4005 C 0.31769 0.36591 0.26882 0.0
C4006 C 0.30768 0.3604 0.25195 0.0
C4007 C 0.30722 0.37339 0.23683 0.0
C4008 C 0.2967 0.3417 0.24977 0.0
C4009 C 0.3188 0.35229 0.28529 0.0
C4010 C 0.30116 0.32802 0.23496 0.0
C4011 C 0.28841 0.31295 0.2296 0.0
C4012 C 0.27106 0.31126 0.239 0.0
C4013 C 0.26716 0.32406 0.2547 0.0
C4014 C 0.27995 0.33913 0.26014 0.0
H4015 H 0.32994 0.357 0.29568 0.0
H4016 H 0.30515 0.35212 0.293 0.0
H4017 H 0.32153 0.33704 0.27992 0.0
H4018 H 0.31391 0.32984 0.22668 0.0
H4019 H 0.29146 0.3036 0.21709 0.0
H4020 H 0.18784 0.64441 -0.00104 0.0
H4021 H 0.15452 0.6375 0.0057 0.0
H4022 H 0.16666 0.57627 0.0116 0.0
H4023 H 0.1997 0.58288 0.00469 0.0
H4024 H 0.13061 0.6054 0.98372 0.0
H4025 H 0.13701 0.59662 0.06217 0.0
H4026 H 0.15338 0.61128 0.04863 0.0
H4027 H 0.15498 0.58497 0.04785 0.0
C4028 C 0.18338 0.62949 0.00172 0.0
C4029 C 0.1964 0.61418 0.00128 0.0
C4030 C 0.16439 0.6256 0.00557 0.0
C4031 C 0.15828 0.60644 0.00937 0.0
C4032 C 0.17121 0.59119 0.00891 0.0
H4033 H 0.07822 0.52168 0.0227 0.0
H4034 H 0.10362 0.54606 0.02485 0.0
C4035 C 0.19006 0.59499 0.00486 0.0
C4036 C 0.13831 0.6018 0.01314 0.0
H4037 H 0.11016 0.58122 0.04679 0.0
C4038 C 0.12584 0.60064 -0.00239 0.0
C4039 C 0.13228 0.59569 0.0313 0.0
C4040 C 0.14504 0.59733 0.04852 0.0
C4041 C 0.10796 0.59183 -0.00062 0.0
C4042 C 0.10244 0.58435 0.01724 0.0
C4043 C 0.11441 0.58698 0.03313 0.0
C4044 C 0.08614 0.57068 0.01877 0.0
C4045 C 0.09579 0.58911 0.98175 0.0
C4046 C 0.0677 0.57656 0.01537 0.0
C4047 C 0.05303 0.56254 0.01413 0.0
C4048 C 0.05669 0.54251 0.0162 0.0
C4049 C 0.07497 0.53696 0.02083 0.0
C4050 C 0.08951 0.5509 0.02214 0.0
H4051 H 0.1031 0.59378 0.96855 0.0
H4052 H 0.09134 0.57345 0.97965 0.0
H4053 H 0.08296 0.59795 0.98367 0.0
H4054 H 0.06477 0.59181 0.01298 0.0
H4055 H 0.03911 0.56721 0.01053 0.0
H4056 H 0.65111 0.95973 0.23022 0.0
H4057 H 0.66998 0.93098 0.22191 0.0
H4058 H 0.67915 0.92195 0.28199 0.0
H4059 H 0.66083 0.95087 0.29044 0.0
H4060 H 0.71018 0.91253 0.25986 0.0
H4061 H 0.64498 0.87769 0.22924 0.0
H4062 H 0.65276 0.89988 0.21833 0.0
H4063 H 0.64483 0.90074 0.24284 0.0
C4064 C 0.65744 0.95186 0.24167 0.0
C4065 C 0.65413 0.95741 0.26103 0.0
C4066 C 0.66817 0.93538 0.23688 0.0
C4067 C 0.67555 0.92404 0.25134 0.0
C4068 C 0.67348 0.93042 0.27059 0.0
H4069 H 0.6872 0.80317 0.26413 0.0
H4070 H 0.68018 0.8379 0.26342 0.0
C4071 C 0.66293 0.94697 0.2754 0.0
C4072 C 0.68365 0.90449 0.24681 0.0
H4073 H 0.67144 0.85806 0.23053 0.0
C4074 C 0.70185 0.90065 0.25319 0.0
C4075 C 0.67263 0.88898 0.23827 0.0
C4076 C 0.65267 0.89189 0.23189 0.0
C4077 C 0.70908 0.88157 0.2519 0.0
C4078 C 0.69786 0.86605 0.2438 0.0
C4079 C 0.68001 0.87005 0.23667 0.0
C4080 C 0.70325 0.84519 0.24461 0.0
C4081 C 0.72819 0.87794 0.26013 0.0
C4082 C 0.7187 0.83774 0.23435 0.0
C4083 C 0.72287 0.81772 0.23478 0.0
C4084 C 0.71153 0.80485 0.24534 0.0
C4085 C 0.69622 0.81254 0.25575 0.0
C4086 C 0.69215 0.83244 0.25537 0.0
H4087 H 0.73388 0.89097 0.26844 0.0
H4088 H 0.72757 0.86524 0.26963 0.0
H4089 H 0.7381 0.87434 0.24826 0.0
H4090 H 0.72731 0.8473 0.22576 0.0
H4091 H 0.73476 0.81231 0.2266 0.0
H4092 H 0.84722 0.04659 0.72989 0.0
H4093 H 0.82913 0.07553 0.72255 0.0
H4094 H 0.81063 0.08062 0.78141 0.0
H4095 H 0.8285 0.05167 0.7889 0.0
H4096 H 0.78201 0.08548 0.75449 0.0
H4097 H 0.84474 0.13236 0.73951 0.0
H4098 H 0.8429 0.10936 0.72601 0.0
H4099 H 0.84629 0.10943 0.75151 0.0
C4100 C 0.83916 0.05372 0.74126 0.0
C4101 C 0.83943 0.0468 0.76005 0.0
C4102 C 0.82895 0.07038 0.73705 0.0
C4103 C 0.81884 0.08046 0.75152 0.0
C4104 C 0.81846 0.07315 0.77006 0.0
H4105 H 0.77314 0.19254 0.77416 0.0
H4106 H 0.79453 0.16531 0.76783 0.0
C4107 C 0.82867 0.05655 0.77431 0.0
C4108 C 0.80868 0.0987 0.74756 0.0
H4109 H 0.81518 0.14698 0.73691 0.0
C4110 C 0.78921 0.09887 0.75042 0.0
C4111 C 0.81818 0.1162 0.74243 0.0
C4112 C 0.8392 0.11701 0.7398 0.0
C4113 C 0.77899 0.11613 0.74873 0.0
C4114 C 0.78847 0.13368 0.74368 0.0
C4115 C 0.80792 0.13346 0.74048 0.0
C4116 C 0.7786 0.1527 0.74384 0.0
C4117 C 0.75826 0.11563 0.75327 0.0
C4118 C 0.76329 0.15539 0.73164 0.0
C4119 C 0.75111 0.171 0.73523 0.0
C4120 C 0.75435 0.18431 0.75079 0.0
C4121 C 0.77065 0.1827 0.76179 0.0
C4122 C 0.78279 0.16708 0.75826 0.0
H4123 H 0.7539 0.10198 0.76043 0.0
H4124 H 0.75443 0.12845 0.76271 0.0
H4125 H 0.75017 0.11631 0.73975 0.0
H4126 H 0.75993 0.14458 0.72029 0.0
H4127 H 0.73834 0.17168 0.7269 0.0
loop_
_geom_bond_atom_site_label_1
_geom_bond_atom_site_label_2
_geom_bond_distance
_geom_bond_site_symmetry_2
_ccdc_geom_bond_type
Mg0 O1 2.028 . S
Mg0 O7 1.986 . S
Mg0 O9 2.114 1_455 S
Mg0 O10 2.251 1_455 S
Mg0 O13 2.010 . S
O1 Mg0 2.028 . S
O1 C4 1.250 . S
O2 Mg3 2.028 . S
O2 C4 1.248 1_655 S
Mg3 O2 2.028 . S
Mg3 O8 2.032 . S
Mg3 O10 2.079 . S
C4 O1 1.250 . S
C4 O2 1.248 1_455 S
C5 O6 1.264 . S
C5 O13 1.249 . S
O6 C5 1.264 . S
O7 Mg0 1.986 . S
O7 C11 1.246 . S
O8 Mg3 2.032 . S
O8 C11 1.259 1_655 S
O9 Mg0 2.114 1_655 S
O9 C12 1.252 . S
O10 Mg0 2.251 1_655 S
O10 Mg3 2.079 . S
O10 C12 1.273 . S
C11 O7 1.246 . S
C11 O8 1.259 1_455 S
C12 O9 1.252 . S
C12 O10 1.273 . S
O13 Mg0 2.010 . S
O13 C5 1.249 . S
Mg14 O15 2.028 . S
Mg14 O21 1.986 . S
Mg14 O23 2.114 1_455 S
Mg14 O24 2.251 1_455 S
Mg14 O27 2.010 . S
O15 Mg14 2.028 . S
O15 C18 1.250 . S
O16 Mg17 2.028 . S
O16 C18 1.248 1_655 S
Mg17 O16 2.028 . S
Mg17 O22 2.032 . S
Mg17 O24 2.079 . S
C18 O15 1.250 . S
C18 O16 1.248 1_455 S
C19 O20 1.264 . S
C19 O27 1.249 . S
O20 C19 1.264 . S
O21 Mg14 1.986 . S
O21 C25 1.246 . S
O22 Mg17 2.032 . S
O22 C25 1.259 1_655 S
O23 Mg14 2.114 1_655 S
O23 C26 1.252 . S
O24 Mg14 2.251 1_655 S
O24 Mg17 2.079 . S
O24 C26 1.273 . S
C25 O21 1.246 . S
C25 O22 1.259 1_455 S
C26 O23 1.252 . S
C26 O24 1.273 . S
O27 Mg14 2.010 . S
O27 C19 1.249 . S
Mg28 O29 2.028 . S
Mg28 O35 1.986 . S
Mg28 O37 2.114 . S
Mg28 O38 2.251 . S
Mg28 O41 2.010 . S
O29 Mg28 2.028 . S
O29 C32 1.250 . S
O30 Mg31 2.028 . S
O30 C32 1.248 . S
Mg31 O30 2.028 . S
Mg31 O36 2.032 . S
Mg31 O38 2.079 . S
C32 O29 1.250 . S
C32 O30 1.248 . S
C33 O34 1.264 . S
C33 O41 1.249 . S
O34 C33 1.264 . S
O35 Mg28 1.986 . S
O35 C39 1.246 . S
O36 Mg31 2.032 . S
O36 C39 1.259 . S
O37 Mg28 2.114 . S
O37 C40 1.252 . S
O38 Mg28 2.251 . S
O38 Mg31 2.079 . S
O38 C40 1.273 . S
C39 O35 1.246 . S
C39 O36 1.259 . S
C40 O37 1.252 . S
C40 O38 1.273 . S
O41 Mg28 2.010 . S
O41 C33 1.249 . S
Mg42 O43 2.028 . S
Mg42 O49 1.986 . S
Mg42 O51 2.114 . S
Mg42 O52 2.251 . S
Mg42 O55 2.010 . S
O43 Mg42 2.028 . S
O43 C46 1.250 . S
O44 Mg45 2.028 . S
O44 C46 1.248 . S
Mg45 O44 2.028 . S
Mg45 O50 2.032 . S
Mg45 O52 2.079 . S
C46 O43 1.250 . S
C46 O44 1.248 . S
C47 O48 1.264 . S
C47 O55 1.249 . S
O48 C47 1.264 . S
O49 Mg42 1.986 . S
O49 C53 1.246 . S
O50 Mg45 2.032 . S
O50 C53 1.259 . S
O51 Mg42 2.114 . S
O51 C54 1.252 . S
O52 Mg42 2.251 . S
O52 Mg45 2.079 . S
O52 C54 1.273 . S
C53 O49 1.246 . S
C53 O50 1.259 . S
C54 O51 1.252 . S
C54 O52 1.273 . S
O55 Mg42 2.010 . S
O55 C47 1.249 . S
Mg56 O57 2.028 1_565 S
Mg56 O63 1.986 . S
Mg56 O65 2.114 1_565 S
Mg56 O66 2.251 . S
Mg56 O69 2.010 . S
O57 Mg56 2.028 1_545 S
O57 C60 1.250 . S
O58 Mg59 2.021 1_545 S
O58 C60 1.248 . S
Mg59 O58 2.021 1_565 S
Mg59 O64 2.039 . S
Mg59 O66 2.080 . S
C60 O57 1.250 . S
C60 O58 1.248 . S
C61 O62 1.264 . S
C61 O69 1.249 . S
O62 C61 1.264 . S
O63 Mg56 1.986 . S
O63 C67 1.246 . S
O64 Mg59 2.039 . S
O64 C67 1.259 . S
O65 Mg56 2.114 1_545 S
O65 C68 1.252 . S
O66 Mg56 2.251 . S
O66 Mg59 2.080 . S
O66 C68 1.273 1_565 S
C67 O63 1.246 . S
C67 O64 1.259 . S
C68 O65 1.252 . S
C68 O66 1.273 1_545 S
O69 Mg56 2.010 . S
O69 C61 1.249 . S
Mg70 O71 2.028 . S
Mg70 O77 1.986 . S
Mg70 O79 2.114 . S
Mg70 O80 2.251 . S
Mg70 O83 2.010 . S
O71 Mg70 2.028 . S
O71 C74 1.250 . S
O72 Mg73 2.028 . S
O72 C74 1.248 . S
Mg73 O72 2.028 . S
Mg73 O78 2.032 . S
Mg73 O80 2.079 . S
C74 O71 1.250 . S
C74 O72 1.248 . S
C75 O76 1.264 . S
C75 O83 1.249 . S
O76 C75 1.264 . S
O77 Mg70 1.986 . S
O77 C81 1.246 . S
O78 Mg73 2.032 . S
O78 C81 1.259 . S
O79 Mg70 2.114 . S
O79 C82 1.252 . S
O80 Mg70 2.251 . S
O80 Mg73 2.079 . S
O80 C82 1.273 . S
C81 O77 1.246 . S
C81 O78 1.259 . S
C82 O79 1.252 . S
C82 O80 1.273 . S
O83 Mg70 2.010 . S
O83 C75 1.249 . S
Mg84 O85 2.028 1_545 S
Mg84 O91 1.986 . S
Mg84 O93 2.136 . S
Mg84 O94 2.251 . S
Mg84 O97 2.010 . S
O85 Mg84 2.028 1_565 S
O85 C88 1.250 . S
O86 Mg87 2.028 1_565 S
O86 C88 1.248 . S
Mg87 O86 2.028 1_545 S
Mg87 O92 2.032 . S
Mg87 O94 2.079 . S
C88 O85 1.250 . S
C88 O86 1.248 . S
C89 O90 1.264 . S
C89 O97 1.249 . S
O90 C89 1.264 . S
O91 Mg84 1.986 . S
O91 C95 1.246 . S
O92 Mg87 2.032 . S
O92 C95 1.259 . S
O93 Mg84 2.136 . S
O93 C96 1.265 . S
O94 Mg84 2.251 . S
O94 Mg87 2.079 . S
O94 C96 1.273 . S
C95 O91 1.246 . S
C95 O92 1.259 . S
C96 O93 1.265 . S
C96 O94 1.273 . S
O97 Mg84 2.010 . S
O97 C89 1.249 . S
Mg98 O99 1.996 1_556 S
Mg98 O105 2.012 . S
Mg98 O107 2.096 1_556 S
Mg98 O108 2.250 1_556 S
Mg98 O111 2.012 . S
O99 Mg98 1.996 1_554 S
O99 C102 1.250 . S
O100 Mg101 2.028 . S
O100 C102 1.248 . S
Mg101 O100 2.028 . S
Mg101 O106 2.032 1_554 S
Mg101 O108 2.079 . S
C102 O99 1.250 . S
C102 O100 1.248 . S
C103 O104 1.264 1_554 S
C103 O111 1.249 1_554 S
O104 C103 1.264 1_556 S
O105 Mg98 2.012 . S
O105 C109 1.246 . S
O106 Mg101 2.032 1_556 S
O106 C109 1.259 . S
O107 Mg98 2.096 1_554 S
O107 C110 1.252 . S
O108 Mg98 2.250 1_554 S
O108 Mg101 2.079 . S
O108 C110 1.273 . S
C109 O105 1.246 . S
C109 O106 1.259 . S
C110 O107 1.252 . S
C110 O108 1.273 . S
O111 Mg98 2.012 . S
O111 C103 1.249 1_556 S
Mg112 O113 2.028 1_554 S
Mg112 O119 1.986 . S
Mg112 O121 2.112 . S
Mg112 O122 2.251 . S
Mg112 O125 2.010 . S
O113 Mg112 2.028 1_556 S
O113 C116 1.250 . S
O114 Mg115 2.028 1_556 S
O114 C116 1.248 . S
Mg115 O114 2.028 1_554 S
Mg115 O120 2.032 . S
Mg115 O122 2.079 . S
C116 O113 1.250 . S
C116 O114 1.248 . S
C117 O118 1.264 . S
C117 O125 1.249 . S
O118 C117 1.264 . S
O119 Mg112 1.986 . S
O119 C123 1.246 . S
O120 Mg115 2.032 . S
O120 C123 1.259 . S
O121 Mg112 2.112 . S
O121 C124 1.251 . S
O122 Mg112 2.251 . S
O122 Mg115 2.079 . S
O122 C124 1.273 . S
C123 O119 1.246 . S
C123 O120 1.259 . S
C124 O121 1.251 . S
C124 O122 1.273 . S
O125 Mg112 2.010 . S
O125 C117 1.249 . S
Mg126 O127 2.028 . S
Mg126 O133 1.986 . S
Mg126 O135 2.114 . S
Mg126 O136 2.251 . S
Mg126 O139 2.010 . S
O127 Mg126 2.028 . S
O127 C130 1.250 . S
O128 Mg129 2.028 . S
O128 C130 1.248 . S
Mg129 O128 2.028 . S
Mg129 O134 2.032 . S
Mg129 O136 2.079 . S
C130 O127 1.250 . S
C130 O128 1.248 . S
C131 O132 1.264 . S
C131 O139 1.249 . S
O132 C131 1.264 . S
O133 Mg126 1.986 . S
O133 C137 1.246 . S
O134 Mg129 2.032 . S
O134 C137 1.259 . S
O135 Mg126 2.114 . S
O135 C138 1.252 . S
O136 Mg126 2.251 . S
O136 Mg129 2.079 . S
O136 C138 1.273 . S
C137 O133 1.246 . S
C137 O134 1.259 . S
C138 O135 1.252 . S
C138 O136 1.273 . S
O139 Mg126 2.010 . S
O139 C131 1.249 . S
Mg140 O141 2.028 . S
Mg140 O147 1.986 . S
Mg140 O149 2.114 . S
Mg140 O150 2.251 . S
Mg140 O153 2.010 . S
O141 Mg140 2.028 . S
O141 C144 1.250 . S
O142 Mg143 2.028 . S
O142 C144 1.248 . S
Mg143 O142 2.028 . S
Mg143 O148 2.032 . S
Mg143 O150 2.079 . S
C144 O141 1.250 . S
C144 O142 1.248 . S
C145 O146 1.264 . S
C145 O153 1.249 . S
O146 C145 1.264 . S
O147 Mg140 1.986 . S
O147 C151 1.246 . S
O148 Mg143 2.032 . S
O148 C151 1.259 . S
O149 Mg140 2.114 . S
O149 C152 1.252 . S
O150 Mg140 2.251 . S
O150 Mg143 2.079 . S
O150 C152 1.273 . S
C151 O147 1.246 . S
C151 O148 1.259 . S
C152 O149 1.252 . S
C152 O150 1.273 . S
O153 Mg140 2.010 . S
O153 C145 1.249 . S
Mg154 O155 2.028 . S
Mg154 O161 1.986 . S
Mg154 O163 2.114 . S
Mg154 O164 2.251 . S
Mg154 O167 2.010 . S
O155 Mg154 2.028 . S
O155 C158 1.250 . S
O156 Mg157 2.028 . S
O156 C158 1.248 . S
Mg157 O156 2.028 . S
Mg157 O162 2.032 . S
Mg157 O164 2.079 . S
C158 O155 1.250 . S
C158 O156 1.248 . S
C159 O160 1.264 . S
C159 O167 1.249 . S
O160 C159 1.264 . S
O161 Mg154 1.986 . S
O161 C165 1.246 . S
O162 Mg157 2.032 . S
O162 C165 1.259 . S
O163 Mg154 2.114 . S
O163 C166 1.252 . S
O164 Mg154 2.251 . S
O164 Mg157 2.079 . S
O164 C166 1.273 . S
C165 O161 1.246 . S
C165 O162 1.259 . S
C166 O163 1.252 . S
C166 O164 1.273 . S
O167 Mg154 2.010 . S
O167 C159 1.249 . S
Mg168 O169 2.028 . S
Mg168 O175 1.986 . S
Mg168 O177 2.114 1_455 S
Mg168 O178 2.251 1_455 S
Mg168 O181 2.010 . S
O169 Mg168 2.028 . S
O169 C172 1.250 . S
O170 Mg171 2.028 . S
O170 C172 1.248 1_655 S
Mg171 O170 2.028 . S
Mg171 O176 2.032 . S
Mg171 O178 2.079 . S
C172 O169 1.250 . S
C172 O170 1.248 1_455 S
C173 O174 1.264 . S
C173 O181 1.249 . S
O174 C173 1.264 . S
O175 Mg168 1.986 . S
O175 C179 1.246 . S
O176 Mg171 2.032 . S
O176 C179 1.259 1_655 S
O177 Mg168 2.114 1_655 S
O177 C180 1.252 . S
O178 Mg168 2.251 1_655 S
O178 Mg171 2.079 . S
O178 C180 1.273 . S
C179 O175 1.246 . S
C179 O176 1.259 1_455 S
C180 O177 1.252 . S
C180 O178 1.273 . S
O181 Mg168 2.010 . S
O181 C173 1.249 . S
Mg182 O183 2.028 . S
Mg182 O189 1.986 . S
Mg182 O191 2.114 1_455 S
Mg182 O192 2.251 1_455 S
Mg182 O195 2.010 . S
O183 Mg182 2.028 . S
O183 C186 1.250 . S
O184 Mg185 2.028 . S
O184 C186 1.248 1_655 S
Mg185 O184 2.028 . S
Mg185 O190 2.032 . S
Mg185 O192 2.079 . S
C186 O183 1.250 . S
C186 O184 1.248 1_455 S
C187 O188 1.264 . S
C187 O195 1.249 . S
O188 C187 1.264 . S
O189 Mg182 1.986 . S
O189 C193 1.246 . S
O190 Mg185 2.032 . S
O190 C193 1.259 1_655 S
O191 Mg182 2.114 1_655 S
O191 C194 1.252 . S
O192 Mg182 2.251 1_655 S
O192 Mg185 2.079 . S
O192 C194 1.273 . S
C193 O189 1.246 . S
C193 O190 1.259 1_455 S
C194 O191 1.252 . S
C194 O192 1.273 . S
O195 Mg182 2.010 . S
O195 C187 1.249 . S
Mg196 O197 2.028 . S
Mg196 O203 1.986 . S
Mg196 O205 2.114 . S
Mg196 O206 2.251 . S
Mg196 O209 2.010 . S
O197 Mg196 2.028 . S
O197 C200 1.250 . S
O198 Mg199 2.028 . S
O198 C200 1.248 . S
Mg199 O198 2.028 . S
Mg199 O204 2.032 . S
Mg199 O206 2.079 . S
C200 O197 1.250 . S
C200 O198 1.248 . S
C201 O202 1.264 . S
C201 O209 1.249 . S
O202 C201 1.264 . S
O203 Mg196 1.986 . S
O203 C207 1.246 . S
O204 Mg199 2.032 . S
O204 C207 1.259 . S
O205 Mg196 2.114 . S
O205 C208 1.252 . S
O206 Mg196 2.251 . S
O206 Mg199 2.079 . S
O206 C208 1.273 . S
C207 O203 1.246 . S
C207 O204 1.259 . S
C208 O205 1.252 . S
C208 O206 1.273 . S
O209 Mg196 2.010 . S
O209 C201 1.249 . S
Mg210 O211 2.028 . S
Mg210 O217 1.986 . S
Mg210 O219 2.114 . S
Mg210 O220 2.251 . S
Mg210 O223 2.010 . S
O211 Mg210 2.028 . S
O211 C214 1.250 . S
O212 Mg213 2.028 . S
O212 C214 1.248 . S
Mg213 O212 2.028 . S
Mg213 O218 2.032 . S
Mg213 O220 2.079 . S
C214 O211 1.250 . S
C214 O212 1.248 . S
C215 O216 1.264 . S
C215 O223 1.249 . S
O216 C215 1.264 . S
O217 Mg210 1.986 . S
O217 C221 1.246 . S
O218 Mg213 2.032 . S
O218 C221 1.259 . S
O219 Mg210 2.114 . S
O219 C222 1.252 . S
O220 Mg210 2.251 . S
O220 Mg213 2.079 . S
O220 C222 1.273 . S
C221 O217 1.246 . S
C221 O218 1.259 . S
C222 O219 1.252 . S
C222 O220 1.273 . S
O223 Mg210 2.010 . S
O223 C215 1.249 . S
Mg224 O225 2.028 1_545 S
Mg224 O231 1.986 . S
Mg224 O233 2.114 1_545 S
Mg224 O234 2.251 . S
Mg224 O237 2.010 . S
O225 Mg224 2.028 1_565 S
O225 C228 1.250 . S
O226 Mg227 2.028 1_565 S
O226 C228 1.248 . S
Mg227 O226 2.028 1_545 S
Mg227 O232 2.032 . S
Mg227 O234 2.079 . S
C228 O225 1.250 . S
C228 O226 1.248 . S
C229 O230 1.264 . S
C229 O237 1.249 . S
O230 C229 1.264 . S
O231 Mg224 1.986 . S
O231 C235 1.246 . S
O232 Mg227 2.032 . S
O232 C235 1.259 . S
O233 Mg224 2.114 1_565 S
O233 C236 1.254 . S
O234 Mg224 2.251 . S
O234 Mg227 2.079 . S
O234 C236 1.270 1_545 S
C235 O231 1.246 . S
C235 O232 1.259 . S
C236 O233 1.254 . S
C236 O234 1.270 1_565 S
O237 Mg224 2.010 . S
O237 C229 1.249 . S
Mg238 O239 2.028 . S
Mg238 O245 1.986 . S
Mg238 O247 2.114 . S
Mg238 O248 2.251 . S
Mg238 O251 2.010 . S
O239 Mg238 2.028 . S
O239 C242 1.250 . S
O240 Mg241 2.028 . S
O240 C242 1.248 . S
Mg241 O240 2.028 . S
Mg241 O246 2.032 . S
Mg241 O248 2.079 . S
C242 O239 1.250 . S
C242 O240 1.248 . S
C243 O244 1.264 . S
C243 O251 1.249 . S
O244 C243 1.264 . S
O245 Mg238 1.986 . S
O245 C249 1.246 . S
O246 Mg241 2.032 . S
O246 C249 1.259 . S
O247 Mg238 2.114 . S
O247 C250 1.252 . S
O248 Mg238 2.251 . S
O248 Mg241 2.079 . S
O248 C250 1.273 . S
C249 O245 1.246 . S
C249 O246 1.259 . S
C250 O247 1.252 . S
C250 O248 1.273 . S
O251 Mg238 2.010 . S
O251 C243 1.249 . S
Mg252 O253 2.028 1_565 S
Mg252 O259 1.986 . S
Mg252 O261 2.114 1_565 S
Mg252 O262 2.251 1_565 S
Mg252 O265 2.010 . S
O253 Mg252 2.028 1_545 S
O253 C256 1.250 . S
O254 Mg255 2.028 . S
O254 C256 1.248 . S
Mg255 O254 2.028 . S
Mg255 O260 2.032 1_545 S
Mg255 O262 2.080 . S
C256 O253 1.250 . S
C256 O254 1.248 . S
C257 O258 1.264 . S
C257 O265 1.249 . S
O258 C257 1.264 . S
O259 Mg252 1.986 . S
O259 C263 1.246 . S
O260 Mg255 2.032 1_565 S
O260 C263 1.259 . S
O261 Mg252 2.114 1_545 S
O261 C264 1.252 . S
O262 Mg252 2.251 1_545 S
O262 Mg255 2.080 . S
O262 C264 1.276 . S
C263 O259 1.246 . S
C263 O260 1.259 . S
C264 O261 1.252 . S
C264 O262 1.276 . S
O265 Mg252 2.010 . S
O265 C257 1.249 . S
Mg266 O267 2.028 1_554 S
Mg266 O273 1.986 . S
Mg266 O275 2.114 . S
Mg266 O276 2.251 . S
Mg266 O279 2.010 . S
O267 Mg266 2.028 1_556 S
O267 C270 1.250 . S
O268 Mg269 2.028 1_556 S
O268 C270 1.248 . S
Mg269 O268 2.028 1_554 S
Mg269 O274 2.032 . S
Mg269 O276 2.079 . S
C270 O267 1.250 . S
C270 O268 1.248 . S
C271 O272 1.264 . S
C271 O279 1.249 . S
O272 C271 1.264 . S
O273 Mg266 1.986 . S
O273 C277 1.246 . S
O274 Mg269 2.032 . S
O274 C277 1.259 . S
O275 Mg266 2.114 . S
O275 C278 1.252 . S
O276 Mg266 2.251 . S
O276 Mg269 2.079 . S
O276 C278 1.273 . S
C277 O273 1.246 . S
C277 O274 1.259 . S
C278 O275 1.252 . S
C278 O276 1.273 . S
O279 Mg266 2.010 . S
O279 C271 1.249 . S
Mg280 O281 2.028 1_556 S
Mg280 O287 1.986 . S
Mg280 O289 2.114 1_556 S
Mg280 O290 2.251 . S
Mg280 O293 2.010 . S
O281 Mg280 2.028 1_554 S
O281 C284 1.250 . S
O282 Mg283 2.032 1_554 S
O282 C284 1.248 . S
Mg283 O282 2.032 1_556 S
Mg283 O288 2.029 . S
Mg283 O290 2.078 . S
C284 O281 1.250 . S
C284 O282 1.248 . S
C285 O286 1.264 . S
C285 O293 1.249 . S
O286 C285 1.264 . S
O287 Mg280 1.986 . S
O287 C291 1.246 . S
O288 Mg283 2.029 . S
O288 C291 1.259 . S
O289 Mg280 2.114 1_554 S
O289 C292 1.252 . S
O290 Mg280 2.251 . S
O290 Mg283 2.078 . S
O290 C292 1.273 1_556 S
C291 O287 1.246 . S
C291 O288 1.259 . S
C292 O289 1.252 . S
C292 O290 1.273 1_554 S
O293 Mg280 2.010 . S
O293 C285 1.249 . S
Mg294 O295 2.028 . S
Mg294 O301 1.986 . S
Mg294 O303 2.114 . S
Mg294 O304 2.251 . S
Mg294 O307 2.010 . S
O295 Mg294 2.028 . S
O295 C298 1.250 . S
O296 Mg297 2.028 . S
O296 C298 1.248 . S
Mg297 O296 2.028 . S
Mg297 O302 2.032 . S
Mg297 O304 2.079 . S
C298 O295 1.250 . S
C298 O296 1.248 . S
C299 O300 1.264 . S
C299 O307 1.249 . S
O300 C299 1.264 . S
O301 Mg294 1.986 . S
O301 C305 1.246 . S
O302 Mg297 2.032 . S
O302 C305 1.259 . S
O303 Mg294 2.114 . S
O303 C306 1.252 . S
O304 Mg294 2.251 . S
O304 Mg297 2.079 . S
O304 C306 1.273 . S
C305 O301 1.246 . S
C305 O302 1.259 . S
C306 O303 1.252 . S
C306 O304 1.273 . S
O307 Mg294 2.010 . S
O307 C299 1.249 . S
Mg308 O309 2.028 . S
Mg308 O315 1.986 . S
Mg308 O317 2.114 . S
Mg308 O318 2.251 . S
Mg308 O321 2.010 . S
O309 Mg308 2.028 . S
O309 C312 1.250 . S
O310 Mg311 2.028 . S
O310 C312 1.248 . S
Mg311 O310 2.028 . S
Mg311 O316 2.032 . S
Mg311 O318 2.079 . S
C312 O309 1.250 . S
C312 O310 1.248 . S
C313 O314 1.264 . S
C313 O321 1.249 . S
O314 C313 1.264 . S
O315 Mg308 1.986 . S
O315 C319 1.246 . S
O316 Mg311 2.032 . S
O316 C319 1.259 . S
O317 Mg308 2.114 . S
O317 C320 1.252 . S
O318 Mg308 2.251 . S
O318 Mg311 2.079 . S
O318 C320 1.273 . S
C319 O315 1.246 . S
C319 O316 1.259 . S
C320 O317 1.252 . S
C320 O318 1.273 . S
O321 Mg308 2.010 . S
O321 C313 1.249 . S
Mg322 O323 2.028 . S
Mg322 O329 1.986 . S
Mg322 O331 2.114 . S
Mg322 O332 2.251 . S
Mg322 O335 2.010 . S
O323 Mg322 2.028 . S
O323 C326 1.250 . S
O324 Mg325 2.028 . S
O324 C326 1.248 . S
Mg325 O324 2.028 . S
Mg325 O330 2.032 . S
Mg325 O332 2.079 . S
C326 O323 1.250 . S
C326 O324 1.248 . S
C327 O328 1.264 . S
C327 O335 1.249 . S
O328 C327 1.264 . S
O329 Mg322 1.986 . S
O329 C333 1.246 . S
O330 Mg325 2.032 . S
O330 C333 1.259 . S
O331 Mg322 2.114 . S
O331 C334 1.252 . S
O332 Mg322 2.251 . S
O332 Mg325 2.079 . S
O332 C334 1.273 . S
C333 O329 1.246 . S
C333 O330 1.259 . S
C334 O331 1.252 . S
C334 O332 1.273 . S
O335 Mg322 2.010 . S
O335 C327 1.249 . S
O336 Mn337 2.213 . S
O336 C350 1.244 . S
Mn337 O336 2.213 . S
Mn337 O340 2.108 1_445 S
Mn337 O341 2.196 1_455 S
Mn337 O343 2.148 1_454 S
Mn337 O345 2.177 1_545 S
Mn337 O355 2.246 1_545 S
O338 Mn339 2.109 1_556 S
O338 C350 1.225 1_566 S
Mn339 O338 2.109 1_554 S
Mn339 O346 2.089 . S
Mn339 O355 2.290 . S
Mn339 O356 2.251 1_554 S
O340 Mn337 2.108 1_665 S
O340 C351 1.239 . S
O341 Mn337 2.196 1_655 S
O341 Mn342 2.290 . S
O341 C352 1.278 . S
Mn342 O341 2.290 . S
Mn342 O344 2.089 . S
Mn342 O347 2.251 . S
Mn342 O348 2.087 1_554 S
O343 Mn337 2.148 1_656 S
O343 C353 1.244 . S
O344 Mn342 2.089 . S
O344 C351 1.256 1_545 S
O345 Mn337 2.177 1_565 S
O345 C354 1.239 . S
O346 Mn339 2.089 . S
O346 C354 1.256 . S
O347 Mn342 2.251 . S
O347 C352 1.241 . S
O348 Mn342 2.087 1_556 S
O348 C353 1.256 . S
C349 O355 1.278 1_556 S
C349 O356 1.241 . S
C350 O336 1.244 . S
C350 O338 1.225 1_544 S
C351 O340 1.239 . S
C351 O344 1.256 1_565 S
C352 O341 1.278 . S
C352 O347 1.241 . S
C353 O343 1.244 . S
C353 O348 1.256 . S
C354 O345 1.239 . S
C354 O346 1.256 . S
O355 Mn337 2.246 1_565 S
O355 Mn339 2.290 . S
O355 C349 1.278 1_554 S
O356 Mn339 2.251 1_556 S
O356 C349 1.241 . S
O357 Mn358 2.163 . S
O357 C371 1.244 . S
Mn358 O357 2.163 . S
Mn358 O361 2.160 . S
Mn358 O362 2.221 . S
Mn358 O364 2.163 . S
Mn358 O366 2.160 . S
Mn358 O376 2.221 . S
O359 Mn360 2.087 . S
O359 C371 1.256 . S
Mn360 O359 2.087 . S
Mn360 O367 2.089 . S
Mn360 O376 2.290 . S
Mn360 O377 2.251 . S
O361 Mn358 2.160 . S
O361 C372 1.239 . S
O362 Mn358 2.221 . S
O362 Mn363 2.290 . S
O362 C373 1.278 . S
Mn363 O362 2.290 . S
Mn363 O365 2.089 . S
Mn363 O368 2.251 . S
Mn363 O369 2.087 . S
O364 Mn358 2.163 . S
O364 C374 1.244 . S
O365 Mn363 2.089 . S
O365 C372 1.256 . S
O366 Mn358 2.160 . S
O366 C375 1.239 . S
O367 Mn360 2.089 . S
O367 C375 1.256 . S
O368 Mn363 2.251 . S
O368 C373 1.241 . S
O369 Mn363 2.087 . S
O369 C374 1.256 . S
C370 O376 1.278 . S
C370 O377 1.241 . S
C371 O357 1.244 . S
C371 O359 1.256 . S
C372 O361 1.239 . S
C372 O365 1.256 . S
C373 O362 1.278 . S
C373 O368 1.241 . S
C374 O364 1.244 . S
C374 O369 1.256 . S
C375 O366 1.239 . S
C375 O367 1.256 . S
O376 Mn358 2.221 . S
O376 Mn360 2.290 . S
O376 C370 1.278 . S
O377 Mn360 2.251 . S
O377 C370 1.241 . S
O378 Mn379 2.163 1_565 S
O378 C392 1.244 . S
Mn379 O378 2.163 1_545 S
Mn379 O382 2.160 . S
Mn379 O383 2.221 1_545 S
Mn379 O385 2.163 . S
Mn379 O387 2.160 . S
Mn379 O397 2.221 . S
O380 Mn381 2.087 . S
O380 C392 1.256 1_545 S
Mn381 O380 2.087 . S
Mn381 O388 2.089 . S
Mn381 O397 2.290 . S
Mn381 O398 2.251 . S
O382 Mn379 2.160 . S
O382 C393 1.239 . S
O383 Mn379 2.221 1_565 S
O383 Mn384 2.290 . S
O383 C394 1.278 . S
Mn384 O383 2.290 . S
Mn384 O386 2.089 1_565 S
Mn384 O389 2.251 . S
Mn384 O390 2.087 . S
O385 Mn379 2.163 . S
O385 C395 1.244 1_545 S
O386 Mn384 2.089 1_545 S
O386 C393 1.256 . S
O387 Mn379 2.160 . S
O387 C396 1.239 . S
O388 Mn381 2.089 . S
O388 C396 1.256 . S
O389 Mn384 2.251 . S
O389 C394 1.241 . S
O390 Mn384 2.087 . S
O390 C395 1.256 . S
C391 O397 1.278 . S
C391 O398 1.241 . S
C392 O378 1.244 . S
C392 O380 1.256 1_565 S
C393 O382 1.239 . S
C393 O386 1.256 . S
C394 O383 1.278 . S
C394 O389 1.241 . S
C395 O385 1.244 1_565 S
C395 O390 1.256 . S
C396 O387 1.239 . S
C396 O388 1.256 . S
O397 Mn379 2.221 . S
O397 Mn381 2.290 . S
O397 C391 1.278 . S
O398 Mn381 2.251 . S
O398 C391 1.241 . S
O399 Mn400 2.163 . S
O399 C413 1.244 . S
Mn400 O399 2.163 . S
Mn400 O403 2.160 . S
Mn400 O404 2.221 . S
Mn400 O406 2.163 . S
Mn400 O408 2.160 . S
Mn400 O418 2.221 . S
O401 Mn402 2.087 . S
O401 C413 1.256 . S
Mn402 O401 2.087 . S
Mn402 O409 2.089 . S
Mn402 O418 2.290 . S
Mn402 O419 2.251 . S
O403 Mn400 2.160 . S
O403 C414 1.239 . S
O404 Mn400 2.221 . S
O404 Mn405 2.290 . S
O404 C415 1.278 . S
Mn405 O404 2.290 . S
Mn405 O407 2.089 . S
Mn405 O410 2.251 . S
Mn405 O411 2.087 . S
O406 Mn400 2.163 . S
O406 C416 1.244 . S
O407 Mn405 2.089 . S
O407 C414 1.256 . S
O408 Mn400 2.160 . S
O408 C417 1.239 . S
O409 Mn402 2.089 . S
O409 C417 1.256 . S
O410 Mn405 2.251 . S
O410 C415 1.241 . S
O411 Mn405 2.087 . S
O411 C416 1.256 . S
C412 O418 1.278 . S
C412 O419 1.241 . S
C413 O399 1.244 . S
C413 O401 1.256 . S
C414 O403 1.239 . S
C414 O407 1.256 . S
C415 O404 1.278 . S
C415 O410 1.241 . S
C416 O406 1.244 . S
C416 O411 1.256 . S
C417 O408 1.239 . S
C417 O409 1.256 . S
O418 Mn400 2.221 . S
O418 Mn402 2.290 . S
O418 C412 1.278 . S
O419 Mn402 2.251 . S
O419 C412 1.241 . S
O420 Mn421 2.163 1_565 S
O420 C434 1.244 . S
Mn421 O420 2.163 1_545 S
Mn421 O424 2.160 . S
Mn421 O425 2.221 . S
Mn421 O427 2.163 1_455 S
Mn421 O429 2.160 1_545 S
Mn421 O439 2.221 1_545 S
O422 Mn423 2.087 . S
O422 C434 1.256 . S
Mn423 O422 2.087 . S
Mn423 O430 2.089 . S
Mn423 O439 2.290 . S
Mn423 O440 2.251 1_455 S
O424 Mn421 2.160 . S
O424 C435 1.239 . S
O425 Mn421 2.221 . S
O425 Mn426 2.290 . S
O425 C436 1.278 . S
Mn426 O425 2.290 . S
Mn426 O428 2.089 . S
Mn426 O431 2.251 . S
Mn426 O432 2.087 1_455 S
O427 Mn421 2.163 1_655 S
O427 C437 1.244 . S
O428 Mn426 2.089 . S
O428 C435 1.256 . S
O429 Mn421 2.160 1_565 S
O429 C438 1.239 . S
O430 Mn423 2.089 . S
O430 C438 1.256 . S
O431 Mn426 2.251 . S
O431 C436 1.241 . S
O432 Mn426 2.087 1_655 S
O432 C437 1.256 . S
C433 O439 1.278 1_655 S
C433 O440 1.241 . S
C434 O420 1.244 . S
C434 O422 1.256 . S
C435 O424 1.239 . S
C435 O428 1.256 . S
C436 O425 1.278 . S
C436 O431 1.241 . S
C437 O427 1.244 . S
C437 O432 1.256 . S
C438 O429 1.239 . S
C438 O430 1.256 . S
O439 Mn421 2.221 1_565 S
O439 Mn423 2.290 . S
O439 C433 1.278 1_455 S
O440 Mn423 2.251 1_655 S
O440 C433 1.241 . S
O441 Mn442 2.163 . S
O441 C455 1.244 . S
Mn442 O441 2.163 . S
Mn442 O445 2.160 . S
Mn442 O446 2.221 . S
Mn442 O448 2.163 . S
Mn442 O450 2.160 . S
Mn442 O460 2.221 . S
O443 Mn444 2.087 . S
O443 C455 1.256 . S
Mn444 O443 2.087 . S
Mn444 O451 2.089 . S
Mn444 O460 2.290 . S
Mn444 O461 2.251 . S
O445 Mn442 2.160 . S
O445 C456 1.239 . S
O446 Mn442 2.221 . S
O446 Mn447 2.290 . S
O446 C457 1.278 . S
Mn447 O446 2.290 . S
Mn447 O449 2.089 . S
Mn447 O452 2.251 . S
Mn447 O453 2.087 . S
O448 Mn442 2.163 . S
O448 C458 1.244 . S
O449 Mn447 2.089 . S
O449 C456 1.256 . S
O450 Mn442 2.160 . S
O450 C459 1.239 . S
O451 Mn444 2.089 . S
O451 C459 1.256 . S
O452 Mn447 2.251 . S
O452 C457 1.241 . S
O453 Mn447 2.087 . S
O453 C458 1.256 . S
C454 O460 1.278 . S
C454 O461 1.241 . S
C455 O441 1.244 . S
C455 O443 1.256 . S
C456 O445 1.239 . S
C456 O449 1.256 . S
C457 O446 1.278 . S
C457 O452 1.241 . S
C458 O448 1.244 . S
C458 O453 1.256 . S
C459 O450 1.239 . S
C459 O451 1.256 . S
O460 Mn442 2.221 . S
O460 Mn444 2.290 . S
O460 C454 1.278 . S
O461 Mn444 2.251 . S
O461 C454 1.241 . S
O462 Mn463 2.163 1_556 S
O462 C476 1.244 1_545 S
Mn463 O462 2.163 1_554 S
Mn463 O466 2.160 . S
Mn463 O467 2.221 . S
Mn463 O469 2.163 1_545 S
Mn463 O471 2.160 1_554 S
Mn463 O481 2.233 1_554 S
O464 Mn465 2.087 1_565 S
O464 C476 1.256 . S
Mn465 O464 2.087 1_545 S
Mn465 O472 2.089 . S
Mn465 O481 2.310 . S
Mn465 O482 2.251 1_545 S
O466 Mn463 2.160 . S
O466 C477 1.239 . S
O467 Mn463 2.221 . S
O467 Mn468 2.287 1_545 S
O467 C478 1.278 . S
Mn468 O467 2.287 1_565 S
Mn468 O470 2.088 1_565 S
Mn468 O473 2.250 1_565 S
Mn468 O474 2.092 . S
O469 Mn463 2.163 1_565 S
O469 C479 1.244 . S
O470 Mn468 2.088 1_545 S
O470 C477 1.256 . S
O471 Mn463 2.160 1_556 S
O471 C480 1.239 . S
O472 Mn465 2.089 . S
O472 C480 1.256 . S
O473 Mn468 2.250 1_545 S
O473 C478 1.241 . S
O474 Mn468 2.092 . S
O474 C479 1.256 . S
C475 O481 1.236 1_565 S
C475 O482 1.241 . S
C476 O462 1.244 1_565 S
C476 O464 1.256 . S
C477 O466 1.239 . S
C477 O470 1.256 . S
C478 O467 1.278 . S
C478 O473 1.241 . S
C479 O469 1.244 . S
C479 O474 1.256 . S
C480 O471 1.239 . S
C480 O472 1.256 . S
O481 Mn463 2.233 1_556 S
O481 Mn465 2.310 . S
O481 C475 1.236 1_545 S
O482 Mn465 2.251 1_565 S
O482 C475 1.241 . S
O483 Mn484 2.163 . S
O483 C497 1.244 . S
Mn484 O483 2.163 . S
Mn484 O487 2.160 . S
Mn484 O488 2.221 . S
Mn484 O490 2.163 . S
Mn484 O492 2.160 . S
Mn484 O502 2.221 . S
O485 Mn486 2.087 . S
O485 C497 1.256 . S
Mn486 O485 2.087 . S
Mn486 O493 2.089 . S
Mn486 O502 2.290 . S
Mn486 O503 2.251 . S
O487 Mn484 2.160 . S
O487 C498 1.239 . S
O488 Mn484 2.221 . S
O488 Mn489 2.290 . S
O488 C499 1.278 . S
Mn489 O488 2.290 . S
Mn489 O491 2.089 . S
Mn489 O494 2.251 . S
Mn489 O495 2.087 . S
O490 Mn484 2.163 . S
O490 C500 1.244 . S
O491 Mn489 2.089 . S
O491 C498 1.256 . S
O492 Mn484 2.160 . S
O492 C501 1.239 . S
O493 Mn486 2.089 . S
O493 C501 1.256 . S
O494 Mn489 2.251 . S
O494 C499 1.241 . S
O495 Mn489 2.087 . S
O495 C500 1.256 . S
C496 O502 1.278 . S
C496 O503 1.241 . S
C497 O483 1.244 . S
C497 O485 1.256 . S
C498 O487 1.239 . S
C498 O491 1.256 . S
C499 O488 1.278 . S
C499 O494 1.241 . S
C500 O490 1.244 . S
C500 O495 1.256 . S
C501 O492 1.239 . S
C501 O493 1.256 . S
O502 Mn484 2.221 . S
O502 Mn486 2.290 . S
O502 C496 1.278 . S
O503 Mn486 2.251 . S
O503 C496 1.241 . S
O504 Mn505 2.163 1_556 S
O504 C518 1.244 . S
Mn505 O504 2.163 1_554 S
Mn505 O508 2.160 . S
Mn505 O509 2.221 1_554 S
Mn505 O511 2.163 . S
Mn505 O513 2.160 . S
Mn505 O523 2.221 . S
O506 Mn507 2.087 . S
O506 C518 1.256 1_554 S
Mn507 O506 2.087 . S
Mn507 O514 2.089 . S
Mn507 O523 2.290 . S
Mn507 O524 2.251 . S
O508 Mn505 2.160 . S
O508 C519 1.239 . S
O509 Mn505 2.221 1_556 S
O509 Mn510 2.290 . S
O509 C520 1.278 . S
Mn510 O509 2.290 . S
Mn510 O512 2.089 1_556 S
Mn510 O515 2.251 . S
Mn510 O516 2.087 . S
O511 Mn505 2.163 . S
O511 C521 1.244 1_554 S
O512 Mn510 2.089 1_554 S
O512 C519 1.256 . S
O513 Mn505 2.160 . S
O513 C522 1.239 . S
O514 Mn507 2.089 . S
O514 C522 1.256 . S
O515 Mn510 2.251 . S
O515 C520 1.241 . S
O516 Mn510 2.087 . S
O516 C521 1.256 . S
C517 O523 1.278 . S
C517 O524 1.241 . S
C518 O504 1.244 . S
C518 O506 1.256 1_556 S
C519 O508 1.239 . S
C519 O512 1.256 . S
C520 O509 1.278 . S
C520 O515 1.241 . S
C521 O511 1.244 1_556 S
C521 O516 1.256 . S
C522 O513 1.239 . S
C522 O514 1.256 . S
O523 Mn505 2.221 . S
O523 Mn507 2.290 . S
O523 C517 1.278 . S
O524 Mn507 2.251 . S
O524 C517 1.241 . S
O525 Mn526 2.163 . S
O525 C539 1.244 . S
Mn526 O525 2.163 . S
Mn526 O529 2.160 . S
Mn526 O530 2.221 . S
Mn526 O532 2.163 . S
Mn526 O534 2.160 . S
Mn526 O544 2.221 . S
O527 Mn528 2.087 . S
O527 C539 1.256 . S
Mn528 O527 2.087 . S
Mn528 O535 2.089 . S
Mn528 O544 2.290 . S
Mn528 O545 2.251 . S
O529 Mn526 2.160 . S
O529 C540 1.239 . S
O530 Mn526 2.221 . S
O530 Mn531 2.290 . S
O530 C541 1.278 . S
Mn531 O530 2.290 . S
Mn531 O533 2.089 . S
Mn531 O536 2.251 . S
Mn531 O537 2.087 . S
O532 Mn526 2.163 . S
O532 C542 1.244 . S
O533 Mn531 2.089 . S
O533 C540 1.256 . S
O534 Mn526 2.160 . S
O534 C543 1.239 . S
O535 Mn528 2.089 . S
O535 C543 1.256 . S
O536 Mn531 2.251 . S
O536 C541 1.241 . S
O537 Mn531 2.087 . S
O537 C542 1.256 . S
C538 O544 1.278 . S
C538 O545 1.241 . S
C539 O525 1.244 . S
C539 O527 1.256 . S
C540 O529 1.239 . S
C540 O533 1.256 . S
C541 O530 1.278 . S
C541 O536 1.241 . S
C542 O532 1.244 . S
C542 O537 1.256 . S
C543 O534 1.239 . S
C543 O535 1.256 . S
O544 Mn526 2.221 . S
O544 Mn528 2.290 . S
O544 C538 1.278 . S
O545 Mn528 2.251 . S
O545 C538 1.241 . S
O546 Mn547 2.163 1_655 S
O546 C560 1.244 . S
Mn547 O546 2.163 1_455 S
Mn547 O550 2.160 . S
Mn547 O551 2.221 1_455 S
Mn547 O553 2.163 . S
Mn547 O555 2.160 . S
Mn547 O565 2.221 . S
O548 Mn549 2.087 . S
O548 C560 1.256 1_455 S
Mn549 O548 2.087 . S
Mn549 O556 2.089 . S
Mn549 O565 2.290 . S
Mn549 O566 2.251 . S
O550 Mn547 2.160 . S
O550 C561 1.239 . S
O551 Mn547 2.221 1_655 S
O551 Mn552 2.290 . S
O551 C562 1.278 . S
Mn552 O551 2.290 . S
Mn552 O554 2.088 . S
Mn552 O557 2.251 . S
Mn552 O558 2.087 . S
O553 Mn547 2.163 . S
O553 C563 1.244 1_455 S
O554 Mn552 2.088 . S
O554 C561 1.256 1_655 S
O555 Mn547 2.160 . S
O555 C564 1.239 . S
O556 Mn549 2.089 . S
O556 C564 1.256 . S
O557 Mn552 2.251 . S
O557 C562 1.241 . S
O558 Mn552 2.087 . S
O558 C563 1.256 . S
C559 O565 1.278 . S
C559 O566 1.241 . S
C560 O546 1.244 . S
C560 O548 1.256 1_655 S
C561 O550 1.239 . S
C561 O554 1.256 1_455 S
C562 O551 1.278 . S
C562 O557 1.241 . S
C563 O553 1.244 1_655 S
C563 O558 1.256 . S
C564 O555 1.239 . S
C564 O556 1.256 . S
O565 Mn547 2.221 . S
O565 Mn549 2.290 . S
O565 C559 1.278 . S
O566 Mn549 2.251 . S
O566 C559 1.241 . S
O567 Mn568 2.163 . S
O567 C581 1.244 . S
Mn568 O567 2.163 . S
Mn568 O571 2.160 . S
Mn568 O572 2.221 . S
Mn568 O574 2.163 . S
Mn568 O576 2.160 . S
Mn568 O586 2.221 . S
O569 Mn570 2.087 . S
O569 C581 1.256 . S
Mn570 O569 2.087 . S
Mn570 O577 2.089 . S
Mn570 O586 2.290 . S
Mn570 O587 2.251 . S
O571 Mn568 2.160 . S
O571 C582 1.239 . S
O572 Mn568 2.221 . S
O572 Mn573 2.290 . S
O572 C583 1.278 . S
Mn573 O572 2.290 . S
Mn573 O575 2.089 . S
Mn573 O578 2.251 . S
Mn573 O579 2.087 . S
O574 Mn568 2.163 . S
O574 C584 1.244 . S
O575 Mn573 2.089 . S
O575 C582 1.256 . S
O576 Mn568 2.160 . S
O576 C585 1.239 . S
O577 Mn570 2.089 . S
O577 C585 1.256 . S
O578 Mn573 2.251 . S
O578 C583 1.241 . S
O579 Mn573 2.087 . S
O579 C584 1.256 . S
C580 O586 1.278 . S
C580 O587 1.241 . S
C581 O567 1.244 . S
C581 O569 1.256 . S
C582 O571 1.239 . S
C582 O575 1.256 . S
C583 O572 1.278 . S
C583 O578 1.241 . S
C584 O574 1.244 . S
C584 O579 1.256 . S
C585 O576 1.239 . S
C585 O577 1.256 . S
O586 Mn568 2.221 . S
O586 Mn570 2.290 . S
O586 C580 1.278 . S
O587 Mn570 2.251 . S
O587 C580 1.241 . S
O588 Mn589 2.163 . S
O588 C602 1.244 . S
Mn589 O588 2.163 . S
Mn589 O592 2.160 . S
Mn589 O593 2.221 . S
Mn589 O595 2.163 . S
Mn589 O597 2.160 . S
Mn589 O607 2.221 . S
O590 Mn591 2.087 . S
O590 C602 1.256 . S
Mn591 O590 2.087 . S
Mn591 O598 2.089 . S
Mn591 O607 2.290 . S
Mn591 O608 2.251 . S
O592 Mn589 2.160 . S
O592 C603 1.239 . S
O593 Mn589 2.221 . S
O593 Mn594 2.290 . S
O593 C604 1.278 . S
Mn594 O593 2.290 . S
Mn594 O596 2.089 . S
Mn594 O599 2.251 . S
Mn594 O600 2.087 . S
O595 Mn589 2.163 . S
O595 C605 1.244 . S
O596 Mn594 2.089 . S
O596 C603 1.256 . S
O597 Mn589 2.160 . S
O597 C606 1.239 . S
O598 Mn591 2.089 . S
O598 C606 1.256 . S
O599 Mn594 2.251 . S
O599 C604 1.241 . S
O600 Mn594 2.087 . S
O600 C605 1.256 . S
C601 O607 1.278 . S
C601 O608 1.241 . S
C602 O588 1.244 . S
C602 O590 1.256 . S
C603 O592 1.239 . S
C603 O596 1.256 . S
C604 O593 1.278 . S
C604 O599 1.241 . S
C605 O595 1.244 . S
C605 O600 1.256 . S
C606 O597 1.239 . S
C606 O598 1.256 . S
O607 Mn589 2.221 . S
O607 Mn591 2.290 . S
O607 C601 1.278 . S
O608 Mn591 2.251 . S
O608 C601 1.241 . S
O609 Mn610 2.163 . S
O609 C623 1.244 . S
Mn610 O609 2.163 . S
Mn610 O613 2.160 . S
Mn610 O614 2.221 . S
Mn610 O616 2.163 . S
Mn610 O618 2.160 . S
Mn610 O628 2.221 . S
O611 Mn612 2.087 . S
O611 C623 1.256 . S
Mn612 O611 2.087 . S
Mn612 O619 2.089 . S
Mn612 O628 2.290 . S
Mn612 O629 2.251 . S
O613 Mn610 2.160 . S
O613 C624 1.239 . S
O614 Mn610 2.221 . S
O614 Mn615 2.290 . S
O614 C625 1.278 . S
Mn615 O614 2.290 . S
Mn615 O617 2.089 . S
Mn615 O620 2.251 . S
Mn615 O621 2.087 . S
O616 Mn610 2.163 . S
O616 C626 1.244 . S
O617 Mn615 2.089 . S
O617 C624 1.256 . S
O618 Mn610 2.160 . S
O618 C627 1.239 . S
O619 Mn612 2.089 . S
O619 C627 1.256 . S
O620 Mn615 2.251 . S
O620 C625 1.241 . S
O621 Mn615 2.087 . S
O621 C626 1.256 . S
C622 O628 1.278 . S
C622 O629 1.241 . S
C623 O609 1.244 . S
C623 O611 1.256 . S
C624 O613 1.239 . S
C624 O617 1.256 . S
C625 O614 1.278 . S
C625 O620 1.241 . S
C626 O616 1.244 . S
C626 O621 1.256 . S
C627 O618 1.239 . S
C627 O619 1.256 . S
O628 Mn610 2.221 . S
O628 Mn612 2.290 . S
O628 C622 1.278 . S
O629 Mn612 2.251 . S
O629 C622 1.241 . S
O630 Mn631 2.163 . S
O630 C644 1.244 . S
Mn631 O630 2.163 . S
Mn631 O634 2.160 . S
Mn631 O635 2.221 . S
Mn631 O637 2.163 . S
Mn631 O639 2.160 . S
Mn631 O649 2.221 . S
O632 Mn633 2.087 . S
O632 C644 1.256 . S
Mn633 O632 2.087 . S
Mn633 O640 2.089 . S
Mn633 O649 2.290 . S
Mn633 O650 2.251 . S
O634 Mn631 2.160 . S
O634 C645 1.239 . S
O635 Mn631 2.221 . S
O635 Mn636 2.290 . S
O635 C646 1.278 . S
Mn636 O635 2.290 . S
Mn636 O638 2.089 . S
Mn636 O641 2.251 . S
Mn636 O642 2.087 . S
O637 Mn631 2.163 . S
O637 C647 1.244 . S
O638 Mn636 2.089 . S
O638 C645 1.256 . S
O639 Mn631 2.160 . S
O639 C648 1.239 . S
O640 Mn633 2.089 . S
O640 C648 1.256 . S
O641 Mn636 2.251 . S
O641 C646 1.241 . S
O642 Mn636 2.087 . S
O642 C647 1.256 . S
C643 O649 1.278 . S
C643 O650 1.241 . S
C644 O630 1.244 . S
C644 O632 1.256 . S
C645 O634 1.239 . S
C645 O638 1.256 . S
C646 O635 1.278 . S
C646 O641 1.241 . S
C647 O637 1.244 . S
C647 O642 1.256 . S
C648 O639 1.239 . S
C648 O640 1.256 . S
O649 Mn631 2.221 . S
O649 Mn633 2.290 . S
O649 C643 1.278 . S
O650 Mn633 2.251 . S
O650 C643 1.241 . S
O651 Mn652 2.160 1_656 S
O651 C665 1.247 . S
Mn652 O651 2.160 1_454 S
Mn652 O655 2.160 . S
Mn652 O656 2.221 . S
Mn652 O658 2.163 1_554 S
Mn652 O660 2.160 1_455 S
Mn652 O670 2.221 1_454 S
O653 Mn654 2.087 1_556 S
O653 C665 1.256 . S
Mn654 O653 2.087 1_554 S
Mn654 O661 2.089 . S
Mn654 O670 2.290 1_554 S
Mn654 O671 2.251 1_554 S
O655 Mn652 2.160 . S
O655 C666 1.239 . S
O656 Mn652 2.221 . S
O656 Mn657 2.290 1_554 S
O656 C667 1.278 . S
Mn657 O656 2.290 1_556 S
Mn657 O659 2.088 1_556 S
Mn657 O662 2.251 1_556 S
Mn657 O663 2.087 . S
O658 Mn652 2.163 1_556 S
O658 C668 1.244 . S
O659 Mn657 2.088 1_554 S
O659 C666 1.258 . S
O660 Mn652 2.160 1_655 S
O660 C669 1.238 . S
O661 Mn654 2.089 . S
O661 C669 1.256 . S
O662 Mn657 2.251 1_554 S
O662 C667 1.241 . S
O663 Mn657 2.087 . S
O663 C668 1.256 . S
C664 O670 1.278 . S
C664 O671 1.241 . S
C665 O651 1.247 . S
C665 O653 1.256 . S
C666 O655 1.239 . S
C666 O659 1.258 . S
C667 O656 1.278 . S
C667 O662 1.241 . S
C668 O658 1.244 . S
C668 O663 1.256 . S
C669 O660 1.238 . S
C669 O661 1.256 . S
O670 Mn652 2.221 1_656 S
O670 Mn654 2.290 1_556 S
O670 C664 1.278 . S
O671 Mn654 2.251 1_556 S
O671 C664 1.241 . S
H672 C680 0.929 . S
H673 C682 0.930 . S
H674 C684 0.930 . S
H675 C687 0.929 . S
H676 C690 0.930 . S
H677 C692 0.960 . S
H678 C692 0.960 . S
H679 C692 0.960 . S
C680 H672 0.929 . S
C680 C681 1.377 1_655 S
C680 C682 1.384 . S
C681 C680 1.377 1_455 S
C681 C687 1.390 . S
C682 H673 0.930 . S
C682 C680 1.384 . S
C682 C683 1.372 1_655 S
C683 C682 1.372 1_455 S
C683 C684 1.400 . S
C683 C688 1.490 . S
C684 H674 0.930 . S
C684 C683 1.400 . S
C684 C687 1.386 . S
H685 C701 0.930 . S
H686 C702 0.931 . S
C687 H675 0.929 . S
C687 C681 1.390 . S
C687 C684 1.386 . S
C688 C683 1.490 . S
C688 C690 1.395 1_455 S
C688 C691 1.403 . S
H689 C695 0.930 . S
C690 H676 0.930 . S
C690 C688 1.395 1_655 S
C690 C693 1.403 . S
C691 C688 1.403 . S
C691 C692 1.524 . S
C691 C695 1.400 . S
C692 H677 0.960 . S
C692 H678 0.960 . S
C692 H679 0.960 . S
C692 C691 1.524 . S
C693 C690 1.403 . S
C693 C694 1.392 . S
C693 C697 1.495 . S
C694 C693 1.392 . S
C694 C695 1.385 1_655 S
C694 C696 1.478 . S
C695 H689 0.930 . S
C695 C691 1.400 . S
C695 C694 1.385 1_455 S
C696 C694 1.478 . S
C696 C698 1.381 . S
C696 C702 1.383 1_655 S
C697 C693 1.495 . S
C697 H703 0.959 . S
C697 H704 0.961 . S
C697 H705 0.960 . S
C698 C696 1.381 . S
C698 C699 1.394 . S
C698 H706 0.930 . S
C699 C698 1.394 . S
C699 C700 1.383 . S
C699 H707 0.929 . S
C700 C699 1.383 . S
C700 C701 1.377 1_655 S
C701 H685 0.930 . S
C701 C700 1.377 1_455 S
C701 C702 1.379 . S
C702 H686 0.931 . S
C702 C696 1.383 1_455 S
C702 C701 1.379 . S
H703 C697 0.959 . S
H704 C697 0.961 . S
H705 C697 0.960 . S
H706 C698 0.930 . S
H707 C699 0.929 . S
H708 C716 0.929 . S
H709 C718 0.930 . S
H710 C720 0.930 . S
H711 C723 0.929 . S
H712 C726 0.930 . S
H713 C728 0.960 . S
H714 C728 0.960 . S
H715 C728 0.960 . S
C716 H708 0.929 . S
C716 C717 1.377 . S
C716 C718 1.384 . S
C717 C716 1.377 . S
C717 C723 1.390 . S
C718 H709 0.930 . S
C718 C716 1.384 . S
C718 C719 1.372 . S
C719 C718 1.372 . S
C719 C720 1.400 . S
C719 C724 1.490 . S
C720 H710 0.930 . S
C720 C719 1.400 . S
C720 C723 1.386 . S
H721 C737 0.930 . S
H722 C738 0.931 . S
C723 H711 0.929 . S
C723 C717 1.390 . S
C723 C720 1.386 . S
C724 C719 1.490 . S
C724 C726 1.395 . S
C724 C727 1.403 . S
H725 C731 0.930 . S
C726 H712 0.930 . S
C726 C724 1.395 . S
C726 C729 1.403 . S
C727 C724 1.403 . S
C727 C728 1.524 . S
C727 C731 1.400 . S
C728 H713 0.960 . S
C728 H714 0.960 . S
C728 H715 0.960 . S
C728 C727 1.524 . S
C729 C726 1.403 . S
C729 C730 1.392 . S
C729 C733 1.495 . S
C730 C729 1.392 . S
C730 C731 1.385 . S
C730 C732 1.478 . S
C731 H725 0.930 . S
C731 C727 1.400 . S
C731 C730 1.385 . S
C732 C730 1.478 . S
C732 C734 1.381 . S
C732 C738 1.383 . S
C733 C729 1.495 . S
C733 H739 0.959 . S
C733 H740 0.961 . S
C733 H741 0.960 . S
C734 C732 1.381 . S
C734 C735 1.394 . S
C734 H742 0.930 . S
C735 C734 1.394 . S
C735 C736 1.383 . S
C735 H743 0.929 . S
C736 C735 1.383 . S
C736 C737 1.377 . S
C737 H721 0.930 . S
C737 C736 1.377 . S
C737 C738 1.379 . S
C738 H722 0.931 . S
C738 C732 1.383 . S
C738 C737 1.379 . S
H739 C733 0.959 . S
H740 C733 0.961 . S
H741 C733 0.960 . S
H742 C734 0.930 . S
H743 C735 0.929 . S
H744 C752 0.929 . S
H745 C754 0.930 . S
H746 C756 0.930 . S
H747 C759 0.929 . S
H748 C762 0.930 . S
H749 C764 0.960 . S
H750 C764 0.960 . S
H751 C764 0.960 . S
C752 H744 0.929 . S
C752 C753 1.377 . S
C752 C754 1.384 . S
C753 C752 1.377 . S
C753 C759 1.390 . S
C754 H745 0.930 . S
C754 C752 1.384 . S
C754 C755 1.372 . S
C755 C754 1.372 . S
C755 C756 1.400 . S
C755 C760 1.490 . S
C756 H746 0.930 . S
C756 C755 1.400 . S
C756 C759 1.386 . S
H757 C773 0.930 . S
H758 C774 0.931 . S
C759 H747 0.929 . S
C759 C753 1.390 . S
C759 C756 1.386 . S
C760 C755 1.490 . S
C760 C762 1.395 . S
C760 C763 1.403 . S
H761 C767 0.930 . S
C762 H748 0.930 . S
C762 C760 1.395 . S
C762 C765 1.403 . S
C763 C760 1.403 . S
C763 C764 1.524 . S
C763 C767 1.400 . S
C764 H749 0.960 . S
C764 H750 0.960 . S
C764 H751 0.960 . S
C764 C763 1.524 . S
C765 C762 1.403 . S
C765 C766 1.392 . S
C765 C769 1.495 . S
C766 C765 1.392 . S
C766 C767 1.385 . S
C766 C768 1.478 . S
C767 H761 0.930 . S
C767 C763 1.400 . S
C767 C766 1.385 . S
C768 C766 1.478 . S
C768 C770 1.381 . S
C768 C774 1.383 . S
C769 C765 1.495 . S
C769 H775 0.959 . S
C769 H776 0.961 . S
C769 H777 0.960 . S
C770 C768 1.381 . S
C770 C771 1.394 . S
C770 H778 0.930 . S
C771 C770 1.394 . S
C771 C772 1.383 . S
C771 H779 0.929 . S
C772 C771 1.383 . S
C772 C773 1.377 . S
C773 H757 0.930 . S
C773 C772 1.377 . S
C773 C774 1.379 . S
C774 H758 0.931 . S
C774 C768 1.383 . S
C774 C773 1.379 . S
H775 C769 0.959 . S
H776 C769 0.961 . S
H777 C769 0.960 . S
H778 C770 0.930 . S
H779 C771 0.929 . S
H780 C788 0.929 . S
H781 C790 0.930 . S
H782 C792 0.930 . S
H783 C795 0.929 . S
H784 C798 0.930 . S
H785 C800 0.960 . S
H786 C800 0.960 . S
H787 C800 0.960 . S
C788 H780 0.929 . S
C788 C789 1.377 . S
C788 C790 1.384 . S
C789 C788 1.377 . S
C789 C795 1.390 . S
C790 H781 0.930 . S
C790 C788 1.384 . S
C790 C791 1.372 . S
C791 C790 1.372 . S
C791 C792 1.400 . S
C791 C796 1.490 . S
C792 H782 0.930 . S
C792 C791 1.400 . S
C792 C795 1.386 . S
H793 C809 0.930 . S
H794 C810 0.931 . S
C795 H783 0.929 . S
C795 C789 1.390 . S
C795 C792 1.386 . S
C796 C791 1.490 . S
C796 C798 1.395 . S
C796 C799 1.403 . S
H797 C803 0.930 . S
C798 H784 0.930 . S
C798 C796 1.395 . S
C798 C801 1.403 . S
C799 C796 1.403 . S
C799 C800 1.524 . S
C799 C803 1.400 . S
C800 H785 0.960 . S
C800 H786 0.960 . S
C800 H787 0.960 . S
C800 C799 1.524 . S
C801 C798 1.403 . S
C801 C802 1.392 . S
C801 C805 1.495 . S
C802 C801 1.392 . S
C802 C803 1.385 . S
C802 C804 1.478 . S
C803 H797 0.930 . S
C803 C799 1.400 . S
C803 C802 1.385 . S
C804 C802 1.478 . S
C804 C806 1.381 . S
C804 C810 1.383 . S
C805 C801 1.495 . S
C805 H811 0.959 . S
C805 H812 0.961 . S
C805 H813 0.960 . S
C806 C804 1.381 . S
C806 C807 1.394 . S
C806 H814 0.930 . S
C807 C806 1.394 . S
C807 C808 1.383 . S
C807 H815 0.929 . S
C808 C807 1.383 . S
C808 C809 1.377 . S
C809 H793 0.930 . S
C809 C808 1.377 . S
C809 C810 1.379 . S
C810 H794 0.931 . S
C810 C804 1.383 . S
C810 C809 1.379 . S
H811 C805 0.959 . S
H812 C805 0.961 . S
H813 C805 0.960 . S
H814 C806 0.930 . S
H815 C807 0.929 . S
H816 C824 0.929 . S
H817 C826 0.930 . S
H818 C828 0.930 . S
H819 C831 0.929 . S
H820 C834 0.930 . S
H821 C836 0.960 . S
H822 C836 0.960 . S
H823 C836 0.960 . S
C824 H816 0.929 . S
C824 C825 1.377 . S
C824 C826 1.384 . S
C825 C824 1.377 . S
C825 C831 1.390 1_455 S
C826 H817 0.930 . S
C826 C824 1.384 . S
C826 C827 1.372 . S
C827 C826 1.372 . S
C827 C828 1.400 1_455 S
C827 C832 1.490 . S
C828 H818 0.930 . S
C828 C827 1.400 1_655 S
C828 C831 1.386 . S
H829 C845 0.930 . S
H830 C846 0.931 . S
C831 H819 0.929 . S
C831 C825 1.390 1_655 S
C831 C828 1.386 . S
C832 C827 1.490 . S
C832 C834 1.395 . S
C832 C835 1.403 1_455 S
H833 C839 0.930 . S
C834 H820 0.930 . S
C834 C832 1.395 . S
C834 C837 1.403 . S
C835 C832 1.403 1_655 S
C835 C836 1.524 . S
C835 C839 1.400 . S
C836 H821 0.960 . S
C836 H822 0.960 . S
C836 H823 0.960 . S
C836 C835 1.524 . S
C837 C834 1.403 . S
C837 C838 1.392 . S
C837 C841 1.495 . S
C838 C837 1.392 . S
C838 C839 1.385 1_455 S
C838 C840 1.478 . S
C839 H833 0.930 . S
C839 C835 1.400 . S
C839 C838 1.385 1_655 S
C840 C838 1.478 . S
C840 C842 1.381 . S
C840 C846 1.383 1_455 S
C841 C837 1.495 . S
C841 H847 0.959 . S
C841 H848 0.961 . S
C841 H849 0.960 . S
C842 C840 1.381 . S
C842 C843 1.394 . S
C842 H850 0.930 . S
C843 C842 1.394 . S
C843 C844 1.383 . S
C843 H851 0.929 . S
C844 C843 1.383 . S
C844 C845 1.377 1_455 S
C845 H829 0.930 . S
C845 C844 1.377 1_655 S
C845 C846 1.379 . S
C846 H830 0.931 . S
C846 C840 1.383 1_655 S
C846 C845 1.379 . S
H847 C841 0.959 . S
H848 C841 0.961 . S
H849 C841 0.960 . S
H850 C842 0.930 . S
H851 C843 0.929 . S
H852 C860 0.929 . S
H853 C862 0.930 . S
H854 C864 0.930 . S
H855 C867 0.929 . S
H856 C870 0.930 . S
H857 C872 0.960 . S
H858 C872 0.960 . S
H859 C872 0.960 . S
C860 H852 0.929 . S
C860 C861 1.377 . S
C860 C862 1.384 . S
C861 C860 1.377 . S
C861 C867 1.390 . S
C862 H853 0.930 . S
C862 C860 1.384 . S
C862 C863 1.372 . S
C863 C862 1.372 . S
C863 C864 1.400 . S
C863 C868 1.490 . S
C864 H854 0.930 . S
C864 C863 1.400 . S
C864 C867 1.386 . S
H865 C881 0.930 . S
H866 C882 0.931 . S
C867 H855 0.929 . S
C867 C861 1.390 . S
C867 C864 1.386 . S
C868 C863 1.490 . S
C868 C870 1.395 . S
C868 C871 1.403 . S
H869 C875 0.930 . S
C870 H856 0.930 . S
C870 C868 1.395 . S
C870 C873 1.403 . S
C871 C868 1.403 . S
C871 C872 1.524 . S
C871 C875 1.400 . S
C872 H857 0.960 . S
C872 H858 0.960 . S
C872 H859 0.960 . S
C872 C871 1.524 . S
C873 C870 1.403 . S
C873 C874 1.392 . S
C873 C877 1.495 . S
C874 C873 1.392 . S
C874 C875 1.385 . S
C874 C876 1.478 . S
C875 H869 0.930 . S
C875 C871 1.400 . S
C875 C874 1.385 . S
C876 C874 1.478 . S
C876 C878 1.381 . S
C876 C882 1.383 . S
C877 C873 1.495 . S
C877 H883 0.959 . S
C877 H884 0.961 . S
C877 H885 0.960 . S
C878 C876 1.381 . S
C878 C879 1.394 . S
C878 H886 0.930 . S
C879 C878 1.394 . S
C879 C880 1.383 . S
C879 H887 0.929 . S
C880 C879 1.383 . S
C880 C881 1.377 . S
C881 H865 0.930 . S
C881 C880 1.377 . S
C881 C882 1.379 . S
C882 H866 0.931 . S
C882 C876 1.383 . S
C882 C881 1.379 . S
H883 C877 0.959 . S
H884 C877 0.961 . S
H885 C877 0.960 . S
H886 C878 0.930 . S
H887 C879 0.929 . S
H888 C896 0.929 . S
H889 C898 0.930 . S
H890 C900 0.930 . S
H891 C903 0.929 . S
H892 C906 0.930 . S
H893 C908 0.960 . S
H894 C908 0.960 . S
H895 C908 0.960 . S
C896 H888 0.929 . S
C896 C897 1.377 . S
C896 C898 1.384 . S
C897 C896 1.377 . S
C897 C903 1.390 . S
C898 H889 0.930 . S
C898 C896 1.384 . S
C898 C899 1.372 . S
C899 C898 1.372 . S
C899 C900 1.400 . S
C899 C904 1.490 . S
C900 H890 0.930 . S
C900 C899 1.400 . S
C900 C903 1.386 . S
H901 C917 0.930 1_554 S
H902 C918 0.931 . S
C903 H891 0.929 . S
C903 C897 1.390 . S
C903 C900 1.386 . S
C904 C899 1.490 . S
C904 C906 1.395 . S
C904 C907 1.403 . S
H905 C911 0.930 . S
C906 H892 0.930 . S
C906 C904 1.395 . S
C906 C909 1.403 . S
C907 C904 1.403 . S
C907 C908 1.524 . S
C907 C911 1.400 . S
C908 H893 0.960 . S
C908 H894 0.960 . S
C908 H895 0.960 . S
C908 C907 1.524 . S
C909 C906 1.403 . S
C909 C910 1.392 . S
C909 C913 1.495 . S
C910 C909 1.392 . S
C910 C911 1.385 . S
C910 C912 1.478 . S
C911 H905 0.930 . S
C911 C907 1.400 . S
C911 C910 1.385 . S
C912 C910 1.478 . S
C912 C914 1.381 . S
C912 C918 1.383 . S
C913 C909 1.495 . S
C913 H919 0.959 . S
C913 H920 0.961 . S
C913 H921 0.960 . S
C914 C912 1.381 . S
C914 C915 1.394 . S
C914 H922 0.930 . S
C915 C914 1.394 . S
C915 C916 1.383 . S
C915 H923 0.929 . S
C916 C915 1.383 . S
C916 C917 1.377 . S
C917 H901 0.930 1_556 S
C917 C916 1.377 . S
C917 C918 1.379 . S
C918 H902 0.931 . S
C918 C912 1.383 . S
C918 C917 1.379 . S
H919 C913 0.959 . S
H920 C913 0.961 . S
H921 C913 0.960 . S
H922 C914 0.930 . S
H923 C915 0.929 . S
H924 C932 0.929 . S
H925 C934 0.930 . S
H926 C936 0.930 . S
H927 C939 0.929 . S
H928 C942 0.930 . S
H929 C944 0.960 . S
H930 C944 0.960 . S
H931 C944 0.960 . S
C932 H924 0.929 . S
C932 C933 1.377 . S
C932 C934 1.384 . S
C933 C932 1.377 . S
C933 C939 1.390 . S
C934 H925 0.930 . S
C934 C932 1.384 . S
C934 C935 1.372 . S
C935 C934 1.372 . S
C935 C936 1.400 . S
C935 C940 1.490 . S
C936 H926 0.930 . S
C936 C935 1.400 . S
C936 C939 1.386 . S
H937 C953 0.930 . S
H938 C954 0.931 . S
C939 H927 0.929 . S
C939 C933 1.390 . S
C939 C936 1.386 . S
C940 C935 1.490 . S
C940 C942 1.395 . S
C940 C943 1.403 . S
H941 C947 0.930 . S
C942 H928 0.930 . S
C942 C940 1.395 . S
C942 C945 1.403 . S
C943 C940 1.403 . S
C943 C944 1.524 . S
C943 C947 1.400 . S
C944 H929 0.960 . S
C944 H930 0.960 . S
C944 H931 0.960 . S
C944 C943 1.524 . S
C945 C942 1.403 . S
C945 C946 1.392 . S
C945 C949 1.495 . S
C946 C945 1.392 . S
C946 C947 1.385 . S
C946 C948 1.478 . S
C947 H941 0.930 . S
C947 C943 1.400 . S
C947 C946 1.385 . S
C948 C946 1.478 . S
C948 C950 1.381 . S
C948 C954 1.383 . S
C949 C945 1.495 . S
C949 H955 0.959 . S
C949 H956 0.961 . S
C949 H957 0.960 . S
C950 C948 1.381 . S
C950 C951 1.394 . S
C950 H958 0.930 . S
C951 C950 1.394 . S
C951 C952 1.383 . S
C951 H959 0.929 . S
C952 C951 1.383 . S
C952 C953 1.377 . S
C953 H937 0.930 . S
C953 C952 1.377 . S
C953 C954 1.379 . S
C954 H938 0.931 . S
C954 C948 1.383 . S
C954 C953 1.379 . S
H955 C949 0.959 . S
H956 C949 0.961 . S
H957 C949 0.960 . S
H958 C950 0.930 . S
H959 C951 0.929 . S
H960 C968 0.929 . S
H961 C970 0.930 . S
H962 C972 0.930 . S
H963 C975 0.929 . S
H964 C978 0.930 . S
H965 C980 0.960 . S
H966 C980 0.960 . S
H967 C980 0.960 1_545 S
C968 H960 0.929 . S
C968 C969 1.377 1_565 S
C968 C970 1.384 . S
C969 C968 1.377 1_545 S
C969 C975 1.390 . S
C970 H961 0.930 . S
C970 C968 1.384 . S
C970 C971 1.339 1_565 S
C971 C970 1.339 1_545 S
C971 C972 1.435 . S
C971 C976 1.491 1_545 S
C972 H962 0.930 . S
C972 C971 1.435 . S
C972 C975 1.386 . S
H973 C989 0.930 . S
H974 C990 0.931 . S
C975 H963 0.929 . S
C975 C969 1.390 . S
C975 C972 1.386 . S
C976 C971 1.491 1_565 S
C976 C978 1.395 . S
C976 C979 1.403 . S
H977 C983 0.930 . S
C978 H964 0.930 . S
C978 C976 1.395 . S
C978 C981 1.404 . S
C979 C976 1.403 . S
C979 C980 1.526 . S
C979 C983 1.400 . S
C980 H965 0.960 . S
C980 H966 0.960 . S
C980 H967 0.960 1_565 S
C980 C979 1.526 . S
C981 C978 1.404 . S
C981 C982 1.392 . S
C981 C985 1.495 . S
C982 C981 1.392 . S
C982 C983 1.385 . S
C982 C984 1.478 . S
C983 H977 0.930 . S
C983 C979 1.400 . S
C983 C982 1.385 . S
C984 C982 1.478 . S
C984 C986 1.381 . S
C984 C990 1.383 1_565 S
C985 C981 1.495 . S
C985 H991 0.959 . S
C985 H992 0.961 1_565 S
C985 H993 0.960 . S
C986 C984 1.381 . S
C986 C987 1.394 . S
C986 H994 0.930 . S
C987 C986 1.394 . S
C987 C988 1.383 . S
C987 H995 0.929 . S
C988 C987 1.383 . S
C988 C989 1.377 1_565 S
C989 H973 0.930 . S
C989 C988 1.377 1_545 S
C989 C990 1.379 . S
C990 H974 0.931 . S
C990 C984 1.383 1_545 S
C990 C989 1.379 . S
H991 C985 0.959 . S
H992 C985 0.961 1_545 S
H993 C985 0.960 . S
H994 C986 0.930 . S
H995 C987 0.929 . S
H996 C1004 0.929 . S
H997 C1006 0.930 . S
H998 C1008 0.930 . S
H999 C1011 0.929 . S
H1000 C1014 0.930 . S
H1001 C1016 0.960 . S
H1002 C1016 0.960 . S
H1003 C1016 0.960 . S
C1004 H996 0.929 . S
C1004 C1005 1.377 . S
C1004 C1006 1.384 . S
C1005 C1004 1.377 . S
C1005 C1011 1.390 . S
C1006 H997 0.930 . S
C1006 C1004 1.384 . S
C1006 C1007 1.372 . S
C1007 C1006 1.372 . S
C1007 C1008 1.400 . S
C1007 C1012 1.490 . S
C1008 H998 0.930 . S
C1008 C1007 1.400 . S
C1008 C1011 1.386 . S
H1009 C1025 0.930 . S
H1010 C1026 0.931 . S
C1011 H999 0.929 . S
C1011 C1005 1.390 . S
C1011 C1008 1.386 . S
C1012 C1007 1.490 . S
C1012 C1014 1.395 . S
C1012 C1015 1.403 . S
H1013 C1019 0.930 . S
C1014 H1000 0.930 . S
C1014 C1012 1.395 . S
C1014 C1017 1.403 . S
C1015 C1012 1.403 . S
C1015 C1016 1.524 . S
C1015 C1019 1.400 . S
C1016 H1001 0.960 . S
C1016 H1002 0.960 . S
C1016 H1003 0.960 . S
C1016 C1015 1.524 . S
C1017 C1014 1.403 . S
C1017 C1018 1.392 . S
C1017 C1021 1.495 . S
C1018 C1017 1.392 . S
C1018 C1019 1.385 . S
C1018 C1020 1.478 . S
C1019 H1013 0.930 . S
C1019 C1015 1.400 . S
C1019 C1018 1.385 . S
C1020 C1018 1.478 . S
C1020 C1022 1.381 . S
C1020 C1026 1.383 . S
C1021 C1017 1.495 . S
C1021 H1027 0.959 . S
C1021 H1028 0.961 . S
C1021 H1029 0.960 . S
C1022 C1020 1.381 . S
C1022 C1023 1.394 . S
C1022 H1030 0.930 . S
C1023 C1022 1.394 . S
C1023 C1024 1.383 . S
C1023 H1031 0.929 . S
C1024 C1023 1.383 . S
C1024 C1025 1.377 . S
C1025 H1009 0.930 . S
C1025 C1024 1.377 . S
C1025 C1026 1.379 . S
C1026 H1010 0.931 . S
C1026 C1020 1.383 . S
C1026 C1025 1.379 . S
H1027 C1021 0.959 . S
H1028 C1021 0.961 . S
H1029 C1021 0.960 . S
H1030 C1022 0.930 . S
H1031 C1023 0.929 . S
H1032 C1040 0.929 . S
H1033 C1042 0.930 . S
H1034 C1044 0.930 . S
H1035 C1047 0.929 . S
H1036 C1050 0.930 . S
H1037 C1052 0.960 . S
H1038 C1052 0.960 . S
H1039 C1052 0.960 . S
C1040 H1032 0.929 . S
C1040 C1041 1.377 1_565 S
C1040 C1042 1.384 . S
C1041 C1040 1.377 1_545 S
C1041 C1047 1.390 . S
C1042 H1033 0.930 . S
C1042 C1040 1.384 . S
C1042 C1043 1.372 1_565 S
C1043 C1042 1.372 1_545 S
C1043 C1044 1.400 . S
C1043 C1048 1.490 . S
C1044 H1034 0.930 . S
C1044 C1043 1.400 . S
C1044 C1047 1.386 . S
H1045 C1061 0.930 . S
H1046 C1062 0.931 . S
C1047 H1035 0.929 . S
C1047 C1041 1.390 . S
C1047 C1044 1.386 . S
C1048 C1043 1.490 . S
C1048 C1050 1.395 1_545 S
C1048 C1051 1.403 . S
H1049 C1055 0.930 . S
C1050 H1036 0.930 . S
C1050 C1048 1.395 1_565 S
C1050 C1053 1.403 . S
C1051 C1048 1.403 . S
C1051 C1052 1.524 . S
C1051 C1055 1.400 . S
C1052 H1037 0.960 . S
C1052 H1038 0.960 . S
C1052 H1039 0.960 . S
C1052 C1051 1.524 . S
C1053 C1050 1.403 . S
C1053 C1054 1.392 1_565 S
C1053 C1057 1.495 . S
C1054 C1053 1.392 1_545 S
C1054 C1055 1.385 . S
C1054 C1056 1.478 . S
C1055 H1049 0.930 . S
C1055 C1051 1.400 . S
C1055 C1054 1.385 . S
C1056 C1054 1.478 . S
C1056 C1058 1.381 . S
C1056 C1062 1.383 . S
C1057 C1053 1.495 . S
C1057 H1063 0.959 . S
C1057 H1064 0.961 . S
C1057 H1065 0.960 . S
C1058 C1056 1.381 . S
C1058 C1059 1.394 . S
C1058 H1066 0.930 1_545 S
C1059 C1058 1.394 . S
C1059 C1060 1.383 . S
C1059 H1067 0.929 . S
C1060 C1059 1.383 . S
C1060 C1061 1.377 . S
C1061 H1045 0.930 . S
C1061 C1060 1.377 . S
C1061 C1062 1.379 . S
C1062 H1046 0.931 . S
C1062 C1056 1.383 . S
C1062 C1061 1.379 . S
H1063 C1057 0.959 . S
H1064 C1057 0.961 . S
H1065 C1057 0.960 . S
H1066 C1058 0.930 1_565 S
H1067 C1059 0.929 . S
H1068 C1076 0.929 . S
H1069 C1078 0.930 . S
H1070 C1080 0.930 . S
H1071 C1083 0.929 . S
H1072 C1086 0.930 . S
H1073 C1088 0.960 . S
H1074 C1088 0.960 . S
H1075 C1088 0.960 . S
C1076 H1068 0.929 . S
C1076 C1077 1.377 . S
C1076 C1078 1.384 . S
C1077 C1076 1.377 . S
C1077 C1083 1.390 . S
C1078 H1069 0.930 . S
C1078 C1076 1.384 . S
C1078 C1079 1.372 . S
C1079 C1078 1.372 . S
C1079 C1080 1.400 . S
C1079 C1084 1.490 . S
C1080 H1070 0.930 . S
C1080 C1079 1.400 . S
C1080 C1083 1.386 . S
H1081 C1097 0.930 . S
H1082 C1098 0.931 . S
C1083 H1071 0.929 . S
C1083 C1077 1.390 . S
C1083 C1080 1.386 . S
C1084 C1079 1.490 . S
C1084 C1086 1.395 . S
C1084 C1087 1.403 . S
H1085 C1091 0.930 . S
C1086 H1072 0.930 . S
C1086 C1084 1.395 . S
C1086 C1089 1.403 . S
C1087 C1084 1.403 . S
C1087 C1088 1.524 . S
C1087 C1091 1.400 . S
C1088 H1073 0.960 . S
C1088 H1074 0.960 . S
C1088 H1075 0.960 . S
C1088 C1087 1.524 . S
C1089 C1086 1.403 . S
C1089 C1090 1.392 . S
C1089 C1093 1.495 . S
C1090 C1089 1.392 . S
C1090 C1091 1.385 . S
C1090 C1092 1.478 . S
C1091 H1085 0.930 . S
C1091 C1087 1.400 . S
C1091 C1090 1.385 . S
C1092 C1090 1.478 . S
C1092 C1094 1.381 . S
C1092 C1098 1.383 . S
C1093 C1089 1.495 . S
C1093 H1099 0.959 . S
C1093 H1100 0.961 . S
C1093 H1101 0.960 . S
C1094 C1092 1.381 . S
C1094 C1095 1.394 . S
C1094 H1102 0.930 . S
C1095 C1094 1.394 . S
C1095 C1096 1.383 . S
C1095 H1103 0.929 . S
C1096 C1095 1.383 . S
C1096 C1097 1.377 . S
C1097 H1081 0.930 . S
C1097 C1096 1.377 . S
C1097 C1098 1.379 . S
C1098 H1082 0.931 . S
C1098 C1092 1.383 . S
C1098 C1097 1.379 . S
H1099 C1093 0.959 . S
H1100 C1093 0.961 . S
H1101 C1093 0.960 . S
H1102 C1094 0.930 . S
H1103 C1095 0.929 . S
H1104 C1112 0.929 . S
H1105 C1114 0.930 . S
H1106 C1116 0.930 . S
H1107 C1119 0.929 . S
H1108 C1122 0.930 1_565 S
H1109 C1124 0.960 . S
H1110 C1124 0.960 . S
H1111 C1124 0.960 . S
C1112 H1104 0.929 . S
C1112 C1113 1.377 . S
C1112 C1114 1.384 . S
C1113 C1112 1.377 . S
C1113 C1119 1.390 1_545 S
C1114 H1105 0.930 . S
C1114 C1112 1.384 . S
C1114 C1115 1.372 . S
C1115 C1114 1.372 . S
C1115 C1116 1.400 1_545 S
C1115 C1120 1.490 . S
C1116 H1106 0.930 . S
C1116 C1115 1.400 1_565 S
C1116 C1119 1.386 . S
H1117 C1133 0.930 . S
H1118 C1134 0.931 . S
C1119 H1107 0.929 . S
C1119 C1113 1.390 1_565 S
C1119 C1116 1.386 . S
C1120 C1115 1.490 . S
C1120 C1122 1.395 . S
C1120 C1123 1.403 . S
H1121 C1127 0.930 . S
C1122 H1108 0.930 1_545 S
C1122 C1120 1.395 . S
C1122 C1125 1.403 . S
C1123 C1120 1.403 . S
C1123 C1124 1.524 . S
C1123 C1127 1.400 . S
C1124 H1109 0.960 . S
C1124 H1110 0.960 . S
C1124 H1111 0.960 . S
C1124 C1123 1.524 . S
C1125 C1122 1.403 . S
C1125 C1126 1.392 . S
C1125 C1129 1.495 1_545 S
C1126 C1125 1.392 . S
C1126 C1127 1.385 . S
C1126 C1128 1.478 . S
C1127 H1121 0.930 . S
C1127 C1123 1.400 . S
C1127 C1126 1.385 . S
C1128 C1126 1.478 . S
C1128 C1130 1.381 . S
C1128 C1134 1.383 1_545 S
C1129 C1125 1.495 1_565 S
C1129 H1135 0.959 . S
C1129 H1136 0.961 . S
C1129 H1137 0.960 1_565 S
C1130 C1128 1.381 . S
C1130 C1131 1.394 . S
C1130 H1138 0.930 . S
C1131 C1130 1.394 . S
C1131 C1132 1.383 . S
C1131 H1139 0.929 . S
C1132 C1131 1.383 . S
C1132 C1133 1.377 1_545 S
C1133 H1117 0.930 . S
C1133 C1132 1.377 1_565 S
C1133 C1134 1.379 . S
C1134 H1118 0.931 . S
C1134 C1128 1.383 1_565 S
C1134 C1133 1.379 . S
H1135 C1129 0.959 . S
H1136 C1129 0.961 . S
H1137 C1129 0.960 1_545 S
H1138 C1130 0.930 . S
H1139 C1131 0.929 . S
H1140 C1148 0.929 . S
H1141 C1150 0.930 . S
H1142 C1152 0.930 . S
H1143 C1155 0.929 . S
H1144 C1158 0.930 . S
H1145 C1160 0.960 . S
H1146 C1160 0.960 . S
H1147 C1160 0.960 . S
C1148 H1140 0.929 . S
C1148 C1149 1.377 . S
C1148 C1150 1.384 . S
C1149 C1148 1.377 . S
C1149 C1155 1.390 . S
C1150 H1141 0.930 . S
C1150 C1148 1.384 . S
C1150 C1151 1.372 . S
C1151 C1150 1.372 . S
C1151 C1152 1.400 . S
C1151 C1156 1.490 . S
C1152 H1142 0.930 . S
C1152 C1151 1.400 . S
C1152 C1155 1.386 . S
H1153 C1169 0.930 . S
H1154 C1170 0.931 . S
C1155 H1143 0.929 . S
C1155 C1149 1.390 . S
C1155 C1152 1.386 . S
C1156 C1151 1.490 . S
C1156 C1158 1.395 . S
C1156 C1159 1.403 . S
H1157 C1163 0.930 . S
C1158 H1144 0.930 . S
C1158 C1156 1.395 . S
C1158 C1161 1.403 . S
C1159 C1156 1.403 . S
C1159 C1160 1.524 . S
C1159 C1163 1.400 . S
C1160 H1145 0.960 . S
C1160 H1146 0.960 . S
C1160 H1147 0.960 . S
C1160 C1159 1.524 . S
C1161 C1158 1.403 . S
C1161 C1162 1.392 . S
C1161 C1165 1.495 . S
C1162 C1161 1.392 . S
C1162 C1163 1.385 . S
C1162 C1164 1.478 . S
C1163 H1157 0.930 . S
C1163 C1159 1.400 . S
C1163 C1162 1.385 . S
C1164 C1162 1.478 . S
C1164 C1166 1.381 . S
C1164 C1170 1.383 . S
C1165 C1161 1.495 . S
C1165 H1171 0.959 . S
C1165 H1172 0.961 . S
C1165 H1173 0.960 . S
C1166 C1164 1.381 . S
C1166 C1167 1.394 . S
C1166 H1174 0.930 . S
C1167 C1166 1.394 . S
C1167 C1168 1.383 . S
C1167 H1175 0.929 . S
C1168 C1167 1.383 . S
C1168 C1169 1.377 . S
C1169 H1153 0.930 . S
C1169 C1168 1.377 . S
C1169 C1170 1.379 . S
C1170 H1154 0.931 . S
C1170 C1164 1.383 . S
C1170 C1169 1.379 . S
H1171 C1165 0.959 . S
H1172 C1165 0.961 . S
H1173 C1165 0.960 . S
H1174 C1166 0.930 . S
H1175 C1167 0.929 . S
H1176 C1184 0.929 . S
H1177 C1186 0.930 . S
H1178 C1188 0.930 . S
H1179 C1191 0.929 . S
H1180 C1194 0.930 . S
H1181 C1196 0.960 . S
H1182 C1196 0.960 . S
H1183 C1196 0.960 . S
C1184 H1176 0.929 . S
C1184 C1185 1.377 1_565 S
C1184 C1186 1.384 . S
C1185 C1184 1.377 1_545 S
C1185 C1191 1.390 . S
C1186 H1177 0.930 . S
C1186 C1184 1.384 . S
C1186 C1187 1.372 1_565 S
C1187 C1186 1.372 1_545 S
C1187 C1188 1.400 . S
C1187 C1192 1.496 . S
C1188 H1178 0.930 . S
C1188 C1187 1.400 . S
C1188 C1191 1.386 . S
H1189 C1205 0.930 . S
H1190 C1206 0.931 . S
C1191 H1179 0.929 . S
C1191 C1185 1.390 . S
C1191 C1188 1.386 . S
C1192 C1187 1.496 . S
C1192 C1194 1.370 1_545 S
C1192 C1195 1.423 . S
H1193 C1199 0.930 . S
C1194 H1180 0.930 . S
C1194 C1192 1.370 1_565 S
C1194 C1197 1.403 . S
C1195 C1192 1.423 . S
C1195 C1196 1.524 . S
C1195 C1199 1.400 . S
C1196 H1181 0.960 . S
C1196 H1182 0.960 . S
C1196 H1183 0.960 . S
C1196 C1195 1.524 . S
C1197 C1194 1.403 . S
C1197 C1198 1.392 . S
C1197 C1201 1.495 . S
C1198 C1197 1.392 . S
C1198 C1199 1.385 1_565 S
C1198 C1200 1.478 . S
C1199 H1193 0.930 . S
C1199 C1195 1.400 . S
C1199 C1198 1.385 1_545 S
C1200 C1198 1.478 . S
C1200 C1202 1.381 . S
C1200 C1206 1.383 1_565 S
C1201 C1197 1.495 . S
C1201 H1207 0.959 . S
C1201 H1208 0.961 . S
C1201 H1209 0.960 . S
C1202 C1200 1.381 . S
C1202 C1203 1.394 . S
C1202 H1210 0.930 . S
C1203 C1202 1.394 . S
C1203 C1204 1.383 . S
C1203 H1211 0.929 . S
C1204 C1203 1.383 . S
C1204 C1205 1.377 1_565 S
C1205 H1189 0.930 . S
C1205 C1204 1.377 1_545 S
C1205 C1206 1.379 . S
C1206 H1190 0.931 . S
C1206 C1200 1.383 1_545 S
C1206 C1205 1.379 . S
H1207 C1201 0.959 . S
H1208 C1201 0.961 . S
H1209 C1201 0.960 . S
H1210 C1202 0.930 . S
H1211 C1203 0.929 . S
H1212 C1220 0.929 . S
H1213 C1222 0.930 . S
H1214 C1224 0.930 . S
H1215 C1227 0.929 . S
H1216 C1230 0.930 . S
H1217 C1232 0.960 . S
H1218 C1232 0.960 . S
H1219 C1232 0.960 . S
C1220 H1212 0.929 . S
C1220 C1221 1.377 . S
C1220 C1222 1.384 . S
C1221 C1220 1.377 . S
C1221 C1227 1.390 . S
C1222 H1213 0.930 . S
C1222 C1220 1.384 . S
C1222 C1223 1.372 . S
C1223 C1222 1.372 . S
C1223 C1224 1.400 . S
C1223 C1228 1.490 . S
C1224 H1214 0.930 . S
C1224 C1223 1.400 . S
C1224 C1227 1.386 . S
H1225 C1241 0.930 . S
H1226 C1242 0.931 . S
C1227 H1215 0.929 . S
C1227 C1221 1.390 . S
C1227 C1224 1.386 . S
C1228 C1223 1.490 . S
C1228 C1230 1.395 . S
C1228 C1231 1.403 . S
H1229 C1235 0.930 . S
C1230 H1216 0.930 . S
C1230 C1228 1.395 . S
C1230 C1233 1.403 . S
C1231 C1228 1.403 . S
C1231 C1232 1.524 . S
C1231 C1235 1.400 . S
C1232 H1217 0.960 . S
C1232 H1218 0.960 . S
C1232 H1219 0.960 . S
C1232 C1231 1.524 . S
C1233 C1230 1.403 . S
C1233 C1234 1.392 . S
C1233 C1237 1.495 . S
C1234 C1233 1.392 . S
C1234 C1235 1.385 . S
C1234 C1236 1.478 . S
C1235 H1229 0.930 . S
C1235 C1231 1.400 . S
C1235 C1234 1.385 . S
C1236 C1234 1.478 . S
C1236 C1238 1.381 . S
C1236 C1242 1.383 . S
C1237 C1233 1.495 . S
C1237 H1243 0.959 . S
C1237 H1244 0.961 . S
C1237 H1245 0.960 . S
C1238 C1236 1.381 . S
C1238 C1239 1.394 . S
C1238 H1246 0.930 . S
C1239 C1238 1.394 . S
C1239 C1240 1.383 . S
C1239 H1247 0.929 . S
C1240 C1239 1.383 . S
C1240 C1241 1.377 . S
C1241 H1225 0.930 . S
C1241 C1240 1.377 . S
C1241 C1242 1.379 . S
C1242 H1226 0.931 . S
C1242 C1236 1.383 . S
C1242 C1241 1.379 . S
H1243 C1237 0.959 . S
H1244 C1237 0.961 . S
H1245 C1237 0.960 . S
H1246 C1238 0.930 . S
H1247 C1239 0.929 . S
H1248 C1256 0.929 . S
H1249 C1258 0.930 . S
H1250 C1260 0.930 . S
H1251 C1263 0.929 . S
H1252 C1266 0.930 . S
H1253 C1268 0.960 . S
H1254 C1268 0.960 . S
H1255 C1268 0.960 . S
C1256 H1248 0.929 . S
C1256 C1257 1.377 1_556 S
C1256 C1258 1.384 . S
C1257 C1256 1.377 1_554 S
C1257 C1263 1.390 . S
C1258 H1249 0.930 . S
C1258 C1256 1.384 . S
C1258 C1259 1.372 1_556 S
C1259 C1258 1.372 1_554 S
C1259 C1260 1.400 . S
C1259 C1264 1.490 . S
C1260 H1250 0.930 . S
C1260 C1259 1.400 . S
C1260 C1263 1.386 . S
H1261 C1277 0.930 . S
H1262 C1278 0.931 . S
C1263 H1251 0.929 . S
C1263 C1257 1.390 . S
C1263 C1260 1.386 . S
C1264 C1259 1.490 . S
C1264 C1266 1.395 1_554 S
C1264 C1267 1.403 . S
H1265 C1271 0.930 . S
C1266 H1252 0.930 . S
C1266 C1264 1.395 1_556 S
C1266 C1269 1.403 . S
C1267 C1264 1.403 . S
C1267 C1268 1.524 . S
C1267 C1271 1.400 . S
C1268 H1253 0.960 . S
C1268 H1254 0.960 . S
C1268 H1255 0.960 . S
C1268 C1267 1.524 . S
C1269 C1266 1.403 . S
C1269 C1270 1.392 1_556 S
C1269 C1273 1.495 . S
C1270 C1269 1.392 1_554 S
C1270 C1271 1.385 . S
C1270 C1272 1.478 . S
C1271 H1265 0.930 . S
C1271 C1267 1.400 . S
C1271 C1270 1.385 . S
C1272 C1270 1.478 . S
C1272 C1274 1.381 1_554 S
C1272 C1278 1.383 . S
C1273 C1269 1.495 . S
C1273 H1279 0.959 . S
C1273 H1280 0.979 . S
C1273 H1281 0.960 . S
C1274 C1272 1.381 1_556 S
C1274 C1275 1.394 . S
C1274 H1282 0.930 . S
C1275 C1274 1.394 . S
C1275 C1276 1.367 1_556 S
C1275 H1283 0.929 . S
C1276 C1275 1.367 1_554 S
C1276 C1277 1.393 . S
C1277 H1261 0.930 . S
C1277 C1276 1.393 . S
C1277 C1278 1.379 . S
C1278 H1262 0.931 . S
C1278 C1272 1.383 . S
C1278 C1277 1.379 . S
H1279 C1273 0.959 . S
H1280 C1273 0.979 . S
H1281 C1273 0.960 . S
H1282 C1274 0.930 . S
H1283 C1275 0.929 . S
H1284 C1292 0.929 . S
H1285 C1294 0.930 . S
H1286 C1296 0.930 . S
H1287 C1299 0.929 . S
H1288 C1302 0.930 . S
H1289 C1304 0.960 . S
H1290 C1304 0.960 . S
H1291 C1304 0.960 . S
C1292 H1284 0.929 . S
C1292 C1293 1.377 1_556 S
C1292 C1294 1.384 . S
C1293 C1292 1.377 1_554 S
C1293 C1299 1.390 . S
C1294 H1285 0.930 . S
C1294 C1292 1.384 . S
C1294 C1295 1.372 1_556 S
C1295 C1294 1.372 1_554 S
C1295 C1296 1.400 . S
C1295 C1300 1.490 . S
C1296 H1286 0.930 . S
C1296 C1295 1.400 . S
C1296 C1299 1.386 . S
H1297 C1313 0.930 . S
H1298 C1314 0.931 . S
C1299 H1287 0.929 . S
C1299 C1293 1.390 . S
C1299 C1296 1.386 . S
C1300 C1295 1.490 . S
C1300 C1302 1.395 1_554 S
C1300 C1303 1.403 . S
H1301 C1307 0.930 . S
C1302 H1288 0.930 . S
C1302 C1300 1.395 1_556 S
C1302 C1305 1.403 . S
C1303 C1300 1.403 . S
C1303 C1304 1.524 . S
C1303 C1307 1.400 . S
C1304 H1289 0.960 . S
C1304 H1290 0.960 . S
C1304 H1291 0.960 . S
C1304 C1303 1.524 . S
C1305 C1302 1.403 . S
C1305 C1306 1.392 1_556 S
C1305 C1309 1.495 . S
C1306 C1305 1.392 1_554 S
C1306 C1307 1.385 . S
C1306 C1308 1.478 . S
C1307 H1301 0.930 . S
C1307 C1303 1.400 . S
C1307 C1306 1.385 . S
C1308 C1306 1.478 . S
C1308 C1310 1.381 1_554 S
C1308 C1314 1.383 . S
C1309 C1305 1.495 . S
C1309 H1315 0.959 . S
C1309 H1316 0.961 . S
C1309 H1317 0.960 . S
C1310 C1308 1.381 1_556 S
C1310 C1311 1.394 . S
C1310 H1318 0.930 . S
C1311 C1310 1.394 . S
C1311 C1312 1.383 1_556 S
C1311 H1319 0.929 . S
C1312 C1311 1.383 1_554 S
C1312 C1313 1.377 . S
C1313 H1297 0.930 . S
C1313 C1312 1.377 . S
C1313 C1314 1.379 . S
C1314 H1298 0.931 . S
C1314 C1308 1.383 . S
C1314 C1313 1.379 . S
H1315 C1309 0.959 . S
H1316 C1309 0.961 . S
H1317 C1309 0.960 . S
H1318 C1310 0.930 . S
H1319 C1311 0.929 . S
H1320 C1328 0.929 . S
H1321 C1330 0.930 . S
H1322 C1332 0.930 . S
H1323 C1335 0.929 . S
H1324 C1338 0.930 . S
H1325 C1340 0.960 . S
H1326 C1340 0.960 . S
H1327 C1340 0.960 . S
C1328 H1320 0.929 . S
C1328 C1329 1.377 . S
C1328 C1330 1.384 . S
C1329 C1328 1.377 . S
C1329 C1335 1.390 . S
C1330 H1321 0.930 . S
C1330 C1328 1.384 . S
C1330 C1331 1.372 . S
C1331 C1330 1.372 . S
C1331 C1332 1.400 . S
C1331 C1336 1.490 . S
C1332 H1322 0.930 . S
C1332 C1331 1.400 . S
C1332 C1335 1.386 . S
H1333 C1349 0.930 . S
H1334 C1350 0.931 . S
C1335 H1323 0.929 . S
C1335 C1329 1.390 . S
C1335 C1332 1.386 . S
C1336 C1331 1.490 . S
C1336 C1338 1.395 . S
C1336 C1339 1.403 . S
H1337 C1343 0.930 . S
C1338 H1324 0.930 . S
C1338 C1336 1.395 . S
C1338 C1341 1.403 . S
C1339 C1336 1.403 . S
C1339 C1340 1.524 . S
C1339 C1343 1.400 . S
C1340 H1325 0.960 . S
C1340 H1326 0.960 . S
C1340 H1327 0.960 . S
C1340 C1339 1.524 . S
C1341 C1338 1.403 . S
C1341 C1342 1.392 . S
C1341 C1345 1.495 . S
C1342 C1341 1.392 . S
C1342 C1343 1.385 . S
C1342 C1344 1.478 . S
C1343 H1337 0.930 . S
C1343 C1339 1.400 . S
C1343 C1342 1.385 . S
C1344 C1342 1.478 . S
C1344 C1346 1.381 . S
C1344 C1350 1.383 . S
C1345 C1341 1.495 . S
C1345 H1351 0.959 . S
C1345 H1352 0.961 . S
C1345 H1353 0.960 . S
C1346 C1344 1.381 . S
C1346 C1347 1.394 . S
C1346 H1354 0.930 . S
C1347 C1346 1.394 . S
C1347 C1348 1.383 . S
C1347 H1355 0.929 . S
C1348 C1347 1.383 . S
C1348 C1349 1.377 . S
C1349 H1333 0.930 . S
C1349 C1348 1.377 . S
C1349 C1350 1.379 . S
C1350 H1334 0.931 . S
C1350 C1344 1.383 . S
C1350 C1349 1.379 . S
H1351 C1345 0.959 . S
H1352 C1345 0.961 . S
H1353 C1345 0.960 . S
H1354 C1346 0.930 . S
H1355 C1347 0.929 . S
H1356 C1364 0.929 . S
H1357 C1366 0.930 . S
H1358 C1368 0.930 . S
H1359 C1371 0.929 . S
H1360 C1374 0.930 . S
H1361 C1376 0.960 . S
H1362 C1376 0.960 . S
H1363 C1376 0.960 . S
C1364 H1356 0.929 . S
C1364 C1365 1.377 . S
C1364 C1366 1.384 . S
C1365 C1364 1.377 . S
C1365 C1371 1.390 . S
C1366 H1357 0.930 . S
C1366 C1364 1.384 . S
C1366 C1367 1.372 . S
C1367 C1366 1.372 . S
C1367 C1368 1.400 . S
C1367 C1372 1.490 . S
C1368 H1358 0.930 . S
C1368 C1367 1.400 . S
C1368 C1371 1.386 . S
H1369 C1385 0.930 . S
H1370 C1386 0.931 . S
C1371 H1359 0.929 . S
C1371 C1365 1.390 . S
C1371 C1368 1.386 . S
C1372 C1367 1.490 . S
C1372 C1374 1.395 . S
C1372 C1375 1.403 . S
H1373 C1379 0.930 . S
C1374 H1360 0.930 . S
C1374 C1372 1.395 . S
C1374 C1377 1.403 . S
C1375 C1372 1.403 . S
C1375 C1376 1.524 . S
C1375 C1379 1.400 . S
C1376 H1361 0.960 . S
C1376 H1362 0.960 . S
C1376 H1363 0.960 . S
C1376 C1375 1.524 . S
C1377 C1374 1.403 . S
C1377 C1378 1.392 . S
C1377 C1381 1.495 . S
C1378 C1377 1.392 . S
C1378 C1379 1.385 . S
C1378 C1380 1.478 . S
C1379 H1373 0.930 . S
C1379 C1375 1.400 . S
C1379 C1378 1.385 . S
C1380 C1378 1.478 . S
C1380 C1382 1.381 . S
C1380 C1386 1.383 . S
C1381 C1377 1.495 . S
C1381 H1387 0.959 . S
C1381 H1388 0.961 . S
C1381 H1389 0.960 . S
C1382 C1380 1.381 . S
C1382 C1383 1.394 . S
C1382 H1390 0.930 . S
C1383 C1382 1.394 . S
C1383 C1384 1.383 . S
C1383 H1391 0.929 . S
C1384 C1383 1.383 . S
C1384 C1385 1.377 . S
C1385 H1369 0.930 . S
C1385 C1384 1.377 . S
C1385 C1386 1.379 . S
C1386 H1370 0.931 . S
C1386 C1380 1.383 . S
C1386 C1385 1.379 . S
H1387 C1381 0.959 . S
H1388 C1381 0.961 . S
H1389 C1381 0.960 . S
H1390 C1382 0.930 . S
H1391 C1383 0.929 . S
H1392 C1400 0.929 . S
H1393 C1402 0.930 . S
H1394 C1404 0.930 . S
H1395 C1407 0.929 . S
H1396 C1410 0.930 . S
H1397 C1412 0.960 . S
H1398 C1412 0.960 . S
H1399 C1412 0.960 . S
C1400 H1392 0.929 . S
C1400 C1401 1.377 . S
C1400 C1402 1.384 . S
C1401 C1400 1.377 . S
C1401 C1407 1.390 . S
C1402 H1393 0.930 . S
C1402 C1400 1.384 . S
C1402 C1403 1.372 . S
C1403 C1402 1.372 . S
C1403 C1404 1.400 . S
C1403 C1408 1.490 . S
C1404 H1394 0.930 . S
C1404 C1403 1.400 . S
C1404 C1407 1.386 . S
H1405 C1421 0.930 . S
H1406 C1422 0.931 . S
C1407 H1395 0.929 . S
C1407 C1401 1.390 . S
C1407 C1404 1.386 . S
C1408 C1403 1.490 . S
C1408 C1410 1.395 . S
C1408 C1411 1.403 . S
H1409 C1415 0.930 . S
C1410 H1396 0.930 . S
C1410 C1408 1.395 . S
C1410 C1413 1.403 . S
C1411 C1408 1.403 . S
C1411 C1412 1.524 . S
C1411 C1415 1.400 . S
C1412 H1397 0.960 . S
C1412 H1398 0.960 . S
C1412 H1399 0.960 . S
C1412 C1411 1.524 . S
C1413 C1410 1.403 . S
C1413 C1414 1.392 . S
C1413 C1417 1.495 . S
C1414 C1413 1.392 . S
C1414 C1415 1.385 . S
C1414 C1416 1.478 . S
C1415 H1409 0.930 . S
C1415 C1411 1.400 . S
C1415 C1414 1.385 . S
C1416 C1414 1.478 . S
C1416 C1418 1.381 . S
C1416 C1422 1.383 . S
C1417 C1413 1.495 . S
C1417 H1423 0.959 . S
C1417 H1424 0.961 . S
C1417 H1425 0.960 . S
C1418 C1416 1.381 . S
C1418 C1419 1.394 . S
C1418 H1426 0.930 . S
C1419 C1418 1.394 . S
C1419 C1420 1.383 . S
C1419 H1427 0.929 . S
C1420 C1419 1.383 . S
C1420 C1421 1.377 . S
C1421 H1405 0.930 . S
C1421 C1420 1.377 . S
C1421 C1422 1.379 . S
C1422 H1406 0.931 . S
C1422 C1416 1.383 . S
C1422 C1421 1.379 . S
H1423 C1417 0.959 . S
H1424 C1417 0.961 . S
H1425 C1417 0.960 . S
H1426 C1418 0.930 . S
H1427 C1419 0.929 . S
H1428 C1436 0.929 . S
H1429 C1438 0.930 . S
H1430 C1440 0.930 . S
H1431 C1443 0.929 . S
H1432 C1446 0.930 . S
H1433 C1448 0.960 . S
H1434 C1448 0.960 . S
H1435 C1448 0.960 . S
C1436 H1428 0.929 . S
C1436 C1437 1.377 . S
C1436 C1438 1.384 . S
C1437 C1436 1.377 . S
C1437 C1443 1.390 . S
C1438 H1429 0.930 . S
C1438 C1436 1.384 . S
C1438 C1439 1.372 . S
C1439 C1438 1.372 . S
C1439 C1440 1.400 . S
C1439 C1444 1.490 . S
C1440 H1430 0.930 . S
C1440 C1439 1.400 . S
C1440 C1443 1.386 . S
H1441 C1457 0.930 . S
H1442 C1458 0.931 . S
C1443 H1431 0.929 . S
C1443 C1437 1.390 . S
C1443 C1440 1.386 . S
C1444 C1439 1.490 . S
C1444 C1446 1.395 . S
C1444 C1447 1.403 . S
H1445 C1451 0.930 . S
C1446 H1432 0.930 . S
C1446 C1444 1.395 . S
C1446 C1449 1.403 . S
C1447 C1444 1.403 . S
C1447 C1448 1.524 . S
C1447 C1451 1.400 . S
C1448 H1433 0.960 . S
C1448 H1434 0.960 . S
C1448 H1435 0.960 . S
C1448 C1447 1.524 . S
C1449 C1446 1.403 . S
C1449 C1450 1.392 . S
C1449 C1453 1.495 . S
C1450 C1449 1.392 . S
C1450 C1451 1.385 . S
C1450 C1452 1.478 . S
C1451 H1445 0.930 . S
C1451 C1447 1.400 . S
C1451 C1450 1.385 . S
C1452 C1450 1.478 . S
C1452 C1454 1.381 . S
C1452 C1458 1.383 . S
C1453 C1449 1.495 . S
C1453 H1459 0.959 . S
C1453 H1460 0.961 . S
C1453 H1461 0.960 . S
C1454 C1452 1.381 . S
C1454 C1455 1.394 . S
C1454 H1462 0.930 . S
C1455 C1454 1.394 . S
C1455 C1456 1.383 . S
C1455 H1463 0.929 1_565 S
C1456 C1455 1.383 . S
C1456 C1457 1.377 . S
C1457 H1441 0.930 . S
C1457 C1456 1.377 . S
C1457 C1458 1.379 . S
C1458 H1442 0.931 . S
C1458 C1452 1.383 . S
C1458 C1457 1.379 . S
H1459 C1453 0.959 . S
H1460 C1453 0.961 . S
H1461 C1453 0.960 . S
H1462 C1454 0.930 . S
H1463 C1455 0.929 1_545 S
H1464 C1472 0.929 . S
H1465 C1474 0.930 . S
H1466 C1476 0.930 . S
H1467 C1479 0.929 . S
H1468 C1482 0.930 . S
H1469 C1484 0.960 . S
H1470 C1484 0.960 . S
H1471 C1484 0.960 . S
C1472 H1464 0.929 . S
C1472 C1473 1.377 . S
C1472 C1474 1.384 . S
C1473 C1472 1.377 . S
C1473 C1479 1.390 . S
C1474 H1465 0.930 . S
C1474 C1472 1.384 . S
C1474 C1475 1.372 . S
C1475 C1474 1.372 . S
C1475 C1476 1.400 . S
C1475 C1480 1.490 . S
C1476 H1466 0.930 . S
C1476 C1475 1.400 . S
C1476 C1479 1.386 . S
H1477 C1493 0.930 . S
H1478 C1494 0.931 . S
C1479 H1467 0.929 . S
C1479 C1473 1.390 . S
C1479 C1476 1.386 . S
C1480 C1475 1.490 . S
C1480 C1482 1.395 . S
C1480 C1483 1.403 . S
H1481 C1487 0.930 . S
C1482 H1468 0.930 . S
C1482 C1480 1.395 . S
C1482 C1485 1.403 . S
C1483 C1480 1.403 . S
C1483 C1484 1.524 . S
C1483 C1487 1.400 . S
C1484 H1469 0.960 . S
C1484 H1470 0.960 . S
C1484 H1471 0.960 . S
C1484 C1483 1.524 . S
C1485 C1482 1.403 . S
C1485 C1486 1.392 . S
C1485 C1489 1.495 . S
C1486 C1485 1.392 . S
C1486 C1487 1.385 . S
C1486 C1488 1.478 . S
C1487 H1481 0.930 . S
C1487 C1483 1.400 . S
C1487 C1486 1.385 . S
C1488 C1486 1.478 . S
C1488 C1490 1.381 . S
C1488 C1494 1.383 . S
C1489 C1485 1.495 . S
C1489 H1495 0.959 . S
C1489 H1496 0.961 . S
C1489 H1497 0.960 . S
C1490 C1488 1.381 . S
C1490 C1491 1.394 . S
C1490 H1498 0.930 . S
C1491 C1490 1.394 . S
C1491 C1492 1.383 . S
C1491 H1499 0.929 . S
C1492 C1491 1.383 . S
C1492 C1493 1.377 . S
C1493 H1477 0.930 . S
C1493 C1492 1.377 . S
C1493 C1494 1.379 . S
C1494 H1478 0.931 . S
C1494 C1488 1.383 . S
C1494 C1493 1.379 . S
H1495 C1489 0.959 . S
H1496 C1489 0.961 . S
H1497 C1489 0.960 . S
H1498 C1490 0.930 . S
H1499 C1491 0.929 . S
H1500 C1508 0.929 . S
H1501 C1510 0.930 . S
H1502 C1512 0.930 . S
H1503 C1515 0.929 . S
H1504 C1518 0.930 . S
H1505 C1520 0.960 . S
H1506 C1520 0.960 . S
H1507 C1520 0.960 . S
C1508 H1500 0.929 . S
C1508 C1509 1.377 . S
C1508 C1510 1.384 . S
C1509 C1508 1.377 . S
C1509 C1515 1.390 . S
C1510 H1501 0.930 . S
C1510 C1508 1.384 . S
C1510 C1511 1.372 . S
C1511 C1510 1.372 . S
C1511 C1512 1.400 . S
C1511 C1516 1.490 . S
C1512 H1502 0.930 . S
C1512 C1511 1.400 . S
C1512 C1515 1.386 . S
H1513 C1529 0.930 . S
H1514 C1530 0.931 . S
C1515 H1503 0.929 . S
C1515 C1509 1.390 . S
C1515 C1512 1.386 . S
C1516 C1511 1.490 . S
C1516 C1518 1.395 . S
C1516 C1519 1.403 . S
H1517 C1523 0.930 . S
C1518 H1504 0.930 . S
C1518 C1516 1.395 . S
C1518 C1521 1.403 . S
C1519 C1516 1.403 . S
C1519 C1520 1.524 . S
C1519 C1523 1.400 . S
C1520 H1505 0.960 . S
C1520 H1506 0.960 . S
C1520 H1507 0.960 . S
C1520 C1519 1.524 . S
C1521 C1518 1.403 . S
C1521 C1522 1.392 . S
C1521 C1525 1.495 . S
C1522 C1521 1.392 . S
C1522 C1523 1.385 . S
C1522 C1524 1.478 . S
C1523 H1517 0.930 . S
C1523 C1519 1.400 . S
C1523 C1522 1.385 . S
C1524 C1522 1.478 . S
C1524 C1526 1.381 . S
C1524 C1530 1.383 . S
C1525 C1521 1.495 . S
C1525 H1531 0.959 . S
C1525 H1532 0.961 . S
C1525 H1533 0.960 . S
C1526 C1524 1.381 . S
C1526 C1527 1.394 . S
C1526 H1534 0.930 . S
C1527 C1526 1.394 . S
C1527 C1528 1.383 . S
C1527 H1535 0.929 . S
C1528 C1527 1.383 . S
C1528 C1529 1.377 . S
C1529 H1513 0.930 . S
C1529 C1528 1.377 . S
C1529 C1530 1.379 . S
C1530 H1514 0.931 . S
C1530 C1524 1.383 . S
C1530 C1529 1.379 . S
H1531 C1525 0.959 . S
H1532 C1525 0.961 . S
H1533 C1525 0.960 . S
H1534 C1526 0.930 . S
H1535 C1527 0.929 . S
H1536 C1544 0.929 . S
H1537 C1546 0.930 . S
H1538 C1548 0.930 . S
H1539 C1551 0.929 . S
H1540 C1554 0.930 . S
H1541 C1556 0.960 . S
H1542 C1556 0.960 . S
H1543 C1556 0.960 . S
C1544 H1536 0.929 . S
C1544 C1545 1.377 . S
C1544 C1546 1.384 . S
C1545 C1544 1.377 . S
C1545 C1551 1.390 1_455 S
C1546 H1537 0.930 . S
C1546 C1544 1.384 . S
C1546 C1547 1.372 . S
C1547 C1546 1.372 . S
C1547 C1548 1.400 1_455 S
C1547 C1552 1.490 . S
C1548 H1538 0.930 . S
C1548 C1547 1.400 1_655 S
C1548 C1551 1.386 . S
H1549 C1565 0.930 1_655 S
H1550 C1566 0.931 1_655 S
C1551 H1539 0.929 . S
C1551 C1545 1.390 1_655 S
C1551 C1548 1.386 . S
C1552 C1547 1.490 . S
C1552 C1554 1.395 . S
C1552 C1555 1.403 1_455 S
H1553 C1559 0.930 . S
C1554 H1540 0.930 . S
C1554 C1552 1.395 . S
C1554 C1557 1.403 . S
C1555 C1552 1.403 1_655 S
C1555 C1556 1.524 . S
C1555 C1559 1.400 . S
C1556 H1541 0.960 . S
C1556 H1542 0.960 . S
C1556 H1543 0.960 . S
C1556 C1555 1.524 . S
C1557 C1554 1.403 . S
C1557 C1558 1.392 . S
C1557 C1561 1.495 . S
C1558 C1557 1.392 . S
C1558 C1559 1.385 1_455 S
C1558 C1560 1.478 . S
C1559 H1553 0.930 . S
C1559 C1555 1.400 . S
C1559 C1558 1.385 1_655 S
C1560 C1558 1.478 . S
C1560 C1562 1.381 . S
C1560 C1566 1.383 . S
C1561 C1557 1.495 . S
C1561 H1567 0.959 . S
C1561 H1568 0.961 . S
C1561 H1569 0.960 . S
C1562 C1560 1.381 . S
C1562 C1563 1.394 . S
C1562 H1570 0.930 . S
C1563 C1562 1.394 . S
C1563 C1564 1.383 . S
C1563 H1571 0.929 . S
C1564 C1563 1.383 . S
C1564 C1565 1.377 . S
C1565 H1549 0.930 1_455 S
C1565 C1564 1.377 . S
C1565 C1566 1.379 . S
C1566 H1550 0.931 1_455 S
C1566 C1560 1.383 . S
C1566 C1565 1.379 . S
H1567 C1561 0.959 . S
H1568 C1561 0.961 . S
H1569 C1561 0.960 . S
H1570 C1562 0.930 . S
H1571 C1563 0.929 . S
H1572 C1580 0.929 . S
H1573 C1582 0.930 . S
H1574 C1584 0.930 . S
H1575 C1587 0.929 . S
H1576 C1590 0.930 . S
H1577 C1592 0.960 . S
H1578 C1592 0.960 . S
H1579 C1592 0.960 . S
C1580 H1572 0.929 . S
C1580 C1581 1.377 . S
C1580 C1582 1.384 . S
C1581 C1580 1.377 . S
C1581 C1587 1.390 . S
C1582 H1573 0.930 . S
C1582 C1580 1.384 . S
C1582 C1583 1.372 . S
C1583 C1582 1.372 . S
C1583 C1584 1.400 . S
C1583 C1588 1.490 . S
C1584 H1574 0.930 . S
C1584 C1583 1.400 . S
C1584 C1587 1.386 . S
H1585 C1601 0.930 . S
H1586 C1602 0.931 . S
C1587 H1575 0.929 . S
C1587 C1581 1.390 . S
C1587 C1584 1.386 . S
C1588 C1583 1.490 . S
C1588 C1590 1.395 . S
C1588 C1591 1.403 . S
H1589 C1595 0.930 . S
C1590 H1576 0.930 . S
C1590 C1588 1.395 . S
C1590 C1593 1.403 . S
C1591 C1588 1.403 . S
C1591 C1592 1.524 . S
C1591 C1595 1.400 . S
C1592 H1577 0.960 . S
C1592 H1578 0.960 . S
C1592 H1579 0.960 . S
C1592 C1591 1.524 . S
C1593 C1590 1.403 . S
C1593 C1594 1.392 . S
C1593 C1597 1.495 . S
C1594 C1593 1.392 . S
C1594 C1595 1.385 . S
C1594 C1596 1.478 . S
C1595 H1589 0.930 . S
C1595 C1591 1.400 . S
C1595 C1594 1.385 . S
C1596 C1594 1.478 . S
C1596 C1598 1.381 . S
C1596 C1602 1.383 . S
C1597 C1593 1.495 . S
C1597 H1603 0.959 . S
C1597 H1604 0.961 . S
C1597 H1605 0.960 . S
C1598 C1596 1.381 . S
C1598 C1599 1.394 . S
C1598 H1606 0.930 . S
C1599 C1598 1.394 . S
C1599 C1600 1.383 . S
C1599 H1607 0.929 . S
C1600 C1599 1.383 . S
C1600 C1601 1.377 . S
C1601 H1585 0.930 . S
C1601 C1600 1.377 . S
C1601 C1602 1.379 . S
C1602 H1586 0.931 . S
C1602 C1596 1.383 . S
C1602 C1601 1.379 . S
H1603 C1597 0.959 . S
H1604 C1597 0.961 . S
H1605 C1597 0.960 . S
H1606 C1598 0.930 . S
H1607 C1599 0.929 . S
H1608 C1616 0.929 . S
H1609 C1618 0.930 . S
H1610 C1620 0.930 . S
H1611 C1623 0.929 . S
H1612 C1626 0.930 . S
H1613 C1628 0.960 . S
H1614 C1628 0.960 . S
H1615 C1628 0.960 . S
C1616 H1608 0.929 . S
C1616 C1617 1.377 . S
C1616 C1618 1.384 . S
C1617 C1616 1.377 . S
C1617 C1623 1.390 . S
C1618 H1609 0.930 . S
C1618 C1616 1.384 . S
C1618 C1619 1.372 . S
C1619 C1618 1.372 . S
C1619 C1620 1.400 . S
C1619 C1624 1.490 . S
C1620 H1610 0.930 . S
C1620 C1619 1.400 . S
C1620 C1623 1.386 . S
H1621 C1637 0.930 . S
H1622 C1638 0.931 . S
C1623 H1611 0.929 . S
C1623 C1617 1.390 . S
C1623 C1620 1.386 . S
C1624 C1619 1.490 . S
C1624 C1626 1.395 . S
C1624 C1627 1.403 . S
H1625 C1631 0.930 . S
C1626 H1612 0.930 . S
C1626 C1624 1.395 . S
C1626 C1629 1.403 . S
C1627 C1624 1.403 . S
C1627 C1628 1.524 . S
C1627 C1631 1.400 . S
C1628 H1613 0.960 . S
C1628 H1614 0.960 . S
C1628 H1615 0.960 . S
C1628 C1627 1.524 . S
C1629 C1626 1.403 . S
C1629 C1630 1.392 . S
C1629 C1633 1.495 . S
C1630 C1629 1.392 . S
C1630 C1631 1.385 . S
C1630 C1632 1.478 . S
C1631 H1625 0.930 . S
C1631 C1627 1.400 . S
C1631 C1630 1.385 . S
C1632 C1630 1.478 . S
C1632 C1634 1.381 . S
C1632 C1638 1.383 . S
C1633 C1629 1.495 . S
C1633 H1639 0.959 . S
C1633 H1640 0.961 . S
C1633 H1641 0.960 . S
C1634 C1632 1.381 . S
C1634 C1635 1.394 . S
C1634 H1642 0.930 . S
C1635 C1634 1.394 . S
C1635 C1636 1.383 . S
C1635 H1643 0.929 . S
C1636 C1635 1.383 . S
C1636 C1637 1.377 . S
C1637 H1621 0.930 . S
C1637 C1636 1.377 . S
C1637 C1638 1.379 . S
C1638 H1622 0.931 . S
C1638 C1632 1.383 . S
C1638 C1637 1.379 . S
H1639 C1633 0.959 . S
H1640 C1633 0.961 . S
H1641 C1633 0.960 . S
H1642 C1634 0.930 . S
H1643 C1635 0.929 . S
H1644 C1652 0.929 . S
H1645 C1654 0.930 . S
H1646 C1656 0.930 . S
H1647 C1659 0.929 . S
H1648 C1662 0.930 . S
H1649 C1664 0.960 . S
H1650 C1664 0.960 . S
H1651 C1664 0.960 . S
C1652 H1644 0.929 . S
C1652 C1653 1.377 . S
C1652 C1654 1.384 . S
C1653 C1652 1.377 . S
C1653 C1659 1.390 . S
C1654 H1645 0.930 . S
C1654 C1652 1.384 . S
C1654 C1655 1.372 . S
C1655 C1654 1.372 . S
C1655 C1656 1.400 . S
C1655 C1660 1.490 . S
C1656 H1646 0.930 . S
C1656 C1655 1.400 . S
C1656 C1659 1.386 . S
H1657 C1673 0.930 . S
H1658 C1674 0.931 . S
C1659 H1647 0.929 . S
C1659 C1653 1.390 . S
C1659 C1656 1.386 . S
C1660 C1655 1.490 . S
C1660 C1662 1.395 . S
C1660 C1663 1.403 . S
H1661 C1667 0.930 . S
C1662 H1648 0.930 . S
C1662 C1660 1.395 . S
C1662 C1665 1.403 . S
C1663 C1660 1.403 . S
C1663 C1664 1.524 . S
C1663 C1667 1.400 . S
C1664 H1649 0.960 . S
C1664 H1650 0.960 . S
C1664 H1651 0.960 . S
C1664 C1663 1.524 . S
C1665 C1662 1.403 . S
C1665 C1666 1.392 . S
C1665 C1669 1.495 . S
C1666 C1665 1.392 . S
C1666 C1667 1.385 . S
C1666 C1668 1.478 . S
C1667 H1661 0.930 . S
C1667 C1663 1.400 . S
C1667 C1666 1.385 . S
C1668 C1666 1.478 . S
C1668 C1670 1.381 . S
C1668 C1674 1.383 . S
C1669 C1665 1.495 . S
C1669 H1675 0.959 . S
C1669 H1676 0.961 . S
C1669 H1677 0.960 . S
C1670 C1668 1.381 . S
C1670 C1671 1.394 . S
C1670 H1678 0.930 . S
C1671 C1670 1.394 . S
C1671 C1672 1.383 . S
C1671 H1679 0.929 . S
C1672 C1671 1.383 . S
C1672 C1673 1.377 . S
C1673 H1657 0.930 . S
C1673 C1672 1.377 . S
C1673 C1674 1.379 . S
C1674 H1658 0.931 . S
C1674 C1668 1.383 . S
C1674 C1673 1.379 . S
H1675 C1669 0.959 . S
H1676 C1669 0.961 . S
H1677 C1669 0.960 . S
H1678 C1670 0.930 . S
H1679 C1671 0.929 . S
H1680 C1688 0.929 . S
H1681 C1690 0.930 . S
H1682 C1692 0.930 . S
H1683 C1695 0.929 . S
H1684 C1698 0.930 . S
H1685 C1700 0.960 . S
H1686 C1700 0.960 . S
H1687 C1700 0.960 . S
C1688 H1680 0.929 . S
C1688 C1689 1.377 . S
C1688 C1690 1.384 . S
C1689 C1688 1.377 . S
C1689 C1695 1.390 1_455 S
C1690 H1681 0.930 . S
C1690 C1688 1.384 . S
C1690 C1691 1.372 . S
C1691 C1690 1.372 . S
C1691 C1692 1.400 1_455 S
C1691 C1696 1.490 . S
C1692 H1682 0.930 . S
C1692 C1691 1.400 1_655 S
C1692 C1695 1.386 . S
H1693 C1709 0.930 1_655 S
H1694 C1710 0.931 1_655 S
C1695 H1683 0.929 . S
C1695 C1689 1.390 1_655 S
C1695 C1692 1.386 . S
C1696 C1691 1.490 . S
C1696 C1698 1.395 . S
C1696 C1699 1.403 1_455 S
H1697 C1703 0.891 1_655 S
C1698 H1684 0.930 . S
C1698 C1696 1.395 . S
C1698 C1701 1.403 . S
C1699 C1696 1.403 1_655 S
C1699 C1700 1.524 . S
C1699 C1703 1.393 1_655 S
C1700 H1685 0.960 . S
C1700 H1686 0.960 . S
C1700 H1687 0.960 . S
C1700 C1699 1.524 . S
C1701 C1698 1.403 . S
C1701 C1702 1.392 . S
C1701 C1705 1.495 . S
C1702 C1701 1.392 . S
C1702 C1703 1.432 . S
C1702 C1704 1.478 . S
C1703 H1697 0.891 1_455 S
C1703 C1699 1.393 1_455 S
C1703 C1702 1.432 . S
C1704 C1702 1.478 . S
C1704 C1706 1.381 . S
C1704 C1710 1.383 . S
C1705 C1701 1.495 . S
C1705 H1711 0.959 . S
C1705 H1712 0.961 . S
C1705 H1713 0.960 . S
C1706 C1704 1.381 . S
C1706 C1707 1.394 . S
C1706 H1714 0.930 . S
C1707 C1706 1.394 . S
C1707 C1708 1.383 . S
C1707 H1715 0.929 . S
C1708 C1707 1.383 . S
C1708 C1709 1.377 . S
C1709 H1693 0.930 1_455 S
C1709 C1708 1.377 . S
C1709 C1710 1.379 . S
C1710 H1694 0.931 1_455 S
C1710 C1704 1.383 . S
C1710 C1709 1.379 . S
H1711 C1705 0.959 . S
H1712 C1705 0.961 . S
H1713 C1705 0.960 . S
H1714 C1706 0.930 . S
H1715 C1707 0.929 . S
H1716 C1724 0.929 . S
H1717 C1726 0.930 . S
H1718 C1728 0.930 . S
H1719 C1731 0.929 . S
H1720 C1734 0.930 . S
H1721 C1736 0.960 . S
H1722 C1736 0.960 . S
H1723 C1736 0.960 . S
C1724 H1716 0.929 . S
C1724 C1725 1.377 . S
C1724 C1726 1.384 . S
C1725 C1724 1.377 . S
C1725 C1731 1.390 . S
C1726 H1717 0.930 . S
C1726 C1724 1.384 . S
C1726 C1727 1.372 . S
C1727 C1726 1.372 . S
C1727 C1728 1.400 . S
C1727 C1732 1.490 . S
C1728 H1718 0.930 . S
C1728 C1727 1.400 . S
C1728 C1731 1.386 . S
H1729 C1745 0.930 . S
H1730 C1746 0.931 . S
C1731 H1719 0.929 . S
C1731 C1725 1.390 . S
C1731 C1728 1.386 . S
C1732 C1727 1.490 . S
C1732 C1734 1.395 . S
C1732 C1735 1.403 . S
H1733 C1739 0.930 . S
C1734 H1720 0.930 . S
C1734 C1732 1.395 . S
C1734 C1737 1.403 . S
C1735 C1732 1.403 . S
C1735 C1736 1.524 . S
C1735 C1739 1.400 . S
C1736 H1721 0.960 . S
C1736 H1722 0.960 . S
C1736 H1723 0.960 . S
C1736 C1735 1.524 . S
C1737 C1734 1.403 . S
C1737 C1738 1.392 . S
C1737 C1741 1.495 . S
C1738 C1737 1.392 . S
C1738 C1739 1.385 . S
C1738 C1740 1.478 . S
C1739 H1733 0.930 . S
C1739 C1735 1.400 . S
C1739 C1738 1.385 . S
C1740 C1738 1.478 . S
C1740 C1742 1.381 . S
C1740 C1746 1.383 . S
C1741 C1737 1.495 . S
C1741 H1747 0.959 . S
C1741 H1748 0.961 . S
C1741 H1749 0.960 . S
C1742 C1740 1.381 . S
C1742 C1743 1.394 . S
C1742 H1750 0.930 . S
C1743 C1742 1.394 . S
C1743 C1744 1.383 . S
C1743 H1751 0.929 . S
C1744 C1743 1.383 . S
C1744 C1745 1.377 . S
C1745 H1729 0.930 . S
C1745 C1744 1.377 . S
C1745 C1746 1.379 . S
C1746 H1730 0.931 . S
C1746 C1740 1.383 . S
C1746 C1745 1.379 . S
H1747 C1741 0.959 . S
H1748 C1741 0.961 . S
H1749 C1741 0.960 . S
H1750 C1742 0.930 . S
H1751 C1743 0.929 . S
H1752 C1760 0.929 . S
H1753 C1762 0.930 . S
H1754 C1764 0.930 . S
H1755 C1767 0.929 . S
H1756 C1770 0.930 . S
H1757 C1772 0.960 . S
H1758 C1772 0.960 . S
H1759 C1772 0.960 . S
C1760 H1752 0.929 . S
C1760 C1761 1.377 . S
C1760 C1762 1.384 . S
C1761 C1760 1.377 . S
C1761 C1767 1.390 . S
C1762 H1753 0.930 . S
C1762 C1760 1.384 . S
C1762 C1763 1.372 . S
C1763 C1762 1.372 . S
C1763 C1764 1.400 . S
C1763 C1768 1.490 . S
C1764 H1754 0.930 . S
C1764 C1763 1.400 . S
C1764 C1767 1.386 . S
H1765 C1781 0.930 . S
H1766 C1782 0.931 . S
C1767 H1755 0.929 . S
C1767 C1761 1.390 . S
C1767 C1764 1.386 . S
C1768 C1763 1.490 . S
C1768 C1770 1.395 . S
C1768 C1771 1.403 . S
H1769 C1775 0.930 . S
C1770 H1756 0.930 . S
C1770 C1768 1.395 . S
C1770 C1773 1.403 . S
C1771 C1768 1.403 . S
C1771 C1772 1.524 . S
C1771 C1775 1.400 . S
C1772 H1757 0.960 . S
C1772 H1758 0.960 . S
C1772 H1759 0.960 . S
C1772 C1771 1.524 . S
C1773 C1770 1.403 . S
C1773 C1774 1.392 . S
C1773 C1777 1.495 . S
C1774 C1773 1.392 . S
C1774 C1775 1.385 . S
C1774 C1776 1.478 . S
C1775 H1769 0.930 . S
C1775 C1771 1.400 . S
C1775 C1774 1.385 . S
C1776 C1774 1.478 . S
C1776 C1778 1.381 . S
C1776 C1782 1.383 . S
C1777 C1773 1.495 . S
C1777 H1783 0.959 . S
C1777 H1784 0.961 . S
C1777 H1785 0.960 . S
C1778 C1776 1.381 . S
C1778 C1779 1.394 . S
C1778 H1786 0.930 . S
C1779 C1778 1.394 . S
C1779 C1780 1.383 . S
C1779 H1787 0.929 . S
C1780 C1779 1.383 . S
C1780 C1781 1.377 . S
C1781 H1765 0.930 . S
C1781 C1780 1.377 . S
C1781 C1782 1.379 . S
C1782 H1766 0.931 . S
C1782 C1776 1.383 . S
C1782 C1781 1.379 . S
H1783 C1777 0.959 . S
H1784 C1777 0.961 . S
H1785 C1777 0.960 . S
H1786 C1778 0.930 . S
H1787 C1779 0.929 . S
H1788 C1796 0.929 . S
H1789 C1798 0.930 . S
H1790 C1800 0.930 . S
H1791 C1803 0.929 . S
H1792 C1806 0.930 . S
H1793 C1808 0.960 . S
H1794 C1808 0.960 . S
H1795 C1808 0.960 . S
C1796 H1788 0.929 . S
C1796 C1797 1.377 . S
C1796 C1798 1.384 . S
C1797 C1796 1.377 . S
C1797 C1803 1.390 . S
C1798 H1789 0.930 . S
C1798 C1796 1.384 . S
C1798 C1799 1.372 . S
C1799 C1798 1.372 . S
C1799 C1800 1.400 . S
C1799 C1804 1.490 . S
C1800 H1790 0.930 . S
C1800 C1799 1.400 . S
C1800 C1803 1.386 . S
H1801 C1817 0.930 . S
H1802 C1818 0.931 . S
C1803 H1791 0.929 . S
C1803 C1797 1.390 . S
C1803 C1800 1.386 . S
C1804 C1799 1.490 . S
C1804 C1806 1.395 . S
C1804 C1807 1.403 . S
H1805 C1811 0.930 . S
C1806 H1792 0.930 . S
C1806 C1804 1.395 . S
C1806 C1809 1.403 . S
C1807 C1804 1.403 . S
C1807 C1808 1.524 . S
C1807 C1811 1.400 . S
C1808 H1793 0.960 . S
C1808 H1794 0.960 . S
C1808 H1795 0.960 . S
C1808 C1807 1.524 . S
C1809 C1806 1.403 . S
C1809 C1810 1.392 . S
C1809 C1813 1.495 . S
C1810 C1809 1.392 . S
C1810 C1811 1.385 . S
C1810 C1812 1.478 . S
C1811 H1805 0.930 . S
C1811 C1807 1.400 . S
C1811 C1810 1.385 . S
C1812 C1810 1.478 . S
C1812 C1814 1.381 . S
C1812 C1818 1.383 . S
C1813 C1809 1.495 . S
C1813 H1819 0.959 . S
C1813 H1820 0.961 . S
C1813 H1821 0.960 . S
C1814 C1812 1.381 . S
C1814 C1815 1.394 . S
C1814 H1822 0.930 . S
C1815 C1814 1.394 . S
C1815 C1816 1.383 . S
C1815 H1823 0.929 . S
C1816 C1815 1.383 . S
C1816 C1817 1.377 . S
C1817 H1801 0.930 . S
C1817 C1816 1.377 . S
C1817 C1818 1.379 . S
C1818 H1802 0.931 . S
C1818 C1812 1.383 . S
C1818 C1817 1.379 . S
H1819 C1813 0.959 . S
H1820 C1813 0.961 . S
H1821 C1813 0.960 . S
H1822 C1814 0.930 . S
H1823 C1815 0.929 . S
H1824 C1832 0.929 . S
H1825 C1834 0.930 . S
H1826 C1836 0.930 . S
H1827 C1839 0.929 . S
H1828 C1842 0.930 . S
H1829 C1844 0.960 . S
H1830 C1844 0.960 . S
H1831 C1844 0.960 . S
C1832 H1824 0.929 . S
C1832 C1833 1.376 . S
C1832 C1834 1.384 . S
C1833 C1832 1.376 . S
C1833 C1839 1.392 1_565 S
C1834 H1825 0.930 . S
C1834 C1832 1.384 . S
C1834 C1835 1.372 1_565 S
C1835 C1834 1.372 1_545 S
C1835 C1836 1.400 . S
C1835 C1840 1.490 . S
C1836 H1826 0.930 . S
C1836 C1835 1.400 . S
C1836 C1839 1.386 . S
H1837 C1853 0.881 1_455 S
H1838 C1854 0.931 . S
C1839 H1827 0.929 . S
C1839 C1833 1.392 1_545 S
C1839 C1836 1.386 . S
C1840 C1835 1.490 . S
C1840 C1842 1.395 1_545 S
C1840 C1843 1.403 . S
H1841 C1847 0.930 . S
C1842 H1828 0.930 . S
C1842 C1840 1.395 1_565 S
C1842 C1845 1.403 . S
C1843 C1840 1.403 . S
C1843 C1844 1.524 . S
C1843 C1847 1.400 . S
C1844 H1829 0.960 . S
C1844 H1830 0.960 . S
C1844 H1831 0.960 . S
C1844 C1843 1.524 . S
C1845 C1842 1.403 . S
C1845 C1846 1.392 1_565 S
C1845 C1849 1.495 . S
C1846 C1845 1.392 1_545 S
C1846 C1847 1.385 . S
C1846 C1848 1.478 . S
C1847 H1841 0.930 . S
C1847 C1843 1.400 . S
C1847 C1846 1.385 . S
C1848 C1846 1.478 . S
C1848 C1850 1.373 1_545 S
C1848 C1854 1.383 . S
C1849 C1845 1.495 . S
C1849 H1855 0.959 . S
C1849 H1856 0.961 . S
C1849 H1857 0.960 . S
C1850 C1848 1.373 1_565 S
C1850 C1851 1.391 1_565 S
C1850 H1858 0.944 . S
C1851 C1850 1.391 1_545 S
C1851 C1852 1.383 . S
C1851 H1859 0.923 1_545 S
C1852 C1851 1.383 . S
C1852 C1853 1.377 . S
C1853 H1837 0.881 1_655 S
C1853 C1852 1.377 . S
C1853 C1854 1.379 . S
C1854 H1838 0.931 . S
C1854 C1848 1.383 . S
C1854 C1853 1.379 . S
H1855 C1849 0.959 . S
H1856 C1849 0.961 . S
H1857 C1849 0.960 . S
H1858 C1850 0.944 . S
H1859 C1851 0.923 1_565 S
H1860 C1868 0.929 . S
H1861 C1870 0.930 . S
H1862 C1872 0.930 . S
H1863 C1875 0.929 . S
H1864 C1878 0.930 . S
H1865 C1880 0.960 . S
H1866 C1880 0.960 . S
H1867 C1880 0.960 . S
C1868 H1860 0.929 . S
C1868 C1869 1.377 . S
C1868 C1870 1.384 . S
C1869 C1868 1.377 . S
C1869 C1875 1.390 . S
C1870 H1861 0.930 . S
C1870 C1868 1.384 . S
C1870 C1871 1.372 . S
C1871 C1870 1.372 . S
C1871 C1872 1.400 . S
C1871 C1876 1.490 . S
C1872 H1862 0.930 . S
C1872 C1871 1.400 . S
C1872 C1875 1.386 . S
H1873 C1889 0.930 . S
H1874 C1890 0.931 . S
C1875 H1863 0.929 . S
C1875 C1869 1.390 . S
C1875 C1872 1.386 . S
C1876 C1871 1.490 . S
C1876 C1878 1.395 . S
C1876 C1879 1.403 . S
H1877 C1883 0.930 . S
C1878 H1864 0.930 . S
C1878 C1876 1.395 . S
C1878 C1881 1.403 . S
C1879 C1876 1.403 . S
C1879 C1880 1.524 . S
C1879 C1883 1.400 . S
C1880 H1865 0.960 . S
C1880 H1866 0.960 . S
C1880 H1867 0.960 . S
C1880 C1879 1.524 . S
C1881 C1878 1.403 . S
C1881 C1882 1.392 . S
C1881 C1885 1.495 . S
C1882 C1881 1.392 . S
C1882 C1883 1.385 . S
C1882 C1884 1.478 . S
C1883 H1877 0.930 . S
C1883 C1879 1.400 . S
C1883 C1882 1.385 . S
C1884 C1882 1.478 . S
C1884 C1886 1.381 . S
C1884 C1890 1.383 . S
C1885 C1881 1.495 . S
C1885 H1891 0.959 . S
C1885 H1892 0.961 . S
C1885 H1893 0.960 . S
C1886 C1884 1.381 . S
C1886 C1887 1.394 . S
C1886 H1894 0.930 . S
C1887 C1886 1.394 . S
C1887 C1888 1.383 . S
C1887 H1895 0.929 . S
C1888 C1887 1.383 . S
C1888 C1889 1.377 . S
C1889 H1873 0.930 . S
C1889 C1888 1.377 . S
C1889 C1890 1.379 . S
C1890 H1874 0.931 . S
C1890 C1884 1.383 . S
C1890 C1889 1.379 . S
H1891 C1885 0.959 . S
H1892 C1885 0.961 . S
H1893 C1885 0.960 . S
H1894 C1886 0.930 . S
H1895 C1887 0.929 . S
H1896 C1904 0.929 . S
H1897 C1906 0.930 . S
H1898 C1908 0.930 . S
H1899 C1911 0.929 . S
H1900 C1914 0.930 . S
H1901 C1916 0.960 . S
H1902 C1916 0.960 . S
H1903 C1916 0.960 . S
C1904 H1896 0.929 . S
C1904 C1905 1.377 1_565 S
C1904 C1906 1.384 . S
C1905 C1904 1.377 1_545 S
C1905 C1911 1.390 . S
C1906 H1897 0.930 . S
C1906 C1904 1.384 . S
C1906 C1907 1.372 1_565 S
C1907 C1906 1.372 1_545 S
C1907 C1908 1.400 . S
C1907 C1912 1.490 . S
C1908 H1898 0.930 . S
C1908 C1907 1.400 . S
C1908 C1911 1.386 . S
H1909 C1925 0.930 . S
H1910 C1926 0.931 . S
C1911 H1899 0.929 . S
C1911 C1905 1.390 . S
C1911 C1908 1.386 . S
C1912 C1907 1.490 . S
C1912 C1914 1.395 . S
C1912 C1915 1.403 1_545 S
H1913 C1919 0.930 . S
C1914 H1900 0.930 . S
C1914 C1912 1.395 . S
C1914 C1917 1.403 . S
C1915 C1912 1.403 1_565 S
C1915 C1916 1.524 . S
C1915 C1919 1.400 . S
C1916 H1901 0.960 . S
C1916 H1902 0.960 . S
C1916 H1903 0.960 . S
C1916 C1915 1.524 . S
C1917 C1914 1.403 . S
C1917 C1918 1.392 . S
C1917 C1921 1.495 . S
C1918 C1917 1.392 . S
C1918 C1919 1.385 1_545 S
C1918 C1920 1.478 . S
C1919 H1913 0.930 . S
C1919 C1915 1.400 . S
C1919 C1918 1.385 1_565 S
C1920 C1918 1.478 . S
C1920 C1922 1.381 1_545 S
C1920 C1926 1.383 . S
C1921 C1917 1.495 . S
C1921 H1927 0.959 . S
C1921 H1928 0.961 . S
C1921 H1929 0.960 . S
C1922 C1920 1.381 1_565 S
C1922 C1923 1.394 . S
C1922 H1930 0.930 . S
C1923 C1922 1.394 . S
C1923 C1924 1.383 . S
C1923 H1931 0.929 . S
C1924 C1923 1.383 . S
C1924 C1925 1.377 1_565 S
C1925 H1909 0.930 . S
C1925 C1924 1.377 1_545 S
C1925 C1926 1.379 . S
C1926 H1910 0.931 . S
C1926 C1920 1.383 . S
C1926 C1925 1.379 . S
H1927 C1921 0.959 . S
H1928 C1921 0.961 . S
H1929 C1921 0.960 . S
H1930 C1922 0.930 . S
H1931 C1923 0.929 . S
H1932 C1940 0.929 . S
H1933 C1942 0.930 . S
H1934 C1944 0.930 . S
H1935 C1947 0.929 . S
H1936 C1950 0.930 . S
H1937 C1952 0.960 . S
H1938 C1952 0.960 . S
H1939 C1952 0.960 . S
C1940 H1932 0.929 . S
C1940 C1941 1.377 . S
C1940 C1942 1.384 . S
C1941 C1940 1.377 . S
C1941 C1947 1.390 . S
C1942 H1933 0.930 . S
C1942 C1940 1.384 . S
C1942 C1943 1.372 . S
C1943 C1942 1.372 . S
C1943 C1944 1.400 . S
C1943 C1948 1.490 . S
C1944 H1934 0.930 . S
C1944 C1943 1.400 . S
C1944 C1947 1.386 . S
H1945 C1961 0.930 . S
H1946 C1962 0.931 . S
C1947 H1935 0.929 . S
C1947 C1941 1.390 . S
C1947 C1944 1.386 . S
C1948 C1943 1.490 . S
C1948 C1950 1.395 . S
C1948 C1951 1.403 . S
H1949 C1955 0.930 . S
C1950 H1936 0.930 . S
C1950 C1948 1.395 . S
C1950 C1953 1.403 . S
C1951 C1948 1.403 . S
C1951 C1952 1.524 . S
C1951 C1955 1.400 . S
C1952 H1937 0.960 . S
C1952 H1938 0.960 . S
C1952 H1939 0.960 . S
C1952 C1951 1.524 . S
C1953 C1950 1.403 . S
C1953 C1954 1.392 . S
C1953 C1957 1.495 . S
C1954 C1953 1.392 . S
C1954 C1955 1.385 . S
C1954 C1956 1.478 . S
C1955 H1949 0.930 . S
C1955 C1951 1.400 . S
C1955 C1954 1.385 . S
C1956 C1954 1.478 . S
C1956 C1958 1.381 . S
C1956 C1962 1.383 . S
C1957 C1953 1.495 . S
C1957 H1963 0.959 . S
C1957 H1964 0.961 . S
C1957 H1965 0.960 . S
C1958 C1956 1.381 . S
C1958 C1959 1.394 . S
C1958 H1966 0.930 . S
C1959 C1958 1.394 . S
C1959 C1960 1.383 . S
C1959 H1967 0.929 . S
C1960 C1959 1.383 . S
C1960 C1961 1.377 . S
C1961 H1945 0.930 . S
C1961 C1960 1.377 . S
C1961 C1962 1.379 . S
C1962 H1946 0.931 . S
C1962 C1956 1.383 . S
C1962 C1961 1.379 . S
H1963 C1957 0.959 . S
H1964 C1957 0.961 . S
H1965 C1957 0.960 . S
H1966 C1958 0.930 . S
H1967 C1959 0.929 . S
H1968 C1976 0.929 . S
H1969 C1978 0.930 . S
H1970 C1980 0.930 . S
H1971 C1983 0.929 . S
H1972 C1986 0.929 1_545 S
H1973 C1988 0.960 . S
H1974 C1988 0.960 1_545 S
H1975 C1988 0.960 . S
C1976 H1968 0.929 . S
C1976 C1977 1.377 1_545 S
C1976 C1978 1.384 . S
C1977 C1976 1.377 1_565 S
C1977 C1983 1.390 . S
C1978 H1969 0.930 . S
C1978 C1976 1.384 . S
C1978 C1979 1.372 1_545 S
C1979 C1978 1.372 1_565 S
C1979 C1980 1.400 . S
C1979 C1984 1.490 . S
C1980 H1970 0.930 . S
C1980 C1979 1.400 . S
C1980 C1983 1.386 . S
H1981 C1997 0.930 . S
H1982 C1998 0.931 . S
C1983 H1971 0.929 . S
C1983 C1977 1.390 . S
C1983 C1980 1.386 . S
C1984 C1979 1.490 . S
C1984 C1986 1.395 . S
C1984 C1987 1.403 . S
H1985 C1991 0.930 . S
C1986 H1972 0.929 1_565 S
C1986 C1984 1.395 . S
C1986 C1989 1.403 . S
C1987 C1984 1.403 . S
C1987 C1988 1.524 . S
C1987 C1991 1.400 . S
C1988 H1973 0.960 . S
C1988 H1974 0.960 1_565 S
C1988 H1975 0.960 . S
C1988 C1987 1.524 . S
C1989 C1986 1.403 . S
C1989 C1990 1.392 . S
C1989 C1993 1.495 1_565 S
C1990 C1989 1.392 . S
C1990 C1991 1.385 . S
C1990 C1992 1.478 . S
C1991 H1985 0.930 . S
C1991 C1987 1.400 . S
C1991 C1990 1.385 . S
C1992 C1990 1.478 . S
C1992 C1994 1.381 1_565 S
C1992 C1998 1.383 . S
C1993 C1989 1.495 1_545 S
C1993 H1999 0.959 . S
C1993 H2000 0.958 1_545 S
C1993 H2001 0.963 . S
C1994 C1992 1.381 1_545 S
C1994 C1995 1.394 . S
C1994 H2002 0.930 . S
C1995 C1994 1.394 . S
C1995 C1996 1.383 1_545 S
C1995 H2003 0.929 . S
C1996 C1995 1.383 1_565 S
C1996 C1997 1.377 . S
C1997 H1981 0.930 . S
C1997 C1996 1.377 . S
C1997 C1998 1.379 . S
C1998 H1982 0.931 . S
C1998 C1992 1.383 . S
C1998 C1997 1.379 . S
H1999 C1993 0.959 . S
H2000 C1993 0.958 1_565 S
H2001 C1993 0.963 . S
H2002 C1994 0.930 . S
H2003 C1995 0.929 . S
H2004 C2012 0.929 . S
H2005 C2014 0.930 . S
H2006 C2016 0.930 . S
H2007 C2019 0.929 . S
H2008 C2022 0.930 . S
H2009 C2024 0.960 . S
H2010 C2024 0.960 . S
H2011 C2024 0.960 . S
C2012 H2004 0.929 . S
C2012 C2013 1.377 . S
C2012 C2014 1.384 . S
C2013 C2012 1.377 . S
C2013 C2019 1.390 . S
C2014 H2005 0.930 . S
C2014 C2012 1.384 . S
C2014 C2015 1.372 . S
C2015 C2014 1.372 . S
C2015 C2016 1.400 . S
C2015 C2020 1.490 . S
C2016 H2006 0.930 . S
C2016 C2015 1.400 . S
C2016 C2019 1.386 . S
H2017 C2033 0.930 . S
H2018 C2034 0.931 . S
C2019 H2007 0.929 . S
C2019 C2013 1.390 . S
C2019 C2016 1.386 . S
C2020 C2015 1.490 . S
C2020 C2022 1.395 . S
C2020 C2023 1.403 . S
H2021 C2027 0.930 . S
C2022 H2008 0.930 . S
C2022 C2020 1.395 . S
C2022 C2025 1.403 . S
C2023 C2020 1.403 . S
C2023 C2024 1.524 . S
C2023 C2027 1.400 . S
C2024 H2009 0.960 . S
C2024 H2010 0.960 . S
C2024 H2011 0.960 . S
C2024 C2023 1.524 . S
C2025 C2022 1.403 . S
C2025 C2026 1.392 . S
C2025 C2029 1.495 . S
C2026 C2025 1.392 . S
C2026 C2027 1.385 . S
C2026 C2028 1.478 . S
C2027 H2021 0.930 . S
C2027 C2023 1.400 . S
C2027 C2026 1.385 . S
C2028 C2026 1.478 . S
C2028 C2030 1.381 . S
C2028 C2034 1.383 . S
C2029 C2025 1.495 . S
C2029 H2035 0.959 . S
C2029 H2036 0.961 . S
C2029 H2037 0.960 . S
C2030 C2028 1.381 . S
C2030 C2031 1.394 . S
C2030 H2038 0.930 . S
C2031 C2030 1.394 . S
C2031 C2032 1.383 . S
C2031 H2039 0.929 . S
C2032 C2031 1.383 . S
C2032 C2033 1.377 . S
C2033 H2017 0.930 . S
C2033 C2032 1.377 . S
C2033 C2034 1.379 . S
C2034 H2018 0.931 . S
C2034 C2028 1.383 . S
C2034 C2033 1.379 . S
H2035 C2029 0.959 . S
H2036 C2029 0.961 . S
H2037 C2029 0.960 . S
H2038 C2030 0.930 . S
H2039 C2031 0.929 . S
H2040 C2048 0.929 . S
H2041 C2050 0.930 . S
H2042 C2052 0.930 . S
H2043 C2055 0.929 . S
H2044 C2058 0.930 . S
H2045 C2060 0.960 . S
H2046 C2060 0.960 1_565 S
H2047 C2060 0.960 . S
C2048 H2040 0.929 . S
C2048 C2049 1.377 1_565 S
C2048 C2050 1.384 . S
C2049 C2048 1.377 1_545 S
C2049 C2055 1.390 . S
C2050 H2041 0.930 . S
C2050 C2048 1.384 . S
C2050 C2051 1.372 1_565 S
C2051 C2050 1.372 1_545 S
C2051 C2052 1.400 . S
C2051 C2056 1.490 . S
C2052 H2042 0.930 . S
C2052 C2051 1.400 . S
C2052 C2055 1.386 . S
H2053 C2069 0.930 . S
H2054 C2070 0.931 . S
C2055 H2043 0.929 . S
C2055 C2049 1.390 . S
C2055 C2052 1.386 . S
C2056 C2051 1.490 . S
C2056 C2058 1.395 . S
C2056 C2059 1.403 . S
H2057 C2063 0.930 . S
C2058 H2044 0.930 . S
C2058 C2056 1.395 . S
C2058 C2061 1.403 . S
C2059 C2056 1.403 . S
C2059 C2060 1.524 . S
C2059 C2063 1.400 . S
C2060 H2045 0.960 . S
C2060 H2046 0.960 1_545 S
C2060 H2047 0.960 . S
C2060 C2059 1.524 . S
C2061 C2058 1.403 . S
C2061 C2062 1.392 . S
C2061 C2065 1.495 . S
C2062 C2061 1.392 . S
C2062 C2063 1.385 . S
C2062 C2064 1.478 . S
C2063 H2057 0.930 . S
C2063 C2059 1.400 . S
C2063 C2062 1.385 . S
C2064 C2062 1.478 . S
C2064 C2066 1.381 1_545 S
C2064 C2070 1.383 . S
C2065 C2061 1.495 . S
C2065 H2071 0.959 . S
C2065 H2072 0.961 . S
C2065 H2073 0.966 . S
C2066 C2064 1.381 1_565 S
C2066 C2067 1.394 . S
C2066 H2074 0.930 . S
C2067 C2066 1.394 . S
C2067 C2068 1.383 1_565 S
C2067 H2075 0.929 . S
C2068 C2067 1.383 1_545 S
C2068 C2069 1.377 . S
C2069 H2053 0.930 . S
C2069 C2068 1.377 . S
C2069 C2070 1.379 . S
C2070 H2054 0.931 . S
C2070 C2064 1.383 . S
C2070 C2069 1.379 . S
H2071 C2065 0.959 . S
H2072 C2065 0.961 . S
H2073 C2065 0.966 . S
H2074 C2066 0.930 . S
H2075 C2067 0.929 . S
H2076 C2084 0.929 . S
H2077 C2086 0.930 . S
H2078 C2088 0.930 . S
H2079 C2091 0.929 . S
H2080 C2094 0.930 . S
H2081 C2096 0.960 . S
H2082 C2096 0.960 . S
H2083 C2096 0.960 . S
C2084 H2076 0.929 . S
C2084 C2085 1.377 . S
C2084 C2086 1.384 . S
C2085 C2084 1.377 . S
C2085 C2091 1.390 . S
C2086 H2077 0.930 . S
C2086 C2084 1.384 . S
C2086 C2087 1.372 . S
C2087 C2086 1.372 . S
C2087 C2088 1.400 . S
C2087 C2092 1.490 . S
C2088 H2078 0.930 . S
C2088 C2087 1.400 . S
C2088 C2091 1.386 . S
H2089 C2105 0.930 . S
H2090 C2106 0.931 . S
C2091 H2079 0.929 . S
C2091 C2085 1.390 . S
C2091 C2088 1.386 . S
C2092 C2087 1.490 . S
C2092 C2094 1.395 . S
C2092 C2095 1.403 . S
H2093 C2099 0.930 . S
C2094 H2080 0.930 . S
C2094 C2092 1.395 . S
C2094 C2097 1.403 . S
C2095 C2092 1.403 . S
C2095 C2096 1.524 . S
C2095 C2099 1.400 . S
C2096 H2081 0.960 . S
C2096 H2082 0.960 . S
C2096 H2083 0.960 . S
C2096 C2095 1.524 . S
C2097 C2094 1.403 . S
C2097 C2098 1.392 . S
C2097 C2101 1.495 . S
C2098 C2097 1.392 . S
C2098 C2099 1.385 . S
C2098 C2100 1.478 . S
C2099 H2093 0.930 . S
C2099 C2095 1.400 . S
C2099 C2098 1.385 . S
C2100 C2098 1.478 . S
C2100 C2102 1.381 . S
C2100 C2106 1.383 . S
C2101 C2097 1.495 . S
C2101 H2107 0.959 . S
C2101 H2108 0.961 . S
C2101 H2109 0.960 . S
C2102 C2100 1.381 . S
C2102 C2103 1.394 . S
C2102 H2110 0.930 . S
C2103 C2102 1.394 . S
C2103 C2104 1.383 . S
C2103 H2111 0.929 . S
C2104 C2103 1.383 . S
C2104 C2105 1.377 . S
C2105 H2089 0.930 . S
C2105 C2104 1.377 . S
C2105 C2106 1.379 . S
C2106 H2090 0.931 . S
C2106 C2100 1.383 . S
C2106 C2105 1.379 . S
H2107 C2101 0.959 . S
H2108 C2101 0.961 . S
H2109 C2101 0.960 . S
H2110 C2102 0.930 . S
H2111 C2103 0.929 . S
H2112 C2120 0.929 . S
H2113 C2122 0.930 . S
H2114 C2124 0.930 . S
H2115 C2127 0.929 . S
H2116 C2130 0.930 . S
H2117 C2132 0.960 . S
H2118 C2132 0.960 . S
H2119 C2132 0.960 . S
C2120 H2112 0.929 . S
C2120 C2121 1.377 . S
C2120 C2122 1.384 . S
C2121 C2120 1.377 . S
C2121 C2127 1.390 1_554 S
C2122 H2113 0.930 . S
C2122 C2120 1.384 . S
C2122 C2123 1.372 . S
C2123 C2122 1.372 . S
C2123 C2124 1.400 1_554 S
C2123 C2128 1.490 . S
C2124 H2114 0.930 . S
C2124 C2123 1.400 1_556 S
C2124 C2127 1.386 . S
H2125 C2141 0.930 . S
H2126 C2142 0.980 . S
C2127 H2115 0.929 . S
C2127 C2121 1.390 1_556 S
C2127 C2124 1.386 . S
C2128 C2123 1.490 . S
C2128 C2130 1.395 . S
C2128 C2131 1.403 . S
H2129 C2135 0.930 1_556 S
C2130 H2116 0.930 . S
C2130 C2128 1.395 . S
C2130 C2133 1.403 . S
C2131 C2128 1.403 . S
C2131 C2132 1.524 1_554 S
C2131 C2135 1.400 . S
C2132 H2117 0.960 . S
C2132 H2118 0.960 . S
C2132 H2119 0.960 . S
C2132 C2131 1.524 1_556 S
C2133 C2130 1.403 . S
C2133 C2134 1.392 . S
C2133 C2137 1.495 . S
C2134 C2133 1.392 . S
C2134 C2135 1.385 . S
C2134 C2136 1.478 . S
C2135 H2129 0.930 1_554 S
C2135 C2131 1.400 . S
C2135 C2134 1.385 . S
C2136 C2134 1.478 . S
C2136 C2138 1.381 . S
C2136 C2142 1.333 1_554 S
C2137 C2133 1.495 . S
C2137 H2143 0.959 . S
C2137 H2144 0.961 . S
C2137 H2145 0.960 . S
C2138 C2136 1.381 . S
C2138 C2139 1.394 . S
C2138 H2146 0.930 . S
C2139 C2138 1.394 . S
C2139 C2140 1.383 . S
C2139 H2147 0.929 . S
C2140 C2139 1.383 . S
C2140 C2141 1.377 1_554 S
C2141 H2125 0.930 . S
C2141 C2140 1.377 1_556 S
C2141 C2142 1.382 . S
C2142 H2126 0.980 . S
C2142 C2136 1.333 1_556 S
C2142 C2141 1.382 . S
H2143 C2137 0.959 . S
H2144 C2137 0.961 . S
H2145 C2137 0.960 . S
H2146 C2138 0.930 . S
H2147 C2139 0.929 . S
H2148 C2156 0.929 . S
H2149 C2158 0.930 . S
H2150 C2160 0.930 . S
H2151 C2163 0.929 . S
H2152 C2166 0.930 . S
H2153 C2168 0.960 . S
H2154 C2168 0.960 . S
H2155 C2168 0.960 1_556 S
C2156 H2148 0.929 . S
C2156 C2157 1.377 . S
C2156 C2158 1.384 . S
C2157 C2156 1.377 . S
C2157 C2163 1.390 1_554 S
C2158 H2149 0.930 . S
C2158 C2156 1.384 . S
C2158 C2159 1.372 . S
C2159 C2158 1.372 . S
C2159 C2160 1.400 1_554 S
C2159 C2164 1.492 . S
C2160 H2150 0.930 . S
C2160 C2159 1.400 1_556 S
C2160 C2163 1.386 . S
H2161 C2177 0.930 . S
H2162 C2178 0.931 . S
C2163 H2151 0.929 . S
C2163 C2157 1.390 1_556 S
C2163 C2160 1.386 . S
C2164 C2159 1.492 . S
C2164 C2166 1.389 1_554 S
C2164 C2167 1.409 . S
H2165 C2171 0.930 . S
C2166 H2152 0.930 . S
C2166 C2164 1.389 1_556 S
C2166 C2169 1.403 . S
C2167 C2164 1.409 . S
C2167 C2168 1.524 . S
C2167 C2171 1.400 . S
C2168 H2153 0.960 . S
C2168 H2154 0.960 . S
C2168 H2155 0.960 1_554 S
C2168 C2167 1.524 . S
C2169 C2166 1.403 . S
C2169 C2170 1.392 . S
C2169 C2173 1.495 . S
C2170 C2169 1.392 . S
C2170 C2171 1.385 1_556 S
C2170 C2172 1.478 . S
C2171 H2165 0.930 . S
C2171 C2167 1.400 . S
C2171 C2170 1.385 1_554 S
C2172 C2170 1.478 . S
C2172 C2174 1.381 1_556 S
C2172 C2178 1.383 . S
C2173 C2169 1.495 . S
C2173 H2179 0.959 . S
C2173 H2180 0.961 . S
C2173 H2181 0.960 1_556 S
C2174 C2172 1.381 1_554 S
C2174 C2175 1.394 . S
C2174 H2182 0.930 . S
C2175 C2174 1.394 . S
C2175 C2176 1.383 1_554 S
C2175 H2183 0.929 . S
C2176 C2175 1.383 1_556 S
C2176 C2177 1.377 . S
C2177 H2161 0.930 . S
C2177 C2176 1.377 . S
C2177 C2178 1.379 . S
C2178 H2162 0.931 . S
C2178 C2172 1.383 . S
C2178 C2177 1.379 . S
H2179 C2173 0.959 . S
H2180 C2173 0.961 . S
H2181 C2173 0.960 1_554 S
H2182 C2174 0.930 . S
H2183 C2175 0.929 . S
H2184 C2192 0.929 . S
H2185 C2194 0.930 . S
H2186 C2196 0.930 . S
H2187 C2199 0.929 . S
H2188 C2202 0.930 . S
H2189 C2204 0.960 . S
H2190 C2204 0.960 . S
H2191 C2204 0.960 . S
C2192 H2184 0.929 . S
C2192 C2193 1.377 . S
C2192 C2194 1.384 . S
C2193 C2192 1.377 . S
C2193 C2199 1.390 . S
C2194 H2185 0.930 . S
C2194 C2192 1.384 . S
C2194 C2195 1.372 . S
C2195 C2194 1.372 . S
C2195 C2196 1.400 . S
C2195 C2200 1.490 . S
C2196 H2186 0.930 . S
C2196 C2195 1.400 . S
C2196 C2199 1.386 . S
H2197 C2213 0.930 . S
H2198 C2214 0.931 . S
C2199 H2187 0.929 . S
C2199 C2193 1.390 . S
C2199 C2196 1.386 . S
C2200 C2195 1.490 . S
C2200 C2202 1.395 . S
C2200 C2203 1.403 . S
H2201 C2207 0.930 . S
C2202 H2188 0.930 . S
C2202 C2200 1.395 . S
C2202 C2205 1.403 . S
C2203 C2200 1.403 . S
C2203 C2204 1.524 . S
C2203 C2207 1.400 . S
C2204 H2189 0.960 . S
C2204 H2190 0.960 . S
C2204 H2191 0.960 . S
C2204 C2203 1.524 . S
C2205 C2202 1.403 . S
C2205 C2206 1.392 . S
C2205 C2209 1.495 . S
C2206 C2205 1.392 . S
C2206 C2207 1.385 . S
C2206 C2208 1.478 . S
C2207 H2201 0.930 . S
C2207 C2203 1.400 . S
C2207 C2206 1.385 . S
C2208 C2206 1.478 . S
C2208 C2210 1.381 . S
C2208 C2214 1.383 . S
C2209 C2205 1.495 . S
C2209 H2215 0.959 . S
C2209 H2216 0.961 . S
C2209 H2217 0.960 . S
C2210 C2208 1.381 . S
C2210 C2211 1.394 . S
C2210 H2218 0.930 . S
C2211 C2210 1.394 . S
C2211 C2212 1.383 . S
C2211 H2219 0.929 . S
C2212 C2211 1.383 . S
C2212 C2213 1.377 . S
C2213 H2197 0.930 . S
C2213 C2212 1.377 . S
C2213 C2214 1.379 . S
C2214 H2198 0.931 . S
C2214 C2208 1.383 . S
C2214 C2213 1.379 . S
H2215 C2209 0.959 . S
H2216 C2209 0.961 . S
H2217 C2209 0.960 . S
H2218 C2210 0.930 . S
H2219 C2211 0.929 . S
H2220 C2228 0.929 . S
H2221 C2230 0.930 . S
H2222 C2232 0.930 . S
H2223 C2235 0.929 . S
H2224 C2238 0.930 . S
H2225 C2240 0.960 . S
H2226 C2240 0.960 . S
H2227 C2240 0.960 . S
C2228 H2220 0.929 . S
C2228 C2229 1.377 . S
C2228 C2230 1.384 . S
C2229 C2228 1.377 . S
C2229 C2235 1.390 . S
C2230 H2221 0.930 . S
C2230 C2228 1.384 . S
C2230 C2231 1.372 . S
C2231 C2230 1.372 . S
C2231 C2232 1.400 . S
C2231 C2236 1.490 . S
C2232 H2222 0.930 . S
C2232 C2231 1.400 . S
C2232 C2235 1.386 . S
H2233 C2249 0.930 . S
H2234 C2250 0.931 . S
C2235 H2223 0.929 . S
C2235 C2229 1.390 . S
C2235 C2232 1.386 . S
C2236 C2231 1.490 . S
C2236 C2238 1.395 . S
C2236 C2239 1.403 . S
H2237 C2243 0.930 . S
C2238 H2224 0.930 . S
C2238 C2236 1.395 . S
C2238 C2241 1.403 . S
C2239 C2236 1.403 . S
C2239 C2240 1.524 . S
C2239 C2243 1.400 . S
C2240 H2225 0.960 . S
C2240 H2226 0.960 . S
C2240 H2227 0.960 . S
C2240 C2239 1.524 . S
C2241 C2238 1.403 . S
C2241 C2242 1.392 . S
C2241 C2245 1.495 . S
C2242 C2241 1.392 . S
C2242 C2243 1.385 . S
C2242 C2244 1.478 . S
C2243 H2237 0.930 . S
C2243 C2239 1.400 . S
C2243 C2242 1.385 . S
C2244 C2242 1.478 . S
C2244 C2246 1.381 . S
C2244 C2250 1.383 . S
C2245 C2241 1.495 . S
C2245 H2251 0.959 . S
C2245 H2252 0.961 . S
C2245 H2253 0.960 . S
C2246 C2244 1.381 . S
C2246 C2247 1.394 . S
C2246 H2254 0.930 . S
C2247 C2246 1.394 . S
C2247 C2248 1.383 . S
C2247 H2255 0.929 . S
C2248 C2247 1.383 . S
C2248 C2249 1.377 . S
C2249 H2233 0.930 . S
C2249 C2248 1.377 . S
C2249 C2250 1.379 . S
C2250 H2234 0.931 . S
C2250 C2244 1.383 . S
C2250 C2249 1.379 . S
H2251 C2245 0.959 . S
H2252 C2245 0.961 . S
H2253 C2245 0.960 . S
H2254 C2246 0.930 . S
H2255 C2247 0.929 . S
H2256 C2264 0.929 . S
H2257 C2266 0.930 . S
H2258 C2268 0.930 . S
H2259 C2271 0.929 . S
H2260 C2274 0.930 . S
H2261 C2276 0.960 . S
H2262 C2276 0.960 . S
H2263 C2276 0.960 . S
C2264 H2256 0.929 . S
C2264 C2265 1.377 . S
C2264 C2266 1.384 . S
C2265 C2264 1.377 . S
C2265 C2271 1.390 . S
C2266 H2257 0.930 . S
C2266 C2264 1.384 . S
C2266 C2267 1.372 . S
C2267 C2266 1.372 . S
C2267 C2268 1.400 . S
C2267 C2272 1.490 . S
C2268 H2258 0.930 . S
C2268 C2267 1.400 . S
C2268 C2271 1.386 . S
H2269 C2285 0.930 . S
H2270 C2286 0.931 . S
C2271 H2259 0.929 . S
C2271 C2265 1.390 . S
C2271 C2268 1.386 . S
C2272 C2267 1.490 . S
C2272 C2274 1.395 . S
C2272 C2275 1.403 . S
H2273 C2279 0.930 . S
C2274 H2260 0.930 . S
C2274 C2272 1.395 . S
C2274 C2277 1.403 . S
C2275 C2272 1.403 . S
C2275 C2276 1.524 . S
C2275 C2279 1.400 . S
C2276 H2261 0.960 . S
C2276 H2262 0.960 . S
C2276 H2263 0.960 . S
C2276 C2275 1.524 . S
C2277 C2274 1.403 . S
C2277 C2278 1.392 . S
C2277 C2281 1.495 . S
C2278 C2277 1.392 . S
C2278 C2279 1.385 . S
C2278 C2280 1.478 . S
C2279 H2273 0.930 . S
C2279 C2275 1.400 . S
C2279 C2278 1.385 . S
C2280 C2278 1.478 . S
C2280 C2282 1.381 . S
C2280 C2286 1.383 . S
C2281 C2277 1.495 . S
C2281 H2287 0.959 . S
C2281 H2288 0.961 . S
C2281 H2289 0.960 . S
C2282 C2280 1.381 . S
C2282 C2283 1.394 . S
C2282 H2290 0.930 . S
C2283 C2282 1.394 . S
C2283 C2284 1.383 . S
C2283 H2291 0.929 . S
C2284 C2283 1.383 . S
C2284 C2285 1.377 . S
C2285 H2269 0.930 . S
C2285 C2284 1.377 . S
C2285 C2286 1.379 . S
C2286 H2270 0.931 . S
C2286 C2280 1.383 . S
C2286 C2285 1.379 . S
H2287 C2281 0.959 . S
H2288 C2281 0.961 . S
H2289 C2281 0.960 . S
H2290 C2282 0.930 . S
H2291 C2283 0.929 . S
H2292 C2300 0.929 . S
H2293 C2302 0.930 . S
H2294 C2304 0.930 . S
H2295 C2307 0.929 . S
H2296 C2310 0.930 . S
H2297 C2312 0.960 . S
H2298 C2312 0.960 . S
H2299 C2312 0.960 . S
C2300 H2292 0.929 . S
C2300 C2301 1.377 . S
C2300 C2302 1.384 . S
C2301 C2300 1.377 . S
C2301 C2307 1.390 . S
C2302 H2293 0.930 . S
C2302 C2300 1.384 . S
C2302 C2303 1.372 . S
C2303 C2302 1.372 . S
C2303 C2304 1.400 . S
C2303 C2308 1.490 . S
C2304 H2294 0.930 . S
C2304 C2303 1.400 . S
C2304 C2307 1.386 . S
H2305 C2321 0.930 . S
H2306 C2322 0.931 . S
C2307 H2295 0.929 . S
C2307 C2301 1.390 . S
C2307 C2304 1.386 . S
C2308 C2303 1.490 . S
C2308 C2310 1.395 . S
C2308 C2311 1.403 . S
H2309 C2315 0.930 . S
C2310 H2296 0.930 . S
C2310 C2308 1.395 . S
C2310 C2313 1.403 . S
C2311 C2308 1.403 . S
C2311 C2312 1.524 . S
C2311 C2315 1.400 . S
C2312 H2297 0.960 . S
C2312 H2298 0.960 . S
C2312 H2299 0.960 . S
C2312 C2311 1.524 . S
C2313 C2310 1.403 . S
C2313 C2314 1.392 . S
C2313 C2317 1.495 . S
C2314 C2313 1.392 . S
C2314 C2315 1.385 . S
C2314 C2316 1.478 . S
C2315 H2309 0.930 . S
C2315 C2311 1.400 . S
C2315 C2314 1.385 . S
C2316 C2314 1.478 . S
C2316 C2318 1.381 . S
C2316 C2322 1.383 . S
C2317 C2313 1.495 . S
C2317 H2323 0.959 . S
C2317 H2324 0.961 . S
C2317 H2325 0.960 . S
C2318 C2316 1.381 . S
C2318 C2319 1.394 . S
C2318 H2326 0.930 . S
C2319 C2318 1.394 . S
C2319 C2320 1.383 . S
C2319 H2327 0.929 . S
C2320 C2319 1.383 . S
C2320 C2321 1.377 . S
C2321 H2305 0.930 . S
C2321 C2320 1.377 . S
C2321 C2322 1.379 . S
C2322 H2306 0.931 . S
C2322 C2316 1.383 . S
C2322 C2321 1.379 . S
H2323 C2317 0.959 . S
H2324 C2317 0.961 . S
H2325 C2317 0.960 . S
H2326 C2318 0.930 . S
H2327 C2319 0.929 . S
H2328 C2336 0.929 . S
H2329 C2338 0.930 . S
H2330 C2340 0.930 . S
H2331 C2343 0.929 . S
H2332 C2346 0.930 . S
H2333 C2348 0.960 . S
H2334 C2348 0.960 . S
H2335 C2348 0.960 . S
C2336 H2328 0.929 . S
C2336 C2337 1.377 . S
C2336 C2338 1.384 . S
C2337 C2336 1.377 . S
C2337 C2343 1.390 . S
C2338 H2329 0.930 . S
C2338 C2336 1.384 . S
C2338 C2339 1.372 . S
C2339 C2338 1.372 . S
C2339 C2340 1.400 . S
C2339 C2344 1.490 . S
C2340 H2330 0.930 . S
C2340 C2339 1.400 . S
C2340 C2343 1.386 . S
H2341 C2357 0.930 . S
H2342 C2358 0.931 . S
C2343 H2331 0.929 . S
C2343 C2337 1.390 . S
C2343 C2340 1.386 . S
C2344 C2339 1.490 . S
C2344 C2346 1.395 . S
C2344 C2347 1.403 . S
H2345 C2351 0.930 . S
C2346 H2332 0.930 . S
C2346 C2344 1.395 . S
C2346 C2349 1.403 . S
C2347 C2344 1.403 . S
C2347 C2348 1.524 . S
C2347 C2351 1.400 . S
C2348 H2333 0.960 . S
C2348 H2334 0.960 . S
C2348 H2335 0.960 . S
C2348 C2347 1.524 . S
C2349 C2346 1.403 . S
C2349 C2350 1.392 . S
C2349 C2353 1.495 . S
C2350 C2349 1.392 . S
C2350 C2351 1.385 . S
C2350 C2352 1.478 . S
C2351 H2345 0.930 . S
C2351 C2347 1.400 . S
C2351 C2350 1.385 . S
C2352 C2350 1.478 . S
C2352 C2354 1.381 . S
C2352 C2358 1.383 . S
C2353 C2349 1.495 . S
C2353 H2359 0.959 . S
C2353 H2360 0.961 . S
C2353 H2361 0.960 . S
C2354 C2352 1.381 . S
C2354 C2355 1.394 . S
C2354 H2362 0.930 . S
C2355 C2354 1.394 . S
C2355 C2356 1.383 . S
C2355 H2363 0.929 . S
C2356 C2355 1.383 . S
C2356 C2357 1.377 . S
C2357 H2341 0.930 . S
C2357 C2356 1.377 . S
C2357 C2358 1.379 . S
C2358 H2342 0.931 . S
C2358 C2352 1.383 . S
C2358 C2357 1.379 . S
H2359 C2353 0.959 . S
H2360 C2353 0.961 . S
H2361 C2353 0.960 . S
H2362 C2354 0.930 . S
H2363 C2355 0.929 . S
H2364 C2372 0.929 . S
H2365 C2374 0.930 . S
H2366 C2376 0.930 . S
H2367 C2379 0.929 . S
H2368 C2382 0.930 . S
H2369 C2384 0.960 . S
H2370 C2384 0.960 . S
H2371 C2384 0.960 . S
C2372 H2364 0.929 . S
C2372 C2373 1.377 . S
C2372 C2374 1.384 . S
C2373 C2372 1.377 . S
C2373 C2379 1.390 . S
C2374 H2365 0.930 . S
C2374 C2372 1.384 . S
C2374 C2375 1.372 . S
C2375 C2374 1.372 . S
C2375 C2376 1.400 . S
C2375 C2380 1.490 . S
C2376 H2366 0.930 . S
C2376 C2375 1.400 . S
C2376 C2379 1.386 . S
H2377 C2393 0.930 . S
H2378 C2394 0.931 . S
C2379 H2367 0.929 . S
C2379 C2373 1.390 . S
C2379 C2376 1.386 . S
C2380 C2375 1.490 . S
C2380 C2382 1.395 . S
C2380 C2383 1.403 . S
H2381 C2387 0.930 . S
C2382 H2368 0.930 . S
C2382 C2380 1.395 . S
C2382 C2385 1.403 . S
C2383 C2380 1.403 . S
C2383 C2384 1.524 . S
C2383 C2387 1.400 . S
C2384 H2369 0.960 . S
C2384 H2370 0.960 . S
C2384 H2371 0.960 . S
C2384 C2383 1.524 . S
C2385 C2382 1.403 . S
C2385 C2386 1.392 . S
C2385 C2389 1.495 . S
C2386 C2385 1.392 . S
C2386 C2387 1.385 . S
C2386 C2388 1.478 . S
C2387 H2381 0.930 . S
C2387 C2383 1.400 . S
C2387 C2386 1.385 . S
C2388 C2386 1.478 . S
C2388 C2390 1.381 . S
C2388 C2394 1.383 . S
C2389 C2385 1.495 . S
C2389 H2395 0.959 . S
C2389 H2396 0.961 . S
C2389 H2397 0.960 . S
C2390 C2388 1.381 . S
C2390 C2391 1.394 . S
C2390 H2398 0.930 . S
C2391 C2390 1.394 . S
C2391 C2392 1.383 . S
C2391 H2399 0.929 . S
C2392 C2391 1.383 . S
C2392 C2393 1.377 . S
C2393 H2377 0.930 . S
C2393 C2392 1.377 . S
C2393 C2394 1.379 . S
C2394 H2378 0.931 . S
C2394 C2388 1.383 . S
C2394 C2393 1.379 . S
H2395 C2389 0.959 . S
H2396 C2389 0.961 . S
H2397 C2389 0.960 . S
H2398 C2390 0.930 . S
H2399 C2391 0.929 . S
H2400 C2408 0.929 . S
H2401 C2410 0.930 . S
H2402 C2412 0.930 . S
H2403 C2415 0.929 . S
H2404 C2418 0.930 . S
H2405 C2420 0.960 . S
H2406 C2420 0.960 . S
H2407 C2420 0.960 . S
C2408 H2400 0.929 . S
C2408 C2409 1.377 . S
C2408 C2410 1.384 . S
C2409 C2408 1.377 . S
C2409 C2415 1.390 . S
C2410 H2401 0.930 . S
C2410 C2408 1.384 . S
C2410 C2411 1.372 . S
C2411 C2410 1.372 . S
C2411 C2412 1.400 . S
C2411 C2416 1.490 . S
C2412 H2402 0.930 . S
C2412 C2411 1.400 . S
C2412 C2415 1.386 . S
H2413 C2429 0.930 . S
H2414 C2430 0.931 . S
C2415 H2403 0.929 . S
C2415 C2409 1.390 . S
C2415 C2412 1.386 . S
C2416 C2411 1.490 . S
C2416 C2418 1.395 . S
C2416 C2419 1.403 . S
H2417 C2423 0.930 . S
C2418 H2404 0.930 . S
C2418 C2416 1.395 . S
C2418 C2421 1.403 . S
C2419 C2416 1.403 . S
C2419 C2420 1.524 . S
C2419 C2423 1.400 . S
C2420 H2405 0.960 . S
C2420 H2406 0.960 . S
C2420 H2407 0.960 . S
C2420 C2419 1.524 . S
C2421 C2418 1.403 . S
C2421 C2422 1.392 . S
C2421 C2425 1.495 . S
C2422 C2421 1.392 . S
C2422 C2423 1.385 . S
C2422 C2424 1.478 . S
C2423 H2417 0.930 . S
C2423 C2419 1.400 . S
C2423 C2422 1.385 . S
C2424 C2422 1.478 . S
C2424 C2426 1.381 . S
C2424 C2430 1.383 . S
C2425 C2421 1.495 . S
C2425 H2431 0.959 . S
C2425 H2432 0.961 . S
C2425 H2433 0.960 . S
C2426 C2424 1.381 . S
C2426 C2427 1.394 . S
C2426 H2434 0.930 . S
C2427 C2426 1.394 . S
C2427 C2428 1.383 . S
C2427 H2435 0.929 . S
C2428 C2427 1.383 . S
C2428 C2429 1.377 . S
C2429 H2413 0.930 . S
C2429 C2428 1.377 . S
C2429 C2430 1.379 . S
C2430 H2414 0.931 . S
C2430 C2424 1.383 . S
C2430 C2429 1.379 . S
H2431 C2425 0.959 . S
H2432 C2425 0.961 . S
H2433 C2425 0.960 . S
H2434 C2426 0.930 . S
H2435 C2427 0.929 . S
H2436 C2444 0.929 . S
H2437 C2446 0.930 . S
H2438 C2448 0.930 . S
H2439 C2451 0.929 . S
H2440 C2454 0.930 . S
H2441 C2456 0.960 . S
H2442 C2456 0.960 . S
H2443 C2456 0.960 . S
C2444 H2436 0.929 . S
C2444 C2445 1.377 . S
C2444 C2446 1.384 . S
C2445 C2444 1.377 . S
C2445 C2451 1.390 . S
C2446 H2437 0.930 . S
C2446 C2444 1.384 . S
C2446 C2447 1.372 . S
C2447 C2446 1.372 . S
C2447 C2448 1.400 . S
C2447 C2452 1.490 . S
C2448 H2438 0.930 . S
C2448 C2447 1.400 . S
C2448 C2451 1.386 . S
H2449 C2465 0.930 . S
H2450 C2466 0.931 . S
C2451 H2439 0.929 . S
C2451 C2445 1.390 . S
C2451 C2448 1.386 . S
C2452 C2447 1.490 . S
C2452 C2454 1.395 . S
C2452 C2455 1.403 . S
H2453 C2459 0.930 . S
C2454 H2440 0.930 . S
C2454 C2452 1.395 . S
C2454 C2457 1.403 . S
C2455 C2452 1.403 . S
C2455 C2456 1.524 . S
C2455 C2459 1.400 . S
C2456 H2441 0.960 . S
C2456 H2442 0.960 . S
C2456 H2443 0.960 . S
C2456 C2455 1.524 . S
C2457 C2454 1.403 . S
C2457 C2458 1.392 . S
C2457 C2461 1.495 . S
C2458 C2457 1.392 . S
C2458 C2459 1.385 . S
C2458 C2460 1.478 . S
C2459 H2453 0.930 . S
C2459 C2455 1.400 . S
C2459 C2458 1.385 . S
C2460 C2458 1.478 . S
C2460 C2462 1.381 . S
C2460 C2466 1.383 . S
C2461 C2457 1.495 . S
C2461 H2467 0.959 . S
C2461 H2468 0.961 . S
C2461 H2469 0.960 . S
C2462 C2460 1.381 . S
C2462 C2463 1.394 . S
C2462 H2470 0.930 . S
C2463 C2462 1.394 . S
C2463 C2464 1.383 . S
C2463 H2471 0.929 . S
C2464 C2463 1.383 . S
C2464 C2465 1.377 . S
C2465 H2449 0.930 . S
C2465 C2464 1.377 . S
C2465 C2466 1.379 . S
C2466 H2450 0.931 . S
C2466 C2460 1.383 . S
C2466 C2465 1.379 . S
H2467 C2461 0.959 . S
H2468 C2461 0.961 . S
H2469 C2461 0.960 . S
H2470 C2462 0.930 . S
H2471 C2463 0.929 . S
H2472 C2480 0.929 . S
H2473 C2482 0.930 . S
H2474 C2484 0.940 . S
H2475 C2487 0.930 . S
H2476 C2490 0.930 . S
H2477 C2492 0.960 . S
H2478 C2492 0.960 . S
H2479 C2492 0.960 . S
C2480 H2472 0.929 . S
C2480 C2481 1.377 . S
C2480 C2482 1.384 . S
C2481 C2480 1.377 . S
C2481 C2487 1.390 . S
C2482 H2473 0.930 . S
C2482 C2480 1.384 . S
C2482 C2483 1.372 . S
C2483 C2482 1.372 . S
C2483 C2484 1.400 . S
C2483 C2488 1.490 . S
C2484 H2474 0.940 . S
C2484 C2483 1.400 . S
C2484 C2487 1.386 . S
H2485 C2501 0.930 1_556 S
H2486 C2502 0.931 . S
C2487 H2475 0.930 . S
C2487 C2481 1.390 . S
C2487 C2484 1.386 . S
C2488 C2483 1.490 . S
C2488 C2490 1.395 . S
C2488 C2491 1.403 1_455 S
H2489 C2495 0.930 . S
C2490 H2476 0.930 . S
C2490 C2488 1.395 . S
C2490 C2493 1.403 . S
C2491 C2488 1.403 1_655 S
C2491 C2492 1.524 . S
C2491 C2495 1.400 . S
C2492 H2477 0.960 . S
C2492 H2478 0.960 . S
C2492 H2479 0.960 . S
C2492 C2491 1.524 . S
C2493 C2490 1.403 . S
C2493 C2494 1.392 . S
C2493 C2497 1.495 . S
C2494 C2493 1.392 . S
C2494 C2495 1.385 1_455 S
C2494 C2496 1.478 . S
C2495 H2489 0.930 . S
C2495 C2491 1.400 . S
C2495 C2494 1.385 1_655 S
C2496 C2494 1.478 . S
C2496 C2498 1.381 . S
C2496 C2502 1.383 . S
C2497 C2493 1.495 . S
C2497 H2503 0.959 . S
C2497 H2504 0.961 . S
C2497 H2505 0.960 . S
C2498 C2496 1.381 . S
C2498 C2499 1.394 . S
C2498 H2506 0.930 . S
C2499 C2498 1.394 . S
C2499 C2500 1.383 . S
C2499 H2507 0.929 . S
C2500 C2499 1.383 . S
C2500 C2501 1.377 . S
C2501 H2485 0.930 1_554 S
C2501 C2500 1.377 . S
C2501 C2502 1.379 . S
C2502 H2486 0.931 . S
C2502 C2496 1.383 . S
C2502 C2501 1.379 . S
H2503 C2497 0.959 . S
H2504 C2497 0.961 . S
H2505 C2497 0.960 . S
H2506 C2498 0.930 . S
H2507 C2499 0.929 . S
H2508 C2516 0.929 . S
H2509 C2518 0.930 . S
H2510 C2520 0.930 . S
H2511 C2523 0.929 . S
H2512 C2526 0.930 . S
H2513 C2528 0.960 . S
H2514 C2528 0.960 . S
H2515 C2528 0.960 . S
C2516 H2508 0.929 . S
C2516 C2517 1.377 . S
C2516 C2518 1.384 . S
C2517 C2516 1.377 . S
C2517 C2523 1.390 . S
C2518 H2509 0.930 . S
C2518 C2516 1.384 . S
C2518 C2519 1.372 . S
C2519 C2518 1.372 . S
C2519 C2520 1.400 . S
C2519 C2524 1.490 . S
C2520 H2510 0.930 . S
C2520 C2519 1.400 . S
C2520 C2523 1.386 . S
H2521 C2537 0.930 . S
H2522 C2538 0.931 . S
C2523 H2511 0.929 . S
C2523 C2517 1.390 . S
C2523 C2520 1.386 . S
C2524 C2519 1.490 . S
C2524 C2526 1.395 . S
C2524 C2527 1.403 . S
H2525 C2531 0.930 . S
C2526 H2512 0.930 . S
C2526 C2524 1.395 . S
C2526 C2529 1.403 . S
C2527 C2524 1.403 . S
C2527 C2528 1.524 . S
C2527 C2531 1.400 . S
C2528 H2513 0.960 . S
C2528 H2514 0.960 . S
C2528 H2515 0.960 . S
C2528 C2527 1.524 . S
C2529 C2526 1.403 . S
C2529 C2530 1.392 . S
C2529 C2533 1.495 . S
C2530 C2529 1.392 . S
C2530 C2531 1.385 . S
C2530 C2532 1.478 . S
C2531 H2525 0.930 . S
C2531 C2527 1.400 . S
C2531 C2530 1.385 . S
C2532 C2530 1.478 . S
C2532 C2534 1.381 . S
C2532 C2538 1.383 . S
C2533 C2529 1.495 . S
C2533 H2539 0.959 . S
C2533 H2540 0.961 . S
C2533 H2541 0.960 . S
C2534 C2532 1.381 . S
C2534 C2535 1.394 . S
C2534 H2542 0.930 . S
C2535 C2534 1.394 . S
C2535 C2536 1.383 . S
C2535 H2543 0.929 . S
C2536 C2535 1.383 . S
C2536 C2537 1.377 . S
C2537 H2521 0.930 . S
C2537 C2536 1.377 . S
C2537 C2538 1.379 . S
C2538 H2522 0.931 . S
C2538 C2532 1.383 . S
C2538 C2537 1.379 . S
H2539 C2533 0.959 . S
H2540 C2533 0.961 . S
H2541 C2533 0.960 . S
H2542 C2534 0.930 . S
H2543 C2535 0.929 . S
H2544 C2552 0.929 . S
H2545 C2554 0.930 . S
H2546 C2556 0.930 . S
H2547 C2559 0.929 . S
H2548 C2562 0.930 . S
H2549 C2564 0.960 . S
H2550 C2564 0.960 . S
H2551 C2564 0.960 . S
C2552 H2544 0.929 . S
C2552 C2553 1.377 . S
C2552 C2554 1.384 . S
C2553 C2552 1.377 . S
C2553 C2559 1.390 . S
C2554 H2545 0.930 . S
C2554 C2552 1.384 . S
C2554 C2555 1.372 . S
C2555 C2554 1.372 . S
C2555 C2556 1.400 . S
C2555 C2560 1.490 . S
C2556 H2546 0.930 . S
C2556 C2555 1.400 . S
C2556 C2559 1.386 . S
H2557 C2573 0.930 . S
H2558 C2574 0.931 . S
C2559 H2547 0.929 . S
C2559 C2553 1.390 . S
C2559 C2556 1.386 . S
C2560 C2555 1.490 . S
C2560 C2562 1.395 . S
C2560 C2563 1.403 . S
H2561 C2567 0.930 . S
C2562 H2548 0.930 . S
C2562 C2560 1.395 . S
C2562 C2565 1.403 . S
C2563 C2560 1.403 . S
C2563 C2564 1.524 . S
C2563 C2567 1.400 . S
C2564 H2549 0.960 . S
C2564 H2550 0.960 . S
C2564 H2551 0.960 . S
C2564 C2563 1.524 . S
C2565 C2562 1.403 . S
C2565 C2566 1.392 . S
C2565 C2569 1.495 . S
C2566 C2565 1.392 . S
C2566 C2567 1.385 . S
C2566 C2568 1.478 . S
C2567 H2561 0.930 . S
C2567 C2563 1.400 . S
C2567 C2566 1.385 . S
C2568 C2566 1.478 . S
C2568 C2570 1.381 . S
C2568 C2574 1.383 . S
C2569 C2565 1.495 . S
C2569 H2575 0.959 . S
C2569 H2576 0.961 . S
C2569 H2577 0.960 . S
C2570 C2568 1.381 . S
C2570 C2571 1.394 . S
C2570 H2578 0.930 . S
C2571 C2570 1.394 . S
C2571 C2572 1.383 . S
C2571 H2579 0.929 . S
C2572 C2571 1.383 . S
C2572 C2573 1.377 . S
C2573 H2557 0.930 . S
C2573 C2572 1.377 . S
C2573 C2574 1.379 . S
C2574 H2558 0.931 . S
C2574 C2568 1.383 . S
C2574 C2573 1.379 . S
H2575 C2569 0.959 . S
H2576 C2569 0.961 . S
H2577 C2569 0.960 . S
H2578 C2570 0.930 . S
H2579 C2571 0.929 . S
H2580 C2588 0.929 . S
H2581 C2590 0.930 . S
H2582 C2592 0.930 . S
H2583 C2595 0.929 . S
H2584 C2598 0.930 . S
H2585 C2600 0.960 . S
H2586 C2600 0.960 . S
H2587 C2600 0.960 . S
C2588 H2580 0.929 . S
C2588 C2589 1.377 . S
C2588 C2590 1.384 . S
C2589 C2588 1.377 . S
C2589 C2595 1.390 . S
C2590 H2581 0.930 . S
C2590 C2588 1.384 . S
C2590 C2591 1.372 . S
C2591 C2590 1.372 . S
C2591 C2592 1.400 . S
C2591 C2596 1.490 . S
C2592 H2582 0.930 . S
C2592 C2591 1.400 . S
C2592 C2595 1.386 . S
H2593 C2609 0.930 . S
H2594 C2610 0.931 . S
C2595 H2583 0.929 . S
C2595 C2589 1.390 . S
C2595 C2592 1.386 . S
C2596 C2591 1.490 . S
C2596 C2598 1.395 . S
C2596 C2599 1.403 . S
H2597 C2603 0.930 . S
C2598 H2584 0.930 . S
C2598 C2596 1.395 . S
C2598 C2601 1.403 . S
C2599 C2596 1.403 . S
C2599 C2600 1.524 . S
C2599 C2603 1.400 . S
C2600 H2585 0.960 . S
C2600 H2586 0.960 . S
C2600 H2587 0.960 . S
C2600 C2599 1.524 . S
C2601 C2598 1.403 . S
C2601 C2602 1.392 . S
C2601 C2605 1.495 . S
C2602 C2601 1.392 . S
C2602 C2603 1.385 . S
C2602 C2604 1.478 . S
C2603 H2597 0.930 . S
C2603 C2599 1.400 . S
C2603 C2602 1.385 . S
C2604 C2602 1.478 . S
C2604 C2606 1.381 . S
C2604 C2610 1.383 . S
C2605 C2601 1.495 . S
C2605 H2611 0.959 . S
C2605 H2612 0.961 . S
C2605 H2613 0.960 . S
C2606 C2604 1.381 . S
C2606 C2607 1.394 . S
C2606 H2614 0.930 . S
C2607 C2606 1.394 . S
C2607 C2608 1.383 . S
C2607 H2615 0.929 . S
C2608 C2607 1.383 . S
C2608 C2609 1.377 . S
C2609 H2593 0.930 . S
C2609 C2608 1.377 . S
C2609 C2610 1.379 . S
C2610 H2594 0.931 . S
C2610 C2604 1.383 . S
C2610 C2609 1.379 . S
H2611 C2605 0.959 . S
H2612 C2605 0.961 . S
H2613 C2605 0.960 . S
H2614 C2606 0.930 . S
H2615 C2607 0.929 . S
H2616 C2624 0.929 . S
H2617 C2626 0.930 . S
H2618 C2628 0.930 . S
H2619 C2631 0.929 . S
H2620 C2634 0.930 . S
H2621 C2636 0.960 . S
H2622 C2636 0.960 . S
H2623 C2636 0.960 . S
C2624 H2616 0.929 . S
C2624 C2625 1.377 . S
C2624 C2626 1.384 . S
C2625 C2624 1.377 . S
C2625 C2631 1.390 . S
C2626 H2617 0.930 . S
C2626 C2624 1.384 . S
C2626 C2627 1.372 . S
C2627 C2626 1.372 . S
C2627 C2628 1.400 . S
C2627 C2632 1.490 . S
C2628 H2618 0.930 . S
C2628 C2627 1.400 . S
C2628 C2631 1.386 . S
H2629 C2645 0.930 . S
H2630 C2646 0.931 . S
C2631 H2619 0.929 . S
C2631 C2625 1.390 . S
C2631 C2628 1.386 . S
C2632 C2627 1.490 . S
C2632 C2634 1.395 1_455 S
C2632 C2635 1.403 . S
H2633 C2639 0.930 . S
C2634 H2620 0.930 . S
C2634 C2632 1.395 1_655 S
C2634 C2637 1.403 . S
C2635 C2632 1.403 . S
C2635 C2636 1.524 . S
C2635 C2639 1.400 . S
C2636 H2621 0.960 . S
C2636 H2622 0.960 . S
C2636 H2623 0.960 . S
C2636 C2635 1.524 . S
C2637 C2634 1.403 . S
C2637 C2638 1.392 1_655 S
C2637 C2641 1.495 . S
C2638 C2637 1.392 1_455 S
C2638 C2639 1.385 . S
C2638 C2640 1.478 . S
C2639 H2633 0.930 . S
C2639 C2635 1.400 . S
C2639 C2638 1.385 . S
C2640 C2638 1.478 . S
C2640 C2642 1.381 . S
C2640 C2646 1.383 . S
C2641 C2637 1.495 . S
C2641 H2647 0.959 . S
C2641 H2648 0.961 . S
C2641 H2649 0.960 . S
C2642 C2640 1.381 . S
C2642 C2643 1.394 . S
C2642 H2650 0.930 . S
C2643 C2642 1.394 . S
C2643 C2644 1.383 . S
C2643 H2651 0.929 . S
C2644 C2643 1.383 . S
C2644 C2645 1.377 . S
C2645 H2629 0.930 . S
C2645 C2644 1.377 . S
C2645 C2646 1.379 . S
C2646 H2630 0.931 . S
C2646 C2640 1.383 . S
C2646 C2645 1.379 . S
H2647 C2641 0.959 . S
H2648 C2641 0.961 . S
H2649 C2641 0.960 . S
H2650 C2642 0.930 . S
H2651 C2643 0.929 . S
H2652 C2660 0.929 . S
H2653 C2662 0.930 . S
H2654 C2664 0.930 . S
H2655 C2667 0.929 . S
H2656 C2670 0.930 . S
H2657 C2672 0.960 . S
H2658 C2672 0.960 . S
H2659 C2672 0.960 . S
C2660 H2652 0.929 . S
C2660 C2661 1.377 . S
C2660 C2662 1.384 . S
C2661 C2660 1.377 . S
C2661 C2667 1.390 . S
C2662 H2653 0.930 . S
C2662 C2660 1.384 . S
C2662 C2663 1.372 . S
C2663 C2662 1.372 . S
C2663 C2664 1.400 . S
C2663 C2668 1.490 . S
C2664 H2654 0.930 . S
C2664 C2663 1.400 . S
C2664 C2667 1.386 . S
H2665 C2681 0.930 . S
H2666 C2682 0.931 . S
C2667 H2655 0.929 . S
C2667 C2661 1.390 . S
C2667 C2664 1.386 . S
C2668 C2663 1.490 . S
C2668 C2670 1.395 . S
C2668 C2671 1.403 . S
H2669 C2675 0.930 . S
C2670 H2656 0.930 . S
C2670 C2668 1.395 . S
C2670 C2673 1.403 . S
C2671 C2668 1.403 . S
C2671 C2672 1.524 . S
C2671 C2675 1.400 . S
C2672 H2657 0.960 . S
C2672 H2658 0.960 . S
C2672 H2659 0.960 . S
C2672 C2671 1.524 . S
C2673 C2670 1.403 . S
C2673 C2674 1.392 . S
C2673 C2677 1.495 . S
C2674 C2673 1.392 . S
C2674 C2675 1.385 . S
C2674 C2676 1.478 . S
C2675 H2669 0.930 . S
C2675 C2671 1.400 . S
C2675 C2674 1.385 . S
C2676 C2674 1.478 . S
C2676 C2678 1.381 . S
C2676 C2682 1.383 . S
C2677 C2673 1.495 . S
C2677 H2683 0.959 . S
C2677 H2684 0.961 . S
C2677 H2685 0.960 . S
C2678 C2676 1.381 . S
C2678 C2679 1.394 . S
C2678 H2686 0.930 . S
C2679 C2678 1.394 . S
C2679 C2680 1.383 . S
C2679 H2687 0.929 . S
C2680 C2679 1.383 . S
C2680 C2681 1.377 . S
C2681 H2665 0.930 . S
C2681 C2680 1.377 . S
C2681 C2682 1.379 . S
C2682 H2666 0.931 . S
C2682 C2676 1.383 . S
C2682 C2681 1.379 . S
H2683 C2677 0.959 . S
H2684 C2677 0.961 . S
H2685 C2677 0.960 . S
H2686 C2678 0.930 . S
H2687 C2679 0.929 . S
H2688 C2696 0.929 . S
H2689 C2698 0.930 . S
H2690 C2700 0.930 . S
H2691 C2703 0.929 . S
H2692 C2706 0.930 . S
H2693 C2708 0.960 . S
H2694 C2708 0.960 . S
H2695 C2708 0.960 . S
C2696 H2688 0.929 . S
C2696 C2697 1.377 . S
C2696 C2698 1.384 . S
C2697 C2696 1.377 . S
C2697 C2703 1.390 . S
C2698 H2689 0.930 . S
C2698 C2696 1.384 . S
C2698 C2699 1.372 . S
C2699 C2698 1.372 . S
C2699 C2700 1.400 . S
C2699 C2704 1.490 . S
C2700 H2690 0.930 . S
C2700 C2699 1.400 . S
C2700 C2703 1.386 . S
H2701 C2717 0.930 . S
H2702 C2718 0.931 . S
C2703 H2691 0.929 . S
C2703 C2697 1.390 . S
C2703 C2700 1.386 . S
C2704 C2699 1.490 . S
C2704 C2706 1.395 . S
C2704 C2707 1.403 . S
H2705 C2711 0.930 . S
C2706 H2692 0.930 . S
C2706 C2704 1.395 . S
C2706 C2709 1.403 . S
C2707 C2704 1.403 . S
C2707 C2708 1.524 . S
C2707 C2711 1.400 . S
C2708 H2693 0.960 . S
C2708 H2694 0.960 . S
C2708 H2695 0.960 . S
C2708 C2707 1.524 . S
C2709 C2706 1.403 . S
C2709 C2710 1.392 . S
C2709 C2713 1.495 . S
C2710 C2709 1.392 . S
C2710 C2711 1.385 . S
C2710 C2712 1.478 . S
C2711 H2705 0.930 . S
C2711 C2707 1.400 . S
C2711 C2710 1.385 . S
C2712 C2710 1.478 . S
C2712 C2714 1.381 . S
C2712 C2718 1.383 . S
C2713 C2709 1.495 . S
C2713 H2719 0.959 . S
C2713 H2720 0.961 . S
C2713 H2721 0.960 . S
C2714 C2712 1.381 . S
C2714 C2715 1.394 . S
C2714 H2722 0.930 . S
C2715 C2714 1.394 . S
C2715 C2716 1.383 . S
C2715 H2723 0.929 . S
C2716 C2715 1.383 . S
C2716 C2717 1.377 . S
C2717 H2701 0.930 . S
C2717 C2716 1.377 . S
C2717 C2718 1.379 . S
C2718 H2702 0.931 . S
C2718 C2712 1.383 . S
C2718 C2717 1.379 . S
H2719 C2713 0.959 . S
H2720 C2713 0.961 . S
H2721 C2713 0.960 . S
H2722 C2714 0.930 . S
H2723 C2715 0.929 . S
H2724 C2732 0.929 . S
H2725 C2734 0.930 . S
H2726 C2736 0.930 . S
H2727 C2739 0.929 . S
H2728 C2742 0.930 . S
H2729 C2744 0.960 . S
H2730 C2744 0.960 . S
H2731 C2744 0.960 . S
C2732 H2724 0.929 . S
C2732 C2733 1.377 . S
C2732 C2734 1.384 . S
C2733 C2732 1.377 . S
C2733 C2739 1.390 . S
C2734 H2725 0.930 . S
C2734 C2732 1.384 . S
C2734 C2735 1.372 . S
C2735 C2734 1.372 . S
C2735 C2736 1.400 . S
C2735 C2740 1.490 . S
C2736 H2726 0.930 . S
C2736 C2735 1.400 . S
C2736 C2739 1.386 . S
H2737 C2753 0.930 . S
H2738 C2754 0.931 . S
C2739 H2727 0.929 . S
C2739 C2733 1.390 . S
C2739 C2736 1.386 . S
C2740 C2735 1.490 . S
C2740 C2742 1.395 . S
C2740 C2743 1.403 . S
H2741 C2747 0.930 . S
C2742 H2728 0.930 . S
C2742 C2740 1.395 . S
C2742 C2745 1.403 . S
C2743 C2740 1.403 . S
C2743 C2744 1.524 . S
C2743 C2747 1.400 . S
C2744 H2729 0.960 . S
C2744 H2730 0.960 . S
C2744 H2731 0.960 . S
C2744 C2743 1.524 . S
C2745 C2742 1.403 . S
C2745 C2746 1.392 . S
C2745 C2749 1.495 . S
C2746 C2745 1.392 . S
C2746 C2747 1.385 . S
C2746 C2748 1.478 . S
C2747 H2741 0.930 . S
C2747 C2743 1.400 . S
C2747 C2746 1.385 . S
C2748 C2746 1.478 . S
C2748 C2750 1.381 . S
C2748 C2754 1.383 . S
C2749 C2745 1.495 . S
C2749 H2755 0.959 . S
C2749 H2756 0.961 . S
C2749 H2757 0.960 . S
C2750 C2748 1.381 . S
C2750 C2751 1.394 . S
C2750 H2758 0.930 . S
C2751 C2750 1.394 . S
C2751 C2752 1.383 . S
C2751 H2759 0.929 . S
C2752 C2751 1.383 . S
C2752 C2753 1.377 . S
C2753 H2737 0.930 . S
C2753 C2752 1.377 . S
C2753 C2754 1.379 . S
C2754 H2738 0.931 . S
C2754 C2748 1.383 . S
C2754 C2753 1.379 . S
H2755 C2749 0.959 . S
H2756 C2749 0.961 . S
H2757 C2749 0.960 . S
H2758 C2750 0.930 . S
H2759 C2751 0.929 . S
H2760 C2768 0.929 . S
H2761 C2770 0.930 . S
H2762 C2772 0.930 . S
H2763 C2775 0.929 . S
H2764 C2778 0.930 . S
H2765 C2780 0.960 . S
H2766 C2780 0.960 . S
H2767 C2780 0.960 . S
C2768 H2760 0.929 . S
C2768 C2769 1.377 . S
C2768 C2770 1.384 . S
C2769 C2768 1.377 . S
C2769 C2775 1.390 . S
C2770 H2761 0.930 . S
C2770 C2768 1.384 . S
C2770 C2771 1.372 . S
C2771 C2770 1.372 . S
C2771 C2772 1.400 . S
C2771 C2776 1.490 . S
C2772 H2762 0.930 . S
C2772 C2771 1.400 . S
C2772 C2775 1.386 . S
H2773 C2789 0.930 . S
H2774 C2790 0.931 . S
C2775 H2763 0.929 . S
C2775 C2769 1.390 . S
C2775 C2772 1.386 . S
C2776 C2771 1.490 . S
C2776 C2778 1.395 . S
C2776 C2779 1.403 . S
H2777 C2783 0.930 . S
C2778 H2764 0.930 . S
C2778 C2776 1.395 . S
C2778 C2781 1.403 . S
C2779 C2776 1.403 . S
C2779 C2780 1.524 . S
C2779 C2783 1.400 . S
C2780 H2765 0.960 . S
C2780 H2766 0.960 . S
C2780 H2767 0.960 . S
C2780 C2779 1.524 . S
C2781 C2778 1.403 . S
C2781 C2782 1.392 . S
C2781 C2785 1.495 . S
C2782 C2781 1.392 . S
C2782 C2783 1.385 . S
C2782 C2784 1.478 . S
C2783 H2777 0.930 . S
C2783 C2779 1.400 . S
C2783 C2782 1.385 . S
C2784 C2782 1.478 . S
C2784 C2786 1.381 . S
C2784 C2790 1.383 . S
C2785 C2781 1.495 . S
C2785 H2791 0.959 . S
C2785 H2792 0.961 . S
C2785 H2793 0.960 . S
C2786 C2784 1.381 . S
C2786 C2787 1.394 . S
C2786 H2794 0.930 . S
C2787 C2786 1.394 . S
C2787 C2788 1.383 . S
C2787 H2795 0.929 . S
C2788 C2787 1.383 . S
C2788 C2789 1.377 . S
C2789 H2773 0.930 . S
C2789 C2788 1.377 . S
C2789 C2790 1.379 . S
C2790 H2774 0.931 . S
C2790 C2784 1.383 . S
C2790 C2789 1.379 . S
H2791 C2785 0.959 . S
H2792 C2785 0.961 . S
H2793 C2785 0.960 . S
H2794 C2786 0.930 . S
H2795 C2787 0.929 . S
H2796 C2804 0.929 . S
H2797 C2806 0.930 . S
H2798 C2808 0.930 . S
H2799 C2811 0.929 . S
H2800 C2814 0.930 . S
H2801 C2816 0.960 . S
H2802 C2816 0.960 . S
H2803 C2816 0.960 . S
C2804 H2796 0.929 . S
C2804 C2805 1.377 . S
C2804 C2806 1.384 . S
C2805 C2804 1.377 . S
C2805 C2811 1.390 . S
C2806 H2797 0.930 . S
C2806 C2804 1.384 . S
C2806 C2807 1.372 . S
C2807 C2806 1.372 . S
C2807 C2808 1.400 . S
C2807 C2812 1.490 . S
C2808 H2798 0.930 . S
C2808 C2807 1.400 . S
C2808 C2811 1.386 . S
H2809 C2825 0.930 . S
H2810 C2826 0.931 . S
C2811 H2799 0.929 . S
C2811 C2805 1.390 . S
C2811 C2808 1.386 . S
C2812 C2807 1.490 . S
C2812 C2814 1.395 . S
C2812 C2815 1.403 . S
H2813 C2819 0.930 . S
C2814 H2800 0.930 . S
C2814 C2812 1.395 . S
C2814 C2817 1.403 . S
C2815 C2812 1.403 . S
C2815 C2816 1.524 . S
C2815 C2819 1.400 . S
C2816 H2801 0.960 . S
C2816 H2802 0.960 . S
C2816 H2803 0.960 . S
C2816 C2815 1.524 . S
C2817 C2814 1.403 . S
C2817 C2818 1.392 . S
C2817 C2821 1.495 . S
C2818 C2817 1.392 . S
C2818 C2819 1.385 . S
C2818 C2820 1.478 . S
C2819 H2813 0.930 . S
C2819 C2815 1.400 . S
C2819 C2818 1.385 . S
C2820 C2818 1.478 . S
C2820 C2822 1.381 . S
C2820 C2826 1.383 . S
C2821 C2817 1.495 . S
C2821 H2827 0.959 . S
C2821 H2828 0.961 . S
C2821 H2829 0.960 . S
C2822 C2820 1.381 . S
C2822 C2823 1.394 . S
C2822 H2830 0.930 . S
C2823 C2822 1.394 . S
C2823 C2824 1.383 . S
C2823 H2831 0.929 . S
C2824 C2823 1.383 . S
C2824 C2825 1.377 . S
C2825 H2809 0.930 . S
C2825 C2824 1.377 . S
C2825 C2826 1.379 . S
C2826 H2810 0.931 . S
C2826 C2820 1.383 . S
C2826 C2825 1.379 . S
H2827 C2821 0.959 . S
H2828 C2821 0.961 . S
H2829 C2821 0.960 . S
H2830 C2822 0.930 . S
H2831 C2823 0.929 . S
H2832 C2840 0.929 . S
H2833 C2842 0.930 . S
H2834 C2844 0.930 . S
H2835 C2847 0.929 . S
H2836 C2850 0.930 . S
H2837 C2852 0.960 . S
H2838 C2852 0.960 . S
H2839 C2852 0.960 . S
C2840 H2832 0.929 . S
C2840 C2841 1.377 . S
C2840 C2842 1.384 . S
C2841 C2840 1.377 . S
C2841 C2847 1.390 . S
C2842 H2833 0.930 . S
C2842 C2840 1.384 . S
C2842 C2843 1.372 . S
C2843 C2842 1.372 . S
C2843 C2844 1.400 . S
C2843 C2848 1.490 . S
C2844 H2834 0.930 . S
C2844 C2843 1.400 . S
C2844 C2847 1.386 . S
H2845 C2861 0.930 . S
H2846 C2862 0.931 . S
C2847 H2835 0.929 . S
C2847 C2841 1.390 . S
C2847 C2844 1.386 . S
C2848 C2843 1.490 . S
C2848 C2850 1.395 . S
C2848 C2851 1.403 . S
H2849 C2855 0.930 . S
C2850 H2836 0.930 . S
C2850 C2848 1.395 . S
C2850 C2853 1.403 . S
C2851 C2848 1.403 . S
C2851 C2852 1.524 . S
C2851 C2855 1.400 . S
C2852 H2837 0.960 . S
C2852 H2838 0.960 . S
C2852 H2839 0.960 . S
C2852 C2851 1.524 . S
C2853 C2850 1.403 . S
C2853 C2854 1.392 . S
C2853 C2857 1.495 . S
C2854 C2853 1.392 . S
C2854 C2855 1.385 . S
C2854 C2856 1.478 . S
C2855 H2849 0.930 . S
C2855 C2851 1.400 . S
C2855 C2854 1.385 . S
C2856 C2854 1.478 . S
C2856 C2858 1.381 . S
C2856 C2862 1.383 . S
C2857 C2853 1.495 . S
C2857 H2863 0.959 . S
C2857 H2864 0.961 . S
C2857 H2865 0.960 . S
C2858 C2856 1.381 . S
C2858 C2859 1.394 . S
C2858 H2866 0.930 . S
C2859 C2858 1.394 . S
C2859 C2860 1.383 . S
C2859 H2867 0.929 . S
C2860 C2859 1.383 . S
C2860 C2861 1.377 . S
C2861 H2845 0.930 . S
C2861 C2860 1.377 . S
C2861 C2862 1.379 . S
C2862 H2846 0.931 . S
C2862 C2856 1.383 . S
C2862 C2861 1.379 . S
H2863 C2857 0.959 . S
H2864 C2857 0.961 . S
H2865 C2857 0.960 . S
H2866 C2858 0.930 . S
H2867 C2859 0.929 . S
H2868 C2876 0.929 . S
H2869 C2878 0.930 . S
H2870 C2880 0.930 . S
H2871 C2883 0.929 . S
H2872 C2886 0.930 . S
H2873 C2888 0.960 . S
H2874 C2888 0.960 . S
H2875 C2888 0.960 . S
C2876 H2868 0.929 . S
C2876 C2877 1.377 . S
C2876 C2878 1.384 . S
C2877 C2876 1.377 . S
C2877 C2883 1.390 . S
C2878 H2869 0.930 . S
C2878 C2876 1.384 . S
C2878 C2879 1.372 . S
C2879 C2878 1.372 . S
C2879 C2880 1.400 . S
C2879 C2884 1.490 . S
C2880 H2870 0.930 . S
C2880 C2879 1.400 . S
C2880 C2883 1.386 . S
H2881 C2897 0.930 . S
H2882 C2898 0.931 . S
C2883 H2871 0.929 . S
C2883 C2877 1.390 . S
C2883 C2880 1.386 . S
C2884 C2879 1.490 . S
C2884 C2886 1.395 . S
C2884 C2887 1.403 . S
H2885 C2891 0.930 . S
C2886 H2872 0.930 . S
C2886 C2884 1.395 . S
C2886 C2889 1.403 . S
C2887 C2884 1.403 . S
C2887 C2888 1.524 . S
C2887 C2891 1.400 . S
C2888 H2873 0.960 . S
C2888 H2874 0.960 . S
C2888 H2875 0.960 . S
C2888 C2887 1.524 . S
C2889 C2886 1.403 . S
C2889 C2890 1.392 . S
C2889 C2893 1.495 . S
C2890 C2889 1.392 . S
C2890 C2891 1.385 . S
C2890 C2892 1.478 . S
C2891 H2885 0.930 . S
C2891 C2887 1.400 . S
C2891 C2890 1.385 . S
C2892 C2890 1.478 . S
C2892 C2894 1.381 . S
C2892 C2898 1.383 . S
C2893 C2889 1.495 . S
C2893 H2899 0.959 . S
C2893 H2900 0.961 . S
C2893 H2901 0.960 . S
C2894 C2892 1.381 . S
C2894 C2895 1.394 . S
C2894 H2902 0.930 . S
C2895 C2894 1.394 . S
C2895 C2896 1.383 . S
C2895 H2903 0.929 . S
C2896 C2895 1.383 . S
C2896 C2897 1.377 . S
C2897 H2881 0.930 . S
C2897 C2896 1.377 . S
C2897 C2898 1.379 . S
C2898 H2882 0.931 . S
C2898 C2892 1.383 . S
C2898 C2897 1.379 . S
H2899 C2893 0.959 . S
H2900 C2893 0.961 . S
H2901 C2893 0.960 . S
H2902 C2894 0.930 . S
H2903 C2895 0.929 . S
H2904 C2912 0.929 . S
H2905 C2914 0.930 . S
H2906 C2916 0.930 . S
H2907 C2919 0.929 . S
H2908 C2922 0.930 . S
H2909 C2924 0.960 . S
H2910 C2924 0.960 . S
H2911 C2924 0.960 . S
C2912 H2904 0.929 . S
C2912 C2913 1.377 . S
C2912 C2914 1.384 . S
C2913 C2912 1.377 . S
C2913 C2919 1.390 . S
C2914 H2905 0.930 . S
C2914 C2912 1.384 . S
C2914 C2915 1.372 . S
C2915 C2914 1.372 . S
C2915 C2916 1.400 . S
C2915 C2920 1.490 . S
C2916 H2906 0.930 . S
C2916 C2915 1.400 . S
C2916 C2919 1.386 . S
H2917 C2933 0.930 . S
H2918 C2934 0.931 . S
C2919 H2907 0.929 . S
C2919 C2913 1.390 . S
C2919 C2916 1.386 . S
C2920 C2915 1.490 . S
C2920 C2922 1.395 . S
C2920 C2923 1.403 . S
H2921 C2927 0.930 . S
C2922 H2908 0.930 . S
C2922 C2920 1.395 . S
C2922 C2925 1.403 . S
C2923 C2920 1.403 . S
C2923 C2924 1.524 . S
C2923 C2927 1.400 . S
C2924 H2909 0.960 . S
C2924 H2910 0.960 . S
C2924 H2911 0.960 . S
C2924 C2923 1.524 . S
C2925 C2922 1.403 . S
C2925 C2926 1.392 . S
C2925 C2929 1.495 . S
C2926 C2925 1.392 . S
C2926 C2927 1.385 . S
C2926 C2928 1.478 . S
C2927 H2921 0.930 . S
C2927 C2923 1.400 . S
C2927 C2926 1.385 . S
C2928 C2926 1.478 . S
C2928 C2930 1.381 . S
C2928 C2934 1.383 . S
C2929 C2925 1.495 . S
C2929 H2935 0.959 . S
C2929 H2936 0.961 . S
C2929 H2937 0.960 . S
C2930 C2928 1.381 . S
C2930 C2931 1.394 . S
C2930 H2938 0.930 . S
C2931 C2930 1.394 . S
C2931 C2932 1.383 . S
C2931 H2939 0.929 . S
C2932 C2931 1.383 . S
C2932 C2933 1.377 . S
C2933 H2917 0.930 . S
C2933 C2932 1.377 . S
C2933 C2934 1.379 . S
C2934 H2918 0.931 . S
C2934 C2928 1.383 . S
C2934 C2933 1.379 . S
H2935 C2929 0.959 . S
H2936 C2929 0.961 . S
H2937 C2929 0.960 . S
H2938 C2930 0.930 . S
H2939 C2931 0.929 . S
H2940 C2948 0.929 . S
H2941 C2950 0.930 . S
H2942 C2952 0.930 . S
H2943 C2955 0.929 . S
H2944 C2958 0.930 . S
H2945 C2960 0.960 . S
H2946 C2960 0.960 . S
H2947 C2960 0.960 . S
C2948 H2940 0.929 . S
C2948 C2949 1.377 . S
C2948 C2950 1.384 . S
C2949 C2948 1.377 . S
C2949 C2955 1.390 . S
C2950 H2941 0.930 . S
C2950 C2948 1.384 . S
C2950 C2951 1.372 . S
C2951 C2950 1.372 . S
C2951 C2952 1.400 . S
C2951 C2956 1.490 . S
C2952 H2942 0.930 . S
C2952 C2951 1.400 . S
C2952 C2955 1.386 . S
H2953 C2969 0.930 . S
H2954 C2970 0.931 . S
C2955 H2943 0.929 . S
C2955 C2949 1.390 . S
C2955 C2952 1.386 . S
C2956 C2951 1.490 . S
C2956 C2958 1.395 . S
C2956 C2959 1.403 . S
H2957 C2963 0.930 . S
C2958 H2944 0.930 . S
C2958 C2956 1.395 . S
C2958 C2961 1.403 . S
C2959 C2956 1.403 . S
C2959 C2960 1.524 . S
C2959 C2963 1.400 . S
C2960 H2945 0.960 . S
C2960 H2946 0.960 . S
C2960 H2947 0.960 . S
C2960 C2959 1.524 . S
C2961 C2958 1.403 . S
C2961 C2962 1.392 . S
C2961 C2965 1.495 . S
C2962 C2961 1.392 . S
C2962 C2963 1.385 . S
C2962 C2964 1.478 . S
C2963 H2957 0.930 . S
C2963 C2959 1.400 . S
C2963 C2962 1.385 . S
C2964 C2962 1.478 . S
C2964 C2966 1.381 . S
C2964 C2970 1.383 . S
C2965 C2961 1.495 . S
C2965 H2971 0.959 . S
C2965 H2972 0.961 . S
C2965 H2973 0.960 . S
C2966 C2964 1.381 . S
C2966 C2967 1.394 . S
C2966 H2974 0.930 . S
C2967 C2966 1.394 . S
C2967 C2968 1.383 . S
C2967 H2975 0.929 . S
C2968 C2967 1.383 . S
C2968 C2969 1.377 . S
C2969 H2953 0.930 . S
C2969 C2968 1.377 . S
C2969 C2970 1.379 . S
C2970 H2954 0.931 . S
C2970 C2964 1.383 . S
C2970 C2969 1.379 . S
H2971 C2965 0.959 . S
H2972 C2965 0.961 . S
H2973 C2965 0.960 . S
H2974 C2966 0.930 . S
H2975 C2967 0.929 . S
H2976 C2984 0.929 . S
H2977 C2986 0.930 . S
H2978 C2988 0.930 . S
H2979 C2991 0.929 . S
H2980 C2994 0.930 . S
H2981 C2996 0.960 . S
H2982 C2996 0.960 . S
H2983 C2996 0.960 . S
C2984 H2976 0.929 . S
C2984 C2985 1.377 . S
C2984 C2986 1.384 . S
C2985 C2984 1.377 . S
C2985 C2991 1.390 . S
C2986 H2977 0.930 . S
C2986 C2984 1.384 . S
C2986 C2987 1.372 . S
C2987 C2986 1.372 . S
C2987 C2988 1.400 . S
C2987 C2992 1.490 . S
C2988 H2978 0.930 . S
C2988 C2987 1.400 . S
C2988 C2991 1.386 . S
H2989 C3005 0.930 . S
H2990 C3006 0.931 . S
C2991 H2979 0.929 . S
C2991 C2985 1.390 . S
C2991 C2988 1.386 . S
C2992 C2987 1.490 . S
C2992 C2994 1.395 . S
C2992 C2995 1.403 . S
H2993 C2999 0.930 . S
C2994 H2980 0.930 . S
C2994 C2992 1.395 . S
C2994 C2997 1.403 . S
C2995 C2992 1.403 . S
C2995 C2996 1.524 . S
C2995 C2999 1.400 . S
C2996 H2981 0.960 . S
C2996 H2982 0.960 . S
C2996 H2983 0.960 . S
C2996 C2995 1.524 . S
C2997 C2994 1.403 . S
C2997 C2998 1.392 . S
C2997 C3001 1.495 . S
C2998 C2997 1.392 . S
C2998 C2999 1.385 . S
C2998 C3000 1.478 . S
C2999 H2993 0.930 . S
C2999 C2995 1.400 . S
C2999 C2998 1.385 . S
C3000 C2998 1.478 . S
C3000 C3002 1.381 . S
C3000 C3006 1.383 . S
C3001 C2997 1.495 . S
C3001 H3007 0.959 . S
C3001 H3008 0.961 . S
C3001 H3009 0.960 . S
C3002 C3000 1.381 . S
C3002 C3003 1.394 . S
C3002 H3010 0.930 . S
C3003 C3002 1.394 . S
C3003 C3004 1.383 . S
C3003 H3011 0.929 . S
C3004 C3003 1.383 . S
C3004 C3005 1.377 . S
C3005 H2989 0.930 . S
C3005 C3004 1.377 . S
C3005 C3006 1.379 . S
C3006 H2990 0.931 . S
C3006 C3000 1.383 . S
C3006 C3005 1.379 . S
H3007 C3001 0.959 . S
H3008 C3001 0.961 . S
H3009 C3001 0.960 . S
H3010 C3002 0.930 . S
H3011 C3003 0.929 . S
H3012 C3020 0.929 . S
H3013 C3022 0.930 . S
H3014 C3024 0.930 . S
H3015 C3027 0.929 . S
H3016 C3030 0.930 . S
H3017 C3032 0.960 . S
H3018 C3032 0.960 . S
H3019 C3032 0.960 . S
C3020 H3012 0.929 . S
C3020 C3021 1.377 . S
C3020 C3022 1.384 . S
C3021 C3020 1.377 . S
C3021 C3027 1.390 . S
C3022 H3013 0.930 . S
C3022 C3020 1.384 . S
C3022 C3023 1.372 . S
C3023 C3022 1.372 . S
C3023 C3024 1.400 . S
C3023 C3028 1.490 . S
C3024 H3014 0.930 . S
C3024 C3023 1.400 . S
C3024 C3027 1.386 . S
H3025 C3041 0.930 . S
H3026 C3042 0.931 . S
C3027 H3015 0.929 . S
C3027 C3021 1.390 . S
C3027 C3024 1.386 . S
C3028 C3023 1.490 . S
C3028 C3030 1.395 . S
C3028 C3031 1.403 . S
H3029 C3035 0.930 . S
C3030 H3016 0.930 . S
C3030 C3028 1.395 . S
C3030 C3033 1.403 . S
C3031 C3028 1.403 . S
C3031 C3032 1.524 . S
C3031 C3035 1.400 . S
C3032 H3017 0.960 . S
C3032 H3018 0.960 . S
C3032 H3019 0.960 . S
C3032 C3031 1.524 . S
C3033 C3030 1.403 . S
C3033 C3034 1.392 . S
C3033 C3037 1.495 . S
C3034 C3033 1.392 . S
C3034 C3035 1.385 . S
C3034 C3036 1.478 . S
C3035 H3029 0.930 . S
C3035 C3031 1.400 . S
C3035 C3034 1.385 . S
C3036 C3034 1.478 . S
C3036 C3038 1.381 . S
C3036 C3042 1.383 . S
C3037 C3033 1.495 . S
C3037 H3043 0.959 . S
C3037 H3044 0.961 . S
C3037 H3045 0.960 . S
C3038 C3036 1.381 . S
C3038 C3039 1.394 . S
C3038 H3046 0.930 . S
C3039 C3038 1.394 . S
C3039 C3040 1.383 . S
C3039 H3047 0.929 1_565 S
C3040 C3039 1.383 . S
C3040 C3041 1.377 . S
C3041 H3025 0.930 . S
C3041 C3040 1.377 . S
C3041 C3042 1.379 . S
C3042 H3026 0.931 . S
C3042 C3036 1.383 . S
C3042 C3041 1.379 . S
H3043 C3037 0.959 . S
H3044 C3037 0.961 . S
H3045 C3037 0.960 . S
H3046 C3038 0.930 . S
H3047 C3039 0.929 1_545 S
H3048 C3056 0.929 . S
H3049 C3058 0.930 . S
H3050 C3060 0.930 . S
H3051 C3063 0.929 . S
H3052 C3066 0.930 . S
H3053 C3068 0.960 . S
H3054 C3068 0.960 . S
H3055 C3068 0.960 . S
C3056 H3048 0.929 . S
C3056 C3057 1.377 . S
C3056 C3058 1.384 . S
C3057 C3056 1.377 . S
C3057 C3063 1.390 . S
C3058 H3049 0.930 . S
C3058 C3056 1.384 . S
C3058 C3059 1.372 . S
C3059 C3058 1.372 . S
C3059 C3060 1.400 . S
C3059 C3064 1.490 . S
C3060 H3050 0.930 . S
C3060 C3059 1.400 . S
C3060 C3063 1.386 . S
H3061 C3077 0.930 . S
H3062 C3078 0.931 . S
C3063 H3051 0.929 . S
C3063 C3057 1.390 . S
C3063 C3060 1.386 . S
C3064 C3059 1.490 . S
C3064 C3066 1.395 . S
C3064 C3067 1.403 . S
H3065 C3071 0.930 . S
C3066 H3052 0.930 . S
C3066 C3064 1.395 . S
C3066 C3069 1.403 . S
C3067 C3064 1.403 . S
C3067 C3068 1.524 . S
C3067 C3071 1.400 . S
C3068 H3053 0.960 . S
C3068 H3054 0.960 . S
C3068 H3055 0.960 . S
C3068 C3067 1.524 . S
C3069 C3066 1.403 . S
C3069 C3070 1.392 . S
C3069 C3073 1.495 . S
C3070 C3069 1.392 . S
C3070 C3071 1.385 . S
C3070 C3072 1.478 . S
C3071 H3065 0.930 . S
C3071 C3067 1.400 . S
C3071 C3070 1.385 . S
C3072 C3070 1.478 . S
C3072 C3074 1.381 . S
C3072 C3078 1.383 . S
C3073 C3069 1.495 . S
C3073 H3079 0.959 . S
C3073 H3080 0.961 . S
C3073 H3081 0.960 . S
C3074 C3072 1.381 . S
C3074 C3075 1.394 . S
C3074 H3082 0.930 . S
C3075 C3074 1.394 . S
C3075 C3076 1.383 . S
C3075 H3083 0.929 . S
C3076 C3075 1.383 . S
C3076 C3077 1.377 . S
C3077 H3061 0.930 . S
C3077 C3076 1.377 . S
C3077 C3078 1.379 . S
C3078 H3062 0.931 . S
C3078 C3072 1.383 . S
C3078 C3077 1.379 . S
H3079 C3073 0.959 . S
H3080 C3073 0.961 . S
H3081 C3073 0.960 . S
H3082 C3074 0.930 . S
H3083 C3075 0.929 . S
H3084 C3092 0.929 . S
H3085 C3094 0.930 . S
H3086 C3096 0.930 . S
H3087 C3099 0.929 . S
H3088 C3102 0.930 . S
H3089 C3104 0.960 . S
H3090 C3104 0.960 . S
H3091 C3104 0.960 . S
C3092 H3084 0.929 . S
C3092 C3093 1.377 1_556 S
C3092 C3094 1.384 . S
C3093 C3092 1.377 1_554 S
C3093 C3099 1.390 . S
C3094 H3085 0.930 . S
C3094 C3092 1.384 . S
C3094 C3095 1.372 1_556 S
C3095 C3094 1.372 1_554 S
C3095 C3096 1.400 . S
C3095 C3100 1.490 . S
C3096 H3086 0.930 . S
C3096 C3095 1.400 . S
C3096 C3099 1.386 . S
H3097 C3113 0.930 . S
H3098 C3114 0.931 . S
C3099 H3087 0.929 . S
C3099 C3093 1.390 . S
C3099 C3096 1.386 . S
C3100 C3095 1.490 . S
C3100 C3102 1.395 1_554 S
C3100 C3103 1.403 . S
H3101 C3107 0.930 . S
C3102 H3088 0.930 . S
C3102 C3100 1.395 1_556 S
C3102 C3105 1.403 . S
C3103 C3100 1.403 . S
C3103 C3104 1.524 . S
C3103 C3107 1.400 . S
C3104 H3089 0.960 . S
C3104 H3090 0.960 . S
C3104 H3091 0.960 . S
C3104 C3103 1.524 . S
C3105 C3102 1.403 . S
C3105 C3106 1.392 1_556 S
C3105 C3109 1.495 . S
C3106 C3105 1.392 1_554 S
C3106 C3107 1.385 . S
C3106 C3108 1.478 . S
C3107 H3101 0.930 . S
C3107 C3103 1.400 . S
C3107 C3106 1.385 . S
C3108 C3106 1.478 . S
C3108 C3110 1.381 1_554 S
C3108 C3114 1.383 . S
C3109 C3105 1.495 . S
C3109 H3115 0.959 . S
C3109 H3116 0.961 . S
C3109 H3117 0.960 . S
C3110 C3108 1.381 1_556 S
C3110 C3111 1.394 . S
C3110 H3118 0.930 . S
C3111 C3110 1.394 . S
C3111 C3112 1.383 1_556 S
C3111 H3119 0.929 . S
C3112 C3111 1.383 1_554 S
C3112 C3113 1.377 . S
C3113 H3097 0.930 . S
C3113 C3112 1.377 . S
C3113 C3114 1.379 . S
C3114 H3098 0.931 . S
C3114 C3108 1.383 . S
C3114 C3113 1.379 . S
H3115 C3109 0.959 . S
H3116 C3109 0.961 . S
H3117 C3109 0.960 . S
H3118 C3110 0.930 . S
H3119 C3111 0.929 . S
H3120 C3128 0.929 . S
H3121 C3130 0.930 . S
H3122 C3132 0.930 . S
H3123 C3135 0.929 . S
H3124 C3138 0.930 . S
H3125 C3140 0.960 . S
H3126 C3140 0.960 . S
H3127 C3140 0.960 . S
C3128 H3120 0.929 . S
C3128 C3129 1.377 . S
C3128 C3130 1.384 . S
C3129 C3128 1.377 . S
C3129 C3135 1.390 . S
C3130 H3121 0.930 . S
C3130 C3128 1.384 . S
C3130 C3131 1.372 . S
C3131 C3130 1.372 . S
C3131 C3132 1.400 . S
C3131 C3136 1.490 . S
C3132 H3122 0.930 . S
C3132 C3131 1.400 . S
C3132 C3135 1.386 . S
H3133 C3149 0.930 . S
H3134 C3150 0.931 . S
C3135 H3123 0.929 . S
C3135 C3129 1.390 . S
C3135 C3132 1.386 . S
C3136 C3131 1.490 . S
C3136 C3138 1.395 . S
C3136 C3139 1.403 . S
H3137 C3143 0.930 . S
C3138 H3124 0.930 . S
C3138 C3136 1.395 . S
C3138 C3141 1.403 . S
C3139 C3136 1.403 . S
C3139 C3140 1.524 . S
C3139 C3143 1.400 . S
C3140 H3125 0.960 . S
C3140 H3126 0.960 . S
C3140 H3127 0.960 . S
C3140 C3139 1.524 . S
C3141 C3138 1.403 . S
C3141 C3142 1.392 . S
C3141 C3145 1.495 . S
C3142 C3141 1.392 . S
C3142 C3143 1.385 . S
C3142 C3144 1.478 . S
C3143 H3137 0.930 . S
C3143 C3139 1.400 . S
C3143 C3142 1.385 . S
C3144 C3142 1.478 . S
C3144 C3146 1.381 . S
C3144 C3150 1.383 . S
C3145 C3141 1.495 . S
C3145 H3151 0.959 . S
C3145 H3152 0.961 . S
C3145 H3153 0.960 . S
C3146 C3144 1.381 . S
C3146 C3147 1.394 . S
C3146 H3154 0.930 . S
C3147 C3146 1.394 . S
C3147 C3148 1.383 . S
C3147 H3155 0.929 . S
C3148 C3147 1.383 . S
C3148 C3149 1.377 . S
C3149 H3133 0.930 . S
C3149 C3148 1.377 . S
C3149 C3150 1.379 . S
C3150 H3134 0.931 . S
C3150 C3144 1.383 . S
C3150 C3149 1.379 . S
H3151 C3145 0.959 . S
H3152 C3145 0.961 . S
H3153 C3145 0.960 . S
H3154 C3146 0.930 . S
H3155 C3147 0.929 . S
H3156 C3164 0.929 . S
H3157 C3166 0.930 . S
H3158 C3168 0.930 . S
H3159 C3171 0.929 . S
H3160 C3174 0.930 . S
H3161 C3176 0.960 . S
H3162 C3176 0.960 . S
H3163 C3176 0.960 . S
C3164 H3156 0.929 . S
C3164 C3165 1.377 . S
C3164 C3166 1.384 . S
C3165 C3164 1.377 . S
C3165 C3171 1.390 1_554 S
C3166 H3157 0.930 . S
C3166 C3164 1.384 . S
C3166 C3167 1.372 . S
C3167 C3166 1.372 . S
C3167 C3168 1.400 1_554 S
C3167 C3172 1.490 . S
C3168 H3158 0.930 . S
C3168 C3167 1.400 1_556 S
C3168 C3171 1.386 . S
H3169 C3185 0.930 . S
H3170 C3186 0.931 . S
C3171 H3159 0.929 . S
C3171 C3165 1.390 1_556 S
C3171 C3168 1.386 . S
C3172 C3167 1.490 . S
C3172 C3174 1.395 1_554 S
C3172 C3175 1.403 . S
H3173 C3179 0.930 . S
C3174 H3160 0.930 . S
C3174 C3172 1.395 1_556 S
C3174 C3177 1.403 . S
C3175 C3172 1.403 . S
C3175 C3176 1.524 . S
C3175 C3179 1.400 . S
C3176 H3161 0.960 . S
C3176 H3162 0.960 . S
C3176 H3163 0.960 . S
C3176 C3175 1.524 . S
C3177 C3174 1.403 . S
C3177 C3178 1.392 . S
C3177 C3181 1.495 . S
C3178 C3177 1.392 . S
C3178 C3179 1.385 1_556 S
C3178 C3180 1.478 . S
C3179 H3173 0.930 . S
C3179 C3175 1.400 . S
C3179 C3178 1.385 1_554 S
C3180 C3178 1.478 . S
C3180 C3182 1.381 1_556 S
C3180 C3186 1.383 . S
C3181 C3177 1.495 . S
C3181 H3187 0.959 . S
C3181 H3188 0.961 . S
C3181 H3189 0.960 . S
C3182 C3180 1.381 1_554 S
C3182 C3183 1.394 . S
C3182 H3190 0.930 . S
C3183 C3182 1.394 . S
C3183 C3184 1.383 1_554 S
C3183 H3191 0.929 . S
C3184 C3183 1.383 1_556 S
C3184 C3185 1.377 . S
C3185 H3169 0.930 . S
C3185 C3184 1.377 . S
C3185 C3186 1.379 . S
C3186 H3170 0.931 . S
C3186 C3180 1.383 . S
C3186 C3185 1.379 . S
H3187 C3181 0.959 . S
H3188 C3181 0.961 . S
H3189 C3181 0.960 . S
H3190 C3182 0.930 . S
H3191 C3183 0.929 . S
H3192 C3200 0.929 . S
H3193 C3202 0.930 . S
H3194 C3204 0.930 . S
H3195 C3207 0.929 . S
H3196 C3210 0.930 . S
H3197 C3212 0.960 . S
H3198 C3212 0.960 . S
H3199 C3212 0.960 . S
C3200 H3192 0.929 . S
C3200 C3201 1.377 . S
C3200 C3202 1.384 . S
C3201 C3200 1.377 . S
C3201 C3207 1.390 . S
C3202 H3193 0.930 . S
C3202 C3200 1.384 . S
C3202 C3203 1.372 . S
C3203 C3202 1.372 . S
C3203 C3204 1.400 . S
C3203 C3208 1.490 . S
C3204 H3194 0.930 . S
C3204 C3203 1.400 . S
C3204 C3207 1.386 . S
H3205 C3221 0.930 . S
H3206 C3222 0.931 . S
C3207 H3195 0.929 . S
C3207 C3201 1.390 . S
C3207 C3204 1.386 . S
C3208 C3203 1.490 . S
C3208 C3210 1.395 . S
C3208 C3211 1.403 . S
H3209 C3215 0.930 . S
C3210 H3196 0.930 . S
C3210 C3208 1.395 . S
C3210 C3213 1.403 . S
C3211 C3208 1.403 . S
C3211 C3212 1.524 . S
C3211 C3215 1.400 . S
C3212 H3197 0.960 . S
C3212 H3198 0.960 . S
C3212 H3199 0.960 . S
C3212 C3211 1.524 . S
C3213 C3210 1.403 . S
C3213 C3214 1.392 . S
C3213 C3217 1.495 . S
C3214 C3213 1.392 . S
C3214 C3215 1.385 . S
C3214 C3216 1.478 . S
C3215 H3209 0.930 . S
C3215 C3211 1.400 . S
C3215 C3214 1.385 . S
C3216 C3214 1.478 . S
C3216 C3218 1.381 . S
C3216 C3222 1.383 . S
C3217 C3213 1.495 . S
C3217 H3223 0.959 . S
C3217 H3224 0.961 . S
C3217 H3225 0.960 . S
C3218 C3216 1.381 . S
C3218 C3219 1.394 . S
C3218 H3226 0.930 . S
C3219 C3218 1.394 . S
C3219 C3220 1.383 . S
C3219 H3227 0.929 . S
C3220 C3219 1.383 . S
C3220 C3221 1.377 . S
C3221 H3205 0.930 . S
C3221 C3220 1.377 . S
C3221 C3222 1.379 . S
C3222 H3206 0.931 . S
C3222 C3216 1.383 . S
C3222 C3221 1.379 . S
H3223 C3217 0.959 . S
H3224 C3217 0.961 . S
H3225 C3217 0.960 . S
H3226 C3218 0.930 . S
H3227 C3219 0.929 . S
H3228 C3236 0.929 . S
H3229 C3238 0.930 . S
H3230 C3240 0.930 . S
H3231 C3243 0.929 . S
H3232 C3246 0.930 . S
H3233 C3248 0.960 . S
H3234 C3248 0.960 . S
H3235 C3248 0.960 . S
C3236 H3228 0.929 . S
C3236 C3237 1.377 . S
C3236 C3238 1.384 . S
C3237 C3236 1.377 . S
C3237 C3243 1.390 . S
C3238 H3229 0.930 . S
C3238 C3236 1.384 . S
C3238 C3239 1.372 . S
C3239 C3238 1.372 . S
C3239 C3240 1.400 . S
C3239 C3244 1.490 . S
C3240 H3230 0.930 . S
C3240 C3239 1.400 . S
C3240 C3243 1.386 . S
H3241 C3257 0.930 . S
H3242 C3258 0.931 . S
C3243 H3231 0.929 . S
C3243 C3237 1.390 . S
C3243 C3240 1.386 . S
C3244 C3239 1.490 . S
C3244 C3246 1.395 . S
C3244 C3247 1.403 . S
H3245 C3251 0.930 . S
C3246 H3232 0.930 . S
C3246 C3244 1.395 . S
C3246 C3249 1.403 . S
C3247 C3244 1.403 . S
C3247 C3248 1.524 . S
C3247 C3251 1.400 . S
C3248 H3233 0.960 . S
C3248 H3234 0.960 . S
C3248 H3235 0.960 . S
C3248 C3247 1.524 . S
C3249 C3246 1.403 . S
C3249 C3250 1.392 . S
C3249 C3253 1.495 . S
C3250 C3249 1.392 . S
C3250 C3251 1.385 . S
C3250 C3252 1.478 . S
C3251 H3245 0.930 . S
C3251 C3247 1.400 . S
C3251 C3250 1.385 . S
C3252 C3250 1.478 . S
C3252 C3254 1.381 . S
C3252 C3258 1.383 . S
C3253 C3249 1.495 . S
C3253 H3259 0.959 . S
C3253 H3260 0.961 . S
C3253 H3261 0.960 . S
C3254 C3252 1.381 . S
C3254 C3255 1.394 . S
C3254 H3262 0.930 . S
C3255 C3254 1.394 . S
C3255 C3256 1.383 . S
C3255 H3263 0.929 . S
C3256 C3255 1.383 . S
C3256 C3257 1.377 . S
C3257 H3241 0.930 . S
C3257 C3256 1.377 . S
C3257 C3258 1.379 . S
C3258 H3242 0.931 . S
C3258 C3252 1.383 . S
C3258 C3257 1.379 . S
H3259 C3253 0.959 . S
H3260 C3253 0.961 . S
H3261 C3253 0.960 . S
H3262 C3254 0.930 . S
H3263 C3255 0.929 . S
H3264 C3272 0.929 . S
H3265 C3274 0.930 . S
H3266 C3276 0.930 . S
H3267 C3279 0.929 . S
H3268 C3282 0.930 . S
H3269 C3284 0.960 . S
H3270 C3284 0.960 . S
H3271 C3284 0.960 . S
C3272 H3264 0.929 . S
C3272 C3273 1.377 . S
C3272 C3274 1.384 . S
C3273 C3272 1.377 . S
C3273 C3279 1.390 . S
C3274 H3265 0.930 . S
C3274 C3272 1.384 . S
C3274 C3275 1.372 . S
C3275 C3274 1.372 . S
C3275 C3276 1.400 . S
C3275 C3280 1.490 . S
C3276 H3266 0.930 . S
C3276 C3275 1.400 . S
C3276 C3279 1.386 . S
H3277 C3293 0.930 . S
H3278 C3294 0.931 . S
C3279 H3267 0.929 . S
C3279 C3273 1.390 . S
C3279 C3276 1.386 . S
C3280 C3275 1.490 . S
C3280 C3282 1.395 . S
C3280 C3283 1.403 . S
H3281 C3287 0.930 . S
C3282 H3268 0.930 . S
C3282 C3280 1.395 . S
C3282 C3285 1.403 . S
C3283 C3280 1.403 . S
C3283 C3284 1.524 . S
C3283 C3287 1.400 . S
C3284 H3269 0.960 . S
C3284 H3270 0.960 . S
C3284 H3271 0.960 . S
C3284 C3283 1.524 . S
C3285 C3282 1.403 . S
C3285 C3286 1.392 . S
C3285 C3289 1.495 . S
C3286 C3285 1.392 . S
C3286 C3287 1.385 . S
C3286 C3288 1.478 . S
C3287 H3281 0.930 . S
C3287 C3283 1.400 . S
C3287 C3286 1.385 . S
C3288 C3286 1.478 . S
C3288 C3290 1.381 . S
C3288 C3294 1.383 . S
C3289 C3285 1.495 . S
C3289 H3295 0.959 . S
C3289 H3296 0.961 . S
C3289 H3297 0.960 . S
C3290 C3288 1.381 . S
C3290 C3291 1.394 . S
C3290 H3298 0.930 . S
C3291 C3290 1.394 . S
C3291 C3292 1.383 . S
C3291 H3299 0.929 . S
C3292 C3291 1.383 . S
C3292 C3293 1.377 . S
C3293 H3277 0.930 . S
C3293 C3292 1.377 . S
C3293 C3294 1.379 . S
C3294 H3278 0.931 . S
C3294 C3288 1.383 . S
C3294 C3293 1.379 . S
H3295 C3289 0.959 . S
H3296 C3289 0.961 . S
H3297 C3289 0.960 . S
H3298 C3290 0.930 . S
H3299 C3291 0.929 . S
H3300 C3308 0.929 . S
H3301 C3310 0.930 . S
H3302 C3312 0.930 . S
H3303 C3315 0.929 . S
H3304 C3318 0.930 . S
H3305 C3320 0.960 . S
H3306 C3320 0.960 . S
H3307 C3320 0.960 . S
C3308 H3300 0.929 . S
C3308 C3309 1.377 . S
C3308 C3310 1.384 . S
C3309 C3308 1.377 . S
C3309 C3315 1.390 . S
C3310 H3301 0.930 . S
C3310 C3308 1.384 . S
C3310 C3311 1.372 . S
C3311 C3310 1.372 . S
C3311 C3312 1.400 . S
C3311 C3316 1.490 . S
C3312 H3302 0.930 . S
C3312 C3311 1.400 . S
C3312 C3315 1.386 . S
H3313 C3329 0.930 . S
H3314 C3330 0.931 . S
C3315 H3303 0.929 . S
C3315 C3309 1.390 . S
C3315 C3312 1.386 . S
C3316 C3311 1.490 . S
C3316 C3318 1.395 . S
C3316 C3319 1.403 . S
H3317 C3323 0.930 . S
C3318 H3304 0.930 . S
C3318 C3316 1.395 . S
C3318 C3321 1.403 . S
C3319 C3316 1.403 . S
C3319 C3320 1.524 . S
C3319 C3323 1.400 . S
C3320 H3305 0.960 . S
C3320 H3306 0.960 . S
C3320 H3307 0.960 . S
C3320 C3319 1.524 . S
C3321 C3318 1.403 . S
C3321 C3322 1.392 . S
C3321 C3325 1.495 . S
C3322 C3321 1.392 . S
C3322 C3323 1.385 . S
C3322 C3324 1.478 . S
C3323 H3317 0.930 . S
C3323 C3319 1.400 . S
C3323 C3322 1.385 . S
C3324 C3322 1.478 . S
C3324 C3326 1.381 . S
C3324 C3330 1.383 . S
C3325 C3321 1.495 . S
C3325 H3331 0.959 . S
C3325 H3332 0.961 . S
C3325 H3333 0.960 . S
C3326 C3324 1.381 . S
C3326 C3327 1.394 . S
C3326 H3334 0.930 . S
C3327 C3326 1.394 . S
C3327 C3328 1.383 . S
C3327 H3335 0.929 . S
C3328 C3327 1.383 . S
C3328 C3329 1.377 . S
C3329 H3313 0.930 . S
C3329 C3328 1.377 . S
C3329 C3330 1.379 . S
C3330 H3314 0.931 . S
C3330 C3324 1.383 . S
C3330 C3329 1.379 . S
H3331 C3325 0.959 . S
H3332 C3325 0.961 . S
H3333 C3325 0.960 . S
H3334 C3326 0.930 . S
H3335 C3327 0.929 . S
H3336 C3344 0.929 . S
H3337 C3346 0.930 . S
H3338 C3348 0.930 . S
H3339 C3351 0.929 . S
H3340 C3354 0.930 . S
H3341 C3356 0.960 . S
H3342 C3356 0.960 . S
H3343 C3356 0.960 1_655 S
C3344 H3336 0.929 . S
C3344 C3345 1.377 . S
C3344 C3346 1.384 . S
C3345 C3344 1.377 . S
C3345 C3351 1.390 1_455 S
C3346 H3337 0.930 . S
C3346 C3344 1.384 . S
C3346 C3347 1.372 . S
C3347 C3346 1.372 . S
C3347 C3348 1.400 1_455 S
C3347 C3352 1.490 . S
C3348 H3338 0.930 . S
C3348 C3347 1.400 1_655 S
C3348 C3351 1.386 . S
H3349 C3365 0.930 . S
H3350 C3366 0.931 . S
C3351 H3339 0.929 . S
C3351 C3345 1.390 1_655 S
C3351 C3348 1.386 . S
C3352 C3347 1.490 . S
C3352 C3354 1.395 . S
C3352 C3355 1.403 . S
H3353 C3359 0.930 1_655 S
C3354 H3340 0.930 . S
C3354 C3352 1.395 . S
C3354 C3357 1.403 . S
C3355 C3352 1.403 . S
C3355 C3356 1.524 . S
C3355 C3359 1.400 . S
C3356 H3341 0.960 . S
C3356 H3342 0.960 . S
C3356 H3343 0.960 1_455 S
C3356 C3355 1.524 . S
C3357 C3354 1.403 . S
C3357 C3358 1.392 . S
C3357 C3361 1.495 . S
C3358 C3357 1.392 . S
C3358 C3359 1.385 . S
C3358 C3360 1.481 . S
C3359 H3353 0.930 1_455 S
C3359 C3355 1.400 . S
C3359 C3358 1.385 . S
C3360 C3358 1.481 . S
C3360 C3362 1.416 . S
C3360 C3366 1.346 1_455 S
C3361 C3357 1.495 . S
C3361 H3367 0.959 . S
C3361 H3368 0.961 1_455 S
C3361 H3369 0.960 . S
C3362 C3360 1.416 . S
C3362 C3363 1.394 . S
C3362 H3370 0.930 . S
C3363 C3362 1.394 . S
C3363 C3364 1.383 1_455 S
C3363 H3371 0.929 . S
C3364 C3363 1.383 1_655 S
C3364 C3365 1.377 . S
C3365 H3349 0.930 . S
C3365 C3364 1.377 . S
C3365 C3366 1.379 . S
C3366 H3350 0.931 . S
C3366 C3360 1.346 1_655 S
C3366 C3365 1.379 . S
H3367 C3361 0.959 . S
H3368 C3361 0.961 1_655 S
H3369 C3361 0.960 . S
H3370 C3362 0.930 . S
H3371 C3363 0.929 . S
H3372 C3380 0.929 . S
H3373 C3382 0.930 . S
H3374 C3384 0.930 . S
H3375 C3387 0.929 . S
H3376 C3390 0.930 . S
H3377 C3392 0.960 . S
H3378 C3392 0.960 . S
H3379 C3392 0.960 . S
C3380 H3372 0.929 . S
C3380 C3381 1.377 . S
C3380 C3382 1.384 . S
C3381 C3380 1.377 . S
C3381 C3387 1.390 . S
C3382 H3373 0.930 . S
C3382 C3380 1.384 . S
C3382 C3383 1.372 . S
C3383 C3382 1.372 . S
C3383 C3384 1.400 . S
C3383 C3388 1.490 . S
C3384 H3374 0.930 . S
C3384 C3383 1.400 . S
C3384 C3387 1.386 . S
H3385 C3401 0.930 . S
H3386 C3402 0.931 . S
C3387 H3375 0.929 . S
C3387 C3381 1.390 . S
C3387 C3384 1.386 . S
C3388 C3383 1.490 . S
C3388 C3390 1.395 . S
C3388 C3391 1.403 . S
H3389 C3395 0.930 . S
C3390 H3376 0.930 . S
C3390 C3388 1.395 . S
C3390 C3393 1.403 . S
C3391 C3388 1.403 . S
C3391 C3392 1.524 . S
C3391 C3395 1.400 . S
C3392 H3377 0.960 . S
C3392 H3378 0.960 . S
C3392 H3379 0.960 . S
C3392 C3391 1.524 . S
C3393 C3390 1.403 . S
C3393 C3394 1.392 . S
C3393 C3397 1.495 . S
C3394 C3393 1.392 . S
C3394 C3395 1.385 . S
C3394 C3396 1.478 . S
C3395 H3389 0.930 . S
C3395 C3391 1.400 . S
C3395 C3394 1.385 . S
C3396 C3394 1.478 . S
C3396 C3398 1.381 . S
C3396 C3402 1.383 . S
C3397 C3393 1.495 . S
C3397 H3403 0.959 . S
C3397 H3404 0.961 . S
C3397 H3405 0.960 . S
C3398 C3396 1.381 . S
C3398 C3399 1.394 . S
C3398 H3406 0.930 . S
C3399 C3398 1.394 . S
C3399 C3400 1.383 . S
C3399 H3407 0.929 . S
C3400 C3399 1.383 . S
C3400 C3401 1.377 . S
C3401 H3385 0.930 . S
C3401 C3400 1.377 . S
C3401 C3402 1.379 . S
C3402 H3386 0.931 . S
C3402 C3396 1.383 . S
C3402 C3401 1.379 . S
H3403 C3397 0.959 . S
H3404 C3397 0.961 . S
H3405 C3397 0.960 . S
H3406 C3398 0.930 . S
H3407 C3399 0.929 . S
H3408 C3416 0.929 . S
H3409 C3418 0.930 . S
H3410 C3420 0.930 . S
H3411 C3423 0.929 . S
H3412 C3426 0.930 . S
H3413 C3428 0.960 . S
H3414 C3428 0.960 . S
H3415 C3428 0.960 . S
C3416 H3408 0.929 . S
C3416 C3417 1.377 . S
C3416 C3418 1.384 . S
C3417 C3416 1.377 . S
C3417 C3423 1.390 . S
C3418 H3409 0.930 . S
C3418 C3416 1.384 . S
C3418 C3419 1.372 . S
C3419 C3418 1.372 . S
C3419 C3420 1.400 . S
C3419 C3424 1.490 . S
C3420 H3410 0.930 . S
C3420 C3419 1.400 . S
C3420 C3423 1.386 . S
H3421 C3437 0.930 . S
H3422 C3438 0.931 . S
C3423 H3411 0.929 . S
C3423 C3417 1.390 . S
C3423 C3420 1.386 . S
C3424 C3419 1.490 . S
C3424 C3426 1.395 . S
C3424 C3427 1.403 . S
H3425 C3431 0.930 . S
C3426 H3412 0.930 . S
C3426 C3424 1.395 . S
C3426 C3429 1.403 . S
C3427 C3424 1.403 . S
C3427 C3428 1.524 . S
C3427 C3431 1.400 . S
C3428 H3413 0.960 . S
C3428 H3414 0.960 . S
C3428 H3415 0.960 . S
C3428 C3427 1.524 . S
C3429 C3426 1.403 . S
C3429 C3430 1.392 . S
C3429 C3433 1.495 . S
C3430 C3429 1.392 . S
C3430 C3431 1.385 . S
C3430 C3432 1.478 . S
C3431 H3425 0.930 . S
C3431 C3427 1.400 . S
C3431 C3430 1.385 . S
C3432 C3430 1.478 . S
C3432 C3434 1.381 . S
C3432 C3438 1.383 . S
C3433 C3429 1.495 . S
C3433 H3439 0.959 . S
C3433 H3440 0.961 . S
C3433 H3441 0.960 . S
C3434 C3432 1.381 . S
C3434 C3435 1.394 . S
C3434 H3442 0.930 . S
C3435 C3434 1.394 . S
C3435 C3436 1.383 . S
C3435 H3443 0.929 . S
C3436 C3435 1.383 . S
C3436 C3437 1.377 . S
C3437 H3421 0.930 . S
C3437 C3436 1.377 . S
C3437 C3438 1.379 . S
C3438 H3422 0.931 . S
C3438 C3432 1.383 . S
C3438 C3437 1.379 . S
H3439 C3433 0.959 . S
H3440 C3433 0.961 . S
H3441 C3433 0.960 . S
H3442 C3434 0.930 . S
H3443 C3435 0.929 . S
H3444 C3452 0.929 . S
H3445 C3454 0.930 . S
H3446 C3456 0.930 . S
H3447 C3459 0.929 . S
H3448 C3462 0.930 . S
H3449 C3464 0.960 . S
H3450 C3464 0.960 . S
H3451 C3464 0.960 . S
C3452 H3444 0.929 . S
C3452 C3453 1.377 . S
C3452 C3454 1.384 . S
C3453 C3452 1.377 . S
C3453 C3459 1.390 . S
C3454 H3445 0.930 . S
C3454 C3452 1.384 . S
C3454 C3455 1.372 . S
C3455 C3454 1.372 . S
C3455 C3456 1.400 . S
C3455 C3460 1.490 . S
C3456 H3446 0.930 . S
C3456 C3455 1.400 . S
C3456 C3459 1.386 . S
H3457 C3473 0.930 . S
H3458 C3474 0.931 . S
C3459 H3447 0.929 . S
C3459 C3453 1.390 . S
C3459 C3456 1.386 . S
C3460 C3455 1.490 . S
C3460 C3462 1.395 . S
C3460 C3463 1.403 . S
H3461 C3467 0.930 . S
C3462 H3448 0.930 . S
C3462 C3460 1.395 . S
C3462 C3465 1.403 . S
C3463 C3460 1.403 . S
C3463 C3464 1.524 . S
C3463 C3467 1.400 . S
C3464 H3449 0.960 . S
C3464 H3450 0.960 . S
C3464 H3451 0.960 . S
C3464 C3463 1.524 . S
C3465 C3462 1.403 . S
C3465 C3466 1.392 . S
C3465 C3469 1.495 . S
C3466 C3465 1.392 . S
C3466 C3467 1.385 . S
C3466 C3468 1.478 . S
C3467 H3461 0.930 . S
C3467 C3463 1.400 . S
C3467 C3466 1.385 . S
C3468 C3466 1.478 . S
C3468 C3470 1.381 . S
C3468 C3474 1.383 . S
C3469 C3465 1.495 . S
C3469 H3475 0.959 . S
C3469 H3476 0.961 . S
C3469 H3477 0.960 . S
C3470 C3468 1.381 . S
C3470 C3471 1.394 . S
C3470 H3478 0.930 . S
C3471 C3470 1.394 . S
C3471 C3472 1.383 . S
C3471 H3479 0.929 . S
C3472 C3471 1.383 . S
C3472 C3473 1.377 . S
C3473 H3457 0.930 . S
C3473 C3472 1.377 . S
C3473 C3474 1.379 . S
C3474 H3458 0.931 . S
C3474 C3468 1.383 . S
C3474 C3473 1.379 . S
H3475 C3469 0.959 . S
H3476 C3469 0.961 . S
H3477 C3469 0.960 . S
H3478 C3470 0.930 . S
H3479 C3471 0.929 . S
H3480 C3488 0.927 1_655 S
H3481 C3490 0.931 1_655 S
H3482 C3492 0.930 . S
H3483 C3495 0.929 . S
H3484 C3498 0.930 . S
H3485 C3500 0.960 . S
H3486 C3500 0.960 . S
H3487 C3500 0.960 . S
C3488 H3480 0.927 1_455 S
C3488 C3489 1.377 . S
C3488 C3490 1.383 . S
C3489 C3488 1.377 . S
C3489 C3495 1.390 . S
C3490 H3481 0.931 1_455 S
C3490 C3488 1.383 . S
C3490 C3491 1.371 . S
C3491 C3490 1.371 . S
C3491 C3492 1.400 . S
C3491 C3496 1.499 . S
C3492 H3482 0.930 . S
C3492 C3491 1.400 . S
C3492 C3495 1.386 . S
H3493 C3509 0.930 . S
H3494 C3510 0.931 . S
C3495 H3483 0.929 . S
C3495 C3489 1.390 . S
C3495 C3492 1.386 . S
C3496 C3491 1.499 . S
C3496 C3498 1.339 1_455 S
C3496 C3499 1.451 . S
H3497 C3503 0.930 . S
C3498 H3484 0.930 . S
C3498 C3496 1.339 1_655 S
C3498 C3501 1.403 . S
C3499 C3496 1.451 . S
C3499 C3500 1.524 . S
C3499 C3503 1.400 . S
C3500 H3485 0.960 . S
C3500 H3486 0.960 . S
C3500 H3487 0.960 . S
C3500 C3499 1.524 . S
C3501 C3498 1.403 . S
C3501 C3502 1.392 . S
C3501 C3505 1.495 . S
C3502 C3501 1.392 . S
C3502 C3503 1.385 1_655 S
C3502 C3504 1.478 . S
C3503 H3497 0.930 . S
C3503 C3499 1.400 . S
C3503 C3502 1.385 1_455 S
C3504 C3502 1.478 . S
C3504 C3506 1.381 . S
C3504 C3510 1.383 . S
C3505 C3501 1.495 . S
C3505 H3511 0.959 . S
C3505 H3512 0.961 . S
C3505 H3513 0.960 . S
C3506 C3504 1.381 . S
C3506 C3507 1.394 . S
C3506 H3514 0.930 . S
C3507 C3506 1.394 . S
C3507 C3508 1.383 . S
C3507 H3515 0.929 . S
C3508 C3507 1.383 . S
C3508 C3509 1.377 . S
C3509 H3493 0.930 . S
C3509 C3508 1.377 . S
C3509 C3510 1.379 . S
C3510 H3494 0.931 . S
C3510 C3504 1.383 . S
C3510 C3509 1.379 . S
H3511 C3505 0.959 . S
H3512 C3505 0.961 . S
H3513 C3505 0.960 . S
H3514 C3506 0.930 . S
H3515 C3507 0.929 . S
H3516 C3524 0.929 . S
H3517 C3526 0.930 . S
H3518 C3528 0.930 . S
H3519 C3531 0.929 . S
H3520 C3534 0.930 . S
H3521 C3536 0.960 . S
H3522 C3536 0.960 . S
H3523 C3536 0.960 . S
C3524 H3516 0.929 . S
C3524 C3525 1.377 . S
C3524 C3526 1.384 . S
C3525 C3524 1.377 . S
C3525 C3531 1.390 . S
C3526 H3517 0.930 . S
C3526 C3524 1.384 . S
C3526 C3527 1.372 . S
C3527 C3526 1.372 . S
C3527 C3528 1.400 . S
C3527 C3532 1.490 . S
C3528 H3518 0.930 . S
C3528 C3527 1.400 . S
C3528 C3531 1.386 . S
H3529 C3545 0.930 . S
H3530 C3546 0.931 . S
C3531 H3519 0.929 . S
C3531 C3525 1.390 . S
C3531 C3528 1.386 . S
C3532 C3527 1.490 . S
C3532 C3534 1.395 . S
C3532 C3535 1.403 . S
H3533 C3539 0.930 . S
C3534 H3520 0.930 . S
C3534 C3532 1.395 . S
C3534 C3537 1.403 . S
C3535 C3532 1.403 . S
C3535 C3536 1.524 . S
C3535 C3539 1.400 . S
C3536 H3521 0.960 . S
C3536 H3522 0.960 . S
C3536 H3523 0.960 . S
C3536 C3535 1.524 . S
C3537 C3534 1.403 . S
C3537 C3538 1.392 . S
C3537 C3541 1.495 . S
C3538 C3537 1.392 . S
C3538 C3539 1.385 . S
C3538 C3540 1.478 . S
C3539 H3533 0.930 . S
C3539 C3535 1.400 . S
C3539 C3538 1.385 . S
C3540 C3538 1.478 . S
C3540 C3542 1.381 . S
C3540 C3546 1.383 . S
C3541 C3537 1.495 . S
C3541 H3547 0.959 . S
C3541 H3548 0.961 . S
C3541 H3549 0.960 . S
C3542 C3540 1.381 . S
C3542 C3543 1.394 . S
C3542 H3550 0.930 . S
C3543 C3542 1.394 . S
C3543 C3544 1.383 . S
C3543 H3551 0.929 . S
C3544 C3543 1.383 . S
C3544 C3545 1.377 . S
C3545 H3529 0.930 . S
C3545 C3544 1.377 . S
C3545 C3546 1.379 . S
C3546 H3530 0.931 . S
C3546 C3540 1.383 . S
C3546 C3545 1.379 . S
H3547 C3541 0.959 . S
H3548 C3541 0.961 . S
H3549 C3541 0.960 . S
H3550 C3542 0.930 . S
H3551 C3543 0.929 . S
H3552 C3560 0.929 . S
H3553 C3562 0.930 . S
H3554 C3564 0.930 . S
H3555 C3567 0.929 . S
H3556 C3570 0.930 . S
H3557 C3572 0.960 . S
H3558 C3572 0.960 . S
H3559 C3572 0.960 . S
C3560 H3552 0.929 . S
C3560 C3561 1.377 . S
C3560 C3562 1.384 . S
C3561 C3560 1.377 . S
C3561 C3567 1.390 . S
C3562 H3553 0.930 . S
C3562 C3560 1.384 . S
C3562 C3563 1.372 . S
C3563 C3562 1.372 . S
C3563 C3564 1.400 . S
C3563 C3568 1.490 . S
C3564 H3554 0.930 . S
C3564 C3563 1.400 . S
C3564 C3567 1.386 . S
H3565 C3581 0.930 . S
H3566 C3582 0.931 . S
C3567 H3555 0.929 . S
C3567 C3561 1.390 . S
C3567 C3564 1.386 . S
C3568 C3563 1.490 . S
C3568 C3570 1.395 . S
C3568 C3571 1.403 . S
H3569 C3575 0.930 . S
C3570 H3556 0.930 . S
C3570 C3568 1.395 . S
C3570 C3573 1.403 . S
C3571 C3568 1.403 . S
C3571 C3572 1.524 . S
C3571 C3575 1.400 . S
C3572 H3557 0.960 . S
C3572 H3558 0.960 . S
C3572 H3559 0.960 . S
C3572 C3571 1.524 . S
C3573 C3570 1.403 . S
C3573 C3574 1.392 . S
C3573 C3577 1.495 . S
C3574 C3573 1.392 . S
C3574 C3575 1.385 . S
C3574 C3576 1.478 . S
C3575 H3569 0.930 . S
C3575 C3571 1.400 . S
C3575 C3574 1.385 . S
C3576 C3574 1.478 . S
C3576 C3578 1.381 . S
C3576 C3582 1.383 . S
C3577 C3573 1.495 . S
C3577 H3583 0.959 . S
C3577 H3584 0.961 . S
C3577 H3585 0.960 . S
C3578 C3576 1.381 . S
C3578 C3579 1.394 . S
C3578 H3586 0.930 . S
C3579 C3578 1.394 . S
C3579 C3580 1.383 . S
C3579 H3587 0.929 . S
C3580 C3579 1.383 . S
C3580 C3581 1.377 . S
C3581 H3565 0.930 . S
C3581 C3580 1.377 . S
C3581 C3582 1.379 . S
C3582 H3566 0.931 . S
C3582 C3576 1.383 . S
C3582 C3581 1.379 . S
H3583 C3577 0.959 . S
H3584 C3577 0.961 . S
H3585 C3577 0.960 . S
H3586 C3578 0.930 . S
H3587 C3579 0.929 . S
H3588 C3596 0.929 . S
H3589 C3598 0.930 . S
H3590 C3600 0.930 . S
H3591 C3603 0.929 . S
H3592 C3606 0.930 . S
H3593 C3608 0.960 . S
H3594 C3608 0.960 . S
H3595 C3608 0.960 . S
C3596 H3588 0.929 . S
C3596 C3597 1.377 . S
C3596 C3598 1.384 . S
C3597 C3596 1.377 . S
C3597 C3603 1.390 . S
C3598 H3589 0.930 . S
C3598 C3596 1.384 . S
C3598 C3599 1.372 . S
C3599 C3598 1.372 . S
C3599 C3600 1.400 . S
C3599 C3604 1.490 . S
C3600 H3590 0.930 . S
C3600 C3599 1.400 . S
C3600 C3603 1.386 . S
H3601 C3617 0.930 . S
H3602 C3618 0.931 . S
C3603 H3591 0.929 . S
C3603 C3597 1.390 . S
C3603 C3600 1.386 . S
C3604 C3599 1.490 . S
C3604 C3606 1.395 . S
C3604 C3607 1.403 . S
H3605 C3611 0.930 . S
C3606 H3592 0.930 . S
C3606 C3604 1.395 . S
C3606 C3609 1.403 . S
C3607 C3604 1.403 . S
C3607 C3608 1.524 . S
C3607 C3611 1.400 . S
C3608 H3593 0.960 . S
C3608 H3594 0.960 . S
C3608 H3595 0.960 . S
C3608 C3607 1.524 . S
C3609 C3606 1.403 . S
C3609 C3610 1.392 . S
C3609 C3613 1.495 . S
C3610 C3609 1.392 . S
C3610 C3611 1.385 . S
C3610 C3612 1.478 . S
C3611 H3605 0.930 . S
C3611 C3607 1.400 . S
C3611 C3610 1.385 . S
C3612 C3610 1.478 . S
C3612 C3614 1.381 . S
C3612 C3618 1.383 . S
C3613 C3609 1.495 . S
C3613 H3619 0.959 . S
C3613 H3620 0.961 . S
C3613 H3621 0.960 . S
C3614 C3612 1.381 . S
C3614 C3615 1.394 . S
C3614 H3622 0.930 . S
C3615 C3614 1.394 . S
C3615 C3616 1.383 . S
C3615 H3623 0.929 . S
C3616 C3615 1.383 . S
C3616 C3617 1.377 . S
C3617 H3601 0.930 . S
C3617 C3616 1.377 . S
C3617 C3618 1.379 . S
C3618 H3602 0.931 . S
C3618 C3612 1.383 . S
C3618 C3617 1.379 . S
H3619 C3613 0.959 . S
H3620 C3613 0.961 . S
H3621 C3613 0.960 . S
H3622 C3614 0.930 . S
H3623 C3615 0.929 . S
H3624 C3632 0.929 . S
H3625 C3634 0.930 . S
H3626 C3636 0.930 . S
H3627 C3639 0.929 . S
H3628 C3642 0.930 . S
H3629 C3644 0.960 . S
H3630 C3644 0.960 . S
H3631 C3644 0.960 . S
C3632 H3624 0.929 . S
C3632 C3633 1.377 . S
C3632 C3634 1.384 . S
C3633 C3632 1.377 . S
C3633 C3639 1.390 . S
C3634 H3625 0.930 . S
C3634 C3632 1.384 . S
C3634 C3635 1.372 . S
C3635 C3634 1.372 . S
C3635 C3636 1.400 . S
C3635 C3640 1.490 . S
C3636 H3626 0.930 . S
C3636 C3635 1.400 . S
C3636 C3639 1.386 . S
H3637 C3653 0.930 . S
H3638 C3654 0.931 . S
C3639 H3627 0.929 . S
C3639 C3633 1.390 . S
C3639 C3636 1.386 . S
C3640 C3635 1.490 . S
C3640 C3642 1.395 . S
C3640 C3643 1.403 . S
H3641 C3647 0.930 . S
C3642 H3628 0.930 . S
C3642 C3640 1.395 . S
C3642 C3645 1.403 . S
C3643 C3640 1.403 . S
C3643 C3644 1.524 . S
C3643 C3647 1.400 . S
C3644 H3629 0.960 . S
C3644 H3630 0.960 . S
C3644 H3631 0.960 . S
C3644 C3643 1.524 . S
C3645 C3642 1.403 . S
C3645 C3646 1.392 . S
C3645 C3649 1.495 . S
C3646 C3645 1.392 . S
C3646 C3647 1.385 . S
C3646 C3648 1.478 . S
C3647 H3641 0.930 . S
C3647 C3643 1.400 . S
C3647 C3646 1.385 . S
C3648 C3646 1.478 . S
C3648 C3650 1.381 . S
C3648 C3654 1.383 . S
C3649 C3645 1.495 . S
C3649 H3655 0.959 . S
C3649 H3656 0.961 . S
C3649 H3657 0.960 . S
C3650 C3648 1.381 . S
C3650 C3651 1.394 . S
C3650 H3658 0.930 . S
C3651 C3650 1.394 . S
C3651 C3652 1.383 . S
C3651 H3659 0.929 . S
C3652 C3651 1.383 . S
C3652 C3653 1.377 . S
C3653 H3637 0.930 . S
C3653 C3652 1.377 . S
C3653 C3654 1.379 . S
C3654 H3638 0.931 . S
C3654 C3648 1.383 . S
C3654 C3653 1.379 . S
H3655 C3649 0.959 . S
H3656 C3649 0.961 . S
H3657 C3649 0.960 . S
H3658 C3650 0.930 . S
H3659 C3651 0.929 . S
H3660 C3668 0.929 . S
H3661 C3670 0.930 . S
H3662 C3672 0.930 . S
H3663 C3675 0.929 . S
H3664 C3678 0.930 . S
H3665 C3680 0.960 . S
H3666 C3680 0.960 . S
H3667 C3680 0.960 . S
C3668 H3660 0.929 . S
C3668 C3669 1.377 . S
C3668 C3670 1.384 . S
C3669 C3668 1.377 . S
C3669 C3675 1.390 . S
C3670 H3661 0.930 . S
C3670 C3668 1.384 . S
C3670 C3671 1.372 . S
C3671 C3670 1.372 . S
C3671 C3672 1.400 . S
C3671 C3676 1.490 . S
C3672 H3662 0.930 . S
C3672 C3671 1.400 . S
C3672 C3675 1.386 . S
H3673 C3689 0.930 . S
H3674 C3690 0.931 . S
C3675 H3663 0.929 . S
C3675 C3669 1.390 . S
C3675 C3672 1.386 . S
C3676 C3671 1.490 . S
C3676 C3678 1.395 . S
C3676 C3679 1.403 . S
H3677 C3683 0.930 . S
C3678 H3664 0.930 . S
C3678 C3676 1.395 . S
C3678 C3681 1.403 . S
C3679 C3676 1.403 . S
C3679 C3680 1.524 . S
C3679 C3683 1.400 . S
C3680 H3665 0.960 . S
C3680 H3666 0.960 . S
C3680 H3667 0.960 . S
C3680 C3679 1.524 . S
C3681 C3678 1.403 . S
C3681 C3682 1.392 . S
C3681 C3685 1.495 . S
C3682 C3681 1.392 . S
C3682 C3683 1.385 . S
C3682 C3684 1.478 . S
C3683 H3677 0.930 . S
C3683 C3679 1.400 . S
C3683 C3682 1.385 . S
C3684 C3682 1.478 . S
C3684 C3686 1.381 . S
C3684 C3690 1.383 . S
C3685 C3681 1.495 . S
C3685 H3691 0.959 . S
C3685 H3692 0.961 . S
C3685 H3693 0.960 . S
C3686 C3684 1.381 . S
C3686 C3687 1.394 . S
C3686 H3694 0.930 . S
C3687 C3686 1.394 . S
C3687 C3688 1.383 . S
C3687 H3695 0.929 . S
C3688 C3687 1.383 . S
C3688 C3689 1.377 . S
C3689 H3673 0.930 . S
C3689 C3688 1.377 . S
C3689 C3690 1.379 . S
C3690 H3674 0.931 . S
C3690 C3684 1.383 . S
C3690 C3689 1.379 . S
H3691 C3685 0.959 . S
H3692 C3685 0.961 . S
H3693 C3685 0.960 . S
H3694 C3686 0.930 . S
H3695 C3687 0.929 . S
H3696 C3704 0.929 . S
H3697 C3706 0.930 . S
H3698 C3708 0.930 . S
H3699 C3711 0.929 . S
H3700 C3714 0.930 . S
H3701 C3716 0.960 . S
H3702 C3716 0.960 . S
H3703 C3716 0.960 . S
C3704 H3696 0.929 . S
C3704 C3705 1.377 . S
C3704 C3706 1.384 . S
C3705 C3704 1.377 . S
C3705 C3711 1.390 . S
C3706 H3697 0.930 . S
C3706 C3704 1.384 . S
C3706 C3707 1.372 . S
C3707 C3706 1.372 . S
C3707 C3708 1.400 . S
C3707 C3712 1.490 . S
C3708 H3698 0.930 . S
C3708 C3707 1.400 . S
C3708 C3711 1.386 . S
H3709 C3725 0.930 . S
H3710 C3726 0.931 . S
C3711 H3699 0.929 . S
C3711 C3705 1.390 . S
C3711 C3708 1.386 . S
C3712 C3707 1.490 . S
C3712 C3714 1.395 . S
C3712 C3715 1.403 . S
H3713 C3719 0.930 . S
C3714 H3700 0.930 . S
C3714 C3712 1.395 . S
C3714 C3717 1.403 . S
C3715 C3712 1.403 . S
C3715 C3716 1.524 . S
C3715 C3719 1.400 . S
C3716 H3701 0.960 . S
C3716 H3702 0.960 . S
C3716 H3703 0.960 . S
C3716 C3715 1.524 . S
C3717 C3714 1.403 . S
C3717 C3718 1.392 . S
C3717 C3721 1.495 . S
C3718 C3717 1.392 . S
C3718 C3719 1.385 . S
C3718 C3720 1.478 . S
C3719 H3713 0.930 . S
C3719 C3715 1.400 . S
C3719 C3718 1.385 . S
C3720 C3718 1.478 . S
C3720 C3722 1.381 . S
C3720 C3726 1.383 . S
C3721 C3717 1.495 . S
C3721 H3727 0.959 . S
C3721 H3728 0.961 . S
C3721 H3729 0.960 . S
C3722 C3720 1.381 . S
C3722 C3723 1.394 . S
C3722 H3730 0.930 . S
C3723 C3722 1.394 . S
C3723 C3724 1.383 . S
C3723 H3731 0.929 . S
C3724 C3723 1.383 . S
C3724 C3725 1.377 . S
C3725 H3709 0.930 . S
C3725 C3724 1.377 . S
C3725 C3726 1.379 . S
C3726 H3710 0.931 . S
C3726 C3720 1.383 . S
C3726 C3725 1.379 . S
H3727 C3721 0.959 . S
H3728 C3721 0.961 . S
H3729 C3721 0.960 . S
H3730 C3722 0.930 . S
H3731 C3723 0.929 . S
H3732 C3740 0.929 . S
H3733 C3742 0.930 . S
H3734 C3744 0.930 . S
H3735 C3747 0.929 . S
H3736 C3750 0.930 . S
H3737 C3752 0.960 . S
H3738 C3752 0.960 . S
H3739 C3752 0.960 . S
C3740 H3732 0.929 . S
C3740 C3741 1.377 . S
C3740 C3742 1.384 . S
C3741 C3740 1.377 . S
C3741 C3747 1.390 . S
C3742 H3733 0.930 . S
C3742 C3740 1.384 . S
C3742 C3743 1.372 . S
C3743 C3742 1.372 . S
C3743 C3744 1.400 . S
C3743 C3748 1.490 . S
C3744 H3734 0.930 . S
C3744 C3743 1.400 . S
C3744 C3747 1.386 . S
H3745 C3761 0.930 . S
H3746 C3762 0.931 . S
C3747 H3735 0.929 . S
C3747 C3741 1.390 . S
C3747 C3744 1.386 . S
C3748 C3743 1.490 . S
C3748 C3750 1.395 . S
C3748 C3751 1.403 . S
H3749 C3755 0.930 . S
C3750 H3736 0.930 . S
C3750 C3748 1.395 . S
C3750 C3753 1.403 . S
C3751 C3748 1.403 . S
C3751 C3752 1.524 . S
C3751 C3755 1.400 . S
C3752 H3737 0.960 . S
C3752 H3738 0.960 . S
C3752 H3739 0.960 . S
C3752 C3751 1.524 . S
C3753 C3750 1.403 . S
C3753 C3754 1.392 . S
C3753 C3757 1.495 . S
C3754 C3753 1.392 . S
C3754 C3755 1.385 . S
C3754 C3756 1.478 . S
C3755 H3749 0.930 . S
C3755 C3751 1.400 . S
C3755 C3754 1.385 . S
C3756 C3754 1.478 . S
C3756 C3758 1.381 . S
C3756 C3762 1.383 . S
C3757 C3753 1.495 . S
C3757 H3763 0.959 . S
C3757 H3764 0.961 . S
C3757 H3765 0.960 . S
C3758 C3756 1.381 . S
C3758 C3759 1.394 . S
C3758 H3766 0.930 . S
C3759 C3758 1.394 . S
C3759 C3760 1.383 . S
C3759 H3767 0.929 . S
C3760 C3759 1.383 . S
C3760 C3761 1.377 . S
C3761 H3745 0.930 . S
C3761 C3760 1.377 . S
C3761 C3762 1.379 . S
C3762 H3746 0.931 . S
C3762 C3756 1.383 . S
C3762 C3761 1.379 . S
H3763 C3757 0.959 . S
H3764 C3757 0.961 . S
H3765 C3757 0.960 . S
H3766 C3758 0.930 . S
H3767 C3759 0.929 . S
H3768 C3776 0.929 . S
H3769 C3778 0.930 . S
H3770 C3780 0.930 . S
H3771 C3783 0.929 . S
H3772 C3786 0.930 . S
H3773 C3788 0.960 . S
H3774 C3788 0.960 . S
H3775 C3788 0.960 . S
C3776 H3768 0.929 . S
C3776 C3777 1.377 . S
C3776 C3778 1.384 . S
C3777 C3776 1.377 . S
C3777 C3783 1.390 . S
C3778 H3769 0.930 . S
C3778 C3776 1.384 . S
C3778 C3779 1.372 . S
C3779 C3778 1.372 . S
C3779 C3780 1.400 . S
C3779 C3784 1.490 . S
C3780 H3770 0.930 . S
C3780 C3779 1.400 . S
C3780 C3783 1.386 . S
H3781 C3797 0.930 . S
H3782 C3798 0.931 . S
C3783 H3771 0.929 . S
C3783 C3777 1.390 . S
C3783 C3780 1.386 . S
C3784 C3779 1.490 . S
C3784 C3786 1.395 . S
C3784 C3787 1.403 . S
H3785 C3791 0.930 . S
C3786 H3772 0.930 . S
C3786 C3784 1.395 . S
C3786 C3789 1.403 . S
C3787 C3784 1.403 . S
C3787 C3788 1.524 . S
C3787 C3791 1.400 . S
C3788 H3773 0.960 . S
C3788 H3774 0.960 . S
C3788 H3775 0.960 . S
C3788 C3787 1.524 . S
C3789 C3786 1.403 . S
C3789 C3790 1.392 . S
C3789 C3793 1.495 . S
C3790 C3789 1.392 . S
C3790 C3791 1.385 . S
C3790 C3792 1.478 . S
C3791 H3785 0.930 . S
C3791 C3787 1.400 . S
C3791 C3790 1.385 . S
C3792 C3790 1.478 . S
C3792 C3794 1.381 . S
C3792 C3798 1.383 . S
C3793 C3789 1.495 . S
C3793 H3799 0.959 . S
C3793 H3800 0.961 . S
C3793 H3801 0.960 . S
C3794 C3792 1.381 . S
C3794 C3795 1.394 . S
C3794 H3802 0.930 . S
C3795 C3794 1.394 . S
C3795 C3796 1.383 . S
C3795 H3803 0.929 . S
C3796 C3795 1.383 . S
C3796 C3797 1.377 . S
C3797 H3781 0.930 . S
C3797 C3796 1.377 . S
C3797 C3798 1.379 . S
C3798 H3782 0.931 . S
C3798 C3792 1.383 . S
C3798 C3797 1.379 . S
H3799 C3793 0.959 . S
H3800 C3793 0.961 . S
H3801 C3793 0.960 . S
H3802 C3794 0.930 . S
H3803 C3795 0.929 . S
H3804 C3812 0.929 . S
H3805 C3814 0.930 . S
H3806 C3816 0.930 . S
H3807 C3819 0.929 . S
H3808 C3822 0.930 . S
H3809 C3824 0.960 . S
H3810 C3824 0.960 . S
H3811 C3824 0.960 . S
C3812 H3804 0.929 . S
C3812 C3813 1.377 . S
C3812 C3814 1.384 . S
C3813 C3812 1.377 . S
C3813 C3819 1.390 . S
C3814 H3805 0.930 . S
C3814 C3812 1.384 . S
C3814 C3815 1.372 . S
C3815 C3814 1.372 . S
C3815 C3816 1.400 . S
C3815 C3820 1.490 . S
C3816 H3806 0.930 . S
C3816 C3815 1.400 . S
C3816 C3819 1.386 . S
H3817 C3833 0.930 . S
H3818 C3834 0.931 . S
C3819 H3807 0.929 . S
C3819 C3813 1.390 . S
C3819 C3816 1.386 . S
C3820 C3815 1.490 . S
C3820 C3822 1.395 . S
C3820 C3823 1.403 . S
H3821 C3827 0.930 . S
C3822 H3808 0.930 . S
C3822 C3820 1.395 . S
C3822 C3825 1.403 . S
C3823 C3820 1.403 . S
C3823 C3824 1.524 . S
C3823 C3827 1.400 . S
C3824 H3809 0.960 . S
C3824 H3810 0.960 . S
C3824 H3811 0.960 . S
C3824 C3823 1.524 . S
C3825 C3822 1.403 . S
C3825 C3826 1.392 . S
C3825 C3829 1.495 . S
C3826 C3825 1.392 . S
C3826 C3827 1.385 . S
C3826 C3828 1.478 . S
C3827 H3821 0.930 . S
C3827 C3823 1.400 . S
C3827 C3826 1.385 . S
C3828 C3826 1.478 . S
C3828 C3830 1.381 . S
C3828 C3834 1.383 . S
C3829 C3825 1.495 . S
C3829 H3835 0.959 . S
C3829 H3836 0.961 . S
C3829 H3837 0.960 . S
C3830 C3828 1.381 . S
C3830 C3831 1.394 . S
C3830 H3838 0.930 . S
C3831 C3830 1.394 . S
C3831 C3832 1.383 . S
C3831 H3839 0.929 . S
C3832 C3831 1.383 . S
C3832 C3833 1.377 . S
C3833 H3817 0.930 . S
C3833 C3832 1.377 . S
C3833 C3834 1.379 . S
C3834 H3818 0.931 . S
C3834 C3828 1.383 . S
C3834 C3833 1.379 . S
H3835 C3829 0.959 . S
H3836 C3829 0.961 . S
H3837 C3829 0.960 . S
H3838 C3830 0.930 . S
H3839 C3831 0.929 . S
H3840 C3848 0.929 . S
H3841 C3850 0.930 . S
H3842 C3852 0.930 . S
H3843 C3855 0.929 . S
H3844 C3858 0.930 . S
H3845 C3860 0.960 . S
H3846 C3860 0.960 . S
H3847 C3860 0.960 . S
C3848 H3840 0.929 . S
C3848 C3849 1.377 . S
C3848 C3850 1.384 . S
C3849 C3848 1.377 . S
C3849 C3855 1.390 . S
C3850 H3841 0.930 . S
C3850 C3848 1.384 . S
C3850 C3851 1.372 . S
C3851 C3850 1.372 . S
C3851 C3852 1.400 . S
C3851 C3856 1.490 . S
C3852 H3842 0.930 . S
C3852 C3851 1.400 . S
C3852 C3855 1.386 . S
H3853 C3869 0.930 . S
H3854 C3870 0.931 . S
C3855 H3843 0.929 . S
C3855 C3849 1.390 . S
C3855 C3852 1.386 . S
C3856 C3851 1.490 . S
C3856 C3858 1.395 . S
C3856 C3859 1.403 . S
H3857 C3863 0.930 . S
C3858 H3844 0.930 . S
C3858 C3856 1.395 . S
C3858 C3861 1.403 . S
C3859 C3856 1.403 . S
C3859 C3860 1.524 . S
C3859 C3863 1.400 . S
C3860 H3845 0.960 . S
C3860 H3846 0.960 . S
C3860 H3847 0.960 . S
C3860 C3859 1.524 . S
C3861 C3858 1.403 . S
C3861 C3862 1.392 . S
C3861 C3865 1.495 . S
C3862 C3861 1.392 . S
C3862 C3863 1.385 . S
C3862 C3864 1.478 . S
C3863 H3857 0.930 . S
C3863 C3859 1.400 . S
C3863 C3862 1.385 . S
C3864 C3862 1.478 . S
C3864 C3866 1.381 . S
C3864 C3870 1.383 . S
C3865 C3861 1.495 . S
C3865 H3871 0.959 . S
C3865 H3872 0.961 . S
C3865 H3873 0.960 . S
C3866 C3864 1.381 . S
C3866 C3867 1.394 . S
C3866 H3874 0.930 . S
C3867 C3866 1.394 . S
C3867 C3868 1.383 . S
C3867 H3875 0.929 . S
C3868 C3867 1.383 . S
C3868 C3869 1.377 . S
C3869 H3853 0.930 . S
C3869 C3868 1.377 . S
C3869 C3870 1.379 . S
C3870 H3854 0.931 . S
C3870 C3864 1.383 . S
C3870 C3869 1.379 . S
H3871 C3865 0.959 . S
H3872 C3865 0.961 . S
H3873 C3865 0.960 . S
H3874 C3866 0.930 . S
H3875 C3867 0.929 . S
H3876 C3884 0.929 . S
H3877 C3886 0.930 . S
H3878 C3888 0.930 . S
H3879 C3891 0.929 . S
H3880 C3894 0.930 . S
H3881 C3896 0.960 . S
H3882 C3896 0.960 . S
H3883 C3896 0.960 . S
C3884 H3876 0.929 . S
C3884 C3885 1.377 . S
C3884 C3886 1.384 . S
C3885 C3884 1.377 . S
C3885 C3891 1.390 . S
C3886 H3877 0.930 . S
C3886 C3884 1.384 . S
C3886 C3887 1.372 . S
C3887 C3886 1.372 . S
C3887 C3888 1.400 . S
C3887 C3892 1.490 . S
C3888 H3878 0.930 . S
C3888 C3887 1.400 . S
C3888 C3891 1.386 . S
H3889 C3905 0.930 . S
H3890 C3906 0.931 . S
C3891 H3879 0.929 . S
C3891 C3885 1.390 . S
C3891 C3888 1.386 . S
C3892 C3887 1.490 . S
C3892 C3894 1.395 . S
C3892 C3895 1.403 . S
H3893 C3899 0.930 . S
C3894 H3880 0.930 . S
C3894 C3892 1.395 . S
C3894 C3897 1.403 . S
C3895 C3892 1.403 . S
C3895 C3896 1.524 . S
C3895 C3899 1.400 . S
C3896 H3881 0.960 . S
C3896 H3882 0.960 . S
C3896 H3883 0.960 . S
C3896 C3895 1.524 . S
C3897 C3894 1.403 . S
C3897 C3898 1.392 . S
C3897 C3901 1.495 . S
C3898 C3897 1.392 . S
C3898 C3899 1.385 . S
C3898 C3900 1.478 . S
C3899 H3893 0.930 . S
C3899 C3895 1.400 . S
C3899 C3898 1.385 . S
C3900 C3898 1.478 . S
C3900 C3902 1.381 . S
C3900 C3906 1.383 . S
C3901 C3897 1.495 . S
C3901 H3907 0.959 . S
C3901 H3908 0.961 . S
C3901 H3909 0.960 . S
C3902 C3900 1.381 . S
C3902 C3903 1.394 . S
C3902 H3910 0.930 . S
C3903 C3902 1.394 . S
C3903 C3904 1.383 . S
C3903 H3911 0.929 . S
C3904 C3903 1.383 . S
C3904 C3905 1.377 . S
C3905 H3889 0.930 . S
C3905 C3904 1.377 . S
C3905 C3906 1.379 . S
C3906 H3890 0.931 . S
C3906 C3900 1.383 . S
C3906 C3905 1.379 . S
H3907 C3901 0.959 . S
H3908 C3901 0.961 . S
H3909 C3901 0.960 . S
H3910 C3902 0.930 . S
H3911 C3903 0.929 . S
H3912 C3920 0.929 . S
H3913 C3922 0.930 . S
H3914 C3924 0.930 . S
H3915 C3927 0.929 . S
H3916 C3930 0.930 . S
H3917 C3932 0.960 . S
H3918 C3932 0.960 . S
H3919 C3932 0.960 . S
C3920 H3912 0.929 . S
C3920 C3921 1.377 . S
C3920 C3922 1.384 . S
C3921 C3920 1.377 . S
C3921 C3927 1.390 . S
C3922 H3913 0.930 . S
C3922 C3920 1.384 . S
C3922 C3923 1.372 . S
C3923 C3922 1.372 . S
C3923 C3924 1.400 . S
C3923 C3928 1.490 . S
C3924 H3914 0.930 . S
C3924 C3923 1.400 . S
C3924 C3927 1.386 . S
H3925 C3941 0.930 . S
H3926 C3942 0.931 . S
C3927 H3915 0.929 . S
C3927 C3921 1.390 . S
C3927 C3924 1.386 . S
C3928 C3923 1.490 . S
C3928 C3930 1.395 . S
C3928 C3931 1.403 . S
H3929 C3935 0.930 . S
C3930 H3916 0.930 . S
C3930 C3928 1.395 . S
C3930 C3933 1.403 . S
C3931 C3928 1.403 . S
C3931 C3932 1.524 . S
C3931 C3935 1.400 . S
C3932 H3917 0.960 . S
C3932 H3918 0.960 . S
C3932 H3919 0.960 . S
C3932 C3931 1.524 . S
C3933 C3930 1.403 . S
C3933 C3934 1.392 . S
C3933 C3937 1.495 . S
C3934 C3933 1.392 . S
C3934 C3935 1.385 . S
C3934 C3936 1.478 . S
C3935 H3929 0.930 . S
C3935 C3931 1.400 . S
C3935 C3934 1.385 . S
C3936 C3934 1.478 . S
C3936 C3938 1.381 . S
C3936 C3942 1.383 . S
C3937 C3933 1.495 . S
C3937 H3943 0.959 . S
C3937 H3944 0.961 . S
C3937 H3945 0.960 . S
C3938 C3936 1.381 . S
C3938 C3939 1.394 . S
C3938 H3946 0.930 . S
C3939 C3938 1.394 . S
C3939 C3940 1.383 . S
C3939 H3947 0.929 . S
C3940 C3939 1.383 . S
C3940 C3941 1.377 . S
C3941 H3925 0.930 . S
C3941 C3940 1.377 . S
C3941 C3942 1.379 . S
C3942 H3926 0.931 . S
C3942 C3936 1.383 . S
C3942 C3941 1.379 . S
H3943 C3937 0.959 . S
H3944 C3937 0.961 . S
H3945 C3937 0.960 . S
H3946 C3938 0.930 . S
H3947 C3939 0.929 . S
H3948 C3956 0.929 . S
H3949 C3958 0.930 . S
H3950 C3960 0.930 . S
H3951 C3963 0.929 . S
H3952 C3966 0.930 . S
H3953 C3968 0.960 . S
H3954 C3968 0.960 . S
H3955 C3968 0.960 . S
C3956 H3948 0.929 . S
C3956 C3957 1.377 . S
C3956 C3958 1.384 . S
C3957 C3956 1.377 . S
C3957 C3963 1.390 1_554 S
C3958 H3949 0.930 . S
C3958 C3956 1.384 . S
C3958 C3959 1.372 . S
C3959 C3958 1.372 . S
C3959 C3960 1.400 1_554 S
C3959 C3964 1.490 . S
C3960 H3950 0.930 . S
C3960 C3959 1.400 1_556 S
C3960 C3963 1.386 . S
H3961 C3977 0.930 . S
H3962 C3978 0.931 . S
C3963 H3951 0.929 . S
C3963 C3957 1.390 1_556 S
C3963 C3960 1.386 . S
C3964 C3959 1.490 . S
C3964 C3966 1.395 1_554 S
C3964 C3967 1.403 . S
H3965 C3971 0.930 . S
C3966 H3952 0.930 . S
C3966 C3964 1.395 1_556 S
C3966 C3969 1.403 . S
C3967 C3964 1.403 . S
C3967 C3968 1.524 . S
C3967 C3971 1.400 . S
C3968 H3953 0.960 . S
C3968 H3954 0.960 . S
C3968 H3955 0.960 . S
C3968 C3967 1.524 . S
C3969 C3966 1.403 . S
C3969 C3970 1.408 . S
C3969 C3973 1.495 . S
C3970 C3969 1.408 . S
C3970 C3971 1.365 1_556 S
C3970 C3972 1.485 . S
C3971 H3965 0.930 . S
C3971 C3967 1.400 . S
C3971 C3970 1.365 1_554 S
C3972 C3970 1.485 . S
C3972 C3974 1.381 1_556 S
C3972 C3978 1.383 . S
C3973 C3969 1.495 . S
C3973 H3979 0.959 . S
C3973 H3980 0.961 . S
C3973 H3981 0.960 . S
C3974 C3972 1.381 1_554 S
C3974 C3975 1.394 . S
C3974 H3982 0.930 . S
C3975 C3974 1.394 . S
C3975 C3976 1.383 1_554 S
C3975 H3983 0.929 . S
C3976 C3975 1.383 1_556 S
C3976 C3977 1.377 . S
C3977 H3961 0.930 . S
C3977 C3976 1.377 . S
C3977 C3978 1.379 . S
C3978 H3962 0.931 . S
C3978 C3972 1.383 . S
C3978 C3977 1.379 . S
H3979 C3973 0.959 . S
H3980 C3973 0.961 . S
H3981 C3973 0.960 . S
H3982 C3974 0.930 . S
H3983 C3975 0.929 . S
H3984 C3992 0.929 . S
H3985 C3994 0.930 . S
H3986 C3996 0.930 . S
H3987 C3999 0.929 . S
H3988 C4002 0.930 . S
H3989 C4004 0.960 . S
H3990 C4004 0.960 . S
H3991 C4004 0.960 . S
C3992 H3984 0.929 . S
C3992 C3993 1.377 . S
C3992 C3994 1.384 . S
C3993 C3992 1.377 . S
C3993 C3999 1.390 . S
C3994 H3985 0.930 . S
C3994 C3992 1.384 . S
C3994 C3995 1.372 . S
C3995 C3994 1.372 . S
C3995 C3996 1.400 . S
C3995 C4000 1.490 . S
C3996 H3986 0.930 . S
C3996 C3995 1.400 . S
C3996 C3999 1.386 . S
H3997 C4013 0.930 . S
H3998 C4014 0.931 . S
C3999 H3987 0.929 . S
C3999 C3993 1.390 . S
C3999 C3996 1.386 . S
C4000 C3995 1.490 . S
C4000 C4002 1.395 . S
C4000 C4003 1.403 . S
H4001 C4007 0.930 . S
C4002 H3988 0.930 . S
C4002 C4000 1.395 . S
C4002 C4005 1.403 . S
C4003 C4000 1.403 . S
C4003 C4004 1.524 . S
C4003 C4007 1.400 . S
C4004 H3989 0.960 . S
C4004 H3990 0.960 . S
C4004 H3991 0.960 . S
C4004 C4003 1.524 . S
C4005 C4002 1.403 . S
C4005 C4006 1.392 . S
C4005 C4009 1.495 . S
C4006 C4005 1.392 . S
C4006 C4007 1.385 . S
C4006 C4008 1.478 . S
C4007 H4001 0.930 . S
C4007 C4003 1.400 . S
C4007 C4006 1.385 . S
C4008 C4006 1.478 . S
C4008 C4010 1.381 . S
C4008 C4014 1.383 . S
C4009 C4005 1.495 . S
C4009 H4015 0.959 . S
C4009 H4016 0.961 . S
C4009 H4017 0.960 . S
C4010 C4008 1.381 . S
C4010 C4011 1.394 . S
C4010 H4018 0.930 . S
C4011 C4010 1.394 . S
C4011 C4012 1.383 . S
C4011 H4019 0.929 . S
C4012 C4011 1.383 . S
C4012 C4013 1.377 . S
C4013 H3997 0.930 . S
C4013 C4012 1.377 . S
C4013 C4014 1.379 . S
C4014 H3998 0.931 . S
C4014 C4008 1.383 . S
C4014 C4013 1.379 . S
H4015 C4009 0.959 . S
H4016 C4009 0.961 . S
H4017 C4009 0.960 . S
H4018 C4010 0.930 . S
H4019 C4011 0.929 . S
H4020 C4028 0.929 . S
H4021 C4030 0.930 . S
H4022 C4032 0.930 . S
H4023 C4035 0.929 . S
H4024 C4038 0.930 . S
H4025 C4040 0.960 . S
H4026 C4040 0.960 . S
H4027 C4040 0.960 1_554 S
C4028 H4020 0.929 . S
C4028 C4029 1.377 1_556 S
C4028 C4030 1.384 . S
C4029 C4028 1.377 1_554 S
C4029 C4035 1.390 . S
C4030 H4021 0.930 . S
C4030 C4028 1.384 . S
C4030 C4031 1.372 1_556 S
C4031 C4030 1.372 1_554 S
C4031 C4032 1.400 . S
C4031 C4036 1.490 . S
C4032 H4022 0.930 . S
C4032 C4031 1.400 . S
C4032 C4035 1.386 . S
H4033 C4049 0.930 . S
H4034 C4050 0.931 . S
C4035 H4023 0.929 . S
C4035 C4029 1.390 . S
C4035 C4032 1.386 . S
C4036 C4031 1.490 . S
C4036 C4038 1.395 . S
C4036 C4039 1.403 . S
H4037 C4043 0.939 . S
C4038 H4024 0.930 . S
C4038 C4036 1.395 . S
C4038 C4041 1.403 . S
C4039 C4036 1.403 . S
C4039 C4040 1.524 1_554 S
C4039 C4043 1.400 . S
C4040 H4025 0.960 . S
C4040 H4026 0.960 . S
C4040 H4027 0.960 1_556 S
C4040 C4039 1.524 1_556 S
C4041 C4038 1.403 . S
C4041 C4042 1.392 . S
C4041 C4045 1.495 . S
C4042 C4041 1.392 . S
C4042 C4043 1.385 . S
C4042 C4044 1.478 . S
C4043 H4037 0.939 . S
C4043 C4039 1.400 . S
C4043 C4042 1.385 . S
C4044 C4042 1.478 . S
C4044 C4046 1.381 1_554 S
C4044 C4050 1.383 . S
C4045 C4041 1.495 . S
C4045 H4051 0.959 . S
C4045 H4052 0.961 . S
C4045 H4053 0.960 . S
C4046 C4044 1.381 1_556 S
C4046 C4047 1.394 . S
C4046 H4054 0.930 . S
C4047 C4046 1.394 . S
C4047 C4048 1.383 1_556 S
C4047 H4055 0.929 . S
C4048 C4047 1.383 1_554 S
C4048 C4049 1.377 . S
C4049 H4033 0.930 . S
C4049 C4048 1.377 . S
C4049 C4050 1.379 . S
C4050 H4034 0.931 . S
C4050 C4044 1.383 . S
C4050 C4049 1.379 . S
H4051 C4045 0.959 . S
H4052 C4045 0.961 . S
H4053 C4045 0.960 . S
H4054 C4046 0.930 . S
H4055 C4047 0.929 . S
H4056 C4064 0.929 . S
H4057 C4066 0.930 . S
H4058 C4068 0.930 . S
H4059 C4071 0.929 . S
H4060 C4074 0.930 . S
H4061 C4076 0.960 . S
H4062 C4076 0.960 . S
H4063 C4076 0.960 . S
C4064 H4056 0.929 . S
C4064 C4065 1.377 . S
C4064 C4066 1.384 . S
C4065 C4064 1.377 . S
C4065 C4071 1.390 . S
C4066 H4057 0.930 . S
C4066 C4064 1.384 . S
C4066 C4067 1.372 . S
C4067 C4066 1.372 . S
C4067 C4068 1.400 . S
C4067 C4072 1.490 . S
C4068 H4058 0.930 . S
C4068 C4067 1.400 . S
C4068 C4071 1.386 . S
H4069 C4085 0.930 . S
H4070 C4086 0.931 . S
C4071 H4059 0.929 . S
C4071 C4065 1.390 . S
C4071 C4068 1.386 . S
C4072 C4067 1.490 . S
C4072 C4074 1.395 . S
C4072 C4075 1.403 . S
H4073 C4079 0.930 . S
C4074 H4060 0.930 . S
C4074 C4072 1.395 . S
C4074 C4077 1.403 . S
C4075 C4072 1.403 . S
C4075 C4076 1.524 . S
C4075 C4079 1.400 . S
C4076 H4061 0.960 . S
C4076 H4062 0.960 . S
C4076 H4063 0.960 . S
C4076 C4075 1.524 . S
C4077 C4074 1.403 . S
C4077 C4078 1.392 . S
C4077 C4081 1.495 . S
C4078 C4077 1.392 . S
C4078 C4079 1.385 . S
C4078 C4080 1.478 . S
C4079 H4073 0.930 . S
C4079 C4075 1.400 . S
C4079 C4078 1.385 . S
C4080 C4078 1.478 . S
C4080 C4082 1.381 . S
C4080 C4086 1.383 . S
C4081 C4077 1.495 . S
C4081 H4087 0.959 . S
C4081 H4088 0.961 . S
C4081 H4089 0.960 . S
C4082 C4080 1.381 . S
C4082 C4083 1.394 . S
C4082 H4090 0.930 . S
C4083 C4082 1.394 . S
C4083 C4084 1.383 . S
C4083 H4091 0.929 . S
C4084 C4083 1.383 . S
C4084 C4085 1.377 . S
C4085 H4069 0.930 . S
C4085 C4084 1.377 . S
C4085 C4086 1.379 . S
C4086 H4070 0.931 . S
C4086 C4080 1.383 . S
C4086 C4085 1.379 . S
H4087 C4081 0.959 . S
H4088 C4081 0.961 . S
H4089 C4081 0.960 . S
H4090 C4082 0.930 . S
H4091 C4083 0.929 . S
H4092 C4100 0.929 . S
H4093 C4102 0.930 . S
H4094 C4104 0.930 . S
H4095 C4107 0.929 . S
H4096 C4110 0.930 . S
H4097 C4112 0.960 . S
H4098 C4112 0.960 . S
H4099 C4112 0.960 . S
C4100 H4092 0.929 . S
C4100 C4101 1.377 . S
C4100 C4102 1.384 . S
C4101 C4100 1.377 . S
C4101 C4107 1.390 . S
C4102 H4093 0.930 . S
C4102 C4100 1.384 . S
C4102 C4103 1.372 . S
C4103 C4102 1.372 . S
C4103 C4104 1.400 . S
C4103 C4108 1.490 . S
C4104 H4094 0.930 . S
C4104 C4103 1.400 . S
C4104 C4107 1.386 . S
H4105 C4121 0.930 . S
H4106 C4122 0.931 . S
C4107 H4095 0.929 . S
C4107 C4101 1.390 . S
C4107 C4104 1.386 . S
C4108 C4103 1.490 . S
C4108 C4110 1.395 . S
C4108 C4111 1.403 . S
H4109 C4115 0.930 . S
C4110 H4096 0.930 . S
C4110 C4108 1.395 . S
C4110 C4113 1.403 . S
C4111 C4108 1.403 . S
C4111 C4112 1.524 . S
C4111 C4115 1.400 . S
C4112 H4097 0.960 . S
C4112 H4098 0.960 . S
C4112 H4099 0.960 . S
C4112 C4111 1.524 . S
C4113 C4110 1.403 . S
C4113 C4114 1.392 . S
C4113 C4117 1.495 . S
C4114 C4113 1.392 . S
C4114 C4115 1.385 . S
C4114 C4116 1.478 . S
C4115 H4109 0.930 . S
C4115 C4111 1.400 . S
C4115 C4114 1.385 . S
C4116 C4114 1.478 . S
C4116 C4118 1.381 . S
C4116 C4122 1.383 . S
C4117 C4113 1.495 . S
C4117 H4123 0.959 . S
C4117 H4124 0.961 . S
C4117 H4125 0.960 . S
C4118 C4116 1.381 . S
C4118 C4119 1.394 . S
C4118 H4126 0.930 . S
C4119 C4118 1.394 . S
C4119 C4120 1.383 . S
C4119 H4127 0.929 . S
C4120 C4119 1.383 . S
C4120 C4121 1.377 . S
C4121 H4105 0.930 . S
C4121 C4120 1.377 . S
C4121 C4122 1.379 . S
C4122 H4106 0.931 . S
C4122 C4116 1.383 . S
C4122 C4121 1.379 . S
H4123 C4117 0.959 . S
H4124 C4117 0.961 . S
H4125 C4117 0.960 . S
H4126 C4118 0.930 . S
H4127 C4119 0.929 . S
C700 C352 1.049 . S
C681 C4 1.177 . S
C717 C19 0.870 . S
C736 C372 0.986 . S
C753 C39 1.086 . S
C772 C394 0.964 . S
C808 C413 1.146 . S
C789 C54 1.210 . S
C825 C18 1.193 . S
C844 C434 1.208 . S
C880 C457 1.161 . S
C861 C40 1.246 . S
C916 C480 0.927 . S
C897 C53 0.950 . S
C933 C5 0.958 . S
C952 C498 1.114 . S
C969 C61 0.903 1_545 S
C988 C354 1.064 . S
C1005 C74 1.280 . S
C1024 C374 1.294 . S
C1060 C396 0.911 . S
C1041 C89 0.814 . S
C1096 C415 1.110 . S
C1077 C109 1.228 . S
C1113 C68 1.191 . S
C1132 C436 1.096 . S
C1168 C459 0.981 . S
C1149 C81 1.015 . S
C1204 C476 1.097 . S
C1185 C96 1.153 . S
C1240 C500 1.207 . S
C1221 C102 1.235 . S
C1276 C350 1.047 . S
C1257 C103 0.946 . S
C1312 C522 0.954 . S
C1293 C117 0.868 . S
C1329 C130 1.208 . S
C1348 C539 1.227 . S
C1384 C562 1.124 . S
C1365 C152 1.257 . S
C1401 C60 1.225 . S
C1420 C496 1.137 . S
C1456 C392 1.147 . S
C1437 C82 1.200 . S
C1473 C137 0.917 . S
C1492 C585 0.874 . S
C1528 C601 0.997 . S
C1509 C165 1.072 . S
C1545 C172 1.201 . S
C1564 C349 1.078 . S
C1600 C602 1.192 . S
C1581 C194 1.191 . S
C1617 C207 1.178 . S
C1636 C391 1.108 . S
C1653 C215 0.966 . S
C1672 C582 1.097 . S
C1708 C435 1.161 . S
C1689 C186 1.151 . S
C1744 C538 1.166 . S
C1725 C201 1.086 . S
C1780 C479 1.151 . S
C1761 C221 1.135 . S
C1816 C623 1.259 . S
C1797 C180 1.262 . S
C1852 C353 1.201 . S
C1833 C236 1.204 . S
C1869 C242 1.243 . S
C1888 C606 1.244 . S
C1924 C395 1.126 . S
C1905 C264 1.157 . S
C1941 C277 1.225 . S
C1960 C580 1.170 . S
C1977 C229 0.970 1_565 S
C1996 C433 1.008 . S
C2013 C249 1.181 . S
C2032 C542 1.190 . S
C2068 C477 0.958 . S
C2049 C257 0.891 1_545 S
C2085 C270 1.246 . S
C2104 C627 1.253 . S
C2121 C278 1.114 . S
C2140 C351 1.115 . S
C2157 C292 1.257 . S
C2176 C521 1.249 . S
C2193 C298 1.209 . S
C2212 C456 1.163 . S
C2229 C313 1.095 . S
C2248 C559 1.169 . S
C2284 C625 1.165 . S
C2265 C228 1.235 . S
C2320 C393 1.032 . S
C2301 C243 0.947 . S
C2356 C416 1.074 . S
C2337 C305 1.098 . S
C2392 C373 1.053 . S
C2373 C333 1.134 . S
C2409 C32 1.178 . S
C2428 C646 1.052 . S
C2464 C603 1.013 . S
C2445 C47 0.866 . S
C2500 C667 0.963 . S
C2481 C11 1.082 . S
C2517 C26 1.211 . S
C2536 C581 1.144 . S
C2553 C46 1.186 . S
C2572 C518 1.157 . S
C2608 C541 1.097 . S
C2589 C12 1.245 . S
C2644 C564 0.955 . S
C2625 C25 0.954 . S
C2680 C624 1.096 . S
C2661 C33 0.984 . S
C2716 C648 1.004 . S
C2697 C159 0.912 . S
C2733 C116 1.273 . S
C2752 C605 1.274 . S
C2769 C131 0.825 . S
C2788 C669 0.886 . S
C2824 C583 1.165 . S
C2805 C151 1.223 . S
C2860 C520 1.056 . S
C2841 C166 1.190 . S
C2877 C123 1.014 . S
C2896 C543 0.968 . S
C2932 C560 1.099 . S
C2913 C138 1.153 . S
C2949 C144 1.236 . S
C2968 C626 1.210 . S
C3004 C644 1.108 . S
C2985 C145 0.963 . S
C3040 C438 0.984 . S
C3021 C75 0.858 . S
C3076 C455 1.173 . S
C3057 C88 1.199 . S
C3093 C110 1.259 . S
C3112 C478 1.195 . S
C3148 C622 1.186 . S
C3129 C158 1.220 . S
C3165 C124 1.199 . S
C3184 C665 1.194 . S
C3220 C417 0.870 . S
C3201 C95 0.917 . S
C3256 C370 0.972 . S
C3237 C67 1.073 . S
C3273 C200 1.203 . S
C3292 C643 1.098 . S
C3328 C371 1.166 . S
C3309 C222 1.193 . S
C3364 C664 1.072 . S
C3345 C179 1.184 . S
C3381 C187 0.971 . S
C3400 C414 1.093 . S
C3417 C214 1.149 . S
C3436 C519 1.102 . S
C3453 C173 1.084 . S
C3472 C454 1.165 . S
C3489 C193 1.135 . S
C3508 C563 1.117 . S
C3525 C208 1.262 . S
C3544 C497 1.261 . S
C3580 C647 1.195 . S
C3561 C334 1.207 . S
C3597 C284 1.245 . S
C3616 C375 1.243 . S
C3652 C668 1.134 . S
C3633 C306 1.161 . S
C3669 C319 1.221 . S
C3688 C412 1.187 . S
C3705 C327 0.970 . S
C3724 C517 1.009 . S
C3760 C458 1.150 . S
C3741 C291 1.175 . S
C3777 C299 0.915 . S
C3796 C561 0.990 . S
C3832 C501 1.218 . S
C3813 C312 1.247 . S
C3868 C645 1.077 . S
C3849 C320 1.111 . S
C3904 C437 1.256 . S
C3885 C250 1.256 . S
C3921 C256 1.214 . S
C3940 C540 1.165 . S
C3976 C475 1.109 . S
C3957 C271 1.078 . S
C4012 C499 1.189 . S
C3993 C326 1.239 . S
C4029 C285 0.920 1_554 S
C4048 C666 0.996 . S
C4084 C584 1.118 . S
C4065 C263 1.107 . S
C4120 C604 1.011 . S
C4101 C235 1.140 . S
