# Generated by pormake.
# Topology llj, (12,3)-cn, num edge types: 1
# Building blocks:
#     Node 0, Type 0, BuildingBlock: QEWDON_clean_sbu_0, # of connection points: 12
#     Node 1, Type 0, BuildingBlock: QEWDON_clean_sbu_0, # of connection points: 12
#     Node 2, Type 1, BuildingBlock: OLANEW_clean_sbu_2, # of connection points: 3
#     Node 3, Type 1, BuildingBlock: OLANEW_clean_sbu_2, # of connection points: 3
#     Node 4, Type 1, BuildingBlock: OLANEW_clean_sbu_2, # of connection points: 3
#     Node 5, Type 1, BuildingBlock: OLANEW_clean_sbu_2, # of connection points: 3
#     Node 6, Type 1, BuildingBlock: OLANEW_clean_sbu_2, # of connection points: 3
#     Node 7, Type 1, BuildingBlock: OLANEW_clean_sbu_2, # of connection points: 3
#     Node 8, Type 1, BuildingBlock: OLANEW_clean_sbu_2, # of connection points: 3
#     Node 9, Type 1, BuildingBlock: OLANEW_clean_sbu_2, # of connection points: 3
#     Edge 10, Type (0, 1), BuildingBlock: UVAHIK_clean_linker_0, # of connection points: 2
#     Edge 11, Type (0, 1), BuildingBlock: UVAHIK_clean_linker_0, # of connection points: 2
#     Edge 12, Type (0, 1), BuildingBlock: UVAHIK_clean_linker_0, # of connection points: 2
#     Edge 13, Type (0, 1), BuildingBlock: UVAHIK_clean_linker_0, # of connection points: 2
#     Edge 14, Type (0, 1), BuildingBlock: UVAHIK_clean_linker_0, # of connection points: 2
#     Edge 15, Type (0, 1), BuildingBlock: UVAHIK_clean_linker_0, # of connection points: 2
#     Edge 16, Type (0, 1), BuildingBlock: UVAHIK_clean_linker_0, # of connection points: 2
#     Edge 17, Type (0, 1), BuildingBlock: UVAHIK_clean_linker_0, # of connection points: 2
#     Edge 18, Type (0, 1), BuildingBlock: UVAHIK_clean_linker_0, # of connection points: 2
#     Edge 19, Type (0, 1), BuildingBlock: UVAHIK_clean_linker_0, # of connection points: 2
#     Edge 20, Type (0, 1), BuildingBlock: UVAHIK_clean_linker_0, # of connection points: 2
#     Edge 21, Type (0, 1), BuildingBlock: UVAHIK_clean_linker_0, # of connection points: 2
#     Edge 22, Type (0, 1), BuildingBlock: UVAHIK_clean_linker_0, # of connection points: 2
#     Edge 23, Type (0, 1), BuildingBlock: UVAHIK_clean_linker_0, # of connection points: 2
#     Edge 24, Type (0, 1), BuildingBlock: UVAHIK_clean_linker_0, # of connection points: 2
#     Edge 25, Type (0, 1), BuildingBlock: UVAHIK_clean_linker_0, # of connection points: 2
#     Edge 26, Type (0, 1), BuildingBlock: UVAHIK_clean_linker_0, # of connection points: 2
#     Edge 27, Type (0, 1), BuildingBlock: UVAHIK_clean_linker_0, # of connection points: 2
#     Edge 28, Type (0, 1), BuildingBlock: UVAHIK_clean_linker_0, # of connection points: 2
#     Edge 29, Type (0, 1), BuildingBlock: UVAHIK_clean_linker_0, # of connection points: 2
#     Edge 30, Type (0, 1), BuildingBlock: UVAHIK_clean_linker_0, # of connection points: 2
#     Edge 31, Type (0, 1), BuildingBlock: UVAHIK_clean_linker_0, # of connection points: 2
#     Edge 32, Type (0, 1), BuildingBlock: UVAHIK_clean_linker_0, # of connection points: 2
#     Edge 33, Type (0, 1), BuildingBlock: UVAHIK_clean_linker_0, # of connection points: 2
# Relax obj value: 0.011
# Max RMSD: 0.107
# Mean RMSD: 0.087
data_MOF--net-llj--node1-QEWDON_clean_sbu_0--node2-OLANEW_clean_sbu_2--edge1-UVAHIK_clean_linker_0
_symmetry_space_group_name_H-M    P1
_symmetry_Int_Tables_number       1
_symmetry_cell_setting            triclinic
loop_
_symmetry_equiv_pos_as_xyz
'x, y, z'
_cell_length_a     51.30839
_cell_length_b     51.324587
_cell_length_c     32.589085
_cell_angle_alpha  88.145368
_cell_angle_beta   92.003762
_cell_angle_gamma 89.956814
loop_
_atom_site_label
_atom_site_type_symbol
_atom_site_fract_x
_atom_site_fract_y
_atom_site_fract_z
_atom_type_partial_charge
Zn0 Zn 0.96136 0.05941 0.95298 0.0
Zn1 Zn 0.96476 0.05377 0.04697 0.0
O2 O 0.98854 0.05726 -0.0 0.0
H3 H 0.00518 0.04876 0.99779 0.0
C4 C 0.9364 0.98633 0.86085 0.0
O5 O 0.95652 0.99873 0.87682 0.0
Zn6 Zn 0.04928 0.96168 0.0425 0.0
Zn7 Zn 0.04385 0.95024 0.94656 0.0
O8 O 0.02938 0.9716 0.99107 0.0
H9 H 0.01504 0.98381 0.98807 0.0
Zn10 Zn 0.9417 0.95284 0.93678 0.0
O11 O 0.95055 0.98035 0.97904 0.0
Zn12 Zn 0.95339 0.95896 0.03126 0.0
H13 H 0.95928 0.99667 0.97333 0.0
Zn14 Zn 0.06954 0.06126 0.9606 0.0
O15 O 0.05575 0.03586 0.00311 0.0
H16 H 0.04457 0.02133 0.99659 0.0
Zn17 Zn 0.05844 0.0524 0.05735 0.0
C18 C 0.08814 0.02021 0.91003 0.0
O19 O 0.081 0.00635 0.94229 0.0
O20 O 0.92844 0.07961 0.96834 0.0
O21 O 0.93335 0.07749 0.03635 0.0
O22 O 0.07557 0.92741 0.96572 0.0
O23 O 0.07938 0.93743 0.03162 0.0
O24 O 0.92174 0.92127 0.96119 0.0
O25 O 0.93043 0.92702 0.0275 0.0
C26 C 0.00807 0.06302 0.10413 0.0
O27 O 0.08838 0.09241 0.98671 0.0
O28 O 0.07884 0.08633 0.05249 0.0
O29 O 0.01522 0.93465 0.90896 0.0
C30 C 0.92097 0.08557 0.00374 0.0
O31 O 0.9754 0.06823 0.8954 0.0
C32 C 0.00127 0.94183 0.0757 0.0
O33 O 0.92741 0.96652 0.87998 0.0
C34 C 0.08714 0.92504 0.00094 0.0
O35 O 0.08529 0.04483 0.90962 0.0
C36 C 0.94522 0.00374 0.08085 0.0
O37 O 0.98332 0.06316 0.10033 0.0
O38 O 0.02098 0.0572 0.0731 0.0
C39 C 0.91926 0.9144 0.99876 0.0
O40 O 0.0257 0.94345 0.08232 0.0
O41 O 0.99129 0.95091 0.04204 0.0
C42 C 0.07687 0.00379 0.09278 0.0
O43 O 0.9421 0.97926 0.0794 0.0
O44 O 0.95424 0.01607 0.05009 0.0
C45 C 0.08987 0.09938 0.02394 0.0
O46 O 0.0788 0.02823 0.09696 0.0
O47 O 0.06092 0.9958 0.06531 0.0
C48 C 0.99837 0.91986 0.92532 0.0
O49 O 0.00043 0.91418 0.9649 0.0
C50 C 0.99606 0.05826 0.88221 0.0
O51 O 0.00881 0.04062 0.90515 0.0
Zn52 Zn 0.45632 0.55884 0.45762 0.0
Zn53 Zn 0.46262 0.55265 0.55456 0.0
O54 O 0.48281 0.54982 0.50372 0.0
H55 H 0.49665 0.53734 0.50076 0.0
C56 C 0.43298 0.4891 0.37412 0.0
O57 O 0.45227 0.50186 0.3918 0.0
Zn58 Zn 0.5443 0.46405 0.53607 0.0
Zn59 Zn 0.54287 0.45844 0.43881 0.0
O60 O 0.52152 0.47064 0.48616 0.0
H61 H 0.50697 0.48264 0.48397 0.0
Zn62 Zn 0.43476 0.4567 0.45161 0.0
O63 O 0.44097 0.48436 0.49448 0.0
Zn64 Zn 0.44694 0.46141 0.54466 0.0
H65 H 0.44872 0.50122 0.48904 0.0
Zn66 Zn 0.56503 0.56108 0.44381 0.0
O67 O 0.54969 0.53828 0.48842 0.0
H68 H 0.53963 0.52266 0.4839 0.0
Zn69 Zn 0.55634 0.55529 0.54189 0.0
C70 C 0.5876 0.51755 0.40223 0.0
O71 O 0.5813 0.5055 0.43666 0.0
O72 O 0.42558 0.58087 0.47672 0.0
O73 O 0.43214 0.57783 0.54452 0.0
O74 O 0.57357 0.43393 0.45736 0.0
O75 O 0.57295 0.4383 0.52494 0.0
O76 O 0.4153 0.4244 0.47453 0.0
O77 O 0.42481 0.42887 0.54088 0.0
C78 C 0.51063 0.56563 0.59924 0.0
O79 O 0.58301 0.59387 0.46611 0.0
O80 O 0.57574 0.58951 0.53299 0.0
O81 O 0.52189 0.44858 0.38607 0.0
C82 C 0.41942 0.58684 0.51279 0.0
O83 O 0.47127 0.56989 0.40144 0.0
C84 C 0.49854 0.44899 0.58281 0.0
O85 O 0.42306 0.46968 0.39304 0.0
C86 C 0.58251 0.4282 0.49352 0.0
O87 O 0.58277 0.54177 0.39731 0.0
C88 C 0.44167 0.50393 0.5984 0.0
O89 O 0.48595 0.56461 0.60138 0.0
O90 O 0.52069 0.55956 0.5657 0.0
C91 C 0.41344 0.41669 0.51187 0.0
O92 O 0.52321 0.45035 0.58296 0.0
O93 O 0.48547 0.45439 0.54977 0.0
C94 C 0.57646 0.50725 0.57666 0.0
O95 O 0.43726 0.47974 0.59542 0.0
O96 O 0.45012 0.51631 0.56717 0.0
C97 C 0.58536 0.60203 0.5026 0.0
O98 O 0.57935 0.53175 0.57836 0.0
O99 O 0.55881 0.49885 0.55208 0.0
C100 C 0.49775 0.44358 0.38897 0.0
O101 O 0.48698 0.44574 0.42469 0.0
C102 C 0.49136 0.55927 0.38746 0.0
O103 O 0.5027 0.53987 0.40851 0.0
O104 O 0.40456 0.23994 0.12196 0.0
Cd105 Cd 0.39635 0.19975 0.08644 0.0
O106 O 0.40582 0.26186 0.06326 0.0
Cd107 Cd 0.40746 0.29674 0.02329 0.0
O108 O 0.40943 0.32313 0.96968 0.0
C109 C 0.42259 0.34408 0.9704 0.0
O110 O 0.43478 0.35044 0.00477 0.0
C111 C 0.40689 0.26152 0.10229 0.0
C112 C 0.34273 0.19216 0.08261 0.0
O113 O 0.35666 0.18383 0.11372 0.0
O114 O 0.35429 0.20354 0.05277 0.0
O115 O 0.69951 0.35691 0.92762 0.0
Cd116 Cd 0.70864 0.34286 0.99912 0.0
O117 O 0.72772 0.38916 0.92854 0.0
Cd118 Cd 0.7351 0.38418 0.99455 0.0
O119 O 0.72471 0.39225 0.05718 0.0
C120 C 0.70045 0.39233 0.06382 0.0
O121 O 0.68393 0.38653 0.03377 0.0
C122 C 0.71091 0.37564 0.9091 0.0
C123 C 0.74031 0.29872 0.00544 0.0
O124 O 0.71542 0.29669 0.00282 0.0
O125 O 0.7502 0.32166 0.00509 0.0
O126 O 0.61011 0.75982 0.13646 0.0
Cd127 Cd 0.62105 0.80119 0.10247 0.0
O128 O 0.6157 0.73977 0.07917 0.0
Cd129 Cd 0.61747 0.70691 0.03835 0.0
O130 O 0.61515 0.68105 0.98654 0.0
C131 C 0.61263 0.69172 0.95089 0.0
O132 O 0.61202 0.71729 0.9473 0.0
C133 C 0.60962 0.73889 0.11669 0.0
C134 C 0.67423 0.8064 0.09004 0.0
O135 O 0.66437 0.81266 0.12395 0.0
O136 O 0.65892 0.79741 0.06197 0.0
O137 O 0.23884 0.60214 0.07728 0.0
Cd138 Cd 0.20105 0.6213 0.04026 0.0
O139 O 0.26668 0.62204 0.0375 0.0
Cd140 Cd 0.30506 0.62748 0.0116 0.0
O141 O 0.33558 0.62244 0.96762 0.0
C142 C 0.34941 0.60188 0.97063 0.0
O143 O 0.34597 0.5854 0.00167 0.0
C144 C 0.26224 0.60642 0.0675 0.0
C145 C 0.19894 0.67542 0.04222 0.0
O146 O 0.19052 0.66112 0.07188 0.0
O147 O 0.20877 0.66411 0.01184 0.0
O148 O 0.88146 0.77868 0.58747 0.0
Cd149 Cd 0.87538 0.75679 0.52269 0.0
O150 O 0.86309 0.81534 0.56451 0.0
Cd151 Cd 0.86091 0.80438 0.50049 0.0
O152 O 0.87057 0.8151 0.43761 0.0
C153 C 0.88344 0.8362 0.43507 0.0
O154 O 0.88921 0.84846 0.46898 0.0
C155 C 0.87339 0.80155 0.59386 0.0
C156 C 0.82542 0.73603 0.52104 0.0
O157 O 0.84447 0.7239 0.53958 0.0
O158 O 0.8301 0.7577 0.50212 0.0
O159 O 0.20251 0.85874 0.44242 0.0
Cd160 Cd 0.21225 0.84759 0.51487 0.0
O161 O 0.23283 0.88889 0.43791 0.0
Cd162 Cd 0.24078 0.88697 0.50397 0.0
O163 O 0.22844 0.89798 0.5643 0.0
C164 C 0.20399 0.90111 0.56695 0.0
O165 O 0.18877 0.89671 0.53464 0.0
C166 C 0.21476 0.87559 0.42106 0.0
C167 C 0.24337 0.80318 0.52389 0.0
O168 O 0.21844 0.80147 0.52257 0.0
O169 O 0.25356 0.82595 0.52116 0.0
O170 O 0.10371 0.26616 0.64246 0.0
Cd171 Cd 0.11406 0.30927 0.61421 0.0
O172 O 0.1058 0.25026 0.5812 0.0
Cd173 Cd 0.10505 0.22095 0.53402 0.0
O174 O 0.09931 0.19838 0.47894 0.0
C175 C 0.09873 0.17362 0.47998 0.0
O176 O 0.10205 0.16091 0.51543 0.0
C177 C 0.10189 0.24675 0.61932 0.0
C178 C 0.16722 0.31432 0.60162 0.0
O179 O 0.1577 0.31902 0.63646 0.0
O180 O 0.15154 0.30722 0.5726 0.0
O181 O 0.73551 0.10479 0.5754 0.0
Cd182 Cd 0.69842 0.12305 0.53543 0.0
O183 O 0.76357 0.1203 0.5317 0.0
Cd184 Cd 0.80153 0.12178 0.50346 0.0
O185 O 0.83006 0.11304 0.45778 0.0
C186 C 0.82523 0.09261 0.4379 0.0
O187 O 0.80457 0.07875 0.44703 0.0
C188 C 0.75891 0.10712 0.56431 0.0
C189 C 0.69503 0.17714 0.53607 0.0
O190 O 0.68616 0.16287 0.5654 0.0
O191 O 0.70595 0.16584 0.50665 0.0
C192 C 0.12187 0.13405 0.00458 0.0
C193 C 0.1082 0.12046 0.03518 0.0
C194 C 0.14356 0.14917 0.01508 0.0
C195 C 0.19531 0.14687 0.09323 0.0
H196 H 0.22051 0.20854 0.03544 0.0
C197 C 0.30122 0.18099 0.11701 0.0
C198 C 0.31412 0.18893 0.08142 0.0
C199 C 0.2742 0.17762 0.11589 0.0
C200 C 0.21379 0.19122 0.05172 0.0
H201 H 0.10485 0.11447 0.10108 0.0
H202 H 0.14271 0.14089 0.11926 0.0
H203 H 0.17493 0.19553 0.02594 0.0
H204 H 0.30881 0.19995 0.01688 0.0
H205 H 0.26182 0.1932 0.01449 0.0
H206 H 0.2342 0.14158 0.11734 0.0
C207 C 0.13688 0.13944 0.08714 0.0
C208 C 0.18766 0.1839 0.04645 0.0
C209 C 0.11512 0.1244 0.07667 0.0
C210 C 0.29942 0.19382 0.04482 0.0
C211 C 0.27242 0.19019 0.04358 0.0
C212 C 0.2214 0.15404 0.09824 0.0
C213 C 0.152 0.15096 0.05637 0.0
C214 C 0.1783 0.16135 0.06656 0.0
C215 C 0.2595 0.18184 0.07903 0.0
C216 C 0.23111 0.176 0.07691 0.0
H217 H 0.11692 0.13167 0.97234 0.0
H218 H 0.15483 0.15778 0.99066 0.0
H219 H 0.18884 0.1291 0.10854 0.0
H220 H 0.31198 0.17738 0.14583 0.0
H221 H 0.26487 0.17161 0.14393 0.0
C222 C 0.88564 0.11387 0.9712 0.0
C223 C 0.89861 0.10362 0.00687 0.0
C224 C 0.86625 0.13279 0.97382 0.0
C225 C 0.84545 0.18423 0.04119 0.0
H226 H 0.78424 0.18684 0.96789 0.0
C227 C 0.78442 0.27774 0.01188 0.0
C228 C 0.75716 0.27527 0.00857 0.0
C229 C 0.80036 0.25562 0.0143 0.0
C230 C 0.80109 0.18627 0.98888 0.0
H231 H 0.9005 0.10445 0.07348 0.0
H232 H 0.86651 0.13739 0.07798 0.0
H233 H 0.81335 0.14922 0.96803 0.0
H234 H 0.72524 0.24762 0.00559 0.0
H235 H 0.75309 0.20901 0.01002 0.0
H236 H 0.83319 0.22125 0.06206 0.0
C237 C 0.87166 0.13103 0.04795 0.0
C238 C 0.81789 0.16483 0.98867 0.0
C239 C 0.89105 0.11205 0.04535 0.0
C240 C 0.74618 0.25019 0.00799 0.0
C241 C 0.76214 0.22806 0.01033 0.0
C242 C 0.82868 0.20568 0.04133 0.0
C243 C 0.85936 0.14193 0.01217 0.0
C244 C 0.84042 0.1637 0.01451 0.0
C245 C 0.78941 0.23053 0.01341 0.0
C246 C 0.80647 0.20709 0.01485 0.0
H247 H 0.89093 0.10783 0.94105 0.0
H248 H 0.85734 0.14096 0.94564 0.0
H249 H 0.86276 0.18409 0.06118 0.0
H250 H 0.79351 0.29677 0.01233 0.0
H251 H 0.82132 0.2582 0.01607 0.0
C252 C 0.89527 0.88813 0.05118 0.0
C253 C 0.9003 0.89377 0.0097 0.0
C254 C 0.87404 0.87269 0.06187 0.0
C255 C 0.822 0.82883 0.02267 0.0
H256 H 0.78087 0.86311 0.10278 0.0
C257 C 0.7121 0.80868 0.0435 0.0
C258 C 0.70229 0.81039 0.08305 0.0
C259 C 0.7382 0.81462 0.03642 0.0
C260 C 0.79226 0.8529 0.08099 0.0
H261 H 0.88817 0.88572 0.9469 0.0
H262 H 0.8508 0.85906 0.96565 0.0
H263 H 0.82372 0.87979 0.08736 0.0
H264 H 0.71245 0.81827 0.14659 0.0
H265 H 0.75801 0.82801 0.1345 0.0
H266 H 0.79011 0.80217 0.01591 0.0
C267 C 0.8634 0.86653 0.9899 0.0
C268 C 0.8169 0.8625 0.07211 0.0
C269 C 0.88476 0.88193 0.97916 0.0
C270 C 0.71934 0.81708 0.11567 0.0
C271 C 0.74544 0.82278 0.10868 0.0
C272 C 0.79728 0.81911 0.03173 0.0
C273 C 0.85724 0.86262 0.03135 0.0
C274 C 0.83199 0.85074 0.04264 0.0
C275 C 0.75507 0.82221 0.06882 0.0
C276 C 0.78202 0.8312 0.06076 0.0
H277 H 0.90684 0.8968 0.07552 0.0
H278 H 0.87013 0.86958 0.09411 0.0
H279 H 0.83324 0.81928 -1e-05 0.0
H280 H 0.69944 0.80358 0.01771 0.0
H281 H 0.74485 0.81423 0.00528 0.0
C282 C 0.1174 0.89156 0.9745 0.0
C283 C 0.10809 0.90533 0.00763 0.0
C284 C 0.13392 0.87009 0.98154 0.0
C285 C 0.14489 0.81853 0.05852 0.0
H286 H 0.2025 0.79898 0.99199 0.0
C287 C 0.19035 0.71663 0.0784 0.0
C288 C 0.196 0.70406 0.04212 0.0
C289 C 0.18509 0.74335 0.0776 0.0
C290 C 0.18634 0.80406 0.01067 0.0
H291 H 0.11042 0.90846 0.07397 0.0
H292 H 0.13904 0.87088 0.08609 0.0
H293 H 0.18378 0.84273 0.98372 0.0
H294 H 0.20145 0.70973 0.97678 0.0
H295 H 0.19128 0.75606 0.97498 0.0
H296 H 0.1462 0.77974 0.08391 0.0
C297 C 0.13336 0.87661 0.05475 0.0
C298 C 0.17574 0.82916 0.00605 0.0
C299 C 0.11704 0.8982 0.04773 0.0
C300 C 0.19722 0.7189 0.00528 0.0
C301 C 0.19155 0.74556 0.00434 0.0
C302 C 0.15522 0.7934 0.06278 0.0
C303 C 0.14131 0.86188 0.02182 0.0
C304 C 0.15469 0.8365 0.02957 0.0
C305 C 0.1849 0.75805 0.04036 0.0
C306 C 0.17583 0.78566 0.0385 0.0
H307 H 0.11105 0.89664 0.94321 0.0
H308 H 0.13965 0.85902 0.95557 0.0
H309 H 0.12837 0.82347 0.07657 0.0
H310 H 0.18959 0.70574 0.10737 0.0
H311 H 0.18069 0.75237 0.10613 0.0
C312 C 0.61164 0.6401 0.47781 0.0
C313 C 0.60299 0.62421 0.51056 0.0
C314 C 0.63249 0.65719 0.48381 0.0
C315 C 0.6924 0.65766 0.54255 0.0
H316 H 0.70055 0.72884 0.50166 0.0
C317 C 0.79185 0.70852 0.55486 0.0
C318 C 0.79868 0.72564 0.5226 0.0
C319 C 0.76645 0.69902 0.55707 0.0
C320 C 0.69871 0.70885 0.51279 0.0
H321 H 0.60802 0.6154 0.576 0.0
H322 H 0.64479 0.6449 0.5861 0.0
H323 H 0.65741 0.7086 0.49946 0.0
H324 H 0.78447 0.74626 0.46722 0.0
H325 H 0.74046 0.72857 0.46962 0.0
H326 H 0.73356 0.65691 0.55352 0.0
C327 C 0.63536 0.64407 0.55589 0.0
C328 C 0.67396 0.69742 0.51187 0.0
C329 C 0.61426 0.62728 0.55007 0.0
C330 C 0.77966 0.7331 0.49249 0.0
C331 C 0.75436 0.72314 0.49417 0.0
C332 C 0.71715 0.66883 0.54273 0.0
C333 C 0.64522 0.65843 0.52251 0.0
C334 C 0.67066 0.67171 0.52665 0.0
C335 C 0.7474 0.70593 0.52649 0.0
C336 C 0.72072 0.69455 0.52768 0.0
H337 H 0.60322 0.63832 0.44707 0.0
H338 H 0.63982 0.66805 0.45759 0.0
H339 H 0.69042 0.63759 0.55334 0.0
H340 H 0.80605 0.70276 0.57885 0.0
H341 H 0.76178 0.68636 0.58298 0.0
C342 C 0.39224 0.61461 0.55685 0.0
C343 C 0.398 0.60575 0.51778 0.0
C344 C 0.37349 0.63404 0.56105 0.0
C345 C 0.31805 0.66808 0.50663 0.0
H346 H 0.33691 0.72497 0.57724 0.0
C347 C 0.24858 0.75463 0.52949 0.0
C348 C 0.25993 0.77955 0.52776 0.0
C349 C 0.26423 0.73229 0.53176 0.0
C350 C 0.33139 0.70925 0.55734 0.0
H351 H 0.38787 0.6098 0.45264 0.0
H352 H 0.35538 0.6437 0.46 0.0
H353 H 0.36588 0.68744 0.57424 0.0
H354 H 0.2966 0.80055 0.52767 0.0
H355 H 0.32386 0.7616 0.53127 0.0
H356 H 0.28398 0.69028 0.48869 0.0
C357 C 0.36521 0.63551 0.48743 0.0
C358 C 0.34783 0.68761 0.55598 0.0
C359 C 0.38397 0.61616 0.4832 0.0
C360 C 0.28724 0.78164 0.52899 0.0
C361 C 0.30288 0.75931 0.53133 0.0
C362 C 0.30157 0.6897 0.50805 0.0
C363 C 0.36002 0.64495 0.52632 0.0
C364 C 0.34152 0.66693 0.53019 0.0
C365 C 0.29155 0.73437 0.53245 0.0
C366 C 0.30823 0.71069 0.53301 0.0
H367 H 0.40258 0.60694 0.58419 0.0
H368 H 0.36968 0.64067 0.59149 0.0
H369 H 0.31251 0.65234 0.48677 0.0
H370 H 0.22759 0.75234 0.52875 0.0
H371 H 0.25491 0.71336 0.53306 0.0
C372 C 0.37793 0.3855 0.492 0.0
C373 C 0.3948 0.39568 0.52241 0.0
C374 C 0.35672 0.37001 0.50297 0.0
C375 C 0.31288 0.36368 0.58812 0.0
H376 H 0.28216 0.30754 0.52612 0.0
C377 C 0.2128 0.32208 0.62814 0.0
C378 C 0.19539 0.31766 0.59488 0.0
C379 C 0.23918 0.32669 0.62164 0.0
C380 C 0.29044 0.3233 0.54361 0.0
H381 H 0.40411 0.39536 0.58795 0.0
H382 H 0.36726 0.3682 0.60691 0.0
H383 H 0.32581 0.32321 0.51042 0.0
H384 H 0.19209 0.31392 0.52881 0.0
H385 H 0.23796 0.32271 0.51729 0.0
H386 H 0.27737 0.36469 0.62016 0.0
C387 C 0.37011 0.3727 0.57467 0.0
C388 C 0.31546 0.33218 0.53471 0.0
C389 C 0.3913 0.38817 0.56374 0.0
C390 C 0.20503 0.31725 0.55509 0.0
C391 C 0.23139 0.3221 0.54853 0.0
C392 C 0.2879 0.35494 0.59684 0.0
C393 C 0.352 0.36437 0.54454 0.0
C394 C 0.32681 0.35269 0.55656 0.0
C395 C 0.24872 0.32726 0.58168 0.0
C396 C 0.27619 0.33488 0.57436 0.0
H397 H 0.38012 0.39078 0.45985 0.0
H398 H 0.34309 0.36395 0.47902 0.0
H399 H 0.32082 0.37989 0.60496 0.0
H400 H 0.20603 0.32223 0.65924 0.0
H401 H 0.25205 0.33009 0.64796 0.0
C402 C 0.61236 0.39452 0.46626 0.0
C403 C 0.6026 0.40756 0.4998 0.0
C404 C 0.62827 0.37251 0.47272 0.0
C405 C 0.63727 0.31912 0.54765 0.0
H406 H 0.69664 0.30062 0.48414 0.0
C407 C 0.6846 0.21838 0.57086 0.0
C408 C 0.69138 0.20572 0.53521 0.0
C409 C 0.67865 0.24496 0.56927 0.0
C410 C 0.67997 0.30541 0.50193 0.0
H411 H 0.60357 0.40881 0.56641 0.0
H412 H 0.63117 0.37048 0.57747 0.0
H413 H 0.67765 0.34427 0.47563 0.0
H414 H 0.69817 0.21109 0.47021 0.0
H415 H 0.68682 0.2572 0.46698 0.0
H416 H 0.63849 0.28021 0.57255 0.0
C417 C 0.62622 0.37708 0.54624 0.0
C418 C 0.6692 0.33044 0.49715 0.0
C419 C 0.61047 0.39911 0.53984 0.0
C420 C 0.69305 0.22035 0.49822 0.0
C421 C 0.68669 0.24687 0.49647 0.0
C422 C 0.6478 0.2941 0.55209 0.0
C423 C 0.63462 0.3631 0.5128 0.0
C424 C 0.64761 0.33745 0.51976 0.0
C425 C 0.67887 0.2594 0.53181 0.0
C426 C 0.66914 0.28678 0.52906 0.0
H427 H 0.60684 0.40061 0.43502 0.0
H428 H 0.6344 0.36206 0.44636 0.0
H429 H 0.62032 0.32379 0.56493 0.0
H430 H 0.68349 0.20767 0.59994 0.0
H431 H 0.67338 0.25406 0.59733 0.0
C432 C 0.04771 0.07453 0.14751 0.0
C433 C 0.02081 0.0697 0.14391 0.0
C434 C 0.0591 0.08235 0.18471 0.0
C435 C 0.04715 0.08655 0.29627 0.0
H436 H 0.09637 0.14372 0.29037 0.0
C437 C 0.09251 0.13207 0.44225 0.0
C438 C 0.09344 0.15945 0.44172 0.0
C439 C 0.08655 0.11888 0.40621 0.0
C440 C 0.08261 0.12779 0.29256 0.0
H441 H 0.98483 0.06862 0.17712 0.0
H442 H 0.00451 0.08274 0.24149 0.0
H443 H 0.08008 0.12428 0.22737 0.0
H444 H 0.08918 0.19442 0.40279 0.0
H445 H 0.07842 0.17152 0.34038 0.0
H446 H 0.04876 0.09089 0.36138 0.0
C447 C 0.01698 0.08013 0.2158 0.0
C448 C 0.07352 0.1164 0.25645 0.0
C449 C 0.00564 0.07227 0.17868 0.0
C450 C 0.08869 0.17332 0.40431 0.0
C451 C 0.0827 0.16016 0.36839 0.0
C452 C 0.05619 0.098 0.3324 0.0
C453 C 0.0438 0.08558 0.21917 0.0
C454 C 0.05533 0.09594 0.25781 0.0
C455 C 0.08139 0.13279 0.36891 0.0
C456 C 0.07366 0.11906 0.33091 0.0
H457 H 0.05993 0.07289 0.12151 0.0
H458 H 0.07988 0.08609 0.18636 0.0
H459 H 0.03343 0.07058 0.29846 0.0
H460 H 0.09619 0.1208 0.47053 0.0
H461 H 0.08599 0.09778 0.40757 0.0
C462 C 0.92285 0.03866 0.11799 0.0
C463 C 0.93951 0.017 0.11881 0.0
C464 C 0.91517 0.04927 0.15468 0.0
C465 C 0.90616 0.02858 0.26218 0.0
H466 H 0.891 0.10173 0.276 0.0
C467 C 0.83588 0.06228 0.38248 0.0
C468 C 0.84184 0.08487 0.4041 0.0
C469 C 0.8509 0.0551 0.34983 0.0
C470 C 0.89544 0.08128 0.27284 0.0
H471 H 0.96211 0.99 0.15793 0.0
H472 H 0.94919 0.00863 0.22208 0.0
H473 H 0.91325 0.08831 0.21499 0.0
H474 H 0.86842 0.11759 0.40854 0.0
H475 H 0.89487 0.10487 0.35143 0.0
H476 H 0.88842 0.02147 0.31982 0.0
C477 C 0.94164 0.01728 0.19331 0.0
C478 C 0.90793 0.07356 0.2377 0.0
C479 C 0.94912 0.00663 0.15667 0.0
C480 C 0.86332 0.10007 0.39247 0.0
C481 C 0.87838 0.09287 0.35965 0.0
C482 C 0.89374 0.03627 0.2972 0.0
C483 C 0.92402 0.03829 0.19282 0.0
C484 C 0.91306 0.04706 0.23169 0.0
C485 C 0.87231 0.0703 0.33797 0.0
C486 C 0.88776 0.06263 0.30258 0.0
H487 H 0.91455 0.04639 0.08917 0.0
H488 H 0.90124 0.06517 0.15314 0.0
H489 H 0.9095 0.00797 0.2584 0.0
H490 H 0.81942 0.05017 0.39048 0.0
H491 H 0.8454 0.03784 0.33335 0.0
C492 C 0.98811 0.94201 0.14815 0.0
C493 C 0.9849 0.93203 0.1088 0.0
C494 C 0.97351 0.93208 0.18039 0.0
C495 C 0.94019 0.87306 0.2157 0.0
H496 H 0.91045 0.91921 0.29359 0.0
C497 C 0.88567 0.83451 0.35825 0.0
C498 C 0.89194 0.84697 0.39508 0.0
C499 C 0.89404 0.84493 0.32073 0.0
C500 C 0.91877 0.90606 0.27224 0.0
H501 H 0.96549 0.90288 0.0724 0.0
H502 H 0.93988 0.88516 0.12907 0.0
H503 H 0.93054 0.93756 0.23243 0.0
H504 H 0.9119 0.88011 0.42139 0.0
H505 H 0.92673 0.89793 0.35642 0.0
H506 H 0.92912 0.84158 0.25609 0.0
C507 C 0.95305 0.90124 0.13466 0.0
C508 C 0.93022 0.91657 0.23721 0.0
C509 C 0.96738 0.91153 0.10221 0.0
C510 C 0.90663 0.87005 0.3936 0.0
C511 C 0.91497 0.88041 0.35625 0.0
C512 C 0.92882 0.86253 0.25088 0.0
C513 C 0.9559 0.91151 0.17403 0.0
C514 C 0.9415 0.90021 0.20899 0.0
C515 C 0.90879 0.86802 0.31935 0.0
C516 C 0.91846 0.87894 0.27997 0.0
H517 H 0.00191 0.95755 0.15394 0.0
H518 H 0.9765 0.94005 0.21055 0.0
H519 H 0.94893 0.85999 0.19464 0.0
H520 H 0.87432 0.81672 0.35838 0.0
H521 H 0.8888 0.83502 0.29279 0.0
C522 C 0.11578 0.99544 0.1395 0.0
C523 C 0.09351 0.98581 0.11872 0.0
C524 C 0.13135 0.97898 0.16497 0.0
C525 C 0.12731 0.92037 0.22985 0.0
H526 H 0.20281 0.9248 0.23434 0.0
C527 C 0.18675 0.86655 0.35857 0.0
C528 C 0.20608 0.88166 0.37801 0.0
C529 C 0.17565 0.87461 0.32048 0.0
C530 C 0.18174 0.92338 0.23358 0.0
H531 H 0.07039 0.95128 0.1085 0.0
H532 H 0.09738 0.92251 0.1532 0.0
H533 H 0.1779 0.94823 0.17957 0.0
H534 H 0.23002 0.91628 0.3715 0.0
H535 H 0.21031 0.93065 0.30584 0.0
H536 H 0.13085 0.89669 0.28482 0.0
C537 C 0.1028 0.94282 0.14951 0.0
C538 C 0.16751 0.93675 0.20216 0.0
C539 C 0.08737 0.95928 0.12369 0.0
C540 C 0.21516 0.90418 0.35742 0.0
C541 C 0.20392 0.91235 0.31953 0.0
C542 C 0.1415 0.90719 0.26145 0.0
C543 C 0.12486 0.95256 0.1706 0.0
C544 C 0.14014 0.93583 0.20055 0.0
C545 C 0.1835 0.89808 0.30114 0.0
C546 C 0.16887 0.90902 0.26427 0.0
H547 H 0.12115 0.0158 0.13629 0.0
H548 H 0.14804 0.98714 0.18127 0.0
H549 H 0.10621 0.91952 0.22963 0.0
H550 H 0.17952 0.84894 0.37342 0.0
H551 H 0.16037 0.86285 0.30678 0.0
C552 C 0.10807 0.02192 0.84085 0.0
C553 C 0.0999 0.00729 0.87525 0.0
C554 C 0.11977 0.00963 0.80854 0.0
C555 C 0.12572 0.94601 0.76072 0.0
H556 H 0.18668 0.97699 0.7118 0.0
C557 C 0.1656 0.91281 0.60775 0.0
C558 C 0.19279 0.91098 0.60466 0.0
C559 C 0.15482 0.92339 0.64225 0.0
C560 C 0.16981 0.96798 0.7254 0.0
H561 H 0.09732 0.96825 0.9025 0.0
H562 H 0.11776 0.94689 0.84621 0.0
H563 H 0.16666 0.99805 0.76902 0.0
H564 H 0.23001 0.9184 0.63571 0.0
H565 H 0.21109 0.93691 0.69615 0.0
H566 H 0.12892 0.91589 0.71724 0.0
C567 C 0.115 0.96782 0.84411 0.0
C568 C 0.15817 0.9802 0.75782 0.0
C569 C 0.10339 0.9801 0.87644 0.0
C570 C 0.20898 0.91957 0.63716 0.0
C571 C 0.19817 0.93031 0.67163 0.0
C572 C 0.13727 0.93387 0.72819 0.0
C573 C 0.12342 0.98245 0.80989 0.0
C574 C 0.13594 0.96938 0.77572 0.0
C575 C 0.17098 0.93248 0.67438 0.0
C576 C 0.15938 0.94478 0.71006 0.0
H577 H 0.10551 0.04288 0.83889 0.0
H578 H 0.12572 0.02137 0.7823 0.0
H579 H 0.1085 0.9373 0.77369 0.0
H580 H 0.15257 0.90637 0.58326 0.0
H581 H 0.13381 0.92505 0.64326 0.0
C582 C 0.03194 0.06108 0.83173 0.0
C583 C 0.0072 0.06896 0.84393 0.0
C584 C 0.04379 0.07387 0.7987 0.0
C585 C 0.03124 0.12254 0.71215 0.0
H586 H 0.10286 0.14257 0.73596 0.0
C587 C 0.08134 0.20239 0.61448 0.0
C588 C 0.0953 0.22086 0.6373 0.0
C589 C 0.07354 0.17884 0.63312 0.0
C590 C 0.08286 0.13716 0.72879 0.0
H591 H 0.97481 0.09526 0.82933 0.0
H592 H 0.99551 0.11776 0.77275 0.0
H593 H 0.08231 0.10989 0.77969 0.0
H594 H 0.11219 0.22908 0.69737 0.0
H595 H 0.09803 0.18861 0.73009 0.0
H596 H 0.03117 0.1512 0.66312 0.0
C597 C 0.00578 0.10158 0.78812 0.0
C598 C 0.07116 0.11809 0.75355 0.0
C599 C 0.99396 0.0888 0.82096 0.0
C600 C 0.10157 0.21517 0.6789 0.0
C601 C 0.09369 0.19178 0.69755 0.0
C602 C 0.04286 0.14177 0.68761 0.0
C603 C 0.03111 0.09477 0.7772 0.0
C604 C 0.04491 0.1112 0.7464 0.0
C605 C 0.07929 0.17342 0.67507 0.0
C606 C 0.06854 0.14996 0.69651 0.0
H607 H 0.04255 0.04567 0.84853 0.0
H608 H 0.06314 0.06783 0.79069 0.0
H609 H 0.01116 0.11732 0.70524 0.0
H610 H 0.07537 0.20651 0.58282 0.0
H611 H 0.06253 0.16514 0.61485 0.0
C612 C 0.92926 0.02092 0.80522 0.0
C613 C 0.92239 0.99677 0.82339 0.0
C614 C 0.91392 0.03202 0.77281 0.0
C615 C 0.84631 0.03217 0.73492 0.0
H616 H 0.87171 0.06543 0.63558 0.0
C617 C 0.77463 0.06946 0.60833 0.0
C618 C 0.77991 0.09342 0.58842 0.0
C619 C 0.79361 0.05703 0.63361 0.0
C620 C 0.86434 0.05647 0.66338 0.0
H621 H 0.89506 0.96456 0.81999 0.0
H622 H 0.8684 0.98396 0.76382 0.0
H623 H 0.90265 0.04485 0.68567 0.0
H624 H 0.80915 0.12327 0.57935 0.0
H625 H 0.84234 0.1018 0.62436 0.0
H626 H 0.80826 0.0442 0.71385 0.0
C627 C 0.88538 0.99448 0.77499 0.0
C628 C 0.88206 0.04464 0.69194 0.0
C629 C 0.90071 0.98336 0.80712 0.0
C630 C 0.80475 0.10455 0.59372 0.0
C631 C 0.82373 0.09224 0.61955 0.0
C632 C 0.82872 0.04415 0.70675 0.0
C633 C 0.89142 0.01919 0.75821 0.0
C634 C 0.87313 0.03214 0.72777 0.0
C635 C 0.81822 0.06851 0.64033 0.0
C636 C 0.83741 0.05622 0.67037 0.0
H637 H 0.94592 0.0317 0.81694 0.0
H638 H 0.91898 0.05112 0.76044 0.0
H639 H 0.83893 0.0232 0.76273 0.0
H640 H 0.7557 0.06034 0.60447 0.0
H641 H 0.78886 0.03847 0.64822 0.0
C642 C 0.97034 0.92008 0.86124 0.0
C643 C 0.97725 0.90859 0.89978 0.0
C644 C 0.9517 0.90845 0.83565 0.0
C645 C 0.93075 0.84498 0.80852 0.0
H646 H 0.87589 0.88105 0.74457 0.0
C647 C 0.88164 0.79645 0.66985 0.0
C648 C 0.8773 0.8127 0.63479 0.0
C649 C 0.88741 0.80716 0.70799 0.0
C650 C 0.89124 0.87071 0.76195 0.0
H651 H 0.96926 0.87664 0.94268 0.0
H652 H 0.93724 0.85571 0.89702 0.0
H653 H 0.89786 0.90275 0.8017 0.0
H654 H 0.87487 0.85286 0.61224 0.0
H655 H 0.88617 0.8715 0.67791 0.0
H656 H 0.92591 0.81381 0.76734 0.0
C657 C 0.94613 0.87386 0.88698 0.0
C658 C 0.9036 0.88308 0.79486 0.0
C659 C 0.96444 0.88579 0.91297 0.0
C660 C 0.87802 0.83984 0.63879 0.0
C661 C 0.8843 0.85053 0.67668 0.0
C662 C 0.91878 0.8328 0.77519 0.0
C663 C 0.93998 0.88487 0.84784 0.0
C664 C 0.92385 0.87052 0.81778 0.0
C665 C 0.88952 0.83435 0.7117 0.0
C666 C 0.89933 0.84576 0.75074 0.0
H667 H 0.97966 0.93785 0.85054 0.0
H668 H 0.94738 0.91722 0.80548 0.0
H669 H 0.94656 0.83503 0.82548 0.0
H670 H 0.88086 0.77545 0.66775 0.0
H671 H 0.89071 0.79407 0.73438 0.0
C672 C 0.55318 0.57902 0.63357 0.0
C673 C 0.52643 0.57357 0.63566 0.0
C674 C 0.56723 0.588 0.66789 0.0
C675 C 0.56367 0.59443 0.78105 0.0
H676 H 0.60883 0.65397 0.76347 0.0
C677 C 0.61024 0.64838 0.91743 0.0
C678 C 0.60886 0.67573 0.91417 0.0
C679 C 0.605 0.63335 0.88307 0.0
C680 C 0.59627 0.63736 0.76891 0.0
H681 H 0.49362 0.57257 0.67609 0.0
H682 H 0.5178 0.58854 0.73521 0.0
H683 H 0.59008 0.63166 0.70456 0.0
H684 H 0.60164 0.70874 0.87204 0.0
H685 H 0.59193 0.68264 0.81257 0.0
H686 H 0.56858 0.60099 0.84524 0.0
C687 C 0.52816 0.58558 0.70734 0.0
C688 C 0.58579 0.62434 0.73513 0.0
C689 C 0.51421 0.57664 0.67317 0.0
C690 C 0.60288 0.68772 0.87563 0.0
C691 C 0.59752 0.67272 0.84138 0.0
C692 C 0.57403 0.6075 0.81479 0.0
C693 C 0.55478 0.59164 0.70507 0.0
C694 C 0.56881 0.60314 0.74079 0.0
C695 C 0.59815 0.64534 0.84477 0.0
C696 C 0.58994 0.62953 0.80912 0.0
H697 H 0.56319 0.57694 0.60537 0.0
H698 H 0.58777 0.59228 0.6652 0.0
H699 H 0.55102 0.57788 0.78651 0.0
H700 H 0.61501 0.63854 0.94663 0.0
H701 H 0.60604 0.61232 0.88664 0.0
C702 C 0.43801 0.50038 0.67422 0.0
C703 C 0.43806 0.51621 0.63825 0.0
C704 C 0.4332 0.51098 0.71203 0.0
C705 C 0.42711 0.57317 0.76672 0.0
H706 H 0.38248 0.53085 0.83556 0.0
C707 C 0.36841 0.61144 0.90183 0.0
C708 C 0.3663 0.59483 0.93676 0.0
C709 C 0.38141 0.60318 0.86753 0.0
C710 C 0.39528 0.54276 0.81705 0.0
H711 H 0.43322 0.55568 0.61401 0.0
H712 H 0.42398 0.57431 0.67992 0.0
H713 H 0.39669 0.51408 0.77135 0.0
H714 H 0.3777 0.55722 0.96404 0.0
H715 H 0.40033 0.54288 0.90424 0.0
H716 H 0.42469 0.60226 0.81234 0.0
C717 C 0.42841 0.55372 0.67902 0.0
C718 C 0.4035 0.53313 0.78016 0.0
C719 C 0.43365 0.54306 0.64112 0.0
C720 C 0.37874 0.57041 0.93753 0.0
C721 C 0.39162 0.56214 0.90322 0.0
C722 C 0.41864 0.58293 0.80365 0.0
C723 C 0.42766 0.53767 0.71483 0.0
C724 C 0.41956 0.54815 0.7545 0.0
C725 C 0.39246 0.57813 0.86746 0.0
C726 C 0.40266 0.56777 0.82918 0.0
H727 H 0.44139 0.47962 0.67314 0.0
H728 H 0.43342 0.49808 0.73901 0.0
H729 H 0.43966 0.58515 0.7479 0.0
H730 H 0.35915 0.63044 0.90033 0.0
H731 H 0.38165 0.61589 0.84036 0.0
C732 C 0.4963 0.45462 0.65791 0.0
C733 C 0.48592 0.4436 0.62205 0.0
C734 C 0.48653 0.44768 0.69612 0.0
C735 C 0.43155 0.41485 0.74783 0.0
H736 H 0.48426 0.40093 0.83399 0.0
C737 C 0.41336 0.35255 0.89512 0.0
C738 C 0.42585 0.35987 0.93209 0.0
C739 C 0.41817 0.36605 0.85825 0.0
C740 C 0.46922 0.40515 0.81056 0.0
H741 H 0.45753 0.41656 0.59783 0.0
H742 H 0.44007 0.40444 0.66469 0.0
H743 H 0.49716 0.41835 0.76761 0.0
H744 H 0.45227 0.38787 0.95955 0.0
H745 H 0.46059 0.41148 0.89518 0.0
H746 H 0.40369 0.40088 0.79084 0.0
C747 C 0.45538 0.41892 0.66323 0.0
C748 C 0.47662 0.41516 0.77242 0.0
C749 C 0.46519 0.42595 0.62489 0.0
C750 C 0.44248 0.3816 0.9316 0.0
C751 C 0.44734 0.39507 0.89469 0.0
C752 C 0.42413 0.40473 0.78608 0.0
C753 C 0.46631 0.42934 0.69938 0.0
C754 C 0.45793 0.41996 0.74048 0.0
C755 C 0.43562 0.38713 0.85749 0.0
C756 C 0.44294 0.39958 0.81775 0.0
H757 H 0.51228 0.46837 0.65644 0.0
H758 H 0.49504 0.45648 0.7232 0.0
H759 H 0.41664 0.41865 0.72404 0.0
H760 H 0.40035 0.33595 0.89442 0.0
H761 H 0.40902 0.3593 0.8301 0.0
C762 C 0.58669 0.46353 0.61082 0.0
C763 C 0.59326 0.48973 0.6033 0.0
C764 C 0.60194 0.44767 0.63777 0.0
C765 C 0.66648 0.4426 0.69222 0.0
H766 H 0.62856 0.40204 0.77283 0.0
C767 C 0.71172 0.40677 0.84834 0.0
C768 C 0.70266 0.3834 0.86643 0.0
C769 C 0.70095 0.41622 0.81079 0.0
C770 C 0.63954 0.41277 0.75009 0.0
H771 H 0.6216 0.51973 0.61784 0.0
H772 H 0.64804 0.49222 0.66524 0.0
H773 H 0.60473 0.4253 0.71729 0.0
H774 H 0.67654 0.35066 0.85774 0.0
H775 H 0.65811 0.36692 0.79188 0.0
H776 H 0.7013 0.43048 0.72572 0.0
C777 C 0.6312 0.48377 0.64979 0.0
C778 C 0.62583 0.42617 0.71824 0.0
C779 C 0.61587 0.4996 0.62287 0.0
C780 C 0.68377 0.36887 0.84488 0.0
C781 C 0.67309 0.37827 0.80723 0.0
C782 C 0.68023 0.42911 0.72407 0.0
C783 C 0.6242 0.4577 0.65795 0.0
C784 C 0.6391 0.4416 0.68936 0.0
C785 C 0.68097 0.40245 0.79037 0.0
C786 C 0.66687 0.4144 0.75381 0.0
H787 H 0.56947 0.45532 0.59689 0.0
H788 H 0.59612 0.4276 0.64314 0.0
H789 H 0.67726 0.45404 0.67006 0.0
H790 H 0.72627 0.41845 0.86407 0.0
H791 H 0.70736 0.435 0.79891 0.0
C792 C 0.60721 0.51594 0.33304 0.0
C793 C 0.60032 0.50312 0.36985 0.0
C794 C 0.61943 0.50232 0.30264 0.0
C795 C 0.6287 0.43637 0.26484 0.0
H796 H 0.68553 0.46863 0.20654 0.0
C797 C 0.66382 0.40045 0.11038 0.0
C798 C 0.69068 0.40106 0.10329 0.0
C799 C 0.65415 0.4107 0.14598 0.0
C800 C 0.6699 0.45922 0.22285 0.0
H801 H 0.60082 0.46595 0.40354 0.0
H802 H 0.62214 0.44221 0.35042 0.0
H803 H 0.66618 0.49122 0.26276 0.0
H804 H 0.72857 0.41209 0.12872 0.0
H805 H 0.71163 0.42998 0.19106 0.0
H806 H 0.63238 0.40439 0.22482 0.0
C807 C 0.61794 0.46274 0.34502 0.0
C808 C 0.65861 0.4723 0.25471 0.0
C809 C 0.60581 0.47638 0.3755 0.0
C810 C 0.70776 0.41141 0.13321 0.0
C811 C 0.69806 0.42178 0.16879 0.0
C812 C 0.63992 0.42333 0.23285 0.0
C813 C 0.62495 0.47559 0.3083 0.0
C814 C 0.63771 0.46114 0.27576 0.0
C815 C 0.67111 0.42186 0.17526 0.0
C816 C 0.66047 0.43473 0.21123 0.0
H817 H 0.60314 0.5365 0.32764 0.0
H818 H 0.62424 0.51267 0.27442 0.0
H819 H 0.61252 0.42734 0.28032 0.0
H820 H 0.65013 0.39258 0.08799 0.0
H821 H 0.63327 0.4107 0.14985 0.0
C822 C 0.52744 0.56139 0.33738 0.0
C823 C 0.50336 0.57061 0.3503 0.0
C824 C 0.54017 0.57424 0.30529 0.0
C825 C 0.53063 0.62368 0.21994 0.0
H826 H 0.60318 0.6402 0.24398 0.0
C827 C 0.58747 0.69528 0.11621 0.0
C828 C 0.60157 0.71435 0.13752 0.0
C829 C 0.57782 0.67332 0.13722 0.0
C830 C 0.58295 0.63569 0.23674 0.0
H831 H 0.47299 0.59956 0.33796 0.0
H832 H 0.49513 0.62194 0.28245 0.0
H833 H 0.58061 0.60942 0.28878 0.0
H834 H 0.61691 0.72528 0.1973 0.0
H835 H 0.59991 0.68725 0.234 0.0
H836 H 0.53257 0.65101 0.16919 0.0
C837 C 0.50424 0.60477 0.29688 0.0
C838 C 0.57009 0.61781 0.26214 0.0
C839 C 0.49161 0.59203 0.32899 0.0
C840 C 0.60624 0.71081 0.18004 0.0
C841 C 0.59668 0.68888 0.201 0.0
C842 C 0.54349 0.64156 0.19453 0.0
C843 C 0.52893 0.59641 0.28524 0.0
C844 C 0.54357 0.61216 0.2547 0.0
C845 C 0.58204 0.67005 0.17997 0.0
C846 C 0.5696 0.64831 0.2033 0.0
H847 H 0.53682 0.54471 0.3528 0.0
H848 H 0.55902 0.5671 0.29668 0.0
H849 H 0.51029 0.61947 0.21305 0.0
H850 H 0.58282 0.69785 0.08371 0.0
H851 H 0.56662 0.65916 0.12013 0.0
C852 C 0.42729 0.52325 0.3175 0.0
C853 C 0.42085 0.49868 0.33463 0.0
C854 C 0.41318 0.53356 0.28314 0.0
C855 C 0.34771 0.52944 0.23669 0.0
H856 H 0.37559 0.5677 0.14356 0.0
C857 C 0.27933 0.56719 0.10632 0.0
C858 C 0.2836 0.59248 0.0904 0.0
C859 C 0.29827 0.5546 0.13149 0.0
C860 C 0.36751 0.55725 0.16957 0.0
H861 H 0.39603 0.4648 0.3272 0.0
H862 H 0.37159 0.48274 0.2675 0.0
H863 H 0.40544 0.54772 0.19595 0.0
H864 H 0.31112 0.62441 0.08788 0.0
H865 H 0.34419 0.60263 0.1327 0.0
H866 H 0.30996 0.5394 0.21166 0.0
C867 C 0.38713 0.49426 0.28106 0.0
C868 C 0.38461 0.54579 0.19945 0.0
C869 C 0.40118 0.48398 0.31523 0.0
C870 C 0.30753 0.60472 0.09916 0.0
C871 C 0.32644 0.59222 0.12488 0.0
C872 C 0.33072 0.541 0.2072 0.0
C873 C 0.39242 0.51946 0.26542 0.0
C874 C 0.37482 0.53161 0.23315 0.0
C875 C 0.32177 0.56722 0.14209 0.0
C876 C 0.34033 0.5549 0.17307 0.0
H877 H 0.44245 0.53499 0.33162 0.0
H878 H 0.41766 0.55304 0.27174 0.0
H879 H 0.33956 0.51918 0.26283 0.0
H880 H 0.26113 0.55721 0.09971 0.0
H881 H 0.29425 0.5351 0.14327 0.0
C882 C 0.45819 0.42128 0.36031 0.0
C883 C 0.48284 0.43235 0.35418 0.0
C884 C 0.44557 0.40749 0.32924 0.0
C885 C 0.44473 0.3924 0.21909 0.0
H886 H 0.4254 0.32338 0.25903 0.0
C887 C 0.42785 0.30499 0.1128 0.0
C888 C 0.41027 0.2856 0.12522 0.0
C889 C 0.43318 0.32615 0.13784 0.0
C890 C 0.43006 0.34272 0.24723 0.0
H891 H 0.51279 0.43918 0.3097 0.0
H892 H 0.49075 0.41485 0.25546 0.0
H893 H 0.4401 0.3555 0.30743 0.0
H894 H 0.38317 0.27378 0.17172 0.0
H895 H 0.39144 0.3111 0.21438 0.0
H896 H 0.43477 0.37945 0.15868 0.0
C897 C 0.48119 0.41695 0.28428 0.0
C898 C 0.43858 0.36114 0.27511 0.0
C899 C 0.49388 0.4307 0.31546 0.0
C900 C 0.39707 0.28836 0.16178 0.0
C901 C 0.40197 0.30966 0.18632 0.0
C902 C 0.43587 0.37398 0.19106 0.0
C903 C 0.45732 0.4045 0.29138 0.0
C904 C 0.44623 0.38608 0.26139 0.0
C905 C 0.42074 0.32839 0.17544 0.0
C906 C 0.42864 0.34881 0.2048 0.0
H907 H 0.44911 0.42223 0.38973 0.0
H908 H 0.42701 0.39835 0.33532 0.0
H909 H 0.45046 0.41155 0.20774 0.0
H910 H 0.43849 0.3031 0.08494 0.0
H911 H 0.44792 0.34001 0.12862 0.0
loop_
_geom_bond_atom_site_label_1
_geom_bond_atom_site_label_2
_geom_bond_distance
_geom_bond_site_symmetry_2
_ccdc_geom_bond_type
Zn0 O2 1.933 1_556 S
Zn0 O20 1.985 . S
Zn0 O31 1.962 . S
Zn1 O2 1.911 . S
Zn1 O21 1.970 . S
Zn1 O37 1.964 . S
Zn1 O44 1.981 . S
O2 Zn0 1.933 1_554 S
O2 Zn1 1.911 . S
O2 H3 0.841 1_655 S
H3 O2 0.841 1_455 S
C4 O5 1.246 . S
C4 O33 1.288 . S
O5 C4 1.246 . S
Zn6 O8 1.911 . S
Zn6 O23 1.970 . S
Zn6 O40 1.945 . S
Zn6 O47 1.981 . S
Zn7 O8 1.933 1_556 S
Zn7 O22 1.985 . S
Zn7 O29 1.955 . S
O8 Zn6 1.911 . S
O8 Zn7 1.933 1_554 S
O8 H9 0.841 1_455 S
H9 O8 0.841 1_655 S
Zn10 O11 1.933 1_556 S
Zn10 O24 1.985 . S
Zn10 O33 1.950 1_565 S
O11 Zn10 1.933 1_554 S
O11 Zn12 1.911 . S
O11 H13 0.841 1_565 S
Zn12 O11 1.911 . S
Zn12 O25 1.970 . S
Zn12 O41 1.981 . S
Zn12 O43 1.945 . S
H13 O11 0.841 1_545 S
Zn14 O15 1.933 1_556 S
Zn14 O27 1.985 . S
Zn14 O35 1.955 . S
O15 Zn14 1.933 1_554 S
O15 H16 0.841 1_545 S
O15 Zn17 1.911 . S
H16 O15 0.841 1_565 S
Zn17 O15 1.911 . S
Zn17 O28 1.970 . S
Zn17 O38 1.981 . S
Zn17 O46 1.945 . S
C18 O19 1.246 . S
C18 O35 1.276 1_565 S
O19 C18 1.246 . S
O20 Zn0 1.985 . S
O20 C30 1.245 1_556 S
O21 Zn1 1.970 . S
O21 C30 1.263 . S
O22 Zn7 1.985 . S
O22 C34 1.245 1_556 S
O23 Zn6 1.970 . S
O23 C34 1.263 . S
O24 Zn10 1.985 . S
O24 C39 1.245 1_556 S
O25 Zn12 1.970 . S
O25 C39 1.263 . S
C26 O37 1.222 1_455 S
C26 O38 1.245 . S
O27 Zn14 1.985 . S
O27 C45 1.245 1_556 S
O28 Zn17 1.970 . S
O28 C45 1.263 . S
O29 Zn7 1.955 . S
O29 C48 1.276 1_455 S
C30 O20 1.245 1_554 S
C30 O21 1.263 . S
O31 Zn0 1.962 . S
O31 C50 1.258 1_655 S
C32 O40 1.262 1_655 S
C32 O41 1.245 . S
O33 C4 1.288 . S
O33 Zn10 1.950 1_545 S
C34 O22 1.245 1_554 S
C34 O23 1.263 . S
O35 Zn14 1.955 . S
O35 C18 1.276 1_545 S
C36 O43 1.262 1_545 S
C36 O44 1.245 . S
O37 Zn1 1.964 . S
O37 C26 1.222 1_655 S
O38 Zn17 1.981 . S
O38 C26 1.245 . S
C39 O24 1.245 1_554 S
C39 O25 1.263 . S
O40 Zn6 1.945 . S
O40 C32 1.262 1_455 S
O41 Zn12 1.981 . S
O41 C32 1.245 . S
C42 O46 1.262 1_565 S
C42 O47 1.245 . S
O43 Zn12 1.945 . S
O43 C36 1.262 1_565 S
O44 Zn1 1.981 . S
O44 C36 1.245 . S
C45 O27 1.245 1_554 S
C45 O28 1.263 . S
O46 Zn17 1.945 . S
O46 C42 1.262 1_545 S
O47 Zn6 1.981 . S
O47 C42 1.245 . S
C48 O29 1.276 1_655 S
C48 O49 1.246 . S
O49 C48 1.246 . S
C50 O31 1.258 1_455 S
C50 O51 1.246 . S
O51 C50 1.246 . S
Zn52 O54 1.933 . S
Zn52 O72 1.985 . S
Zn52 O83 1.955 . S
Zn53 O54 1.911 . S
Zn53 O73 1.970 . S
Zn53 O89 1.945 . S
Zn53 O96 1.981 . S
O54 Zn52 1.933 . S
O54 Zn53 1.911 . S
O54 H55 0.841 . S
H55 O54 0.841 . S
C56 O57 1.246 . S
C56 O85 1.276 . S
O57 C56 1.246 . S
Zn58 O60 1.911 . S
Zn58 O75 1.970 . S
Zn58 O92 1.945 . S
Zn58 O99 1.981 . S
Zn59 O60 1.933 . S
Zn59 O74 1.985 . S
Zn59 O81 1.955 . S
O60 Zn58 1.911 . S
O60 Zn59 1.933 . S
O60 H61 0.841 . S
H61 O60 0.841 . S
Zn62 O63 1.933 . S
Zn62 O76 1.985 . S
Zn62 O85 1.955 . S
O63 Zn62 1.933 . S
O63 Zn64 1.911 . S
O63 H65 0.841 . S
Zn64 O63 1.911 . S
Zn64 O77 1.970 . S
Zn64 O93 1.981 . S
Zn64 O95 1.945 . S
H65 O63 0.841 . S
Zn66 O67 1.933 . S
Zn66 O79 1.985 . S
Zn66 O87 1.955 . S
O67 Zn66 1.933 . S
O67 H68 0.841 . S
O67 Zn69 1.911 . S
H68 O67 0.841 . S
Zn69 O67 1.911 . S
Zn69 O80 1.970 . S
Zn69 O90 1.981 . S
Zn69 O98 1.945 . S
C70 O71 1.246 . S
C70 O87 1.276 . S
O71 C70 1.246 . S
O72 Zn52 1.985 . S
O72 C82 1.245 . S
O73 Zn53 1.970 . S
O73 C82 1.263 . S
O74 Zn59 1.985 . S
O74 C86 1.245 . S
O75 Zn58 1.970 . S
O75 C86 1.263 . S
O76 Zn62 1.985 . S
O76 C91 1.245 . S
O77 Zn64 1.970 . S
O77 C91 1.263 . S
C78 O89 1.262 . S
C78 O90 1.245 . S
O79 Zn66 1.985 . S
O79 C97 1.245 . S
O80 Zn69 1.970 . S
O80 C97 1.263 . S
O81 Zn59 1.955 . S
O81 C100 1.276 . S
C82 O72 1.245 . S
C82 O73 1.263 . S
O83 Zn52 1.955 . S
O83 C102 1.276 . S
C84 O92 1.262 . S
C84 O93 1.245 . S
O85 C56 1.276 . S
O85 Zn62 1.955 . S
C86 O74 1.245 . S
C86 O75 1.263 . S
O87 Zn66 1.955 . S
O87 C70 1.276 . S
C88 O95 1.262 . S
C88 O96 1.245 . S
O89 Zn53 1.945 . S
O89 C78 1.262 . S
O90 Zn69 1.981 . S
O90 C78 1.245 . S
C91 O76 1.245 . S
C91 O77 1.263 . S
O92 Zn58 1.945 . S
O92 C84 1.262 . S
O93 Zn64 1.981 . S
O93 C84 1.245 . S
C94 O98 1.262 . S
C94 O99 1.245 . S
O95 Zn64 1.945 . S
O95 C88 1.262 . S
O96 Zn53 1.981 . S
O96 C88 1.245 . S
C97 O79 1.245 . S
C97 O80 1.263 . S
O98 Zn69 1.945 . S
O98 C94 1.262 . S
O99 Zn58 1.981 . S
O99 C94 1.245 . S
C100 O81 1.276 . S
C100 O101 1.246 . S
O101 C100 1.246 . S
C102 O83 1.276 . S
C102 O103 1.246 . S
O103 C102 1.246 . S
O104 Cd105 2.300 . S
O104 C111 1.275 . S
Cd105 O104 2.300 . S
Cd105 O113 2.381 . S
Cd105 O114 2.378 . S
O106 Cd107 2.385 1_554 S
O106 C111 1.255 . S
Cd107 O106 2.385 1_556 S
Cd107 O108 2.317 . S
O108 Cd107 2.317 . S
O108 C109 1.232 . S
C109 O108 1.232 . S
C109 O110 1.218 . S
O110 C109 1.218 . S
C111 O104 1.275 . S
C111 O106 1.255 . S
C112 O113 1.258 . S
C112 O114 1.256 . S
O113 Cd105 2.381 . S
O113 C112 1.258 . S
O114 Cd105 2.378 . S
O114 C112 1.256 . S
O115 Cd116 2.300 . S
O115 C122 1.275 . S
Cd116 O115 2.300 . S
Cd116 O124 2.381 . S
Cd116 O125 2.378 1_556 S
O117 Cd118 2.385 1_556 S
O117 C122 1.255 . S
Cd118 O117 2.385 1_554 S
Cd118 O119 2.317 . S
O119 Cd118 2.317 . S
O119 C120 1.232 . S
C120 O119 1.232 . S
C120 O121 1.218 . S
O121 C120 1.218 . S
C122 O115 1.275 . S
C122 O117 1.255 . S
C123 O124 1.258 . S
C123 O125 1.256 1_556 S
O124 Cd116 2.381 . S
O124 C123 1.258 . S
O125 Cd116 2.378 1_554 S
O125 C123 1.256 1_554 S
O126 Cd127 2.300 . S
O126 C133 1.275 . S
Cd127 O126 2.300 . S
Cd127 O135 2.381 . S
Cd127 O136 2.378 . S
O128 Cd129 2.385 1_554 S
O128 C133 1.255 . S
Cd129 O128 2.385 1_556 S
Cd129 O130 2.317 . S
O130 Cd129 2.317 . S
O130 C131 1.232 . S
C131 O130 1.232 . S
C131 O132 1.218 . S
O132 C131 1.218 . S
C133 O126 1.275 . S
C133 O128 1.255 . S
C134 O135 1.258 . S
C134 O136 1.256 . S
O135 Cd127 2.381 . S
O135 C134 1.258 . S
O136 Cd127 2.378 . S
O136 C134 1.256 . S
O137 Cd138 2.300 . S
O137 C144 1.275 . S
Cd138 O137 2.300 . S
Cd138 O146 2.381 . S
Cd138 O147 2.374 1_554 S
O139 Cd140 2.385 1_554 S
O139 C144 1.255 . S
Cd140 O139 2.385 1_556 S
Cd140 O141 2.317 . S
O141 Cd140 2.317 . S
O141 C142 1.232 . S
C142 O141 1.232 . S
C142 O143 1.218 . S
O143 C142 1.218 . S
C144 O137 1.275 . S
C144 O139 1.255 . S
C145 O146 1.258 . S
C145 O147 1.247 1_554 S
O146 Cd138 2.381 . S
O146 C145 1.258 . S
O147 Cd138 2.374 1_556 S
O147 C145 1.247 1_556 S
O148 Cd149 2.300 . S
O148 C155 1.275 . S
Cd149 O148 2.300 . S
Cd149 O157 2.381 . S
Cd149 O158 2.378 . S
O150 Cd151 2.385 . S
O150 C155 1.255 . S
Cd151 O150 2.385 . S
Cd151 O152 2.317 . S
O152 Cd151 2.317 . S
O152 C153 1.232 . S
C153 O152 1.232 . S
C153 O154 1.218 . S
O154 C153 1.218 . S
C155 O148 1.275 . S
C155 O150 1.255 . S
C156 O157 1.258 . S
C156 O158 1.256 . S
O157 Cd149 2.381 . S
O157 C156 1.258 . S
O158 Cd149 2.378 . S
O158 C156 1.256 . S
O159 Cd160 2.300 . S
O159 C166 1.275 . S
Cd160 O159 2.300 . S
Cd160 O168 2.381 . S
Cd160 O169 2.378 . S
O161 Cd162 2.385 . S
O161 C166 1.255 . S
Cd162 O161 2.385 . S
Cd162 O163 2.317 . S
O163 Cd162 2.317 . S
O163 C164 1.232 . S
C164 O163 1.232 . S
C164 O165 1.218 . S
O165 C164 1.218 . S
C166 O159 1.275 . S
C166 O161 1.255 . S
C167 O168 1.258 . S
C167 O169 1.256 . S
O168 Cd160 2.381 . S
O168 C167 1.258 . S
O169 Cd160 2.378 . S
O169 C167 1.256 . S
O170 Cd171 2.300 . S
O170 C177 1.275 . S
Cd171 O170 2.300 . S
Cd171 O179 2.381 . S
Cd171 O180 2.378 . S
O172 Cd173 2.385 . S
O172 C177 1.255 . S
Cd173 O172 2.385 . S
Cd173 O174 2.317 . S
O174 Cd173 2.317 . S
O174 C175 1.232 . S
C175 O174 1.232 . S
C175 O176 1.218 . S
O176 C175 1.218 . S
C177 O170 1.275 . S
C177 O172 1.255 . S
C178 O179 1.258 . S
C178 O180 1.256 . S
O179 Cd171 2.381 . S
O179 C178 1.258 . S
O180 Cd171 2.378 . S
O180 C178 1.256 . S
O181 Cd182 2.300 . S
O181 C188 1.275 . S
Cd182 O181 2.300 . S
Cd182 O190 2.381 . S
Cd182 O191 2.378 . S
O183 Cd184 2.385 . S
O183 C188 1.255 . S
Cd184 O183 2.385 . S
Cd184 O185 2.317 . S
O185 Cd184 2.317 . S
O185 C186 1.232 . S
C186 O185 1.232 . S
C186 O187 1.218 . S
O187 C186 1.218 . S
C188 O181 1.275 . S
C188 O183 1.255 . S
C189 O190 1.258 . S
C189 O191 1.256 . S
O190 Cd182 2.381 . S
O190 C189 1.258 . S
O191 Cd182 2.378 . S
O191 C189 1.256 . S
C192 C193 1.349 1_556 S
C192 C194 1.327 . S
C192 H217 0.950 . S
C193 C192 1.349 1_554 S
C193 C209 1.349 . S
C194 C192 1.327 . S
C194 C213 1.429 1_556 S
C194 H218 0.950 . S
C195 C212 1.574 . S
C195 C214 1.368 . S
C195 H219 0.949 . S
H196 C200 0.949 . S
C197 C198 1.349 . S
C197 C199 1.327 . S
C197 H220 0.950 . S
C198 C197 1.349 . S
C198 C210 1.349 . S
C199 C197 1.327 . S
C199 C215 1.429 . S
C199 H221 0.950 . S
C200 H196 0.949 . S
C200 C208 1.574 . S
C200 C216 1.368 1_556 S
H201 C209 0.950 . S
H202 C207 0.950 . S
H203 C208 0.949 . S
H204 C210 0.950 1_556 S
H205 C211 0.950 1_556 S
H206 C212 0.949 . S
C207 H202 0.950 . S
C207 C209 1.327 . S
C207 C213 1.429 . S
C208 C200 1.574 . S
C208 H203 0.949 . S
C208 C214 1.368 1_556 S
C209 C193 1.349 . S
C209 H201 0.950 . S
C209 C207 1.327 . S
C210 C198 1.349 . S
C210 H204 0.950 1_554 S
C210 C211 1.327 . S
C211 H205 0.950 1_554 S
C211 C210 1.327 . S
C211 C215 1.429 . S
C212 C195 1.574 . S
C212 H206 0.949 . S
C212 C216 1.368 . S
C213 C194 1.429 1_554 S
C213 C207 1.429 . S
C213 C214 1.523 . S
C214 C195 1.368 . S
C214 C208 1.368 1_554 S
C214 C213 1.523 . S
C215 C199 1.429 . S
C215 C211 1.429 . S
C215 C216 1.523 . S
C216 C200 1.368 1_554 S
C216 C212 1.368 . S
C216 C215 1.523 . S
H217 C192 0.950 . S
H218 C194 0.950 . S
H219 C195 0.949 . S
H220 C197 0.950 . S
H221 C199 0.950 . S
C222 C223 1.349 1_556 S
C222 C224 1.327 . S
C222 H247 0.950 . S
C223 C222 1.349 1_554 S
C223 C239 1.349 . S
C224 C222 1.327 . S
C224 C243 1.429 1_556 S
C224 H248 0.950 . S
C225 C242 1.574 . S
C225 C244 1.368 . S
C225 H249 0.949 . S
H226 C230 0.949 . S
C227 C228 1.349 1_554 S
C227 C229 1.327 . S
C227 H250 0.950 . S
C228 C227 1.349 1_556 S
C228 C240 1.349 . S
C229 C227 1.327 . S
C229 C245 1.419 1_554 S
C229 H251 0.950 . S
C230 H226 0.949 . S
C230 C238 1.574 . S
C230 C246 1.354 1_556 S
H231 C239 0.950 . S
H232 C237 0.950 . S
H233 C238 0.949 . S
H234 C240 0.950 . S
H235 C241 0.950 . S
H236 C242 0.949 . S
C237 H232 0.950 . S
C237 C239 1.327 . S
C237 C243 1.429 . S
C238 C230 1.574 . S
C238 H233 0.949 . S
C238 C244 1.368 1_556 S
C239 C223 1.349 . S
C239 H231 0.950 . S
C239 C237 1.327 . S
C240 C228 1.349 . S
C240 H234 0.950 . S
C240 C241 1.327 . S
C241 H235 0.950 . S
C241 C240 1.327 . S
C241 C245 1.438 . S
C242 C225 1.574 . S
C242 H236 0.949 . S
C242 C246 1.383 . S
C243 C224 1.429 1_554 S
C243 C237 1.429 . S
C243 C244 1.523 . S
C244 C225 1.368 . S
C244 C238 1.368 1_554 S
C244 C243 1.523 . S
C245 C229 1.419 1_556 S
C245 C241 1.438 . S
C245 C246 1.524 1_556 S
C246 C230 1.354 1_554 S
C246 C242 1.383 . S
C246 C245 1.524 1_554 S
H247 C222 0.950 . S
H248 C224 0.950 . S
H249 C225 0.949 . S
H250 C227 0.950 . S
H251 C229 0.950 . S
C252 C253 1.349 . S
C252 C254 1.327 . S
C252 H277 0.950 . S
C253 C252 1.349 . S
C253 C269 1.349 1_554 S
C254 C252 1.327 . S
C254 C273 1.429 . S
C254 H278 0.950 . S
C255 C272 1.574 . S
C255 C274 1.368 1_556 S
C255 H279 0.949 . S
H256 C260 0.949 . S
C257 C258 1.349 1_556 S
C257 C259 1.327 . S
C257 H280 0.950 . S
C258 C257 1.349 1_554 S
C258 C270 1.349 . S
C259 C257 1.327 . S
C259 C275 1.429 1_556 S
C259 H281 0.950 . S
C260 H256 0.949 . S
C260 C268 1.574 . S
C260 C276 1.368 . S
H261 C269 0.950 . S
H262 C267 0.950 . S
H263 C268 0.949 . S
H264 C270 0.950 . S
H265 C271 0.950 . S
H266 C272 0.949 . S
C267 H262 0.950 . S
C267 C269 1.327 . S
C267 C273 1.429 1_556 S
C268 C260 1.574 . S
C268 H263 0.949 . S
C268 C274 1.368 . S
C269 C253 1.349 1_556 S
C269 H261 0.950 . S
C269 C267 1.327 . S
C270 C258 1.349 . S
C270 H264 0.950 . S
C270 C271 1.327 . S
C271 H265 0.950 . S
C271 C270 1.327 . S
C271 C275 1.429 . S
C272 C255 1.574 . S
C272 H266 0.949 . S
C272 C276 1.368 1_556 S
C273 C254 1.429 . S
C273 C267 1.429 1_554 S
C273 C274 1.523 . S
C274 C255 1.368 1_554 S
C274 C268 1.368 . S
C274 C273 1.523 . S
C275 C259 1.429 1_554 S
C275 C271 1.429 . S
C275 C276 1.523 . S
C276 C260 1.368 . S
C276 C272 1.368 1_554 S
C276 C275 1.523 . S
H277 C252 0.950 . S
H278 C254 0.950 . S
H279 C255 0.949 . S
H280 C257 0.950 . S
H281 C259 0.950 . S
C282 C283 1.349 1_556 S
C282 C284 1.327 . S
C282 H307 0.950 . S
C283 C282 1.349 1_554 S
C283 C299 1.349 . S
C284 C282 1.327 . S
C284 C303 1.429 1_556 S
C284 H308 0.950 . S
C285 C302 1.574 . S
C285 C304 1.368 . S
C285 H309 0.949 . S
H286 C290 0.949 . S
C287 C288 1.349 . S
C287 C289 1.327 . S
C287 H310 0.950 . S
C288 C287 1.349 . S
C288 C300 1.349 1_554 S
C289 C287 1.327 . S
C289 C305 1.429 . S
C289 H311 0.950 . S
C290 H286 0.949 . S
C290 C298 1.574 . S
C290 C306 1.368 1_556 S
H291 C299 0.950 . S
H292 C297 0.950 . S
H293 C298 0.949 . S
H294 C300 0.950 . S
H295 C301 0.950 . S
H296 C302 0.949 . S
C297 H292 0.950 . S
C297 C299 1.327 . S
C297 C303 1.429 . S
C298 C290 1.574 . S
C298 H293 0.949 . S
C298 C304 1.368 1_556 S
C299 C283 1.349 . S
C299 H291 0.950 . S
C299 C297 1.327 . S
C300 C288 1.349 1_556 S
C300 H294 0.950 . S
C300 C301 1.327 . S
C301 H295 0.950 . S
C301 C300 1.327 . S
C301 C305 1.429 1_556 S
C302 C285 1.574 . S
C302 H296 0.949 . S
C302 C306 1.368 . S
C303 C284 1.429 1_554 S
C303 C297 1.429 . S
C303 C304 1.523 . S
C304 C285 1.368 . S
C304 C298 1.368 1_554 S
C304 C303 1.523 . S
C305 C289 1.429 . S
C305 C301 1.429 1_554 S
C305 C306 1.523 . S
C306 C290 1.368 1_554 S
C306 C302 1.368 . S
C306 C305 1.523 . S
H307 C282 0.950 . S
H308 C284 0.950 . S
H309 C285 0.949 . S
H310 C287 0.950 . S
H311 C289 0.950 . S
C312 C313 1.349 . S
C312 C314 1.327 . S
C312 H337 0.950 . S
C313 C312 1.349 . S
C313 C329 1.349 . S
C314 C312 1.327 . S
C314 C333 1.429 . S
C314 H338 0.950 . S
C315 C332 1.574 . S
C315 C334 1.368 . S
C315 H339 0.949 . S
H316 C320 0.949 . S
C317 C318 1.349 . S
C317 C319 1.327 . S
C317 H340 0.950 . S
C318 C317 1.349 . S
C318 C330 1.349 . S
C319 C317 1.327 . S
C319 C335 1.429 . S
C319 H341 0.950 . S
C320 H316 0.949 . S
C320 C328 1.574 . S
C320 C336 1.368 . S
H321 C329 0.950 . S
H322 C327 0.950 . S
H323 C328 0.949 . S
H324 C330 0.950 . S
H325 C331 0.950 . S
H326 C332 0.949 . S
C327 H322 0.950 . S
C327 C329 1.327 . S
C327 C333 1.429 . S
C328 C320 1.574 . S
C328 H323 0.949 . S
C328 C334 1.368 . S
C329 C313 1.349 . S
C329 H321 0.950 . S
C329 C327 1.327 . S
C330 C318 1.349 . S
C330 H324 0.950 . S
C330 C331 1.327 . S
C331 H325 0.950 . S
C331 C330 1.327 . S
C331 C335 1.429 . S
C332 C315 1.574 . S
C332 H326 0.949 . S
C332 C336 1.368 . S
C333 C314 1.429 . S
C333 C327 1.429 . S
C333 C334 1.523 . S
C334 C315 1.368 . S
C334 C328 1.368 . S
C334 C333 1.523 . S
C335 C319 1.429 . S
C335 C331 1.429 . S
C335 C336 1.523 . S
C336 C320 1.368 . S
C336 C332 1.368 . S
C336 C335 1.523 . S
H337 C312 0.950 . S
H338 C314 0.950 . S
H339 C315 0.949 . S
H340 C317 0.950 . S
H341 C319 0.950 . S
C342 C343 1.349 . S
C342 C344 1.327 . S
C342 H367 0.950 . S
C343 C342 1.349 . S
C343 C359 1.349 . S
C344 C342 1.327 . S
C344 C363 1.429 . S
C344 H368 0.950 . S
C345 C362 1.574 . S
C345 C364 1.368 . S
C345 H369 0.949 . S
H346 C350 0.949 . S
C347 C348 1.349 . S
C347 C349 1.327 . S
C347 H370 0.950 . S
C348 C347 1.349 . S
C348 C360 1.349 . S
C349 C347 1.327 . S
C349 C365 1.429 . S
C349 H371 0.950 . S
C350 H346 0.949 . S
C350 C358 1.574 . S
C350 C366 1.368 . S
H351 C359 0.950 . S
H352 C357 0.950 . S
H353 C358 0.949 . S
H354 C360 0.950 . S
H355 C361 0.950 . S
H356 C362 0.949 . S
C357 H352 0.950 . S
C357 C359 1.327 . S
C357 C363 1.429 . S
C358 C350 1.574 . S
C358 H353 0.949 . S
C358 C364 1.368 . S
C359 C343 1.349 . S
C359 H351 0.950 . S
C359 C357 1.327 . S
C360 C348 1.349 . S
C360 H354 0.950 . S
C360 C361 1.327 . S
C361 H355 0.950 . S
C361 C360 1.327 . S
C361 C365 1.429 . S
C362 C345 1.574 . S
C362 H356 0.949 . S
C362 C366 1.368 . S
C363 C344 1.429 . S
C363 C357 1.429 . S
C363 C364 1.523 . S
C364 C345 1.368 . S
C364 C358 1.368 . S
C364 C363 1.523 . S
C365 C349 1.429 . S
C365 C361 1.429 . S
C365 C366 1.523 . S
C366 C350 1.368 . S
C366 C362 1.368 . S
C366 C365 1.523 . S
H367 C342 0.950 . S
H368 C344 0.950 . S
H369 C345 0.949 . S
H370 C347 0.950 . S
H371 C349 0.950 . S
C372 C373 1.349 . S
C372 C374 1.327 . S
C372 H397 0.950 . S
C373 C372 1.349 . S
C373 C389 1.349 . S
C374 C372 1.327 . S
C374 C393 1.429 . S
C374 H398 0.950 . S
C375 C392 1.574 . S
C375 C394 1.368 . S
C375 H399 0.949 . S
H376 C380 0.949 . S
C377 C378 1.349 . S
C377 C379 1.327 . S
C377 H400 0.950 . S
C378 C377 1.349 . S
C378 C390 1.349 . S
C379 C377 1.327 . S
C379 C395 1.429 . S
C379 H401 0.950 . S
C380 H376 0.949 . S
C380 C388 1.574 . S
C380 C396 1.368 . S
H381 C389 0.950 . S
H382 C387 0.950 . S
H383 C388 0.949 . S
H384 C390 0.950 . S
H385 C391 0.950 . S
H386 C392 0.949 . S
C387 H382 0.950 . S
C387 C389 1.327 . S
C387 C393 1.429 . S
C388 C380 1.574 . S
C388 H383 0.949 . S
C388 C394 1.368 . S
C389 C373 1.349 . S
C389 H381 0.950 . S
C389 C387 1.327 . S
C390 C378 1.349 . S
C390 H384 0.950 . S
C390 C391 1.327 . S
C391 H385 0.950 . S
C391 C390 1.327 . S
C391 C395 1.429 . S
C392 C375 1.574 . S
C392 H386 0.949 . S
C392 C396 1.368 . S
C393 C374 1.429 . S
C393 C387 1.429 . S
C393 C394 1.523 . S
C394 C375 1.368 . S
C394 C388 1.368 . S
C394 C393 1.523 . S
C395 C379 1.429 . S
C395 C391 1.429 . S
C395 C396 1.523 . S
C396 C380 1.368 . S
C396 C392 1.368 . S
C396 C395 1.523 . S
H397 C372 0.950 . S
H398 C374 0.950 . S
H399 C375 0.949 . S
H400 C377 0.950 . S
H401 C379 0.950 . S
C402 C403 1.349 . S
C402 C404 1.327 . S
C402 H427 0.950 . S
C403 C402 1.349 . S
C403 C419 1.349 . S
C404 C402 1.327 . S
C404 C423 1.429 . S
C404 H428 0.950 . S
C405 C422 1.574 . S
C405 C424 1.368 . S
C405 H429 0.949 . S
H406 C410 0.949 . S
C407 C408 1.349 . S
C407 C409 1.327 . S
C407 H430 0.950 . S
C408 C407 1.349 . S
C408 C420 1.349 . S
C409 C407 1.327 . S
C409 C425 1.429 . S
C409 H431 0.950 . S
C410 H406 0.949 . S
C410 C418 1.574 . S
C410 C426 1.368 . S
H411 C419 0.950 . S
H412 C417 0.950 . S
H413 C418 0.949 . S
H414 C420 0.950 . S
H415 C421 0.950 . S
H416 C422 0.949 . S
C417 H412 0.950 . S
C417 C419 1.327 . S
C417 C423 1.429 . S
C418 C410 1.574 . S
C418 H413 0.949 . S
C418 C424 1.368 . S
C419 C403 1.349 . S
C419 H411 0.950 . S
C419 C417 1.327 . S
C420 C408 1.349 . S
C420 H414 0.950 . S
C420 C421 1.327 . S
C421 H415 0.950 . S
C421 C420 1.327 . S
C421 C425 1.429 . S
C422 C405 1.574 . S
C422 H416 0.949 . S
C422 C426 1.368 . S
C423 C404 1.429 . S
C423 C417 1.429 . S
C423 C424 1.523 . S
C424 C405 1.368 . S
C424 C418 1.368 . S
C424 C423 1.523 . S
C425 C409 1.429 . S
C425 C421 1.429 . S
C425 C426 1.523 . S
C426 C410 1.368 . S
C426 C422 1.368 . S
C426 C425 1.523 . S
H427 C402 0.950 . S
H428 C404 0.950 . S
H429 C405 0.949 . S
H430 C407 0.950 . S
H431 C409 0.950 . S
C432 C433 1.349 . S
C432 C434 1.327 . S
C432 H457 0.950 . S
C433 C432 1.349 . S
C433 C449 1.349 . S
C434 C432 1.327 . S
C434 C453 1.429 . S
C434 H458 0.950 . S
C435 C452 1.574 . S
C435 C454 1.368 . S
C435 H459 0.949 . S
H436 C440 0.949 . S
C437 C438 1.349 . S
C437 C439 1.327 . S
C437 H460 0.950 . S
C438 C437 1.349 . S
C438 C450 1.349 . S
C439 C437 1.327 . S
C439 C455 1.429 . S
C439 H461 0.950 . S
C440 H436 0.949 . S
C440 C448 1.574 . S
C440 C456 1.368 . S
H441 C449 0.950 . S
H442 C447 0.950 . S
H443 C448 0.949 . S
H444 C450 0.950 . S
H445 C451 0.950 . S
H446 C452 0.949 . S
C447 H442 0.950 . S
C447 C449 1.327 . S
C447 C453 1.429 . S
C448 C440 1.574 . S
C448 H443 0.949 . S
C448 C454 1.368 . S
C449 C433 1.349 . S
C449 H441 0.950 . S
C449 C447 1.327 . S
C450 C438 1.349 . S
C450 H444 0.950 . S
C450 C451 1.327 . S
C451 H445 0.950 . S
C451 C450 1.327 . S
C451 C455 1.429 . S
C452 C435 1.574 . S
C452 H446 0.949 . S
C452 C456 1.368 . S
C453 C434 1.429 . S
C453 C447 1.429 . S
C453 C454 1.523 . S
C454 C435 1.368 . S
C454 C448 1.368 . S
C454 C453 1.523 . S
C455 C439 1.429 . S
C455 C451 1.429 . S
C455 C456 1.523 . S
C456 C440 1.368 . S
C456 C452 1.368 . S
C456 C455 1.523 . S
H457 C432 0.950 . S
H458 C434 0.950 . S
H459 C435 0.949 . S
H460 C437 0.950 . S
H461 C439 0.950 . S
C462 C463 1.349 . S
C462 C464 1.327 . S
C462 H487 0.950 . S
C463 C462 1.349 . S
C463 C479 1.349 . S
C464 C462 1.327 . S
C464 C483 1.429 . S
C464 H488 0.950 . S
C465 C482 1.574 . S
C465 C484 1.368 . S
C465 H489 0.949 . S
H466 C470 0.949 . S
C467 C468 1.349 . S
C467 C469 1.327 . S
C467 H490 0.950 . S
C468 C467 1.349 . S
C468 C480 1.349 . S
C469 C467 1.327 . S
C469 C485 1.429 . S
C469 H491 0.950 . S
C470 H466 0.949 . S
C470 C478 1.574 . S
C470 C486 1.368 . S
H471 C479 0.948 1_565 S
H472 C477 0.950 . S
H473 C478 0.949 . S
H474 C480 0.950 . S
H475 C481 0.950 . S
H476 C482 0.949 . S
C477 H472 0.950 . S
C477 C479 1.327 . S
C477 C483 1.429 . S
C478 C470 1.574 . S
C478 H473 0.949 . S
C478 C484 1.368 . S
C479 C463 1.349 . S
C479 H471 0.948 1_545 S
C479 C477 1.327 . S
C480 C468 1.349 . S
C480 H474 0.950 . S
C480 C481 1.327 . S
C481 H475 0.950 . S
C481 C480 1.327 . S
C481 C485 1.429 . S
C482 C465 1.574 . S
C482 H476 0.949 . S
C482 C486 1.368 . S
C483 C464 1.429 . S
C483 C477 1.429 . S
C483 C484 1.523 . S
C484 C465 1.368 . S
C484 C478 1.368 . S
C484 C483 1.523 . S
C485 C469 1.429 . S
C485 C481 1.429 . S
C485 C486 1.523 . S
C486 C470 1.368 . S
C486 C482 1.368 . S
C486 C485 1.523 . S
H487 C462 0.950 . S
H488 C464 0.950 . S
H489 C465 0.949 . S
H490 C467 0.950 . S
H491 C469 0.950 . S
C492 C493 1.349 . S
C492 C494 1.327 . S
C492 H517 0.950 . S
C493 C492 1.349 . S
C493 C509 1.349 . S
C494 C492 1.327 . S
C494 C513 1.429 . S
C494 H518 0.950 . S
C495 C512 1.574 . S
C495 C514 1.368 . S
C495 H519 0.949 . S
H496 C500 0.949 . S
C497 C498 1.349 . S
C497 C499 1.327 . S
C497 H520 0.950 . S
C498 C497 1.349 . S
C498 C510 1.349 . S
C499 C497 1.327 . S
C499 C515 1.429 . S
C499 H521 0.950 . S
C500 H496 0.949 . S
C500 C508 1.574 . S
C500 C516 1.368 . S
H501 C509 0.950 . S
H502 C507 0.950 . S
H503 C508 0.949 . S
H504 C510 0.950 . S
H505 C511 0.950 . S
H506 C512 0.949 . S
C507 H502 0.950 . S
C507 C509 1.327 . S
C507 C513 1.429 . S
C508 C500 1.574 . S
C508 H503 0.949 . S
C508 C514 1.368 . S
C509 C493 1.349 . S
C509 H501 0.950 . S
C509 C507 1.327 . S
C510 C498 1.349 . S
C510 H504 0.950 . S
C510 C511 1.327 . S
C511 H505 0.950 . S
C511 C510 1.327 . S
C511 C515 1.429 . S
C512 C495 1.574 . S
C512 H506 0.949 . S
C512 C516 1.368 . S
C513 C494 1.429 . S
C513 C507 1.429 . S
C513 C514 1.523 . S
C514 C495 1.368 . S
C514 C508 1.368 . S
C514 C513 1.523 . S
C515 C499 1.429 . S
C515 C511 1.429 . S
C515 C516 1.523 . S
C516 C500 1.368 . S
C516 C512 1.368 . S
C516 C515 1.523 . S
H517 C492 0.950 . S
H518 C494 0.950 . S
H519 C495 0.949 . S
H520 C497 0.950 . S
H521 C499 0.950 . S
C522 C523 1.349 . S
C522 C524 1.327 . S
C522 H547 0.950 1_565 S
C523 C522 1.349 . S
C523 C539 1.349 . S
C524 C522 1.327 . S
C524 C543 1.429 . S
C524 H548 0.950 . S
C525 C542 1.574 . S
C525 C544 1.368 . S
C525 H549 0.949 . S
H526 C530 0.949 . S
C527 C528 1.349 . S
C527 C529 1.327 . S
C527 H550 0.950 . S
C528 C527 1.349 . S
C528 C540 1.349 . S
C529 C527 1.327 . S
C529 C545 1.429 . S
C529 H551 0.950 . S
C530 H526 0.949 . S
C530 C538 1.574 . S
C530 C546 1.368 . S
H531 C539 0.950 . S
H532 C537 0.950 . S
H533 C538 0.949 . S
H534 C540 0.950 . S
H535 C541 0.950 . S
H536 C542 0.949 . S
C537 H532 0.950 . S
C537 C539 1.327 . S
C537 C543 1.429 . S
C538 C530 1.574 . S
C538 H533 0.949 . S
C538 C544 1.368 . S
C539 C523 1.349 . S
C539 H531 0.950 . S
C539 C537 1.327 . S
C540 C528 1.349 . S
C540 H534 0.950 . S
C540 C541 1.327 . S
C541 H535 0.950 . S
C541 C540 1.327 . S
C541 C545 1.429 . S
C542 C525 1.574 . S
C542 H536 0.949 . S
C542 C546 1.368 . S
C543 C524 1.429 . S
C543 C537 1.429 . S
C543 C544 1.523 . S
C544 C525 1.368 . S
C544 C538 1.368 . S
C544 C543 1.523 . S
C545 C529 1.429 . S
C545 C541 1.429 . S
C545 C546 1.523 . S
C546 C530 1.368 . S
C546 C542 1.368 . S
C546 C545 1.523 . S
H547 C522 0.950 1_545 S
H548 C524 0.950 . S
H549 C525 0.949 . S
H550 C527 0.950 . S
H551 C529 0.950 . S
C552 C553 1.349 . S
C552 C554 1.327 . S
C552 H577 0.950 1_565 S
C553 C552 1.349 . S
C553 C569 1.349 . S
C554 C552 1.327 . S
C554 C573 1.429 . S
C554 H578 0.950 . S
C555 C572 1.574 . S
C555 C574 1.368 . S
C555 H579 0.949 . S
H556 C560 0.949 . S
C557 C558 1.349 . S
C557 C559 1.327 . S
C557 H580 0.950 . S
C558 C557 1.349 . S
C558 C570 1.349 . S
C559 C557 1.327 . S
C559 C575 1.429 . S
C559 H581 0.950 . S
C560 H556 0.949 . S
C560 C568 1.574 . S
C560 C576 1.368 . S
H561 C569 0.950 . S
H562 C567 0.950 . S
H563 C568 0.949 . S
H564 C570 0.950 . S
H565 C571 0.950 . S
H566 C572 0.949 . S
C567 H562 0.950 . S
C567 C569 1.327 . S
C567 C573 1.429 . S
C568 C560 1.574 . S
C568 H563 0.949 . S
C568 C574 1.368 . S
C569 C553 1.349 . S
C569 H561 0.950 . S
C569 C567 1.327 . S
C570 C558 1.349 . S
C570 H564 0.950 . S
C570 C571 1.327 . S
C571 H565 0.950 . S
C571 C570 1.327 . S
C571 C575 1.429 . S
C572 C555 1.574 . S
C572 H566 0.949 . S
C572 C576 1.368 . S
C573 C554 1.429 . S
C573 C567 1.429 . S
C573 C574 1.523 . S
C574 C555 1.368 . S
C574 C568 1.368 . S
C574 C573 1.523 . S
C575 C559 1.429 . S
C575 C571 1.429 . S
C575 C576 1.523 . S
C576 C560 1.368 . S
C576 C572 1.368 . S
C576 C575 1.523 . S
H577 C552 0.950 1_545 S
H578 C554 0.950 . S
H579 C555 0.949 . S
H580 C557 0.950 . S
H581 C559 0.950 . S
C582 C583 1.349 . S
C582 C584 1.327 . S
C582 H607 0.950 . S
C583 C582 1.349 . S
C583 C599 1.349 . S
C584 C582 1.327 . S
C584 C603 1.429 . S
C584 H608 0.950 . S
C585 C602 1.574 . S
C585 C604 1.368 . S
C585 H609 0.949 . S
H586 C590 0.949 . S
C587 C588 1.349 . S
C587 C589 1.327 . S
C587 H610 0.950 . S
C588 C587 1.349 . S
C588 C600 1.349 . S
C589 C587 1.327 . S
C589 C605 1.429 . S
C589 H611 0.950 . S
C590 H586 0.949 . S
C590 C598 1.574 . S
C590 C606 1.368 . S
H591 C599 0.950 . S
H592 C597 0.950 . S
H593 C598 0.949 . S
H594 C600 0.950 . S
H595 C601 0.950 . S
H596 C602 0.949 . S
C597 H592 0.950 . S
C597 C599 1.327 . S
C597 C603 1.429 . S
C598 C590 1.574 . S
C598 H593 0.949 . S
C598 C604 1.368 . S
C599 C583 1.349 . S
C599 H591 0.950 . S
C599 C597 1.327 . S
C600 C588 1.349 . S
C600 H594 0.950 . S
C600 C601 1.327 . S
C601 H595 0.950 . S
C601 C600 1.327 . S
C601 C605 1.429 . S
C602 C585 1.574 . S
C602 H596 0.949 . S
C602 C606 1.368 . S
C603 C584 1.429 . S
C603 C597 1.429 . S
C603 C604 1.523 . S
C604 C585 1.368 . S
C604 C598 1.368 . S
C604 C603 1.523 . S
C605 C589 1.429 . S
C605 C601 1.429 . S
C605 C606 1.523 . S
C606 C590 1.368 . S
C606 C602 1.368 . S
C606 C605 1.523 . S
H607 C582 0.950 . S
H608 C584 0.950 . S
H609 C585 0.949 . S
H610 C587 0.950 . S
H611 C589 0.950 . S
C612 C613 1.349 . S
C612 C614 1.327 . S
C612 H637 0.950 . S
C613 C612 1.349 . S
C613 C629 1.349 . S
C614 C612 1.327 . S
C614 C633 1.429 . S
C614 H638 0.950 . S
C615 C632 1.574 . S
C615 C634 1.368 . S
C615 H639 0.949 . S
H616 C620 0.949 . S
C617 C618 1.349 . S
C617 C619 1.327 . S
C617 H640 0.950 . S
C618 C617 1.349 . S
C618 C630 1.349 . S
C619 C617 1.327 . S
C619 C635 1.429 . S
C619 H641 0.950 . S
C620 H616 0.949 . S
C620 C628 1.574 . S
C620 C636 1.368 . S
H621 C629 0.967 . S
H622 C627 0.950 . S
H623 C628 0.949 . S
H624 C630 0.950 . S
H625 C631 0.950 . S
H626 C632 0.949 . S
C627 H622 0.950 . S
C627 C629 1.327 . S
C627 C633 1.429 . S
C628 C620 1.574 . S
C628 H623 0.949 . S
C628 C634 1.368 . S
C629 C613 1.349 . S
C629 H621 0.967 . S
C629 C627 1.327 . S
C630 C618 1.349 . S
C630 H624 0.950 . S
C630 C631 1.327 . S
C631 H625 0.950 . S
C631 C630 1.327 . S
C631 C635 1.429 . S
C632 C615 1.574 . S
C632 H626 0.949 . S
C632 C636 1.368 . S
C633 C614 1.429 . S
C633 C627 1.429 . S
C633 C634 1.523 . S
C634 C615 1.368 . S
C634 C628 1.368 . S
C634 C633 1.523 . S
C635 C619 1.429 . S
C635 C631 1.429 . S
C635 C636 1.523 . S
C636 C620 1.368 . S
C636 C632 1.368 . S
C636 C635 1.523 . S
H637 C612 0.950 . S
H638 C614 0.950 . S
H639 C615 0.949 . S
H640 C617 0.950 . S
H641 C619 0.950 . S
C642 C643 1.349 . S
C642 C644 1.327 . S
C642 H667 0.950 . S
C643 C642 1.349 . S
C643 C659 1.349 . S
C644 C642 1.327 . S
C644 C663 1.429 . S
C644 H668 0.950 . S
C645 C662 1.574 . S
C645 C664 1.368 . S
C645 H669 0.949 . S
H646 C650 0.949 . S
C647 C648 1.349 . S
C647 C649 1.327 . S
C647 H670 0.950 . S
C648 C647 1.349 . S
C648 C660 1.349 . S
C649 C647 1.327 . S
C649 C665 1.429 . S
C649 H671 0.950 . S
C650 H646 0.949 . S
C650 C658 1.574 . S
C650 C666 1.368 . S
H651 C659 0.950 . S
H652 C657 0.950 . S
H653 C658 0.949 . S
H654 C660 0.950 . S
H655 C661 0.950 . S
H656 C662 0.949 . S
C657 H652 0.950 . S
C657 C659 1.327 . S
C657 C663 1.429 . S
C658 C650 1.574 . S
C658 H653 0.949 . S
C658 C664 1.368 . S
C659 C643 1.349 . S
C659 H651 0.950 . S
C659 C657 1.327 . S
C660 C648 1.349 . S
C660 H654 0.950 . S
C660 C661 1.327 . S
C661 H655 0.950 . S
C661 C660 1.327 . S
C661 C665 1.429 . S
C662 C645 1.574 . S
C662 H656 0.949 . S
C662 C666 1.368 . S
C663 C644 1.429 . S
C663 C657 1.429 . S
C663 C664 1.523 . S
C664 C645 1.368 . S
C664 C658 1.368 . S
C664 C663 1.523 . S
C665 C649 1.429 . S
C665 C661 1.429 . S
C665 C666 1.523 . S
C666 C650 1.368 . S
C666 C662 1.368 . S
C666 C665 1.523 . S
H667 C642 0.950 . S
H668 C644 0.950 . S
H669 C645 0.949 . S
H670 C647 0.950 . S
H671 C649 0.950 . S
C672 C673 1.349 . S
C672 C674 1.327 . S
C672 H697 0.950 . S
C673 C672 1.349 . S
C673 C689 1.349 . S
C674 C672 1.327 . S
C674 C693 1.429 . S
C674 H698 0.950 . S
C675 C692 1.574 . S
C675 C694 1.368 . S
C675 H699 0.949 . S
H676 C680 0.949 . S
C677 C678 1.349 . S
C677 C679 1.327 . S
C677 H700 0.950 . S
C678 C677 1.349 . S
C678 C690 1.349 . S
C679 C677 1.327 . S
C679 C695 1.429 . S
C679 H701 0.950 . S
C680 H676 0.949 . S
C680 C688 1.574 . S
C680 C696 1.368 . S
H681 C689 0.950 . S
H682 C687 0.950 . S
H683 C688 0.949 . S
H684 C690 0.950 . S
H685 C691 0.950 . S
H686 C692 0.949 . S
C687 H682 0.950 . S
C687 C689 1.327 . S
C687 C693 1.429 . S
C688 C680 1.574 . S
C688 H683 0.949 . S
C688 C694 1.368 . S
C689 C673 1.349 . S
C689 H681 0.950 . S
C689 C687 1.327 . S
C690 C678 1.349 . S
C690 H684 0.950 . S
C690 C691 1.327 . S
C691 H685 0.950 . S
C691 C690 1.327 . S
C691 C695 1.429 . S
C692 C675 1.574 . S
C692 H686 0.949 . S
C692 C696 1.368 . S
C693 C674 1.429 . S
C693 C687 1.429 . S
C693 C694 1.523 . S
C694 C675 1.368 . S
C694 C688 1.368 . S
C694 C693 1.523 . S
C695 C679 1.429 . S
C695 C691 1.429 . S
C695 C696 1.523 . S
C696 C680 1.368 . S
C696 C692 1.368 . S
C696 C695 1.523 . S
H697 C672 0.950 . S
H698 C674 0.950 . S
H699 C675 0.949 . S
H700 C677 0.950 . S
H701 C679 0.950 . S
C702 C703 1.349 . S
C702 C704 1.327 . S
C702 H727 0.950 . S
C703 C702 1.349 . S
C703 C719 1.349 . S
C704 C702 1.327 . S
C704 C723 1.429 . S
C704 H728 0.950 . S
C705 C722 1.574 . S
C705 C724 1.368 . S
C705 H729 0.949 . S
H706 C710 0.949 . S
C707 C708 1.349 . S
C707 C709 1.327 . S
C707 H730 0.950 . S
C708 C707 1.349 . S
C708 C720 1.349 . S
C709 C707 1.327 . S
C709 C725 1.429 . S
C709 H731 0.950 . S
C710 H706 0.949 . S
C710 C718 1.574 . S
C710 C726 1.368 . S
H711 C719 0.950 . S
H712 C717 0.950 . S
H713 C718 0.949 . S
H714 C720 0.950 . S
H715 C721 0.950 . S
H716 C722 0.949 . S
C717 H712 0.950 . S
C717 C719 1.327 . S
C717 C723 1.429 . S
C718 C710 1.574 . S
C718 H713 0.949 . S
C718 C724 1.368 . S
C719 C703 1.349 . S
C719 H711 0.950 . S
C719 C717 1.327 . S
C720 C708 1.349 . S
C720 H714 0.950 . S
C720 C721 1.327 . S
C721 H715 0.950 . S
C721 C720 1.327 . S
C721 C725 1.429 . S
C722 C705 1.574 . S
C722 H716 0.949 . S
C722 C726 1.368 . S
C723 C704 1.429 . S
C723 C717 1.429 . S
C723 C724 1.523 . S
C724 C705 1.368 . S
C724 C718 1.368 . S
C724 C723 1.523 . S
C725 C709 1.429 . S
C725 C721 1.429 . S
C725 C726 1.523 . S
C726 C710 1.368 . S
C726 C722 1.368 . S
C726 C725 1.523 . S
H727 C702 0.950 . S
H728 C704 0.950 . S
H729 C705 0.949 . S
H730 C707 0.950 . S
H731 C709 0.950 . S
C732 C733 1.349 . S
C732 C734 1.327 . S
C732 H757 0.950 . S
C733 C732 1.349 . S
C733 C749 1.349 . S
C734 C732 1.327 . S
C734 C753 1.429 . S
C734 H758 0.950 . S
C735 C752 1.574 . S
C735 C754 1.368 . S
C735 H759 0.949 . S
H736 C740 0.949 . S
C737 C738 1.349 . S
C737 C739 1.327 . S
C737 H760 0.950 . S
C738 C737 1.349 . S
C738 C750 1.349 . S
C739 C737 1.327 . S
C739 C755 1.429 . S
C739 H761 0.950 . S
C740 H736 0.949 . S
C740 C748 1.574 . S
C740 C756 1.368 . S
H741 C749 0.950 . S
H742 C747 0.950 . S
H743 C748 0.949 . S
H744 C750 0.950 . S
H745 C751 0.950 . S
H746 C752 0.949 . S
C747 H742 0.950 . S
C747 C749 1.327 . S
C747 C753 1.429 . S
C748 C740 1.574 . S
C748 H743 0.949 . S
C748 C754 1.368 . S
C749 C733 1.349 . S
C749 H741 0.950 . S
C749 C747 1.327 . S
C750 C738 1.349 . S
C750 H744 0.950 . S
C750 C751 1.327 . S
C751 H745 0.950 . S
C751 C750 1.327 . S
C751 C755 1.429 . S
C752 C735 1.574 . S
C752 H746 0.949 . S
C752 C756 1.368 . S
C753 C734 1.429 . S
C753 C747 1.429 . S
C753 C754 1.523 . S
C754 C735 1.368 . S
C754 C748 1.368 . S
C754 C753 1.523 . S
C755 C739 1.429 . S
C755 C751 1.429 . S
C755 C756 1.523 . S
C756 C740 1.368 . S
C756 C752 1.368 . S
C756 C755 1.523 . S
H757 C732 0.950 . S
H758 C734 0.950 . S
H759 C735 0.949 . S
H760 C737 0.950 . S
H761 C739 0.950 . S
C762 C763 1.349 . S
C762 C764 1.327 . S
C762 H787 0.950 . S
C763 C762 1.349 . S
C763 C779 1.349 . S
C764 C762 1.327 . S
C764 C783 1.429 . S
C764 H788 0.950 . S
C765 C782 1.574 . S
C765 C784 1.368 . S
C765 H789 0.949 . S
H766 C770 0.949 . S
C767 C768 1.349 . S
C767 C769 1.327 . S
C767 H790 0.950 . S
C768 C767 1.349 . S
C768 C780 1.349 . S
C769 C767 1.327 . S
C769 C785 1.429 . S
C769 H791 0.950 . S
C770 H766 0.949 . S
C770 C778 1.574 . S
C770 C786 1.368 . S
H771 C779 0.950 . S
H772 C777 0.950 . S
H773 C778 0.949 . S
H774 C780 0.950 . S
H775 C781 0.950 . S
H776 C782 0.949 . S
C777 H772 0.950 . S
C777 C779 1.327 . S
C777 C783 1.429 . S
C778 C770 1.574 . S
C778 H773 0.949 . S
C778 C784 1.368 . S
C779 C763 1.349 . S
C779 H771 0.950 . S
C779 C777 1.327 . S
C780 C768 1.349 . S
C780 H774 0.950 . S
C780 C781 1.327 . S
C781 H775 0.950 . S
C781 C780 1.327 . S
C781 C785 1.429 . S
C782 C765 1.574 . S
C782 H776 0.949 . S
C782 C786 1.368 . S
C783 C764 1.429 . S
C783 C777 1.429 . S
C783 C784 1.523 . S
C784 C765 1.368 . S
C784 C778 1.368 . S
C784 C783 1.523 . S
C785 C769 1.429 . S
C785 C781 1.429 . S
C785 C786 1.523 . S
C786 C770 1.368 . S
C786 C782 1.368 . S
C786 C785 1.523 . S
H787 C762 0.950 . S
H788 C764 0.950 . S
H789 C765 0.949 . S
H790 C767 0.950 . S
H791 C769 0.950 . S
C792 C793 1.349 . S
C792 C794 1.327 . S
C792 H817 0.950 . S
C793 C792 1.349 . S
C793 C809 1.349 . S
C794 C792 1.327 . S
C794 C813 1.429 . S
C794 H818 0.950 . S
C795 C812 1.574 . S
C795 C814 1.368 . S
C795 H819 0.949 . S
H796 C800 0.949 . S
C797 C798 1.349 . S
C797 C799 1.327 . S
C797 H820 0.950 . S
C798 C797 1.349 . S
C798 C810 1.349 . S
C799 C797 1.327 . S
C799 C815 1.429 . S
C799 H821 0.950 . S
C800 H796 0.949 . S
C800 C808 1.574 . S
C800 C816 1.368 . S
H801 C809 0.950 . S
H802 C807 0.950 . S
H803 C808 0.949 . S
H804 C810 0.950 . S
H805 C811 0.950 . S
H806 C812 0.949 . S
C807 H802 0.950 . S
C807 C809 1.327 . S
C807 C813 1.429 . S
C808 C800 1.574 . S
C808 H803 0.949 . S
C808 C814 1.368 . S
C809 C793 1.349 . S
C809 H801 0.950 . S
C809 C807 1.327 . S
C810 C798 1.349 . S
C810 H804 0.950 . S
C810 C811 1.327 . S
C811 H805 0.950 . S
C811 C810 1.327 . S
C811 C815 1.429 . S
C812 C795 1.574 . S
C812 H806 0.949 . S
C812 C816 1.368 . S
C813 C794 1.429 . S
C813 C807 1.429 . S
C813 C814 1.523 . S
C814 C795 1.368 . S
C814 C808 1.368 . S
C814 C813 1.523 . S
C815 C799 1.429 . S
C815 C811 1.429 . S
C815 C816 1.523 . S
C816 C800 1.368 . S
C816 C812 1.368 . S
C816 C815 1.523 . S
H817 C792 0.950 . S
H818 C794 0.950 . S
H819 C795 0.949 . S
H820 C797 0.950 . S
H821 C799 0.950 . S
C822 C823 1.349 . S
C822 C824 1.327 . S
C822 H847 0.950 . S
C823 C822 1.349 . S
C823 C839 1.349 . S
C824 C822 1.327 . S
C824 C843 1.429 . S
C824 H848 0.950 . S
C825 C842 1.574 . S
C825 C844 1.368 . S
C825 H849 0.949 . S
H826 C830 0.949 . S
C827 C828 1.349 . S
C827 C829 1.327 . S
C827 H850 0.950 . S
C828 C827 1.349 . S
C828 C840 1.349 . S
C829 C827 1.327 . S
C829 C845 1.429 . S
C829 H851 0.950 . S
C830 H826 0.949 . S
C830 C838 1.574 . S
C830 C846 1.368 . S
H831 C839 0.950 . S
H832 C837 0.950 . S
H833 C838 0.949 . S
H834 C840 0.950 . S
H835 C841 0.950 . S
H836 C842 0.949 . S
C837 H832 0.950 . S
C837 C839 1.327 . S
C837 C843 1.429 . S
C838 C830 1.574 . S
C838 H833 0.949 . S
C838 C844 1.368 . S
C839 C823 1.349 . S
C839 H831 0.950 . S
C839 C837 1.327 . S
C840 C828 1.349 . S
C840 H834 0.950 . S
C840 C841 1.327 . S
C841 H835 0.950 . S
C841 C840 1.327 . S
C841 C845 1.429 . S
C842 C825 1.574 . S
C842 H836 0.949 . S
C842 C846 1.368 . S
C843 C824 1.429 . S
C843 C837 1.429 . S
C843 C844 1.523 . S
C844 C825 1.368 . S
C844 C838 1.368 . S
C844 C843 1.523 . S
C845 C829 1.429 . S
C845 C841 1.429 . S
C845 C846 1.523 . S
C846 C830 1.368 . S
C846 C842 1.368 . S
C846 C845 1.523 . S
H847 C822 0.950 . S
H848 C824 0.950 . S
H849 C825 0.949 . S
H850 C827 0.950 . S
H851 C829 0.950 . S
C852 C853 1.349 . S
C852 C854 1.327 . S
C852 H877 0.950 . S
C853 C852 1.349 . S
C853 C869 1.349 . S
C854 C852 1.327 . S
C854 C873 1.429 . S
C854 H878 0.950 . S
C855 C872 1.574 . S
C855 C874 1.368 . S
C855 H879 0.949 . S
H856 C860 0.949 . S
C857 C858 1.349 . S
C857 C859 1.327 . S
C857 H880 0.950 . S
C858 C857 1.349 . S
C858 C870 1.349 . S
C859 C857 1.327 . S
C859 C875 1.429 . S
C859 H881 0.950 . S
C860 H856 0.949 . S
C860 C868 1.574 . S
C860 C876 1.368 . S
H861 C869 0.950 . S
H862 C867 0.950 . S
H863 C868 0.949 . S
H864 C870 0.950 . S
H865 C871 0.950 . S
H866 C872 0.949 . S
C867 H862 0.950 . S
C867 C869 1.327 . S
C867 C873 1.429 . S
C868 C860 1.574 . S
C868 H863 0.949 . S
C868 C874 1.368 . S
C869 C853 1.349 . S
C869 H861 0.950 . S
C869 C867 1.327 . S
C870 C858 1.349 . S
C870 H864 0.950 . S
C870 C871 1.327 . S
C871 H865 0.950 . S
C871 C870 1.327 . S
C871 C875 1.429 . S
C872 C855 1.574 . S
C872 H866 0.949 . S
C872 C876 1.368 . S
C873 C854 1.429 . S
C873 C867 1.429 . S
C873 C874 1.523 . S
C874 C855 1.368 . S
C874 C868 1.368 . S
C874 C873 1.523 . S
C875 C859 1.429 . S
C875 C871 1.429 . S
C875 C876 1.523 . S
C876 C860 1.368 . S
C876 C872 1.368 . S
C876 C875 1.523 . S
H877 C852 0.950 . S
H878 C854 0.950 . S
H879 C855 0.949 . S
H880 C857 0.950 . S
H881 C859 0.950 . S
C882 C883 1.349 . S
C882 C884 1.327 . S
C882 H907 0.950 . S
C883 C882 1.349 . S
C883 C899 1.349 . S
C884 C882 1.327 . S
C884 C903 1.429 . S
C884 H908 0.950 . S
C885 C902 1.574 . S
C885 C904 1.368 . S
C885 H909 0.949 . S
H886 C890 0.949 . S
C887 C888 1.349 . S
C887 C889 1.327 . S
C887 H910 0.950 . S
C888 C887 1.349 . S
C888 C900 1.349 . S
C889 C887 1.327 . S
C889 C905 1.429 . S
C889 H911 0.950 . S
C890 H886 0.949 . S
C890 C898 1.574 . S
C890 C906 1.368 . S
H891 C899 0.950 . S
H892 C897 0.950 . S
H893 C898 0.949 . S
H894 C900 0.950 . S
H895 C901 0.950 . S
H896 C902 0.949 . S
C897 H892 0.950 . S
C897 C899 1.327 . S
C897 C903 1.429 . S
C898 C890 1.574 . S
C898 H893 0.949 . S
C898 C904 1.368 . S
C899 C883 1.349 . S
C899 H891 0.950 . S
C899 C897 1.327 . S
C900 C888 1.349 . S
C900 H894 0.950 . S
C900 C901 1.327 . S
C901 H895 0.950 . S
C901 C900 1.327 . S
C901 C905 1.429 . S
C902 C885 1.574 . S
C902 H896 0.949 . S
C902 C906 1.368 . S
C903 C884 1.429 . S
C903 C897 1.429 . S
C903 C904 1.523 . S
C904 C885 1.368 . S
C904 C898 1.368 . S
C904 C903 1.523 . S
C905 C889 1.429 . S
C905 C901 1.429 . S
C905 C906 1.523 . S
C906 C890 1.368 . S
C906 C902 1.368 . S
C906 C905 1.523 . S
H907 C882 0.950 . S
H908 C884 0.950 . S
H909 C885 0.949 . S
H910 C887 0.950 . S
H911 C889 0.950 . S
C193 C45 1.608 . S
C198 C112 1.585 . S
C223 C30 1.599 . S
C228 C123 1.620 . S
C253 C39 1.610 . S
C258 C134 1.586 . S
C288 C145 1.576 . S
C283 C34 1.599 . S
C313 C97 1.608 . S
C318 C156 1.584 . S
C348 C167 1.620 . S
C343 C82 1.599 . S
C378 C178 1.586 . S
C373 C91 1.610 . S
C408 C189 1.576 . S
C403 C86 1.599 . S
C438 C175 1.109 . S
C433 C26 1.321 . S
C468 C186 1.243 . S
C463 C36 1.484 . S
C498 C153 1.111 . S
C493 C32 1.325 . S
C528 C166 1.561 . S
C523 C42 1.521 . S
C553 C18 1.558 . S
C558 C164 1.520 . S
C588 C177 1.757 . S
C583 C50 1.775 . S
C613 C4 1.601 . S
C618 C188 1.583 . S
C643 C48 1.772 . S
C648 C155 1.761 . S
C678 C131 1.109 . S
C673 C78 1.321 . S
C703 C88 1.484 . S
C708 C142 1.243 . S
C738 C109 1.111 . S
C733 C84 1.325 . S
C768 C122 1.561 . S
C763 C94 1.521 . S
C798 C120 1.520 . S
C793 C70 1.558 . S
C828 C133 1.757 . S
C823 C102 1.775 . S
C853 C56 1.601 . S
C858 C144 1.583 . S
C883 C100 1.772 . S
C888 C111 1.760 . S
