# Generated by pormake.
# Topology ocu, (6,8)-cn, num edge types: 1
# Building blocks:
#     Node 0, Type 0, BuildingBlock: KUMJIN_clean_sbu_0, # of connection points: 6
#     Node 1, Type 0, BuildingBlock: KUMJIN_clean_sbu_0, # of connection points: 6
#     Node 2, Type 0, BuildingBlock: KUMJIN_clean_sbu_0, # of connection points: 6
#     Node 3, Type 0, BuildingBlock: KUMJIN_clean_sbu_0, # of connection points: 6
#     Node 4, Type 0, BuildingBlock: KUMJIN_clean_sbu_0, # of connection points: 6
#     Node 5, Type 0, BuildingBlock: KUMJIN_clean_sbu_0, # of connection points: 6
#     Node 6, Type 0, BuildingBlock: KUMJIN_clean_sbu_0, # of connection points: 6
#     Node 7, Type 0, BuildingBlock: KUMJIN_clean_sbu_0, # of connection points: 6
#     Node 8, Type 1, BuildingBlock: AJUNOK_clean_sbu_0, # of connection points: 8
#     Node 9, Type 1, BuildingBlock: AJUNOK_clean_sbu_0, # of connection points: 8
#     Node 10, Type 1, BuildingBlock: AJUNOK_clean_sbu_0, # of connection points: 8
#     Node 11, Type 1, BuildingBlock: AJUNOK_clean_sbu_0, # of connection points: 8
#     Node 12, Type 1, BuildingBlock: AJUNOK_clean_sbu_0, # of connection points: 8
#     Node 13, Type 1, BuildingBlock: AJUNOK_clean_sbu_0, # of connection points: 8
#     Edge 14, Type (0, 1), BuildingBlock: KIFKEQ_clean_linker_1, # of connection points: 2
#     Edge 15, Type (0, 1), BuildingBlock: KIFKEQ_clean_linker_1, # of connection points: 2
#     Edge 16, Type (0, 1), BuildingBlock: KIFKEQ_clean_linker_1, # of connection points: 2
#     Edge 17, Type (0, 1), BuildingBlock: KIFKEQ_clean_linker_1, # of connection points: 2
#     Edge 18, Type (0, 1), BuildingBlock: KIFKEQ_clean_linker_1, # of connection points: 2
#     Edge 19, Type (0, 1), BuildingBlock: KIFKEQ_clean_linker_1, # of connection points: 2
#     Edge 20, Type (0, 1), BuildingBlock: KIFKEQ_clean_linker_1, # of connection points: 2
#     Edge 21, Type (0, 1), BuildingBlock: KIFKEQ_clean_linker_1, # of connection points: 2
#     Edge 22, Type (0, 1), BuildingBlock: KIFKEQ_clean_linker_1, # of connection points: 2
#     Edge 23, Type (0, 1), BuildingBlock: KIFKEQ_clean_linker_1, # of connection points: 2
#     Edge 24, Type (0, 1), BuildingBlock: KIFKEQ_clean_linker_1, # of connection points: 2
#     Edge 25, Type (0, 1), BuildingBlock: KIFKEQ_clean_linker_1, # of connection points: 2
#     Edge 26, Type (0, 1), BuildingBlock: KIFKEQ_clean_linker_1, # of connection points: 2
#     Edge 27, Type (0, 1), BuildingBlock: KIFKEQ_clean_linker_1, # of connection points: 2
#     Edge 28, Type (0, 1), BuildingBlock: KIFKEQ_clean_linker_1, # of connection points: 2
#     Edge 29, Type (0, 1), BuildingBlock: KIFKEQ_clean_linker_1, # of connection points: 2
#     Edge 30, Type (0, 1), BuildingBlock: KIFKEQ_clean_linker_1, # of connection points: 2
#     Edge 31, Type (0, 1), BuildingBlock: KIFKEQ_clean_linker_1, # of connection points: 2
#     Edge 32, Type (0, 1), BuildingBlock: KIFKEQ_clean_linker_1, # of connection points: 2
#     Edge 33, Type (0, 1), BuildingBlock: KIFKEQ_clean_linker_1, # of connection points: 2
#     Edge 34, Type (0, 1), BuildingBlock: KIFKEQ_clean_linker_1, # of connection points: 2
#     Edge 35, Type (0, 1), BuildingBlock: KIFKEQ_clean_linker_1, # of connection points: 2
#     Edge 36, Type (0, 1), BuildingBlock: KIFKEQ_clean_linker_1, # of connection points: 2
#     Edge 37, Type (0, 1), BuildingBlock: KIFKEQ_clean_linker_1, # of connection points: 2
#     Edge 38, Type (0, 1), BuildingBlock: KIFKEQ_clean_linker_1, # of connection points: 2
#     Edge 39, Type (0, 1), BuildingBlock: KIFKEQ_clean_linker_1, # of connection points: 2
#     Edge 40, Type (0, 1), BuildingBlock: KIFKEQ_clean_linker_1, # of connection points: 2
#     Edge 41, Type (0, 1), BuildingBlock: KIFKEQ_clean_linker_1, # of connection points: 2
#     Edge 42, Type (0, 1), BuildingBlock: KIFKEQ_clean_linker_1, # of connection points: 2
#     Edge 43, Type (0, 1), BuildingBlock: KIFKEQ_clean_linker_1, # of connection points: 2
#     Edge 44, Type (0, 1), BuildingBlock: KIFKEQ_clean_linker_1, # of connection points: 2
#     Edge 45, Type (0, 1), BuildingBlock: KIFKEQ_clean_linker_1, # of connection points: 2
#     Edge 46, Type (0, 1), BuildingBlock: KIFKEQ_clean_linker_1, # of connection points: 2
#     Edge 47, Type (0, 1), BuildingBlock: KIFKEQ_clean_linker_1, # of connection points: 2
#     Edge 48, Type (0, 1), BuildingBlock: KIFKEQ_clean_linker_1, # of connection points: 2
#     Edge 49, Type (0, 1), BuildingBlock: KIFKEQ_clean_linker_1, # of connection points: 2
#     Edge 50, Type (0, 1), BuildingBlock: KIFKEQ_clean_linker_1, # of connection points: 2
#     Edge 51, Type (0, 1), BuildingBlock: KIFKEQ_clean_linker_1, # of connection points: 2
#     Edge 52, Type (0, 1), BuildingBlock: KIFKEQ_clean_linker_1, # of connection points: 2
#     Edge 53, Type (0, 1), BuildingBlock: KIFKEQ_clean_linker_1, # of connection points: 2
#     Edge 54, Type (0, 1), BuildingBlock: KIFKEQ_clean_linker_1, # of connection points: 2
#     Edge 55, Type (0, 1), BuildingBlock: KIFKEQ_clean_linker_1, # of connection points: 2
#     Edge 56, Type (0, 1), BuildingBlock: KIFKEQ_clean_linker_1, # of connection points: 2
#     Edge 57, Type (0, 1), BuildingBlock: KIFKEQ_clean_linker_1, # of connection points: 2
#     Edge 58, Type (0, 1), BuildingBlock: KIFKEQ_clean_linker_1, # of connection points: 2
#     Edge 59, Type (0, 1), BuildingBlock: KIFKEQ_clean_linker_1, # of connection points: 2
#     Edge 60, Type (0, 1), BuildingBlock: KIFKEQ_clean_linker_1, # of connection points: 2
#     Edge 61, Type (0, 1), BuildingBlock: KIFKEQ_clean_linker_1, # of connection points: 2
# Relax obj value: 0.159
# Max RMSD: 0.262
# Mean RMSD: 0.205
data_MOF--net-ocu--node1-KUMJIN_clean_sbu_0--node2-AJUNOK_clean_sbu_0--edge1-KIFKEQ_clean_linker_1
_symmetry_space_group_name_H-M    P1
_symmetry_Int_Tables_number       1
_symmetry_cell_setting            triclinic
loop_
_symmetry_equiv_pos_as_xyz
'x, y, z'
_cell_length_a     44.164339
_cell_length_b     43.590295
_cell_length_c     40.502404
_cell_angle_alpha  86.02822
_cell_angle_beta   105.02291
_cell_angle_gamma 111.87319
loop_
_atom_site_label
_atom_site_type_symbol
_atom_site_fract_x
_atom_site_fract_y
_atom_site_fract_z
_atom_type_partial_charge
Eu0 Eu 0.25222 0.21264 0.20195 0.0
C1 C 0.35151 0.30621 0.32717 0.0
C2 C 0.35297 0.26793 0.37333 0.0
C3 C 0.40049 0.31974 0.37586 0.0
C4 C 0.33643 0.27639 0.34135 0.0
C5 C 0.38327 0.32866 0.34475 0.0
C6 C 0.38541 0.28938 0.39007 0.0
C7 C 0.37696 0.36848 0.30151 0.0
N8 N 0.33406 0.3143 0.29734 0.0
C9 C 0.34557 0.34534 0.28501 0.0
C10 C 0.39615 0.35992 0.33123 0.0
Eu11 Eu 0.28057 0.27492 0.27171 0.0
N12 N 0.30467 0.25674 0.32505 0.0
C13 C 0.28711 0.2295 0.34057 0.0
C14 C 0.33589 0.23883 0.38819 0.0
C15 C 0.30263 0.21979 0.37195 0.0
H16 H 0.33066 0.35201 0.26209 0.0
H17 H 0.28886 0.19767 0.38362 0.0
H18 H 0.39857 0.2832 0.41454 0.0
H19 H 0.3863 0.39286 0.29131 0.0
H20 H 0.26133 0.21455 0.32856 0.0
H21 H 0.24378 0.28951 0.08971 0.0
H22 H 0.34775 0.23142 0.41267 0.0
H23 H 0.20179 0.13541 0.21104 0.0
H24 H 0.27152 0.27237 0.14454 0.0
H25 H 0.14492 0.09571 0.18332 0.0
H26 H 0.42504 0.33654 0.38961 0.0
H27 H 0.18434 0.2567 0.06156 0.0
H28 H 0.13288 0.20577 0.06054 0.0
H29 H 0.42038 0.37793 0.34406 0.0
H30 H 0.10593 0.15286 0.08593 0.0
N31 N 0.22786 0.23088 0.14869 0.0
C32 C 0.24553 0.2578 0.13287 0.0
C33 C 0.19632 0.24915 0.08589 0.0
C34 C 0.17904 0.22036 0.10106 0.0
C35 C 0.22989 0.26766 0.10163 0.0
C36 C 0.19578 0.21168 0.13282 0.0
H37 H 0.11038 0.11139 0.13144 0.0
N38 N 0.19824 0.17362 0.17656 0.0
C39 C 0.15444 0.12004 0.17309 0.0
C40 C 0.18052 0.18205 0.14715 0.0
C41 C 0.18645 0.14259 0.18885 0.0
C42 C 0.13503 0.12901 0.14383 0.0
C43 C 0.14826 0.16009 0.1301 0.0
O44 O 0.26824 0.171 0.20129 0.0
O45 O 0.28586 0.22969 0.25443 0.0
O46 O 0.32622 0.28459 0.25156 0.0
O47 O 0.29904 0.25672 0.19858 0.0
O48 O 0.25767 0.17963 0.24695 0.0
O49 O 0.27804 0.20858 0.16379 0.0
O50 O 0.26531 0.31701 0.27286 0.0
O51 O 0.24714 0.2577 0.21946 0.0
O52 O 0.20687 0.20193 0.22301 0.0
O53 O 0.23384 0.23127 0.2753 0.0
O54 O 0.2746 0.30778 0.22641 0.0
O55 O 0.25382 0.27846 0.30918 0.0
C56 C 0.28071 0.20193 0.26861 0.0
C57 C 0.27178 0.15453 0.14857 0.0
C58 C 0.29006 0.1245 0.1137 0.0
C59 C 0.29757 0.15049 0.13703 0.0
C60 C 0.25641 0.10248 0.10256 0.0
C61 C 0.23842 0.13268 0.13637 0.0
C62 C 0.23086 0.1067 0.11371 0.0
C63 C 0.32585 0.27719 0.22029 0.0
C64 C 0.28022 0.18045 0.17458 0.0
C65 C 0.13085 0.16928 0.09928 0.0
C66 C 0.14619 0.19941 0.08482 0.0
C67 C 0.25172 0.28519 0.20496 0.0
C68 C 0.26081 0.33242 0.32565 0.0
C69 C 0.23489 0.33678 0.3367 0.0
C70 C 0.24248 0.36215 0.36085 0.0
C71 C 0.27633 0.38325 0.37323 0.0
C72 C 0.29432 0.35335 0.33911 0.0
C73 C 0.30197 0.37873 0.36253 0.0
C74 C 0.20737 0.21004 0.25405 0.0
C75 C 0.25248 0.30706 0.29902 0.0
H76 H 0.32334 0.16756 0.14623 0.0
H77 H 0.2498 0.08161 0.08554 0.0
H78 H 0.21822 0.13537 0.14456 0.0
H79 H 0.20509 0.0896 0.10495 0.0
H80 H 0.20898 0.32046 0.32653 0.0
H81 H 0.28304 0.40365 0.3909 0.0
H82 H 0.31462 0.35039 0.33137 0.0
H83 H 0.32788 0.39513 0.37225 0.0
Eu84 Eu 0.79332 0.22447 0.22919 0.0
C85 C 0.7035 0.2601 0.30584 0.0
C86 C 0.64789 0.21681 0.29105 0.0
C87 C 0.66677 0.24774 0.34473 0.0
C88 C 0.67869 0.23579 0.28265 0.0
C89 C 0.69719 0.26679 0.33662 0.0
C90 C 0.64233 0.22271 0.32214 0.0
C91 C 0.75015 0.31304 0.34827 0.0
N92 N 0.73299 0.27839 0.29783 0.0
C93 C 0.75536 0.30569 0.31772 0.0
C94 C 0.72114 0.29325 0.35801 0.0
Eu95 Eu 0.73846 0.26675 0.24366 0.0
N96 N 0.68397 0.23127 0.25181 0.0
C97 C 0.65812 0.20907 0.22815 0.0
C98 C 0.62303 0.19267 0.26777 0.0
C99 C 0.62811 0.189 0.23615 0.0
H100 H 0.7778 0.3217 0.31034 0.0
H101 H 0.60848 0.17109 0.21744 0.0
H102 H 0.61882 0.20839 0.32869 0.0
H103 H 0.76842 0.33418 0.36413 0.0
H104 H 0.65897 0.20627 0.20242 0.0
H105 H 0.92236 0.3119 0.23792 0.0
H106 H 0.59941 0.1774 0.27358 0.0
H107 H 0.7493 0.16098 0.17163 0.0
H108 H 0.87339 0.27952 0.25919 0.0
H109 H 0.74788 0.14484 0.11373 0.0
H110 H 0.66168 0.25252 0.36825 0.0
H111 H 0.92221 0.30417 0.17808 0.0
H112 H 0.89248 0.27412 0.12168 0.0
H113 H 0.71699 0.29919 0.38161 0.0
H114 H 0.84455 0.22886 0.08749 0.0
N115 N 0.84267 0.25657 0.2108 0.0
C116 C 0.87143 0.27728 0.23243 0.0
C117 C 0.8998 0.29075 0.18693 0.0
C118 C 0.87136 0.26778 0.16551 0.0
C119 C 0.89997 0.29519 0.22068 0.0
C120 C 0.84294 0.25049 0.17844 0.0
H121 H 0.79079 0.18031 0.08444 0.0
N122 N 0.79073 0.20659 0.17372 0.0
C123 C 0.76701 0.16758 0.12606 0.0
C124 C 0.81604 0.22491 0.15923 0.0
C125 C 0.76789 0.17678 0.15876 0.0
C126 C 0.79117 0.18774 0.10957 0.0
C127 C 0.81673 0.21618 0.12656 0.0
O128 O 0.80497 0.1801 0.23103 0.0
O129 O 0.75561 0.2248 0.25676 0.0
O130 O 0.77908 0.26801 0.29219 0.0
O131 O 0.82129 0.26587 0.2696 0.0
O132 O 0.74855 0.17934 0.23841 0.0
O133 O 0.82903 0.21516 0.27357 0.0
O134 O 0.75976 0.32075 0.24699 0.0
O135 O 0.78536 0.27203 0.22741 0.0
O136 O 0.75357 0.22267 0.18031 0.0
O137 O 0.71103 0.23155 0.19781 0.0
O138 O 0.75133 0.28911 0.19405 0.0
O139 O 0.70549 0.29459 0.22869 0.0
C140 C 0.73744 0.19481 0.25544 0.0
C141 C 0.81896 0.15826 0.28483 0.0
C142 C 0.82294 0.13713 0.34238 0.0
C143 C 0.82398 0.1633 0.31996 0.0
C144 C 0.81491 0.1053 0.3289 0.0
C145 C 0.81154 0.12645 0.27195 0.0
C146 C 0.80907 0.10005 0.29387 0.0
C147 C 0.81112 0.2739 0.29458 0.0
C148 C 0.8243 0.18625 0.2618 0.0
C149 C 0.8438 0.23496 0.11267 0.0
C150 C 0.87112 0.26067 0.13216 0.0
C151 C 0.78058 0.28719 0.20021 0.0
C152 C 0.73017 0.34554 0.20397 0.0
C153 C 0.71407 0.33284 0.17039 0.0
C154 C 0.71493 0.35397 0.14269 0.0
C155 C 0.73207 0.38827 0.14905 0.0
C156 C 0.74697 0.37971 0.20988 0.0
C157 C 0.74789 0.40097 0.18246 0.0
C158 C 0.72211 0.22011 0.17583 0.0
C159 C 0.73063 0.32321 0.23278 0.0
H160 H 0.83051 0.18791 0.33018 0.0
H161 H 0.81512 0.08481 0.34556 0.0
H162 H 0.8083 0.12211 0.245 0.0
H163 H 0.80389 0.07573 0.28386 0.0
H164 H 0.70083 0.30643 0.16573 0.0
H165 H 0.73221 0.40543 0.12838 0.0
H166 H 0.75944 0.38988 0.23566 0.0
H167 H 0.76062 0.4274 0.18712 0.0
Eu168 Eu 0.73882 0.73131 0.26779 0.0
C169 C 0.82301 0.81635 0.16506 0.0
C170 C 0.78132 0.81408 0.11187 0.0
C171 C 0.83636 0.85843 0.12281 0.0
C172 C 0.79108 0.80099 0.14399 0.0
C173 C 0.84618 0.84498 0.15446 0.0
C174 C 0.80399 0.84305 0.1016 0.0
C175 C 0.88801 0.84352 0.20593 0.0
N176 N 0.83202 0.80243 0.19519 0.0
C177 C 0.86427 0.81503 0.21526 0.0
C178 C 0.87887 0.85871 0.17552 0.0
Eu179 Eu 0.79173 0.75235 0.20729 0.0
N180 N 0.77009 0.77249 0.15416 0.0
C181 C 0.73949 0.75516 0.13279 0.0
C182 C 0.74941 0.79716 0.09058 0.0
C183 C 0.72849 0.76747 0.10104 0.0
H184 H 0.87178 0.80324 0.23857 0.0
H185 H 0.704 0.75385 0.08451 0.0
H186 H 0.79695 0.8534 0.077 0.0
H187 H 0.91339 0.85361 0.22211 0.0
H188 H 0.7232 0.73184 0.14005 0.0
H189 H 0.83005 0.74083 0.39098 0.0
H190 H 0.741 0.80642 0.06575 0.0
H191 H 0.66188 0.67446 0.23873 0.0
H192 H 0.80771 0.75887 0.33428 0.0
H193 H 0.62414 0.62213 0.25715 0.0
H194 H 0.85382 0.8804 0.11425 0.0
H195 H 0.79749 0.6873 0.41219 0.0
H196 H 0.74466 0.63657 0.40297 0.0
H197 H 0.89741 0.88062 0.16821 0.0
H198 H 0.6887 0.60437 0.36673 0.0
N199 N 0.76336 0.71528 0.32216 0.0
C200 C 0.79326 0.73522 0.34272 0.0
C201 C 0.78767 0.69489 0.38693 0.0
C202 C 0.75641 0.67516 0.36638 0.0
C203 C 0.80608 0.72512 0.37508 0.0
C204 C 0.7448 0.68614 0.33365 0.0
H205 H 0.64356 0.59883 0.31245 0.0
N206 N 0.7026 0.67984 0.28247 0.0
C207 C 0.64927 0.63463 0.27307 0.0
C208 C 0.71346 0.66788 0.31319 0.0
C209 C 0.67069 0.66419 0.26269 0.0
C210 C 0.66034 0.62155 0.30428 0.0
C211 C 0.69264 0.63833 0.32495 0.0
O212 O 0.69406 0.74179 0.26747 0.0
O213 O 0.74804 0.75918 0.22039 0.0
O214 O 0.80294 0.80079 0.23343 0.0
O215 O 0.78382 0.77956 0.28193 0.0
O216 O 0.69882 0.73015 0.21946 0.0
O217 O 0.74063 0.76592 0.30547 0.0
O218 O 0.83012 0.73138 0.20994 0.0
O219 O 0.78224 0.72461 0.25479 0.0
O220 O 0.72937 0.68368 0.24081 0.0
O221 O 0.74428 0.70733 0.19132 0.0
O222 O 0.83141 0.75365 0.25608 0.0
O223 O 0.78985 0.72304 0.1642 0.0
C224 C 0.71777 0.75183 0.2028 0.0
C225 C 0.68983 0.75913 0.31955 0.0
C226 C 0.66656 0.78485 0.3532 0.0
C227 C 0.68444 0.78697 0.32844 0.0
C228 C 0.65385 0.75444 0.36865 0.0
C229 C 0.67672 0.72896 0.33504 0.0
C230 C 0.65877 0.72668 0.35943 0.0
C231 C 0.80027 0.80428 0.26464 0.0
C232 C 0.70896 0.76208 0.29396 0.0
C233 C 0.70432 0.627 0.35725 0.0
C234 C 0.73617 0.64535 0.3779 0.0
C235 C 0.8123 0.73242 0.27295 0.0
C236 C 0.8424 0.72371 0.15864 0.0
C237 C 0.84439 0.69648 0.1437 0.0
C238 C 0.86981 0.70109 0.12654 0.0
C239 C 0.89322 0.73334 0.12509 0.0
C240 C 0.8656 0.75551 0.15594 0.0
C241 C 0.89091 0.76025 0.13944 0.0
C242 C 0.7299 0.68174 0.2086 0.0
C243 C 0.81775 0.71858 0.17905 0.0
H244 H 0.69444 0.81031 0.31639 0.0
H245 H 0.63964 0.75205 0.38746 0.0
H246 H 0.68028 0.70722 0.32827 0.0
H247 H 0.64859 0.70329 0.37122 0.0
H248 H 0.82634 0.6719 0.14563 0.0
H249 H 0.91386 0.73786 0.11337 0.0
H250 H 0.86466 0.77669 0.16709 0.0
H251 H 0.90911 0.78487 0.13816 0.0
Eu252 Eu 0.29032 0.71641 0.24793 0.0
C253 C 0.22826 0.81182 0.15664 0.0
C254 C 0.27721 0.86197 0.15968 0.0
C255 C 0.23008 0.84937 0.10928 0.0
C256 C 0.26001 0.83216 0.17403 0.0
C257 C 0.21241 0.82066 0.12455 0.0
C258 C 0.2625 0.86997 0.1268 0.0
C259 C 0.16171 0.77411 0.12684 0.0
N260 N 0.21189 0.78449 0.17223 0.0
C261 C 0.17859 0.76644 0.15867 0.0
C262 C 0.17888 0.80102 0.10939 0.0
Eu263 Eu 0.24207 0.7712 0.22488 0.0
N264 N 0.27312 0.82385 0.20593 0.0
C265 C 0.30211 0.84586 0.22599 0.0
C266 C 0.30808 0.88341 0.17928 0.0
C267 C 0.32024 0.87559 0.21283 0.0
H268 H 0.16534 0.74548 0.17205 0.0
H269 H 0.3437 0.89236 0.22854 0.0
H270 H 0.2755 0.89255 0.11519 0.0
H271 H 0.13553 0.75921 0.11577 0.0
H272 H 0.3123 0.84038 0.25184 0.0
H273 H 0.18837 0.59588 0.24384 0.0
H274 H 0.32216 0.90646 0.16917 0.0
H275 H 0.36612 0.74516 0.30224 0.0
H276 H 0.21824 0.64959 0.22214 0.0
H277 H 0.39765 0.72959 0.35639 0.0
H278 H 0.21852 0.85637 0.08442 0.0
H279 H 0.21331 0.57841 0.30038 0.0
H280 H 0.26224 0.58994 0.35209 0.0
H281 H 0.16576 0.80699 0.08478 0.0
H282 H 0.31926 0.62614 0.38262 0.0
N283 N 0.25949 0.66378 0.26654 0.0
C284 C 0.2296 0.64271 0.24695 0.0
C285 C 0.22654 0.60232 0.2911 0.0
C286 C 0.25803 0.62313 0.31023 0.0
C287 C 0.21243 0.61204 0.25916 0.0
C288 C 0.27411 0.65407 0.29705 0.0
H289 H 0.37008 0.67805 0.38425 0.0
N290 N 0.32108 0.70344 0.30028 0.0
C291 C 0.37181 0.71395 0.34498 0.0
C292 C 0.30596 0.67451 0.3144 0.0
C293 C 0.35393 0.7227 0.31439 0.0
C294 C 0.35613 0.68489 0.36065 0.0
C295 C 0.32296 0.66452 0.34517 0.0
O296 O 0.33646 0.72094 0.23464 0.0
O297 O 0.28496 0.75965 0.21813 0.0
O298 O 0.23075 0.74227 0.17616 0.0
O299 O 0.24893 0.69924 0.19838 0.0
O300 O 0.33311 0.76487 0.24616 0.0
O301 O 0.28975 0.68041 0.21269 0.0
O302 O 0.19576 0.76679 0.23776 0.0
O303 O 0.24738 0.72786 0.25487 0.0
O304 O 0.30091 0.74532 0.29677 0.0
O305 O 0.28454 0.78891 0.27327 0.0
O306 O 0.19952 0.72247 0.22651 0.0
O307 O 0.24278 0.80621 0.26125 0.0
C308 C 0.3155 0.7787 0.22443 0.0
C309 C 0.3407 0.67281 0.21661 0.0
C310 C 0.35955 0.64047 0.18577 0.0
C311 C 0.34052 0.65994 0.18588 0.0
C312 C 0.3787 0.63379 0.21703 0.0
C313 C 0.35978 0.66601 0.24768 0.0
C314 C 0.37874 0.64652 0.2478 0.0
C315 C 0.23289 0.71313 0.17329 0.0
C316 C 0.32195 0.69449 0.21484 0.0
C317 C 0.3067 0.63418 0.35892 0.0
C318 C 0.27425 0.61356 0.34153 0.0
C319 C 0.21685 0.70873 0.24876 0.0
C320 C 0.19238 0.81428 0.25831 0.0
C321 C 0.19166 0.82463 0.28981 0.0
C322 C 0.17417 0.84514 0.29131 0.0
C323 C 0.15712 0.85525 0.26083 0.0
C324 C 0.17531 0.82424 0.22784 0.0
C325 C 0.15761 0.84466 0.2292 0.0
C326 C 0.30002 0.77516 0.29895 0.0
C327 C 0.21052 0.79238 0.25868 0.0
H328 H 0.32562 0.66526 0.16197 0.0
H329 H 0.39411 0.61929 0.21762 0.0
H330 H 0.36029 0.67595 0.27165 0.0
H331 H 0.39376 0.64153 0.27173 0.0
H332 H 0.20489 0.81678 0.3133 0.0
H333 H 0.14309 0.87086 0.26153 0.0
H334 H 0.17555 0.81618 0.20325 0.0
H335 H 0.14419 0.85222 0.20576 0.0
Eu336 Eu 0.28916 0.71972 0.73458 0.0
C337 C 0.20411 0.76257 0.80206 0.0
C338 C 0.14928 0.71817 0.78763 0.0
C339 C 0.16677 0.75043 0.84029 0.0
C340 C 0.18012 0.73743 0.77961 0.0
C341 C 0.19734 0.76954 0.83244 0.0
C342 C 0.14282 0.72482 0.81796 0.0
C343 C 0.25016 0.81584 0.84408 0.0
N344 N 0.23364 0.7807 0.79403 0.0
C345 C 0.25555 0.80837 0.81366 0.0
C346 C 0.22111 0.79609 0.85377 0.0
Eu347 Eu 0.23882 0.76884 0.73937 0.0
N348 N 0.18714 0.7311 0.75054 0.0
C349 C 0.16484 0.70454 0.72972 0.0
C350 C 0.12587 0.69236 0.76522 0.0
C351 C 0.1339 0.68526 0.73639 0.0
H352 H 0.27727 0.82538 0.80584 0.0
H353 H 0.11656 0.6644 0.71962 0.0
H354 H 0.11935 0.71019 0.82443 0.0
H355 H 0.2681 0.83732 0.85964 0.0
H356 H 0.17095 0.69656 0.70878 0.0
H357 H 0.41437 0.82202 0.75714 0.0
H358 H 0.10196 0.67716 0.77045 0.0
H359 H 0.25376 0.66114 0.67156 0.0
H360 H 0.36154 0.78924 0.76941 0.0
H361 H 0.26457 0.64699 0.61928 0.0
H362 H 0.1613 0.75546 0.86348 0.0
H363 H 0.42786 0.81062 0.7051 0.0
H364 H 0.41054 0.77761 0.65134 0.0
H365 H 0.21676 0.8022 0.87718 0.0
H366 H 0.36944 0.73128 0.61316 0.0
N367 N 0.34275 0.75634 0.72546 0.0
C368 C 0.36591 0.78218 0.74694 0.0
C369 C 0.40406 0.7953 0.71049 0.0
C370 C 0.38058 0.76954 0.68813 0.0
C371 C 0.39659 0.80169 0.73991 0.0
C372 C 0.34976 0.7502 0.69624 0.0
H373 H 0.31525 0.68281 0.60093 0.0
N374 N 0.29679 0.70617 0.68214 0.0
C375 C 0.28194 0.66912 0.63416 0.0
C376 C 0.32617 0.72459 0.67408 0.0
C377 C 0.27587 0.67747 0.66384 0.0
C378 C 0.31051 0.68937 0.62391 0.0
C379 C 0.33342 0.71705 0.64423 0.0
O380 O 0.26605 0.66589 0.735 0.0
O381 O 0.24276 0.71943 0.74845 0.0
O382 O 0.28676 0.78251 0.7822 0.0
O383 O 0.3176 0.7485 0.78442 0.0
O384 O 0.27679 0.70429 0.78532 0.0
O385 O 0.3207 0.6905 0.7501 0.0
O386 O 0.25716 0.8227 0.74121 0.0
O387 O 0.28501 0.76885 0.72578 0.0
O388 O 0.24508 0.71107 0.68685 0.0
O389 O 0.21042 0.74012 0.68954 0.0
O390 O 0.25369 0.78757 0.69005 0.0
O391 O 0.20371 0.7942 0.72163 0.0
C392 C 0.24844 0.70834 0.77826 0.0
C393 C 0.29601 0.64263 0.77922 0.0
C394 C 0.31857 0.63863 0.84046 0.0
C395 C 0.31417 0.65769 0.81149 0.0
C396 C 0.30152 0.60397 0.83683 0.0
C397 C 0.27936 0.60829 0.77616 0.0
C398 C 0.28169 0.58911 0.80503 0.0
C399 C 0.31191 0.77265 0.79672 0.0
C400 C 0.29489 0.66272 0.74869 0.0
C401 C 0.36369 0.73659 0.63607 0.0
C402 C 0.38716 0.76281 0.65791 0.0
C403 C 0.28106 0.78172 0.69685 0.0
C404 C 0.22731 0.84511 0.69634 0.0
C405 C 0.21398 0.83152 0.66297 0.0
C406 C 0.211 0.85166 0.63466 0.0
C407 C 0.22428 0.88631 0.64057 0.0
C408 C 0.24035 0.87944 0.70163 0.0
C409 C 0.23924 0.89996 0.67374 0.0
C410 C 0.21852 0.7196 0.67405 0.0
C411 C 0.2277 0.82353 0.72569 0.0
H412 H 0.32589 0.68435 0.81358 0.0
H413 H 0.30461 0.5879 0.85795 0.0
H414 H 0.26489 0.59635 0.75144 0.0
H415 H 0.26909 0.5625 0.80256 0.0
H416 H 0.20499 0.80499 0.65938 0.0
H417 H 0.22187 0.9031 0.62001 0.0
H418 H 0.25115 0.8903 0.72728 0.0
H419 H 0.24899 0.92651 0.67789 0.0
Eu420 Eu 0.23802 0.23223 0.76838 0.0
C421 C 0.32091 0.31897 0.66693 0.0
C422 C 0.2786 0.3154 0.61398 0.0
C423 C 0.3314 0.36282 0.626 0.0
C424 C 0.28949 0.30227 0.64569 0.0
C425 C 0.34254 0.34908 0.657 0.0
C426 C 0.29945 0.34604 0.60457 0.0
C427 C 0.38565 0.34831 0.70761 0.0
N428 N 0.33113 0.30478 0.69639 0.0
C429 C 0.3633 0.3184 0.7163 0.0
C430 C 0.37511 0.36393 0.67801 0.0
Eu431 Eu 0.29266 0.25366 0.70888 0.0
N432 N 0.27033 0.27237 0.65518 0.0
C433 C 0.24091 0.25338 0.63321 0.0
C434 C 0.24753 0.29685 0.59223 0.0
C435 C 0.22878 0.26554 0.60175 0.0
H436 H 0.3716 0.30642 0.73918 0.0
H437 H 0.20505 0.25068 0.58482 0.0
H438 H 0.29145 0.35657 0.58038 0.0
H439 H 0.41097 0.35928 0.72372 0.0
H440 H 0.22624 0.22903 0.64004 0.0
H441 H 0.32782 0.2373 0.89166 0.0
H442 H 0.23823 0.30609 0.56771 0.0
H443 H 0.15834 0.18014 0.74196 0.0
H444 H 0.30522 0.2582 0.83668 0.0
H445 H 0.12031 0.12665 0.75789 0.0
H446 H 0.34758 0.38602 0.61801 0.0
H447 H 0.29627 0.18151 0.90927 0.0
H448 H 0.24381 0.13032 0.89756 0.0
H449 H 0.39253 0.38701 0.67123 0.0
H450 H 0.18722 0.10018 0.86119 0.0
N451 N 0.26189 0.21406 0.8219 0.0
C452 C 0.29122 0.23365 0.84361 0.0
C453 C 0.28635 0.19041 0.88478 0.0
C454 C 0.25528 0.17128 0.86346 0.0
C455 C 0.30417 0.22193 0.87499 0.0
C456 C 0.2435 0.18402 0.83182 0.0
H457 H 0.14084 0.09873 0.80925 0.0
N458 N 0.20049 0.18114 0.78232 0.0
C459 C 0.14608 0.13754 0.77299 0.0
C460 C 0.21176 0.16705 0.8114 0.0
C461 C 0.16773 0.16765 0.76385 0.0
C462 C 0.15777 0.12186 0.80197 0.0
C463 C 0.19077 0.13689 0.82197 0.0
O464 O 0.19721 0.25002 0.76505 0.0
O465 O 0.2479 0.25922 0.72066 0.0
O466 O 0.30105 0.30167 0.73404 0.0
O467 O 0.28395 0.27932 0.78296 0.0
O468 O 0.19844 0.23016 0.71944 0.0
O469 O 0.23867 0.26239 0.81003 0.0
O470 O 0.33612 0.24079 0.70929 0.0
O471 O 0.2822 0.22642 0.75602 0.0
O472 O 0.22596 0.18439 0.7404 0.0
O473 O 0.24767 0.20617 0.69328 0.0
O474 O 0.33187 0.25427 0.75816 0.0
O475 O 0.28973 0.21946 0.67016 0.0
C476 C 0.21777 0.25094 0.7024 0.0
C477 C 0.18568 0.2596 0.81624 0.0
C478 C 0.15965 0.28279 0.84943 0.0
C479 C 0.18426 0.28704 0.83134 0.0
C480 C 0.13646 0.25062 0.85178 0.0
C481 C 0.16273 0.22786 0.81973 0.0
C482 C 0.13821 0.22346 0.83725 0.0
C483 C 0.29883 0.30468 0.76548 0.0
C484 C 0.20968 0.26458 0.79515 0.0
C485 C 0.2029 0.12339 0.85273 0.0
C486 C 0.23512 0.14055 0.87343 0.0
C487 C 0.31194 0.23359 0.77461 0.0
C488 C 0.34029 0.22501 0.65644 0.0
C489 C 0.34653 0.19758 0.64781 0.0
C490 C 0.3644 0.20007 0.62292 0.0
C491 C 0.37619 0.23045 0.60709 0.0
C492 C 0.35242 0.25511 0.64048 0.0
C493 C 0.37035 0.25777 0.61598 0.0
C494 C 0.22998 0.18152 0.70962 0.0
C495 C 0.32092 0.2217 0.6819 0.0
H496 H 0.20218 0.31154 0.82882 0.0
H497 H 0.11645 0.24637 0.86433 0.0
H498 H 0.16335 0.20651 0.80851 0.0
H499 H 0.12018 0.19891 0.83921 0.0
H500 H 0.33714 0.17427 0.66012 0.0
H501 H 0.39039 0.2332 0.5882 0.0
H502 H 0.34803 0.27647 0.6469 0.0
H503 H 0.37976 0.28111 0.60384 0.0
Eu504 Eu 0.78914 0.21915 0.74989 0.0
C505 C 0.72676 0.31116 0.65439 0.0
C506 C 0.77514 0.36162 0.65598 0.0
C507 C 0.72843 0.34648 0.60516 0.0
C508 C 0.75827 0.33242 0.67147 0.0
C509 C 0.7109 0.31858 0.62155 0.0
C510 C 0.76057 0.36794 0.62233 0.0
C511 C 0.66002 0.27312 0.62568 0.0
N512 N 0.71037 0.28472 0.6711 0.0
C513 C 0.67688 0.26687 0.65822 0.0
C514 C 0.67734 0.29865 0.60692 0.0
Eu515 Eu 0.74043 0.27448 0.72545 0.0
N516 N 0.77118 0.32591 0.70422 0.0
C517 C 0.79953 0.34907 0.72381 0.0
C518 C 0.8054 0.38429 0.67528 0.0
C519 C 0.81725 0.3783 0.70956 0.0
H520 H 0.66353 0.24702 0.67271 0.0
H521 H 0.84018 0.39608 0.72501 0.0
H522 H 0.77334 0.39002 0.60988 0.0
H523 H 0.63374 0.25823 0.61511 0.0
H524 H 0.80938 0.3449 0.75023 0.0
H525 H 0.69218 0.09718 0.75556 0.0
H526 H 0.81914 0.40697 0.66433 0.0
H527 H 0.86691 0.25135 0.80054 0.0
H528 H 0.71984 0.14879 0.72894 0.0
H529 H 0.90005 0.24122 0.85668 0.0
H530 H 0.71686 0.35235 0.57974 0.0
H531 H 0.71803 0.08608 0.81472 0.0
H532 H 0.76707 0.10344 0.86649 0.0
H533 H 0.66421 0.30358 0.5818 0.0
H534 H 0.82381 0.14254 0.894 0.0
N535 N 0.76097 0.16782 0.7728 0.0
C536 C 0.73172 0.14455 0.7547 0.0
C537 C 0.73041 0.10893 0.80314 0.0
C538 C 0.76144 0.13185 0.82076 0.0
C539 C 0.71581 0.11507 0.76973 0.0
C540 C 0.77643 0.16129 0.80455 0.0
H541 H 0.87387 0.19361 0.89025 0.0
N542 N 0.82246 0.21035 0.80286 0.0
C543 C 0.87418 0.22481 0.84677 0.0
C544 C 0.80821 0.18325 0.82006 0.0
C545 C 0.8554 0.23046 0.81502 0.0
C546 C 0.85928 0.19797 0.86568 0.0
C547 C 0.82607 0.17647 0.85215 0.0
O548 O 0.83269 0.22311 0.73179 0.0
O549 O 0.78289 0.26173 0.71875 0.0
O550 O 0.72698 0.24211 0.67865 0.0
O551 O 0.74463 0.19944 0.70331 0.0
O552 O 0.83158 0.26694 0.74544 0.0
O553 O 0.78693 0.17953 0.71798 0.0
O554 O 0.69453 0.27007 0.73863 0.0
O555 O 0.74782 0.23279 0.75697 0.0
O556 O 0.7998 0.24932 0.79772 0.0
O557 O 0.78359 0.29296 0.7734 0.0
O558 O 0.69855 0.22786 0.73506 0.0
O559 O 0.73975 0.31387 0.75586 0.0
C560 C 0.81349 0.28068 0.72418 0.0
C561 C 0.83836 0.17449 0.71786 0.0
C562 C 0.86427 0.1489 0.6881 0.0
C563 C 0.84172 0.16457 0.68735 0.0
C564 C 0.88311 0.14251 0.71958 0.0
C565 C 0.85684 0.16773 0.74938 0.0
C566 C 0.8791 0.15163 0.75015 0.0
C567 C 0.72846 0.21246 0.67746 0.0
C568 C 0.81787 0.19454 0.71561 0.0
C569 C 0.81064 0.148 0.86916 0.0
C570 C 0.77834 0.12574 0.8535 0.0
C571 C 0.71771 0.21448 0.75519 0.0
C572 C 0.68648 0.31726 0.75312 0.0
C573 C 0.68655 0.33025 0.78364 0.0
C574 C 0.66328 0.34467 0.7844 0.0
C575 C 0.64 0.34652 0.75394 0.0
C576 C 0.66321 0.31909 0.72269 0.0
C577 C 0.64006 0.33379 0.7232 0.0
C578 C 0.79921 0.27938 0.79926 0.0
C579 C 0.70802 0.29828 0.75543 0.0
H580 H 0.8278 0.17022 0.66296 0.0
H581 H 0.90101 0.13076 0.72044 0.0
H582 H 0.85458 0.17546 0.77317 0.0
H583 H 0.89372 0.14678 0.77441 0.0
H584 H 0.70448 0.32859 0.80711 0.0
H585 H 0.62157 0.35735 0.75406 0.0
H586 H 0.66246 0.30861 0.69891 0.0
H587 H 0.62182 0.33487 0.69986 0.0
Eu588 Eu 0.75349 0.7145 0.70143 0.0
C589 C 0.85002 0.80765 0.82798 0.0
C590 C 0.85351 0.77041 0.87486 0.0
C591 C 0.89869 0.82396 0.87707 0.0
C592 C 0.83632 0.77765 0.84257 0.0
C593 C 0.881 0.83146 0.84545 0.0
C594 C 0.885 0.79347 0.89171 0.0
C595 C 0.87272 0.86987 0.80127 0.0
N596 N 0.83173 0.81467 0.79805 0.0
C597 C 0.8419 0.84568 0.78525 0.0
C598 C 0.89254 0.86263 0.83135 0.0
Eu599 Eu 0.77885 0.77342 0.77339 0.0
N600 N 0.8053 0.75639 0.82621 0.0
C601 C 0.78947 0.72809 0.84149 0.0
C602 C 0.83803 0.74071 0.8898 0.0
C603 C 0.80576 0.71958 0.87313 0.0
H604 H 0.82622 0.85163 0.76251 0.0
H605 H 0.79328 0.69683 0.88476 0.0
H606 H 0.89854 0.78833 0.91652 0.0
H607 H 0.88095 0.89419 0.79067 0.0
H608 H 0.76437 0.71161 0.82927 0.0
H609 H 0.74102 0.79106 0.58957 0.0
H610 H 0.85041 0.73425 0.91454 0.0
H611 H 0.70455 0.63647 0.7115 0.0
H612 H 0.77005 0.77495 0.64425 0.0
H613 H 0.64807 0.59586 0.68454 0.0
H614 H 0.92253 0.8419 0.89084 0.0
H615 H 0.6821 0.75643 0.56169 0.0
H616 H 0.63196 0.70435 0.56109 0.0
H617 H 0.91615 0.8816 0.84403 0.0
H618 H 0.60661 0.65121 0.58692 0.0
N619 N 0.72766 0.73206 0.64855 0.0
C620 C 0.7443 0.75956 0.63273 0.0
C621 C 0.69464 0.7493 0.58597 0.0
C622 C 0.67837 0.72015 0.60128 0.0
C623 C 0.72792 0.76885 0.60156 0.0
C624 C 0.69582 0.71201 0.63294 0.0
H625 H 0.61251 0.61044 0.63274 0.0
N626 N 0.69984 0.67428 0.67682 0.0
C627 C 0.65699 0.62016 0.67405 0.0
C628 C 0.68147 0.68219 0.6475 0.0
C629 C 0.68881 0.64324 0.68941 0.0
C630 C 0.637 0.6285 0.64484 0.0
C631 C 0.64941 0.65957 0.63079 0.0
O632 O 0.77091 0.67411 0.69932 0.0
O633 O 0.7871 0.73054 0.75438 0.0
O634 O 0.82446 0.78652 0.75279 0.0
O635 O 0.79831 0.7611 0.69847 0.0
O636 O 0.76035 0.68046 0.7449 0.0
O637 O 0.77966 0.71274 0.66273 0.0
O638 O 0.76083 0.81331 0.77608 0.0
O639 O 0.74584 0.75728 0.7206 0.0
O640 O 0.70792 0.702 0.72226 0.0
O641 O 0.73443 0.7268 0.77673 0.0
O642 O 0.77087 0.80747 0.7297 0.0
O643 O 0.75203 0.77391 0.81184 0.0
C644 C 0.78292 0.70227 0.76731 0.0
C645 C 0.77386 0.65938 0.64581 0.0
C646 C 0.79184 0.62809 0.61207 0.0
C647 C 0.79968 0.65358 0.63612 0.0
C648 C 0.75776 0.60838 0.59828 0.0
C649 C 0.74013 0.63978 0.63117 0.0
C650 C 0.73218 0.61432 0.6077 0.0
C651 C 0.82404 0.78194 0.72083 0.0
C652 C 0.78248 0.68461 0.67255 0.0
C653 C 0.63136 0.66817 0.60002 0.0
C654 C 0.6458 0.69842 0.58531 0.0
C655 C 0.74935 0.78516 0.70722 0.0
C656 C 0.75785 0.82679 0.83004 0.0
C657 C 0.73278 0.83647 0.83634 0.0
C658 C 0.74155 0.8621 0.86041 0.0
C659 C 0.77542 0.87763 0.87829 0.0
C660 C 0.79142 0.84225 0.84862 0.0
C661 C 0.80014 0.86755 0.87256 0.0
C662 C 0.70843 0.70644 0.7543 0.0
C663 C 0.74912 0.80214 0.80267 0.0
H664 H 0.82575 0.66889 0.64729 0.0
H665 H 0.7508 0.58797 0.58054 0.0
H666 H 0.71992 0.64381 0.63809 0.0
H667 H 0.70608 0.59896 0.59696 0.0
H668 H 0.70678 0.82481 0.82195 0.0
H669 H 0.78269 0.89745 0.89687 0.0
H670 H 0.81098 0.8351 0.84447 0.0
H671 H 0.82618 0.87953 0.88654 0.0
Cd672 Cd 0.98578 0.96874 0.52104 0.0
Cd673 Cd 0.057 0.02448 0.4523 0.0
C674 C 0.04042 0.93689 0.54033 0.0
N675 N 1.01355 0.9354 0.51407 0.0
C676 C 1.01547 0.88846 0.48894 0.0
C677 C 0.04232 0.88877 0.51656 0.0
C678 C 0.05545 0.91385 0.54195 0.0
C679 C 1.00099 0.91203 0.48843 0.0
H680 H 0.04921 0.95495 0.56097 0.0
H681 H 0.97888 0.9107 0.46851 0.0
C682 C 0.97876 0.97286 0.42726 0.0
C683 C 1.00204 0.05732 0.42117 0.0
C684 C 0.98063 0.07359 0.42219 0.0
C685 C 0.9872 0.09342 0.45103 0.0
C686 C 0.01786 0.10015 0.47583 0.0
C687 C 0.03837 0.08285 0.47394 0.0
N688 N 0.02872 0.0602 0.44819 0.0
H689 H 0.99638 0.04134 0.39944 0.0
H690 H 0.06097 0.08602 0.49388 0.0
C691 C 0.06429 0.96249 0.42759 0.0
N692 N 0.07653 0.98183 0.45644 0.0
C693 C 0.11544 0.95511 0.48005 0.0
C694 C 0.10399 0.93565 0.44982 0.0
C695 C 0.07753 0.9391 0.4238 0.0
C696 C 0.1012 0.97836 0.48283 0.0
H697 H 0.04551 0.96654 0.40659 0.0
H698 H 0.11085 -0.0054 0.5052 0.0
C699 C 0.0573 0.02119 0.53913 0.0
C700 C 0.95077 0.92567 0.56446 0.0
N701 N 0.96019 0.007 0.5135 0.0
C702 C 0.98077 0.03903 0.5206 0.0
C703 C 0.96788 0.06224 0.52608 0.0
C704 C 0.93351 0.05234 0.52481 0.0
C705 C 0.91223 0.01959 0.51445 0.0
C706 C 0.9263 -0.00293 0.50898 0.0
C707 C 0.10376 0.06994 0.42235 0.0
O708 O 0.98105 0.97139 0.45924 0.0
O709 O 1.00424 0.98988 0.4162 0.0
O710 O 0.04762 0.01411 0.50754 0.0
O711 O 0.03677 0.00731 0.55709 0.0
O712 O 0.93662 0.92436 0.53263 0.0
O713 O 0.98017 0.94702 0.57503 0.0
O714 O 0.10762 0.07277 0.45442 0.0
O715 O 0.0796 0.04543 0.40579 0.0
H716 H 1.00753 0.0462 0.52434 0.0
H717 H 0.91058 0.97123 0.50379 0.0
H718 H 1.00492 0.86939 0.46893 0.0
H719 H 0.07662 0.9151 0.56331 0.0
H720 H 0.95827 0.0694 0.4014 0.0
H721 H 0.02454 0.11626 0.49785 0.0
H722 H 0.13584 0.95317 0.50066 0.0
H723 H 0.06853 0.92541 0.39966 0.0
H724 H 0.98511 0.08737 0.53323 0.0
H725 H 0.8856 0.01073 0.51341 0.0
Cd726 Cd 0.5073 0.95825 0.03924 0.0
Cd727 Cd 0.52891 0.03465 0.94043 0.0
C728 C 0.56919 0.94127 0.09023 0.0
N729 N 0.5491 0.93341 0.05788 0.0
C730 C 0.57323 0.89351 0.05171 0.0
C731 C 0.59361 0.90041 0.08549 0.0
C732 C 0.59158 0.92513 0.1045 0.0
C733 C 0.551 0.91021 0.03844 0.0
H734 H 0.56722 0.9596 0.1054 0.0
H735 H 0.53459 0.90393 0.01294 0.0
C736 C 0.48067 0.95631 0.94526 0.0
C737 C 0.45728 0.04342 0.89905 0.0
C738 C 0.43437 0.05932 0.8858 0.0
C739 C 0.44116 0.0916 0.89733 0.0
C740 C 0.47104 0.10636 0.92313 0.0
C741 C 0.49316 0.08951 0.93576 0.0
N742 N 0.48623 0.05868 0.92345 0.0
H743 H 0.45228 0.01914 0.88911 0.0
H744 H 0.51654 0.10157 0.95467 0.0
C745 C 0.54629 0.98226 0.90229 0.0
N746 N 0.55491 -0.00144 0.93278 0.0
C747 C 0.5987 0.97733 0.95477 0.0
C748 C 0.59032 0.96023 0.92358 0.0
C749 C 0.56344 0.96249 0.89728 0.0
C750 C 0.58056 -0.00356 0.95883 0.0
H751 H 0.52637 0.985 0.88165 0.0
H752 H 0.5876 0.01034 0.98247 0.0
C753 C 0.56068 0.03122 0.03182 0.0
C754 C 0.45879 0.91621 0.07326 0.0
N755 N 0.48389 -0.00244 0.04358 0.0
C756 C 0.49386 0.01647 0.07261 0.0
C757 C 0.47669 0.03668 0.07649 0.0
C758 C 0.44878 0.03715 0.05039 0.0
C759 C 0.43985 0.01818 0.02026 0.0
C760 C 0.4577 -0.00164 0.01748 0.0
C761 C 0.57786 0.07831 0.90783 0.0
O762 O 0.4935 0.96387 0.97684 0.0
O763 O 0.48651 0.97883 0.92334 0.0
O764 O 0.54119 0.02389 0.00198 0.0
O765 O 0.55525 0.01014 0.05507 0.0
O766 O 0.45649 0.9093 0.0424 0.0
O767 O 0.48417 0.94096 0.08785 0.0
O768 O 0.58131 0.08284 0.9396 0.0
O769 O 0.55095 0.05579 0.89186 0.0
H770 H 0.51435 0.01491 0.09329 0.0
H771 H 0.44985 0.98268 -0.00509 0.0
H772 H 0.57348 0.8745 0.03605 0.0
H773 H 0.60696 0.93179 0.1304 0.0
H774 H 0.41165 0.04637 0.86646 0.0
H775 H 0.47811 0.13127 0.93271 0.0
H776 H 0.6194 0.97634 0.97559 0.0
H777 H 0.55664 0.95019 0.87263 0.0
H778 H 0.48417 0.05049 0.10035 0.0
H779 H 0.41873 0.01801 -0.00064 0.0
Cd780 Cd 1.00461 0.45367 0.03894 0.0
Cd781 Cd 0.02914 0.53246 0.93967 0.0
C782 C 0.06066 0.42918 0.08934 0.0
N783 N 0.04447 0.42658 0.05552 0.0
C784 C 0.07018 0.38917 0.0459 0.0
C785 C 0.08658 0.39073 0.08096 0.0
C786 C 0.08174 0.41149 0.10258 0.0
C787 C 0.04902 0.40717 0.03372 0.0
H788 H 0.05662 0.44456 0.10631 0.0
H789 H 0.03564 0.40502 0.00699 0.0
C790 C 0.97531 0.45799 0.94762 0.0
C791 C 0.96151 0.54652 0.89665 0.0
C792 C 0.9404 0.56401 0.88228 0.0
C793 C 0.94792 0.5963 0.89432 0.0
C794 C 0.97656 0.60936 0.92193 0.0
C795 C 0.99696 0.5909 0.93568 0.0
N796 N 0.98938 0.56011 0.92278 0.0
H797 H 0.95611 0.52238 0.88611 0.0
H798 H 0.01962 0.60174 0.95588 0.0
C799 C 0.03684 0.47303 0.90026 0.0
N800 N 0.05174 0.49499 0.9273 0.0
C801 C 0.09778 0.47605 0.94407 0.0
C802 C 0.08253 0.45259 0.91695 0.0
C803 C 0.05166 0.45113 0.89491 0.0
C804 C 0.0817 0.49695 0.94895 0.0
H805 H 1.01344 0.4724 0.88287 0.0
H806 H 0.09315 0.51488 0.97004 0.0
C807 C 0.06139 0.52719 0.03234 0.0
C808 C 0.95529 0.40757 0.06956 0.0
N809 N 0.9822 0.49183 0.04974 0.0
C810 C 0.99706 0.514 0.0766 0.0
C811 C 0.98208 0.53581 0.08179 0.0
C812 C 0.95114 0.53415 0.0597 0.0
C813 C 0.93607 0.51062 0.03262 0.0
C814 C 0.95226 0.48974 0.02796 0.0
C815 C 0.07821 0.57967 0.90956 0.0
O816 O 0.99356 0.46563 0.97784 0.0
O817 O 0.98075 0.47917 0.92443 0.0
O818 O 0.04315 0.52169 0.00179 0.0
O819 O 0.05395 0.50518 0.05446 0.0
O820 O 0.95071 0.40729 0.03712 0.0
O821 O 0.98287 0.42826 0.08695 0.0
O822 O 0.08332 0.57849 0.94202 0.0
O823 O 0.05033 0.55969 0.89189 0.0
H824 H 0.02042 0.51469 0.09411 0.0
H825 H 0.94083 0.4716 0.00706 0.0
H826 H 0.07285 0.37342 0.02819 0.0
H827 H 0.09414 0.41407 0.12962 0.0
H828 H 0.91847 0.55221 0.86162 0.0
H829 H 0.98399 0.63413 0.93211 0.0
H830 H 0.12156 0.47782 0.96159 0.0
H831 H 0.03938 0.43353 0.87349 0.0
H832 H 0.99423 0.5534 0.10321 0.0
H833 H 0.91227 0.50867 0.01503 0.0
Cd834 Cd 0.48807 0.47271 0.02817 0.0
Cd835 Cd 0.55577 0.51885 0.95911 0.0
C836 C 0.53993 0.43672 0.05135 0.0
N837 N 0.51467 0.43647 0.02371 0.0
C838 C 0.52381 0.39572 -0.00493 0.0
C839 C 0.55228 0.39858 0.0217 0.0
C840 C 0.55946 0.41831 0.0507 0.0
C841 C 0.5051 0.41507 -0.00336 0.0
H842 H 0.54526 0.45144 0.07395 0.0
H843 H 0.48325 0.41301 0.9761 0.0
C844 C 0.47449 0.46467 0.93566 0.0
C845 C 0.50271 0.5514 0.93425 0.0
C846 C 0.4863 0.57348 0.93018 0.0
C847 C 0.49728 0.59925 0.95446 0.0
C848 C 0.52356 0.60111 0.98345 0.0
C849 C 0.53917 0.57807 0.98668 0.0
N850 N 0.5286 0.55404 0.96204 0.0
H851 H 0.49553 0.53288 0.91443 0.0
H852 H 0.56024 0.58001 0.00821 0.0
C853 C 0.56708 0.45316 0.95053 0.0
N854 N 0.58371 0.48275 0.96762 0.0
C855 C 0.63555 0.47367 0.9813 0.0
C856 C 0.61936 0.44378 0.96198 0.0
C857 C 0.58441 0.43309 0.94755 0.0
C858 C 0.61705 0.49298 0.98376 0.0
H859 H 0.54074 0.44599 0.93739 0.0
H860 H 0.62963 0.51701 -0.00332 0.0
C861 C 0.56409 0.51758 0.04808 0.0
C862 C 0.45071 0.43506 0.07312 0.0
N863 N 0.46995 0.51677 0.01739 0.0
C864 C 0.48543 0.54317 0.03964 0.0
C865 C 0.469 0.56442 0.04193 0.0
C866 C 0.43621 0.55821 0.02131 0.0
C867 C 0.42236 0.53268 -0.00382 0.0
C868 C 0.43965 0.51188 -0.00508 0.0
C869 C 0.5895 0.56138 0.91487 0.0
O870 O 0.46983 0.4634 0.96558 0.0
O871 O 0.50312 0.47959 0.92955 0.0
O872 O 0.55434 0.51459 0.01606 0.0
O873 O 0.54199 0.50598 0.06466 0.0
O874 O 0.43897 0.4298 0.04104 0.0
O875 O 0.47837 0.45891 0.08335 0.0
O876 O 0.60345 0.56428 0.94689 0.0
O877 O 0.56124 0.53808 0.90437 0.0
H878 H 0.50914 0.54605 0.05775 0.0
H879 H 0.42752 0.49016 0.97817 0.0
H880 H 0.51707 0.37999 0.97271 0.0
H881 H 0.58036 0.4199 0.07249 0.0
H882 H 0.46559 0.57076 0.90784 0.0
H883 H 0.53256 0.62065 0.00273 0.0
H884 H 0.66239 0.4827 -0.00697 0.0
H885 H 0.57086 0.41061 0.93192 0.0
H886 H 0.48064 0.58349 0.06195 0.0
H887 H 0.39735 0.52724 0.97952 0.0
Cd888 Cd 1.00697 0.45714 0.5383 0.0
Cd889 Cd 0.02953 0.53355 0.43952 0.0
C890 C 0.07063 0.43909 0.58357 0.0
N891 N 0.0477 0.4308 0.5527 0.0
C892 C 0.06718 0.38791 0.54417 0.0
C893 C 0.09066 0.39526 0.57649 0.0
C894 C 0.09225 0.42171 0.59592 0.0
C895 C 0.04584 0.40584 0.53288 0.0
H896 H 0.07137 0.45857 0.59928 0.0
H897 H 0.02718 0.39924 0.5086 0.0
C898 C 0.98031 0.45693 0.44543 0.0
C899 C 0.96742 0.54954 0.38802 0.0
C900 C 0.94435 0.56489 0.37348 0.0
C901 C 0.93947 0.58729 0.3931 0.0
C902 C 0.95766 0.59253 0.42776 0.0
C903 C 0.98071 0.57674 0.44129 0.0
N904 N 0.98548 0.55592 0.42125 0.0
H905 H 0.97166 0.53317 0.37236 0.0
H906 H 0.99554 0.58196 0.46751 0.0
C907 C 0.04577 0.48059 0.39962 0.0
N908 N 0.0539 0.49643 0.43028 0.0
C909 C 0.0956 0.47277 0.45351 0.0
C910 C 0.08803 0.45631 0.42209 0.0
C911 C 0.06239 0.46005 0.39505 0.0
C912 C 0.07819 0.4928 0.45702 0.0
H913 H 0.0267 0.48426 0.37859 0.0
H914 H 0.08458 0.50604 0.48097 0.0
C915 C 0.05886 0.53187 0.53231 0.0
C916 C 0.95903 0.412 0.57143 0.0
N917 N 0.98437 0.49591 0.54643 0.0
C918 C 0.99244 0.51147 0.57722 0.0
C919 C 0.97579 0.5319 0.582 0.0
C920 C 0.95031 0.53591 0.55494 0.0
C921 C 0.94329 0.52024 0.52319 0.0
C922 C 0.96058 0.50017 0.51954 0.0
C923 C 0.07866 0.58149 0.40946 0.0
O924 O 0.99508 0.46561 0.47644 0.0
O925 O 0.98614 0.47815 0.42234 0.0
O926 O 0.04126 0.52388 0.50177 0.0
O927 O 0.05331 0.51051 0.55537 0.0
O928 O 0.95188 0.41303 0.53889 0.0
O929 O 0.98828 0.4308 0.58759 0.0
O930 O 0.08425 0.57959 0.44187 0.0
O931 O 0.05038 0.56232 0.39178 0.0
H932 H 1.01112 0.50727 0.59833 0.0
H933 H 0.95425 0.48715 0.49548 0.0
H934 H 0.06496 0.3683 0.52766 0.0
H935 H 0.10912 0.42832 0.62118 0.0
H936 H 0.93075 0.55951 0.34686 0.0
H937 H 0.95518 0.60973 0.44397 0.0
H938 H 0.11503 0.47047 0.47508 0.0
H939 H 0.05609 0.4482 0.37026 0.0
H940 H 0.98172 0.54319 0.60701 0.0
H941 H 0.9241 0.52289 0.50156 0.0
Cd942 Cd 0.5025 0.95268 0.53538 0.0
Cd943 Cd 0.5293 0.03309 0.43723 0.0
C944 C 0.55882 0.92879 0.58669 0.0
N945 N 0.54333 0.92645 0.55268 0.0
C946 C 0.56995 0.88954 0.54379 0.0
C947 C 0.58554 0.89075 0.57907 0.0
C948 C 0.57991 0.91117 0.60039 0.0
C949 C 0.54872 0.90743 0.53114 0.0
H950 H 0.55413 0.94381 0.60348 0.0
H951 H 0.53589 0.90542 0.50426 0.0
C952 C 0.47558 0.95826 0.44393 0.0
C953 C 0.46679 0.05074 0.38813 0.0
C954 C 0.44483 0.06746 0.37436 0.0
C955 C 0.44492 0.09371 0.39293 0.0
C956 C 0.46756 0.10197 0.42558 0.0
C957 C 0.48917 0.08451 0.43843 0.0
N958 N 0.48851 0.05939 0.41963 0.0
H959 H 0.4671 0.03128 0.37317 0.0
H960 H 0.50695 0.09151 0.46319 0.0
C961 C 0.5426 0.98011 0.39609 0.0
N962 N 0.5517 -0.00558 0.42774 0.0
C963 C 0.59174 0.96815 0.44768 0.0
C964 C 0.58343 0.95375 0.41501 0.0
C965 C 0.55835 0.95974 0.3891 0.0
C966 C 0.57569 0.98878 0.45342 0.0
H967 H 0.5236 0.98513 0.37605 0.0
H968 H 0.58293 0.00088 0.47819 0.0
C969 C 0.559 0.02776 0.53129 0.0
C970 C 0.45332 0.90529 0.56547 0.0
N971 N 0.48104 0.99083 0.54843 0.0
C972 C 0.48788 0.00181 0.58115 0.0
C973 C 0.47274 0.02254 0.58884 0.0
C974 C 0.45045 0.03213 0.56258 0.0
C975 C 0.44421 0.02069 0.52898 0.0
C976 C 0.45969 -0.00018 0.5225 0.0
C977 C 0.57791 0.07679 0.40336 0.0
O978 O 0.49318 0.96595 0.4744 0.0
O979 O 0.48138 0.97952 0.42083 0.0
O980 O 0.54301 0.02325 0.49988 0.0
O981 O 0.54987 0.00499 0.55225 0.0
O982 O 0.44796 0.90652 0.53296 0.0
O983 O 0.48136 0.92513 0.58292 0.0
O984 O 0.58077 0.08259 0.43469 0.0
O985 O 0.55229 0.05249 0.3884 0.0
H986 H 0.50479 -0.00588 0.60134 0.0
H987 H 0.4542 0.99031 0.49679 0.0
H988 H 0.57324 0.87408 0.52625 0.0
H989 H 0.59166 0.91352 0.62758 0.0
H990 H 0.42854 0.06034 0.34889 0.0
H991 H 0.46859 0.1217 0.44118 0.0
H992 H 0.61108 0.96425 0.46826 0.0
H993 H 0.55097 0.94874 0.36369 0.0
H994 H 0.47854 0.03111 0.61503 0.0
H995 H 0.42695 0.02719 0.50804 0.0
H996 H 0.18313 0.23363 0.29697 0.0
H997 H 0.17094 0.14384 0.24734 0.0
H998 H 0.15614 0.20124 0.33988 0.0
H999 H 0.14259 0.11135 0.28903 0.0
H1000 H 0.1531 0.07065 0.39452 0.0
H1001 H 0.17089 0.10589 0.34817 0.0
H1002 H 0.1086 0.15999 0.35708 0.0
H1003 H 0.09226 0.12551 0.40451 0.0
C1004 C 0.17323 0.20689 0.29434 0.0
C1005 C 0.17959 0.19114 0.26924 0.0
C1006 C 0.15787 0.18838 0.31892 0.0
C1007 C 0.14851 0.15392 0.3184 0.0
C1008 C 0.15067 0.13804 0.29055 0.0
C1009 C 0.16624 0.1566 0.26613 0.0
C1010 C 0.14446 0.09098 0.38731 0.0
C1011 C 0.12222 0.09625 0.40319 0.0
C1012 C 0.15382 0.11055 0.36035 0.0
C1013 C 0.14027 0.13499 0.34848 0.0
C1014 C 0.11934 0.1413 0.36572 0.0
C1015 C 0.1104 0.122 0.39304 0.0
H1016 H 0.80059 0.10079 0.39552 0.0
H1017 H 0.87844 0.18919 0.37391 0.0
H1018 H 0.8387 0.0972 0.44993 0.0
H1019 H 0.91616 0.18519 0.42693 0.0
H1020 H 0.99343 0.15262 0.47791 0.0
H1021 H 0.94745 0.17106 0.47784 0.0
H1022 H 0.87537 0.07498 0.4365 0.0
H1023 H 0.9206 0.0566 0.43847 0.0
C1024 C 0.82524 0.12026 0.40305 0.0
C1025 C 0.83732 0.14398 0.3796 0.0
C1026 C 0.84705 0.11836 0.43431 0.0
C1027 C 0.88131 0.13917 0.44122 0.0
C1028 C 0.89041 0.16768 0.42185 0.0
C1029 C 0.86857 0.16991 0.39092 0.0
C1030 C 0.96767 0.13535 0.46968 0.0
C1031 C 0.96049 0.10387 0.45623 0.0
C1032 C 0.94133 0.1458 0.46985 0.0
C1033 C 0.90759 0.12504 0.45609 0.0
C1034 C 0.9008 0.09212 0.44698 0.0
C1035 C 0.9269 0.08173 0.44707 0.0
H1036 H 0.85235 0.85693 0.24965 0.0
H1037 H 0.79021 0.82495 0.32134 0.0
H1038 H 0.89197 0.90213 0.2884 0.0
H1039 H 0.82781 0.8721 0.35867 0.0
H1040 H 0.92745 0.91822 0.43913 0.0
H1041 H 0.87951 0.88272 0.39673 0.0
H1042 H 0.90935 0.9513 0.318 0.0
H1043 H 0.95889 0.98525 0.36024 0.0
C1044 C 0.84689 0.8598 0.27342 0.0
C1045 C 0.81933 0.83625 0.28331 0.0
C1046 C 0.8693 0.88622 0.29553 0.0
C1047 C 0.86371 0.89024 0.32736 0.0
C1048 C 0.83376 0.86893 0.33513 0.0
C1049 C 0.81202 0.84198 0.31355 0.0
C1050 C 0.92365 0.92568 0.41278 0.0
C1051 C 0.94722 0.95392 0.40274 0.0
C1052 C 0.89586 0.90559 0.38842 0.0
C1053 C 0.89056 0.91396 0.3537 0.0
C1054 C 0.91306 0.94357 0.34425 0.0
C1055 C 0.94134 0.96314 0.36847 0.0
H1056 H 0.19186 0.90768 0.31503 0.0
H1057 H 0.15536 0.80544 0.34294 0.0
H1058 H 0.18543 0.92437 0.36838 0.0
H1059 H 0.14854 0.82209 0.39629 0.0
H1060 H 0.07556 0.87489 0.41763 0.0
H1061 H 0.10313 0.84789 0.39237 0.0
H1062 H 0.19964 0.92362 0.43626 0.0
H1063 H 0.17201 0.95017 0.46367 0.0
C1064 C 0.18298 0.88893 0.33293 0.0
C1065 C 0.17343 0.85537 0.32484 0.0
C1066 C 0.17994 0.89844 0.36367 0.0
C1067 C 0.16674 0.87446 0.38643 0.0
C1068 C 0.15911 0.84098 0.37924 0.0
C1069 C 0.16266 0.8315 0.3487 0.0
C1070 C 0.10283 0.88493 0.4237 0.0
C1071 C 0.12154 0.9147 0.44283 0.0
C1072 C 0.11868 0.86931 0.40918 0.0
C1073 C 0.15342 0.88386 0.41224 0.0
C1074 C 0.17275 0.91195 0.43376 0.0
C1075 C 0.15691 0.92708 0.44939 0.0
H1076 H 0.15911 0.79001 0.61952 0.0
H1077 H 0.21267 0.87751 0.57019 0.0
H1078 H 0.11128 0.77786 0.57152 0.0
H1079 H 0.16255 0.86653 0.5235 0.0
H1080 H 0.06469 0.86864 0.46931 0.0
H1081 H 0.10467 0.83953 0.48097 0.0
H1082 H 0.08993 0.82149 0.58307 0.0
H1083 H 0.0521 0.85136 0.57137 0.0
C1084 C 0.16174 0.80625 0.59822 0.0
C1085 C 0.18921 0.83665 0.60046 0.0
C1086 C 0.13387 0.79886 0.57024 0.0
C1087 C 0.13241 0.8225 0.54527 0.0
C1088 C 0.16247 0.84849 0.54331 0.0
C1089 C 0.19096 0.85536 0.57076 0.0
C1090 C 0.06979 0.85753 0.49365 0.0
C1091 C 0.05691 0.86314 0.51976 0.0
C1092 C 0.09211 0.8407 0.50026 0.0
C1093 C 0.10062 0.82845 0.53292 0.0
C1094 C 0.08378 0.83029 0.55745 0.0
C1095 C 0.06237 0.84777 0.55102 0.0
H1096 H 0.16414 0.14463 0.70423 0.0
H1097 H 0.24944 0.15195 0.66672 0.0
H1098 H 0.1267 0.10559 0.65817 0.0
H1099 H 0.21152 0.11302 0.61954 0.0
H1100 H 0.11761 0.01493 0.56289 0.0
H1101 H 0.16518 0.05213 0.60583 0.0
H1102 H 0.11413 0.12108 0.595 0.0
H1103 H 0.0665 0.08353 0.55348 0.0
C1104 C 0.17505 0.13687 0.68709 0.0
C1105 C 0.20953 0.15121 0.68904 0.0
C1106 C 0.15358 0.11505 0.66023 0.0
C1107 C 0.16636 0.10731 0.63495 0.0
C1108 C 0.20122 0.11908 0.63861 0.0
C1109 C 0.22275 0.14113 0.66554 0.0
C1110 C 0.11753 0.0388 0.56864 0.0
C1111 C 0.08912 0.04703 0.5546 0.0
C1112 C 0.14445 0.05982 0.59326 0.0
C1113 C 0.14268 0.08887 0.60397 0.0
C1114 C 0.1156 0.09842 0.58742 0.0
C1115 C 0.0887 0.07733 0.56326 0.0
H1116 H 0.82496 0.09713 0.64364 0.0
H1117 H 0.91547 0.18463 0.66033 0.0
H1118 H 0.83843 0.08122 0.59392 0.0
H1119 H 0.92842 0.16978 0.60993 0.0
H1120 H 0.96786 0.09396 0.57998 0.0
H1121 H 0.94768 0.12452 0.61003 0.0
H1122 H 0.85094 0.09062 0.53613 0.0
H1123 H 0.87169 0.05966 0.50486 0.0
C1124 C 0.84733 0.1132 0.63604 0.0
C1125 C 0.86984 0.14143 0.65595 0.0
C1126 C 0.85478 0.10446 0.6074 0.0
C1127 C 0.88474 0.12405 0.5984 0.0
C1128 C 0.90547 0.15395 0.61668 0.0
C1129 C 0.89827 0.16237 0.64551 0.0
C1130 C 0.94274 0.09391 0.56896 0.0
C1131 C 0.92157 0.07451 0.53965 0.0
C1132 C 0.93109 0.11158 0.58641 0.0
C1133 C 0.8978 0.11023 0.57534 0.0
C1134 C 0.87675 0.092 0.54524 0.0
C1135 C 0.88858 0.07424 0.52747 0.0
H1136 H 0.87448 0.77242 0.70216 0.0
H1137 H 0.82855 0.84364 0.70469 0.0
H1138 H 0.90859 0.80869 0.66538 0.0
H1139 H 0.862 0.87951 0.66771 0.0
H1140 H 0.88339 0.89501 0.55846 0.0
H1141 H 0.85652 0.86171 0.60163 0.0
H1142 H 0.95433 0.87387 0.66797 0.0
H1143 H 0.98129 0.90764 0.62532 0.0
C1144 C 0.87272 0.79635 0.69577 0.0
C1145 C 0.8499 0.80599 0.70666 0.0
C1146 C 0.89187 0.81683 0.67473 0.0
C1147 C 0.88745 0.84649 0.66383 0.0
C1148 C 0.86558 0.85663 0.67593 0.0
C1149 C 0.84695 0.83648 0.69737 0.0
C1150 C 0.89902 0.89032 0.58216 0.0
C1151 C 0.93424 0.9038 0.58877 0.0
C1152 C 0.88378 0.8716 0.60679 0.0
C1153 C 0.90362 0.8657 0.63788 0.0
C1154 C 0.93875 0.87831 0.64408 0.0
C1155 C 0.95401 0.89756 0.61979 0.0
H1156 H 0.3541 0.13086 0.15042 0.0
H1157 H 0.28692 0.1062 0.04928 0.0
H1158 H 0.39467 0.11475 0.13196 0.0
H1159 H 0.3272 0.08978 0.03109 0.0
H1160 H 0.38009 0.01577 0.03275 0.0
H1161 H 0.34462 0.04233 0.04522 0.0
H1162 H 0.43316 0.12513 0.09367 0.0
H1163 H 0.46897 0.09847 0.08088 0.0
C1164 C 0.34824 0.12264 0.1241 0.0
C1165 C 0.31692 0.11922 0.10155 0.0
C1166 C 0.37151 0.11339 0.11351 0.0
C1167 C 0.3639 0.10045 0.08021 0.0
C1168 C 0.33349 0.09894 0.05714 0.0
C1169 C 0.31037 0.10829 0.06763 0.0
C1170 C 0.3921 0.03998 0.04537 0.0
C1171 C 0.42743 0.05499 0.05575 0.0
C1172 C 0.37171 0.05523 0.05257 0.0
C1173 C 0.38604 0.08589 0.07042 0.0
C1174 C 0.42137 0.10133 0.08021 0.0
C1175 C 0.44185 0.08606 0.0729 0.0
H1176 H 0.77442 0.27631 0.13293 0.0
H1177 H 0.84118 0.33585 0.22203 0.0
H1178 H 0.81616 0.30311 0.10014 0.0
H1179 H 0.88173 0.36506 0.18908 0.0
H1180 H 0.96442 0.39118 0.13634 0.0
H1181 H 0.92202 0.36142 0.16659 0.0
H1182 H 0.8441 0.34818 0.07244 0.0
H1183 H 0.88727 0.37684 0.04195 0.0
C1184 C 0.79802 0.29546 0.14528 0.0
C1185 C 0.80528 0.3034 0.18011 0.0
C1186 C 0.82186 0.31122 0.12645 0.0
C1187 C 0.85291 0.33623 0.1418 0.0
C1188 C 0.85894 0.34522 0.1764 0.0
C1189 C 0.83562 0.32867 0.19539 0.0
C1190 C 0.93824 0.38156 0.12203 0.0
C1191 C 0.92921 0.38644 0.08677 0.0
C1192 C 0.91367 0.36468 0.13948 0.0
C1193 C 0.87916 0.35254 0.12234 0.0
C1194 C 0.87025 0.35669 0.08672 0.0
C1195 C 0.89502 0.37324 0.06911 0.0
H1196 H 0.65204 0.73927 0.17235 0.0
H1197 H 0.75017 0.81658 0.18415 0.0
H1198 H 0.62541 0.77732 0.14408 0.0
H1199 H 0.72305 0.85435 0.15354 0.0
H1200 H 0.63285 0.87882 0.05654 0.0
H1201 H 0.66639 0.84513 0.08252 0.0
H1202 H 0.6371 0.84367 0.17625 0.0
H1203 H 0.60385 0.87731 0.15077 0.0
C1204 C 0.6681 0.76419 0.16818 0.0
C1205 C 0.70343 0.7746 0.18042 0.0
C1206 C 0.65269 0.78599 0.15196 0.0
C1207 C 0.67205 0.81877 0.14654 0.0
C1208 C 0.70747 0.82913 0.15728 0.0
C1209 C 0.72302 0.80741 0.17455 0.0
C1210 C 0.63368 0.87151 0.08276 0.0
C1211 C 0.6155 0.881 0.10144 0.0
C1212 C 0.65317 0.85246 0.0977 0.0
C1213 C 0.65463 0.84202 0.13152 0.0
C1214 C 0.63674 0.85162 0.15025 0.0
C1215 C 0.61771 0.87101 0.13558 0.0
H1216 H 0.2502 0.66962 0.14456 0.0
H1217 H 0.17283 0.71063 0.13055 0.0
H1218 H 0.21409 0.62824 0.09938 0.0
H1219 H 0.13649 0.66911 0.08608 0.0
H1220 H 0.07406 0.58927 0.00658 0.0
H1221 H 0.12182 0.63988 0.03077 0.0
H1222 H 0.16477 0.58158 0.10513 0.0
H1223 H 0.11784 0.53178 0.08094 0.0
C1224 C 0.22573 0.67022 0.13137 0.0
C1225 C 0.2141 0.69309 0.14146 0.0
C1226 C 0.20508 0.64657 0.10548 0.0
C1227 C 0.1722 0.64502 0.08956 0.0
C1228 C 0.16177 0.66975 0.09758 0.0
C1229 C 0.18261 0.69361 0.12325 0.0
C1230 C 0.09432 0.58742 0.02744 0.0
C1231 C 0.09224 0.55682 0.04219 0.0
C1232 C 0.12148 0.61629 0.04139 0.0
C1233 C 0.14704 0.61477 0.06993 0.0
C1234 C 0.14586 0.58372 0.0829 0.0
C1235 C 0.11873 0.55514 0.06928 0.0
H1236 H 0.33692 0.83849 0.79757 0.0
H1237 H 0.34506 0.7551 0.85827 0.0
H1238 H 0.37981 0.87628 0.84232 0.0
H1239 H 0.38874 0.79378 0.90396 0.0
H1240 H 0.42618 0.91344 0.96621 0.0
H1241 H 0.3857 0.86093 0.93671 0.0
H1242 H 0.44929 0.8705 0.86878 0.0
H1243 H 0.48874 0.92288 0.89717 0.0
C1244 C 0.34761 0.82832 0.82084 0.0
C1245 C 0.33769 0.79406 0.82479 0.0
C1246 C 0.37208 0.8499 0.84632 0.0
C1247 C 0.38705 0.83772 0.87639 0.0
C1248 C 0.3771 0.80345 0.88088 0.0
C1249 C 0.35255 0.78154 0.85487 0.0
C1250 C 0.43184 0.90359 0.9457 0.0
C1251 C 0.46005 0.92214 0.93339 0.0
C1252 C 0.409 0.87359 0.92916 0.0
C1253 C 0.41485 0.86184 0.9009 0.0
C1254 C 0.44466 0.87902 0.89084 0.0
C1255 C 0.46694 0.90908 0.90677 0.0
H1256 H 0.14339 0.28564 0.90972 0.0
H1257 H 0.16931 0.3452 0.82402 0.0
H1258 H 0.129 0.32856 0.92981 0.0
H1259 H 0.15615 0.38873 0.84521 0.0
H1260 H 0.14653 0.46772 0.91024 0.0
H1261 H 0.17144 0.4292 0.89801 0.0
H1262 H 0.07933 0.34721 0.90017 0.0
H1263 H 0.05442 0.38558 0.91173 0.0
C1264 C 0.14631 0.30796 0.89526 0.0
C1265 C 0.1567 0.31147 0.86468 0.0
C1266 C 0.13827 0.33262 0.90698 0.0
C1267 C 0.14102 0.36172 0.8888 0.0
C1268 C 0.15385 0.36651 0.85973 0.0
C1269 C 0.16146 0.34156 0.84766 0.0
C1270 C 0.13182 0.44141 0.9083 0.0
C1271 C 0.09851 0.42952 0.91164 0.0
C1272 C 0.14599 0.41948 0.90121 0.0
C1273 C 0.12731 0.38527 0.89819 0.0
C1274 C 0.09439 0.37343 0.90263 0.0
C1275 C 0.08004 0.39534 0.90899 0.0
H1276 H 0.65951 0.16321 0.74272 0.0
H1277 H 0.74632 0.21236 0.82476 0.0
H1278 H 0.63153 0.12823 0.78311 0.0
H1279 H 0.71824 0.17636 0.8662 0.0
H1280 H 0.62899 0.13963 0.92377 0.0
H1281 H 0.66987 0.16937 0.89037 0.0
H1282 H 0.62946 0.0848 0.82065 0.0
H1283 H 0.58795 0.05639 0.85247 0.0
C1284 C 0.67286 0.16595 0.76952 0.0
C1285 C 0.70499 0.19025 0.78046 0.0
C1286 C 0.65696 0.14568 0.79284 0.0
C1287 C 0.6725 0.14931 0.82811 0.0
C1288 C 0.70541 0.17305 0.83925 0.0
C1289 C 0.72161 0.19341 0.81554 0.0
C1290 C 0.62904 0.12757 0.90129 0.0
C1291 C 0.60462 0.09615 0.89011 0.0
C1292 C 0.65268 0.14439 0.88238 0.0
C1293 C 0.65257 0.12978 0.85232 0.0
C1294 C 0.62969 0.09732 0.84296 0.0
C1295 C 0.60578 0.081 0.86122 0.0
H1296 H 0.85115 0.73874 0.79643 0.0
H1297 H 0.77394 0.64174 0.79305 0.0
H1298 H 0.8936 0.71684 0.83005 0.0
H1299 H 0.81623 0.6199 0.82448 0.0
H1300 H 0.91358 0.59499 0.82648 0.0
H1301 H 0.87616 0.62408 0.80004 0.0
H1302 H 0.89705 0.67389 0.89612 0.0
H1303 H 0.93351 0.6436 0.92355 0.0
C1304 C 0.84307 0.71306 0.80343 0.0
C1305 C 0.80893 0.69214 0.79227 0.0
C1306 C 0.86742 0.70045 0.82241 0.0
C1307 C 0.85823 0.66654 0.8297 0.0
C1308 C 0.82411 0.64606 0.81928 0.0
C1309 C 0.79987 0.6587 0.80127 0.0
C1310 C 0.91013 0.61174 0.84239 0.0
C1311 C 0.92651 0.61617 0.87761 0.0
C1312 C 0.8889 0.6288 0.82695 0.0
C1313 C 0.88374 0.6514 0.84592 0.0
C1314 C 0.90083 0.65691 0.88074 0.0
C1315 C 0.9218 0.63946 0.89641 0.0
H1316 H 0.2613 0.33736 0.16322 0.0
H1317 H 0.18244 0.25438 0.19109 0.0
H1318 H 0.21941 0.35894 0.12958 0.0
H1319 H 0.14028 0.27635 0.15789 0.0
H1320 H 0.09006 0.35707 0.14103 0.0
H1321 H 0.12732 0.32724 0.16596 0.0
H1322 H 0.16953 0.34872 0.07838 0.0
H1323 H 0.13231 0.3788 0.05339 0.0
C1324 C 0.23487 0.32338 0.16156 0.0
C1325 C 0.22524 0.29406 0.17965 0.0
C1326 C 0.2108 0.33574 0.14224 0.0
C1327 C 0.17638 0.31961 0.14115 0.0
C1328 C 0.16657 0.28959 0.15835 0.0
C1329 C 0.19068 0.27681 0.17713 0.0
C1330 C 0.10723 0.35547 0.12697 0.0
C1331 C 0.10824 0.37076 0.09522 0.0
C1332 C 0.12837 0.33796 0.14115 0.0
C1333 C 0.15153 0.33548 0.12426 0.0
C1334 C 0.15217 0.35024 0.09223 0.0
C1335 C 0.13065 0.36737 0.07779 0.0
H1336 H 0.19208 0.65385 0.75906 0.0
H1337 H 0.25119 0.72349 0.84314 0.0
H1338 H 0.1518 0.62418 0.79261 0.0
H1339 H 0.21068 0.69412 0.87701 0.0
H1340 H 0.0674 0.6018 0.84489 0.0
H1341 H 0.1092 0.63438 0.81446 0.0
H1342 H 0.18893 0.63988 0.90475 0.0
H1343 H 0.14675 0.60758 0.93559 0.0
C1344 C 0.19591 0.66314 0.78454 0.0
C1345 C 0.2235 0.69182 0.79801 0.0
C1346 C 0.17305 0.64613 0.80384 0.0
C1347 C 0.17766 0.65716 0.83727 0.0
C1348 C 0.20631 0.68508 0.8513 0.0
C1349 C 0.22926 0.70204 0.83191 0.0
C1350 C 0.09384 0.61016 0.85835 0.0
C1351 C 0.10381 0.60208 0.89259 0.0
C1352 C 0.11781 0.62873 0.84086 0.0
C1353 C 0.15241 0.63948 0.85704 0.0
C1354 C 0.16244 0.63222 0.89165 0.0
C1355 C 0.13833 0.61374 0.9093 0.0
H1356 H 0.28509 0.16537 0.77566 0.0
H1357 H 0.36903 0.25066 0.82584 0.0
H1358 H 0.31337 0.12911 0.80718 0.0
H1359 H 0.39685 0.21471 0.85788 0.0
H1360 H 0.4276 0.13829 0.92811 0.0
H1361 H 0.39319 0.17055 0.90206 0.0
H1362 H 0.36659 0.11909 0.8055 0.0
H1363 H 0.40193 0.08764 0.83092 0.0
C1364 C 0.3091 0.17632 0.79413 0.0
C1365 C 0.32473 0.21091 0.79844 0.0
C1366 C 0.3255 0.15558 0.81195 0.0
C1367 C 0.35759 0.16892 0.835 0.0
C1368 C 0.37218 0.20345 0.84056 0.0
C1369 C 0.35621 0.22411 0.82221 0.0
C1370 C 0.41475 0.13387 0.90124 0.0
C1371 C 0.41809 0.11013 0.88186 0.0
C1372 C 0.39473 0.15234 0.88633 0.0
C1373 C 0.37692 0.14746 0.85163 0.0
C1374 C 0.37945 0.12322 0.83241 0.0
C1375 C 0.39981 0.10503 0.84718 0.0
H1376 H 0.83765 0.26436 0.8588 0.0
H1377 H 0.80521 0.34239 0.81061 0.0
H1378 H 0.8774 0.30312 0.90514 0.0
H1379 H 0.84447 0.38055 0.85603 0.0
H1380 H 0.90959 0.44722 0.94018 0.0
H1381 H 0.86153 0.39795 0.91431 0.0
H1382 H 0.93 0.35013 0.9081 0.0
H1383 H 0.97771 0.39899 0.93551 0.0
C1384 C 0.83892 0.28963 0.85804 0.0
C1385 C 0.81922 0.30054 0.83025 0.0
C1386 C 0.86153 0.31177 0.88469 0.0
C1387 C 0.86434 0.34502 0.8842 0.0
C1388 C 0.84281 0.3551 0.8576 0.0
C1389 C 0.82047 0.33315 0.83112 0.0
C1390 C 0.91404 0.42563 0.9343 0.0
C1391 C 0.94692 0.42652 0.93951 0.0
C1392 C 0.88669 0.39755 0.91934 0.0
C1393 C 0.89197 0.37036 0.9085 0.0
C1394 C 0.92498 0.37048 0.91633 0.0
C1395 C 0.9523 0.39844 0.9318 0.0
H1396 H 0.7406 0.92388 0.85246 0.0
H1397 H 0.68559 0.8265 0.88302 0.0
H1398 H 0.70257 0.94529 0.86869 0.0
H1399 H 0.64773 0.84806 0.9003 0.0
H1400 H 0.56914 0.89859 0.89421 0.0
H1401 H 0.60392 0.87253 0.87803 0.0
H1402 H 0.69341 0.95615 0.92289 0.0
H1403 H 0.65873 0.98228 0.93833 0.0
C1404 C 0.7202 0.90709 0.86259 0.0
C1405 C 0.716 0.87367 0.86669 0.0
C1406 C 0.69861 0.91934 0.87215 0.0
C1407 C 0.67254 0.8985 0.8864 0.0
C1408 C 0.66754 0.86469 0.88932 0.0
C1409 C 0.68909 0.85235 0.87943 0.0
C1410 C 0.59627 0.91122 0.90069 0.0
C1411 C 0.61125 0.94253 0.91728 0.0
C1412 C 0.61617 0.89624 0.89165 0.0
C1413 C 0.65136 0.91253 0.89869 0.0
C1414 C 0.66631 0.94325 0.91651 0.0
C1415 C 0.6465 0.95806 0.92574 0.0
H1416 H 0.88835 0.69959 0.06734 0.0
H1417 H 0.85935 0.63813 0.15086 0.0
H1418 H 0.90418 0.65752 0.04777 0.0
H1419 H 0.87388 0.59535 0.13005 0.0
H1420 H 0.88622 0.51841 0.06392 0.0
H1421 H 0.86052 0.55622 0.07614 0.0
H1422 H 0.95362 0.63874 0.07929 0.0
H1423 H 0.9793 0.60109 0.06767 0.0
C1424 C 0.88505 0.67703 0.08142 0.0
C1425 C 0.8734 0.67277 0.11131 0.0
C1426 C 0.89392 0.65285 0.06999 0.0
C1427 C 0.8907 0.62345 0.08768 0.0
C1428 C 0.87659 0.61786 0.11594 0.0
C1429 C 0.86818 0.64237 0.12778 0.0
C1430 C 0.901 0.54468 0.06701 0.0
C1431 C 0.93479 0.5569 0.06509 0.0
C1432 C 0.88638 0.5662 0.07413 0.0
C1433 C 0.9051 0.60035 0.07862 0.0
C1434 C 0.93855 0.61256 0.0757 0.0
C1435 C 0.95332 0.59104 0.06929 0.0
H1436 H 0.37687 0.82691 0.23934 0.0
H1437 H 0.29048 0.7823 0.15515 0.0
H1438 H 0.40752 0.8613 0.19987 0.0
H1439 H 0.32122 0.8172 0.11515 0.0
H1440 H 0.41116 0.85305 0.05937 0.0
H1441 H 0.37175 0.82178 0.09367 0.0
H1442 H 0.40774 0.90701 0.16161 0.0
H1443 H 0.44736 0.93761 0.12827 0.0
C1444 C 0.36428 0.82496 0.21235 0.0
C1445 C 0.33128 0.80231 0.20033 0.0
C1446 C 0.38174 0.84472 0.1897 0.0
C1447 C 0.36679 0.84205 0.15433 0.0
C1448 C 0.33345 0.81969 0.14223 0.0
C1449 C 0.31577 0.8 0.1651 0.0
C1450 C 0.41039 0.86504 0.08153 0.0
C1451 C 0.43288 0.89747 0.09163 0.0
C1452 C 0.38769 0.84727 0.10099 0.0
C1453 C 0.38699 0.86181 0.13065 0.0
C1454 C 0.4082 0.89485 0.13941 0.0
C1455 C 0.43096 0.91236 0.1203 0.0
H1456 H 0.67191 0.16397 0.18161 0.0
H1457 H 0.71966 0.22562 0.10753 0.0
H1458 H 0.63712 0.12134 0.13746 0.0
H1459 H 0.68407 0.18251 0.06257 0.0
H1460 H 0.56557 0.09328 0.01018 0.0
H1461 H 0.60839 0.14504 0.03885 0.0
H1462 H 0.66437 0.08963 0.10061 0.0
H1463 H 0.62176 0.0383 0.07264 0.0
C1464 C 0.67387 0.1689 0.15551 0.0
C1465 C 0.69747 0.19831 0.14754 0.0
C1466 C 0.65443 0.14437 0.13042 0.0
C1467 C 0.65813 0.14885 0.09685 0.0
C1468 C 0.68084 0.17878 0.08835 0.0
C1469 C 0.70088 0.20331 0.11383 0.0
C1470 C 0.5878 0.09248 0.02885 0.0
C1471 C 0.59027 0.06203 0.03985 0.0
C1472 C 0.61219 0.12196 0.04513 0.0
C1473 C 0.63915 0.12093 0.0721 0.0
C1474 C 0.64357 0.09081 0.08 0.0
C1475 C 0.61921 0.06154 0.0641 0.0
H1476 H 0.70181 0.6438 0.76796 0.0
H1477 H 0.66042 0.71746 0.77627 0.0
H1478 H 0.67014 0.6086 0.80654 0.0
H1479 H 0.62811 0.68184 0.81483 0.0
H1480 H 0.55646 0.58013 0.85611 0.0
H1481 H 0.581 0.61529 0.8127 0.0
H1482 H 0.68076 0.62838 0.87467 0.0
H1483 H 0.65631 0.59383 0.91868 0.0
C1484 C 0.68457 0.65161 0.77672 0.0
C1485 C 0.68248 0.6826 0.76858 0.0
C1486 C 0.66704 0.63185 0.79919 0.0
C1487 C 0.64714 0.64289 0.81354 0.0
C1488 C 0.64335 0.67302 0.80377 0.0
C1489 C 0.66141 0.6931 0.78166 0.0
C1490 C 0.58365 0.59074 0.8605 0.0
C1491 C 0.60467 0.58422 0.89039 0.0
C1492 C 0.59752 0.61083 0.83584 0.0
C1493 C 0.63249 0.62396 0.84053 0.0
C1494 C 0.65361 0.61809 0.8707 0.0
C1495 C 0.63975 0.59859 0.89577 0.0
H1496 H 0.37563 0.69602 0.84729 0.0
H1497 H 0.32321 0.61769 0.90731 0.0
H1498 H 0.42709 0.70662 0.89055 0.0
H1499 H 0.37645 0.62663 0.9491 0.0
H1500 H 0.47696 0.62457 0.00044 0.0
H1501 H 0.43701 0.65367 -0.01305 0.0
H1502 H 0.44321 0.65871 0.88181 0.0
H1503 H 0.48174 0.62968 0.89538 0.0
C1504 C 0.37423 0.68166 0.87005 0.0
C1505 C 0.34523 0.654 0.87223 0.0
C1506 C 0.40425 0.68805 0.89515 0.0
C1507 C 0.40608 0.66609 0.92184 0.0
C1508 C 0.37597 0.64329 0.928 0.0
C1509 C 0.34553 0.63754 0.90342 0.0
C1510 C 0.46998 0.63268 0.97483 0.0
C1511 C 0.48098 0.62381 0.94876 0.0
C1512 C 0.44756 0.64944 0.96716 0.0
C1513 C 0.43691 0.65834 0.9334 0.0
C1514 C 0.45117 0.65266 0.90824 0.0
C1515 C 0.4729 0.63552 0.91583 0.0
H1516 H 0.29573 0.32024 0.82781 0.0
H1517 H 0.34397 0.36138 0.74605 0.0
H1518 H 0.33574 0.36582 0.86532 0.0
H1519 H 0.38444 0.40774 0.78405 0.0
H1520 H 0.47742 0.43776 0.87887 0.0
H1521 H 0.43037 0.40684 0.83247 0.0
H1522 H 0.36108 0.42312 0.88126 0.0
H1523 H 0.40823 0.45283 0.92851 0.0
C1524 C 0.31458 0.33936 0.81758 0.0
C1525 C 0.31787 0.33637 0.7845 0.0
C1526 C 0.33734 0.3658 0.83908 0.0
C1527 C 0.36366 0.38994 0.82782 0.0
C1528 C 0.3648 0.3889 0.79356 0.0
C1529 C 0.3418 0.36234 0.77189 0.0
C1530 C 0.45213 0.43499 0.87942 0.0
C1531 C 0.44621 0.4473 0.90724 0.0
C1532 C 0.42525 0.41768 0.85268 0.0
C1533 C 0.3921 0.41285 0.85314 0.0
C1534 C 0.38639 0.42631 0.88042 0.0
C1535 C 0.41326 0.44313 0.90747 0.0
H1536 H 0.66423 0.40519 0.79718 0.0
H1537 H 0.66411 0.31362 0.84533 0.0
H1538 H 0.66558 0.4274 0.85128 0.0
H1539 H 0.66576 0.336 0.89994 0.0
H1540 H 0.60217 0.37686 0.95434 0.0
H1541 H 0.62254 0.35083 0.91836 0.0
H1542 H 0.70109 0.44461 0.91095 0.0
H1543 H 0.68022 0.47099 0.9461 0.0
C1544 C 0.66459 0.38993 0.81945 0.0
C1545 C 0.66377 0.35774 0.81717 0.0
C1546 C 0.66602 0.40278 0.85055 0.0
C1547 C 0.66637 0.38357 0.87992 0.0
C1548 C 0.66584 0.35138 0.87774 0.0
C1549 C 0.66476 0.33862 0.84659 0.0
C1550 C 0.62451 0.39174 0.94607 0.0
C1551 C 0.63883 0.4262 0.95213 0.0
C1552 C 0.63636 0.37673 0.92565 0.0
C1553 C 0.66265 0.39604 0.91101 0.0
C1554 C 0.68022 0.42942 0.92137 0.0
C1555 C 0.66836 0.44446 0.94177 0.0
H1556 H 0.65193 0.30595 0.12515 0.0
H1557 H 0.731 0.37191 0.08113 0.0
H1558 H 0.61113 0.30221 0.0716 0.0
H1559 H 0.6895 0.36801 0.02689 0.0
H1560 H 0.61954 0.42792 0.03463 0.0
H1561 H 0.66017 0.40214 0.04159 0.0
H1562 H 0.57963 0.30721 0.01184 0.0
H1563 H 0.53829 0.33411 0.00361 0.0
C1564 C 0.66102 0.3183 0.10355 0.0
C1565 C 0.69432 0.34096 0.10789 0.0
C1566 C 0.63746 0.31579 0.07242 0.0
C1567 C 0.6469 0.33664 0.04586 0.0
C1568 C 0.68145 0.35275 0.04761 0.0
C1569 C 0.7051 0.35551 0.07886 0.0
C1570 C 0.61048 0.40174 0.0284 0.0
C1571 C 0.57592 0.38287 0.01924 0.0
C1572 C 0.63384 0.38688 0.03184 0.0
C1573 C 0.62319 0.35241 0.02743 0.0
C1574 C 0.58853 0.33382 0.01523 0.0
C1575 C 0.56495 0.34909 0.01086 0.0
H1576 H 0.74135 0.62482 0.20799 0.0
H1577 H 0.67307 0.67422 0.16144 0.0
H1578 H 0.71194 0.58075 0.16303 0.0
H1579 H 0.64421 0.63104 0.11674 0.0
H1580 H 0.61133 0.57092 0.02764 0.0
H1581 H 0.66165 0.60899 0.06677 0.0
H1582 H 0.64692 0.53881 0.14727 0.0
H1583 H 0.59614 0.50155 0.10878 0.0
C1584 C 0.71953 0.62561 0.18861 0.0
C1585 C 0.70855 0.65195 0.1882 0.0
C1586 C 0.70339 0.60108 0.16269 0.0
C1587 C 0.67677 0.60338 0.13607 0.0
C1588 C 0.66546 0.62943 0.13643 0.0
C1589 C 0.68127 0.65354 0.16233 0.0
C1590 C 0.61952 0.56333 0.05336 0.0
C1591 C 0.5993 0.53443 0.06608 0.0
C1592 C 0.64837 0.58484 0.07554 0.0
C1593 C 0.65731 0.57689 0.11005 0.0
C1594 C 0.64024 0.54544 0.12083 0.0
C1595 C 0.61105 0.52439 0.09897 0.0
H1596 H 0.35431 0.57861 0.17023 0.0
H1597 H 0.36634 0.67474 0.12736 0.0
H1598 H 0.36188 0.56017 0.11851 0.0
H1599 H 0.37347 0.65606 0.07532 0.0
H1600 H 0.45452 0.62234 0.04383 0.0
H1601 H 0.4246 0.64295 0.07309 0.0
H1602 H 0.34046 0.54974 0.05343 0.0
H1603 H 0.37 0.52903 0.02282 0.0
C1604 C 0.35805 0.59558 0.14951 0.0
C1605 C 0.36028 0.62819 0.15298 0.0
C1606 C 0.36179 0.58488 0.11969 0.0
C1607 C 0.36812 0.60671 0.09293 0.0
C1608 C 0.36851 0.63879 0.0956 0.0
C1609 C 0.36448 0.64942 0.12535 0.0
C1610 C 0.42903 0.60663 0.04396 0.0
C1611 C 0.41483 0.57396 0.03064 0.0
C1612 C 0.41179 0.61856 0.0609 0.0
C1613 C 0.3804 0.59778 0.06582 0.0
C1614 C 0.36474 0.56618 0.05001 0.0
C1615 C 0.3817 0.55446 0.0323 0.0
H1616 H 0.34021 0.26064 0.16432 0.0
H1617 H 0.37775 0.33577 0.24431 0.0
H1618 H 0.3762 0.29827 0.13115 0.0
H1619 H 0.41168 0.37435 0.21018 0.0
H1620 H 0.47747 0.43419 0.14143 0.0
H1621 H 0.45525 0.39261 0.18105 0.0
H1622 H 0.36678 0.34378 0.09986 0.0
H1623 H 0.38973 0.38452 0.05996 0.0
C1624 C 0.35632 0.28516 0.17501 0.0
C1625 C 0.35463 0.29606 0.20607 0.0
C1626 C 0.37672 0.30676 0.15588 0.0
C1627 C 0.39537 0.33971 0.1673 0.0
C1628 C 0.39706 0.34926 0.20034 0.0
C1629 C 0.37719 0.32729 0.21982 0.0
C1630 C 0.45317 0.41463 0.13213 0.0
C1631 C 0.43524 0.41242 0.09764 0.0
C1632 C 0.44054 0.39081 0.15482 0.0
C1633 C 0.40963 0.36461 0.14343 0.0
C1634 C 0.39124 0.3631 0.10914 0.0
C1635 C 0.40405 0.38668 0.08639 0.0
H1636 H 0.79204 0.61169 0.5482 0.0
H1637 H 0.85268 0.6288 0.65255 0.0
H1638 H 0.83251 0.59381 0.53229 0.0
H1639 H 0.8934 0.61112 0.63647 0.0
H1640 H 0.97085 0.59467 0.59051 0.0
H1641 H 0.93523 0.62201 0.60247 0.0
H1642 H 0.84683 0.54476 0.54433 0.0
H1643 H 0.88213 0.51768 0.53247 0.0
C1644 C 0.81407 0.61173 0.56776 0.0
C1645 C 0.81876 0.62114 0.6018 0.0
C1646 C 0.83731 0.60154 0.5586 0.0
C1647 C 0.86595 0.60059 0.58319 0.0
C1648 C 0.87168 0.61173 0.61685 0.0
C1649 C 0.84832 0.62187 0.62607 0.0
C1650 C 0.9438 0.58365 0.58025 0.0
C1651 C 0.92934 0.55404 0.56049 0.0
C1652 C 0.92343 0.59929 0.58709 0.0
C1653 C 0.88819 0.58562 0.5743 0.0
C1654 C 0.8739 0.55635 0.55404 0.0
C1655 C 0.89419 0.54079 0.54722 0.0
H1656 H 0.27948 0.76415 0.63317 0.0
H1657 H 0.33819 0.83518 0.71611 0.0
H1658 H 0.32095 0.79161 0.59993 0.0
H1659 H 0.37887 0.86373 0.68278 0.0
H1660 H 0.3854 0.87216 0.53843 0.0
H1661 H 0.34323 0.84096 0.56956 0.0
H1662 H 0.42214 0.85719 0.66304 0.0
H1663 H 0.46372 0.88899 0.63232 0.0
C1664 C 0.30148 0.78557 0.64424 0.0
C1665 C 0.30673 0.79678 0.67763 0.0
C1666 C 0.325 0.80155 0.62515 0.0
C1667 C 0.35363 0.8297 0.63878 0.0
C1668 C 0.35779 0.84158 0.67178 0.0
C1669 C 0.33458 0.82529 0.69095 0.0
C1670 C 0.39366 0.8687 0.56556 0.0
C1671 C 0.42786 0.88321 0.58292 0.0
C1672 C 0.36953 0.85076 0.58342 0.0
C1673 C 0.37916 0.84681 0.61898 0.0
C1674 C 0.4136 0.86031 0.6359 0.0
C1675 C 0.43754 0.87839 0.61818 0.0
H1676 H 0.24803 0.31671 0.68582 0.0
H1677 H 0.15379 0.23342 0.6642 0.0
H1678 H 0.22006 0.3514 0.65101 0.0
H1679 H 0.12524 0.26796 0.63251 0.0
H1680 H 0.07661 0.32903 0.5637 0.0
H1681 H 0.10995 0.29595 0.5874 0.0
H1682 H 0.18618 0.38057 0.64807 0.0
H1683 H 0.15432 0.41449 0.62153 0.0
C1684 C 0.22145 0.30568 0.67326 0.0
C1685 C 0.20334 0.27207 0.67752 0.0
C1686 C 0.20505 0.32576 0.65372 0.0
C1687 C 0.16984 0.31307 0.63867 0.0
C1688 C 0.15224 0.27915 0.64257 0.0
C1689 C 0.16872 0.25911 0.66123 0.0
C1690 C 0.10084 0.34103 0.58141 0.0
C1691 C 0.1122 0.37484 0.59052 0.0
C1692 C 0.11996 0.32162 0.5958 0.0
C1693 C 0.151 0.3349 0.62061 0.0
C1694 C 0.16275 0.36893 0.6291 0.0
C1695 C 0.14391 0.38851 0.61416 0.0
H1696 H 0.67021 0.2111 0.6312 0.0
H1697 H 0.74483 0.16592 0.65291 0.0
H1698 H 0.63531 0.17006 0.58576 0.0
H1699 H 0.71 0.12484 0.60717 0.0
H1700 H 0.61002 0.0319 0.58659 0.0
H1701 H 0.65691 0.08086 0.61248 0.0
H1702 H 0.62483 0.13944 0.53029 0.0
H1703 H 0.57701 0.08955 0.50399 0.0
C1704 C 0.67974 0.19319 0.6256 0.0
C1705 C 0.70994 0.19144 0.64616 0.0
C1706 C 0.65976 0.16967 0.59934 0.0
C1707 C 0.66973 0.14397 0.59326 0.0
C1708 C 0.70145 0.14409 0.61171 0.0
C1709 C 0.72125 0.16746 0.63805 0.0
C1710 C 0.61317 0.05506 0.57363 0.0
C1711 C 0.58967 0.05707 0.54355 0.0
C1712 C 0.64036 0.08312 0.58827 0.0
C1713 C 0.64463 0.11399 0.57337 0.0
C1714 C 0.62205 0.11589 0.54229 0.0
C1715 C 0.59484 0.08746 0.52726 0.0
H1716 H 0.87141 0.31962 0.29193 0.0
H1717 H 0.80758 0.27725 0.36086 0.0
H1718 H 0.91316 0.35717 0.33688 0.0
H1719 H 0.85 0.31572 0.40675 0.0
H1720 H 0.9147 0.42894 0.4477 0.0
H1721 H 0.87331 0.37754 0.41748 0.0
H1722 H 0.95355 0.35825 0.39122 0.0
H1723 H 0.99428 0.41002 0.42024 0.0
C1724 C 0.86683 0.31757 0.31711 0.0
C1725 C 0.83671 0.29498 0.32316 0.0
C1726 C 0.89077 0.33922 0.34296 0.0
C1727 C 0.88523 0.3389 0.37561 0.0
C1728 C 0.85499 0.31629 0.38186 0.0
C1729 C 0.83084 0.2944 0.35573 0.0
C1730 C 0.92331 0.41302 0.43623 0.0
C1731 C 0.95722 0.42311 0.43568 0.0
C1732 C 0.89979 0.38363 0.41915 0.0
C1733 C 0.91019 0.36429 0.40145 0.0
C1734 C 0.94478 0.37303 0.40408 0.0
C1735 C 0.96808 0.40247 0.42073 0.0
H1736 H 0.63936 0.82448 0.3107 0.0
H1737 H 0.67974 0.81046 0.4171 0.0
H1738 H 0.62315 0.86793 0.32669 0.0
H1739 H 0.66536 0.85511 0.43339 0.0
H1740 H 0.5944 0.90256 0.45217 0.0
H1741 H 0.6186 0.86495 0.4379 0.0
H1742 H 0.63746 0.9209 0.34799 0.0
H1743 H 0.61165 0.95742 0.36169 0.0
C1744 C 0.64542 0.83128 0.33751 0.0
C1745 C 0.66043 0.81391 0.36269 0.0
C1746 C 0.6363 0.85635 0.34679 0.0
C1747 C 0.64252 0.86502 0.38149 0.0
C1748 C 0.65921 0.84863 0.4065 0.0
C1749 C 0.66772 0.82317 0.39722 0.0
C1750 C 0.60397 0.90687 0.42951 0.0
C1751 C 0.60075 0.93259 0.4078 0.0
C1752 C 0.6181 0.88543 0.42135 0.0
C1753 C 0.62992 0.88954 0.39154 0.0
C1754 C 0.62792 0.91628 0.37065 0.0
C1755 C 0.61326 0.93736 0.37854 0.0
H1756 H 0.24533 0.7004 0.31663 0.0
H1757 H 0.15152 0.66888 0.23852 0.0
H1758 H 0.21519 0.67066 0.35935 0.0
H1759 H 0.12155 0.64019 0.28095 0.0
H1760 H 0.07192 0.63007 0.36645 0.0
H1761 H 0.10901 0.66083 0.33016 0.0
H1762 H 0.17831 0.61205 0.37536 0.0
H1763 H 0.14133 0.58192 0.41257 0.0
C1764 C 0.21846 0.68662 0.30846 0.0
C1765 C 0.20079 0.68685 0.27413 0.0
C1766 C 0.20118 0.66978 0.33294 0.0
C1767 C 0.16587 0.65364 0.32364 0.0
C1768 C 0.14863 0.65293 0.2891 0.0
C1769 C 0.16585 0.66916 0.26471 0.0
C1770 C 0.09543 0.6265 0.36908 0.0
C1771 C 0.10394 0.60388 0.3923 0.0
C1772 C 0.11654 0.64384 0.34817 0.0
C1773 C 0.14633 0.63844 0.34947 0.0
C1774 C 0.15565 0.61688 0.3739 0.0
C1775 C 0.1346 0.59974 0.39521 0.0
H1776 H 0.35053 0.23319 0.288 0.0
H1777 H 0.26866 0.14723 0.30624 0.0
H1778 H 0.39111 0.20911 0.32079 0.0
H1779 H 0.30862 0.12361 0.33945 0.0
H1780 H 0.37997 0.06888 0.35253 0.0
H1781 H 0.34286 0.098 0.32657 0.0
H1782 H 0.41847 0.18972 0.37413 0.0
H1783 H 0.45655 0.16054 0.3992 0.0
C1784 C 0.34124 0.20958 0.29976 0.0
C1785 C 0.30629 0.19204 0.29433 0.0
C1786 C 0.3645 0.19566 0.31855 0.0
C1787 C 0.35334 0.16383 0.33223 0.0
C1788 C 0.31841 0.14758 0.32853 0.0
C1789 C 0.29537 0.16132 0.30975 0.0
C1790 C 0.38905 0.0953 0.35738 0.0
C1791 C 0.42162 0.11209 0.37809 0.0
C1792 C 0.36738 0.11209 0.34277 0.0
C1793 C 0.37723 0.14642 0.34834 0.0
C1794 C 0.40983 0.16339 0.36902 0.0
C1795 C 0.43162 0.14648 0.38377 0.0
H1796 H 0.68 0.75383 0.69138 0.0
H1797 H 0.75974 0.83729 0.66557 0.0
H1798 H 0.6382 0.77583 0.65716 0.0
H1799 H 0.71827 0.85882 0.63084 0.0
H1800 H 0.63226 0.87902 0.55284 0.0
H1801 H 0.6692 0.84885 0.57865 0.0
H1802 H 0.6248 0.82676 0.66472 0.0
H1803 H 0.58786 0.85672 0.639 0.0
C1804 C 0.68852 0.77633 0.67759 0.0
C1805 C 0.7232 0.79371 0.681 0.0
C1806 C 0.66462 0.78915 0.65824 0.0
C1807 C 0.67478 0.81931 0.64131 0.0
C1808 C 0.70937 0.83553 0.64326 0.0
C1809 C 0.7332 0.82317 0.66319 0.0
C1810 C 0.63006 0.86745 0.57709 0.0
C1811 C 0.6071 0.87073 0.59384 0.0
C1812 C 0.65142 0.85024 0.592 0.0
C1813 C 0.6501 0.83526 0.62386 0.0
C1814 C 0.62641 0.83764 0.64007 0.0
C1815 C 0.60544 0.85523 0.62543 0.0
H1816 H 0.68196 0.13813 0.24228 0.0
H1817 H 0.74301 0.214 0.32022 0.0
H1818 H 0.64478 0.1109 0.2794 0.0
H1819 H 0.70661 0.18649 0.35808 0.0
H1820 H 0.61398 0.14395 0.40454 0.0
H1821 H 0.65343 0.17325 0.36971 0.0
H1822 H 0.64115 0.07952 0.32784 0.0
H1823 H 0.60094 0.0509 0.36123 0.0
C1824 C 0.68738 0.14893 0.26744 0.0
C1825 C 0.71476 0.1786 0.27798 0.0
C1826 C 0.66629 0.13321 0.28898 0.0
C1827 C 0.67253 0.1463 0.32206 0.0
C1828 C 0.70051 0.17579 0.33276 0.0
C1829 C 0.72144 0.19163 0.31102 0.0
C1830 C 0.61993 0.12982 0.38789 0.0
C1831 C 0.60405 0.09524 0.38512 0.0
C1832 C 0.64254 0.14653 0.36789 0.0
C1833 C 0.65004 0.12893 0.34509 0.0
C1834 C 0.6352 0.09417 0.3439 0.0
C1835 C 0.61228 0.07766 0.36329 0.0
H1836 H 0.78044 0.6671 0.29051 0.0
H1837 H 0.87745 0.74682 0.30694 0.0
H1838 H 0.80814 0.63006 0.32195 0.0
H1839 H 0.90478 0.70966 0.3363 0.0
H1840 H 0.93262 0.61427 0.32945 0.0
H1841 H 0.89848 0.64697 0.30373 0.0
H1842 H 0.86103 0.63663 0.39364 0.0
H1843 H 0.89552 0.60385 0.41991 0.0
C1844 C 0.80743 0.67696 0.30138 0.0
C1845 C 0.82659 0.71018 0.29637 0.0
C1846 C 0.82333 0.65567 0.31915 0.0
C1847 C 0.85873 0.66694 0.33143 0.0
C1848 C 0.87755 0.70022 0.32717 0.0
C1849 C 0.86175 0.72153 0.31034 0.0
C1850 C 0.91682 0.61841 0.34374 0.0
C1851 C 0.91703 0.60617 0.37693 0.0
C1852 C 0.89727 0.6373 0.32893 0.0
C1853 C 0.87682 0.64418 0.3465 0.0
C1854 C 0.87626 0.63146 0.37932 0.0
C1855 C 0.8963 0.61292 0.39445 0.0
H1856 H 0.30177 0.83615 0.31274 0.0
H1857 H 0.34317 0.76252 0.35637 0.0
H1858 H 0.34128 0.87544 0.35721 0.0
H1859 H 0.38318 0.80238 0.40165 0.0
H1860 H 0.47968 0.90161 0.42681 0.0
H1861 H 0.43275 0.85165 0.4008 0.0
H1862 H 0.3624 0.89353 0.41577 0.0
H1863 H 0.40969 0.9439 0.44074 0.0
C1864 C 0.31901 0.82804 0.3321 0.0
C1865 C 0.32008 0.79639 0.33007 0.0
C1866 C 0.34155 0.85065 0.35803 0.0
C1867 C 0.36577 0.84228 0.38286 0.0
C1868 C 0.36523 0.8098 0.38248 0.0
C1869 C 0.3424 0.78698 0.35645 0.0
C1870 C 0.45412 0.89957 0.42523 0.0
C1871 C 0.44791 0.92628 0.43533 0.0
C1872 C 0.42724 0.87094 0.41059 0.0
C1873 C 0.39375 0.86872 0.4058 0.0
C1874 C 0.38786 0.89469 0.41854 0.0
C1875 C 0.41478 0.9234 0.43295 0.0
H1876 H 0.17986 0.359 0.32285 0.0
H1877 H 0.2442 0.37822 0.42556 0.0
H1878 H 0.13996 0.37655 0.34078 0.0
H1879 H 0.20453 0.39594 0.44334 0.0
H1880 H 0.15623 0.47353 0.44349 0.0
H1881 H 0.19026 0.44496 0.43149 0.0
H1882 H 0.10009 0.36741 0.3765 0.0
H1883 H 0.06582 0.39627 0.38854 0.0
C1884 C 0.18519 0.3663 0.34939 0.0
C1885 C 0.21561 0.36785 0.37257 0.0
C1886 C 0.16229 0.37637 0.35969 0.0
C1887 C 0.16935 0.38824 0.39336 0.0
C1888 C 0.19871 0.38772 0.41701 0.0
C1889 C 0.22148 0.37759 0.40678 0.0
C1890 C 0.14355 0.45007 0.42941 0.0
C1891 C 0.1083 0.43724 0.41688 0.0
C1892 C 0.16309 0.43362 0.42253 0.0
C1893 C 0.14793 0.40386 0.40298 0.0
C1894 C 0.11258 0.3905 0.39123 0.0
C1895 C 0.09297 0.40703 0.3981 0.0
H1896 H 0.39115 0.16031 0.66591 0.0
H1897 H 0.35383 0.17548 0.55907 0.0
H1898 H 0.40873 0.11759 0.65055 0.0
H1899 H 0.36986 0.13175 0.54342 0.0
H1900 H 0.44269 0.08559 0.52727 0.0
H1901 H 0.41819 0.12304 0.54117 0.0
H1902 H 0.3948 0.06462 0.62837 0.0
H1903 H 0.4205 0.02787 0.61492 0.0
C1904 C 0.38608 0.15397 0.63912 0.0
C1905 C 0.37149 0.17146 0.61369 0.0
C1906 C 0.39602 0.12933 0.63022 0.0
C1907 C 0.39115 0.12127 0.59563 0.0
C1908 C 0.37496 0.13779 0.57028 0.0
C1909 C 0.36553 0.16274 0.57921 0.0
C1910 C 0.43208 0.08064 0.54926 0.0
C1911 C 0.43386 0.05397 0.57019 0.0
C1912 C 0.4178 0.10204 0.5572 0.0
C1913 C 0.40449 0.09712 0.58607 0.0
C1914 C 0.40541 0.06977 0.6064 0.0
C1915 C 0.42009 0.0486 0.59867 0.0
H1916 H 0.79092 0.28021 0.65419 0.0
H1917 H 0.87135 0.3334 0.73967 0.0
H1918 H 0.82385 0.31222 0.61461 0.0
H1919 H 0.90324 0.36681 0.70071 0.0
H1920 H 0.9732 0.38652 0.63367 0.0
H1921 H 0.93477 0.35672 0.66821 0.0
H1922 H 0.85073 0.36223 0.58794 0.0
H1923 H 0.88972 0.39082 0.55236 0.0
C1924 C 0.81519 0.29951 0.66438 0.0
C1925 C 0.82879 0.30436 0.69989 0.0
C1926 C 0.8341 0.31788 0.64177 0.0
C1927 C 0.86679 0.34151 0.65439 0.0
C1928 C 0.87887 0.34794 0.68995 0.0
C1929 C 0.86045 0.32913 0.71237 0.0
C1930 C 0.94649 0.38114 0.62324 0.0
C1931 C 0.93452 0.39112 0.59041 0.0
C1932 C 0.92436 0.36438 0.64325 0.0
C1933 C 0.88954 0.35778 0.63143 0.0
C1934 C 0.87731 0.36686 0.59799 0.0
C1935 C 0.89961 0.38321 0.57757 0.0
H1936 H 0.14964 0.70134 0.65179 0.0
H1937 H 0.23639 0.70355 0.62012 0.0
H1938 H 0.11287 0.66045 0.60617 0.0
H1939 H 0.19971 0.66141 0.5755 0.0
H1940 H 0.06036 0.59173 0.50652 0.0
H1941 H 0.10081 0.64623 0.53107 0.0
H1942 H 0.1592 0.59861 0.60247 0.0
H1943 H 0.11845 0.54451 0.5791 0.0
C1944 C 0.1609 0.69349 0.63489 0.0
C1945 C 0.19607 0.70361 0.64106 0.0
C1946 C 0.13981 0.67036 0.60855 0.0
C1947 C 0.1537 0.65754 0.58795 0.0
C1948 C 0.18857 0.6707 0.59147 0.0
C1949 C 0.20952 0.69412 0.61744 0.0
C1950 C 0.08234 0.59311 0.52687 0.0
C1951 C 0.08631 0.56416 0.54125 0.0
C1952 C 0.10528 0.62412 0.54085 0.0
C1953 C 0.13288 0.62628 0.56848 0.0
C1954 C 0.13817 0.59739 0.58095 0.0
C1955 C 0.11487 0.56655 0.56771 0.0
loop_
_geom_bond_atom_site_label_1
_geom_bond_atom_site_label_2
_geom_bond_distance
_geom_bond_site_symmetry_2
_ccdc_geom_bond_type
Eu0 N31 2.657 . S
Eu0 N38 2.609 . S
Eu0 O44 2.558 . S
Eu0 O45 2.612 . S
Eu0 O47 2.339 . S
Eu0 O48 2.563 . S
Eu0 O49 2.419 . S
Eu0 O51 2.380 . S
Eu0 O52 2.432 . S
Eu0 C64 2.848 . S
C1 C4 1.429 . S
C1 C5 1.411 . S
C1 N8 1.377 . S
C2 C4 1.420 . S
C2 C6 1.423 . S
C2 C14 1.392 . S
C3 C5 1.420 . S
C3 C6 1.351 . S
C3 H26 0.931 . S
C4 C1 1.429 . S
C4 C2 1.420 . S
C4 N12 1.362 . S
C5 C1 1.411 . S
C5 C3 1.420 . S
C5 C10 1.395 . S
C6 C2 1.423 . S
C6 C3 1.351 . S
C6 H18 0.930 . S
C7 C9 1.400 . S
C7 C10 1.386 . S
C7 H19 0.930 . S
N8 C1 1.377 . S
N8 C9 1.321 . S
N8 Eu11 2.609 . S
C9 C7 1.400 . S
C9 N8 1.321 . S
C9 H16 0.930 . S
C10 C5 1.395 . S
C10 C7 1.386 . S
C10 H29 0.930 . S
Eu11 N8 2.609 . S
Eu11 N12 2.657 . S
Eu11 O45 2.380 . S
Eu11 O46 2.432 . S
Eu11 O50 2.558 . S
Eu11 O51 2.612 . S
Eu11 O53 2.339 . S
Eu11 O54 2.563 . S
Eu11 O55 2.419 . S
Eu11 C75 2.848 . S
N12 C4 1.362 . S
N12 Eu11 2.657 . S
N12 C13 1.334 . S
C13 N12 1.334 . S
C13 C15 1.413 . S
C13 H20 0.929 . S
C14 C2 1.392 . S
C14 C15 1.367 . S
C14 H22 0.930 . S
C15 C13 1.413 . S
C15 C14 1.367 . S
C15 H17 0.930 . S
H16 C9 0.930 . S
H17 C15 0.930 . S
H18 C6 0.930 . S
H19 C7 0.930 . S
H20 C13 0.929 . S
H21 C35 0.930 . S
H22 C14 0.930 . S
H23 C41 0.930 . S
H24 C32 0.929 . S
H25 C39 0.930 . S
H26 C3 0.931 . S
H27 C33 0.930 . S
H28 C66 0.930 . S
H29 C10 0.930 . S
H30 C65 0.931 . S
N31 Eu0 2.657 . S
N31 C32 1.334 . S
N31 C36 1.362 . S
C32 H24 0.929 . S
C32 N31 1.334 . S
C32 C35 1.413 . S
C33 H27 0.930 . S
C33 C34 1.392 . S
C33 C35 1.367 . S
C34 C33 1.392 . S
C34 C36 1.420 . S
C34 C66 1.423 . S
C35 H21 0.930 . S
C35 C32 1.413 . S
C35 C33 1.367 . S
C36 N31 1.362 . S
C36 C34 1.420 . S
C36 C40 1.429 . S
H37 C42 0.930 . S
N38 Eu0 2.609 . S
N38 C40 1.377 . S
N38 C41 1.321 . S
C39 H25 0.930 . S
C39 C41 1.400 . S
C39 C42 1.386 . S
C40 C36 1.429 . S
C40 N38 1.377 . S
C40 C43 1.411 . S
C41 H23 0.930 . S
C41 N38 1.321 . S
C41 C39 1.400 . S
C42 H37 0.930 . S
C42 C39 1.386 . S
C42 C43 1.395 . S
C43 C40 1.411 . S
C43 C42 1.395 . S
C43 C65 1.420 . S
O44 Eu0 2.558 . S
O44 C64 1.257 . S
O45 Eu0 2.612 . S
O45 Eu11 2.380 . S
O45 C56 1.276 . S
O46 Eu11 2.432 . S
O46 C63 1.264 . S
O47 Eu0 2.339 . S
O47 C63 1.254 . S
O48 Eu0 2.563 . S
O48 C56 1.235 . S
O49 Eu0 2.419 . S
O49 C64 1.249 . S
O50 Eu11 2.558 . S
O50 C75 1.257 . S
O51 Eu0 2.380 . S
O51 Eu11 2.612 . S
O51 C67 1.276 . S
O52 Eu0 2.432 . S
O52 C74 1.264 . S
O53 Eu11 2.339 . S
O53 C74 1.254 . S
O54 Eu11 2.563 . S
O54 C67 1.235 . S
O55 Eu11 2.419 . S
O55 C75 1.249 . S
C56 O45 1.276 . S
C56 O48 1.235 . S
C57 C59 1.393 . S
C57 C61 1.395 . S
C57 C64 1.492 . S
C58 C59 1.392 . S
C58 C60 1.386 . S
C59 C57 1.393 . S
C59 C58 1.392 . S
C59 H76 0.930 . S
C60 C58 1.386 . S
C60 C62 1.395 . S
C60 H77 0.930 . S
C61 C57 1.395 . S
C61 C62 1.379 . S
C61 H78 0.930 . S
C62 C60 1.395 . S
C62 C61 1.379 . S
C62 H79 0.930 . S
C63 O46 1.264 . S
C63 O47 1.254 . S
C64 Eu0 2.848 . S
C64 O44 1.257 . S
C64 O49 1.249 . S
C64 C57 1.492 . S
C65 H30 0.931 . S
C65 C43 1.420 . S
C65 C66 1.351 . S
C66 H28 0.930 . S
C66 C34 1.423 . S
C66 C65 1.351 . S
C67 O51 1.276 . S
C67 O54 1.235 . S
C68 C69 1.393 . S
C68 C72 1.395 . S
C68 C75 1.492 . S
C69 C68 1.393 . S
C69 C70 1.392 . S
C69 H80 0.930 . S
C70 C69 1.392 . S
C70 C71 1.386 . S
C71 C70 1.386 . S
C71 C73 1.395 . S
C71 H81 0.930 . S
C72 C68 1.395 . S
C72 C73 1.379 . S
C72 H82 0.930 . S
C73 C71 1.395 . S
C73 C72 1.379 . S
C73 H83 0.930 . S
C74 O52 1.264 . S
C74 O53 1.254 . S
C75 Eu11 2.848 . S
C75 O50 1.257 . S
C75 O55 1.249 . S
C75 C68 1.492 . S
H76 C59 0.930 . S
H77 C60 0.930 . S
H78 C61 0.930 . S
H79 C62 0.930 . S
H80 C69 0.930 . S
H81 C71 0.930 . S
H82 C72 0.930 . S
H83 C73 0.930 . S
Eu84 N115 2.657 . S
Eu84 N122 2.609 . S
Eu84 O128 2.558 . S
Eu84 O129 2.612 . S
Eu84 O131 2.339 . S
Eu84 O132 2.563 . S
Eu84 O133 2.419 . S
Eu84 O135 2.380 . S
Eu84 O136 2.432 . S
Eu84 C148 2.848 . S
C85 C88 1.429 . S
C85 C89 1.411 . S
C85 N92 1.377 . S
C86 C88 1.420 . S
C86 C90 1.423 . S
C86 C98 1.392 . S
C87 C89 1.420 . S
C87 C90 1.351 . S
C87 H110 0.931 . S
C88 C85 1.429 . S
C88 C86 1.420 . S
C88 N96 1.362 . S
C89 C85 1.411 . S
C89 C87 1.420 . S
C89 C94 1.395 . S
C90 C86 1.423 . S
C90 C87 1.351 . S
C90 H102 0.930 . S
C91 C93 1.400 . S
C91 C94 1.386 . S
C91 H103 0.930 . S
N92 C85 1.377 . S
N92 C93 1.321 . S
N92 Eu95 2.609 . S
C93 C91 1.400 . S
C93 N92 1.321 . S
C93 H100 0.930 . S
C94 C89 1.395 . S
C94 C91 1.386 . S
C94 H113 0.930 . S
Eu95 N92 2.609 . S
Eu95 N96 2.657 . S
Eu95 O129 2.380 . S
Eu95 O130 2.432 . S
Eu95 O134 2.558 . S
Eu95 O135 2.612 . S
Eu95 O137 2.339 . S
Eu95 O138 2.563 . S
Eu95 O139 2.419 . S
Eu95 C159 2.848 . S
N96 C88 1.362 . S
N96 Eu95 2.657 . S
N96 C97 1.334 . S
C97 N96 1.334 . S
C97 C99 1.413 . S
C97 H104 0.929 . S
C98 C86 1.392 . S
C98 C99 1.367 . S
C98 H106 0.930 . S
C99 C97 1.413 . S
C99 C98 1.367 . S
C99 H101 0.930 . S
H100 C93 0.930 . S
H101 C99 0.930 . S
H102 C90 0.930 . S
H103 C91 0.930 . S
H104 C97 0.929 . S
H105 C119 0.930 . S
H106 C98 0.930 . S
H107 C125 0.930 . S
H108 C116 0.929 . S
H109 C123 0.930 . S
H110 C87 0.931 . S
H111 C117 0.930 . S
H112 C150 0.930 . S
H113 C94 0.930 . S
H114 C149 0.931 . S
N115 Eu84 2.657 . S
N115 C116 1.334 . S
N115 C120 1.362 . S
C116 H108 0.929 . S
C116 N115 1.334 . S
C116 C119 1.413 . S
C117 H111 0.930 . S
C117 C118 1.392 . S
C117 C119 1.367 . S
C118 C117 1.392 . S
C118 C120 1.420 . S
C118 C150 1.423 . S
C119 H105 0.930 . S
C119 C116 1.413 . S
C119 C117 1.367 . S
C120 N115 1.362 . S
C120 C118 1.420 . S
C120 C124 1.429 . S
H121 C126 0.930 . S
N122 Eu84 2.609 . S
N122 C124 1.377 . S
N122 C125 1.321 . S
C123 H109 0.930 . S
C123 C125 1.400 . S
C123 C126 1.386 . S
C124 C120 1.429 . S
C124 N122 1.377 . S
C124 C127 1.411 . S
C125 H107 0.930 . S
C125 N122 1.321 . S
C125 C123 1.400 . S
C126 H121 0.930 . S
C126 C123 1.386 . S
C126 C127 1.395 . S
C127 C124 1.411 . S
C127 C126 1.395 . S
C127 C149 1.420 . S
O128 Eu84 2.558 . S
O128 C148 1.257 . S
O129 Eu84 2.612 . S
O129 Eu95 2.380 . S
O129 C140 1.276 . S
O130 Eu95 2.432 . S
O130 C147 1.264 . S
O131 Eu84 2.339 . S
O131 C147 1.254 . S
O132 Eu84 2.563 . S
O132 C140 1.235 . S
O133 Eu84 2.419 . S
O133 C148 1.249 . S
O134 Eu95 2.558 . S
O134 C159 1.257 . S
O135 Eu84 2.380 . S
O135 Eu95 2.612 . S
O135 C151 1.276 . S
O136 Eu84 2.432 . S
O136 C158 1.264 . S
O137 Eu95 2.339 . S
O137 C158 1.254 . S
O138 Eu95 2.563 . S
O138 C151 1.235 . S
O139 Eu95 2.419 . S
O139 C159 1.249 . S
C140 O129 1.276 . S
C140 O132 1.235 . S
C141 C143 1.393 . S
C141 C145 1.395 . S
C141 C148 1.492 . S
C142 C143 1.392 . S
C142 C144 1.386 . S
C143 C141 1.393 . S
C143 C142 1.392 . S
C143 H160 0.930 . S
C144 C142 1.386 . S
C144 C146 1.395 . S
C144 H161 0.930 . S
C145 C141 1.395 . S
C145 C146 1.379 . S
C145 H162 0.930 . S
C146 C144 1.395 . S
C146 C145 1.379 . S
C146 H163 0.930 . S
C147 O130 1.264 . S
C147 O131 1.254 . S
C148 Eu84 2.848 . S
C148 O128 1.257 . S
C148 O133 1.249 . S
C148 C141 1.492 . S
C149 H114 0.931 . S
C149 C127 1.420 . S
C149 C150 1.351 . S
C150 H112 0.930 . S
C150 C118 1.423 . S
C150 C149 1.351 . S
C151 O135 1.276 . S
C151 O138 1.235 . S
C152 C153 1.393 . S
C152 C156 1.395 . S
C152 C159 1.492 . S
C153 C152 1.393 . S
C153 C154 1.392 . S
C153 H164 0.930 . S
C154 C153 1.392 . S
C154 C155 1.386 . S
C155 C154 1.386 . S
C155 C157 1.395 . S
C155 H165 0.930 . S
C156 C152 1.395 . S
C156 C157 1.379 . S
C156 H166 0.930 . S
C157 C155 1.395 . S
C157 C156 1.379 . S
C157 H167 0.930 . S
C158 O136 1.264 . S
C158 O137 1.254 . S
C159 Eu95 2.848 . S
C159 O134 1.257 . S
C159 O139 1.249 . S
C159 C152 1.492 . S
H160 C143 0.930 . S
H161 C144 0.930 . S
H162 C145 0.930 . S
H163 C146 0.930 . S
H164 C153 0.930 . S
H165 C155 0.930 . S
H166 C156 0.930 . S
H167 C157 0.930 . S
Eu168 N199 2.657 . S
Eu168 N206 2.609 . S
Eu168 O212 2.558 . S
Eu168 O213 2.612 . S
Eu168 O215 2.339 . S
Eu168 O216 2.563 . S
Eu168 O217 2.419 . S
Eu168 O219 2.380 . S
Eu168 O220 2.432 . S
Eu168 C232 2.848 . S
C169 C172 1.429 . S
C169 C173 1.411 . S
C169 N176 1.377 . S
C170 C172 1.420 . S
C170 C174 1.423 . S
C170 C182 1.392 . S
C171 C173 1.420 . S
C171 C174 1.351 . S
C171 H194 0.931 . S
C172 C169 1.429 . S
C172 C170 1.420 . S
C172 N180 1.362 . S
C173 C169 1.411 . S
C173 C171 1.420 . S
C173 C178 1.395 . S
C174 C170 1.423 . S
C174 C171 1.351 . S
C174 H186 0.930 . S
C175 C177 1.400 . S
C175 C178 1.386 . S
C175 H187 0.930 . S
N176 C169 1.377 . S
N176 C177 1.321 . S
N176 Eu179 2.609 . S
C177 C175 1.400 . S
C177 N176 1.321 . S
C177 H184 0.930 . S
C178 C173 1.395 . S
C178 C175 1.386 . S
C178 H197 0.930 . S
Eu179 N176 2.609 . S
Eu179 N180 2.657 . S
Eu179 O213 2.380 . S
Eu179 O214 2.432 . S
Eu179 O218 2.558 . S
Eu179 O219 2.612 . S
Eu179 O221 2.339 . S
Eu179 O222 2.563 . S
Eu179 O223 2.419 . S
Eu179 C243 2.848 . S
N180 C172 1.362 . S
N180 Eu179 2.657 . S
N180 C181 1.334 . S
C181 N180 1.334 . S
C181 C183 1.413 . S
C181 H188 0.929 . S
C182 C170 1.392 . S
C182 C183 1.367 . S
C182 H190 0.930 . S
C183 C181 1.413 . S
C183 C182 1.367 . S
C183 H185 0.930 . S
H184 C177 0.930 . S
H185 C183 0.930 . S
H186 C174 0.930 . S
H187 C175 0.930 . S
H188 C181 0.929 . S
H189 C203 0.930 . S
H190 C182 0.930 . S
H191 C209 0.930 . S
H192 C200 0.929 . S
H193 C207 0.930 . S
H194 C171 0.931 . S
H195 C201 0.930 . S
H196 C234 0.930 . S
H197 C178 0.930 . S
H198 C233 0.931 . S
N199 Eu168 2.657 . S
N199 C200 1.334 . S
N199 C204 1.362 . S
C200 H192 0.929 . S
C200 N199 1.334 . S
C200 C203 1.413 . S
C201 H195 0.930 . S
C201 C202 1.392 . S
C201 C203 1.367 . S
C202 C201 1.392 . S
C202 C204 1.420 . S
C202 C234 1.423 . S
C203 H189 0.930 . S
C203 C200 1.413 . S
C203 C201 1.367 . S
C204 N199 1.362 . S
C204 C202 1.420 . S
C204 C208 1.429 . S
H205 C210 0.930 . S
N206 Eu168 2.609 . S
N206 C208 1.377 . S
N206 C209 1.321 . S
C207 H193 0.930 . S
C207 C209 1.400 . S
C207 C210 1.386 . S
C208 C204 1.429 . S
C208 N206 1.377 . S
C208 C211 1.411 . S
C209 H191 0.930 . S
C209 N206 1.321 . S
C209 C207 1.400 . S
C210 H205 0.930 . S
C210 C207 1.386 . S
C210 C211 1.395 . S
C211 C208 1.411 . S
C211 C210 1.395 . S
C211 C233 1.420 . S
O212 Eu168 2.558 . S
O212 C232 1.257 . S
O213 Eu168 2.612 . S
O213 Eu179 2.380 . S
O213 C224 1.276 . S
O214 Eu179 2.432 . S
O214 C231 1.264 . S
O215 Eu168 2.339 . S
O215 C231 1.254 . S
O216 Eu168 2.563 . S
O216 C224 1.235 . S
O217 Eu168 2.419 . S
O217 C232 1.249 . S
O218 Eu179 2.558 . S
O218 C243 1.257 . S
O219 Eu168 2.380 . S
O219 Eu179 2.612 . S
O219 C235 1.276 . S
O220 Eu168 2.432 . S
O220 C242 1.264 . S
O221 Eu179 2.339 . S
O221 C242 1.254 . S
O222 Eu179 2.563 . S
O222 C235 1.235 . S
O223 Eu179 2.419 . S
O223 C243 1.249 . S
C224 O213 1.276 . S
C224 O216 1.235 . S
C225 C227 1.393 . S
C225 C229 1.395 . S
C225 C232 1.492 . S
C226 C227 1.392 . S
C226 C228 1.386 . S
C227 C225 1.393 . S
C227 C226 1.392 . S
C227 H244 0.930 . S
C228 C226 1.386 . S
C228 C230 1.395 . S
C228 H245 0.930 . S
C229 C225 1.395 . S
C229 C230 1.379 . S
C229 H246 0.930 . S
C230 C228 1.395 . S
C230 C229 1.379 . S
C230 H247 0.930 . S
C231 O214 1.264 . S
C231 O215 1.254 . S
C232 Eu168 2.848 . S
C232 O212 1.257 . S
C232 O217 1.249 . S
C232 C225 1.492 . S
C233 H198 0.931 . S
C233 C211 1.420 . S
C233 C234 1.351 . S
C234 H196 0.930 . S
C234 C202 1.423 . S
C234 C233 1.351 . S
C235 O219 1.276 . S
C235 O222 1.235 . S
C236 C237 1.393 . S
C236 C240 1.395 . S
C236 C243 1.492 . S
C237 C236 1.393 . S
C237 C238 1.392 . S
C237 H248 0.930 . S
C238 C237 1.392 . S
C238 C239 1.386 . S
C239 C238 1.386 . S
C239 C241 1.395 . S
C239 H249 0.930 . S
C240 C236 1.395 . S
C240 C241 1.379 . S
C240 H250 0.930 . S
C241 C239 1.395 . S
C241 C240 1.379 . S
C241 H251 0.930 . S
C242 O220 1.264 . S
C242 O221 1.254 . S
C243 Eu179 2.848 . S
C243 O218 1.257 . S
C243 O223 1.249 . S
C243 C236 1.492 . S
H244 C227 0.930 . S
H245 C228 0.930 . S
H246 C229 0.930 . S
H247 C230 0.930 . S
H248 C237 0.930 . S
H249 C239 0.930 . S
H250 C240 0.930 . S
H251 C241 0.930 . S
Eu252 N283 2.657 . S
Eu252 N290 2.609 . S
Eu252 O296 2.558 . S
Eu252 O297 2.612 . S
Eu252 O299 2.339 . S
Eu252 O300 2.563 . S
Eu252 O301 2.419 . S
Eu252 O303 2.380 . S
Eu252 O304 2.432 . S
Eu252 C316 2.848 . S
C253 C256 1.429 . S
C253 C257 1.411 . S
C253 N260 1.377 . S
C254 C256 1.420 . S
C254 C258 1.423 . S
C254 C266 1.392 . S
C255 C257 1.420 . S
C255 C258 1.351 . S
C255 H278 0.931 . S
C256 C253 1.429 . S
C256 C254 1.420 . S
C256 N264 1.362 . S
C257 C253 1.411 . S
C257 C255 1.420 . S
C257 C262 1.395 . S
C258 C254 1.423 . S
C258 C255 1.351 . S
C258 H270 0.930 . S
C259 C261 1.400 . S
C259 C262 1.386 . S
C259 H271 0.930 . S
N260 C253 1.377 . S
N260 C261 1.321 . S
N260 Eu263 2.609 . S
C261 C259 1.400 . S
C261 N260 1.321 . S
C261 H268 0.930 . S
C262 C257 1.395 . S
C262 C259 1.386 . S
C262 H281 0.930 . S
Eu263 N260 2.609 . S
Eu263 N264 2.657 . S
Eu263 O297 2.380 . S
Eu263 O298 2.432 . S
Eu263 O302 2.558 . S
Eu263 O303 2.612 . S
Eu263 O305 2.339 . S
Eu263 O306 2.563 . S
Eu263 O307 2.419 . S
Eu263 C327 2.848 . S
N264 C256 1.362 . S
N264 Eu263 2.657 . S
N264 C265 1.334 . S
C265 N264 1.334 . S
C265 C267 1.413 . S
C265 H272 0.929 . S
C266 C254 1.392 . S
C266 C267 1.367 . S
C266 H274 0.930 . S
C267 C265 1.413 . S
C267 C266 1.367 . S
C267 H269 0.930 . S
H268 C261 0.930 . S
H269 C267 0.930 . S
H270 C258 0.930 . S
H271 C259 0.930 . S
H272 C265 0.929 . S
H273 C287 0.930 . S
H274 C266 0.930 . S
H275 C293 0.930 . S
H276 C284 0.929 . S
H277 C291 0.930 . S
H278 C255 0.931 . S
H279 C285 0.930 . S
H280 C318 0.930 . S
H281 C262 0.930 . S
H282 C317 0.931 . S
N283 Eu252 2.657 . S
N283 C284 1.334 . S
N283 C288 1.362 . S
C284 H276 0.929 . S
C284 N283 1.334 . S
C284 C287 1.413 . S
C285 H279 0.930 . S
C285 C286 1.392 . S
C285 C287 1.367 . S
C286 C285 1.392 . S
C286 C288 1.420 . S
C286 C318 1.423 . S
C287 H273 0.930 . S
C287 C284 1.413 . S
C287 C285 1.367 . S
C288 N283 1.362 . S
C288 C286 1.420 . S
C288 C292 1.429 . S
H289 C294 0.930 . S
N290 Eu252 2.609 . S
N290 C292 1.377 . S
N290 C293 1.321 . S
C291 H277 0.930 . S
C291 C293 1.400 . S
C291 C294 1.386 . S
C292 C288 1.429 . S
C292 N290 1.377 . S
C292 C295 1.411 . S
C293 H275 0.930 . S
C293 N290 1.321 . S
C293 C291 1.400 . S
C294 H289 0.930 . S
C294 C291 1.386 . S
C294 C295 1.395 . S
C295 C292 1.411 . S
C295 C294 1.395 . S
C295 C317 1.420 . S
O296 Eu252 2.558 . S
O296 C316 1.257 . S
O297 Eu252 2.612 . S
O297 Eu263 2.380 . S
O297 C308 1.276 . S
O298 Eu263 2.432 . S
O298 C315 1.264 . S
O299 Eu252 2.339 . S
O299 C315 1.254 . S
O300 Eu252 2.563 . S
O300 C308 1.235 . S
O301 Eu252 2.419 . S
O301 C316 1.249 . S
O302 Eu263 2.558 . S
O302 C327 1.257 . S
O303 Eu252 2.380 . S
O303 Eu263 2.612 . S
O303 C319 1.276 . S
O304 Eu252 2.432 . S
O304 C326 1.264 . S
O305 Eu263 2.339 . S
O305 C326 1.254 . S
O306 Eu263 2.563 . S
O306 C319 1.235 . S
O307 Eu263 2.419 . S
O307 C327 1.249 . S
C308 O297 1.276 . S
C308 O300 1.235 . S
C309 C311 1.393 . S
C309 C313 1.395 . S
C309 C316 1.492 . S
C310 C311 1.392 . S
C310 C312 1.386 . S
C311 C309 1.393 . S
C311 C310 1.392 . S
C311 H328 0.930 . S
C312 C310 1.386 . S
C312 C314 1.395 . S
C312 H329 0.930 . S
C313 C309 1.395 . S
C313 C314 1.379 . S
C313 H330 0.930 . S
C314 C312 1.395 . S
C314 C313 1.379 . S
C314 H331 0.930 . S
C315 O298 1.264 . S
C315 O299 1.254 . S
C316 Eu252 2.848 . S
C316 O296 1.257 . S
C316 O301 1.249 . S
C316 C309 1.492 . S
C317 H282 0.931 . S
C317 C295 1.420 . S
C317 C318 1.351 . S
C318 H280 0.930 . S
C318 C286 1.423 . S
C318 C317 1.351 . S
C319 O303 1.276 . S
C319 O306 1.235 . S
C320 C321 1.393 . S
C320 C324 1.395 . S
C320 C327 1.492 . S
C321 C320 1.393 . S
C321 C322 1.392 . S
C321 H332 0.930 . S
C322 C321 1.392 . S
C322 C323 1.386 . S
C323 C322 1.386 . S
C323 C325 1.395 . S
C323 H333 0.930 . S
C324 C320 1.395 . S
C324 C325 1.379 . S
C324 H334 0.930 . S
C325 C323 1.395 . S
C325 C324 1.379 . S
C325 H335 0.930 . S
C326 O304 1.264 . S
C326 O305 1.254 . S
C327 Eu263 2.848 . S
C327 O302 1.257 . S
C327 O307 1.249 . S
C327 C320 1.492 . S
H328 C311 0.930 . S
H329 C312 0.930 . S
H330 C313 0.930 . S
H331 C314 0.930 . S
H332 C321 0.930 . S
H333 C323 0.930 . S
H334 C324 0.930 . S
H335 C325 0.930 . S
Eu336 N367 2.657 . S
Eu336 N374 2.609 . S
Eu336 O380 2.558 . S
Eu336 O381 2.612 . S
Eu336 O383 2.339 . S
Eu336 O384 2.563 . S
Eu336 O385 2.419 . S
Eu336 O387 2.380 . S
Eu336 O388 2.432 . S
Eu336 C400 2.848 . S
C337 C340 1.429 . S
C337 C341 1.411 . S
C337 N344 1.377 . S
C338 C340 1.420 . S
C338 C342 1.423 . S
C338 C350 1.392 . S
C339 C341 1.420 . S
C339 C342 1.351 . S
C339 H362 0.931 . S
C340 C337 1.429 . S
C340 C338 1.420 . S
C340 N348 1.362 . S
C341 C337 1.411 . S
C341 C339 1.420 . S
C341 C346 1.395 . S
C342 C338 1.423 . S
C342 C339 1.351 . S
C342 H354 0.930 . S
C343 C345 1.400 . S
C343 C346 1.386 . S
C343 H355 0.930 . S
N344 C337 1.377 . S
N344 C345 1.321 . S
N344 Eu347 2.609 . S
C345 C343 1.400 . S
C345 N344 1.321 . S
C345 H352 0.930 . S
C346 C341 1.395 . S
C346 C343 1.386 . S
C346 H365 0.930 . S
Eu347 N344 2.609 . S
Eu347 N348 2.657 . S
Eu347 O381 2.380 . S
Eu347 O382 2.432 . S
Eu347 O386 2.558 . S
Eu347 O387 2.612 . S
Eu347 O389 2.339 . S
Eu347 O390 2.563 . S
Eu347 O391 2.419 . S
Eu347 C411 2.848 . S
N348 C340 1.362 . S
N348 Eu347 2.657 . S
N348 C349 1.334 . S
C349 N348 1.334 . S
C349 C351 1.413 . S
C349 H356 0.929 . S
C350 C338 1.392 . S
C350 C351 1.367 . S
C350 H358 0.930 . S
C351 C349 1.413 . S
C351 C350 1.367 . S
C351 H353 0.930 . S
H352 C345 0.930 . S
H353 C351 0.930 . S
H354 C342 0.930 . S
H355 C343 0.930 . S
H356 C349 0.929 . S
H357 C371 0.930 . S
H358 C350 0.930 . S
H359 C377 0.930 . S
H360 C368 0.929 . S
H361 C375 0.930 . S
H362 C339 0.931 . S
H363 C369 0.930 . S
H364 C402 0.930 . S
H365 C346 0.930 . S
H366 C401 0.931 . S
N367 Eu336 2.657 . S
N367 C368 1.334 . S
N367 C372 1.362 . S
C368 H360 0.929 . S
C368 N367 1.334 . S
C368 C371 1.413 . S
C369 H363 0.930 . S
C369 C370 1.392 . S
C369 C371 1.367 . S
C370 C369 1.392 . S
C370 C372 1.420 . S
C370 C402 1.423 . S
C371 H357 0.930 . S
C371 C368 1.413 . S
C371 C369 1.367 . S
C372 N367 1.362 . S
C372 C370 1.420 . S
C372 C376 1.429 . S
H373 C378 0.930 . S
N374 Eu336 2.609 . S
N374 C376 1.377 . S
N374 C377 1.321 . S
C375 H361 0.930 . S
C375 C377 1.400 . S
C375 C378 1.386 . S
C376 C372 1.429 . S
C376 N374 1.377 . S
C376 C379 1.411 . S
C377 H359 0.930 . S
C377 N374 1.321 . S
C377 C375 1.400 . S
C378 H373 0.930 . S
C378 C375 1.386 . S
C378 C379 1.395 . S
C379 C376 1.411 . S
C379 C378 1.395 . S
C379 C401 1.420 . S
O380 Eu336 2.558 . S
O380 C400 1.257 . S
O381 Eu336 2.612 . S
O381 Eu347 2.380 . S
O381 C392 1.276 . S
O382 Eu347 2.432 . S
O382 C399 1.264 . S
O383 Eu336 2.339 . S
O383 C399 1.254 . S
O384 Eu336 2.563 . S
O384 C392 1.235 . S
O385 Eu336 2.419 . S
O385 C400 1.249 . S
O386 Eu347 2.558 . S
O386 C411 1.257 . S
O387 Eu336 2.380 . S
O387 Eu347 2.612 . S
O387 C403 1.276 . S
O388 Eu336 2.432 . S
O388 C410 1.264 . S
O389 Eu347 2.339 . S
O389 C410 1.254 . S
O390 Eu347 2.563 . S
O390 C403 1.235 . S
O391 Eu347 2.419 . S
O391 C411 1.249 . S
C392 O381 1.276 . S
C392 O384 1.235 . S
C393 C395 1.393 . S
C393 C397 1.395 . S
C393 C400 1.492 . S
C394 C395 1.392 . S
C394 C396 1.386 . S
C395 C393 1.393 . S
C395 C394 1.392 . S
C395 H412 0.930 . S
C396 C394 1.386 . S
C396 C398 1.395 . S
C396 H413 0.930 . S
C397 C393 1.395 . S
C397 C398 1.379 . S
C397 H414 0.930 . S
C398 C396 1.395 . S
C398 C397 1.379 . S
C398 H415 0.930 . S
C399 O382 1.264 . S
C399 O383 1.254 . S
C400 Eu336 2.848 . S
C400 O380 1.257 . S
C400 O385 1.249 . S
C400 C393 1.492 . S
C401 H366 0.931 . S
C401 C379 1.420 . S
C401 C402 1.351 . S
C402 H364 0.930 . S
C402 C370 1.423 . S
C402 C401 1.351 . S
C403 O387 1.276 . S
C403 O390 1.235 . S
C404 C405 1.393 . S
C404 C408 1.395 . S
C404 C411 1.492 . S
C405 C404 1.393 . S
C405 C406 1.392 . S
C405 H416 0.930 . S
C406 C405 1.392 . S
C406 C407 1.386 . S
C407 C406 1.386 . S
C407 C409 1.395 . S
C407 H417 0.930 . S
C408 C404 1.395 . S
C408 C409 1.379 . S
C408 H418 0.930 . S
C409 C407 1.395 . S
C409 C408 1.379 . S
C409 H419 0.930 . S
C410 O388 1.264 . S
C410 O389 1.254 . S
C411 Eu347 2.848 . S
C411 O386 1.257 . S
C411 O391 1.249 . S
C411 C404 1.492 . S
H412 C395 0.930 . S
H413 C396 0.930 . S
H414 C397 0.930 . S
H415 C398 0.930 . S
H416 C405 0.930 . S
H417 C407 0.930 . S
H418 C408 0.930 . S
H419 C409 0.930 . S
Eu420 N451 2.657 . S
Eu420 N458 2.609 . S
Eu420 O464 2.558 . S
Eu420 O465 2.612 . S
Eu420 O467 2.339 . S
Eu420 O468 2.563 . S
Eu420 O469 2.419 . S
Eu420 O471 2.380 . S
Eu420 O472 2.432 . S
Eu420 C484 2.848 . S
C421 C424 1.429 . S
C421 C425 1.411 . S
C421 N428 1.377 . S
C422 C424 1.420 . S
C422 C426 1.423 . S
C422 C434 1.392 . S
C423 C425 1.420 . S
C423 C426 1.351 . S
C423 H446 0.931 . S
C424 C421 1.429 . S
C424 C422 1.420 . S
C424 N432 1.362 . S
C425 C421 1.411 . S
C425 C423 1.420 . S
C425 C430 1.395 . S
C426 C422 1.423 . S
C426 C423 1.351 . S
C426 H438 0.930 . S
C427 C429 1.400 . S
C427 C430 1.386 . S
C427 H439 0.930 . S
N428 C421 1.377 . S
N428 C429 1.321 . S
N428 Eu431 2.609 . S
C429 C427 1.400 . S
C429 N428 1.321 . S
C429 H436 0.930 . S
C430 C425 1.395 . S
C430 C427 1.386 . S
C430 H449 0.930 . S
Eu431 N428 2.609 . S
Eu431 N432 2.657 . S
Eu431 O465 2.380 . S
Eu431 O466 2.432 . S
Eu431 O470 2.558 . S
Eu431 O471 2.612 . S
Eu431 O473 2.339 . S
Eu431 O474 2.563 . S
Eu431 O475 2.419 . S
Eu431 C495 2.848 . S
N432 C424 1.362 . S
N432 Eu431 2.657 . S
N432 C433 1.334 . S
C433 N432 1.334 . S
C433 C435 1.413 . S
C433 H440 0.929 . S
C434 C422 1.392 . S
C434 C435 1.367 . S
C434 H442 0.930 . S
C435 C433 1.413 . S
C435 C434 1.367 . S
C435 H437 0.930 . S
H436 C429 0.930 . S
H437 C435 0.930 . S
H438 C426 0.930 . S
H439 C427 0.930 . S
H440 C433 0.929 . S
H441 C455 0.930 . S
H442 C434 0.930 . S
H443 C461 0.930 . S
H444 C452 0.929 . S
H445 C459 0.930 . S
H446 C423 0.931 . S
H447 C453 0.930 . S
H448 C486 0.930 . S
H449 C430 0.930 . S
H450 C485 0.931 . S
N451 Eu420 2.657 . S
N451 C452 1.334 . S
N451 C456 1.362 . S
C452 H444 0.929 . S
C452 N451 1.334 . S
C452 C455 1.413 . S
C453 H447 0.930 . S
C453 C454 1.392 . S
C453 C455 1.367 . S
C454 C453 1.392 . S
C454 C456 1.420 . S
C454 C486 1.423 . S
C455 H441 0.930 . S
C455 C452 1.413 . S
C455 C453 1.367 . S
C456 N451 1.362 . S
C456 C454 1.420 . S
C456 C460 1.429 . S
H457 C462 0.930 . S
N458 Eu420 2.609 . S
N458 C460 1.377 . S
N458 C461 1.321 . S
C459 H445 0.930 . S
C459 C461 1.400 . S
C459 C462 1.386 . S
C460 C456 1.429 . S
C460 N458 1.377 . S
C460 C463 1.411 . S
C461 H443 0.930 . S
C461 N458 1.321 . S
C461 C459 1.400 . S
C462 H457 0.930 . S
C462 C459 1.386 . S
C462 C463 1.395 . S
C463 C460 1.411 . S
C463 C462 1.395 . S
C463 C485 1.420 . S
O464 Eu420 2.558 . S
O464 C484 1.257 . S
O465 Eu420 2.612 . S
O465 Eu431 2.380 . S
O465 C476 1.276 . S
O466 Eu431 2.432 . S
O466 C483 1.264 . S
O467 Eu420 2.339 . S
O467 C483 1.254 . S
O468 Eu420 2.563 . S
O468 C476 1.235 . S
O469 Eu420 2.419 . S
O469 C484 1.249 . S
O470 Eu431 2.558 . S
O470 C495 1.257 . S
O471 Eu420 2.380 . S
O471 Eu431 2.612 . S
O471 C487 1.276 . S
O472 Eu420 2.432 . S
O472 C494 1.264 . S
O473 Eu431 2.339 . S
O473 C494 1.254 . S
O474 Eu431 2.563 . S
O474 C487 1.235 . S
O475 Eu431 2.419 . S
O475 C495 1.249 . S
C476 O465 1.276 . S
C476 O468 1.235 . S
C477 C479 1.393 . S
C477 C481 1.395 . S
C477 C484 1.492 . S
C478 C479 1.392 . S
C478 C480 1.386 . S
C479 C477 1.393 . S
C479 C478 1.392 . S
C479 H496 0.930 . S
C480 C478 1.386 . S
C480 C482 1.395 . S
C480 H497 0.930 . S
C481 C477 1.395 . S
C481 C482 1.379 . S
C481 H498 0.930 . S
C482 C480 1.395 . S
C482 C481 1.379 . S
C482 H499 0.930 . S
C483 O466 1.264 . S
C483 O467 1.254 . S
C484 Eu420 2.848 . S
C484 O464 1.257 . S
C484 O469 1.249 . S
C484 C477 1.492 . S
C485 H450 0.931 . S
C485 C463 1.420 . S
C485 C486 1.351 . S
C486 H448 0.930 . S
C486 C454 1.423 . S
C486 C485 1.351 . S
C487 O471 1.276 . S
C487 O474 1.235 . S
C488 C489 1.393 . S
C488 C492 1.395 . S
C488 C495 1.492 . S
C489 C488 1.393 . S
C489 C490 1.392 . S
C489 H500 0.930 . S
C490 C489 1.392 . S
C490 C491 1.386 . S
C491 C490 1.386 . S
C491 C493 1.395 . S
C491 H501 0.930 . S
C492 C488 1.395 . S
C492 C493 1.379 . S
C492 H502 0.930 . S
C493 C491 1.395 . S
C493 C492 1.379 . S
C493 H503 0.930 . S
C494 O472 1.264 . S
C494 O473 1.254 . S
C495 Eu431 2.848 . S
C495 O470 1.257 . S
C495 O475 1.249 . S
C495 C488 1.492 . S
H496 C479 0.930 . S
H497 C480 0.930 . S
H498 C481 0.930 . S
H499 C482 0.930 . S
H500 C489 0.930 . S
H501 C491 0.930 . S
H502 C492 0.930 . S
H503 C493 0.930 . S
Eu504 N535 2.657 . S
Eu504 N542 2.609 . S
Eu504 O548 2.558 . S
Eu504 O549 2.612 . S
Eu504 O551 2.339 . S
Eu504 O552 2.563 . S
Eu504 O553 2.419 . S
Eu504 O555 2.380 . S
Eu504 O556 2.432 . S
Eu504 C568 2.848 . S
C505 C508 1.429 . S
C505 C509 1.411 . S
C505 N512 1.377 . S
C506 C508 1.420 . S
C506 C510 1.423 . S
C506 C518 1.392 . S
C507 C509 1.420 . S
C507 C510 1.351 . S
C507 H530 0.931 . S
C508 C505 1.429 . S
C508 C506 1.420 . S
C508 N516 1.362 . S
C509 C505 1.411 . S
C509 C507 1.420 . S
C509 C514 1.395 . S
C510 C506 1.423 . S
C510 C507 1.351 . S
C510 H522 0.930 . S
C511 C513 1.400 . S
C511 C514 1.386 . S
C511 H523 0.930 . S
N512 C505 1.377 . S
N512 C513 1.321 . S
N512 Eu515 2.609 . S
C513 C511 1.400 . S
C513 N512 1.321 . S
C513 H520 0.930 . S
C514 C509 1.395 . S
C514 C511 1.386 . S
C514 H533 0.930 . S
Eu515 N512 2.609 . S
Eu515 N516 2.657 . S
Eu515 O549 2.380 . S
Eu515 O550 2.432 . S
Eu515 O554 2.558 . S
Eu515 O555 2.612 . S
Eu515 O557 2.339 . S
Eu515 O558 2.563 . S
Eu515 O559 2.419 . S
Eu515 C579 2.848 . S
N516 C508 1.362 . S
N516 Eu515 2.657 . S
N516 C517 1.334 . S
C517 N516 1.334 . S
C517 C519 1.413 . S
C517 H524 0.929 . S
C518 C506 1.392 . S
C518 C519 1.367 . S
C518 H526 0.930 . S
C519 C517 1.413 . S
C519 C518 1.367 . S
C519 H521 0.930 . S
H520 C513 0.930 . S
H521 C519 0.930 . S
H522 C510 0.930 . S
H523 C511 0.930 . S
H524 C517 0.929 . S
H525 C539 0.930 . S
H526 C518 0.930 . S
H527 C545 0.930 . S
H528 C536 0.929 . S
H529 C543 0.930 . S
H530 C507 0.931 . S
H531 C537 0.930 . S
H532 C570 0.930 . S
H533 C514 0.930 . S
H534 C569 0.931 . S
N535 Eu504 2.657 . S
N535 C536 1.334 . S
N535 C540 1.362 . S
C536 H528 0.929 . S
C536 N535 1.334 . S
C536 C539 1.413 . S
C537 H531 0.930 . S
C537 C538 1.392 . S
C537 C539 1.367 . S
C538 C537 1.392 . S
C538 C540 1.420 . S
C538 C570 1.423 . S
C539 H525 0.930 . S
C539 C536 1.413 . S
C539 C537 1.367 . S
C540 N535 1.362 . S
C540 C538 1.420 . S
C540 C544 1.429 . S
H541 C546 0.930 . S
N542 Eu504 2.609 . S
N542 C544 1.377 . S
N542 C545 1.321 . S
C543 H529 0.930 . S
C543 C545 1.400 . S
C543 C546 1.386 . S
C544 C540 1.429 . S
C544 N542 1.377 . S
C544 C547 1.411 . S
C545 H527 0.930 . S
C545 N542 1.321 . S
C545 C543 1.400 . S
C546 H541 0.930 . S
C546 C543 1.386 . S
C546 C547 1.395 . S
C547 C544 1.411 . S
C547 C546 1.395 . S
C547 C569 1.420 . S
O548 Eu504 2.558 . S
O548 C568 1.257 . S
O549 Eu504 2.612 . S
O549 Eu515 2.380 . S
O549 C560 1.276 . S
O550 Eu515 2.432 . S
O550 C567 1.264 . S
O551 Eu504 2.339 . S
O551 C567 1.254 . S
O552 Eu504 2.563 . S
O552 C560 1.235 . S
O553 Eu504 2.419 . S
O553 C568 1.249 . S
O554 Eu515 2.558 . S
O554 C579 1.257 . S
O555 Eu504 2.380 . S
O555 Eu515 2.612 . S
O555 C571 1.276 . S
O556 Eu504 2.432 . S
O556 C578 1.264 . S
O557 Eu515 2.339 . S
O557 C578 1.254 . S
O558 Eu515 2.563 . S
O558 C571 1.235 . S
O559 Eu515 2.419 . S
O559 C579 1.249 . S
C560 O549 1.276 . S
C560 O552 1.235 . S
C561 C563 1.393 . S
C561 C565 1.395 . S
C561 C568 1.492 . S
C562 C563 1.392 . S
C562 C564 1.386 . S
C563 C561 1.393 . S
C563 C562 1.392 . S
C563 H580 0.930 . S
C564 C562 1.386 . S
C564 C566 1.395 . S
C564 H581 0.930 . S
C565 C561 1.395 . S
C565 C566 1.379 . S
C565 H582 0.930 . S
C566 C564 1.395 . S
C566 C565 1.379 . S
C566 H583 0.930 . S
C567 O550 1.264 . S
C567 O551 1.254 . S
C568 Eu504 2.848 . S
C568 O548 1.257 . S
C568 O553 1.249 . S
C568 C561 1.492 . S
C569 H534 0.931 . S
C569 C547 1.420 . S
C569 C570 1.351 . S
C570 H532 0.930 . S
C570 C538 1.423 . S
C570 C569 1.351 . S
C571 O555 1.276 . S
C571 O558 1.235 . S
C572 C573 1.393 . S
C572 C576 1.395 . S
C572 C579 1.492 . S
C573 C572 1.393 . S
C573 C574 1.392 . S
C573 H584 0.930 . S
C574 C573 1.392 . S
C574 C575 1.386 . S
C575 C574 1.386 . S
C575 C577 1.395 . S
C575 H585 0.930 . S
C576 C572 1.395 . S
C576 C577 1.379 . S
C576 H586 0.930 . S
C577 C575 1.395 . S
C577 C576 1.379 . S
C577 H587 0.930 . S
C578 O556 1.264 . S
C578 O557 1.254 . S
C579 Eu515 2.848 . S
C579 O554 1.257 . S
C579 O559 1.249 . S
C579 C572 1.492 . S
H580 C563 0.930 . S
H581 C564 0.930 . S
H582 C565 0.930 . S
H583 C566 0.930 . S
H584 C573 0.930 . S
H585 C575 0.930 . S
H586 C576 0.930 . S
H587 C577 0.930 . S
Eu588 N619 2.657 . S
Eu588 N626 2.609 . S
Eu588 O632 2.558 . S
Eu588 O633 2.612 . S
Eu588 O635 2.339 . S
Eu588 O636 2.563 . S
Eu588 O637 2.419 . S
Eu588 O639 2.380 . S
Eu588 O640 2.432 . S
Eu588 C652 2.848 . S
C589 C592 1.429 . S
C589 C593 1.411 . S
C589 N596 1.377 . S
C590 C592 1.420 . S
C590 C594 1.423 . S
C590 C602 1.392 . S
C591 C593 1.420 . S
C591 C594 1.351 . S
C591 H614 0.931 . S
C592 C589 1.429 . S
C592 C590 1.420 . S
C592 N600 1.362 . S
C593 C589 1.411 . S
C593 C591 1.420 . S
C593 C598 1.395 . S
C594 C590 1.423 . S
C594 C591 1.351 . S
C594 H606 0.930 . S
C595 C597 1.400 . S
C595 C598 1.386 . S
C595 H607 0.930 . S
N596 C589 1.377 . S
N596 C597 1.321 . S
N596 Eu599 2.609 . S
C597 C595 1.400 . S
C597 N596 1.321 . S
C597 H604 0.930 . S
C598 C593 1.395 . S
C598 C595 1.386 . S
C598 H617 0.930 . S
Eu599 N596 2.609 . S
Eu599 N600 2.657 . S
Eu599 O633 2.380 . S
Eu599 O634 2.432 . S
Eu599 O638 2.558 . S
Eu599 O639 2.612 . S
Eu599 O641 2.339 . S
Eu599 O642 2.563 . S
Eu599 O643 2.419 . S
Eu599 C663 2.848 . S
N600 C592 1.362 . S
N600 Eu599 2.657 . S
N600 C601 1.334 . S
C601 N600 1.334 . S
C601 C603 1.413 . S
C601 H608 0.929 . S
C602 C590 1.392 . S
C602 C603 1.367 . S
C602 H610 0.930 . S
C603 C601 1.413 . S
C603 C602 1.367 . S
C603 H605 0.930 . S
H604 C597 0.930 . S
H605 C603 0.930 . S
H606 C594 0.930 . S
H607 C595 0.930 . S
H608 C601 0.929 . S
H609 C623 0.930 . S
H610 C602 0.930 . S
H611 C629 0.930 . S
H612 C620 0.929 . S
H613 C627 0.930 . S
H614 C591 0.931 . S
H615 C621 0.930 . S
H616 C654 0.930 . S
H617 C598 0.930 . S
H618 C653 0.931 . S
N619 Eu588 2.657 . S
N619 C620 1.334 . S
N619 C624 1.362 . S
C620 H612 0.929 . S
C620 N619 1.334 . S
C620 C623 1.413 . S
C621 H615 0.930 . S
C621 C622 1.392 . S
C621 C623 1.367 . S
C622 C621 1.392 . S
C622 C624 1.420 . S
C622 C654 1.423 . S
C623 H609 0.930 . S
C623 C620 1.413 . S
C623 C621 1.367 . S
C624 N619 1.362 . S
C624 C622 1.420 . S
C624 C628 1.429 . S
H625 C630 0.930 . S
N626 Eu588 2.609 . S
N626 C628 1.377 . S
N626 C629 1.321 . S
C627 H613 0.930 . S
C627 C629 1.400 . S
C627 C630 1.386 . S
C628 C624 1.429 . S
C628 N626 1.377 . S
C628 C631 1.411 . S
C629 H611 0.930 . S
C629 N626 1.321 . S
C629 C627 1.400 . S
C630 H625 0.930 . S
C630 C627 1.386 . S
C630 C631 1.395 . S
C631 C628 1.411 . S
C631 C630 1.395 . S
C631 C653 1.420 . S
O632 Eu588 2.558 . S
O632 C652 1.257 . S
O633 Eu588 2.612 . S
O633 Eu599 2.380 . S
O633 C644 1.276 . S
O634 Eu599 2.432 . S
O634 C651 1.264 . S
O635 Eu588 2.339 . S
O635 C651 1.254 . S
O636 Eu588 2.563 . S
O636 C644 1.235 . S
O637 Eu588 2.419 . S
O637 C652 1.249 . S
O638 Eu599 2.558 . S
O638 C663 1.257 . S
O639 Eu588 2.380 . S
O639 Eu599 2.612 . S
O639 C655 1.276 . S
O640 Eu588 2.432 . S
O640 C662 1.264 . S
O641 Eu599 2.339 . S
O641 C662 1.254 . S
O642 Eu599 2.563 . S
O642 C655 1.235 . S
O643 Eu599 2.419 . S
O643 C663 1.249 . S
C644 O633 1.276 . S
C644 O636 1.235 . S
C645 C647 1.393 . S
C645 C649 1.395 . S
C645 C652 1.492 . S
C646 C647 1.392 . S
C646 C648 1.386 . S
C647 C645 1.393 . S
C647 C646 1.392 . S
C647 H664 0.930 . S
C648 C646 1.386 . S
C648 C650 1.395 . S
C648 H665 0.930 . S
C649 C645 1.395 . S
C649 C650 1.379 . S
C649 H666 0.930 . S
C650 C648 1.395 . S
C650 C649 1.379 . S
C650 H667 0.930 . S
C651 O634 1.264 . S
C651 O635 1.254 . S
C652 Eu588 2.848 . S
C652 O632 1.257 . S
C652 O637 1.249 . S
C652 C645 1.492 . S
C653 H618 0.931 . S
C653 C631 1.420 . S
C653 C654 1.351 . S
C654 H616 0.930 . S
C654 C622 1.423 . S
C654 C653 1.351 . S
C655 O639 1.276 . S
C655 O642 1.235 . S
C656 C657 1.393 . S
C656 C660 1.395 . S
C656 C663 1.492 . S
C657 C656 1.393 . S
C657 C658 1.392 . S
C657 H668 0.930 . S
C658 C657 1.392 . S
C658 C659 1.386 . S
C659 C658 1.386 . S
C659 C661 1.395 . S
C659 H669 0.930 . S
C660 C656 1.395 . S
C660 C661 1.379 . S
C660 H670 0.930 . S
C661 C659 1.395 . S
C661 C660 1.379 . S
C661 H671 0.930 . S
C662 O640 1.264 . S
C662 O641 1.254 . S
C663 Eu599 2.848 . S
C663 O638 1.257 . S
C663 O643 1.249 . S
C663 C656 1.492 . S
H664 C647 0.930 . S
H665 C648 0.930 . S
H666 C649 0.930 . S
H667 C650 0.930 . S
H668 C657 0.930 . S
H669 C659 0.930 . S
H670 C660 0.930 . S
H671 C661 0.930 . S
Cd672 N675 2.334 1_655 S
Cd672 N701 2.304 1_565 S
Cd672 O708 2.268 . S
Cd672 O711 2.273 1_665 S
Cd672 O712 2.417 . S
Cd672 O713 2.330 . S
Cd673 N688 2.304 1_455 S
Cd673 N692 2.334 1_545 S
Cd673 O709 2.273 1_445 S
Cd673 O710 2.268 . S
Cd673 O714 2.417 . S
Cd673 O715 2.330 . S
C674 N675 1.332 . S
C674 C678 1.381 . S
C674 H680 0.931 . S
N675 Cd672 2.334 1_455 S
N675 C674 1.332 . S
N675 C679 1.328 . S
C676 C677 1.396 . S
C676 C679 1.378 . S
C676 H718 0.931 . S
C677 C676 1.396 . S
C677 C678 1.382 . S
C678 C674 1.381 . S
C678 C677 1.382 . S
C678 H719 0.930 . S
C679 N675 1.328 . S
C679 C676 1.378 . S
C679 H681 0.930 1_455 S
H680 C674 0.931 . S
H681 C679 0.930 1_655 S
C682 O708 1.238 . S
C682 O709 1.253 . S
C683 C684 1.379 . S
C683 N688 1.337 . S
C683 H689 0.929 . S
C684 C683 1.379 . S
C684 C685 1.380 . S
C684 H720 0.929 . S
C685 C684 1.380 . S
C685 C686 1.399 . S
C686 C685 1.399 . S
C686 C687 1.376 . S
C686 H721 0.931 . S
C687 C686 1.376 . S
C687 N688 1.338 . S
C687 H690 0.930 1_655 S
N688 Cd673 2.304 1_655 S
N688 C683 1.337 . S
N688 C687 1.338 . S
H689 C683 0.929 . S
H690 C687 0.930 1_455 S
C691 N692 1.332 . S
C691 C695 1.381 . S
C691 H697 0.931 . S
N692 Cd673 2.334 1_565 S
N692 C691 1.332 . S
N692 C696 1.328 . S
C693 C694 1.396 . S
C693 C696 1.378 . S
C693 H722 0.931 . S
C694 C693 1.396 . S
C694 C695 1.382 . S
C695 C691 1.381 . S
C695 C694 1.382 . S
C695 H723 0.930 . S
C696 N692 1.328 . S
C696 C693 1.378 . S
C696 H698 0.930 1_565 S
H697 C691 0.931 . S
H698 C696 0.930 1_545 S
C699 O710 1.238 . S
C699 O711 1.253 . S
C700 O712 1.239 . S
C700 O713 1.230 . S
N701 Cd672 2.304 1_545 S
N701 C702 1.337 . S
N701 C706 1.338 . S
C702 N701 1.337 . S
C702 C703 1.379 . S
C702 H716 0.929 . S
C703 C702 1.379 . S
C703 C704 1.380 . S
C703 H724 0.929 . S
C704 C703 1.380 . S
C704 C705 1.399 . S
C705 C704 1.399 . S
C705 C706 1.376 . S
C705 H725 0.931 . S
C706 N701 1.338 . S
C706 C705 1.376 . S
C706 H717 0.930 1_545 S
C707 O714 1.239 . S
C707 O715 1.230 . S
O708 Cd672 2.268 . S
O708 C682 1.238 . S
O709 Cd673 2.273 1_665 S
O709 C682 1.253 . S
O710 Cd673 2.268 . S
O710 C699 1.238 . S
O711 Cd672 2.273 1_445 S
O711 C699 1.253 . S
O712 Cd672 2.417 . S
O712 C700 1.239 . S
O713 Cd672 2.330 . S
O713 C700 1.230 . S
O714 Cd673 2.417 . S
O714 C707 1.239 . S
O715 Cd673 2.330 . S
O715 C707 1.230 . S
H716 C702 0.929 . S
H717 C706 0.930 1_565 S
H718 C676 0.931 . S
H719 C678 0.930 . S
H720 C684 0.929 . S
H721 C686 0.931 . S
H722 C693 0.931 . S
H723 C695 0.930 . S
H724 C703 0.929 . S
H725 C705 0.931 . S
Cd726 N729 2.334 . S
Cd726 N755 2.304 1_565 S
Cd726 O762 2.268 1_554 S
Cd726 O765 2.273 1_565 S
Cd726 O766 2.417 . S
Cd726 O767 2.330 . S
Cd727 N742 2.304 . S
Cd727 N746 2.334 1_545 S
Cd727 O763 2.273 1_545 S
Cd727 O764 2.268 1_556 S
Cd727 O768 2.417 . S
Cd727 O769 2.330 . S
C728 N729 1.332 . S
C728 C732 1.381 . S
C728 H734 0.931 . S
N729 Cd726 2.334 . S
N729 C728 1.332 . S
N729 C733 1.328 . S
C730 C731 1.396 . S
C730 C733 1.378 . S
C730 H772 0.931 . S
C731 C730 1.396 . S
C731 C732 1.382 . S
C732 C728 1.381 . S
C732 C731 1.382 . S
C732 H773 0.930 . S
C733 N729 1.328 . S
C733 C730 1.378 . S
C733 H735 0.929 . S
H734 C728 0.931 . S
H735 C733 0.929 . S
C736 O762 1.238 . S
C736 O763 1.253 . S
C737 C738 1.379 . S
C737 N742 1.337 . S
C737 H743 0.929 . S
C738 C737 1.379 . S
C738 C739 1.380 . S
C738 H774 0.929 . S
C739 C738 1.380 . S
C739 C740 1.399 . S
C740 C739 1.399 . S
C740 C741 1.376 . S
C740 H775 0.949 . S
C741 C740 1.376 . S
C741 N742 1.338 . S
C741 H744 0.930 1_556 S
N742 Cd727 2.304 . S
N742 C737 1.337 . S
N742 C741 1.338 . S
H743 C737 0.929 . S
H744 C741 0.930 1_554 S
C745 N746 1.332 . S
C745 C749 1.381 . S
C745 H751 0.931 . S
N746 Cd727 2.334 1_565 S
N746 C745 1.332 . S
N746 C750 1.328 . S
C747 C748 1.396 . S
C747 C750 1.378 . S
C747 H776 0.931 1_556 S
C748 C747 1.396 . S
C748 C749 1.382 . S
C749 C745 1.381 . S
C749 C748 1.382 . S
C749 H777 0.930 . S
C750 N746 1.328 . S
C750 C747 1.378 . S
C750 H752 0.930 1_566 S
H751 C745 0.931 . S
H752 C750 0.930 1_544 S
C753 O764 1.238 . S
C753 O765 1.253 . S
C754 O766 1.239 . S
C754 O767 1.230 . S
N755 Cd726 2.304 1_545 S
N755 C756 1.337 . S
N755 C760 1.338 . S
C756 N755 1.337 . S
C756 C757 1.379 . S
C756 H770 0.929 . S
C757 C756 1.379 . S
C757 C758 1.380 . S
C757 H778 0.929 . S
C758 C757 1.380 . S
C758 C759 1.399 . S
C759 C758 1.399 . S
C759 C760 1.376 . S
C759 H779 0.931 1_554 S
C760 N755 1.338 . S
C760 C759 1.376 . S
C760 H771 0.930 1_544 S
C761 O768 1.239 . S
C761 O769 1.230 . S
O762 Cd726 2.268 1_556 S
O762 C736 1.238 . S
O763 Cd727 2.273 1_565 S
O763 C736 1.253 . S
O764 Cd727 2.268 1_554 S
O764 C753 1.238 . S
O765 Cd726 2.273 1_545 S
O765 C753 1.253 . S
O766 Cd726 2.417 . S
O766 C754 1.239 . S
O767 Cd726 2.330 . S
O767 C754 1.230 . S
O768 Cd727 2.417 . S
O768 C761 1.239 . S
O769 Cd727 2.330 . S
O769 C761 1.230 . S
H770 C756 0.929 . S
H771 C760 0.930 1_566 S
H772 C730 0.931 . S
H773 C732 0.930 . S
H774 C738 0.929 . S
H775 C740 0.949 . S
H776 C747 0.931 1_554 S
H777 C749 0.930 . S
H778 C757 0.929 . S
H779 C759 0.931 1_556 S
Cd780 N783 2.334 1_655 S
Cd780 N809 2.304 . S
Cd780 O816 2.268 1_554 S
Cd780 O819 2.273 1_655 S
Cd780 O820 2.417 . S
Cd780 O821 2.330 . S
Cd781 N796 2.304 1_455 S
Cd781 N800 2.334 . S
Cd781 O817 2.273 1_455 S
Cd781 O818 2.268 1_556 S
Cd781 O822 2.417 . S
Cd781 O823 2.330 . S
C782 N783 1.332 . S
C782 C786 1.381 . S
C782 H788 0.931 . S
N783 Cd780 2.334 1_455 S
N783 C782 1.332 . S
N783 C787 1.328 . S
C784 C785 1.396 . S
C784 C787 1.378 . S
C784 H826 0.931 . S
C785 C784 1.396 . S
C785 C786 1.382 . S
C786 C782 1.381 . S
C786 C785 1.382 . S
C786 H827 0.930 . S
C787 N783 1.328 . S
C787 C784 1.378 . S
C787 H789 0.929 1_455 S
H788 C782 0.931 . S
H789 C787 0.929 1_655 S
C790 O816 1.238 . S
C790 O817 1.253 . S
C791 C792 1.379 . S
C791 N796 1.337 . S
C791 H797 0.929 . S
C792 C791 1.379 . S
C792 C793 1.380 . S
C792 H828 0.929 . S
C793 C792 1.380 . S
C793 C794 1.399 . S
C794 C793 1.399 . S
C794 C795 1.376 . S
C794 H829 0.950 . S
C795 C794 1.376 . S
C795 N796 1.338 . S
C795 H798 0.930 1_656 S
N796 Cd781 2.304 1_655 S
N796 C791 1.337 . S
N796 C795 1.338 . S
H797 C791 0.929 . S
H798 C795 0.930 1_454 S
C799 N800 1.332 . S
C799 C803 1.381 . S
C799 H805 0.931 . S
N800 Cd781 2.334 . S
N800 C799 1.332 . S
N800 C804 1.328 . S
C801 C802 1.396 . S
C801 C804 1.378 . S
C801 H830 0.931 1_556 S
C802 C801 1.396 . S
C802 C803 1.382 . S
C803 C799 1.381 . S
C803 C802 1.382 . S
C803 H831 0.930 . S
C804 N800 1.328 . S
C804 C801 1.378 . S
C804 H806 0.930 1_556 S
H805 C799 0.931 . S
H806 C804 0.930 1_554 S
C807 O818 1.238 . S
C807 O819 1.253 . S
C808 O820 1.239 . S
C808 O821 1.230 . S
N809 Cd780 2.304 . S
N809 C810 1.337 . S
N809 C814 1.338 . S
C810 N809 1.337 . S
C810 C811 1.379 . S
C810 H824 0.929 . S
C811 C810 1.379 . S
C811 C812 1.380 . S
C811 H832 0.929 . S
C812 C811 1.380 . S
C812 C813 1.399 . S
C813 C812 1.399 . S
C813 C814 1.376 . S
C813 H833 0.931 1_554 S
C814 N809 1.338 . S
C814 C813 1.376 . S
C814 H825 0.930 1_554 S
C815 O822 1.239 . S
C815 O823 1.230 . S
O816 Cd780 2.268 1_556 S
O816 C790 1.238 . S
O817 Cd781 2.273 1_655 S
O817 C790 1.253 . S
O818 Cd781 2.268 1_554 S
O818 C807 1.238 . S
O819 Cd780 2.273 1_455 S
O819 C807 1.253 . S
O820 Cd780 2.417 . S
O820 C808 1.239 . S
O821 Cd780 2.330 . S
O821 C808 1.230 . S
O822 Cd781 2.417 . S
O822 C815 1.239 . S
O823 Cd781 2.330 . S
O823 C815 1.230 . S
H824 C810 0.929 . S
H825 C814 0.930 1_556 S
H826 C784 0.931 . S
H827 C786 0.930 . S
H828 C792 0.929 . S
H829 C794 0.950 . S
H830 C801 0.931 1_554 S
H831 C803 0.930 . S
H832 C811 0.929 . S
H833 C813 0.931 1_556 S
Cd834 N837 2.334 . S
Cd834 N863 2.304 . S
Cd834 O870 2.268 1_554 S
Cd834 O873 2.273 . S
Cd834 O874 2.417 . S
Cd834 O875 2.330 . S
Cd835 N850 2.304 . S
Cd835 N854 2.334 . S
Cd835 O871 2.273 . S
Cd835 O872 2.268 1_556 S
Cd835 O876 2.417 . S
Cd835 O877 2.330 . S
C836 N837 1.332 . S
C836 C840 1.381 . S
C836 H842 0.931 . S
N837 Cd834 2.334 . S
N837 C836 1.332 . S
N837 C841 1.328 . S
C838 C839 1.396 . S
C838 C841 1.378 . S
C838 H880 0.931 . S
C839 C838 1.396 . S
C839 C840 1.382 . S
C840 C836 1.381 . S
C840 C839 1.382 . S
C840 H881 0.930 . S
C841 N837 1.328 . S
C841 C838 1.378 . S
C841 H843 0.928 . S
H842 C836 0.931 . S
H843 C841 0.928 . S
C844 O870 1.238 . S
C844 O871 1.253 . S
C845 C846 1.379 . S
C845 N850 1.337 . S
C845 H851 0.929 . S
C846 C845 1.379 . S
C846 C847 1.380 . S
C846 H882 0.929 . S
C847 C846 1.380 . S
C847 C848 1.399 . S
C848 C847 1.399 . S
C848 C849 1.376 . S
C848 H883 0.950 . S
C849 C848 1.376 . S
C849 N850 1.338 . S
C849 H852 0.930 1_556 S
N850 Cd835 2.304 . S
N850 C845 1.337 . S
N850 C849 1.338 . S
H851 C845 0.929 . S
H852 C849 0.930 1_554 S
C853 N854 1.332 . S
C853 C857 1.381 . S
C853 H859 0.931 . S
N854 Cd835 2.334 . S
N854 C853 1.332 . S
N854 C858 1.328 . S
C855 C856 1.396 . S
C855 C858 1.378 . S
C855 H884 0.931 1_556 S
C856 C855 1.396 . S
C856 C857 1.382 . S
C857 C853 1.381 . S
C857 C856 1.382 . S
C857 H885 0.930 . S
C858 N854 1.328 . S
C858 C855 1.378 . S
C858 H860 0.930 1_556 S
H859 C853 0.931 . S
H860 C858 0.930 1_554 S
C861 O872 1.238 . S
C861 O873 1.253 . S
C862 O874 1.239 . S
C862 O875 1.230 . S
N863 Cd834 2.304 . S
N863 C864 1.337 . S
N863 C868 1.338 . S
C864 N863 1.337 . S
C864 C865 1.379 . S
C864 H878 0.929 . S
C865 C864 1.379 . S
C865 C866 1.380 . S
C865 H886 0.929 . S
C866 C865 1.380 . S
C866 C867 1.399 . S
C867 C866 1.399 . S
C867 C868 1.376 . S
C867 H887 0.931 1_554 S
C868 N863 1.338 . S
C868 C867 1.376 . S
C868 H879 0.930 1_554 S
C869 O876 1.239 . S
C869 O877 1.230 . S
O870 Cd834 2.268 1_556 S
O870 C844 1.238 . S
O871 Cd835 2.273 . S
O871 C844 1.253 . S
O872 Cd835 2.268 1_554 S
O872 C861 1.238 . S
O873 Cd834 2.273 . S
O873 C861 1.253 . S
O874 Cd834 2.417 . S
O874 C862 1.239 . S
O875 Cd834 2.330 . S
O875 C862 1.230 . S
O876 Cd835 2.417 . S
O876 C869 1.239 . S
O877 Cd835 2.330 . S
O877 C869 1.230 . S
H878 C864 0.929 . S
H879 C868 0.930 1_556 S
H880 C838 0.931 . S
H881 C840 0.930 . S
H882 C846 0.929 . S
H883 C848 0.950 . S
H884 C855 0.931 1_554 S
H885 C857 0.930 . S
H886 C865 0.929 . S
H887 C867 0.931 1_556 S
Cd888 N891 2.334 1_655 S
Cd888 N917 2.304 . S
Cd888 O924 2.268 . S
Cd888 O927 2.273 1_655 S
Cd888 O928 2.417 . S
Cd888 O929 2.330 . S
Cd889 N904 2.304 1_455 S
Cd889 N908 2.334 . S
Cd889 O925 2.273 1_455 S
Cd889 O926 2.268 . S
Cd889 O930 2.417 . S
Cd889 O931 2.330 . S
C890 N891 1.332 . S
C890 C894 1.381 . S
C890 H896 0.931 . S
N891 Cd888 2.334 1_455 S
N891 C890 1.332 . S
N891 C895 1.328 . S
C892 C893 1.396 . S
C892 C895 1.378 . S
C892 H934 0.931 . S
C893 C892 1.396 . S
C893 C894 1.382 . S
C894 C890 1.381 . S
C894 C893 1.382 . S
C894 H935 0.930 . S
C895 N891 1.328 . S
C895 C892 1.378 . S
C895 H897 0.930 1_455 S
H896 C890 0.931 . S
H897 C895 0.930 1_655 S
C898 O924 1.238 . S
C898 O925 1.253 . S
C899 C900 1.379 . S
C899 N904 1.337 . S
C899 H905 0.929 . S
C900 C899 1.379 . S
C900 C901 1.380 . S
C900 H936 0.929 . S
C901 C900 1.380 . S
C901 C902 1.399 . S
C902 C901 1.399 . S
C902 C903 1.376 . S
C902 H937 0.931 . S
C903 C902 1.376 . S
C903 N904 1.338 . S
C903 H906 0.930 1_655 S
N904 Cd889 2.304 1_655 S
N904 C899 1.337 . S
N904 C903 1.338 . S
H905 C899 0.929 . S
H906 C903 0.930 1_455 S
C907 N908 1.332 . S
C907 C911 1.381 . S
C907 H913 0.931 . S
N908 Cd889 2.334 . S
N908 C907 1.332 . S
N908 C912 1.328 . S
C909 C910 1.396 . S
C909 C912 1.378 . S
C909 H938 0.931 . S
C910 C909 1.396 . S
C910 C911 1.382 . S
C911 C907 1.381 . S
C911 C910 1.382 . S
C911 H939 0.930 . S
C912 N908 1.328 . S
C912 C909 1.378 . S
C912 H914 0.930 . S
H913 C907 0.931 . S
H914 C912 0.930 . S
C915 O926 1.238 . S
C915 O927 1.253 . S
C916 O928 1.239 . S
C916 O929 1.230 . S
N917 Cd888 2.304 . S
N917 C918 1.337 . S
N917 C922 1.338 . S
C918 N917 1.337 . S
C918 C919 1.379 . S
C918 H932 0.929 . S
C919 C918 1.379 . S
C919 C920 1.380 . S
C919 H940 0.929 . S
C920 C919 1.380 . S
C920 C921 1.399 . S
C921 C920 1.399 . S
C921 C922 1.376 . S
C921 H941 0.931 . S
C922 N917 1.338 . S
C922 C921 1.376 . S
C922 H933 0.930 . S
C923 O930 1.239 . S
C923 O931 1.230 . S
O924 Cd888 2.268 . S
O924 C898 1.238 . S
O925 Cd889 2.273 1_655 S
O925 C898 1.253 . S
O926 Cd889 2.268 . S
O926 C915 1.238 . S
O927 Cd888 2.273 1_455 S
O927 C915 1.253 . S
O928 Cd888 2.417 . S
O928 C916 1.239 . S
O929 Cd888 2.330 . S
O929 C916 1.230 . S
O930 Cd889 2.417 . S
O930 C923 1.239 . S
O931 Cd889 2.330 . S
O931 C923 1.230 . S
H932 C918 0.929 . S
H933 C922 0.930 . S
H934 C892 0.931 . S
H935 C894 0.930 . S
H936 C900 0.929 . S
H937 C902 0.931 . S
H938 C909 0.931 . S
H939 C911 0.930 . S
H940 C919 0.929 . S
H941 C921 0.931 . S
Cd942 N945 2.334 . S
Cd942 N971 2.304 1_565 S
Cd942 O978 2.268 . S
Cd942 O981 2.273 1_565 S
Cd942 O982 2.417 . S
Cd942 O983 2.330 . S
Cd943 N958 2.304 . S
Cd943 N962 2.334 1_545 S
Cd943 O979 2.273 1_545 S
Cd943 O980 2.268 . S
Cd943 O984 2.417 . S
Cd943 O985 2.330 . S
C944 N945 1.332 . S
C944 C948 1.381 . S
C944 H950 0.931 . S
N945 Cd942 2.334 . S
N945 C944 1.332 . S
N945 C949 1.328 . S
C946 C947 1.396 . S
C946 C949 1.378 . S
C946 H988 0.931 . S
C947 C946 1.396 . S
C947 C948 1.382 . S
C948 C944 1.381 . S
C948 C947 1.382 . S
C948 H989 0.930 . S
C949 N945 1.328 . S
C949 C946 1.378 . S
C949 H951 0.930 . S
H950 C944 0.931 . S
H951 C949 0.930 . S
C952 O978 1.238 . S
C952 O979 1.253 . S
C953 C954 1.379 . S
C953 N958 1.337 . S
C953 H959 0.929 . S
C954 C953 1.379 . S
C954 C955 1.380 . S
C954 H990 0.929 . S
C955 C954 1.380 . S
C955 C956 1.399 . S
C956 C955 1.399 . S
C956 C957 1.376 . S
C956 H991 0.931 . S
C957 C956 1.376 . S
C957 N958 1.338 . S
C957 H960 0.930 . S
N958 Cd943 2.304 . S
N958 C953 1.337 . S
N958 C957 1.338 . S
H959 C953 0.929 . S
H960 C957 0.930 . S
C961 N962 1.332 . S
C961 C965 1.381 . S
C961 H967 0.931 . S
N962 Cd943 2.334 1_565 S
N962 C961 1.332 . S
N962 C966 1.328 . S
C963 C964 1.396 . S
C963 C966 1.378 . S
C963 H992 0.931 . S
C964 C963 1.396 . S
C964 C965 1.382 . S
C965 C961 1.381 . S
C965 C964 1.382 . S
C965 H993 0.930 . S
C966 N962 1.328 . S
C966 C963 1.378 . S
C966 H968 0.930 1_565 S
H967 C961 0.931 . S
H968 C966 0.930 1_545 S
C969 O980 1.238 . S
C969 O981 1.253 . S
C970 O982 1.239 . S
C970 O983 1.230 . S
N971 Cd942 2.304 1_545 S
N971 C972 1.337 . S
N971 C976 1.338 . S
C972 N971 1.337 . S
C972 C973 1.379 . S
C972 H986 0.929 . S
C973 C972 1.379 . S
C973 C974 1.380 . S
C973 H994 0.929 . S
C974 C973 1.380 . S
C974 C975 1.399 . S
C975 C974 1.399 . S
C975 C976 1.376 . S
C975 H995 0.931 . S
C976 N971 1.338 . S
C976 C975 1.376 . S
C976 H987 0.930 1_545 S
C977 O984 1.239 . S
C977 O985 1.230 . S
O978 Cd942 2.268 . S
O978 C952 1.238 . S
O979 Cd943 2.273 1_565 S
O979 C952 1.253 . S
O980 Cd943 2.268 . S
O980 C969 1.238 . S
O981 Cd942 2.273 1_545 S
O981 C969 1.253 . S
O982 Cd942 2.417 . S
O982 C970 1.239 . S
O983 Cd942 2.330 . S
O983 C970 1.230 . S
O984 Cd943 2.417 . S
O984 C977 1.239 . S
O985 Cd943 2.330 . S
O985 C977 1.230 . S
H986 C972 0.929 . S
H987 C976 0.930 1_565 S
H988 C946 0.931 . S
H989 C948 0.930 . S
H990 C954 0.929 . S
H991 C956 0.931 . S
H992 C963 0.931 . S
H993 C965 0.930 . S
H994 C973 0.929 . S
H995 C975 0.931 . S
H996 C1004 0.950 . S
H997 C1009 0.950 . S
H998 C1006 0.950 . S
H999 C1008 0.950 . S
H1000 C1010 0.950 . S
H1001 C1012 0.950 . S
H1002 C1014 0.950 . S
H1003 C1015 0.950 . S
C1004 H996 0.950 . S
C1004 C1005 1.386 . S
C1004 C1006 1.391 . S
C1005 C1004 1.386 . S
C1005 C1009 1.393 . S
C1006 H998 0.950 . S
C1006 C1004 1.391 . S
C1006 C1007 1.400 . S
C1007 C1006 1.400 . S
C1007 C1008 1.398 . S
C1007 C1013 1.491 . S
C1008 H999 0.950 . S
C1008 C1007 1.398 . S
C1008 C1009 1.391 . S
C1009 H997 0.950 . S
C1009 C1005 1.393 . S
C1009 C1008 1.391 . S
C1010 H1000 0.950 . S
C1010 C1011 1.386 . S
C1010 C1012 1.391 . S
C1011 C1010 1.386 . S
C1011 C1015 1.393 . S
C1012 H1001 0.950 . S
C1012 C1010 1.391 . S
C1012 C1013 1.400 . S
C1013 C1007 1.491 . S
C1013 C1012 1.400 . S
C1013 C1014 1.398 . S
C1014 H1002 0.950 . S
C1014 C1013 1.398 . S
C1014 C1015 1.391 . S
C1015 H1003 0.950 . S
C1015 C1011 1.393 . S
C1015 C1014 1.391 . S
H1016 C1024 0.950 . S
H1017 C1029 0.950 . S
H1018 C1026 0.950 . S
H1019 C1028 0.950 . S
H1020 C1030 0.950 . S
H1021 C1032 0.950 . S
H1022 C1034 0.950 . S
H1023 C1035 0.950 . S
C1024 H1016 0.950 . S
C1024 C1025 1.386 . S
C1024 C1026 1.391 . S
C1025 C1024 1.386 . S
C1025 C1029 1.393 . S
C1026 H1018 0.950 . S
C1026 C1024 1.391 . S
C1026 C1027 1.400 . S
C1027 C1026 1.400 . S
C1027 C1028 1.398 . S
C1027 C1033 1.491 . S
C1028 H1019 0.950 . S
C1028 C1027 1.398 . S
C1028 C1029 1.391 . S
C1029 H1017 0.950 . S
C1029 C1025 1.393 . S
C1029 C1028 1.391 . S
C1030 H1020 0.950 . S
C1030 C1031 1.386 . S
C1030 C1032 1.391 . S
C1031 C1030 1.386 . S
C1031 C1035 1.393 . S
C1032 H1021 0.950 . S
C1032 C1030 1.391 . S
C1032 C1033 1.400 . S
C1033 C1027 1.491 . S
C1033 C1032 1.400 . S
C1033 C1034 1.398 . S
C1034 H1022 0.950 . S
C1034 C1033 1.398 . S
C1034 C1035 1.391 . S
C1035 H1023 0.950 . S
C1035 C1031 1.393 . S
C1035 C1034 1.391 . S
H1036 C1044 0.950 . S
H1037 C1049 0.950 . S
H1038 C1046 0.950 . S
H1039 C1048 0.950 . S
H1040 C1050 0.950 . S
H1041 C1052 0.950 . S
H1042 C1054 0.950 . S
H1043 C1055 0.950 . S
C1044 H1036 0.950 . S
C1044 C1045 1.386 . S
C1044 C1046 1.391 . S
C1045 C1044 1.386 . S
C1045 C1049 1.393 . S
C1046 H1038 0.950 . S
C1046 C1044 1.391 . S
C1046 C1047 1.400 . S
C1047 C1046 1.400 . S
C1047 C1048 1.398 . S
C1047 C1053 1.491 . S
C1048 H1039 0.950 . S
C1048 C1047 1.398 . S
C1048 C1049 1.391 . S
C1049 H1037 0.950 . S
C1049 C1045 1.393 . S
C1049 C1048 1.391 . S
C1050 H1040 0.950 . S
C1050 C1051 1.386 . S
C1050 C1052 1.391 . S
C1051 C1050 1.386 . S
C1051 C1055 1.393 . S
C1052 H1041 0.950 . S
C1052 C1050 1.391 . S
C1052 C1053 1.400 . S
C1053 C1047 1.491 . S
C1053 C1052 1.400 . S
C1053 C1054 1.398 . S
C1054 H1042 0.950 . S
C1054 C1053 1.398 . S
C1054 C1055 1.391 . S
C1055 H1043 0.950 . S
C1055 C1051 1.393 . S
C1055 C1054 1.391 . S
H1056 C1064 0.950 . S
H1057 C1069 0.950 . S
H1058 C1066 0.950 . S
H1059 C1068 0.950 . S
H1060 C1070 0.950 . S
H1061 C1072 0.950 . S
H1062 C1074 0.950 . S
H1063 C1075 0.950 . S
C1064 H1056 0.950 . S
C1064 C1065 1.386 . S
C1064 C1066 1.391 . S
C1065 C1064 1.386 . S
C1065 C1069 1.393 . S
C1066 H1058 0.950 . S
C1066 C1064 1.391 . S
C1066 C1067 1.400 . S
C1067 C1066 1.400 . S
C1067 C1068 1.398 . S
C1067 C1073 1.491 . S
C1068 H1059 0.950 . S
C1068 C1067 1.398 . S
C1068 C1069 1.391 . S
C1069 H1057 0.950 . S
C1069 C1065 1.393 . S
C1069 C1068 1.391 . S
C1070 H1060 0.950 . S
C1070 C1071 1.386 . S
C1070 C1072 1.391 . S
C1071 C1070 1.386 . S
C1071 C1075 1.393 . S
C1072 H1061 0.950 . S
C1072 C1070 1.391 . S
C1072 C1073 1.400 . S
C1073 C1067 1.491 . S
C1073 C1072 1.400 . S
C1073 C1074 1.398 . S
C1074 H1062 0.950 . S
C1074 C1073 1.398 . S
C1074 C1075 1.391 . S
C1075 H1063 0.950 . S
C1075 C1071 1.393 . S
C1075 C1074 1.391 . S
H1076 C1084 0.950 . S
H1077 C1089 0.950 . S
H1078 C1086 0.950 . S
H1079 C1088 0.950 . S
H1080 C1090 0.950 . S
H1081 C1092 0.950 . S
H1082 C1094 0.950 . S
H1083 C1095 0.950 . S
C1084 H1076 0.950 . S
C1084 C1085 1.386 . S
C1084 C1086 1.391 . S
C1085 C1084 1.386 . S
C1085 C1089 1.393 . S
C1086 H1078 0.950 . S
C1086 C1084 1.391 . S
C1086 C1087 1.400 . S
C1087 C1086 1.400 . S
C1087 C1088 1.398 . S
C1087 C1093 1.491 . S
C1088 H1079 0.950 . S
C1088 C1087 1.398 . S
C1088 C1089 1.391 . S
C1089 H1077 0.950 . S
C1089 C1085 1.393 . S
C1089 C1088 1.391 . S
C1090 H1080 0.950 . S
C1090 C1091 1.386 . S
C1090 C1092 1.391 . S
C1091 C1090 1.386 . S
C1091 C1095 1.393 . S
C1092 H1081 0.950 . S
C1092 C1090 1.391 . S
C1092 C1093 1.400 . S
C1093 C1087 1.491 . S
C1093 C1092 1.400 . S
C1093 C1094 1.398 . S
C1094 H1082 0.950 . S
C1094 C1093 1.398 . S
C1094 C1095 1.391 . S
C1095 H1083 0.950 . S
C1095 C1091 1.393 . S
C1095 C1094 1.391 . S
H1096 C1104 0.950 . S
H1097 C1109 0.950 . S
H1098 C1106 0.950 . S
H1099 C1108 0.950 . S
H1100 C1110 0.950 . S
H1101 C1112 0.950 . S
H1102 C1114 0.950 . S
H1103 C1115 0.950 . S
C1104 H1096 0.950 . S
C1104 C1105 1.386 . S
C1104 C1106 1.391 . S
C1105 C1104 1.386 . S
C1105 C1109 1.393 . S
C1106 H1098 0.950 . S
C1106 C1104 1.391 . S
C1106 C1107 1.400 . S
C1107 C1106 1.400 . S
C1107 C1108 1.398 . S
C1107 C1113 1.491 . S
C1108 H1099 0.950 . S
C1108 C1107 1.398 . S
C1108 C1109 1.391 . S
C1109 H1097 0.950 . S
C1109 C1105 1.393 . S
C1109 C1108 1.391 . S
C1110 H1100 0.950 . S
C1110 C1111 1.386 . S
C1110 C1112 1.391 . S
C1111 C1110 1.386 . S
C1111 C1115 1.393 . S
C1112 H1101 0.950 . S
C1112 C1110 1.391 . S
C1112 C1113 1.400 . S
C1113 C1107 1.491 . S
C1113 C1112 1.400 . S
C1113 C1114 1.398 . S
C1114 H1102 0.950 . S
C1114 C1113 1.398 . S
C1114 C1115 1.391 . S
C1115 H1103 0.950 . S
C1115 C1111 1.393 . S
C1115 C1114 1.391 . S
H1116 C1124 0.950 . S
H1117 C1129 0.950 . S
H1118 C1126 0.950 . S
H1119 C1128 0.950 . S
H1120 C1130 0.950 . S
H1121 C1132 0.950 . S
H1122 C1134 0.950 . S
H1123 C1135 0.950 . S
C1124 H1116 0.950 . S
C1124 C1125 1.386 . S
C1124 C1126 1.391 . S
C1125 C1124 1.386 . S
C1125 C1129 1.393 . S
C1126 H1118 0.950 . S
C1126 C1124 1.391 . S
C1126 C1127 1.400 . S
C1127 C1126 1.400 . S
C1127 C1128 1.398 . S
C1127 C1133 1.491 . S
C1128 H1119 0.950 . S
C1128 C1127 1.398 . S
C1128 C1129 1.391 . S
C1129 H1117 0.950 . S
C1129 C1125 1.393 . S
C1129 C1128 1.391 . S
C1130 H1120 0.950 . S
C1130 C1131 1.386 . S
C1130 C1132 1.391 . S
C1131 C1130 1.386 . S
C1131 C1135 1.393 . S
C1132 H1121 0.950 . S
C1132 C1130 1.391 . S
C1132 C1133 1.400 . S
C1133 C1127 1.491 . S
C1133 C1132 1.400 . S
C1133 C1134 1.398 . S
C1134 H1122 0.950 . S
C1134 C1133 1.398 . S
C1134 C1135 1.391 . S
C1135 H1123 0.950 . S
C1135 C1131 1.393 . S
C1135 C1134 1.391 . S
H1136 C1144 0.950 . S
H1137 C1149 0.950 . S
H1138 C1146 0.950 . S
H1139 C1148 0.950 . S
H1140 C1150 0.950 . S
H1141 C1152 0.950 . S
H1142 C1154 0.950 . S
H1143 C1155 0.950 . S
C1144 H1136 0.950 . S
C1144 C1145 1.386 . S
C1144 C1146 1.391 . S
C1145 C1144 1.386 . S
C1145 C1149 1.393 . S
C1146 H1138 0.950 . S
C1146 C1144 1.391 . S
C1146 C1147 1.400 . S
C1147 C1146 1.400 . S
C1147 C1148 1.398 . S
C1147 C1153 1.491 . S
C1148 H1139 0.950 . S
C1148 C1147 1.398 . S
C1148 C1149 1.391 . S
C1149 H1137 0.950 . S
C1149 C1145 1.393 . S
C1149 C1148 1.391 . S
C1150 H1140 0.950 . S
C1150 C1151 1.386 . S
C1150 C1152 1.391 . S
C1151 C1150 1.386 . S
C1151 C1155 1.393 . S
C1152 H1141 0.950 . S
C1152 C1150 1.391 . S
C1152 C1153 1.400 . S
C1153 C1147 1.491 . S
C1153 C1152 1.400 . S
C1153 C1154 1.398 . S
C1154 H1142 0.950 . S
C1154 C1153 1.398 . S
C1154 C1155 1.391 . S
C1155 H1143 0.950 . S
C1155 C1151 1.393 . S
C1155 C1154 1.391 . S
H1156 C1164 0.950 . S
H1157 C1169 0.950 . S
H1158 C1166 0.950 . S
H1159 C1168 0.950 . S
H1160 C1170 0.950 . S
H1161 C1172 0.950 . S
H1162 C1174 0.950 . S
H1163 C1175 0.950 . S
C1164 H1156 0.950 . S
C1164 C1165 1.386 . S
C1164 C1166 1.391 . S
C1165 C1164 1.386 . S
C1165 C1169 1.393 . S
C1166 H1158 0.950 . S
C1166 C1164 1.391 . S
C1166 C1167 1.400 . S
C1167 C1166 1.400 . S
C1167 C1168 1.398 . S
C1167 C1173 1.491 . S
C1168 H1159 0.950 . S
C1168 C1167 1.398 . S
C1168 C1169 1.391 . S
C1169 H1157 0.950 . S
C1169 C1165 1.393 . S
C1169 C1168 1.391 . S
C1170 H1160 0.950 . S
C1170 C1171 1.386 . S
C1170 C1172 1.391 . S
C1171 C1170 1.386 . S
C1171 C1175 1.393 . S
C1172 H1161 0.950 . S
C1172 C1170 1.391 . S
C1172 C1173 1.400 . S
C1173 C1167 1.491 . S
C1173 C1172 1.400 . S
C1173 C1174 1.398 . S
C1174 H1162 0.950 . S
C1174 C1173 1.398 . S
C1174 C1175 1.391 . S
C1175 H1163 0.950 . S
C1175 C1171 1.393 . S
C1175 C1174 1.391 . S
H1176 C1184 0.950 . S
H1177 C1189 0.950 . S
H1178 C1186 0.950 . S
H1179 C1188 0.950 . S
H1180 C1190 0.950 . S
H1181 C1192 0.950 . S
H1182 C1194 0.950 . S
H1183 C1195 0.950 . S
C1184 H1176 0.950 . S
C1184 C1185 1.386 . S
C1184 C1186 1.391 . S
C1185 C1184 1.386 . S
C1185 C1189 1.393 . S
C1186 H1178 0.950 . S
C1186 C1184 1.391 . S
C1186 C1187 1.400 . S
C1187 C1186 1.400 . S
C1187 C1188 1.398 . S
C1187 C1193 1.491 . S
C1188 H1179 0.950 . S
C1188 C1187 1.398 . S
C1188 C1189 1.391 . S
C1189 H1177 0.950 . S
C1189 C1185 1.393 . S
C1189 C1188 1.391 . S
C1190 H1180 0.950 . S
C1190 C1191 1.386 . S
C1190 C1192 1.391 . S
C1191 C1190 1.386 . S
C1191 C1195 1.393 . S
C1192 H1181 0.950 . S
C1192 C1190 1.391 . S
C1192 C1193 1.400 . S
C1193 C1187 1.491 . S
C1193 C1192 1.400 . S
C1193 C1194 1.398 . S
C1194 H1182 0.950 . S
C1194 C1193 1.398 . S
C1194 C1195 1.391 . S
C1195 H1183 0.950 . S
C1195 C1191 1.393 . S
C1195 C1194 1.391 . S
H1196 C1204 0.950 . S
H1197 C1209 0.950 . S
H1198 C1206 0.950 . S
H1199 C1208 0.950 . S
H1200 C1210 0.950 . S
H1201 C1212 0.950 . S
H1202 C1214 0.950 . S
H1203 C1215 0.950 . S
C1204 H1196 0.950 . S
C1204 C1205 1.386 . S
C1204 C1206 1.391 . S
C1205 C1204 1.386 . S
C1205 C1209 1.393 . S
C1206 H1198 0.950 . S
C1206 C1204 1.391 . S
C1206 C1207 1.400 . S
C1207 C1206 1.400 . S
C1207 C1208 1.398 . S
C1207 C1213 1.491 . S
C1208 H1199 0.950 . S
C1208 C1207 1.398 . S
C1208 C1209 1.391 . S
C1209 H1197 0.950 . S
C1209 C1205 1.393 . S
C1209 C1208 1.391 . S
C1210 H1200 0.950 . S
C1210 C1211 1.386 . S
C1210 C1212 1.391 . S
C1211 C1210 1.386 . S
C1211 C1215 1.393 . S
C1212 H1201 0.950 . S
C1212 C1210 1.391 . S
C1212 C1213 1.400 . S
C1213 C1207 1.491 . S
C1213 C1212 1.400 . S
C1213 C1214 1.398 . S
C1214 H1202 0.950 . S
C1214 C1213 1.398 . S
C1214 C1215 1.391 . S
C1215 H1203 0.950 . S
C1215 C1211 1.393 . S
C1215 C1214 1.391 . S
H1216 C1224 0.950 . S
H1217 C1229 0.950 . S
H1218 C1226 0.950 . S
H1219 C1228 0.950 . S
H1220 C1230 0.950 . S
H1221 C1232 0.950 . S
H1222 C1234 0.950 . S
H1223 C1235 0.950 . S
C1224 H1216 0.950 . S
C1224 C1225 1.386 . S
C1224 C1226 1.391 . S
C1225 C1224 1.386 . S
C1225 C1229 1.393 . S
C1226 H1218 0.950 . S
C1226 C1224 1.391 . S
C1226 C1227 1.400 . S
C1227 C1226 1.400 . S
C1227 C1228 1.398 . S
C1227 C1233 1.491 . S
C1228 H1219 0.950 . S
C1228 C1227 1.398 . S
C1228 C1229 1.391 . S
C1229 H1217 0.950 . S
C1229 C1225 1.393 . S
C1229 C1228 1.391 . S
C1230 H1220 0.950 . S
C1230 C1231 1.386 . S
C1230 C1232 1.391 . S
C1231 C1230 1.386 . S
C1231 C1235 1.393 . S
C1232 H1221 0.950 . S
C1232 C1230 1.391 . S
C1232 C1233 1.400 . S
C1233 C1227 1.491 . S
C1233 C1232 1.400 . S
C1233 C1234 1.398 . S
C1234 H1222 0.950 . S
C1234 C1233 1.398 . S
C1234 C1235 1.391 . S
C1235 H1223 0.950 . S
C1235 C1231 1.393 . S
C1235 C1234 1.391 . S
H1236 C1244 0.950 . S
H1237 C1249 0.950 . S
H1238 C1246 0.950 . S
H1239 C1248 0.950 . S
H1240 C1250 0.950 . S
H1241 C1252 0.950 . S
H1242 C1254 0.950 . S
H1243 C1255 0.950 . S
C1244 H1236 0.950 . S
C1244 C1245 1.386 . S
C1244 C1246 1.391 . S
C1245 C1244 1.386 . S
C1245 C1249 1.393 . S
C1246 H1238 0.950 . S
C1246 C1244 1.391 . S
C1246 C1247 1.400 . S
C1247 C1246 1.400 . S
C1247 C1248 1.398 . S
C1247 C1253 1.491 . S
C1248 H1239 0.950 . S
C1248 C1247 1.398 . S
C1248 C1249 1.391 . S
C1249 H1237 0.950 . S
C1249 C1245 1.393 . S
C1249 C1248 1.391 . S
C1250 H1240 0.950 . S
C1250 C1251 1.386 . S
C1250 C1252 1.391 . S
C1251 C1250 1.386 . S
C1251 C1255 1.393 . S
C1252 H1241 0.950 . S
C1252 C1250 1.391 . S
C1252 C1253 1.400 . S
C1253 C1247 1.491 . S
C1253 C1252 1.400 . S
C1253 C1254 1.398 . S
C1254 H1242 0.950 . S
C1254 C1253 1.398 . S
C1254 C1255 1.391 . S
C1255 H1243 0.950 . S
C1255 C1251 1.393 . S
C1255 C1254 1.391 . S
H1256 C1264 0.950 . S
H1257 C1269 0.950 . S
H1258 C1266 0.950 . S
H1259 C1268 0.950 . S
H1260 C1270 0.950 . S
H1261 C1272 0.950 . S
H1262 C1274 0.950 . S
H1263 C1275 0.950 . S
C1264 H1256 0.950 . S
C1264 C1265 1.386 . S
C1264 C1266 1.391 . S
C1265 C1264 1.386 . S
C1265 C1269 1.393 . S
C1266 H1258 0.950 . S
C1266 C1264 1.391 . S
C1266 C1267 1.400 . S
C1267 C1266 1.400 . S
C1267 C1268 1.398 . S
C1267 C1273 1.491 . S
C1268 H1259 0.950 . S
C1268 C1267 1.398 . S
C1268 C1269 1.391 . S
C1269 H1257 0.950 . S
C1269 C1265 1.393 . S
C1269 C1268 1.391 . S
C1270 H1260 0.950 . S
C1270 C1271 1.386 . S
C1270 C1272 1.391 . S
C1271 C1270 1.386 . S
C1271 C1275 1.393 . S
C1272 H1261 0.950 . S
C1272 C1270 1.391 . S
C1272 C1273 1.400 . S
C1273 C1267 1.491 . S
C1273 C1272 1.400 . S
C1273 C1274 1.398 . S
C1274 H1262 0.950 . S
C1274 C1273 1.398 . S
C1274 C1275 1.391 . S
C1275 H1263 0.950 . S
C1275 C1271 1.393 . S
C1275 C1274 1.391 . S
H1276 C1284 0.950 . S
H1277 C1289 0.950 . S
H1278 C1286 0.950 . S
H1279 C1288 0.950 . S
H1280 C1290 0.950 . S
H1281 C1292 0.950 . S
H1282 C1294 0.950 . S
H1283 C1295 0.950 . S
C1284 H1276 0.950 . S
C1284 C1285 1.386 . S
C1284 C1286 1.391 . S
C1285 C1284 1.386 . S
C1285 C1289 1.393 . S
C1286 H1278 0.950 . S
C1286 C1284 1.391 . S
C1286 C1287 1.400 . S
C1287 C1286 1.400 . S
C1287 C1288 1.398 . S
C1287 C1293 1.491 . S
C1288 H1279 0.950 . S
C1288 C1287 1.398 . S
C1288 C1289 1.391 . S
C1289 H1277 0.950 . S
C1289 C1285 1.393 . S
C1289 C1288 1.391 . S
C1290 H1280 0.950 . S
C1290 C1291 1.386 . S
C1290 C1292 1.391 . S
C1291 C1290 1.386 . S
C1291 C1295 1.393 . S
C1292 H1281 0.950 . S
C1292 C1290 1.391 . S
C1292 C1293 1.400 . S
C1293 C1287 1.491 . S
C1293 C1292 1.400 . S
C1293 C1294 1.398 . S
C1294 H1282 0.950 . S
C1294 C1293 1.398 . S
C1294 C1295 1.391 . S
C1295 H1283 0.950 . S
C1295 C1291 1.393 . S
C1295 C1294 1.391 . S
H1296 C1304 0.950 . S
H1297 C1309 0.950 . S
H1298 C1306 0.950 . S
H1299 C1308 0.950 . S
H1300 C1310 0.950 . S
H1301 C1312 0.950 . S
H1302 C1314 0.950 . S
H1303 C1315 0.950 . S
C1304 H1296 0.950 . S
C1304 C1305 1.386 . S
C1304 C1306 1.391 . S
C1305 C1304 1.386 . S
C1305 C1309 1.393 . S
C1306 H1298 0.950 . S
C1306 C1304 1.391 . S
C1306 C1307 1.400 . S
C1307 C1306 1.400 . S
C1307 C1308 1.398 . S
C1307 C1313 1.491 . S
C1308 H1299 0.950 . S
C1308 C1307 1.398 . S
C1308 C1309 1.391 . S
C1309 H1297 0.950 . S
C1309 C1305 1.393 . S
C1309 C1308 1.391 . S
C1310 H1300 0.950 . S
C1310 C1311 1.386 . S
C1310 C1312 1.391 . S
C1311 C1310 1.386 . S
C1311 C1315 1.393 . S
C1312 H1301 0.950 . S
C1312 C1310 1.391 . S
C1312 C1313 1.400 . S
C1313 C1307 1.491 . S
C1313 C1312 1.400 . S
C1313 C1314 1.398 . S
C1314 H1302 0.950 . S
C1314 C1313 1.398 . S
C1314 C1315 1.391 . S
C1315 H1303 0.950 . S
C1315 C1311 1.393 . S
C1315 C1314 1.391 . S
H1316 C1324 0.950 . S
H1317 C1329 0.950 . S
H1318 C1326 0.950 . S
H1319 C1328 0.950 . S
H1320 C1330 0.950 . S
H1321 C1332 0.950 . S
H1322 C1334 0.950 . S
H1323 C1335 0.950 . S
C1324 H1316 0.950 . S
C1324 C1325 1.386 . S
C1324 C1326 1.391 . S
C1325 C1324 1.386 . S
C1325 C1329 1.393 . S
C1326 H1318 0.950 . S
C1326 C1324 1.391 . S
C1326 C1327 1.400 . S
C1327 C1326 1.400 . S
C1327 C1328 1.398 . S
C1327 C1333 1.491 . S
C1328 H1319 0.950 . S
C1328 C1327 1.398 . S
C1328 C1329 1.391 . S
C1329 H1317 0.950 . S
C1329 C1325 1.393 . S
C1329 C1328 1.391 . S
C1330 H1320 0.950 . S
C1330 C1331 1.386 . S
C1330 C1332 1.391 . S
C1331 C1330 1.386 . S
C1331 C1335 1.393 . S
C1332 H1321 0.950 . S
C1332 C1330 1.391 . S
C1332 C1333 1.400 . S
C1333 C1327 1.491 . S
C1333 C1332 1.400 . S
C1333 C1334 1.398 . S
C1334 H1322 0.950 . S
C1334 C1333 1.398 . S
C1334 C1335 1.391 . S
C1335 H1323 0.950 . S
C1335 C1331 1.393 . S
C1335 C1334 1.391 . S
H1336 C1344 0.950 . S
H1337 C1349 0.950 . S
H1338 C1346 0.950 . S
H1339 C1348 0.950 . S
H1340 C1350 0.950 . S
H1341 C1352 0.950 . S
H1342 C1354 0.950 . S
H1343 C1355 0.950 . S
C1344 H1336 0.950 . S
C1344 C1345 1.386 . S
C1344 C1346 1.391 . S
C1345 C1344 1.386 . S
C1345 C1349 1.393 . S
C1346 H1338 0.950 . S
C1346 C1344 1.391 . S
C1346 C1347 1.400 . S
C1347 C1346 1.400 . S
C1347 C1348 1.398 . S
C1347 C1353 1.491 . S
C1348 H1339 0.950 . S
C1348 C1347 1.398 . S
C1348 C1349 1.391 . S
C1349 H1337 0.950 . S
C1349 C1345 1.393 . S
C1349 C1348 1.391 . S
C1350 H1340 0.950 . S
C1350 C1351 1.386 . S
C1350 C1352 1.391 . S
C1351 C1350 1.386 . S
C1351 C1355 1.393 . S
C1352 H1341 0.950 . S
C1352 C1350 1.391 . S
C1352 C1353 1.400 . S
C1353 C1347 1.491 . S
C1353 C1352 1.400 . S
C1353 C1354 1.398 . S
C1354 H1342 0.950 . S
C1354 C1353 1.398 . S
C1354 C1355 1.391 . S
C1355 H1343 0.950 . S
C1355 C1351 1.393 . S
C1355 C1354 1.391 . S
H1356 C1364 0.950 . S
H1357 C1369 0.950 . S
H1358 C1366 0.950 . S
H1359 C1368 0.950 . S
H1360 C1370 0.950 . S
H1361 C1372 0.950 . S
H1362 C1374 0.950 . S
H1363 C1375 0.950 . S
C1364 H1356 0.950 . S
C1364 C1365 1.386 . S
C1364 C1366 1.391 . S
C1365 C1364 1.386 . S
C1365 C1369 1.393 . S
C1366 H1358 0.950 . S
C1366 C1364 1.391 . S
C1366 C1367 1.400 . S
C1367 C1366 1.400 . S
C1367 C1368 1.398 . S
C1367 C1373 1.491 . S
C1368 H1359 0.950 . S
C1368 C1367 1.398 . S
C1368 C1369 1.391 . S
C1369 H1357 0.950 . S
C1369 C1365 1.393 . S
C1369 C1368 1.391 . S
C1370 H1360 0.950 . S
C1370 C1371 1.386 . S
C1370 C1372 1.391 . S
C1371 C1370 1.386 . S
C1371 C1375 1.393 . S
C1372 H1361 0.950 . S
C1372 C1370 1.391 . S
C1372 C1373 1.400 . S
C1373 C1367 1.491 . S
C1373 C1372 1.400 . S
C1373 C1374 1.398 . S
C1374 H1362 0.950 . S
C1374 C1373 1.398 . S
C1374 C1375 1.391 . S
C1375 H1363 0.950 . S
C1375 C1371 1.393 . S
C1375 C1374 1.391 . S
H1376 C1384 0.950 . S
H1377 C1389 0.950 . S
H1378 C1386 0.950 . S
H1379 C1388 0.950 . S
H1380 C1390 0.950 . S
H1381 C1392 0.950 . S
H1382 C1394 0.950 . S
H1383 C1395 0.950 . S
C1384 H1376 0.950 . S
C1384 C1385 1.386 . S
C1384 C1386 1.391 . S
C1385 C1384 1.386 . S
C1385 C1389 1.393 . S
C1386 H1378 0.950 . S
C1386 C1384 1.391 . S
C1386 C1387 1.400 . S
C1387 C1386 1.400 . S
C1387 C1388 1.398 . S
C1387 C1393 1.491 . S
C1388 H1379 0.950 . S
C1388 C1387 1.398 . S
C1388 C1389 1.391 . S
C1389 H1377 0.950 . S
C1389 C1385 1.393 . S
C1389 C1388 1.391 . S
C1390 H1380 0.950 . S
C1390 C1391 1.386 . S
C1390 C1392 1.391 . S
C1391 C1390 1.386 . S
C1391 C1395 1.393 . S
C1392 H1381 0.950 . S
C1392 C1390 1.391 . S
C1392 C1393 1.400 . S
C1393 C1387 1.491 . S
C1393 C1392 1.400 . S
C1393 C1394 1.398 . S
C1394 H1382 0.950 . S
C1394 C1393 1.398 . S
C1394 C1395 1.391 . S
C1395 H1383 0.950 . S
C1395 C1391 1.393 . S
C1395 C1394 1.391 . S
H1396 C1404 0.950 . S
H1397 C1409 0.950 . S
H1398 C1406 0.950 . S
H1399 C1408 0.950 . S
H1400 C1410 0.950 . S
H1401 C1412 0.950 . S
H1402 C1414 0.950 . S
H1403 C1415 0.950 . S
C1404 H1396 0.950 . S
C1404 C1405 1.386 . S
C1404 C1406 1.391 . S
C1405 C1404 1.386 . S
C1405 C1409 1.393 . S
C1406 H1398 0.950 . S
C1406 C1404 1.391 . S
C1406 C1407 1.400 . S
C1407 C1406 1.400 . S
C1407 C1408 1.398 . S
C1407 C1413 1.491 . S
C1408 H1399 0.950 . S
C1408 C1407 1.398 . S
C1408 C1409 1.391 . S
C1409 H1397 0.950 . S
C1409 C1405 1.393 . S
C1409 C1408 1.391 . S
C1410 H1400 0.950 . S
C1410 C1411 1.386 . S
C1410 C1412 1.391 . S
C1411 C1410 1.386 . S
C1411 C1415 1.393 . S
C1412 H1401 0.950 . S
C1412 C1410 1.391 . S
C1412 C1413 1.400 . S
C1413 C1407 1.491 . S
C1413 C1412 1.400 . S
C1413 C1414 1.398 . S
C1414 H1402 0.950 . S
C1414 C1413 1.398 . S
C1414 C1415 1.391 . S
C1415 H1403 0.950 . S
C1415 C1411 1.393 . S
C1415 C1414 1.391 . S
H1416 C1424 0.950 . S
H1417 C1429 0.950 . S
H1418 C1426 0.950 . S
H1419 C1428 0.950 . S
H1420 C1430 0.950 . S
H1421 C1432 0.950 . S
H1422 C1434 0.950 . S
H1423 C1435 0.950 . S
C1424 H1416 0.950 . S
C1424 C1425 1.386 . S
C1424 C1426 1.391 . S
C1425 C1424 1.386 . S
C1425 C1429 1.393 . S
C1426 H1418 0.950 . S
C1426 C1424 1.391 . S
C1426 C1427 1.400 . S
C1427 C1426 1.400 . S
C1427 C1428 1.398 . S
C1427 C1433 1.491 . S
C1428 H1419 0.950 . S
C1428 C1427 1.398 . S
C1428 C1429 1.391 . S
C1429 H1417 0.950 . S
C1429 C1425 1.393 . S
C1429 C1428 1.391 . S
C1430 H1420 0.950 . S
C1430 C1431 1.386 . S
C1430 C1432 1.391 . S
C1431 C1430 1.386 . S
C1431 C1435 1.393 . S
C1432 H1421 0.950 . S
C1432 C1430 1.391 . S
C1432 C1433 1.400 . S
C1433 C1427 1.491 . S
C1433 C1432 1.400 . S
C1433 C1434 1.398 . S
C1434 H1422 0.950 . S
C1434 C1433 1.398 . S
C1434 C1435 1.391 . S
C1435 H1423 0.950 . S
C1435 C1431 1.393 . S
C1435 C1434 1.391 . S
H1436 C1444 0.950 . S
H1437 C1449 0.950 . S
H1438 C1446 0.950 . S
H1439 C1448 0.950 . S
H1440 C1450 0.950 . S
H1441 C1452 0.950 . S
H1442 C1454 0.950 . S
H1443 C1455 0.950 . S
C1444 H1436 0.950 . S
C1444 C1445 1.386 . S
C1444 C1446 1.391 . S
C1445 C1444 1.386 . S
C1445 C1449 1.393 . S
C1446 H1438 0.950 . S
C1446 C1444 1.391 . S
C1446 C1447 1.400 . S
C1447 C1446 1.400 . S
C1447 C1448 1.398 . S
C1447 C1453 1.491 . S
C1448 H1439 0.950 . S
C1448 C1447 1.398 . S
C1448 C1449 1.391 . S
C1449 H1437 0.950 . S
C1449 C1445 1.393 . S
C1449 C1448 1.391 . S
C1450 H1440 0.950 . S
C1450 C1451 1.386 . S
C1450 C1452 1.391 . S
C1451 C1450 1.386 . S
C1451 C1455 1.393 . S
C1452 H1441 0.950 . S
C1452 C1450 1.391 . S
C1452 C1453 1.400 . S
C1453 C1447 1.491 . S
C1453 C1452 1.400 . S
C1453 C1454 1.398 . S
C1454 H1442 0.950 . S
C1454 C1453 1.398 . S
C1454 C1455 1.391 . S
C1455 H1443 0.950 . S
C1455 C1451 1.393 . S
C1455 C1454 1.391 . S
H1456 C1464 0.950 . S
H1457 C1469 0.950 . S
H1458 C1466 0.950 . S
H1459 C1468 0.950 . S
H1460 C1470 0.950 . S
H1461 C1472 0.950 . S
H1462 C1474 0.950 . S
H1463 C1475 0.950 . S
C1464 H1456 0.950 . S
C1464 C1465 1.386 . S
C1464 C1466 1.391 . S
C1465 C1464 1.386 . S
C1465 C1469 1.393 . S
C1466 H1458 0.950 . S
C1466 C1464 1.391 . S
C1466 C1467 1.400 . S
C1467 C1466 1.400 . S
C1467 C1468 1.398 . S
C1467 C1473 1.491 . S
C1468 H1459 0.950 . S
C1468 C1467 1.398 . S
C1468 C1469 1.391 . S
C1469 H1457 0.950 . S
C1469 C1465 1.393 . S
C1469 C1468 1.391 . S
C1470 H1460 0.950 . S
C1470 C1471 1.386 . S
C1470 C1472 1.391 . S
C1471 C1470 1.386 . S
C1471 C1475 1.393 . S
C1472 H1461 0.950 . S
C1472 C1470 1.391 . S
C1472 C1473 1.400 . S
C1473 C1467 1.491 . S
C1473 C1472 1.400 . S
C1473 C1474 1.398 . S
C1474 H1462 0.950 . S
C1474 C1473 1.398 . S
C1474 C1475 1.391 . S
C1475 H1463 0.950 . S
C1475 C1471 1.393 . S
C1475 C1474 1.391 . S
H1476 C1484 0.950 . S
H1477 C1489 0.950 . S
H1478 C1486 0.950 . S
H1479 C1488 0.950 . S
H1480 C1490 0.950 . S
H1481 C1492 0.950 . S
H1482 C1494 0.950 . S
H1483 C1495 0.950 . S
C1484 H1476 0.950 . S
C1484 C1485 1.386 . S
C1484 C1486 1.391 . S
C1485 C1484 1.386 . S
C1485 C1489 1.393 . S
C1486 H1478 0.950 . S
C1486 C1484 1.391 . S
C1486 C1487 1.400 . S
C1487 C1486 1.400 . S
C1487 C1488 1.398 . S
C1487 C1493 1.491 . S
C1488 H1479 0.950 . S
C1488 C1487 1.398 . S
C1488 C1489 1.391 . S
C1489 H1477 0.950 . S
C1489 C1485 1.393 . S
C1489 C1488 1.391 . S
C1490 H1480 0.950 . S
C1490 C1491 1.386 . S
C1490 C1492 1.391 . S
C1491 C1490 1.386 . S
C1491 C1495 1.393 . S
C1492 H1481 0.950 . S
C1492 C1490 1.391 . S
C1492 C1493 1.400 . S
C1493 C1487 1.491 . S
C1493 C1492 1.400 . S
C1493 C1494 1.398 . S
C1494 H1482 0.950 . S
C1494 C1493 1.398 . S
C1494 C1495 1.391 . S
C1495 H1483 0.950 . S
C1495 C1491 1.393 . S
C1495 C1494 1.391 . S
H1496 C1504 0.950 . S
H1497 C1509 0.950 . S
H1498 C1506 0.950 . S
H1499 C1508 0.950 . S
H1500 C1510 0.950 1_554 S
H1501 C1512 0.950 . S
H1502 C1514 0.950 . S
H1503 C1515 0.950 . S
C1504 H1496 0.950 . S
C1504 C1505 1.386 . S
C1504 C1506 1.391 . S
C1505 C1504 1.386 . S
C1505 C1509 1.393 . S
C1506 H1498 0.950 . S
C1506 C1504 1.391 . S
C1506 C1507 1.400 . S
C1507 C1506 1.400 . S
C1507 C1508 1.398 . S
C1507 C1513 1.491 . S
C1508 H1499 0.950 . S
C1508 C1507 1.398 . S
C1508 C1509 1.391 . S
C1509 H1497 0.950 . S
C1509 C1505 1.393 . S
C1509 C1508 1.391 . S
C1510 H1500 0.950 1_556 S
C1510 C1511 1.386 . S
C1510 C1512 1.391 . S
C1511 C1510 1.386 . S
C1511 C1515 1.393 . S
C1512 H1501 0.950 . S
C1512 C1510 1.391 . S
C1512 C1513 1.400 . S
C1513 C1507 1.491 . S
C1513 C1512 1.400 . S
C1513 C1514 1.398 . S
C1514 H1502 0.950 . S
C1514 C1513 1.398 . S
C1514 C1515 1.391 . S
C1515 H1503 0.950 . S
C1515 C1511 1.393 . S
C1515 C1514 1.391 . S
H1516 C1524 0.950 . S
H1517 C1529 0.950 . S
H1518 C1526 0.950 . S
H1519 C1528 0.950 . S
H1520 C1530 0.950 . S
H1521 C1532 0.950 . S
H1522 C1534 0.950 . S
H1523 C1535 0.950 . S
C1524 H1516 0.950 . S
C1524 C1525 1.386 . S
C1524 C1526 1.391 . S
C1525 C1524 1.386 . S
C1525 C1529 1.393 . S
C1526 H1518 0.950 . S
C1526 C1524 1.391 . S
C1526 C1527 1.400 . S
C1527 C1526 1.400 . S
C1527 C1528 1.398 . S
C1527 C1533 1.491 . S
C1528 H1519 0.950 . S
C1528 C1527 1.398 . S
C1528 C1529 1.391 . S
C1529 H1517 0.950 . S
C1529 C1525 1.393 . S
C1529 C1528 1.391 . S
C1530 H1520 0.950 . S
C1530 C1531 1.386 . S
C1530 C1532 1.391 . S
C1531 C1530 1.386 . S
C1531 C1535 1.393 . S
C1532 H1521 0.950 . S
C1532 C1530 1.391 . S
C1532 C1533 1.400 . S
C1533 C1527 1.491 . S
C1533 C1532 1.400 . S
C1533 C1534 1.398 . S
C1534 H1522 0.950 . S
C1534 C1533 1.398 . S
C1534 C1535 1.391 . S
C1535 H1523 0.950 . S
C1535 C1531 1.393 . S
C1535 C1534 1.391 . S
H1536 C1544 0.950 . S
H1537 C1549 0.950 . S
H1538 C1546 0.950 . S
H1539 C1548 0.950 . S
H1540 C1550 0.950 . S
H1541 C1552 0.950 . S
H1542 C1554 0.950 . S
H1543 C1555 0.950 . S
C1544 H1536 0.950 . S
C1544 C1545 1.386 . S
C1544 C1546 1.391 . S
C1545 C1544 1.386 . S
C1545 C1549 1.393 . S
C1546 H1538 0.950 . S
C1546 C1544 1.391 . S
C1546 C1547 1.400 . S
C1547 C1546 1.400 . S
C1547 C1548 1.398 . S
C1547 C1553 1.491 . S
C1548 H1539 0.950 . S
C1548 C1547 1.398 . S
C1548 C1549 1.391 . S
C1549 H1537 0.950 . S
C1549 C1545 1.393 . S
C1549 C1548 1.391 . S
C1550 H1540 0.950 . S
C1550 C1551 1.386 . S
C1550 C1552 1.391 . S
C1551 C1550 1.386 . S
C1551 C1555 1.393 . S
C1552 H1541 0.950 . S
C1552 C1550 1.391 . S
C1552 C1553 1.400 . S
C1553 C1547 1.491 . S
C1553 C1552 1.400 . S
C1553 C1554 1.398 . S
C1554 H1542 0.950 . S
C1554 C1553 1.398 . S
C1554 C1555 1.391 . S
C1555 H1543 0.950 . S
C1555 C1551 1.393 . S
C1555 C1554 1.391 . S
H1556 C1564 0.950 . S
H1557 C1569 0.950 . S
H1558 C1566 0.950 . S
H1559 C1568 0.950 . S
H1560 C1570 0.950 . S
H1561 C1572 0.950 . S
H1562 C1574 0.950 . S
H1563 C1575 0.950 . S
C1564 H1556 0.950 . S
C1564 C1565 1.386 . S
C1564 C1566 1.391 . S
C1565 C1564 1.386 . S
C1565 C1569 1.393 . S
C1566 H1558 0.950 . S
C1566 C1564 1.391 . S
C1566 C1567 1.400 . S
C1567 C1566 1.400 . S
C1567 C1568 1.398 . S
C1567 C1573 1.491 . S
C1568 H1559 0.950 . S
C1568 C1567 1.398 . S
C1568 C1569 1.391 . S
C1569 H1557 0.950 . S
C1569 C1565 1.393 . S
C1569 C1568 1.391 . S
C1570 H1560 0.950 . S
C1570 C1571 1.386 . S
C1570 C1572 1.391 . S
C1571 C1570 1.386 . S
C1571 C1575 1.393 . S
C1572 H1561 0.950 . S
C1572 C1570 1.391 . S
C1572 C1573 1.400 . S
C1573 C1567 1.491 . S
C1573 C1572 1.400 . S
C1573 C1574 1.398 . S
C1574 H1562 0.950 . S
C1574 C1573 1.398 . S
C1574 C1575 1.391 . S
C1575 H1563 0.950 . S
C1575 C1571 1.393 . S
C1575 C1574 1.391 . S
H1576 C1584 0.950 . S
H1577 C1589 0.950 . S
H1578 C1586 0.950 . S
H1579 C1588 0.950 . S
H1580 C1590 0.950 . S
H1581 C1592 0.950 . S
H1582 C1594 0.950 . S
H1583 C1595 0.950 . S
C1584 H1576 0.950 . S
C1584 C1585 1.386 . S
C1584 C1586 1.391 . S
C1585 C1584 1.386 . S
C1585 C1589 1.393 . S
C1586 H1578 0.950 . S
C1586 C1584 1.391 . S
C1586 C1587 1.400 . S
C1587 C1586 1.400 . S
C1587 C1588 1.398 . S
C1587 C1593 1.491 . S
C1588 H1579 0.950 . S
C1588 C1587 1.398 . S
C1588 C1589 1.391 . S
C1589 H1577 0.950 . S
C1589 C1585 1.393 . S
C1589 C1588 1.391 . S
C1590 H1580 0.950 . S
C1590 C1591 1.386 . S
C1590 C1592 1.391 . S
C1591 C1590 1.386 . S
C1591 C1595 1.393 . S
C1592 H1581 0.950 . S
C1592 C1590 1.391 . S
C1592 C1593 1.400 . S
C1593 C1587 1.491 . S
C1593 C1592 1.400 . S
C1593 C1594 1.398 . S
C1594 H1582 0.950 . S
C1594 C1593 1.398 . S
C1594 C1595 1.391 . S
C1595 H1583 0.950 . S
C1595 C1591 1.393 . S
C1595 C1594 1.391 . S
H1596 C1604 0.950 . S
H1597 C1609 0.950 . S
H1598 C1606 0.950 . S
H1599 C1608 0.950 . S
H1600 C1610 0.950 . S
H1601 C1612 0.950 . S
H1602 C1614 0.950 . S
H1603 C1615 0.950 . S
C1604 H1596 0.950 . S
C1604 C1605 1.386 . S
C1604 C1606 1.391 . S
C1605 C1604 1.386 . S
C1605 C1609 1.393 . S
C1606 H1598 0.950 . S
C1606 C1604 1.391 . S
C1606 C1607 1.400 . S
C1607 C1606 1.400 . S
C1607 C1608 1.398 . S
C1607 C1613 1.491 . S
C1608 H1599 0.950 . S
C1608 C1607 1.398 . S
C1608 C1609 1.391 . S
C1609 H1597 0.950 . S
C1609 C1605 1.393 . S
C1609 C1608 1.391 . S
C1610 H1600 0.950 . S
C1610 C1611 1.386 . S
C1610 C1612 1.391 . S
C1611 C1610 1.386 . S
C1611 C1615 1.393 . S
C1612 H1601 0.950 . S
C1612 C1610 1.391 . S
C1612 C1613 1.400 . S
C1613 C1607 1.491 . S
C1613 C1612 1.400 . S
C1613 C1614 1.398 . S
C1614 H1602 0.950 . S
C1614 C1613 1.398 . S
C1614 C1615 1.391 . S
C1615 H1603 0.950 . S
C1615 C1611 1.393 . S
C1615 C1614 1.391 . S
H1616 C1624 0.950 . S
H1617 C1629 0.950 . S
H1618 C1626 0.950 . S
H1619 C1628 0.950 . S
H1620 C1630 0.950 . S
H1621 C1632 0.950 . S
H1622 C1634 0.950 . S
H1623 C1635 0.950 . S
C1624 H1616 0.950 . S
C1624 C1625 1.386 . S
C1624 C1626 1.391 . S
C1625 C1624 1.386 . S
C1625 C1629 1.393 . S
C1626 H1618 0.950 . S
C1626 C1624 1.391 . S
C1626 C1627 1.400 . S
C1627 C1626 1.400 . S
C1627 C1628 1.398 . S
C1627 C1633 1.491 . S
C1628 H1619 0.950 . S
C1628 C1627 1.398 . S
C1628 C1629 1.391 . S
C1629 H1617 0.950 . S
C1629 C1625 1.393 . S
C1629 C1628 1.391 . S
C1630 H1620 0.950 . S
C1630 C1631 1.386 . S
C1630 C1632 1.391 . S
C1631 C1630 1.386 . S
C1631 C1635 1.393 . S
C1632 H1621 0.950 . S
C1632 C1630 1.391 . S
C1632 C1633 1.400 . S
C1633 C1627 1.491 . S
C1633 C1632 1.400 . S
C1633 C1634 1.398 . S
C1634 H1622 0.950 . S
C1634 C1633 1.398 . S
C1634 C1635 1.391 . S
C1635 H1623 0.950 . S
C1635 C1631 1.393 . S
C1635 C1634 1.391 . S
H1636 C1644 0.950 . S
H1637 C1649 0.950 . S
H1638 C1646 0.950 . S
H1639 C1648 0.950 . S
H1640 C1650 0.950 . S
H1641 C1652 0.950 . S
H1642 C1654 0.950 . S
H1643 C1655 0.950 . S
C1644 H1636 0.950 . S
C1644 C1645 1.386 . S
C1644 C1646 1.391 . S
C1645 C1644 1.386 . S
C1645 C1649 1.393 . S
C1646 H1638 0.950 . S
C1646 C1644 1.391 . S
C1646 C1647 1.400 . S
C1647 C1646 1.400 . S
C1647 C1648 1.398 . S
C1647 C1653 1.491 . S
C1648 H1639 0.950 . S
C1648 C1647 1.398 . S
C1648 C1649 1.391 . S
C1649 H1637 0.950 . S
C1649 C1645 1.393 . S
C1649 C1648 1.391 . S
C1650 H1640 0.950 . S
C1650 C1651 1.386 . S
C1650 C1652 1.391 . S
C1651 C1650 1.386 . S
C1651 C1655 1.393 . S
C1652 H1641 0.950 . S
C1652 C1650 1.391 . S
C1652 C1653 1.400 . S
C1653 C1647 1.491 . S
C1653 C1652 1.400 . S
C1653 C1654 1.398 . S
C1654 H1642 0.950 . S
C1654 C1653 1.398 . S
C1654 C1655 1.391 . S
C1655 H1643 0.950 . S
C1655 C1651 1.393 . S
C1655 C1654 1.391 . S
H1656 C1664 0.950 . S
H1657 C1669 0.950 . S
H1658 C1666 0.950 . S
H1659 C1668 0.950 . S
H1660 C1670 0.950 . S
H1661 C1672 0.950 . S
H1662 C1674 0.950 . S
H1663 C1675 0.950 . S
C1664 H1656 0.950 . S
C1664 C1665 1.386 . S
C1664 C1666 1.391 . S
C1665 C1664 1.386 . S
C1665 C1669 1.393 . S
C1666 H1658 0.950 . S
C1666 C1664 1.391 . S
C1666 C1667 1.400 . S
C1667 C1666 1.400 . S
C1667 C1668 1.398 . S
C1667 C1673 1.491 . S
C1668 H1659 0.950 . S
C1668 C1667 1.398 . S
C1668 C1669 1.391 . S
C1669 H1657 0.950 . S
C1669 C1665 1.393 . S
C1669 C1668 1.391 . S
C1670 H1660 0.950 . S
C1670 C1671 1.386 . S
C1670 C1672 1.391 . S
C1671 C1670 1.386 . S
C1671 C1675 1.393 . S
C1672 H1661 0.950 . S
C1672 C1670 1.391 . S
C1672 C1673 1.400 . S
C1673 C1667 1.491 . S
C1673 C1672 1.400 . S
C1673 C1674 1.398 . S
C1674 H1662 0.950 . S
C1674 C1673 1.398 . S
C1674 C1675 1.391 . S
C1675 H1663 0.950 . S
C1675 C1671 1.393 . S
C1675 C1674 1.391 . S
H1676 C1684 0.950 . S
H1677 C1689 0.950 . S
H1678 C1686 0.950 . S
H1679 C1688 0.950 . S
H1680 C1690 0.950 . S
H1681 C1692 0.950 . S
H1682 C1694 0.950 . S
H1683 C1695 0.950 . S
C1684 H1676 0.950 . S
C1684 C1685 1.386 . S
C1684 C1686 1.391 . S
C1685 C1684 1.386 . S
C1685 C1689 1.393 . S
C1686 H1678 0.950 . S
C1686 C1684 1.391 . S
C1686 C1687 1.400 . S
C1687 C1686 1.400 . S
C1687 C1688 1.398 . S
C1687 C1693 1.491 . S
C1688 H1679 0.950 . S
C1688 C1687 1.398 . S
C1688 C1689 1.391 . S
C1689 H1677 0.950 . S
C1689 C1685 1.393 . S
C1689 C1688 1.391 . S
C1690 H1680 0.950 . S
C1690 C1691 1.386 . S
C1690 C1692 1.391 . S
C1691 C1690 1.386 . S
C1691 C1695 1.393 . S
C1692 H1681 0.950 . S
C1692 C1690 1.391 . S
C1692 C1693 1.400 . S
C1693 C1687 1.491 . S
C1693 C1692 1.400 . S
C1693 C1694 1.398 . S
C1694 H1682 0.950 . S
C1694 C1693 1.398 . S
C1694 C1695 1.391 . S
C1695 H1683 0.950 . S
C1695 C1691 1.393 . S
C1695 C1694 1.391 . S
H1696 C1704 0.950 . S
H1697 C1709 0.950 . S
H1698 C1706 0.950 . S
H1699 C1708 0.950 . S
H1700 C1710 0.950 . S
H1701 C1712 0.950 . S
H1702 C1714 0.950 . S
H1703 C1715 0.950 . S
C1704 H1696 0.950 . S
C1704 C1705 1.386 . S
C1704 C1706 1.391 . S
C1705 C1704 1.386 . S
C1705 C1709 1.393 . S
C1706 H1698 0.950 . S
C1706 C1704 1.391 . S
C1706 C1707 1.400 . S
C1707 C1706 1.400 . S
C1707 C1708 1.398 . S
C1707 C1713 1.491 . S
C1708 H1699 0.950 . S
C1708 C1707 1.398 . S
C1708 C1709 1.391 . S
C1709 H1697 0.950 . S
C1709 C1705 1.393 . S
C1709 C1708 1.391 . S
C1710 H1700 0.950 . S
C1710 C1711 1.386 . S
C1710 C1712 1.391 . S
C1711 C1710 1.386 . S
C1711 C1715 1.393 . S
C1712 H1701 0.950 . S
C1712 C1710 1.391 . S
C1712 C1713 1.400 . S
C1713 C1707 1.491 . S
C1713 C1712 1.400 . S
C1713 C1714 1.398 . S
C1714 H1702 0.950 . S
C1714 C1713 1.398 . S
C1714 C1715 1.391 . S
C1715 H1703 0.950 . S
C1715 C1711 1.393 . S
C1715 C1714 1.391 . S
H1716 C1724 0.950 . S
H1717 C1729 0.950 . S
H1718 C1726 0.950 . S
H1719 C1728 0.950 . S
H1720 C1730 0.950 . S
H1721 C1732 0.950 . S
H1722 C1734 0.950 . S
H1723 C1735 0.950 . S
C1724 H1716 0.950 . S
C1724 C1725 1.386 . S
C1724 C1726 1.391 . S
C1725 C1724 1.386 . S
C1725 C1729 1.393 . S
C1726 H1718 0.950 . S
C1726 C1724 1.391 . S
C1726 C1727 1.400 . S
C1727 C1726 1.400 . S
C1727 C1728 1.398 . S
C1727 C1733 1.491 . S
C1728 H1719 0.950 . S
C1728 C1727 1.398 . S
C1728 C1729 1.391 . S
C1729 H1717 0.950 . S
C1729 C1725 1.393 . S
C1729 C1728 1.391 . S
C1730 H1720 0.950 . S
C1730 C1731 1.386 . S
C1730 C1732 1.391 . S
C1731 C1730 1.386 . S
C1731 C1735 1.393 . S
C1732 H1721 0.950 . S
C1732 C1730 1.391 . S
C1732 C1733 1.400 . S
C1733 C1727 1.491 . S
C1733 C1732 1.400 . S
C1733 C1734 1.398 . S
C1734 H1722 0.950 . S
C1734 C1733 1.398 . S
C1734 C1735 1.391 . S
C1735 H1723 0.950 . S
C1735 C1731 1.393 . S
C1735 C1734 1.391 . S
H1736 C1744 0.950 . S
H1737 C1749 0.950 . S
H1738 C1746 0.950 . S
H1739 C1748 0.950 . S
H1740 C1750 0.950 . S
H1741 C1752 0.950 . S
H1742 C1754 0.950 . S
H1743 C1755 0.950 . S
C1744 H1736 0.950 . S
C1744 C1745 1.386 . S
C1744 C1746 1.391 . S
C1745 C1744 1.386 . S
C1745 C1749 1.393 . S
C1746 H1738 0.950 . S
C1746 C1744 1.391 . S
C1746 C1747 1.400 . S
C1747 C1746 1.400 . S
C1747 C1748 1.398 . S
C1747 C1753 1.491 . S
C1748 H1739 0.950 . S
C1748 C1747 1.398 . S
C1748 C1749 1.391 . S
C1749 H1737 0.950 . S
C1749 C1745 1.393 . S
C1749 C1748 1.391 . S
C1750 H1740 0.950 . S
C1750 C1751 1.386 . S
C1750 C1752 1.391 . S
C1751 C1750 1.386 . S
C1751 C1755 1.393 . S
C1752 H1741 0.950 . S
C1752 C1750 1.391 . S
C1752 C1753 1.400 . S
C1753 C1747 1.491 . S
C1753 C1752 1.400 . S
C1753 C1754 1.398 . S
C1754 H1742 0.950 . S
C1754 C1753 1.398 . S
C1754 C1755 1.391 . S
C1755 H1743 0.950 . S
C1755 C1751 1.393 . S
C1755 C1754 1.391 . S
H1756 C1764 0.950 . S
H1757 C1769 0.950 . S
H1758 C1766 0.950 . S
H1759 C1768 0.950 . S
H1760 C1770 0.950 . S
H1761 C1772 0.950 . S
H1762 C1774 0.950 . S
H1763 C1775 0.950 . S
C1764 H1756 0.950 . S
C1764 C1765 1.386 . S
C1764 C1766 1.391 . S
C1765 C1764 1.386 . S
C1765 C1769 1.393 . S
C1766 H1758 0.950 . S
C1766 C1764 1.391 . S
C1766 C1767 1.400 . S
C1767 C1766 1.400 . S
C1767 C1768 1.398 . S
C1767 C1773 1.491 . S
C1768 H1759 0.950 . S
C1768 C1767 1.398 . S
C1768 C1769 1.391 . S
C1769 H1757 0.950 . S
C1769 C1765 1.393 . S
C1769 C1768 1.391 . S
C1770 H1760 0.950 . S
C1770 C1771 1.386 . S
C1770 C1772 1.391 . S
C1771 C1770 1.386 . S
C1771 C1775 1.393 . S
C1772 H1761 0.950 . S
C1772 C1770 1.391 . S
C1772 C1773 1.400 . S
C1773 C1767 1.491 . S
C1773 C1772 1.400 . S
C1773 C1774 1.398 . S
C1774 H1762 0.950 . S
C1774 C1773 1.398 . S
C1774 C1775 1.391 . S
C1775 H1763 0.950 . S
C1775 C1771 1.393 . S
C1775 C1774 1.391 . S
H1776 C1784 0.950 . S
H1777 C1789 0.950 . S
H1778 C1786 0.950 . S
H1779 C1788 0.950 . S
H1780 C1790 0.950 . S
H1781 C1792 0.950 . S
H1782 C1794 0.950 . S
H1783 C1795 0.950 . S
C1784 H1776 0.950 . S
C1784 C1785 1.386 . S
C1784 C1786 1.391 . S
C1785 C1784 1.386 . S
C1785 C1789 1.393 . S
C1786 H1778 0.950 . S
C1786 C1784 1.391 . S
C1786 C1787 1.400 . S
C1787 C1786 1.400 . S
C1787 C1788 1.398 . S
C1787 C1793 1.491 . S
C1788 H1779 0.950 . S
C1788 C1787 1.398 . S
C1788 C1789 1.391 . S
C1789 H1777 0.950 . S
C1789 C1785 1.393 . S
C1789 C1788 1.391 . S
C1790 H1780 0.950 . S
C1790 C1791 1.386 . S
C1790 C1792 1.391 . S
C1791 C1790 1.386 . S
C1791 C1795 1.393 . S
C1792 H1781 0.950 . S
C1792 C1790 1.391 . S
C1792 C1793 1.400 . S
C1793 C1787 1.491 . S
C1793 C1792 1.400 . S
C1793 C1794 1.398 . S
C1794 H1782 0.950 . S
C1794 C1793 1.398 . S
C1794 C1795 1.391 . S
C1795 H1783 0.950 . S
C1795 C1791 1.393 . S
C1795 C1794 1.391 . S
H1796 C1804 0.950 . S
H1797 C1809 0.950 . S
H1798 C1806 0.950 . S
H1799 C1808 0.950 . S
H1800 C1810 0.950 . S
H1801 C1812 0.950 . S
H1802 C1814 0.950 . S
H1803 C1815 0.950 . S
C1804 H1796 0.950 . S
C1804 C1805 1.386 . S
C1804 C1806 1.391 . S
C1805 C1804 1.386 . S
C1805 C1809 1.393 . S
C1806 H1798 0.950 . S
C1806 C1804 1.391 . S
C1806 C1807 1.400 . S
C1807 C1806 1.400 . S
C1807 C1808 1.398 . S
C1807 C1813 1.491 . S
C1808 H1799 0.950 . S
C1808 C1807 1.398 . S
C1808 C1809 1.391 . S
C1809 H1797 0.950 . S
C1809 C1805 1.393 . S
C1809 C1808 1.391 . S
C1810 H1800 0.950 . S
C1810 C1811 1.386 . S
C1810 C1812 1.391 . S
C1811 C1810 1.386 . S
C1811 C1815 1.393 . S
C1812 H1801 0.950 . S
C1812 C1810 1.391 . S
C1812 C1813 1.400 . S
C1813 C1807 1.491 . S
C1813 C1812 1.400 . S
C1813 C1814 1.398 . S
C1814 H1802 0.950 . S
C1814 C1813 1.398 . S
C1814 C1815 1.391 . S
C1815 H1803 0.950 . S
C1815 C1811 1.393 . S
C1815 C1814 1.391 . S
H1816 C1824 0.950 . S
H1817 C1829 0.950 . S
H1818 C1826 0.950 . S
H1819 C1828 0.950 . S
H1820 C1830 0.950 . S
H1821 C1832 0.950 . S
H1822 C1834 0.950 . S
H1823 C1835 0.950 . S
C1824 H1816 0.950 . S
C1824 C1825 1.386 . S
C1824 C1826 1.391 . S
C1825 C1824 1.386 . S
C1825 C1829 1.393 . S
C1826 H1818 0.950 . S
C1826 C1824 1.391 . S
C1826 C1827 1.400 . S
C1827 C1826 1.400 . S
C1827 C1828 1.398 . S
C1827 C1833 1.491 . S
C1828 H1819 0.950 . S
C1828 C1827 1.398 . S
C1828 C1829 1.391 . S
C1829 H1817 0.950 . S
C1829 C1825 1.393 . S
C1829 C1828 1.391 . S
C1830 H1820 0.950 . S
C1830 C1831 1.386 . S
C1830 C1832 1.391 . S
C1831 C1830 1.386 . S
C1831 C1835 1.393 . S
C1832 H1821 0.950 . S
C1832 C1830 1.391 . S
C1832 C1833 1.400 . S
C1833 C1827 1.491 . S
C1833 C1832 1.400 . S
C1833 C1834 1.398 . S
C1834 H1822 0.950 . S
C1834 C1833 1.398 . S
C1834 C1835 1.391 . S
C1835 H1823 0.950 . S
C1835 C1831 1.393 . S
C1835 C1834 1.391 . S
H1836 C1844 0.950 . S
H1837 C1849 0.950 . S
H1838 C1846 0.950 . S
H1839 C1848 0.950 . S
H1840 C1850 0.950 . S
H1841 C1852 0.950 . S
H1842 C1854 0.950 . S
H1843 C1855 0.950 . S
C1844 H1836 0.950 . S
C1844 C1845 1.386 . S
C1844 C1846 1.391 . S
C1845 C1844 1.386 . S
C1845 C1849 1.393 . S
C1846 H1838 0.950 . S
C1846 C1844 1.391 . S
C1846 C1847 1.400 . S
C1847 C1846 1.400 . S
C1847 C1848 1.398 . S
C1847 C1853 1.491 . S
C1848 H1839 0.950 . S
C1848 C1847 1.398 . S
C1848 C1849 1.391 . S
C1849 H1837 0.950 . S
C1849 C1845 1.393 . S
C1849 C1848 1.391 . S
C1850 H1840 0.950 . S
C1850 C1851 1.386 . S
C1850 C1852 1.391 . S
C1851 C1850 1.386 . S
C1851 C1855 1.393 . S
C1852 H1841 0.950 . S
C1852 C1850 1.391 . S
C1852 C1853 1.400 . S
C1853 C1847 1.491 . S
C1853 C1852 1.400 . S
C1853 C1854 1.398 . S
C1854 H1842 0.950 . S
C1854 C1853 1.398 . S
C1854 C1855 1.391 . S
C1855 H1843 0.950 . S
C1855 C1851 1.393 . S
C1855 C1854 1.391 . S
H1856 C1864 0.950 . S
H1857 C1869 0.950 . S
H1858 C1866 0.950 . S
H1859 C1868 0.950 . S
H1860 C1870 0.950 . S
H1861 C1872 0.950 . S
H1862 C1874 0.950 . S
H1863 C1875 0.950 . S
C1864 H1856 0.950 . S
C1864 C1865 1.386 . S
C1864 C1866 1.391 . S
C1865 C1864 1.386 . S
C1865 C1869 1.393 . S
C1866 H1858 0.950 . S
C1866 C1864 1.391 . S
C1866 C1867 1.400 . S
C1867 C1866 1.400 . S
C1867 C1868 1.398 . S
C1867 C1873 1.491 . S
C1868 H1859 0.950 . S
C1868 C1867 1.398 . S
C1868 C1869 1.391 . S
C1869 H1857 0.950 . S
C1869 C1865 1.393 . S
C1869 C1868 1.391 . S
C1870 H1860 0.950 . S
C1870 C1871 1.386 . S
C1870 C1872 1.391 . S
C1871 C1870 1.386 . S
C1871 C1875 1.393 . S
C1872 H1861 0.950 . S
C1872 C1870 1.391 . S
C1872 C1873 1.400 . S
C1873 C1867 1.491 . S
C1873 C1872 1.400 . S
C1873 C1874 1.398 . S
C1874 H1862 0.950 . S
C1874 C1873 1.398 . S
C1874 C1875 1.391 . S
C1875 H1863 0.950 . S
C1875 C1871 1.393 . S
C1875 C1874 1.391 . S
H1876 C1884 0.950 . S
H1877 C1889 0.950 . S
H1878 C1886 0.950 . S
H1879 C1888 0.950 . S
H1880 C1890 0.950 . S
H1881 C1892 0.950 . S
H1882 C1894 0.950 . S
H1883 C1895 0.950 . S
C1884 H1876 0.950 . S
C1884 C1885 1.386 . S
C1884 C1886 1.391 . S
C1885 C1884 1.386 . S
C1885 C1889 1.393 . S
C1886 H1878 0.950 . S
C1886 C1884 1.391 . S
C1886 C1887 1.400 . S
C1887 C1886 1.400 . S
C1887 C1888 1.398 . S
C1887 C1893 1.491 . S
C1888 H1879 0.950 . S
C1888 C1887 1.398 . S
C1888 C1889 1.391 . S
C1889 H1877 0.950 . S
C1889 C1885 1.393 . S
C1889 C1888 1.391 . S
C1890 H1880 0.950 . S
C1890 C1891 1.386 . S
C1890 C1892 1.391 . S
C1891 C1890 1.386 . S
C1891 C1895 1.393 . S
C1892 H1881 0.950 . S
C1892 C1890 1.391 . S
C1892 C1893 1.400 . S
C1893 C1887 1.491 . S
C1893 C1892 1.400 . S
C1893 C1894 1.398 . S
C1894 H1882 0.950 . S
C1894 C1893 1.398 . S
C1894 C1895 1.391 . S
C1895 H1883 0.950 . S
C1895 C1891 1.393 . S
C1895 C1894 1.391 . S
H1896 C1904 0.950 . S
H1897 C1909 0.950 . S
H1898 C1906 0.950 . S
H1899 C1908 0.950 . S
H1900 C1910 0.950 . S
H1901 C1912 0.950 . S
H1902 C1914 0.950 . S
H1903 C1915 0.950 . S
C1904 H1896 0.950 . S
C1904 C1905 1.386 . S
C1904 C1906 1.391 . S
C1905 C1904 1.386 . S
C1905 C1909 1.393 . S
C1906 H1898 0.950 . S
C1906 C1904 1.391 . S
C1906 C1907 1.400 . S
C1907 C1906 1.400 . S
C1907 C1908 1.398 . S
C1907 C1913 1.491 . S
C1908 H1899 0.950 . S
C1908 C1907 1.398 . S
C1908 C1909 1.391 . S
C1909 H1897 0.950 . S
C1909 C1905 1.393 . S
C1909 C1908 1.391 . S
C1910 H1900 0.950 . S
C1910 C1911 1.386 . S
C1910 C1912 1.391 . S
C1911 C1910 1.386 . S
C1911 C1915 1.393 . S
C1912 H1901 0.950 . S
C1912 C1910 1.391 . S
C1912 C1913 1.400 . S
C1913 C1907 1.491 . S
C1913 C1912 1.400 . S
C1913 C1914 1.398 . S
C1914 H1902 0.950 . S
C1914 C1913 1.398 . S
C1914 C1915 1.391 . S
C1915 H1903 0.950 . S
C1915 C1911 1.393 . S
C1915 C1914 1.391 . S
H1916 C1924 0.950 . S
H1917 C1929 0.950 . S
H1918 C1926 0.950 . S
H1919 C1928 0.950 . S
H1920 C1930 0.950 . S
H1921 C1932 0.950 . S
H1922 C1934 0.950 . S
H1923 C1935 0.950 . S
C1924 H1916 0.950 . S
C1924 C1925 1.386 . S
C1924 C1926 1.391 . S
C1925 C1924 1.386 . S
C1925 C1929 1.393 . S
C1926 H1918 0.950 . S
C1926 C1924 1.391 . S
C1926 C1927 1.400 . S
C1927 C1926 1.400 . S
C1927 C1928 1.398 . S
C1927 C1933 1.491 . S
C1928 H1919 0.950 . S
C1928 C1927 1.398 . S
C1928 C1929 1.391 . S
C1929 H1917 0.950 . S
C1929 C1925 1.393 . S
C1929 C1928 1.391 . S
C1930 H1920 0.950 . S
C1930 C1931 1.386 . S
C1930 C1932 1.391 . S
C1931 C1930 1.386 . S
C1931 C1935 1.393 . S
C1932 H1921 0.950 . S
C1932 C1930 1.391 . S
C1932 C1933 1.400 . S
C1933 C1927 1.491 . S
C1933 C1932 1.400 . S
C1933 C1934 1.398 . S
C1934 H1922 0.950 . S
C1934 C1933 1.398 . S
C1934 C1935 1.391 . S
C1935 H1923 0.950 . S
C1935 C1931 1.393 . S
C1935 C1934 1.391 . S
H1936 C1944 0.950 . S
H1937 C1949 0.950 . S
H1938 C1946 0.950 . S
H1939 C1948 0.950 . S
H1940 C1950 0.950 . S
H1941 C1952 0.950 . S
H1942 C1954 0.950 . S
H1943 C1955 0.950 . S
C1944 H1936 0.950 . S
C1944 C1945 1.386 . S
C1944 C1946 1.391 . S
C1945 C1944 1.386 . S
C1945 C1949 1.393 . S
C1946 H1938 0.950 . S
C1946 C1944 1.391 . S
C1946 C1947 1.400 . S
C1947 C1946 1.400 . S
C1947 C1948 1.398 . S
C1947 C1953 1.491 . S
C1948 H1939 0.950 . S
C1948 C1947 1.398 . S
C1948 C1949 1.391 . S
C1949 H1937 0.950 . S
C1949 C1945 1.393 . S
C1949 C1948 1.391 . S
C1950 H1940 0.950 . S
C1950 C1951 1.386 . S
C1950 C1952 1.391 . S
C1951 C1950 1.386 . S
C1951 C1955 1.393 . S
C1952 H1941 0.950 . S
C1952 C1950 1.391 . S
C1952 C1953 1.400 . S
C1953 C1947 1.491 . S
C1953 C1952 1.400 . S
C1953 C1954 1.398 . S
C1954 H1942 0.950 . S
C1954 C1953 1.398 . S
C1954 C1955 1.391 . S
C1955 H1943 0.950 . S
C1955 C1951 1.393 . S
C1955 C1954 1.391 . S
C1011 C707 1.236 . S
C1005 C74 1.174 . S
C1031 C685 0.309 . S
C1025 C142 0.725 . S
C1051 C682 0.777 . S
C1045 C231 0.800 . S
C1065 C322 1.595 . S
C1071 C694 1.670 . S
C1085 C406 0.706 . S
C1091 C677 0.323 . S
C1111 C699 0.767 . S
C1105 C494 0.782 . S
C1125 C562 1.619 . S
C1131 C704 1.658 . S
C1145 C651 1.163 . S
C1151 C700 1.241 . S
C1171 C758 1.701 . S
C1165 C58 1.615 . S
C1185 C151 1.293 . S
C1191 C808 1.363 . S
C1211 C731 2.797 . S
C1205 C224 2.697 . S
C1231 C807 0.785 . S
C1225 C315 0.738 . S
C1245 C399 0.773 . S
C1251 C736 0.792 . S
C1271 C802 1.672 . S
C1265 C478 1.628 . S
C1285 C571 1.274 . S
C1291 C761 1.349 . S
C1305 C644 2.689 . S
C1311 C793 2.785 . S
C1325 C67 2.708 . S
C1331 C785 2.787 . S
C1345 C392 1.329 . S
C1351 C815 1.374 . S
C1371 C739 2.815 . S
C1365 C487 2.692 . S
C1391 C790 0.799 . S
C1385 C578 0.749 . S
C1405 C658 1.636 . S
C1411 C748 1.702 . S
C1425 C238 1.641 . S
C1431 C812 1.712 . S
C1451 C754 1.350 . S
C1445 C308 1.243 . S
C1465 C158 0.783 . S
C1471 C753 0.818 . S
C1485 C662 1.166 . S
C1491 C869 1.239 . S
C1505 C394 0.742 . S
C1511 C847 0.294 . S
C1531 C844 0.779 . S
C1525 C483 0.745 . S
C1551 C856 1.666 . S
C1545 C574 1.597 . S
C1565 C154 0.691 . S
C1571 C839 0.340 . S
C1591 C861 0.789 . S
C1585 C242 0.758 . S
C1605 C310 1.633 . S
C1611 C866 1.653 . S
C1625 C63 1.147 . S
C1631 C862 1.240 . S
C1645 C646 1.630 . S
C1651 C920 1.680 . S
C1671 C970 1.369 . S
C1665 C403 1.324 . S
C1685 C476 2.688 . S
C1691 C893 2.789 . S
C1705 C567 0.790 . S
C1711 C969 0.767 . S
C1731 C898 0.795 . S
C1725 C147 0.765 . S
C1745 C226 1.607 . S
C1751 C964 1.684 . S
C1771 C923 1.349 . S
C1765 C319 1.267 . S
C1791 C955 2.781 . S
C1785 C56 2.696 . S
C1811 C947 2.791 . S
C1805 C655 2.689 . S
C1825 C140 1.327 . S
C1831 C977 1.374 . S
C1845 C235 2.708 . S
C1851 C901 2.817 . S
C1871 C952 0.781 . S
C1865 C326 0.809 . S
C1885 C70 1.628 . S
C1891 C910 1.680 . S
C1905 C490 1.653 . S
C1911 C974 1.698 . S
C1931 C916 1.352 . S
C1925 C560 1.259 . S
C1951 C915 0.813 . S
C1945 C410 0.807 . S
