# Generated by pormake.
# Topology llj, (12,3)-cn, num edge types: 1
# Building blocks:
#     Node 0, Type 0, BuildingBlock: QEWDON_clean_sbu_0, # of connection points: 12
#     Node 1, Type 0, BuildingBlock: QEWDON_clean_sbu_0, # of connection points: 12
#     Node 2, Type 1, BuildingBlock: OLANEW_clean_sbu_2, # of connection points: 3
#     Node 3, Type 1, BuildingBlock: OLANEW_clean_sbu_2, # of connection points: 3
#     Node 4, Type 1, BuildingBlock: OLANEW_clean_sbu_2, # of connection points: 3
#     Node 5, Type 1, BuildingBlock: OLANEW_clean_sbu_2, # of connection points: 3
#     Node 6, Type 1, BuildingBlock: OLANEW_clean_sbu_2, # of connection points: 3
#     Node 7, Type 1, BuildingBlock: OLANEW_clean_sbu_2, # of connection points: 3
#     Node 8, Type 1, BuildingBlock: OLANEW_clean_sbu_2, # of connection points: 3
#     Node 9, Type 1, BuildingBlock: OLANEW_clean_sbu_2, # of connection points: 3
#     Edge 10, Type (0, 1), BuildingBlock: EZIPEK_clean_linker_0, # of connection points: 2
#     Edge 11, Type (0, 1), BuildingBlock: EZIPEK_clean_linker_0, # of connection points: 2
#     Edge 12, Type (0, 1), BuildingBlock: EZIPEK_clean_linker_0, # of connection points: 2
#     Edge 13, Type (0, 1), BuildingBlock: EZIPEK_clean_linker_0, # of connection points: 2
#     Edge 14, Type (0, 1), BuildingBlock: EZIPEK_clean_linker_0, # of connection points: 2
#     Edge 15, Type (0, 1), BuildingBlock: EZIPEK_clean_linker_0, # of connection points: 2
#     Edge 16, Type (0, 1), BuildingBlock: EZIPEK_clean_linker_0, # of connection points: 2
#     Edge 17, Type (0, 1), BuildingBlock: EZIPEK_clean_linker_0, # of connection points: 2
#     Edge 18, Type (0, 1), BuildingBlock: EZIPEK_clean_linker_0, # of connection points: 2
#     Edge 19, Type (0, 1), BuildingBlock: EZIPEK_clean_linker_0, # of connection points: 2
#     Edge 20, Type (0, 1), BuildingBlock: EZIPEK_clean_linker_0, # of connection points: 2
#     Edge 21, Type (0, 1), BuildingBlock: EZIPEK_clean_linker_0, # of connection points: 2
#     Edge 22, Type (0, 1), BuildingBlock: EZIPEK_clean_linker_0, # of connection points: 2
#     Edge 23, Type (0, 1), BuildingBlock: EZIPEK_clean_linker_0, # of connection points: 2
#     Edge 24, Type (0, 1), BuildingBlock: EZIPEK_clean_linker_0, # of connection points: 2
#     Edge 25, Type (0, 1), BuildingBlock: EZIPEK_clean_linker_0, # of connection points: 2
#     Edge 26, Type (0, 1), BuildingBlock: EZIPEK_clean_linker_0, # of connection points: 2
#     Edge 27, Type (0, 1), BuildingBlock: EZIPEK_clean_linker_0, # of connection points: 2
#     Edge 28, Type (0, 1), BuildingBlock: EZIPEK_clean_linker_0, # of connection points: 2
#     Edge 29, Type (0, 1), BuildingBlock: EZIPEK_clean_linker_0, # of connection points: 2
#     Edge 30, Type (0, 1), BuildingBlock: EZIPEK_clean_linker_0, # of connection points: 2
#     Edge 31, Type (0, 1), BuildingBlock: EZIPEK_clean_linker_0, # of connection points: 2
#     Edge 32, Type (0, 1), BuildingBlock: EZIPEK_clean_linker_0, # of connection points: 2
#     Edge 33, Type (0, 1), BuildingBlock: EZIPEK_clean_linker_0, # of connection points: 2
# Relax obj value: 0.014
# Max RMSD: 0.099
# Mean RMSD: 0.079
data_MOF--net-llj--node1-QEWDON_clean_sbu_0--node2-OLANEW_clean_sbu_2--edge1-EZIPEK_clean_linker_0
_symmetry_space_group_name_H-M    P1
_symmetry_Int_Tables_number       1
_symmetry_cell_setting            triclinic
loop_
_symmetry_equiv_pos_as_xyz
'x, y, z'
_cell_length_a     32.227372
_cell_length_b     32.283174
_cell_length_c     19.754834
_cell_angle_alpha  87.622246
_cell_angle_beta   92.713029
_cell_angle_gamma 89.882778
loop_
_atom_site_label
_atom_site_type_symbol
_atom_site_fract_x
_atom_site_fract_y
_atom_site_fract_z
_atom_type_partial_charge
Zn0 Zn 0.9808 0.11136 0.94693 0.0
Zn1 Zn 0.97656 0.09766 0.10911 0.0
O2 O 0.00545 0.07817 0.02842 0.0
H3 H 0.01857 0.05138 0.02573 0.0
C4 C 0.87604 0.06334 0.88435 0.0
O5 O 0.90155 0.07196 0.93552 0.0
Zn6 Zn 0.03353 0.90795 0.1195 0.0
Zn7 Zn 0.02584 0.90372 0.95736 0.0
O8 O 0.00222 0.93136 0.03713 0.0
H9 H 0.99026 0.95887 0.03387 0.0
Zn10 Zn 0.86338 0.99155 0.97258 0.0
O11 O 0.91063 0.004 0.03817 0.0
Zn12 Zn 0.89932 0.97305 0.12448 0.0
H13 H 0.93751 0.01382 0.0251 0.0
Zn14 Zn 0.13395 0.04644 0.97055 0.0
O15 O 0.10189 0.01048 0.03614 0.0
H16 H 0.07825 0.99354 0.02388 0.0
Zn17 Zn 0.113 0.03448 0.12616 0.0
C18 C 0.13052 0.98619 0.86507 0.0
O19 O 0.10315 0.96906 0.90455 0.0
O20 O 0.93558 0.15294 0.96981 0.0
O21 O 0.93655 0.14526 0.0827 0.0
O22 O 0.06017 0.85127 0.98636 0.0
O23 O 0.06382 0.85526 0.09901 0.0
O24 O 0.81572 0.95919 0.01526 0.0
O25 O 0.84432 0.942 0.11799 0.0
C26 C 0.05458 0.09483 0.18485 0.0
O27 O 0.18129 0.07838 0.01834 0.0
O28 O 0.16459 0.07019 0.12642 0.0
O29 O 0.9841 0.89613 0.87652 0.0
C30 C 0.92273 0.1628 0.02694 0.0
O31 O 0.01768 0.12881 0.86789 0.0
C32 C 0.9585 0.91162 0.19181 0.0
O33 O 0.85477 0.03026 0.88689 0.0
C34 C 0.07168 0.83676 0.04525 0.0
O35 O 0.14764 0.02008 0.88083 0.0
C36 C 0.9183 0.04629 0.19265 0.0
O37 O 0.01967 0.11342 0.18102 0.0
O38 O 0.06186 0.06795 0.1418 0.0
C39 C 0.81438 0.94066 0.07337 0.0
O40 O 0.99403 0.89444 0.1943 0.0
O41 O 0.94877 0.93644 0.14233 0.0
C42 C 0.10227 0.95442 0.19063 0.0
O43 O 0.89651 0.01376 0.19845 0.0
O44 O 0.94193 0.05008 0.14302 0.0
C45 C 0.18819 0.08453 0.08111 0.0
O46 O 0.12365 0.98724 0.19498 0.0
O47 O 0.07348 0.95295 0.14475 0.0
C48 C 0.95317 0.91956 0.86035 0.0
O49 O 0.94719 0.95339 0.89332 0.0
C50 C 0.04841 0.10889 0.84755 0.0
O51 O 0.05911 0.07279 0.87632 0.0
Zn52 Zn 0.45246 0.60128 0.45203 0.0
Zn53 Zn 0.45882 0.58157 0.60876 0.0
O54 O 0.49445 0.58887 0.52923 0.0
H55 H 0.52268 0.59895 0.52981 0.0
C56 C 0.39367 0.52206 0.30505 0.0
O57 O 0.43052 0.53207 0.33042 0.0
Zn58 Zn 0.55729 0.39286 0.54482 0.0
Zn59 Zn 0.56022 0.40657 0.38256 0.0
O60 O 0.52656 0.41889 0.4638 0.0
H61 H 0.50501 0.43972 0.46416 0.0
Zn62 Zn 0.39129 0.45443 0.41431 0.0
O63 O 0.42074 0.48307 0.49251 0.0
Zn64 Zn 0.41525 0.44097 0.56891 0.0
H65 H 0.44367 0.50192 0.48666 0.0
Zn66 Zn 0.60137 0.55843 0.44658 0.0
O67 O 0.57411 0.51805 0.51158 0.0
H68 H 0.5497 0.50184 0.50086 0.0
Zn69 Zn 0.59141 0.53445 0.60401 0.0
C70 C 0.59382 0.50402 0.33465 0.0
O71 O 0.56142 0.49148 0.36754 0.0
O72 O 0.39973 0.62877 0.48489 0.0
O73 O 0.40789 0.61897 0.59716 0.0
O74 O 0.61005 0.3674 0.40731 0.0
O75 O 0.6013 0.35261 0.51694 0.0
O76 O 0.34332 0.4176 0.4464 0.0
O77 O 0.36217 0.40837 0.55579 0.0
C78 C 0.53032 0.57562 0.69267 0.0
O79 O 0.64611 0.59442 0.49295 0.0
O80 O 0.63552 0.57883 0.60182 0.0
O81 O 0.52468 0.39004 0.29847 0.0
C82 C 0.38759 0.63383 0.54449 0.0
O83 O 0.47789 0.62762 0.36678 0.0
C84 C 0.48103 0.381 0.61529 0.0
O85 O 0.37405 0.49159 0.33048 0.0
C86 C 0.62025 0.34747 0.46264 0.0
O87 O 0.61611 0.53331 0.35682 0.0
C88 C 0.42207 0.50582 0.66144 0.0
O89 O 0.49409 0.59116 0.69375 0.0
O90 O 0.53915 0.55543 0.64156 0.0
C91 C 0.33703 0.40244 0.50548 0.0
O92 O 0.51697 0.36595 0.60965 0.0
O93 O 0.46651 0.40625 0.56937 0.0
C94 C 0.61364 0.44811 0.64 0.0
O95 O 0.41028 0.46859 0.65747 0.0
O96 O 0.43988 0.52305 0.61193 0.0
C97 C 0.65479 0.5986 0.55586 0.0
O98 O 0.61855 0.48577 0.65485 0.0
O99 O 0.58572 0.43977 0.59461 0.0
C100 C 0.49962 0.41257 0.26147 0.0
O101 O 0.49539 0.45212 0.27269 0.0
C102 C 0.5109 0.61254 0.3451 0.0
O103 O 0.52703 0.57851 0.37409 0.0
O104 O 0.42898 0.25582 0.2105 0.0
Cd105 Cd 0.42252 0.18095 0.21485 0.0
O106 O 0.41036 0.26079 0.10202 0.0
Cd107 Cd 0.40345 0.29363 0.00337 0.0
O108 O 0.41396 0.3119 0.89807 0.0
C109 C 0.41166 0.34939 0.87623 0.0
O110 O 0.40155 0.37843 0.91716 0.0
C111 C 0.42304 0.27777 0.15603 0.0
C112 C 0.34485 0.15443 0.1703 0.0
O113 O 0.35296 0.15979 0.23345 0.0
O114 O 0.37316 0.16219 0.12819 0.0
O115 O 0.69431 0.34691 0.90278 0.0
Cd116 Cd 0.71589 0.33002 0.02057 0.0
O117 O 0.71131 0.41284 0.90497 0.0
Cd118 Cd 0.72604 0.40849 0.01303 0.0
O119 O 0.7 0.42623 0.10667 0.0
C120 C 0.66076 0.42392 0.10934 0.0
O121 O 0.63882 0.40818 0.05893 0.0
C122 C 0.69669 0.38241 0.87305 0.0
C123 C 0.78471 0.27783 0.0261 0.0
O124 O 0.74792 0.26386 0.01525 0.0
O125 O 0.78906 0.31669 0.03524 0.0
O126 O 0.56939 0.77197 0.20025 0.0
Cd127 Cd 0.57563 0.83751 0.13645 0.0
O128 O 0.58752 0.73965 0.11077 0.0
Cd129 Cd 0.59471 0.68522 0.05075 0.0
O130 O 0.58599 0.65177 0.95778 0.0
C131 C 0.61198 0.62742 0.93361 0.0
O132 O 0.64803 0.62003 0.96564 0.0
C133 C 0.57508 0.73835 0.17084 0.0
C134 C 0.65613 0.86623 0.12631 0.0
O135 O 0.63417 0.87651 0.17542 0.0
O136 O 0.64055 0.84149 0.08294 0.0
O137 O 0.23266 0.58591 0.17949 0.0
Cd138 Cd 0.16165 0.59176 0.13302 0.0
O139 O 0.25496 0.59634 0.0771 0.0
Cd140 Cd 0.30243 0.59527 0.00239 0.0
O141 O 0.33239 0.57641 0.91215 0.0
C142 C 0.36989 0.58431 0.89963 0.0
O143 O 0.39292 0.60599 0.94175 0.0
C144 C 0.26252 0.58799 0.13985 0.0
C145 C 0.13832 0.67259 0.09825 0.0
O146 O 0.13292 0.65708 0.15791 0.0
O147 O 0.15516 0.6502 0.05498 0.0
O148 O 0.882 0.77335 0.74637 0.0
Cd149 Cd 0.88028 0.70257 0.70983 0.0
O150 O 0.85823 0.79784 0.64662 0.0
Cd151 Cd 0.84696 0.84708 0.56894 0.0
O152 O 0.85836 0.87963 0.47277 0.0
C153 C 0.87641 0.85823 0.43023 0.0
O154 O 0.88428 0.81888 0.4451 0.0
C155 C 0.87284 0.80406 0.70618 0.0
C156 C 0.80428 0.67749 0.65555 0.0
O157 O 0.81392 0.67103 0.71879 0.0
O158 O 0.82996 0.69696 0.61831 0.0
O159 O 0.1442 0.81487 0.43946 0.0
Cd160 Cd 0.17036 0.78674 0.55118 0.0
O161 O 0.19411 0.86115 0.43021 0.0
Cd162 Cd 0.2172 0.84936 0.53366 0.0
O163 O 0.20363 0.87225 0.6317 0.0
C164 C 0.18063 0.90435 0.62762 0.0
O165 O 0.16824 0.91998 0.56755 0.0
C166 C 0.16147 0.84413 0.40614 0.0
C167 C 0.23832 0.73299 0.55104 0.0
O168 O 0.24325 0.77233 0.55079 0.0
O169 O 0.2012 0.71877 0.55044 0.0
O170 O 0.0928 0.25752 0.67797 0.0
Cd171 Cd 0.0957 0.32094 0.60779 0.0
O172 O 0.13248 0.22672 0.60808 0.0
Cd173 Cd 0.159 0.17315 0.56224 0.0
O174 O 0.15731 0.13812 0.47034 0.0
C175 C 0.13283 0.15425 0.42426 0.0
O176 O 0.11427 0.18946 0.43523 0.0
C177 C 0.11084 0.22501 0.66017 0.0
C178 C 0.17549 0.34184 0.57327 0.0
O179 O 0.15995 0.35574 0.62642 0.0
O180 O 0.15358 0.3176 0.53645 0.0
O181 O 0.83693 0.14271 0.58952 0.0
Cd182 Cd 0.81802 0.16937 0.47527 0.0
O183 O 0.88144 0.19199 0.61631 0.0
Cd184 Cd 0.87902 0.21523 0.51083 0.0
O185 O 0.88684 0.19523 0.40796 0.0
C186 C 0.89939 0.1579 0.40834 0.0
O187 O 0.90772 0.13799 0.46676 0.0
C188 C 0.8615 0.15939 0.63253 0.0
C189 C 0.75482 0.22807 0.47189 0.0
O190 O 0.74655 0.18933 0.46942 0.0
O191 O 0.79297 0.23917 0.47618 0.0
C192 C 0.22938 0.1446 0.12375 0.0
C193 C 0.22805 0.10313 0.10298 0.0
C194 C 0.30343 0.09637 0.12233 0.0
C195 C 0.30457 0.13707 0.14695 0.0
N196 N 0.26914 0.19897 0.17774 0.0
N197 N 0.26164 0.0371 0.09154 0.0
C198 C 0.26761 0.16089 0.14989 0.0
C199 C 0.26452 0.07838 0.10439 0.0
N200 N 0.19438 0.16868 0.11611 0.0
N201 N 0.33958 0.07481 0.1162 0.0
H202 H 0.23377 0.02271 0.07751 0.0
H203 H 0.28614 0.01617 0.09966 0.0
H204 H 0.36854 0.08519 0.13394 0.0
H205 H 0.34138 0.04754 0.09016 0.0
H206 H 0.19381 0.20032 0.12407 0.0
H207 H 0.16605 0.1575 0.09685 0.0
H208 H 0.24292 0.21586 0.18869 0.0
H209 H 0.29686 0.213 0.19354 0.0
C210 C 0.89254 0.23371 -0.00053 0.0
C211 C 0.88827 0.19303 0.02801 0.0
C212 C 0.81913 0.21047 0.06374 0.0
C213 C 0.82111 0.24946 0.02816 0.0
N214 N 0.85675 0.29383 0.94806 0.0
N215 N 0.84237 0.13943 0.06819 0.0
C216 C 0.85708 0.26009 0.99222 0.0
C217 C 0.85015 0.18042 0.05486 0.0
N218 N 0.93048 0.24746 0.98039 0.0
N219 N 0.78872 0.20246 0.10834 0.0
H220 H 0.86382 0.11601 0.0607 0.0
H221 H 0.81283 0.12865 0.079 0.0
H222 H 0.76676 0.22449 0.12006 0.0
H223 H 0.78844 0.17556 0.13943 0.0
H224 H 0.9361 0.27822 0.9656 0.0
H225 H 0.95719 0.22906 0.98542 0.0
H226 H 0.8808 0.3004 0.91588 0.0
H227 H 0.83075 0.31269 0.93788 0.0
C228 C 0.73983 0.94689 0.09894 0.0
C229 C 0.77494 0.92116 0.09204 0.0
C230 C 0.73339 0.85961 0.11831 0.0
C231 C 0.69733 0.88504 0.11689 0.0
N232 N 0.66494 0.95215 0.09488 0.0
N233 N 0.80529 0.85306 0.08854 0.0
C234 C 0.70019 0.92854 0.10462 0.0
C235 C 0.77189 0.87746 0.10031 0.0
N236 N 0.74457 0.98889 0.10189 0.0
N237 N 0.731 0.81874 0.13876 0.0
H238 H 0.83397 0.86522 0.07566 0.0
H239 H 0.80385 0.82091 0.0867 0.0
H240 H 0.7033 0.80478 0.15255 0.0
H241 H 0.75689 0.79959 0.14762 0.0
H242 H 0.72084 0.00877 0.11428 0.0
H243 H 0.77325 0.00358 0.09846 0.0
H244 H 0.66513 0.98315 0.07807 0.0
H245 H 0.63507 0.94 0.0974 0.0
C246 C 0.06566 0.75992 0.0373 0.0
C247 C 0.09047 0.79497 0.05227 0.0
C248 C 0.14738 0.74964 0.0965 0.0
C249 C 0.12318 0.71472 0.07885 0.0
N250 N 0.06293 0.68595 0.02118 0.0
N251 N 0.15718 0.82397 0.08248 0.0
C252 C 0.08352 0.7197 0.04536 0.0
C253 C 0.13206 0.79006 0.07802 0.0
N254 N 0.02439 0.76487 0.01905 0.0
N255 N 0.18461 0.7441 0.13188 0.0
H256 H 0.1469 0.85381 0.0678 0.0
H257 H 0.18894 0.82222 0.09462 0.0
H258 H 0.19751 0.71488 0.1438 0.0
H259 H 0.20154 0.76822 0.1529 0.0
H260 H 0.00364 0.74031 0.01543 0.0
H261 H 0.00986 0.79375 0.01273 0.0
H262 H 0.03614 0.68813 0.9896 0.0
H263 H 0.07436 0.65575 0.02814 0.0
C264 C 0.73194 0.60436 0.5629 0.0
C265 C 0.69266 0.62133 0.57639 0.0
C266 C 0.72648 0.67553 0.64227 0.0
C267 C 0.76574 0.65991 0.62543 0.0
N268 N 0.80638 0.61341 0.56194 0.0
N269 N 0.65164 0.67572 0.6198 0.0
C270 C 0.76859 0.62579 0.58281 0.0
C271 C 0.68964 0.65771 0.61363 0.0
N272 N 0.73435 0.5663 0.53517 0.0
N273 N 0.72449 0.70711 0.68606 0.0
H274 H 0.62428 0.66347 0.59864 0.0
H275 H 0.64737 0.70429 0.64101 0.0
H276 H 0.75076 0.72256 0.70468 0.0
H277 H 0.69715 0.71667 0.70679 0.0
H278 H 0.76202 0.54994 0.53206 0.0
H279 H 0.7084 0.54903 0.52047 0.0
H280 H 0.80979 0.59247 0.52386 0.0
H281 H 0.83451 0.62595 0.57919 0.0
C282 C 0.31243 0.64598 0.51143 0.0
C283 C 0.34816 0.65664 0.55177 0.0
C284 C 0.30792 0.71075 0.60238 0.0
C285 C 0.27495 0.70495 0.55345 0.0
N286 N 0.24913 0.67096 0.45311 0.0
N287 N 0.38169 0.70412 0.62844 0.0
C288 C 0.2779 0.67345 0.50585 0.0
C289 C 0.34641 0.69021 0.59574 0.0
N290 N 0.31088 0.60903 0.48005 0.0
N291 N 0.30216 0.73485 0.65646 0.0
H292 H 0.41097 0.69123 0.6232 0.0
H293 H 0.38253 0.7312 0.65541 0.0
H294 H 0.27389 0.74916 0.66466 0.0
H295 H 0.3239 0.73678 0.69695 0.0
H296 H 0.2841 0.59821 0.45506 0.0
H297 H 0.33479 0.58712 0.48544 0.0
H298 H 0.25254 0.65125 0.41324 0.0
H299 H 0.22412 0.69138 0.44527 0.0
C300 C 0.28935 0.34267 0.52881 0.0
C301 C 0.29553 0.38589 0.51917 0.0
C302 C 0.22191 0.39897 0.53531 0.0
C303 C 0.21658 0.35628 0.55227 0.0
N304 N 0.24549 0.28766 0.57253 0.0
N305 N 0.26977 0.45608 0.52303 0.0
C306 C 0.25032 0.32801 0.55065 0.0
C307 C 0.26236 0.41431 0.52498 0.0
N308 N 0.32049 0.31576 0.51577 0.0
N309 N 0.18806 0.42461 0.52652 0.0
H310 H 0.29885 0.4689 0.51465 0.0
H311 H 0.24786 0.47798 0.53525 0.0
H312 H 0.1577 0.41447 0.53264 0.0
H313 H 0.18958 0.45497 0.50682 0.0
H314 H 0.31675 0.28375 0.51535 0.0
H315 H 0.34942 0.32578 0.50015 0.0
H316 H 0.26996 0.26658 0.57946 0.0
H317 H 0.21734 0.27588 0.58869 0.0
C318 C 0.65509 0.28558 0.4168 0.0
C319 C 0.65518 0.31749 0.46413 0.0
C320 C 0.71876 0.28845 0.52045 0.0
C321 C 0.72096 0.25929 0.46887 0.0
N322 N 0.69625 0.23651 0.35923 0.0
N323 N 0.69213 0.3548 0.55167 0.0
C324 C 0.69056 0.25967 0.41447 0.0
C325 C 0.68846 0.32054 0.5134 0.0
N326 N 0.6205 0.27865 0.37613 0.0
N327 N 0.74435 0.28457 0.57757 0.0
H328 H 0.67151 0.37979 0.54629 0.0
H329 H 0.71795 0.36038 0.58369 0.0
H330 H 0.76626 0.26086 0.58571 0.0
H331 H 0.74102 0.3024 0.61977 0.0
H332 H 0.61741 0.25308 0.34583 0.0
H333 H 0.59319 0.29588 0.37773 0.0
H334 H 0.67715 0.23902 0.31519 0.0
H335 H 0.72244 0.21802 0.35443 0.0
C336 C 0.10437 0.14426 0.23873 0.0
C337 C 0.08538 0.10476 0.23951 0.0
C338 C 0.10543 0.09347 0.35985 0.0
C339 C 0.12331 0.13367 0.35975 0.0
N340 N 0.15155 0.19129 0.29595 0.0
N341 N 0.07853 0.0371 0.29385 0.0
C342 C 0.12663 0.15711 0.29792 0.0
C343 C 0.09013 0.07761 0.29755 0.0
N344 N 0.09992 0.16996 0.18211 0.0
N345 N 0.09947 0.07192 0.41966 0.0
H346 H 0.06431 0.02533 0.25033 0.0
H347 H 0.08559 0.01472 0.33219 0.0
H348 H 0.10925 0.08236 0.46691 0.0
H349 H 0.08179 0.045 0.42302 0.0
H350 H 0.10861 0.20102 0.18097 0.0
H351 H 0.08594 0.16044 0.13664 0.0
H352 H 0.15824 0.20766 0.25127 0.0
H353 H 0.16892 0.20075 0.33848 0.0
C354 C 0.94845 0.08853 0.28643 0.0
C355 C 0.91436 0.0794 0.24173 0.0
C356 C 0.86985 0.12577 0.30267 0.0
C357 C 0.90486 0.13616 0.34493 0.0
N358 N 0.97902 0.13541 0.36676 0.0
N359 N 0.8431 0.09111 0.20289 0.0
C360 C 0.9446 0.12001 0.33348 0.0
C361 C 0.87519 0.09878 0.24837 0.0
N362 N 0.98361 0.06493 0.28801 0.0
N363 N 0.83132 0.1401 0.31643 0.0
H364 H 0.84572 0.07117 0.1631 0.0
H365 H 0.81462 0.10638 0.20128 0.0
H366 H 0.82645 0.16128 0.35358 0.0
H367 H 0.80373 0.1298 0.29352 0.0
H368 H 0.00566 0.06517 0.32826 0.0
H369 H 0.98908 0.04297 0.25232 0.0
H370 H 0.00924 0.12767 0.35524 0.0
H371 H 0.97741 0.15907 0.40101 0.0
C372 C 0.93556 0.92686 0.30687 0.0
C373 C 0.93027 0.90392 0.24771 0.0
C374 C 0.87957 0.85964 0.30375 0.0
C375 C 0.89117 0.87745 0.3664 0.0
N376 N 0.93407 0.92565 0.42898 0.0
N377 N 0.89726 0.84854 0.18777 0.0
C378 C 0.91966 0.91096 0.36835 0.0
C379 C 0.90189 0.87055 0.24525 0.0
N380 N 0.95579 0.9639 0.30411 0.0
N381 N 0.84665 0.83308 0.30006 0.0
H382 H 0.91173 0.857 0.14313 0.0
H383 H 0.8808 0.82088 0.1853 0.0
H384 H 0.82921 0.8252 0.34185 0.0
H385 H 0.83415 0.8221 0.25467 0.0
H386 H 0.95709 0.98415 0.34386 0.0
H387 H 0.9679 0.97585 0.25943 0.0
H388 H 0.95843 0.94669 0.4332 0.0
H389 H 0.92452 0.91425 0.47579 0.0
C390 C 0.08793 0.91336 0.29668 0.0
C391 C 0.1117 0.91897 0.2386 0.0
C392 C 0.16033 0.86483 0.28299 0.0
C393 C 0.1402 0.86391 0.34518 0.0
N394 N 0.08665 0.88968 0.4144 0.0
N395 N 0.17142 0.90197 0.17614 0.0
C396 C 0.10392 0.88813 0.35255 0.0
C397 C 0.14794 0.89486 0.23125 0.0
N398 N 0.05054 0.93303 0.2991 0.0
N399 N 0.1911 0.83675 0.27363 0.0
H400 H 0.16215 0.92219 0.13563 0.0
H401 H 0.20088 0.88934 0.17187 0.0
H402 H 0.20034 0.81425 0.31082 0.0
H403 H 0.2048 0.83332 0.22752 0.0
H404 H 0.02971 0.92677 0.33682 0.0
H405 H 0.03881 0.95311 0.26014 0.0
H406 H 0.06382 0.91092 0.42532 0.0
H407 H 0.09701 0.87175 0.45693 0.0
C408 C 0.18549 0.95354 0.79929 0.0
C409 C 0.14323 0.96481 0.80475 0.0
C410 C 0.12498 0.9311 0.69883 0.0
C411 C 0.16782 0.92425 0.6894 0.0
N412 N 0.23951 0.93648 0.72419 0.0
N413 N 0.07378 0.97114 0.75396 0.0
C414 C 0.19834 0.93746 0.73789 0.0
C415 C 0.11317 0.95545 0.75297 0.0
N416 N 0.2131 0.95667 0.85355 0.0
N417 N 0.09548 0.913 0.65783 0.0
H418 H 0.06399 0.98957 0.79235 0.0
H419 H 0.0521 0.96924 0.71341 0.0
H420 H 0.10279 0.89389 0.61876 0.0
H421 H 0.06389 0.91352 0.66686 0.0
H422 H 0.24321 0.94477 0.8545 0.0
H423 H 0.20481 0.96737 0.90015 0.0
H424 H 0.26259 0.9499 0.75472 0.0
H425 H 0.25033 0.92599 0.67901 0.0
C426 C 0.11076 0.14653 0.80566 0.0
C427 C 0.07182 0.12752 0.79153 0.0
C428 C 0.06572 0.16346 0.67999 0.0
C429 C 0.10264 0.18529 0.69674 0.0
N430 N 0.16638 0.1901 0.76387 0.0
N431 N 0.01846 0.10778 0.71016 0.0
C432 C 0.12738 0.17399 0.75572 0.0
C433 C 0.05145 0.13258 0.72661 0.0
N434 N 0.13035 0.1404 0.8682 0.0
N435 N 0.04345 0.1738 0.62107 0.0
H436 H 0.0078 0.08478 0.74371 0.0
H437 H 0.00402 0.10739 0.66197 0.0
H438 H 0.05438 0.19481 0.58453 0.0
H439 H 0.01378 0.16279 0.60914 0.0
H440 H 0.15635 0.15688 0.88474 0.0
H441 H 0.11948 0.1197 0.90516 0.0
H442 H 0.18756 0.18094 0.80306 0.0
H443 H 0.17885 0.2103 0.72758 0.0
C444 C 0.85697 0.12995 0.82051 0.0
C445 C 0.87528 0.08984 0.82154 0.0
C446 C 0.8923 0.1002 0.70248 0.0
C447 C 0.8696 0.13797 0.69932 0.0
N448 N 0.8288 0.18883 0.75257 0.0
N449 N 0.91013 0.03584 0.76483 0.0
C450 C 0.85197 0.1532 0.75783 0.0
C451 C 0.89298 0.07472 0.76287 0.0
N452 N 0.8442 0.1456 0.87937 0.0
N453 N 0.91422 0.08946 0.64815 0.0
H454 H 0.91398 0.01737 0.80924 0.0
H455 H 0.91883 0.02081 0.72208 0.0
H456 H 0.91489 0.10782 0.60351 0.0
H457 H 0.93459 0.06439 0.64886 0.0
H458 H 0.83509 0.17627 0.8839 0.0
H459 H 0.84505 0.12848 0.92532 0.0
H460 H 0.81111 0.19933 0.79115 0.0
H461 H 0.82532 0.20703 0.70775 0.0
C462 C 0.88459 0.88731 0.83022 0.0
C463 C 0.92225 0.90517 0.8091 0.0
C464 C 0.91753 0.86758 0.7042 0.0
C465 C 0.8826 0.84611 0.729 0.0
N466 N 0.82468 0.84478 0.80104 0.0
N467 N 0.96602 0.92459 0.71839 0.0
C468 C 0.86318 0.85953 0.78704 0.0
C469 C 0.93553 0.89963 0.74291 0.0
N470 N 0.8711 0.89441 0.89328 0.0
N471 N 0.93535 0.85524 0.64692 0.0
H472 H 0.97902 0.94835 0.74668 0.0
H473 H 0.9754 0.92449 0.66869 0.0
H474 H 0.92262 0.83236 0.61668 0.0
H475 H 0.96367 0.86637 0.63077 0.0
H476 H 0.84677 0.87835 0.91506 0.0
H477 H 0.88531 0.91559 0.92524 0.0
H478 H 0.80715 0.85542 0.83974 0.0
H479 H 0.80876 0.82446 0.76934 0.0
C480 C 0.5744 0.62805 0.75074 0.0
C481 C 0.56218 0.58614 0.74531 0.0
C482 C 0.59297 0.56872 0.85855 0.0
C483 C 0.60243 0.61123 0.8658 0.0
N484 N 0.61489 0.67836 0.81335 0.0
N485 N 0.5711 0.51464 0.78298 0.0
C486 C 0.59732 0.63995 0.80983 0.0
C487 C 0.57552 0.55571 0.79547 0.0
N488 N 0.56296 0.65657 0.70017 0.0
N489 N 0.59818 0.54141 0.91304 0.0
H490 H 0.55787 0.50441 0.73753 0.0
H491 H 0.58361 0.49085 0.81488 0.0
H492 H 0.61176 0.54978 0.95942 0.0
H493 H 0.58716 0.51111 0.91353 0.0
H494 H 0.56626 0.68843 0.70444 0.0
H495 H 0.54883 0.64826 0.65408 0.0
H496 H 0.61556 0.69963 0.77235 0.0
H497 H 0.63239 0.68745 0.85598 0.0
C498 C 0.37715 0.55655 0.71646 0.0
C499 C 0.41194 0.52948 0.7209 0.0
C500 C 0.42035 0.53908 0.84312 0.0
C501 C 0.38716 0.56822 0.8378 0.0
N502 N 0.34075 0.61215 0.76726 0.0
N503 N 0.4715 0.50091 0.78432 0.0
C504 C 0.36763 0.57925 0.77371 0.0
C505 C 0.43512 0.52267 0.78306 0.0
N506 N 0.35207 0.55918 0.65863 0.0
N507 N 0.43625 0.52537 0.90548 0.0
H508 H 0.48329 0.48956 0.74049 0.0
H509 H 0.4917 0.49758 0.82692 0.0
H510 H 0.42611 0.53628 0.95082 0.0
H511 H 0.45711 0.50073 0.91268 0.0
H512 H 0.3237 0.57484 0.65526 0.0
H513 H 0.35822 0.5434 0.61514 0.0
H514 H 0.32888 0.62425 0.72056 0.0
H515 H 0.33363 0.62999 0.80804 0.0
C516 C 0.42279 0.35434 0.68542 0.0
C517 C 0.46104 0.3756 0.68097 0.0
C518 C 0.46691 0.37963 0.80482 0.0
C519 C 0.42741 0.36064 0.80888 0.0
N520 N 0.36436 0.33621 0.75373 0.0
N521 N 0.516 0.41534 0.73415 0.0
C522 C 0.40429 0.34989 0.74929 0.0
C523 C 0.48206 0.3903 0.74011 0.0
N524 N 0.40528 0.33656 0.62942 0.0
N525 N 0.49058 0.38608 0.86279 0.0
H526 H 0.5267 0.42573 0.6875 0.0
H527 H 0.53123 0.42933 0.77476 0.0
H528 H 0.48056 0.37895 0.9113 0.0
H529 H 0.52144 0.3955 0.86318 0.0
H530 H 0.38 0.31658 0.63108 0.0
H531 H 0.41795 0.33938 0.58182 0.0
H532 H 0.34437 0.33203 0.71161 0.0
H533 H 0.35004 0.33238 0.79985 0.0
C534 C 0.68281 0.42739 0.69323 0.0
C535 C 0.64078 0.4168 0.67829 0.0
C536 C 0.63827 0.37701 0.78498 0.0
C537 C 0.67944 0.38948 0.80284 0.0
N538 N 0.7452 0.41491 0.76527 0.0
N539 N 0.59238 0.36151 0.69029 0.0
C540 C 0.70329 0.41089 0.75392 0.0
C541 C 0.62252 0.3854 0.71809 0.0
N542 N 0.70241 0.45412 0.65004 0.0
N543 N 0.6131 0.35938 0.83179 0.0
H544 H 0.58773 0.36248 0.63808 0.0
H545 H 0.57905 0.33645 0.71618 0.0
H546 H 0.62181 0.35477 0.88297 0.0
H547 H 0.58183 0.35319 0.82048 0.0
H548 H 0.73126 0.46727 0.66129 0.0
H549 H 0.68874 0.46379 0.603 0.0
H550 H 0.76476 0.42749 0.7294 0.0
H551 H 0.76096 0.40205 0.80852 0.0
C552 C 0.59206 0.49185 0.21078 0.0
C553 C 0.60754 0.48078 0.27729 0.0
C554 C 0.65093 0.42666 0.2337 0.0
C555 C 0.63995 0.44153 0.16671 0.0
N556 N 0.60403 0.49189 0.0908 0.0
N557 N 0.6544 0.44073 0.35326 0.0
C558 C 0.61118 0.47482 0.15484 0.0
C559 C 0.63765 0.44893 0.28919 0.0
N560 N 0.55923 0.51869 0.2012 0.0
N561 N 0.67285 0.39047 0.24423 0.0
H562 H 0.64423 0.45514 0.39582 0.0
H563 H 0.68001 0.42139 0.36375 0.0
H564 H 0.68241 0.3729 0.20458 0.0
H565 H 0.67802 0.37579 0.29185 0.0
H566 H 0.54363 0.52452 0.15438 0.0
H567 H 0.54526 0.53255 0.2412 0.0
H568 H 0.58691 0.51897 0.08032 0.0
H569 H 0.61813 0.48122 0.0484 0.0
C570 C 0.57003 0.65872 0.31437 0.0
C571 C 0.53368 0.63683 0.29408 0.0
C572 C 0.52954 0.67578 0.18503 0.0
C573 C 0.56511 0.69862 0.20627 0.0
N574 N 0.62598 0.70413 0.28052 0.0
N575 N 0.4857 0.61577 0.20521 0.0
C576 C 0.58767 0.68736 0.26751 0.0
C577 C 0.51579 0.64243 0.22749 0.0
N578 N 0.5861 0.65426 0.37961 0.0
N579 N 0.50739 0.68756 0.12665 0.0
H580 H 0.47525 0.59106 0.23559 0.0
H581 H 0.47396 0.61568 0.15521 0.0
H582 H 0.51669 0.71143 0.09365 0.0
H583 H 0.4785 0.67536 0.11273 0.0
H584 H 0.60951 0.673 0.39956 0.0
H585 H 0.57422 0.63358 0.41563 0.0
H586 H 0.6458 0.69442 0.32129 0.0
H587 H 0.63961 0.72503 0.24654 0.0
C588 C 0.36164 0.52817 0.18883 0.0
C589 C 0.37227 0.54744 0.25018 0.0
C590 C 0.32198 0.60276 0.22008 0.0
C591 C 0.30508 0.57842 0.1675 0.0
N592 N 0.30879 0.51784 0.10002 0.0
N593 N 0.36482 0.60421 0.32421 0.0
C594 C 0.32554 0.54162 0.14996 0.0
C595 C 0.35388 0.58573 0.26502 0.0
N596 N 0.38583 0.49648 0.16897 0.0
N597 N 0.30715 0.64197 0.22696 0.0
H598 H 0.38897 0.59324 0.35713 0.0
H599 H 0.34888 0.62925 0.34226 0.0
H600 H 0.28396 0.65508 0.19404 0.0
H601 H 0.32028 0.66271 0.26073 0.0
H602 H 0.38197 0.48307 0.12206 0.0
H603 H 0.41246 0.48647 0.19722 0.0
H604 H 0.31961 0.48834 0.09052 0.0
H605 H 0.28233 0.5264 0.07038 0.0
C606 C 0.43097 0.38118 0.23038 0.0
C607 C 0.4718 0.39167 0.2123 0.0
C608 C 0.47188 0.33613 0.13194 0.0
C609 C 0.43357 0.32226 0.15699 0.0
N610 N 0.37021 0.33812 0.20945 0.0
N611 N 0.52503 0.38967 0.13178 0.0
C612 C 0.41076 0.34746 0.19887 0.0
C613 C 0.48995 0.37282 0.15748 0.0
N614 N 0.41309 0.40118 0.28126 0.0
N615 N 0.49219 0.31264 0.08794 0.0
H616 H 0.5382 0.41668 0.15054 0.0
H617 H 0.53883 0.37936 0.08895 0.0
H618 H 0.47905 0.28631 0.06704 0.0
H619 H 0.52234 0.31842 0.07349 0.0
H620 H 0.3855 0.39191 0.30254 0.0
H621 H 0.42679 0.42662 0.30404 0.0
H622 H 0.35055 0.35668 0.23565 0.0
H623 H 0.35531 0.31335 0.18625 0.0
loop_
_geom_bond_atom_site_label_1
_geom_bond_atom_site_label_2
_geom_bond_distance
_geom_bond_site_symmetry_2
_ccdc_geom_bond_type
Zn0 O2 1.933 1_556 S
Zn0 O20 1.985 . S
Zn0 O31 1.955 . S
Zn1 O2 1.911 . S
Zn1 O21 1.970 . S
Zn1 O37 1.945 . S
Zn1 O44 1.981 . S
O2 Zn0 1.933 1_554 S
O2 Zn1 1.911 . S
O2 H3 0.841 1_655 S
H3 O2 0.841 1_455 S
C4 O5 1.246 . S
C4 O33 1.254 1_545 S
O5 C4 1.246 . S
Zn6 O8 1.911 . S
Zn6 O23 1.970 . S
Zn6 O40 1.945 . S
Zn6 O47 1.981 . S
Zn7 O8 1.933 1_556 S
Zn7 O22 1.985 . S
Zn7 O29 1.955 . S
O8 Zn6 1.911 . S
O8 Zn7 1.933 1_554 S
O8 H9 0.841 1_455 S
H9 O8 0.841 1_655 S
Zn10 O11 1.933 1_556 S
Zn10 O24 1.985 . S
Zn10 O33 1.963 . S
O11 Zn10 1.933 1_554 S
O11 Zn12 1.911 . S
O11 H13 0.841 1_565 S
Zn12 O11 1.911 . S
Zn12 O25 1.970 . S
Zn12 O41 1.981 . S
Zn12 O43 1.945 . S
H13 O11 0.841 1_545 S
Zn14 O15 1.933 1_556 S
Zn14 O27 1.985 . S
Zn14 O35 1.955 . S
O15 Zn14 1.933 1_554 S
O15 H16 0.841 1_545 S
O15 Zn17 1.911 . S
H16 O15 0.841 1_565 S
Zn17 O15 1.911 . S
Zn17 O28 1.970 . S
Zn17 O38 1.981 . S
Zn17 O46 1.945 . S
C18 O19 1.246 . S
C18 O35 1.276 1_565 S
O19 C18 1.246 . S
O20 Zn0 1.985 . S
O20 C30 1.245 1_556 S
O21 Zn1 1.970 . S
O21 C30 1.263 . S
O22 Zn7 1.985 . S
O22 C34 1.245 1_556 S
O23 Zn6 1.970 . S
O23 C34 1.263 . S
O24 Zn10 1.985 . S
O24 C39 1.245 1_556 S
O25 Zn12 1.970 . S
O25 C39 1.263 . S
C26 O37 1.262 1_455 S
C26 O38 1.245 . S
O27 Zn14 1.985 . S
O27 C45 1.245 1_556 S
O28 Zn17 1.970 . S
O28 C45 1.263 . S
O29 Zn7 1.955 . S
O29 C48 1.276 1_455 S
C30 O20 1.245 1_554 S
C30 O21 1.263 . S
O31 Zn0 1.955 . S
O31 C50 1.276 1_655 S
C32 O40 1.262 1_655 S
C32 O41 1.245 . S
O33 C4 1.254 1_565 S
O33 Zn10 1.963 . S
C34 O22 1.245 1_554 S
C34 O23 1.263 . S
O35 Zn14 1.955 . S
O35 C18 1.276 1_545 S
C36 O43 1.262 1_545 S
C36 O44 1.245 . S
O37 Zn1 1.945 . S
O37 C26 1.262 1_655 S
O38 Zn17 1.981 . S
O38 C26 1.245 . S
C39 O24 1.245 1_554 S
C39 O25 1.263 . S
O40 Zn6 1.945 . S
O40 C32 1.262 1_455 S
O41 Zn12 1.981 . S
O41 C32 1.245 . S
C42 O46 1.262 1_565 S
C42 O47 1.245 . S
O43 Zn12 1.945 . S
O43 C36 1.262 1_565 S
O44 Zn1 1.981 . S
O44 C36 1.245 . S
C45 O27 1.245 1_554 S
C45 O28 1.263 . S
O46 Zn17 1.945 . S
O46 C42 1.262 1_545 S
O47 Zn6 1.981 . S
O47 C42 1.245 . S
C48 O29 1.276 1_655 S
C48 O49 1.246 . S
O49 C48 1.246 . S
C50 O31 1.276 1_455 S
C50 O51 1.246 . S
O51 C50 1.246 . S
Zn52 O54 1.933 . S
Zn52 O72 1.985 . S
Zn52 O83 1.955 . S
Zn53 O54 1.911 . S
Zn53 O73 1.970 . S
Zn53 O89 1.945 . S
Zn53 O96 1.981 . S
O54 Zn52 1.933 . S
O54 Zn53 1.911 . S
O54 H55 0.841 . S
H55 O54 0.841 . S
C56 O57 1.246 . S
C56 O85 1.276 . S
O57 C56 1.246 . S
Zn58 O60 1.911 . S
Zn58 O75 1.970 . S
Zn58 O92 1.945 . S
Zn58 O99 1.981 . S
Zn59 O60 1.933 . S
Zn59 O74 1.985 . S
Zn59 O81 1.955 . S
O60 Zn58 1.911 . S
O60 Zn59 1.933 . S
O60 H61 0.841 . S
H61 O60 0.841 . S
Zn62 O63 1.933 . S
Zn62 O76 1.985 . S
Zn62 O85 1.955 . S
O63 Zn62 1.933 . S
O63 Zn64 1.911 . S
O63 H65 0.841 . S
Zn64 O63 1.911 . S
Zn64 O77 1.970 . S
Zn64 O93 1.981 . S
Zn64 O95 1.945 . S
H65 O63 0.841 . S
Zn66 O67 1.933 . S
Zn66 O79 1.985 . S
Zn66 O87 1.955 . S
O67 Zn66 1.933 . S
O67 H68 0.841 . S
O67 Zn69 1.911 . S
H68 O67 0.841 . S
Zn69 O67 1.911 . S
Zn69 O80 1.970 . S
Zn69 O90 1.981 . S
Zn69 O98 1.945 . S
C70 O71 1.246 . S
C70 O87 1.276 . S
O71 C70 1.246 . S
O72 Zn52 1.985 . S
O72 C82 1.245 . S
O73 Zn53 1.970 . S
O73 C82 1.263 . S
O74 Zn59 1.985 . S
O74 C86 1.245 . S
O75 Zn58 1.970 . S
O75 C86 1.263 . S
O76 Zn62 1.985 . S
O76 C91 1.245 . S
O77 Zn64 1.970 . S
O77 C91 1.263 . S
C78 O89 1.262 . S
C78 O90 1.245 . S
O79 Zn66 1.985 . S
O79 C97 1.245 . S
O80 Zn69 1.970 . S
O80 C97 1.263 . S
O81 Zn59 1.955 . S
O81 C100 1.276 . S
C82 O72 1.245 . S
C82 O73 1.263 . S
O83 Zn52 1.955 . S
O83 C102 1.276 . S
C84 O92 1.262 . S
C84 O93 1.245 . S
O85 C56 1.276 . S
O85 Zn62 1.955 . S
C86 O74 1.245 . S
C86 O75 1.263 . S
O87 Zn66 1.955 . S
O87 C70 1.276 . S
C88 O95 1.262 . S
C88 O96 1.245 . S
O89 Zn53 1.945 . S
O89 C78 1.262 . S
O90 Zn69 1.981 . S
O90 C78 1.245 . S
C91 O76 1.245 . S
C91 O77 1.263 . S
O92 Zn58 1.945 . S
O92 C84 1.262 . S
O93 Zn64 1.981 . S
O93 C84 1.245 . S
C94 O98 1.262 . S
C94 O99 1.245 . S
O95 Zn64 1.945 . S
O95 C88 1.262 . S
O96 Zn53 1.981 . S
O96 C88 1.245 . S
C97 O79 1.245 . S
C97 O80 1.263 . S
O98 Zn69 1.945 . S
O98 C94 1.262 . S
O99 Zn58 1.981 . S
O99 C94 1.245 . S
C100 O81 1.276 . S
C100 O101 1.246 . S
O101 C100 1.246 . S
C102 O83 1.276 . S
C102 O103 1.246 . S
O103 C102 1.246 . S
O104 Cd105 2.300 . S
O104 C111 1.275 . S
Cd105 O104 2.300 . S
Cd105 O113 2.381 . S
Cd105 O114 2.378 . S
O106 Cd107 2.385 . S
O106 C111 1.255 . S
Cd107 O106 2.385 . S
Cd107 O108 2.317 1_554 S
O108 Cd107 2.317 1_556 S
O108 C109 1.232 . S
C109 O108 1.232 . S
C109 O110 1.218 . S
O110 C109 1.218 . S
C111 O104 1.275 . S
C111 O106 1.255 . S
C112 O113 1.258 . S
C112 O114 1.256 . S
O113 Cd105 2.381 . S
O113 C112 1.258 . S
O114 Cd105 2.378 . S
O114 C112 1.256 . S
O115 Cd116 2.300 . S
O115 C122 1.275 . S
Cd116 O115 2.300 . S
Cd116 O124 2.381 . S
Cd116 O125 2.378 1_556 S
O117 Cd118 2.385 1_556 S
O117 C122 1.255 . S
Cd118 O117 2.385 1_554 S
Cd118 O119 2.317 . S
O119 Cd118 2.317 . S
O119 C120 1.232 . S
C120 O119 1.232 . S
C120 O121 1.218 . S
O121 C120 1.218 . S
C122 O115 1.275 . S
C122 O117 1.255 . S
C123 O124 1.266 . S
C123 O125 1.246 1_556 S
O124 Cd116 2.381 . S
O124 C123 1.266 . S
O125 Cd116 2.378 1_554 S
O125 C123 1.246 1_554 S
O126 Cd127 2.300 . S
O126 C133 1.275 . S
Cd127 O126 2.300 . S
Cd127 O135 2.381 . S
Cd127 O136 2.378 . S
O128 Cd129 2.385 . S
O128 C133 1.255 . S
Cd129 O128 2.385 . S
Cd129 O130 2.317 1_554 S
O130 Cd129 2.317 1_556 S
O130 C131 1.232 . S
C131 O130 1.232 . S
C131 O132 1.218 . S
O132 C131 1.218 . S
C133 O126 1.275 . S
C133 O128 1.255 . S
C134 O135 1.258 . S
C134 O136 1.256 . S
O135 Cd127 2.381 . S
O135 C134 1.258 . S
O136 Cd127 2.378 . S
O136 C134 1.256 . S
O137 Cd138 2.300 . S
O137 C144 1.275 . S
Cd138 O137 2.300 . S
Cd138 O146 2.381 . S
Cd138 O147 2.378 . S
O139 Cd140 2.392 . S
O139 C144 1.255 . S
Cd140 O139 2.392 . S
Cd140 O141 2.311 1_554 S
O141 Cd140 2.311 1_556 S
O141 C142 1.232 . S
C142 O141 1.232 . S
C142 O143 1.218 . S
O143 C142 1.218 . S
C144 O137 1.275 . S
C144 O139 1.255 . S
C145 O146 1.258 . S
C145 O147 1.256 . S
O146 Cd138 2.381 . S
O146 C145 1.258 . S
O147 Cd138 2.378 . S
O147 C145 1.256 . S
O148 Cd149 2.300 . S
O148 C155 1.275 . S
Cd149 O148 2.300 . S
Cd149 O157 2.381 . S
Cd149 O158 2.378 . S
O150 Cd151 2.385 . S
O150 C155 1.255 . S
Cd151 O150 2.385 . S
Cd151 O152 2.317 . S
O152 Cd151 2.317 . S
O152 C153 1.232 . S
C153 O152 1.232 . S
C153 O154 1.218 . S
O154 C153 1.218 . S
C155 O148 1.275 . S
C155 O150 1.255 . S
C156 O157 1.258 . S
C156 O158 1.256 . S
O157 Cd149 2.381 . S
O157 C156 1.258 . S
O158 Cd149 2.378 . S
O158 C156 1.256 . S
O159 Cd160 2.300 . S
O159 C166 1.275 . S
Cd160 O159 2.300 . S
Cd160 O168 2.381 . S
Cd160 O169 2.378 . S
O161 Cd162 2.385 . S
O161 C166 1.255 . S
Cd162 O161 2.385 . S
Cd162 O163 2.317 . S
O163 Cd162 2.317 . S
O163 C164 1.232 . S
C164 O163 1.232 . S
C164 O165 1.218 . S
O165 C164 1.218 . S
C166 O159 1.275 . S
C166 O161 1.255 . S
C167 O168 1.258 . S
C167 O169 1.256 . S
O168 Cd160 2.381 . S
O168 C167 1.258 . S
O169 Cd160 2.378 . S
O169 C167 1.256 . S
O170 Cd171 2.300 . S
O170 C177 1.275 . S
Cd171 O170 2.300 . S
Cd171 O179 2.381 . S
Cd171 O180 2.378 . S
O172 Cd173 2.385 . S
O172 C177 1.255 . S
Cd173 O172 2.385 . S
Cd173 O174 2.317 . S
O174 Cd173 2.317 . S
O174 C175 1.232 . S
C175 O174 1.232 . S
C175 O176 1.218 . S
O176 C175 1.218 . S
C177 O170 1.275 . S
C177 O172 1.255 . S
C178 O179 1.258 . S
C178 O180 1.256 . S
O179 Cd171 2.381 . S
O179 C178 1.258 . S
O180 Cd171 2.378 . S
O180 C178 1.256 . S
O181 Cd182 2.300 . S
O181 C188 1.275 . S
Cd182 O181 2.300 . S
Cd182 O190 2.381 . S
Cd182 O191 2.378 . S
O183 Cd184 2.385 . S
O183 C188 1.255 . S
Cd184 O183 2.385 . S
Cd184 O185 2.317 . S
O185 Cd184 2.317 . S
O185 C186 1.232 . S
C186 O185 1.232 . S
C186 O187 1.218 . S
O187 C186 1.218 . S
C188 O181 1.275 . S
C188 O183 1.255 . S
C189 O190 1.258 . S
C189 O191 1.256 . S
O190 Cd182 2.381 . S
O190 C189 1.258 . S
O191 Cd182 2.378 . S
O191 C189 1.256 . S
C192 C193 1.363 . S
C192 C198 1.379 . S
C192 N200 1.356 . S
C193 C192 1.363 . S
C193 C199 1.363 1_554 S
C194 C195 1.363 . S
C194 C199 1.379 1_554 S
C194 N201 1.356 1_554 S
C195 C194 1.363 . S
C195 C198 1.363 . S
N196 C198 1.356 . S
N196 H208 0.984 . S
N196 H209 0.985 . S
N197 C199 1.356 . S
N197 H202 0.984 . S
N197 H203 0.985 . S
C198 C192 1.379 . S
C198 C195 1.363 . S
C198 N196 1.356 . S
C199 C193 1.363 1_556 S
C199 C194 1.379 1_556 S
C199 N197 1.356 . S
N200 C192 1.356 . S
N200 H206 0.984 . S
N200 H207 0.984 . S
N201 C194 1.356 1_556 S
N201 H204 0.984 . S
N201 H205 0.985 . S
H202 N197 0.984 . S
H203 N197 0.985 . S
H204 N201 0.984 . S
H205 N201 0.985 . S
H206 N200 0.984 . S
H207 N200 0.984 . S
H208 N196 0.984 . S
H209 N196 0.985 . S
C210 C211 1.363 1_556 S
C210 C216 1.379 . S
C210 N218 1.356 . S
C211 C210 1.363 1_554 S
C211 C217 1.363 . S
C212 C213 1.363 . S
C212 C217 1.379 . S
C212 N219 1.356 . S
C213 C212 1.363 . S
C213 C216 1.363 1_554 S
N214 C216 1.356 . S
N214 H226 0.984 . S
N214 H227 0.985 . S
N215 C217 1.356 . S
N215 H220 0.984 . S
N215 H221 0.985 . S
C216 C210 1.379 . S
C216 C213 1.363 1_556 S
C216 N214 1.356 . S
C217 C211 1.363 . S
C217 C212 1.379 . S
C217 N215 1.356 . S
N218 C210 1.356 . S
N218 H224 0.984 . S
N218 H225 0.984 . S
N219 C212 1.356 . S
N219 H222 0.984 . S
N219 H223 0.985 . S
H220 N215 0.984 . S
H221 N215 0.985 . S
H222 N219 0.984 . S
H223 N219 0.985 . S
H224 N218 0.984 . S
H225 N218 0.984 . S
H226 N214 0.984 . S
H227 N214 0.985 . S
C228 C229 1.363 1_556 S
C228 C234 1.379 . S
C228 N236 1.356 . S
C229 C228 1.363 1_554 S
C229 C235 1.363 . S
C230 C231 1.363 . S
C230 C235 1.379 . S
C230 N237 1.356 . S
C231 C230 1.363 . S
C231 C234 1.363 1_554 S
N232 C234 1.356 . S
N232 H244 0.984 . S
N232 H245 0.985 . S
N233 C235 1.356 . S
N233 H238 0.984 . S
N233 H239 0.985 . S
C234 C228 1.379 . S
C234 C231 1.363 1_556 S
C234 N232 1.356 . S
C235 C229 1.363 . S
C235 C230 1.379 . S
C235 N233 1.356 . S
N236 C228 1.356 . S
N236 H242 0.984 . S
N236 H243 0.984 . S
N237 C230 1.356 . S
N237 H240 0.984 . S
N237 H241 0.985 . S
H238 N233 0.984 . S
H239 N233 0.985 . S
H240 N237 0.984 . S
H241 N237 0.985 . S
H242 N236 0.984 . S
H243 N236 0.984 . S
H244 N232 0.984 . S
H245 N232 0.985 . S
C246 C247 1.363 1_556 S
C246 C252 1.379 . S
C246 N254 1.356 . S
C247 C246 1.363 1_554 S
C247 C253 1.363 . S
C248 C249 1.363 . S
C248 C253 1.379 . S
C248 N255 1.356 . S
C249 C248 1.363 . S
C249 C252 1.361 1_554 S
N250 C252 1.358 . S
N250 H262 0.984 . S
N250 H263 0.985 . S
N251 C253 1.356 . S
N251 H256 0.984 . S
N251 H257 0.985 . S
C252 C246 1.379 . S
C252 C249 1.361 1_556 S
C252 N250 1.358 . S
C253 C247 1.363 . S
C253 C248 1.379 . S
C253 N251 1.356 . S
N254 C246 1.356 . S
N254 H260 0.984 . S
N254 H261 0.984 . S
N255 C248 1.356 . S
N255 H258 0.984 . S
N255 H259 0.985 . S
H256 N251 0.984 . S
H257 N251 0.985 . S
H258 N255 0.984 . S
H259 N255 0.985 . S
H260 N254 0.984 . S
H261 N254 0.984 . S
H262 N250 0.984 . S
H263 N250 0.985 . S
C264 C265 1.363 . S
C264 C270 1.379 . S
C264 N272 1.356 . S
C265 C264 1.363 . S
C265 C271 1.363 . S
C266 C267 1.363 . S
C266 C271 1.379 . S
C266 N273 1.356 . S
C267 C266 1.363 . S
C267 C270 1.363 . S
N268 C270 1.356 . S
N268 H280 0.984 . S
N268 H281 0.985 . S
N269 C271 1.356 . S
N269 H274 0.984 . S
N269 H275 0.985 . S
C270 C264 1.379 . S
C270 C267 1.363 . S
C270 N268 1.356 . S
C271 C265 1.363 . S
C271 C266 1.379 . S
C271 N269 1.356 . S
N272 C264 1.356 . S
N272 H278 0.984 . S
N272 H279 0.984 . S
N273 C266 1.356 . S
N273 H276 0.984 . S
N273 H277 0.985 . S
H274 N269 0.984 . S
H275 N269 0.985 . S
H276 N273 0.984 . S
H277 N273 0.985 . S
H278 N272 0.984 . S
H279 N272 0.984 . S
H280 N268 0.984 . S
H281 N268 0.985 . S
C282 C283 1.363 . S
C282 C288 1.379 . S
C282 N290 1.356 . S
C283 C282 1.363 . S
C283 C289 1.363 . S
C284 C285 1.363 . S
C284 C289 1.379 . S
C284 N291 1.356 . S
C285 C284 1.363 . S
C285 C288 1.363 . S
N286 C288 1.356 . S
N286 H298 0.984 . S
N286 H299 0.985 . S
N287 C289 1.356 . S
N287 H292 0.984 . S
N287 H293 0.985 . S
C288 C282 1.379 . S
C288 C285 1.363 . S
C288 N286 1.356 . S
C289 C283 1.363 . S
C289 C284 1.379 . S
C289 N287 1.356 . S
N290 C282 1.356 . S
N290 H296 0.984 . S
N290 H297 0.984 . S
N291 C284 1.356 . S
N291 H294 0.984 . S
N291 H295 0.985 . S
H292 N287 0.984 . S
H293 N287 0.985 . S
H294 N291 0.984 . S
H295 N291 0.985 . S
H296 N290 0.984 . S
H297 N290 0.984 . S
H298 N286 0.984 . S
H299 N286 0.985 . S
C300 C301 1.363 . S
C300 C306 1.379 . S
C300 N308 1.356 . S
C301 C300 1.363 . S
C301 C307 1.363 . S
C302 C303 1.363 . S
C302 C307 1.379 . S
C302 N309 1.356 . S
C303 C302 1.363 . S
C303 C306 1.363 . S
N304 C306 1.356 . S
N304 H316 0.984 . S
N304 H317 0.985 . S
N305 C307 1.356 . S
N305 H310 0.984 . S
N305 H311 0.985 . S
C306 C300 1.379 . S
C306 C303 1.363 . S
C306 N304 1.356 . S
C307 C301 1.363 . S
C307 C302 1.379 . S
C307 N305 1.356 . S
N308 C300 1.356 . S
N308 H314 0.984 . S
N308 H315 0.984 . S
N309 C302 1.356 . S
N309 H312 0.984 . S
N309 H313 0.985 . S
H310 N305 0.984 . S
H311 N305 0.985 . S
H312 N309 0.984 . S
H313 N309 0.985 . S
H314 N308 0.984 . S
H315 N308 0.984 . S
H316 N304 0.984 . S
H317 N304 0.985 . S
C318 C319 1.363 . S
C318 C324 1.379 . S
C318 N326 1.356 . S
C319 C318 1.363 . S
C319 C325 1.363 . S
C320 C321 1.363 . S
C320 C325 1.379 . S
C320 N327 1.356 . S
C321 C320 1.363 . S
C321 C324 1.363 . S
N322 C324 1.356 . S
N322 H334 0.984 . S
N322 H335 0.985 . S
N323 C325 1.356 . S
N323 H328 0.984 . S
N323 H329 0.985 . S
C324 C318 1.379 . S
C324 C321 1.363 . S
C324 N322 1.356 . S
C325 C319 1.363 . S
C325 C320 1.379 . S
C325 N323 1.356 . S
N326 C318 1.356 . S
N326 H332 0.984 . S
N326 H333 0.984 . S
N327 C320 1.356 . S
N327 H330 0.984 . S
N327 H331 0.985 . S
H328 N323 0.984 . S
H329 N323 0.985 . S
H330 N327 0.984 . S
H331 N327 0.985 . S
H332 N326 0.984 . S
H333 N326 0.984 . S
H334 N322 0.984 . S
H335 N322 0.985 . S
C336 C337 1.363 . S
C336 C342 1.379 . S
C336 N344 1.356 . S
C337 C336 1.363 . S
C337 C343 1.363 . S
C338 C339 1.363 . S
C338 C343 1.379 . S
C338 N345 1.356 . S
C339 C338 1.363 . S
C339 C342 1.363 . S
N340 C342 1.356 . S
N340 H352 0.984 . S
N340 H353 0.985 . S
N341 C343 1.356 . S
N341 H346 0.984 . S
N341 H347 0.985 . S
C342 C336 1.379 . S
C342 C339 1.363 . S
C342 N340 1.356 . S
C343 C337 1.363 . S
C343 C338 1.379 . S
C343 N341 1.356 . S
N344 C336 1.356 . S
N344 H350 0.984 . S
N344 H351 0.984 . S
N345 C338 1.356 . S
N345 H348 0.984 . S
N345 H349 0.985 . S
H346 N341 0.984 . S
H347 N341 0.985 . S
H348 N345 0.984 . S
H349 N345 0.985 . S
H350 N344 0.984 . S
H351 N344 0.984 . S
H352 N340 0.984 . S
H353 N340 0.985 . S
C354 C355 1.363 . S
C354 C360 1.379 . S
C354 N362 1.356 . S
C355 C354 1.363 . S
C355 C361 1.363 . S
C356 C357 1.363 . S
C356 C361 1.379 . S
C356 N363 1.356 . S
C357 C356 1.363 . S
C357 C360 1.363 . S
N358 C360 1.356 . S
N358 H370 0.984 . S
N358 H371 0.985 . S
N359 C361 1.356 1_565 S
N359 H364 0.983 1_565 S
N359 H365 0.985 . S
C360 C354 1.379 . S
C360 C357 1.363 . S
C360 N358 1.356 . S
C361 C355 1.363 . S
C361 C356 1.379 . S
C361 N359 1.356 1_545 S
N362 C354 1.356 . S
N362 H368 0.984 . S
N362 H369 0.984 . S
N363 C356 1.356 . S
N363 H366 0.984 . S
N363 H367 0.985 1_545 S
H364 N359 0.983 1_545 S
H365 N359 0.985 . S
H366 N363 0.984 . S
H367 N363 0.985 1_565 S
H368 N362 0.984 . S
H369 N362 0.984 . S
H370 N358 0.984 . S
H371 N358 0.985 . S
C372 C373 1.363 . S
C372 C378 1.379 . S
C372 N380 1.370 . S
C373 C372 1.363 . S
C373 C379 1.363 . S
C374 C375 1.363 . S
C374 C379 1.379 . S
C374 N381 1.356 . S
C375 C374 1.363 . S
C375 C378 1.363 . S
N376 C378 1.356 . S
N376 H388 0.984 1_655 S
N376 H389 0.985 . S
N377 C379 1.356 . S
N377 H382 0.984 . S
N377 H383 0.985 . S
C378 C372 1.379 . S
C378 C375 1.363 . S
C378 N376 1.356 . S
C379 C373 1.363 . S
C379 C374 1.379 . S
C379 N377 1.356 . S
N380 C372 1.370 . S
N380 H386 0.971 1_655 S
N380 H387 0.986 . S
N381 C374 1.356 . S
N381 H384 0.984 . S
N381 H385 0.985 . S
H382 N377 0.984 . S
H383 N377 0.985 . S
H384 N381 0.984 . S
H385 N381 0.985 . S
H386 N380 0.971 1_455 S
H387 N380 0.986 . S
H388 N376 0.984 1_455 S
H389 N376 0.985 . S
C390 C391 1.363 . S
C390 C396 1.379 . S
C390 N398 1.356 . S
C391 C390 1.363 . S
C391 C397 1.363 . S
C392 C393 1.363 . S
C392 C397 1.379 . S
C392 N399 1.356 . S
C393 C392 1.363 . S
C393 C396 1.363 . S
N394 C396 1.356 . S
N394 H406 0.984 . S
N394 H407 0.985 . S
N395 C397 1.356 . S
N395 H400 0.984 . S
N395 H401 0.985 . S
C396 C390 1.379 . S
C396 C393 1.363 . S
C396 N394 1.356 . S
C397 C391 1.363 . S
C397 C392 1.379 . S
C397 N395 1.356 . S
N398 C390 1.356 . S
N398 H404 0.984 . S
N398 H405 0.984 . S
N399 C392 1.356 . S
N399 H402 0.984 . S
N399 H403 0.985 . S
H400 N395 0.984 . S
H401 N395 0.985 . S
H402 N399 0.984 . S
H403 N399 0.985 . S
H404 N398 0.984 . S
H405 N398 0.984 . S
H406 N394 0.984 . S
H407 N394 0.985 . S
C408 C409 1.363 . S
C408 C414 1.379 . S
C408 N416 1.356 . S
C409 C408 1.363 . S
C409 C415 1.363 . S
C410 C411 1.363 . S
C410 C415 1.379 . S
C410 N417 1.356 1_565 S
C411 C410 1.363 . S
C411 C414 1.363 . S
N412 C414 1.356 . S
N412 H424 0.984 . S
N412 H425 0.985 . S
N413 C415 1.356 1_545 S
N413 H418 0.984 . S
N413 H419 0.985 . S
C414 C408 1.379 . S
C414 C411 1.363 . S
C414 N412 1.356 . S
C415 C409 1.363 . S
C415 C410 1.379 . S
C415 N413 1.356 1_565 S
N416 C408 1.356 . S
N416 H422 0.984 . S
N416 H423 0.984 . S
N417 C410 1.356 1_545 S
N417 H420 0.984 1_545 S
N417 H421 0.985 . S
H418 N413 0.984 . S
H419 N413 0.985 . S
H420 N417 0.984 1_565 S
H421 N417 0.985 . S
H422 N416 0.984 . S
H423 N416 0.984 . S
H424 N412 0.984 . S
H425 N412 0.985 . S
C426 C427 1.363 . S
C426 C432 1.379 . S
C426 N434 1.356 . S
C427 C426 1.363 . S
C427 C433 1.363 . S
C428 C429 1.363 . S
C428 C433 1.379 . S
C428 N435 1.356 . S
C429 C428 1.363 . S
C429 C432 1.363 . S
N430 C432 1.356 . S
N430 H442 0.984 . S
N430 H443 0.985 . S
N431 C433 1.356 1_655 S
N431 H436 0.984 . S
N431 H437 0.985 . S
C432 C426 1.379 . S
C432 C429 1.363 . S
C432 N430 1.356 . S
C433 C427 1.363 . S
C433 C428 1.379 . S
C433 N431 1.356 1_455 S
N434 C426 1.356 . S
N434 H440 0.984 . S
N434 H441 0.984 . S
N435 C428 1.356 . S
N435 H438 0.984 . S
N435 H439 0.985 1_455 S
H436 N431 0.984 . S
H437 N431 0.985 . S
H438 N435 0.984 . S
H439 N435 0.985 1_655 S
H440 N434 0.984 . S
H441 N434 0.984 . S
H442 N430 0.984 . S
H443 N430 0.985 . S
C444 C445 1.363 . S
C444 C450 1.379 . S
C444 N452 1.356 . S
C445 C444 1.363 . S
C445 C451 1.363 . S
C446 C447 1.363 . S
C446 C451 1.379 . S
C446 N453 1.356 . S
C447 C446 1.363 . S
C447 C450 1.363 . S
N448 C450 1.356 . S
N448 H460 0.984 . S
N448 H461 0.985 . S
N449 C451 1.356 1_565 S
N449 H454 0.984 . S
N449 H455 0.985 . S
C450 C444 1.379 . S
C450 C447 1.363 . S
C450 N448 1.356 . S
C451 C445 1.363 . S
C451 C446 1.379 . S
C451 N449 1.356 1_545 S
N452 C444 1.356 . S
N452 H458 0.984 . S
N452 H459 0.984 . S
N453 C446 1.356 . S
N453 H456 0.984 . S
N453 H457 0.985 1_545 S
H454 N449 0.984 . S
H455 N449 0.985 . S
H456 N453 0.984 . S
H457 N453 0.985 1_565 S
H458 N452 0.984 . S
H459 N452 0.984 . S
H460 N448 0.984 . S
H461 N448 0.985 . S
C462 C463 1.363 . S
C462 C468 1.379 . S
C462 N470 1.356 . S
C463 C462 1.363 . S
C463 C469 1.363 . S
C464 C465 1.363 . S
C464 C469 1.379 . S
C464 N471 1.356 . S
C465 C464 1.363 . S
C465 C468 1.363 . S
N466 C468 1.356 . S
N466 H478 0.984 . S
N466 H479 0.985 . S
N467 C469 1.356 1_455 S
N467 H472 0.984 . S
N467 H473 0.985 . S
C468 C462 1.379 . S
C468 C465 1.363 . S
C468 N466 1.356 . S
C469 C463 1.363 . S
C469 C464 1.379 . S
C469 N467 1.356 1_655 S
N470 C462 1.356 . S
N470 H476 0.984 . S
N470 H477 0.984 . S
N471 C464 1.356 . S
N471 H474 0.984 . S
N471 H475 0.985 1_655 S
H472 N467 0.984 . S
H473 N467 0.985 . S
H474 N471 0.984 . S
H475 N471 0.985 1_455 S
H476 N470 0.984 . S
H477 N470 0.984 . S
H478 N466 0.984 . S
H479 N466 0.985 . S
C480 C481 1.363 . S
C480 C486 1.379 . S
C480 N488 1.356 . S
C481 C480 1.363 . S
C481 C487 1.363 . S
C482 C483 1.363 . S
C482 C487 1.379 . S
C482 N489 1.356 . S
C483 C482 1.363 . S
C483 C486 1.363 . S
N484 C486 1.356 . S
N484 H496 0.984 . S
N484 H497 0.985 . S
N485 C487 1.356 . S
N485 H490 0.984 . S
N485 H491 0.985 . S
C486 C480 1.379 . S
C486 C483 1.363 . S
C486 N484 1.356 . S
C487 C481 1.363 . S
C487 C482 1.379 . S
C487 N485 1.356 . S
N488 C480 1.356 . S
N488 H494 0.984 . S
N488 H495 0.984 . S
N489 C482 1.356 . S
N489 H492 0.984 . S
N489 H493 0.985 . S
H490 N485 0.984 . S
H491 N485 0.985 . S
H492 N489 0.984 . S
H493 N489 0.985 . S
H494 N488 0.984 . S
H495 N488 0.984 . S
H496 N484 0.984 . S
H497 N484 0.985 . S
C498 C499 1.363 . S
C498 C504 1.379 . S
C498 N506 1.356 . S
C499 C498 1.363 . S
C499 C505 1.363 . S
C500 C501 1.363 . S
C500 C505 1.379 . S
C500 N507 1.356 . S
C501 C500 1.363 . S
C501 C504 1.363 . S
N502 C504 1.356 . S
N502 H514 0.984 . S
N502 H515 0.985 . S
N503 C505 1.356 . S
N503 H508 0.984 . S
N503 H509 0.985 . S
C504 C498 1.379 . S
C504 C501 1.363 . S
C504 N502 1.356 . S
C505 C499 1.363 . S
C505 C500 1.379 . S
C505 N503 1.356 . S
N506 C498 1.356 . S
N506 H512 0.984 . S
N506 H513 0.984 . S
N507 C500 1.356 . S
N507 H510 0.984 . S
N507 H511 0.985 . S
H508 N503 0.984 . S
H509 N503 0.985 . S
H510 N507 0.984 . S
H511 N507 0.985 . S
H512 N506 0.984 . S
H513 N506 0.984 . S
H514 N502 0.984 . S
H515 N502 0.985 . S
C516 C517 1.363 . S
C516 C522 1.379 . S
C516 N524 1.356 . S
C517 C516 1.363 . S
C517 C523 1.363 . S
C518 C519 1.363 . S
C518 C523 1.379 . S
C518 N525 1.356 . S
C519 C518 1.363 . S
C519 C522 1.363 . S
N520 C522 1.356 . S
N520 H532 0.984 . S
N520 H533 0.985 . S
N521 C523 1.356 . S
N521 H526 0.984 . S
N521 H527 0.985 . S
C522 C516 1.379 . S
C522 C519 1.363 . S
C522 N520 1.356 . S
C523 C517 1.363 . S
C523 C518 1.379 . S
C523 N521 1.356 . S
N524 C516 1.356 . S
N524 H530 0.984 . S
N524 H531 0.984 . S
N525 C518 1.356 . S
N525 H528 0.984 . S
N525 H529 0.985 . S
H526 N521 0.984 . S
H527 N521 0.985 . S
H528 N525 0.984 . S
H529 N525 0.985 . S
H530 N524 0.984 . S
H531 N524 0.984 . S
H532 N520 0.984 . S
H533 N520 0.985 . S
C534 C535 1.363 . S
C534 C540 1.379 . S
C534 N542 1.356 . S
C535 C534 1.363 . S
C535 C541 1.363 . S
C536 C537 1.363 . S
C536 C541 1.379 . S
C536 N543 1.356 . S
C537 C536 1.363 . S
C537 C540 1.363 . S
N538 C540 1.356 . S
N538 H550 0.984 . S
N538 H551 0.985 . S
N539 C541 1.356 . S
N539 H544 0.984 . S
N539 H545 0.985 . S
C540 C534 1.379 . S
C540 C537 1.363 . S
C540 N538 1.356 . S
C541 C535 1.363 . S
C541 C536 1.379 . S
C541 N539 1.356 . S
N542 C534 1.356 . S
N542 H548 0.984 . S
N542 H549 0.984 . S
N543 C536 1.356 . S
N543 H546 0.984 . S
N543 H547 0.985 . S
H544 N539 0.984 . S
H545 N539 0.985 . S
H546 N543 0.984 . S
H547 N543 0.985 . S
H548 N542 0.984 . S
H549 N542 0.984 . S
H550 N538 0.984 . S
H551 N538 0.985 . S
C552 C553 1.363 . S
C552 C558 1.379 . S
C552 N560 1.356 . S
C553 C552 1.363 . S
C553 C559 1.363 . S
C554 C555 1.363 . S
C554 C559 1.379 . S
C554 N561 1.356 . S
C555 C554 1.363 . S
C555 C558 1.363 . S
N556 C558 1.356 . S
N556 H568 0.984 . S
N556 H569 0.985 . S
N557 C559 1.356 . S
N557 H562 0.984 . S
N557 H563 0.985 . S
C558 C552 1.379 . S
C558 C555 1.363 . S
C558 N556 1.356 . S
C559 C553 1.363 . S
C559 C554 1.379 . S
C559 N557 1.356 . S
N560 C552 1.356 . S
N560 H566 0.984 . S
N560 H567 0.984 . S
N561 C554 1.356 . S
N561 H564 0.984 . S
N561 H565 0.985 . S
H562 N557 0.984 . S
H563 N557 0.985 . S
H564 N561 0.984 . S
H565 N561 0.985 . S
H566 N560 0.984 . S
H567 N560 0.984 . S
H568 N556 0.984 . S
H569 N556 0.985 . S
C570 C571 1.363 . S
C570 C576 1.379 . S
C570 N578 1.356 . S
C571 C570 1.363 . S
C571 C577 1.363 . S
C572 C573 1.363 . S
C572 C577 1.379 . S
C572 N579 1.356 . S
C573 C572 1.363 . S
C573 C576 1.363 . S
N574 C576 1.356 . S
N574 H586 0.984 . S
N574 H587 0.985 . S
N575 C577 1.356 . S
N575 H580 0.984 . S
N575 H581 0.985 . S
C576 C570 1.379 . S
C576 C573 1.363 . S
C576 N574 1.356 . S
C577 C571 1.363 . S
C577 C572 1.379 . S
C577 N575 1.356 . S
N578 C570 1.356 . S
N578 H584 0.984 . S
N578 H585 0.984 . S
N579 C572 1.356 . S
N579 H582 0.984 . S
N579 H583 0.985 . S
H580 N575 0.984 . S
H581 N575 0.985 . S
H582 N579 0.984 . S
H583 N579 0.985 . S
H584 N578 0.984 . S
H585 N578 0.984 . S
H586 N574 0.984 . S
H587 N574 0.985 . S
C588 C589 1.363 . S
C588 C594 1.379 . S
C588 N596 1.356 . S
C589 C588 1.363 . S
C589 C595 1.363 . S
C590 C591 1.363 . S
C590 C595 1.379 . S
C590 N597 1.356 . S
C591 C590 1.363 . S
C591 C594 1.363 . S
N592 C594 1.356 . S
N592 H604 0.984 . S
N592 H605 0.985 . S
N593 C595 1.356 . S
N593 H598 0.984 . S
N593 H599 0.985 . S
C594 C588 1.379 . S
C594 C591 1.363 . S
C594 N592 1.356 . S
C595 C589 1.363 . S
C595 C590 1.379 . S
C595 N593 1.356 . S
N596 C588 1.356 . S
N596 H602 0.984 . S
N596 H603 0.984 . S
N597 C590 1.356 . S
N597 H600 0.984 . S
N597 H601 0.985 . S
H598 N593 0.984 . S
H599 N593 0.985 . S
H600 N597 0.984 . S
H601 N597 0.985 . S
H602 N596 0.984 . S
H603 N596 0.984 . S
H604 N592 0.984 . S
H605 N592 0.985 . S
C606 C607 1.363 . S
C606 C612 1.379 . S
C606 N614 1.356 . S
C607 C606 1.363 . S
C607 C613 1.363 . S
C608 C609 1.363 . S
C608 C613 1.379 . S
C608 N615 1.356 . S
C609 C608 1.363 . S
C609 C612 1.363 . S
N610 C612 1.356 . S
N610 H622 0.984 . S
N610 H623 0.985 . S
N611 C613 1.356 . S
N611 H616 0.984 . S
N611 H617 0.985 . S
C612 C606 1.379 . S
C612 C609 1.363 . S
C612 N610 1.356 . S
C613 C607 1.363 . S
C613 C608 1.379 . S
C613 N611 1.356 . S
N614 C606 1.356 . S
N614 H620 0.984 . S
N614 H621 0.984 . S
N615 C608 1.356 . S
N615 H618 0.984 . S
N615 H619 0.985 . S
H616 N611 0.984 . S
H617 N611 0.985 . S
H618 N615 0.984 . S
H619 N615 0.985 . S
H620 N614 0.984 . S
H621 N614 0.984 . S
H622 N610 0.984 . S
H623 N610 0.985 . S
C193 C45 1.604 . S
C195 C112 1.574 . S
C211 C30 1.582 . S
C213 C123 1.615 1_554 S
C229 C39 1.606 . S
C231 C134 1.576 . S
C249 C145 1.553 . S
C247 C34 1.581 . S
C265 C97 1.604 . S
C267 C156 1.574 . S
C285 C167 1.614 . S
C283 C82 1.582 . S
C303 C178 1.576 . S
C301 C91 1.606 . S
C321 C189 1.553 . S
C319 C86 1.581 . S
C339 C175 1.110 . S
C337 C26 1.355 . S
C357 C186 1.218 . S
C355 C36 1.482 . S
C375 C153 1.117 . S
C373 C32 1.360 . S
C393 C166 1.572 . S
C391 C42 1.510 . S
C409 C18 1.529 . S
C411 C164 1.554 . S
C429 C177 1.703 . S
C427 C50 1.713 . S
C445 C4 1.565 . S
C447 C188 1.553 . S
C463 C48 1.708 . S
C465 C155 1.708 . S
C483 C131 1.110 . S
C481 C78 1.355 . S
C499 C88 1.482 . S
C501 C142 1.218 . S
C519 C109 1.117 . S
C517 C84 1.360 . S
C537 C122 1.573 . S
C535 C94 1.510 . S
C555 C120 1.555 . S
C553 C70 1.529 . S
C573 C133 1.703 . S
C571 C102 1.713 . S
C589 C56 1.565 . S
C591 C144 1.553 . S
C607 C100 1.708 . S
C609 C111 1.708 . S
