# Generated by pormake.
# Topology gar, (4,6)-cn, num edge types: 1
# Building blocks:
#     Node 0, Type 0, BuildingBlock: CEKHIL_clean_sbu_0, # of connection points: 4
#     Node 1, Type 0, BuildingBlock: CEKHIL_clean_sbu_0, # of connection points: 4
#     Node 2, Type 0, BuildingBlock: CEKHIL_clean_sbu_0, # of connection points: 4
#     Node 3, Type 0, BuildingBlock: CEKHIL_clean_sbu_0, # of connection points: 4
#     Node 4, Type 0, BuildingBlock: CEKHIL_clean_sbu_0, # of connection points: 4
#     Node 5, Type 0, BuildingBlock: CEKHIL_clean_sbu_0, # of connection points: 4
#     Node 6, Type 0, BuildingBlock: CEKHIL_clean_sbu_0, # of connection points: 4
#     Node 7, Type 0, BuildingBlock: CEKHIL_clean_sbu_0, # of connection points: 4
#     Node 8, Type 0, BuildingBlock: CEKHIL_clean_sbu_0, # of connection points: 4
#     Node 9, Type 0, BuildingBlock: CEKHIL_clean_sbu_0, # of connection points: 4
#     Node 10, Type 0, BuildingBlock: CEKHIL_clean_sbu_0, # of connection points: 4
#     Node 11, Type 0, BuildingBlock: CEKHIL_clean_sbu_0, # of connection points: 4
#     Node 12, Type 0, BuildingBlock: CEKHIL_clean_sbu_0, # of connection points: 4
#     Node 13, Type 0, BuildingBlock: CEKHIL_clean_sbu_0, # of connection points: 4
#     Node 14, Type 0, BuildingBlock: CEKHIL_clean_sbu_0, # of connection points: 4
#     Node 15, Type 0, BuildingBlock: CEKHIL_clean_sbu_0, # of connection points: 4
#     Node 16, Type 0, BuildingBlock: CEKHIL_clean_sbu_0, # of connection points: 4
#     Node 17, Type 0, BuildingBlock: CEKHIL_clean_sbu_0, # of connection points: 4
#     Node 18, Type 0, BuildingBlock: CEKHIL_clean_sbu_0, # of connection points: 4
#     Node 19, Type 0, BuildingBlock: CEKHIL_clean_sbu_0, # of connection points: 4
#     Node 20, Type 0, BuildingBlock: CEKHIL_clean_sbu_0, # of connection points: 4
#     Node 21, Type 0, BuildingBlock: CEKHIL_clean_sbu_0, # of connection points: 4
#     Node 22, Type 0, BuildingBlock: CEKHIL_clean_sbu_0, # of connection points: 4
#     Node 23, Type 0, BuildingBlock: CEKHIL_clean_sbu_0, # of connection points: 4
#     Node 24, Type 1, BuildingBlock: KUMBUR_clean_sbu_1, # of connection points: 6
#     Node 25, Type 1, BuildingBlock: KUMBUR_clean_sbu_1, # of connection points: 6
#     Node 26, Type 1, BuildingBlock: KUMBUR_clean_sbu_1, # of connection points: 6
#     Node 27, Type 1, BuildingBlock: KUMBUR_clean_sbu_1, # of connection points: 6
#     Node 28, Type 1, BuildingBlock: KUMBUR_clean_sbu_1, # of connection points: 6
#     Node 29, Type 1, BuildingBlock: KUMBUR_clean_sbu_1, # of connection points: 6
#     Node 30, Type 1, BuildingBlock: KUMBUR_clean_sbu_1, # of connection points: 6
#     Node 31, Type 1, BuildingBlock: KUMBUR_clean_sbu_1, # of connection points: 6
#     Node 32, Type 1, BuildingBlock: KUMBUR_clean_sbu_1, # of connection points: 6
#     Node 33, Type 1, BuildingBlock: KUMBUR_clean_sbu_1, # of connection points: 6
#     Node 34, Type 1, BuildingBlock: KUMBUR_clean_sbu_1, # of connection points: 6
#     Node 35, Type 1, BuildingBlock: KUMBUR_clean_sbu_1, # of connection points: 6
#     Node 36, Type 1, BuildingBlock: KUMBUR_clean_sbu_1, # of connection points: 6
#     Node 37, Type 1, BuildingBlock: KUMBUR_clean_sbu_1, # of connection points: 6
#     Node 38, Type 1, BuildingBlock: KUMBUR_clean_sbu_1, # of connection points: 6
#     Node 39, Type 1, BuildingBlock: KUMBUR_clean_sbu_1, # of connection points: 6
#     Edge 40, Type (0, 1), BuildingBlock: XUDNAN_clean_linker_2, # of connection points: 2
#     Edge 41, Type (0, 1), BuildingBlock: XUDNAN_clean_linker_2, # of connection points: 2
#     Edge 42, Type (0, 1), BuildingBlock: XUDNAN_clean_linker_2, # of connection points: 2
#     Edge 43, Type (0, 1), BuildingBlock: XUDNAN_clean_linker_2, # of connection points: 2
#     Edge 44, Type (0, 1), BuildingBlock: XUDNAN_clean_linker_2, # of connection points: 2
#     Edge 45, Type (0, 1), BuildingBlock: XUDNAN_clean_linker_2, # of connection points: 2
#     Edge 46, Type (0, 1), BuildingBlock: XUDNAN_clean_linker_2, # of connection points: 2
#     Edge 47, Type (0, 1), BuildingBlock: XUDNAN_clean_linker_2, # of connection points: 2
#     Edge 48, Type (0, 1), BuildingBlock: XUDNAN_clean_linker_2, # of connection points: 2
#     Edge 49, Type (0, 1), BuildingBlock: XUDNAN_clean_linker_2, # of connection points: 2
#     Edge 50, Type (0, 1), BuildingBlock: XUDNAN_clean_linker_2, # of connection points: 2
#     Edge 51, Type (0, 1), BuildingBlock: XUDNAN_clean_linker_2, # of connection points: 2
#     Edge 52, Type (0, 1), BuildingBlock: XUDNAN_clean_linker_2, # of connection points: 2
#     Edge 53, Type (0, 1), BuildingBlock: XUDNAN_clean_linker_2, # of connection points: 2
#     Edge 54, Type (0, 1), BuildingBlock: XUDNAN_clean_linker_2, # of connection points: 2
#     Edge 55, Type (0, 1), BuildingBlock: XUDNAN_clean_linker_2, # of connection points: 2
#     Edge 56, Type (0, 1), BuildingBlock: XUDNAN_clean_linker_2, # of connection points: 2
#     Edge 57, Type (0, 1), BuildingBlock: XUDNAN_clean_linker_2, # of connection points: 2
#     Edge 58, Type (0, 1), BuildingBlock: XUDNAN_clean_linker_2, # of connection points: 2
#     Edge 59, Type (0, 1), BuildingBlock: XUDNAN_clean_linker_2, # of connection points: 2
#     Edge 60, Type (0, 1), BuildingBlock: XUDNAN_clean_linker_2, # of connection points: 2
#     Edge 61, Type (0, 1), BuildingBlock: XUDNAN_clean_linker_2, # of connection points: 2
#     Edge 62, Type (0, 1), BuildingBlock: XUDNAN_clean_linker_2, # of connection points: 2
#     Edge 63, Type (0, 1), BuildingBlock: XUDNAN_clean_linker_2, # of connection points: 2
#     Edge 64, Type (0, 1), BuildingBlock: XUDNAN_clean_linker_2, # of connection points: 2
#     Edge 65, Type (0, 1), BuildingBlock: XUDNAN_clean_linker_2, # of connection points: 2
#     Edge 66, Type (0, 1), BuildingBlock: XUDNAN_clean_linker_2, # of connection points: 2
#     Edge 67, Type (0, 1), BuildingBlock: XUDNAN_clean_linker_2, # of connection points: 2
#     Edge 68, Type (0, 1), BuildingBlock: XUDNAN_clean_linker_2, # of connection points: 2
#     Edge 69, Type (0, 1), BuildingBlock: XUDNAN_clean_linker_2, # of connection points: 2
#     Edge 70, Type (0, 1), BuildingBlock: XUDNAN_clean_linker_2, # of connection points: 2
#     Edge 71, Type (0, 1), BuildingBlock: XUDNAN_clean_linker_2, # of connection points: 2
#     Edge 72, Type (0, 1), BuildingBlock: XUDNAN_clean_linker_2, # of connection points: 2
#     Edge 73, Type (0, 1), BuildingBlock: XUDNAN_clean_linker_2, # of connection points: 2
#     Edge 74, Type (0, 1), BuildingBlock: XUDNAN_clean_linker_2, # of connection points: 2
#     Edge 75, Type (0, 1), BuildingBlock: XUDNAN_clean_linker_2, # of connection points: 2
#     Edge 76, Type (0, 1), BuildingBlock: XUDNAN_clean_linker_2, # of connection points: 2
#     Edge 77, Type (0, 1), BuildingBlock: XUDNAN_clean_linker_2, # of connection points: 2
#     Edge 78, Type (0, 1), BuildingBlock: XUDNAN_clean_linker_2, # of connection points: 2
#     Edge 79, Type (0, 1), BuildingBlock: XUDNAN_clean_linker_2, # of connection points: 2
#     Edge 80, Type (0, 1), BuildingBlock: XUDNAN_clean_linker_2, # of connection points: 2
#     Edge 81, Type (0, 1), BuildingBlock: XUDNAN_clean_linker_2, # of connection points: 2
#     Edge 82, Type (0, 1), BuildingBlock: XUDNAN_clean_linker_2, # of connection points: 2
#     Edge 83, Type (0, 1), BuildingBlock: XUDNAN_clean_linker_2, # of connection points: 2
#     Edge 84, Type (0, 1), BuildingBlock: XUDNAN_clean_linker_2, # of connection points: 2
#     Edge 85, Type (0, 1), BuildingBlock: XUDNAN_clean_linker_2, # of connection points: 2
#     Edge 86, Type (0, 1), BuildingBlock: XUDNAN_clean_linker_2, # of connection points: 2
#     Edge 87, Type (0, 1), BuildingBlock: XUDNAN_clean_linker_2, # of connection points: 2
#     Edge 88, Type (0, 1), BuildingBlock: XUDNAN_clean_linker_2, # of connection points: 2
#     Edge 89, Type (0, 1), BuildingBlock: XUDNAN_clean_linker_2, # of connection points: 2
#     Edge 90, Type (0, 1), BuildingBlock: XUDNAN_clean_linker_2, # of connection points: 2
#     Edge 91, Type (0, 1), BuildingBlock: XUDNAN_clean_linker_2, # of connection points: 2
#     Edge 92, Type (0, 1), BuildingBlock: XUDNAN_clean_linker_2, # of connection points: 2
#     Edge 93, Type (0, 1), BuildingBlock: XUDNAN_clean_linker_2, # of connection points: 2
#     Edge 94, Type (0, 1), BuildingBlock: XUDNAN_clean_linker_2, # of connection points: 2
#     Edge 95, Type (0, 1), BuildingBlock: XUDNAN_clean_linker_2, # of connection points: 2
#     Edge 96, Type (0, 1), BuildingBlock: XUDNAN_clean_linker_2, # of connection points: 2
#     Edge 97, Type (0, 1), BuildingBlock: XUDNAN_clean_linker_2, # of connection points: 2
#     Edge 98, Type (0, 1), BuildingBlock: XUDNAN_clean_linker_2, # of connection points: 2
#     Edge 99, Type (0, 1), BuildingBlock: XUDNAN_clean_linker_2, # of connection points: 2
#     Edge 100, Type (0, 1), BuildingBlock: XUDNAN_clean_linker_2, # of connection points: 2
#     Edge 101, Type (0, 1), BuildingBlock: XUDNAN_clean_linker_2, # of connection points: 2
#     Edge 102, Type (0, 1), BuildingBlock: XUDNAN_clean_linker_2, # of connection points: 2
#     Edge 103, Type (0, 1), BuildingBlock: XUDNAN_clean_linker_2, # of connection points: 2
#     Edge 104, Type (0, 1), BuildingBlock: XUDNAN_clean_linker_2, # of connection points: 2
#     Edge 105, Type (0, 1), BuildingBlock: XUDNAN_clean_linker_2, # of connection points: 2
#     Edge 106, Type (0, 1), BuildingBlock: XUDNAN_clean_linker_2, # of connection points: 2
#     Edge 107, Type (0, 1), BuildingBlock: XUDNAN_clean_linker_2, # of connection points: 2
#     Edge 108, Type (0, 1), BuildingBlock: XUDNAN_clean_linker_2, # of connection points: 2
#     Edge 109, Type (0, 1), BuildingBlock: XUDNAN_clean_linker_2, # of connection points: 2
#     Edge 110, Type (0, 1), BuildingBlock: XUDNAN_clean_linker_2, # of connection points: 2
#     Edge 111, Type (0, 1), BuildingBlock: XUDNAN_clean_linker_2, # of connection points: 2
#     Edge 112, Type (0, 1), BuildingBlock: XUDNAN_clean_linker_2, # of connection points: 2
#     Edge 113, Type (0, 1), BuildingBlock: XUDNAN_clean_linker_2, # of connection points: 2
#     Edge 114, Type (0, 1), BuildingBlock: XUDNAN_clean_linker_2, # of connection points: 2
#     Edge 115, Type (0, 1), BuildingBlock: XUDNAN_clean_linker_2, # of connection points: 2
#     Edge 116, Type (0, 1), BuildingBlock: XUDNAN_clean_linker_2, # of connection points: 2
#     Edge 117, Type (0, 1), BuildingBlock: XUDNAN_clean_linker_2, # of connection points: 2
#     Edge 118, Type (0, 1), BuildingBlock: XUDNAN_clean_linker_2, # of connection points: 2
#     Edge 119, Type (0, 1), BuildingBlock: XUDNAN_clean_linker_2, # of connection points: 2
#     Edge 120, Type (0, 1), BuildingBlock: XUDNAN_clean_linker_2, # of connection points: 2
#     Edge 121, Type (0, 1), BuildingBlock: XUDNAN_clean_linker_2, # of connection points: 2
#     Edge 122, Type (0, 1), BuildingBlock: XUDNAN_clean_linker_2, # of connection points: 2
#     Edge 123, Type (0, 1), BuildingBlock: XUDNAN_clean_linker_2, # of connection points: 2
#     Edge 124, Type (0, 1), BuildingBlock: XUDNAN_clean_linker_2, # of connection points: 2
#     Edge 125, Type (0, 1), BuildingBlock: XUDNAN_clean_linker_2, # of connection points: 2
#     Edge 126, Type (0, 1), BuildingBlock: XUDNAN_clean_linker_2, # of connection points: 2
#     Edge 127, Type (0, 1), BuildingBlock: XUDNAN_clean_linker_2, # of connection points: 2
#     Edge 128, Type (0, 1), BuildingBlock: XUDNAN_clean_linker_2, # of connection points: 2
#     Edge 129, Type (0, 1), BuildingBlock: XUDNAN_clean_linker_2, # of connection points: 2
#     Edge 130, Type (0, 1), BuildingBlock: XUDNAN_clean_linker_2, # of connection points: 2
#     Edge 131, Type (0, 1), BuildingBlock: XUDNAN_clean_linker_2, # of connection points: 2
#     Edge 132, Type (0, 1), BuildingBlock: XUDNAN_clean_linker_2, # of connection points: 2
#     Edge 133, Type (0, 1), BuildingBlock: XUDNAN_clean_linker_2, # of connection points: 2
#     Edge 134, Type (0, 1), BuildingBlock: XUDNAN_clean_linker_2, # of connection points: 2
#     Edge 135, Type (0, 1), BuildingBlock: XUDNAN_clean_linker_2, # of connection points: 2
# Relax obj value: 0.068
# Max RMSD: 0.179
# Mean RMSD: 0.109
data_MOF--net-gar--node1-CEKHIL_clean_sbu_0--node2-KUMBUR_clean_sbu_1--edge1-XUDNAN_clean_linker_2
_symmetry_space_group_name_H-M    P1
_symmetry_Int_Tables_number       1
_symmetry_cell_setting            triclinic
loop_
_symmetry_equiv_pos_as_xyz
'x, y, z'
_cell_length_a     59.834508
_cell_length_b     59.509715
_cell_length_c     55.110682
_cell_angle_alpha  96.173499
_cell_angle_beta   96.263707
_cell_angle_gamma 100.92824
loop_
_atom_site_label
_atom_site_type_symbol
_atom_site_fract_x
_atom_site_fract_y
_atom_site_fract_z
_atom_type_partial_charge
Co0 Co 0.06948 0.33075 0.36958 0.0
O1 O 0.10349 0.33493 0.37793 0.0
O2 O 0.08641 0.31908 0.34209 0.0
C3 C 0.06786 0.36771 0.38869 0.0
O4 O 0.03381 0.32374 0.35311 0.0
Co5 Co 0.03533 0.33568 0.40844 0.0
O6 O 1.01092 0.33371 0.38075 0.0
C7 C 0.05904 0.29581 0.40467 0.0
C8 C 0.10599 0.32543 0.35635 0.0
C9 C 1.01357 0.32672 0.35886 0.0
O10 O 0.06529 0.29981 0.38347 0.0
O11 O 0.04907 0.30919 0.41747 0.0
O12 O 0.07317 0.36478 0.3664 0.0
O13 O 0.06415 0.34893 0.39823 0.0
Co14 Co 0.02999 0.7647 0.70214 0.0
O15 O 0.99608 0.76408 0.69572 0.0
O16 O 1.01181 0.75597 0.72978 0.0
C17 C 0.03821 0.80049 0.68934 0.0
O18 O 0.06538 0.76578 0.71634 0.0
Co19 Co 0.06205 0.77194 0.66165 0.0
O20 O 0.08792 0.7787 0.68845 0.0
C21 C 0.03511 0.72451 0.66349 0.0
C22 C 0.99318 0.75993 0.7178 0.0
C23 C 0.08586 0.77265 0.70967 0.0
O24 O 0.02703 0.73114 0.68374 0.0
O25 O 0.04743 0.73879 0.65212 0.0
O26 O 0.03437 0.79841 0.71176 0.0
O27 O 0.03681 0.78132 0.6756 0.0
Co28 Co 0.56878 0.8313 0.86844 0.0
O29 O 0.6027 0.83462 0.87698 0.0
O30 O 0.58614 0.82279 0.83995 0.0
C31 C 0.56593 0.86608 0.89226 0.0
O32 O 0.53328 0.82558 0.85191 0.0
Co33 Co 0.53439 0.82937 0.90756 0.0
O34 O 0.51083 0.83292 0.88101 0.0
C35 C 0.5553 0.78914 0.89489 0.0
C36 C 0.60546 0.82714 0.85472 0.0
C37 C 0.51318 0.82801 0.85853 0.0
O38 O 0.56426 0.79822 0.87693 0.0
O39 O 0.54429 0.79945 0.90964 0.0
O40 O 0.57236 0.86623 0.87039 0.0
O41 O 0.56273 0.84584 0.89886 0.0
Co42 Co 0.53131 0.26317 0.2025 0.0
O43 O 0.49751 0.26116 0.19428 0.0
O44 O 0.51257 0.25918 0.23099 0.0
C45 C 0.53995 0.29494 0.18245 0.0
O46 O 0.56666 0.26671 0.21815 0.0
Co47 Co 0.56305 0.26084 0.16121 0.0
O48 O 0.58927 0.26558 0.1878 0.0
C49 C 0.53162 0.21938 0.16821 0.0
C50 C 0.49391 0.26026 0.21688 0.0
C51 C 0.58695 0.2673 0.21059 0.0
O52 O 0.52922 0.2283 0.19032 0.0
O53 O 0.53887 0.23201 0.15225 0.0
O54 O 0.53532 0.29734 0.20495 0.0
O55 O 0.53865 0.27401 0.17311 0.0
Co56 Co 0.07695 0.80923 0.12286 0.0
O57 O 0.04377 0.80515 0.11383 0.0
O58 O 0.06037 0.80118 0.1502 0.0
C59 C 0.0819 0.84786 0.10933 0.0
O60 O 0.10945 0.81228 0.14328 0.0
Co61 Co 0.10307 0.80603 0.09339 0.0
O62 O 0.13026 0.80226 0.11544 0.0
C63 C 0.08166 0.76089 0.09533 0.0
C64 C 0.0416 0.80077 0.13603 0.0
C65 C 0.12835 0.80692 0.13788 0.0
O66 O 0.07331 0.77313 0.11165 0.0
O67 O 0.09527 0.77174 0.08257 0.0
O68 O 0.07942 0.84293 0.1311 0.0
O69 O 0.08306 0.82967 0.09426 0.0
Co70 Co 0.52366 0.78487 0.44819 0.0
O71 O 0.55711 0.79174 0.45433 0.0
O72 O 0.53668 0.77496 0.41913 0.0
C73 C 0.52099 0.82367 0.4631 0.0
O74 O 0.48986 0.77709 0.43083 0.0
Co75 Co 0.49666 0.78027 0.48267 0.0
O76 O 0.47036 0.78641 0.46054 0.0
C77 C 0.51745 0.74104 0.47743 0.0
C78 C 0.5567 0.78307 0.43164 0.0
C79 C 0.47129 0.78198 0.43773 0.0
O80 O 0.52391 0.75163 0.45914 0.0
O81 O 0.50548 0.7505 0.49159 0.0
O82 O 0.52382 0.81627 0.44107 0.0
O83 O 0.52028 0.80764 0.47781 0.0
Co84 Co 0.57441 0.30907 0.6224 0.0
O85 O 0.54115 0.3033 0.61308 0.0
O86 O 0.55815 0.30033 0.64967 0.0
C87 C 0.57873 0.34727 0.60852 0.0
O88 O 0.60679 0.31462 0.64304 0.0
Co89 Co 0.60268 0.30738 0.59378 0.0
O90 O 0.62945 0.3044 0.61727 0.0
C91 C 0.581 0.26193 0.5941 0.0
C92 C 0.53922 0.2991 0.63541 0.0
C93 C 0.62625 0.30977 0.63916 0.0
O94 O 0.57297 0.27317 0.61153 0.0
O95 O 0.5938 0.27368 0.58123 0.0
O96 O 0.57522 0.34242 0.6301 0.0
O97 O 0.58068 0.32912 0.5938 0.0
Co98 Co 0.02432 0.28556 0.94796 0.0
O99 O 0.05762 0.29177 0.95567 0.0
O100 O 0.03829 0.27836 0.91885 0.0
C101 C 1.02035 0.32205 0.96725 0.0
O102 O 0.99133 0.27882 0.92948 0.0
Co103 Co 0.99279 0.27784 0.98113 0.0
O104 O 0.96678 0.28137 0.95624 0.0
C105 C 1.01687 0.24011 0.97426 0.0
C106 C 0.05795 0.28518 0.93248 0.0
C107 C 0.97091 0.27997 0.93408 0.0
O108 O 0.02334 0.2513 0.95627 0.0
O109 O 1.00482 0.24898 0.98894 0.0
O110 O 0.02499 0.31849 0.94498 0.0
O111 O 1.01893 0.30363 0.97862 0.0
Co112 Co 0.40072 0.03489 0.32893 0.0
O113 O 0.40653 0.06731 0.32992 0.0
O114 O 0.37323 0.04251 0.31547 0.0
C115 C 0.41636 0.03558 0.36683 0.0
O116 O 0.38859 1.00109 0.3257 0.0
Co117 Co 0.44047 1.00823 0.33722 0.0
O118 O 0.41557 0.98076 0.33515 0.0
C119 C 0.43018 0.02691 0.29035 0.0
C120 C 0.385 0.0635 0.32092 0.0
C121 C 0.39483 0.98215 0.32874 0.0
O122 O 0.41125 0.03155 0.29599 0.0
O123 O 0.44482 0.02026 0.30523 0.0
O124 O 0.39531 0.03816 0.36291 0.0
O125 O 0.42763 0.03423 0.34829 0.0
Co126 Co 0.2855 0.18554 0.51725 0.0
O127 O 0.31862 0.19449 0.52051 0.0
O128 O 0.29916 0.15998 0.5252 0.0
C129 C 0.28036 0.20155 0.48084 0.0
O130 O 0.25208 0.16816 0.51568 0.0
Co131 Co 0.25309 0.21862 0.51708 0.0
O132 O 0.22728 0.19189 0.51467 0.0
C133 C 0.28015 0.21536 0.56431 0.0
C134 C 0.31883 0.17358 0.52512 0.0
C135 C 0.23153 0.17183 0.51518 0.0
O136 O 0.28658 0.19746 0.55402 0.0
O137 O 0.26849 0.22729 0.55204 0.0
O138 O 0.28412 0.18073 0.48072 0.0
O139 O 0.2797 0.21185 0.50261 0.0
Co140 Co 0.1549 0.06013 0.80519 0.0
O141 O 0.14901 0.02672 0.80296 0.0
O142 O 0.18203 0.04916 0.79859 0.0
C143 C 0.13832 0.0644 0.84112 0.0
O144 O 0.17043 0.09422 0.80704 0.0
Co145 Co 0.12113 0.09018 0.80298 0.0
O146 O 0.14608 0.11774 0.81239 0.0
C147 C 0.12817 0.06577 0.75617 0.0
C148 C 0.17039 0.02866 0.79948 0.0
C149 C 0.16623 0.11457 0.81064 0.0
O150 O 0.14387 0.05768 0.76831 0.0
O151 O 0.11641 0.07877 0.76673 0.0
O152 O 0.15954 0.06236 0.84122 0.0
O153 O 0.12731 0.06384 0.8193 0.0
Co154 Co 0.31122 0.94461 0.99365 0.0
O155 O 0.27887 0.94033 0.98838 0.0
O156 O 0.30374 0.97278 0.00558 0.0
C157 C 0.31498 0.92883 0.95667 0.0
O158 O 0.34491 0.9553 1.00175 0.0
Co159 Co 0.33522 0.90221 0.99044 0.0
O160 O 0.36365 0.92625 0.99518 0.0
C161 C 0.31205 0.91433 0.03342 0.0
C162 C 0.28279 0.9618 0.99814 0.0
C163 C 0.36316 0.94736 1.00125 0.0
O164 O 0.30986 0.93376 0.02658 0.0
O165 O 0.31945 0.89884 0.02042 0.0
O166 O 0.31292 0.95022 0.95975 0.0
O167 O 0.31272 0.91733 0.97506 0.0
Co168 Co 0.31564 0.39952 0.04265 0.0
O169 O 0.2825 0.39153 0.03979 0.0
O170 O 0.30392 0.42647 0.05248 0.0
C171 C 0.31863 0.38079 1.00497 0.0
O172 O 0.34917 0.41643 0.04603 0.0
Co173 Co 0.34721 0.36563 0.04501 0.0
O174 O 0.37274 0.39163 0.04208 0.0
C175 C 0.32236 0.37333 0.08722 0.0
C176 C 0.28373 0.41328 0.0472 0.0
C177 C 0.3692 0.4121 0.0442 0.0
O178 O 0.31778 0.39144 0.07822 0.0
O179 O 0.33244 0.35933 0.07545 0.0
O180 O 0.31353 0.40111 0.00708 0.0
O181 O 0.32021 0.37163 0.0253 0.0
Co182 Co 0.79318 0.13973 0.06162 0.0
O183 O 0.82528 0.15009 0.06726 0.0
O184 O 0.80627 0.1152 0.0726 0.0
C185 C 0.78886 0.15283 0.02588 0.0
O186 O 0.7601 0.12388 0.05702 0.0
Co187 Co 0.76236 0.17672 0.05704 0.0
O188 O 0.73824 0.14895 0.04585 0.0
C189 C 0.78908 0.17232 0.10371 0.0
C190 C 0.82568 0.12973 0.07338 0.0
C191 C 0.74081 0.12874 0.04944 0.0
O192 O 0.79151 0.15211 0.09588 0.0
O193 O 0.78009 0.18558 0.0906 0.0
O194 O 0.79434 0.13278 0.02652 0.0
O195 O 0.78791 0.16454 0.04663 0.0
Co196 Co 0.20143 0.55636 0.26329 0.0
O197 O 0.20088 0.52477 0.25321 0.0
O198 O 0.23068 0.5539 0.25399 0.0
C199 C 0.18537 0.55027 0.2969 0.0
O200 O 0.2086 0.59065 0.27315 0.0
Co201 Co 0.15675 0.57507 0.26936 0.0
O202 O 0.17775 0.60454 0.28278 0.0
C203 C 0.17069 0.56378 0.22016 0.0
C204 C 0.22215 0.53185 0.25003 0.0
C205 C 0.19905 0.60696 0.28108 0.0
O206 O 0.18995 0.55994 0.22919 0.0
O207 O 0.15507 0.56843 0.23285 0.0
O208 O 0.20737 0.5519 0.29754 0.0
O209 O 0.17373 0.55129 0.2761 0.0
Co210 Co 0.81621 0.899 0.54201 0.0
O211 O 0.7831 0.89135 0.53967 0.0
O212 O 0.80484 0.92597 0.55294 0.0
C213 C 0.81796 0.88147 0.50324 0.0
O214 O 0.85008 0.91561 0.5457 0.0
Co215 Co 0.84715 0.86436 0.54025 0.0
O216 O 0.87126 0.89025 0.53398 0.0
C217 C 0.82568 0.87212 0.5855 0.0
C218 C 0.78451 0.91303 0.54749 0.0
C219 C 0.86903 0.9109 0.53972 0.0
O220 O 0.81873 0.88946 0.57703 0.0
O221 O 0.83633 0.85924 0.57295 0.0
O222 O 0.81393 0.90215 0.50674 0.0
O223 O 0.81968 0.87136 0.52287 0.0
Co224 Co 0.94267 0.0246 0.27657 0.0
O225 O 0.94884 0.05795 0.28231 0.0
O226 O 0.91533 0.03553 0.26661 0.0
C227 C 0.96011 0.02086 0.31458 0.0
O228 O 0.92724 0.99024 0.2699 0.0
Co229 Co 0.97762 0.99459 0.27521 0.0
O230 O 0.95294 0.97034 0.28357 0.0
C231 C 0.96945 0.01911 0.23228 0.0
C232 C 0.92719 0.05607 0.27452 0.0
C233 C 0.93227 0.97184 0.27733 0.0
O234 O 0.95254 0.02549 0.24202 0.0
O235 O 0.98229 1.00733 0.24324 0.0
O236 O 0.93916 0.02392 0.31142 0.0
O237 O 0.97047 0.02093 0.29507 0.0
Co238 Co 0.28942 0.64097 0.56423 0.0
O239 O 0.32138 0.64875 0.57392 0.0
O240 O 0.29884 0.61477 0.57626 0.0
C241 C 0.29104 0.65487 0.52853 0.0
O242 O 0.25588 0.62762 0.55507 0.0
Co243 Co 0.26369 0.68139 0.55544 0.0
O244 O 0.23769 0.65545 0.54326 0.0
C245 C 0.28281 0.67404 0.60482 0.0
C246 C 0.31934 0.62762 0.57852 0.0
C247 C 0.23817 0.6346 0.54613 0.0
O248 O 0.28432 0.65338 0.59743 0.0
O249 O 0.27775 0.68855 0.59068 0.0
O250 O 0.29417 0.63403 0.52998 0.0
O251 O 0.28876 0.66668 0.54874 0.0
Co252 Co 0.44528 0.52829 0.77779 0.0
O253 O 0.4537 0.56156 0.78213 0.0
O254 O 0.41906 0.54062 0.76741 0.0
C255 C 0.46211 0.52445 0.81598 0.0
O256 O 0.42804 0.49466 0.77142 0.0
Co257 Co 0.47767 0.49566 0.77696 0.0
O258 O 0.45142 0.47142 0.78236 0.0
C259 C 0.47135 0.52014 0.73359 0.0
C260 C 0.4323 0.56074 0.77392 0.0
C261 C 0.43135 0.47487 0.77636 0.0
O262 O 0.45493 0.52753 0.74324 0.0
O263 O 0.48349 0.50785 0.74477 0.0
O264 O 0.44166 0.52885 0.81267 0.0
O265 O 0.47242 0.52322 0.79646 0.0
Co266 Co 0.70285 0.05191 0.76285 0.0
O267 O 0.70252 0.01995 0.75426 0.0
O268 O 0.73083 0.04946 0.75101 0.0
C269 C 0.69004 0.04773 0.79843 0.0
O270 O 0.71054 0.08593 0.77 0.0
Co271 Co 0.66196 0.07457 0.77435 0.0
O272 O 0.68424 0.10425 0.78385 0.0
C273 C 0.67007 0.06081 0.72277 0.0
C274 C 0.72338 0.02739 0.74972 0.0
C275 C 0.70415 0.10423 0.77792 0.0
O276 O 0.68856 0.05418 0.72962 0.0
O277 O 0.65705 0.06807 0.73749 0.0
O278 O 0.71177 0.04918 0.79706 0.0
O279 O 0.67672 0.04853 0.77864 0.0
Co280 Co 0.78489 0.68558 0.01487 0.0
O281 O 0.81804 0.69324 0.0182 0.0
O282 O 0.79739 0.65996 0.02483 0.0
C283 C 0.78067 0.69889 0.97682 0.0
O284 O 0.75157 0.6684 0.01166 0.0
Co285 Co 0.75437 0.71801 0.01464 0.0
O286 O 0.7272 0.69229 0.0122 0.0
C287 C 0.77888 0.71541 0.06219 0.0
C288 C 0.81737 0.67242 0.02355 0.0
C289 C 0.73114 0.67204 0.01132 0.0
O290 O 0.78505 0.69772 0.05128 0.0
O291 O 0.76785 0.72792 0.05017 0.0
O292 O 0.78396 0.67836 0.97958 0.0
O293 O 0.78025 0.71184 0.99739 0.0
Co294 Co 0.90016 0.53453 0.82672 0.0
O295 O 0.90477 0.56696 0.82965 0.0
O296 O 0.87235 0.54162 0.81323 0.0
C297 C 0.9154 0.53437 0.86471 0.0
O298 O 0.8896 0.50038 0.82101 0.0
Co299 Co 0.94171 0.51011 0.83517 0.0
O300 O 0.91764 0.48191 0.83278 0.0
C301 C 0.93125 0.53037 0.78915 0.0
C302 C 0.88343 0.56276 0.81999 0.0
C303 C 0.89701 0.48208 0.82438 0.0
O304 O 0.91166 0.53355 0.79422 0.0
O305 O 0.94612 0.52429 0.80429 0.0
O306 O 0.89396 0.53559 0.86055 0.0
O307 O 0.927 0.53449 0.84641 0.0
Co308 Co 0.80697 0.43934 0.4952 0.0
O309 O 0.77498 0.42868 0.49058 0.0
O310 O 0.79343 0.46551 0.50109 0.0
C311 C 0.81386 0.41951 0.46197 0.0
O312 O 0.84002 0.45528 0.50079 0.0
Co313 Co 0.83609 0.40125 0.50331 0.0
O314 O 0.86095 0.4273 0.49993 0.0
C315 C 0.81037 0.41768 0.54135 0.0
C316 C 0.77429 0.45014 0.4966 0.0
C317 C 0.85894 0.44827 0.50067 0.0
O318 O 0.80783 0.43514 0.5306 0.0
O319 O 0.81889 0.40103 0.53227 0.0
O320 O 0.80723 0.43887 0.46 0.0
O321 O 0.81304 0.4117 0.48281 0.0
Co322 Co 0.65403 0.55742 0.30463 0.0
O323 O 0.64655 0.52411 0.30329 0.0
O324 O 0.67959 0.54447 0.29593 0.0
C325 C 0.63988 0.56326 0.34185 0.0
O326 O 0.67095 0.59064 0.30486 0.0
Co327 Co 0.62362 0.59053 0.30462 0.0
O328 O 0.65009 0.61703 0.3125 0.0
C329 C 0.62668 0.56493 0.25666 0.0
C330 C 0.66727 0.5246 0.29801 0.0
C331 C 0.66914 0.61177 0.30903 0.0
O332 O 0.64149 0.55525 0.26818 0.0
O333 O 0.61681 0.57933 0.26809 0.0
O334 O 0.66056 0.55997 0.3405 0.0
O335 O 0.62798 0.56341 0.32066 0.0
Tb336 Tb 0.07817 0.05829 0.05392 0.0
C337 C 1.00858 0.9764 0.99142 0.0
N338 N 1.01741 0.99788 0.9861 0.0
C339 C 1.01475 0.98286 0.9434 0.0
C340 C 1.00257 0.95731 0.97281 0.0
C341 C 1.02007 1.00138 0.96231 0.0
C342 C 1.00603 0.96073 0.94866 0.0
C343 C 0.9943 0.95194 0.02133 0.0
C344 C 1.00439 0.97372 0.01544 0.0
C345 C 0.98857 0.93289 1.00285 0.0
C346 C 0.99267 0.93556 0.97868 0.0
Tb347 Tb 0.02161 0.02659 0.01834 0.0
N348 N 1.00987 0.99257 0.03292 0.0
C349 C 0.98971 0.95008 0.04548 0.0
C350 C 1.00419 0.99103 0.05609 0.0
C351 C 0.99455 0.96976 0.06289 0.0
H352 H 0.02515 0.01852 0.95745 0.0
H353 H 0.99036 0.96867 0.08141 0.0
H354 H 0.07278 0.06244 0.1144 0.0
H355 H 0.11961 0.11926 1.00008 0.0
H356 H 1.00639 1.0061 0.0692 0.0
H357 H 0.98189 0.93366 0.0507 0.0
H358 H 0.10243 0.08066 0.00985 0.0
H359 H 1.01683 0.98578 0.92466 0.0
H360 H 0.98066 0.91605 0.007 0.0
H361 H 0.98782 0.92074 0.96457 0.0
H362 H 0.07819 0.09336 0.14894 0.0
H363 H 1.0015 0.9465 0.93384 0.0
H364 H 0.12319 0.1535 0.03116 0.0
N365 N 0.08132 0.08525 0.08783 0.0
C366 C 0.09005 0.10738 0.08446 0.0
C367 C 0.08123 0.09758 0.1308 0.0
C368 C 0.09444 0.12551 0.1041 0.0
C369 C 0.07759 0.08008 0.11088 0.0
C370 C 0.0895 0.12042 0.12737 0.0
N371 N 0.09285 0.09339 0.04354 0.0
C372 C 0.10215 0.09572 0.02228 0.0
C373 C 0.10711 0.13377 0.05772 0.0
C374 C 0.09634 0.11154 0.06164 0.0
C375 C 0.11473 0.1367 0.03489 0.0
C376 C 0.1126 0.11746 0.01723 0.0
H377 H 0.09274 0.13386 0.14298 0.0
H378 H 0.10795 0.1621 0.115 0.0
H379 H 0.11901 0.16931 0.07435 0.0
O380 O 0.10758 0.0485 0.04272 0.0
O381 O 0.05683 0.08318 0.03986 0.0
O382 O 0.03012 0.0624 0.00803 0.0
O383 O 0.10779 0.06528 0.07961 0.0
O384 O 0.07899 0.04204 0.01567 0.0
O385 O 0.04447 0.0422 0.99354 0.0
O386 O 0.99014 0.03091 0.02961 0.0
O387 O 0.04554 1.00278 0.03031 0.0
O388 O 0.06778 0.02306 0.06509 0.0
O389 O 0.99262 0.01959 0.99183 0.0
O390 O 0.02133 0.04755 0.05412 0.0
O391 O 0.05339 0.04233 0.07646 0.0
C392 C 0.04148 0.08257 0.02029 0.0
C393 C 0.13159 0.03873 0.07437 0.0
C394 C 0.16247 0.01869 0.06985 0.0
C395 C 0.15981 1.01038 0.0925 0.0
C396 C 0.12863 0.03045 0.09698 0.0
C397 C 0.14274 0.01614 0.10592 0.0
C398 C 0.14795 0.03232 0.06072 0.0
C399 C 0.06664 0.04333 0.99471 0.0
C400 C 0.11906 0.05507 0.06464 0.0
C401 C 0.10445 0.14794 0.10012 0.0
C402 C 0.11076 0.15206 0.07697 0.0
C403 C 0.05894 1.00294 0.05133 0.0
C404 C 0.96483 0.04137 0.99886 0.0
C405 C 0.93958 0.06715 0.00838 0.0
C406 C 0.93434 0.06885 0.98335 0.0
C407 C 0.9597 0.04307 0.97365 0.0
C408 C 0.95464 0.05346 0.01613 0.0
C409 C 0.9445 0.05682 0.96599 0.0
C410 C 0.03249 0.04585 0.07546 0.0
C411 C 0.97945 0.02588 0.00719 0.0
H412 H 0.17109 0.99985 0.09997 0.0
H413 H 0.11575 0.0352 0.10775 0.0
H414 H 0.14071 1.00987 0.12342 0.0
H415 H 0.14956 0.03834 0.04295 0.0
H416 H 0.92227 0.07923 0.97734 0.0
H417 H 0.96715 0.03358 0.95985 0.0
H418 H 0.95805 0.05201 0.0356 0.0
H419 H 0.9404 0.05793 0.9466 0.0
Tb420 Tb 0.27878 0.79113 0.31783 0.0
C421 C 0.33651 0.75524 0.22735 0.0
N422 N 0.34339 0.77099 0.24783 0.0
C423 C 0.37797 0.75652 0.25547 0.0
C424 C 0.34959 0.73876 0.22077 0.0
C425 C 0.36426 0.77235 0.26141 0.0
C426 C 0.37046 0.73942 0.23528 0.0
C427 C 0.30817 0.73946 0.19174 0.0
C428 C 0.31618 0.75567 0.21295 0.0
C429 C 0.32079 0.72255 0.1855 0.0
C430 C 0.34149 0.72224 0.19994 0.0
Tb431 Tb 0.31826 0.7942 0.25716 0.0
N432 N 0.30405 0.77179 0.22011 0.0
C433 C 0.28778 0.74078 0.17746 0.0
C434 C 0.28508 0.77421 0.20517 0.0
C435 C 0.27641 0.7585 0.18397 0.0
H436 H 0.37074 0.78579 0.27667 0.0
H437 H 0.26104 0.76018 0.17259 0.0
H438 H 0.2288 0.80226 0.29751 0.0
H439 H 0.33555 0.82479 0.40333 0.0
H440 H 0.27654 0.7883 0.20909 0.0
H441 H 0.28098 0.72859 0.16107 0.0
H442 H 0.3176 0.79502 0.36891 0.0
H443 H 0.39435 0.75754 0.26646 0.0
H444 H 0.31481 0.70978 0.16941 0.0
H445 H 0.35119 0.70925 0.19475 0.0
H446 H 0.20711 0.83303 0.30539 0.0
H447 H 0.38106 0.72709 0.23083 0.0
H448 H 0.32048 0.86056 0.41046 0.0
N449 N 0.25615 0.81702 0.32611 0.0
C450 C 0.26436 0.83413 0.34501 0.0
C451 C 0.22328 0.83362 0.31661 0.0
C452 C 0.25281 0.85227 0.34999 0.0
C453 C 0.23563 0.81621 0.31219 0.0
C454 C 0.23203 0.8519 0.33542 0.0
N455 N 0.29427 0.81482 0.3541 0.0
C456 C 0.31142 0.81094 0.37074 0.0
C457 C 0.29358 0.85037 0.37945 0.0
C458 C 0.28445 0.83323 0.35928 0.0
C459 C 0.31283 0.84773 0.39483 0.0
C460 C 0.3214 0.82761 0.39082 0.0
H461 H 0.22253 0.86547 0.33868 0.0
H462 H 0.25387 0.88429 0.37334 0.0
H463 H 0.28966 0.88261 0.39924 0.0
O464 O 0.27867 0.76438 0.33899 0.0
O465 O 0.28543 0.82451 0.30492 0.0
O466 O 0.31635 0.81523 0.29107 0.0
O467 O 0.24699 0.76956 0.32017 0.0
O468 O 0.31539 0.78752 0.32647 0.0
O469 O 0.33821 0.79297 0.2941 0.0
O470 O 0.31645 0.82197 0.23713 0.0
O471 O 0.30228 0.75818 0.25781 0.0
O472 O 0.29362 0.77734 0.2887 0.0
O473 O 0.34904 0.81435 0.25043 0.0
O474 O 0.28186 0.79989 0.25132 0.0
O475 O 0.25867 0.78444 0.28028 0.0
C476 C 0.30269 0.82967 0.29272 0.0
C477 C 0.24671 0.75557 0.35879 0.0
C478 C 0.24866 0.7392 0.39709 0.0
C479 C 0.23105 0.75012 0.40413 0.0
C480 C 0.22925 0.76661 0.36583 0.0
C481 C 0.22143 0.76379 0.38851 0.0
C482 C 0.25634 0.7421 0.37446 0.0
C483 C 0.33529 0.78886 0.31714 0.0
C484 C 0.25645 0.75835 0.33596 0.0
C485 C 0.26233 0.87001 0.36935 0.0
C486 C 0.28274 0.86909 0.38403 0.0
C487 C 0.2923 0.75714 0.27708 0.0
C488 C 0.34582 0.82887 0.21256 0.0
C489 C 0.34277 0.8462 0.17502 0.0
C490 C 0.35776 0.83307 0.16544 0.0
C491 C 0.3607 0.81561 0.20289 0.0
C492 C 0.33711 0.84431 0.19866 0.0
C493 C 0.36677 0.81792 0.17943 0.0
C494 C 0.26153 0.79312 0.25918 0.0
C495 C 0.33853 0.82655 0.2367 0.0
H496 H 0.22456 0.74789 0.42149 0.0
H497 H 0.22182 0.77744 0.35402 0.0
H498 H 0.2079 0.77218 0.394 0.0
H499 H 0.27034 0.73423 0.36915 0.0
H500 H 0.36233 0.83447 0.14709 0.0
H501 H 0.36752 0.80342 0.21329 0.0
H502 H 0.32529 0.85426 0.2059 0.0
H503 H 0.37825 0.80777 0.17199 0.0
Tb504 Tb 0.52099 0.0399 0.5514 0.0
C505 C 0.60034 0.0891 0.49687 0.0
N506 N 0.58684 0.06769 0.48969 0.0
C507 C 0.58304 0.0755 0.44773 0.0
C508 C 0.60474 0.10485 0.47977 0.0
C509 C 0.57942 0.06031 0.46519 0.0
C510 C 0.59541 0.09798 0.45509 0.0
C511 C 0.62543 0.11665 0.52904 0.0
C512 C 0.61084 0.09499 0.52127 0.0
C513 C 0.62914 0.13257 0.51216 0.0
C514 C 0.61884 0.1267 0.48763 0.0
Tb515 Tb 0.58283 0.04564 0.52107 0.0
N516 N 0.60632 0.07956 0.53756 0.0
C517 C 0.63609 0.12154 0.55349 0.0
C518 C 0.6181 0.08344 0.56075 0.0
C519 C 0.6327 0.10471 0.56929 0.0
H520 H 0.57109 0.0426 0.45871 0.0
H521 H 0.64153 0.10799 0.58793 0.0
H522 H 0.53104 0.04687 0.61335 0.0
H523 H 0.45768 0.97836 0.48816 0.0
H524 H 0.61636 0.07017 0.57251 0.0
H525 H 0.64745 0.13801 0.56015 0.0
H526 H 0.4857 0.01513 0.50133 0.0
H527 H 0.57666 0.06971 0.42849 0.0
H528 H 0.64024 0.14937 0.5178 0.0
H529 H 0.62227 0.13904 0.47474 0.0
H530 H 0.52298 0.02273 0.64614 0.0
H531 H 0.5984 0.10961 0.44142 0.0
H532 H 0.4496 0.95047 0.51776 0.0
N533 N 0.5136 0.02066 0.58429 0.0
C534 C 0.49913 0.99973 0.57855 0.0
C535 C 0.51642 0.01592 0.62716 0.0
C536 C 0.49354 0.98561 0.59685 0.0
C537 C 0.52124 0.02942 0.6084 0.0
C538 C 0.50283 0.99376 0.62133 0.0
N539 N 0.49406 1.00739 0.53746 0.0
C540 C 0.48249 1.00287 0.51415 0.0
C541 C 0.47289 0.97196 0.54785 0.0
C542 C 0.48881 0.993 0.55443 0.0
C543 C 0.46198 0.96648 0.52355 0.0
C544 C 0.46655 0.98218 0.50674 0.0
H545 H 0.49897 0.98342 0.63594 0.0
H546 H 0.474 0.95298 0.60403 0.0
H547 H 0.45599 0.941 0.56108 0.0
O548 O 0.49526 0.05382 0.5322 0.0
O549 O 0.52791 1.00551 0.53324 0.0
O550 O 0.56111 1.00991 0.51265 0.0
O551 O 0.50159 0.05822 0.57194 0.0
O552 O 0.53685 0.05215 0.52117 0.0
O553 O 0.55335 0.03513 0.49316 0.0
O554 O 0.60992 0.03151 0.53721 0.0
O555 O 0.57343 0.07851 0.53862 0.0
O556 O 0.54358 0.07485 0.56327 0.0
O557 O 0.60803 0.03892 0.49979 0.0
O558 O 0.56955 0.02981 0.55123 0.0
O559 O 0.55095 0.04676 0.57826 0.0
C560 C 0.54236 0.99692 0.51926 0.0
C561 C 0.46516 0.06146 0.55485 0.0
C562 C 0.43332 0.08137 0.55494 0.0
C563 C 0.42102 0.06356 0.56589 0.0
C564 C 0.45273 0.04371 0.56579 0.0
C565 C 0.43072 0.04484 0.57132 0.0
C566 C 0.45541 0.0803 0.54942 0.0
C567 C 0.53476 0.0407 0.49955 0.0
C568 C 0.48944 0.06266 0.5527 0.0
C569 C 0.47833 0.96417 0.59025 0.0
C570 C 0.46804 0.95736 0.5658 0.0
C571 C 0.56066 0.08756 0.55403 0.0
C572 C 0.62614 1.00857 0.50846 0.0
C573 C 0.65421 0.98415 0.51239 0.0
C574 C 0.64552 0.97249 0.48879 0.0
C575 C 0.61703 0.99612 0.48516 0.0
C576 C 0.64449 1.00216 0.5223 0.0
C577 C 0.62683 0.9783 0.47537 0.0
C578 C 0.56967 0.04081 0.57274 0.0
C579 C 0.61891 0.03006 0.51677 0.0
H580 H 0.40402 0.06435 0.57053 0.0
H581 H 0.46031 0.02941 0.57076 0.0
H582 H 0.42131 0.03136 0.58016 0.0
H583 H 0.46517 0.09433 0.5415 0.0
H584 H 0.65306 0.95868 0.4809 0.0
H585 H 0.60284 1.00065 0.47411 0.0
H586 H 0.65166 1.01161 0.54027 0.0
H587 H 0.6201 0.96917 0.45721 0.0
Tb588 Tb 0.32713 0.278 0.78544 0.0
C589 C 0.2482 0.31441 0.73374 0.0
N590 N 0.26176 0.3256 0.7546 0.0
C591 C 0.26307 0.36186 0.73909 0.0
C592 C 0.24197 0.32659 0.71441 0.0
C593 C 0.26894 0.34905 0.75773 0.0
C594 C 0.24964 0.35059 0.71728 0.0
C595 C 0.22708 0.27836 0.71007 0.0
C596 C 0.24077 0.29051 0.73162 0.0
C597 C 0.22096 0.29047 0.69071 0.0
C598 C 0.22833 0.3145 0.69289 0.0
Tb599 Tb 0.26963 0.30253 0.78325 0.0
N600 N 0.24752 0.27919 0.75046 0.0
C601 C 0.21991 0.2544 0.70867 0.0
C602 C 0.23938 0.25611 0.74982 0.0
C603 C 0.22586 0.24328 0.72876 0.0
H604 H 0.27884 0.35799 0.77477 0.0
H605 H 0.2198 0.22487 0.72815 0.0
H606 H 0.31257 0.2216 0.78971 0.0
H607 H 0.39627 0.34369 0.83491 0.0
H608 H 0.24284 0.24758 0.76552 0.0
H609 H 0.20943 0.24441 0.69238 0.0
H610 H 0.36634 0.32564 0.79974 0.0
H611 H 0.26885 0.38043 0.74159 0.0
H612 H 0.21045 0.28141 0.67398 0.0
H613 H 0.2234 0.32358 0.67781 0.0
H614 H 0.32 0.19566 0.82019 0.0
H615 H 0.24517 0.36058 0.70285 0.0
H616 H 0.4049 0.32159 0.86876 0.0
N617 N 0.33442 0.2514 0.81074 0.0
C618 C 0.3504 0.25948 0.83074 0.0
C619 C 0.32851 0.21366 0.82351 0.0
C620 C 0.35564 0.24516 0.84837 0.0
C621 C 0.32408 0.22855 0.80643 0.0
C622 C 0.34414 0.22206 0.84475 0.0
N623 N 0.35637 0.29509 0.81558 0.0
C624 C 0.36918 0.31652 0.81524 0.0
C625 C 0.37954 0.29111 0.85283 0.0
C626 C 0.36211 0.28204 0.83302 0.0
C627 C 0.39147 0.31385 0.85377 0.0
C628 C 0.38651 0.32647 0.83466 0.0
H629 H 0.34762 0.21046 0.85789 0.0
H630 H 0.37655 0.24359 0.88263 0.0
H631 H 0.39752 0.28394 0.88652 0.0
O632 O 0.34805 0.28878 0.75859 0.0
O633 O 0.32044 0.29416 0.82183 0.0
O634 O 0.29179 0.31602 0.81823 0.0
O635 O 0.34676 0.25551 0.77076 0.0
O636 O 0.32756 0.31277 0.77414 0.0
O637 O 0.30012 0.33036 0.79114 0.0
O638 O 0.24015 0.28953 0.79963 0.0
O639 O 0.28568 0.2949 0.74925 0.0
O640 O 0.299 0.26282 0.75638 0.0
O641 O 0.24704 0.32433 0.79108 0.0
O642 O 0.27293 0.27352 0.80377 0.0
O643 O 0.29433 0.25313 0.78171 0.0
C644 C 0.30813 0.30853 0.83131 0.0
C645 C 0.38159 0.27304 0.75822 0.0
C646 C 0.41609 0.27754 0.73766 0.0
C647 C 0.42919 0.2767 0.76019 0.0
C648 C 0.39512 0.2722 0.78044 0.0
C649 C 0.41875 0.27401 0.78137 0.0
C650 C 0.39213 0.27559 0.7367 0.0
C651 C 0.31998 0.33123 0.78257 0.0
C652 C 0.35645 0.27009 0.75719 0.0
C653 C 0.37243 0.25426 0.86873 0.0
C654 C 0.3844 0.27721 0.87094 0.0
C655 C 0.2918 0.27571 0.74084 0.0
C656 C 0.22569 0.31778 0.8242 0.0
C657 C 0.19593 0.31581 0.8515 0.0
C658 C 0.20677 0.33778 0.86353 0.0
C659 C 0.23656 0.33947 0.83713 0.0
C660 C 0.2055 0.30573 0.83182 0.0
C661 C 0.22699 0.34942 0.85647 0.0
C662 C 0.27908 0.2541 0.79696 0.0
C663 C 0.23359 0.30924 0.80105 0.0
H664 H 0.44756 0.27778 0.76131 0.0
H665 H 0.38743 0.26971 0.79703 0.0
H666 H 0.42899 0.2731 0.79854 0.0
H667 H 0.38181 0.27604 0.71939 0.0
H668 H 0.19966 0.34585 0.87865 0.0
H669 H 0.25211 0.34912 0.83184 0.0
H670 H 0.19686 0.28904 0.82198 0.0
H671 H 0.23527 0.36631 0.86599 0.0
Tb672 Tb 0.06025 1.01111 0.53293 0.0
C673 C 0.02492 0.09065 0.5858 0.0
N674 N 1.01595 0.07694 0.56418 0.0
C675 C 0.97873 0.0704 0.57775 0.0
C676 C 1.01123 0.09406 0.60456 0.0
C677 C 0.9929 0.06775 0.55954 0.0
C678 C 0.98798 0.08334 0.60047 0.0
C679 C 0.05759 0.11678 0.61056 0.0
C680 C 0.04791 0.10171 0.58895 0.0
C681 C 0.04415 0.11973 0.62956 0.0
C682 C 0.02106 0.10833 0.6266 0.0
Tb683 Tb 0.04183 0.07354 0.53694 0.0
N684 N 0.06077 0.09764 0.57068 0.0
C685 C 0.08035 0.12875 0.61217 0.0
C686 C 0.08226 0.11047 0.57133 0.0
C687 C 0.09261 0.12587 0.59227 0.0
H688 H 0.98505 0.05879 0.54169 0.0
H689 H 0.10987 0.13574 0.59289 0.0
H690 H 0.11506 0.02501 0.52034 0.0
H691 H 0.99014 0.94289 0.49109 0.0
H692 H 0.09105 0.10943 0.55535 0.0
H693 H 0.08837 0.1407 0.62837 0.0
H694 H 1.01124 0.97396 0.52358 0.0
H695 H 0.96059 0.06272 0.57409 0.0
H696 H 0.05135 0.13103 0.64646 0.0
H697 H 1.01083 0.11102 0.6413 0.0
H698 H 0.13582 0.0173 0.48563 0.0
H699 H 0.97689 0.08549 0.61446 0.0
H700 H 1.00792 0.9331 0.45383 0.0
N701 N 0.08276 1.00479 0.50271 0.0
C702 C 0.07237 0.98844 0.48355 0.0
C703 C 0.11783 1.0094 0.48457 0.0
C704 C 0.08403 0.98272 0.46362 0.0
C705 C 0.10565 0.01426 0.50406 0.0
C706 C 0.10688 0.99387 0.46406 0.0
N707 N 0.03951 0.98271 0.50392 0.0
C708 C 1.01865 0.97029 0.50699 0.0
C709 C 0.03912 0.95886 0.46564 0.0
C710 C 0.05023 0.9766 0.48448 0.0
C711 C 1.01708 0.94686 0.46792 0.0
C712 C 1.00692 0.95242 0.48886 0.0
H713 H 0.11646 0.98995 0.44912 0.0
H714 H 0.08138 0.96116 0.42871 0.0
H715 H 0.04202 0.94031 0.43046 0.0
O716 O 0.05023 0.98649 0.55783 0.0
O717 O 0.04153 0.01825 0.49847 0.0
O718 O 0.03463 0.05566 0.49888 0.0
O719 O 0.0816 0.98868 0.54083 0.0
O720 O 0.02916 0.01702 0.5485 0.0
O721 O 1.01453 0.0428 0.52634 0.0
O722 O 0.05475 0.10436 0.52279 0.0
O723 O 0.052 0.05949 0.57181 0.0
O724 O 0.07765 0.03613 0.56407 0.0
O725 O 1.01929 0.09533 0.52791 0.0
O726 O 0.07452 0.0717 0.5227 0.0
O727 O 0.08824 0.04184 0.53904 0.0
C728 C 0.03482 0.035 0.48741 0.0
C729 C 0.07603 0.95926 0.56741 0.0
C730 C 0.07042 0.92722 0.59207 0.0
C731 C 0.09185 0.92275 0.58725 0.0
C732 C 0.0974 0.95414 0.5631 0.0
C733 C 0.10519 0.93612 0.57295 0.0
C734 C 0.0625 0.94583 0.58232 0.0
C735 C 1.01181 0.02367 0.53661 0.0
C736 C 0.0687 0.97828 0.55535 0.0
C737 C 0.07275 0.96563 0.44429 0.0
C738 C 0.05036 0.95369 0.44531 0.0
C739 C 0.06793 0.04827 0.57941 0.0
C740 C 0.02812 0.11853 0.49639 0.0
C741 C 0.03273 0.14924 0.46981 0.0
C742 C 1.01265 0.13731 0.45463 0.0
C743 C 1.00839 0.10687 0.48057 0.0
C744 C 0.04033 0.13968 0.49086 0.0
C745 C 1.00055 0.11648 0.46014 0.0
C746 C 0.09132 0.06135 0.52939 0.0
C747 C 0.0348 0.11003 0.51983 0.0
H748 H 0.09846 0.90886 0.59479 0.0
H749 H 0.10829 0.96404 0.5519 0.0
H750 H 0.12166 0.93246 0.56943 0.0
H751 H 0.04599 0.94945 0.58587 0.0
H752 H 1.00575 0.14446 0.43888 0.0
H753 H 0.9986 0.09066 0.48437 0.0
H754 H 0.05547 0.14881 0.50316 0.0
H755 H 0.98476 0.10789 0.44868 0.0
Tb756 Tb 0.30081 0.82484 0.77377 0.0
C757 C 0.25493 0.74618 0.83309 0.0
N758 N 0.27677 0.75906 0.83731 0.0
C759 C 0.27196 0.76906 0.87966 0.0
C760 C 0.24044 0.74547 0.85166 0.0
C761 C 0.28594 0.7686 0.86097 0.0
C762 C 0.24894 0.758 0.8748 0.0
C763 C 0.22652 0.71592 0.80712 0.0
C764 C 0.24775 0.73169 0.81091 0.0
C765 C 0.21153 0.71641 0.82491 0.0
C766 C 0.2184 0.73128 0.84705 0.0
Tb767 Tb 0.29495 0.75902 0.80241 0.0
N768 N 0.26223 0.73197 0.79363 0.0
C769 C 0.22148 0.6995 0.78604 0.0
C770 C 0.25889 0.71411 0.77506 0.0
C771 C 0.23812 0.6981 0.77035 0.0
H772 H 0.30402 0.77593 0.86597 0.0
H773 H 0.23517 0.68447 0.75498 0.0
H774 H 0.29075 0.82259 0.71155 0.0
H775 H 0.36361 0.88731 0.83739 0.0
H776 H 0.27238 0.71197 0.76414 0.0
H777 H 0.20541 0.687 0.78251 0.0
H778 H 0.32597 0.86193 0.8236 0.0
H779 H 0.27912 0.77753 0.89798 0.0
H780 H 0.19493 0.70475 0.82213 0.0
H781 H 0.20697 0.73082 0.86102 0.0
H782 H 0.31409 0.83209 0.67841 0.0
H783 H 0.23829 0.75801 0.88949 0.0
H784 H 0.3917 0.8941 0.80787 0.0
N785 N 0.31861 0.83509 0.74046 0.0
C786 C 0.34026 0.84793 0.74642 0.0
C787 C 0.32176 0.83637 0.69747 0.0
C788 C 0.35408 0.8541 0.72807 0.0
C789 C 0.30865 0.83092 0.71632 0.0
C790 C 0.34477 0.84747 0.70335 0.0
N791 N 0.33344 0.85187 0.78786 0.0
C792 C 0.33848 0.86348 0.81115 0.0
C793 C 0.36947 0.8717 0.77763 0.0
C794 C 0.34787 0.85675 0.77089 0.0
C795 C 0.37543 0.88224 0.80204 0.0
C796 C 0.35964 0.87846 0.81876 0.0
H797 H 0.35485 0.85182 0.68871 0.0
H798 H 0.3873 0.87216 0.72108 0.0
H799 H 0.4008 0.8875 0.76455 0.0
O800 O 0.29202 0.8553 0.79038 0.0
O801 O 0.33446 0.81554 0.78973 0.0
O802 O 0.33118 0.77852 0.80389 0.0
O803 O 0.27622 0.83859 0.75415 0.0
O804 O 0.2901 0.80919 0.80596 0.0
O805 O 0.3095 0.78844 0.82907 0.0
O806 O 0.31253 0.7368 0.78258 0.0
O807 O 0.26195 0.76591 0.78338 0.0
O808 O 0.26517 0.80271 0.76945 0.0
O809 O 0.30181 0.73056 0.81793 0.0
O810 O 0.29805 0.77978 0.77402 0.0
O811 O 0.29975 0.79837 0.74323 0.0
C812 C 0.34348 0.79848 0.79884 0.0
C813 C 0.27637 0.87795 0.76216 0.0
C814 C 0.25727 0.91049 0.76244 0.0
C815 C 0.26471 0.91499 0.73983 0.0
C816 C 0.2843 0.88302 0.73989 0.0
C817 C 0.27841 0.90145 0.72878 0.0
C818 C 0.26327 0.89203 0.77363 0.0
C819 C 0.30412 0.80814 0.82554 0.0
C820 C 0.27753 0.85589 0.77113 0.0
C821 C 0.37628 0.86761 0.7349 0.0
C822 C 0.38397 0.87639 0.75965 0.0
C823 C 0.25295 0.78244 0.77346 0.0
C824 C 0.33476 0.71785 0.80947 0.0
C825 C 0.35927 0.68988 0.80715 0.0
C826 C 0.36961 0.69827 0.83131 0.0
C827 C 0.34596 0.72684 0.83333 0.0
C828 C 0.34187 0.69968 0.79617 0.0
C829 C 0.36313 0.71688 0.84424 0.0
C830 C 0.29862 0.77862 0.75063 0.0
C831 C 0.31312 0.72413 0.80051 0.0
H832 H 0.26022 0.92919 0.73092 0.0
H833 H 0.29424 0.87223 0.73059 0.0
H834 H 0.28415 0.90502 0.71138 0.0
H835 H 0.25682 0.88796 0.79064 0.0
H836 H 0.38292 0.69059 0.84 0.0
H837 H 0.34068 0.74083 0.84401 0.0
H838 H 0.33331 0.69257 0.77781 0.0
H839 H 0.37119 0.72337 0.86286 0.0
Tb840 Tb 0.55307 0.06258 1.00282 0.0
C841 C 0.5834 1.00614 0.09309 0.0
N842 N 0.56599 0.99849 0.07444 0.0
C843 C 0.57754 0.96212 0.0684 0.0
C844 C 0.59921 0.99238 0.09964 0.0
C845 C 0.56259 0.97668 0.06227 0.0
C846 C 0.59609 0.97008 0.08701 0.0
C847 C 0.60348 0.03705 0.12446 0.0
C848 C 0.58549 0.0281 0.10513 0.0
C849 C 0.61977 0.02373 0.13073 0.0
C850 C 0.61759 1.00139 0.11838 0.0
Tb851 Tb 0.5443 0.02412 0.0633 0.0
N852 N 0.56952 0.04043 0.09819 0.0
C853 C 0.60428 0.05888 0.13715 0.0
C854 C 0.56908 0.06077 0.11214 0.0
C855 C 0.5867 0.07056 0.1313 0.0
H856 H 0.54847 0.97054 0.0477 0.0
H857 H 0.5865 0.08697 0.14177 0.0
H858 H 0.54466 0.11487 0.02219 0.0
H859 H 0.51167 0.99977 0.92397 0.0
H860 H 0.55504 0.06948 0.10933 0.0
H861 H 0.61786 0.06645 0.15205 0.0
H862 H 0.54147 0.01608 0.95833 0.0
H863 H 0.57488 0.94486 0.05861 0.0
H864 H 0.63387 0.0304 0.14534 0.0
H865 H 0.63012 0.9912 0.12355 0.0
H866 H 0.51843 0.1401 0.01028 0.0
H867 H 0.60781 0.95888 0.09152 0.0
H868 H 0.48273 0.02207 0.91058 0.0
N869 N 0.53033 0.088 0.99273 0.0
C870 C 0.51505 0.08143 0.97178 0.0
C871 C 0.51714 0.12352 0.99944 0.0
C872 C 0.49936 0.09516 0.96464 0.0
C873 C 0.53186 0.10898 0.00629 0.0
C874 C 0.50067 0.1165 0.97869 0.0
N875 N 0.52872 0.04674 0.96702 0.0
C876 C 0.52864 0.02583 0.95392 0.0
C877 C 0.49696 0.05148 0.93823 0.0
C878 C 0.51409 0.06001 0.95852 0.0
C879 C 0.4958 0.02936 0.92607 0.0
C880 C 0.51195 0.01664 0.93373 0.0
H881 H 0.489 0.12763 0.97374 0.0
H882 H 0.47013 0.09712 0.9386 0.0
H883 H 0.46781 0.05872 0.91571 0.0
O884 O 0.57846 0.06078 0.97976 0.0
O885 O 0.51675 0.05095 1.00376 0.0
O886 O 0.53415 0.03972 0.03368 0.0
O887 O 0.57317 0.09356 0.99622 0.0
O888 O 0.559 0.02588 0.99849 0.0
O889 O 0.53922 1.00387 0.02588 0.0
O890 O 0.5201 0.02508 0.08737 0.0
O891 O 0.57815 0.02818 0.05253 0.0
O892 O 0.57367 0.06083 0.03762 0.0
O893 O 0.51794 0.99476 0.06118 0.0
O894 O 0.53824 0.06032 0.06894 0.0
O895 O 0.55527 0.08308 0.04037 0.0
C896 C 0.51454 0.04044 0.02232 0.0
C897 C 0.58178 0.09107 0.9557 0.0
C898 C 0.59252 0.08769 0.91478 0.0
C899 C 0.58072 0.10499 0.90876 0.0
C900 C 0.56946 0.10809 0.94963 0.0
C901 C 0.56906 0.11504 0.9262 0.0
C902 C 0.5932 0.08103 0.93824 0.0
C903 C 0.54959 1.0057 0.0056 0.0
C904 C 0.58289 0.08308 0.97982 0.0
C905 C 0.4825 0.0869 0.94419 0.0
C906 C 0.4812 0.06505 0.93114 0.0
C907 C 0.58613 0.0454 0.04115 0.0
C908 C 0.50369 0.98987 0.09914 0.0
C909 C 0.48675 0.98745 0.13699 0.0
C910 C 0.48605 0.96345 0.13406 0.0
C911 C 0.5034 0.96613 0.09663 0.0
C912 C 0.49605 1.00046 0.11961 0.0
C913 C 0.49476 0.95302 0.11427 0.0
C914 C 0.54547 0.0806 0.061 0.0
C915 C 0.50963 1.00386 0.07981 0.0
H916 H 0.58046 0.11053 0.89067 0.0
H917 H 0.56028 0.11606 0.96288 0.0
H918 H 0.55976 0.12826 0.92157 0.0
H919 H 0.60294 0.06811 0.94304 0.0
H920 H 0.47836 0.9525 0.14663 0.0
H921 H 0.50932 0.95765 0.0809 0.0
H922 H 0.49704 0.01894 0.12167 0.0
H923 H 0.49419 0.93463 0.11223 0.0
Tb924 Tb 0.28561 0.2649 0.26877 0.0
C925 C 0.36336 0.34076 0.33222 0.0
N926 N 0.34166 0.33191 0.33638 0.0
C927 C 0.35431 0.33704 0.37989 0.0
C928 C 0.3816 0.34712 0.35172 0.0
C929 C 0.33679 0.33167 0.36001 0.0
C930 C 0.37696 0.34427 0.37567 0.0
C931 C 0.38799 0.35873 0.30456 0.0
C932 C 0.3666 0.34647 0.30897 0.0
C933 C 0.40661 0.36361 0.32346 0.0
C934 C 0.40344 0.35776 0.34699 0.0
Tb935 Tb 0.31418 0.32493 0.3026 0.0
N936 N 0.34811 0.34177 0.29122 0.0
C937 C 0.38959 0.36705 0.28185 0.0
C938 C 0.34909 0.35158 0.26997 0.0
C939 C 0.36988 0.36405 0.26476 0.0
H940 H 0.31933 0.32944 0.3636 0.0
H941 H 0.37067 0.37125 0.24759 0.0
H942 H 0.27836 0.27247 0.20862 0.0
H943 H 0.22606 0.2265 0.32695 0.0
H944 H 0.33389 0.34975 0.25708 0.0
H945 H 0.40569 0.37674 0.27781 0.0
H946 H 0.26321 0.24611 0.31768 0.0
H947 H 0.35022 0.33663 0.39851 0.0
H948 H 0.42327 0.37286 0.32038 0.0
H949 H 0.41768 0.36266 0.36171 0.0
H950 H 0.24713 0.2645 0.1747 0.0
H951 H 0.39045 0.34915 0.39117 0.0
H952 H 0.19265 0.21657 0.29438 0.0
N953 N 0.2575 0.26124 0.23572 0.0
C954 C 0.23633 0.24998 0.23934 0.0
C955 C 0.24369 0.26077 0.1929 0.0
C956 C 0.21802 0.24392 0.21986 0.0
C957 C 0.26137 0.26618 0.21262 0.0
C958 C 0.22189 0.24966 0.19653 0.0
N959 N 0.25129 0.24924 0.2807 0.0
C960 C 0.24892 0.24284 0.30351 0.0
C961 C 0.21157 0.23168 0.26678 0.0
C962 C 0.23318 0.24365 0.26246 0.0
C963 C 0.20898 0.22573 0.29033 0.0
C964 C 0.22776 0.23135 0.30877 0.0
H965 H 0.20832 0.24509 0.18108 0.0
H966 H 0.18239 0.22689 0.20927 0.0
H967 H 0.17668 0.21643 0.25042 0.0
O968 O 0.28927 0.23196 0.27664 0.0
O969 O 0.26008 0.28641 0.28141 0.0
O970 O 0.28011 0.31224 0.31435 0.0
O971 O 0.28428 0.23971 0.23871 0.0
O972 O 0.30048 0.26378 0.30748 0.0
O973 O 0.30279 0.30019 0.32797 0.0
O974 O 0.30172 0.35212 0.28863 0.0
O975 O 0.33951 0.30732 0.28468 0.0
O976 O 0.32349 0.2701 0.26666 0.0
O977 O 0.31878 0.35611 0.32583 0.0
O978 O 0.29351 0.32111 0.26637 0.0
O979 O 0.30144 0.28979 0.24541 0.0
C980 C 0.26023 0.30101 0.30164 0.0
C981 C 0.28818 0.20113 0.2439 0.0
C982 C 0.30279 0.16712 0.2507 0.0
C983 C 0.29698 0.1586 0.2256 0.0
C984 C 0.28205 0.19267 0.2188 0.0
C985 C 0.28638 0.17131 0.20972 0.0
C986 C 0.29818 0.18819 0.25978 0.0
C987 C 0.30125 0.27776 0.32802 0.0
C988 C 0.28729 0.22457 0.25321 0.0
C989 C 0.19657 0.23181 0.22407 0.0
C990 C 0.19333 0.2258 0.24748 0.0
C991 C 0.34157 0.28722 0.27306 0.0
C992 C 0.29101 0.37794 0.3176 0.0
C993 C 0.27144 0.40885 0.31154 0.0
C994 C 0.25983 0.40455 0.33183 0.0
C995 C 0.28024 0.37387 0.33855 0.0
C996 C 0.28649 0.39527 0.30417 0.0
C997 C 0.26425 0.38692 0.34534 0.0
C998 C 0.29859 0.31109 0.246 0.0
C999 C 0.30792 0.36552 0.30946 0.0
H1000 H 0.30071 0.14225 0.21838 0.0
H1001 H 0.27451 0.20277 0.20617 0.0
H1002 H 0.28194 0.16485 0.19034 0.0
H1003 H 0.30369 0.19509 0.27902 0.0
H1004 H 0.24806 0.41521 0.33757 0.0
H1005 H 0.28447 0.36103 0.34974 0.0
H1006 H 0.2953 0.39873 0.28831 0.0
H1007 H 0.25577 0.38377 0.36137 0.0
Tb1008 Tb 0.55958 0.50834 0.03161 0.0
C1009 C 0.52575 0.59321 0.0804 0.0
N1010 N 0.51705 0.57913 0.05902 0.0
C1011 C 0.47912 0.57552 0.07064 0.0
C1012 C 0.51159 0.59812 0.09827 0.0
C1013 C 0.49383 0.57129 0.05341 0.0
C1014 C 0.48807 0.58866 0.09334 0.0
C1015 C 0.55862 0.6182 0.10587 0.0
C1016 C 0.54895 0.60313 0.08422 0.0
C1017 C 0.54473 0.62259 0.12404 0.0
C1018 C 0.52127 0.61252 0.12027 0.0
Tb1019 Tb 0.54366 0.57183 0.03385 0.0
N1020 N 0.56212 0.59763 0.06679 0.0
C1021 C 0.58205 0.6281 0.10875 0.0
C1022 C 0.58471 0.60802 0.06897 0.0
C1023 C 0.5951 0.62311 0.09014 0.0
H1024 H 0.48636 0.56186 0.03564 0.0
H1025 H 0.6131 0.63104 0.09213 0.0
H1026 H 0.6157 0.51471 0.02358 0.0
H1027 H 0.48842 0.44282 0.9866 0.0
H1028 H 0.59448 0.60513 0.05415 0.0
H1029 H 0.59017 0.63978 0.1251 0.0
H1030 H 0.50991 0.47248 0.02044 0.0
H1031 H 0.46083 0.56878 0.06631 0.0
H1032 H 0.55194 0.6338 0.141 0.0
H1033 H 0.51069 0.61625 0.13434 0.0
H1034 H 0.63739 0.50704 0.98942 0.0
H1035 H 0.47661 0.59195 0.10662 0.0
H1036 H 0.50589 0.43491 0.94861 0.0
N1037 N 0.58283 0.50054 1.00258 0.0
C1038 C 0.57182 0.48666 0.98183 0.0
C1039 C 0.61888 0.50159 0.98683 0.0
C1040 C 0.58378 0.48074 0.96221 0.0
C1041 C 0.60635 0.50643 0.00602 0.0
C1042 C 0.60748 0.48919 0.96458 0.0
N1043 N 0.53827 0.48189 1.001 0.0
C1044 C 0.51732 0.46928 1.00371 0.0
C1045 C 0.5375 0.45976 0.9616 0.0
C1046 C 0.54896 0.47639 0.98134 0.0
C1047 C 0.51525 0.44792 0.96334 0.0
C1048 C 0.50531 0.45236 0.98474 0.0
H1049 H 0.6173 0.48509 0.94991 0.0
H1050 H 0.58082 0.46105 0.92615 0.0
H1051 H 0.54028 0.44256 0.92568 0.0
O1052 O 0.54918 0.48791 0.05921 0.0
O1053 O 0.53593 0.5148 1.00077 0.0
O1054 O 0.54844 0.55304 0.99838 0.0
O1055 O 0.57502 0.48022 0.03754 0.0
O1056 O 0.53009 0.51627 0.04927 0.0
O1057 O 0.51546 0.54164 0.0267 0.0
O1058 O 0.55493 0.60387 0.0216 0.0
O1059 O 0.55448 0.55961 0.06992 0.0
O1060 O 0.57868 0.53498 0.06056 0.0
O1061 O 0.51992 0.58538 0.01167 0.0
O1062 O 0.57735 0.57107 0.02286 0.0
O1063 O 0.58935 0.53758 0.03297 0.0
C1064 C 0.53717 0.53245 0.98818 0.0
C1065 C 0.57415 0.46456 0.07512 0.0
C1066 C 0.57333 0.43469 0.10233 0.0
C1067 C 0.59582 0.44511 0.11294 0.0
C1068 C 0.59713 0.47374 0.08485 0.0
C1069 C 0.60764 0.46445 0.10414 0.0
C1070 C 0.56242 0.4447 0.08359 0.0
C1071 C 0.51252 0.52347 0.03851 0.0
C1072 C 0.56277 0.47383 0.05451 0.0
C1073 C 0.57197 0.46555 0.94154 0.0
C1074 C 0.5489 0.45498 0.94129 0.0
C1075 C 0.57001 0.54747 0.07681 0.0
C1076 C 0.52797 0.62546 0.00716 0.0
C1077 C 0.52961 0.66009 0.9866 0.0
C1078 C 0.51188 0.66566 0.9994 0.0
C1079 C 0.5105 0.63146 0.01989 0.0
C1080 C 0.53773 0.63995 0.99078 0.0
C1081 C 0.50254 0.65152 0.01599 0.0
C1082 C 0.59288 0.55831 0.02547 0.0
C1083 C 0.53518 0.6034 0.009 0.0
H1084 H 0.60463 0.43764 0.12728 0.0
H1085 H 0.60697 0.48807 0.07752 0.0
H1086 H 0.62524 0.4719 0.11189 0.0
H1087 H 0.54507 0.43674 0.07522 0.0
H1088 H 0.50534 0.68111 0.99675 0.0
H1089 H 0.50282 0.6205 0.0325 0.0
H1090 H 0.55109 0.63515 0.98073 0.0
H1091 H 0.48893 0.65606 0.02572 0.0
Tb1092 Tb 0.80128 0.32388 0.27492 0.0
C1093 C 0.75242 0.2466 0.32472 0.0
N1094 N 0.77485 0.25772 0.33011 0.0
C1095 C 0.77036 0.2631 0.37313 0.0
C1096 C 0.73786 0.24468 0.34322 0.0
C1097 C 0.78428 0.26391 0.35436 0.0
C1098 C 0.74692 0.25401 0.36745 0.0
C1099 C 0.72255 0.22057 0.29589 0.0
C1100 C 0.74467 0.23464 0.30125 0.0
C1101 C 0.70755 0.22007 0.31375 0.0
C1102 C 0.71516 0.23217 0.33734 0.0
Tb1103 Tb 0.79456 0.25805 0.29642 0.0
N1104 N 0.75941 0.23551 0.28413 0.0
C1105 C 0.71659 0.20647 0.27317 0.0
C1106 C 0.75448 0.2204 0.2629 0.0
C1107 C 0.73274 0.20614 0.25674 0.0
H1108 H 0.80261 0.2692 0.35971 0.0
H1109 H 0.7285 0.19464 0.23959 0.0
H1110 H 0.79116 0.31557 0.21195 0.0
H1111 H 0.86721 0.38566 0.33556 0.0
H1112 H 0.76744 0.21954 0.25094 0.0
H1113 H 0.69994 0.19501 0.2686 0.0
H1114 H 0.82995 0.35894 0.32441 0.0
H1115 H 0.77788 0.26886 0.39207 0.0
H1116 H 0.69033 0.20964 0.30983 0.0
H1117 H 0.7037 0.23077 0.35127 0.0
H1118 H 0.81422 0.32193 0.17834 0.0
H1119 H 0.73628 0.25287 0.38215 0.0
H1120 H 0.89332 0.39244 0.30409 0.0
N1121 N 0.81906 0.33001 0.24056 0.0
C1122 C 0.84049 0.34366 0.24557 0.0
C1123 C 0.82197 0.32774 0.19719 0.0
C1124 C 0.85398 0.34853 0.22657 0.0
C1125 C 0.80909 0.32373 0.21654 0.0
C1126 C 0.8447 0.33971 0.20226 0.0
N1127 N 0.83495 0.34973 0.28755 0.0
C1128 C 0.8412 0.36136 0.31078 0.0
C1129 C 0.87006 0.36935 0.2751 0.0
C1130 C 0.84846 0.35418 0.26959 0.0
C1131 C 0.87692 0.38056 0.29918 0.0
C1132 C 0.86228 0.37676 0.31701 0.0
H1133 H 0.85455 0.34302 0.18719 0.0
H1134 H 0.8866 0.36642 0.21789 0.0
H1135 H 0.9007 0.38452 0.26039 0.0
O1136 O 0.7939 0.35534 0.29008 0.0
O1137 O 0.83557 0.31533 0.2895 0.0
O1138 O 0.83114 0.27759 0.30064 0.0
O1139 O 0.77831 0.33863 0.25374 0.0
O1140 O 0.79039 0.30943 0.30703 0.0
O1141 O 0.80979 0.28586 0.325 0.0
O1142 O 0.80706 0.23088 0.27815 0.0
O1143 O 0.7634 0.26643 0.27412 0.0
O1144 O 0.76872 0.30527 0.28594 0.0
O1145 O 0.80116 0.23121 0.31584 0.0
O1146 O 0.80932 0.27231 0.26614 0.0
O1147 O 0.79057 0.29525 0.24582 0.0
C1148 C 0.84423 0.29782 0.29755 0.0
C1149 C 0.77944 0.3784 0.26208 0.0
C1150 C 0.76132 0.41171 0.26225 0.0
C1151 C 0.77281 0.41839 0.24241 0.0
C1152 C 0.79095 0.3853 0.24245 0.0
C1153 C 0.7876 0.40528 0.23269 0.0
C1154 C 0.76485 0.39167 0.27203 0.0
C1155 C 0.80459 0.30602 0.32506 0.0
C1156 C 0.77978 0.3561 0.27062 0.0
C1157 C 0.87593 0.36277 0.23224 0.0
C1158 C 0.88393 0.37316 0.25642 0.0
C1159 C 0.75509 0.28568 0.27524 0.0
C1160 C 0.8323 0.21616 0.30498 0.0
C1161 C 0.85779 0.18908 0.30568 0.0
C1162 C 0.87481 0.20583 0.32066 0.0
C1163 C 0.84919 0.23257 0.32066 0.0
C1164 C 0.83663 0.19433 0.29749 0.0
C1165 C 0.8705 0.22753 0.32808 0.0
C1166 C 0.79733 0.27585 0.2465 0.0
C1167 C 0.80965 0.22117 0.29801 0.0
H1168 H 0.77057 0.43386 0.23456 0.0
H1169 H 0.80204 0.375 0.23438 0.0
H1170 H 0.7963 0.41052 0.21737 0.0
H1171 H 0.75554 0.38584 0.28678 0.0
H1172 H 0.89113 0.2018 0.32727 0.0
H1173 H 0.84587 0.24922 0.32737 0.0
H1174 H 0.82332 0.18123 0.28628 0.0
H1175 H 0.8835 0.24027 0.34005 0.0
Tb1176 Tb 0.05266 0.56301 0.50373 0.0
C1177 C 0.08538 0.50112 0.59297 0.0
N1178 N 0.06972 0.49485 0.5724 0.0
C1179 C 0.08147 0.45858 0.56548 0.0
C1180 C 0.10023 0.48659 0.6002 0.0
C1181 C 0.06737 0.47373 0.55881 0.0
C1182 C 0.09809 0.46509 0.58616 0.0
C1183 C 0.10389 0.53028 0.62705 0.0
C1184 C 0.08705 0.52257 0.60633 0.0
C1185 C 0.11878 0.51592 0.63429 0.0
C1186 C 0.11692 0.49409 0.62093 0.0
Tb1187 Tb 0.04876 0.52153 0.5621 0.0
N1188 N 0.07309 0.53643 0.59796 0.0
C1189 C 0.10557 0.55238 0.63957 0.0
C1190 C 0.0743 0.55777 0.61069 0.0
C1191 C 0.09057 0.56609 0.63144 0.0
H1192 H 0.05446 0.46832 0.5429 0.0
H1193 H 0.09157 0.58315 0.6411 0.0
H1194 H 0.04342 0.61436 0.52248 0.0
H1195 H 1.01616 0.50403 0.42006 0.0
H1196 H 0.06302 0.56872 0.6052 0.0
H1197 H 0.11834 0.55899 0.65549 0.0
H1198 H 0.04649 0.52182 0.45354 0.0
H1199 H 0.07956 0.4419 0.55461 0.0
H1200 H 0.1319 0.52159 0.65007 0.0
H1201 H 0.1286 0.48323 0.62666 0.0
H1202 H 1.01343 0.63688 0.51467 0.0
H1203 H 0.10916 0.4534 0.59112 0.0
H1204 H 0.98159 0.5207 0.41258 0.0
N1205 N 0.02764 0.58642 0.49496 0.0
C1206 C 1.01036 0.57826 0.47631 0.0
C1207 C 1.01222 0.6203 0.50385 0.0
C1208 C 0.99266 0.59032 0.47126 0.0
C1209 C 0.02915 0.60743 0.50835 0.0
C1210 C 0.9937 0.61157 0.48542 0.0
N1211 N 0.0285 0.54723 0.46774 0.0
C1212 C 0.03123 0.52893 0.45176 0.0
C1213 C 0.9931 0.5485 0.44262 0.0
C1214 C 1.01063 0.55773 0.46235 0.0
C1215 C 0.99474 0.52844 0.42784 0.0
C1216 C 1.01418 0.51895 0.43208 0.0
H1217 H 0.98049 0.62146 0.48208 0.0
H1218 H 0.9607 0.58965 0.44825 0.0
H1219 H 0.96104 0.55289 0.42314 0.0
O1220 O 0.07912 0.56406 0.48217 0.0
O1221 O 1.01883 0.55327 0.51424 0.0
O1222 O 0.02798 0.52167 0.52739 0.0
O1223 O 0.07454 0.59514 0.503 0.0
O1224 O 0.05997 0.52744 0.49456 0.0
O1225 O 0.05085 0.50296 0.52488 0.0
O1226 O 0.02273 0.52342 0.58431 0.0
O1227 O 0.08465 0.53674 0.56186 0.0
O1228 O 0.06516 0.54827 0.53326 0.0
O1229 O 0.02696 0.49083 0.56601 0.0
O1230 O 0.0394 0.55633 0.56743 0.0
O1231 O 0.05613 0.58235 0.54175 0.0
C1232 C 1.01296 0.53458 0.52429 0.0
C1233 C 0.08591 0.59711 0.46326 0.0
C1234 C 0.09636 0.59506 0.42202 0.0
C1235 C 0.08623 0.6139 0.4177 0.0
C1236 C 0.07523 0.61564 0.45881 0.0
C1237 C 0.07561 0.6241 0.43609 0.0
C1238 C 0.09652 0.58707 0.44484 0.0
C1239 C 0.05721 0.50685 0.50285 0.0
C1240 C 0.0849 0.58642 0.4859 0.0
C1241 C 0.97465 0.58082 0.45226 0.0
C1242 C 0.97483 0.55988 0.438 0.0
C1243 C 0.08533 0.54854 0.54396 0.0
C1244 C 1.00936 0.48966 0.6019 0.0
C1245 C 0.99076 0.49006 0.63868 0.0
C1246 C 0.98888 0.46593 0.63722 0.0
C1247 C 1.00814 0.46578 0.60119 0.0
C1248 C 1.00114 0.5018 0.62096 0.0
C1249 C 0.99798 0.45402 0.61889 0.0
C1250 C 0.0456 0.57761 0.56143 0.0
C1251 C 1.01556 0.50109 0.58085 0.0
H1252 H 0.08629 0.62043 0.4001 0.0
H1253 H 0.06649 0.62341 0.47265 0.0
H1254 H 0.06748 0.63842 0.43266 0.0
H1255 H 0.10476 0.57271 0.44817 0.0
H1256 H 0.98009 0.45607 0.65003 0.0
H1257 H 1.01418 0.45601 0.58642 0.0
H1258 H 1.00238 0.52028 0.62165 0.0
H1259 H 0.99653 0.43554 0.61799 0.0
Tb1260 Tb 0.82889 0.78135 0.284 0.0
C1261 C 0.74708 0.8134 0.23344 0.0
N1262 N 0.76199 0.824 0.25369 0.0
C1263 C 0.76578 0.86012 0.2374 0.0
C1264 C 0.74151 0.82576 0.21402 0.0
C1265 C 0.77091 0.84719 0.25619 0.0
C1266 C 0.75113 0.84936 0.21617 0.0
C1267 C 0.72295 0.77821 0.21088 0.0
C1268 C 0.73788 0.7898 0.23186 0.0
C1269 C 0.7174 0.79053 0.19149 0.0
C1270 C 0.72662 0.81421 0.19306 0.0
Tb1271 Tb 0.7678 0.80055 0.28279 0.0
N1272 N 0.74433 0.77811 0.25054 0.0
C1273 C 0.71407 0.75457 0.21002 0.0
C1274 C 0.73477 0.75542 0.25041 0.0
C1275 C 0.71976 0.74321 0.23002 0.0
H1276 H 0.78144 0.85606 0.27286 0.0
H1277 H 0.71247 0.72509 0.22981 0.0
H1278 H 0.81684 0.7254 0.29243 0.0
H1279 H 0.89768 0.85022 0.3278 0.0
H1280 H 0.73819 0.74684 0.26616 0.0
H1281 H 0.70252 0.74503 0.1942 0.0
H1282 H 0.8668 0.83002 0.2947 0.0
H1283 H 0.77294 0.87844 0.23942 0.0
H1284 H 0.70597 0.78189 0.17518 0.0
H1285 H 0.72217 0.82343 0.17793 0.0
H1286 H 0.82467 0.70241 0.32559 0.0
H1287 H 0.74722 0.85947 0.20165 0.0
H1288 H 0.90707 0.83103 0.36428 0.0
N1289 N 0.8368 0.75705 0.31193 0.0
C1290 C 0.85268 0.76675 0.33162 0.0
C1291 C 0.83241 0.7206 0.32771 0.0
C1292 C 0.85834 0.75404 0.3507 0.0
C1293 C 0.82762 0.73391 0.30911 0.0
C1294 C 0.84753 0.73081 0.34882 0.0
N1295 N 0.85822 0.8006 0.31299 0.0
C1296 C 0.87058 0.82184 0.31077 0.0
C1297 C 0.88159 0.79983 0.35119 0.0
C1298 C 0.86416 0.78921 0.33194 0.0
C1299 C 0.89353 0.82222 0.34984 0.0
C1300 C 0.88824 0.83313 0.32931 0.0
H1301 H 0.85135 0.72041 0.36311 0.0
H1302 H 0.87942 0.75538 0.38563 0.0
H1303 H 0.8998 0.79555 0.38605 0.0
O1304 O 0.85061 0.79269 0.25798 0.0
O1305 O 0.82416 0.80121 0.31899 0.0
O1306 O 0.78631 0.80562 0.32042 0.0
O1307 O 0.84867 0.7591 0.26948 0.0
O1308 O 0.82303 0.8134 0.26999 0.0
O1309 O 0.79806 0.82848 0.2928 0.0
O1310 O 0.7362 0.78934 0.2962 0.0
O1311 O 0.78228 0.79248 0.24749 0.0
O1312 O 0.80129 0.76392 0.25535 0.0
O1313 O 0.74827 0.82495 0.29253 0.0
O1314 O 0.77033 0.76923 0.29996 0.0
O1315 O 0.7976 0.75457 0.2805 0.0
C1316 C 0.80745 0.80655 0.33098 0.0
C1317 C 0.88374 0.7762 0.25769 0.0
C1318 C 0.9181 0.77919 0.23718 0.0
C1319 C 0.93088 0.77718 0.2595 0.0
C1320 C 0.89688 0.77425 0.2798 0.0
C1321 C 0.9203 0.77467 0.28062 0.0
C1322 C 0.8944 0.77857 0.23628 0.0
C1323 C 0.81713 0.83089 0.2826 0.0
C1324 C 0.85872 0.77385 0.25637 0.0
C1325 C 0.87502 0.76477 0.37062 0.0
C1326 C 0.88666 0.78763 0.37085 0.0
C1327 C 0.791 0.77471 0.23958 0.0
C1328 C 0.72512 0.8175 0.32413 0.0
C1329 C 0.69555 0.81508 0.35175 0.0
C1330 C 0.70799 0.83558 0.36584 0.0
C1331 C 0.73751 0.8376 0.33911 0.0
C1332 C 0.70426 0.80595 0.33087 0.0
C1333 C 0.72886 0.84662 0.35964 0.0
C1334 C 0.78036 0.75211 0.29357 0.0
C1335 C 0.73257 0.81021 0.30024 0.0
H1336 H 0.94908 0.77725 0.26049 0.0
H1337 H 0.88897 0.77186 0.29631 0.0
H1338 H 0.93024 0.77284 0.29765 0.0
H1339 H 0.88433 0.77983 0.21906 0.0
H1340 H 0.70164 0.84294 0.38192 0.0
H1341 H 0.75364 0.8468 0.33462 0.0
H1342 H 0.69448 0.79046 0.31951 0.0
H1343 H 0.73832 0.86234 0.37075 0.0
Tb1344 Tb 0.77977 0.2936 0.81601 0.0
C1345 C 0.83229 0.25734 0.72238 0.0
N1346 N 0.84143 0.27525 0.7401 0.0
C1347 C 0.8779 0.26394 0.74172 0.0
C1348 C 0.84536 0.24137 0.71418 0.0
C1349 C 0.86411 0.27917 0.74928 0.0
C1350 C 0.8684 0.24473 0.72433 0.0
C1351 C 0.79977 0.23745 0.69308 0.0
C1352 C 0.80992 0.25547 0.71214 0.0
C1353 C 0.81231 0.22087 0.68544 0.0
C1354 C 0.83511 0.22285 0.69596 0.0
Tb1355 Tb 0.81725 0.29725 0.75458 0.0
N1356 N 0.79848 0.27185 0.72026 0.0
C1357 C 0.7776 0.23699 0.68187 0.0
C1358 C 0.77758 0.27248 0.70766 0.0
C1359 C 0.76669 0.25489 0.68881 0.0
H1360 H 0.87172 0.29419 0.76239 0.0
H1361 H 0.75002 0.25541 0.67934 0.0
H1362 H 0.72557 0.29709 0.79789 0.0
H1363 H 0.84412 0.34618 0.88757 0.0
H1364 H 0.76915 0.28664 0.71103 0.0
H1365 H 0.76917 0.22347 0.66717 0.0
H1366 H 0.83054 0.31834 0.85084 0.0
H1367 H 0.89583 0.26704 0.74933 0.0
H1368 H 0.80471 0.20677 0.67103 0.0
H1369 H 0.84477 0.21023 0.68958 0.0
H1370 H 0.69799 0.32001 0.811 0.0
H1371 H 0.87907 0.23289 0.71853 0.0
H1372 H 0.81743 0.36794 0.90587 0.0
N1373 N 0.7526 0.31402 0.82622 0.0
C1374 C 0.75863 0.3298 0.84679 0.0
C1375 C 0.71506 0.32307 0.82112 0.0
C1376 C 0.7432 0.3432 0.85502 0.0
C1377 C 0.73098 0.31031 0.81354 0.0
C1378 C 0.7212 0.33964 0.84189 0.0
N1379 N 0.79559 0.32133 0.84918 0.0
C1380 C 0.81818 0.32607 0.85926 0.0
C1381 C 0.78816 0.35058 0.87944 0.0
C1382 C 0.78075 0.33333 0.85896 0.0
C1383 C 0.81107 0.3548 0.89017 0.0
C1384 C 0.82616 0.34254 0.87994 0.0
H1385 H 0.70886 0.34961 0.84761 0.0
H1386 H 0.73868 0.37049 0.88229 0.0
H1387 H 0.77811 0.37701 0.90361 0.0
O1388 O 0.783 0.27125 0.84242 0.0
O1389 O 0.79293 0.32955 0.8136 0.0
O1390 O 0.80407 0.30927 0.78535 0.0
O1391 O 0.74992 0.27196 0.82267 0.0
O1392 O 0.81542 0.28575 0.82161 0.0
O1393 O 0.8385 0.29814 0.79098 0.0
O1394 O 0.81592 0.32332 0.73275 0.0
O1395 O 0.81098 0.26355 0.76594 0.0
O1396 O 0.77963 0.2705 0.78203 0.0
O1397 O 0.84762 0.32207 0.75474 0.0
O1398 O 0.78227 0.30572 0.74938 0.0
O1399 O 0.75892 0.293 0.77937 0.0
C1400 C 0.8044 0.32979 0.79555 0.0
C1401 C 0.75038 0.26235 0.8629 0.0
C1402 C 0.75093 0.24534 0.90061 0.0
C1403 C 0.72787 0.24703 0.90155 0.0
C1404 C 0.72743 0.2642 0.86383 0.0
C1405 C 0.71637 0.25691 0.88345 0.0
C1406 C 0.76229 0.25414 0.88192 0.0
C1407 C 0.83561 0.29036 0.81271 0.0
C1408 C 0.76081 0.26416 0.84043 0.0
C1409 C 0.7503 0.35999 0.87576 0.0
C1410 C 0.77272 0.36367 0.88795 0.0
C1411 C 0.79411 0.25688 0.77831 0.0
C1412 C 0.84885 0.33466 0.71543 0.0
C1413 C 0.84609 0.34816 0.67578 0.0
C1414 C 0.86437 0.33798 0.66967 0.0
C1415 C 0.867 0.32413 0.70943 0.0
C1416 C 0.83878 0.34686 0.6987 0.0
C1417 C 0.8748 0.32594 0.68656 0.0
C1418 C 0.76206 0.30096 0.75795 0.0
C1419 C 0.83788 0.33153 0.73745 0.0
H1420 H 0.71843 0.2399 0.91557 0.0
H1421 H 0.71777 0.27031 0.84902 0.0
H1422 H 0.69854 0.25784 0.88396 0.0
H1423 H 0.78009 0.25298 0.88116 0.0
H1424 H 0.87034 0.33915 0.6519 0.0
H1425 H 0.87498 0.31447 0.72212 0.0
H1426 H 0.82476 0.35504 0.70336 0.0
H1427 H 0.88875 0.31783 0.68183 0.0
Tb1428 Tb 0.78485 0.76483 0.76563 0.0
C1429 C 0.86229 0.83566 0.83278 0.0
N1430 N 0.84058 0.82621 0.83645 0.0
C1431 C 0.85371 0.82581 0.87916 0.0
C1432 C 0.88064 0.84027 0.85212 0.0
C1433 C 0.83599 0.82202 0.85954 0.0
C1434 C 0.87618 0.83476 0.8754 0.0
C1435 C 0.88746 0.85423 0.80592 0.0
C1436 C 0.86574 0.84244 0.80999 0.0
C1437 C 0.906 0.85806 0.82482 0.0
C1438 C 0.9026 0.85108 0.84787 0.0
Tb1439 Tb 0.81315 0.82175 0.80286 0.0
N1440 N 0.84733 0.83881 0.7923 0.0
C1441 C 0.88956 0.86287 0.78344 0.0
C1442 C 0.84876 0.84959 0.77178 0.0
C1443 C 0.86997 0.86098 0.7665 0.0
H1444 H 0.81862 0.81682 0.8633 0.0
H1445 H 0.87103 0.86894 0.74979 0.0
H1446 H 0.77589 0.77581 0.70678 0.0
H1447 H 0.72859 0.72195 0.82399 0.0
H1448 H 0.83347 0.85035 0.76003 0.0
H1449 H 0.90593 0.87212 0.7796 0.0
H1450 H 0.76508 0.74244 0.8138 0.0
H1451 H 0.84993 0.82236 0.89733 0.0
H1452 H 0.92285 0.86707 0.82206 0.0
H1453 H 0.91692 0.85476 0.86252 0.0
H1454 H 0.74368 0.76806 0.6738 0.0
H1455 H 0.88981 0.83812 0.89078 0.0
H1456 H 0.69409 0.71339 0.79282 0.0
N1457 N 0.75606 0.76196 0.73379 0.0
C1458 C 0.7352 0.75022 0.73779 0.0
C1459 C 0.74098 0.76325 0.69182 0.0
C1460 C 0.71642 0.74462 0.71888 0.0
C1461 C 0.7592 0.76821 0.71098 0.0
C1462 C 0.71951 0.75143 0.69576 0.0
N1463 N 0.75142 0.74821 0.77842 0.0
C1464 C 0.75015 0.74026 0.80064 0.0
C1465 C 0.71166 0.73038 0.76536 0.0
C1466 C 0.73285 0.74301 0.76073 0.0
C1467 C 0.71005 0.72316 0.78856 0.0
C1468 C 0.72944 0.72806 0.80624 0.0
H1469 H 0.70554 0.74729 0.68072 0.0
H1470 H 0.68076 0.7274 0.70904 0.0
H1471 H 0.67657 0.7151 0.74977 0.0
O1472 O 0.79189 0.7331 0.77389 0.0
O1473 O 0.75898 0.78617 0.77808 0.0
O1474 O 0.77837 0.80936 0.81283 0.0
O1475 O 0.7814 0.73867 0.73599 0.0
O1476 O 0.80346 0.76424 0.8026 0.0
O1477 O 0.7984 0.79621 0.82596 0.0
O1478 O 0.80241 0.85077 0.7914 0.0
O1479 O 0.83876 0.80035 0.79198 0.0
O1480 O 0.82126 0.7753 0.75754 0.0
O1481 O 0.81756 0.85103 0.82896 0.0
O1482 O 0.7976 0.82235 0.76406 0.0
O1483 O 0.80163 0.78875 0.7431 0.0
C1484 C 0.75867 0.79958 0.79903 0.0
C1485 C 0.78886 0.70125 0.74168 0.0
C1486 C 0.80322 0.66729 0.74929 0.0
C1487 C 0.79744 0.65835 0.7243 0.0
C1488 C 0.78268 0.69234 0.71669 0.0
C1489 C 0.78693 0.67083 0.70807 0.0
C1490 C 0.79877 0.68853 0.75792 0.0
C1491 C 0.80108 0.77477 0.82415 0.0
C1492 C 0.78743 0.72465 0.75063 0.0
C1493 C 0.69532 0.73198 0.72342 0.0
C1494 C 0.69293 0.72495 0.7466 0.0
C1495 C 0.84022 0.78624 0.77212 0.0
C1496 C 0.7901 0.87371 0.82191 0.0
C1497 C 0.76995 0.90459 0.81778 0.0
C1498 C 0.75803 0.89869 0.83742 0.0
C1499 C 0.77852 0.8677 0.84184 0.0
C1500 C 0.78555 0.8919 0.80979 0.0
C1501 C 0.76218 0.88 0.8493 0.0
C1502 C 0.80024 0.8103 0.74341 0.0
C1503 C 0.80761 0.86216 0.81348 0.0
H1504 H 0.80108 0.64185 0.71745 0.0
H1505 H 0.77511 0.70217 0.70379 0.0
H1506 H 0.78245 0.66403 0.68878 0.0
H1507 H 0.80413 0.69562 0.77713 0.0
H1508 H 0.74604 0.90879 0.84382 0.0
H1509 H 0.78238 0.85391 0.85179 0.0
H1510 H 0.7949 0.89685 0.79471 0.0
H1511 H 0.7532 0.87544 0.86464 0.0
Tb1512 Tb 0.57979 0.55762 0.55499 0.0
C1513 C 0.50707 0.47876 0.49155 0.0
N1514 N 0.51812 0.49963 0.48663 0.0
C1515 C 0.51762 0.4838 0.44454 0.0
C1516 C 0.50097 0.45955 0.47308 0.0
C1517 C 0.52311 0.50243 0.46333 0.0
C1518 C 0.50656 0.46226 0.44943 0.0
C1519 C 0.48892 0.45571 0.52056 0.0
C1520 C 0.50105 0.47684 0.51501 0.0
C1521 C 0.48307 0.4365 0.50228 0.0
C1522 C 0.48905 0.43842 0.4786 0.0
Tb1523 Tb 0.52315 0.52898 0.51836 0.0
N1524 N 0.50672 0.49585 0.53225 0.0
C1525 C 0.4825 0.45466 0.54415 0.0
C1526 C 0.49919 0.4952 0.55471 0.0
C1527 C 0.48751 0.47457 0.56123 0.0
H1528 H 0.53027 0.51918 0.45865 0.0
H1529 H 0.48183 0.47421 0.5792 0.0
H1530 H 0.57118 0.56501 0.61463 0.0
H1531 H 0.6257 0.61459 0.4997 0.0
H1532 H 0.50115 0.51057 0.56731 0.0
H1533 H 0.47311 0.43876 0.54911 0.0
H1534 H 0.60574 0.5773 0.50969 0.0
H1535 H 0.52149 0.4862 0.42615 0.0
H1536 H 0.47366 0.42014 0.50617 0.0
H1537 H 0.48414 0.42351 0.46459 0.0
H1538 H 0.57734 0.59716 0.64782 0.0
H1539 H 0.50204 0.44794 0.43471 0.0
H1540 H 0.63131 0.64961 0.52999 0.0
N1541 N 0.58327 0.58596 0.58766 0.0
C1542 C 0.59401 0.60734 0.58383 0.0
C1543 C 0.58175 0.60034 0.62979 0.0
C1544 C 0.59873 0.62612 0.60279 0.0
C1545 C 0.57769 0.58216 0.61055 0.0
C1546 C 0.59215 0.62245 0.62587 0.0
N1547 N 0.59716 0.59145 0.54353 0.0
C1548 C 0.60654 0.59265 0.52215 0.0
C1549 C 0.61367 0.63164 0.55679 0.0
C1550 C 0.60145 0.61011 0.56115 0.0
C1551 C 0.6218 0.63337 0.53406 0.0
C1552 C 0.61849 0.61369 0.51681 0.0
H1553 H 0.5956 0.63641 0.64095 0.0
H1554 H 0.61421 0.6624 0.61272 0.0
H1555 H 0.6272 0.66725 0.5724 0.0
O1556 O 0.60925 0.54617 0.54595 0.0
O1557 O 0.55959 0.584 0.54195 0.0
O1558 O 0.53428 0.56436 0.50871 0.0
O1559 O 0.6073 0.56206 0.58328 0.0
O1560 O 0.5807 0.54064 0.51712 0.0
O1561 O 0.54751 0.5441 0.49481 0.0
O1562 O 0.49283 0.5379 0.52818 0.0
O1563 O 0.54445 0.50295 0.53007 0.0
O1564 O 0.56721 0.52238 0.56494 0.0
O1565 O 0.49597 0.52573 0.48991 0.0
O1566 O 0.52289 0.54861 0.55497 0.0
O1567 O 0.55449 0.54222 0.57721 0.0
C1568 C 0.54467 0.58412 0.5222 0.0
C1569 C 0.64248 0.55024 0.57641 0.0
C1570 C 0.67304 0.53024 0.57049 0.0
C1571 C 0.68565 0.54202 0.59258 0.0
C1572 C 0.65482 0.56211 0.59871 0.0
C1573 C 0.67649 0.55805 0.60668 0.0
C1574 C 0.65173 0.53447 0.56227 0.0
C1575 C 0.5692 0.54307 0.49611 0.0
C1576 C 0.6194 0.5529 0.56845 0.0
C1577 C 0.61043 0.64777 0.59836 0.0
C1578 C 0.61786 0.65054 0.57541 0.0
C1579 C 0.5577 0.50255 0.55099 0.0
C1580 C 0.45997 0.53534 0.49769 0.0
C1581 C 0.42712 0.55084 0.50701 0.0
C1582 C 0.41601 0.54222 0.48307 0.0
C1583 C 0.44901 0.52676 0.47377 0.0
C1584 C 0.44904 0.54737 0.51417 0.0
C1585 C 0.427 0.53023 0.46652 0.0
C1586 C 0.53373 0.54607 0.5762 0.0
C1587 C 0.48324 0.533 0.50531 0.0
H1588 H 0.70234 0.53865 0.5989 0.0
H1589 H 0.64769 0.57431 0.60997 0.0
H1590 H 0.68605 0.56712 0.62387 0.0
H1591 H 0.64215 0.52495 0.54518 0.0
H1592 H 0.39885 0.54466 0.47723 0.0
H1593 H 0.45745 0.51754 0.46072 0.0
H1594 H 0.45784 0.55463 0.53241 0.0
H1595 H 0.41849 0.52366 0.44809 0.0
Tb1596 Tb 1.01815 0.53712 0.05205 0.0
C1597 C 0.09544 0.58503 0.99488 0.0
N1598 N 0.0829 0.56304 0.98931 0.0
C1599 C 0.0789 0.56747 0.94635 0.0
C1600 C 0.09929 0.59936 0.97637 0.0
C1601 C 0.0759 0.55372 0.96522 0.0
C1602 C 0.09029 0.59049 0.95197 0.0
C1603 C 0.11992 0.61491 0.02515 0.0
C1604 C 0.1058 0.5928 0.01901 0.0
C1605 C 0.12296 0.62952 0.00691 0.0
C1606 C 0.11266 0.62178 0.98261 0.0
Tb1607 Tb 0.07928 0.54357 0.0227 0.0
N1608 N 0.10215 0.57849 0.0365 0.0
C1609 C 0.13101 0.62143 0.04932 0.0
C1610 C 0.11453 0.58386 0.05939 0.0
C1611 C 0.12868 0.60565 0.06636 0.0
H1612 H 0.06822 0.53562 0.96028 0.0
H1613 H 0.13803 0.61018 0.0847 0.0
H1614 H 0.02913 0.54493 0.11449 0.0
H1615 H 0.95795 0.47207 0.99 0.0
H1616 H 0.11352 0.57132 0.07207 0.0
H1617 H 0.14205 0.63829 0.05477 0.0
H1618 H 0.98432 0.51017 1.0024 0.0
H1619 H 0.07278 0.56016 0.92741 0.0
H1620 H 0.13365 0.64666 0.01129 0.0
H1621 H 0.11565 0.63308 0.96862 0.0
H1622 H 0.02391 0.52037 0.14727 0.0
H1623 H 0.09285 0.60099 0.93723 0.0
H1624 H 0.9528 0.44406 0.01989 0.0
N1625 N 1.01406 0.51769 0.08538 0.0
C1626 C 1.00109 0.4959 0.07971 0.0
C1627 C 1.01774 0.51317 0.12831 0.0
C1628 C 0.99678 0.48162 0.09818 0.0
C1629 C 0.02112 0.5269 0.10949 0.0
C1630 C 1.00587 0.49031 0.1226 0.0
N1631 N 0.9948 0.50262 0.03808 0.0
C1632 C 0.9825 0.49763 0.01515 0.0
C1633 C 0.97585 0.46666 0.04939 0.0
C1634 C 0.99067 0.48838 0.05554 0.0
C1635 C 0.9645 0.46055 0.02529 0.0
C1636 C 0.96748 0.4763 0.00825 0.0
H1637 H 1.00298 0.47983 0.1373 0.0
H1638 H 0.97945 0.44823 0.10583 0.0
H1639 H 0.9611 0.4352 0.06319 0.0
O1640 O 0.99289 0.55238 0.03388 0.0
O1641 O 0.02762 0.50391 0.03523 0.0
O1642 O 0.05912 0.50714 0.01257 0.0
O1643 O 0.99057 0.5428 0.07019 0.0
O1644 O 0.03055 0.55025 0.02006 0.0
O1645 O 0.04972 0.53158 0.99538 0.0
O1646 O 0.1052 0.5296 0.0413 0.0
O1647 O 0.06934 0.57673 0.03943 0.0
O1648 O 0.0381 0.5733 0.06236 0.0
O1649 O 0.10646 0.53726 1.00415 0.0
O1650 O 0.06586 0.52973 0.05365 0.0
O1651 O 0.04791 0.54834 0.07956 0.0
C1652 C 0.04123 0.49459 0.02097 0.0
C1653 C 0.97533 0.57476 0.06162 0.0
C1654 C 0.94711 0.59924 0.06036 0.0
C1655 C 0.95853 0.61215 0.08258 0.0
C1656 C 0.98701 0.58834 0.08343 0.0
C1657 C 0.97852 0.60685 0.09387 0.0
C1658 C 0.95563 0.58057 0.04983 0.0
C1659 C 0.03062 0.5376 0.99944 0.0
C1660 C 0.98182 0.553 0.05295 0.0
C1661 C 0.98281 0.45949 0.09188 0.0
C1662 C 0.97232 0.45207 0.06759 0.0
C1663 C 0.05575 0.58596 0.05382 0.0
C1664 C 0.12164 0.50572 0.01423 0.0
C1665 C 0.14963 0.48104 0.01554 0.0
C1666 C 0.13657 0.46649 0.99507 0.0
C1667 C 0.10841 0.49064 0.99419 0.0
C1668 C 0.14203 0.50062 0.02521 0.0
C1669 C 0.11595 0.47118 0.98464 0.0
C1670 C 0.06661 0.54198 0.07455 0.0
C1671 C 0.11569 0.52794 0.0219 0.0
H1672 H 0.95219 0.62661 0.09095 0.0
H1673 H 1.00228 0.58418 0.09283 0.0
H1674 H 0.98732 0.61696 0.11091 0.0
H1675 H 0.94652 0.57018 0.03301 0.0
H1676 H 0.1422 0.45132 0.98736 0.0
H1677 H 0.09262 0.49429 0.98544 0.0
H1678 H 0.15233 0.51224 0.04061 0.0
H1679 H 0.10592 0.45984 0.96894 0.0
H1680 H 0.03411 0.22083 0.01632 0.0
H1681 H 1.00995 0.20227 0.93843 0.0
H1682 H 1.01348 0.16189 0.94195 0.0
H1683 H 0.07722 0.18218 0.01612 0.0
H1684 H 0.07396 0.17519 0.04671 0.0
H1685 H 0.06937 0.20266 0.03851 0.0
H1686 H 0.02884 0.19436 0.05177 0.0
H1687 H 0.03339 0.1669 0.05996 0.0
H1688 H 1.00886 0.16818 0.03843 0.0
H1689 H 1.01682 0.12147 0.95468 0.0
H1690 H 0.02381 0.08724 0.97336 0.0
H1691 H 0.05041 0.13039 0.04286 0.0
C1692 C 0.02968 0.20834 0.99989 0.0
C1693 C 0.02146 0.21547 0.97688 0.0
C1694 C 1.01627 0.19801 0.95618 0.0
C1695 C 1.01816 0.17471 0.9581 0.0
C1696 C 0.02603 0.16833 0.98084 0.0
C1697 C 0.03231 0.18484 1.00132 0.0
C1698 C 0.04149 0.1734 0.02326 0.0
C1699 C 0.06702 0.184 0.03166 0.0
C1700 C 0.0273 0.17587 0.04463 0.0
C1701 C 0.03843 0.1478 0.01232 0.0
C1702 C 0.02937 0.14541 0.98776 0.0
C1703 C 0.02415 0.1235 0.97382 0.0
C1704 C 0.02818 0.10382 0.98481 0.0
C1705 C 0.0378 0.10521 0.00988 0.0
C1706 C 0.04315 0.12804 0.02367 0.0
H1707 H 0.15577 0.83469 0.18045 0.0
H1708 H 0.14221 0.76665 0.13811 0.0
H1709 H 0.17302 0.75592 0.165 0.0
H1710 H 0.21738 0.84126 0.18963 0.0
H1711 H 0.22184 0.85572 0.22076 0.0
H1712 H 0.19736 0.85822 0.19983 0.0
H1713 H 0.17023 0.84315 0.2306 0.0
H1714 H 0.19469 0.8407 0.25162 0.0
H1715 H 0.1718 0.81595 0.2416 0.0
H1716 H 0.2061 0.75209 0.19522 0.0
H1717 H 0.23985 0.75598 0.22663 0.0
H1718 H 0.23521 0.82658 0.25014 0.0
C1719 C 0.15906 0.81743 0.17714 0.0
C1720 C 0.14617 0.80143 0.15693 0.0
C1721 C 0.15158 0.77923 0.15323 0.0
C1722 C 0.16915 0.77292 0.16852 0.0
C1723 C 0.18177 0.78897 0.18779 0.0
C1724 C 0.17707 0.81082 0.19231 0.0
C1725 C 0.19436 0.82485 0.21382 0.0
C1726 C 0.20858 0.84629 0.20551 0.0
C1727 C 0.18202 0.83157 0.2357 0.0
C1728 C 0.20943 0.80759 0.22026 0.0
C1729 C 0.20156 0.78693 0.20506 0.0
C1730 C 0.21233 0.76821 0.20722 0.0
C1731 C 0.23156 0.77053 0.22522 0.0
C1732 C 0.24036 0.79148 0.24094 0.0
C1733 C 0.22899 0.8103 0.2384 0.0
H1734 H 0.51463 0.85279 0.50763 0.0
H1735 H 0.5362 0.8565 0.43506 0.0
H1736 H 0.54218 0.89837 0.44193 0.0
H1737 H 0.48443 0.90159 0.50608 0.0
H1738 H 0.49334 0.91366 0.53786 0.0
H1739 H 0.49069 0.88314 0.52871 0.0
H1740 H 0.53271 0.88584 0.54755 0.0
H1741 H 0.53535 0.91632 0.55691 0.0
H1742 H 0.55525 0.90639 0.53808 0.0
H1743 H 0.5466 0.94023 0.4549 0.0
H1744 H 0.54953 0.97999 0.47396 0.0
H1745 H 0.52481 0.95461 0.53914 0.0
C1746 C 0.52072 0.86237 0.49322 0.0
C1747 C 0.52484 0.85023 0.47051 0.0
C1748 C 0.53268 0.8643 0.45253 0.0
C1749 C 0.53623 0.88856 0.45624 0.0
C1750 C 0.53191 0.89978 0.47822 0.0
C1751 C 0.52434 0.88737 0.4966 0.0
C1752 C 0.52107 0.9048 0.51833 0.0
C1753 C 0.49588 0.90053 0.52303 0.0
C1754 C 0.53704 0.90323 0.54161 0.0
C1755 C 0.528 0.92852 0.50909 0.0
C1756 C 0.53421 0.92478 0.48582 0.0
C1757 C 0.54172 0.94327 0.47311 0.0
C1758 C 0.54333 0.96609 0.48426 0.0
C1759 C 0.53742 0.97124 0.50822 0.0
C1760 C 0.52928 0.95178 0.52071 0.0
H1761 H 0.52561 0.32235 0.67452 0.0
H1762 H 0.50273 0.26414 0.61725 0.0
H1763 H 0.46618 0.25391 0.63482 0.0
H1764 H 0.5038 0.29843 0.72381 0.0
H1765 H 0.49432 0.32364 0.73658 0.0
H1766 H 0.51772 0.32681 0.71854 0.0
H1767 H 0.49594 0.34939 0.68953 0.0
H1768 H 0.4723 0.34601 0.70743 0.0
H1769 H 0.46733 0.33637 0.67481 0.0
H1770 H 0.43339 0.2485 0.66127 0.0
H1771 H 0.40804 0.24837 0.6941 0.0
H1772 H 0.45189 0.31139 0.73228 0.0
C1773 C 0.51274 0.3076 0.66558 0.0
C1774 C 0.5168 0.29394 0.64461 0.0
C1775 C 0.49969 0.27485 0.63323 0.0
C1776 C 0.47895 0.26896 0.64309 0.0
C1777 C 0.4754 0.28277 0.66389 0.0
C1778 C 0.49173 0.30192 0.67475 0.0
C1779 C 0.48383 0.31398 0.69688 0.0
C1780 C 0.50094 0.31579 0.72033 0.0
C1781 C 0.47961 0.33786 0.69186 0.0
C1782 C 0.4614 0.29765 0.69802 0.0
C1783 C 0.45645 0.28004 0.67852 0.0
C1784 C 0.43696 0.26242 0.67639 0.0
C1785 C 0.42259 0.26252 0.695 0.0
C1786 C 0.42801 0.27995 0.71556 0.0
C1787 C 0.44731 0.29798 0.71663 0.0
H1788 H 0.04512 0.80738 0.64227 0.0
H1789 H 0.03809 0.84378 0.71266 0.0
H1790 H 0.04072 0.88014 0.69397 0.0
H1791 H 0.08623 0.85218 0.6246 0.0
H1792 H 0.07462 0.84621 0.59246 0.0
H1793 H 0.07152 0.8234 0.61153 0.0
H1794 H 0.02741 0.81512 0.59882 0.0
H1795 H 0.03043 0.83829 0.58012 0.0
H1796 H 1.01193 0.83806 0.60384 0.0
H1797 H 0.04541 0.91305 0.66717 0.0
H1798 H 0.05578 0.9394 0.63629 0.0
H1799 H 0.05813 0.88059 0.58377 0.0
C1800 C 0.04415 0.82298 0.65384 0.0
C1801 C 0.0414 0.82274 0.67899 0.0
C1802 C 0.04026 0.84357 0.6934 0.0
C1803 C 0.04156 0.86426 0.68287 0.0
C1804 C 0.04387 0.86379 0.65788 0.0
C1805 C 0.04532 0.84365 0.64364 0.0
C1806 C 0.04872 0.84774 0.61753 0.0
C1807 C 0.07163 0.84205 0.61117 0.0
C1808 C 0.0284 0.83398 0.59899 0.0
C1809 C 0.04925 0.87338 0.61929 0.0
C1810 C 0.04623 0.88241 0.6426 0.0
C1811 C 0.04753 0.90608 0.6488 0.0
C1812 C 0.05313 0.92092 0.63109 0.0
C1813 C 0.05744 0.91197 0.6076 0.0
C1814 C 0.05451 0.88783 0.60147 0.0
H1815 H 0.47827 0.85303 0.85474 0.0
H1816 H 0.49458 0.78849 0.82551 0.0
H1817 H 0.45393 0.77476 0.80676 0.0
H1818 H 0.42333 0.83193 0.86974 0.0
H1819 H 0.41022 0.85485 0.85978 0.0
H1820 H 0.44071 0.86016 0.86944 0.0
H1821 H 0.44867 0.87407 0.82769 0.0
H1822 H 0.41817 0.86927 0.81836 0.0
H1823 H 0.4359 0.85574 0.79947 0.0
H1824 H 0.40931 0.76612 0.79555 0.0
H1825 H 0.36773 0.76522 0.78801 0.0
H1826 H 0.37942 0.83661 0.82092 0.0
C1827 C 0.47354 0.83629 0.84361 0.0
C1828 C 0.4904 0.82222 0.84121 0.0
C1829 C 0.48277 0.80012 0.8271 0.0
C1830 C 0.45939 0.79202 0.81663 0.0
C1831 C 0.44332 0.80617 0.81982 0.0
C1832 C 0.45029 0.82815 0.83246 0.0
C1833 C 0.42966 0.84008 0.83295 0.0
C1834 C 0.42576 0.84717 0.85957 0.0
C1835 C 0.43332 0.86104 0.81877 0.0
C1836 C 0.40969 0.82117 0.81953 0.0
C1837 C 0.41806 0.80169 0.81223 0.0
C1838 C 0.40292 0.78151 0.80083 0.0
C1839 C 0.37905 0.78115 0.79664 0.0
C1840 C 0.3697 0.80085 0.80329 0.0
C1841 C 0.38561 0.82129 0.81489 0.0
H1842 H 0.50051 0.18144 0.14122 0.0
H1843 H 0.57042 0.2039 0.17739 0.0
H1844 H 0.58168 0.17149 0.15327 0.0
H1845 H 0.50246 0.11716 0.14006 0.0
H1846 H 0.48381 0.10944 0.1112 0.0
H1847 H 0.48072 0.13346 0.1326 0.0
H1848 H 0.48538 0.15997 0.09835 0.0
H1849 H 0.48891 0.13614 0.07706 0.0
H1850 H 0.51067 0.16225 0.08296 0.0
H1851 H 0.5869 0.14092 0.11963 0.0
H1852 H 0.58387 0.10825 0.08674 0.0
H1853 H 0.5099 0.10061 0.07607 0.0
C1854 C 0.51785 0.17872 0.14515 0.0
C1855 C 0.53437 0.19497 0.16213 0.0
C1856 C 0.55719 0.1913 0.1655 0.0
C1857 C 0.56388 0.17311 0.15143 0.0
C1858 C 0.54745 0.15794 0.13435 0.0
C1859 C 0.52467 0.15984 0.13192 0.0
C1860 C 0.51045 0.14055 0.11266 0.0
C1861 C 0.49333 0.12418 0.12485 0.0
C1862 C 0.49813 0.15033 0.09151 0.0
C1863 C 0.52895 0.12844 0.10373 0.0
C1864 C 0.55024 0.13902 0.11632 0.0
C1865 C 0.57022 0.13218 0.11015 0.0
C1866 C 0.56838 0.11373 0.09123 0.0
C1867 C 0.54672 0.10178 0.07888 0.0
C1868 C 0.52671 0.10931 0.08529 0.0
H1869 H 0.12109 0.29717 0.31665 0.0
H1870 H 0.14738 0.34862 0.38038 0.0
H1871 H 0.18679 0.34714 0.37295 0.0
H1872 H 0.16786 0.26404 0.32727 0.0
H1873 H 0.17004 0.25673 0.29515 0.0
H1874 H 0.14308 0.26119 0.30456 0.0
H1875 H 0.1418 0.29211 0.27526 0.0
H1876 H 0.16871 0.28759 0.26582 0.0
H1877 H 0.16576 0.31613 0.27782 0.0
H1878 H 0.22438 0.33986 0.36061 0.0
H1879 H 0.2571 0.32858 0.34338 0.0
H1880 H 0.21103 0.28274 0.28476 0.0
C1881 C 0.13511 0.30826 0.32899 0.0
C1882 C 0.13022 0.32328 0.34938 0.0
C1883 C 0.14975 0.33697 0.36481 0.0
C1884 C 0.17258 0.33625 0.36069 0.0
C1885 C 0.17675 0.32149 0.34092 0.0
C1886 C 0.15865 0.30759 0.32521 0.0
C1887 C 0.16879 0.29298 0.30571 0.0
C1888 C 0.16202 0.2672 0.30831 0.0
C1889 C 0.16078 0.29747 0.27959 0.0
C1890 C 0.19514 0.30155 0.31243 0.0
C1891 C 0.19897 0.31772 0.33319 0.0
C1892 C 0.22136 0.32754 0.34407 0.0
C1893 C 0.24023 0.32115 0.33372 0.0
C1894 C 0.23776 0.30545 0.31174 0.0
C1895 C 0.21432 0.29523 0.30117 0.0
H1896 H 0.99991 1.00377 0.20343 0.0
H1897 H 0.9522 0.05029 0.20521 0.0
H1898 H 0.96328 0.06264 0.16587 0.0
H1899 H 0.04448 0.03975 0.17978 0.0
H1900 H 0.05182 0.01653 0.16046 0.0
H1901 H 0.03942 1.0109 0.1881 0.0
H1902 H 1.00675 0.97954 0.16269 0.0
H1903 H 1.01922 0.98499 0.13502 0.0
H1904 H 0.98974 0.98692 0.13682 0.0
H1905 H 0.97959 0.06931 0.12493 0.0
H1906 H 0.99977 0.07016 0.08791 0.0
H1907 H 0.03829 0.02101 0.11446 0.0
C1908 C 0.99165 0.01652 0.19562 0.0
C1909 C 0.97504 0.02595 0.2077 0.0
C1910 C 0.96479 0.04258 0.19648 0.0
C1911 C 0.97106 0.04977 0.17408 0.0
C1912 C 0.9876 0.04019 0.16284 0.0
C1913 C 0.99767 0.02384 0.17329 0.0
C1914 C 1.01496 0.01611 0.15766 0.0
C1915 C 0.03911 0.02113 0.17238 0.0
C1916 C 1.00721 0.99036 0.14745 0.0
C1917 C 1.01367 0.03113 0.13711 0.0
C1918 C 0.99746 0.0446 0.14012 0.0
C1919 C 0.99238 0.0589 0.12262 0.0
C1920 C 1.00393 0.05928 0.10158 0.0
C1921 C 1.02081 0.04587 0.09826 0.0
C1922 C 0.0258 0.0318 0.11655 0.0
H1923 H 0.28386 0.69737 0.52319 0.0
H1924 H 0.29354 0.6342 0.48217 0.0
H1925 H 0.28841 0.65134 0.44339 0.0
H1926 H 0.23933 0.70587 0.48285 0.0
H1927 H 0.24769 0.73692 0.48724 0.0
H1928 H 0.25537 0.7208 0.51151 0.0
H1929 H 0.29828 0.73986 0.51269 0.0
H1930 H 0.29081 0.75607 0.4883 0.0
H1931 H 0.31159 0.73799 0.48493 0.0
H1932 H 0.27774 0.67348 0.4097 0.0
H1933 H 0.26125 0.69835 0.38292 0.0
H1934 H 0.2598 0.74725 0.44695 0.0
C1935 C 0.28527 0.68718 0.50613 0.0
C1936 C 0.28912 0.66456 0.50546 0.0
C1937 C 0.29065 0.65167 0.48285 0.0
C1938 C 0.28791 0.66128 0.46088 0.0
C1939 C 0.28386 0.68366 0.46224 0.0
C1940 C 0.28257 0.6964 0.48431 0.0
C1941 C 0.27585 0.71909 0.48087 0.0
C1942 C 0.25322 0.72074 0.49122 0.0
C1943 C 0.2953 0.73946 0.49236 0.0
C1944 C 0.27277 0.71687 0.45321 0.0
C1945 C 0.27777 0.69649 0.4428 0.0
C1946 C 0.27419 0.68969 0.41756 0.0
C1947 C 0.26482 0.70394 0.40256 0.0
C1948 C 0.25922 0.7247 0.41297 0.0
C1949 C 0.26371 0.73139 0.43855 0.0
H1950 H 0.64291 0.08586 0.70058 0.0
H1951 H 0.68019 0.03095 0.68651 0.0
H1952 H 0.66102 0.02265 0.64366 0.0
H1953 H 0.59223 0.05681 0.67279 0.0
H1954 H 0.58238 0.08021 0.65962 0.0
H1955 H 0.60299 0.0862 0.68692 0.0
H1956 H 0.63154 0.11356 0.66558 0.0
H1957 H 0.61066 0.10826 0.63835 0.0
H1958 H 0.63922 0.10327 0.63628 0.0
H1959 H 0.63246 0.01482 0.60692 0.0
H1960 H 0.59909 1.01129 0.57528 0.0
H1961 H 0.5808 0.07144 0.61366 0.0
C1962 C 0.64756 0.07259 0.68822 0.0
C1963 C 0.66269 0.05888 0.69657 0.0
C1964 C 0.66857 0.04165 0.68016 0.0
C1965 C 0.65785 0.03685 0.6559 0.0
C1966 C 0.64185 0.04979 0.64863 0.0
C1967 C 0.63709 0.06766 0.66411 0.0
C1968 C 0.61722 0.077 0.65297 0.0
C1969 C 0.59756 0.07491 0.66903 0.0
C1970 C 0.62514 0.10201 0.64799 0.0
C1971 C 0.61075 0.0607 0.62944 0.0
C1972 C 0.62532 0.04535 0.62709 0.0
C1973 C 0.62145 0.02727 0.60796 0.0
C1974 C 0.60253 0.02537 0.59023 0.0
C1975 C 0.58812 0.04155 0.59202 0.0
C1976 C 0.59194 0.05911 0.61196 0.0
H1977 H 0.29461 0.38217 0.95942 0.0
H1978 H 0.34635 0.35032 0.9953 0.0
H1979 H 0.34974 0.32906 0.95512 0.0
H1980 H 0.26777 0.32948 0.9184 0.0
H1981 H 0.26003 0.34368 0.89254 0.0
H1982 H 0.26157 0.358 0.92339 0.0
H1983 H 0.2907 0.39303 0.91462 0.0
H1984 H 0.28864 0.37979 0.88327 0.0
H1985 H 0.31629 0.38857 0.90192 0.0
H1986 H 0.34701 0.31059 0.91083 0.0
H1987 H 0.33796 0.29602 0.86676 0.0
H1988 H 0.28822 0.33983 0.85863 0.0
C1989 C 0.30681 0.37087 0.95874 0.0
C1990 C 0.32049 0.36812 0.98056 0.0
C1991 C 0.33577 0.35273 0.97893 0.0
C1992 C 0.33782 0.34061 0.95613 0.0
C1993 C 0.32412 0.34363 0.93501 0.0
C1994 C 0.3087 0.35819 0.93613 0.0
C1995 C 0.29501 0.35714 0.91089 0.0
C1996 C 0.26958 0.34648 0.91136 0.0
C1997 C 0.29784 0.38107 0.90217 0.0
C1998 C 0.30612 0.34093 0.89512 0.0
C1999 C 0.32257 0.33301 0.90952 0.0
C2000 C 0.33441 0.31705 0.89939 0.0
C2001 C 0.32942 0.30907 0.87402 0.0
C2002 C 0.31315 0.31732 0.85849 0.0
C2003 C 0.3012 0.33341 0.86954 0.0
H2004 H 0.98547 0.0553 0.35005 0.0
H2005 H 0.96006 0.98142 0.33522 0.0
H2006 H 0.97628 0.97718 0.37736 0.0
H2007 H 0.03946 0.0527 0.3871 0.0
H2008 H 0.0394 0.0779 0.40837 0.0
H2009 H 0.02592 0.07534 0.37704 0.0
H2010 H 0.9874 0.08062 0.39227 0.0
H2011 H 1.00183 0.08387 0.42317 0.0
H2012 H 0.97569 0.06252 0.41402 0.0
H2013 H 0.99387 0.98116 0.42169 0.0
H2014 H 1.01242 0.99261 0.46428 0.0
H2015 H 0.02906 0.06389 0.45123 0.0
C2016 C 0.9836 0.03823 0.35567 0.0
C2017 C 0.97154 0.01857 0.33932 0.0
C2018 C 0.96917 0.99661 0.3474 0.0
C2019 C 0.97839 0.99408 0.37133 0.0
C2020 C 0.99013 0.01373 0.38707 0.0
C2021 C 0.99293 0.03538 0.37956 0.0
C2022 C 1.00633 0.05359 0.40025 0.0
C2023 C 0.02914 0.06559 0.39273 0.0
C2024 C 0.99185 0.07117 0.40785 0.0
C2025 C 1.01043 0.0389 0.42067 0.0
C2026 C 1.00091 0.01594 0.41252 0.0
C2027 C 1.0018 0.99904 0.42799 0.0
C2028 C 1.01284 1.00566 0.45223 0.0
C2029 C 0.0233 0.02892 0.46118 0.0
C2030 C 0.02171 0.04584 0.44505 0.0
H2031 H 0.31403 0.71065 0.62671 0.0
H2032 H 0.26008 0.65546 0.64005 0.0
H2033 H 0.26078 0.67518 0.68218 0.0
H2034 H 0.34622 0.7238 0.6903 0.0
H2035 H 0.35189 0.75433 0.68809 0.0
H2036 H 0.34946 0.73384 0.66088 0.0
H2037 H 0.31794 0.75259 0.6399 0.0
H2038 H 0.31972 0.77261 0.66725 0.0
H2039 H 0.2926 0.75419 0.65437 0.0
H2040 H 0.25831 0.7069 0.71412 0.0
H2041 H 0.26289 0.74264 0.74309 0.0
H2042 H 0.32412 0.77247 0.71455 0.0
C2043 C 0.30314 0.70234 0.63902 0.0
C2044 C 0.28705 0.68183 0.63081 0.0
C2045 C 0.27259 0.67122 0.64664 0.0
C2046 C 0.27282 0.6823 0.67033 0.0
C2047 C 0.28804 0.70336 0.67753 0.0
C2048 C 0.30354 0.71287 0.66272 0.0
C2049 C 0.31673 0.73649 0.67395 0.0
C2050 C 0.34262 0.73713 0.6786 0.0
C2051 C 0.31143 0.75505 0.65792 0.0
C2052 C 0.30646 0.73863 0.69758 0.0
C2053 C 0.2892 0.71983 0.69872 0.0
C2054 C 0.27328 0.72059 0.71517 0.0
C2055 C 0.27626 0.74047 0.73202 0.0
C2056 C 0.29583 0.75802 0.73347 0.0
C2057 C 0.31053 0.75777 0.71537 0.0
H2058 H 0.6884 0.08614 0.82763 0.0
H2059 H 0.66865 1.01159 0.81786 0.0
H2060 H 0.64222 0.01372 0.84914 0.0
H2061 H 0.68215 0.09648 0.89495 0.0
H2062 H 0.67032 0.12169 0.89065 0.0
H2063 H 0.69115 0.11406 0.8717 0.0
H2064 H 0.66267 0.1141 0.83271 0.0
H2065 H 0.64151 0.12107 0.85144 0.0
H2066 H 0.63451 0.09572 0.82881 0.0
H2067 H 0.61473 0.02394 0.87631 0.0
H2068 H 0.58906 0.04189 0.90097 0.0
H2069 H 0.6256 0.1099 0.89122 0.0
C2070 C 0.67941 0.07035 0.83321 0.0
C2071 C 0.68095 0.04867 0.82151 0.0
C2072 C 0.66813 0.0282 0.82774 0.0
C2073 C 0.65302 0.02929 0.84519 0.0
C2074 C 0.65108 0.05101 0.85579 0.0
C2075 C 0.66409 0.0712 0.85032 0.0
C2076 C 0.6568 0.09229 0.86203 0.0
C2077 C 0.67626 0.10699 0.88097 0.0
C2078 C 0.64838 0.10662 0.84257 0.0
C2079 C 0.63727 0.08075 0.87433 0.0
C2080 C 0.63438 0.05697 0.87068 0.0
C2081 C 0.61693 0.04254 0.87959 0.0
C2082 C 0.60239 0.0528 0.89326 0.0
C2083 C 0.60543 0.07713 0.89748 0.0
C2084 C 0.62285 0.09125 0.88774 0.0
H2085 H 0.3189 0.33196 0.10639 0.0
H2086 H 0.31167 0.40268 0.12496 0.0
H2087 H 0.30332 0.39403 0.16649 0.0
H2088 H 0.27242 0.30715 0.14144 0.0
H2089 H 0.28674 0.28451 0.14976 0.0
H2090 H 0.29056 0.29601 0.12117 0.0
H2091 H 0.33464 0.30543 0.13369 0.0
H2092 H 0.33096 0.29392 0.16221 0.0
H2093 H 0.34664 0.32304 0.16258 0.0
H2094 H 0.29556 0.37705 0.20662 0.0
H2095 H 0.29165 0.35491 0.24167 0.0
H2096 H 0.30825 0.29632 0.1985 0.0
C2097 C 0.31555 0.34571 0.11913 0.0
C2098 C 0.31619 0.36817 0.11219 0.0
C2099 C 0.31131 0.38539 0.12955 0.0
C2100 C 0.30652 0.38058 0.15327 0.0
C2101 C 0.30629 0.35833 0.15948 0.0
C2102 C 0.31057 0.34116 0.14279 0.0
C2103 C 0.30934 0.31868 0.15397 0.0
C2104 C 0.28855 0.30051 0.1408 0.0
C2105 C 0.33174 0.30976 0.15307 0.0
C2106 C 0.30565 0.3263 0.18028 0.0
C2107 C 0.3029 0.34895 0.18272 0.0
C2108 C 0.29789 0.35939 0.20481 0.0
C2109 C 0.29576 0.34655 0.2248 0.0
C2110 C 0.29956 0.32359 0.22339 0.0
C2111 C 0.30473 0.31353 0.20055 0.0
H2112 H 0.24557 0.94372 0.0174 0.0
H2113 H 0.27956 1.00493 0.98975 0.0
H2114 H 0.24917 0.02532 1.00147 0.0
H2115 H 0.18577 0.94948 1.00291 0.0
H2116 H 0.17814 0.94049 0.03166 0.0
H2117 H 0.2003 0.9295 0.01741 0.0
H2118 H 0.22885 0.94404 0.05744 0.0
H2119 H 0.2069 0.95513 0.07185 0.0
H2120 H 0.23387 0.97403 0.07017 0.0
H2121 H 0.2187 0.03981 0.02011 0.0
H2122 H 0.18954 0.04864 0.04569 0.0
H2123 H 0.17569 0.9777 0.06158 0.0
C2124 C 0.24601 0.96113 0.01307 0.0
C2125 C 0.26409 0.97289 1.00229 0.0
C2126 C 0.26528 0.99591 0.99778 0.0
C2127 C 0.24819 1.00745 1.00424 0.0
C2128 C 0.23064 0.99556 0.01539 0.0
C2129 C 0.2295 0.973 0.01996 0.0
C2130 C 0.21079 0.96524 0.03517 0.0
C2131 C 0.19267 0.94498 0.02092 0.0
C2132 C 0.22071 0.95926 0.06012 0.0
C2133 C 0.20158 0.98698 0.03844 0.0
C2134 C 0.21319 1.00419 0.02681 0.0
C2135 C 0.20911 0.02642 0.02894 0.0
C2136 C 0.19258 0.03121 0.0435 0.0
C2137 C 0.1804 0.01369 0.05543 0.0
C2138 C 0.18488 0.99135 0.05274 0.0
H2139 H 0.70326 0.66055 0.04635 0.0
H2140 H 0.71625 0.6379 0.97282 0.0
H2141 H 0.6837 0.60446 0.9693 0.0
H2142 H 0.68807 0.60216 0.06423 0.0
H2143 H 0.66649 0.60972 0.08216 0.0
H2144 H 0.69106 0.63138 0.07883 0.0
H2145 H 0.66393 0.6569 0.06214 0.0
H2146 H 0.63938 0.63521 0.06505 0.0
H2147 H 0.64263 0.64533 0.03579 0.0
H2148 H 0.64743 0.57543 0.97262 0.0
H2149 H 0.61191 0.55203 0.98348 0.0
H2150 H 0.62571 0.59014 0.05681 0.0
C2151 C 0.69918 0.6485 0.02954 0.0
C2152 C 0.71187 0.65196 0.0096 0.0
C2153 C 0.70647 0.63564 0.98811 0.0
C2154 C 0.68808 0.61659 0.98602 0.0
C2155 C 0.67569 0.61373 0.00588 0.0
C2156 C 0.68128 0.629 0.02743 0.0
C2157 C 0.66529 0.62193 0.04606 0.0
C2158 C 0.67853 0.61595 0.06919 0.0
C2159 C 0.65202 0.64099 0.05263 0.0
C2160 C 0.64956 0.60056 0.03153 0.0
C2161 C 0.65574 0.5962 0.00831 0.0
C2162 C 0.64276 0.57838 0.99094 0.0
C2163 C 0.62276 0.565 0.99731 0.0
C2164 C 0.61619 0.56913 0.02097 0.0
C2165 C 0.63016 0.58674 0.03847 0.0
H2166 H 0.67531 0.49838 0.25756 0.0
H2167 H 0.68431 0.50684 0.33727 0.0
H2168 H 0.70757 0.47653 0.33707 0.0
H2169 H 0.67148 0.43463 0.24975 0.0
H2170 H 0.68651 0.43535 0.22314 0.0
H2171 H 0.66897 0.45622 0.2296 0.0
H2172 H 0.70388 0.48947 0.2291 0.0
H2173 H 0.72143 0.4687 0.22268 0.0
H2174 H 0.73016 0.49058 0.24904 0.0
H2175 H 0.73247 0.44793 0.32805 0.0
H2176 H 0.75698 0.42284 0.31092 0.0
H2177 H 0.7301 0.43174 0.23694 0.0
C2178 C 0.68165 0.49326 0.27486 0.0
C2179 C 0.6777 0.50427 0.29743 0.0
C2180 C 0.68676 0.49793 0.31985 0.0
C2181 C 0.70002 0.48088 0.31989 0.0
C2182 C 0.70373 0.47027 0.29731 0.0
C2183 C 0.6946 0.47602 0.27519 0.0
C2184 C 0.70184 0.46261 0.25353 0.0
C2185 C 0.68096 0.44623 0.23809 0.0
C2186 C 0.71512 0.47882 0.23767 0.0
C2187 C 0.7173 0.44928 0.26692 0.0
C2188 C 0.71796 0.45369 0.29214 0.0
C2189 C 0.73187 0.4441 0.30832 0.0
C2190 C 0.74567 0.42984 0.29841 0.0
C2191 C 0.74555 0.42548 0.27259 0.0
C2192 C 0.73081 0.43502 0.25675 0.0
H2193 H 0.88513 0.4788 0.53738 0.0
H2194 H 0.87832 0.45263 0.45985 0.0
H2195 H 0.91713 0.47459 0.45732 0.0
H2196 H 0.92084 0.53723 0.53371 0.0
H2197 H 0.93814 0.5373 0.56264 0.0
H2198 H 0.90845 0.5226 0.55758 0.0
H2199 H 0.92101 0.48509 0.5685 0.0
H2200 H 0.9507 0.49956 0.57298 0.0
H2201 H 0.94128 0.47362 0.55138 0.0
H2202 H 0.95709 0.49261 0.46436 0.0
H2203 H 0.99695 0.51198 0.47964 0.0
H2204 H 0.97833 0.52871 0.55217 0.0
C2205 C 0.89166 0.47862 0.51979 0.0
C2206 C 0.87921 0.46473 0.49864 0.0
C2207 C 0.88798 0.46375 0.47595 0.0
C2208 C 0.90984 0.476 0.4744 0.0
C2209 C 0.92223 0.48897 0.49576 0.0
C2210 C 0.91352 0.49075 0.51797 0.0
C2211 C 0.93134 0.50444 0.53844 0.0
C2212 C 0.92426 0.52672 0.54869 0.0
C2213 C 0.93637 0.48979 0.55902 0.0
C2214 C 0.95141 0.50957 0.52422 0.0
C2215 C 0.94569 0.50031 0.4997 0.0
C2216 C 0.96166 0.5008 0.48322 0.0
C2217 C 0.98407 0.51187 0.49191 0.0
C2218 C 0.98983 0.52256 0.51647 0.0
C2219 C 0.97368 0.52117 0.53306 0.0
H2220 H 0.39125 0.09131 0.28663 0.0
H2221 H 0.35385 0.07641 0.3479 0.0
H2222 H 0.33254 0.10737 0.34042 0.0
H2223 H 0.39244 0.15463 0.29122 0.0
H2224 H 0.38734 0.1534 0.2582 0.0
H2225 H 0.40319 0.13391 0.27177 0.0
H2226 H 0.37472 0.09888 0.24614 0.0
H2227 H 0.35884 0.1181 0.23245 0.0
H2228 H 0.34444 0.0957 0.24818 0.0
H2229 H 0.31248 0.13529 0.32327 0.0
H2230 H 0.29197 0.15664 0.2953 0.0
H2231 H 0.34143 0.15166 0.24398 0.0
C2232 C 0.37907 0.09529 0.29881 0.0
C2233 C 0.37406 0.08241 0.31792 0.0
C2234 C 0.35767 0.0868 0.33331 0.0
C2235 C 0.34579 0.10432 0.32935 0.0
C2236 C 0.35072 0.11672 0.30991 0.0
C2237 C 0.36681 0.11229 0.29475 0.0
C2238 C 0.36613 0.12513 0.27276 0.0
C2239 C 0.38861 0.14283 0.27355 0.0
C2240 C 0.3607 0.10845 0.24847 0.0
C2241 C 0.34647 0.1367 0.27733 0.0
C2242 C 0.33825 0.13216 0.29918 0.0
C2243 C 0.31887 0.13931 0.30629 0.0
C2244 C 0.3073 0.15114 0.2903 0.0
C2245 C 0.31509 0.15511 0.26751 0.0
C2246 C 0.33512 0.14835 0.26121 0.0
H2247 H 0.32894 0.13378 0.50471 0.0
H2248 H 0.3567 0.19507 0.55698 0.0
H2249 H 0.39188 0.17988 0.56767 0.0
H2250 H 0.34791 0.09287 0.53682 0.0
H2251 H 0.35565 0.07644 0.51074 0.0
H2252 H 0.33374 0.09303 0.50623 0.0
H2253 H 0.35637 0.11447 0.47504 0.0
H2254 H 0.37854 0.09806 0.47976 0.0
H2255 H 0.38578 0.12915 0.48442 0.0
H2256 H 0.42213 0.156 0.57526 0.0
H2257 H 0.44472 0.12529 0.57908 0.0
H2258 H 0.39777 0.08096 0.52023 0.0
C2259 C 0.34261 0.14407 0.51817 0.0
C2260 C 0.34035 0.1655 0.53013 0.0
C2261 C 0.35842 0.17867 0.54756 0.0
C2262 C 0.37837 0.1702 0.55368 0.0
C2263 C 0.38014 0.14891 0.54158 0.0
C2264 C 0.36286 0.1362 0.5239 0.0
C2265 C 0.36879 0.11375 0.51378 0.0
C2266 C 0.35043 0.0928 0.51713 0.0
C2267 C 0.37259 0.11387 0.48664 0.0
C2268 C 0.39116 0.11491 0.52992 0.0
C2269 C 0.39779 0.13556 0.54542 0.0
C2270 C 0.41733 0.13996 0.56291 0.0
C2271 C 0.43005 0.12253 0.56493 0.0
C2272 C 0.42286 0.10106 0.54978 0.0
C2273 C 0.40358 0.09744 0.53175 0.0
H2274 H 0.69244 0.65119 0.33967 0.0
H2275 H 0.68864 0.61294 0.26731 0.0
H2276 H 0.71861 0.64358 0.25668 0.0
H2277 H 0.70044 0.70694 0.3252 0.0
H2278 H 0.72228 0.7201 0.35057 0.0
H2279 H 0.70207 0.69432 0.35353 0.0
H2280 H 0.73565 0.67384 0.3648 0.0
H2281 H 0.75596 0.6997 0.36193 0.0
H2282 H 0.75703 0.67271 0.34433 0.0
H2283 H 0.7484 0.67829 0.25356 0.0
H2284 H 0.77432 0.71623 0.25709 0.0
H2285 H 0.75752 0.73394 0.33032 0.0
C2286 C 0.69813 0.64929 0.32172 0.0
C2287 C 0.68825 0.6298 0.30423 0.0
C2288 C 0.69618 0.62769 0.28098 0.0
C2289 C 0.71319 0.64497 0.27479 0.0
C2290 C 0.72257 0.66403 0.29232 0.0
C2291 C 0.7156 0.66622 0.31542 0.0
C2292 C 0.72868 0.68859 0.33067 0.0
C2293 C 0.71237 0.70336 0.34055 0.0
C2294 C 0.7453 0.6834 0.35169 0.0
C2295 C 0.74202 0.6997 0.31166 0.0
C2296 C 0.73911 0.68466 0.2901 0.0
C2297 C 0.75064 0.69027 0.27028 0.0
C2298 C 0.76525 0.71195 0.27241 0.0
C2299 C 0.76737 0.72829 0.29365 0.0
C2300 C 0.75583 0.72193 0.31368 0.0
H2301 H 0.89244 0.4431 0.84589 0.0
H2302 H 0.86682 0.47274 0.78257 0.0
H2303 H 0.84213 0.43496 0.76544 0.0
H2304 H 0.89465 0.38823 0.81668 0.0
H2305 H 0.88377 0.37288 0.84083 0.0
H2306 H 0.89938 0.40228 0.84802 0.0
H2307 H 0.86512 0.41421 0.86779 0.0
H2308 H 0.84984 0.38469 0.86126 0.0
H2309 H 0.8369 0.40728 0.85025 0.0
H2310 H 0.81933 0.39468 0.75644 0.0
H2311 H 0.79812 0.35485 0.75787 0.0
H2312 H 0.84116 0.35186 0.82538 0.0
C2313 C 0.88167 0.4415 0.82841 0.0
C2314 C 0.88146 0.46035 0.81533 0.0
C2315 C 0.86693 0.45816 0.79276 0.0
C2316 C 0.85306 0.43689 0.78285 0.0
C2317 C 0.85393 0.41838 0.79601 0.0
C2318 C 0.86752 0.42059 0.81848 0.0
C2319 C 0.86427 0.39851 0.8297 0.0
C2320 C 0.88687 0.38997 0.83404 0.0
C2321 C 0.85338 0.40135 0.85365 0.0
C2322 C 0.84764 0.38324 0.80946 0.0
C2323 C 0.84151 0.39502 0.79033 0.0
C2324 C 0.82436 0.38502 0.77093 0.0
C2325 C 0.81268 0.36247 0.77164 0.0
C2326 C 0.81909 0.35044 0.79105 0.0
C2327 C 0.83688 0.36067 0.80985 0.0
H2328 H 0.07731 0.86742 0.06223 0.0
H2329 H 0.07757 0.88492 0.1408 0.0
H2330 H 0.07139 0.92344 0.13414 0.0
H2331 H 0.10671 0.92597 0.05204 0.0
H2332 H 0.09014 0.92587 0.02268 0.0
H2333 H 0.09471 0.89903 0.0327 0.0
H2334 H 0.05087 0.88357 0.02696 0.0
H2335 H 0.04623 0.91041 0.01699 0.0
H2336 H 0.03283 0.89986 0.04244 0.0
H2337 H 0.06668 0.96222 0.12014 0.0
H2338 H 0.06226 0.99622 0.09982 0.0
H2339 H 0.06195 0.95692 0.02881 0.0
C2340 C 0.07613 0.87929 0.07812 0.0
C2341 C 0.07825 0.87206 0.10244 0.0
C2342 C 0.07629 0.88898 0.12208 0.0
C2343 C 0.0727 0.91137 0.11846 0.0
C2344 C 0.07081 0.91785 0.09477 0.0
C2345 C 0.07235 0.90232 0.07477 0.0
C2346 C 0.06963 0.91442 0.05129 0.0
C2347 C 0.0916 0.91642 0.03892 0.0
C2348 C 0.04864 0.90127 0.03334 0.0
C2349 C 0.0661 0.93877 0.06121 0.0
C2350 C 0.06721 0.94022 0.08652 0.0
C2351 C 0.06564 0.96095 0.1003 0.0
C2352 C 0.06306 0.98052 0.08839 0.0
C2353 C 0.0614 0.98016 0.06237 0.0
C2354 C 0.0628 0.95841 0.04865 0.0
H2355 H 0.92573 0.28717 0.93505 0.0
H2356 H 0.97359 0.27285 0.88449 0.0
H2357 H 0.94453 0.27346 0.84942 0.0
H2358 H 0.87398 0.25286 0.89837 0.0
H2359 H 0.85615 0.2732 0.90584 0.0
H2360 H 0.88068 0.27167 0.92723 0.0
H2361 H 0.89646 0.31531 0.92736 0.0
H2362 H 0.872 0.31692 0.90588 0.0
H2363 H 0.90066 0.3263 0.89861 0.0
H2364 H 0.91027 0.27533 0.81922 0.0
H2365 H 0.87392 0.27873 0.79649 0.0
H2366 H 0.8463 0.29095 0.86493 0.0
C2367 C 0.93008 0.28398 0.91661 0.0
C2368 C 0.95226 0.27977 0.91291 0.0
C2369 C 0.95698 0.27602 0.88824 0.0
C2370 C 0.94048 0.27635 0.86802 0.0
C2371 C 0.91898 0.28055 0.87232 0.0
C2372 C 0.91367 0.28432 0.89598 0.0
C2373 C 0.88921 0.28872 0.8952 0.0
C2374 C 0.8741 0.27052 0.90739 0.0
C2375 C 0.8896 0.31327 0.9075 0.0
C2376 C 0.88145 0.2863 0.86745 0.0
C2377 C 0.89914 0.28189 0.85476 0.0
C2378 C 0.89652 0.2792 0.82913 0.0
C2379 C 0.87567 0.28155 0.81615 0.0
C2380 C 0.85712 0.28664 0.8282 0.0
C2381 C 0.86005 0.2882 0.85453 0.0
H2382 H 0.58297 0.22304 0.62138 0.0
H2383 H 0.56489 0.24022 0.54828 0.0
H2384 H 0.55828 0.19918 0.53139 0.0
H2385 H 0.61301 0.17769 0.60056 0.0
H2386 H 0.60371 0.15854 0.62232 0.0
H2387 H 0.60635 0.18926 0.62988 0.0
H2388 H 0.56409 0.1829 0.63819 0.0
H2389 H 0.56148 0.15217 0.63086 0.0
H2390 H 0.5418 0.16669 0.61468 0.0
H2391 H 0.55627 0.15629 0.52071 0.0
H2392 H 0.55503 0.11438 0.51807 0.0
H2393 H 0.57205 0.12116 0.59733 0.0
C2394 C 0.57709 0.21813 0.60192 0.0
C2395 C 0.57417 0.23558 0.58632 0.0
C2396 C 0.56714 0.2278 0.56086 0.0
C2397 C 0.5634 0.20427 0.55096 0.0
C2398 C 0.5668 0.18775 0.56643 0.0
C2399 C 0.57329 0.19419 0.59147 0.0
C2400 C 0.57621 0.17243 0.60349 0.0
C2401 C 0.60131 0.17462 0.61475 0.0
C2402 C 0.55992 0.16831 0.62297 0.0
C2403 C 0.5697 0.15298 0.58151 0.0
C2404 C 0.56488 0.16254 0.56027 0.0
C2405 C 0.55973 0.14871 0.53736 0.0
C2406 C 0.55912 0.12472 0.536 0.0
C2407 C 0.56307 0.11389 0.55733 0.0
C2408 C 0.56853 0.12852 0.58055 0.0
H2409 H 0.5785 0.81669 0.4076 0.0
H2410 H 0.58191 0.74959 0.42957 0.0
H2411 H 0.61638 0.74883 0.40837 0.0
H2412 H 0.59651 0.806 0.34726 0.0
H2413 H 0.61307 0.83484 0.34852 0.0
H2414 H 0.5884 0.82986 0.36476 0.0
H2415 H 0.61359 0.8495 0.40562 0.0
H2416 H 0.63821 0.85481 0.38941 0.0
H2417 H 0.63913 0.83928 0.41572 0.0
H2418 H 0.65059 0.75563 0.38441 0.0
H2419 H 0.68397 0.77128 0.36378 0.0
H2420 H 0.65831 0.83414 0.35831 0.0
C2421 C 0.58663 0.80191 0.40793 0.0
C2422 C 0.5778 0.78318 0.42016 0.0
C2423 C 0.58863 0.76406 0.42028 0.0
C2424 C 0.60808 0.76347 0.4082 0.0
C2425 C 0.61633 0.78211 0.39603 0.0
C2426 C 0.60604 0.80107 0.396 0.0
C2427 C 0.61866 0.81916 0.38224 0.0
C2428 C 0.60323 0.82267 0.35934 0.0
C2429 C 0.62795 0.84203 0.39927 0.0
C2430 C 0.63792 0.80769 0.37501 0.0
C2431 C 0.63609 0.78614 0.3827 0.0
C2432 C 0.65215 0.77246 0.37826 0.0
C2433 C 0.67093 0.78136 0.36638 0.0
C2434 C 0.6736 0.80382 0.35943 0.0
C2435 C 0.65658 0.81686 0.36336 0.0
H2436 H 0.05495 0.24958 0.38477 0.0
H2437 H 0.07296 0.29695 0.45273 0.0
H2438 H 0.07243 0.26445 0.47655 0.0
H2439 H 1.01651 0.20771 0.40439 0.0
H2440 H 0.02517 0.18279 0.38965 0.0
H2441 H 0.03044 0.20965 0.37704 0.0
H2442 H 0.07377 0.20888 0.37968 0.0
H2443 H 0.06859 0.18187 0.39224 0.0
H2444 H 0.08941 0.20612 0.4087 0.0
H2445 H 0.06423 0.22764 0.49376 0.0
H2446 H 0.05051 0.18811 0.50286 0.0
H2447 H 0.03991 0.16325 0.42462 0.0
C2448 C 0.05971 0.25304 0.40453 0.0
C2449 C 0.06406 0.27588 0.41683 0.0
C2450 C 0.0696 0.27965 0.44286 0.0
C2451 C 0.06938 0.26128 0.45664 0.0
C2452 C 0.06412 0.239 0.44424 0.0
C2453 C 0.05986 0.23468 0.41878 0.0
C2454 C 0.05357 0.20882 0.4105 0.0
C2455 C 0.03001 0.20186 0.39446 0.0
C2456 C 0.07245 0.20095 0.39697 0.0
C2457 C 0.05306 0.19966 0.4352 0.0
C2458 C 0.05979 0.21737 0.45441 0.0
C2459 C 0.05944 0.21349 0.4789 0.0
C2460 C 0.05171 0.1909 0.48392 0.0
C2461 C 0.0442 0.17243 0.46453 0.0
C2462 C 0.04546 0.17695 0.43989 0.0
H2463 H 0.61985 0.2397 0.21384 0.0
H2464 H 0.60734 0.3057 0.24397 0.0
H2465 H 0.64797 0.31692 0.26333 0.0
H2466 H 0.66085 0.2341 0.26978 0.0
H2467 H 0.67727 0.21912 0.2505 0.0
H2468 H 0.64703 0.21664 0.24139 0.0
H2469 H 0.65698 0.23006 0.19984 0.0
H2470 H 0.68723 0.2336 0.21001 0.0
H2471 H 0.6759 0.25756 0.2 0.0
H2472 H 0.69185 0.32257 0.27613 0.0
H2473 H 0.73255 0.32088 0.2854 0.0
H2474 H 0.71802 0.25015 0.24958 0.0
C2475 C 0.6254 0.25623 0.22526 0.0
C2476 C 0.60963 0.27147 0.22785 0.0
C2477 C 0.61831 0.29324 0.24229 0.0
C2478 C 0.64167 0.29989 0.25313 0.0
C2479 C 0.65668 0.28461 0.24991 0.0
C2480 C 0.64869 0.26295 0.23679 0.0
C2481 C 0.66836 0.24964 0.23651 0.0
C2482 C 0.66305 0.22863 0.25039 0.0
C2483 C 0.67235 0.24229 0.21 0.0
C2484 C 0.689 0.26751 0.25045 0.0
C2485 C 0.68169 0.28754 0.25803 0.0
C2486 C 0.69745 0.30677 0.27054 0.0
C2487 C 0.72088 0.30561 0.27573 0.0
C2488 C 0.72925 0.28531 0.26877 0.0
C2489 C 0.71268 0.26593 0.25575 0.0
H2490 H 0.58496 0.91488 0.89934 0.0
H2491 H 0.53391 0.86306 0.92361 0.0
H2492 H 0.52497 0.89226 0.95336 0.0
H2493 H 0.60485 0.94677 0.961 0.0
H2494 H 0.60922 0.97501 0.95114 0.0
H2495 H 0.61173 0.95029 0.9304 0.0
H2496 H 0.58131 0.9597 0.8981 0.0
H2497 H 0.57873 0.98444 0.91877 0.0
H2498 H 0.55362 0.96258 0.90658 0.0
H2499 H 0.52114 0.92625 0.98172 0.0
H2500 H 0.52256 0.96333 0.00661 0.0
H2501 H 0.5762 0.9961 0.96722 0.0
C2502 C 0.57161 0.90978 0.91058 0.0
C2503 C 0.56 0.88611 0.90838 0.0
C2504 C 0.54314 0.88057 0.92426 0.0
C2505 C 0.53784 0.89725 0.94152 0.0
C2506 C 0.54954 0.92004 0.94344 0.0
C2507 C 0.56612 0.92653 0.92851 0.0
C2508 C 0.57637 0.95247 0.93547 0.0
C2509 C 0.60208 0.95636 0.94506 0.0
C2510 C 0.57227 0.96558 0.91341 0.0
C2511 C 0.56272 0.95931 0.95621 0.0
C2512 C 0.54744 0.94009 0.96038 0.0
C2513 C 0.53306 0.94142 0.97857 0.0
C2514 C 0.53412 0.96279 0.99285 0.0
C2515 C 0.5495 0.98315 0.98937 0.0
C2516 C 0.56408 0.98115 0.97056 0.0
H2517 H 0.95345 0.77647 0.69941 0.0
H2518 H 0.98143 0.74887 0.76298 0.0
H2519 H 0.94697 0.75293 0.78279 0.0
H2520 H 0.92717 0.81854 0.73583 0.0
H2521 H 0.90244 0.81579 0.71309 0.0
H2522 H 0.92935 0.81116 0.70372 0.0
H2523 H 0.90932 0.77076 0.6816 0.0
H2524 H 0.88239 0.77535 0.69088 0.0
H2525 H 0.89331 0.75039 0.69852 0.0
H2526 H 0.90881 0.76131 0.79722 0.0
H2527 H 0.871 0.7706 0.8032 0.0
H2528 H 0.86465 0.79071 0.72995 0.0
C2529 C 0.95232 0.77102 0.71743 0.0
C2530 C 0.9708 0.76189 0.72922 0.0
C2531 C 0.96808 0.75564 0.75308 0.0
C2532 C 0.94833 0.758 0.76464 0.0
C2533 C 0.93066 0.76692 0.75262 0.0
C2534 C 0.93246 0.77337 0.72944 0.0
C2535 C 0.91098 0.78282 0.72083 0.0
C2536 C 0.9179 0.8086 0.71819 0.0
C2537 C 0.89824 0.76899 0.6965 0.0
C2538 C 0.89633 0.77955 0.74208 0.0
C2539 C 0.90845 0.77099 0.76055 0.0
C2540 C 0.89929 0.76778 0.78261 0.0
C2541 C 0.87754 0.77317 0.78592 0.0
C2542 C 0.864 0.78123 0.76723 0.0
C2543 C 0.87391 0.78438 0.74482 0.0
H2544 H 0.13326 0.09141 0.88406 0.0
H2545 H 0.11534 0.0216 0.846 0.0
H2546 H 0.0959 1.00849 0.88095 0.0
H2547 H 0.14302 0.07594 0.94607 0.0
H2548 H 0.13065 0.09854 0.96026 0.0
H2549 H 0.14391 0.10242 0.93275 0.0
H2550 H 0.10637 0.11089 0.91102 0.0
H2551 H 0.0931 0.1072 0.93854 0.0
H2552 H 0.07979 0.0903 0.90967 0.0
H2553 H 0.08065 1.00241 0.92207 0.0
H2554 H 0.06704 1.00488 0.96297 0.0
H2555 H 0.08831 0.07937 0.97123 0.0
C2556 C 0.12511 0.07341 0.88308 0.0
C2557 C 0.12579 0.0575 0.86217 0.0
C2558 C 0.11498 0.03409 0.8617 0.0
C2559 C 0.10397 0.02647 0.88157 0.0
C2560 C 0.10361 0.04246 0.90196 0.0
C2561 C 0.1136 0.06554 0.90271 0.0
C2562 C 0.11008 0.07924 0.92653 0.0
C2563 C 0.1333 0.08966 0.94233 0.0
C2564 C 0.09652 0.09802 0.92111 0.0
C2565 C 0.09625 0.06043 0.93879 0.0
C2566 C 0.09333 0.03921 0.92466 0.0
C2567 C 0.08264 0.01905 0.93305 0.0
C2568 C 0.07483 0.0206 0.95634 0.0
C2569 C 0.0768 0.0422 0.97086 0.0
C2570 C 0.0873 0.06241 0.96148 0.0
H2571 H 0.8423 0.43324 0.57938 0.0
H2572 H 0.77122 0.39962 0.55842 0.0
H2573 H 0.77073 0.38427 0.59823 0.0
H2574 H 0.85821 0.38913 0.59492 0.0
H2575 H 0.87985 0.40123 0.62077 0.0
H2576 H 0.87301 0.41887 0.59783 0.0
H2577 H 0.86316 0.44882 0.63053 0.0
H2578 H 0.87102 0.43184 0.65406 0.0
H2579 H 0.84316 0.43942 0.65139 0.0
H2580 H 0.78102 0.36298 0.63167 0.0
H2581 H 0.8005 0.34009 0.65887 0.0
H2582 H 0.86596 0.38494 0.65597 0.0
C2583 C 0.82627 0.42418 0.58427 0.0
C2584 C 0.80665 0.41793 0.56673 0.0
C2585 C 0.7861 0.40497 0.57236 0.0
C2586 C 0.78577 0.39618 0.59483 0.0
C2587 C 0.80619 0.4006 0.611 0.0
C2588 C 0.82604 0.41475 0.60622 0.0
C2589 C 0.84694 0.41221 0.62288 0.0
C2590 C 0.86555 0.40492 0.6082 0.0
C2591 C 0.85663 0.4344 0.64079 0.0
C2592 C 0.83614 0.39308 0.63617 0.0
C2593 C 0.81257 0.3871 0.62974 0.0
C2594 C 0.79933 0.368 0.63748 0.0
C2595 C 0.8105 0.35494 0.6525 0.0
C2596 C 0.83462 0.36089 0.65893 0.0
C2597 C 0.8475 0.38019 0.65093 0.0
H2598 H 0.43778 1.00462 0.38582 0.0
H2599 H 0.42396 0.0734 0.39986 0.0
H2600 H 0.45431 0.08251 0.4357 0.0
H2601 H 0.45022 0.99785 0.45198 0.0
H2602 H 0.47201 0.98147 0.44617 0.0
H2603 H 0.44775 0.97972 0.42307 0.0
H2604 H 0.47534 0.99162 0.39155 0.0
H2605 H 0.49977 0.9938 0.41445 0.0
H2606 H 0.49646 0.0182 0.39865 0.0
H2607 H 0.48731 0.08516 0.46651 0.0
H2608 H 0.51939 0.07991 0.49585 0.0
H2609 H 0.51214 1.00929 0.46154 0.0
C2610 C 0.44062 0.02119 0.3972 0.0
C2611 C 0.42853 0.03822 0.39108 0.0
C2612 C 0.43278 0.06007 0.40532 0.0
C2613 C 0.45008 0.06543 0.4253 0.0
C2614 C 0.46234 0.0485 0.43052 0.0
C2615 C 0.45755 0.02667 0.41733 0.0
C2616 C 0.4735 1.01182 0.42671 0.0
C2617 C 0.46009 0.9915 0.43765 0.0
C2618 C 0.48707 1.00339 0.40663 0.0
C2619 C 0.48872 0.02916 0.44648 0.0
C2620 C 0.48179 0.05011 0.44841 0.0
C2621 C 0.49278 0.0688 0.46553 0.0
C2622 C 0.51086 0.06567 0.48197 0.0
C2623 C 0.51754 0.0441 0.48081 0.0
C2624 C 0.50705 0.02587 0.46244 0.0
H2625 H 0.80013 0.75526 0.09353 0.0
H2626 H 0.76248 0.68541 0.09301 0.0
H2627 H 0.76049 0.69359 0.13766 0.0
H2628 H 0.83364 0.7569 0.15604 0.0
H2629 H 0.83462 0.78727 0.16402 0.0
H2630 H 0.83386 0.77553 0.13232 0.0
H2631 H 0.79791 0.79242 0.12064 0.0
H2632 H 0.79831 0.80381 0.15235 0.0
H2633 H 0.77287 0.78476 0.13586 0.0
H2634 H 0.75966 0.71035 0.1816 0.0
H2635 H 0.76501 0.73234 0.22304 0.0
H2636 H 0.80532 0.79112 0.19709 0.0
C2637 C 0.79183 0.74161 0.10297 0.0
C2638 C 0.78142 0.71963 0.08971 0.0
C2639 C 0.77075 0.70223 0.10274 0.0
C2640 C 0.7694 0.70681 0.12811 0.0
C2641 C 0.77933 0.72876 0.14052 0.0
C2642 C 0.79099 0.74568 0.1286 0.0
C2643 C 0.80092 0.7675 0.14667 0.0
C2644 C 0.82733 0.77208 0.14995 0.0
C2645 C 0.79196 0.78836 0.13837 0.0
C2646 C 0.7918 0.76075 0.1702 0.0
C2647 C 0.77954 0.73821 0.16617 0.0
C2648 C 0.76944 0.7279 0.18493 0.0
C2649 C 0.77251 0.74058 0.2085 0.0
C2650 C 0.78535 0.7635 0.21343 0.0
C2651 C 0.79497 0.7738 0.19384 0.0
H2652 H 0.12871 0.09304 0.71874 0.0
H2653 H 0.11182 0.02206 0.73303 0.0
H2654 H 0.09402 1.01018 0.68965 0.0
H2655 H 0.08018 0.09491 0.67891 0.0
H2656 H 0.09471 0.11141 0.6576 0.0
H2657 H 0.10752 0.11417 0.68913 0.0
H2658 H 0.14444 0.10338 0.67485 0.0
H2659 H 0.13173 0.10096 0.64322 0.0
H2660 H 0.14225 0.07705 0.65445 0.0
H2661 H 0.07518 1.00658 0.64564 0.0
H2662 H 0.06077 1.01054 0.60289 0.0
H2663 H 0.09123 0.0835 0.61571 0.0
C2664 C 0.1217 0.07494 0.71251 0.0
C2665 C 0.1217 0.0584 0.72922 0.0
C2666 C 0.11228 0.03491 0.72048 0.0
C2667 C 0.10199 0.02806 0.69591 0.0
C2668 C 0.10172 0.04484 0.68004 0.0
C2669 C 0.11195 0.0677 0.68776 0.0
C2670 C 0.10969 0.08213 0.66675 0.0
C2671 C 0.09727 0.10181 0.67352 0.0
C2672 C 0.13344 0.09144 0.65938 0.0
C2673 C 0.09528 0.06416 0.64649 0.0
C2674 C 0.09115 0.0427 0.65453 0.0
C2675 C 0.07845 0.02329 0.63919 0.0
C2676 C 0.07021 0.02571 0.61494 0.0
C2677 C 0.07439 0.04739 0.6061 0.0
C2678 C 0.08709 0.06689 0.62217 0.0
H2679 H 0.79693 0.41529 0.4142 0.0
H2680 H 0.84669 0.39405 0.4654 0.0
H2681 H 0.85385 0.366 0.43287 0.0
H2682 H 0.76994 0.36312 0.39091 0.0
H2683 H 0.76393 0.36739 0.35915 0.0
H2684 H 0.76795 0.39138 0.38299 0.0
H2685 H 0.80067 0.41413 0.3625 0.0
H2686 H 0.79626 0.3903 0.33815 0.0
H2687 H 0.82435 0.40099 0.35535 0.0
H2688 H 0.85114 0.33654 0.39821 0.0
H2689 H 0.83848 0.30664 0.3622 0.0
H2690 H 0.78596 0.34312 0.33644 0.0
C2691 C 0.81017 0.40553 0.41801 0.0
C2692 C 0.82164 0.40692 0.44185 0.0
C2693 C 0.83809 0.39335 0.44699 0.0
C2694 C 0.84236 0.37747 0.42862 0.0
C2695 C 0.82982 0.37542 0.4055 0.0
C2696 C 0.8141 0.38911 0.4 0.0
C2697 C 0.79983 0.38045 0.37533 0.0
C2698 C 0.77389 0.37527 0.37726 0.0
C2699 C 0.80563 0.39748 0.35673 0.0
C2700 C 0.80857 0.35874 0.36913 0.0
C2701 C 0.82661 0.35679 0.3861 0.0
C2702 C 0.83735 0.33801 0.38444 0.0
C2703 C 0.82987 0.32105 0.36423 0.0
C2704 C 0.81152 0.32295 0.34669 0.0
C2705 C 0.80022 0.34153 0.34959 0.0
H2706 H 0.44639 0.99358 0.26724 0.0
H2707 H 0.42276 0.05668 0.25623 0.0
H2708 H 0.43472 0.05429 0.21414 0.0
H2709 H 0.49625 1.00642 0.2421 0.0
H2710 H 0.49527 0.9772 0.22865 0.0
H2711 H 0.48188 0.98245 0.25578 0.0
H2712 H 0.44257 0.95832 0.23388 0.0
H2713 H 0.456 0.95217 0.20692 0.0
H2714 H 0.43101 0.965 0.20454 0.0
H2715 H 0.45026 0.04349 0.1731 0.0
H2716 H 0.46677 0.02627 0.13841 0.0
H2717 H 0.48537 0.97474 0.1828 0.0
C2718 C 0.44365 1.00694 0.256 0.0
C2719 C 0.43424 0.02552 0.26478 0.0
C2720 C 0.4302 0.04236 0.2495 0.0
C2721 C 0.43695 0.04114 0.22578 0.0
C2722 C 0.44734 0.0229 0.21816 0.0
C2723 C 0.45039 1.0061 0.23293 0.0
C2724 C 0.4628 0.98884 0.22178 0.0
C2725 C 0.48539 0.98874 0.23804 0.0
C2726 C 0.44716 0.96466 0.21647 0.0
C2727 C 0.46699 0.99866 0.19846 0.0
C2728 C 0.45754 0.01793 0.19615 0.0
C2729 C 0.45792 0.02857 0.17491 0.0
C2730 C 0.46764 0.01873 0.1554 0.0
C2731 C 0.47743 0.99887 0.1577 0.0
C2732 C 0.47761 0.98941 0.17992 0.0
H2733 H 0.77876 0.74298 0.96193 0.0
H2734 H 0.79073 0.67527 0.93589 0.0
H2735 H 0.79855 0.68818 0.89644 0.0
H2736 H 0.74969 0.75209 0.90297 0.0
H2737 H 0.76208 0.78249 0.90594 0.0
H2738 H 0.75804 0.7686 0.93309 0.0
H2739 H 0.80116 0.78298 0.94934 0.0
H2740 H 0.80537 0.79677 0.92213 0.0
H2741 H 0.82236 0.77612 0.93048 0.0
H2742 H 0.80626 0.70764 0.85982 0.0
H2743 H 0.80988 0.73171 0.82645 0.0
H2744 H 0.79032 0.78705 0.87218 0.0
C2745 C 0.78294 0.73087 0.94789 0.0
C2746 C 0.78409 0.70792 0.95251 0.0
C2747 C 0.78965 0.69284 0.93332 0.0
C2748 C 0.79426 0.70005 0.91063 0.0
C2749 C 0.79315 0.72254 0.90671 0.0
C2750 C 0.78739 0.73777 0.92457 0.0
C2751 C 0.78681 0.7608 0.91467 0.0
C2752 C 0.76272 0.76632 0.91414 0.0
C2753 C 0.805 0.78033 0.93008 0.0
C2754 C 0.79288 0.75588 0.88853 0.0
C2755 C 0.79682 0.73374 0.88473 0.0
C2756 C 0.8031 0.72499 0.86255 0.0
C2757 C 0.80517 0.73894 0.84358 0.0
C2758 C 0.80061 0.76156 0.84625 0.0
C2759 C 0.79439 0.77009 0.86933 0.0
H2760 H 0.83273 0.0862 0.06806 0.0
H2761 H 0.86736 0.15803 0.08514 0.0
H2762 H 0.90403 0.1473 0.07852 0.0
H2763 H 0.88468 0.06039 0.09125 0.0
H2764 H 0.87658 0.03722 0.06606 0.0
H2765 H 0.85477 0.04921 0.08 0.0
H2766 H 0.8379 0.05715 0.03721 0.0
H2767 H 0.85965 0.04565 0.02316 0.0
H2768 H 0.85619 0.07457 0.01943 0.0
H2769 H 0.93299 0.13165 0.05939 0.0
H2770 H 0.95365 0.1109 0.03083 0.0
H2771 H 0.90098 0.04911 0.02592 0.0
C2772 C 0.84832 0.09938 0.0719 0.0
C2773 C 0.84754 0.12276 0.07737 0.0
C2774 C 0.86789 0.13991 0.08124 0.0
C2775 C 0.88878 0.13398 0.07761 0.0
C2776 C 0.88887 0.11088 0.07052 0.0
C2777 C 0.86924 0.09373 0.06806 0.0
C2778 C 0.873 0.07103 0.05596 0.0
C2779 C 0.87223 0.05341 0.07442 0.0
C2780 C 0.85567 0.0616 0.03257 0.0
C2781 C 0.89701 0.0787 0.04989 0.0
C2782 C 0.90611 0.10157 0.05912 0.0
C2783 C 0.92656 0.11353 0.05281 0.0
C2784 C 0.93797 0.10185 0.03645 0.0
C2785 C 0.92856 0.07876 0.02661 0.0
C2786 C 0.90832 0.06681 0.03376 0.0
H2787 H 0.40796 0.43357 0.07644 0.0
H2788 H 0.37244 0.43322 1.00353 0.0
H2789 H 0.40471 0.46252 0.99462 0.0
H2790 H 0.4327 0.49737 0.08492 0.0
H2791 H 0.45887 0.4941 0.10242 0.0
H2792 H 0.43229 0.47431 0.10367 0.0
H2793 H 0.45116 0.43999 0.09038 0.0
H2794 H 0.47765 0.45968 0.08884 0.0
H2795 H 0.46405 0.43938 0.06228 0.0
H2796 H 0.44152 0.49016 0.99274 0.0
H2797 H 0.48006 0.51535 0.9984 0.0
H2798 H 0.49248 0.49824 0.07255 0.0
C2799 C 0.40699 0.43993 0.05875 0.0
C2800 C 0.38784 0.43116 0.04056 0.0
C2801 C 0.38697 0.43985 0.01765 0.0
C2802 C 0.40521 0.45646 0.01245 0.0
C2803 C 0.42404 0.46457 0.03056 0.0
C2804 C 0.42494 0.45693 0.05342 0.0
C2805 C 0.44726 0.46864 0.06953 0.0
C2806 C 0.44249 0.48454 0.09144 0.0
C2807 C 0.46084 0.45085 0.07826 0.0
C2808 C 0.45938 0.48273 0.05161 0.0
C2809 C 0.44539 0.48055 0.02945 0.0
C2810 C 0.45253 0.49214 0.01009 0.0
C2811 C 0.47443 0.50646 0.01349 0.0
C2812 C 0.48921 0.50877 0.03591 0.0
C2813 C 0.48156 0.49667 0.05518 0.0
H2814 H 0.39493 0.56864 0.794 0.0
H2815 H 0.44877 0.59951 0.75406 0.0
H2816 H 0.43173 0.63438 0.7532 0.0
H2817 H 0.34812 0.59248 0.76625 0.0
H2818 H 0.33696 0.59788 0.79494 0.0
H2819 H 0.35174 0.57439 0.79001 0.0
H2820 H 0.38028 0.59081 0.82961 0.0
H2821 H 0.3653 0.61402 0.83483 0.0
H2822 H 0.39572 0.62033 0.83313 0.0
H2823 H 0.4093 0.66552 0.75708 0.0
H2824 H 0.38759 0.69441 0.77242 0.0
H2825 H 0.35056 0.64444 0.81296 0.0
C2826 C 0.40286 0.58268 0.78479 0.0
C2827 C 0.42279 0.58155 0.77366 0.0
C2828 C 0.43334 0.60028 0.76246 0.0
C2829 C 0.42369 0.61993 0.76173 0.0
C2830 C 0.40384 0.6205 0.77269 0.0
C2831 C 0.39387 0.60262 0.78455 0.0
C2832 C 0.37429 0.60863 0.7974 0.0
C2833 C 0.35142 0.59238 0.78649 0.0
C2834 C 0.37921 0.60845 0.82539 0.0
C2835 C 0.37492 0.63281 0.79105 0.0
C2836 C 0.39169 0.63907 0.77624 0.0
C2837 C 0.39606 0.66085 0.76859 0.0
C2838 C 0.38363 0.67703 0.7772 0.0
C2839 C 0.36751 0.67133 0.79354 0.0
C2840 C 0.36263 0.64887 0.80009 0.0
H2841 H 0.20563 0.63135 0.57562 0.0
H2842 H 0.22323 0.60191 0.50664 0.0
H2843 H 0.18432 0.57678 0.49741 0.0
H2844 H 0.17062 0.57758 0.58937 0.0
H2845 H 0.15079 0.59267 0.60315 0.0
H2846 H 0.18042 0.60674 0.60456 0.0
H2847 H 0.16721 0.6404 0.58453 0.0
H2848 H 0.1376 0.62607 0.58237 0.0
H2849 H 0.14933 0.63433 0.5551 0.0
H2850 H 0.14393 0.55606 0.49575 0.0
H2851 H 0.10484 0.53847 0.50319 0.0
H2852 H 0.11375 0.58351 0.57218 0.0
C2853 C 0.2012 0.61937 0.55874 0.0
C2854 C 0.21671 0.61828 0.54158 0.0
C2855 C 0.21104 0.60262 0.51973 0.0
C2856 C 0.18918 0.58848 0.51441 0.0
C2857 C 0.17382 0.59043 0.53138 0.0
C2858 C 0.17968 0.60515 0.55331 0.0
C2859 C 0.16009 0.60406 0.56839 0.0
C2860 C 0.16583 0.5947 0.5928 0.0
C2861 C 0.15315 0.62762 0.57283 0.0
C2862 C 0.14207 0.58694 0.55115 0.0
C2863 C 0.15032 0.57913 0.53 0.0
C2864 C 0.13709 0.56226 0.51199 0.0
C2865 C 0.11492 0.55269 0.51612 0.0
C2866 C 0.10641 0.56075 0.53754 0.0
C2867 C 0.11995 0.57797 0.55521 0.0
H2868 H 0.71775 0.98212 0.73171 0.0
H2869 H 0.76478 0.03993 0.77628 0.0
H2870 H 0.78629 0.0135 0.79453 0.0
H2871 H 0.71024 0.94651 0.77049 0.0
H2872 H 0.7119 0.91985 0.75252 0.0
H2873 H 0.70407 0.94294 0.73734 0.0
H2874 H 0.73743 0.94286 0.71116 0.0
H2875 H 0.74523 0.91926 0.72586 0.0
H2876 H 0.76627 0.94537 0.72611 0.0
H2877 H 0.794 0.98263 0.81667 0.0
H2878 H 0.79337 0.94704 0.83611 0.0
H2879 H 0.74471 0.90821 0.77512 0.0
C2880 C 0.73351 0.98908 0.74402 0.0
C2881 C 0.74 1.01279 0.7523 0.0
C2882 C 0.76009 0.02173 0.76916 0.0
C2883 C 0.77236 1.00686 0.77976 0.0
C2884 C 0.76484 0.98336 0.77236 0.0
C2885 C 0.74651 0.97445 0.75411 0.0
C2886 C 0.74077 0.94842 0.75139 0.0
C2887 C 0.71524 0.93892 0.75307 0.0
C2888 C 0.74785 0.93837 0.72721 0.0
C2889 C 0.75623 0.9445 0.77339 0.0
C2890 C 0.77042 0.96487 0.78479 0.0
C2891 C 0.78376 0.96637 0.80746 0.0
C2892 C 0.78291 0.94637 0.8186 0.0
C2893 C 0.76866 0.92552 0.80707 0.0
C2894 C 0.75552 0.92431 0.78409 0.0
H2895 H 0.77555 0.94933 0.52515 0.0
H2896 H 0.74724 0.8986 0.57029 0.0
H2897 H 0.71252 0.91567 0.57097 0.0
H2898 H 0.75208 0.99788 0.55032 0.0
H2899 H 0.74539 1.00689 0.52064 0.0
H2900 H 0.76918 0.99269 0.52611 0.0
H2901 H 0.75187 0.96155 0.48875 0.0
H2902 H 0.72832 0.97592 0.48301 0.0
H2903 H 0.72275 0.94585 0.48723 0.0
H2904 H 0.68092 0.93764 0.56606 0.0
H2905 H 0.65138 0.9582 0.54973 0.0
H2906 H 0.69896 0.99224 0.50487 0.0
C2907 C 0.76215 0.94215 0.53552 0.0
C2908 C 0.76402 0.92308 0.54818 0.0
C2909 C 0.746 0.91343 0.5608 0.0
C2910 C 0.7264 0.92309 0.56139 0.0
C2911 C 0.72506 0.94204 0.54884 0.0
C2912 C 0.74222 0.95114 0.53566 0.0
C2913 C 0.73537 0.96966 0.52133 0.0
C2914 C 0.75147 0.99317 0.53014 0.0
C2915 C 0.73452 0.96282 0.49344 0.0
C2916 C 0.71163 0.96945 0.52842 0.0
C2917 C 0.70624 0.95381 0.54478 0.0
C2918 C 0.68495 0.95001 0.55336 0.0
C2919 C 0.66838 0.96181 0.54418 0.0
C2920 C 0.67321 0.97679 0.52638 0.0
C2921 C 0.69519 0.9811 0.51885 0.0
H2922 H 0.42402 0.44071 0.80586 0.0
H2923 H 0.39322 0.46522 0.7416 0.0
H2924 H 0.36071 0.43157 0.73635 0.0
H2925 H 0.40853 0.38142 0.78348 0.0
H2926 H 0.40265 0.3722 0.81247 0.0
H2927 H 0.42311 0.39837 0.81187 0.0
H2928 H 0.40069 0.42179 0.8391 0.0
H2929 H 0.38039 0.39564 0.84078 0.0
H2930 H 0.37048 0.42006 0.83 0.0
H2931 H 0.33372 0.39236 0.73589 0.0
H2932 H 0.31229 0.35439 0.74346 0.0
H2933 H 0.35688 0.3596 0.81207 0.0
C2934 C 0.41037 0.43903 0.79075 0.0
C2935 C 0.4113 0.45536 0.77392 0.0
C2936 C 0.39292 0.4528 0.75462 0.0
C2937 C 0.3744 0.43374 0.75149 0.0
C2938 C 0.37416 0.41773 0.76825 0.0
C2939 C 0.3914 0.42058 0.78786 0.0
C2940 C 0.38714 0.40111 0.80339 0.0
C2941 C 0.40652 0.38749 0.80277 0.0
C2942 C 0.38451 0.4102 0.82989 0.0
C2943 C 0.36467 0.3869 0.78974 0.0
C2944 C 0.35775 0.39642 0.7691 0.0
C2945 C 0.33867 0.38514 0.75237 0.0
C2946 C 0.32644 0.3637 0.75692 0.0
C2947 C 0.33272 0.35414 0.77844 0.0
C2948 C 0.35186 0.36618 0.79523 0.0
H2949 H 0.2011 0.64009 0.25155 0.0
H2950 H 0.23 0.62358 0.32137 0.0
H2951 H 0.25675 0.6617 0.32879 0.0
H2952 H 0.25506 0.66864 0.23547 0.0
H2953 H 0.24284 0.68976 0.22039 0.0
H2954 H 0.22561 0.6616 0.22114 0.0
H2955 H 0.19529 0.68071 0.241 0.0
H2956 H 0.21261 0.7089 0.24054 0.0
H2957 H 0.20394 0.70046 0.26912 0.0
H2958 H 0.2809 0.7001 0.3276 0.0
H2959 H 0.30177 0.73733 0.31763 0.0
H2960 H 0.25639 0.72882 0.24907 0.0
C2961 C 0.21279 0.64488 0.26858 0.0
C2962 C 0.21334 0.62976 0.28641 0.0
C2963 C 0.22927 0.63562 0.30803 0.0
C2964 C 0.24445 0.657 0.31226 0.0
C2965 C 0.24343 0.67177 0.29441 0.0
C2966 C 0.22819 0.66594 0.2729 0.0
C2967 C 0.23138 0.68447 0.25618 0.0
C2968 C 0.23919 0.67557 0.23187 0.0
C2969 C 0.2095 0.69421 0.25145 0.0
C2970 C 0.25041 0.70184 0.27199 0.0
C2971 C 0.25725 0.69411 0.29385 0.0
C2972 C 0.27545 0.7066 0.31081 0.0
C2973 C 0.28698 0.72768 0.3052 0.0
C2974 C 0.27962 0.73599 0.28335 0.0
C2975 C 0.26149 0.72291 0.26635 0.0
H2976 H 0.5527 0.72347 0.50514 0.0
H2977 H 0.48814 0.70078 0.45715 0.0
H2978 H 0.48867 0.66038 0.46352 0.0
H2979 H 0.57713 0.67182 0.48474 0.0
H2980 H 0.59154 0.67052 0.51487 0.0
H2981 H 0.58695 0.69784 0.50617 0.0
H2982 H 0.56625 0.70416 0.5443 0.0
H2983 H 0.57078 0.67684 0.55297 0.0
H2984 H 0.54214 0.68252 0.54896 0.0
H2985 H 0.49517 0.62149 0.47569 0.0
H2986 H 0.507 0.58795 0.49146 0.0
H2987 H 0.56806 0.63269 0.53286 0.0
C2988 C 0.53881 0.70998 0.49565 0.0
C2989 C 0.52035 0.71597 0.48011 0.0
C2990 C 0.5026 0.69728 0.46869 0.0
C2991 C 0.50274 0.67402 0.47236 0.0
C2992 C 0.52086 0.66876 0.48766 0.0
C2993 C 0.53877 0.68619 0.49904 0.0
C2994 C 0.55611 0.67529 0.51453 0.0
C2995 C 0.57932 0.67911 0.50449 0.0
C2996 C 0.55899 0.68531 0.54182 0.0
C2997 C 0.54482 0.64929 0.51072 0.0
C2998 C 0.52458 0.64614 0.49485 0.0
C2999 C 0.51104 0.62399 0.48804 0.0
C3000 C 0.51808 0.60473 0.49726 0.0
C3001 C 0.53867 0.60673 0.51371 0.0
C3002 C 0.55218 0.62985 0.52054 0.0
H3003 H 0.64892 0.27622 0.65529 0.0
H3004 H 0.64771 0.34893 0.66986 0.0
H3005 H 0.68172 0.35436 0.70156 0.0
H3006 H 0.66547 0.27034 0.72115 0.0
H3007 H 0.68267 0.24937 0.71386 0.0
H3008 H 0.6582 0.25121 0.69252 0.0
H3009 H 0.68429 0.25695 0.65815 0.0
H3010 H 0.70855 0.25486 0.67954 0.0
H3011 H 0.7095 0.27983 0.6635 0.0
H3012 H 0.718 0.35247 0.72985 0.0
H3013 H 0.75076 0.34274 0.75527 0.0
H3014 H 0.72732 0.27064 0.72571 0.0
C3015 C 0.65576 0.29326 0.66529 0.0
C3016 C 0.64564 0.31226 0.65984 0.0
C3017 C 0.65503 0.33415 0.67361 0.0
C3018 C 0.67445 0.33738 0.69164 0.0
C3019 C 0.68419 0.31844 0.69638 0.0
C3020 C 0.67484 0.29666 0.684 0.0
C3021 C 0.68814 0.27908 0.69339 0.0
C3022 C 0.67269 0.26145 0.70597 0.0
C3023 C 0.69823 0.26698 0.67239 0.0
C3024 C 0.707 0.29448 0.7122 0.0
C3025 C 0.70435 0.31715 0.7136 0.0
C3026 C 0.71997 0.33471 0.72907 0.0
C3027 C 0.73858 0.32905 0.74349 0.0
C3028 C 0.74157 0.30598 0.74278 0.0
C3029 C 0.7254 0.28844 0.72692 0.0
H3030 H 1.01438 0.36246 0.94695 0.0
H3031 H 0.03273 0.33916 0.01684 0.0
H3032 H 0.03945 0.37948 0.03734 0.0
H3033 H 0.05385 0.41689 0.955 0.0
H3034 H 0.03388 0.43265 0.9414 0.0
H3035 H 0.03019 0.40205 0.93226 0.0
H3036 H 0.98887 0.39602 0.94364 0.0
H3037 H 0.99254 0.42665 0.95288 0.0
H3038 H 0.98422 0.40665 0.97417 0.0
H3039 H 0.04451 0.42379 0.05084 0.0
H3040 H 0.0478 0.46619 0.05548 0.0
H3041 H 0.02665 0.46242 0.97724 0.0
C3042 C 1.0197 0.36575 0.96663 0.0
C3043 C 0.02288 0.34694 0.98009 0.0
C3044 C 0.02982 0.35262 0.00586 0.0
C3045 C 0.0338 0.37574 0.01774 0.0
C3046 C 0.03052 0.39368 1.00399 0.0
C3047 C 0.02338 0.38889 0.97895 0.0
C3048 C 1.02045 0.41133 0.96859 0.0
C3049 C 0.0355 0.416 0.94809 0.0
C3050 C 0.99502 0.41009 0.95924 0.0
C3051 C 0.02843 0.42971 0.99126 0.0
C3052 C 0.03361 0.41899 0.01163 0.0
C3053 C 0.04054 0.43211 0.03485 0.0
C3054 C 0.04237 0.4564 0.03737 0.0
C3055 C 0.03784 0.46818 0.01687 0.0
C3056 C 0.03064 0.45432 0.99339 0.0
H3057 H 0.02788 0.82403 0.17503 0.0
H3058 H 1.00506 0.76615 0.11737 0.0
H3059 H 0.96828 0.75602 0.13454 0.0
H3060 H 1.00563 0.79989 0.22384 0.0
H3061 H 0.99623 0.8251 0.23674 0.0
H3062 H 1.01974 0.8283 0.21885 0.0
H3063 H 0.99822 0.85122 0.18996 0.0
H3064 H 0.97447 0.84778 0.20771 0.0
H3065 H 0.96963 0.83837 0.17504 0.0
H3066 H 0.93538 0.75054 0.16072 0.0
H3067 H 0.90998 0.75022 0.19354 0.0
H3068 H 0.95392 0.81295 0.23224 0.0
C3069 C 1.01497 0.8094 0.16591 0.0
C3070 C 1.01909 0.79578 0.14497 0.0
C3071 C 1.00195 0.77682 0.13335 0.0
C3072 C 0.98109 0.77099 0.14296 0.0
C3073 C 0.97748 0.78475 0.16375 0.0
C3074 C 0.99385 0.80379 0.17483 0.0
C3075 C 0.98592 0.81574 0.19698 0.0
C3076 C 1.00289 0.81732 0.22048 0.0
C3077 C 0.98182 0.8397 0.19213 0.0
C3078 C 0.96343 0.79946 0.19788 0.0
C3079 C 0.95846 0.78198 0.17824 0.0
C3080 C 0.93895 0.76437 0.17594 0.0
C3081 C 0.92457 0.76435 0.19454 0.0
C3082 C 0.93005 0.78165 0.2152 0.0
C3083 C 0.94935 0.79966 0.21647 0.0
H3084 H 0.54833 0.34248 0.19624 0.0
H3085 H 0.53876 0.2899 0.13284 0.0
H3086 H 0.54214 0.31989 0.10537 0.0
H3087 H 0.51778 0.38197 0.16602 0.0
H3088 H 0.53758 0.4076 0.1811 0.0
H3089 H 0.53283 0.38202 0.19621 0.0
H3090 H 0.57649 0.38227 0.20115 0.0
H3091 H 0.58136 0.40798 0.18638 0.0
H3092 H 0.59128 0.38279 0.17433 0.0
H3093 H 0.54644 0.3553 0.08432 0.0
H3094 H 0.55724 0.39428 0.07199 0.0
H3095 H 0.56643 0.4243 0.14853 0.0
C3096 C 0.5469 0.33733 0.17659 0.0
C3097 C 0.54317 0.31379 0.16677 0.0
C3098 C 0.54162 0.30779 0.14091 0.0
C3099 C 0.54334 0.3247 0.12504 0.0
C3100 C 0.54682 0.34769 0.1352 0.0
C3101 C 0.54894 0.35412 0.16037 0.0
C3102 C 0.55409 0.3802 0.16643 0.0
C3103 C 0.5344 0.38843 0.17814 0.0
C3104 C 0.57718 0.38881 0.18305 0.0
C3105 C 0.5552 0.3873 0.14088 0.0
C3106 C 0.55029 0.36825 0.12307 0.0
C3107 C 0.55031 0.37037 0.0981 0.0
C3108 C 0.55629 0.39255 0.09124 0.0
C3109 C 0.56259 0.41219 0.10933 0.0
C3110 C 0.56158 0.40951 0.13438 0.0
H3111 H 0.98069 0.35291 0.34731 0.0
H3112 H 0.99313 0.28361 0.33398 0.0
H3113 H 0.95223 0.26957 0.31642 0.0
H3114 H 0.92596 0.34094 0.36473 0.0
H3115 H 0.91383 0.36128 0.34815 0.0
H3116 H 0.94435 0.36638 0.35752 0.0
H3117 H 0.95172 0.36919 0.31249 0.0
H3118 H 0.92119 0.36433 0.30301 0.0
H3119 H 0.93801 0.34591 0.28876 0.0
H3120 H 0.9084 0.26242 0.30247 0.0
H3121 H 0.86754 0.26295 0.29169 0.0
H3122 H 0.88155 0.33669 0.31428 0.0
C3123 C 0.97508 0.3349 0.33976 0.0
C3124 C 0.99095 0.31961 0.34139 0.0
C3125 C 0.98214 0.29602 0.33214 0.0
C3126 C 0.95862 0.2878 0.3224 0.0
C3127 C 0.94356 0.30326 0.32145 0.0
C3128 C 0.95161 0.32647 0.32939 0.0
C3129 C 0.93175 0.33945 0.3261 0.0
C3130 C 0.9288 0.3528 0.3506 0.0
C3131 C 0.93592 0.3557 0.30644 0.0
C3132 C 0.91093 0.3198 0.31681 0.0
C3133 C 0.91837 0.29913 0.31382 0.0
C3134 C 0.90265 0.27859 0.30502 0.0
C3135 C 0.87911 0.279 0.29929 0.0
C3136 C 0.87042 0.2996 0.30274 0.0
C3137 C 0.88703 0.32047 0.31136 0.0
H3138 H 0.04987 0.70881 0.62044 0.0
H3139 H 1.0141 0.68282 0.67938 0.0
H3140 H 1.01226 0.6427 0.65947 0.0
H3141 H 1.01969 0.66576 0.5707 0.0
H3142 H 0.04495 0.66505 0.55582 0.0
H3143 H 0.04224 0.69116 0.57409 0.0
H3144 H 0.08096 0.69195 0.6006 0.0
H3145 H 0.08378 0.66588 0.58241 0.0
H3146 H 0.08487 0.6671 0.61535 0.0
H3147 H 1.01446 0.60466 0.63141 0.0
H3148 H 0.02143 0.57408 0.60117 0.0
H3149 H 0.05901 0.62596 0.56292 0.0
C3150 C 0.0414 0.69491 0.62944 0.0
C3151 C 0.03192 0.69951 0.65179 0.0
C3152 C 0.02129 0.68021 0.66235 0.0
C3153 C 1.02026 0.65727 0.65109 0.0
C3154 C 0.03002 0.65368 0.62924 0.0
C3155 C 0.04046 0.67216 0.61868 0.0
C3156 C 0.05036 0.66418 0.59564 0.0
C3157 C 0.03861 0.67201 0.57271 0.0
C3158 C 0.07655 0.67279 0.59869 0.0
C3159 C 0.04411 0.63811 0.59468 0.0
C3160 C 0.0321 0.63235 0.61401 0.0
C3161 C 0.02396 0.60925 0.61643 0.0
C3162 C 0.02811 0.59186 0.59894 0.0
C3163 C 0.04087 0.59714 0.57915 0.0
C3164 C 0.04896 0.62087 0.5773 0.0
H3165 H 0.62023 0.80369 0.81126 0.0
H3166 H 0.6469 0.84328 0.88279 0.0
H3167 H 0.68593 0.83963 0.8759 0.0
H3168 H 0.66195 0.76417 0.81481 0.0
H3169 H 0.66576 0.76226 0.78273 0.0
H3170 H 0.63903 0.7674 0.79219 0.0
H3171 H 0.64311 0.80427 0.77093 0.0
H3172 H 0.66975 0.79909 0.76132 0.0
H3173 H 0.66893 0.82626 0.7788 0.0
H3174 H 0.72299 0.83124 0.86303 0.0
H3175 H 0.75528 0.82043 0.84456 0.0
H3176 H 0.70944 0.78704 0.77879 0.0
C3177 C 0.63426 0.81174 0.82546 0.0
C3178 C 0.62956 0.82411 0.84787 0.0
C3179 C 0.64909 0.83383 0.86559 0.0
C3180 C 0.67172 0.8318 0.86181 0.0
C3181 C 0.67569 0.8197 0.84001 0.0
C3182 C 0.65759 0.80972 0.82198 0.0
C3183 C 0.66747 0.79741 0.80044 0.0
C3184 C 0.65797 0.77125 0.79734 0.0
C3185 C 0.66198 0.80735 0.77644 0.0
C3186 C 0.69376 0.80273 0.80893 0.0
C3187 C 0.69769 0.81535 0.8321 0.0
C3188 C 0.71994 0.82176 0.8447 0.0
C3189 C 0.73859 0.81567 0.83364 0.0
C3190 C 0.73614 0.80363 0.80939 0.0
C3191 C 0.71278 0.7967 0.79705 0.0
H3192 H 0.50127 0.50378 0.70439 0.0
H3193 H 0.45481 0.55156 0.70667 0.0
H3194 H 0.46567 0.56354 0.66722 0.0
H3195 H 0.54604 0.53884 0.67995 0.0
H3196 H 0.55268 0.51536 0.66037 0.0
H3197 H 0.54054 0.50998 0.6882 0.0
H3198 H 0.50718 0.47918 0.66312 0.0
H3199 H 0.51939 0.48439 0.63525 0.0
H3200 H 0.49014 0.48694 0.63751 0.0
H3201 H 0.4816 0.57002 0.62637 0.0
H3202 H 0.50155 0.57085 0.58921 0.0
H3203 H 0.53893 0.52034 0.61455 0.0
C3204 C 0.49325 0.51671 0.69662 0.0
C3205 C 0.47705 0.52662 0.70892 0.0
C3206 C 0.46709 0.54349 0.69779 0.0
C3207 C 0.47323 0.55048 0.67531 0.0
C3208 C 0.48933 0.54045 0.66383 0.0
C3209 C 0.49912 0.52384 0.67412 0.0
C3210 C 0.516 0.51571 0.65814 0.0
C3211 C 0.54026 0.52026 0.67253 0.0
C3212 C 0.50769 0.49003 0.64791 0.0
C3213 C 0.51478 0.53084 0.63765 0.0
C3214 C 0.49897 0.54469 0.64099 0.0
C3215 C 0.49409 0.55931 0.62376 0.0
C3216 C 0.5055 0.55969 0.60264 0.0
C3217 C 0.52203 0.54593 0.59898 0.0
C3218 C 0.52673 0.53142 0.61694 0.0
H3219 H 0.76418 0.18527 0.01909 0.0
H3220 H 0.80595 0.14344 0.98274 0.0
H3221 H 0.80404 0.16567 0.94721 0.0
H3222 H 0.72737 0.18932 0.96554 0.0
H3223 H 0.72492 0.21837 0.97612 0.0
H3224 H 0.72999 0.199 0.99806 0.0
H3225 H 0.76624 0.22886 0.01907 0.0
H3226 H 0.76161 0.24814 0.99684 0.0
H3227 H 0.78864 0.23894 1.00109 0.0
H3228 H 0.796 0.19134 0.91591 0.0
H3229 H 0.78016 0.21643 0.88917 0.0
H3230 H 0.74702 0.24357 0.94904 0.0
C3231 C 0.7729 0.18067 1.00368 0.0
C3232 C 0.78525 0.16285 1.00339 0.0
C3233 C 0.7962 0.15704 0.98287 0.0
C3234 C 0.79547 0.1697 0.96293 0.0
C3235 C 0.78373 0.18781 0.96425 0.0
C3236 C 0.77245 0.19307 0.98399 0.0
C3237 C 0.76017 0.21255 0.98071 0.0
C3238 C 0.73407 0.20431 0.98006 0.0
C3239 C 0.76976 0.23335 1.00061 0.0
C3240 C 0.76627 0.21755 0.9559 0.0
C3241 C 0.77985 0.20314 0.94668 0.0
C3242 C 0.78574 0.20304 0.92304 0.0
C3243 C 0.77678 0.21755 0.90811 0.0
C3244 C 0.76246 0.23215 0.91721 0.0
C3245 C 0.75781 0.23258 0.94161 0.0
H3246 H 0.15158 0.59222 0.19428 0.0
H3247 H 0.17562 0.52791 0.18792 0.0
H3248 H 0.15408 0.51701 0.14611 0.0
H3249 H 0.09825 0.57107 0.17336 0.0
H3250 H 0.09199 0.5936 0.15592 0.0
H3251 H 0.11468 0.60017 0.1813 0.0
H3252 H 0.14396 0.61643 0.1532 0.0
H3253 H 0.12144 0.61057 0.12742 0.0
H3254 H 0.14706 0.59899 0.12546 0.0
H3255 H 0.12375 0.50949 0.11084 0.0
H3256 H 0.08977 0.50778 0.08057 0.0
H3257 H 0.08408 0.57632 0.11155 0.0
C3258 C 0.15319 0.57645 0.18342 0.0
C3259 C 0.16509 0.5609 0.19371 0.0
C3260 C 0.16679 0.54012 0.17975 0.0
C3261 C 0.15457 0.5338 0.15616 0.0
C3262 C 0.1414 0.54879 0.14715 0.0
C3263 C 0.14111 0.56997 0.16007 0.0
C3264 C 0.12317 0.58141 0.14812 0.0
C3265 C 0.10602 0.58685 0.16574 0.0
C3266 C 0.13457 0.60314 0.13792 0.0
C3267 C 0.11208 0.5625 0.1277 0.0
C3268 C 0.12324 0.54413 0.12702 0.0
C3269 C 0.11532 0.52404 0.11064 0.0
C3270 C 0.096 0.52316 0.09377 0.0
C3271 C 0.08493 0.54214 0.09387 0.0
C3272 C 0.09253 0.56173 0.11136 0.0
H3273 H 0.78603 0.85055 0.46931 0.0
H3274 H 0.85636 0.88839 0.48081 0.0
H3275 H 0.86156 0.87301 0.43873 0.0
H3276 H 0.79711 0.79938 0.43277 0.0
H3277 H 0.77045 0.79449 0.41243 0.0
H3278 H 0.77228 0.80803 0.44366 0.0
H3279 H 0.75828 0.84317 0.42779 0.0
H3280 H 0.75611 0.82924 0.39673 0.0
H3281 H 0.77322 0.85797 0.40551 0.0
H3282 H 0.85919 0.85307 0.39524 0.0
H3283 H 0.84893 0.83229 0.35323 0.0
H3284 H 0.77965 0.80752 0.36834 0.0
C3285 C 0.80257 0.85536 0.46296 0.0
C3286 C 0.82096 0.87067 0.47841 0.0
C3287 C 0.84217 0.8768 0.46934 0.0
C3288 C 0.84525 0.86803 0.44545 0.0
C3289 C 0.82687 0.853 0.43063 0.0
C3290 C 0.8059 0.84672 0.43898 0.0
C3291 C 0.78892 0.8305 0.41906 0.0
C3292 C 0.78176 0.80669 0.42749 0.0
C3293 C 0.76789 0.84087 0.41186 0.0
C3294 C 0.80339 0.82911 0.39806 0.0
C3295 C 0.82536 0.84191 0.40535 0.0
C3296 C 0.84203 0.84296 0.38945 0.0
C3297 C 0.8361 0.83083 0.36555 0.0
C3298 C 0.81361 0.81791 0.35724 0.0
C3299 C 0.79704 0.81716 0.37393 0.0
H3300 H 0.48927 0.55802 0.85152 0.0
H3301 H 0.45847 0.48508 0.83695 0.0
H3302 H 0.47384 0.48008 0.87914 0.0
H3303 H 0.54166 0.553 0.88863 0.0
H3304 H 0.54283 0.57826 0.91034 0.0
H3305 H 0.52928 0.57655 0.87916 0.0
H3306 H 0.49198 0.58395 0.89538 0.0
H3307 H 0.50542 0.58561 0.92662 0.0
H3308 H 0.4788 0.56541 0.91589 0.0
H3309 H 0.48952 0.48333 0.92328 0.0
H3310 H 0.50837 0.49315 0.96554 0.0
H3311 H 0.53403 0.56327 0.95263 0.0
C3312 C 0.48607 0.54098 0.85724 0.0
C3313 C 0.47294 0.52176 0.84085 0.0
C3314 C 0.46868 0.49987 0.84906 0.0
C3315 C 0.47725 0.49694 0.87304 0.0
C3316 C 0.49008 0.51611 0.88878 0.0
C3317 C 0.49467 0.53773 0.88129 0.0
C3318 C 0.50901 0.55529 0.90223 0.0
C3319 C 0.53207 0.56643 0.89463 0.0
C3320 C 0.4955 0.57366 0.91051 0.0
C3321 C 0.51235 0.53999 0.92232 0.0
C3322 C 0.50068 0.51763 0.91412 0.0
C3323 C 0.49939 0.50059 0.92952 0.0
C3324 C 0.51068 0.50626 0.95363 0.0
C3325 C 0.52426 0.52846 0.96243 0.0
C3326 C 0.52463 0.54582 0.94648 0.0
H3327 H 0.76546 0.17208 0.14179 0.0
H3328 H 0.83206 0.19535 0.11928 0.0
H3329 H 0.84315 0.22367 0.1569 0.0
H3330 H 0.7539 0.22149 0.15795 0.0
H3331 H 0.74068 0.21599 0.18519 0.0
H3332 H 0.74037 0.19252 0.16177 0.0
H3333 H 0.76157 0.17031 0.19251 0.0
H3334 H 0.7587 0.19255 0.21591 0.0
H3335 H 0.78654 0.18606 0.21294 0.0
H3336 H 0.84353 0.25404 0.19097 0.0
H3337 H 0.83514 0.28189 0.22381 0.0
H3338 H 0.7664 0.2413 0.21986 0.0
C3339 C 0.78282 0.18221 0.14578 0.0
C3340 C 0.79824 0.18164 0.12858 0.0
C3341 C 0.82051 0.1955 0.13311 0.0
C3342 C 0.82683 0.2116 0.15422 0.0
C3343 C 0.81058 0.21309 0.17022 0.0
C3344 C 0.78923 0.1984 0.16658 0.0
C3345 C 0.77381 0.20544 0.18449 0.0
C3346 C 0.75086 0.20909 0.17154 0.0
C3347 C 0.76997 0.18757 0.20256 0.0
C3348 C 0.78882 0.22781 0.19684 0.0
C3349 C 0.81028 0.23145 0.18907 0.0
C3350 C 0.82697 0.25123 0.19756 0.0
C3351 C 0.82195 0.2671 0.21562 0.0
C3352 C 0.80021 0.26321 0.22386 0.0
C3353 C 0.7832 0.24401 0.21383 0.0
H3354 H 0.1877 0.58757 0.32975 0.0
H3355 H 0.15677 0.51499 0.31095 0.0
H3356 H 0.13139 0.51804 0.34325 0.0
H3357 H 0.1833 0.59256 0.39685 0.0
H3358 H 0.17588 0.62054 0.39701 0.0
H3359 H 0.19429 0.61162 0.37567 0.0
H3360 H 0.16659 0.61946 0.33942 0.0
H3361 H 0.14785 0.628 0.36049 0.0
H3362 H 0.13678 0.60517 0.33542 0.0
H3363 H 0.10769 0.52973 0.37469 0.0
H3364 H 0.08666 0.54951 0.40377 0.0
H3365 H 0.13135 0.61501 0.39937 0.0
C3366 C 0.17623 0.57221 0.33331 0.0
C3367 C 0.17444 0.55087 0.31892 0.0
C3368 C 0.15859 0.53122 0.3227 0.0
C3369 C 0.14415 0.53285 0.34079 0.0
C3370 C 0.14579 0.55434 0.35439 0.0
C3371 C 0.16144 0.57368 0.35091 0.0
C3372 C 0.15798 0.59519 0.3659 0.0
C3373 C 0.17912 0.60558 0.385 0.0
C3374 C 0.15194 0.61299 0.3493 0.0
C3375 C 0.13771 0.585 0.37801 0.0
C3376 C 0.13113 0.56138 0.3714 0.0
C3377 C 0.11267 0.5482 0.38011 0.0
C3378 C 0.1008 0.55952 0.39637 0.0
C3379 C 0.10736 0.5837 0.40322 0.0
C3380 C 0.12589 0.59657 0.39388 0.0
H3381 H 0.78736 0.85978 0.61088 0.0
H3382 H 0.86179 0.87314 0.6191 0.0
H3383 H 0.86262 0.85916 0.65953 0.0
H3384 H 0.78178 0.87604 0.67672 0.0
H3385 H 0.75747 0.85301 0.67707 0.0
H3386 H 0.76214 0.86502 0.64893 0.0
H3387 H 0.76151 0.82416 0.62706 0.0
H3388 H 0.75723 0.81211 0.65525 0.0
H3389 H 0.78112 0.80745 0.63949 0.0
H3390 H 0.856 0.83803 0.69521 0.0
H3391 H 0.84256 0.81918 0.73003 0.0
H3392 H 0.77268 0.82354 0.70473 0.0
C3393 C 0.80379 0.86041 0.6216 0.0
C3394 C 0.82466 0.86792 0.61179 0.0
C3395 C 0.84569 0.86772 0.62616 0.0
C3396 C 0.84633 0.85963 0.64915 0.0
C3397 C 0.82573 0.85169 0.65797 0.0
C3398 C 0.80478 0.8524 0.64507 0.0
C3399 C 0.78537 0.84232 0.65926 0.0
C3400 C 0.77083 0.86018 0.66589 0.0
C3401 C 0.77041 0.82021 0.64438 0.0
C3402 C 0.79884 0.8367 0.68233 0.0
C3403 C 0.82205 0.8415 0.68047 0.0
C3404 C 0.83799 0.83528 0.69749 0.0
C3405 C 0.83022 0.82471 0.7174 0.0
C3406 C 0.80697 0.82173 0.72151 0.0
C3407 C 0.79085 0.82716 0.70317 0.0
H3408 H 0.76081 0.49028 0.49097 0.0
H3409 H 0.74094 0.42323 0.51519 0.0
H3410 H 0.70719 0.43481 0.53042 0.0
H3411 H 0.75031 0.52291 0.53889 0.0
H3412 H 0.73803 0.54341 0.52274 0.0
H3413 H 0.75746 0.52818 0.50876 0.0
H3414 H 0.72679 0.51312 0.4706 0.0
H3415 H 0.70702 0.5283 0.4845 0.0
H3416 H 0.69872 0.49769 0.47451 0.0
H3417 H 0.68199 0.45553 0.5506 0.0
H3418 H 0.66513 0.48469 0.5737 0.0
H3419 H 0.69963 0.53773 0.5349 0.0
C3420 C 0.74877 0.4779 0.49867 0.0
C3421 C 0.75289 0.45595 0.50173 0.0
C3422 C 0.73744 0.44002 0.51226 0.0
C3423 C 0.71827 0.44638 0.52087 0.0
C3424 C 0.71472 0.46839 0.51805 0.0
C3425 C 0.72929 0.48381 0.50686 0.0
C3426 C 0.72299 0.50718 0.50857 0.0
C3427 C 0.74341 0.52652 0.52047 0.0
C3428 C 0.71329 0.51185 0.48303 0.0
C3429 C 0.70446 0.50319 0.52499 0.0
C3430 C 0.6994 0.48047 0.5295 0.0
C3431 C 0.68513 0.4732 0.54669 0.0
C3432 C 0.67598 0.48976 0.5599 0.0
C3433 C 0.68165 0.51301 0.55592 0.0
C3434 C 0.69535 0.51981 0.5379 0.0
H3435 H 0.20638 0.13097 0.48739 0.0
H3436 H 0.21527 0.17295 0.55843 0.0
H3437 H 0.1833 0.14605 0.57111 0.0
H3438 H 0.1472 0.11863 0.4773 0.0
H3439 H 0.14314 0.08875 0.4644 0.0
H3440 H 0.16932 0.10853 0.46204 0.0
H3441 H 0.19289 0.08196 0.48306 0.0
H3442 H 0.16663 0.06211 0.48551 0.0
H3443 H 0.18684 0.07386 0.51261 0.0
H3444 H 0.15126 0.11419 0.57682 0.0
H3445 H 0.11546 0.08459 0.57188 0.0
H3446 H 0.1215 0.0677 0.49481 0.0
C3447 C 0.20178 0.13412 0.50573 0.0
C3448 C 0.21337 0.15393 0.52208 0.0
C3449 C 0.20669 0.15779 0.54577 0.0
C3450 C 0.18867 0.14253 0.5532 0.0
C3451 C 0.17733 0.12335 0.53671 0.0
C3452 C 0.18339 0.1191 0.51338 0.0
C3453 C 0.1668 0.09821 0.49874 0.0
C3454 C 0.15596 0.1039 0.47417 0.0
C3455 C 0.17902 0.07783 0.49472 0.0
C3456 C 0.14928 0.09317 0.51649 0.0
C3457 C 0.15672 0.10681 0.53889 0.0
C3458 C 0.14492 0.1039 0.55914 0.0
C3459 C 0.1245 0.08726 0.55612 0.0
C3460 C 0.11499 0.07526 0.53262 0.0
C3461 C 0.12793 0.07757 0.5127 0.0
H3462 H 0.16557 0.99107 0.76452 0.0
H3463 H 0.20277 0.0241 0.83513 0.0
H3464 H 0.22613 0.99402 0.83549 0.0
H3465 H 0.16725 0.93032 0.7746 0.0
H3466 H 0.17186 0.9223 0.74334 0.0
H3467 H 0.1556 0.94427 0.75012 0.0
H3468 H 0.1831 0.97294 0.72912 0.0
H3469 H 0.19926 0.95102 0.72224 0.0
H3470 H 0.21356 0.97848 0.73928 0.0
H3471 H 0.24667 0.96218 0.82744 0.0
H3472 H 0.26638 0.93287 0.80912 0.0
H3473 H 0.21771 0.92175 0.74252 0.0
C3474 C 0.1782 0.99143 0.78029 0.0
C3475 C 0.18217 1.00932 0.80013 0.0
C3476 C 0.19937 1.01009 0.82008 0.0
C3477 C 0.21261 0.99312 0.82046 0.0
C3478 C 0.2085 0.97569 0.8006 0.0
C3479 C 0.19189 0.97478 0.78075 0.0
C3480 C 0.19273 0.95559 0.76065 0.0
C3481 C 0.17054 0.93702 0.75696 0.0
C3482 C 0.19745 0.96509 0.7364 0.0
C3483 C 0.21289 0.94653 0.77198 0.0
C3484 C 0.22129 0.95793 0.79531 0.0
C3485 C 0.24021 0.95302 0.80924 0.0
C3486 C 0.25124 0.93638 0.79876 0.0
C3487 C 0.24357 0.92537 0.77446 0.0
C3488 C 0.22389 0.93013 0.76112 0.0
H3489 H 0.39796 0.95624 0.97477 0.0
H3490 H 0.37478 0.97524 0.04446 0.0
H3491 H 0.41201 1.00231 0.05841 0.0
H3492 H 0.45377 0.95549 0.99501 0.0
H3493 H 0.46612 0.96902 0.97045 0.0
H3494 H 0.43703 0.95289 0.96519 0.0
H3495 H 0.42253 0.98859 0.95129 0.0
H3496 H 0.45172 1.0047 0.95605 0.0
H3497 H 0.43008 0.01569 0.97125 0.0
H3498 H 0.4521 0.02552 0.06493 0.0
H3499 H 0.49201 0.04538 0.06231 0.0
H3500 H 0.48802 1.009 0.98906 0.0
C3501 C 0.40089 0.96618 0.9929 0.0
C3502 C 0.38437 0.96363 0.00896 0.0
C3503 C 0.38789 0.97711 0.0323 0.0
C3504 C 0.40872 0.99245 0.04025 0.0
C3505 C 0.42513 0.99421 0.02419 0.0
C3506 C 0.42124 0.98185 1.00082 0.0
C3507 C 0.44157 0.9868 0.98713 0.0
C3508 C 0.45012 0.96473 0.97899 0.0
C3509 C 0.43615 0.99971 0.96514 0.0
C3510 C 0.45808 1.00238 0.00714 0.0
C3511 C 0.44822 1.00702 0.02817 0.0
C3512 C 0.46015 0.02187 0.0487 0.0
C3513 C 0.48276 0.03262 0.04732 0.0
C3514 C 0.49286 0.02743 0.02605 0.0
C3515 C 0.48054 1.01231 0.00582 0.0
H3516 H 0.89046 0.59098 0.78636 0.0
H3517 H 0.85144 0.57517 0.84622 0.0
H3518 H 0.83077 0.60668 0.83894 0.0
H3519 H 0.89234 0.65456 0.79218 0.0
H3520 H 0.88809 0.65393 0.75919 0.0
H3521 H 0.90343 0.63407 0.77279 0.0
H3522 H 0.87529 0.59954 0.74597 0.0
H3523 H 0.8599 0.61912 0.73227 0.0
H3524 H 0.84487 0.59642 0.74717 0.0
H3525 H 0.81141 0.63515 0.82183 0.0
H3526 H 0.79153 0.65677 0.79357 0.0
H3527 H 0.84216 0.6522 0.74359 0.0
C3528 C 0.87799 0.5948 0.79824 0.0
C3529 C 0.87229 0.58149 0.81683 0.0
C3530 C 0.85568 0.5858 0.83193 0.0
C3531 C 0.84421 0.60366 0.82813 0.0
C3532 C 0.84981 0.61649 0.80917 0.0
C3533 C 0.86617 0.61214 0.79433 0.0
C3534 C 0.86621 0.62542 0.77266 0.0
C3535 C 0.88886 0.64306 0.77432 0.0
C3536 C 0.86126 0.60915 0.7481 0.0
C3537 C 0.84652 0.63705 0.77692 0.0
C3538 C 0.83778 0.63227 0.79845 0.0
C3539 C 0.81823 0.63937 0.80512 0.0
C3540 C 0.80701 0.65134 0.78897 0.0
C3541 C 0.81529 0.65543 0.76645 0.0
C3542 C 0.83551 0.6488 0.76064 0.0
H3543 H 0.83248 0.64815 0.05908 0.0
H3544 H 0.84759 0.67321 0.99048 0.0
H3545 H 0.88002 0.65284 0.99 0.0
H3546 H 0.89168 0.65676 0.08522 0.0
H3547 H 0.88727 0.63187 0.10143 0.0
H3548 H 0.8642 0.64677 0.09515 0.0
H3549 H 0.83835 0.60834 0.07329 0.0
H3550 H 0.86155 0.59345 0.07919 0.0
H3551 H 0.84796 0.59239 0.04813 0.0
H3552 H 0.9102 0.62933 0.99665 0.0
H3553 H 0.94086 0.61061 0.01395 0.0
H3554 H 0.90807 0.6038 0.07988 0.0
C3555 C 0.84272 0.64933 0.04405 0.0
C3556 C 0.83779 0.66216 0.02482 0.0
C3557 C 0.85146 0.6636 0.00547 0.0
C3558 C 0.86966 0.65189 1.00491 0.0
C3559 C 0.87408 0.63922 0.02407 0.0
C3560 C 0.86138 0.63833 0.0436 0.0
C3561 C 0.87109 0.62535 0.063 0.0
C3562 C 0.87904 0.64113 0.08765 0.0
C3563 C 0.85369 0.60359 0.06607 0.0
C3564 C 0.89124 0.61917 0.05134 0.0
C3565 C 0.89233 0.62681 0.02861 0.0
C3566 C 0.90961 0.62332 0.01446 0.0
C3567 C 0.92681 0.61258 0.0243 0.0
C3568 C 0.92672 0.60599 0.04818 0.0
C3569 C 0.90842 0.60876 0.06155 0.0
H3570 H 0.19558 0.12874 0.77713 0.0
H3571 H 0.17936 0.14655 0.85063 0.0
H3572 H 0.20923 0.1822 0.85594 0.0
H3573 H 0.25806 0.15296 0.78909 0.0
H3574 H 0.25898 0.16441 0.76015 0.0
H3575 H 0.23797 0.13895 0.76254 0.0
H3576 H 0.20547 0.15884 0.74632 0.0
H3577 H 0.22647 0.18424 0.74389 0.0
H3578 H 0.20333 0.18649 0.76177 0.0
H3579 H 0.23787 0.21682 0.85272 0.0
H3580 H 0.26418 0.24972 0.8409 0.0
H3581 H 0.26316 0.21107 0.76929 0.0
C3582 C 0.19872 0.14002 0.79446 0.0
C3583 C 0.18536 0.1349 0.81368 0.0
C3584 C 0.18946 0.15021 0.83583 0.0
C3585 C 0.20642 0.17043 0.839 0.0
C3586 C 0.21903 0.17529 0.81972 0.0
C3587 C 0.21545 0.16067 0.79779 0.0
C3588 C 0.23041 0.17118 0.77949 0.0
C3589 C 0.24736 0.15595 0.77241 0.0
C3590 C 0.21553 0.17544 0.75652 0.0
C3591 C 0.2429 0.19385 0.79472 0.0
C3592 C 0.23595 0.1957 0.81784 0.0
C3593 C 0.2437 0.21548 0.83482 0.0
C3594 C 0.25865 0.23408 0.82796 0.0
C3595 C 0.26594 0.23283 0.8044 0.0
C3596 C 0.25832 0.21223 0.78769 0.0
H3597 H 0.40134 0.93829 0.31843 0.0
H3598 H 0.34855 0.97912 0.32338 0.0
H3599 H 0.31875 0.94443 0.30832 0.0
H3600 H 0.3736 0.8998 0.26309 0.0
H3601 H 0.38253 0.87502 0.27408 0.0
H3602 H 0.40002 0.90344 0.28361 0.0
H3603 H 0.39844 0.89772 0.32961 0.0
H3604 H 0.38137 0.86921 0.32013 0.0
H3605 H 0.37091 0.88971 0.34014 0.0
H3606 H 0.29487 0.90557 0.29657 0.0
H3607 H 0.27829 0.86372 0.29084 0.0
H3608 H 0.34684 0.84933 0.29152 0.0
C3609 C 0.38352 0.93992 0.31645 0.0
C3610 C 0.37719 0.96121 0.32211 0.0
C3611 C 0.35372 0.96281 0.31913 0.0
C3612 C 0.33669 0.94333 0.3104 0.0
C3613 C 0.34355 0.92265 0.30457 0.0
C3614 C 0.36634 0.92076 0.30756 0.0
C3615 C 0.369 0.89625 0.30155 0.0
C3616 C 0.38207 0.89349 0.27925 0.0
C3617 C 0.3806 0.88772 0.3242 0.0
C3618 C 0.34409 0.88466 0.29527 0.0
C3619 C 0.32965 0.90016 0.2969 0.0
C3620 C 0.30588 0.89319 0.29461 0.0
C3621 C 0.29665 0.86955 0.29135 0.0
C3622 C 0.31135 0.85362 0.29043 0.0
C3623 C 0.33519 0.86122 0.29146 0.0
H3624 H 0.57136 0.36564 0.56107 0.0
H3625 H 0.57912 0.38562 0.64014 0.0
H3626 H 0.57398 0.42444 0.63354 0.0
H3627 H 0.60097 0.4225 0.54649 0.0
H3628 H 0.58191 0.42237 0.51877 0.0
H3629 H 0.58639 0.39547 0.52872 0.0
H3630 H 0.54267 0.38218 0.52818 0.0
H3631 H 0.53812 0.4091 0.51835 0.0
H3632 H 0.52728 0.4 0.54573 0.0
H3633 H 0.56923 0.46277 0.61963 0.0
H3634 H 0.56421 0.49659 0.59946 0.0
H3635 H 0.55676 0.45556 0.52797 0.0
C3636 C 0.57212 0.37816 0.57706 0.0
C3637 C 0.57594 0.37156 0.6015 0.0
C3638 C 0.57639 0.38922 0.62132 0.0
C3639 C 0.57344 0.41176 0.61774 0.0
C3640 C 0.56974 0.4176 0.59394 0.0
C3641 C 0.56894 0.40136 0.57376 0.0
C3642 C 0.56445 0.41292 0.5502 0.0
C3643 C 0.58463 0.41332 0.53514 0.0
C3644 C 0.54178 0.40028 0.53468 0.0
C3645 C 0.56286 0.43786 0.56035 0.0
C3646 C 0.56621 0.43993 0.58576 0.0
C3647 C 0.56647 0.46109 0.59973 0.0
C3648 C 0.56352 0.48054 0.58788 0.0
C3649 C 0.5598 0.47966 0.56179 0.0
C3650 C 0.55927 0.45745 0.54789 0.0
H3651 H 0.44596 0.75415 0.39427 0.0
H3652 H 0.45262 0.81961 0.44023 0.0
H3653 H 0.42044 0.82844 0.41374 0.0
H3654 H 0.42833 0.77363 0.33467 0.0
H3655 H 0.4072 0.74773 0.32329 0.0
H3656 H 0.43197 0.74645 0.3445 0.0
H3657 H 0.40531 0.72775 0.37393 0.0
H3658 H 0.38051 0.72904 0.35279 0.0
H3659 H 0.38349 0.74218 0.38431 0.0
H3660 H 0.38717 0.83074 0.38333 0.0
H3661 H 0.35382 0.82555 0.35119 0.0
H3662 H 0.36519 0.75805 0.32428 0.0
C3663 C 0.44077 0.77043 0.39853 0.0
C3664 C 0.45211 0.78626 0.41961 0.0
C3665 C 0.44436 0.80716 0.42451 0.0
C3666 C 0.42604 0.81239 0.40943 0.0
C3667 C 0.415 0.7965 0.38926 0.0
C3668 C 0.42189 0.77585 0.38368 0.0
C3669 C 0.40583 0.76153 0.36142 0.0
C3670 C 0.41914 0.75707 0.33969 0.0
C3671 C 0.39303 0.73877 0.36854 0.0
C3672 C 0.38917 0.77744 0.35549 0.0
C3673 C 0.395 0.79755 0.37186 0.0
C3674 C 0.38243 0.81499 0.37051 0.0
C3675 C 0.36336 0.81185 0.35222 0.0
C3676 C 0.35652 0.79132 0.3354 0.0
C3677 C 0.36987 0.77394 0.33692 0.0
H3678 H 0.09728 0.72315 0.11541 0.0
H3679 H 0.04852 0.7381 0.05841 0.0
H3680 H 0.03761 0.69656 0.04229 0.0
H3681 H 0.11594 0.67788 0.07838 0.0
H3682 H 0.11804 0.65948 0.1021 0.0
H3683 H 0.1217 0.69024 0.11032 0.0
H3684 H 0.08942 0.68378 0.13792 0.0
H3685 H 0.08589 0.653 0.12994 0.0
H3686 H 0.06164 0.66667 0.12499 0.0
H3687 H 0.03247 0.65272 0.03063 0.0
H3688 H 0.03221 0.61089 0.02601 0.0
H3689 H 0.08379 0.62145 0.08997 0.0
C3690 C 0.08396 0.71765 0.09983 0.0
C3691 C 0.07348 0.73452 0.08858 0.0
C3692 C 0.0566 0.72605 0.06782 0.0
C3693 C 0.05035 0.70225 0.05837 0.0
C3694 C 0.06099 0.68625 0.06958 0.0
C3695 C 0.07732 0.69352 0.09007 0.0
C3696 C 0.08608 0.67237 0.09833 0.0
C3697 C 0.11199 0.67517 0.09723 0.0
C3698 C 0.08043 0.66875 0.12435 0.0
C3699 C 0.07239 0.65227 0.07921 0.0
C3700 C 0.05802 0.66087 0.06283 0.0
C3701 C 0.04366 0.646 0.04351 0.0
C3702 C 0.04365 0.62204 0.04094 0.0
C3703 C 0.0579 0.61231 0.05737 0.0
C3704 C 0.07263 0.62797 0.07685 0.0
H3705 H 0.07476 0.31277 0.89949 0.0
H3706 H 0.08934 0.2585 0.94138 0.0
H3707 H 0.12445 0.25744 0.92143 0.0
H3708 H 0.09577 0.29396 0.84319 0.0
H3709 H 0.10867 0.32269 0.83811 0.0
H3710 H 0.08393 0.31821 0.8543 0.0
H3711 H 0.10628 0.34718 0.89149 0.0
H3712 H 0.1309 0.352 0.87522 0.0
H3713 H 0.13363 0.34296 0.90539 0.0
H3714 H 0.15773 0.2621 0.89626 0.0
H3715 H 0.18991 0.27652 0.87343 0.0
H3716 H 0.155 0.32966 0.8505 0.0
C3717 C 0.0854 0.30066 0.90435 0.0
C3718 C 0.07949 0.28558 0.92178 0.0
C3719 C 0.09378 0.27016 0.92806 0.0
C3720 C 0.11358 0.26935 0.91669 0.0
C3721 C 0.11894 0.28432 0.89937 0.0
C3722 C 0.10551 0.30003 0.89362 0.0
C3723 C 0.11604 0.3155 0.87595 0.0
C3724 C 0.10015 0.31239 0.85143 0.0
C3725 C 0.12207 0.34091 0.88772 0.0
C3726 C 0.13745 0.30604 0.87263 0.0
C3727 C 0.13861 0.28776 0.88588 0.0
C3728 C 0.157 0.27641 0.88583 0.0
C3729 C 0.17508 0.28454 0.87267 0.0
C3730 C 0.17474 0.30401 0.86014 0.0
C3731 C 0.15547 0.31455 0.85974 0.0
H3732 H 0.52085 0.75286 0.89557 0.0
H3733 H 0.59476 0.77463 0.90944 0.0
H3734 H 0.59713 0.74043 0.93101 0.0
H3735 H 0.51239 0.73653 0.95109 0.0
H3736 H 0.48969 0.71172 0.94047 0.0
H3737 H 0.49431 0.73509 0.92232 0.0
H3738 H 0.4988 0.70674 0.88482 0.0
H3739 H 0.49397 0.68313 0.90284 0.0
H3740 H 0.51955 0.68855 0.8881 0.0
H3741 H 0.59023 0.70679 0.95678 0.0
H3742 H 0.57504 0.67725 0.98263 0.0
H3743 H 0.50568 0.67788 0.95093 0.0
C3744 C 0.5376 0.74971 0.90203 0.0
C3745 C 0.5577 0.76585 0.90012 0.0
C3746 C 0.57928 0.76192 0.90984 0.0
C3747 C 0.58071 0.74267 0.92236 0.0
C3748 C 0.5604 0.72742 0.92465 0.0
C3749 C 0.53928 0.73058 0.9143 0.0
C3750 C 0.51982 0.71304 0.9209 0.0
C3751 C 0.50309 0.72482 0.9345 0.0
C3752 C 0.50729 0.6969 0.89779 0.0
C3753 C 0.53306 0.7003 0.93774 0.0
C3754 C 0.55648 0.70845 0.93942 0.0
C3755 C 0.57194 0.70006 0.9552 0.0
C3756 C 0.56318 0.68326 0.96981 0.0
C3757 C 0.53917 0.67535 0.96886 0.0
C3758 C 0.5241 0.68367 0.95215 0.0
H3759 H 0.12977 0.79113 0.70043 0.0
H3760 H 0.09552 0.7541 0.7541 0.0
H3761 H 0.13384 0.75238 0.77584 0.0
H3762 H 0.17497 0.7596 0.69696 0.0
H3763 H 0.19629 0.78437 0.69329 0.0
H3764 H 0.16644 0.78313 0.6828 0.0
H3765 H 0.16825 0.82205 0.70969 0.0
H3766 H 0.19815 0.82342 0.72011 0.0
H3767 H 0.17822 0.82519 0.74219 0.0
H3768 H 0.17794 0.75415 0.79122 0.0
H3769 H 0.22019 0.76076 0.79922 0.0
H3770 H 0.22557 0.79627 0.73502 0.0
C3771 C 0.12999 0.7827 0.71688 0.0
C3772 C 0.10888 0.77278 0.72531 0.0
C3773 C 0.11087 0.76203 0.74703 0.0
C3774 C 0.13278 0.76089 0.75948 0.0
C3775 C 0.153 0.77057 0.75026 0.0
C3776 C 0.15162 0.78143 0.72944 0.0
C3777 C 0.17563 0.79044 0.72286 0.0
C3778 C 0.1785 0.77869 0.69747 0.0
C3779 C 0.18034 0.81685 0.72377 0.0
C3780 C 0.19106 0.78319 0.74324 0.0
C3781 C 0.17769 0.77156 0.7588 0.0
C3782 C 0.18821 0.76307 0.77884 0.0
C3783 C 0.21251 0.76656 0.78306 0.0
C3784 C 0.22678 0.77835 0.76749 0.0
C3785 C 0.21555 0.78695 0.74734 0.0
H3786 H 0.09752 0.40897 0.41134 0.0
H3787 H 0.02589 0.37474 0.39773 0.0
H3788 H 1.01597 0.40591 0.42488 0.0
H3789 H 0.0973 0.42973 0.4756 0.0
H3790 H 0.11633 0.45708 0.47546 0.0
H3791 H 0.11823 0.4324 0.45434 0.0
H3792 H 0.11254 0.45548 0.41765 0.0
H3793 H 0.11069 0.48022 0.43873 0.0
H3794 H 0.08779 0.46861 0.41395 0.0
H3795 H 1.01357 0.43984 0.4555 0.0
H3796 H 1.01868 0.47516 0.48527 0.0
H3797 H 0.09141 0.49022 0.47908 0.0
C3798 C 0.07966 0.40845 0.41346 0.0
C3799 C 0.06234 0.38939 0.40149 0.0
C3800 C 0.03941 0.38907 0.40596 0.0
C3801 C 0.0336 0.40679 0.4216 0.0
C3802 C 0.0509 0.42516 0.43312 0.0
C3803 C 0.07349 0.42629 0.42919 0.0
C3804 C 0.08866 0.44795 0.44447 0.0
C3805 C 0.10618 0.44139 0.46359 0.0
C3806 C 0.10064 0.46402 0.4277 0.0
C3807 C 0.07107 0.45888 0.45717 0.0
C3808 C 0.04942 0.44513 0.45055 0.0
C3809 C 0.03043 0.4508 0.46055 0.0
C3810 C 0.0335 0.47095 0.47754 0.0
C3811 C 0.05533 0.48573 0.48442 0.0
C3812 C 0.07441 0.47954 0.47396 0.0
H3813 H 0.45605 0.23468 0.23821 0.0
H3814 H 0.48084 0.30134 0.21536 0.0
H3815 H 0.44625 0.31442 0.22696 0.0
H3816 H 0.39511 0.23212 0.21555 0.0
H3817 H 0.38382 0.21829 0.24044 0.0
H3818 H 0.41086 0.21378 0.23134 0.0
H3819 H 0.43063 0.22781 0.27594 0.0
H3820 H 0.40359 0.23228 0.2851 0.0
H3821 H 0.4283 0.25569 0.29065 0.0
H3822 H 0.40813 0.32098 0.2406 0.0
H3823 H 0.37025 0.31994 0.25384 0.0
H3824 H 0.36666 0.24977 0.26898 0.0
C3825 C 0.45438 0.25214 0.23593 0.0
C3826 C 0.47212 0.26705 0.22604 0.0
C3827 C 0.46825 0.28949 0.223 0.0
C3828 C 0.44838 0.29714 0.22957 0.0
C3829 C 0.43145 0.28227 0.23913 0.0
C3830 C 0.43406 0.26012 0.24221 0.0
C3831 C 0.41248 0.24764 0.25221 0.0
C3832 C 0.39982 0.2267 0.2338 0.0
C3833 C 0.41915 0.24041 0.27748 0.0
C3834 C 0.39762 0.26619 0.25454 0.0
C3835 C 0.40917 0.28601 0.24684 0.0
C3836 C 0.39933 0.30552 0.24695 0.0
C3837 C 0.37762 0.30501 0.25513 0.0
C3838 C 0.36501 0.28545 0.26379 0.0
C3839 C 0.3754 0.26542 0.26295 0.0
H3840 H 0.62894 0.59105 0.38124 0.0
H3841 H 0.62471 0.51974 0.35161 0.0
H3842 H 0.60635 0.50686 0.38727 0.0
H3843 H 0.64155 0.58301 0.44595 0.0
H3844 H 0.62503 0.60354 0.45662 0.0
H3845 H 0.63808 0.60665 0.42894 0.0
H3846 H 0.59806 0.6068 0.40549 0.0
H3847 H 0.58512 0.60314 0.43321 0.0
H3848 H 0.57459 0.58286 0.40576 0.0
H3849 H 0.5897 0.50159 0.42757 0.0
H3850 H 0.5746 0.50451 0.4677 0.0
H3851 H 0.58635 0.57887 0.47025 0.0
C3852 C 0.62399 0.57274 0.38224 0.0
C3853 C 0.6282 0.55636 0.36347 0.0
C3854 C 0.62164 0.53258 0.36565 0.0
C3855 C 0.61121 0.5251 0.38592 0.0
C3856 C 0.60737 0.54157 0.40419 0.0
C3857 C 0.61346 0.56492 0.40251 0.0
C3858 C 0.60746 0.57898 0.4248 0.0
C3859 C 0.62934 0.59393 0.43997 0.0
C3860 C 0.59027 0.59382 0.41683 0.0
C3861 C 0.59666 0.55997 0.43899 0.0
C3862 C 0.5972 0.53851 0.42698 0.0
C3863 C 0.58924 0.51836 0.43706 0.0
C3864 C 0.58075 0.52015 0.45996 0.0
C3865 C 0.57971 0.54186 0.47255 0.0
C3866 C 0.5874 0.562 0.46152 0.0
H3867 H 0.29725 0.87291 0.04706 0.0
H3868 H 0.31862 0.94552 0.07534 0.0
H3869 H 0.32098 0.93563 0.11795 0.0
H3870 H 0.26705 0.85269 0.10013 0.0
H3871 H 0.27848 0.82672 0.09729 0.0
H3872 H 0.2716 0.84005 0.07031 0.0
H3873 H 0.31315 0.84176 0.05999 0.0
H3874 H 0.32027 0.82885 0.08693 0.0
H3875 H 0.337 0.85633 0.0826 0.0
H3876 H 0.32953 0.91725 0.15595 0.0
H3877 H 0.34356 0.89239 0.18509 0.0
H3878 H 0.31801 0.83234 0.13064 0.0
C3879 C 0.30144 0.88677 0.06227 0.0
C3880 C 0.30763 0.90984 0.05818 0.0
C3881 C 0.31344 0.92768 0.07832 0.0
C3882 C 0.31484 0.92221 0.10251 0.0
C3883 C 0.31005 0.89897 0.1059 0.0
C3884 C 0.3032 0.88158 0.08621 0.0
C3885 C 0.30312 0.85804 0.0938 0.0
C3886 C 0.27859 0.84352 0.09018 0.0
C3887 C 0.31935 0.84555 0.08003 0.0
C3888 C 0.31218 0.86481 0.12063 0.0
C3889 C 0.31557 0.8884 0.12757 0.0
C3890 C 0.32642 0.89874 0.15088 0.0
C3891 C 0.33442 0.88461 0.1672 0.0
C3892 C 0.33191 0.86071 0.15966 0.0
C3893 C 0.32003 0.85066 0.13656 0.0
H3894 H 0.93088 0.5025 0.88883 0.0
H3895 H 0.9301 0.57537 0.89173 0.0
H3896 H 0.96267 0.58442 0.92522 0.0
H3897 H 0.94665 0.5034 0.95654 0.0
H3898 H 0.96349 0.48174 0.95054 0.0
H3899 H 0.93866 0.48244 0.92929 0.0
H3900 H 0.96569 0.48393 0.89503 0.0
H3901 H 0.99039 0.48521 0.91734 0.0
H3902 H 0.99003 0.50758 0.89777 0.0
H3903 H 0.99562 0.58571 0.95567 0.0
H3904 H 0.02475 0.57886 0.98771 0.0
H3905 H 1.00493 0.50508 0.96438 0.0
C3906 C 0.93693 0.52016 0.89752 0.0
C3907 C 0.9278 0.53828 0.88893 0.0
C3908 C 0.93653 0.56139 0.89931 0.0
C3909 C 0.95519 0.56666 0.91783 0.0
C3910 C 0.96445 0.54848 0.92543 0.0
C3911 C 0.95537 0.52567 0.91613 0.0
C3912 C 0.96868 0.5095 0.92757 0.0
C3913 C 0.95344 0.49334 0.94187 0.0
C3914 C 0.97933 0.49576 0.90826 0.0
C3915 C 0.98677 0.52689 0.94462 0.0
C3916 C 0.98405 0.54926 0.94286 0.0
C3917 C 0.99791 0.56833 0.95746 0.0
C3918 C 1.01426 0.56431 0.97547 0.0
C3919 C 1.01633 0.54149 0.97831 0.0
C3920 C 1.00334 0.52261 0.96217 0.0
H3921 H 0.26917 0.19702 0.60751 0.0
H3922 H 0.30781 0.25636 0.58064 0.0
H3923 H 0.31527 0.27762 0.62258 0.0
H3924 H 0.2424 0.22858 0.64997 0.0
H3925 H 0.24395 0.21046 0.67401 0.0
H3926 H 0.24296 0.19846 0.64237 0.0
H3927 H 0.28068 0.18426 0.65326 0.0
H3928 H 0.28149 0.19587 0.68501 0.0
H3929 H 0.30571 0.20452 0.66891 0.0
H3930 H 0.31439 0.29464 0.66586 0.0
H3931 H 0.31046 0.30423 0.70981 0.0
H3932 H 0.27503 0.23386 0.71125 0.0
C3933 C 0.27987 0.21417 0.6107 0.0
C3934 C 0.28828 0.22491 0.59071 0.0
C3935 C 0.3015 0.24768 0.5956 0.0
C3936 C 0.3057 0.25998 0.61939 0.0
C3937 C 0.29664 0.24938 0.63851 0.0
C3938 C 0.2844 0.22682 0.63469 0.0
C3939 C 0.27619 0.22003 0.65871 0.0
C3940 C 0.24981 0.21402 0.65609 0.0
C3941 C 0.28665 0.19997 0.66696 0.0
C3942 C 0.28564 0.24226 0.67633 0.0
C3943 C 0.29705 0.25904 0.66407 0.0
C3944 C 0.3059 0.28149 0.67576 0.0
C3945 C 0.30347 0.28686 0.70071 0.0
C3946 C 0.29276 0.26979 0.71403 0.0
C3947 C 0.28369 0.24717 0.70161 0.0
H3948 H 0.60511 0.58903 0.22396 0.0
H3949 H 0.63409 0.52763 0.22668 0.0
H3950 H 0.62227 0.51701 0.18186 0.0
H3951 H 0.55618 0.56514 0.17935 0.0
H3952 H 0.55774 0.59023 0.16345 0.0
H3953 H 0.56878 0.5934 0.19566 0.0
H3954 H 0.60854 0.61441 0.18674 0.0
H3955 H 0.59735 0.61159 0.15463 0.0
H3956 H 0.62269 0.60074 0.1638 0.0
H3957 H 0.60616 0.51225 0.13704 0.0
H3958 H 0.5892 0.51476 0.09509 0.0
H3959 H 0.57055 0.57913 0.11968 0.0
C3960 C 0.60897 0.57332 0.21517 0.0
C3961 C 0.62042 0.55907 0.22918 0.0
C3962 C 0.62538 0.53887 0.21664 0.0
C3963 C 0.61865 0.53265 0.1911 0.0
C3964 C 0.60719 0.54692 0.17803 0.0
C3965 C 0.60262 0.56698 0.18954 0.0
C3966 C 0.59053 0.57947 0.17093 0.0
C3967 C 0.56689 0.58222 0.17776 0.0
C3968 C 0.60568 0.60295 0.16891 0.0
C3969 C 0.58825 0.56292 0.14725 0.0
C3970 C 0.59821 0.54439 0.15193 0.0
C3971 C 0.59853 0.52682 0.1333 0.0
C3972 C 0.58885 0.52837 0.10935 0.0
C3973 C 0.57872 0.54711 0.10353 0.0
C3974 C 0.57817 0.56457 0.12309 0.0
H3975 H 0.28525 0.91202 0.91605 0.0
H3976 H 0.35595 0.91944 0.94832 0.0
H3977 H 0.36183 0.89028 0.91562 0.0
H3978 H 0.274 0.85405 0.90342 0.0
H3979 H 0.25588 0.85141 0.87449 0.0
H3980 H 0.25809 0.87613 0.89711 0.0
H3981 H 0.27095 0.90367 0.86541 0.0
H3982 H 0.26819 0.87897 0.84247 0.0
H3983 H 0.29494 0.89971 0.84941 0.0
H3984 H 0.3577 0.85566 0.88536 0.0
H3985 H 0.34545 0.82116 0.85396 0.0
H3986 H 0.27785 0.83739 0.84063 0.0
C3987 C 0.30225 0.90836 0.91526 0.0
C3988 C 0.32036 0.91799 0.93401 0.0
C3989 C 0.34212 0.91224 0.93364 0.0
C3990 C 0.34556 0.89576 0.91523 0.0
C3991 C 0.32702 0.88557 0.89753 0.0
C3992 C 0.30592 0.89199 0.89699 0.0
C3993 C 0.28821 0.87674 0.87753 0.0
C3994 C 0.26786 0.86384 0.88884 0.0
C3995 C 0.2801 0.8906 0.85752 0.0
C3996 C 0.30249 0.86042 0.86782 0.0
C3997 C 0.32478 0.86569 0.87964 0.0
C3998 C 0.34052 0.85168 0.87541 0.0
C3999 C 0.3334 0.83211 0.8579 0.0
C4000 C 0.31101 0.82736 0.84485 0.0
C4001 C 0.29527 0.84131 0.85009 0.0
H4002 H 0.94984 0.49842 0.76734 0.0
H4003 H 0.92217 0.55882 0.75383 0.0
H4004 H 0.93479 0.55642 0.71198 0.0
H4005 H 0.9999 0.51407 0.74349 0.0
H4006 H 1.00103 0.48505 0.73116 0.0
H4007 H 0.98674 0.4899 0.7577 0.0
H4008 H 0.94877 0.46314 0.73558 0.0
H4009 H 0.96318 0.45739 0.70928 0.0
H4010 H 0.93706 0.46827 0.70562 0.0
H4011 H 0.95178 0.54558 0.67109 0.0
H4012 H 0.96988 0.52813 0.63741 0.0
H4013 H 0.99143 0.48063 0.68531 0.0
C4014 C 0.94642 0.51127 0.75568 0.0
C4015 C 0.93575 0.52913 0.76371 0.0
C4016 C 0.9307 0.54513 0.74775 0.0
C4017 C 0.93781 0.54389 0.72416 0.0
C4018 C 0.94961 0.52651 0.71739 0.0
C4019 C 0.9536 0.51051 0.73288 0.0
C4020 C 0.96745 0.49417 0.72287 0.0
C4021 C 0.99012 0.49593 0.7398 0.0
C4022 C 0.95327 0.46928 0.71806 0.0
C4023 C 0.97139 0.5036 0.69936 0.0
C4024 C 0.96056 0.52179 0.69581 0.0
C4025 C 0.96046 0.53149 0.6739 0.0
C4026 C 0.97097 0.5216 0.655 0.0
C4027 C 0.98175 0.50265 0.65866 0.0
C4028 C 0.98278 0.49454 0.68155 0.0
H4029 H 0.28045 0.18655 0.4299 0.0
H4030 H 0.28673 0.2479 0.48267 0.0
H4031 H 0.29307 0.27217 0.44996 0.0
H4032 H 0.32282 0.20943 0.3922 0.0
H4033 H 0.30648 0.19668 0.36288 0.0
H4034 H 0.30177 0.18295 0.39 0.0
H4035 H 0.25859 0.1839 0.3822 0.0
H4036 H 0.26321 0.1977 0.35506 0.0
H4037 H 0.25003 0.21101 0.37909 0.0
H4038 H 0.29464 0.29014 0.41215 0.0
H4039 H 0.2957 0.30164 0.37145 0.0
H4040 H 0.29573 0.23159 0.34057 0.0
C4041 C 0.28304 0.20509 0.43448 0.0
C4042 C 0.28285 0.21513 0.45925 0.0
C4043 C 0.28641 0.23951 0.46416 0.0
C4044 C 0.29013 0.2536 0.44558 0.0
C4045 C 0.29012 0.24336 0.42164 0.0
C4046 C 0.28666 0.21972 0.41577 0.0
C4047 C 0.28718 0.21383 0.38797 0.0
C4048 C 0.30568 0.19989 0.38298 0.0
C4049 C 0.26335 0.20082 0.37533 0.0
C4050 C 0.29289 0.23788 0.37975 0.0
C4051 C 0.29357 0.25438 0.39959 0.0
C4052 C 0.29541 0.27751 0.39676 0.0
C4053 C 0.29694 0.28416 0.37331 0.0
C4054 C 0.29856 0.26845 0.35258 0.0
C4055 C 0.296 0.24459 0.35599 0.0
H4056 H 0.34034 0.62788 0.53932 0.0
H4057 H 0.3405 0.60305 0.6104 0.0
H4058 H 0.37345 0.58456 0.60201 0.0
H4059 H 0.34821 0.57675 0.50819 0.0
H4060 H 0.36477 0.59067 0.48659 0.0
H4061 H 0.34392 0.60432 0.50008 0.0
H4062 H 0.37555 0.64088 0.51568 0.0
H4063 H 0.39664 0.62719 0.50253 0.0
H4064 H 0.40121 0.63842 0.53479 0.0
H4065 H 0.40361 0.56655 0.58375 0.0
H4066 H 0.42568 0.54682 0.55595 0.0
H4067 H 0.40429 0.58435 0.49724 0.0
C4068 C 0.34776 0.61903 0.55339 0.0
C4069 C 0.33877 0.61711 0.57569 0.0
C4070 C 0.34781 0.60473 0.59339 0.0
C4071 C 0.36643 0.59445 0.58881 0.0
C4072 C 0.37507 0.59676 0.56645 0.0
C4073 C 0.36574 0.60852 0.54894 0.0
C4074 C 0.37562 0.60609 0.52512 0.0
C4075 C 0.35702 0.59372 0.50377 0.0
C4076 C 0.38801 0.62955 0.51921 0.0
C4077 C 0.39216 0.59108 0.53185 0.0
C4078 C 0.39183 0.58598 0.55575 0.0
C4079 C 0.40422 0.57059 0.56512 0.0
C4080 C 0.41662 0.55952 0.54925 0.0
C4081 C 0.41617 0.56395 0.52445 0.0
C4082 C 0.40453 0.58049 0.51603 0.0
H4083 H 0.90089 0.94187 0.57431 0.0
H4084 H 0.87959 0.92247 0.49596 0.0
H4085 H 0.91249 0.95057 0.48715 0.0
H4086 H 0.92356 1.00479 0.56952 0.0
H4087 H 0.94714 1.00726 0.5936 0.0
H4088 H 0.92043 0.98744 0.59429 0.0
H4089 H 0.94231 0.954 0.59672 0.0
H4090 H 0.96899 0.97368 0.59591 0.0
H4091 H 0.9602 0.94826 0.57343 0.0
H4092 H 0.9477 0.97976 0.4862 0.0
H4093 H 0.98504 1.00719 0.49341 0.0
H4094 H 0.98658 1.00649 0.57211 0.0
C4095 C 0.90304 0.94392 0.55537 0.0
C4096 C 0.8877 0.92989 0.53571 0.0
C4097 C 0.89115 0.93285 0.5112 0.0
C4098 C 0.90975 0.94891 0.50602 0.0
C4099 C 0.92486 0.96212 0.5256 0.0
C4100 C 0.92178 0.96 0.54983 0.0
C4101 C 0.94142 0.97581 0.5672 0.0
C4102 C 0.9326 0.99495 0.58204 0.0
C4103 C 0.95397 0.9621 0.58431 0.0
C4104 C 0.95653 0.98587 0.54889 0.0
C4105 C 0.94612 0.97832 0.52502 0.0
C4106 C 0.95605 0.98579 0.5048 0.0
C4107 C 0.97722 1.00137 0.50903 0.0
C4108 C 0.98872 1.00861 0.53319 0.0
C4109 C 0.97822 1.00086 0.55342 0.0
H4110 H 0.91689 0.09067 0.24836 0.0
H4111 H 0.91023 0.06194 0.31686 0.0
H4112 H 0.88745 0.09049 0.32984 0.0
H4113 H 0.92403 0.14983 0.27402 0.0
H4114 H 0.90765 0.15799 0.24818 0.0
H4115 H 0.92231 0.13443 0.24363 0.0
H4116 H 0.88382 0.10774 0.22353 0.0
H4117 H 0.86903 0.13122 0.22849 0.0
H4118 H 0.85949 0.1045 0.24042 0.0
H4119 H 0.86659 0.12175 0.33605 0.0
H4120 H 0.85247 0.1582 0.33759 0.0
H4121 H 0.8728 0.16806 0.26577 0.0
C4122 C 0.91061 0.09059 0.26605 0.0
C4123 C 0.91518 0.07438 0.28178 0.0
C4124 C 0.90681 0.07444 0.30476 0.0
C4125 C 0.89375 0.0904 0.31216 0.0
C4126 C 0.8892 0.10605 0.29625 0.0
C4127 C 0.89754 0.10657 0.27382 0.0
C4128 C 0.89105 0.12617 0.26102 0.0
C4129 C 0.91254 0.14311 0.25646 0.0
C4130 C 0.87489 0.11685 0.23693 0.0
C4131 C 0.87853 0.13696 0.28018 0.0
C4132 C 0.87721 0.12464 0.30004 0.0
C4133 C 0.8673 0.1315 0.32057 0.0
C4134 C 0.85928 0.15206 0.32127 0.0
C4135 C 0.86146 0.16546 0.30171 0.0
C4136 C 0.87065 0.15767 0.28065 0.0
H4137 H 0.69895 0.13011 0.02633 0.0
H4138 H 0.73655 0.08657 0.06596 0.0
H4139 H 0.70068 0.05769 0.06398 0.0
H4140 H 0.65213 0.12176 0.05762 0.0
H4141 H 0.63139 0.12212 0.03143 0.0
H4142 H 0.66048 0.13751 0.03277 0.0
H4143 H 0.66364 0.11476 0.99064 0.0
H4144 H 0.63443 0.09943 0.98928 0.0
H4145 H 0.65714 0.08364 0.98679 0.0
H4146 H 0.66068 0.0357 0.06109 0.0
H4147 H 0.61876 0.02246 0.0584 0.0
H4148 H 0.60861 0.08221 0.02311 0.0
C4149 C 0.69979 0.11431 0.03417 0.0
C4150 C 0.72039 0.11042 0.04612 0.0
C4151 C 0.72085 0.08966 0.0564 0.0
C4152 C 0.70065 0.0732 0.05537 0.0
C4153 C 0.68051 0.07784 0.04381 0.0
C4154 C 0.67996 0.09787 0.03338 0.0
C4155 C 0.65594 0.09989 0.02418 0.0
C4156 C 0.64963 0.12159 0.0373 0.0
C4157 C 0.6526 0.09939 0.99605 0.0
C4158 C 0.64301 0.07813 0.03171 0.0
C4159 C 0.65741 0.0654 0.04259 0.0
C4160 C 0.64918 0.04522 0.05217 0.0
C4161 C 0.62543 0.0379 0.05059 0.0
C4162 C 0.61059 0.05117 0.04002 0.0
C4163 C 0.61952 0.07134 0.0304 0.0
H4164 H 0.20858 0.48605 0.23584 0.0
H4165 H 0.26848 0.54049 0.26084 0.0
H4166 H 0.2907 0.51169 0.27217 0.0
H4167 H 0.21096 0.4583 0.28169 0.0
H4168 H 0.20299 0.42895 0.2667 0.0
H4169 H 0.194 0.45159 0.2517 0.0
H4170 H 0.21338 0.44031 0.21366 0.0
H4171 H 0.22209 0.41709 0.22833 0.0
H4172 H 0.24319 0.43824 0.21758 0.0
H4173 H 0.30205 0.48079 0.29224 0.0
H4174 H 0.30353 0.44771 0.31545 0.0
H4175 H 0.23642 0.41296 0.2783 0.0
C4176 C 0.22676 0.49167 0.24225 0.0
C4177 C 0.23697 0.51526 0.2474 0.0
C4178 C 0.26056 0.52236 0.25637 0.0
C4179 C 0.2733 0.50611 0.2629 0.0
C4180 C 0.26221 0.48302 0.25968 0.0
C4181 C 0.23962 0.47564 0.24889 0.0
C4182 C 0.23055 0.45064 0.25141 0.0
C4183 C 0.20834 0.44723 0.26361 0.0
C4184 C 0.22711 0.43567 0.22625 0.0
C4185 C 0.25049 0.44613 0.26796 0.0
C4186 C 0.26889 0.46471 0.27174 0.0
C4187 C 0.28813 0.46583 0.28881 0.0
C4188 C 0.28863 0.44734 0.30221 0.0
C4189 C 0.26979 0.42853 0.29872 0.0
C4190 C 0.25074 0.42758 0.28121 0.0
H4191 H 0.26248 0.43051 0.0098 0.0
H4192 H 0.26007 0.4193 0.0859 0.0
H4193 H 0.22711 0.43905 0.08739 0.0
H4194 H 0.2479 0.4874 0.01634 0.0
H4195 H 0.23091 0.48273 0.98649 0.0
H4196 H 0.25472 0.46851 0.99163 0.0
H4197 H 0.22772 0.42869 0.9769 0.0
H4198 H 0.204 0.44288 0.97139 0.0
H4199 H 0.20222 0.42062 0.99126 0.0
H4200 H 0.19431 0.4596 0.08018 0.0
H4201 H 0.16143 0.47573 0.06351 0.0
H4202 H 0.18556 0.4731 0.99212 0.0
C4203 C 0.25481 0.43213 0.02666 0.0
C4204 C 0.26328 0.42327 0.04768 0.0
C4205 C 0.25335 0.42584 0.06962 0.0
C4206 C 0.23487 0.43715 0.07065 0.0
C4207 C 0.22688 0.44589 0.04962 0.0
C4208 C 0.23644 0.44339 0.02798 0.0
C4209 C 0.22428 0.45372 0.00779 0.0
C4210 C 0.24042 0.47431 1.00012 0.0
C4211 C 0.21394 0.43537 0.98553 0.0
C4212 C 0.20585 0.46164 0.02116 0.0
C4213 C 0.20793 0.45749 0.04542 0.0
C4214 C 0.19253 0.46298 0.06124 0.0
C4215 C 0.17404 0.47222 0.05171 0.0
C4216 C 0.17107 0.4754 0.02659 0.0
C4217 C 0.1875 0.47066 0.01138 0.0
H4218 H 0.90033 0.94033 0.24353 0.0
H4219 H 0.92247 0.96099 0.32159 0.0
H4220 H 0.89381 0.92868 0.3311 0.0
H4221 H 0.83828 0.91953 0.24953 0.0
H4222 H 0.83468 0.89563 0.22545 0.0
H4223 H 0.85516 0.92187 0.22441 0.0
H4224 H 0.88731 0.89845 0.22148 0.0
H4225 H 0.86693 0.87223 0.22256 0.0
H4226 H 0.89253 0.88021 0.2447 0.0
H4227 H 0.86296 0.89449 0.33258 0.0
H4228 H 0.83424 0.85787 0.32568 0.0
H4229 H 0.83435 0.85582 0.2469 0.0
C4230 C 0.89884 0.93812 0.26257 0.0
C4231 C 0.91365 0.95312 0.28192 0.0
C4232 C 0.91142 0.94962 0.30658 0.0
C4233 C 0.89507 0.9314 0.31216 0.0
C4234 C 0.881 0.91665 0.29283 0.0
C4235 C 0.88267 0.91965 0.26849 0.0
C4236 C 0.86617 0.90033 0.25137 0.0
C4237 C 0.84747 0.90992 0.23682 0.0
C4238 C 0.87902 0.88701 0.23401 0.0
C4239 C 0.85597 0.88552 0.26988 0.0
C4240 C 0.86417 0.8958 0.29368 0.0
C4241 C 0.85654 0.88619 0.31403 0.0
C4242 C 0.84025 0.8654 0.30998 0.0
C4243 C 0.8325 0.8539 0.28589 0.0
C4244 C 0.84035 0.86415 0.26555 0.0
H4245 H 0.71294 0.14539 0.80861 0.0
H4246 H 0.73042 0.11054 0.74197 0.0
H4247 H 0.75868 0.14492 0.73775 0.0
H4248 H 0.7155 0.19961 0.7886 0.0
H4249 H 0.72869 0.21622 0.81766 0.0
H4250 H 0.71115 0.18801 0.81704 0.0
H4251 H 0.74504 0.17549 0.84203 0.0
H4252 H 0.76259 0.20376 0.8424 0.0
H4253 H 0.77239 0.17844 0.83055 0.0
H4254 H 0.78355 0.18214 0.73921 0.0
H4255 H 0.80193 0.22313 0.74464 0.0
H4256 H 0.76788 0.23468 0.80873 0.0
C4257 C 0.7228 0.14517 0.79326 0.0
C4258 C 0.7198 0.12551 0.77579 0.0
C4259 C 0.73284 0.12551 0.75579 0.0
C4260 C 0.74899 0.14482 0.75323 0.0
C4261 C 0.75193 0.16383 0.77091 0.0
C4262 C 0.73926 0.16437 0.79049 0.0
C4263 C 0.74517 0.18772 0.80592 0.0
C4264 C 0.72386 0.19853 0.80735 0.0
C4265 C 0.757 0.18625 0.83176 0.0
C4266 C 0.76193 0.2003 0.79091 0.0
C4267 C 0.76611 0.18597 0.77134 0.0
C4268 C 0.78064 0.19364 0.7546 0.0
C4269 C 0.79095 0.21694 0.75781 0.0
C4270 C 0.78603 0.23212 0.77715 0.0
C4271 C 0.77175 0.22357 0.79399 0.0
loop_
_geom_bond_atom_site_label_1
_geom_bond_atom_site_label_2
_geom_bond_distance
_geom_bond_site_symmetry_2
_ccdc_geom_bond_type
Co0 O1 2.216 . S
Co0 O2 2.091 . S
Co0 O4 2.004 . S
Co0 O10 2.021 . S
Co0 O12 2.137 . S
Co0 O13 2.244 . S
O1 Co0 2.216 . S
O1 C8 1.247 . S
O2 Co0 2.091 . S
O2 C8 1.261 . S
C3 O12 1.247 . S
C3 O13 1.272 . S
O4 Co0 2.004 . S
O4 C9 1.259 1_455 S
Co5 O6 2.061 1_455 S
Co5 O11 2.052 . S
Co5 O13 2.135 . S
O6 Co5 2.061 1_655 S
O6 C9 1.235 . S
C7 O10 1.238 . S
C7 O11 1.241 . S
C8 O1 1.247 . S
C8 O2 1.261 . S
C9 O4 1.259 1_655 S
C9 O6 1.235 . S
O10 Co0 2.021 . S
O10 C7 1.238 . S
O11 Co5 2.052 . S
O11 C7 1.241 . S
O12 Co0 2.137 . S
O12 C3 1.247 . S
O13 Co0 2.244 . S
O13 C3 1.272 . S
O13 Co5 2.135 . S
Co14 O15 2.216 1_455 S
Co14 O16 2.091 1_455 S
Co14 O18 2.004 . S
Co14 O24 2.021 . S
Co14 O26 2.137 . S
Co14 O27 2.244 . S
O15 Co14 2.216 1_655 S
O15 C22 1.247 . S
O16 Co14 2.091 1_655 S
O16 C22 1.261 . S
C17 O26 1.247 . S
C17 O27 1.272 . S
O18 Co14 2.004 . S
O18 C23 1.259 . S
Co19 O20 2.061 . S
Co19 O25 2.052 . S
Co19 O27 2.135 . S
O20 Co19 2.061 . S
O20 C23 1.235 . S
C21 O24 1.238 . S
C21 O25 1.241 . S
C22 O15 1.247 . S
C22 O16 1.261 . S
C23 O18 1.259 . S
C23 O20 1.235 . S
O24 Co14 2.021 . S
O24 C21 1.238 . S
O25 Co19 2.052 . S
O25 C21 1.241 . S
O26 Co14 2.137 . S
O26 C17 1.247 . S
O27 Co14 2.244 . S
O27 C17 1.272 . S
O27 Co19 2.135 . S
Co28 O29 2.216 . S
Co28 O30 2.091 . S
Co28 O32 2.004 . S
Co28 O38 2.021 . S
Co28 O40 2.137 . S
Co28 O41 2.244 . S
O29 Co28 2.216 . S
O29 C36 1.247 . S
O30 Co28 2.091 . S
O30 C36 1.261 . S
C31 O40 1.247 . S
C31 O41 1.272 . S
O32 Co28 2.004 . S
O32 C37 1.259 . S
Co33 O34 2.061 . S
Co33 O39 2.052 . S
Co33 O41 2.135 . S
O34 Co33 2.061 . S
O34 C37 1.235 . S
C35 O38 1.238 . S
C35 O39 1.241 . S
C36 O29 1.247 . S
C36 O30 1.261 . S
C37 O32 1.259 . S
C37 O34 1.235 . S
O38 Co28 2.021 . S
O38 C35 1.238 . S
O39 Co33 2.052 . S
O39 C35 1.241 . S
O40 Co28 2.137 . S
O40 C31 1.247 . S
O41 Co28 2.244 . S
O41 C31 1.272 . S
O41 Co33 2.135 . S
Co42 O43 2.216 . S
Co42 O44 2.091 . S
Co42 O46 2.004 . S
Co42 O52 2.021 . S
Co42 O54 2.137 . S
Co42 O55 2.244 . S
O43 Co42 2.216 . S
O43 C50 1.247 . S
O44 Co42 2.091 . S
O44 C50 1.261 . S
C45 O54 1.247 . S
C45 O55 1.272 . S
O46 Co42 2.004 . S
O46 C51 1.259 . S
Co47 O48 2.061 . S
Co47 O53 2.052 . S
Co47 O55 2.135 . S
O48 Co47 2.061 . S
O48 C51 1.235 . S
C49 O52 1.238 . S
C49 O53 1.241 . S
C50 O43 1.247 . S
C50 O44 1.261 . S
C51 O46 1.259 . S
C51 O48 1.235 . S
O52 Co42 2.021 . S
O52 C49 1.238 . S
O53 Co47 2.052 . S
O53 C49 1.241 . S
O54 Co42 2.137 . S
O54 C45 1.247 . S
O55 Co42 2.244 . S
O55 C45 1.272 . S
O55 Co47 2.135 . S
Co56 O57 2.216 . S
Co56 O58 2.091 . S
Co56 O60 2.004 . S
Co56 O66 2.021 . S
Co56 O68 2.137 . S
Co56 O69 2.244 . S
O57 Co56 2.216 . S
O57 C64 1.247 . S
O58 Co56 2.091 . S
O58 C64 1.261 . S
C59 O68 1.247 . S
C59 O69 1.272 . S
O60 Co56 2.004 . S
O60 C65 1.259 . S
Co61 O62 2.061 . S
Co61 O67 2.052 . S
Co61 O69 2.135 . S
O62 Co61 2.061 . S
O62 C65 1.235 . S
C63 O66 1.238 . S
C63 O67 1.241 . S
C64 O57 1.247 . S
C64 O58 1.261 . S
C65 O60 1.259 . S
C65 O62 1.235 . S
O66 Co56 2.021 . S
O66 C63 1.238 . S
O67 Co61 2.052 . S
O67 C63 1.241 . S
O68 Co56 2.137 . S
O68 C59 1.247 . S
O69 Co56 2.244 . S
O69 C59 1.272 . S
O69 Co61 2.135 . S
Co70 O71 2.216 . S
Co70 O72 2.091 . S
Co70 O74 2.004 . S
Co70 O80 2.021 . S
Co70 O82 2.137 . S
Co70 O83 2.244 . S
O71 Co70 2.216 . S
O71 C78 1.247 . S
O72 Co70 2.091 . S
O72 C78 1.261 . S
C73 O82 1.247 . S
C73 O83 1.272 . S
O74 Co70 2.004 . S
O74 C79 1.259 . S
Co75 O76 2.061 . S
Co75 O81 2.052 . S
Co75 O83 2.135 . S
O76 Co75 2.061 . S
O76 C79 1.235 . S
C77 O80 1.238 . S
C77 O81 1.241 . S
C78 O71 1.247 . S
C78 O72 1.261 . S
C79 O74 1.259 . S
C79 O76 1.235 . S
O80 Co70 2.021 . S
O80 C77 1.238 . S
O81 Co75 2.052 . S
O81 C77 1.241 . S
O82 Co70 2.137 . S
O82 C73 1.247 . S
O83 Co70 2.244 . S
O83 C73 1.272 . S
O83 Co75 2.135 . S
Co84 O85 2.216 . S
Co84 O86 2.091 . S
Co84 O88 2.004 . S
Co84 O94 2.021 . S
Co84 O96 2.137 . S
Co84 O97 2.244 . S
O85 Co84 2.216 . S
O85 C92 1.247 . S
O86 Co84 2.091 . S
O86 C92 1.261 . S
C87 O96 1.247 . S
C87 O97 1.272 . S
O88 Co84 2.004 . S
O88 C93 1.259 . S
Co89 O90 2.061 . S
Co89 O95 2.052 . S
Co89 O97 2.135 . S
O90 Co89 2.061 . S
O90 C93 1.235 . S
C91 O94 1.238 . S
C91 O95 1.241 . S
C92 O85 1.247 . S
C92 O86 1.261 . S
C93 O88 1.259 . S
C93 O90 1.235 . S
O94 Co84 2.021 . S
O94 C91 1.238 . S
O95 Co89 2.052 . S
O95 C91 1.241 . S
O96 Co84 2.137 . S
O96 C87 1.247 . S
O97 Co84 2.244 . S
O97 C87 1.272 . S
O97 Co89 2.135 . S
Co98 O99 2.216 . S
Co98 O100 2.091 . S
Co98 O102 2.004 1_455 S
Co98 O108 2.021 1_455 S
Co98 O110 2.137 . S
Co98 O111 2.244 1_455 S
O99 Co98 2.216 . S
O99 C106 1.247 . S
O100 Co98 2.091 . S
O100 C106 1.261 . S
C101 O110 1.247 . S
C101 O111 1.272 1_455 S
O102 Co98 2.004 1_655 S
O102 C107 1.259 . S
Co103 O104 2.061 . S
Co103 O109 2.052 . S
Co103 O111 2.135 . S
O104 Co103 2.061 . S
O104 C107 1.235 . S
C105 O108 1.239 . S
C105 O109 1.241 . S
C106 O99 1.247 . S
C106 O100 1.261 . S
C107 O102 1.259 . S
C107 O104 1.235 . S
O108 Co98 2.021 1_655 S
O108 C105 1.239 . S
O109 Co103 2.052 . S
O109 C105 1.241 . S
O110 Co98 2.137 . S
O110 C101 1.247 . S
O111 Co98 2.244 1_655 S
O111 C101 1.272 1_655 S
O111 Co103 2.135 . S
Co112 O113 2.216 . S
Co112 O114 2.091 . S
Co112 O116 2.004 1_545 S
Co112 O122 2.021 . S
Co112 O124 2.137 . S
Co112 O125 2.244 . S
O113 Co112 2.216 . S
O113 C120 1.247 . S
O114 Co112 2.091 . S
O114 C120 1.261 . S
C115 O124 1.247 . S
C115 O125 1.272 . S
O116 Co112 2.004 1_565 S
O116 C121 1.259 . S
Co117 O118 2.061 . S
Co117 O123 2.052 . S
Co117 O125 2.135 1_565 S
O118 Co117 2.061 . S
O118 C121 1.235 . S
C119 O122 1.238 . S
C119 O123 1.241 1_545 S
C120 O113 1.247 . S
C120 O114 1.261 . S
C121 O116 1.259 . S
C121 O118 1.235 . S
O122 Co112 2.021 . S
O122 C119 1.238 . S
O123 Co117 2.052 . S
O123 C119 1.241 1_565 S
O124 Co112 2.137 . S
O124 C115 1.247 . S
O125 Co112 2.244 . S
O125 C115 1.272 . S
O125 Co117 2.135 1_545 S
Co126 O127 2.216 . S
Co126 O128 2.091 . S
Co126 O130 2.004 . S
Co126 O136 2.021 . S
Co126 O138 2.137 . S
Co126 O139 2.244 . S
O127 Co126 2.216 . S
O127 C134 1.247 . S
O128 Co126 2.091 . S
O128 C134 1.261 . S
C129 O138 1.247 . S
C129 O139 1.272 . S
O130 Co126 2.004 . S
O130 C135 1.259 . S
Co131 O132 2.061 . S
Co131 O137 2.052 . S
Co131 O139 2.135 . S
O132 Co131 2.061 . S
O132 C135 1.235 . S
C133 O136 1.238 . S
C133 O137 1.241 . S
C134 O127 1.247 . S
C134 O128 1.261 . S
C135 O130 1.259 . S
C135 O132 1.235 . S
O136 Co126 2.021 . S
O136 C133 1.238 . S
O137 Co131 2.052 . S
O137 C133 1.241 . S
O138 Co126 2.137 . S
O138 C129 1.247 . S
O139 Co126 2.244 . S
O139 C129 1.272 . S
O139 Co131 2.135 . S
Co140 O141 2.216 . S
Co140 O142 2.091 . S
Co140 O144 2.004 . S
Co140 O150 2.021 . S
Co140 O152 2.137 . S
Co140 O153 2.244 . S
O141 Co140 2.216 . S
O141 C148 1.247 . S
O142 Co140 2.091 . S
O142 C148 1.261 . S
C143 O152 1.247 . S
C143 O153 1.272 . S
O144 Co140 2.004 . S
O144 C149 1.259 . S
Co145 O146 2.061 . S
Co145 O151 2.052 . S
Co145 O153 2.135 . S
O146 Co145 2.061 . S
O146 C149 1.235 . S
C147 O150 1.238 . S
C147 O151 1.241 . S
C148 O141 1.247 . S
C148 O142 1.261 . S
C149 O144 1.259 . S
C149 O146 1.235 . S
O150 Co140 2.021 . S
O150 C147 1.238 . S
O151 Co145 2.052 . S
O151 C147 1.241 . S
O152 Co140 2.137 . S
O152 C143 1.247 . S
O153 Co140 2.244 . S
O153 C143 1.272 . S
O153 Co145 2.135 . S
Co154 O155 2.216 . S
Co154 O156 2.091 1_556 S
Co154 O158 2.002 . S
Co154 O164 2.021 1_556 S
Co154 O166 2.137 . S
Co154 O167 2.244 . S
O155 Co154 2.216 . S
O155 C162 1.247 . S
O156 Co154 2.091 1_554 S
O156 C162 1.261 1_554 S
C157 O166 1.247 . S
C157 O167 1.272 . S
O158 Co154 2.002 . S
O158 C163 1.256 1_556 S
Co159 O160 2.061 1_556 S
Co159 O165 2.052 1_556 S
Co159 O167 2.135 . S
O160 Co159 2.061 1_554 S
O160 C163 1.235 . S
C161 O164 1.238 . S
C161 O165 1.241 . S
C162 O155 1.247 . S
C162 O156 1.261 1_556 S
C163 O158 1.256 1_554 S
C163 O160 1.235 . S
O164 Co154 2.021 1_554 S
O164 C161 1.238 . S
O165 Co159 2.052 1_554 S
O165 C161 1.241 . S
O166 Co154 2.137 . S
O166 C157 1.247 . S
O167 Co154 2.244 . S
O167 C157 1.272 . S
O167 Co159 2.135 . S
Co168 O169 2.216 . S
Co168 O170 2.091 . S
Co168 O172 2.004 . S
Co168 O178 2.021 . S
Co168 O180 2.137 . S
Co168 O181 2.244 . S
O169 Co168 2.216 . S
O169 C176 1.247 . S
O170 Co168 2.091 . S
O170 C176 1.261 . S
C171 O180 1.247 . S
C171 O181 1.272 . S
O172 Co168 2.004 . S
O172 C177 1.259 . S
Co173 O174 2.061 . S
Co173 O179 2.052 . S
Co173 O181 2.135 . S
O174 Co173 2.061 . S
O174 C177 1.235 . S
C175 O178 1.238 . S
C175 O179 1.241 . S
C176 O169 1.247 . S
C176 O170 1.261 . S
C177 O172 1.259 . S
C177 O174 1.235 . S
O178 Co168 2.021 . S
O178 C175 1.238 . S
O179 Co173 2.052 . S
O179 C175 1.241 . S
O180 Co168 2.137 . S
O180 C171 1.247 . S
O181 Co168 2.244 . S
O181 C171 1.272 . S
O181 Co173 2.135 . S
Co182 O183 2.216 . S
Co182 O184 2.091 . S
Co182 O186 2.004 . S
Co182 O192 2.021 . S
Co182 O194 2.137 . S
Co182 O195 2.244 . S
O183 Co182 2.216 . S
O183 C190 1.247 . S
O184 Co182 2.091 . S
O184 C190 1.261 . S
C185 O194 1.247 . S
C185 O195 1.272 . S
O186 Co182 2.004 . S
O186 C191 1.259 . S
Co187 O188 2.061 . S
Co187 O193 2.052 . S
Co187 O195 2.135 . S
O188 Co187 2.061 . S
O188 C191 1.235 . S
C189 O192 1.238 . S
C189 O193 1.241 . S
C190 O183 1.247 . S
C190 O184 1.261 . S
C191 O186 1.259 . S
C191 O188 1.235 . S
O192 Co182 2.021 . S
O192 C189 1.238 . S
O193 Co187 2.052 . S
O193 C189 1.241 . S
O194 Co182 2.137 . S
O194 C185 1.247 . S
O195 Co182 2.244 . S
O195 C185 1.272 . S
O195 Co187 2.135 . S
Co196 O197 2.216 . S
Co196 O198 2.091 . S
Co196 O200 2.004 . S
Co196 O206 2.021 . S
Co196 O208 2.137 . S
Co196 O209 2.244 . S
O197 Co196 2.216 . S
O197 C204 1.247 . S
O198 Co196 2.091 . S
O198 C204 1.261 . S
C199 O208 1.247 . S
C199 O209 1.272 . S
O200 Co196 2.004 . S
O200 C205 1.259 . S
Co201 O202 2.061 . S
Co201 O207 2.052 . S
Co201 O209 2.135 . S
O202 Co201 2.061 . S
O202 C205 1.235 . S
C203 O206 1.238 . S
C203 O207 1.241 . S
C204 O197 1.247 . S
C204 O198 1.261 . S
C205 O200 1.259 . S
C205 O202 1.235 . S
O206 Co196 2.021 . S
O206 C203 1.238 . S
O207 Co201 2.052 . S
O207 C203 1.241 . S
O208 Co196 2.137 . S
O208 C199 1.247 . S
O209 Co196 2.244 . S
O209 C199 1.272 . S
O209 Co201 2.135 . S
Co210 O211 2.216 . S
Co210 O212 2.091 . S
Co210 O214 2.004 . S
Co210 O220 2.021 . S
Co210 O222 2.137 . S
Co210 O223 2.244 . S
O211 Co210 2.216 . S
O211 C218 1.247 . S
O212 Co210 2.091 . S
O212 C218 1.261 . S
C213 O222 1.247 . S
C213 O223 1.272 . S
O214 Co210 2.004 . S
O214 C219 1.259 . S
Co215 O216 2.061 . S
Co215 O221 2.052 . S
Co215 O223 2.135 . S
O216 Co215 2.061 . S
O216 C219 1.235 . S
C217 O220 1.238 . S
C217 O221 1.241 . S
C218 O211 1.247 . S
C218 O212 1.261 . S
C219 O214 1.259 . S
C219 O216 1.235 . S
O220 Co210 2.021 . S
O220 C217 1.238 . S
O221 Co215 2.052 . S
O221 C217 1.241 . S
O222 Co210 2.137 . S
O222 C213 1.247 . S
O223 Co210 2.244 . S
O223 C213 1.272 . S
O223 Co215 2.135 . S
Co224 O225 2.216 . S
Co224 O226 2.091 . S
Co224 O228 2.004 1_545 S
Co224 O234 2.021 . S
Co224 O236 2.137 . S
Co224 O237 2.244 . S
O225 Co224 2.216 . S
O225 C232 1.247 . S
O226 Co224 2.091 . S
O226 C232 1.261 . S
C227 O236 1.247 . S
C227 O237 1.272 . S
O228 Co224 2.004 1_565 S
O228 C233 1.259 . S
Co229 O230 2.061 . S
Co229 O235 2.052 1_565 S
Co229 O237 2.135 1_565 S
O230 Co229 2.061 . S
O230 C233 1.235 . S
C231 O234 1.238 . S
C231 O235 1.241 . S
C232 O225 1.247 . S
C232 O226 1.261 . S
C233 O228 1.259 . S
C233 O230 1.235 . S
O234 Co224 2.021 . S
O234 C231 1.238 . S
O235 Co229 2.052 1_545 S
O235 C231 1.241 . S
O236 Co224 2.137 . S
O236 C227 1.247 . S
O237 Co224 2.244 . S
O237 C227 1.272 . S
O237 Co229 2.135 1_545 S
Co238 O239 2.216 . S
Co238 O240 2.091 . S
Co238 O242 2.004 . S
Co238 O248 2.021 . S
Co238 O250 2.137 . S
Co238 O251 2.244 . S
O239 Co238 2.216 . S
O239 C246 1.247 . S
O240 Co238 2.091 . S
O240 C246 1.261 . S
C241 O250 1.247 . S
C241 O251 1.272 . S
O242 Co238 2.004 . S
O242 C247 1.259 . S
Co243 O244 2.061 . S
Co243 O249 2.052 . S
Co243 O251 2.135 . S
O244 Co243 2.061 . S
O244 C247 1.235 . S
C245 O248 1.238 . S
C245 O249 1.241 . S
C246 O239 1.247 . S
C246 O240 1.261 . S
C247 O242 1.259 . S
C247 O244 1.235 . S
O248 Co238 2.021 . S
O248 C245 1.238 . S
O249 Co243 2.052 . S
O249 C245 1.241 . S
O250 Co238 2.137 . S
O250 C241 1.247 . S
O251 Co238 2.244 . S
O251 C241 1.272 . S
O251 Co243 2.135 . S
Co252 O253 2.216 . S
Co252 O254 2.091 . S
Co252 O256 2.004 . S
Co252 O262 2.021 . S
Co252 O264 2.137 . S
Co252 O265 2.244 . S
O253 Co252 2.216 . S
O253 C260 1.247 . S
O254 Co252 2.091 . S
O254 C260 1.261 . S
C255 O264 1.247 . S
C255 O265 1.272 . S
O256 Co252 2.004 . S
O256 C261 1.259 . S
Co257 O258 2.061 . S
Co257 O263 2.052 . S
Co257 O265 2.135 . S
O258 Co257 2.061 . S
O258 C261 1.235 . S
C259 O262 1.238 . S
C259 O263 1.241 . S
C260 O253 1.247 . S
C260 O254 1.261 . S
C261 O256 1.259 . S
C261 O258 1.235 . S
O262 Co252 2.021 . S
O262 C259 1.238 . S
O263 Co257 2.052 . S
O263 C259 1.241 . S
O264 Co252 2.137 . S
O264 C255 1.247 . S
O265 Co252 2.244 . S
O265 C255 1.272 . S
O265 Co257 2.135 . S
Co266 O267 2.216 . S
Co266 O268 2.091 . S
Co266 O270 2.004 . S
Co266 O276 2.021 . S
Co266 O278 2.137 . S
Co266 O279 2.244 . S
O267 Co266 2.216 . S
O267 C274 1.247 . S
O268 Co266 2.091 . S
O268 C274 1.261 . S
C269 O278 1.247 . S
C269 O279 1.272 . S
O270 Co266 2.004 . S
O270 C275 1.259 . S
Co271 O272 2.061 . S
Co271 O277 2.052 . S
Co271 O279 2.135 . S
O272 Co271 2.061 . S
O272 C275 1.235 . S
C273 O276 1.238 . S
C273 O277 1.241 . S
C274 O267 1.247 . S
C274 O268 1.261 . S
C275 O270 1.259 . S
C275 O272 1.235 . S
O276 Co266 2.021 . S
O276 C273 1.238 . S
O277 Co271 2.052 . S
O277 C273 1.241 . S
O278 Co266 2.137 . S
O278 C269 1.247 . S
O279 Co266 2.244 . S
O279 C269 1.272 . S
O279 Co271 2.135 . S
Co280 O281 2.216 . S
Co280 O282 2.091 . S
Co280 O284 2.004 . S
Co280 O290 2.021 . S
Co280 O292 2.137 1_554 S
Co280 O293 2.244 1_554 S
O281 Co280 2.216 . S
O281 C288 1.247 . S
O282 Co280 2.091 . S
O282 C288 1.261 . S
C283 O292 1.247 . S
C283 O293 1.272 . S
O284 Co280 2.004 . S
O284 C289 1.259 . S
Co285 O286 2.061 . S
Co285 O291 2.052 . S
Co285 O293 2.135 1_554 S
O286 Co285 2.061 . S
O286 C289 1.235 . S
C287 O290 1.238 . S
C287 O291 1.241 . S
C288 O281 1.247 . S
C288 O282 1.261 . S
C289 O284 1.259 . S
C289 O286 1.235 . S
O290 Co280 2.021 . S
O290 C287 1.238 . S
O291 Co285 2.052 . S
O291 C287 1.241 . S
O292 Co280 2.137 1_556 S
O292 C283 1.247 . S
O293 Co280 2.244 1_556 S
O293 C283 1.272 . S
O293 Co285 2.135 1_556 S
Co294 O295 2.216 . S
Co294 O296 2.091 . S
Co294 O298 2.004 . S
Co294 O304 2.021 . S
Co294 O306 2.137 . S
Co294 O307 2.244 . S
O295 Co294 2.216 . S
O295 C302 1.247 . S
O296 Co294 2.091 . S
O296 C302 1.261 . S
C297 O306 1.247 . S
C297 O307 1.272 . S
O298 Co294 2.004 . S
O298 C303 1.259 . S
Co299 O300 2.061 . S
Co299 O305 2.052 . S
Co299 O307 2.135 . S
O300 Co299 2.061 . S
O300 C303 1.235 . S
C301 O304 1.238 . S
C301 O305 1.241 . S
C302 O295 1.247 . S
C302 O296 1.261 . S
C303 O298 1.259 . S
C303 O300 1.235 . S
O304 Co294 2.021 . S
O304 C301 1.238 . S
O305 Co299 2.052 . S
O305 C301 1.241 . S
O306 Co294 2.137 . S
O306 C297 1.247 . S
O307 Co294 2.244 . S
O307 C297 1.272 . S
O307 Co299 2.135 . S
Co308 O309 2.216 . S
Co308 O310 2.091 . S
Co308 O312 2.004 . S
Co308 O318 2.021 . S
Co308 O320 2.137 . S
Co308 O321 2.244 . S
O309 Co308 2.216 . S
O309 C316 1.247 . S
O310 Co308 2.091 . S
O310 C316 1.261 . S
C311 O320 1.247 . S
C311 O321 1.272 . S
O312 Co308 2.004 . S
O312 C317 1.259 . S
Co313 O314 2.061 . S
Co313 O319 2.052 . S
Co313 O321 2.135 . S
O314 Co313 2.061 . S
O314 C317 1.235 . S
C315 O318 1.238 . S
C315 O319 1.241 . S
C316 O309 1.247 . S
C316 O310 1.261 . S
C317 O312 1.259 . S
C317 O314 1.235 . S
O318 Co308 2.021 . S
O318 C315 1.238 . S
O319 Co313 2.052 . S
O319 C315 1.241 . S
O320 Co308 2.137 . S
O320 C311 1.247 . S
O321 Co308 2.244 . S
O321 C311 1.272 . S
O321 Co313 2.135 . S
Co322 O323 2.216 . S
Co322 O324 2.091 . S
Co322 O326 2.004 . S
Co322 O332 2.021 . S
Co322 O334 2.137 . S
Co322 O335 2.244 . S
O323 Co322 2.216 . S
O323 C330 1.247 . S
O324 Co322 2.091 . S
O324 C330 1.261 . S
C325 O334 1.247 . S
C325 O335 1.272 . S
O326 Co322 2.004 . S
O326 C331 1.259 . S
Co327 O328 2.061 . S
Co327 O333 2.052 . S
Co327 O335 2.135 . S
O328 Co327 2.061 . S
O328 C331 1.235 . S
C329 O332 1.238 . S
C329 O333 1.241 . S
C330 O323 1.247 . S
C330 O324 1.261 . S
C331 O326 1.259 . S
C331 O328 1.235 . S
O332 Co322 2.021 . S
O332 C329 1.238 . S
O333 Co327 2.052 . S
O333 C329 1.241 . S
O334 Co322 2.137 . S
O334 C325 1.247 . S
O335 Co322 2.244 . S
O335 C325 1.272 . S
O335 Co327 2.135 . S
Tb336 N365 2.617 . S
Tb336 N371 2.572 . S
Tb336 O380 2.465 . S
Tb336 O381 2.387 . S
Tb336 O383 2.428 . S
Tb336 O384 2.308 . S
Tb336 O388 2.349 . S
Tb336 O391 2.393 . S
Tb336 C400 2.802 . S
C337 N338 1.379 . S
C337 C340 1.416 . S
C337 C344 1.424 1_556 S
N338 C337 1.379 . S
N338 C341 1.334 . S
N338 Tb347 2.617 1_566 S
C339 C341 1.390 . S
C339 C342 1.339 . S
C339 H359 0.930 . S
C340 C337 1.416 . S
C340 C342 1.416 . S
C340 C346 1.448 . S
C341 N338 1.334 . S
C341 C339 1.390 . S
C341 H352 0.932 1_565 S
C342 C339 1.339 . S
C342 C340 1.416 . S
C342 H363 0.930 . S
C343 C344 1.413 . S
C343 C345 1.427 1_554 S
C343 C349 1.416 . S
C344 C337 1.424 1_554 S
C344 C343 1.413 . S
C344 N348 1.361 . S
C345 C343 1.427 1_556 S
C345 C346 1.328 . S
C345 H360 0.919 1_556 S
C346 C340 1.448 . S
C346 C345 1.328 . S
C346 H361 0.930 . S
Tb347 N338 2.617 1_544 S
Tb347 N348 2.572 1_545 S
Tb347 O382 2.349 1_655 S
Tb347 O385 2.393 1_654 S
Tb347 O386 2.465 . S
Tb347 O387 2.387 1_645 S
Tb347 O389 2.428 1_554 S
Tb347 O390 2.308 1_655 S
Tb347 C411 2.802 . S
N348 C344 1.361 . S
N348 Tb347 2.572 1_565 S
N348 C350 1.340 . S
C349 C343 1.416 . S
C349 C351 1.332 . S
C349 H357 0.931 . S
C350 N348 1.340 . S
C350 C351 1.407 . S
C350 H356 0.930 . S
C351 C349 1.332 . S
C351 C350 1.407 . S
C351 H353 0.929 . S
H352 C341 0.932 1_545 S
H353 C351 0.929 . S
H354 C369 0.930 . S
H355 C376 0.929 1_556 S
H356 C350 0.930 . S
H357 C349 0.931 . S
H358 C372 0.930 . S
H359 C339 0.930 . S
H360 C345 0.919 1_554 S
H361 C346 0.930 . S
H362 C367 0.930 . S
H363 C342 0.930 . S
H364 C375 0.931 . S
N365 Tb336 2.617 . S
N365 C366 1.379 . S
N365 C369 1.334 . S
C366 N365 1.379 . S
C366 C368 1.416 . S
C366 C374 1.424 . S
C367 H362 0.930 . S
C367 C369 1.390 . S
C367 C370 1.339 . S
C368 C366 1.416 . S
C368 C370 1.416 . S
C368 C401 1.448 . S
C369 H354 0.930 . S
C369 N365 1.334 . S
C369 C367 1.390 . S
C370 C367 1.339 . S
C370 C368 1.416 . S
C370 H377 0.930 . S
N371 Tb336 2.572 . S
N371 C372 1.340 . S
N371 C374 1.361 . S
C372 H358 0.930 . S
C372 N371 1.340 . S
C372 C376 1.407 . S
C373 C374 1.413 . S
C373 C375 1.416 . S
C373 C402 1.427 . S
C374 C366 1.424 . S
C374 N371 1.361 . S
C374 C373 1.413 . S
C375 H364 0.931 . S
C375 C373 1.416 . S
C375 C376 1.332 . S
C376 H355 0.929 1_554 S
C376 C372 1.407 . S
C376 C375 1.332 . S
H377 C370 0.930 . S
H378 C401 0.930 . S
H379 C402 0.929 . S
O380 Tb336 2.465 . S
O380 C400 1.264 . S
O381 Tb336 2.387 . S
O381 C392 1.264 . S
O382 Tb347 2.349 1_455 S
O382 C392 1.243 . S
O383 Tb336 2.428 . S
O383 C400 1.256 . S
O384 Tb336 2.308 . S
O384 C399 1.266 1_554 S
O385 Tb347 2.393 1_456 S
O385 C399 1.248 . S
O386 Tb347 2.465 . S
O386 C411 1.264 . S
O387 Tb347 2.387 1_465 S
O387 C403 1.264 . S
O388 Tb336 2.349 . S
O388 C403 1.243 1_545 S
O389 Tb347 2.428 1_556 S
O389 C411 1.256 1_556 S
O390 Tb347 2.308 1_455 S
O390 C410 1.266 . S
O391 Tb336 2.393 . S
O391 C410 1.248 . S
C392 O381 1.264 . S
C392 O382 1.243 . S
C393 C396 1.399 . S
C393 C398 1.383 . S
C393 C400 1.496 . S
C394 C395 1.399 . S
C394 C398 1.389 . S
C395 C394 1.399 . S
C395 C397 1.380 . S
C395 H412 0.929 . S
C396 C393 1.399 . S
C396 C397 1.392 . S
C396 H413 0.929 . S
C397 C395 1.380 . S
C397 C396 1.392 . S
C397 H414 0.929 . S
C398 C393 1.383 . S
C398 C394 1.389 . S
C398 H415 0.931 . S
C399 O384 1.266 1_556 S
C399 O385 1.248 . S
C400 Tb336 2.802 . S
C400 O380 1.264 . S
C400 O383 1.256 . S
C400 C393 1.496 . S
C401 C368 1.448 . S
C401 H378 0.930 . S
C401 C402 1.328 . S
C402 C373 1.427 . S
C402 H379 0.929 . S
C402 C401 1.328 . S
C403 O387 1.264 . S
C403 O388 1.243 1_565 S
C404 C407 1.399 1_554 S
C404 C408 1.383 . S
C404 C411 1.496 . S
C405 C406 1.399 1_554 S
C405 C408 1.389 . S
C406 C405 1.399 1_556 S
C406 C409 1.380 . S
C406 H416 0.929 . S
C407 C404 1.399 1_556 S
C407 C409 1.392 . S
C407 H417 0.929 . S
C408 C404 1.383 . S
C408 C405 1.389 . S
C408 H418 0.931 . S
C409 C406 1.380 . S
C409 C407 1.392 . S
C409 H419 0.929 . S
C410 O390 1.266 . S
C410 O391 1.248 . S
C411 Tb347 2.802 . S
C411 O386 1.264 . S
C411 O389 1.256 1_554 S
C411 C404 1.496 . S
H412 C395 0.929 . S
H413 C396 0.929 . S
H414 C397 0.929 . S
H415 C398 0.931 . S
H416 C406 0.929 . S
H417 C407 0.929 . S
H418 C408 0.931 . S
H419 C409 0.929 . S
Tb420 N449 2.617 . S
Tb420 N455 2.572 . S
Tb420 O464 2.465 . S
Tb420 O465 2.387 . S
Tb420 O467 2.428 . S
Tb420 O468 2.308 . S
Tb420 O472 2.349 . S
Tb420 O475 2.393 . S
Tb420 C484 2.802 . S
C421 N422 1.379 . S
C421 C424 1.416 . S
C421 C428 1.424 . S
N422 C421 1.379 . S
N422 C425 1.334 . S
N422 Tb431 2.617 . S
C423 C425 1.390 . S
C423 C426 1.339 . S
C423 H443 0.930 . S
C424 C421 1.416 . S
C424 C426 1.416 . S
C424 C430 1.448 . S
C425 N422 1.334 . S
C425 C423 1.390 . S
C425 H436 0.930 . S
C426 C423 1.339 . S
C426 C424 1.416 . S
C426 H447 0.930 . S
C427 C428 1.413 . S
C427 C429 1.427 . S
C427 C433 1.416 . S
C428 C421 1.424 . S
C428 C427 1.413 . S
C428 N432 1.361 . S
C429 C427 1.427 . S
C429 C430 1.328 . S
C429 H444 0.929 . S
C430 C424 1.448 . S
C430 C429 1.328 . S
C430 H445 0.930 . S
Tb431 N422 2.617 . S
Tb431 N432 2.572 . S
Tb431 O466 2.349 . S
Tb431 O469 2.393 . S
Tb431 O470 2.465 . S
Tb431 O471 2.387 . S
Tb431 O473 2.428 . S
Tb431 O474 2.308 . S
Tb431 C495 2.802 . S
N432 C428 1.361 . S
N432 Tb431 2.572 . S
N432 C434 1.340 . S
C433 C427 1.416 . S
C433 C435 1.332 . S
C433 H441 0.931 . S
C434 N432 1.340 . S
C434 C435 1.407 . S
C434 H440 0.930 . S
C435 C433 1.332 . S
C435 C434 1.407 . S
C435 H437 0.929 . S
H436 C425 0.930 . S
H437 C435 0.929 . S
H438 C453 0.930 . S
H439 C460 0.929 . S
H440 C434 0.930 . S
H441 C433 0.931 . S
H442 C456 0.930 . S
H443 C423 0.930 . S
H444 C429 0.929 . S
H445 C430 0.930 . S
H446 C451 0.930 . S
H447 C426 0.930 . S
H448 C459 0.931 . S
N449 Tb420 2.617 . S
N449 C450 1.379 . S
N449 C453 1.334 . S
C450 N449 1.379 . S
C450 C452 1.416 . S
C450 C458 1.424 . S
C451 H446 0.930 . S
C451 C453 1.390 . S
C451 C454 1.339 . S
C452 C450 1.416 . S
C452 C454 1.416 . S
C452 C485 1.448 . S
C453 H438 0.930 . S
C453 N449 1.334 . S
C453 C451 1.390 . S
C454 C451 1.339 . S
C454 C452 1.416 . S
C454 H461 0.930 . S
N455 Tb420 2.572 . S
N455 C456 1.340 . S
N455 C458 1.361 . S
C456 H442 0.930 . S
C456 N455 1.340 . S
C456 C460 1.407 . S
C457 C458 1.413 . S
C457 C459 1.416 . S
C457 C486 1.427 . S
C458 C450 1.424 . S
C458 N455 1.361 . S
C458 C457 1.413 . S
C459 H448 0.931 . S
C459 C457 1.416 . S
C459 C460 1.332 . S
C460 H439 0.929 . S
C460 C456 1.407 . S
C460 C459 1.332 . S
H461 C454 0.930 . S
H462 C485 0.930 . S
H463 C486 0.929 . S
O464 Tb420 2.465 . S
O464 C484 1.264 . S
O465 Tb420 2.387 . S
O465 C476 1.264 . S
O466 Tb431 2.349 . S
O466 C476 1.243 . S
O467 Tb420 2.428 . S
O467 C484 1.256 . S
O468 Tb420 2.308 . S
O468 C483 1.266 . S
O469 Tb431 2.393 . S
O469 C483 1.248 . S
O470 Tb431 2.465 . S
O470 C495 1.264 . S
O471 Tb431 2.387 . S
O471 C487 1.264 . S
O472 Tb420 2.349 . S
O472 C487 1.243 . S
O473 Tb431 2.428 . S
O473 C495 1.256 . S
O474 Tb431 2.308 . S
O474 C494 1.266 . S
O475 Tb420 2.393 . S
O475 C494 1.248 . S
C476 O465 1.264 . S
C476 O466 1.243 . S
C477 C480 1.399 . S
C477 C482 1.383 . S
C477 C484 1.496 . S
C478 C479 1.399 . S
C478 C482 1.389 . S
C479 C478 1.399 . S
C479 C481 1.380 . S
C479 H496 0.929 . S
C480 C477 1.399 . S
C480 C481 1.392 . S
C480 H497 0.929 . S
C481 C479 1.380 . S
C481 C480 1.392 . S
C481 H498 0.929 . S
C482 C477 1.383 . S
C482 C478 1.389 . S
C482 H499 0.931 . S
C483 O468 1.266 . S
C483 O469 1.248 . S
C484 Tb420 2.802 . S
C484 O464 1.264 . S
C484 O467 1.256 . S
C484 C477 1.496 . S
C485 C452 1.448 . S
C485 H462 0.930 . S
C485 C486 1.328 . S
C486 C457 1.427 . S
C486 H463 0.929 . S
C486 C485 1.328 . S
C487 O471 1.264 . S
C487 O472 1.243 . S
C488 C491 1.399 . S
C488 C492 1.383 . S
C488 C495 1.496 . S
C489 C490 1.399 . S
C489 C492 1.389 . S
C490 C489 1.399 . S
C490 C493 1.380 . S
C490 H500 0.929 . S
C491 C488 1.399 . S
C491 C493 1.392 . S
C491 H501 0.929 . S
C492 C488 1.383 . S
C492 C489 1.389 . S
C492 H502 0.931 . S
C493 C490 1.380 . S
C493 C491 1.392 . S
C493 H503 0.929 . S
C494 O474 1.266 . S
C494 O475 1.248 . S
C495 Tb431 2.802 . S
C495 O470 1.264 . S
C495 O473 1.256 . S
C495 C488 1.496 . S
H496 C479 0.929 . S
H497 C480 0.929 . S
H498 C481 0.929 . S
H499 C482 0.931 . S
H500 C490 0.929 . S
H501 C491 0.929 . S
H502 C492 0.931 . S
H503 C493 0.929 . S
Tb504 N533 2.606 1_545 S
Tb504 N539 2.572 1_545 S
Tb504 O548 2.465 . S
Tb504 O549 2.387 1_545 S
Tb504 O551 2.428 . S
Tb504 O552 2.308 . S
Tb504 O556 2.349 . S
Tb504 O559 2.393 . S
Tb504 C568 2.802 . S
C505 N506 1.379 . S
C505 C508 1.416 . S
C505 C512 1.424 . S
N506 C505 1.379 . S
N506 C509 1.334 . S
N506 Tb515 2.617 . S
C507 C509 1.390 . S
C507 C510 1.339 . S
C507 H527 0.930 . S
C508 C505 1.416 . S
C508 C510 1.416 . S
C508 C514 1.448 . S
C509 N506 1.334 . S
C509 C507 1.390 . S
C509 H520 0.930 . S
C510 C507 1.339 . S
C510 C508 1.416 . S
C510 H531 0.930 . S
C511 C512 1.413 . S
C511 C513 1.427 . S
C511 C517 1.416 . S
C512 C505 1.424 . S
C512 C511 1.413 . S
C512 N516 1.361 . S
C513 C511 1.427 . S
C513 C514 1.328 . S
C513 H528 0.929 . S
C514 C508 1.448 . S
C514 C513 1.328 . S
C514 H529 0.930 . S
Tb515 N506 2.617 . S
Tb515 N516 2.572 . S
Tb515 O550 2.349 1_545 S
Tb515 O553 2.393 . S
Tb515 O554 2.465 . S
Tb515 O555 2.387 . S
Tb515 O557 2.428 . S
Tb515 O558 2.308 . S
Tb515 C579 2.802 . S
N516 C512 1.361 . S
N516 Tb515 2.572 . S
N516 C518 1.340 . S
C517 C511 1.416 . S
C517 C519 1.332 . S
C517 H525 0.931 . S
C518 N516 1.340 . S
C518 C519 1.407 . S
C518 H524 0.930 . S
C519 C517 1.332 . S
C519 C518 1.407 . S
C519 H521 0.929 . S
H520 C509 0.930 . S
H521 C519 0.929 . S
H522 C537 0.930 . S
H523 C544 0.929 . S
H524 C518 0.930 . S
H525 C517 0.931 . S
H526 C540 0.930 . S
H527 C507 0.930 . S
H528 C513 0.929 . S
H529 C514 0.930 . S
H530 C535 0.930 . S
H531 C510 0.930 . S
H532 C543 0.931 . S
N533 Tb504 2.606 1_565 S
N533 C534 1.392 . S
N533 C537 1.335 1_565 S
C534 N533 1.392 . S
C534 C536 1.416 . S
C534 C542 1.424 . S
C535 H530 0.930 . S
C535 C537 1.390 1_565 S
C535 C538 1.339 . S
C536 C534 1.416 . S
C536 C538 1.416 . S
C536 C569 1.448 . S
C537 H522 0.930 . S
C537 N533 1.335 1_545 S
C537 C535 1.390 1_545 S
C538 C535 1.339 . S
C538 C536 1.416 . S
C538 H545 0.930 . S
N539 Tb504 2.572 1_565 S
N539 C540 1.340 . S
N539 C542 1.361 . S
C540 H526 0.930 . S
C540 N539 1.340 . S
C540 C544 1.407 . S
C541 C542 1.413 . S
C541 C543 1.416 . S
C541 C570 1.427 . S
C542 C534 1.424 . S
C542 N539 1.361 . S
C542 C541 1.413 . S
C543 H532 0.931 . S
C543 C541 1.416 . S
C543 C544 1.332 . S
C544 H523 0.929 . S
C544 C540 1.407 . S
C544 C543 1.332 . S
H545 C538 0.930 . S
H546 C569 0.930 . S
H547 C570 0.929 . S
O548 Tb504 2.465 . S
O548 C568 1.264 . S
O549 Tb504 2.387 1_565 S
O549 C560 1.264 . S
O550 Tb515 2.349 1_565 S
O550 C560 1.243 . S
O551 Tb504 2.428 . S
O551 C568 1.256 . S
O552 Tb504 2.308 . S
O552 C567 1.266 . S
O553 Tb515 2.393 . S
O553 C567 1.248 . S
O554 Tb515 2.465 . S
O554 C579 1.264 . S
O555 Tb515 2.387 . S
O555 C571 1.264 . S
O556 Tb504 2.349 . S
O556 C571 1.243 . S
O557 Tb515 2.428 . S
O557 C579 1.256 . S
O558 Tb515 2.308 . S
O558 C578 1.266 . S
O559 Tb504 2.393 . S
O559 C578 1.248 . S
C560 O549 1.264 . S
C560 O550 1.243 . S
C561 C564 1.399 . S
C561 C566 1.383 . S
C561 C568 1.496 . S
C562 C563 1.399 . S
C562 C566 1.389 . S
C563 C562 1.399 . S
C563 C565 1.380 . S
C563 H580 0.929 . S
C564 C561 1.399 . S
C564 C565 1.392 . S
C564 H581 0.929 . S
C565 C563 1.380 . S
C565 C564 1.392 . S
C565 H582 0.929 . S
C566 C561 1.383 . S
C566 C562 1.389 . S
C566 H583 0.931 . S
C567 O552 1.266 . S
C567 O553 1.248 . S
C568 Tb504 2.802 . S
C568 O548 1.264 . S
C568 O551 1.256 . S
C568 C561 1.496 . S
C569 C536 1.448 . S
C569 H546 0.930 . S
C569 C570 1.328 . S
C570 C541 1.427 . S
C570 H547 0.929 . S
C570 C569 1.328 . S
C571 O555 1.264 . S
C571 O556 1.243 . S
C572 C575 1.399 . S
C572 C576 1.383 . S
C572 C579 1.496 1_565 S
C573 C574 1.399 . S
C573 C576 1.389 . S
C574 C573 1.399 . S
C574 C577 1.380 . S
C574 H584 0.929 . S
C575 C572 1.399 . S
C575 C577 1.392 . S
C575 H585 0.929 . S
C576 C572 1.383 . S
C576 C573 1.389 . S
C576 H586 0.931 . S
C577 C574 1.380 . S
C577 C575 1.392 . S
C577 H587 0.929 . S
C578 O558 1.266 . S
C578 O559 1.248 . S
C579 Tb515 2.802 . S
C579 O554 1.264 . S
C579 O557 1.256 . S
C579 C572 1.496 1_545 S
H580 C563 0.929 . S
H581 C564 0.929 . S
H582 C565 0.929 . S
H583 C566 0.931 . S
H584 C574 0.929 . S
H585 C575 0.929 . S
H586 C576 0.931 . S
H587 C577 0.929 . S
Tb588 N617 2.617 . S
Tb588 N623 2.572 . S
Tb588 O632 2.465 . S
Tb588 O633 2.387 . S
Tb588 O635 2.428 . S
Tb588 O636 2.308 . S
Tb588 O640 2.349 . S
Tb588 O643 2.393 . S
Tb588 C652 2.802 . S
C589 N590 1.379 . S
C589 C592 1.416 . S
C589 C596 1.424 . S
N590 C589 1.379 . S
N590 C593 1.334 . S
N590 Tb599 2.617 . S
C591 C593 1.390 . S
C591 C594 1.339 . S
C591 H611 0.930 . S
C592 C589 1.416 . S
C592 C594 1.416 . S
C592 C598 1.448 . S
C593 N590 1.334 . S
C593 C591 1.390 . S
C593 H604 0.930 . S
C594 C591 1.339 . S
C594 C592 1.416 . S
C594 H615 0.930 . S
C595 C596 1.413 . S
C595 C597 1.427 . S
C595 C601 1.416 . S
C596 C589 1.424 . S
C596 C595 1.413 . S
C596 N600 1.361 . S
C597 C595 1.427 . S
C597 C598 1.328 . S
C597 H612 0.929 . S
C598 C592 1.448 . S
C598 C597 1.328 . S
C598 H613 0.930 . S
Tb599 N590 2.617 . S
Tb599 N600 2.572 . S
Tb599 O634 2.349 . S
Tb599 O637 2.393 . S
Tb599 O638 2.465 . S
Tb599 O639 2.387 . S
Tb599 O641 2.428 . S
Tb599 O642 2.308 . S
Tb599 C663 2.802 . S
N600 C596 1.361 . S
N600 Tb599 2.572 . S
N600 C602 1.340 . S
C601 C595 1.416 . S
C601 C603 1.332 . S
C601 H609 0.931 . S
C602 N600 1.340 . S
C602 C603 1.407 . S
C602 H608 0.930 . S
C603 C601 1.332 . S
C603 C602 1.407 . S
C603 H605 0.929 . S
H604 C593 0.930 . S
H605 C603 0.929 . S
H606 C621 0.930 . S
H607 C628 0.929 . S
H608 C602 0.930 . S
H609 C601 0.931 . S
H610 C624 0.930 . S
H611 C591 0.930 . S
H612 C597 0.929 . S
H613 C598 0.930 . S
H614 C619 0.930 . S
H615 C594 0.930 . S
H616 C627 0.931 . S
N617 Tb588 2.617 . S
N617 C618 1.379 . S
N617 C621 1.334 . S
C618 N617 1.379 . S
C618 C620 1.416 . S
C618 C626 1.424 . S
C619 H614 0.930 . S
C619 C621 1.390 . S
C619 C622 1.339 . S
C620 C618 1.416 . S
C620 C622 1.416 . S
C620 C653 1.448 . S
C621 H606 0.930 . S
C621 N617 1.334 . S
C621 C619 1.390 . S
C622 C619 1.339 . S
C622 C620 1.416 . S
C622 H629 0.930 . S
N623 Tb588 2.572 . S
N623 C624 1.340 . S
N623 C626 1.361 . S
C624 H610 0.930 . S
C624 N623 1.340 . S
C624 C628 1.407 . S
C625 C626 1.413 . S
C625 C627 1.416 . S
C625 C654 1.427 . S
C626 C618 1.424 . S
C626 N623 1.361 . S
C626 C625 1.413 . S
C627 H616 0.931 . S
C627 C625 1.416 . S
C627 C628 1.332 . S
C628 H607 0.929 . S
C628 C624 1.407 . S
C628 C627 1.332 . S
H629 C622 0.930 . S
H630 C653 0.930 . S
H631 C654 0.929 . S
O632 Tb588 2.465 . S
O632 C652 1.264 . S
O633 Tb588 2.387 . S
O633 C644 1.264 . S
O634 Tb599 2.349 . S
O634 C644 1.243 . S
O635 Tb588 2.428 . S
O635 C652 1.256 . S
O636 Tb588 2.308 . S
O636 C651 1.266 . S
O637 Tb599 2.393 . S
O637 C651 1.248 . S
O638 Tb599 2.465 . S
O638 C663 1.264 . S
O639 Tb599 2.387 . S
O639 C655 1.264 . S
O640 Tb588 2.349 . S
O640 C655 1.243 . S
O641 Tb599 2.428 . S
O641 C663 1.256 . S
O642 Tb599 2.308 . S
O642 C662 1.266 . S
O643 Tb588 2.393 . S
O643 C662 1.248 . S
C644 O633 1.264 . S
C644 O634 1.243 . S
C645 C648 1.399 . S
C645 C650 1.383 . S
C645 C652 1.496 . S
C646 C647 1.399 . S
C646 C650 1.389 . S
C647 C646 1.399 . S
C647 C649 1.380 . S
C647 H664 0.929 . S
C648 C645 1.399 . S
C648 C649 1.392 . S
C648 H665 0.929 . S
C649 C647 1.380 . S
C649 C648 1.392 . S
C649 H666 0.929 . S
C650 C645 1.383 . S
C650 C646 1.389 . S
C650 H667 0.931 . S
C651 O636 1.266 . S
C651 O637 1.248 . S
C652 Tb588 2.802 . S
C652 O632 1.264 . S
C652 O635 1.256 . S
C652 C645 1.496 . S
C653 C620 1.448 . S
C653 H630 0.930 . S
C653 C654 1.328 . S
C654 C625 1.427 . S
C654 H631 0.929 . S
C654 C653 1.328 . S
C655 O639 1.264 . S
C655 O640 1.243 . S
C656 C659 1.399 . S
C656 C660 1.383 . S
C656 C663 1.496 . S
C657 C658 1.399 . S
C657 C660 1.389 . S
C658 C657 1.399 . S
C658 C661 1.380 . S
C658 H668 0.929 . S
C659 C656 1.399 . S
C659 C661 1.392 . S
C659 H669 0.929 . S
C660 C656 1.383 . S
C660 C657 1.389 . S
C660 H670 0.931 . S
C661 C658 1.380 . S
C661 C659 1.392 . S
C661 H671 0.929 . S
C662 O642 1.266 . S
C662 O643 1.248 . S
C663 Tb599 2.802 . S
C663 O638 1.264 . S
C663 O641 1.256 . S
C663 C656 1.496 . S
H664 C647 0.929 . S
H665 C648 0.929 . S
H666 C649 0.929 . S
H667 C650 0.931 . S
H668 C658 0.929 . S
H669 C659 0.929 . S
H670 C660 0.931 . S
H671 C661 0.929 . S
Tb672 N701 2.617 . S
Tb672 N707 2.572 . S
Tb672 O716 2.465 . S
Tb672 O717 2.387 1_565 S
Tb672 O719 2.428 . S
Tb672 O720 2.308 1_565 S
Tb672 O724 2.349 1_565 S
Tb672 O727 2.393 1_565 S
Tb672 C736 2.802 . S
C673 N674 1.379 1_455 S
C673 C676 1.416 1_455 S
C673 C680 1.424 . S
N674 C673 1.379 1_655 S
N674 C677 1.334 . S
N674 Tb683 2.617 1_655 S
C675 C677 1.390 . S
C675 C678 1.339 . S
C675 H695 0.930 . S
C676 C673 1.416 1_655 S
C676 C678 1.416 . S
C676 C682 1.448 1_655 S
C677 N674 1.334 . S
C677 C675 1.390 . S
C677 H688 0.930 . S
C678 C675 1.339 . S
C678 C676 1.416 . S
C678 H699 0.930 . S
C679 C680 1.413 . S
C679 C681 1.427 . S
C679 C685 1.416 . S
C680 C673 1.424 . S
C680 C679 1.413 . S
C680 N684 1.361 . S
C681 C679 1.427 . S
C681 C682 1.328 . S
C681 H696 0.929 . S
C682 C676 1.448 1_455 S
C682 C681 1.328 . S
C682 H697 0.900 1_455 S
Tb683 N674 2.617 1_455 S
Tb683 N684 2.572 . S
Tb683 O718 2.349 . S
Tb683 O721 2.393 1_455 S
Tb683 O722 2.465 . S
Tb683 O723 2.387 . S
Tb683 O725 2.428 1_455 S
Tb683 O726 2.308 . S
Tb683 C747 2.802 . S
N684 C680 1.361 . S
N684 Tb683 2.572 . S
N684 C686 1.340 . S
C685 C679 1.416 . S
C685 C687 1.332 . S
C685 H693 0.931 . S
C686 N684 1.340 . S
C686 C687 1.407 . S
C686 H692 0.930 . S
C687 C685 1.332 . S
C687 C686 1.407 . S
C687 H689 0.929 . S
H688 C677 0.930 . S
H689 C687 0.929 . S
H690 C705 0.930 1_545 S
H691 C712 0.929 . S
H692 C686 0.930 . S
H693 C685 0.931 . S
H694 C708 0.922 1_655 S
H695 C675 0.930 . S
H696 C681 0.929 . S
H697 C682 0.900 1_655 S
H698 C703 0.930 . S
H699 C678 0.930 . S
H700 C711 0.931 . S
N701 Tb672 2.617 . S
N701 C702 1.379 . S
N701 C705 1.334 . S
C702 N701 1.379 . S
C702 C704 1.416 . S
C702 C710 1.424 . S
C703 H698 0.930 . S
C703 C705 1.390 . S
C703 C706 1.339 . S
C704 C702 1.416 . S
C704 C706 1.416 . S
C704 C737 1.448 . S
C705 H690 0.930 1_565 S
C705 N701 1.334 . S
C705 C703 1.390 . S
C706 C703 1.339 . S
C706 C704 1.416 . S
C706 H713 0.930 . S
N707 Tb672 2.572 . S
N707 C708 1.351 . S
N707 C710 1.361 . S
C708 H694 0.922 1_455 S
C708 N707 1.351 . S
C708 C712 1.404 1_455 S
C709 C710 1.413 . S
C709 C711 1.416 1_455 S
C709 C738 1.427 . S
C710 C702 1.424 . S
C710 N707 1.361 . S
C710 C709 1.413 . S
C711 H700 0.931 . S
C711 C709 1.416 1_655 S
C711 C712 1.332 . S
C712 H691 0.929 . S
C712 C708 1.404 1_655 S
C712 C711 1.332 . S
H713 C706 0.930 . S
H714 C737 0.930 . S
H715 C738 0.929 . S
O716 Tb672 2.465 . S
O716 C736 1.264 . S
O717 Tb672 2.387 1_545 S
O717 C728 1.264 . S
O718 Tb683 2.349 . S
O718 C728 1.243 . S
O719 Tb672 2.428 . S
O719 C736 1.256 . S
O720 Tb672 2.308 1_545 S
O720 C735 1.266 1_455 S
O721 Tb683 2.393 1_655 S
O721 C735 1.248 . S
O722 Tb683 2.465 . S
O722 C747 1.264 . S
O723 Tb683 2.387 . S
O723 C739 1.264 . S
O724 Tb672 2.349 1_545 S
O724 C739 1.243 . S
O725 Tb683 2.428 1_655 S
O725 C747 1.256 1_655 S
O726 Tb683 2.308 . S
O726 C746 1.266 . S
O727 Tb672 2.393 1_545 S
O727 C746 1.248 . S
C728 O717 1.264 . S
C728 O718 1.243 . S
C729 C732 1.399 . S
C729 C734 1.383 . S
C729 C736 1.496 . S
C730 C731 1.399 . S
C730 C734 1.389 . S
C731 C730 1.399 . S
C731 C733 1.380 . S
C731 H748 0.929 . S
C732 C729 1.399 . S
C732 C733 1.392 . S
C732 H749 0.929 . S
C733 C731 1.380 . S
C733 C732 1.392 . S
C733 H750 0.929 . S
C734 C729 1.383 . S
C734 C730 1.389 . S
C734 H751 0.931 . S
C735 O720 1.266 1_655 S
C735 O721 1.248 . S
C736 Tb672 2.802 . S
C736 O716 1.264 . S
C736 O719 1.256 . S
C736 C729 1.496 . S
C737 C704 1.448 . S
C737 H714 0.930 . S
C737 C738 1.328 . S
C738 C709 1.427 . S
C738 H715 0.929 . S
C738 C737 1.328 . S
C739 O723 1.264 . S
C739 O724 1.243 . S
C740 C743 1.399 1_455 S
C740 C744 1.383 . S
C740 C747 1.496 . S
C741 C742 1.399 1_455 S
C741 C744 1.389 . S
C742 C741 1.399 1_655 S
C742 C745 1.380 . S
C742 H752 0.929 . S
C743 C740 1.399 1_655 S
C743 C745 1.392 . S
C743 H753 0.929 . S
C744 C740 1.383 . S
C744 C741 1.389 . S
C744 H754 0.931 . S
C745 C742 1.380 . S
C745 C743 1.392 . S
C745 H755 0.929 . S
C746 O726 1.266 . S
C746 O727 1.248 . S
C747 Tb683 2.802 . S
C747 O722 1.264 . S
C747 O725 1.256 1_455 S
C747 C740 1.496 . S
H748 C731 0.929 . S
H749 C732 0.929 . S
H750 C733 0.929 . S
H751 C734 0.931 . S
H752 C742 0.929 . S
H753 C743 0.929 . S
H754 C744 0.931 . S
H755 C745 0.929 . S
Tb756 N785 2.617 . S
Tb756 N791 2.572 . S
Tb756 O800 2.465 . S
Tb756 O801 2.387 . S
Tb756 O803 2.428 . S
Tb756 O804 2.308 . S
Tb756 O808 2.349 . S
Tb756 O811 2.393 . S
Tb756 C820 2.802 . S
C757 N758 1.379 . S
C757 C760 1.416 . S
C757 C764 1.424 . S
N758 C757 1.379 . S
N758 C761 1.334 . S
N758 Tb767 2.617 . S
C759 C761 1.390 . S
C759 C762 1.339 . S
C759 H779 0.930 . S
C760 C757 1.416 . S
C760 C762 1.416 . S
C760 C766 1.448 . S
C761 N758 1.334 . S
C761 C759 1.390 . S
C761 H772 0.930 . S
C762 C759 1.339 . S
C762 C760 1.416 . S
C762 H783 0.930 . S
C763 C764 1.413 . S
C763 C765 1.427 . S
C763 C769 1.416 . S
C764 C757 1.424 . S
C764 C763 1.413 . S
C764 N768 1.361 . S
C765 C763 1.427 . S
C765 C766 1.328 . S
C765 H780 0.929 . S
C766 C760 1.448 . S
C766 C765 1.328 . S
C766 H781 0.930 . S
Tb767 N758 2.617 . S
Tb767 N768 2.572 . S
Tb767 O802 2.349 . S
Tb767 O805 2.393 . S
Tb767 O806 2.465 . S
Tb767 O807 2.387 . S
Tb767 O809 2.428 . S
Tb767 O810 2.308 . S
Tb767 C831 2.802 . S
N768 C764 1.361 . S
N768 Tb767 2.572 . S
N768 C770 1.340 . S
C769 C763 1.416 . S
C769 C771 1.332 . S
C769 H777 0.931 . S
C770 N768 1.340 . S
C770 C771 1.407 . S
C770 H776 0.930 . S
C771 C769 1.332 . S
C771 C770 1.407 . S
C771 H773 0.929 . S
H772 C761 0.930 . S
H773 C771 0.929 . S
H774 C789 0.930 . S
H775 C796 0.929 . S
H776 C770 0.930 . S
H777 C769 0.931 . S
H778 C792 0.930 . S
H779 C759 0.930 . S
H780 C765 0.929 . S
H781 C766 0.930 . S
H782 C787 0.930 . S
H783 C762 0.930 . S
H784 C795 0.931 . S
N785 Tb756 2.617 . S
N785 C786 1.379 . S
N785 C789 1.334 . S
C786 N785 1.379 . S
C786 C788 1.416 . S
C786 C794 1.424 . S
C787 H782 0.930 . S
C787 C789 1.390 . S
C787 C790 1.339 . S
C788 C786 1.416 . S
C788 C790 1.416 . S
C788 C821 1.448 . S
C789 H774 0.930 . S
C789 N785 1.334 . S
C789 C787 1.390 . S
C790 C787 1.339 . S
C790 C788 1.416 . S
C790 H797 0.930 . S
N791 Tb756 2.572 . S
N791 C792 1.340 . S
N791 C794 1.361 . S
C792 H778 0.930 . S
C792 N791 1.340 . S
C792 C796 1.407 . S
C793 C794 1.413 . S
C793 C795 1.416 . S
C793 C822 1.427 . S
C794 C786 1.424 . S
C794 N791 1.361 . S
C794 C793 1.413 . S
C795 H784 0.931 . S
C795 C793 1.416 . S
C795 C796 1.332 . S
C796 H775 0.929 . S
C796 C792 1.407 . S
C796 C795 1.332 . S
H797 C790 0.930 . S
H798 C821 0.930 . S
H799 C822 0.929 . S
O800 Tb756 2.465 . S
O800 C820 1.264 . S
O801 Tb756 2.387 . S
O801 C812 1.264 . S
O802 Tb767 2.349 . S
O802 C812 1.243 . S
O803 Tb756 2.428 . S
O803 C820 1.256 . S
O804 Tb756 2.308 . S
O804 C819 1.266 . S
O805 Tb767 2.393 . S
O805 C819 1.248 . S
O806 Tb767 2.465 . S
O806 C831 1.264 . S
O807 Tb767 2.387 . S
O807 C823 1.264 . S
O808 Tb756 2.349 . S
O808 C823 1.243 . S
O809 Tb767 2.428 . S
O809 C831 1.256 . S
O810 Tb767 2.308 . S
O810 C830 1.266 . S
O811 Tb756 2.393 . S
O811 C830 1.248 . S
C812 O801 1.264 . S
C812 O802 1.243 . S
C813 C816 1.399 . S
C813 C818 1.383 . S
C813 C820 1.496 . S
C814 C815 1.399 . S
C814 C818 1.389 . S
C815 C814 1.399 . S
C815 C817 1.380 . S
C815 H832 0.929 . S
C816 C813 1.399 . S
C816 C817 1.392 . S
C816 H833 0.929 . S
C817 C815 1.380 . S
C817 C816 1.392 . S
C817 H834 0.929 . S
C818 C813 1.383 . S
C818 C814 1.389 . S
C818 H835 0.931 . S
C819 O804 1.266 . S
C819 O805 1.248 . S
C820 Tb756 2.802 . S
C820 O800 1.264 . S
C820 O803 1.256 . S
C820 C813 1.496 . S
C821 C788 1.448 . S
C821 H798 0.930 . S
C821 C822 1.328 . S
C822 C793 1.427 . S
C822 H799 0.929 . S
C822 C821 1.328 . S
C823 O807 1.264 . S
C823 O808 1.243 . S
C824 C827 1.399 . S
C824 C828 1.383 . S
C824 C831 1.496 . S
C825 C826 1.399 . S
C825 C828 1.389 . S
C826 C825 1.399 . S
C826 C829 1.380 . S
C826 H836 0.929 . S
C827 C824 1.399 . S
C827 C829 1.392 . S
C827 H837 0.929 . S
C828 C824 1.383 . S
C828 C825 1.389 . S
C828 H838 0.931 . S
C829 C826 1.380 . S
C829 C827 1.392 . S
C829 H839 0.929 . S
C830 O810 1.266 . S
C830 O811 1.248 . S
C831 Tb767 2.802 . S
C831 O806 1.264 . S
C831 O809 1.256 . S
C831 C824 1.496 . S
H832 C815 0.929 . S
H833 C816 0.929 . S
H834 C817 0.929 . S
H835 C818 0.931 . S
H836 C826 0.929 . S
H837 C827 0.929 . S
H838 C828 0.931 . S
H839 C829 0.929 . S
Tb840 N869 2.617 . S
Tb840 N875 2.572 . S
Tb840 O884 2.465 . S
Tb840 O885 2.387 1_556 S
Tb840 O887 2.428 . S
Tb840 O888 2.305 1_556 S
Tb840 O892 2.349 1_556 S
Tb840 O895 2.393 1_556 S
Tb840 C904 2.802 . S
C841 N842 1.390 . S
C841 C844 1.453 . S
C841 C848 1.376 1_565 S
N842 C841 1.390 . S
N842 C845 1.334 . S
N842 Tb851 2.617 1_565 S
C843 C845 1.390 . S
C843 C846 1.339 . S
C843 H863 0.930 . S
C844 C841 1.453 . S
C844 C846 1.416 . S
C844 C850 1.448 . S
C845 N842 1.334 . S
C845 C843 1.390 . S
C845 H856 0.930 . S
C846 C843 1.339 . S
C846 C844 1.416 . S
C846 H867 0.930 . S
C847 C848 1.413 . S
C847 C849 1.427 . S
C847 C853 1.416 . S
C848 C841 1.376 1_545 S
C848 C847 1.413 . S
C848 N852 1.361 . S
C849 C847 1.427 . S
C849 C850 1.328 1_545 S
C849 H864 0.929 . S
C850 C844 1.448 . S
C850 C849 1.328 1_565 S
C850 H865 0.930 . S
Tb851 N842 2.617 1_545 S
Tb851 N852 2.572 . S
Tb851 O886 2.349 . S
Tb851 O889 2.393 1_545 S
Tb851 O890 2.465 . S
Tb851 O891 2.387 . S
Tb851 O893 2.428 1_545 S
Tb851 O894 2.308 . S
Tb851 C915 2.802 . S
N852 C848 1.361 . S
N852 Tb851 2.572 . S
N852 C854 1.340 . S
C853 C847 1.416 . S
C853 C855 1.332 . S
C853 H861 0.931 . S
C854 N852 1.340 . S
C854 C855 1.407 . S
C854 H860 0.930 . S
C855 C853 1.332 . S
C855 C854 1.407 . S
C855 H857 0.929 . S
H856 C845 0.930 . S
H857 C855 0.929 . S
H858 C873 0.930 1_554 S
H859 C880 0.929 . S
H860 C854 0.930 . S
H861 C853 0.931 . S
H862 C876 0.966 . S
H863 C843 0.930 . S
H864 C849 0.929 . S
H865 C850 0.930 . S
H866 C871 0.930 . S
H867 C846 0.930 . S
H868 C879 0.936 . S
N869 Tb840 2.617 . S
N869 C870 1.379 . S
N869 C873 1.334 . S
C870 N869 1.379 . S
C870 C872 1.416 . S
C870 C878 1.424 . S
C871 H866 0.930 . S
C871 C873 1.390 . S
C871 C874 1.339 . S
C872 C870 1.416 . S
C872 C874 1.416 . S
C872 C905 1.448 . S
C873 H858 0.930 1_556 S
C873 N869 1.334 . S
C873 C871 1.390 . S
C874 C871 1.339 . S
C874 C872 1.416 . S
C874 H881 0.930 . S
N875 Tb840 2.572 . S
N875 C876 1.340 . S
N875 C878 1.361 . S
C876 H862 0.966 . S
C876 N875 1.340 . S
C876 C880 1.407 1_545 S
C877 C878 1.413 . S
C877 C879 1.416 . S
C877 C906 1.427 . S
C878 C870 1.424 . S
C878 N875 1.361 . S
C878 C877 1.413 . S
C879 H868 0.936 . S
C879 C877 1.416 . S
C879 C880 1.332 1_545 S
C880 H859 0.929 . S
C880 C876 1.407 1_565 S
C880 C879 1.332 1_565 S
H881 C874 0.930 . S
H882 C905 0.930 . S
H883 C906 0.929 . S
O884 Tb840 2.465 . S
O884 C904 1.264 . S
O885 Tb840 2.387 1_554 S
O885 C896 1.264 . S
O886 Tb851 2.349 . S
O886 C896 1.243 . S
O887 Tb840 2.428 . S
O887 C904 1.256 . S
O888 Tb840 2.305 1_554 S
O888 C903 1.272 1_545 S
O889 Tb851 2.393 1_565 S
O889 C903 1.248 . S
O890 Tb851 2.465 . S
O890 C915 1.264 . S
O891 Tb851 2.387 . S
O891 C907 1.264 . S
O892 Tb840 2.349 1_554 S
O892 C907 1.243 . S
O893 Tb851 2.428 1_565 S
O893 C915 1.256 1_565 S
O894 Tb851 2.308 . S
O894 C914 1.266 . S
O895 Tb840 2.393 1_554 S
O895 C914 1.248 . S
C896 O885 1.264 . S
C896 O886 1.243 . S
C897 C900 1.399 . S
C897 C902 1.383 . S
C897 C904 1.496 . S
C898 C899 1.399 . S
C898 C902 1.389 . S
C899 C898 1.399 . S
C899 C901 1.380 . S
C899 H916 0.929 . S
C900 C897 1.399 . S
C900 C901 1.392 . S
C900 H917 0.929 . S
C901 C899 1.380 . S
C901 C900 1.392 . S
C901 H918 0.929 . S
C902 C897 1.383 . S
C902 C898 1.389 . S
C902 H919 0.931 . S
C903 O888 1.272 1_565 S
C903 O889 1.248 . S
C904 Tb840 2.802 . S
C904 O884 1.264 . S
C904 O887 1.256 . S
C904 C897 1.496 . S
C905 C872 1.448 . S
C905 H882 0.930 . S
C905 C906 1.328 . S
C906 C877 1.427 . S
C906 H883 0.929 . S
C906 C905 1.328 . S
C907 O891 1.264 . S
C907 O892 1.243 . S
C908 C911 1.399 . S
C908 C912 1.383 1_565 S
C908 C915 1.496 1_565 S
C909 C910 1.399 1_545 S
C909 C912 1.389 . S
C910 C909 1.399 1_565 S
C910 C913 1.380 . S
C910 H920 0.929 . S
C911 C908 1.399 . S
C911 C913 1.392 . S
C911 H921 0.929 . S
C912 C908 1.383 1_545 S
C912 C909 1.389 . S
C912 H922 0.931 . S
C913 C910 1.380 . S
C913 C911 1.392 . S
C913 H923 0.929 . S
C914 O894 1.266 . S
C914 O895 1.248 . S
C915 Tb851 2.802 . S
C915 O890 1.264 . S
C915 O893 1.256 1_545 S
C915 C908 1.496 1_545 S
H916 C899 0.929 . S
H917 C900 0.929 . S
H918 C901 0.929 . S
H919 C902 0.931 . S
H920 C910 0.929 . S
H921 C911 0.929 . S
H922 C912 0.931 . S
H923 C913 0.929 . S
Tb924 N953 2.617 . S
Tb924 N959 2.572 . S
Tb924 O968 2.465 . S
Tb924 O969 2.387 . S
Tb924 O971 2.428 . S
Tb924 O972 2.308 . S
Tb924 O976 2.349 . S
Tb924 O979 2.393 . S
Tb924 C988 2.802 . S
C925 N926 1.379 . S
C925 C928 1.416 . S
C925 C932 1.424 . S
N926 C925 1.379 . S
N926 C929 1.334 . S
N926 Tb935 2.617 . S
C927 C929 1.390 . S
C927 C930 1.339 . S
C927 H947 0.930 . S
C928 C925 1.416 . S
C928 C930 1.416 . S
C928 C934 1.448 . S
C929 N926 1.334 . S
C929 C927 1.390 . S
C929 H940 0.930 . S
C930 C927 1.339 . S
C930 C928 1.416 . S
C930 H951 0.930 . S
C931 C932 1.413 . S
C931 C933 1.427 . S
C931 C937 1.416 . S
C932 C925 1.424 . S
C932 C931 1.413 . S
C932 N936 1.361 . S
C933 C931 1.427 . S
C933 C934 1.328 . S
C933 H948 0.929 . S
C934 C928 1.448 . S
C934 C933 1.328 . S
C934 H949 0.930 . S
Tb935 N926 2.617 . S
Tb935 N936 2.572 . S
Tb935 O970 2.349 . S
Tb935 O973 2.393 . S
Tb935 O974 2.465 . S
Tb935 O975 2.387 . S
Tb935 O977 2.428 . S
Tb935 O978 2.308 . S
Tb935 C999 2.802 . S
N936 C932 1.361 . S
N936 Tb935 2.572 . S
N936 C938 1.340 . S
C937 C931 1.416 . S
C937 C939 1.332 . S
C937 H945 0.931 . S
C938 N936 1.340 . S
C938 C939 1.407 . S
C938 H944 0.930 . S
C939 C937 1.332 . S
C939 C938 1.407 . S
C939 H941 0.929 . S
H940 C929 0.930 . S
H941 C939 0.929 . S
H942 C957 0.930 . S
H943 C964 0.929 . S
H944 C938 0.930 . S
H945 C937 0.931 . S
H946 C960 0.930 . S
H947 C927 0.930 . S
H948 C933 0.929 . S
H949 C934 0.930 . S
H950 C955 0.930 . S
H951 C930 0.930 . S
H952 C963 0.931 . S
N953 Tb924 2.617 . S
N953 C954 1.379 . S
N953 C957 1.334 . S
C954 N953 1.379 . S
C954 C956 1.416 . S
C954 C962 1.424 . S
C955 H950 0.930 . S
C955 C957 1.390 . S
C955 C958 1.339 . S
C956 C954 1.416 . S
C956 C958 1.416 . S
C956 C989 1.448 . S
C957 H942 0.930 . S
C957 N953 1.334 . S
C957 C955 1.390 . S
C958 C955 1.339 . S
C958 C956 1.416 . S
C958 H965 0.930 . S
N959 Tb924 2.572 . S
N959 C960 1.340 . S
N959 C962 1.361 . S
C960 H946 0.930 . S
C960 N959 1.340 . S
C960 C964 1.407 . S
C961 C962 1.413 . S
C961 C963 1.416 . S
C961 C990 1.427 . S
C962 C954 1.424 . S
C962 N959 1.361 . S
C962 C961 1.413 . S
C963 H952 0.931 . S
C963 C961 1.416 . S
C963 C964 1.332 . S
C964 H943 0.929 . S
C964 C960 1.407 . S
C964 C963 1.332 . S
H965 C958 0.930 . S
H966 C989 0.930 . S
H967 C990 0.929 . S
O968 Tb924 2.465 . S
O968 C988 1.264 . S
O969 Tb924 2.387 . S
O969 C980 1.264 . S
O970 Tb935 2.349 . S
O970 C980 1.243 . S
O971 Tb924 2.428 . S
O971 C988 1.256 . S
O972 Tb924 2.308 . S
O972 C987 1.266 . S
O973 Tb935 2.393 . S
O973 C987 1.248 . S
O974 Tb935 2.465 . S
O974 C999 1.264 . S
O975 Tb935 2.387 . S
O975 C991 1.264 . S
O976 Tb924 2.349 . S
O976 C991 1.243 . S
O977 Tb935 2.428 . S
O977 C999 1.256 . S
O978 Tb935 2.308 . S
O978 C998 1.266 . S
O979 Tb924 2.393 . S
O979 C998 1.248 . S
C980 O969 1.264 . S
C980 O970 1.243 . S
C981 C984 1.399 . S
C981 C986 1.383 . S
C981 C988 1.496 . S
C982 C983 1.399 . S
C982 C986 1.389 . S
C983 C982 1.399 . S
C983 C985 1.380 . S
C983 H1000 0.929 . S
C984 C981 1.399 . S
C984 C985 1.392 . S
C984 H1001 0.929 . S
C985 C983 1.380 . S
C985 C984 1.392 . S
C985 H1002 0.929 . S
C986 C981 1.383 . S
C986 C982 1.389 . S
C986 H1003 0.931 . S
C987 O972 1.266 . S
C987 O973 1.248 . S
C988 Tb924 2.802 . S
C988 O968 1.264 . S
C988 O971 1.256 . S
C988 C981 1.496 . S
C989 C956 1.448 . S
C989 H966 0.930 . S
C989 C990 1.328 . S
C990 C961 1.427 . S
C990 H967 0.929 . S
C990 C989 1.328 . S
C991 O975 1.264 . S
C991 O976 1.243 . S
C992 C995 1.399 . S
C992 C996 1.383 . S
C992 C999 1.496 . S
C993 C994 1.399 . S
C993 C996 1.389 . S
C994 C993 1.399 . S
C994 C997 1.380 . S
C994 H1004 0.929 . S
C995 C992 1.399 . S
C995 C997 1.392 . S
C995 H1005 0.929 . S
C996 C992 1.383 . S
C996 C993 1.389 . S
C996 H1006 0.931 . S
C997 C994 1.380 . S
C997 C995 1.392 . S
C997 H1007 0.929 . S
C998 O978 1.266 . S
C998 O979 1.248 . S
C999 Tb935 2.802 . S
C999 O974 1.264 . S
C999 O977 1.256 . S
C999 C992 1.496 . S
H1000 C983 0.929 . S
H1001 C984 0.929 . S
H1002 C985 0.929 . S
H1003 C986 0.931 . S
H1004 C994 0.929 . S
H1005 C995 0.929 . S
H1006 C996 0.931 . S
H1007 C997 0.929 . S
Tb1008 N1037 2.617 1_554 S
Tb1008 N1043 2.572 1_554 S
Tb1008 O1052 2.465 . S
Tb1008 O1053 2.387 1_554 S
Tb1008 O1055 2.428 . S
Tb1008 O1056 2.308 . S
Tb1008 O1060 2.349 . S
Tb1008 O1063 2.393 . S
Tb1008 C1072 2.802 . S
C1009 N1010 1.379 . S
C1009 C1012 1.416 . S
C1009 C1016 1.424 . S
N1010 C1009 1.379 . S
N1010 C1013 1.334 . S
N1010 Tb1019 2.617 . S
C1011 C1013 1.390 . S
C1011 C1014 1.339 . S
C1011 H1031 0.930 . S
C1012 C1009 1.416 . S
C1012 C1014 1.416 . S
C1012 C1018 1.448 . S
C1013 N1010 1.334 . S
C1013 C1011 1.390 . S
C1013 H1024 0.930 . S
C1014 C1011 1.339 . S
C1014 C1012 1.416 . S
C1014 H1035 0.930 . S
C1015 C1016 1.413 . S
C1015 C1017 1.427 . S
C1015 C1021 1.416 . S
C1016 C1009 1.424 . S
C1016 C1015 1.413 . S
C1016 N1020 1.361 . S
C1017 C1015 1.427 . S
C1017 C1018 1.328 . S
C1017 H1032 0.929 . S
C1018 C1012 1.448 . S
C1018 C1017 1.328 . S
C1018 H1033 0.930 . S
Tb1019 N1010 2.617 . S
Tb1019 N1020 2.572 . S
Tb1019 O1054 2.349 1_554 S
Tb1019 O1057 2.393 . S
Tb1019 O1058 2.465 . S
Tb1019 O1059 2.387 . S
Tb1019 O1061 2.428 . S
Tb1019 O1062 2.308 . S
Tb1019 C1083 2.802 . S
N1020 C1016 1.361 . S
N1020 Tb1019 2.572 . S
N1020 C1022 1.340 . S
C1021 C1015 1.416 . S
C1021 C1023 1.332 . S
C1021 H1029 0.931 . S
C1022 N1020 1.340 . S
C1022 C1023 1.407 . S
C1022 H1028 0.930 . S
C1023 C1021 1.332 . S
C1023 C1022 1.407 . S
C1023 H1025 0.929 . S
H1024 C1013 0.930 . S
H1025 C1023 0.929 . S
H1026 C1041 0.930 1_554 S
H1027 C1048 0.929 . S
H1028 C1022 0.930 . S
H1029 C1021 0.931 . S
H1030 C1044 0.930 1_554 S
H1031 C1011 0.930 . S
H1032 C1017 0.929 . S
H1033 C1018 0.930 . S
H1034 C1039 0.930 . S
H1035 C1014 0.930 . S
H1036 C1047 0.931 . S
N1037 Tb1008 2.617 1_556 S
N1037 C1038 1.379 . S
N1037 C1041 1.334 . S
C1038 N1037 1.379 . S
C1038 C1040 1.416 . S
C1038 C1046 1.424 . S
C1039 H1034 0.930 . S
C1039 C1041 1.390 . S
C1039 C1042 1.339 . S
C1040 C1038 1.416 . S
C1040 C1042 1.416 . S
C1040 C1073 1.448 . S
C1041 H1026 0.930 1_556 S
C1041 N1037 1.334 . S
C1041 C1039 1.390 . S
C1042 C1039 1.339 . S
C1042 C1040 1.416 . S
C1042 H1049 0.930 . S
N1043 Tb1008 2.572 1_556 S
N1043 C1044 1.340 . S
N1043 C1046 1.361 . S
C1044 H1030 0.930 1_556 S
C1044 N1043 1.340 . S
C1044 C1048 1.407 . S
C1045 C1046 1.413 . S
C1045 C1047 1.416 . S
C1045 C1074 1.427 . S
C1046 C1038 1.424 . S
C1046 N1043 1.361 . S
C1046 C1045 1.413 . S
C1047 H1036 0.931 . S
C1047 C1045 1.416 . S
C1047 C1048 1.332 . S
C1048 H1027 0.929 . S
C1048 C1044 1.407 . S
C1048 C1047 1.332 . S
H1049 C1042 0.930 . S
H1050 C1073 0.930 . S
H1051 C1074 0.929 . S
O1052 Tb1008 2.465 . S
O1052 C1072 1.264 . S
O1053 Tb1008 2.387 1_556 S
O1053 C1064 1.264 . S
O1054 Tb1019 2.349 1_556 S
O1054 C1064 1.243 . S
O1055 Tb1008 2.428 . S
O1055 C1072 1.256 . S
O1056 Tb1008 2.308 . S
O1056 C1071 1.266 . S
O1057 Tb1019 2.393 . S
O1057 C1071 1.248 . S
O1058 Tb1019 2.465 . S
O1058 C1083 1.264 . S
O1059 Tb1019 2.387 . S
O1059 C1075 1.264 . S
O1060 Tb1008 2.349 . S
O1060 C1075 1.243 . S
O1061 Tb1019 2.428 . S
O1061 C1083 1.256 . S
O1062 Tb1019 2.308 . S
O1062 C1082 1.266 . S
O1063 Tb1008 2.393 . S
O1063 C1082 1.248 . S
C1064 O1053 1.264 . S
C1064 O1054 1.243 . S
C1065 C1068 1.399 . S
C1065 C1070 1.383 . S
C1065 C1072 1.496 . S
C1066 C1067 1.399 . S
C1066 C1070 1.389 . S
C1067 C1066 1.399 . S
C1067 C1069 1.380 . S
C1067 H1084 0.929 . S
C1068 C1065 1.399 . S
C1068 C1069 1.392 . S
C1068 H1085 0.929 . S
C1069 C1067 1.380 . S
C1069 C1068 1.392 . S
C1069 H1086 0.929 . S
C1070 C1065 1.383 . S
C1070 C1066 1.389 . S
C1070 H1087 0.931 . S
C1071 O1056 1.266 . S
C1071 O1057 1.248 . S
C1072 Tb1008 2.802 . S
C1072 O1052 1.264 . S
C1072 O1055 1.256 . S
C1072 C1065 1.496 . S
C1073 C1040 1.448 . S
C1073 H1050 0.930 . S
C1073 C1074 1.328 . S
C1074 C1045 1.427 . S
C1074 H1051 0.929 . S
C1074 C1073 1.328 . S
C1075 O1059 1.264 . S
C1075 O1060 1.243 . S
C1076 C1079 1.399 . S
C1076 C1080 1.383 . S
C1076 C1083 1.496 1_556 S
C1077 C1078 1.399 . S
C1077 C1080 1.389 . S
C1078 C1077 1.399 . S
C1078 C1081 1.380 . S
C1078 H1088 0.929 . S
C1079 C1076 1.399 . S
C1079 C1081 1.392 . S
C1079 H1089 0.927 . S
C1080 C1076 1.383 . S
C1080 C1077 1.389 . S
C1080 H1090 0.931 . S
C1081 C1078 1.380 . S
C1081 C1079 1.392 . S
C1081 H1091 0.929 . S
C1082 O1062 1.266 . S
C1082 O1063 1.248 . S
C1083 Tb1019 2.802 . S
C1083 O1058 1.264 . S
C1083 O1061 1.256 . S
C1083 C1076 1.496 1_554 S
H1084 C1067 0.929 . S
H1085 C1068 0.929 . S
H1086 C1069 0.929 . S
H1087 C1070 0.931 . S
H1088 C1078 0.929 . S
H1089 C1079 0.927 . S
H1090 C1080 0.931 . S
H1091 C1081 0.929 . S
Tb1092 N1121 2.617 . S
Tb1092 N1127 2.572 . S
Tb1092 O1136 2.465 . S
Tb1092 O1137 2.387 . S
Tb1092 O1139 2.428 . S
Tb1092 O1140 2.308 . S
Tb1092 O1144 2.349 . S
Tb1092 O1147 2.393 . S
Tb1092 C1156 2.802 . S
C1093 N1094 1.379 . S
C1093 C1096 1.416 . S
C1093 C1100 1.424 . S
N1094 C1093 1.379 . S
N1094 C1097 1.334 . S
N1094 Tb1103 2.617 . S
C1095 C1097 1.390 . S
C1095 C1098 1.339 . S
C1095 H1115 0.930 . S
C1096 C1093 1.416 . S
C1096 C1098 1.416 . S
C1096 C1102 1.448 . S
C1097 N1094 1.334 . S
C1097 C1095 1.390 . S
C1097 H1108 0.930 . S
C1098 C1095 1.339 . S
C1098 C1096 1.416 . S
C1098 H1119 0.930 . S
C1099 C1100 1.413 . S
C1099 C1101 1.427 . S
C1099 C1105 1.416 . S
C1100 C1093 1.424 . S
C1100 C1099 1.413 . S
C1100 N1104 1.361 . S
C1101 C1099 1.427 . S
C1101 C1102 1.328 . S
C1101 H1116 0.929 . S
C1102 C1096 1.448 . S
C1102 C1101 1.328 . S
C1102 H1117 0.930 . S
Tb1103 N1094 2.617 . S
Tb1103 N1104 2.572 . S
Tb1103 O1138 2.349 . S
Tb1103 O1141 2.393 . S
Tb1103 O1142 2.465 . S
Tb1103 O1143 2.387 . S
Tb1103 O1145 2.428 . S
Tb1103 O1146 2.308 . S
Tb1103 C1167 2.802 . S
N1104 C1100 1.361 . S
N1104 Tb1103 2.572 . S
N1104 C1106 1.340 . S
C1105 C1099 1.416 . S
C1105 C1107 1.332 . S
C1105 H1113 0.931 . S
C1106 N1104 1.340 . S
C1106 C1107 1.407 . S
C1106 H1112 0.930 . S
C1107 C1105 1.332 . S
C1107 C1106 1.407 . S
C1107 H1109 0.929 . S
H1108 C1097 0.930 . S
H1109 C1107 0.929 . S
H1110 C1125 0.930 . S
H1111 C1132 0.929 . S
H1112 C1106 0.930 . S
H1113 C1105 0.931 . S
H1114 C1128 0.930 . S
H1115 C1095 0.930 . S
H1116 C1101 0.929 . S
H1117 C1102 0.930 . S
H1118 C1123 0.930 . S
H1119 C1098 0.930 . S
H1120 C1131 0.931 . S
N1121 Tb1092 2.617 . S
N1121 C1122 1.379 . S
N1121 C1125 1.334 . S
C1122 N1121 1.379 . S
C1122 C1124 1.416 . S
C1122 C1130 1.424 . S
C1123 H1118 0.930 . S
C1123 C1125 1.390 . S
C1123 C1126 1.339 . S
C1124 C1122 1.416 . S
C1124 C1126 1.416 . S
C1124 C1157 1.448 . S
C1125 H1110 0.930 . S
C1125 N1121 1.334 . S
C1125 C1123 1.390 . S
C1126 C1123 1.339 . S
C1126 C1124 1.416 . S
C1126 H1133 0.930 . S
N1127 Tb1092 2.572 . S
N1127 C1128 1.340 . S
N1127 C1130 1.361 . S
C1128 H1114 0.930 . S
C1128 N1127 1.340 . S
C1128 C1132 1.407 . S
C1129 C1130 1.413 . S
C1129 C1131 1.416 . S
C1129 C1158 1.427 . S
C1130 C1122 1.424 . S
C1130 N1127 1.361 . S
C1130 C1129 1.413 . S
C1131 H1120 0.931 . S
C1131 C1129 1.416 . S
C1131 C1132 1.332 . S
C1132 H1111 0.929 . S
C1132 C1128 1.407 . S
C1132 C1131 1.332 . S
H1133 C1126 0.930 . S
H1134 C1157 0.930 . S
H1135 C1158 0.929 . S
O1136 Tb1092 2.465 . S
O1136 C1156 1.264 . S
O1137 Tb1092 2.387 . S
O1137 C1148 1.264 . S
O1138 Tb1103 2.349 . S
O1138 C1148 1.243 . S
O1139 Tb1092 2.428 . S
O1139 C1156 1.256 . S
O1140 Tb1092 2.308 . S
O1140 C1155 1.266 . S
O1141 Tb1103 2.393 . S
O1141 C1155 1.248 . S
O1142 Tb1103 2.465 . S
O1142 C1167 1.264 . S
O1143 Tb1103 2.387 . S
O1143 C1159 1.264 . S
O1144 Tb1092 2.349 . S
O1144 C1159 1.243 . S
O1145 Tb1103 2.428 . S
O1145 C1167 1.256 . S
O1146 Tb1103 2.308 . S
O1146 C1166 1.266 . S
O1147 Tb1092 2.393 . S
O1147 C1166 1.248 . S
C1148 O1137 1.264 . S
C1148 O1138 1.243 . S
C1149 C1152 1.399 . S
C1149 C1154 1.383 . S
C1149 C1156 1.496 . S
C1150 C1151 1.399 . S
C1150 C1154 1.389 . S
C1151 C1150 1.399 . S
C1151 C1153 1.380 . S
C1151 H1168 0.929 . S
C1152 C1149 1.399 . S
C1152 C1153 1.392 . S
C1152 H1169 0.929 . S
C1153 C1151 1.380 . S
C1153 C1152 1.392 . S
C1153 H1170 0.929 . S
C1154 C1149 1.383 . S
C1154 C1150 1.389 . S
C1154 H1171 0.931 . S
C1155 O1140 1.266 . S
C1155 O1141 1.248 . S
C1156 Tb1092 2.802 . S
C1156 O1136 1.264 . S
C1156 O1139 1.256 . S
C1156 C1149 1.496 . S
C1157 C1124 1.448 . S
C1157 H1134 0.930 . S
C1157 C1158 1.328 . S
C1158 C1129 1.427 . S
C1158 H1135 0.929 . S
C1158 C1157 1.328 . S
C1159 O1143 1.264 . S
C1159 O1144 1.243 . S
C1160 C1163 1.399 . S
C1160 C1164 1.383 . S
C1160 C1167 1.496 . S
C1161 C1162 1.399 . S
C1161 C1164 1.389 . S
C1162 C1161 1.399 . S
C1162 C1165 1.380 . S
C1162 H1172 0.929 . S
C1163 C1160 1.399 . S
C1163 C1165 1.392 . S
C1163 H1173 0.929 . S
C1164 C1160 1.383 . S
C1164 C1161 1.389 . S
C1164 H1174 0.931 . S
C1165 C1162 1.380 . S
C1165 C1163 1.392 . S
C1165 H1175 0.929 . S
C1166 O1146 1.266 . S
C1166 O1147 1.248 . S
C1167 Tb1103 2.802 . S
C1167 O1142 1.264 . S
C1167 O1145 1.256 . S
C1167 C1160 1.496 . S
H1168 C1151 0.929 . S
H1169 C1152 0.929 . S
H1170 C1153 0.929 . S
H1171 C1154 0.931 . S
H1172 C1162 0.929 . S
H1173 C1163 0.929 . S
H1174 C1164 0.931 . S
H1175 C1165 0.929 . S
Tb1176 N1205 2.617 1_455 S
Tb1176 N1211 2.572 1_455 S
Tb1176 O1220 2.465 . S
Tb1176 O1221 2.387 1_455 S
Tb1176 O1223 2.428 . S
Tb1176 O1224 2.308 . S
Tb1176 O1228 2.349 . S
Tb1176 O1231 2.393 . S
Tb1176 C1240 2.802 . S
C1177 N1178 1.379 . S
C1177 C1180 1.416 . S
C1177 C1184 1.424 . S
N1178 C1177 1.379 . S
N1178 C1181 1.334 . S
N1178 Tb1187 2.617 . S
C1179 C1181 1.390 . S
C1179 C1182 1.339 . S
C1179 H1199 0.930 . S
C1180 C1177 1.416 . S
C1180 C1182 1.416 . S
C1180 C1186 1.448 . S
C1181 N1178 1.334 . S
C1181 C1179 1.390 . S
C1181 H1192 0.930 . S
C1182 C1179 1.339 . S
C1182 C1180 1.416 . S
C1182 H1203 0.930 . S
C1183 C1184 1.413 . S
C1183 C1185 1.427 . S
C1183 C1189 1.416 . S
C1184 C1177 1.424 . S
C1184 C1183 1.413 . S
C1184 N1188 1.361 . S
C1185 C1183 1.427 . S
C1185 C1186 1.328 . S
C1185 H1200 0.929 . S
C1186 C1180 1.448 . S
C1186 C1185 1.328 . S
C1186 H1201 0.930 . S
Tb1187 N1178 2.617 . S
Tb1187 N1188 2.572 . S
Tb1187 O1222 2.349 1_455 S
Tb1187 O1225 2.393 . S
Tb1187 O1226 2.465 . S
Tb1187 O1227 2.387 . S
Tb1187 O1229 2.428 . S
Tb1187 O1230 2.308 . S
Tb1187 C1251 2.802 . S
N1188 C1184 1.361 . S
N1188 Tb1187 2.572 . S
N1188 C1190 1.340 . S
C1189 C1183 1.416 . S
C1189 C1191 1.332 . S
C1189 H1197 0.931 . S
C1190 N1188 1.340 . S
C1190 C1191 1.407 . S
C1190 H1196 0.930 . S
C1191 C1189 1.332 . S
C1191 C1190 1.407 . S
C1191 H1193 0.929 . S
H1192 C1181 0.930 . S
H1193 C1191 0.929 . S
H1194 C1209 0.897 1_455 S
H1195 C1216 0.929 . S
H1196 C1190 0.930 . S
H1197 C1189 0.931 . S
H1198 C1212 0.930 1_455 S
H1199 C1179 0.930 . S
H1200 C1185 0.929 . S
H1201 C1186 0.930 . S
H1202 C1207 0.930 . S
H1203 C1182 0.930 . S
H1204 C1215 0.931 . S
N1205 Tb1176 2.617 1_655 S
N1205 C1206 1.379 . S
N1205 C1209 1.326 . S
C1206 N1205 1.379 . S
C1206 C1208 1.416 . S
C1206 C1214 1.424 . S
C1207 H1202 0.930 . S
C1207 C1209 1.433 . S
C1207 C1210 1.339 . S
C1208 C1206 1.416 . S
C1208 C1210 1.416 . S
C1208 C1241 1.448 . S
C1209 H1194 0.897 1_655 S
C1209 N1205 1.326 . S
C1209 C1207 1.433 . S
C1210 C1207 1.339 . S
C1210 C1208 1.416 . S
C1210 H1217 0.930 . S
N1211 Tb1176 2.572 1_655 S
N1211 C1212 1.340 . S
N1211 C1214 1.361 . S
C1212 H1198 0.930 1_655 S
C1212 N1211 1.340 . S
C1212 C1216 1.407 . S
C1213 C1214 1.413 . S
C1213 C1215 1.416 . S
C1213 C1242 1.427 . S
C1214 C1206 1.424 . S
C1214 N1211 1.361 . S
C1214 C1213 1.413 . S
C1215 H1204 0.931 . S
C1215 C1213 1.416 . S
C1215 C1216 1.332 . S
C1216 H1195 0.929 . S
C1216 C1212 1.407 . S
C1216 C1215 1.332 . S
H1217 C1210 0.930 . S
H1218 C1241 0.930 . S
H1219 C1242 0.929 . S
O1220 Tb1176 2.465 . S
O1220 C1240 1.264 . S
O1221 Tb1176 2.387 1_655 S
O1221 C1232 1.264 . S
O1222 Tb1187 2.349 1_655 S
O1222 C1232 1.243 . S
O1223 Tb1176 2.428 . S
O1223 C1240 1.256 . S
O1224 Tb1176 2.308 . S
O1224 C1239 1.266 . S
O1225 Tb1187 2.393 . S
O1225 C1239 1.248 . S
O1226 Tb1187 2.465 . S
O1226 C1251 1.264 . S
O1227 Tb1187 2.387 . S
O1227 C1243 1.264 . S
O1228 Tb1176 2.349 . S
O1228 C1243 1.243 . S
O1229 Tb1187 2.428 . S
O1229 C1251 1.256 . S
O1230 Tb1187 2.308 . S
O1230 C1250 1.266 . S
O1231 Tb1176 2.393 . S
O1231 C1250 1.248 . S
C1232 O1221 1.264 . S
C1232 O1222 1.243 . S
C1233 C1236 1.399 . S
C1233 C1238 1.383 . S
C1233 C1240 1.496 . S
C1234 C1235 1.399 . S
C1234 C1238 1.389 . S
C1235 C1234 1.399 . S
C1235 C1237 1.380 . S
C1235 H1252 0.929 . S
C1236 C1233 1.399 . S
C1236 C1237 1.392 . S
C1236 H1253 0.929 . S
C1237 C1235 1.380 . S
C1237 C1236 1.392 . S
C1237 H1254 0.929 . S
C1238 C1233 1.383 . S
C1238 C1234 1.389 . S
C1238 H1255 0.931 . S
C1239 O1224 1.266 . S
C1239 O1225 1.248 . S
C1240 Tb1176 2.802 . S
C1240 O1220 1.264 . S
C1240 O1223 1.256 . S
C1240 C1233 1.496 . S
C1241 C1208 1.448 . S
C1241 H1218 0.930 . S
C1241 C1242 1.328 . S
C1242 C1213 1.427 . S
C1242 H1219 0.929 . S
C1242 C1241 1.328 . S
C1243 O1227 1.264 . S
C1243 O1228 1.243 . S
C1244 C1247 1.399 . S
C1244 C1248 1.383 . S
C1244 C1251 1.496 1_655 S
C1245 C1246 1.399 . S
C1245 C1248 1.389 . S
C1246 C1245 1.399 . S
C1246 C1249 1.380 . S
C1246 H1256 0.929 . S
C1247 C1244 1.399 . S
C1247 C1249 1.392 . S
C1247 H1257 0.929 . S
C1248 C1244 1.383 . S
C1248 C1245 1.389 . S
C1248 H1258 0.931 . S
C1249 C1246 1.380 . S
C1249 C1247 1.392 . S
C1249 H1259 0.929 . S
C1250 O1230 1.266 . S
C1250 O1231 1.248 . S
C1251 Tb1187 2.802 . S
C1251 O1226 1.264 . S
C1251 O1229 1.256 . S
C1251 C1244 1.496 1_455 S
H1252 C1235 0.929 . S
H1253 C1236 0.929 . S
H1254 C1237 0.929 . S
H1255 C1238 0.931 . S
H1256 C1246 0.929 . S
H1257 C1247 0.929 . S
H1258 C1248 0.931 . S
H1259 C1249 0.929 . S
Tb1260 N1289 2.617 . S
Tb1260 N1295 2.572 . S
Tb1260 O1304 2.465 . S
Tb1260 O1305 2.387 . S
Tb1260 O1307 2.428 . S
Tb1260 O1308 2.308 . S
Tb1260 O1312 2.349 . S
Tb1260 O1315 2.393 . S
Tb1260 C1324 2.802 . S
C1261 N1262 1.379 . S
C1261 C1264 1.416 . S
C1261 C1268 1.424 . S
N1262 C1261 1.379 . S
N1262 C1265 1.334 . S
N1262 Tb1271 2.617 . S
C1263 C1265 1.390 . S
C1263 C1266 1.339 . S
C1263 H1283 0.930 . S
C1264 C1261 1.416 . S
C1264 C1266 1.416 . S
C1264 C1270 1.448 . S
C1265 N1262 1.334 . S
C1265 C1263 1.390 . S
C1265 H1276 0.930 . S
C1266 C1263 1.339 . S
C1266 C1264 1.416 . S
C1266 H1287 0.930 . S
C1267 C1268 1.413 . S
C1267 C1269 1.427 . S
C1267 C1273 1.416 . S
C1268 C1261 1.424 . S
C1268 C1267 1.413 . S
C1268 N1272 1.361 . S
C1269 C1267 1.427 . S
C1269 C1270 1.328 . S
C1269 H1284 0.929 . S
C1270 C1264 1.448 . S
C1270 C1269 1.328 . S
C1270 H1285 0.930 . S
Tb1271 N1262 2.617 . S
Tb1271 N1272 2.572 . S
Tb1271 O1306 2.349 . S
Tb1271 O1309 2.393 . S
Tb1271 O1310 2.465 . S
Tb1271 O1311 2.387 . S
Tb1271 O1313 2.428 . S
Tb1271 O1314 2.308 . S
Tb1271 C1335 2.802 . S
N1272 C1268 1.361 . S
N1272 Tb1271 2.572 . S
N1272 C1274 1.340 . S
C1273 C1267 1.416 . S
C1273 C1275 1.332 . S
C1273 H1281 0.931 . S
C1274 N1272 1.340 . S
C1274 C1275 1.407 . S
C1274 H1280 0.930 . S
C1275 C1273 1.332 . S
C1275 C1274 1.407 . S
C1275 H1277 0.929 . S
H1276 C1265 0.930 . S
H1277 C1275 0.929 . S
H1278 C1293 0.930 . S
H1279 C1300 0.929 . S
H1280 C1274 0.930 . S
H1281 C1273 0.931 . S
H1282 C1296 0.930 . S
H1283 C1263 0.930 . S
H1284 C1269 0.929 . S
H1285 C1270 0.930 . S
H1286 C1291 0.930 . S
H1287 C1266 0.930 . S
H1288 C1299 0.931 . S
N1289 Tb1260 2.617 . S
N1289 C1290 1.379 . S
N1289 C1293 1.334 . S
C1290 N1289 1.379 . S
C1290 C1292 1.416 . S
C1290 C1298 1.424 . S
C1291 H1286 0.930 . S
C1291 C1293 1.390 . S
C1291 C1294 1.339 . S
C1292 C1290 1.416 . S
C1292 C1294 1.416 . S
C1292 C1325 1.448 . S
C1293 H1278 0.930 . S
C1293 N1289 1.334 . S
C1293 C1291 1.390 . S
C1294 C1291 1.339 . S
C1294 C1292 1.416 . S
C1294 H1301 0.930 . S
N1295 Tb1260 2.572 . S
N1295 C1296 1.340 . S
N1295 C1298 1.361 . S
C1296 H1282 0.930 . S
C1296 N1295 1.340 . S
C1296 C1300 1.407 . S
C1297 C1298 1.413 . S
C1297 C1299 1.416 . S
C1297 C1326 1.427 . S
C1298 C1290 1.424 . S
C1298 N1295 1.361 . S
C1298 C1297 1.413 . S
C1299 H1288 0.931 . S
C1299 C1297 1.416 . S
C1299 C1300 1.332 . S
C1300 H1279 0.929 . S
C1300 C1296 1.407 . S
C1300 C1299 1.332 . S
H1301 C1294 0.930 . S
H1302 C1325 0.930 . S
H1303 C1326 0.929 . S
O1304 Tb1260 2.465 . S
O1304 C1324 1.264 . S
O1305 Tb1260 2.387 . S
O1305 C1316 1.264 . S
O1306 Tb1271 2.349 . S
O1306 C1316 1.243 . S
O1307 Tb1260 2.428 . S
O1307 C1324 1.256 . S
O1308 Tb1260 2.308 . S
O1308 C1323 1.266 . S
O1309 Tb1271 2.393 . S
O1309 C1323 1.248 . S
O1310 Tb1271 2.465 . S
O1310 C1335 1.264 . S
O1311 Tb1271 2.387 . S
O1311 C1327 1.264 . S
O1312 Tb1260 2.349 . S
O1312 C1327 1.243 . S
O1313 Tb1271 2.428 . S
O1313 C1335 1.256 . S
O1314 Tb1271 2.308 . S
O1314 C1334 1.266 . S
O1315 Tb1260 2.393 . S
O1315 C1334 1.248 . S
C1316 O1305 1.264 . S
C1316 O1306 1.243 . S
C1317 C1320 1.399 . S
C1317 C1322 1.383 . S
C1317 C1324 1.496 . S
C1318 C1319 1.399 . S
C1318 C1322 1.389 . S
C1319 C1318 1.399 . S
C1319 C1321 1.380 . S
C1319 H1336 0.929 . S
C1320 C1317 1.399 . S
C1320 C1321 1.392 . S
C1320 H1337 0.929 . S
C1321 C1319 1.380 . S
C1321 C1320 1.392 . S
C1321 H1338 0.929 . S
C1322 C1317 1.383 . S
C1322 C1318 1.389 . S
C1322 H1339 0.931 . S
C1323 O1308 1.266 . S
C1323 O1309 1.248 . S
C1324 Tb1260 2.802 . S
C1324 O1304 1.264 . S
C1324 O1307 1.256 . S
C1324 C1317 1.496 . S
C1325 C1292 1.448 . S
C1325 H1302 0.930 . S
C1325 C1326 1.328 . S
C1326 C1297 1.427 . S
C1326 H1303 0.929 . S
C1326 C1325 1.328 . S
C1327 O1311 1.264 . S
C1327 O1312 1.243 . S
C1328 C1331 1.399 . S
C1328 C1332 1.383 . S
C1328 C1335 1.496 . S
C1329 C1330 1.399 . S
C1329 C1332 1.389 . S
C1330 C1329 1.399 . S
C1330 C1333 1.380 . S
C1330 H1340 0.929 . S
C1331 C1328 1.399 . S
C1331 C1333 1.392 . S
C1331 H1341 0.929 . S
C1332 C1328 1.383 . S
C1332 C1329 1.389 . S
C1332 H1342 0.931 . S
C1333 C1330 1.380 . S
C1333 C1331 1.392 . S
C1333 H1343 0.929 . S
C1334 O1314 1.266 . S
C1334 O1315 1.248 . S
C1335 Tb1271 2.802 . S
C1335 O1310 1.264 . S
C1335 O1313 1.256 . S
C1335 C1328 1.496 . S
H1336 C1319 0.929 . S
H1337 C1320 0.929 . S
H1338 C1321 0.929 . S
H1339 C1322 0.931 . S
H1340 C1330 0.929 . S
H1341 C1331 0.929 . S
H1342 C1332 0.931 . S
H1343 C1333 0.929 . S
Tb1344 N1373 2.617 . S
Tb1344 N1379 2.572 . S
Tb1344 O1388 2.465 . S
Tb1344 O1389 2.387 . S
Tb1344 O1391 2.428 . S
Tb1344 O1392 2.308 . S
Tb1344 O1396 2.349 . S
Tb1344 O1399 2.393 . S
Tb1344 C1408 2.802 . S
C1345 N1346 1.379 . S
C1345 C1348 1.416 . S
C1345 C1352 1.424 . S
N1346 C1345 1.379 . S
N1346 C1349 1.334 . S
N1346 Tb1355 2.617 . S
C1347 C1349 1.390 . S
C1347 C1350 1.339 . S
C1347 H1367 0.930 . S
C1348 C1345 1.416 . S
C1348 C1350 1.416 . S
C1348 C1354 1.448 . S
C1349 N1346 1.334 . S
C1349 C1347 1.390 . S
C1349 H1360 0.930 . S
C1350 C1347 1.339 . S
C1350 C1348 1.416 . S
C1350 H1371 0.930 . S
C1351 C1352 1.413 . S
C1351 C1353 1.427 . S
C1351 C1357 1.416 . S
C1352 C1345 1.424 . S
C1352 C1351 1.413 . S
C1352 N1356 1.361 . S
C1353 C1351 1.427 . S
C1353 C1354 1.328 . S
C1353 H1368 0.929 . S
C1354 C1348 1.448 . S
C1354 C1353 1.328 . S
C1354 H1369 0.930 . S
Tb1355 N1346 2.617 . S
Tb1355 N1356 2.572 . S
Tb1355 O1390 2.349 . S
Tb1355 O1393 2.393 . S
Tb1355 O1394 2.465 . S
Tb1355 O1395 2.387 . S
Tb1355 O1397 2.428 . S
Tb1355 O1398 2.308 . S
Tb1355 C1419 2.802 . S
N1356 C1352 1.361 . S
N1356 Tb1355 2.572 . S
N1356 C1358 1.340 . S
C1357 C1351 1.416 . S
C1357 C1359 1.332 . S
C1357 H1365 0.931 . S
C1358 N1356 1.340 . S
C1358 C1359 1.407 . S
C1358 H1364 0.930 . S
C1359 C1357 1.332 . S
C1359 C1358 1.407 . S
C1359 H1361 0.929 . S
H1360 C1349 0.930 . S
H1361 C1359 0.929 . S
H1362 C1377 0.930 . S
H1363 C1384 0.929 . S
H1364 C1358 0.930 . S
H1365 C1357 0.931 . S
H1366 C1380 0.930 . S
H1367 C1347 0.930 . S
H1368 C1353 0.929 . S
H1369 C1354 0.930 . S
H1370 C1375 0.930 . S
H1371 C1350 0.930 . S
H1372 C1383 0.931 . S
N1373 Tb1344 2.617 . S
N1373 C1374 1.379 . S
N1373 C1377 1.334 . S
C1374 N1373 1.379 . S
C1374 C1376 1.416 . S
C1374 C1382 1.424 . S
C1375 H1370 0.930 . S
C1375 C1377 1.390 . S
C1375 C1378 1.339 . S
C1376 C1374 1.416 . S
C1376 C1378 1.416 . S
C1376 C1409 1.448 . S
C1377 H1362 0.930 . S
C1377 N1373 1.334 . S
C1377 C1375 1.390 . S
C1378 C1375 1.339 . S
C1378 C1376 1.416 . S
C1378 H1385 0.930 . S
N1379 Tb1344 2.572 . S
N1379 C1380 1.340 . S
N1379 C1382 1.361 . S
C1380 H1366 0.930 . S
C1380 N1379 1.340 . S
C1380 C1384 1.407 . S
C1381 C1382 1.413 . S
C1381 C1383 1.416 . S
C1381 C1410 1.427 . S
C1382 C1374 1.424 . S
C1382 N1379 1.361 . S
C1382 C1381 1.413 . S
C1383 H1372 0.931 . S
C1383 C1381 1.416 . S
C1383 C1384 1.332 . S
C1384 H1363 0.929 . S
C1384 C1380 1.407 . S
C1384 C1383 1.332 . S
H1385 C1378 0.930 . S
H1386 C1409 0.930 . S
H1387 C1410 0.929 . S
O1388 Tb1344 2.465 . S
O1388 C1408 1.264 . S
O1389 Tb1344 2.387 . S
O1389 C1400 1.264 . S
O1390 Tb1355 2.349 . S
O1390 C1400 1.243 . S
O1391 Tb1344 2.428 . S
O1391 C1408 1.256 . S
O1392 Tb1344 2.308 . S
O1392 C1407 1.266 . S
O1393 Tb1355 2.393 . S
O1393 C1407 1.248 . S
O1394 Tb1355 2.465 . S
O1394 C1419 1.264 . S
O1395 Tb1355 2.387 . S
O1395 C1411 1.264 . S
O1396 Tb1344 2.349 . S
O1396 C1411 1.243 . S
O1397 Tb1355 2.428 . S
O1397 C1419 1.256 . S
O1398 Tb1355 2.308 . S
O1398 C1418 1.266 . S
O1399 Tb1344 2.393 . S
O1399 C1418 1.248 . S
C1400 O1389 1.264 . S
C1400 O1390 1.243 . S
C1401 C1404 1.399 . S
C1401 C1406 1.383 . S
C1401 C1408 1.496 . S
C1402 C1403 1.399 . S
C1402 C1406 1.389 . S
C1403 C1402 1.399 . S
C1403 C1405 1.380 . S
C1403 H1420 0.929 . S
C1404 C1401 1.399 . S
C1404 C1405 1.392 . S
C1404 H1421 0.929 . S
C1405 C1403 1.380 . S
C1405 C1404 1.392 . S
C1405 H1422 0.929 . S
C1406 C1401 1.383 . S
C1406 C1402 1.389 . S
C1406 H1423 0.931 . S
C1407 O1392 1.266 . S
C1407 O1393 1.248 . S
C1408 Tb1344 2.802 . S
C1408 O1388 1.264 . S
C1408 O1391 1.256 . S
C1408 C1401 1.496 . S
C1409 C1376 1.448 . S
C1409 H1386 0.930 . S
C1409 C1410 1.328 . S
C1410 C1381 1.427 . S
C1410 H1387 0.929 . S
C1410 C1409 1.328 . S
C1411 O1395 1.264 . S
C1411 O1396 1.243 . S
C1412 C1415 1.399 . S
C1412 C1416 1.383 . S
C1412 C1419 1.496 . S
C1413 C1414 1.399 . S
C1413 C1416 1.389 . S
C1414 C1413 1.399 . S
C1414 C1417 1.380 . S
C1414 H1424 0.929 . S
C1415 C1412 1.399 . S
C1415 C1417 1.392 . S
C1415 H1425 0.929 . S
C1416 C1412 1.383 . S
C1416 C1413 1.389 . S
C1416 H1426 0.931 . S
C1417 C1414 1.380 . S
C1417 C1415 1.392 . S
C1417 H1427 0.929 . S
C1418 O1398 1.266 . S
C1418 O1399 1.248 . S
C1419 Tb1355 2.802 . S
C1419 O1394 1.264 . S
C1419 O1397 1.256 . S
C1419 C1412 1.496 . S
H1420 C1403 0.929 . S
H1421 C1404 0.929 . S
H1422 C1405 0.929 . S
H1423 C1406 0.931 . S
H1424 C1414 0.929 . S
H1425 C1415 0.929 . S
H1426 C1416 0.931 . S
H1427 C1417 0.929 . S
Tb1428 N1457 2.617 . S
Tb1428 N1463 2.572 . S
Tb1428 O1472 2.465 . S
Tb1428 O1473 2.387 . S
Tb1428 O1475 2.428 . S
Tb1428 O1476 2.308 . S
Tb1428 O1480 2.349 . S
Tb1428 O1483 2.393 . S
Tb1428 C1492 2.802 . S
C1429 N1430 1.379 . S
C1429 C1432 1.416 . S
C1429 C1436 1.424 . S
N1430 C1429 1.379 . S
N1430 C1433 1.334 . S
N1430 Tb1439 2.617 . S
C1431 C1433 1.390 . S
C1431 C1434 1.339 . S
C1431 H1451 0.930 . S
C1432 C1429 1.416 . S
C1432 C1434 1.416 . S
C1432 C1438 1.448 . S
C1433 N1430 1.334 . S
C1433 C1431 1.390 . S
C1433 H1444 0.930 . S
C1434 C1431 1.339 . S
C1434 C1432 1.416 . S
C1434 H1455 0.930 . S
C1435 C1436 1.413 . S
C1435 C1437 1.427 . S
C1435 C1441 1.416 . S
C1436 C1429 1.424 . S
C1436 C1435 1.413 . S
C1436 N1440 1.361 . S
C1437 C1435 1.427 . S
C1437 C1438 1.328 . S
C1437 H1452 0.929 . S
C1438 C1432 1.448 . S
C1438 C1437 1.328 . S
C1438 H1453 0.930 . S
Tb1439 N1430 2.617 . S
Tb1439 N1440 2.572 . S
Tb1439 O1474 2.349 . S
Tb1439 O1477 2.393 . S
Tb1439 O1478 2.465 . S
Tb1439 O1479 2.387 . S
Tb1439 O1481 2.428 . S
Tb1439 O1482 2.308 . S
Tb1439 C1503 2.802 . S
N1440 C1436 1.361 . S
N1440 Tb1439 2.572 . S
N1440 C1442 1.340 . S
C1441 C1435 1.416 . S
C1441 C1443 1.332 . S
C1441 H1449 0.931 . S
C1442 N1440 1.340 . S
C1442 C1443 1.407 . S
C1442 H1448 0.930 . S
C1443 C1441 1.332 . S
C1443 C1442 1.407 . S
C1443 H1445 0.929 . S
H1444 C1433 0.930 . S
H1445 C1443 0.929 . S
H1446 C1461 0.930 . S
H1447 C1468 0.929 . S
H1448 C1442 0.930 . S
H1449 C1441 0.931 . S
H1450 C1464 0.930 . S
H1451 C1431 0.930 . S
H1452 C1437 0.929 . S
H1453 C1438 0.930 . S
H1454 C1459 0.930 . S
H1455 C1434 0.930 . S
H1456 C1467 0.931 . S
N1457 Tb1428 2.617 . S
N1457 C1458 1.379 . S
N1457 C1461 1.334 . S
C1458 N1457 1.379 . S
C1458 C1460 1.416 . S
C1458 C1466 1.424 . S
C1459 H1454 0.930 . S
C1459 C1461 1.390 . S
C1459 C1462 1.339 . S
C1460 C1458 1.416 . S
C1460 C1462 1.416 . S
C1460 C1493 1.448 . S
C1461 H1446 0.930 . S
C1461 N1457 1.334 . S
C1461 C1459 1.390 . S
C1462 C1459 1.339 . S
C1462 C1460 1.416 . S
C1462 H1469 0.930 . S
N1463 Tb1428 2.572 . S
N1463 C1464 1.340 . S
N1463 C1466 1.361 . S
C1464 H1450 0.930 . S
C1464 N1463 1.340 . S
C1464 C1468 1.407 . S
C1465 C1466 1.413 . S
C1465 C1467 1.416 . S
C1465 C1494 1.427 . S
C1466 C1458 1.424 . S
C1466 N1463 1.361 . S
C1466 C1465 1.413 . S
C1467 H1456 0.931 . S
C1467 C1465 1.416 . S
C1467 C1468 1.332 . S
C1468 H1447 0.929 . S
C1468 C1464 1.407 . S
C1468 C1467 1.332 . S
H1469 C1462 0.930 . S
H1470 C1493 0.930 . S
H1471 C1494 0.929 . S
O1472 Tb1428 2.465 . S
O1472 C1492 1.264 . S
O1473 Tb1428 2.387 . S
O1473 C1484 1.264 . S
O1474 Tb1439 2.349 . S
O1474 C1484 1.243 . S
O1475 Tb1428 2.428 . S
O1475 C1492 1.256 . S
O1476 Tb1428 2.308 . S
O1476 C1491 1.266 . S
O1477 Tb1439 2.393 . S
O1477 C1491 1.248 . S
O1478 Tb1439 2.465 . S
O1478 C1503 1.264 . S
O1479 Tb1439 2.387 . S
O1479 C1495 1.264 . S
O1480 Tb1428 2.349 . S
O1480 C1495 1.243 . S
O1481 Tb1439 2.428 . S
O1481 C1503 1.256 . S
O1482 Tb1439 2.308 . S
O1482 C1502 1.266 . S
O1483 Tb1428 2.393 . S
O1483 C1502 1.248 . S
C1484 O1473 1.264 . S
C1484 O1474 1.243 . S
C1485 C1488 1.399 . S
C1485 C1490 1.383 . S
C1485 C1492 1.496 . S
C1486 C1487 1.399 . S
C1486 C1490 1.389 . S
C1487 C1486 1.399 . S
C1487 C1489 1.380 . S
C1487 H1504 0.929 . S
C1488 C1485 1.399 . S
C1488 C1489 1.392 . S
C1488 H1505 0.929 . S
C1489 C1487 1.380 . S
C1489 C1488 1.392 . S
C1489 H1506 0.929 . S
C1490 C1485 1.383 . S
C1490 C1486 1.389 . S
C1490 H1507 0.931 . S
C1491 O1476 1.266 . S
C1491 O1477 1.248 . S
C1492 Tb1428 2.802 . S
C1492 O1472 1.264 . S
C1492 O1475 1.256 . S
C1492 C1485 1.496 . S
C1493 C1460 1.448 . S
C1493 H1470 0.930 . S
C1493 C1494 1.328 . S
C1494 C1465 1.427 . S
C1494 H1471 0.929 . S
C1494 C1493 1.328 . S
C1495 O1479 1.264 . S
C1495 O1480 1.243 . S
C1496 C1499 1.399 . S
C1496 C1500 1.383 . S
C1496 C1503 1.496 . S
C1497 C1498 1.399 . S
C1497 C1500 1.389 . S
C1498 C1497 1.399 . S
C1498 C1501 1.380 . S
C1498 H1508 0.929 . S
C1499 C1496 1.399 . S
C1499 C1501 1.392 . S
C1499 H1509 0.929 . S
C1500 C1496 1.383 . S
C1500 C1497 1.389 . S
C1500 H1510 0.931 . S
C1501 C1498 1.380 . S
C1501 C1499 1.392 . S
C1501 H1511 0.929 . S
C1502 O1482 1.266 . S
C1502 O1483 1.248 . S
C1503 Tb1439 2.802 . S
C1503 O1478 1.264 . S
C1503 O1481 1.256 . S
C1503 C1496 1.496 . S
H1504 C1487 0.929 . S
H1505 C1488 0.929 . S
H1506 C1489 0.929 . S
H1507 C1490 0.931 . S
H1508 C1498 0.929 . S
H1509 C1499 0.929 . S
H1510 C1500 0.931 . S
H1511 C1501 0.929 . S
Tb1512 N1541 2.617 . S
Tb1512 N1547 2.572 . S
Tb1512 O1556 2.465 . S
Tb1512 O1557 2.387 . S
Tb1512 O1559 2.428 . S
Tb1512 O1560 2.308 . S
Tb1512 O1564 2.349 . S
Tb1512 O1567 2.393 . S
Tb1512 C1576 2.802 . S
C1513 N1514 1.379 . S
C1513 C1516 1.416 . S
C1513 C1520 1.424 . S
N1514 C1513 1.379 . S
N1514 C1517 1.334 . S
N1514 Tb1523 2.617 . S
C1515 C1517 1.390 . S
C1515 C1518 1.339 . S
C1515 H1535 0.930 . S
C1516 C1513 1.416 . S
C1516 C1518 1.416 . S
C1516 C1522 1.448 . S
C1517 N1514 1.334 . S
C1517 C1515 1.390 . S
C1517 H1528 0.930 . S
C1518 C1515 1.339 . S
C1518 C1516 1.416 . S
C1518 H1539 0.930 . S
C1519 C1520 1.413 . S
C1519 C1521 1.427 . S
C1519 C1525 1.416 . S
C1520 C1513 1.424 . S
C1520 C1519 1.413 . S
C1520 N1524 1.361 . S
C1521 C1519 1.427 . S
C1521 C1522 1.328 . S
C1521 H1536 0.929 . S
C1522 C1516 1.448 . S
C1522 C1521 1.328 . S
C1522 H1537 0.930 . S
Tb1523 N1514 2.617 . S
Tb1523 N1524 2.572 . S
Tb1523 O1558 2.349 . S
Tb1523 O1561 2.393 . S
Tb1523 O1562 2.465 . S
Tb1523 O1563 2.387 . S
Tb1523 O1565 2.428 . S
Tb1523 O1566 2.308 . S
Tb1523 C1587 2.802 . S
N1524 C1520 1.361 . S
N1524 Tb1523 2.572 . S
N1524 C1526 1.340 . S
C1525 C1519 1.416 . S
C1525 C1527 1.332 . S
C1525 H1533 0.931 . S
C1526 N1524 1.340 . S
C1526 C1527 1.407 . S
C1526 H1532 0.930 . S
C1527 C1525 1.332 . S
C1527 C1526 1.407 . S
C1527 H1529 0.929 . S
H1528 C1517 0.930 . S
H1529 C1527 0.929 . S
H1530 C1545 0.930 . S
H1531 C1552 0.929 . S
H1532 C1526 0.930 . S
H1533 C1525 0.931 . S
H1534 C1548 0.930 . S
H1535 C1515 0.930 . S
H1536 C1521 0.929 . S
H1537 C1522 0.930 . S
H1538 C1543 0.930 . S
H1539 C1518 0.930 . S
H1540 C1551 0.931 . S
N1541 Tb1512 2.617 . S
N1541 C1542 1.379 . S
N1541 C1545 1.334 . S
C1542 N1541 1.379 . S
C1542 C1544 1.416 . S
C1542 C1550 1.424 . S
C1543 H1538 0.930 . S
C1543 C1545 1.390 . S
C1543 C1546 1.339 . S
C1544 C1542 1.416 . S
C1544 C1546 1.416 . S
C1544 C1577 1.448 . S
C1545 H1530 0.930 . S
C1545 N1541 1.334 . S
C1545 C1543 1.390 . S
C1546 C1543 1.339 . S
C1546 C1544 1.416 . S
C1546 H1553 0.930 . S
N1547 Tb1512 2.572 . S
N1547 C1548 1.340 . S
N1547 C1550 1.361 . S
C1548 H1534 0.930 . S
C1548 N1547 1.340 . S
C1548 C1552 1.407 . S
C1549 C1550 1.413 . S
C1549 C1551 1.416 . S
C1549 C1578 1.427 . S
C1550 C1542 1.424 . S
C1550 N1547 1.361 . S
C1550 C1549 1.413 . S
C1551 H1540 0.931 . S
C1551 C1549 1.416 . S
C1551 C1552 1.332 . S
C1552 H1531 0.929 . S
C1552 C1548 1.407 . S
C1552 C1551 1.332 . S
H1553 C1546 0.930 . S
H1554 C1577 0.930 . S
H1555 C1578 0.929 . S
O1556 Tb1512 2.465 . S
O1556 C1576 1.264 . S
O1557 Tb1512 2.387 . S
O1557 C1568 1.264 . S
O1558 Tb1523 2.349 . S
O1558 C1568 1.243 . S
O1559 Tb1512 2.428 . S
O1559 C1576 1.256 . S
O1560 Tb1512 2.308 . S
O1560 C1575 1.266 . S
O1561 Tb1523 2.393 . S
O1561 C1575 1.248 . S
O1562 Tb1523 2.465 . S
O1562 C1587 1.264 . S
O1563 Tb1523 2.387 . S
O1563 C1579 1.264 . S
O1564 Tb1512 2.349 . S
O1564 C1579 1.243 . S
O1565 Tb1523 2.428 . S
O1565 C1587 1.256 . S
O1566 Tb1523 2.308 . S
O1566 C1586 1.266 . S
O1567 Tb1512 2.393 . S
O1567 C1586 1.248 . S
C1568 O1557 1.264 . S
C1568 O1558 1.243 . S
C1569 C1572 1.399 . S
C1569 C1574 1.383 . S
C1569 C1576 1.496 . S
C1570 C1571 1.399 . S
C1570 C1574 1.389 . S
C1571 C1570 1.399 . S
C1571 C1573 1.380 . S
C1571 H1588 0.929 . S
C1572 C1569 1.399 . S
C1572 C1573 1.392 . S
C1572 H1589 0.929 . S
C1573 C1571 1.380 . S
C1573 C1572 1.392 . S
C1573 H1590 0.929 . S
C1574 C1569 1.383 . S
C1574 C1570 1.389 . S
C1574 H1591 0.931 . S
C1575 O1560 1.266 . S
C1575 O1561 1.248 . S
C1576 Tb1512 2.802 . S
C1576 O1556 1.264 . S
C1576 O1559 1.256 . S
C1576 C1569 1.496 . S
C1577 C1544 1.448 . S
C1577 H1554 0.930 . S
C1577 C1578 1.328 . S
C1578 C1549 1.427 . S
C1578 H1555 0.929 . S
C1578 C1577 1.328 . S
C1579 O1563 1.264 . S
C1579 O1564 1.243 . S
C1580 C1583 1.399 . S
C1580 C1584 1.383 . S
C1580 C1587 1.496 . S
C1581 C1582 1.399 . S
C1581 C1584 1.389 . S
C1582 C1581 1.399 . S
C1582 C1585 1.380 . S
C1582 H1592 0.929 . S
C1583 C1580 1.399 . S
C1583 C1585 1.392 . S
C1583 H1593 0.929 . S
C1584 C1580 1.383 . S
C1584 C1581 1.389 . S
C1584 H1594 0.931 . S
C1585 C1582 1.380 . S
C1585 C1583 1.392 . S
C1585 H1595 0.929 . S
C1586 O1566 1.266 . S
C1586 O1567 1.248 . S
C1587 Tb1523 2.802 . S
C1587 O1562 1.264 . S
C1587 O1565 1.256 . S
C1587 C1580 1.496 . S
H1588 C1571 0.929 . S
H1589 C1572 0.929 . S
H1590 C1573 0.929 . S
H1591 C1574 0.931 . S
H1592 C1582 0.929 . S
H1593 C1583 0.929 . S
H1594 C1584 0.931 . S
H1595 C1585 0.929 . S
Tb1596 N1625 2.629 . S
Tb1596 N1631 2.602 . S
Tb1596 O1640 2.505 . S
Tb1596 O1641 2.361 1_655 S
Tb1596 O1643 2.460 . S
Tb1596 O1644 2.292 1_655 S
Tb1596 O1648 2.336 1_655 S
Tb1596 O1651 2.360 1_655 S
Tb1596 C1660 2.843 . S
C1597 N1598 1.379 . S
C1597 C1600 1.416 . S
C1597 C1604 1.424 1_556 S
N1598 C1597 1.379 . S
N1598 C1601 1.334 . S
N1598 Tb1607 2.617 1_556 S
C1599 C1601 1.390 . S
C1599 C1602 1.339 . S
C1599 H1619 0.930 . S
C1600 C1597 1.416 . S
C1600 C1602 1.416 . S
C1600 C1606 1.448 . S
C1601 N1598 1.334 . S
C1601 C1599 1.390 . S
C1601 H1612 0.930 . S
C1602 C1599 1.339 . S
C1602 C1600 1.416 . S
C1602 H1623 0.930 . S
C1603 C1604 1.413 . S
C1603 C1605 1.427 . S
C1603 C1609 1.416 . S
C1604 C1597 1.424 1_554 S
C1604 C1603 1.413 . S
C1604 N1608 1.361 . S
C1605 C1603 1.427 . S
C1605 C1606 1.328 1_554 S
C1605 H1620 0.929 . S
C1606 C1600 1.448 . S
C1606 C1605 1.328 1_556 S
C1606 H1621 0.930 . S
Tb1607 N1598 2.617 1_554 S
Tb1607 N1608 2.572 . S
Tb1607 O1642 2.349 . S
Tb1607 O1645 2.393 1_554 S
Tb1607 O1646 2.465 . S
Tb1607 O1647 2.387 . S
Tb1607 O1649 2.428 1_554 S
Tb1607 O1650 2.308 . S
Tb1607 C1671 2.802 . S
N1608 C1604 1.361 . S
N1608 Tb1607 2.572 . S
N1608 C1610 1.340 . S
C1609 C1603 1.416 . S
C1609 C1611 1.332 . S
C1609 H1617 0.931 . S
C1610 N1608 1.340 . S
C1610 C1611 1.407 . S
C1610 H1616 0.930 . S
C1611 C1609 1.332 . S
C1611 C1610 1.407 . S
C1611 H1613 0.929 . S
H1612 C1601 0.930 . S
H1613 C1611 0.929 . S
H1614 C1629 0.930 1_455 S
H1615 C1636 0.929 1_556 S
H1616 C1610 0.930 . S
H1617 C1609 0.931 . S
H1618 C1632 0.930 . S
H1619 C1599 0.930 . S
H1620 C1605 0.929 . S
H1621 C1606 0.930 . S
H1622 C1627 0.922 1_455 S
H1623 C1602 0.930 . S
H1624 C1635 0.931 . S
N1625 Tb1596 2.629 . S
N1625 C1626 1.379 . S
N1625 C1629 1.334 . S
C1626 N1625 1.379 . S
C1626 C1628 1.416 . S
C1626 C1634 1.424 . S
C1627 H1622 0.922 1_655 S
C1627 C1629 1.390 . S
C1627 C1630 1.339 . S
C1628 C1626 1.416 . S
C1628 C1630 1.416 . S
C1628 C1661 1.448 . S
C1629 H1614 0.930 1_655 S
C1629 N1625 1.334 . S
C1629 C1627 1.390 . S
C1630 C1627 1.339 . S
C1630 C1628 1.416 . S
C1630 H1637 0.930 . S
N1631 Tb1596 2.602 . S
N1631 C1632 1.340 . S
N1631 C1634 1.361 . S
C1632 H1618 0.930 . S
C1632 N1631 1.340 . S
C1632 C1636 1.407 . S
C1633 C1634 1.413 . S
C1633 C1635 1.416 . S
C1633 C1662 1.427 . S
C1634 C1626 1.424 . S
C1634 N1631 1.361 . S
C1634 C1633 1.413 . S
C1635 H1624 0.931 . S
C1635 C1633 1.416 . S
C1635 C1636 1.332 . S
C1636 H1615 0.929 1_554 S
C1636 C1632 1.407 . S
C1636 C1635 1.332 . S
H1637 C1630 0.930 . S
H1638 C1661 0.930 . S
H1639 C1662 0.929 . S
O1640 Tb1596 2.505 . S
O1640 C1660 1.264 . S
O1641 Tb1596 2.361 1_455 S
O1641 C1652 1.264 . S
O1642 Tb1607 2.349 . S
O1642 C1652 1.243 . S
O1643 Tb1596 2.460 . S
O1643 C1660 1.256 . S
O1644 Tb1596 2.292 1_455 S
O1644 C1659 1.287 1_554 S
O1645 Tb1607 2.393 1_556 S
O1645 C1659 1.248 . S
O1646 Tb1607 2.465 . S
O1646 C1671 1.264 . S
O1647 Tb1607 2.387 . S
O1647 C1663 1.264 . S
O1648 Tb1596 2.336 1_455 S
O1648 C1663 1.243 . S
O1649 Tb1607 2.428 1_556 S
O1649 C1671 1.256 1_556 S
O1650 Tb1607 2.308 . S
O1650 C1670 1.266 . S
O1651 Tb1596 2.360 1_455 S
O1651 C1670 1.248 . S
C1652 O1641 1.264 . S
C1652 O1642 1.243 . S
C1653 C1656 1.399 . S
C1653 C1658 1.383 . S
C1653 C1660 1.496 . S
C1654 C1655 1.399 . S
C1654 C1658 1.389 . S
C1655 C1654 1.399 . S
C1655 C1657 1.380 . S
C1655 H1672 0.929 . S
C1656 C1653 1.399 . S
C1656 C1657 1.392 . S
C1656 H1673 0.929 . S
C1657 C1655 1.380 . S
C1657 C1656 1.392 . S
C1657 H1674 0.929 . S
C1658 C1653 1.383 . S
C1658 C1654 1.389 . S
C1658 H1675 0.931 . S
C1659 O1644 1.287 1_556 S
C1659 O1645 1.248 . S
C1660 Tb1596 2.843 . S
C1660 O1640 1.264 . S
C1660 O1643 1.256 . S
C1660 C1653 1.496 . S
C1661 C1628 1.448 . S
C1661 H1638 0.930 . S
C1661 C1662 1.328 . S
C1662 C1633 1.427 . S
C1662 H1639 0.929 . S
C1662 C1661 1.328 . S
C1663 O1647 1.264 . S
C1663 O1648 1.243 . S
C1664 C1667 1.359 1_554 S
C1664 C1668 1.414 . S
C1664 C1671 1.506 . S
C1665 C1666 1.399 1_554 S
C1665 C1668 1.389 . S
C1666 C1665 1.399 1_556 S
C1666 C1669 1.380 . S
C1666 H1676 0.929 . S
C1667 C1664 1.359 1_556 S
C1667 C1669 1.392 . S
C1667 H1677 0.929 . S
C1668 C1664 1.414 . S
C1668 C1665 1.389 . S
C1668 H1678 0.931 . S
C1669 C1666 1.380 . S
C1669 C1667 1.392 . S
C1669 H1679 0.929 . S
C1670 O1650 1.266 . S
C1670 O1651 1.248 . S
C1671 Tb1607 2.802 . S
C1671 O1646 1.264 . S
C1671 O1649 1.256 1_554 S
C1671 C1664 1.506 . S
H1672 C1655 0.929 . S
H1673 C1656 0.929 . S
H1674 C1657 0.929 . S
H1675 C1658 0.931 . S
H1676 C1666 0.929 . S
H1677 C1667 0.929 . S
H1678 C1668 0.931 . S
H1679 C1669 0.929 . S
H1680 C1692 0.914 1_554 S
H1681 C1694 0.930 . S
H1682 C1695 0.930 . S
H1683 C1699 0.959 . S
H1684 C1699 0.959 . S
H1685 C1699 0.961 . S
H1686 C1700 0.960 . S
H1687 C1700 0.961 . S
H1688 C1700 0.959 1_655 S
H1689 C1703 0.913 1_655 S
H1690 C1704 0.931 . S
H1691 C1706 0.930 . S
C1692 H1680 0.914 1_556 S
C1692 C1693 1.419 1_455 S
C1692 C1697 1.392 1_556 S
C1693 C1692 1.419 1_655 S
C1693 C1694 1.379 . S
C1694 H1681 0.930 . S
C1694 C1693 1.379 . S
C1694 C1695 1.388 . S
C1695 H1682 0.930 . S
C1695 C1694 1.388 . S
C1695 C1696 1.390 1_655 S
C1696 C1695 1.390 1_455 S
C1696 C1697 1.394 1_556 S
C1696 C1702 1.465 . S
C1697 C1692 1.392 1_554 S
C1697 C1696 1.394 1_554 S
C1697 C1698 1.516 . S
C1698 C1697 1.516 . S
C1698 C1699 1.502 . S
C1698 C1700 1.561 . S
C1698 C1701 1.526 . S
C1699 H1683 0.959 . S
C1699 H1684 0.959 . S
C1699 H1685 0.961 . S
C1699 C1698 1.502 . S
C1700 H1686 0.960 . S
C1700 H1687 0.961 . S
C1700 H1688 0.959 1_455 S
C1700 C1698 1.561 . S
C1701 C1698 1.526 . S
C1701 C1702 1.396 1_554 S
C1701 C1706 1.390 . S
C1702 C1696 1.465 . S
C1702 C1701 1.396 1_556 S
C1702 C1703 1.400 . S
C1703 H1689 0.913 1_455 S
C1703 C1702 1.400 . S
C1703 C1704 1.402 . S
C1704 H1690 0.931 . S
C1704 C1703 1.402 . S
C1704 C1705 1.389 1_556 S
C1705 C1704 1.389 1_554 S
C1705 C1706 1.387 . S
C1706 H1691 0.930 . S
C1706 C1701 1.390 . S
C1706 C1705 1.387 . S
H1707 C1719 0.930 . S
H1708 C1721 0.930 . S
H1709 C1722 0.930 . S
H1710 C1726 0.959 . S
H1711 C1726 0.959 . S
H1712 C1726 0.961 . S
H1713 C1727 0.960 . S
H1714 C1727 0.961 . S
H1715 C1727 0.959 . S
H1716 C1730 0.929 . S
H1717 C1731 0.931 . S
H1718 C1733 0.930 . S
C1719 H1707 0.930 . S
C1719 C1720 1.399 . S
C1719 C1724 1.399 . S
C1720 C1719 1.399 . S
C1720 C1721 1.376 . S
C1721 H1708 0.930 . S
C1721 C1720 1.376 . S
C1721 C1722 1.388 . S
C1722 H1709 0.930 . S
C1722 C1721 1.388 . S
C1722 C1723 1.390 . S
C1723 C1722 1.390 . S
C1723 C1724 1.394 . S
C1723 C1729 1.465 . S
C1724 C1719 1.399 . S
C1724 C1723 1.394 . S
C1724 C1725 1.516 . S
C1725 C1724 1.516 . S
C1725 C1726 1.502 . S
C1725 C1727 1.561 . S
C1725 C1728 1.526 . S
C1726 H1710 0.959 . S
C1726 H1711 0.959 . S
C1726 H1712 0.961 . S
C1726 C1725 1.502 . S
C1727 H1713 0.960 . S
C1727 H1714 0.961 . S
C1727 H1715 0.959 . S
C1727 C1725 1.561 . S
C1728 C1725 1.526 . S
C1728 C1729 1.396 . S
C1728 C1733 1.390 . S
C1729 C1723 1.465 . S
C1729 C1728 1.396 . S
C1729 C1730 1.399 . S
C1730 H1716 0.929 . S
C1730 C1729 1.399 . S
C1730 C1731 1.385 . S
C1731 H1717 0.931 . S
C1731 C1730 1.385 . S
C1731 C1732 1.389 . S
C1732 C1731 1.389 . S
C1732 C1733 1.387 . S
C1733 H1718 0.930 . S
C1733 C1728 1.390 . S
C1733 C1732 1.387 . S
H1734 C1746 0.930 . S
H1735 C1748 0.930 . S
H1736 C1749 0.930 . S
H1737 C1753 0.959 . S
H1738 C1753 0.959 . S
H1739 C1753 0.961 . S
H1740 C1754 0.960 . S
H1741 C1754 0.961 . S
H1742 C1754 0.959 . S
H1743 C1757 0.929 . S
H1744 C1758 0.931 . S
H1745 C1760 0.930 . S
C1746 H1734 0.930 . S
C1746 C1747 1.399 . S
C1746 C1751 1.399 . S
C1747 C1746 1.399 . S
C1747 C1748 1.376 . S
C1748 H1735 0.930 . S
C1748 C1747 1.376 . S
C1748 C1749 1.388 . S
C1749 H1736 0.930 . S
C1749 C1748 1.388 . S
C1749 C1750 1.390 . S
C1750 C1749 1.390 . S
C1750 C1751 1.394 . S
C1750 C1756 1.465 . S
C1751 C1746 1.399 . S
C1751 C1750 1.394 . S
C1751 C1752 1.516 . S
C1752 C1751 1.516 . S
C1752 C1753 1.502 . S
C1752 C1754 1.561 . S
C1752 C1755 1.526 . S
C1753 H1737 0.959 . S
C1753 H1738 0.959 . S
C1753 H1739 0.961 . S
C1753 C1752 1.502 . S
C1754 H1740 0.960 . S
C1754 H1741 0.961 . S
C1754 H1742 0.959 . S
C1754 C1752 1.561 . S
C1755 C1752 1.526 . S
C1755 C1756 1.396 . S
C1755 C1760 1.390 . S
C1756 C1750 1.465 . S
C1756 C1755 1.396 . S
C1756 C1757 1.399 . S
C1757 H1743 0.929 . S
C1757 C1756 1.399 . S
C1757 C1758 1.385 . S
C1758 H1744 0.931 . S
C1758 C1757 1.385 . S
C1758 C1759 1.389 . S
C1759 C1758 1.389 . S
C1759 C1760 1.387 . S
C1760 H1745 0.930 . S
C1760 C1755 1.390 . S
C1760 C1759 1.387 . S
H1761 C1773 0.930 . S
H1762 C1775 0.930 . S
H1763 C1776 0.930 . S
H1764 C1780 0.959 . S
H1765 C1780 0.959 . S
H1766 C1780 0.961 . S
H1767 C1781 0.960 . S
H1768 C1781 0.961 . S
H1769 C1781 0.959 . S
H1770 C1784 0.929 . S
H1771 C1785 0.931 . S
H1772 C1787 0.930 . S
C1773 H1761 0.930 . S
C1773 C1774 1.399 . S
C1773 C1778 1.399 . S
C1774 C1773 1.399 . S
C1774 C1775 1.376 . S
C1775 H1762 0.930 . S
C1775 C1774 1.376 . S
C1775 C1776 1.388 . S
C1776 H1763 0.930 . S
C1776 C1775 1.388 . S
C1776 C1777 1.390 . S
C1777 C1776 1.390 . S
C1777 C1778 1.394 . S
C1777 C1783 1.465 . S
C1778 C1773 1.399 . S
C1778 C1777 1.394 . S
C1778 C1779 1.516 . S
C1779 C1778 1.516 . S
C1779 C1780 1.502 . S
C1779 C1781 1.561 . S
C1779 C1782 1.526 . S
C1780 H1764 0.959 . S
C1780 H1765 0.959 . S
C1780 H1766 0.961 . S
C1780 C1779 1.502 . S
C1781 H1767 0.960 . S
C1781 H1768 0.961 . S
C1781 H1769 0.959 . S
C1781 C1779 1.561 . S
C1782 C1779 1.526 . S
C1782 C1783 1.396 . S
C1782 C1787 1.390 . S
C1783 C1777 1.465 . S
C1783 C1782 1.396 . S
C1783 C1784 1.399 . S
C1784 H1770 0.929 . S
C1784 C1783 1.399 . S
C1784 C1785 1.385 . S
C1785 H1771 0.931 . S
C1785 C1784 1.385 . S
C1785 C1786 1.389 . S
C1786 C1785 1.389 . S
C1786 C1787 1.387 . S
C1787 H1772 0.930 . S
C1787 C1782 1.390 . S
C1787 C1786 1.387 . S
H1788 C1800 0.930 . S
H1789 C1802 0.930 . S
H1790 C1803 0.930 . S
H1791 C1807 0.959 . S
H1792 C1807 0.959 . S
H1793 C1807 0.961 . S
H1794 C1808 0.960 . S
H1795 C1808 0.961 . S
H1796 C1808 0.959 1_655 S
H1797 C1811 0.929 . S
H1798 C1812 0.931 . S
H1799 C1814 0.930 . S
C1800 H1788 0.930 . S
C1800 C1801 1.399 . S
C1800 C1805 1.399 . S
C1801 C1800 1.399 . S
C1801 C1802 1.376 . S
C1802 H1789 0.930 . S
C1802 C1801 1.376 . S
C1802 C1803 1.388 . S
C1803 H1790 0.930 . S
C1803 C1802 1.388 . S
C1803 C1804 1.390 . S
C1804 C1803 1.390 . S
C1804 C1805 1.394 . S
C1804 C1810 1.465 . S
C1805 C1800 1.399 . S
C1805 C1804 1.394 . S
C1805 C1806 1.516 . S
C1806 C1805 1.516 . S
C1806 C1807 1.502 . S
C1806 C1808 1.561 . S
C1806 C1809 1.526 . S
C1807 H1791 0.959 . S
C1807 H1792 0.959 . S
C1807 H1793 0.961 . S
C1807 C1806 1.502 . S
C1808 H1794 0.960 . S
C1808 H1795 0.961 . S
C1808 H1796 0.959 1_455 S
C1808 C1806 1.561 . S
C1809 C1806 1.526 . S
C1809 C1810 1.396 . S
C1809 C1814 1.390 . S
C1810 C1804 1.465 . S
C1810 C1809 1.396 . S
C1810 C1811 1.399 . S
C1811 H1797 0.929 . S
C1811 C1810 1.399 . S
C1811 C1812 1.385 . S
C1812 H1798 0.931 . S
C1812 C1811 1.385 . S
C1812 C1813 1.389 . S
C1813 C1812 1.389 . S
C1813 C1814 1.387 . S
C1814 H1799 0.930 . S
C1814 C1809 1.390 . S
C1814 C1813 1.387 . S
H1815 C1827 0.930 . S
H1816 C1829 0.930 . S
H1817 C1830 0.930 . S
H1818 C1834 0.959 . S
H1819 C1834 0.959 . S
H1820 C1834 0.961 . S
H1821 C1835 0.960 . S
H1822 C1835 0.961 . S
H1823 C1835 0.959 . S
H1824 C1838 0.929 . S
H1825 C1839 0.931 . S
H1826 C1841 0.930 . S
C1827 H1815 0.930 . S
C1827 C1828 1.399 . S
C1827 C1832 1.399 . S
C1828 C1827 1.399 . S
C1828 C1829 1.376 . S
C1829 H1816 0.930 . S
C1829 C1828 1.376 . S
C1829 C1830 1.388 . S
C1830 H1817 0.930 . S
C1830 C1829 1.388 . S
C1830 C1831 1.390 . S
C1831 C1830 1.390 . S
C1831 C1832 1.394 . S
C1831 C1837 1.465 . S
C1832 C1827 1.399 . S
C1832 C1831 1.394 . S
C1832 C1833 1.516 . S
C1833 C1832 1.516 . S
C1833 C1834 1.502 . S
C1833 C1835 1.561 . S
C1833 C1836 1.526 . S
C1834 H1818 0.959 . S
C1834 H1819 0.959 . S
C1834 H1820 0.961 . S
C1834 C1833 1.502 . S
C1835 H1821 0.960 . S
C1835 H1822 0.961 . S
C1835 H1823 0.959 . S
C1835 C1833 1.561 . S
C1836 C1833 1.526 . S
C1836 C1837 1.396 . S
C1836 C1841 1.390 . S
C1837 C1831 1.465 . S
C1837 C1836 1.396 . S
C1837 C1838 1.399 . S
C1838 H1824 0.929 . S
C1838 C1837 1.399 . S
C1838 C1839 1.385 . S
C1839 H1825 0.931 . S
C1839 C1838 1.385 . S
C1839 C1840 1.389 . S
C1840 C1839 1.389 . S
C1840 C1841 1.387 . S
C1841 H1826 0.930 . S
C1841 C1836 1.390 . S
C1841 C1840 1.387 . S
H1842 C1854 0.930 . S
H1843 C1856 0.930 . S
H1844 C1857 0.930 . S
H1845 C1861 0.959 . S
H1846 C1861 0.959 . S
H1847 C1861 0.961 . S
H1848 C1862 0.960 . S
H1849 C1862 0.961 . S
H1850 C1862 0.959 . S
H1851 C1865 0.929 . S
H1852 C1866 0.931 . S
H1853 C1868 0.930 . S
C1854 H1842 0.930 . S
C1854 C1855 1.399 . S
C1854 C1859 1.399 . S
C1855 C1854 1.399 . S
C1855 C1856 1.376 . S
C1856 H1843 0.930 . S
C1856 C1855 1.376 . S
C1856 C1857 1.388 . S
C1857 H1844 0.930 . S
C1857 C1856 1.388 . S
C1857 C1858 1.390 . S
C1858 C1857 1.390 . S
C1858 C1859 1.394 . S
C1858 C1864 1.465 . S
C1859 C1854 1.399 . S
C1859 C1858 1.394 . S
C1859 C1860 1.516 . S
C1860 C1859 1.516 . S
C1860 C1861 1.502 . S
C1860 C1862 1.561 . S
C1860 C1863 1.526 . S
C1861 H1845 0.959 . S
C1861 H1846 0.959 . S
C1861 H1847 0.961 . S
C1861 C1860 1.502 . S
C1862 H1848 0.960 . S
C1862 H1849 0.961 . S
C1862 H1850 0.959 . S
C1862 C1860 1.561 . S
C1863 C1860 1.526 . S
C1863 C1864 1.396 . S
C1863 C1868 1.390 . S
C1864 C1858 1.465 . S
C1864 C1863 1.396 . S
C1864 C1865 1.399 . S
C1865 H1851 0.929 . S
C1865 C1864 1.399 . S
C1865 C1866 1.385 . S
C1866 H1852 0.931 . S
C1866 C1865 1.385 . S
C1866 C1867 1.389 . S
C1867 C1866 1.389 . S
C1867 C1868 1.387 . S
C1868 H1853 0.930 . S
C1868 C1863 1.390 . S
C1868 C1867 1.387 . S
H1869 C1881 0.930 . S
H1870 C1883 0.930 . S
H1871 C1884 0.930 . S
H1872 C1888 0.959 . S
H1873 C1888 0.959 . S
H1874 C1888 0.961 . S
H1875 C1889 0.960 . S
H1876 C1889 0.961 . S
H1877 C1889 0.959 . S
H1878 C1892 0.929 . S
H1879 C1893 0.931 . S
H1880 C1895 0.930 . S
C1881 H1869 0.930 . S
C1881 C1882 1.399 . S
C1881 C1886 1.399 . S
C1882 C1881 1.399 . S
C1882 C1883 1.376 . S
C1883 H1870 0.930 . S
C1883 C1882 1.376 . S
C1883 C1884 1.388 . S
C1884 H1871 0.930 . S
C1884 C1883 1.388 . S
C1884 C1885 1.390 . S
C1885 C1884 1.390 . S
C1885 C1886 1.394 . S
C1885 C1891 1.465 . S
C1886 C1881 1.399 . S
C1886 C1885 1.394 . S
C1886 C1887 1.516 . S
C1887 C1886 1.516 . S
C1887 C1888 1.502 . S
C1887 C1889 1.561 . S
C1887 C1890 1.526 . S
C1888 H1872 0.959 . S
C1888 H1873 0.959 . S
C1888 H1874 0.961 . S
C1888 C1887 1.502 . S
C1889 H1875 0.960 . S
C1889 H1876 0.961 . S
C1889 H1877 0.959 . S
C1889 C1887 1.561 . S
C1890 C1887 1.526 . S
C1890 C1891 1.396 . S
C1890 C1895 1.390 . S
C1891 C1885 1.465 . S
C1891 C1890 1.396 . S
C1891 C1892 1.399 . S
C1892 H1878 0.929 . S
C1892 C1891 1.399 . S
C1892 C1893 1.385 . S
C1893 H1879 0.931 . S
C1893 C1892 1.385 . S
C1893 C1894 1.389 . S
C1894 C1893 1.389 . S
C1894 C1895 1.387 . S
C1895 H1880 0.930 . S
C1895 C1890 1.390 . S
C1895 C1894 1.387 . S
H1896 C1908 0.930 1_565 S
H1897 C1910 0.930 . S
H1898 C1911 0.930 . S
H1899 C1915 0.959 . S
H1900 C1915 0.959 1_565 S
H1901 C1915 0.961 1_565 S
H1902 C1916 0.960 . S
H1903 C1916 0.961 . S
H1904 C1916 0.959 . S
H1905 C1919 0.929 . S
H1906 C1920 0.931 . S
H1907 C1922 0.930 . S
C1908 H1896 0.930 1_545 S
C1908 C1909 1.399 . S
C1908 C1913 1.399 . S
C1909 C1908 1.399 . S
C1909 C1910 1.376 . S
C1910 H1897 0.930 . S
C1910 C1909 1.376 . S
C1910 C1911 1.388 . S
C1911 H1898 0.930 . S
C1911 C1910 1.388 . S
C1911 C1912 1.390 . S
C1912 C1911 1.390 . S
C1912 C1913 1.394 . S
C1912 C1918 1.465 . S
C1913 C1908 1.399 . S
C1913 C1912 1.394 . S
C1913 C1914 1.516 . S
C1914 C1913 1.516 . S
C1914 C1915 1.502 1_655 S
C1914 C1916 1.561 1_545 S
C1914 C1917 1.526 . S
C1915 H1899 0.959 . S
C1915 H1900 0.959 1_545 S
C1915 H1901 0.961 1_545 S
C1915 C1914 1.502 1_455 S
C1916 H1902 0.960 . S
C1916 H1903 0.961 . S
C1916 H1904 0.959 . S
C1916 C1914 1.561 1_565 S
C1917 C1914 1.526 . S
C1917 C1918 1.396 . S
C1917 C1922 1.390 1_655 S
C1918 C1912 1.465 . S
C1918 C1917 1.396 . S
C1918 C1919 1.399 . S
C1919 H1905 0.929 . S
C1919 C1918 1.399 . S
C1919 C1920 1.385 . S
C1920 H1906 0.931 . S
C1920 C1919 1.385 . S
C1920 C1921 1.389 1_655 S
C1921 C1920 1.389 1_455 S
C1921 C1922 1.387 . S
C1922 H1907 0.930 . S
C1922 C1917 1.390 1_455 S
C1922 C1921 1.387 . S
H1923 C1935 0.930 . S
H1924 C1937 0.930 . S
H1925 C1938 0.930 . S
H1926 C1942 0.959 . S
H1927 C1942 0.959 . S
H1928 C1942 0.961 . S
H1929 C1943 0.960 . S
H1930 C1943 0.961 . S
H1931 C1943 0.959 . S
H1932 C1946 0.929 . S
H1933 C1947 0.931 . S
H1934 C1949 0.930 . S
C1935 H1923 0.930 . S
C1935 C1936 1.399 . S
C1935 C1940 1.399 . S
C1936 C1935 1.399 . S
C1936 C1937 1.376 . S
C1937 H1924 0.930 . S
C1937 C1936 1.376 . S
C1937 C1938 1.388 . S
C1938 H1925 0.930 . S
C1938 C1937 1.388 . S
C1938 C1939 1.390 . S
C1939 C1938 1.390 . S
C1939 C1940 1.394 . S
C1939 C1945 1.465 . S
C1940 C1935 1.399 . S
C1940 C1939 1.394 . S
C1940 C1941 1.516 . S
C1941 C1940 1.516 . S
C1941 C1942 1.502 . S
C1941 C1943 1.561 . S
C1941 C1944 1.526 . S
C1942 H1926 0.959 . S
C1942 H1927 0.959 . S
C1942 H1928 0.961 . S
C1942 C1941 1.502 . S
C1943 H1929 0.960 . S
C1943 H1930 0.961 . S
C1943 H1931 0.959 . S
C1943 C1941 1.561 . S
C1944 C1941 1.526 . S
C1944 C1945 1.396 . S
C1944 C1949 1.390 . S
C1945 C1939 1.465 . S
C1945 C1944 1.396 . S
C1945 C1946 1.399 . S
C1946 H1932 0.929 . S
C1946 C1945 1.399 . S
C1946 C1947 1.385 . S
C1947 H1933 0.931 . S
C1947 C1946 1.385 . S
C1947 C1948 1.389 . S
C1948 C1947 1.389 . S
C1948 C1949 1.387 . S
C1949 H1934 0.930 . S
C1949 C1944 1.390 . S
C1949 C1948 1.387 . S
H1950 C1962 0.930 . S
H1951 C1964 0.930 . S
H1952 C1965 0.930 . S
H1953 C1969 0.959 . S
H1954 C1969 0.959 . S
H1955 C1969 0.961 . S
H1956 C1970 0.960 . S
H1957 C1970 0.961 . S
H1958 C1970 0.959 . S
H1959 C1973 0.929 . S
H1960 C1974 0.931 . S
H1961 C1976 0.930 . S
C1962 H1950 0.930 . S
C1962 C1963 1.399 . S
C1962 C1967 1.399 . S
C1963 C1962 1.399 . S
C1963 C1964 1.376 . S
C1964 H1951 0.930 . S
C1964 C1963 1.376 . S
C1964 C1965 1.388 . S
C1965 H1952 0.930 . S
C1965 C1964 1.388 . S
C1965 C1966 1.390 . S
C1966 C1965 1.390 . S
C1966 C1967 1.394 . S
C1966 C1972 1.465 . S
C1967 C1962 1.399 . S
C1967 C1966 1.394 . S
C1967 C1968 1.516 . S
C1968 C1967 1.516 . S
C1968 C1969 1.502 . S
C1968 C1970 1.561 . S
C1968 C1971 1.526 . S
C1969 H1953 0.959 . S
C1969 H1954 0.959 . S
C1969 H1955 0.961 . S
C1969 C1968 1.502 . S
C1970 H1956 0.960 . S
C1970 H1957 0.961 . S
C1970 H1958 0.959 . S
C1970 C1968 1.561 . S
C1971 C1968 1.526 . S
C1971 C1972 1.396 . S
C1971 C1976 1.390 . S
C1972 C1966 1.465 . S
C1972 C1971 1.396 . S
C1972 C1973 1.399 . S
C1973 H1959 0.929 . S
C1973 C1972 1.399 . S
C1973 C1974 1.385 . S
C1974 H1960 0.931 . S
C1974 C1973 1.385 . S
C1974 C1975 1.389 . S
C1975 C1974 1.389 . S
C1975 C1976 1.387 . S
C1976 H1961 0.930 . S
C1976 C1971 1.390 . S
C1976 C1975 1.387 . S
H1977 C1989 0.930 . S
H1978 C1991 0.930 . S
H1979 C1992 0.930 . S
H1980 C1996 0.959 . S
H1981 C1996 0.959 . S
H1982 C1996 0.961 . S
H1983 C1997 0.960 . S
H1984 C1997 0.961 . S
H1985 C1997 0.959 . S
H1986 C2000 0.929 . S
H1987 C2001 0.931 . S
H1988 C2003 0.930 . S
C1989 H1977 0.930 . S
C1989 C1990 1.399 . S
C1989 C1994 1.399 . S
C1990 C1989 1.399 . S
C1990 C1991 1.376 . S
C1991 H1978 0.930 . S
C1991 C1990 1.376 . S
C1991 C1992 1.388 . S
C1992 H1979 0.930 . S
C1992 C1991 1.388 . S
C1992 C1993 1.390 . S
C1993 C1992 1.390 . S
C1993 C1994 1.394 . S
C1993 C1999 1.465 . S
C1994 C1989 1.399 . S
C1994 C1993 1.394 . S
C1994 C1995 1.516 . S
C1995 C1994 1.516 . S
C1995 C1996 1.502 . S
C1995 C1997 1.561 . S
C1995 C1998 1.526 . S
C1996 H1980 0.959 . S
C1996 H1981 0.959 . S
C1996 H1982 0.961 . S
C1996 C1995 1.502 . S
C1997 H1983 0.960 . S
C1997 H1984 0.961 . S
C1997 H1985 0.959 . S
C1997 C1995 1.561 . S
C1998 C1995 1.526 . S
C1998 C1999 1.396 . S
C1998 C2003 1.390 . S
C1999 C1993 1.465 . S
C1999 C1998 1.396 . S
C1999 C2000 1.399 . S
C2000 H1986 0.929 . S
C2000 C1999 1.399 . S
C2000 C2001 1.385 . S
C2001 H1987 0.931 . S
C2001 C2000 1.385 . S
C2001 C2002 1.389 . S
C2002 C2001 1.389 . S
C2002 C2003 1.387 . S
C2003 H1988 0.930 . S
C2003 C1998 1.390 . S
C2003 C2002 1.387 . S
H2004 C2016 0.930 . S
H2005 C2018 0.930 . S
H2006 C2019 0.930 . S
H2007 C2023 0.959 . S
H2008 C2023 0.959 . S
H2009 C2023 0.961 . S
H2010 C2024 0.960 . S
H2011 C2024 0.961 . S
H2012 C2024 0.959 . S
H2013 C2027 0.929 . S
H2014 C2028 0.965 . S
H2015 C2030 0.930 . S
C2016 H2004 0.930 . S
C2016 C2017 1.399 . S
C2016 C2021 1.399 . S
C2017 C2016 1.399 . S
C2017 C2018 1.376 1_545 S
C2018 H2005 0.930 . S
C2018 C2017 1.376 1_565 S
C2018 C2019 1.388 . S
C2019 H2006 0.930 . S
C2019 C2018 1.388 . S
C2019 C2020 1.390 1_565 S
C2020 C2019 1.390 1_545 S
C2020 C2021 1.394 . S
C2020 C2026 1.465 . S
C2021 C2016 1.399 . S
C2021 C2020 1.394 . S
C2021 C2022 1.516 . S
C2022 C2021 1.516 . S
C2022 C2023 1.502 1_655 S
C2022 C2024 1.561 . S
C2022 C2025 1.526 . S
C2023 H2007 0.959 . S
C2023 H2008 0.959 . S
C2023 H2009 0.961 . S
C2023 C2022 1.502 1_455 S
C2024 H2010 0.960 . S
C2024 H2011 0.961 . S
C2024 H2012 0.959 . S
C2024 C2022 1.561 . S
C2025 C2022 1.526 . S
C2025 C2026 1.396 . S
C2025 C2030 1.390 1_655 S
C2026 C2020 1.465 . S
C2026 C2025 1.396 . S
C2026 C2027 1.399 1_545 S
C2027 H2013 0.929 . S
C2027 C2026 1.399 1_565 S
C2027 C2028 1.387 . S
C2028 H2014 0.965 . S
C2028 C2027 1.387 . S
C2028 C2029 1.355 1_665 S
C2029 C2028 1.355 1_445 S
C2029 C2030 1.387 . S
C2030 H2015 0.930 . S
C2030 C2025 1.390 1_455 S
C2030 C2029 1.387 . S
H2031 C2043 0.930 . S
H2032 C2045 0.930 . S
H2033 C2046 0.930 . S
H2034 C2050 0.959 . S
H2035 C2050 0.959 . S
H2036 C2050 0.961 . S
H2037 C2051 0.960 . S
H2038 C2051 0.961 . S
H2039 C2051 0.959 . S
H2040 C2054 0.929 . S
H2041 C2055 0.931 . S
H2042 C2057 0.930 . S
C2043 H2031 0.930 . S
C2043 C2044 1.399 . S
C2043 C2048 1.399 . S
C2044 C2043 1.399 . S
C2044 C2045 1.376 . S
C2045 H2032 0.930 . S
C2045 C2044 1.376 . S
C2045 C2046 1.388 . S
C2046 H2033 0.930 . S
C2046 C2045 1.388 . S
C2046 C2047 1.390 . S
C2047 C2046 1.390 . S
C2047 C2048 1.394 . S
C2047 C2053 1.465 . S
C2048 C2043 1.399 . S
C2048 C2047 1.394 . S
C2048 C2049 1.516 . S
C2049 C2048 1.516 . S
C2049 C2050 1.502 . S
C2049 C2051 1.561 . S
C2049 C2052 1.526 . S
C2050 H2034 0.959 . S
C2050 H2035 0.959 . S
C2050 H2036 0.961 . S
C2050 C2049 1.502 . S
C2051 H2037 0.960 . S
C2051 H2038 0.961 . S
C2051 H2039 0.959 . S
C2051 C2049 1.561 . S
C2052 C2049 1.526 . S
C2052 C2053 1.396 . S
C2052 C2057 1.390 . S
C2053 C2047 1.465 . S
C2053 C2052 1.396 . S
C2053 C2054 1.399 . S
C2054 H2040 0.929 . S
C2054 C2053 1.399 . S
C2054 C2055 1.385 . S
C2055 H2041 0.931 . S
C2055 C2054 1.385 . S
C2055 C2056 1.389 . S
C2056 C2055 1.389 . S
C2056 C2057 1.387 . S
C2057 H2042 0.930 . S
C2057 C2052 1.390 . S
C2057 C2056 1.387 . S
H2058 C2070 0.930 . S
H2059 C2072 0.930 . S
H2060 C2073 0.930 . S
H2061 C2077 0.959 . S
H2062 C2077 0.959 . S
H2063 C2077 0.961 . S
H2064 C2078 0.960 . S
H2065 C2078 0.961 . S
H2066 C2078 0.959 . S
H2067 C2081 0.929 . S
H2068 C2082 0.931 . S
H2069 C2084 0.930 . S
C2070 H2058 0.930 . S
C2070 C2071 1.399 . S
C2070 C2075 1.399 . S
C2071 C2070 1.399 . S
C2071 C2072 1.376 . S
C2072 H2059 0.930 . S
C2072 C2071 1.376 . S
C2072 C2073 1.388 . S
C2073 H2060 0.930 . S
C2073 C2072 1.388 . S
C2073 C2074 1.390 . S
C2074 C2073 1.390 . S
C2074 C2075 1.394 . S
C2074 C2080 1.465 . S
C2075 C2070 1.399 . S
C2075 C2074 1.394 . S
C2075 C2076 1.516 . S
C2076 C2075 1.516 . S
C2076 C2077 1.502 . S
C2076 C2078 1.561 . S
C2076 C2079 1.526 . S
C2077 H2061 0.959 . S
C2077 H2062 0.959 . S
C2077 H2063 0.961 . S
C2077 C2076 1.502 . S
C2078 H2064 0.960 . S
C2078 H2065 0.961 . S
C2078 H2066 0.959 . S
C2078 C2076 1.561 . S
C2079 C2076 1.526 . S
C2079 C2080 1.396 . S
C2079 C2084 1.390 . S
C2080 C2074 1.465 . S
C2080 C2079 1.396 . S
C2080 C2081 1.399 . S
C2081 H2067 0.929 . S
C2081 C2080 1.399 . S
C2081 C2082 1.385 . S
C2082 H2068 0.931 . S
C2082 C2081 1.385 . S
C2082 C2083 1.389 . S
C2083 C2082 1.389 . S
C2083 C2084 1.387 . S
C2084 H2069 0.930 . S
C2084 C2079 1.390 . S
C2084 C2083 1.387 . S
H2085 C2097 0.930 . S
H2086 C2099 0.930 . S
H2087 C2100 0.930 . S
H2088 C2104 0.959 . S
H2089 C2104 0.959 . S
H2090 C2104 0.961 . S
H2091 C2105 0.960 . S
H2092 C2105 0.961 . S
H2093 C2105 0.959 . S
H2094 C2108 0.929 . S
H2095 C2109 0.931 . S
H2096 C2111 0.930 . S
C2097 H2085 0.930 . S
C2097 C2098 1.399 . S
C2097 C2102 1.399 . S
C2098 C2097 1.399 . S
C2098 C2099 1.376 . S
C2099 H2086 0.930 . S
C2099 C2098 1.376 . S
C2099 C2100 1.388 . S
C2100 H2087 0.930 . S
C2100 C2099 1.388 . S
C2100 C2101 1.390 . S
C2101 C2100 1.390 . S
C2101 C2102 1.394 . S
C2101 C2107 1.465 . S
C2102 C2097 1.399 . S
C2102 C2101 1.394 . S
C2102 C2103 1.516 . S
C2103 C2102 1.516 . S
C2103 C2104 1.502 . S
C2103 C2105 1.561 . S
C2103 C2106 1.526 . S
C2104 H2088 0.959 . S
C2104 H2089 0.959 . S
C2104 H2090 0.961 . S
C2104 C2103 1.502 . S
C2105 H2091 0.960 . S
C2105 H2092 0.961 . S
C2105 H2093 0.959 . S
C2105 C2103 1.561 . S
C2106 C2103 1.526 . S
C2106 C2107 1.396 . S
C2106 C2111 1.390 . S
C2107 C2101 1.465 . S
C2107 C2106 1.396 . S
C2107 C2108 1.399 . S
C2108 H2094 0.929 . S
C2108 C2107 1.399 . S
C2108 C2109 1.385 . S
C2109 H2095 0.931 . S
C2109 C2108 1.385 . S
C2109 C2110 1.389 . S
C2110 C2109 1.389 . S
C2110 C2111 1.387 . S
C2111 H2096 0.930 . S
C2111 C2106 1.390 . S
C2111 C2110 1.387 . S
H2112 C2124 0.930 . S
H2113 C2126 0.930 . S
H2114 C2127 0.930 1_546 S
H2115 C2131 0.959 . S
H2116 C2131 0.959 . S
H2117 C2131 0.961 . S
H2118 C2132 0.960 . S
H2119 C2132 0.961 . S
H2120 C2132 0.959 . S
H2121 C2135 0.929 . S
H2122 C2136 0.931 . S
H2123 C2138 0.930 . S
C2124 H2112 0.930 . S
C2124 C2125 1.399 . S
C2124 C2129 1.399 . S
C2125 C2124 1.399 . S
C2125 C2126 1.376 1_554 S
C2126 H2113 0.930 . S
C2126 C2125 1.376 1_556 S
C2126 C2127 1.388 1_556 S
C2127 H2114 0.930 1_564 S
C2127 C2126 1.388 1_554 S
C2127 C2128 1.390 . S
C2128 C2127 1.390 . S
C2128 C2129 1.394 . S
C2128 C2134 1.465 . S
C2129 C2124 1.399 . S
C2129 C2128 1.394 . S
C2129 C2130 1.516 . S
C2130 C2129 1.516 . S
C2130 C2131 1.502 . S
C2130 C2132 1.561 . S
C2130 C2133 1.526 . S
C2131 H2115 0.959 . S
C2131 H2116 0.959 . S
C2131 H2117 0.961 . S
C2131 C2130 1.502 . S
C2132 H2118 0.960 . S
C2132 H2119 0.961 . S
C2132 H2120 0.959 . S
C2132 C2130 1.561 . S
C2133 C2130 1.526 . S
C2133 C2134 1.396 . S
C2133 C2138 1.390 . S
C2134 C2128 1.465 . S
C2134 C2133 1.396 . S
C2134 C2135 1.399 1_565 S
C2135 H2121 0.929 . S
C2135 C2134 1.399 1_545 S
C2135 C2136 1.385 . S
C2136 H2122 0.931 . S
C2136 C2135 1.385 . S
C2136 C2137 1.389 . S
C2137 C2136 1.389 . S
C2137 C2138 1.387 1_545 S
C2138 H2123 0.930 . S
C2138 C2133 1.390 . S
C2138 C2137 1.387 1_565 S
H2139 C2151 0.930 . S
H2140 C2153 0.930 . S
H2141 C2154 0.930 . S
H2142 C2158 0.959 . S
H2143 C2158 0.959 . S
H2144 C2158 0.961 . S
H2145 C2159 0.960 . S
H2146 C2159 0.961 . S
H2147 C2159 0.959 . S
H2148 C2162 0.929 . S
H2149 C2163 0.931 . S
H2150 C2165 0.930 . S
C2151 H2139 0.930 . S
C2151 C2152 1.399 . S
C2151 C2156 1.399 . S
C2152 C2151 1.399 . S
C2152 C2153 1.376 1_554 S
C2153 H2140 0.930 . S
C2153 C2152 1.376 1_556 S
C2153 C2154 1.388 . S
C2154 H2141 0.930 . S
C2154 C2153 1.388 . S
C2154 C2155 1.390 1_556 S
C2155 C2154 1.390 1_554 S
C2155 C2156 1.394 . S
C2155 C2161 1.465 . S
C2156 C2151 1.399 . S
C2156 C2155 1.394 . S
C2156 C2157 1.516 . S
C2157 C2156 1.516 . S
C2157 C2158 1.502 . S
C2157 C2159 1.561 . S
C2157 C2160 1.526 . S
C2158 H2142 0.959 . S
C2158 H2143 0.959 . S
C2158 H2144 0.961 . S
C2158 C2157 1.502 . S
C2159 H2145 0.960 . S
C2159 H2146 0.961 . S
C2159 H2147 0.959 . S
C2159 C2157 1.561 . S
C2160 C2157 1.526 . S
C2160 C2161 1.396 . S
C2160 C2165 1.390 . S
C2161 C2155 1.465 . S
C2161 C2160 1.396 . S
C2161 C2162 1.399 1_554 S
C2162 H2148 0.929 . S
C2162 C2161 1.399 1_556 S
C2162 C2163 1.385 . S
C2163 H2149 0.931 . S
C2163 C2162 1.385 . S
C2163 C2164 1.389 1_556 S
C2164 C2163 1.389 1_554 S
C2164 C2165 1.387 . S
C2165 H2150 0.930 . S
C2165 C2160 1.390 . S
C2165 C2164 1.387 . S
H2166 C2178 0.930 . S
H2167 C2180 0.930 . S
H2168 C2181 0.930 . S
H2169 C2185 0.959 . S
H2170 C2185 0.959 . S
H2171 C2185 0.961 . S
H2172 C2186 0.960 . S
H2173 C2186 0.961 . S
H2174 C2186 0.959 . S
H2175 C2189 0.929 . S
H2176 C2190 0.931 . S
H2177 C2192 0.930 . S
C2178 H2166 0.930 . S
C2178 C2179 1.399 . S
C2178 C2183 1.399 . S
C2179 C2178 1.399 . S
C2179 C2180 1.376 . S
C2180 H2167 0.930 . S
C2180 C2179 1.376 . S
C2180 C2181 1.388 . S
C2181 H2168 0.930 . S
C2181 C2180 1.388 . S
C2181 C2182 1.390 . S
C2182 C2181 1.390 . S
C2182 C2183 1.394 . S
C2182 C2188 1.465 . S
C2183 C2178 1.399 . S
C2183 C2182 1.394 . S
C2183 C2184 1.516 . S
C2184 C2183 1.516 . S
C2184 C2185 1.502 . S
C2184 C2186 1.561 . S
C2184 C2187 1.526 . S
C2185 H2169 0.959 . S
C2185 H2170 0.959 . S
C2185 H2171 0.961 . S
C2185 C2184 1.502 . S
C2186 H2172 0.960 . S
C2186 H2173 0.961 . S
C2186 H2174 0.959 . S
C2186 C2184 1.561 . S
C2187 C2184 1.526 . S
C2187 C2188 1.396 . S
C2187 C2192 1.390 . S
C2188 C2182 1.465 . S
C2188 C2187 1.396 . S
C2188 C2189 1.399 . S
C2189 H2175 0.929 . S
C2189 C2188 1.399 . S
C2189 C2190 1.385 . S
C2190 H2176 0.931 . S
C2190 C2189 1.385 . S
C2190 C2191 1.389 . S
C2191 C2190 1.389 . S
C2191 C2192 1.387 . S
C2192 H2177 0.930 . S
C2192 C2187 1.390 . S
C2192 C2191 1.387 . S
H2193 C2205 0.930 . S
H2194 C2207 0.930 . S
H2195 C2208 0.930 . S
H2196 C2212 0.959 . S
H2197 C2212 0.959 . S
H2198 C2212 0.961 . S
H2199 C2213 0.960 . S
H2200 C2213 0.961 . S
H2201 C2213 0.959 . S
H2202 C2216 0.929 . S
H2203 C2217 0.931 . S
H2204 C2219 0.930 . S
C2205 H2193 0.930 . S
C2205 C2206 1.399 . S
C2205 C2210 1.399 . S
C2206 C2205 1.399 . S
C2206 C2207 1.376 . S
C2207 H2194 0.930 . S
C2207 C2206 1.376 . S
C2207 C2208 1.388 . S
C2208 H2195 0.930 . S
C2208 C2207 1.388 . S
C2208 C2209 1.390 . S
C2209 C2208 1.390 . S
C2209 C2210 1.394 . S
C2209 C2215 1.465 . S
C2210 C2205 1.399 . S
C2210 C2209 1.394 . S
C2210 C2211 1.516 . S
C2211 C2210 1.516 . S
C2211 C2212 1.502 . S
C2211 C2213 1.561 . S
C2211 C2214 1.526 . S
C2212 H2196 0.959 . S
C2212 H2197 0.959 . S
C2212 H2198 0.961 . S
C2212 C2211 1.502 . S
C2213 H2199 0.960 . S
C2213 H2200 0.961 . S
C2213 H2201 0.959 . S
C2213 C2211 1.561 . S
C2214 C2211 1.526 . S
C2214 C2215 1.396 . S
C2214 C2219 1.390 . S
C2215 C2209 1.465 . S
C2215 C2214 1.396 . S
C2215 C2216 1.399 . S
C2216 H2202 0.929 . S
C2216 C2215 1.399 . S
C2216 C2217 1.385 . S
C2217 H2203 0.931 . S
C2217 C2216 1.385 . S
C2217 C2218 1.389 . S
C2218 C2217 1.389 . S
C2218 C2219 1.387 . S
C2219 H2204 0.930 . S
C2219 C2214 1.390 . S
C2219 C2218 1.387 . S
H2220 C2232 0.930 . S
H2221 C2234 0.930 . S
H2222 C2235 0.930 . S
H2223 C2239 0.959 . S
H2224 C2239 0.959 . S
H2225 C2239 0.961 . S
H2226 C2240 0.960 . S
H2227 C2240 0.961 . S
H2228 C2240 0.959 . S
H2229 C2243 0.929 . S
H2230 C2244 0.931 . S
H2231 C2246 0.930 . S
C2232 H2220 0.930 . S
C2232 C2233 1.399 . S
C2232 C2237 1.399 . S
C2233 C2232 1.399 . S
C2233 C2234 1.376 . S
C2234 H2221 0.930 . S
C2234 C2233 1.376 . S
C2234 C2235 1.388 . S
C2235 H2222 0.930 . S
C2235 C2234 1.388 . S
C2235 C2236 1.390 . S
C2236 C2235 1.390 . S
C2236 C2237 1.394 . S
C2236 C2242 1.465 . S
C2237 C2232 1.399 . S
C2237 C2236 1.394 . S
C2237 C2238 1.516 . S
C2238 C2237 1.516 . S
C2238 C2239 1.502 . S
C2238 C2240 1.561 . S
C2238 C2241 1.526 . S
C2239 H2223 0.959 . S
C2239 H2224 0.959 . S
C2239 H2225 0.961 . S
C2239 C2238 1.502 . S
C2240 H2226 0.960 . S
C2240 H2227 0.961 . S
C2240 H2228 0.959 . S
C2240 C2238 1.561 . S
C2241 C2238 1.526 . S
C2241 C2242 1.396 . S
C2241 C2246 1.390 . S
C2242 C2236 1.465 . S
C2242 C2241 1.396 . S
C2242 C2243 1.399 . S
C2243 H2229 0.929 . S
C2243 C2242 1.399 . S
C2243 C2244 1.385 . S
C2244 H2230 0.931 . S
C2244 C2243 1.385 . S
C2244 C2245 1.389 . S
C2245 C2244 1.389 . S
C2245 C2246 1.387 . S
C2246 H2231 0.930 . S
C2246 C2241 1.390 . S
C2246 C2245 1.387 . S
H2247 C2259 0.930 . S
H2248 C2261 0.930 . S
H2249 C2262 0.930 . S
H2250 C2266 0.959 . S
H2251 C2266 0.959 . S
H2252 C2266 0.961 . S
H2253 C2267 0.960 . S
H2254 C2267 0.961 . S
H2255 C2267 0.959 . S
H2256 C2270 0.929 . S
H2257 C2271 0.931 . S
H2258 C2273 0.930 . S
C2259 H2247 0.930 . S
C2259 C2260 1.399 . S
C2259 C2264 1.399 . S
C2260 C2259 1.399 . S
C2260 C2261 1.376 . S
C2261 H2248 0.930 . S
C2261 C2260 1.376 . S
C2261 C2262 1.388 . S
C2262 H2249 0.930 . S
C2262 C2261 1.388 . S
C2262 C2263 1.390 . S
C2263 C2262 1.390 . S
C2263 C2264 1.394 . S
C2263 C2269 1.465 . S
C2264 C2259 1.399 . S
C2264 C2263 1.394 . S
C2264 C2265 1.516 . S
C2265 C2264 1.516 . S
C2265 C2266 1.502 . S
C2265 C2267 1.561 . S
C2265 C2268 1.526 . S
C2266 H2250 0.959 . S
C2266 H2251 0.959 . S
C2266 H2252 0.961 . S
C2266 C2265 1.502 . S
C2267 H2253 0.960 . S
C2267 H2254 0.961 . S
C2267 H2255 0.959 . S
C2267 C2265 1.561 . S
C2268 C2265 1.526 . S
C2268 C2269 1.396 . S
C2268 C2273 1.390 . S
C2269 C2263 1.465 . S
C2269 C2268 1.396 . S
C2269 C2270 1.399 . S
C2270 H2256 0.929 . S
C2270 C2269 1.399 . S
C2270 C2271 1.385 . S
C2271 H2257 0.931 . S
C2271 C2270 1.385 . S
C2271 C2272 1.389 . S
C2272 C2271 1.389 . S
C2272 C2273 1.387 . S
C2273 H2258 0.930 . S
C2273 C2268 1.390 . S
C2273 C2272 1.387 . S
H2274 C2286 0.930 . S
H2275 C2288 0.930 . S
H2276 C2289 0.930 . S
H2277 C2293 0.959 . S
H2278 C2293 0.959 . S
H2279 C2293 0.961 . S
H2280 C2294 0.960 . S
H2281 C2294 0.961 . S
H2282 C2294 0.959 . S
H2283 C2297 0.929 . S
H2284 C2298 0.931 . S
H2285 C2300 0.930 . S
C2286 H2274 0.930 . S
C2286 C2287 1.399 . S
C2286 C2291 1.399 . S
C2287 C2286 1.399 . S
C2287 C2288 1.376 . S
C2288 H2275 0.930 . S
C2288 C2287 1.376 . S
C2288 C2289 1.388 . S
C2289 H2276 0.930 . S
C2289 C2288 1.388 . S
C2289 C2290 1.390 . S
C2290 C2289 1.390 . S
C2290 C2291 1.394 . S
C2290 C2296 1.465 . S
C2291 C2286 1.399 . S
C2291 C2290 1.394 . S
C2291 C2292 1.516 . S
C2292 C2291 1.516 . S
C2292 C2293 1.502 . S
C2292 C2294 1.561 . S
C2292 C2295 1.526 . S
C2293 H2277 0.959 . S
C2293 H2278 0.959 . S
C2293 H2279 0.961 . S
C2293 C2292 1.502 . S
C2294 H2280 0.960 . S
C2294 H2281 0.961 . S
C2294 H2282 0.959 . S
C2294 C2292 1.561 . S
C2295 C2292 1.526 . S
C2295 C2296 1.396 . S
C2295 C2300 1.390 . S
C2296 C2290 1.465 . S
C2296 C2295 1.396 . S
C2296 C2297 1.399 . S
C2297 H2283 0.929 . S
C2297 C2296 1.399 . S
C2297 C2298 1.385 . S
C2298 H2284 0.931 . S
C2298 C2297 1.385 . S
C2298 C2299 1.389 . S
C2299 C2298 1.389 . S
C2299 C2300 1.387 . S
C2300 H2285 0.930 . S
C2300 C2295 1.390 . S
C2300 C2299 1.387 . S
H2301 C2313 0.930 . S
H2302 C2315 0.930 . S
H2303 C2316 0.930 . S
H2304 C2320 0.959 . S
H2305 C2320 0.959 . S
H2306 C2320 0.961 . S
H2307 C2321 0.960 . S
H2308 C2321 0.961 . S
H2309 C2321 0.959 . S
H2310 C2324 0.929 . S
H2311 C2325 0.931 . S
H2312 C2327 0.930 . S
C2313 H2301 0.930 . S
C2313 C2314 1.399 . S
C2313 C2318 1.399 . S
C2314 C2313 1.399 . S
C2314 C2315 1.376 . S
C2315 H2302 0.930 . S
C2315 C2314 1.376 . S
C2315 C2316 1.388 . S
C2316 H2303 0.930 . S
C2316 C2315 1.388 . S
C2316 C2317 1.390 . S
C2317 C2316 1.390 . S
C2317 C2318 1.394 . S
C2317 C2323 1.465 . S
C2318 C2313 1.399 . S
C2318 C2317 1.394 . S
C2318 C2319 1.516 . S
C2319 C2318 1.516 . S
C2319 C2320 1.502 . S
C2319 C2321 1.561 . S
C2319 C2322 1.526 . S
C2320 H2304 0.959 . S
C2320 H2305 0.959 . S
C2320 H2306 0.961 . S
C2320 C2319 1.502 . S
C2321 H2307 0.960 . S
C2321 H2308 0.961 . S
C2321 H2309 0.959 . S
C2321 C2319 1.561 . S
C2322 C2319 1.526 . S
C2322 C2323 1.396 . S
C2322 C2327 1.390 . S
C2323 C2317 1.465 . S
C2323 C2322 1.396 . S
C2323 C2324 1.399 . S
C2324 H2310 0.929 . S
C2324 C2323 1.399 . S
C2324 C2325 1.385 . S
C2325 H2311 0.931 . S
C2325 C2324 1.385 . S
C2325 C2326 1.389 . S
C2326 C2325 1.389 . S
C2326 C2327 1.387 . S
C2327 H2312 0.930 . S
C2327 C2322 1.390 . S
C2327 C2326 1.387 . S
H2328 C2340 0.930 . S
H2329 C2342 0.930 . S
H2330 C2343 0.930 . S
H2331 C2347 0.959 . S
H2332 C2347 0.959 . S
H2333 C2347 0.961 . S
H2334 C2348 0.960 . S
H2335 C2348 0.961 . S
H2336 C2348 0.959 . S
H2337 C2351 0.929 . S
H2338 C2352 0.931 . S
H2339 C2354 0.930 . S
C2340 H2328 0.930 . S
C2340 C2341 1.399 . S
C2340 C2345 1.399 . S
C2341 C2340 1.399 . S
C2341 C2342 1.376 . S
C2342 H2329 0.930 . S
C2342 C2341 1.376 . S
C2342 C2343 1.388 . S
C2343 H2330 0.930 . S
C2343 C2342 1.388 . S
C2343 C2344 1.390 . S
C2344 C2343 1.390 . S
C2344 C2345 1.394 . S
C2344 C2350 1.465 . S
C2345 C2340 1.399 . S
C2345 C2344 1.394 . S
C2345 C2346 1.516 . S
C2346 C2345 1.516 . S
C2346 C2347 1.502 . S
C2346 C2348 1.561 . S
C2346 C2349 1.526 . S
C2347 H2331 0.959 . S
C2347 H2332 0.959 . S
C2347 H2333 0.961 . S
C2347 C2346 1.502 . S
C2348 H2334 0.960 . S
C2348 H2335 0.961 . S
C2348 H2336 0.959 . S
C2348 C2346 1.561 . S
C2349 C2346 1.526 . S
C2349 C2350 1.396 . S
C2349 C2354 1.390 . S
C2350 C2344 1.465 . S
C2350 C2349 1.396 . S
C2350 C2351 1.399 . S
C2351 H2337 0.929 . S
C2351 C2350 1.399 . S
C2351 C2352 1.385 . S
C2352 H2338 0.931 . S
C2352 C2351 1.385 . S
C2352 C2353 1.389 . S
C2353 C2352 1.389 . S
C2353 C2354 1.387 . S
C2354 H2339 0.930 . S
C2354 C2349 1.390 . S
C2354 C2353 1.387 . S
H2355 C2367 0.930 . S
H2356 C2369 0.930 . S
H2357 C2370 0.930 . S
H2358 C2374 0.959 . S
H2359 C2374 0.959 . S
H2360 C2374 0.961 . S
H2361 C2375 0.960 . S
H2362 C2375 0.961 . S
H2363 C2375 0.959 . S
H2364 C2378 0.929 . S
H2365 C2379 0.931 . S
H2366 C2381 0.930 . S
C2367 H2355 0.930 . S
C2367 C2368 1.399 . S
C2367 C2372 1.399 . S
C2368 C2367 1.399 . S
C2368 C2369 1.376 . S
C2369 H2356 0.930 . S
C2369 C2368 1.376 . S
C2369 C2370 1.388 . S
C2370 H2357 0.930 . S
C2370 C2369 1.388 . S
C2370 C2371 1.390 . S
C2371 C2370 1.390 . S
C2371 C2372 1.394 . S
C2371 C2377 1.465 . S
C2372 C2367 1.399 . S
C2372 C2371 1.394 . S
C2372 C2373 1.516 . S
C2373 C2372 1.516 . S
C2373 C2374 1.502 . S
C2373 C2375 1.561 . S
C2373 C2376 1.526 . S
C2374 H2358 0.959 . S
C2374 H2359 0.959 . S
C2374 H2360 0.961 . S
C2374 C2373 1.502 . S
C2375 H2361 0.960 . S
C2375 H2362 0.961 . S
C2375 H2363 0.959 . S
C2375 C2373 1.561 . S
C2376 C2373 1.526 . S
C2376 C2377 1.396 . S
C2376 C2381 1.390 . S
C2377 C2371 1.465 . S
C2377 C2376 1.396 . S
C2377 C2378 1.399 . S
C2378 H2364 0.929 . S
C2378 C2377 1.399 . S
C2378 C2379 1.385 . S
C2379 H2365 0.931 . S
C2379 C2378 1.385 . S
C2379 C2380 1.389 . S
C2380 C2379 1.389 . S
C2380 C2381 1.387 . S
C2381 H2366 0.930 . S
C2381 C2376 1.390 . S
C2381 C2380 1.387 . S
H2382 C2394 0.930 . S
H2383 C2396 0.930 . S
H2384 C2397 0.930 . S
H2385 C2401 0.959 . S
H2386 C2401 0.959 . S
H2387 C2401 0.961 . S
H2388 C2402 0.960 . S
H2389 C2402 0.961 . S
H2390 C2402 0.959 . S
H2391 C2405 0.929 . S
H2392 C2406 0.931 . S
H2393 C2408 0.930 . S
C2394 H2382 0.930 . S
C2394 C2395 1.399 . S
C2394 C2399 1.399 . S
C2395 C2394 1.399 . S
C2395 C2396 1.376 . S
C2396 H2383 0.930 . S
C2396 C2395 1.376 . S
C2396 C2397 1.388 . S
C2397 H2384 0.930 . S
C2397 C2396 1.388 . S
C2397 C2398 1.390 . S
C2398 C2397 1.390 . S
C2398 C2399 1.394 . S
C2398 C2404 1.465 . S
C2399 C2394 1.399 . S
C2399 C2398 1.394 . S
C2399 C2400 1.516 . S
C2400 C2399 1.516 . S
C2400 C2401 1.502 . S
C2400 C2402 1.561 . S
C2400 C2403 1.526 . S
C2401 H2385 0.959 . S
C2401 H2386 0.959 . S
C2401 H2387 0.961 . S
C2401 C2400 1.502 . S
C2402 H2388 0.960 . S
C2402 H2389 0.961 . S
C2402 H2390 0.959 . S
C2402 C2400 1.561 . S
C2403 C2400 1.526 . S
C2403 C2404 1.396 . S
C2403 C2408 1.390 . S
C2404 C2398 1.465 . S
C2404 C2403 1.396 . S
C2404 C2405 1.399 . S
C2405 H2391 0.929 . S
C2405 C2404 1.399 . S
C2405 C2406 1.385 . S
C2406 H2392 0.931 . S
C2406 C2405 1.385 . S
C2406 C2407 1.389 . S
C2407 C2406 1.389 . S
C2407 C2408 1.387 . S
C2408 H2393 0.930 . S
C2408 C2403 1.390 . S
C2408 C2407 1.387 . S
H2409 C2421 0.930 . S
H2410 C2423 0.930 . S
H2411 C2424 0.930 . S
H2412 C2428 0.959 . S
H2413 C2428 0.959 . S
H2414 C2428 0.961 . S
H2415 C2429 0.960 . S
H2416 C2429 0.961 . S
H2417 C2429 0.959 . S
H2418 C2432 0.929 . S
H2419 C2433 0.931 . S
H2420 C2435 0.930 . S
C2421 H2409 0.930 . S
C2421 C2422 1.399 . S
C2421 C2426 1.399 . S
C2422 C2421 1.399 . S
C2422 C2423 1.376 . S
C2423 H2410 0.930 . S
C2423 C2422 1.376 . S
C2423 C2424 1.388 . S
C2424 H2411 0.930 . S
C2424 C2423 1.388 . S
C2424 C2425 1.390 . S
C2425 C2424 1.390 . S
C2425 C2426 1.394 . S
C2425 C2431 1.465 . S
C2426 C2421 1.399 . S
C2426 C2425 1.394 . S
C2426 C2427 1.516 . S
C2427 C2426 1.516 . S
C2427 C2428 1.502 . S
C2427 C2429 1.561 . S
C2427 C2430 1.526 . S
C2428 H2412 0.959 . S
C2428 H2413 0.959 . S
C2428 H2414 0.961 . S
C2428 C2427 1.502 . S
C2429 H2415 0.960 . S
C2429 H2416 0.961 . S
C2429 H2417 0.959 . S
C2429 C2427 1.561 . S
C2430 C2427 1.526 . S
C2430 C2431 1.396 . S
C2430 C2435 1.390 . S
C2431 C2425 1.465 . S
C2431 C2430 1.396 . S
C2431 C2432 1.399 . S
C2432 H2418 0.929 . S
C2432 C2431 1.399 . S
C2432 C2433 1.385 . S
C2433 H2419 0.931 . S
C2433 C2432 1.385 . S
C2433 C2434 1.389 . S
C2434 C2433 1.389 . S
C2434 C2435 1.387 . S
C2435 H2420 0.930 . S
C2435 C2430 1.390 . S
C2435 C2434 1.387 . S
H2436 C2448 0.930 . S
H2437 C2450 0.930 . S
H2438 C2451 0.930 . S
H2439 C2455 0.959 . S
H2440 C2455 0.959 . S
H2441 C2455 0.961 . S
H2442 C2456 0.960 . S
H2443 C2456 0.961 . S
H2444 C2456 0.959 . S
H2445 C2459 0.929 . S
H2446 C2460 0.931 . S
H2447 C2462 0.930 . S
C2448 H2436 0.930 . S
C2448 C2449 1.399 . S
C2448 C2453 1.399 . S
C2449 C2448 1.399 . S
C2449 C2450 1.376 . S
C2450 H2437 0.930 . S
C2450 C2449 1.376 . S
C2450 C2451 1.388 . S
C2451 H2438 0.930 . S
C2451 C2450 1.388 . S
C2451 C2452 1.390 . S
C2452 C2451 1.390 . S
C2452 C2453 1.394 . S
C2452 C2458 1.465 . S
C2453 C2448 1.399 . S
C2453 C2452 1.394 . S
C2453 C2454 1.516 . S
C2454 C2453 1.516 . S
C2454 C2455 1.502 . S
C2454 C2456 1.561 . S
C2454 C2457 1.526 . S
C2455 H2439 0.959 . S
C2455 H2440 0.959 . S
C2455 H2441 0.961 . S
C2455 C2454 1.502 . S
C2456 H2442 0.960 . S
C2456 H2443 0.961 . S
C2456 H2444 0.959 . S
C2456 C2454 1.561 . S
C2457 C2454 1.526 . S
C2457 C2458 1.396 . S
C2457 C2462 1.390 . S
C2458 C2452 1.465 . S
C2458 C2457 1.396 . S
C2458 C2459 1.399 . S
C2459 H2445 0.929 . S
C2459 C2458 1.399 . S
C2459 C2460 1.385 . S
C2460 H2446 0.931 . S
C2460 C2459 1.385 . S
C2460 C2461 1.389 . S
C2461 C2460 1.389 . S
C2461 C2462 1.387 . S
C2462 H2447 0.930 . S
C2462 C2457 1.390 . S
C2462 C2461 1.387 . S
H2463 C2475 0.930 . S
H2464 C2477 0.930 . S
H2465 C2478 0.930 . S
H2466 C2482 0.959 . S
H2467 C2482 0.959 . S
H2468 C2482 0.961 . S
H2469 C2483 0.960 . S
H2470 C2483 0.961 . S
H2471 C2483 0.959 . S
H2472 C2486 0.929 . S
H2473 C2487 0.931 . S
H2474 C2489 0.930 . S
C2475 H2463 0.930 . S
C2475 C2476 1.399 . S
C2475 C2480 1.399 . S
C2476 C2475 1.399 . S
C2476 C2477 1.376 . S
C2477 H2464 0.930 . S
C2477 C2476 1.376 . S
C2477 C2478 1.388 . S
C2478 H2465 0.930 . S
C2478 C2477 1.388 . S
C2478 C2479 1.390 . S
C2479 C2478 1.390 . S
C2479 C2480 1.394 . S
C2479 C2485 1.465 . S
C2480 C2475 1.399 . S
C2480 C2479 1.394 . S
C2480 C2481 1.516 . S
C2481 C2480 1.516 . S
C2481 C2482 1.502 . S
C2481 C2483 1.561 . S
C2481 C2484 1.526 . S
C2482 H2466 0.959 . S
C2482 H2467 0.959 . S
C2482 H2468 0.961 . S
C2482 C2481 1.502 . S
C2483 H2469 0.960 . S
C2483 H2470 0.961 . S
C2483 H2471 0.959 . S
C2483 C2481 1.561 . S
C2484 C2481 1.526 . S
C2484 C2485 1.396 . S
C2484 C2489 1.390 . S
C2485 C2479 1.465 . S
C2485 C2484 1.396 . S
C2485 C2486 1.399 . S
C2486 H2472 0.929 . S
C2486 C2485 1.399 . S
C2486 C2487 1.385 . S
C2487 H2473 0.931 . S
C2487 C2486 1.385 . S
C2487 C2488 1.389 . S
C2488 C2487 1.389 . S
C2488 C2489 1.387 . S
C2489 H2474 0.930 . S
C2489 C2484 1.390 . S
C2489 C2488 1.387 . S
H2490 C2502 0.930 . S
H2491 C2504 0.930 . S
H2492 C2505 0.930 . S
H2493 C2509 0.959 . S
H2494 C2509 0.959 . S
H2495 C2509 0.961 . S
H2496 C2510 0.960 . S
H2497 C2510 0.961 . S
H2498 C2510 0.959 . S
H2499 C2513 0.929 . S
H2500 C2514 0.931 . S
H2501 C2516 0.930 . S
C2502 H2490 0.930 . S
C2502 C2503 1.399 . S
C2502 C2507 1.399 . S
C2503 C2502 1.399 . S
C2503 C2504 1.376 . S
C2504 H2491 0.930 . S
C2504 C2503 1.376 . S
C2504 C2505 1.388 . S
C2505 H2492 0.930 . S
C2505 C2504 1.388 . S
C2505 C2506 1.390 . S
C2506 C2505 1.390 . S
C2506 C2507 1.394 . S
C2506 C2512 1.465 . S
C2507 C2502 1.399 . S
C2507 C2506 1.394 . S
C2507 C2508 1.516 . S
C2508 C2507 1.516 . S
C2508 C2509 1.502 . S
C2508 C2510 1.561 . S
C2508 C2511 1.526 . S
C2509 H2493 0.959 . S
C2509 H2494 0.959 . S
C2509 H2495 0.961 . S
C2509 C2508 1.502 . S
C2510 H2496 0.960 . S
C2510 H2497 0.961 . S
C2510 H2498 0.959 . S
C2510 C2508 1.561 . S
C2511 C2508 1.526 . S
C2511 C2512 1.396 . S
C2511 C2516 1.390 . S
C2512 C2506 1.465 . S
C2512 C2511 1.396 . S
C2512 C2513 1.399 . S
C2513 H2499 0.929 . S
C2513 C2512 1.399 . S
C2513 C2514 1.385 . S
C2514 H2500 0.931 . S
C2514 C2513 1.385 . S
C2514 C2515 1.389 . S
C2515 C2514 1.389 . S
C2515 C2516 1.387 . S
C2516 H2501 0.930 . S
C2516 C2511 1.390 . S
C2516 C2515 1.387 . S
H2517 C2529 0.930 . S
H2518 C2531 0.930 . S
H2519 C2532 0.930 . S
H2520 C2536 0.959 . S
H2521 C2536 0.959 . S
H2522 C2536 0.961 . S
H2523 C2537 0.960 . S
H2524 C2537 0.961 . S
H2525 C2537 0.959 . S
H2526 C2540 0.929 . S
H2527 C2541 0.931 . S
H2528 C2543 0.930 . S
C2529 H2517 0.930 . S
C2529 C2530 1.399 . S
C2529 C2534 1.399 . S
C2530 C2529 1.399 . S
C2530 C2531 1.376 . S
C2531 H2518 0.930 . S
C2531 C2530 1.376 . S
C2531 C2532 1.388 . S
C2532 H2519 0.930 . S
C2532 C2531 1.388 . S
C2532 C2533 1.390 . S
C2533 C2532 1.390 . S
C2533 C2534 1.394 . S
C2533 C2539 1.465 . S
C2534 C2529 1.399 . S
C2534 C2533 1.394 . S
C2534 C2535 1.516 . S
C2535 C2534 1.516 . S
C2535 C2536 1.502 . S
C2535 C2537 1.561 . S
C2535 C2538 1.526 . S
C2536 H2520 0.959 . S
C2536 H2521 0.959 . S
C2536 H2522 0.961 . S
C2536 C2535 1.502 . S
C2537 H2523 0.960 . S
C2537 H2524 0.961 . S
C2537 H2525 0.959 . S
C2537 C2535 1.561 . S
C2538 C2535 1.526 . S
C2538 C2539 1.396 . S
C2538 C2543 1.390 . S
C2539 C2533 1.465 . S
C2539 C2538 1.396 . S
C2539 C2540 1.399 . S
C2540 H2526 0.929 . S
C2540 C2539 1.399 . S
C2540 C2541 1.385 . S
C2541 H2527 0.931 . S
C2541 C2540 1.385 . S
C2541 C2542 1.389 . S
C2542 C2541 1.389 . S
C2542 C2543 1.387 . S
C2543 H2528 0.930 . S
C2543 C2538 1.390 . S
C2543 C2542 1.387 . S
H2544 C2556 0.930 . S
H2545 C2558 0.930 . S
H2546 C2559 0.930 1_565 S
H2547 C2563 0.959 . S
H2548 C2563 0.959 . S
H2549 C2563 0.961 . S
H2550 C2564 0.960 . S
H2551 C2564 0.961 . S
H2552 C2564 0.959 . S
H2553 C2567 0.929 1_565 S
H2554 C2568 0.931 1_565 S
H2555 C2570 0.930 . S
C2556 H2544 0.930 . S
C2556 C2557 1.399 . S
C2556 C2561 1.399 . S
C2557 C2556 1.399 . S
C2557 C2558 1.376 . S
C2558 H2545 0.930 . S
C2558 C2557 1.376 . S
C2558 C2559 1.388 . S
C2559 H2546 0.930 1_545 S
C2559 C2558 1.388 . S
C2559 C2560 1.390 . S
C2560 C2559 1.390 . S
C2560 C2561 1.394 . S
C2560 C2566 1.465 . S
C2561 C2556 1.399 . S
C2561 C2560 1.394 . S
C2561 C2562 1.516 . S
C2562 C2561 1.516 . S
C2562 C2563 1.502 . S
C2562 C2564 1.561 . S
C2562 C2565 1.526 . S
C2563 H2547 0.959 . S
C2563 H2548 0.959 . S
C2563 H2549 0.961 . S
C2563 C2562 1.502 . S
C2564 H2550 0.960 . S
C2564 H2551 0.961 . S
C2564 H2552 0.959 . S
C2564 C2562 1.561 . S
C2565 C2562 1.526 . S
C2565 C2566 1.396 . S
C2565 C2570 1.390 . S
C2566 C2560 1.465 . S
C2566 C2565 1.396 . S
C2566 C2567 1.399 . S
C2567 H2553 0.929 1_545 S
C2567 C2566 1.399 . S
C2567 C2568 1.385 . S
C2568 H2554 0.931 1_545 S
C2568 C2567 1.385 . S
C2568 C2569 1.389 . S
C2569 C2568 1.389 . S
C2569 C2570 1.387 . S
C2570 H2555 0.930 . S
C2570 C2565 1.390 . S
C2570 C2569 1.387 . S
H2571 C2583 0.930 . S
H2572 C2585 0.930 . S
H2573 C2586 0.930 . S
H2574 C2590 0.959 . S
H2575 C2590 0.959 . S
H2576 C2590 0.961 . S
H2577 C2591 0.960 . S
H2578 C2591 0.961 . S
H2579 C2591 0.959 . S
H2580 C2594 0.929 . S
H2581 C2595 0.931 . S
H2582 C2597 0.930 . S
C2583 H2571 0.930 . S
C2583 C2584 1.399 . S
C2583 C2588 1.399 . S
C2584 C2583 1.399 . S
C2584 C2585 1.376 . S
C2585 H2572 0.930 . S
C2585 C2584 1.376 . S
C2585 C2586 1.388 . S
C2586 H2573 0.930 . S
C2586 C2585 1.388 . S
C2586 C2587 1.390 . S
C2587 C2586 1.390 . S
C2587 C2588 1.394 . S
C2587 C2593 1.465 . S
C2588 C2583 1.399 . S
C2588 C2587 1.394 . S
C2588 C2589 1.516 . S
C2589 C2588 1.516 . S
C2589 C2590 1.502 . S
C2589 C2591 1.561 . S
C2589 C2592 1.526 . S
C2590 H2574 0.959 . S
C2590 H2575 0.959 . S
C2590 H2576 0.961 . S
C2590 C2589 1.502 . S
C2591 H2577 0.960 . S
C2591 H2578 0.961 . S
C2591 H2579 0.959 . S
C2591 C2589 1.561 . S
C2592 C2589 1.526 . S
C2592 C2593 1.396 . S
C2592 C2597 1.390 . S
C2593 C2587 1.465 . S
C2593 C2592 1.396 . S
C2593 C2594 1.399 . S
C2594 H2580 0.929 . S
C2594 C2593 1.399 . S
C2594 C2595 1.385 . S
C2595 H2581 0.931 . S
C2595 C2594 1.385 . S
C2595 C2596 1.389 . S
C2596 C2595 1.389 . S
C2596 C2597 1.387 . S
C2597 H2582 0.930 . S
C2597 C2592 1.390 . S
C2597 C2596 1.387 . S
H2598 C2610 0.930 . S
H2599 C2612 0.930 . S
H2600 C2613 0.930 . S
H2601 C2617 0.959 . S
H2602 C2617 0.959 . S
H2603 C2617 0.961 . S
H2604 C2618 0.960 . S
H2605 C2618 0.961 . S
H2606 C2618 0.959 . S
H2607 C2621 0.929 . S
H2608 C2622 0.931 . S
H2609 C2624 0.930 1_565 S
C2610 H2598 0.930 . S
C2610 C2611 1.399 1_565 S
C2610 C2615 1.399 1_565 S
C2611 C2610 1.399 1_545 S
C2611 C2612 1.376 . S
C2612 H2599 0.930 . S
C2612 C2611 1.376 . S
C2612 C2613 1.388 . S
C2613 H2600 0.930 . S
C2613 C2612 1.388 . S
C2613 C2614 1.390 . S
C2614 C2613 1.390 . S
C2614 C2615 1.394 . S
C2614 C2620 1.465 . S
C2615 C2610 1.399 1_545 S
C2615 C2614 1.394 . S
C2615 C2616 1.516 1_545 S
C2616 C2615 1.516 1_565 S
C2616 C2617 1.502 . S
C2616 C2618 1.561 . S
C2616 C2619 1.526 1_565 S
C2617 H2601 0.959 . S
C2617 H2602 0.959 . S
C2617 H2603 0.961 . S
C2617 C2616 1.502 . S
C2618 H2604 0.960 . S
C2618 H2605 0.961 . S
C2618 H2606 0.959 . S
C2618 C2616 1.561 . S
C2619 C2616 1.526 1_545 S
C2619 C2620 1.396 . S
C2619 C2624 1.390 . S
C2620 C2614 1.465 . S
C2620 C2619 1.396 . S
C2620 C2621 1.399 . S
C2621 H2607 0.929 . S
C2621 C2620 1.399 . S
C2621 C2622 1.385 . S
C2622 H2608 0.931 . S
C2622 C2621 1.385 . S
C2622 C2623 1.389 . S
C2623 C2622 1.389 . S
C2623 C2624 1.387 . S
C2624 H2609 0.930 1_545 S
C2624 C2619 1.390 . S
C2624 C2623 1.387 . S
H2625 C2637 0.930 . S
H2626 C2639 0.930 . S
H2627 C2640 0.930 . S
H2628 C2644 0.959 . S
H2629 C2644 0.959 . S
H2630 C2644 0.961 . S
H2631 C2645 0.960 . S
H2632 C2645 0.961 . S
H2633 C2645 0.959 . S
H2634 C2648 0.929 . S
H2635 C2649 0.931 . S
H2636 C2651 0.930 . S
C2637 H2625 0.930 . S
C2637 C2638 1.399 . S
C2637 C2642 1.399 . S
C2638 C2637 1.399 . S
C2638 C2639 1.376 . S
C2639 H2626 0.930 . S
C2639 C2638 1.376 . S
C2639 C2640 1.388 . S
C2640 H2627 0.930 . S
C2640 C2639 1.388 . S
C2640 C2641 1.390 . S
C2641 C2640 1.390 . S
C2641 C2642 1.394 . S
C2641 C2647 1.465 . S
C2642 C2637 1.399 . S
C2642 C2641 1.394 . S
C2642 C2643 1.516 . S
C2643 C2642 1.516 . S
C2643 C2644 1.502 . S
C2643 C2645 1.561 . S
C2643 C2646 1.526 . S
C2644 H2628 0.959 . S
C2644 H2629 0.959 . S
C2644 H2630 0.961 . S
C2644 C2643 1.502 . S
C2645 H2631 0.960 . S
C2645 H2632 0.961 . S
C2645 H2633 0.959 . S
C2645 C2643 1.561 . S
C2646 C2643 1.526 . S
C2646 C2647 1.396 . S
C2646 C2651 1.390 . S
C2647 C2641 1.465 . S
C2647 C2646 1.396 . S
C2647 C2648 1.399 . S
C2648 H2634 0.929 . S
C2648 C2647 1.399 . S
C2648 C2649 1.385 . S
C2649 H2635 0.931 . S
C2649 C2648 1.385 . S
C2649 C2650 1.389 . S
C2650 C2649 1.389 . S
C2650 C2651 1.387 . S
C2651 H2636 0.930 . S
C2651 C2646 1.390 . S
C2651 C2650 1.387 . S
H2652 C2664 0.930 . S
H2653 C2666 0.930 . S
H2654 C2667 0.930 1_565 S
H2655 C2671 0.959 . S
H2656 C2671 0.959 . S
H2657 C2671 0.961 . S
H2658 C2672 0.960 . S
H2659 C2672 0.961 . S
H2660 C2672 0.959 . S
H2661 C2675 0.929 1_565 S
H2662 C2676 0.916 1_565 S
H2663 C2678 0.930 . S
C2664 H2652 0.930 . S
C2664 C2665 1.399 . S
C2664 C2669 1.399 . S
C2665 C2664 1.399 . S
C2665 C2666 1.376 . S
C2666 H2653 0.930 . S
C2666 C2665 1.376 . S
C2666 C2667 1.388 . S
C2667 H2654 0.930 1_545 S
C2667 C2666 1.388 . S
C2667 C2668 1.390 . S
C2668 C2667 1.390 . S
C2668 C2669 1.394 . S
C2668 C2674 1.465 . S
C2669 C2664 1.399 . S
C2669 C2668 1.394 . S
C2669 C2670 1.516 . S
C2670 C2669 1.516 . S
C2670 C2671 1.502 . S
C2670 C2672 1.561 . S
C2670 C2673 1.526 . S
C2671 H2655 0.959 . S
C2671 H2656 0.959 . S
C2671 H2657 0.961 . S
C2671 C2670 1.502 . S
C2672 H2658 0.960 . S
C2672 H2659 0.961 . S
C2672 H2660 0.959 . S
C2672 C2670 1.561 . S
C2673 C2670 1.526 . S
C2673 C2674 1.396 . S
C2673 C2678 1.390 . S
C2674 C2668 1.465 . S
C2674 C2673 1.396 . S
C2674 C2675 1.399 . S
C2675 H2661 0.929 1_545 S
C2675 C2674 1.399 . S
C2675 C2676 1.385 . S
C2676 H2662 0.916 1_545 S
C2676 C2675 1.385 . S
C2676 C2677 1.389 . S
C2677 C2676 1.389 . S
C2677 C2678 1.387 . S
C2678 H2663 0.930 . S
C2678 C2673 1.390 . S
C2678 C2677 1.387 . S
H2679 C2691 0.930 . S
H2680 C2693 0.930 . S
H2681 C2694 0.930 . S
H2682 C2698 0.959 . S
H2683 C2698 0.959 . S
H2684 C2698 0.961 . S
H2685 C2699 0.960 . S
H2686 C2699 0.961 . S
H2687 C2699 0.959 . S
H2688 C2702 0.929 . S
H2689 C2703 0.931 . S
H2690 C2705 0.930 . S
C2691 H2679 0.930 . S
C2691 C2692 1.399 . S
C2691 C2696 1.399 . S
C2692 C2691 1.399 . S
C2692 C2693 1.376 . S
C2693 H2680 0.930 . S
C2693 C2692 1.376 . S
C2693 C2694 1.388 . S
C2694 H2681 0.930 . S
C2694 C2693 1.388 . S
C2694 C2695 1.390 . S
C2695 C2694 1.390 . S
C2695 C2696 1.394 . S
C2695 C2701 1.465 . S
C2696 C2691 1.399 . S
C2696 C2695 1.394 . S
C2696 C2697 1.516 . S
C2697 C2696 1.516 . S
C2697 C2698 1.502 . S
C2697 C2699 1.561 . S
C2697 C2700 1.526 . S
C2698 H2682 0.959 . S
C2698 H2683 0.959 . S
C2698 H2684 0.961 . S
C2698 C2697 1.502 . S
C2699 H2685 0.960 . S
C2699 H2686 0.961 . S
C2699 H2687 0.959 . S
C2699 C2697 1.561 . S
C2700 C2697 1.526 . S
C2700 C2701 1.396 . S
C2700 C2705 1.390 . S
C2701 C2695 1.465 . S
C2701 C2700 1.396 . S
C2701 C2702 1.399 . S
C2702 H2688 0.929 . S
C2702 C2701 1.399 . S
C2702 C2703 1.385 . S
C2703 H2689 0.931 . S
C2703 C2702 1.385 . S
C2703 C2704 1.389 . S
C2704 C2703 1.389 . S
C2704 C2705 1.387 . S
C2705 H2690 0.930 . S
C2705 C2700 1.390 . S
C2705 C2704 1.387 . S
H2706 C2718 0.930 . S
H2707 C2720 0.930 . S
H2708 C2721 0.930 . S
H2709 C2725 0.959 . S
H2710 C2725 0.959 . S
H2711 C2725 0.961 . S
H2712 C2726 0.960 . S
H2713 C2726 0.961 . S
H2714 C2726 0.959 . S
H2715 C2729 0.929 . S
H2716 C2730 0.931 . S
H2717 C2732 0.930 . S
C2718 H2706 0.930 . S
C2718 C2719 1.399 1_565 S
C2718 C2723 1.399 . S
C2719 C2718 1.399 1_545 S
C2719 C2720 1.376 . S
C2720 H2707 0.930 . S
C2720 C2719 1.376 . S
C2720 C2721 1.388 . S
C2721 H2708 0.930 . S
C2721 C2720 1.388 . S
C2721 C2722 1.390 . S
C2722 C2721 1.390 . S
C2722 C2723 1.394 1_545 S
C2722 C2728 1.465 . S
C2723 C2718 1.399 . S
C2723 C2722 1.394 1_565 S
C2723 C2724 1.516 . S
C2724 C2723 1.516 . S
C2724 C2725 1.502 . S
C2724 C2726 1.561 . S
C2724 C2727 1.551 . S
C2725 H2709 0.959 . S
C2725 H2710 0.959 . S
C2725 H2711 0.961 . S
C2725 C2724 1.502 . S
C2726 H2712 0.960 . S
C2726 H2713 0.961 . S
C2726 H2714 0.959 . S
C2726 C2724 1.561 . S
C2727 C2724 1.551 . S
C2727 C2728 1.362 1_565 S
C2727 C2732 1.396 . S
C2728 C2722 1.465 . S
C2728 C2727 1.362 1_545 S
C2728 C2729 1.399 . S
C2729 H2715 0.929 . S
C2729 C2728 1.399 . S
C2729 C2730 1.385 . S
C2730 H2716 0.931 . S
C2730 C2729 1.385 . S
C2730 C2731 1.389 . S
C2731 C2730 1.389 . S
C2731 C2732 1.387 1_545 S
C2732 H2717 0.930 . S
C2732 C2727 1.396 . S
C2732 C2731 1.387 1_565 S
H2733 C2745 0.930 . S
H2734 C2747 0.930 . S
H2735 C2748 0.930 . S
H2736 C2752 0.959 . S
H2737 C2752 0.959 . S
H2738 C2752 0.961 . S
H2739 C2753 0.960 . S
H2740 C2753 0.961 . S
H2741 C2753 0.959 . S
H2742 C2756 0.929 . S
H2743 C2757 0.931 . S
H2744 C2759 0.930 . S
C2745 H2733 0.930 . S
C2745 C2746 1.399 . S
C2745 C2750 1.399 . S
C2746 C2745 1.399 . S
C2746 C2747 1.376 . S
C2747 H2734 0.930 . S
C2747 C2746 1.376 . S
C2747 C2748 1.388 . S
C2748 H2735 0.930 . S
C2748 C2747 1.388 . S
C2748 C2749 1.390 . S
C2749 C2748 1.390 . S
C2749 C2750 1.394 . S
C2749 C2755 1.465 . S
C2750 C2745 1.399 . S
C2750 C2749 1.394 . S
C2750 C2751 1.516 . S
C2751 C2750 1.516 . S
C2751 C2752 1.502 . S
C2751 C2753 1.561 . S
C2751 C2754 1.526 . S
C2752 H2736 0.959 . S
C2752 H2737 0.959 . S
C2752 H2738 0.961 . S
C2752 C2751 1.502 . S
C2753 H2739 0.960 . S
C2753 H2740 0.961 . S
C2753 H2741 0.959 . S
C2753 C2751 1.561 . S
C2754 C2751 1.526 . S
C2754 C2755 1.396 . S
C2754 C2759 1.390 . S
C2755 C2749 1.465 . S
C2755 C2754 1.396 . S
C2755 C2756 1.399 . S
C2756 H2742 0.929 . S
C2756 C2755 1.399 . S
C2756 C2757 1.385 . S
C2757 H2743 0.931 . S
C2757 C2756 1.385 . S
C2757 C2758 1.389 . S
C2758 C2757 1.389 . S
C2758 C2759 1.387 . S
C2759 H2744 0.930 . S
C2759 C2754 1.390 . S
C2759 C2758 1.387 . S
H2760 C2772 0.930 . S
H2761 C2774 0.930 . S
H2762 C2775 0.930 . S
H2763 C2779 0.959 . S
H2764 C2779 0.959 . S
H2765 C2779 0.961 . S
H2766 C2780 0.960 . S
H2767 C2780 0.961 . S
H2768 C2780 0.959 . S
H2769 C2783 0.929 . S
H2770 C2784 0.931 . S
H2771 C2786 0.930 . S
C2772 H2760 0.930 . S
C2772 C2773 1.399 . S
C2772 C2777 1.399 . S
C2773 C2772 1.399 . S
C2773 C2774 1.376 . S
C2774 H2761 0.930 . S
C2774 C2773 1.376 . S
C2774 C2775 1.388 . S
C2775 H2762 0.930 . S
C2775 C2774 1.388 . S
C2775 C2776 1.390 . S
C2776 C2775 1.390 . S
C2776 C2777 1.394 . S
C2776 C2782 1.465 . S
C2777 C2772 1.399 . S
C2777 C2776 1.394 . S
C2777 C2778 1.516 . S
C2778 C2777 1.516 . S
C2778 C2779 1.502 . S
C2778 C2780 1.561 . S
C2778 C2781 1.526 . S
C2779 H2763 0.959 . S
C2779 H2764 0.959 . S
C2779 H2765 0.961 . S
C2779 C2778 1.502 . S
C2780 H2766 0.960 . S
C2780 H2767 0.961 . S
C2780 H2768 0.959 . S
C2780 C2778 1.561 . S
C2781 C2778 1.526 . S
C2781 C2782 1.396 . S
C2781 C2786 1.390 . S
C2782 C2776 1.465 . S
C2782 C2781 1.396 . S
C2782 C2783 1.399 . S
C2783 H2769 0.929 . S
C2783 C2782 1.399 . S
C2783 C2784 1.385 . S
C2784 H2770 0.931 . S
C2784 C2783 1.385 . S
C2784 C2785 1.389 . S
C2785 C2784 1.389 . S
C2785 C2786 1.387 . S
C2786 H2771 0.930 . S
C2786 C2781 1.390 . S
C2786 C2785 1.387 . S
H2787 C2799 0.930 . S
H2788 C2801 0.930 . S
H2789 C2802 0.900 1_556 S
H2790 C2806 0.959 . S
H2791 C2806 0.959 . S
H2792 C2806 0.961 . S
H2793 C2807 0.960 . S
H2794 C2807 0.961 . S
H2795 C2807 0.959 . S
H2796 C2810 0.929 1_556 S
H2797 C2811 0.931 . S
H2798 C2813 0.930 . S
C2799 H2787 0.930 . S
C2799 C2800 1.399 . S
C2799 C2804 1.399 . S
C2800 C2799 1.399 . S
C2800 C2801 1.376 . S
C2801 H2788 0.930 . S
C2801 C2800 1.376 . S
C2801 C2802 1.388 . S
C2802 H2789 0.900 1_554 S
C2802 C2801 1.388 . S
C2802 C2803 1.390 . S
C2803 C2802 1.390 . S
C2803 C2804 1.394 . S
C2803 C2809 1.465 . S
C2804 C2799 1.399 . S
C2804 C2803 1.394 . S
C2804 C2805 1.516 . S
C2805 C2804 1.516 . S
C2805 C2806 1.502 . S
C2805 C2807 1.561 . S
C2805 C2808 1.526 . S
C2806 H2790 0.959 . S
C2806 H2791 0.959 . S
C2806 H2792 0.961 . S
C2806 C2805 1.502 . S
C2807 H2793 0.960 . S
C2807 H2794 0.961 . S
C2807 H2795 0.959 . S
C2807 C2805 1.561 . S
C2808 C2805 1.526 . S
C2808 C2809 1.396 . S
C2808 C2813 1.390 . S
C2809 C2803 1.465 . S
C2809 C2808 1.396 . S
C2809 C2810 1.399 . S
C2810 H2796 0.929 1_554 S
C2810 C2809 1.399 . S
C2810 C2811 1.385 . S
C2811 H2797 0.931 . S
C2811 C2810 1.385 . S
C2811 C2812 1.389 . S
C2812 C2811 1.389 . S
C2812 C2813 1.387 . S
C2813 H2798 0.930 . S
C2813 C2808 1.390 . S
C2813 C2812 1.387 . S
H2814 C2826 0.930 . S
H2815 C2828 0.930 . S
H2816 C2829 0.930 . S
H2817 C2833 0.959 . S
H2818 C2833 0.959 . S
H2819 C2833 0.961 . S
H2820 C2834 0.960 . S
H2821 C2834 0.961 . S
H2822 C2834 0.959 . S
H2823 C2837 0.929 . S
H2824 C2838 0.931 . S
H2825 C2840 0.930 . S
C2826 H2814 0.930 . S
C2826 C2827 1.399 . S
C2826 C2831 1.399 . S
C2827 C2826 1.399 . S
C2827 C2828 1.376 . S
C2828 H2815 0.930 . S
C2828 C2827 1.376 . S
C2828 C2829 1.388 . S
C2829 H2816 0.930 . S
C2829 C2828 1.388 . S
C2829 C2830 1.390 . S
C2830 C2829 1.390 . S
C2830 C2831 1.394 . S
C2830 C2836 1.465 . S
C2831 C2826 1.399 . S
C2831 C2830 1.394 . S
C2831 C2832 1.516 . S
C2832 C2831 1.516 . S
C2832 C2833 1.502 . S
C2832 C2834 1.561 . S
C2832 C2835 1.526 . S
C2833 H2817 0.959 . S
C2833 H2818 0.959 . S
C2833 H2819 0.961 . S
C2833 C2832 1.502 . S
C2834 H2820 0.960 . S
C2834 H2821 0.961 . S
C2834 H2822 0.959 . S
C2834 C2832 1.561 . S
C2835 C2832 1.526 . S
C2835 C2836 1.396 . S
C2835 C2840 1.390 . S
C2836 C2830 1.465 . S
C2836 C2835 1.396 . S
C2836 C2837 1.399 . S
C2837 H2823 0.929 . S
C2837 C2836 1.399 . S
C2837 C2838 1.385 . S
C2838 H2824 0.931 . S
C2838 C2837 1.385 . S
C2838 C2839 1.389 . S
C2839 C2838 1.389 . S
C2839 C2840 1.387 . S
C2840 H2825 0.930 . S
C2840 C2835 1.390 . S
C2840 C2839 1.387 . S
H2841 C2853 0.930 . S
H2842 C2855 0.930 . S
H2843 C2856 0.930 . S
H2844 C2860 0.959 . S
H2845 C2860 0.959 . S
H2846 C2860 0.961 . S
H2847 C2861 0.960 . S
H2848 C2861 0.961 . S
H2849 C2861 0.959 . S
H2850 C2864 0.929 . S
H2851 C2865 0.931 . S
H2852 C2867 0.930 . S
C2853 H2841 0.930 . S
C2853 C2854 1.399 . S
C2853 C2858 1.399 . S
C2854 C2853 1.399 . S
C2854 C2855 1.376 . S
C2855 H2842 0.930 . S
C2855 C2854 1.376 . S
C2855 C2856 1.388 . S
C2856 H2843 0.930 . S
C2856 C2855 1.388 . S
C2856 C2857 1.390 . S
C2857 C2856 1.390 . S
C2857 C2858 1.394 . S
C2857 C2863 1.465 . S
C2858 C2853 1.399 . S
C2858 C2857 1.394 . S
C2858 C2859 1.516 . S
C2859 C2858 1.516 . S
C2859 C2860 1.502 . S
C2859 C2861 1.561 . S
C2859 C2862 1.526 . S
C2860 H2844 0.959 . S
C2860 H2845 0.959 . S
C2860 H2846 0.961 . S
C2860 C2859 1.502 . S
C2861 H2847 0.960 . S
C2861 H2848 0.961 . S
C2861 H2849 0.959 . S
C2861 C2859 1.561 . S
C2862 C2859 1.526 . S
C2862 C2863 1.396 . S
C2862 C2867 1.390 . S
C2863 C2857 1.465 . S
C2863 C2862 1.396 . S
C2863 C2864 1.399 . S
C2864 H2850 0.929 . S
C2864 C2863 1.399 . S
C2864 C2865 1.385 . S
C2865 H2851 0.931 . S
C2865 C2864 1.385 . S
C2865 C2866 1.389 . S
C2866 C2865 1.389 . S
C2866 C2867 1.387 . S
C2867 H2852 0.930 . S
C2867 C2862 1.390 . S
C2867 C2866 1.387 . S
H2868 C2880 0.930 . S
H2869 C2882 0.930 . S
H2870 C2883 0.930 . S
H2871 C2887 0.959 . S
H2872 C2887 0.959 . S
H2873 C2887 0.961 . S
H2874 C2888 0.960 . S
H2875 C2888 0.961 . S
H2876 C2888 0.959 . S
H2877 C2891 0.929 . S
H2878 C2892 0.931 . S
H2879 C2894 0.930 . S
C2880 H2868 0.930 . S
C2880 C2881 1.365 1_565 S
C2880 C2885 1.399 . S
C2881 C2880 1.365 1_545 S
C2881 C2882 1.380 . S
C2882 H2869 0.930 . S
C2882 C2881 1.380 . S
C2882 C2883 1.388 1_545 S
C2883 H2870 0.930 . S
C2883 C2882 1.388 1_565 S
C2883 C2884 1.390 . S
C2884 C2883 1.390 . S
C2884 C2885 1.394 . S
C2884 C2890 1.465 . S
C2885 C2880 1.399 . S
C2885 C2884 1.394 . S
C2885 C2886 1.516 . S
C2886 C2885 1.516 . S
C2886 C2887 1.502 . S
C2886 C2888 1.561 . S
C2886 C2889 1.526 . S
C2887 H2871 0.959 . S
C2887 H2872 0.959 . S
C2887 H2873 0.961 . S
C2887 C2886 1.502 . S
C2888 H2874 0.960 . S
C2888 H2875 0.961 . S
C2888 H2876 0.959 . S
C2888 C2886 1.561 . S
C2889 C2886 1.526 . S
C2889 C2890 1.396 . S
C2889 C2894 1.390 . S
C2890 C2884 1.465 . S
C2890 C2889 1.396 . S
C2890 C2891 1.399 . S
C2891 H2877 0.929 . S
C2891 C2890 1.399 . S
C2891 C2892 1.385 . S
C2892 H2878 0.931 . S
C2892 C2891 1.385 . S
C2892 C2893 1.389 . S
C2893 C2892 1.389 . S
C2893 C2894 1.387 . S
C2894 H2879 0.930 . S
C2894 C2889 1.390 . S
C2894 C2893 1.387 . S
H2895 C2907 0.930 . S
H2896 C2909 0.930 . S
H2897 C2910 0.930 . S
H2898 C2914 0.959 . S
H2899 C2914 0.959 . S
H2900 C2914 0.961 . S
H2901 C2915 0.960 . S
H2902 C2915 0.961 . S
H2903 C2915 0.959 . S
H2904 C2918 0.929 . S
H2905 C2919 0.931 . S
H2906 C2921 0.930 . S
C2907 H2895 0.930 . S
C2907 C2908 1.399 . S
C2907 C2912 1.399 . S
C2908 C2907 1.399 . S
C2908 C2909 1.376 . S
C2909 H2896 0.930 . S
C2909 C2908 1.376 . S
C2909 C2910 1.388 . S
C2910 H2897 0.930 . S
C2910 C2909 1.388 . S
C2910 C2911 1.390 . S
C2911 C2910 1.390 . S
C2911 C2912 1.394 . S
C2911 C2917 1.465 . S
C2912 C2907 1.399 . S
C2912 C2911 1.394 . S
C2912 C2913 1.516 . S
C2913 C2912 1.516 . S
C2913 C2914 1.502 . S
C2913 C2915 1.561 . S
C2913 C2916 1.526 . S
C2914 H2898 0.959 . S
C2914 H2899 0.959 . S
C2914 H2900 0.961 . S
C2914 C2913 1.502 . S
C2915 H2901 0.960 . S
C2915 H2902 0.961 . S
C2915 H2903 0.959 . S
C2915 C2913 1.561 . S
C2916 C2913 1.526 . S
C2916 C2917 1.396 . S
C2916 C2921 1.390 . S
C2917 C2911 1.465 . S
C2917 C2916 1.396 . S
C2917 C2918 1.399 . S
C2918 H2904 0.929 . S
C2918 C2917 1.399 . S
C2918 C2919 1.385 . S
C2919 H2905 0.931 . S
C2919 C2918 1.385 . S
C2919 C2920 1.389 . S
C2920 C2919 1.389 . S
C2920 C2921 1.387 . S
C2921 H2906 0.930 . S
C2921 C2916 1.390 . S
C2921 C2920 1.387 . S
H2922 C2934 0.930 . S
H2923 C2936 0.930 . S
H2924 C2937 0.930 . S
H2925 C2941 0.959 . S
H2926 C2941 0.959 . S
H2927 C2941 0.961 . S
H2928 C2942 0.960 . S
H2929 C2942 0.961 . S
H2930 C2942 0.959 . S
H2931 C2945 0.929 . S
H2932 C2946 0.931 . S
H2933 C2948 0.930 . S
C2934 H2922 0.930 . S
C2934 C2935 1.399 . S
C2934 C2939 1.399 . S
C2935 C2934 1.399 . S
C2935 C2936 1.376 . S
C2936 H2923 0.930 . S
C2936 C2935 1.376 . S
C2936 C2937 1.388 . S
C2937 H2924 0.930 . S
C2937 C2936 1.388 . S
C2937 C2938 1.390 . S
C2938 C2937 1.390 . S
C2938 C2939 1.394 . S
C2938 C2944 1.465 . S
C2939 C2934 1.399 . S
C2939 C2938 1.394 . S
C2939 C2940 1.516 . S
C2940 C2939 1.516 . S
C2940 C2941 1.502 . S
C2940 C2942 1.561 . S
C2940 C2943 1.526 . S
C2941 H2925 0.959 . S
C2941 H2926 0.959 . S
C2941 H2927 0.961 . S
C2941 C2940 1.502 . S
C2942 H2928 0.960 . S
C2942 H2929 0.961 . S
C2942 H2930 0.959 . S
C2942 C2940 1.561 . S
C2943 C2940 1.526 . S
C2943 C2944 1.396 . S
C2943 C2948 1.390 . S
C2944 C2938 1.465 . S
C2944 C2943 1.396 . S
C2944 C2945 1.399 . S
C2945 H2931 0.929 . S
C2945 C2944 1.399 . S
C2945 C2946 1.385 . S
C2946 H2932 0.931 . S
C2946 C2945 1.385 . S
C2946 C2947 1.389 . S
C2947 C2946 1.389 . S
C2947 C2948 1.387 . S
C2948 H2933 0.930 . S
C2948 C2943 1.390 . S
C2948 C2947 1.387 . S
H2949 C2961 0.930 . S
H2950 C2963 0.930 . S
H2951 C2964 0.930 . S
H2952 C2968 0.959 . S
H2953 C2968 0.959 . S
H2954 C2968 0.961 . S
H2955 C2969 0.960 . S
H2956 C2969 0.961 . S
H2957 C2969 0.959 . S
H2958 C2972 0.929 . S
H2959 C2973 0.931 . S
H2960 C2975 0.930 . S
C2961 H2949 0.930 . S
C2961 C2962 1.399 . S
C2961 C2966 1.399 . S
C2962 C2961 1.399 . S
C2962 C2963 1.376 . S
C2963 H2950 0.930 . S
C2963 C2962 1.376 . S
C2963 C2964 1.388 . S
C2964 H2951 0.930 . S
C2964 C2963 1.388 . S
C2964 C2965 1.390 . S
C2965 C2964 1.390 . S
C2965 C2966 1.394 . S
C2965 C2971 1.465 . S
C2966 C2961 1.399 . S
C2966 C2965 1.394 . S
C2966 C2967 1.516 . S
C2967 C2966 1.516 . S
C2967 C2968 1.502 . S
C2967 C2969 1.561 . S
C2967 C2970 1.526 . S
C2968 H2952 0.959 . S
C2968 H2953 0.959 . S
C2968 H2954 0.961 . S
C2968 C2967 1.502 . S
C2969 H2955 0.960 . S
C2969 H2956 0.961 . S
C2969 H2957 0.959 . S
C2969 C2967 1.561 . S
C2970 C2967 1.526 . S
C2970 C2971 1.396 . S
C2970 C2975 1.390 . S
C2971 C2965 1.465 . S
C2971 C2970 1.396 . S
C2971 C2972 1.399 . S
C2972 H2958 0.929 . S
C2972 C2971 1.399 . S
C2972 C2973 1.385 . S
C2973 H2959 0.931 . S
C2973 C2972 1.385 . S
C2973 C2974 1.389 . S
C2974 C2973 1.389 . S
C2974 C2975 1.387 . S
C2975 H2960 0.930 . S
C2975 C2970 1.390 . S
C2975 C2974 1.387 . S
H2976 C2988 0.930 . S
H2977 C2990 0.930 . S
H2978 C2991 0.930 . S
H2979 C2995 0.959 . S
H2980 C2995 0.959 . S
H2981 C2995 0.961 . S
H2982 C2996 0.960 . S
H2983 C2996 0.961 . S
H2984 C2996 0.959 . S
H2985 C2999 0.929 . S
H2986 C3000 0.931 . S
H2987 C3002 0.930 . S
C2988 H2976 0.930 . S
C2988 C2989 1.399 . S
C2988 C2993 1.399 . S
C2989 C2988 1.399 . S
C2989 C2990 1.376 . S
C2990 H2977 0.930 . S
C2990 C2989 1.376 . S
C2990 C2991 1.388 . S
C2991 H2978 0.930 . S
C2991 C2990 1.388 . S
C2991 C2992 1.390 . S
C2992 C2991 1.390 . S
C2992 C2993 1.394 . S
C2992 C2998 1.465 . S
C2993 C2988 1.399 . S
C2993 C2992 1.394 . S
C2993 C2994 1.516 . S
C2994 C2993 1.516 . S
C2994 C2995 1.502 . S
C2994 C2996 1.561 . S
C2994 C2997 1.526 . S
C2995 H2979 0.959 . S
C2995 H2980 0.959 . S
C2995 H2981 0.961 . S
C2995 C2994 1.502 . S
C2996 H2982 0.960 . S
C2996 H2983 0.961 . S
C2996 H2984 0.959 . S
C2996 C2994 1.561 . S
C2997 C2994 1.526 . S
C2997 C2998 1.396 . S
C2997 C3002 1.390 . S
C2998 C2992 1.465 . S
C2998 C2997 1.396 . S
C2998 C2999 1.399 . S
C2999 H2985 0.929 . S
C2999 C2998 1.399 . S
C2999 C3000 1.385 . S
C3000 H2986 0.931 . S
C3000 C2999 1.385 . S
C3000 C3001 1.389 . S
C3001 C3000 1.389 . S
C3001 C3002 1.387 . S
C3002 H2987 0.930 . S
C3002 C2997 1.390 . S
C3002 C3001 1.387 . S
H3003 C3015 0.930 . S
H3004 C3017 0.930 . S
H3005 C3018 0.930 . S
H3006 C3022 0.959 . S
H3007 C3022 0.959 . S
H3008 C3022 0.961 . S
H3009 C3023 0.960 . S
H3010 C3023 0.961 . S
H3011 C3023 0.959 . S
H3012 C3026 0.929 . S
H3013 C3027 0.931 . S
H3014 C3029 0.930 . S
C3015 H3003 0.930 . S
C3015 C3016 1.399 . S
C3015 C3020 1.399 . S
C3016 C3015 1.399 . S
C3016 C3017 1.376 . S
C3017 H3004 0.930 . S
C3017 C3016 1.376 . S
C3017 C3018 1.388 . S
C3018 H3005 0.930 . S
C3018 C3017 1.388 . S
C3018 C3019 1.390 . S
C3019 C3018 1.390 . S
C3019 C3020 1.394 . S
C3019 C3025 1.465 . S
C3020 C3015 1.399 . S
C3020 C3019 1.394 . S
C3020 C3021 1.516 . S
C3021 C3020 1.516 . S
C3021 C3022 1.502 . S
C3021 C3023 1.561 . S
C3021 C3024 1.526 . S
C3022 H3006 0.959 . S
C3022 H3007 0.959 . S
C3022 H3008 0.961 . S
C3022 C3021 1.502 . S
C3023 H3009 0.960 . S
C3023 H3010 0.961 . S
C3023 H3011 0.959 . S
C3023 C3021 1.561 . S
C3024 C3021 1.526 . S
C3024 C3025 1.396 . S
C3024 C3029 1.390 . S
C3025 C3019 1.465 . S
C3025 C3024 1.396 . S
C3025 C3026 1.399 . S
C3026 H3012 0.929 . S
C3026 C3025 1.399 . S
C3026 C3027 1.385 . S
C3027 H3013 0.931 . S
C3027 C3026 1.385 . S
C3027 C3028 1.389 . S
C3028 C3027 1.389 . S
C3028 C3029 1.387 . S
C3029 H3014 0.930 . S
C3029 C3024 1.390 . S
C3029 C3028 1.387 . S
H3030 C3042 0.930 1_655 S
H3031 C3044 0.930 . S
H3032 C3045 0.930 . S
H3033 C3049 0.959 . S
H3034 C3049 0.976 . S
H3035 C3049 0.962 . S
H3036 C3050 0.960 . S
H3037 C3050 0.961 . S
H3038 C3050 0.959 . S
H3039 C3053 0.929 . S
H3040 C3054 0.931 . S
H3041 C3056 0.930 . S
C3042 H3030 0.930 1_455 S
C3042 C3043 1.399 . S
C3042 C3047 1.399 . S
C3043 C3042 1.399 . S
C3043 C3044 1.376 1_556 S
C3044 H3031 0.930 . S
C3044 C3043 1.376 1_554 S
C3044 C3045 1.388 . S
C3045 H3032 0.930 . S
C3045 C3044 1.388 . S
C3045 C3046 1.390 . S
C3046 C3045 1.390 . S
C3046 C3047 1.394 1_554 S
C3046 C3052 1.465 . S
C3047 C3042 1.399 . S
C3047 C3046 1.394 1_556 S
C3047 C3048 1.516 1_455 S
C3048 C3047 1.516 1_655 S
C3048 C3049 1.502 1_655 S
C3048 C3050 1.561 . S
C3048 C3051 1.526 1_655 S
C3049 H3033 0.959 . S
C3049 H3034 0.976 . S
C3049 H3035 0.962 . S
C3049 C3048 1.502 1_455 S
C3050 H3036 0.960 . S
C3050 H3037 0.961 . S
C3050 H3038 0.959 . S
C3050 C3048 1.561 . S
C3051 C3048 1.526 1_455 S
C3051 C3052 1.396 1_556 S
C3051 C3056 1.390 . S
C3052 C3046 1.465 . S
C3052 C3051 1.396 1_554 S
C3052 C3053 1.399 . S
C3053 H3039 0.929 . S
C3053 C3052 1.399 . S
C3053 C3054 1.385 . S
C3054 H3040 0.931 . S
C3054 C3053 1.385 . S
C3054 C3055 1.389 . S
C3055 C3054 1.389 . S
C3055 C3056 1.387 1_554 S
C3056 H3041 0.930 . S
C3056 C3051 1.390 . S
C3056 C3055 1.387 1_556 S
H3057 C3069 0.930 . S
H3058 C3071 0.930 . S
H3059 C3072 0.930 . S
H3060 C3076 0.959 . S
H3061 C3076 0.959 . S
H3062 C3076 0.961 . S
H3063 C3077 0.960 . S
H3064 C3077 0.961 . S
H3065 C3077 0.959 . S
H3066 C3080 0.929 . S
H3067 C3081 0.931 . S
H3068 C3083 0.930 . S
C3069 H3057 0.930 . S
C3069 C3070 1.399 . S
C3069 C3074 1.399 . S
C3070 C3069 1.399 . S
C3070 C3071 1.376 . S
C3071 H3058 0.930 . S
C3071 C3070 1.376 . S
C3071 C3072 1.388 . S
C3072 H3059 0.930 . S
C3072 C3071 1.388 . S
C3072 C3073 1.390 . S
C3073 C3072 1.390 . S
C3073 C3074 1.394 . S
C3073 C3079 1.465 . S
C3074 C3069 1.399 . S
C3074 C3073 1.394 . S
C3074 C3075 1.516 . S
C3075 C3074 1.516 . S
C3075 C3076 1.502 . S
C3075 C3077 1.561 . S
C3075 C3078 1.526 . S
C3076 H3060 0.959 . S
C3076 H3061 0.959 . S
C3076 H3062 0.961 . S
C3076 C3075 1.502 . S
C3077 H3063 0.960 . S
C3077 H3064 0.961 . S
C3077 H3065 0.959 . S
C3077 C3075 1.561 . S
C3078 C3075 1.526 . S
C3078 C3079 1.396 . S
C3078 C3083 1.390 . S
C3079 C3073 1.465 . S
C3079 C3078 1.396 . S
C3079 C3080 1.399 . S
C3080 H3066 0.929 . S
C3080 C3079 1.399 . S
C3080 C3081 1.385 . S
C3081 H3067 0.931 . S
C3081 C3080 1.385 . S
C3081 C3082 1.389 . S
C3082 C3081 1.389 . S
C3082 C3083 1.387 . S
C3083 H3068 0.930 . S
C3083 C3078 1.390 . S
C3083 C3082 1.387 . S
H3084 C3096 0.930 . S
H3085 C3098 0.930 . S
H3086 C3099 0.930 . S
H3087 C3103 0.959 . S
H3088 C3103 0.959 . S
H3089 C3103 0.961 . S
H3090 C3104 0.960 . S
H3091 C3104 0.961 . S
H3092 C3104 0.959 . S
H3093 C3107 0.929 . S
H3094 C3108 0.931 . S
H3095 C3110 0.930 . S
C3096 H3084 0.930 . S
C3096 C3097 1.399 . S
C3096 C3101 1.399 . S
C3097 C3096 1.399 . S
C3097 C3098 1.376 . S
C3098 H3085 0.930 . S
C3098 C3097 1.376 . S
C3098 C3099 1.388 . S
C3099 H3086 0.930 . S
C3099 C3098 1.388 . S
C3099 C3100 1.390 . S
C3100 C3099 1.390 . S
C3100 C3101 1.394 . S
C3100 C3106 1.465 . S
C3101 C3096 1.399 . S
C3101 C3100 1.394 . S
C3101 C3102 1.516 . S
C3102 C3101 1.516 . S
C3102 C3103 1.502 . S
C3102 C3104 1.561 . S
C3102 C3105 1.526 . S
C3103 H3087 0.959 . S
C3103 H3088 0.959 . S
C3103 H3089 0.961 . S
C3103 C3102 1.502 . S
C3104 H3090 0.960 . S
C3104 H3091 0.961 . S
C3104 H3092 0.959 . S
C3104 C3102 1.561 . S
C3105 C3102 1.526 . S
C3105 C3106 1.396 . S
C3105 C3110 1.390 . S
C3106 C3100 1.465 . S
C3106 C3105 1.396 . S
C3106 C3107 1.399 . S
C3107 H3093 0.929 . S
C3107 C3106 1.399 . S
C3107 C3108 1.385 . S
C3108 H3094 0.931 . S
C3108 C3107 1.385 . S
C3108 C3109 1.389 . S
C3109 C3108 1.389 . S
C3109 C3110 1.387 . S
C3110 H3095 0.930 . S
C3110 C3105 1.390 . S
C3110 C3109 1.387 . S
H3111 C3123 0.930 . S
H3112 C3125 0.930 . S
H3113 C3126 0.930 . S
H3114 C3130 0.959 . S
H3115 C3130 0.959 . S
H3116 C3130 0.961 . S
H3117 C3131 0.960 . S
H3118 C3131 0.961 . S
H3119 C3131 0.959 . S
H3120 C3134 0.929 . S
H3121 C3135 0.931 . S
H3122 C3137 0.930 . S
C3123 H3111 0.930 . S
C3123 C3124 1.399 . S
C3123 C3128 1.399 . S
C3124 C3123 1.399 . S
C3124 C3125 1.376 . S
C3125 H3112 0.930 . S
C3125 C3124 1.376 . S
C3125 C3126 1.388 . S
C3126 H3113 0.930 . S
C3126 C3125 1.388 . S
C3126 C3127 1.390 . S
C3127 C3126 1.390 . S
C3127 C3128 1.394 . S
C3127 C3133 1.465 . S
C3128 C3123 1.399 . S
C3128 C3127 1.394 . S
C3128 C3129 1.516 . S
C3129 C3128 1.516 . S
C3129 C3130 1.502 . S
C3129 C3131 1.561 . S
C3129 C3132 1.526 . S
C3130 H3114 0.959 . S
C3130 H3115 0.959 . S
C3130 H3116 0.961 . S
C3130 C3129 1.502 . S
C3131 H3117 0.960 . S
C3131 H3118 0.961 . S
C3131 H3119 0.959 . S
C3131 C3129 1.561 . S
C3132 C3129 1.526 . S
C3132 C3133 1.396 . S
C3132 C3137 1.390 . S
C3133 C3127 1.465 . S
C3133 C3132 1.396 . S
C3133 C3134 1.399 . S
C3134 H3120 0.929 . S
C3134 C3133 1.399 . S
C3134 C3135 1.385 . S
C3135 H3121 0.931 . S
C3135 C3134 1.385 . S
C3135 C3136 1.389 . S
C3136 C3135 1.389 . S
C3136 C3137 1.387 . S
C3137 H3122 0.930 . S
C3137 C3132 1.390 . S
C3137 C3136 1.387 . S
H3138 C3150 0.930 . S
H3139 C3152 0.930 . S
H3140 C3153 0.930 . S
H3141 C3157 0.959 . S
H3142 C3157 0.959 . S
H3143 C3157 0.961 . S
H3144 C3158 0.960 . S
H3145 C3158 0.961 . S
H3146 C3158 0.959 . S
H3147 C3161 0.929 . S
H3148 C3162 0.931 . S
H3149 C3164 0.930 . S
C3150 H3138 0.930 . S
C3150 C3151 1.399 . S
C3150 C3155 1.399 . S
C3151 C3150 1.399 . S
C3151 C3152 1.376 . S
C3152 H3139 0.930 . S
C3152 C3151 1.376 . S
C3152 C3153 1.388 . S
C3153 H3140 0.930 . S
C3153 C3152 1.388 . S
C3153 C3154 1.390 . S
C3154 C3153 1.390 . S
C3154 C3155 1.394 . S
C3154 C3160 1.465 . S
C3155 C3150 1.399 . S
C3155 C3154 1.394 . S
C3155 C3156 1.516 . S
C3156 C3155 1.516 . S
C3156 C3157 1.502 . S
C3156 C3158 1.561 . S
C3156 C3159 1.526 . S
C3157 H3141 0.959 . S
C3157 H3142 0.959 . S
C3157 H3143 0.961 . S
C3157 C3156 1.502 . S
C3158 H3144 0.960 . S
C3158 H3145 0.961 . S
C3158 H3146 0.959 . S
C3158 C3156 1.561 . S
C3159 C3156 1.526 . S
C3159 C3160 1.396 . S
C3159 C3164 1.390 . S
C3160 C3154 1.465 . S
C3160 C3159 1.396 . S
C3160 C3161 1.399 . S
C3161 H3147 0.929 . S
C3161 C3160 1.399 . S
C3161 C3162 1.385 . S
C3162 H3148 0.931 . S
C3162 C3161 1.385 . S
C3162 C3163 1.389 . S
C3163 C3162 1.389 . S
C3163 C3164 1.387 . S
C3164 H3149 0.930 . S
C3164 C3159 1.390 . S
C3164 C3163 1.387 . S
H3165 C3177 0.930 . S
H3166 C3179 0.930 . S
H3167 C3180 0.930 . S
H3168 C3184 0.959 . S
H3169 C3184 0.959 . S
H3170 C3184 0.961 . S
H3171 C3185 0.960 . S
H3172 C3185 0.961 . S
H3173 C3185 0.959 . S
H3174 C3188 0.929 . S
H3175 C3189 0.931 . S
H3176 C3191 0.930 . S
C3177 H3165 0.930 . S
C3177 C3178 1.399 . S
C3177 C3182 1.399 . S
C3178 C3177 1.399 . S
C3178 C3179 1.376 . S
C3179 H3166 0.930 . S
C3179 C3178 1.376 . S
C3179 C3180 1.388 . S
C3180 H3167 0.930 . S
C3180 C3179 1.388 . S
C3180 C3181 1.390 . S
C3181 C3180 1.390 . S
C3181 C3182 1.394 . S
C3181 C3187 1.465 . S
C3182 C3177 1.399 . S
C3182 C3181 1.394 . S
C3182 C3183 1.516 . S
C3183 C3182 1.516 . S
C3183 C3184 1.502 . S
C3183 C3185 1.561 . S
C3183 C3186 1.526 . S
C3184 H3168 0.959 . S
C3184 H3169 0.959 . S
C3184 H3170 0.961 . S
C3184 C3183 1.502 . S
C3185 H3171 0.960 . S
C3185 H3172 0.961 . S
C3185 H3173 0.959 . S
C3185 C3183 1.561 . S
C3186 C3183 1.526 . S
C3186 C3187 1.396 . S
C3186 C3191 1.390 . S
C3187 C3181 1.465 . S
C3187 C3186 1.396 . S
C3187 C3188 1.399 . S
C3188 H3174 0.929 . S
C3188 C3187 1.399 . S
C3188 C3189 1.385 . S
C3189 H3175 0.931 . S
C3189 C3188 1.385 . S
C3189 C3190 1.389 . S
C3190 C3189 1.389 . S
C3190 C3191 1.387 . S
C3191 H3176 0.930 . S
C3191 C3186 1.390 . S
C3191 C3190 1.387 . S
H3192 C3204 0.930 . S
H3193 C3206 0.930 . S
H3194 C3207 0.930 . S
H3195 C3211 0.959 . S
H3196 C3211 0.959 . S
H3197 C3211 0.961 . S
H3198 C3212 0.960 . S
H3199 C3212 0.961 . S
H3200 C3212 0.959 . S
H3201 C3215 0.929 . S
H3202 C3216 0.931 . S
H3203 C3218 0.930 . S
C3204 H3192 0.930 . S
C3204 C3205 1.399 . S
C3204 C3209 1.399 . S
C3205 C3204 1.399 . S
C3205 C3206 1.376 . S
C3206 H3193 0.930 . S
C3206 C3205 1.376 . S
C3206 C3207 1.388 . S
C3207 H3194 0.930 . S
C3207 C3206 1.388 . S
C3207 C3208 1.390 . S
C3208 C3207 1.390 . S
C3208 C3209 1.394 . S
C3208 C3214 1.465 . S
C3209 C3204 1.399 . S
C3209 C3208 1.394 . S
C3209 C3210 1.516 . S
C3210 C3209 1.516 . S
C3210 C3211 1.502 . S
C3210 C3212 1.561 . S
C3210 C3213 1.526 . S
C3211 H3195 0.959 . S
C3211 H3196 0.959 . S
C3211 H3197 0.961 . S
C3211 C3210 1.502 . S
C3212 H3198 0.960 . S
C3212 H3199 0.961 . S
C3212 H3200 0.959 . S
C3212 C3210 1.561 . S
C3213 C3210 1.526 . S
C3213 C3214 1.396 . S
C3213 C3218 1.390 . S
C3214 C3208 1.465 . S
C3214 C3213 1.396 . S
C3214 C3215 1.399 . S
C3215 H3201 0.929 . S
C3215 C3214 1.399 . S
C3215 C3216 1.385 . S
C3216 H3202 0.931 . S
C3216 C3215 1.385 . S
C3216 C3217 1.389 . S
C3217 C3216 1.389 . S
C3217 C3218 1.387 . S
C3218 H3203 0.930 . S
C3218 C3213 1.390 . S
C3218 C3217 1.387 . S
H3219 C3231 0.946 . S
H3220 C3233 0.930 1_554 S
H3221 C3234 0.930 . S
H3222 C3238 0.959 . S
H3223 C3238 0.959 . S
H3224 C3238 0.961 . S
H3225 C3239 0.960 1_554 S
H3226 C3239 0.961 . S
H3227 C3239 0.959 . S
H3228 C3242 0.929 . S
H3229 C3243 0.931 . S
H3230 C3245 0.930 . S
C3231 H3219 0.946 . S
C3231 C3232 1.408 . S
C3231 C3236 1.374 1_554 S
C3232 C3231 1.408 . S
C3232 C3233 1.376 1_554 S
C3233 H3220 0.930 1_556 S
C3233 C3232 1.376 1_556 S
C3233 C3234 1.388 . S
C3234 H3221 0.930 . S
C3234 C3233 1.388 . S
C3234 C3235 1.390 . S
C3235 C3234 1.390 . S
C3235 C3236 1.394 . S
C3235 C3241 1.465 . S
C3236 C3231 1.374 1_556 S
C3236 C3235 1.394 . S
C3236 C3237 1.516 . S
C3237 C3236 1.516 . S
C3237 C3238 1.502 . S
C3237 C3239 1.561 . S
C3237 C3240 1.526 . S
C3238 H3222 0.959 . S
C3238 H3223 0.959 . S
C3238 H3224 0.961 . S
C3238 C3237 1.502 . S
C3239 H3225 0.960 1_556 S
C3239 H3226 0.961 . S
C3239 H3227 0.959 . S
C3239 C3237 1.561 . S
C3240 C3237 1.526 . S
C3240 C3241 1.396 . S
C3240 C3245 1.390 . S
C3241 C3235 1.465 . S
C3241 C3240 1.396 . S
C3241 C3242 1.399 . S
C3242 H3228 0.929 . S
C3242 C3241 1.399 . S
C3242 C3243 1.385 . S
C3243 H3229 0.931 . S
C3243 C3242 1.385 . S
C3243 C3244 1.389 . S
C3244 C3243 1.389 . S
C3244 C3245 1.387 . S
C3245 H3230 0.930 . S
C3245 C3240 1.390 . S
C3245 C3244 1.387 . S
H3246 C3258 0.930 . S
H3247 C3260 0.930 . S
H3248 C3261 0.930 . S
H3249 C3265 0.959 . S
H3250 C3265 0.959 . S
H3251 C3265 0.961 . S
H3252 C3266 0.960 . S
H3253 C3266 0.961 . S
H3254 C3266 0.959 . S
H3255 C3269 0.929 . S
H3256 C3270 0.931 . S
H3257 C3272 0.930 . S
C3258 H3246 0.930 . S
C3258 C3259 1.399 . S
C3258 C3263 1.399 . S
C3259 C3258 1.399 . S
C3259 C3260 1.376 . S
C3260 H3247 0.930 . S
C3260 C3259 1.376 . S
C3260 C3261 1.388 . S
C3261 H3248 0.930 . S
C3261 C3260 1.388 . S
C3261 C3262 1.390 . S
C3262 C3261 1.390 . S
C3262 C3263 1.394 . S
C3262 C3268 1.465 . S
C3263 C3258 1.399 . S
C3263 C3262 1.394 . S
C3263 C3264 1.516 . S
C3264 C3263 1.516 . S
C3264 C3265 1.502 . S
C3264 C3266 1.561 . S
C3264 C3267 1.526 . S
C3265 H3249 0.959 . S
C3265 H3250 0.959 . S
C3265 H3251 0.961 . S
C3265 C3264 1.502 . S
C3266 H3252 0.960 . S
C3266 H3253 0.961 . S
C3266 H3254 0.959 . S
C3266 C3264 1.561 . S
C3267 C3264 1.526 . S
C3267 C3268 1.396 . S
C3267 C3272 1.390 . S
C3268 C3262 1.465 . S
C3268 C3267 1.396 . S
C3268 C3269 1.399 . S
C3269 H3255 0.929 . S
C3269 C3268 1.399 . S
C3269 C3270 1.385 . S
C3270 H3256 0.931 . S
C3270 C3269 1.385 . S
C3270 C3271 1.389 . S
C3271 C3270 1.389 . S
C3271 C3272 1.387 . S
C3272 H3257 0.930 . S
C3272 C3267 1.390 . S
C3272 C3271 1.387 . S
H3273 C3285 0.930 . S
H3274 C3287 0.930 . S
H3275 C3288 0.930 . S
H3276 C3292 0.959 . S
H3277 C3292 0.959 . S
H3278 C3292 0.961 . S
H3279 C3293 0.960 . S
H3280 C3293 0.961 . S
H3281 C3293 0.959 . S
H3282 C3296 0.929 . S
H3283 C3297 0.931 . S
H3284 C3299 0.930 . S
C3285 H3273 0.930 . S
C3285 C3286 1.399 . S
C3285 C3290 1.399 . S
C3286 C3285 1.399 . S
C3286 C3287 1.376 . S
C3287 H3274 0.930 . S
C3287 C3286 1.376 . S
C3287 C3288 1.388 . S
C3288 H3275 0.930 . S
C3288 C3287 1.388 . S
C3288 C3289 1.390 . S
C3289 C3288 1.390 . S
C3289 C3290 1.394 . S
C3289 C3295 1.465 . S
C3290 C3285 1.399 . S
C3290 C3289 1.394 . S
C3290 C3291 1.516 . S
C3291 C3290 1.516 . S
C3291 C3292 1.502 . S
C3291 C3293 1.561 . S
C3291 C3294 1.526 . S
C3292 H3276 0.959 . S
C3292 H3277 0.959 . S
C3292 H3278 0.961 . S
C3292 C3291 1.502 . S
C3293 H3279 0.960 . S
C3293 H3280 0.961 . S
C3293 H3281 0.959 . S
C3293 C3291 1.561 . S
C3294 C3291 1.526 . S
C3294 C3295 1.396 . S
C3294 C3299 1.390 . S
C3295 C3289 1.465 . S
C3295 C3294 1.396 . S
C3295 C3296 1.399 . S
C3296 H3282 0.929 . S
C3296 C3295 1.399 . S
C3296 C3297 1.385 . S
C3297 H3283 0.931 . S
C3297 C3296 1.385 . S
C3297 C3298 1.389 . S
C3298 C3297 1.389 . S
C3298 C3299 1.387 . S
C3299 H3284 0.930 . S
C3299 C3294 1.390 . S
C3299 C3298 1.387 . S
H3300 C3312 0.930 . S
H3301 C3314 0.930 . S
H3302 C3315 0.930 . S
H3303 C3319 0.959 . S
H3304 C3319 0.959 . S
H3305 C3319 0.961 . S
H3306 C3320 0.960 . S
H3307 C3320 0.961 . S
H3308 C3320 0.959 . S
H3309 C3323 0.929 . S
H3310 C3324 0.931 . S
H3311 C3326 0.930 . S
C3312 H3300 0.930 . S
C3312 C3313 1.399 . S
C3312 C3317 1.399 . S
C3313 C3312 1.399 . S
C3313 C3314 1.376 . S
C3314 H3301 0.930 . S
C3314 C3313 1.376 . S
C3314 C3315 1.388 . S
C3315 H3302 0.930 . S
C3315 C3314 1.388 . S
C3315 C3316 1.390 . S
C3316 C3315 1.390 . S
C3316 C3317 1.394 . S
C3316 C3322 1.465 . S
C3317 C3312 1.399 . S
C3317 C3316 1.394 . S
C3317 C3318 1.516 . S
C3318 C3317 1.516 . S
C3318 C3319 1.502 . S
C3318 C3320 1.561 . S
C3318 C3321 1.526 . S
C3319 H3303 0.959 . S
C3319 H3304 0.959 . S
C3319 H3305 0.961 . S
C3319 C3318 1.502 . S
C3320 H3306 0.960 . S
C3320 H3307 0.961 . S
C3320 H3308 0.959 . S
C3320 C3318 1.561 . S
C3321 C3318 1.526 . S
C3321 C3322 1.396 . S
C3321 C3326 1.390 . S
C3322 C3316 1.465 . S
C3322 C3321 1.396 . S
C3322 C3323 1.399 . S
C3323 H3309 0.929 . S
C3323 C3322 1.399 . S
C3323 C3324 1.385 . S
C3324 H3310 0.931 . S
C3324 C3323 1.385 . S
C3324 C3325 1.389 . S
C3325 C3324 1.389 . S
C3325 C3326 1.387 . S
C3326 H3311 0.930 . S
C3326 C3321 1.390 . S
C3326 C3325 1.387 . S
H3327 C3339 0.930 . S
H3328 C3341 0.930 . S
H3329 C3342 0.930 . S
H3330 C3346 0.959 . S
H3331 C3346 0.959 . S
H3332 C3346 0.961 . S
H3333 C3347 0.960 . S
H3334 C3347 0.961 . S
H3335 C3347 0.959 . S
H3336 C3350 0.929 . S
H3337 C3351 0.931 . S
H3338 C3353 0.930 . S
C3339 H3327 0.930 . S
C3339 C3340 1.399 . S
C3339 C3344 1.399 . S
C3340 C3339 1.399 . S
C3340 C3341 1.376 . S
C3341 H3328 0.930 . S
C3341 C3340 1.376 . S
C3341 C3342 1.388 . S
C3342 H3329 0.930 . S
C3342 C3341 1.388 . S
C3342 C3343 1.390 . S
C3343 C3342 1.390 . S
C3343 C3344 1.394 . S
C3343 C3349 1.465 . S
C3344 C3339 1.399 . S
C3344 C3343 1.394 . S
C3344 C3345 1.516 . S
C3345 C3344 1.516 . S
C3345 C3346 1.502 . S
C3345 C3347 1.561 . S
C3345 C3348 1.526 . S
C3346 H3330 0.959 . S
C3346 H3331 0.959 . S
C3346 H3332 0.961 . S
C3346 C3345 1.502 . S
C3347 H3333 0.960 . S
C3347 H3334 0.961 . S
C3347 H3335 0.959 . S
C3347 C3345 1.561 . S
C3348 C3345 1.526 . S
C3348 C3349 1.396 . S
C3348 C3353 1.390 . S
C3349 C3343 1.465 . S
C3349 C3348 1.396 . S
C3349 C3350 1.399 . S
C3350 H3336 0.929 . S
C3350 C3349 1.399 . S
C3350 C3351 1.385 . S
C3351 H3337 0.931 . S
C3351 C3350 1.385 . S
C3351 C3352 1.389 . S
C3352 C3351 1.389 . S
C3352 C3353 1.387 . S
C3353 H3338 0.930 . S
C3353 C3348 1.390 . S
C3353 C3352 1.387 . S
H3354 C3366 0.930 . S
H3355 C3368 0.930 . S
H3356 C3369 0.930 . S
H3357 C3373 0.959 . S
H3358 C3373 0.959 . S
H3359 C3373 0.961 . S
H3360 C3374 0.960 . S
H3361 C3374 0.961 . S
H3362 C3374 0.959 . S
H3363 C3377 0.929 . S
H3364 C3378 0.931 . S
H3365 C3380 0.930 . S
C3366 H3354 0.930 . S
C3366 C3367 1.399 . S
C3366 C3371 1.399 . S
C3367 C3366 1.399 . S
C3367 C3368 1.376 . S
C3368 H3355 0.930 . S
C3368 C3367 1.376 . S
C3368 C3369 1.388 . S
C3369 H3356 0.930 . S
C3369 C3368 1.388 . S
C3369 C3370 1.390 . S
C3370 C3369 1.390 . S
C3370 C3371 1.394 . S
C3370 C3376 1.465 . S
C3371 C3366 1.399 . S
C3371 C3370 1.394 . S
C3371 C3372 1.516 . S
C3372 C3371 1.516 . S
C3372 C3373 1.502 . S
C3372 C3374 1.561 . S
C3372 C3375 1.526 . S
C3373 H3357 0.959 . S
C3373 H3358 0.959 . S
C3373 H3359 0.961 . S
C3373 C3372 1.502 . S
C3374 H3360 0.960 . S
C3374 H3361 0.961 . S
C3374 H3362 0.959 . S
C3374 C3372 1.561 . S
C3375 C3372 1.526 . S
C3375 C3376 1.396 . S
C3375 C3380 1.390 . S
C3376 C3370 1.465 . S
C3376 C3375 1.396 . S
C3376 C3377 1.399 . S
C3377 H3363 0.929 . S
C3377 C3376 1.399 . S
C3377 C3378 1.385 . S
C3378 H3364 0.931 . S
C3378 C3377 1.385 . S
C3378 C3379 1.389 . S
C3379 C3378 1.389 . S
C3379 C3380 1.387 . S
C3380 H3365 0.930 . S
C3380 C3375 1.390 . S
C3380 C3379 1.387 . S
H3381 C3393 0.930 . S
H3382 C3395 0.930 . S
H3383 C3396 0.930 . S
H3384 C3400 0.959 . S
H3385 C3400 0.959 . S
H3386 C3400 0.961 . S
H3387 C3401 0.960 . S
H3388 C3401 0.961 . S
H3389 C3401 0.959 . S
H3390 C3404 0.929 . S
H3391 C3405 0.931 . S
H3392 C3407 0.930 . S
C3393 H3381 0.930 . S
C3393 C3394 1.399 . S
C3393 C3398 1.399 . S
C3394 C3393 1.399 . S
C3394 C3395 1.376 . S
C3395 H3382 0.930 . S
C3395 C3394 1.376 . S
C3395 C3396 1.388 . S
C3396 H3383 0.930 . S
C3396 C3395 1.388 . S
C3396 C3397 1.390 . S
C3397 C3396 1.390 . S
C3397 C3398 1.394 . S
C3397 C3403 1.465 . S
C3398 C3393 1.399 . S
C3398 C3397 1.394 . S
C3398 C3399 1.516 . S
C3399 C3398 1.516 . S
C3399 C3400 1.502 . S
C3399 C3401 1.561 . S
C3399 C3402 1.526 . S
C3400 H3384 0.959 . S
C3400 H3385 0.959 . S
C3400 H3386 0.961 . S
C3400 C3399 1.502 . S
C3401 H3387 0.960 . S
C3401 H3388 0.961 . S
C3401 H3389 0.959 . S
C3401 C3399 1.561 . S
C3402 C3399 1.526 . S
C3402 C3403 1.396 . S
C3402 C3407 1.390 . S
C3403 C3397 1.465 . S
C3403 C3402 1.396 . S
C3403 C3404 1.399 . S
C3404 H3390 0.929 . S
C3404 C3403 1.399 . S
C3404 C3405 1.385 . S
C3405 H3391 0.931 . S
C3405 C3404 1.385 . S
C3405 C3406 1.389 . S
C3406 C3405 1.389 . S
C3406 C3407 1.387 . S
C3407 H3392 0.930 . S
C3407 C3402 1.390 . S
C3407 C3406 1.387 . S
H3408 C3420 0.930 . S
H3409 C3422 0.930 . S
H3410 C3423 0.930 . S
H3411 C3427 0.959 . S
H3412 C3427 0.959 . S
H3413 C3427 0.961 . S
H3414 C3428 0.960 . S
H3415 C3428 0.961 . S
H3416 C3428 0.959 . S
H3417 C3431 0.929 . S
H3418 C3432 0.931 . S
H3419 C3434 0.930 . S
C3420 H3408 0.930 . S
C3420 C3421 1.399 . S
C3420 C3425 1.399 . S
C3421 C3420 1.399 . S
C3421 C3422 1.376 . S
C3422 H3409 0.930 . S
C3422 C3421 1.376 . S
C3422 C3423 1.388 . S
C3423 H3410 0.930 . S
C3423 C3422 1.388 . S
C3423 C3424 1.390 . S
C3424 C3423 1.390 . S
C3424 C3425 1.394 . S
C3424 C3430 1.465 . S
C3425 C3420 1.399 . S
C3425 C3424 1.394 . S
C3425 C3426 1.516 . S
C3426 C3425 1.516 . S
C3426 C3427 1.502 . S
C3426 C3428 1.561 . S
C3426 C3429 1.526 . S
C3427 H3411 0.959 . S
C3427 H3412 0.959 . S
C3427 H3413 0.961 . S
C3427 C3426 1.502 . S
C3428 H3414 0.960 . S
C3428 H3415 0.961 . S
C3428 H3416 0.959 . S
C3428 C3426 1.561 . S
C3429 C3426 1.526 . S
C3429 C3430 1.396 . S
C3429 C3434 1.390 . S
C3430 C3424 1.465 . S
C3430 C3429 1.396 . S
C3430 C3431 1.399 . S
C3431 H3417 0.929 . S
C3431 C3430 1.399 . S
C3431 C3432 1.385 . S
C3432 H3418 0.931 . S
C3432 C3431 1.385 . S
C3432 C3433 1.389 . S
C3433 C3432 1.389 . S
C3433 C3434 1.387 . S
C3434 H3419 0.930 . S
C3434 C3429 1.390 . S
C3434 C3433 1.387 . S
H3435 C3447 0.930 . S
H3436 C3449 0.930 . S
H3437 C3450 0.930 . S
H3438 C3454 0.959 . S
H3439 C3454 0.959 . S
H3440 C3454 0.961 . S
H3441 C3455 0.960 . S
H3442 C3455 0.961 . S
H3443 C3455 0.959 . S
H3444 C3458 0.929 . S
H3445 C3459 0.931 . S
H3446 C3461 0.930 . S
C3447 H3435 0.930 . S
C3447 C3448 1.399 . S
C3447 C3452 1.399 . S
C3448 C3447 1.399 . S
C3448 C3449 1.376 . S
C3449 H3436 0.930 . S
C3449 C3448 1.376 . S
C3449 C3450 1.388 . S
C3450 H3437 0.930 . S
C3450 C3449 1.388 . S
C3450 C3451 1.390 . S
C3451 C3450 1.390 . S
C3451 C3452 1.394 . S
C3451 C3457 1.465 . S
C3452 C3447 1.399 . S
C3452 C3451 1.394 . S
C3452 C3453 1.516 . S
C3453 C3452 1.516 . S
C3453 C3454 1.502 . S
C3453 C3455 1.561 . S
C3453 C3456 1.526 . S
C3454 H3438 0.959 . S
C3454 H3439 0.959 . S
C3454 H3440 0.961 . S
C3454 C3453 1.502 . S
C3455 H3441 0.960 . S
C3455 H3442 0.961 . S
C3455 H3443 0.959 . S
C3455 C3453 1.561 . S
C3456 C3453 1.526 . S
C3456 C3457 1.396 . S
C3456 C3461 1.390 . S
C3457 C3451 1.465 . S
C3457 C3456 1.396 . S
C3457 C3458 1.399 . S
C3458 H3444 0.929 . S
C3458 C3457 1.399 . S
C3458 C3459 1.385 . S
C3459 H3445 0.931 . S
C3459 C3458 1.385 . S
C3459 C3460 1.389 . S
C3460 C3459 1.389 . S
C3460 C3461 1.387 . S
C3461 H3446 0.930 . S
C3461 C3456 1.390 . S
C3461 C3460 1.387 . S
H3462 C3474 0.930 . S
H3463 C3476 0.930 1_545 S
H3464 C3477 0.930 . S
H3465 C3481 0.959 . S
H3466 C3481 0.959 . S
H3467 C3481 0.961 . S
H3468 C3482 0.960 . S
H3469 C3482 0.961 . S
H3470 C3482 0.959 . S
H3471 C3485 0.929 . S
H3472 C3486 0.931 . S
H3473 C3488 0.930 . S
C3474 H3462 0.930 . S
C3474 C3475 1.399 . S
C3474 C3479 1.399 . S
C3475 C3474 1.399 . S
C3475 C3476 1.376 . S
C3476 H3463 0.930 1_565 S
C3476 C3475 1.376 . S
C3476 C3477 1.388 . S
C3477 H3464 0.930 . S
C3477 C3476 1.388 . S
C3477 C3478 1.390 . S
C3478 C3477 1.390 . S
C3478 C3479 1.394 . S
C3478 C3484 1.465 . S
C3479 C3474 1.399 . S
C3479 C3478 1.394 . S
C3479 C3480 1.516 . S
C3480 C3479 1.516 . S
C3480 C3481 1.502 . S
C3480 C3482 1.561 . S
C3480 C3483 1.526 . S
C3481 H3465 0.959 . S
C3481 H3466 0.959 . S
C3481 H3467 0.961 . S
C3481 C3480 1.502 . S
C3482 H3468 0.960 . S
C3482 H3469 0.961 . S
C3482 H3470 0.959 . S
C3482 C3480 1.561 . S
C3483 C3480 1.526 . S
C3483 C3484 1.396 . S
C3483 C3488 1.390 . S
C3484 C3478 1.465 . S
C3484 C3483 1.396 . S
C3484 C3485 1.399 . S
C3485 H3471 0.929 . S
C3485 C3484 1.399 . S
C3485 C3486 1.385 . S
C3486 H3472 0.931 . S
C3486 C3485 1.385 . S
C3486 C3487 1.389 . S
C3487 C3486 1.389 . S
C3487 C3488 1.387 . S
C3488 H3473 0.930 . S
C3488 C3483 1.390 . S
C3488 C3487 1.387 . S
H3489 C3501 0.930 . S
H3490 C3503 0.930 . S
H3491 C3504 0.930 . S
H3492 C3508 0.959 . S
H3493 C3508 0.959 . S
H3494 C3508 0.961 . S
H3495 C3509 0.960 . S
H3496 C3509 0.961 . S
H3497 C3509 0.959 1_545 S
H3498 C3512 0.929 . S
H3499 C3513 0.931 . S
H3500 C3515 0.934 1_556 S
C3501 H3489 0.930 . S
C3501 C3502 1.399 1_556 S
C3501 C3506 1.399 . S
C3502 C3501 1.399 1_554 S
C3502 C3503 1.376 . S
C3503 H3490 0.930 . S
C3503 C3502 1.376 . S
C3503 C3504 1.388 . S
C3504 H3491 0.930 . S
C3504 C3503 1.388 . S
C3504 C3505 1.390 . S
C3505 C3504 1.390 . S
C3505 C3506 1.394 1_554 S
C3505 C3511 1.465 . S
C3506 C3501 1.399 . S
C3506 C3505 1.394 1_556 S
C3506 C3507 1.516 . S
C3507 C3506 1.516 . S
C3507 C3508 1.502 . S
C3507 C3509 1.561 . S
C3507 C3510 1.526 1_556 S
C3508 H3492 0.959 . S
C3508 H3493 0.959 . S
C3508 H3494 0.961 . S
C3508 C3507 1.502 . S
C3509 H3495 0.960 . S
C3509 H3496 0.961 . S
C3509 H3497 0.959 1_565 S
C3509 C3507 1.561 . S
C3510 C3507 1.526 1_554 S
C3510 C3511 1.396 . S
C3510 C3515 1.394 . S
C3511 C3505 1.465 . S
C3511 C3510 1.396 . S
C3511 C3512 1.399 1_565 S
C3512 H3498 0.929 . S
C3512 C3511 1.399 1_545 S
C3512 C3513 1.385 . S
C3513 H3499 0.931 . S
C3513 C3512 1.385 . S
C3513 C3514 1.389 . S
C3514 C3513 1.389 . S
C3514 C3515 1.379 1_545 S
C3515 H3500 0.934 1_554 S
C3515 C3510 1.394 . S
C3515 C3514 1.379 1_565 S
H3516 C3528 0.930 . S
H3517 C3530 0.930 . S
H3518 C3531 0.930 . S
H3519 C3535 0.959 . S
H3520 C3535 0.959 . S
H3521 C3535 0.961 . S
H3522 C3536 0.960 . S
H3523 C3536 0.961 . S
H3524 C3536 0.959 . S
H3525 C3539 0.929 . S
H3526 C3540 0.931 . S
H3527 C3542 0.930 . S
C3528 H3516 0.930 . S
C3528 C3529 1.399 . S
C3528 C3533 1.399 . S
C3529 C3528 1.399 . S
C3529 C3530 1.376 . S
C3530 H3517 0.930 . S
C3530 C3529 1.376 . S
C3530 C3531 1.388 . S
C3531 H3518 0.930 . S
C3531 C3530 1.388 . S
C3531 C3532 1.390 . S
C3532 C3531 1.390 . S
C3532 C3533 1.394 . S
C3532 C3538 1.465 . S
C3533 C3528 1.399 . S
C3533 C3532 1.394 . S
C3533 C3534 1.516 . S
C3534 C3533 1.516 . S
C3534 C3535 1.502 . S
C3534 C3536 1.561 . S
C3534 C3537 1.526 . S
C3535 H3519 0.959 . S
C3535 H3520 0.959 . S
C3535 H3521 0.961 . S
C3535 C3534 1.502 . S
C3536 H3522 0.960 . S
C3536 H3523 0.961 . S
C3536 H3524 0.959 . S
C3536 C3534 1.561 . S
C3537 C3534 1.526 . S
C3537 C3538 1.396 . S
C3537 C3542 1.390 . S
C3538 C3532 1.465 . S
C3538 C3537 1.396 . S
C3538 C3539 1.399 . S
C3539 H3525 0.929 . S
C3539 C3538 1.399 . S
C3539 C3540 1.385 . S
C3540 H3526 0.931 . S
C3540 C3539 1.385 . S
C3540 C3541 1.389 . S
C3541 C3540 1.389 . S
C3541 C3542 1.387 . S
C3542 H3527 0.930 . S
C3542 C3537 1.390 . S
C3542 C3541 1.387 . S
H3543 C3555 0.930 . S
H3544 C3557 0.930 . S
H3545 C3558 0.930 . S
H3546 C3562 0.959 . S
H3547 C3562 0.959 . S
H3548 C3562 0.961 . S
H3549 C3563 0.960 . S
H3550 C3563 0.961 . S
H3551 C3563 0.959 . S
H3552 C3566 0.929 1_556 S
H3553 C3567 0.931 . S
H3554 C3569 0.930 . S
C3555 H3543 0.930 . S
C3555 C3556 1.399 . S
C3555 C3560 1.399 . S
C3556 C3555 1.399 . S
C3556 C3557 1.376 1_554 S
C3557 H3544 0.930 . S
C3557 C3556 1.376 1_556 S
C3557 C3558 1.388 . S
C3558 H3545 0.930 . S
C3558 C3557 1.388 . S
C3558 C3559 1.390 1_556 S
C3559 C3558 1.390 1_554 S
C3559 C3560 1.394 . S
C3559 C3565 1.465 . S
C3560 C3555 1.399 . S
C3560 C3559 1.394 . S
C3560 C3561 1.516 . S
C3561 C3560 1.516 . S
C3561 C3562 1.502 . S
C3561 C3563 1.561 . S
C3561 C3564 1.526 . S
C3562 H3546 0.959 . S
C3562 H3547 0.959 . S
C3562 H3548 0.961 . S
C3562 C3561 1.502 . S
C3563 H3549 0.960 . S
C3563 H3550 0.961 . S
C3563 H3551 0.959 . S
C3563 C3561 1.561 . S
C3564 C3561 1.526 . S
C3564 C3565 1.396 . S
C3564 C3569 1.390 . S
C3565 C3559 1.465 . S
C3565 C3564 1.396 . S
C3565 C3566 1.399 . S
C3566 H3552 0.929 1_554 S
C3566 C3565 1.399 . S
C3566 C3567 1.385 . S
C3567 H3553 0.931 . S
C3567 C3566 1.385 . S
C3567 C3568 1.389 . S
C3568 C3567 1.389 . S
C3568 C3569 1.387 . S
C3569 H3554 0.930 . S
C3569 C3564 1.390 . S
C3569 C3568 1.387 . S
H3570 C3582 0.930 . S
H3571 C3584 0.930 . S
H3572 C3585 0.930 . S
H3573 C3589 0.959 . S
H3574 C3589 0.959 . S
H3575 C3589 0.961 . S
H3576 C3590 0.960 . S
H3577 C3590 0.961 . S
H3578 C3590 0.959 . S
H3579 C3593 0.929 . S
H3580 C3594 0.931 . S
H3581 C3596 0.930 . S
C3582 H3570 0.930 . S
C3582 C3583 1.399 . S
C3582 C3587 1.399 . S
C3583 C3582 1.399 . S
C3583 C3584 1.376 . S
C3584 H3571 0.930 . S
C3584 C3583 1.376 . S
C3584 C3585 1.388 . S
C3585 H3572 0.930 . S
C3585 C3584 1.388 . S
C3585 C3586 1.390 . S
C3586 C3585 1.390 . S
C3586 C3587 1.394 . S
C3586 C3592 1.465 . S
C3587 C3582 1.399 . S
C3587 C3586 1.394 . S
C3587 C3588 1.516 . S
C3588 C3587 1.516 . S
C3588 C3589 1.502 . S
C3588 C3590 1.561 . S
C3588 C3591 1.526 . S
C3589 H3573 0.959 . S
C3589 H3574 0.959 . S
C3589 H3575 0.961 . S
C3589 C3588 1.502 . S
C3590 H3576 0.960 . S
C3590 H3577 0.961 . S
C3590 H3578 0.959 . S
C3590 C3588 1.561 . S
C3591 C3588 1.526 . S
C3591 C3592 1.396 . S
C3591 C3596 1.390 . S
C3592 C3586 1.465 . S
C3592 C3591 1.396 . S
C3592 C3593 1.399 . S
C3593 H3579 0.929 . S
C3593 C3592 1.399 . S
C3593 C3594 1.385 . S
C3594 H3580 0.931 . S
C3594 C3593 1.385 . S
C3594 C3595 1.389 . S
C3595 C3594 1.389 . S
C3595 C3596 1.387 . S
C3596 H3581 0.930 . S
C3596 C3591 1.390 . S
C3596 C3595 1.387 . S
H3597 C3609 0.930 . S
H3598 C3611 0.930 . S
H3599 C3612 0.930 . S
H3600 C3616 0.959 . S
H3601 C3616 0.959 . S
H3602 C3616 0.961 . S
H3603 C3617 0.960 . S
H3604 C3617 0.961 . S
H3605 C3617 0.959 . S
H3606 C3620 0.929 . S
H3607 C3621 0.931 . S
H3608 C3623 0.930 . S
C3609 H3597 0.930 . S
C3609 C3610 1.399 . S
C3609 C3614 1.399 . S
C3610 C3609 1.399 . S
C3610 C3611 1.376 . S
C3611 H3598 0.930 . S
C3611 C3610 1.376 . S
C3611 C3612 1.388 . S
C3612 H3599 0.930 . S
C3612 C3611 1.388 . S
C3612 C3613 1.390 . S
C3613 C3612 1.390 . S
C3613 C3614 1.394 . S
C3613 C3619 1.465 . S
C3614 C3609 1.399 . S
C3614 C3613 1.394 . S
C3614 C3615 1.516 . S
C3615 C3614 1.516 . S
C3615 C3616 1.502 . S
C3615 C3617 1.561 . S
C3615 C3618 1.526 . S
C3616 H3600 0.959 . S
C3616 H3601 0.959 . S
C3616 H3602 0.961 . S
C3616 C3615 1.502 . S
C3617 H3603 0.960 . S
C3617 H3604 0.961 . S
C3617 H3605 0.959 . S
C3617 C3615 1.561 . S
C3618 C3615 1.526 . S
C3618 C3619 1.396 . S
C3618 C3623 1.390 . S
C3619 C3613 1.465 . S
C3619 C3618 1.396 . S
C3619 C3620 1.399 . S
C3620 H3606 0.929 . S
C3620 C3619 1.399 . S
C3620 C3621 1.385 . S
C3621 H3607 0.931 . S
C3621 C3620 1.385 . S
C3621 C3622 1.389 . S
C3622 C3621 1.389 . S
C3622 C3623 1.387 . S
C3623 H3608 0.930 . S
C3623 C3618 1.390 . S
C3623 C3622 1.387 . S
H3624 C3636 0.930 . S
H3625 C3638 0.930 . S
H3626 C3639 0.930 . S
H3627 C3643 0.959 . S
H3628 C3643 0.959 . S
H3629 C3643 0.961 . S
H3630 C3644 0.960 . S
H3631 C3644 0.961 . S
H3632 C3644 0.959 . S
H3633 C3647 0.929 . S
H3634 C3648 0.931 . S
H3635 C3650 0.930 . S
C3636 H3624 0.930 . S
C3636 C3637 1.399 . S
C3636 C3641 1.399 . S
C3637 C3636 1.399 . S
C3637 C3638 1.376 . S
C3638 H3625 0.930 . S
C3638 C3637 1.376 . S
C3638 C3639 1.388 . S
C3639 H3626 0.930 . S
C3639 C3638 1.388 . S
C3639 C3640 1.390 . S
C3640 C3639 1.390 . S
C3640 C3641 1.394 . S
C3640 C3646 1.465 . S
C3641 C3636 1.399 . S
C3641 C3640 1.394 . S
C3641 C3642 1.516 . S
C3642 C3641 1.516 . S
C3642 C3643 1.502 . S
C3642 C3644 1.561 . S
C3642 C3645 1.526 . S
C3643 H3627 0.959 . S
C3643 H3628 0.959 . S
C3643 H3629 0.961 . S
C3643 C3642 1.502 . S
C3644 H3630 0.960 . S
C3644 H3631 0.961 . S
C3644 H3632 0.959 . S
C3644 C3642 1.561 . S
C3645 C3642 1.526 . S
C3645 C3646 1.396 . S
C3645 C3650 1.390 . S
C3646 C3640 1.465 . S
C3646 C3645 1.396 . S
C3646 C3647 1.399 . S
C3647 H3633 0.929 . S
C3647 C3646 1.399 . S
C3647 C3648 1.385 . S
C3648 H3634 0.931 . S
C3648 C3647 1.385 . S
C3648 C3649 1.389 . S
C3649 C3648 1.389 . S
C3649 C3650 1.387 . S
C3650 H3635 0.930 . S
C3650 C3645 1.390 . S
C3650 C3649 1.387 . S
H3651 C3663 0.930 . S
H3652 C3665 0.930 . S
H3653 C3666 0.930 . S
H3654 C3670 0.959 . S
H3655 C3670 0.959 . S
H3656 C3670 0.961 . S
H3657 C3671 0.960 . S
H3658 C3671 0.961 . S
H3659 C3671 0.959 . S
H3660 C3674 0.929 . S
H3661 C3675 0.931 . S
H3662 C3677 0.930 . S
C3663 H3651 0.930 . S
C3663 C3664 1.399 . S
C3663 C3668 1.399 . S
C3664 C3663 1.399 . S
C3664 C3665 1.376 . S
C3665 H3652 0.930 . S
C3665 C3664 1.376 . S
C3665 C3666 1.388 . S
C3666 H3653 0.930 . S
C3666 C3665 1.388 . S
C3666 C3667 1.390 . S
C3667 C3666 1.390 . S
C3667 C3668 1.394 . S
C3667 C3673 1.465 . S
C3668 C3663 1.399 . S
C3668 C3667 1.394 . S
C3668 C3669 1.516 . S
C3669 C3668 1.516 . S
C3669 C3670 1.502 . S
C3669 C3671 1.561 . S
C3669 C3672 1.526 . S
C3670 H3654 0.959 . S
C3670 H3655 0.959 . S
C3670 H3656 0.961 . S
C3670 C3669 1.502 . S
C3671 H3657 0.960 . S
C3671 H3658 0.961 . S
C3671 H3659 0.959 . S
C3671 C3669 1.561 . S
C3672 C3669 1.526 . S
C3672 C3673 1.396 . S
C3672 C3677 1.390 . S
C3673 C3667 1.465 . S
C3673 C3672 1.396 . S
C3673 C3674 1.399 . S
C3674 H3660 0.929 . S
C3674 C3673 1.399 . S
C3674 C3675 1.385 . S
C3675 H3661 0.931 . S
C3675 C3674 1.385 . S
C3675 C3676 1.389 . S
C3676 C3675 1.389 . S
C3676 C3677 1.387 . S
C3677 H3662 0.930 . S
C3677 C3672 1.390 . S
C3677 C3676 1.387 . S
H3678 C3690 0.930 . S
H3679 C3692 0.930 . S
H3680 C3693 0.930 . S
H3681 C3697 0.959 . S
H3682 C3697 0.959 . S
H3683 C3697 0.961 . S
H3684 C3698 0.960 . S
H3685 C3698 0.961 . S
H3686 C3698 0.959 . S
H3687 C3701 0.929 . S
H3688 C3702 0.931 . S
H3689 C3704 0.930 . S
C3690 H3678 0.930 . S
C3690 C3691 1.399 . S
C3690 C3695 1.399 . S
C3691 C3690 1.399 . S
C3691 C3692 1.376 . S
C3692 H3679 0.930 . S
C3692 C3691 1.376 . S
C3692 C3693 1.388 . S
C3693 H3680 0.930 . S
C3693 C3692 1.388 . S
C3693 C3694 1.390 . S
C3694 C3693 1.390 . S
C3694 C3695 1.394 . S
C3694 C3700 1.465 . S
C3695 C3690 1.399 . S
C3695 C3694 1.394 . S
C3695 C3696 1.516 . S
C3696 C3695 1.516 . S
C3696 C3697 1.502 . S
C3696 C3698 1.561 . S
C3696 C3699 1.526 . S
C3697 H3681 0.959 . S
C3697 H3682 0.959 . S
C3697 H3683 0.961 . S
C3697 C3696 1.502 . S
C3698 H3684 0.960 . S
C3698 H3685 0.961 . S
C3698 H3686 0.959 . S
C3698 C3696 1.561 . S
C3699 C3696 1.526 . S
C3699 C3700 1.396 . S
C3699 C3704 1.390 . S
C3700 C3694 1.465 . S
C3700 C3699 1.396 . S
C3700 C3701 1.399 . S
C3701 H3687 0.929 . S
C3701 C3700 1.399 . S
C3701 C3702 1.385 . S
C3702 H3688 0.931 . S
C3702 C3701 1.385 . S
C3702 C3703 1.389 . S
C3703 C3702 1.389 . S
C3703 C3704 1.387 . S
C3704 H3689 0.930 . S
C3704 C3699 1.390 . S
C3704 C3703 1.387 . S
H3705 C3717 0.930 . S
H3706 C3719 0.930 . S
H3707 C3720 0.930 . S
H3708 C3724 0.959 . S
H3709 C3724 0.959 . S
H3710 C3724 0.961 . S
H3711 C3725 0.960 . S
H3712 C3725 0.961 . S
H3713 C3725 0.959 . S
H3714 C3728 0.929 . S
H3715 C3729 0.931 . S
H3716 C3731 0.930 . S
C3717 H3705 0.930 . S
C3717 C3718 1.399 . S
C3717 C3722 1.399 . S
C3718 C3717 1.399 . S
C3718 C3719 1.376 . S
C3719 H3706 0.930 . S
C3719 C3718 1.376 . S
C3719 C3720 1.388 . S
C3720 H3707 0.930 . S
C3720 C3719 1.388 . S
C3720 C3721 1.390 . S
C3721 C3720 1.390 . S
C3721 C3722 1.394 . S
C3721 C3727 1.465 . S
C3722 C3717 1.399 . S
C3722 C3721 1.394 . S
C3722 C3723 1.516 . S
C3723 C3722 1.516 . S
C3723 C3724 1.502 . S
C3723 C3725 1.561 . S
C3723 C3726 1.526 . S
C3724 H3708 0.959 . S
C3724 H3709 0.959 . S
C3724 H3710 0.961 . S
C3724 C3723 1.502 . S
C3725 H3711 0.960 . S
C3725 H3712 0.961 . S
C3725 H3713 0.959 . S
C3725 C3723 1.561 . S
C3726 C3723 1.526 . S
C3726 C3727 1.396 . S
C3726 C3731 1.390 . S
C3727 C3721 1.465 . S
C3727 C3726 1.396 . S
C3727 C3728 1.399 . S
C3728 H3714 0.929 . S
C3728 C3727 1.399 . S
C3728 C3729 1.385 . S
C3729 H3715 0.931 . S
C3729 C3728 1.385 . S
C3729 C3730 1.389 . S
C3730 C3729 1.389 . S
C3730 C3731 1.387 . S
C3731 H3716 0.930 . S
C3731 C3726 1.390 . S
C3731 C3730 1.387 . S
H3732 C3744 0.930 . S
H3733 C3746 0.930 . S
H3734 C3747 0.930 . S
H3735 C3751 0.959 . S
H3736 C3751 0.959 . S
H3737 C3751 0.961 . S
H3738 C3752 0.960 . S
H3739 C3752 0.961 . S
H3740 C3752 0.959 . S
H3741 C3755 0.929 . S
H3742 C3756 0.931 . S
H3743 C3758 0.930 . S
C3744 H3732 0.930 . S
C3744 C3745 1.399 . S
C3744 C3749 1.399 . S
C3745 C3744 1.399 . S
C3745 C3746 1.376 . S
C3746 H3733 0.930 . S
C3746 C3745 1.376 . S
C3746 C3747 1.388 . S
C3747 H3734 0.930 . S
C3747 C3746 1.388 . S
C3747 C3748 1.390 . S
C3748 C3747 1.390 . S
C3748 C3749 1.394 . S
C3748 C3754 1.465 . S
C3749 C3744 1.399 . S
C3749 C3748 1.394 . S
C3749 C3750 1.516 . S
C3750 C3749 1.516 . S
C3750 C3751 1.502 . S
C3750 C3752 1.561 . S
C3750 C3753 1.526 . S
C3751 H3735 0.959 . S
C3751 H3736 0.959 . S
C3751 H3737 0.961 . S
C3751 C3750 1.502 . S
C3752 H3738 0.960 . S
C3752 H3739 0.961 . S
C3752 H3740 0.959 . S
C3752 C3750 1.561 . S
C3753 C3750 1.526 . S
C3753 C3754 1.396 . S
C3753 C3758 1.390 . S
C3754 C3748 1.465 . S
C3754 C3753 1.396 . S
C3754 C3755 1.399 . S
C3755 H3741 0.929 . S
C3755 C3754 1.399 . S
C3755 C3756 1.385 . S
C3756 H3742 0.931 . S
C3756 C3755 1.385 . S
C3756 C3757 1.389 . S
C3757 C3756 1.389 . S
C3757 C3758 1.387 . S
C3758 H3743 0.930 . S
C3758 C3753 1.390 . S
C3758 C3757 1.387 . S
H3759 C3771 0.930 . S
H3760 C3773 0.930 . S
H3761 C3774 0.930 . S
H3762 C3778 0.959 . S
H3763 C3778 0.959 . S
H3764 C3778 0.961 . S
H3765 C3779 0.960 . S
H3766 C3779 0.961 . S
H3767 C3779 0.959 . S
H3768 C3782 0.929 . S
H3769 C3783 0.931 . S
H3770 C3785 0.930 . S
C3771 H3759 0.930 . S
C3771 C3772 1.399 . S
C3771 C3776 1.399 . S
C3772 C3771 1.399 . S
C3772 C3773 1.376 . S
C3773 H3760 0.930 . S
C3773 C3772 1.376 . S
C3773 C3774 1.388 . S
C3774 H3761 0.930 . S
C3774 C3773 1.388 . S
C3774 C3775 1.390 . S
C3775 C3774 1.390 . S
C3775 C3776 1.394 . S
C3775 C3781 1.465 . S
C3776 C3771 1.399 . S
C3776 C3775 1.394 . S
C3776 C3777 1.516 . S
C3777 C3776 1.516 . S
C3777 C3778 1.502 . S
C3777 C3779 1.561 . S
C3777 C3780 1.526 . S
C3778 H3762 0.959 . S
C3778 H3763 0.959 . S
C3778 H3764 0.961 . S
C3778 C3777 1.502 . S
C3779 H3765 0.960 . S
C3779 H3766 0.961 . S
C3779 H3767 0.959 . S
C3779 C3777 1.561 . S
C3780 C3777 1.526 . S
C3780 C3781 1.396 . S
C3780 C3785 1.390 . S
C3781 C3775 1.465 . S
C3781 C3780 1.396 . S
C3781 C3782 1.399 . S
C3782 H3768 0.929 . S
C3782 C3781 1.399 . S
C3782 C3783 1.385 . S
C3783 H3769 0.931 . S
C3783 C3782 1.385 . S
C3783 C3784 1.389 . S
C3784 C3783 1.389 . S
C3784 C3785 1.387 . S
C3785 H3770 0.930 . S
C3785 C3780 1.390 . S
C3785 C3784 1.387 . S
H3786 C3798 0.930 . S
H3787 C3800 0.930 . S
H3788 C3801 0.930 1_655 S
H3789 C3805 0.959 . S
H3790 C3805 0.959 . S
H3791 C3805 0.961 . S
H3792 C3806 0.960 . S
H3793 C3806 0.961 . S
H3794 C3806 0.959 . S
H3795 C3809 0.929 1_655 S
H3796 C3810 0.926 1_655 S
H3797 C3812 0.930 . S
C3798 H3786 0.930 . S
C3798 C3799 1.399 . S
C3798 C3803 1.399 . S
C3799 C3798 1.399 . S
C3799 C3800 1.376 . S
C3800 H3787 0.930 . S
C3800 C3799 1.376 . S
C3800 C3801 1.388 . S
C3801 H3788 0.930 1_455 S
C3801 C3800 1.388 . S
C3801 C3802 1.390 . S
C3802 C3801 1.390 . S
C3802 C3803 1.394 . S
C3802 C3808 1.465 . S
C3803 C3798 1.399 . S
C3803 C3802 1.394 . S
C3803 C3804 1.516 . S
C3804 C3803 1.516 . S
C3804 C3805 1.502 . S
C3804 C3806 1.561 . S
C3804 C3807 1.526 . S
C3805 H3789 0.959 . S
C3805 H3790 0.959 . S
C3805 H3791 0.961 . S
C3805 C3804 1.502 . S
C3806 H3792 0.960 . S
C3806 H3793 0.961 . S
C3806 H3794 0.959 . S
C3806 C3804 1.561 . S
C3807 C3804 1.526 . S
C3807 C3808 1.396 . S
C3807 C3812 1.390 . S
C3808 C3802 1.465 . S
C3808 C3807 1.396 . S
C3808 C3809 1.399 . S
C3809 H3795 0.929 1_455 S
C3809 C3808 1.399 . S
C3809 C3810 1.385 . S
C3810 H3796 0.926 1_455 S
C3810 C3809 1.385 . S
C3810 C3811 1.389 . S
C3811 C3810 1.389 . S
C3811 C3812 1.387 . S
C3812 H3797 0.930 . S
C3812 C3807 1.390 . S
C3812 C3811 1.387 . S
H3813 C3825 0.930 . S
H3814 C3827 0.930 . S
H3815 C3828 0.930 . S
H3816 C3832 0.959 . S
H3817 C3832 0.959 . S
H3818 C3832 0.961 . S
H3819 C3833 0.960 . S
H3820 C3833 0.961 . S
H3821 C3833 0.959 . S
H3822 C3836 0.929 . S
H3823 C3837 0.931 . S
H3824 C3839 0.930 . S
C3825 H3813 0.930 . S
C3825 C3826 1.399 . S
C3825 C3830 1.399 . S
C3826 C3825 1.399 . S
C3826 C3827 1.376 . S
C3827 H3814 0.930 . S
C3827 C3826 1.376 . S
C3827 C3828 1.388 . S
C3828 H3815 0.930 . S
C3828 C3827 1.388 . S
C3828 C3829 1.390 . S
C3829 C3828 1.390 . S
C3829 C3830 1.394 . S
C3829 C3835 1.465 . S
C3830 C3825 1.399 . S
C3830 C3829 1.394 . S
C3830 C3831 1.516 . S
C3831 C3830 1.516 . S
C3831 C3832 1.502 . S
C3831 C3833 1.561 . S
C3831 C3834 1.526 . S
C3832 H3816 0.959 . S
C3832 H3817 0.959 . S
C3832 H3818 0.961 . S
C3832 C3831 1.502 . S
C3833 H3819 0.960 . S
C3833 H3820 0.961 . S
C3833 H3821 0.959 . S
C3833 C3831 1.561 . S
C3834 C3831 1.526 . S
C3834 C3835 1.396 . S
C3834 C3839 1.390 . S
C3835 C3829 1.465 . S
C3835 C3834 1.396 . S
C3835 C3836 1.399 . S
C3836 H3822 0.929 . S
C3836 C3835 1.399 . S
C3836 C3837 1.385 . S
C3837 H3823 0.931 . S
C3837 C3836 1.385 . S
C3837 C3838 1.389 . S
C3838 C3837 1.389 . S
C3838 C3839 1.387 . S
C3839 H3824 0.930 . S
C3839 C3834 1.390 . S
C3839 C3838 1.387 . S
H3840 C3852 0.930 . S
H3841 C3854 0.930 . S
H3842 C3855 0.930 . S
H3843 C3859 0.959 . S
H3844 C3859 0.959 . S
H3845 C3859 0.961 . S
H3846 C3860 0.960 . S
H3847 C3860 0.961 . S
H3848 C3860 0.959 . S
H3849 C3863 0.929 . S
H3850 C3864 0.931 . S
H3851 C3866 0.930 . S
C3852 H3840 0.930 . S
C3852 C3853 1.399 . S
C3852 C3857 1.399 . S
C3853 C3852 1.399 . S
C3853 C3854 1.376 . S
C3854 H3841 0.930 . S
C3854 C3853 1.376 . S
C3854 C3855 1.388 . S
C3855 H3842 0.930 . S
C3855 C3854 1.388 . S
C3855 C3856 1.390 . S
C3856 C3855 1.390 . S
C3856 C3857 1.394 . S
C3856 C3862 1.465 . S
C3857 C3852 1.399 . S
C3857 C3856 1.394 . S
C3857 C3858 1.516 . S
C3858 C3857 1.516 . S
C3858 C3859 1.502 . S
C3858 C3860 1.561 . S
C3858 C3861 1.526 . S
C3859 H3843 0.959 . S
C3859 H3844 0.959 . S
C3859 H3845 0.961 . S
C3859 C3858 1.502 . S
C3860 H3846 0.960 . S
C3860 H3847 0.961 . S
C3860 H3848 0.959 . S
C3860 C3858 1.561 . S
C3861 C3858 1.526 . S
C3861 C3862 1.396 . S
C3861 C3866 1.390 . S
C3862 C3856 1.465 . S
C3862 C3861 1.396 . S
C3862 C3863 1.399 . S
C3863 H3849 0.929 . S
C3863 C3862 1.399 . S
C3863 C3864 1.385 . S
C3864 H3850 0.931 . S
C3864 C3863 1.385 . S
C3864 C3865 1.389 . S
C3865 C3864 1.389 . S
C3865 C3866 1.387 . S
C3866 H3851 0.930 . S
C3866 C3861 1.390 . S
C3866 C3865 1.387 . S
H3867 C3879 0.930 . S
H3868 C3881 0.930 . S
H3869 C3882 0.930 . S
H3870 C3886 0.959 . S
H3871 C3886 0.959 . S
H3872 C3886 0.961 . S
H3873 C3887 0.960 . S
H3874 C3887 0.961 . S
H3875 C3887 0.959 . S
H3876 C3890 0.929 . S
H3877 C3891 0.931 . S
H3878 C3893 0.930 . S
C3879 H3867 0.930 . S
C3879 C3880 1.399 . S
C3879 C3884 1.399 . S
C3880 C3879 1.399 . S
C3880 C3881 1.376 . S
C3881 H3868 0.930 . S
C3881 C3880 1.376 . S
C3881 C3882 1.388 . S
C3882 H3869 0.930 . S
C3882 C3881 1.388 . S
C3882 C3883 1.390 . S
C3883 C3882 1.390 . S
C3883 C3884 1.394 . S
C3883 C3889 1.465 . S
C3884 C3879 1.399 . S
C3884 C3883 1.394 . S
C3884 C3885 1.516 . S
C3885 C3884 1.516 . S
C3885 C3886 1.502 . S
C3885 C3887 1.561 . S
C3885 C3888 1.526 . S
C3886 H3870 0.959 . S
C3886 H3871 0.959 . S
C3886 H3872 0.961 . S
C3886 C3885 1.502 . S
C3887 H3873 0.960 . S
C3887 H3874 0.961 . S
C3887 H3875 0.959 . S
C3887 C3885 1.561 . S
C3888 C3885 1.526 . S
C3888 C3889 1.396 . S
C3888 C3893 1.390 . S
C3889 C3883 1.465 . S
C3889 C3888 1.396 . S
C3889 C3890 1.399 . S
C3890 H3876 0.929 . S
C3890 C3889 1.399 . S
C3890 C3891 1.385 . S
C3891 H3877 0.931 . S
C3891 C3890 1.385 . S
C3891 C3892 1.389 . S
C3892 C3891 1.389 . S
C3892 C3893 1.387 . S
C3893 H3878 0.930 . S
C3893 C3888 1.390 . S
C3893 C3892 1.387 . S
H3894 C3906 0.930 . S
H3895 C3908 0.930 . S
H3896 C3909 0.930 . S
H3897 C3913 0.959 . S
H3898 C3913 0.959 . S
H3899 C3913 0.961 . S
H3900 C3914 0.960 . S
H3901 C3914 0.961 . S
H3902 C3914 0.959 . S
H3903 C3917 0.929 . S
H3904 C3918 0.931 1_455 S
H3905 C3920 0.930 . S
C3906 H3894 0.930 . S
C3906 C3907 1.399 . S
C3906 C3911 1.399 . S
C3907 C3906 1.399 . S
C3907 C3908 1.376 . S
C3908 H3895 0.930 . S
C3908 C3907 1.376 . S
C3908 C3909 1.388 . S
C3909 H3896 0.930 . S
C3909 C3908 1.388 . S
C3909 C3910 1.390 . S
C3910 C3909 1.390 . S
C3910 C3911 1.394 . S
C3910 C3916 1.465 . S
C3911 C3906 1.399 . S
C3911 C3910 1.394 . S
C3911 C3912 1.516 . S
C3912 C3911 1.516 . S
C3912 C3913 1.502 . S
C3912 C3914 1.561 . S
C3912 C3915 1.526 . S
C3913 H3897 0.959 . S
C3913 H3898 0.959 . S
C3913 H3899 0.961 . S
C3913 C3912 1.502 . S
C3914 H3900 0.960 . S
C3914 H3901 0.961 . S
C3914 H3902 0.959 . S
C3914 C3912 1.561 . S
C3915 C3912 1.526 . S
C3915 C3916 1.396 . S
C3915 C3920 1.390 . S
C3916 C3910 1.465 . S
C3916 C3915 1.396 . S
C3916 C3917 1.399 . S
C3917 H3903 0.929 . S
C3917 C3916 1.399 . S
C3917 C3918 1.385 . S
C3918 H3904 0.931 1_655 S
C3918 C3917 1.385 . S
C3918 C3919 1.389 . S
C3919 C3918 1.389 . S
C3919 C3920 1.387 . S
C3920 H3905 0.930 . S
C3920 C3915 1.390 . S
C3920 C3919 1.387 . S
H3921 C3933 0.930 . S
H3922 C3935 0.930 . S
H3923 C3936 0.930 . S
H3924 C3940 0.959 . S
H3925 C3940 0.959 . S
H3926 C3940 0.961 . S
H3927 C3941 0.960 . S
H3928 C3941 0.961 . S
H3929 C3941 0.959 . S
H3930 C3944 0.929 . S
H3931 C3945 0.931 . S
H3932 C3947 0.930 . S
C3933 H3921 0.930 . S
C3933 C3934 1.399 . S
C3933 C3938 1.399 . S
C3934 C3933 1.399 . S
C3934 C3935 1.376 . S
C3935 H3922 0.930 . S
C3935 C3934 1.376 . S
C3935 C3936 1.388 . S
C3936 H3923 0.930 . S
C3936 C3935 1.388 . S
C3936 C3937 1.390 . S
C3937 C3936 1.390 . S
C3937 C3938 1.394 . S
C3937 C3943 1.465 . S
C3938 C3933 1.399 . S
C3938 C3937 1.394 . S
C3938 C3939 1.516 . S
C3939 C3938 1.516 . S
C3939 C3940 1.502 . S
C3939 C3941 1.561 . S
C3939 C3942 1.526 . S
C3940 H3924 0.959 . S
C3940 H3925 0.959 . S
C3940 H3926 0.961 . S
C3940 C3939 1.502 . S
C3941 H3927 0.960 . S
C3941 H3928 0.961 . S
C3941 H3929 0.959 . S
C3941 C3939 1.561 . S
C3942 C3939 1.526 . S
C3942 C3943 1.396 . S
C3942 C3947 1.390 . S
C3943 C3937 1.465 . S
C3943 C3942 1.396 . S
C3943 C3944 1.399 . S
C3944 H3930 0.929 . S
C3944 C3943 1.399 . S
C3944 C3945 1.385 . S
C3945 H3931 0.931 . S
C3945 C3944 1.385 . S
C3945 C3946 1.389 . S
C3946 C3945 1.389 . S
C3946 C3947 1.387 . S
C3947 H3932 0.930 . S
C3947 C3942 1.390 . S
C3947 C3946 1.387 . S
H3948 C3960 0.930 . S
H3949 C3962 0.930 . S
H3950 C3963 0.930 . S
H3951 C3967 0.959 . S
H3952 C3967 0.959 . S
H3953 C3967 0.961 . S
H3954 C3968 0.960 . S
H3955 C3968 0.961 . S
H3956 C3968 0.959 . S
H3957 C3971 0.929 . S
H3958 C3972 0.931 . S
H3959 C3974 0.930 . S
C3960 H3948 0.930 . S
C3960 C3961 1.399 . S
C3960 C3965 1.399 . S
C3961 C3960 1.399 . S
C3961 C3962 1.376 . S
C3962 H3949 0.930 . S
C3962 C3961 1.376 . S
C3962 C3963 1.388 . S
C3963 H3950 0.930 . S
C3963 C3962 1.388 . S
C3963 C3964 1.390 . S
C3964 C3963 1.390 . S
C3964 C3965 1.394 . S
C3964 C3970 1.465 . S
C3965 C3960 1.399 . S
C3965 C3964 1.394 . S
C3965 C3966 1.516 . S
C3966 C3965 1.516 . S
C3966 C3967 1.502 . S
C3966 C3968 1.561 . S
C3966 C3969 1.526 . S
C3967 H3951 0.959 . S
C3967 H3952 0.959 . S
C3967 H3953 0.961 . S
C3967 C3966 1.502 . S
C3968 H3954 0.960 . S
C3968 H3955 0.961 . S
C3968 H3956 0.959 . S
C3968 C3966 1.561 . S
C3969 C3966 1.526 . S
C3969 C3970 1.396 . S
C3969 C3974 1.390 . S
C3970 C3964 1.465 . S
C3970 C3969 1.396 . S
C3970 C3971 1.399 . S
C3971 H3957 0.929 . S
C3971 C3970 1.399 . S
C3971 C3972 1.385 . S
C3972 H3958 0.931 . S
C3972 C3971 1.385 . S
C3972 C3973 1.389 . S
C3973 C3972 1.389 . S
C3973 C3974 1.387 . S
C3974 H3959 0.930 . S
C3974 C3969 1.390 . S
C3974 C3973 1.387 . S
H3975 C3987 0.930 . S
H3976 C3989 0.930 . S
H3977 C3990 0.930 . S
H3978 C3994 0.959 . S
H3979 C3994 0.959 . S
H3980 C3994 0.961 . S
H3981 C3995 0.960 . S
H3982 C3995 0.961 . S
H3983 C3995 0.959 . S
H3984 C3998 0.929 . S
H3985 C3999 0.931 . S
H3986 C4001 0.930 . S
C3987 H3975 0.930 . S
C3987 C3988 1.399 . S
C3987 C3992 1.399 . S
C3988 C3987 1.399 . S
C3988 C3989 1.376 . S
C3989 H3976 0.930 . S
C3989 C3988 1.376 . S
C3989 C3990 1.388 . S
C3990 H3977 0.930 . S
C3990 C3989 1.388 . S
C3990 C3991 1.390 . S
C3991 C3990 1.390 . S
C3991 C3992 1.394 . S
C3991 C3997 1.465 . S
C3992 C3987 1.399 . S
C3992 C3991 1.394 . S
C3992 C3993 1.516 . S
C3993 C3992 1.516 . S
C3993 C3994 1.502 . S
C3993 C3995 1.561 . S
C3993 C3996 1.526 . S
C3994 H3978 0.959 . S
C3994 H3979 0.959 . S
C3994 H3980 0.961 . S
C3994 C3993 1.502 . S
C3995 H3981 0.960 . S
C3995 H3982 0.961 . S
C3995 H3983 0.959 . S
C3995 C3993 1.561 . S
C3996 C3993 1.526 . S
C3996 C3997 1.396 . S
C3996 C4001 1.390 . S
C3997 C3991 1.465 . S
C3997 C3996 1.396 . S
C3997 C3998 1.399 . S
C3998 H3984 0.929 . S
C3998 C3997 1.399 . S
C3998 C3999 1.385 . S
C3999 H3985 0.931 . S
C3999 C3998 1.385 . S
C3999 C4000 1.389 . S
C4000 C3999 1.389 . S
C4000 C4001 1.387 . S
C4001 H3986 0.930 . S
C4001 C3996 1.390 . S
C4001 C4000 1.387 . S
H4002 C4014 0.930 . S
H4003 C4016 0.930 . S
H4004 C4017 0.930 . S
H4005 C4021 0.959 . S
H4006 C4021 0.959 . S
H4007 C4021 0.961 . S
H4008 C4022 0.960 . S
H4009 C4022 0.961 . S
H4010 C4022 0.959 . S
H4011 C4025 0.929 . S
H4012 C4026 0.931 . S
H4013 C4028 0.930 . S
C4014 H4002 0.930 . S
C4014 C4015 1.399 . S
C4014 C4019 1.399 . S
C4015 C4014 1.399 . S
C4015 C4016 1.376 . S
C4016 H4003 0.930 . S
C4016 C4015 1.376 . S
C4016 C4017 1.388 . S
C4017 H4004 0.930 . S
C4017 C4016 1.388 . S
C4017 C4018 1.390 . S
C4018 C4017 1.390 . S
C4018 C4019 1.394 . S
C4018 C4024 1.465 . S
C4019 C4014 1.399 . S
C4019 C4018 1.394 . S
C4019 C4020 1.516 . S
C4020 C4019 1.516 . S
C4020 C4021 1.502 . S
C4020 C4022 1.561 . S
C4020 C4023 1.526 . S
C4021 H4005 0.959 . S
C4021 H4006 0.959 . S
C4021 H4007 0.961 . S
C4021 C4020 1.502 . S
C4022 H4008 0.960 . S
C4022 H4009 0.961 . S
C4022 H4010 0.959 . S
C4022 C4020 1.561 . S
C4023 C4020 1.526 . S
C4023 C4024 1.396 . S
C4023 C4028 1.390 . S
C4024 C4018 1.465 . S
C4024 C4023 1.396 . S
C4024 C4025 1.399 . S
C4025 H4011 0.929 . S
C4025 C4024 1.399 . S
C4025 C4026 1.385 . S
C4026 H4012 0.931 . S
C4026 C4025 1.385 . S
C4026 C4027 1.389 . S
C4027 C4026 1.389 . S
C4027 C4028 1.387 . S
C4028 H4013 0.930 . S
C4028 C4023 1.390 . S
C4028 C4027 1.387 . S
H4029 C4041 0.930 . S
H4030 C4043 0.930 . S
H4031 C4044 0.930 . S
H4032 C4048 0.959 . S
H4033 C4048 0.959 . S
H4034 C4048 0.961 . S
H4035 C4049 0.960 . S
H4036 C4049 0.961 . S
H4037 C4049 0.959 . S
H4038 C4052 0.929 . S
H4039 C4053 0.931 . S
H4040 C4055 0.930 . S
C4041 H4029 0.930 . S
C4041 C4042 1.399 . S
C4041 C4046 1.399 . S
C4042 C4041 1.399 . S
C4042 C4043 1.376 . S
C4043 H4030 0.930 . S
C4043 C4042 1.376 . S
C4043 C4044 1.388 . S
C4044 H4031 0.930 . S
C4044 C4043 1.388 . S
C4044 C4045 1.390 . S
C4045 C4044 1.390 . S
C4045 C4046 1.394 . S
C4045 C4051 1.465 . S
C4046 C4041 1.399 . S
C4046 C4045 1.394 . S
C4046 C4047 1.516 . S
C4047 C4046 1.516 . S
C4047 C4048 1.502 . S
C4047 C4049 1.561 . S
C4047 C4050 1.526 . S
C4048 H4032 0.959 . S
C4048 H4033 0.959 . S
C4048 H4034 0.961 . S
C4048 C4047 1.502 . S
C4049 H4035 0.960 . S
C4049 H4036 0.961 . S
C4049 H4037 0.959 . S
C4049 C4047 1.561 . S
C4050 C4047 1.526 . S
C4050 C4051 1.396 . S
C4050 C4055 1.390 . S
C4051 C4045 1.465 . S
C4051 C4050 1.396 . S
C4051 C4052 1.399 . S
C4052 H4038 0.929 . S
C4052 C4051 1.399 . S
C4052 C4053 1.385 . S
C4053 H4039 0.931 . S
C4053 C4052 1.385 . S
C4053 C4054 1.389 . S
C4054 C4053 1.389 . S
C4054 C4055 1.387 . S
C4055 H4040 0.930 . S
C4055 C4050 1.390 . S
C4055 C4054 1.387 . S
H4056 C4068 0.930 . S
H4057 C4070 0.930 . S
H4058 C4071 0.930 . S
H4059 C4075 0.959 . S
H4060 C4075 0.959 . S
H4061 C4075 0.961 . S
H4062 C4076 0.960 . S
H4063 C4076 0.961 . S
H4064 C4076 0.959 . S
H4065 C4079 0.929 . S
H4066 C4080 0.931 . S
H4067 C4082 0.930 . S
C4068 H4056 0.930 . S
C4068 C4069 1.399 . S
C4068 C4073 1.399 . S
C4069 C4068 1.399 . S
C4069 C4070 1.376 . S
C4070 H4057 0.930 . S
C4070 C4069 1.376 . S
C4070 C4071 1.388 . S
C4071 H4058 0.930 . S
C4071 C4070 1.388 . S
C4071 C4072 1.390 . S
C4072 C4071 1.390 . S
C4072 C4073 1.394 . S
C4072 C4078 1.465 . S
C4073 C4068 1.399 . S
C4073 C4072 1.394 . S
C4073 C4074 1.516 . S
C4074 C4073 1.516 . S
C4074 C4075 1.502 . S
C4074 C4076 1.561 . S
C4074 C4077 1.526 . S
C4075 H4059 0.959 . S
C4075 H4060 0.959 . S
C4075 H4061 0.961 . S
C4075 C4074 1.502 . S
C4076 H4062 0.960 . S
C4076 H4063 0.961 . S
C4076 H4064 0.959 . S
C4076 C4074 1.561 . S
C4077 C4074 1.526 . S
C4077 C4078 1.396 . S
C4077 C4082 1.390 . S
C4078 C4072 1.465 . S
C4078 C4077 1.396 . S
C4078 C4079 1.399 . S
C4079 H4065 0.929 . S
C4079 C4078 1.399 . S
C4079 C4080 1.385 . S
C4080 H4066 0.931 . S
C4080 C4079 1.385 . S
C4080 C4081 1.389 . S
C4081 C4080 1.389 . S
C4081 C4082 1.387 . S
C4082 H4067 0.930 . S
C4082 C4077 1.390 . S
C4082 C4081 1.387 . S
H4083 C4095 0.930 . S
H4084 C4097 0.930 . S
H4085 C4098 0.930 . S
H4086 C4102 0.959 . S
H4087 C4102 0.959 . S
H4088 C4102 0.961 . S
H4089 C4103 0.960 . S
H4090 C4103 0.961 . S
H4091 C4103 0.959 . S
H4092 C4106 0.929 . S
H4093 C4107 0.931 . S
H4094 C4109 0.930 . S
C4095 H4083 0.930 . S
C4095 C4096 1.399 . S
C4095 C4100 1.399 . S
C4096 C4095 1.399 . S
C4096 C4097 1.376 . S
C4097 H4084 0.930 . S
C4097 C4096 1.376 . S
C4097 C4098 1.388 . S
C4098 H4085 0.930 . S
C4098 C4097 1.388 . S
C4098 C4099 1.390 . S
C4099 C4098 1.390 . S
C4099 C4100 1.394 . S
C4099 C4105 1.465 . S
C4100 C4095 1.399 . S
C4100 C4099 1.394 . S
C4100 C4101 1.516 . S
C4101 C4100 1.516 . S
C4101 C4102 1.502 . S
C4101 C4103 1.561 . S
C4101 C4104 1.526 . S
C4102 H4086 0.959 . S
C4102 H4087 0.959 . S
C4102 H4088 0.961 . S
C4102 C4101 1.502 . S
C4103 H4089 0.960 . S
C4103 H4090 0.961 . S
C4103 H4091 0.959 . S
C4103 C4101 1.561 . S
C4104 C4101 1.526 . S
C4104 C4105 1.396 . S
C4104 C4109 1.390 . S
C4105 C4099 1.465 . S
C4105 C4104 1.396 . S
C4105 C4106 1.399 . S
C4106 H4092 0.929 . S
C4106 C4105 1.399 . S
C4106 C4107 1.385 . S
C4107 H4093 0.931 . S
C4107 C4106 1.385 . S
C4107 C4108 1.389 . S
C4108 C4107 1.389 . S
C4108 C4109 1.387 . S
C4109 H4094 0.930 . S
C4109 C4104 1.390 . S
C4109 C4108 1.387 . S
H4110 C4122 0.930 . S
H4111 C4124 0.930 . S
H4112 C4125 0.930 . S
H4113 C4129 0.959 . S
H4114 C4129 0.959 . S
H4115 C4129 0.961 . S
H4116 C4130 0.960 . S
H4117 C4130 0.961 . S
H4118 C4130 0.959 . S
H4119 C4133 0.929 . S
H4120 C4134 0.931 . S
H4121 C4136 0.930 . S
C4122 H4110 0.930 . S
C4122 C4123 1.399 . S
C4122 C4127 1.399 . S
C4123 C4122 1.399 . S
C4123 C4124 1.376 . S
C4124 H4111 0.930 . S
C4124 C4123 1.376 . S
C4124 C4125 1.388 . S
C4125 H4112 0.930 . S
C4125 C4124 1.388 . S
C4125 C4126 1.390 . S
C4126 C4125 1.390 . S
C4126 C4127 1.394 . S
C4126 C4132 1.465 . S
C4127 C4122 1.399 . S
C4127 C4126 1.394 . S
C4127 C4128 1.516 . S
C4128 C4127 1.516 . S
C4128 C4129 1.502 . S
C4128 C4130 1.561 . S
C4128 C4131 1.526 . S
C4129 H4113 0.959 . S
C4129 H4114 0.959 . S
C4129 H4115 0.961 . S
C4129 C4128 1.502 . S
C4130 H4116 0.960 . S
C4130 H4117 0.961 . S
C4130 H4118 0.959 . S
C4130 C4128 1.561 . S
C4131 C4128 1.526 . S
C4131 C4132 1.396 . S
C4131 C4136 1.390 . S
C4132 C4126 1.465 . S
C4132 C4131 1.396 . S
C4132 C4133 1.399 . S
C4133 H4119 0.929 . S
C4133 C4132 1.399 . S
C4133 C4134 1.385 . S
C4134 H4120 0.931 . S
C4134 C4133 1.385 . S
C4134 C4135 1.389 . S
C4135 C4134 1.389 . S
C4135 C4136 1.387 . S
C4136 H4121 0.930 . S
C4136 C4131 1.390 . S
C4136 C4135 1.387 . S
H4137 C4149 0.930 . S
H4138 C4151 0.930 . S
H4139 C4152 0.930 . S
H4140 C4156 0.959 . S
H4141 C4156 0.959 . S
H4142 C4156 0.961 . S
H4143 C4157 0.960 . S
H4144 C4157 0.961 . S
H4145 C4157 0.959 . S
H4146 C4160 0.929 . S
H4147 C4161 0.931 . S
H4148 C4163 0.930 . S
C4149 H4137 0.930 . S
C4149 C4150 1.399 . S
C4149 C4154 1.399 . S
C4150 C4149 1.399 . S
C4150 C4151 1.376 . S
C4151 H4138 0.930 . S
C4151 C4150 1.376 . S
C4151 C4152 1.388 . S
C4152 H4139 0.930 . S
C4152 C4151 1.388 . S
C4152 C4153 1.390 . S
C4153 C4152 1.390 . S
C4153 C4154 1.394 . S
C4153 C4159 1.465 . S
C4154 C4149 1.399 . S
C4154 C4153 1.394 . S
C4154 C4155 1.516 . S
C4155 C4154 1.516 . S
C4155 C4156 1.502 . S
C4155 C4157 1.561 1_554 S
C4155 C4158 1.526 . S
C4156 H4140 0.959 . S
C4156 H4141 0.959 . S
C4156 H4142 0.961 . S
C4156 C4155 1.502 . S
C4157 H4143 0.960 . S
C4157 H4144 0.961 . S
C4157 H4145 0.959 . S
C4157 C4155 1.561 1_556 S
C4158 C4155 1.526 . S
C4158 C4159 1.396 . S
C4158 C4163 1.390 . S
C4159 C4153 1.465 . S
C4159 C4158 1.396 . S
C4159 C4160 1.399 . S
C4160 H4146 0.929 . S
C4160 C4159 1.399 . S
C4160 C4161 1.385 . S
C4161 H4147 0.931 . S
C4161 C4160 1.385 . S
C4161 C4162 1.389 . S
C4162 C4161 1.389 . S
C4162 C4163 1.387 . S
C4163 H4148 0.930 . S
C4163 C4158 1.390 . S
C4163 C4162 1.387 . S
H4164 C4176 0.930 . S
H4165 C4178 0.930 . S
H4166 C4179 0.930 . S
H4167 C4183 0.959 . S
H4168 C4183 0.959 . S
H4169 C4183 0.961 . S
H4170 C4184 0.960 . S
H4171 C4184 0.961 . S
H4172 C4184 0.959 . S
H4173 C4187 0.929 . S
H4174 C4188 0.931 . S
H4175 C4190 0.930 . S
C4176 H4164 0.930 . S
C4176 C4177 1.399 . S
C4176 C4181 1.399 . S
C4177 C4176 1.399 . S
C4177 C4178 1.376 . S
C4178 H4165 0.930 . S
C4178 C4177 1.376 . S
C4178 C4179 1.388 . S
C4179 H4166 0.930 . S
C4179 C4178 1.388 . S
C4179 C4180 1.390 . S
C4180 C4179 1.390 . S
C4180 C4181 1.394 . S
C4180 C4186 1.465 . S
C4181 C4176 1.399 . S
C4181 C4180 1.394 . S
C4181 C4182 1.516 . S
C4182 C4181 1.516 . S
C4182 C4183 1.502 . S
C4182 C4184 1.561 . S
C4182 C4185 1.526 . S
C4183 H4167 0.959 . S
C4183 H4168 0.959 . S
C4183 H4169 0.961 . S
C4183 C4182 1.502 . S
C4184 H4170 0.960 . S
C4184 H4171 0.961 . S
C4184 H4172 0.959 . S
C4184 C4182 1.561 . S
C4185 C4182 1.526 . S
C4185 C4186 1.396 . S
C4185 C4190 1.390 . S
C4186 C4180 1.465 . S
C4186 C4185 1.396 . S
C4186 C4187 1.399 . S
C4187 H4173 0.929 . S
C4187 C4186 1.399 . S
C4187 C4188 1.385 . S
C4188 H4174 0.931 . S
C4188 C4187 1.385 . S
C4188 C4189 1.389 . S
C4189 C4188 1.389 . S
C4189 C4190 1.387 . S
C4190 H4175 0.930 . S
C4190 C4185 1.390 . S
C4190 C4189 1.387 . S
H4191 C4203 0.930 . S
H4192 C4205 0.930 . S
H4193 C4206 0.930 . S
H4194 C4210 0.959 1_554 S
H4195 C4210 0.959 . S
H4196 C4210 0.961 . S
H4197 C4211 0.960 . S
H4198 C4211 0.961 . S
H4199 C4211 0.959 . S
H4200 C4214 0.929 . S
H4201 C4215 0.931 . S
H4202 C4217 0.930 1_556 S
C4203 H4191 0.930 . S
C4203 C4204 1.399 . S
C4203 C4208 1.399 . S
C4204 C4203 1.399 . S
C4204 C4205 1.376 . S
C4205 H4192 0.930 . S
C4205 C4204 1.376 . S
C4205 C4206 1.388 . S
C4206 H4193 0.930 . S
C4206 C4205 1.388 . S
C4206 C4207 1.390 . S
C4207 C4206 1.390 . S
C4207 C4208 1.394 . S
C4207 C4213 1.465 . S
C4208 C4203 1.399 . S
C4208 C4207 1.394 . S
C4208 C4209 1.516 . S
C4209 C4208 1.516 . S
C4209 C4210 1.502 1_554 S
C4209 C4211 1.561 1_554 S
C4209 C4212 1.526 . S
C4210 H4194 0.959 1_556 S
C4210 H4195 0.959 . S
C4210 H4196 0.961 . S
C4210 C4209 1.502 1_556 S
C4211 H4197 0.960 . S
C4211 H4198 0.961 . S
C4211 H4199 0.959 . S
C4211 C4209 1.561 1_556 S
C4212 C4209 1.526 . S
C4212 C4213 1.396 . S
C4212 C4217 1.390 . S
C4213 C4207 1.465 . S
C4213 C4212 1.396 . S
C4213 C4214 1.399 . S
C4214 H4200 0.929 . S
C4214 C4213 1.399 . S
C4214 C4215 1.385 . S
C4215 H4201 0.931 . S
C4215 C4214 1.385 . S
C4215 C4216 1.389 . S
C4216 C4215 1.389 . S
C4216 C4217 1.387 . S
C4217 H4202 0.930 1_554 S
C4217 C4212 1.390 . S
C4217 C4216 1.387 . S
H4218 C4230 0.930 . S
H4219 C4232 0.930 . S
H4220 C4233 0.930 . S
H4221 C4237 0.959 . S
H4222 C4237 0.959 . S
H4223 C4237 0.961 . S
H4224 C4238 0.960 . S
H4225 C4238 0.961 . S
H4226 C4238 0.959 . S
H4227 C4241 0.929 . S
H4228 C4242 0.931 . S
H4229 C4244 0.930 . S
C4230 H4218 0.930 . S
C4230 C4231 1.399 . S
C4230 C4235 1.399 . S
C4231 C4230 1.399 . S
C4231 C4232 1.376 . S
C4232 H4219 0.930 . S
C4232 C4231 1.376 . S
C4232 C4233 1.388 . S
C4233 H4220 0.930 . S
C4233 C4232 1.388 . S
C4233 C4234 1.390 . S
C4234 C4233 1.390 . S
C4234 C4235 1.394 . S
C4234 C4240 1.465 . S
C4235 C4230 1.399 . S
C4235 C4234 1.394 . S
C4235 C4236 1.516 . S
C4236 C4235 1.516 . S
C4236 C4237 1.502 . S
C4236 C4238 1.561 . S
C4236 C4239 1.526 . S
C4237 H4221 0.959 . S
C4237 H4222 0.959 . S
C4237 H4223 0.961 . S
C4237 C4236 1.502 . S
C4238 H4224 0.960 . S
C4238 H4225 0.961 . S
C4238 H4226 0.959 . S
C4238 C4236 1.561 . S
C4239 C4236 1.526 . S
C4239 C4240 1.396 . S
C4239 C4244 1.390 . S
C4240 C4234 1.465 . S
C4240 C4239 1.396 . S
C4240 C4241 1.399 . S
C4241 H4227 0.929 . S
C4241 C4240 1.399 . S
C4241 C4242 1.385 . S
C4242 H4228 0.931 . S
C4242 C4241 1.385 . S
C4242 C4243 1.389 . S
C4243 C4242 1.389 . S
C4243 C4244 1.387 . S
C4244 H4229 0.930 . S
C4244 C4239 1.390 . S
C4244 C4243 1.387 . S
H4245 C4257 0.930 . S
H4246 C4259 0.930 . S
H4247 C4260 0.930 . S
H4248 C4264 0.959 . S
H4249 C4264 0.959 . S
H4250 C4264 0.961 . S
H4251 C4265 0.960 . S
H4252 C4265 0.961 . S
H4253 C4265 0.959 . S
H4254 C4268 0.929 . S
H4255 C4269 0.931 . S
H4256 C4271 0.930 . S
C4257 H4245 0.930 . S
C4257 C4258 1.399 . S
C4257 C4262 1.399 . S
C4258 C4257 1.399 . S
C4258 C4259 1.376 . S
C4259 H4246 0.930 . S
C4259 C4258 1.376 . S
C4259 C4260 1.388 . S
C4260 H4247 0.930 . S
C4260 C4259 1.388 . S
C4260 C4261 1.390 . S
C4261 C4260 1.390 . S
C4261 C4262 1.394 . S
C4261 C4267 1.465 . S
C4262 C4257 1.399 . S
C4262 C4261 1.394 . S
C4262 C4263 1.516 . S
C4263 C4262 1.516 . S
C4263 C4264 1.502 . S
C4263 C4265 1.561 . S
C4263 C4266 1.526 . S
C4264 H4248 0.959 . S
C4264 H4249 0.959 . S
C4264 H4250 0.961 . S
C4264 C4263 1.502 . S
C4265 H4251 0.960 . S
C4265 H4252 0.961 . S
C4265 H4253 0.959 . S
C4265 C4263 1.561 . S
C4266 C4263 1.526 . S
C4266 C4267 1.396 . S
C4266 C4271 1.390 . S
C4267 C4261 1.465 . S
C4267 C4266 1.396 . S
C4267 C4268 1.399 . S
C4268 H4254 0.929 . S
C4268 C4267 1.399 . S
C4268 C4269 1.385 . S
C4269 H4255 0.931 . S
C4269 C4268 1.385 . S
C4269 C4270 1.389 . S
C4270 C4269 1.389 . S
C4270 C4271 1.387 . S
C4271 H4256 0.930 . S
C4271 C4266 1.390 . S
C4271 C4270 1.387 . S
C1693 C105 2.167 . S
C1705 C392 2.151 . S
C1720 C65 1.887 . S
C1732 C494 1.872 . S
C1747 C73 1.854 . S
C1759 C560 1.883 . S
C1786 C646 1.347 . S
C1774 C92 1.500 . S
C1801 C17 1.545 . S
C1813 C730 1.451 . S
C1840 C812 1.845 . S
C1828 C37 1.835 . S
C1867 C914 1.883 . S
C1855 C49 1.769 . S
C1882 C8 2.101 . S
C1894 C980 2.080 . S
C1921 C410 1.714 . S
C1909 C231 1.729 . S
C1936 C241 0.953 . S
C1948 C478 0.942 . S
C1975 C578 1.180 . S
C1963 C273 1.179 . S
C2002 C644 1.636 . S
C1990 C171 1.625 1_556 S
C2017 C227 1.606 . S
C2029 C728 1.622 . S
C2056 C830 1.151 . S
C2044 C245 1.138 . S
C2083 C898 0.981 . S
C2071 C269 0.935 . S
C2110 C998 1.675 . S
C2098 C175 1.707 . S
C2137 C394 1.032 . S
C2125 C162 1.018 1_554 S
C2152 C289 1.702 . S
C2164 C1082 1.696 . S
C2191 C1150 1.377 . S
C2179 C330 1.378 . S
C2218 C1232 0.846 . S
C2206 C317 0.809 . S
C2233 C120 0.997 . S
C2245 C982 1.027 . S
C2260 C134 1.412 . S
C2272 C562 1.291 . S
C2287 C331 1.650 . S
C2299 C1334 1.624 . S
C2326 C1400 0.769 . S
C2314 C303 0.800 . S
C2353 C403 2.184 . S
C2341 C59 2.137 . S
C2380 C1407 1.925 . S
C2368 C107 1.931 . S
C2395 C91 1.928 . S
C2407 C571 1.931 . S
C2422 C78 1.529 . S
C2434 C1329 1.465 . S
C2461 C741 1.447 . S
C2449 C7 1.504 . S
C2476 C51 1.845 . S
C2488 C1159 1.887 . S
C2515 C903 1.923 1_556 S
C2503 C31 1.940 . S
C2542 C1495 2.115 . S
C2530 C22 2.118 . S
C2569 C399 1.738 . S
C2557 C143 1.754 . S
C2596 C1413 1.011 . S
C2584 C315 1.000 . S
C2611 C115 1.188 . S
C2623 C567 1.217 . S
C2638 C287 1.623 . S
C2650 C1327 1.677 . S
C2665 C147 1.653 . S
C2677 C739 1.653 . S
C2704 C1155 1.176 . S
C2692 C311 1.204 . S
C2719 C119 1.011 . S
C2731 C909 1.002 . S
C2746 C283 1.737 . S
C2758 C1491 1.733 . S
C2773 C190 1.014 . S
C2785 C405 0.981 . S
C2800 C177 1.708 . S
C2812 C1071 1.697 . S
C2827 C260 1.414 . S
C2839 C825 1.349 . S
C2854 C247 0.862 . S
C2866 C1243 0.871 . S
C2893 C1497 0.927 . S
C2881 C274 0.998 . S
C2908 C218 1.427 . S
C2920 C573 1.364 . S
C2947 C651 1.682 . S
C2935 C261 1.697 . S
C2974 C487 0.808 . S
C2962 C205 0.802 . S
C2989 C77 2.159 . S
C3001 C1568 2.150 . S
C3028 C1418 1.902 . S
C3016 C93 1.906 . S
C3043 C101 1.885 . S
C3055 C1652 1.883 . S
C3070 C64 1.500 1_655 S
C3082 C1318 1.347 . S
C3097 C45 1.541 . S
C3109 C1066 1.416 . S
C3136 C1148 1.844 . S
C3124 C9 1.829 . S
C3163 C1250 1.908 . S
C3151 C21 1.833 . S
C3190 C1484 2.080 . S
C3178 C36 2.100 . S
C3217 C1586 1.714 . S
C3205 C259 1.729 . S
C3232 C185 0.943 . S
C3244 C1402 0.981 . S
C3271 C1670 1.190 . S
C3259 C203 1.176 . S
C3298 C1316 1.633 . S
C3286 C213 1.618 . S
C3325 C1064 1.622 . S
C3313 C255 1.606 . S
C3340 C189 1.142 . S
C3352 C1166 1.192 . S
C3379 C1234 0.978 . S
C3367 C199 0.935 . S
C3394 C217 1.685 . S
C3406 C1502 1.651 . S
C3433 C1570 0.966 . S
C3421 C316 1.039 . S
C3448 C135 1.685 . S
C3460 C746 1.673 . S
C3487 C814 1.372 . S
C3475 C148 1.368 1_565 S
C3514 C896 0.828 . S
C3502 C163 0.859 . S
C3541 C1486 1.026 . S
C3529 C302 0.996 . S
C3556 C288 1.397 . S
C3568 C1654 1.384 . S
C3595 C662 1.662 . S
C3583 C149 1.661 . S
C3622 C476 0.782 . S
C3610 C121 0.803 . S
C3637 C87 2.138 . S
C3649 C1579 2.182 . S
C3676 C483 1.922 . S
C3664 C79 1.924 . S
C3691 C63 1.931 . S
C3703 C1663 1.930 . S
C3718 C106 1.531 . S
C3730 C657 1.459 . S
C3745 C35 1.557 . S
C3757 C1077 1.511 . S
C3784 C823 1.895 . S
C3772 C23 1.878 . S
C3799 C3 1.944 . S
C3811 C1239 1.926 . S
C3826 C50 2.087 . S
C3838 C991 2.128 . S
C3865 C1575 1.742 . S
C3853 C325 1.753 . S
C3880 C161 0.977 . S
C3892 C489 0.899 . S
C3919 C1659 1.212 1_655 S
C3907 C297 1.185 . S
C3934 C133 1.652 . S
C3946 C655 1.665 . S
C3961 C329 1.655 . S
C3973 C1075 1.655 . S
C4000 C819 1.168 . S
C3988 C157 1.223 . S
C4015 C301 1.012 . S
C4027 C1245 0.997 . S
C4054 C987 1.705 . S
C4042 C129 1.755 . S
C4081 C1581 1.068 . S
C4069 C246 1.070 . S
C4108 C735 1.703 1_565 S
C4096 C219 1.709 . S
C4123 C232 1.361 . S
C4135 C1161 1.287 . S
C4162 C907 0.883 . S
C4150 C191 0.914 . S
C4177 C204 0.975 . S
C4189 C993 0.952 . S
C4204 C176 1.428 . S
C4216 C1665 1.385 . S
C4243 C1323 1.667 . S
C4231 C233 1.674 . S
C4270 C1411 0.826 . S
C4258 C275 0.848 . S
