# Generated by pormake.
# Topology nia, (6,6)-cn, num edge types: 1
# Building blocks:
#     Node 0, Type 0, BuildingBlock: BETDIP_clean_sbu_0, # of connection points: 6
#     Node 1, Type 0, BuildingBlock: BETDIP_clean_sbu_0, # of connection points: 6
#     Node 2, Type 1, BuildingBlock: MIDCAF_clean_sbu_0, # of connection points: 6
#     Node 3, Type 1, BuildingBlock: MIDCAF_clean_sbu_0, # of connection points: 6
#     Edge 4, Type (0, 1), BuildingBlock: MIFKUJ_clean_linker_0, # of connection points: 2
#     Edge 5, Type (0, 1), BuildingBlock: MIFKUJ_clean_linker_0, # of connection points: 2
#     Edge 6, Type (0, 1), BuildingBlock: MIFKUJ_clean_linker_0, # of connection points: 2
#     Edge 7, Type (0, 1), BuildingBlock: MIFKUJ_clean_linker_0, # of connection points: 2
#     Edge 8, Type (0, 1), BuildingBlock: MIFKUJ_clean_linker_0, # of connection points: 2
#     Edge 9, Type (0, 1), BuildingBlock: MIFKUJ_clean_linker_0, # of connection points: 2
#     Edge 10, Type (0, 1), BuildingBlock: MIFKUJ_clean_linker_0, # of connection points: 2
#     Edge 11, Type (0, 1), BuildingBlock: MIFKUJ_clean_linker_0, # of connection points: 2
#     Edge 12, Type (0, 1), BuildingBlock: MIFKUJ_clean_linker_0, # of connection points: 2
#     Edge 13, Type (0, 1), BuildingBlock: MIFKUJ_clean_linker_0, # of connection points: 2
#     Edge 14, Type (0, 1), BuildingBlock: MIFKUJ_clean_linker_0, # of connection points: 2
#     Edge 15, Type (0, 1), BuildingBlock: MIFKUJ_clean_linker_0, # of connection points: 2
# Relax obj value: 0.278
# Max RMSD: 0.262
# Mean RMSD: 0.234
data_MOF--net-nia--node1-BETDIP_clean_sbu_0--node2-MIDCAF_clean_sbu_0--edge1-MIFKUJ_clean_linker_0
_symmetry_space_group_name_H-M    P1
_symmetry_Int_Tables_number       1
_symmetry_cell_setting            triclinic
loop_
_symmetry_equiv_pos_as_xyz
'x, y, z'
_cell_length_a     34.870349
_cell_length_b     32.028681
_cell_length_c     43.543875
_cell_angle_alpha  99.528893
_cell_angle_beta   75.129974
_cell_angle_gamma 128.21997
loop_
_atom_site_label
_atom_site_type_symbol
_atom_site_fract_x
_atom_site_fract_y
_atom_site_fract_z
_atom_type_partial_charge
Tb0 Tb 0.99432 0.03608 1.0 0.0
Tb1 Tb 0.04079 0.98882 0.02403 0.0
C2 C 0.93437 0.05107 0.9928 0.0
C3 C 0.93031 0.08549 0.97742 0.0
C4 C 0.8877 0.0834 0.98809 0.0
C5 C 0.87981 0.11137 0.97239 0.0
C6 C 0.91453 0.14235 0.94561 0.0
C7 C 0.95792 0.14528 0.93534 0.0
C8 C 0.96574 0.11704 0.95113 0.0
C9 C 0.08616 0.07247 0.96636 0.0
C10 C 0.05757 0.0949 0.05422 0.0
C11 C 0.0954 0.96614 0.03063 0.0
C12 C 0.10066 0.94478 0.05546 0.0
C13 C 0.14731 0.95806 0.05513 0.0
C14 C 0.15262 0.93507 0.07678 0.0
C15 C 0.11125 0.89803 0.09918 0.0
C16 C 0.06474 0.8861 0.10012 0.0
C17 C 0.0595 0.90929 0.07845 0.0
C18 C 0.9499 0.95378 0.05852 0.0
C19 C 0.97736 0.93116 0.97154 0.0
O20 O 0.95799 0.07128 0.01655 0.0
O21 O 0.94417 0.021 0.97397 0.0
O22 O 0.05911 0.03984 0.9887 0.0
O23 O 0.0603 0.08676 0.96186 0.0
O24 O 0.02464 0.08798 0.03991 0.0
O25 O 0.07245 0.06447 0.04919 0.0
O26 O 0.05476 0.93311 0.01895 0.0
O27 O 0.10734 0.01411 0.03543 0.0
O28 O 0.9755 0.98424 0.03506 0.0
O29 O 0.97646 0.94071 0.06334 0.0
O30 O 0.01825 0.94657 0.97997 0.0
O31 O 0.95578 0.95446 0.98279 0.0
H32 H 0.8597 0.05884 0.00815 0.0
H33 H 0.84556 0.10722 0.98069 0.0
H34 H 0.98569 0.16914 0.91504 0.0
H35 H 0.99888 0.11905 0.94248 0.0
H36 H 0.17956 0.98556 0.03769 0.0
H37 H 0.18918 0.94605 0.07578 0.0
H38 H 0.03207 0.85757 0.11691 0.0
H39 H 0.02309 0.89854 0.07918 0.0
Tb40 Tb 0.06419 0.05362 0.52606 0.0
Tb41 Tb 0.99145 0.99381 0.48647 0.0
C42 C 0.10369 0.09008 0.57401 0.0
C43 C 0.12863 0.08275 0.5926 0.0
C44 C 0.1141 0.03223 0.59785 0.0
C45 C 0.13662 0.02679 0.61768 0.0
C46 C 0.17358 0.07175 0.63252 0.0
C47 C 0.18867 0.1222 0.62643 0.0
C48 C 0.16627 0.12756 0.60673 0.0
C49 C 0.08822 0.10647 0.47522 0.0
C50 C 0.08617 0.99366 0.47139 0.0
C51 C 0.94987 0.95363 0.43932 0.0
C52 C 0.91484 0.95041 0.42439 0.0
C53 C 0.92705 0.99518 0.4109 0.0
C54 C 0.89509 0.98975 0.39406 0.0
C55 C 0.85057 0.93956 0.39045 0.0
C56 C 0.83798 0.8952 0.40467 0.0
C57 C 0.86998 0.90056 0.4213 0.0
C58 C 0.96844 0.94081 0.53722 0.0
C59 C 0.9718 0.05884 0.53915 0.0
O60 O 0.05626 0.05171 0.57509 0.0
O61 O 0.12794 0.10967 0.54553 0.0
O62 O 0.04537 0.07724 0.49235 0.0
O63 O 0.11974 0.10933 0.48767 0.0
O64 O 0.09294 0.01101 0.50057 0.0
O65 O 0.05168 0.9891 0.46057 0.0
O66 O 0.99349 0.99964 0.43892 0.0
O67 O 0.9317 0.92909 0.46629 0.0
O68 O 0.01101 0.96994 0.5197 0.0
O69 O 0.93706 0.93972 0.52577 0.0
O70 O 0.95941 0.03311 0.51224 0.0
O71 O 0.00969 0.06893 0.54899 0.0
H72 H 0.08505 0.9971 0.58702 0.0
H73 H 0.12463 0.98755 0.62183 0.0
H74 H 0.21812 0.15773 0.63678 0.0
H75 H 0.17802 0.16681 0.6028 0.0
H76 H 0.96163 0.03416 0.41277 0.0
H77 H 0.90573 0.02457 0.3833 0.0
H78 H 0.80332 0.85621 0.40297 0.0
H79 H 0.85997 0.86549 0.43136 0.0
Zn80 Zn 0.36634 0.69123 0.21585 0.0
Zn81 Zn 0.29077 0.64991 0.35727 0.0
Zn82 Zn 0.3393 0.67385 0.27422 0.0
C83 C 0.3875 0.70451 0.33809 0.0
C84 C 0.26491 0.55763 0.31208 0.0
O85 O 0.30274 0.70503 0.2621 0.0
O86 O 0.3259 0.71113 0.20985 0.0
C87 C 0.45527 0.74882 0.23266 0.0
O88 O 0.36894 0.69271 0.31374 0.0
O89 O 0.35922 0.68718 0.36499 0.0
O90 O 0.25872 0.57651 0.33923 0.0
O91 O 0.29296 0.58739 0.28719 0.0
O92 O 0.43845 0.74684 0.20964 0.0
O93 O 0.42431 0.72214 0.25799 0.0
O94 O 0.30378 0.59474 0.25343 0.0
O95 O 0.34216 0.61746 0.20346 0.0
C96 C 0.31248 0.58188 0.22432 0.0
O97 O 0.30568 0.7163 0.29485 0.0
O98 O 0.27871 0.69872 0.34682 0.0
C99 C 0.30082 0.71488 0.23519 0.0
C100 C 0.28626 0.72286 0.32313 0.0
Zn101 Zn 0.68889 0.37675 0.84506 0.0
Zn102 Zn 0.70344 0.35398 0.68739 0.0
Zn103 Zn 0.70432 0.36534 0.74686 0.0
C104 C 0.74919 0.46201 0.69854 0.0
C105 C 0.60454 0.28832 0.72574 0.0
O106 O 0.74237 0.33673 0.75731 0.0
O107 O 0.71815 0.35854 0.80319 0.0
C108 C 0.74543 0.45276 0.78657 0.0
O109 O 0.74545 0.44698 0.72563 0.0
O110 O 0.73031 0.42784 0.677 0.0
O111 O 0.62937 0.29602 0.69763 0.0
O112 O 0.62621 0.31468 0.74912 0.0
O113 O 0.71948 0.40963 0.80144 0.0
O114 O 0.74903 0.44883 0.75661 0.0
O115 O 0.6271 0.32587 0.78402 0.0
O116 O 0.6177 0.3313 0.83822 0.0
C117 C 0.59961 0.31508 0.81288 0.0
O118 O 0.73922 0.32453 0.7254 0.0
O119 O 0.74806 0.33177 0.67399 0.0
C120 C 0.74046 0.34003 0.78716 0.0
C121 C 0.75487 0.31753 0.6962 0.0
H122 H 0.06839 0.87314 0.16249 0.0
H123 H 0.07896 0.82917 0.19708 0.0
H124 H 0.17732 0.81816 0.11877 0.0
H125 H 0.1655 0.85993 0.08401 0.0
H126 H 0.11571 0.72799 0.15161 0.0
H127 H 0.22398 0.92023 0.17844 0.0
H128 H 0.23694 1.00426 0.19786 0.0
H129 H 0.1293 0.92712 0.28336 0.0
H130 H 0.11521 0.84254 0.26411 0.0
H131 H 0.31962 0.77696 0.19007 0.0
H132 H 0.26568 0.79542 0.18054 0.0
H133 H 0.15828 0.70746 0.26417 0.0
H134 H 0.21233 0.68792 0.27385 0.0
H135 H 0.19783 0.82929 0.24294 0.0
H136 H 0.10681 0.64151 0.22052 0.0
H137 H 0.10055 0.56119 0.20048 0.0
H138 H 0.17395 0.62838 0.10716 0.0
H139 H 0.18149 0.70952 0.12679 0.0
C140 C 0.09182 0.86079 0.15258 0.0
C141 C 0.11656 0.87066 0.12051 0.0
C142 C 0.09809 0.83598 0.17245 0.0
C143 C 0.1293 0.82074 0.16063 0.0
C144 C 0.15303 0.8295 0.12849 0.0
C145 C 0.14673 0.85408 0.10869 0.0
C146 C 0.13943 0.7975 0.18146 0.0
C147 C 0.13283 0.74968 0.17193 0.0
C148 C 0.16044 0.82475 0.20859 0.0
C149 C 0.1686 0.8753 0.21991 0.0
C150 C 0.20301 0.92128 0.20132 0.0
C151 C 0.2105 0.96894 0.21227 0.0
C152 C 0.18397 0.97104 0.24183 0.0
C153 C 0.14986 0.92547 0.26049 0.0
C154 C 0.14216 0.87771 0.2496 0.0
C155 C 0.28475 0.76191 0.20672 0.0
C156 C 0.2701 0.73089 0.23268 0.0
C157 C 0.2541 0.77268 0.20127 0.0
C158 C 0.20809 0.75276 0.22162 0.0
C159 C 0.19387 0.72349 0.24838 0.0
C160 C 0.22469 0.71236 0.25384 0.0
C161 C 0.1748 0.76052 0.21267 0.0
C162 C 0.17803 0.80601 0.22383 0.0
C163 C 0.15005 0.73074 0.18731 0.0
C164 C 0.145 0.68174 0.1752 0.0
C165 C 0.122 0.63934 0.19579 0.0
C166 C 0.11815 0.59363 0.1845 0.0
C167 C 0.13691 0.58972 0.15258 0.0
C168 C 0.15945 0.63146 0.13188 0.0
C169 C 0.16346 0.6773 0.14307 0.0
H170 H 0.13392 0.55432 0.14389 0.0
H171 H 0.18984 0.00797 0.25027 0.0
H172 H 0.19351 0.12015 0.68983 0.0
H173 H 0.25355 0.13335 0.71684 0.0
H174 H 0.26933 0.02693 0.65017 0.0
H175 H 0.21008 0.01456 0.62229 0.0
H176 H 0.28062 0.04315 0.72813 0.0
H177 H 0.34686 0.11824 0.62033 0.0
H178 H 0.34663 0.16057 0.57797 0.0
H179 H 0.37004 0.28888 0.64146 0.0
H180 H 0.36938 0.24659 0.68438 0.0
H181 H 0.54883 0.18276 0.71292 0.0
H182 H 0.46038 0.12474 0.70955 0.0
H183 H 0.45155 0.25344 0.74394 0.0
H184 H 0.54004 0.31152 0.7464 0.0
H185 H 0.43299 0.21631 0.68296 0.0
H186 H 0.39076 0.14804 0.78559 0.0
H187 H 0.38685 0.10241 0.82783 0.0
H188 H 0.32138 0.95795 0.77289 0.0
H189 H 0.32457 1.00264 0.73033 0.0
C190 C 0.2087 0.09838 0.68144 0.0
C191 C 0.19829 0.06749 0.6535 0.0
C192 C 0.24239 0.10537 0.69716 0.0
C193 C 0.26576 0.08125 0.68533 0.0
C194 C 0.25114 0.04542 0.6597 0.0
C195 C 0.21754 0.03863 0.64374 0.0
C196 C 0.31313 0.10419 0.69438 0.0
C197 C 0.31442 0.08044 0.718 0.0
C198 C 0.35648 0.15318 0.68135 0.0
C199 C 0.35733 0.17893 0.65561 0.0
C200 C 0.35139 0.15518 0.62532 0.0
C201 C 0.35151 0.17918 0.60121 0.0
C202 C 0.35811 0.22728 0.60706 0.0
C203 C 0.36475 0.25153 0.637 0.0
C204 C 0.36448 0.22755 0.66122 0.0
C205 C 0.52727 0.19777 0.72077 0.0
C206 C 0.55031 0.25092 0.73059 0.0
C207 C 0.47693 0.16469 0.719 0.0
C208 C 0.44957 0.18483 0.72671 0.0
C209 C 0.47206 0.23713 0.73826 0.0
C210 C 0.52228 0.27009 0.73997 0.0
C211 C 0.40129 0.15562 0.71703 0.0
C212 C 0.39975 0.17857 0.69307 0.0
C213 C 0.35846 0.10542 0.7294 0.0
C214 C 0.35803 0.07895 0.75464 0.0
C215 C 0.3757 0.10668 0.7824 0.0
C216 C 0.37357 0.08093 0.80645 0.0
C217 C 0.35405 0.02739 0.80302 0.0
C218 C 0.33651 0.99945 0.77553 0.0
C219 C 0.33832 0.02497 0.75148 0.0
H220 H 0.35244 0.00753 0.82167 0.0
H221 H 0.35825 0.24585 0.58836 0.0
H222 H 0.06342 0.18433 0.0575 0.0
H223 H 0.10352 0.26043 0.09312 0.0
H224 H 0.13885 0.18143 0.13875 0.0
H225 H 0.10058 0.10604 0.10224 0.0
H226 H 0.09036 0.27893 0.1525 0.0
H227 H 0.24986 0.27081 0.16091 0.0
H228 H 0.2994 0.24247 0.12809 0.0
H229 H 0.26987 0.26121 0.04348 0.0
H230 H 0.22082 0.29036 0.07574 0.0
H231 H 0.22431 0.49375 0.25386 0.0
H232 H 0.17947 0.40232 0.23387 0.0
H233 H 0.29506 0.4546 0.14936 0.0
H234 H 0.34208 0.54428 0.17082 0.0
H235 H 0.26404 0.36409 0.1608 0.0
H236 H 0.18499 0.44322 0.15725 0.0
H237 H 0.14361 0.4853 0.17924 0.0
H238 H 0.02457 0.34639 0.23483 0.0
H239 H 0.06545 0.30365 0.21317 0.0
C240 C 0.07958 0.18309 0.07519 0.0
C241 C 0.07939 0.13955 0.07688 0.0
C242 C 0.10228 0.2265 0.09565 0.0
C243 C 0.12467 0.2269 0.11838 0.0
C244 C 0.1227 0.18246 0.12096 0.0
C245 C 0.1008 0.13941 0.10011 0.0
C246 C 0.1519 0.27483 0.13835 0.0
C247 C 0.12827 0.29745 0.15447 0.0
C248 C 0.2017 0.29962 0.14036 0.0
C249 C 0.23102 0.28192 0.12081 0.0
C250 C 0.25397 0.26887 0.13531 0.0
C251 C 0.282 0.25272 0.11679 0.0
C252 C 0.28757 0.24979 0.08373 0.0
C253 C 0.26531 0.26322 0.06909 0.0
C254 C 0.23734 0.27948 0.08749 0.0
C255 C 0.24124 0.4851 0.23187 0.0
C256 C 0.28705 0.52592 0.21423 0.0
C257 C 0.21509 0.43304 0.22008 0.0
C258 C 0.23344 0.42164 0.18983 0.0
C259 C 0.28009 0.46217 0.1728 0.0
C260 C 0.30677 0.51365 0.18496 0.0
C261 C 0.20302 0.3691 0.17436 0.0
C262 C 0.22587 0.34522 0.15928 0.0
C263 C 0.15367 0.3452 0.17157 0.0
C264 C 0.12879 0.37068 0.18419 0.0
C265 C 0.1502 0.42184 0.17437 0.0
C266 C 0.12679 0.44578 0.18669 0.0
C267 C 0.08166 0.41869 0.20858 0.0
C268 C 0.05968 0.36747 0.21802 0.0
C269 C 0.08295 0.34339 0.20575 0.0
H270 H 0.0636 0.43729 0.21811 0.0
H271 H 0.30927 0.23727 0.06945 0.0
H272 H 0.01574 0.16185 0.55608 0.0
H273 H 0.97665 0.20146 0.58765 0.0
H274 H 0.83326 0.04688 0.59731 0.0
H275 H 0.87239 0.00824 0.56321 0.0
H276 H 0.81631 0.10895 0.59294 0.0
H277 H 0.90785 0.11725 0.65988 0.0
H278 H 0.97937 0.13555 0.67663 0.0
H279 H 0.06028 0.30273 0.66376 0.0
H280 H 0.98953 0.28541 0.64646 0.0
H281 H 0.7287 0.22866 0.72196 0.0
H282 H 0.76357 0.17961 0.70154 0.0
H283 H 0.87275 0.30061 0.63125 0.0
H284 H 0.837 0.34842 0.65065 0.0
H285 H 0.8987 0.24609 0.67456 0.0
H286 H 0.80023 0.22129 0.5975 0.0
H287 H 0.72076 0.19461 0.58836 0.0
H288 H 0.643 0.04415 0.63223 0.0
H289 H 0.72203 0.07043 0.64206 0.0
C290 C 0.97581 0.13652 0.56482 0.0
C291 C 0.947 0.08211 0.55733 0.0
C292 C 0.95344 0.15901 0.58328 0.0
C293 C 0.90194 0.12716 0.59603 0.0
C294 C 0.87302 0.0726 0.58808 0.0
C295 C 0.89529 0.05041 0.5686 0.0
C296 C 0.8785 0.15128 0.6168 0.0
C297 C 0.83426 0.13821 0.61107 0.0
C298 C 0.90079 0.18918 0.64109 0.0
C299 C 0.94346 0.19995 0.65163 0.0
C300 C 0.941 0.1579 0.66043 0.0
C301 C 0.98141 0.1681 0.67004 0.0
C302 C 0.02437 0.22025 0.6712 0.0
C303 C 0.02698 0.26234 0.66283 0.0
C304 C 0.9867 0.25236 0.65315 0.0
C305 C 0.76071 0.24513 0.70254 0.0
C306 C 0.78022 0.29226 0.68784 0.0
C307 C 0.7805 0.21713 0.6909 0.0
C308 C 0.82068 0.23655 0.66487 0.0
C309 C 0.84184 0.28507 0.65138 0.0
C310 C 0.82135 0.31226 0.66244 0.0
C311 C 0.83826 0.20459 0.64969 0.0
C312 C 0.88104 0.21621 0.6566 0.0
C313 C 0.81381 0.16404 0.6274 0.0
C314 C 0.76679 0.14799 0.62078 0.0
C315 C 0.7661 0.18271 0.6054 0.0
C316 C 0.72118 0.16764 0.60006 0.0
C317 C 0.67683 0.11777 0.60979 0.0
C318 C 0.67735 0.08279 0.62476 0.0
C319 C 0.72217 0.09774 0.63021 0.0
H320 H 0.64208 0.10618 0.60565 0.0
H321 H 0.05562 0.22807 0.67863 0.0
H322 H 0.89274 0.87784 0.10371 0.0
H323 H 0.81244 0.84802 0.13768 0.0
H324 H 0.8143 0.96009 0.09326 0.0
H325 H 0.89513 0.98986 0.0587 0.0
H326 H 0.78412 0.95766 0.16094 0.0
H327 H 0.74132 0.83523 0.07364 0.0
H328 H 0.74549 0.77156 0.03533 0.0
H329 H 0.69515 0.66913 0.11184 0.0
H330 H 0.69154 0.73271 0.1507 0.0
H331 H 0.52547 0.84461 0.20454 0.0
H332 H 0.61239 0.88361 0.18094 0.0
H333 H 0.5981 0.7597 0.22168 0.0
H334 H 0.51007 0.72015 0.24553 0.0
H335 H 0.63716 0.7687 0.15843 0.0
H336 H 0.6668 0.88756 0.24453 0.0
H337 H 0.6659 0.95312 0.28251 0.0
H338 H 0.74151 0.06578 0.2072 0.0
H339 H 0.74218 1.00036 0.16878 0.0
C340 C 0.87609 0.89615 0.10101 0.0
C341 C 0.90036 0.93612 0.07829 0.0
C342 C 0.83001 0.87896 0.12053 0.0
C343 C 0.80682 0.90145 0.11812 0.0
C344 C 0.83127 0.94202 0.09571 0.0
C345 C 0.87737 0.95887 0.07579 0.0
C346 C 0.75678 0.88158 0.13865 0.0
C347 C 0.75164 0.91663 0.16001 0.0
C348 C 0.71477 0.82749 0.13839 0.0
C349 C 0.71665 0.78901 0.11512 0.0
C350 C 0.73156 0.79936 0.08233 0.0
C351 C 0.73377 0.76326 0.06051 0.0
C352 C 0.72071 0.7164 0.07116 0.0
C353 C 0.70533 0.7055 0.10364 0.0
C354 C 0.70318 0.74155 0.12558 0.0
C355 C 0.54116 0.82652 0.20945 0.0
C356 C 0.51063 0.77939 0.22728 0.0
C357 C 0.5911 0.84887 0.19573 0.0
C358 C 0.61236 0.82476 0.19918 0.0
C359 C 0.58278 0.77914 0.21841 0.0
C360 C 0.53256 0.7569 0.2325 0.0
C361 C 0.66375 0.84499 0.18061 0.0
C362 C 0.66933 0.80989 0.15953 0.0
C363 C 0.70596 0.89933 0.18095 0.0
C364 C 0.70428 0.93858 0.20375 0.0
C365 C 0.68284 0.92605 0.23605 0.0
C366 C 0.68244 0.96328 0.25768 0.0
C367 C 0.70362 0.01364 0.24728 0.0
C368 C 0.72512 0.02673 0.21524 0.0
C369 C 0.72553 0.98949 0.19354 0.0
H370 H 0.70339 0.04253 0.26404 0.0
H371 H 0.72237 0.68846 0.05425 0.0
H372 H 0.87714 0.87471 0.57451 0.0
H373 H 0.84765 0.80159 0.60743 0.0
H374 H 0.99361 0.83877 0.58262 0.0
H375 H 0.02338 0.91243 0.54944 0.0
H376 H 0.92221 0.73304 0.57709 0.0
H377 H 0.95061 0.86331 0.65724 0.0
H378 H 0.94647 0.93306 0.6875 0.0
H379 H 0.78722 0.82116 0.71279 0.0
H380 H 0.7903 0.75086 0.68223 0.0
H381 H 0.84966 0.54058 0.68663 0.0
H382 H 0.89381 0.62902 0.66451 0.0
H383 H 0.75318 0.59898 0.67118 0.0
H384 H 0.70917 0.5102 0.69243 0.0
H385 H 0.82954 0.70579 0.68853 0.0
H386 H 0.80297 0.57863 0.60376 0.0
H387 H 0.80841 0.50973 0.5734 0.0
H388 H 0.96809 0.61861 0.55761 0.0
H389 H 0.96354 0.68794 0.58838 0.0
C390 C 0.90318 0.86775 0.5763 0.0
C391 C 0.95263 0.89948 0.5593 0.0
C392 C 0.88628 0.8259 0.59529 0.0
C393 C 0.91831 0.81446 0.59785 0.0
C394 C 0.96803 0.84658 0.58116 0.0
C395 C 0.98512 0.88888 0.56229 0.0
C396 C 0.89892 0.76761 0.61681 0.0
C397 C 0.90298 0.7278 0.60168 0.0
C398 C 0.87283 0.75977 0.64882 0.0
C399 C 0.87066 0.8019 0.66716 0.0
C400 C 0.91465 0.85366 0.669 0.0
C401 C 0.91251 0.89329 0.68626 0.0
C402 C 0.8666 0.88158 0.70199 0.0
C403 C 0.82275 0.83018 0.70055 0.0
C404 C 0.82468 0.79041 0.68328 0.0
C405 C 0.82835 0.55349 0.68407 0.0
C406 C 0.77603 0.51881 0.69155 0.0
C407 C 0.85355 0.60386 0.67122 0.0
C408 C 0.82689 0.62074 0.66589 0.0
C409 C 0.77468 0.58711 0.67505 0.0
C410 C 0.74952 0.53642 0.68728 0.0
C411 C 0.85282 0.67143 0.64874 0.0
C412 C 0.8496 0.71164 0.66412 0.0
C413 C 0.88007 0.6799 0.61707 0.0
C414 C 0.8829 0.63821 0.59877 0.0
C415 C 0.83923 0.58769 0.59414 0.0
C416 C 0.84215 0.54859 0.57679 0.0
C417 C 0.88857 0.55971 0.56369 0.0
C418 C 0.93216 0.61 0.56785 0.0
C419 C 0.92943 0.64921 0.58525 0.0
H420 H 0.89076 0.52942 0.55022 0.0
H421 H 0.86502 0.91231 0.71536 0.0
H422 H 0.14766 0.97755 0.48703 0.0
H423 H 0.19255 0.94621 0.452 0.0
H424 H 0.13816 0.94399 0.37275 0.0
H425 H 0.0923 0.97377 0.40768 0.0
H426 H 0.12569 0.85665 0.37234 0.0
H427 H 0.26348 0.03641 0.37842 0.0
H428 H 0.3195 0.12279 0.40355 0.0
H429 H 0.35801 0.05235 0.45326 0.0
H430 H 0.30163 0.96529 0.42879 0.0
H431 H 0.30695 0.79819 0.28406 0.0
H432 H 0.2816 0.85696 0.29803 0.0
H433 H 0.21712 0.79578 0.39327 0.0
H434 H 0.23747 0.73455 0.3792 0.0
H435 H 0.29914 0.92813 0.37159 0.0
H436 H 0.13446 0.74395 0.37514 0.0
H437 H 0.07665 0.6602 0.34857 0.0
H438 H 0.09163 0.74799 0.27604 0.0
H439 H 0.15149 0.83247 0.30158 0.0
C440 C 0.14563 0.9708 0.4621 0.0
C441 C 0.11609 0.9778 0.45025 0.0
C442 C 0.17163 0.95325 0.44198 0.0
C443 C 0.16926 0.94318 0.40953 0.0
C444 C 0.14063 0.95135 0.39762 0.0
C445 C 0.11433 0.96836 0.41771 0.0
C446 C 0.19342 0.92028 0.38864 0.0
C447 C 0.16403 0.87323 0.3717 0.0
C448 C 0.24363 0.94181 0.38727 0.0
C449 C 0.27804 0.99417 0.40188 0.0
C450 C 0.28365 0.03922 0.39486 0.0
C451 C 0.31551 0.08834 0.40898 0.0
C452 C 0.34224 0.09303 0.43003 0.0
C453 C 0.33727 0.04864 0.43694 0.0
C454 C 0.30542 0.9994 0.42291 0.0
C455 C 0.28581 0.79596 0.30757 0.0
C456 C 0.27257 0.75979 0.32994 0.0
C457 C 0.2722 0.83022 0.31568 0.0
C458 C 0.24696 0.83004 0.34662 0.0
C459 C 0.23596 0.79596 0.36919 0.0
C460 C 0.24775 0.76082 0.36091 0.0
C461 C 0.23077 0.86426 0.35646 0.0
C462 C 0.26146 0.91308 0.37151 0.0
C463 C 0.18204 0.84498 0.35579 0.0
C464 C 0.14823 0.79437 0.33978 0.0
C465 C 0.12645 0.74541 0.35309 0.0
C466 C 0.09316 0.69783 0.33831 0.0
C467 C 0.08061 0.69879 0.31056 0.0
C468 C 0.10161 0.74736 0.29743 0.0
C469 C 0.13543 0.79504 0.31192 0.0
H470 H 0.05464 0.66193 0.29923 0.0
H471 H 0.36686 0.13109 0.44095 0.0
H472 H 0.14229 0.1434 0.91802 0.0
H473 H 0.22614 0.17827 0.88829 0.0
H474 H 0.23058 0.0821 0.94378 0.0
H475 H 0.14618 0.0472 0.97382 0.0
H476 H 0.31607 0.17638 0.93809 0.0
H477 H 0.21914 0.05422 0.86386 0.0
H478 H 0.1583 0.0077 0.82866 0.0
H479 H 0.23715 0.15192 0.77738 0.0
H480 H 0.29803 0.19961 0.81261 0.0
H481 H 0.53373 0.21881 0.8408 0.0
H482 H 0.44525 0.17433 0.86372 0.0
H483 H 0.45178 0.29359 0.82389 0.0
H484 H 0.54132 0.33953 0.80203 0.0
H485 H 0.36118 0.188 0.82058 0.0
H486 H 0.45815 0.30648 0.89753 0.0
H487 H 0.52199 0.34588 0.92987 0.0
H488 H 0.44253 0.195 0.97367 0.0
H489 H 0.37858 0.15445 0.94116 0.0
C490 C 0.16098 0.12945 0.92389 0.0
C491 C 0.13738 0.09253 0.94846 0.0
C492 C 0.20905 0.14923 0.90662 0.0
C493 C 0.23515 0.13261 0.91324 0.0
C494 C 0.21163 0.09575 0.93795 0.0
C495 C 0.16326 0.07573 0.95521 0.0
C496 C 0.28743 0.15539 0.89524 0.0
C497 C 0.32542 0.17751 0.91234 0.0
C498 C 0.30079 0.15847 0.8615 0.0
C499 C 0.26277 0.13073 0.84126 0.0
C500 C 0.22308 0.07628 0.84543 0.0
C501 C 0.1887 0.04961 0.82535 0.0
C502 C 0.19379 0.07686 0.80083 0.0
C503 C 0.2332 0.13087 0.7964 0.0
C504 C 0.26763 0.15775 0.81645 0.0
C505 C 0.51594 0.23461 0.83604 0.0
C506 C 0.54424 0.28167 0.81855 0.0
C507 C 0.46535 0.20939 0.84943 0.0
C508 C 0.44146 0.23049 0.84576 0.0
C509 C 0.46902 0.27616 0.82698 0.0
C510 C 0.52011 0.30206 0.81406 0.0
C511 C 0.38901 0.20681 0.86333 0.0
C512 C 0.35132 0.18539 0.84623 0.0
C513 C 0.37568 0.203 0.89693 0.0
C514 C 0.41386 0.2273 0.91666 0.0
C515 C 0.45451 0.28158 0.91385 0.0
C516 C 0.49068 0.30415 0.93224 0.0
C517 C 0.48639 0.27293 0.95375 0.0
C518 C 0.44584 0.21911 0.95696 0.0
C519 C 0.40961 0.19631 0.93856 0.0
H520 H 0.51443 0.29048 0.96799 0.0
H521 H 0.16727 0.05609 0.78522 0.0
H522 H 0.1774 0.16536 0.43456 0.0
H523 H 0.20557 0.23232 0.39698 0.0
H524 H 0.06216 0.20147 0.42378 0.0
H525 H 0.03318 0.13255 0.46056 0.0
H526 H 0.09442 0.22094 0.36301 0.0
H527 H 0.16843 0.31025 0.45423 0.0
H528 H 0.21678 0.33214 0.49464 0.0
H529 H 0.34638 0.38306 0.4215 0.0
H530 H 0.29859 0.36081 0.3806 0.0
H531 H 0.1688 0.47679 0.33402 0.0
H532 H 0.13737 0.38992 0.35074 0.0
H533 H 0.28027 0.4238 0.30941 0.0
H534 H 0.31172 0.51116 0.29236 0.0
H535 H 0.25163 0.40009 0.37239 0.0
H536 H 0.17562 0.32034 0.28151 0.0
H537 H 0.12429 0.30062 0.24371 0.0
H538 H 0.99553 0.23624 0.31922 0.0
H539 H 0.04609 0.256 0.35755 0.0
C540 C 0.15172 0.17255 0.43226 0.0
C541 C 0.10327 0.14411 0.45082 0.0
C542 C 0.16797 0.21115 0.41084 0.0
C543 C 0.1366 0.22333 0.40794 0.0
C544 C 0.08738 0.19333 0.42558 0.0
C545 C 0.07082 0.15399 0.44671 0.0
C546 C 0.15577 0.26852 0.38753 0.0
C547 C 0.1286 0.2602 0.36527 0.0
C548 C 0.20095 0.31983 0.38981 0.0
C549 C 0.22978 0.33329 0.41435 0.0
C550 C 0.20714 0.32574 0.44676 0.0
C551 C 0.23446 0.33827 0.46975 0.0
C552 C 0.28458 0.35882 0.46064 0.0
C553 C 0.30753 0.36703 0.42852 0.0
C554 C 0.28036 0.3545 0.40542 0.0
C555 C 0.19279 0.46468 0.32722 0.0
C556 C 0.24249 0.50044 0.31157 0.0
C557 C 0.17485 0.41499 0.33691 0.0
C558 C 0.20635 0.40004 0.33147 0.0
C559 C 0.25515 0.43429 0.31386 0.0
C560 C 0.27297 0.48395 0.30377 0.0
C561 C 0.19028 0.35258 0.34793 0.0
C562 C 0.21789 0.36062 0.3697 0.0
C563 C 0.14515 0.30143 0.34552 0.0
C564 C 0.11476 0.28988 0.32247 0.0
C565 C 0.13645 0.30237 0.29013 0.0
C566 C 0.10746 0.29112 0.26858 0.0
C567 C 0.0567 0.26727 0.27909 0.0
C568 C 0.03484 0.25468 0.31113 0.0
C569 C 0.06362 0.26579 0.33276 0.0
H570 H 0.03416 0.25829 0.26245 0.0
H571 H 0.30567 0.3685 0.47848 0.0
H572 H 0.87222 0.193 0.97024 0.0
H573 H 0.84664 0.22851 0.94147 0.0
H574 H 0.90781 0.18978 0.85235 0.0
H575 H 0.93264 0.15294 0.88096 0.0
H576 H 0.92793 0.28888 0.85166 0.0
H577 H 0.78713 0.10933 0.87875 0.0
H578 H 0.72533 0.03262 0.91435 0.0
H579 H 0.67314 0.11827 0.97011 0.0
H580 H 0.7352 0.19586 0.9351 0.0
H581 H 0.79784 0.30771 0.7581 0.0
H582 H 0.83108 0.27657 0.78335 0.0
H583 H 0.76434 0.30108 0.87569 0.0
H584 H 0.73025 0.33121 0.85056 0.0
H585 H 0.74784 0.20722 0.87277 0.0
H586 H 0.88981 0.38755 0.84626 0.0
H587 H 0.95202 0.46447 0.81085 0.0
H588 H 1.00188 0.37746 0.75384 0.0
H589 H 0.93949 0.29974 0.78871 0.0
C590 C 0.8802 0.19184 0.94451 0.0
C591 C 0.90398 0.16938 0.92798 0.0
C592 C 0.86571 0.2124 0.9281 0.0
C593 C 0.87466 0.21112 0.89476 0.0
C594 C 0.90046 0.19111 0.87808 0.0
C595 C 0.91481 0.17024 0.89452 0.0
C596 C 0.85508 0.22856 0.87753 0.0
C597 C 0.88849 0.27058 0.85592 0.0
C598 C 0.8037 0.20526 0.88345 0.0
C599 C 0.76615 0.15859 0.90448 0.0
C600 C 0.76275 0.11197 0.89875 0.0
C601 C 0.72763 0.06831 0.9188 0.0
C602 C 0.69541 0.07062 0.94452 0.0
C603 C 0.69817 0.11657 0.9502 0.0
C604 C 0.73329 0.16039 0.93025 0.0
C605 C 0.78999 0.30613 0.78376 0.0
C606 C 0.7611 0.32158 0.8023 0.0
C607 C 0.80939 0.28876 0.7982 0.0
C608 C 0.80059 0.28685 0.83148 0.0
C609 C 0.77165 0.30216 0.84999 0.0
C610 C 0.75228 0.31953 0.83558 0.0
C611 C 0.82072 0.26809 0.84713 0.0
C612 C 0.78731 0.22558 0.86843 0.0
C613 C 0.87207 0.29098 0.84087 0.0
C614 C 0.90964 0.33765 0.8199 0.0
C615 C 0.91377 0.38467 0.82602 0.0
C616 C 0.94912 0.42845 0.80609 0.0
C617 C 0.98079 0.42581 0.78006 0.0
C618 C 0.97727 0.37942 0.77398 0.0
C619 C 0.94196 0.33552 0.79384 0.0
H620 H 0.00814 0.45974 0.76466 0.0
H621 H 0.66823 0.03677 0.96001 0.0
H622 H 0.80023 0.85998 0.34886 0.0
H623 H 0.73333 0.84057 0.32678 0.0
H624 H 0.75877 0.98613 0.36776 0.0
H625 H 0.82408 1.0043 0.3915 0.0
H626 H 0.66867 0.90828 0.38707 0.0
H627 H 0.77164 0.96212 0.28578 0.0
H628 H 0.82968 0.97264 0.23592 0.0
H629 H 0.72908 0.80615 0.21544 0.0
H630 H 0.67099 0.79414 0.26557 0.0
H631 H 0.4565 0.79258 0.30285 0.0
H632 H 0.5469 0.84863 0.29874 0.0
H633 H 0.52718 0.74434 0.36274 0.0
H634 H 0.43694 0.68754 0.36624 0.0
H635 H 0.61867 0.82303 0.28427 0.0
H636 H 0.58599 0.82493 0.42013 0.0
H637 H 0.52128 0.81372 0.46568 0.0
H638 H 0.48318 0.8792 0.41146 0.0
H639 H 0.54816 0.89157 0.36579 0.0
C640 C 0.79193 0.88816 0.35288 0.0
C641 C 0.81661 0.93307 0.37244 0.0
C642 C 0.75433 0.87755 0.33971 0.0
C643 C 0.74134 0.91213 0.34544 0.0
C644 C 0.76848 0.95909 0.36296 0.0
C645 C 0.8058 0.96946 0.37645 0.0
C646 C 0.69396 0.894 0.33848 0.0
C647 C 0.65851 0.89121 0.36421 0.0
C648 C 0.68039 0.87133 0.30871 0.0
C649 C 0.71713 0.87717 0.27982 0.0
C650 C 0.76234 0.92746 0.27107 0.0
C651 C 0.79517 0.93373 0.24263 0.0
C652 C 0.7832 0.89005 0.22262 0.0
C653 C 0.73845 0.83991 0.23106 0.0
C654 C 0.70558 0.83335 0.25953 0.0
C655 C 0.47189 0.78107 0.31523 0.0
C656 C 0.44078 0.73622 0.33472 0.0
C657 C 0.52307 0.81294 0.31294 0.0
C658 C 0.54283 0.8003 0.33063 0.0
C659 C 0.51186 0.75433 0.34914 0.0
C660 C 0.46078 0.72245 0.35135 0.0
C661 C 0.59519 0.83761 0.33259 0.0
C662 C 0.63059 0.84281 0.30635 0.0
C663 C 0.60918 0.86353 0.36151 0.0
C664 C 0.57202 0.85921 0.38955 0.0
C665 C 0.56424 0.83755 0.41807 0.0
C666 C 0.52738 0.83081 0.44387 0.0
C667 C 0.49814 0.84573 0.44146 0.0
C668 C 0.50584 0.86764 0.41329 0.0
C669 C 0.54268 0.87453 0.38745 0.0
H670 H 0.46953 0.84032 0.46142 0.0
H671 H 0.80847 0.8951 0.20048 0.0
H672 H 0.88131 0.86799 0.96342 0.0
H673 H 0.84216 0.7901 0.92855 0.0
H674 H 0.98221 0.81462 0.89441 0.0
H675 H 0.02164 0.89216 0.92967 0.0
H676 H 0.91962 0.78849 0.84588 0.0
H677 H 0.91346 0.73136 0.94595 0.0
H678 H 0.89188 0.72535 1.00441 0.0
H679 H 0.73835 0.64538 1.00226 0.0
H680 H 0.75924 0.65193 0.94383 0.0
H681 H 0.84054 0.54099 0.77172 0.0
H682 H 0.88057 0.62518 0.80114 0.0
H683 H 0.74011 0.56504 0.86601 0.0
H684 H 0.70183 0.47908 0.83843 0.0
H685 H 0.80281 0.613 0.89869 0.0
H686 H 0.80055 0.66276 0.80193 0.0
H687 H 0.81563 0.66988 0.74384 0.0
H688 H 0.97328 0.76501 0.73885 0.0
H689 H 0.95915 0.75757 0.79681 0.0
C690 C 0.90391 0.85711 0.94829 0.0
C691 C 0.95444 0.88587 0.94939 0.0
C692 C 0.88151 0.81275 0.9284 0.0
C693 C 0.90946 0.79697 0.90901 0.0
C694 C 0.96026 0.82658 0.90918 0.0
C695 C 0.98254 0.87047 0.92948 0.0
C696 C 0.88473 0.74726 0.89035 0.0
C697 C 0.89431 0.7499 0.85718 0.0
C698 C 0.85055 0.69745 0.90546 0.0
C699 C 0.83801 0.69265 0.94056 0.0
C700 C 0.87519 0.71293 0.95797 0.0
C701 C 0.86307 0.70939 0.99111 0.0
C702 C 0.8138 0.68521 1.00707 0.0
C703 C 0.77652 0.66429 0.9899 0.0
C704 C 0.78848 0.66788 0.95678 0.0
C705 C 0.81851 0.54613 0.79229 0.0
C706 C 0.7684 0.50416 0.80302 0.0
C707 C 0.84114 0.59438 0.80891 0.0
C708 C 0.81324 0.60229 0.83549 0.0
C709 C 0.76265 0.56018 0.84569 0.0
C710 C 0.74067 0.51121 0.82992 0.0
C711 C 0.83709 0.65331 0.85362 0.0
C712 C 0.82758 0.65117 0.88693 0.0
C713 C 0.87008 0.70359 0.83856 0.0
C714 C 0.87873 0.70923 0.80374 0.0
C715 C 0.83843 0.68501 0.78844 0.0
C716 C 0.84681 0.68907 0.75552 0.0
C717 C 0.89538 0.71781 0.73767 0.0
C718 C 0.93567 0.74272 0.75271 0.0
C719 C 0.9275 0.7386 0.7856 0.0
H720 H 0.90186 0.72083 0.7122 0.0
H721 H 0.80449 0.68254 0.03272 0.0
loop_
_geom_bond_atom_site_label_1
_geom_bond_atom_site_label_2
_geom_bond_distance
_geom_bond_site_symmetry_2
_ccdc_geom_bond_type
Tb0 C2 2.809 . S
Tb0 O20 2.484 . S
Tb0 O21 2.440 1_655 S
Tb0 O22 2.658 1_655 S
Tb0 O23 2.409 1_655 S
Tb0 O24 2.378 1_656 S
Tb0 O28 2.325 1_546 S
Tb0 O31 2.341 1_545 S
Tb1 C11 2.809 . S
Tb1 O22 2.325 1_564 S
Tb1 O25 2.341 1_565 S
Tb1 O26 2.484 . S
Tb1 O27 2.440 . S
Tb1 O28 2.658 1_455 S
Tb1 O29 2.409 1_455 S
Tb1 O30 2.378 1_455 S
C2 Tb0 2.809 . S
C2 C3 1.514 . S
C2 O20 1.248 . S
C2 O21 1.266 1_655 S
C3 C2 1.514 . S
C3 C4 1.359 . S
C3 C8 1.348 . S
C4 C3 1.359 . S
C4 C5 1.380 . S
C4 H32 0.929 . S
C5 C4 1.380 . S
C5 C6 1.347 . S
C5 H33 0.931 . S
C6 C5 1.347 . S
C6 C7 1.369 . S
C7 C6 1.369 . S
C7 C8 1.408 . S
C7 H34 0.930 1_655 S
C8 C3 1.348 . S
C8 C7 1.408 . S
C8 H35 0.930 1_655 S
C9 O22 1.281 . S
C9 O23 1.254 . S
C10 O24 1.236 . S
C10 O25 1.266 . S
C11 Tb1 2.809 . S
C11 C12 1.514 . S
C11 O26 1.248 . S
C11 O27 1.266 . S
C12 C11 1.514 . S
C12 C13 1.359 . S
C12 C17 1.348 . S
C13 C12 1.359 . S
C13 C14 1.380 . S
C13 H36 0.929 . S
C14 C13 1.380 . S
C14 C15 1.347 . S
C14 H37 0.931 . S
C15 C14 1.347 . S
C15 C16 1.369 . S
C16 C15 1.369 . S
C16 C17 1.408 . S
C16 H38 0.930 . S
C17 C12 1.348 . S
C17 C16 1.408 . S
C17 H39 0.930 1_455 S
C18 O28 1.281 . S
C18 O29 1.254 . S
C19 O30 1.236 1_556 S
C19 O31 1.266 . S
O20 Tb0 2.484 . S
O20 C2 1.248 . S
O21 Tb0 2.440 1_455 S
O21 C2 1.266 1_455 S
O22 Tb0 2.658 1_455 S
O22 Tb1 2.325 1_546 S
O22 C9 1.281 . S
O23 Tb0 2.409 1_455 S
O23 C9 1.254 . S
O24 Tb0 2.378 1_454 S
O24 C10 1.236 . S
O25 Tb1 2.341 1_545 S
O25 C10 1.266 . S
O26 Tb1 2.484 . S
O26 C11 1.248 . S
O27 Tb1 2.440 . S
O27 C11 1.266 . S
O28 Tb0 2.325 1_564 S
O28 Tb1 2.658 1_655 S
O28 C18 1.281 . S
O29 Tb1 2.409 1_655 S
O29 C18 1.254 . S
O30 Tb1 2.378 1_655 S
O30 C19 1.236 1_554 S
O31 Tb0 2.341 1_565 S
O31 C19 1.266 . S
H32 C4 0.929 . S
H33 C5 0.931 . S
H34 C7 0.930 1_455 S
H35 C8 0.930 1_455 S
H36 C13 0.929 . S
H37 C14 0.931 . S
H38 C16 0.930 . S
H39 C17 0.930 1_655 S
Tb40 C42 2.809 . S
Tb40 O60 2.484 . S
Tb40 O61 2.440 . S
Tb40 O62 2.658 . S
Tb40 O63 2.409 . S
Tb40 O64 2.378 . S
Tb40 O68 2.325 1_545 S
Tb40 O71 2.341 1_455 S
Tb41 C51 2.809 . S
Tb41 O62 2.325 1_665 S
Tb41 O65 2.341 1_655 S
Tb41 O66 2.484 . S
Tb41 O67 2.440 . S
Tb41 O68 2.658 1_655 S
Tb41 O69 2.409 . S
Tb41 O70 2.378 . S
C42 Tb40 2.809 . S
C42 C43 1.514 . S
C42 O60 1.248 . S
C42 O61 1.266 . S
C43 C42 1.514 . S
C43 C44 1.359 . S
C43 C48 1.348 . S
C44 C43 1.359 . S
C44 C45 1.380 . S
C44 H72 0.929 . S
C45 C44 1.380 . S
C45 C46 1.347 . S
C45 H73 0.931 . S
C46 C45 1.347 . S
C46 C47 1.369 . S
C47 C46 1.369 . S
C47 C48 1.408 . S
C47 H74 0.930 . S
C48 C43 1.348 . S
C48 C47 1.408 . S
C48 H75 0.930 . S
C49 O62 1.281 . S
C49 O63 1.254 . S
C50 O64 1.236 1_565 S
C50 O65 1.266 . S
C51 Tb41 2.809 . S
C51 C52 1.514 . S
C51 O66 1.248 . S
C51 O67 1.266 . S
C52 C51 1.514 . S
C52 C53 1.359 . S
C52 C57 1.348 . S
C53 C52 1.359 . S
C53 C54 1.380 . S
C53 H76 0.929 1_565 S
C54 C53 1.380 . S
C54 C55 1.347 . S
C54 H77 0.931 . S
C55 C54 1.347 . S
C55 C56 1.369 . S
C56 C55 1.369 . S
C56 C57 1.408 . S
C56 H78 0.930 . S
C57 C52 1.348 . S
C57 C56 1.408 . S
C57 H79 0.930 . S
C58 O68 1.281 1_655 S
C58 O69 1.254 . S
C59 O70 1.236 1_545 S
C59 O71 1.266 . S
O60 Tb40 2.484 . S
O60 C42 1.248 . S
O61 Tb40 2.440 . S
O61 C42 1.266 . S
O62 Tb40 2.658 . S
O62 Tb41 2.325 1_445 S
O62 C49 1.281 . S
O63 Tb40 2.409 . S
O63 C49 1.254 . S
O64 Tb40 2.378 . S
O64 C50 1.236 1_545 S
O65 Tb41 2.341 1_455 S
O65 C50 1.266 . S
O66 Tb41 2.484 . S
O66 C51 1.248 . S
O67 Tb41 2.440 . S
O67 C51 1.266 . S
O68 Tb40 2.325 1_565 S
O68 Tb41 2.658 1_455 S
O68 C58 1.281 1_455 S
O69 Tb41 2.409 . S
O69 C58 1.254 . S
O70 Tb41 2.378 . S
O70 C59 1.236 1_565 S
O71 Tb40 2.341 1_655 S
O71 C59 1.266 . S
H72 C44 0.929 . S
H73 C45 0.931 . S
H74 C47 0.930 . S
H75 C48 0.930 . S
H76 C53 0.929 1_545 S
H77 C54 0.931 . S
H78 C56 0.930 . S
H79 C57 0.930 . S
Zn80 O86 1.920 . S
Zn80 O92 1.898 . S
Zn80 O95 1.905 . S
Zn81 O89 1.905 . S
Zn81 O90 1.898 . S
Zn81 O98 1.920 . S
Zn82 O85 2.080 . S
Zn82 O88 2.114 . S
Zn82 O91 2.120 . S
Zn82 O93 2.120 . S
Zn82 O94 2.114 . S
Zn82 O97 2.080 . S
C83 O88 1.166 . S
C83 O89 1.182 . S
C84 O90 1.167 . S
C84 O91 1.299 . S
O85 Zn82 2.080 . S
O85 C99 1.305 . S
O86 Zn80 1.920 . S
O86 C99 1.234 . S
C87 O92 1.167 . S
C87 O93 1.299 . S
O88 Zn82 2.114 . S
O88 C83 1.166 . S
O89 Zn81 1.905 . S
O89 C83 1.182 . S
O90 Zn81 1.898 . S
O90 C84 1.167 . S
O91 Zn82 2.120 . S
O91 C84 1.299 . S
O92 Zn80 1.898 . S
O92 C87 1.167 . S
O93 Zn82 2.120 . S
O93 C87 1.299 . S
O94 Zn82 2.114 . S
O94 C96 1.166 . S
O95 Zn80 1.905 . S
O95 C96 1.182 . S
C96 O94 1.166 . S
C96 O95 1.182 . S
O97 Zn82 2.080 . S
O97 C100 1.305 . S
O98 Zn81 1.920 . S
O98 C100 1.234 . S
C99 O85 1.305 . S
C99 O86 1.234 . S
C100 O97 1.305 . S
C100 O98 1.234 . S
Zn101 O107 1.920 . S
Zn101 O113 1.898 . S
Zn101 O116 1.905 . S
Zn102 O110 1.905 . S
Zn102 O111 1.898 . S
Zn102 O119 1.920 . S
Zn103 O106 2.080 . S
Zn103 O109 2.114 . S
Zn103 O112 2.120 . S
Zn103 O114 2.120 . S
Zn103 O115 2.114 . S
Zn103 O118 2.080 . S
C104 O109 1.166 . S
C104 O110 1.182 . S
C105 O111 1.167 . S
C105 O112 1.299 . S
O106 Zn103 2.080 . S
O106 C120 1.305 . S
O107 Zn101 1.920 . S
O107 C120 1.234 . S
C108 O113 1.167 . S
C108 O114 1.299 . S
O109 Zn103 2.114 . S
O109 C104 1.166 . S
O110 Zn102 1.905 . S
O110 C104 1.182 . S
O111 Zn102 1.898 . S
O111 C105 1.167 . S
O112 Zn103 2.120 . S
O112 C105 1.299 . S
O113 Zn101 1.898 . S
O113 C108 1.167 . S
O114 Zn103 2.120 . S
O114 C108 1.299 . S
O115 Zn103 2.114 . S
O115 C117 1.166 . S
O116 Zn101 1.905 . S
O116 C117 1.182 . S
C117 O115 1.166 . S
C117 O116 1.182 . S
O118 Zn103 2.080 . S
O118 C121 1.305 . S
O119 Zn102 1.920 . S
O119 C121 1.234 . S
C120 O106 1.305 . S
C120 O107 1.234 . S
C121 O118 1.305 . S
C121 O119 1.234 . S
H122 C140 0.951 . S
H123 C142 0.951 . S
H124 C144 0.950 . S
H125 C145 0.950 . S
H126 C147 0.950 . S
H127 C150 0.950 . S
H128 C151 0.950 . S
H129 C153 0.950 . S
H130 C154 0.950 . S
H131 C155 0.951 . S
H132 C157 0.951 . S
H133 C159 0.950 . S
H134 C160 0.950 . S
H135 C162 0.950 . S
H136 C165 0.950 . S
H137 C166 0.950 . S
H138 C168 0.950 . S
H139 C169 0.950 . S
C140 H122 0.951 . S
C140 C141 1.366 . S
C140 C142 1.388 . S
C141 C140 1.366 . S
C141 C145 1.385 . S
C142 H123 0.951 . S
C142 C140 1.388 . S
C142 C143 1.366 . S
C143 C142 1.366 . S
C143 C144 1.414 . S
C143 C146 1.499 . S
C144 H124 0.950 . S
C144 C143 1.414 . S
C144 C145 1.374 . S
C145 H125 0.950 . S
C145 C141 1.385 . S
C145 C144 1.374 . S
C146 C143 1.499 . S
C146 C147 1.373 . S
C146 C148 1.389 . S
C147 H126 0.950 . S
C147 C146 1.373 . S
C147 C163 1.377 . S
C148 C146 1.389 . S
C148 C149 1.524 . S
C148 C162 1.377 . S
C149 C148 1.524 . S
C149 C150 1.397 . S
C149 C154 1.363 . S
C150 H127 0.950 . S
C150 C149 1.397 . S
C150 C151 1.334 . S
C151 H128 0.950 . S
C151 C150 1.334 . S
C151 C152 1.287 . S
C152 C151 1.287 . S
C152 C153 1.524 . S
C152 H171 0.913 . S
C153 H129 0.950 . S
C153 C152 1.524 . S
C153 C154 1.415 . S
C154 H130 0.950 . S
C154 C149 1.363 . S
C154 C153 1.415 . S
C155 H131 0.951 . S
C155 C156 1.366 . S
C155 C157 1.388 . S
C156 C155 1.366 . S
C156 C160 1.385 . S
C157 H132 0.951 . S
C157 C155 1.388 . S
C157 C158 1.366 . S
C158 C157 1.366 . S
C158 C159 1.414 . S
C158 C161 1.499 . S
C159 H133 0.950 . S
C159 C158 1.414 . S
C159 C160 1.374 . S
C160 H134 0.950 . S
C160 C156 1.385 . S
C160 C159 1.374 . S
C161 C158 1.499 . S
C161 C162 1.373 . S
C161 C163 1.389 . S
C162 H135 0.950 . S
C162 C148 1.377 . S
C162 C161 1.373 . S
C163 C147 1.377 . S
C163 C161 1.389 . S
C163 C164 1.524 . S
C164 C163 1.524 . S
C164 C165 1.397 . S
C164 C169 1.363 . S
C165 H136 0.950 . S
C165 C164 1.397 . S
C165 C166 1.334 . S
C166 H137 0.950 . S
C166 C165 1.334 . S
C166 C167 1.287 . S
C167 C166 1.287 . S
C167 C168 1.524 . S
C167 H170 0.999 . S
C168 H138 0.950 . S
C168 C167 1.524 . S
C168 C169 1.415 . S
C169 H139 0.950 . S
C169 C164 1.363 . S
C169 C168 1.415 . S
H170 C167 0.999 . S
H171 C152 0.913 . S
H172 C190 0.951 . S
H173 C192 0.951 . S
H174 C194 0.950 . S
H175 C195 0.950 . S
H176 C197 0.950 . S
H177 C200 0.950 . S
H178 C201 0.950 . S
H179 C203 0.950 . S
H180 C204 0.950 . S
H181 C205 0.951 . S
H182 C207 0.951 . S
H183 C209 0.950 . S
H184 C210 0.950 . S
H185 C212 0.950 . S
H186 C215 0.950 . S
H187 C216 0.950 . S
H188 C218 0.950 . S
H189 C219 0.950 . S
C190 H172 0.951 . S
C190 C191 1.366 . S
C190 C192 1.388 . S
C191 C190 1.366 . S
C191 C195 1.385 . S
C192 H173 0.951 . S
C192 C190 1.388 . S
C192 C193 1.366 . S
C193 C192 1.366 . S
C193 C194 1.414 . S
C193 C196 1.499 . S
C194 H174 0.950 . S
C194 C193 1.414 . S
C194 C195 1.374 . S
C195 H175 0.950 . S
C195 C191 1.385 . S
C195 C194 1.374 . S
C196 C193 1.499 . S
C196 C197 1.373 . S
C196 C198 1.389 . S
C197 H176 0.950 . S
C197 C196 1.373 . S
C197 C213 1.377 . S
C198 C196 1.389 . S
C198 C199 1.524 . S
C198 C212 1.377 . S
C199 C198 1.524 . S
C199 C200 1.397 . S
C199 C204 1.363 . S
C200 H177 0.950 . S
C200 C199 1.397 . S
C200 C201 1.334 . S
C201 H178 0.950 . S
C201 C200 1.334 . S
C201 C202 1.287 . S
C202 C201 1.287 . S
C202 C203 1.524 . S
C202 H221 0.913 . S
C203 H179 0.950 . S
C203 C202 1.524 . S
C203 C204 1.415 . S
C204 H180 0.950 . S
C204 C199 1.363 . S
C204 C203 1.415 . S
C205 H181 0.951 . S
C205 C206 1.366 . S
C205 C207 1.388 . S
C206 C205 1.366 . S
C206 C210 1.385 . S
C207 H182 0.951 . S
C207 C205 1.388 . S
C207 C208 1.366 . S
C208 C207 1.366 . S
C208 C209 1.414 . S
C208 C211 1.499 . S
C209 H183 0.950 . S
C209 C208 1.414 . S
C209 C210 1.374 . S
C210 H184 0.950 . S
C210 C206 1.385 . S
C210 C209 1.374 . S
C211 C208 1.499 . S
C211 C212 1.373 . S
C211 C213 1.389 . S
C212 H185 0.950 . S
C212 C198 1.377 . S
C212 C211 1.373 . S
C213 C197 1.377 . S
C213 C211 1.389 . S
C213 C214 1.524 . S
C214 C213 1.524 . S
C214 C215 1.397 . S
C214 C219 1.363 . S
C215 H186 0.950 . S
C215 C214 1.397 . S
C215 C216 1.334 . S
C216 H187 0.950 . S
C216 C215 1.334 . S
C216 C217 1.287 . S
C217 C216 1.287 . S
C217 C218 1.524 . S
C217 H220 0.999 . S
C218 H188 0.950 . S
C218 C217 1.524 . S
C218 C219 1.415 . S
C219 H189 0.950 . S
C219 C214 1.363 . S
C219 C218 1.415 . S
H220 C217 0.999 . S
H221 C202 0.913 . S
H222 C240 0.951 . S
H223 C242 0.951 . S
H224 C244 0.950 . S
H225 C245 0.950 . S
H226 C247 0.950 . S
H227 C250 0.950 . S
H228 C251 0.950 . S
H229 C253 0.950 . S
H230 C254 0.950 . S
H231 C255 0.951 . S
H232 C257 0.951 . S
H233 C259 0.950 . S
H234 C260 0.950 . S
H235 C262 0.950 . S
H236 C265 0.950 . S
H237 C266 0.950 . S
H238 C268 0.950 . S
H239 C269 0.950 . S
C240 H222 0.951 . S
C240 C241 1.366 . S
C240 C242 1.388 . S
C241 C240 1.366 . S
C241 C245 1.385 . S
C242 H223 0.951 . S
C242 C240 1.388 . S
C242 C243 1.366 . S
C243 C242 1.366 . S
C243 C244 1.414 . S
C243 C246 1.499 . S
C244 H224 0.950 . S
C244 C243 1.414 . S
C244 C245 1.374 . S
C245 H225 0.950 . S
C245 C241 1.385 . S
C245 C244 1.374 . S
C246 C243 1.499 . S
C246 C247 1.373 . S
C246 C248 1.389 . S
C247 H226 0.950 . S
C247 C246 1.373 . S
C247 C263 1.377 . S
C248 C246 1.389 . S
C248 C249 1.524 . S
C248 C262 1.377 . S
C249 C248 1.524 . S
C249 C250 1.397 . S
C249 C254 1.363 . S
C250 H227 0.950 . S
C250 C249 1.397 . S
C250 C251 1.334 . S
C251 H228 0.950 . S
C251 C250 1.334 . S
C251 C252 1.287 . S
C252 C251 1.287 . S
C252 C253 1.524 . S
C252 H271 0.913 . S
C253 H229 0.950 . S
C253 C252 1.524 . S
C253 C254 1.415 . S
C254 H230 0.950 . S
C254 C249 1.363 . S
C254 C253 1.415 . S
C255 H231 0.951 . S
C255 C256 1.366 . S
C255 C257 1.388 . S
C256 C255 1.366 . S
C256 C260 1.385 . S
C257 H232 0.951 . S
C257 C255 1.388 . S
C257 C258 1.366 . S
C258 C257 1.366 . S
C258 C259 1.414 . S
C258 C261 1.499 . S
C259 H233 0.950 . S
C259 C258 1.414 . S
C259 C260 1.374 . S
C260 H234 0.950 . S
C260 C256 1.385 . S
C260 C259 1.374 . S
C261 C258 1.499 . S
C261 C262 1.373 . S
C261 C263 1.389 . S
C262 H235 0.950 . S
C262 C248 1.377 . S
C262 C261 1.373 . S
C263 C247 1.377 . S
C263 C261 1.389 . S
C263 C264 1.524 . S
C264 C263 1.524 . S
C264 C265 1.397 . S
C264 C269 1.363 . S
C265 H236 0.950 . S
C265 C264 1.397 . S
C265 C266 1.334 . S
C266 H237 0.950 . S
C266 C265 1.334 . S
C266 C267 1.287 . S
C267 C266 1.287 . S
C267 C268 1.524 . S
C267 H270 0.999 . S
C268 H238 0.950 . S
C268 C267 1.524 . S
C268 C269 1.415 . S
C269 H239 0.950 . S
C269 C264 1.363 . S
C269 C268 1.415 . S
H270 C267 0.999 . S
H271 C252 0.913 . S
H272 C290 0.951 . S
H273 C292 0.951 . S
H274 C294 0.950 . S
H275 C295 0.950 . S
H276 C297 0.950 . S
H277 C300 0.950 . S
H278 C301 0.950 . S
H279 C303 0.950 . S
H280 C304 0.956 . S
H281 C305 0.951 . S
H282 C307 0.951 . S
H283 C309 0.950 . S
H284 C310 0.950 . S
H285 C312 0.950 . S
H286 C315 0.950 . S
H287 C316 0.950 . S
H288 C318 0.950 . S
H289 C319 0.950 . S
C290 H272 0.951 . S
C290 C291 1.366 . S
C290 C292 1.388 . S
C291 C290 1.366 . S
C291 C295 1.385 . S
C292 H273 0.951 . S
C292 C290 1.388 . S
C292 C293 1.366 . S
C293 C292 1.366 . S
C293 C294 1.414 . S
C293 C296 1.499 . S
C294 H274 0.950 . S
C294 C293 1.414 . S
C294 C295 1.374 . S
C295 H275 0.950 . S
C295 C291 1.385 . S
C295 C294 1.374 . S
C296 C293 1.499 . S
C296 C297 1.373 . S
C296 C298 1.389 . S
C297 H276 0.950 . S
C297 C296 1.373 . S
C297 C313 1.377 . S
C298 C296 1.389 . S
C298 C299 1.524 . S
C298 C312 1.377 . S
C299 C298 1.524 . S
C299 C300 1.397 . S
C299 C304 1.363 1_655 S
C300 H277 0.950 . S
C300 C299 1.397 . S
C300 C301 1.334 1_655 S
C301 H278 0.950 . S
C301 C300 1.334 1_455 S
C301 C302 1.287 . S
C302 C301 1.287 . S
C302 C303 1.524 . S
C302 H321 0.913 . S
C303 H279 0.950 . S
C303 C302 1.524 . S
C303 C304 1.415 . S
C304 H280 0.956 . S
C304 C299 1.363 1_455 S
C304 C303 1.415 . S
C305 H281 0.951 . S
C305 C306 1.366 . S
C305 C307 1.388 . S
C306 C305 1.366 . S
C306 C310 1.385 . S
C307 H282 0.951 . S
C307 C305 1.388 . S
C307 C308 1.366 . S
C308 C307 1.366 . S
C308 C309 1.414 . S
C308 C311 1.499 . S
C309 H283 0.950 . S
C309 C308 1.414 . S
C309 C310 1.374 . S
C310 H284 0.950 . S
C310 C306 1.385 . S
C310 C309 1.374 . S
C311 C308 1.499 . S
C311 C312 1.373 . S
C311 C313 1.389 . S
C312 H285 0.950 . S
C312 C298 1.377 . S
C312 C311 1.373 . S
C313 C297 1.377 . S
C313 C311 1.389 . S
C313 C314 1.524 . S
C314 C313 1.524 . S
C314 C315 1.397 . S
C314 C319 1.363 . S
C315 H286 0.950 . S
C315 C314 1.397 . S
C315 C316 1.334 . S
C316 H287 0.950 . S
C316 C315 1.334 . S
C316 C317 1.287 . S
C317 C316 1.287 . S
C317 C318 1.524 . S
C317 H320 0.999 . S
C318 H288 0.950 . S
C318 C317 1.524 . S
C318 C319 1.415 . S
C319 H289 0.950 . S
C319 C314 1.363 . S
C319 C318 1.415 . S
H320 C317 0.999 . S
H321 C302 0.913 . S
H322 C340 0.951 . S
H323 C342 0.951 . S
H324 C344 0.950 . S
H325 C345 0.952 . S
H326 C347 0.950 . S
H327 C350 0.950 . S
H328 C351 0.950 1_556 S
H329 C353 0.950 . S
H330 C354 0.950 . S
H331 C355 0.951 . S
H332 C357 0.951 . S
H333 C359 0.950 . S
H334 C360 0.950 . S
H335 C362 0.950 . S
H336 C365 0.950 . S
H337 C366 0.950 . S
H338 C368 0.950 1_545 S
H339 C369 0.950 . S
C340 H322 0.951 . S
C340 C341 1.366 . S
C340 C342 1.388 . S
C341 C340 1.366 . S
C341 C345 1.385 . S
C342 H323 0.951 . S
C342 C340 1.388 . S
C342 C343 1.366 . S
C343 C342 1.366 . S
C343 C344 1.414 . S
C343 C346 1.499 . S
C344 H324 0.950 . S
C344 C343 1.414 . S
C344 C345 1.374 . S
C345 H325 0.952 . S
C345 C341 1.385 . S
C345 C344 1.374 . S
C346 C343 1.499 . S
C346 C347 1.373 . S
C346 C348 1.389 . S
C347 H326 0.950 . S
C347 C346 1.373 . S
C347 C363 1.377 . S
C348 C346 1.389 . S
C348 C349 1.524 . S
C348 C362 1.377 . S
C349 C348 1.524 . S
C349 C350 1.397 . S
C349 C354 1.363 . S
C350 H327 0.950 . S
C350 C349 1.397 . S
C350 C351 1.334 . S
C351 H328 0.950 1_554 S
C351 C350 1.334 . S
C351 C352 1.287 . S
C352 C351 1.287 . S
C352 C353 1.524 . S
C352 H371 0.913 1_554 S
C353 H329 0.950 . S
C353 C352 1.524 . S
C353 C354 1.415 . S
C354 H330 0.950 . S
C354 C349 1.363 . S
C354 C353 1.415 . S
C355 H331 0.951 . S
C355 C356 1.366 . S
C355 C357 1.388 . S
C356 C355 1.366 . S
C356 C360 1.385 . S
C357 H332 0.951 . S
C357 C355 1.388 . S
C357 C358 1.366 . S
C358 C357 1.366 . S
C358 C359 1.414 . S
C358 C361 1.499 . S
C359 H333 0.950 . S
C359 C358 1.414 . S
C359 C360 1.374 . S
C360 H334 0.950 . S
C360 C356 1.385 . S
C360 C359 1.374 . S
C361 C358 1.499 . S
C361 C362 1.373 . S
C361 C363 1.389 . S
C362 H335 0.950 . S
C362 C348 1.377 . S
C362 C361 1.373 . S
C363 C347 1.377 . S
C363 C361 1.389 . S
C363 C364 1.524 . S
C364 C363 1.524 . S
C364 C365 1.397 . S
C364 C369 1.363 . S
C365 H336 0.950 . S
C365 C364 1.397 . S
C365 C366 1.334 . S
C366 H337 0.950 . S
C366 C365 1.334 . S
C366 C367 1.287 . S
C367 C366 1.287 . S
C367 C368 1.524 . S
C367 H370 0.999 . S
C368 H338 0.950 1_565 S
C368 C367 1.524 . S
C368 C369 1.415 . S
C369 H339 0.950 . S
C369 C364 1.363 . S
C369 C368 1.415 . S
H370 C367 0.999 . S
H371 C352 0.913 1_556 S
H372 C390 0.951 . S
H373 C392 0.951 . S
H374 C394 0.950 . S
H375 C395 0.950 . S
H376 C397 0.950 . S
H377 C400 0.950 . S
H378 C401 0.950 . S
H379 C403 0.950 . S
H380 C404 0.950 . S
H381 C405 0.951 . S
H382 C407 0.951 . S
H383 C409 0.950 . S
H384 C410 0.950 . S
H385 C412 0.950 . S
H386 C415 0.950 . S
H387 C416 0.950 . S
H388 C418 0.950 . S
H389 C419 0.950 . S
C390 H372 0.951 . S
C390 C391 1.366 . S
C390 C392 1.388 . S
C391 C390 1.366 . S
C391 C395 1.385 . S
C392 H373 0.951 . S
C392 C390 1.388 . S
C392 C393 1.366 . S
C393 C392 1.366 . S
C393 C394 1.414 . S
C393 C396 1.499 . S
C394 H374 0.950 . S
C394 C393 1.414 . S
C394 C395 1.374 . S
C395 H375 0.950 . S
C395 C391 1.385 . S
C395 C394 1.374 . S
C396 C393 1.499 . S
C396 C397 1.373 . S
C396 C398 1.389 . S
C397 H376 0.950 . S
C397 C396 1.373 . S
C397 C413 1.377 . S
C398 C396 1.389 . S
C398 C399 1.524 . S
C398 C412 1.377 . S
C399 C398 1.524 . S
C399 C400 1.397 . S
C399 C404 1.363 . S
C400 H377 0.950 . S
C400 C399 1.397 . S
C400 C401 1.334 . S
C401 H378 0.950 . S
C401 C400 1.334 . S
C401 C402 1.287 . S
C402 C401 1.287 . S
C402 C403 1.524 . S
C402 H421 0.913 . S
C403 H379 0.950 . S
C403 C402 1.524 . S
C403 C404 1.415 . S
C404 H380 0.950 . S
C404 C399 1.363 . S
C404 C403 1.415 . S
C405 H381 0.951 . S
C405 C406 1.366 . S
C405 C407 1.388 . S
C406 C405 1.366 . S
C406 C410 1.385 . S
C407 H382 0.951 . S
C407 C405 1.388 . S
C407 C408 1.366 . S
C408 C407 1.366 . S
C408 C409 1.414 . S
C408 C411 1.499 . S
C409 H383 0.950 . S
C409 C408 1.414 . S
C409 C410 1.374 . S
C410 H384 0.950 . S
C410 C406 1.385 . S
C410 C409 1.374 . S
C411 C408 1.499 . S
C411 C412 1.373 . S
C411 C413 1.389 . S
C412 H385 0.950 . S
C412 C398 1.377 . S
C412 C411 1.373 . S
C413 C397 1.377 . S
C413 C411 1.389 . S
C413 C414 1.524 . S
C414 C413 1.524 . S
C414 C415 1.397 . S
C414 C419 1.363 . S
C415 H386 0.950 . S
C415 C414 1.397 . S
C415 C416 1.334 . S
C416 H387 0.950 . S
C416 C415 1.334 . S
C416 C417 1.287 . S
C417 C416 1.287 . S
C417 C418 1.524 . S
C417 H420 0.999 . S
C418 H388 0.950 . S
C418 C417 1.524 . S
C418 C419 1.415 . S
C419 H389 0.950 . S
C419 C414 1.363 . S
C419 C418 1.415 . S
H420 C417 0.999 . S
H421 C402 0.913 . S
H422 C440 0.951 . S
H423 C442 0.951 . S
H424 C444 0.950 . S
H425 C445 0.950 . S
H426 C447 0.950 . S
H427 C450 0.950 1_565 S
H428 C451 0.950 . S
H429 C453 0.950 . S
H430 C454 0.950 . S
H431 C455 0.951 . S
H432 C457 0.951 . S
H433 C459 0.950 . S
H434 C460 0.950 . S
H435 C462 0.950 . S
H436 C465 0.950 . S
H437 C466 0.950 . S
H438 C468 0.950 . S
H439 C469 0.950 . S
C440 H422 0.951 . S
C440 C441 1.366 . S
C440 C442 1.388 . S
C441 C440 1.366 . S
C441 C445 1.385 . S
C442 H423 0.951 . S
C442 C440 1.388 . S
C442 C443 1.366 . S
C443 C442 1.366 . S
C443 C444 1.414 . S
C443 C446 1.499 . S
C444 H424 0.950 . S
C444 C443 1.414 . S
C444 C445 1.374 . S
C445 H425 0.950 . S
C445 C441 1.385 . S
C445 C444 1.374 . S
C446 C443 1.499 . S
C446 C447 1.373 . S
C446 C448 1.389 . S
C447 H426 0.950 . S
C447 C446 1.373 . S
C447 C463 1.377 . S
C448 C446 1.389 . S
C448 C449 1.524 . S
C448 C462 1.377 . S
C449 C448 1.524 . S
C449 C450 1.397 1_565 S
C449 C454 1.363 . S
C450 H427 0.950 1_545 S
C450 C449 1.397 1_545 S
C450 C451 1.334 . S
C451 H428 0.950 . S
C451 C450 1.334 . S
C451 C452 1.287 . S
C452 C451 1.287 . S
C452 C453 1.524 . S
C452 H471 0.913 . S
C453 H429 0.950 . S
C453 C452 1.524 . S
C453 C454 1.415 1_545 S
C454 H430 0.950 . S
C454 C449 1.363 . S
C454 C453 1.415 1_565 S
C455 H431 0.951 . S
C455 C456 1.366 . S
C455 C457 1.388 . S
C456 C455 1.366 . S
C456 C460 1.385 . S
C457 H432 0.951 . S
C457 C455 1.388 . S
C457 C458 1.366 . S
C458 C457 1.366 . S
C458 C459 1.414 . S
C458 C461 1.499 . S
C459 H433 0.950 . S
C459 C458 1.414 . S
C459 C460 1.374 . S
C460 H434 0.950 . S
C460 C456 1.385 . S
C460 C459 1.374 . S
C461 C458 1.499 . S
C461 C462 1.373 . S
C461 C463 1.389 . S
C462 H435 0.950 . S
C462 C448 1.377 . S
C462 C461 1.373 . S
C463 C447 1.377 . S
C463 C461 1.389 . S
C463 C464 1.524 . S
C464 C463 1.524 . S
C464 C465 1.397 . S
C464 C469 1.363 . S
C465 H436 0.950 . S
C465 C464 1.397 . S
C465 C466 1.334 . S
C466 H437 0.950 . S
C466 C465 1.334 . S
C466 C467 1.287 . S
C467 C466 1.287 . S
C467 C468 1.524 . S
C467 H470 0.999 . S
C468 H438 0.950 . S
C468 C467 1.524 . S
C468 C469 1.415 . S
C469 H439 0.950 . S
C469 C464 1.363 . S
C469 C468 1.415 . S
H470 C467 0.999 . S
H471 C452 0.913 . S
H472 C490 0.951 . S
H473 C492 0.951 . S
H474 C494 0.950 . S
H475 C495 0.950 . S
H476 C497 0.950 . S
H477 C500 0.950 . S
H478 C501 0.950 . S
H479 C503 0.950 . S
H480 C504 0.950 . S
H481 C505 0.951 . S
H482 C507 0.951 . S
H483 C509 0.950 . S
H484 C510 0.950 . S
H485 C512 0.950 . S
H486 C515 0.950 . S
H487 C516 0.950 . S
H488 C518 0.950 . S
H489 C519 0.950 . S
C490 H472 0.951 . S
C490 C491 1.366 . S
C490 C492 1.388 . S
C491 C490 1.366 . S
C491 C495 1.385 . S
C492 H473 0.951 . S
C492 C490 1.388 . S
C492 C493 1.366 . S
C493 C492 1.366 . S
C493 C494 1.414 . S
C493 C496 1.499 . S
C494 H474 0.950 . S
C494 C493 1.414 . S
C494 C495 1.374 . S
C495 H475 0.950 . S
C495 C491 1.385 . S
C495 C494 1.374 . S
C496 C493 1.499 . S
C496 C497 1.373 . S
C496 C498 1.389 . S
C497 H476 0.950 . S
C497 C496 1.373 . S
C497 C513 1.377 . S
C498 C496 1.389 . S
C498 C499 1.524 . S
C498 C512 1.377 . S
C499 C498 1.524 . S
C499 C500 1.397 . S
C499 C504 1.363 . S
C500 H477 0.950 . S
C500 C499 1.397 . S
C500 C501 1.334 . S
C501 H478 0.950 . S
C501 C500 1.334 . S
C501 C502 1.287 . S
C502 C501 1.287 . S
C502 C503 1.524 . S
C502 H521 0.913 . S
C503 H479 0.950 . S
C503 C502 1.524 . S
C503 C504 1.415 . S
C504 H480 0.950 . S
C504 C499 1.363 . S
C504 C503 1.415 . S
C505 H481 0.951 . S
C505 C506 1.366 . S
C505 C507 1.388 . S
C506 C505 1.366 . S
C506 C510 1.385 . S
C507 H482 0.951 . S
C507 C505 1.388 . S
C507 C508 1.366 . S
C508 C507 1.366 . S
C508 C509 1.414 . S
C508 C511 1.499 . S
C509 H483 0.950 . S
C509 C508 1.414 . S
C509 C510 1.374 . S
C510 H484 0.950 . S
C510 C506 1.385 . S
C510 C509 1.374 . S
C511 C508 1.499 . S
C511 C512 1.373 . S
C511 C513 1.389 . S
C512 H485 0.950 . S
C512 C498 1.377 . S
C512 C511 1.373 . S
C513 C497 1.377 . S
C513 C511 1.389 . S
C513 C514 1.524 . S
C514 C513 1.524 . S
C514 C515 1.397 . S
C514 C519 1.363 . S
C515 H486 0.950 . S
C515 C514 1.397 . S
C515 C516 1.334 . S
C516 H487 0.950 . S
C516 C515 1.334 . S
C516 C517 1.287 . S
C517 C516 1.287 . S
C517 C518 1.524 . S
C517 H520 0.999 . S
C518 H488 0.950 . S
C518 C517 1.524 . S
C518 C519 1.415 . S
C519 H489 0.950 . S
C519 C514 1.363 . S
C519 C518 1.415 . S
H520 C517 0.999 . S
H521 C502 0.913 . S
H522 C540 0.951 . S
H523 C542 0.951 . S
H524 C544 0.950 . S
H525 C545 0.950 . S
H526 C547 0.950 . S
H527 C550 0.950 . S
H528 C551 0.950 . S
H529 C553 0.950 . S
H530 C554 0.950 . S
H531 C555 0.951 . S
H532 C557 0.951 . S
H533 C559 0.950 . S
H534 C560 0.950 . S
H535 C562 0.950 . S
H536 C565 0.950 . S
H537 C566 0.950 . S
H538 C568 0.950 . S
H539 C569 0.950 . S
C540 H522 0.951 . S
C540 C541 1.366 . S
C540 C542 1.388 . S
C541 C540 1.366 . S
C541 C545 1.385 . S
C542 H523 0.951 . S
C542 C540 1.388 . S
C542 C543 1.366 . S
C543 C542 1.366 . S
C543 C544 1.414 . S
C543 C546 1.499 . S
C544 H524 0.950 . S
C544 C543 1.414 . S
C544 C545 1.374 . S
C545 H525 0.950 . S
C545 C541 1.385 . S
C545 C544 1.374 . S
C546 C543 1.499 . S
C546 C547 1.373 . S
C546 C548 1.389 . S
C547 H526 0.950 . S
C547 C546 1.373 . S
C547 C563 1.377 . S
C548 C546 1.389 . S
C548 C549 1.524 . S
C548 C562 1.377 . S
C549 C548 1.524 . S
C549 C550 1.397 . S
C549 C554 1.363 . S
C550 H527 0.950 . S
C550 C549 1.397 . S
C550 C551 1.334 . S
C551 H528 0.950 . S
C551 C550 1.334 . S
C551 C552 1.287 . S
C552 C551 1.287 . S
C552 C553 1.524 . S
C552 H571 0.913 . S
C553 H529 0.950 . S
C553 C552 1.524 . S
C553 C554 1.415 . S
C554 H530 0.950 . S
C554 C549 1.363 . S
C554 C553 1.415 . S
C555 H531 0.951 . S
C555 C556 1.366 . S
C555 C557 1.388 . S
C556 C555 1.366 . S
C556 C560 1.385 . S
C557 H532 0.951 . S
C557 C555 1.388 . S
C557 C558 1.366 . S
C558 C557 1.366 . S
C558 C559 1.414 . S
C558 C561 1.499 . S
C559 H533 0.950 . S
C559 C558 1.414 . S
C559 C560 1.374 . S
C560 H534 0.950 . S
C560 C556 1.385 . S
C560 C559 1.374 . S
C561 C558 1.499 . S
C561 C562 1.373 . S
C561 C563 1.389 . S
C562 H535 0.950 . S
C562 C548 1.377 . S
C562 C561 1.373 . S
C563 C547 1.377 . S
C563 C561 1.389 . S
C563 C564 1.524 . S
C564 C563 1.524 . S
C564 C565 1.397 . S
C564 C569 1.363 . S
C565 H536 0.950 . S
C565 C564 1.397 . S
C565 C566 1.334 . S
C566 H537 0.950 . S
C566 C565 1.334 . S
C566 C567 1.287 1_455 S
C567 C566 1.287 1_655 S
C567 C568 1.524 . S
C567 H570 0.999 . S
C568 H538 0.950 . S
C568 C567 1.524 . S
C568 C569 1.415 1_655 S
C569 H539 0.950 . S
C569 C564 1.363 . S
C569 C568 1.415 1_455 S
H570 C567 0.999 . S
H571 C552 0.913 . S
H572 C590 0.951 . S
H573 C592 0.951 . S
H574 C594 0.950 . S
H575 C595 0.950 . S
H576 C597 0.950 . S
H577 C600 0.950 . S
H578 C601 0.950 . S
H579 C603 0.950 . S
H580 C604 0.950 . S
H581 C605 0.951 . S
H582 C607 0.951 . S
H583 C609 0.950 . S
H584 C610 0.950 . S
H585 C612 0.950 . S
H586 C615 0.950 . S
H587 C616 0.950 . S
H588 C618 0.950 . S
H589 C619 0.950 . S
C590 H572 0.951 . S
C590 C591 1.366 . S
C590 C592 1.388 . S
C591 C590 1.366 . S
C591 C595 1.385 . S
C592 H573 0.951 . S
C592 C590 1.388 . S
C592 C593 1.366 . S
C593 C592 1.366 . S
C593 C594 1.414 . S
C593 C596 1.499 . S
C594 H574 0.950 . S
C594 C593 1.414 . S
C594 C595 1.374 . S
C595 H575 0.950 . S
C595 C591 1.385 . S
C595 C594 1.374 . S
C596 C593 1.499 . S
C596 C597 1.373 . S
C596 C598 1.389 . S
C597 H576 0.950 . S
C597 C596 1.373 . S
C597 C613 1.377 . S
C598 C596 1.389 . S
C598 C599 1.524 . S
C598 C612 1.377 . S
C599 C598 1.524 . S
C599 C600 1.397 . S
C599 C604 1.363 . S
C600 H577 0.950 . S
C600 C599 1.397 . S
C600 C601 1.334 . S
C601 H578 0.950 . S
C601 C600 1.334 . S
C601 C602 1.287 . S
C602 C601 1.287 . S
C602 C603 1.524 . S
C602 H621 0.913 . S
C603 H579 0.950 . S
C603 C602 1.524 . S
C603 C604 1.415 . S
C604 H580 0.950 . S
C604 C599 1.363 . S
C604 C603 1.415 . S
C605 H581 0.951 . S
C605 C606 1.366 . S
C605 C607 1.388 . S
C606 C605 1.366 . S
C606 C610 1.385 . S
C607 H582 0.951 . S
C607 C605 1.388 . S
C607 C608 1.366 . S
C608 C607 1.366 . S
C608 C609 1.414 . S
C608 C611 1.499 . S
C609 H583 0.950 . S
C609 C608 1.414 . S
C609 C610 1.374 . S
C610 H584 0.950 . S
C610 C606 1.385 . S
C610 C609 1.374 . S
C611 C608 1.499 . S
C611 C612 1.373 . S
C611 C613 1.389 . S
C612 H585 0.950 . S
C612 C598 1.377 . S
C612 C611 1.373 . S
C613 C597 1.377 . S
C613 C611 1.389 . S
C613 C614 1.524 . S
C614 C613 1.524 . S
C614 C615 1.397 . S
C614 C619 1.363 . S
C615 H586 0.950 . S
C615 C614 1.397 . S
C615 C616 1.334 . S
C616 H587 0.950 . S
C616 C615 1.334 . S
C616 C617 1.287 . S
C617 C616 1.287 . S
C617 C618 1.524 . S
C617 H620 0.999 . S
C618 H588 0.950 . S
C618 C617 1.524 . S
C618 C619 1.415 . S
C619 H589 0.950 . S
C619 C614 1.363 . S
C619 C618 1.415 . S
H620 C617 0.999 . S
H621 C602 0.913 . S
H622 C640 0.951 . S
H623 C642 0.951 . S
H624 C644 0.950 . S
H625 C645 0.950 . S
H626 C647 0.950 . S
H627 C650 0.950 . S
H628 C651 0.950 . S
H629 C653 0.950 . S
H630 C654 0.950 . S
H631 C655 0.951 . S
H632 C657 0.951 . S
H633 C659 0.950 . S
H634 C660 0.950 . S
H635 C662 0.950 . S
H636 C665 0.950 . S
H637 C666 0.950 . S
H638 C668 0.950 . S
H639 C669 0.950 . S
C640 H622 0.951 . S
C640 C641 1.366 . S
C640 C642 1.388 . S
C641 C640 1.366 . S
C641 C645 1.385 . S
C642 H623 0.951 . S
C642 C640 1.388 . S
C642 C643 1.366 . S
C643 C642 1.366 . S
C643 C644 1.414 . S
C643 C646 1.499 . S
C644 H624 0.950 . S
C644 C643 1.414 . S
C644 C645 1.374 . S
C645 H625 0.950 . S
C645 C641 1.385 . S
C645 C644 1.374 . S
C646 C643 1.499 . S
C646 C647 1.373 . S
C646 C648 1.389 . S
C647 H626 0.950 . S
C647 C646 1.373 . S
C647 C663 1.377 . S
C648 C646 1.389 . S
C648 C649 1.524 . S
C648 C662 1.377 . S
C649 C648 1.524 . S
C649 C650 1.397 . S
C649 C654 1.363 . S
C650 H627 0.950 . S
C650 C649 1.397 . S
C650 C651 1.334 . S
C651 H628 0.950 . S
C651 C650 1.334 . S
C651 C652 1.287 . S
C652 C651 1.287 . S
C652 C653 1.524 . S
C652 H671 0.913 . S
C653 H629 0.950 . S
C653 C652 1.524 . S
C653 C654 1.415 . S
C654 H630 0.950 . S
C654 C649 1.363 . S
C654 C653 1.415 . S
C655 H631 0.951 . S
C655 C656 1.366 . S
C655 C657 1.388 . S
C656 C655 1.366 . S
C656 C660 1.385 . S
C657 H632 0.951 . S
C657 C655 1.388 . S
C657 C658 1.366 . S
C658 C657 1.366 . S
C658 C659 1.414 . S
C658 C661 1.499 . S
C659 H633 0.950 . S
C659 C658 1.414 . S
C659 C660 1.374 . S
C660 H634 0.950 . S
C660 C656 1.385 . S
C660 C659 1.374 . S
C661 C658 1.499 . S
C661 C662 1.373 . S
C661 C663 1.389 . S
C662 H635 0.950 . S
C662 C648 1.377 . S
C662 C661 1.373 . S
C663 C647 1.377 . S
C663 C661 1.389 . S
C663 C664 1.524 . S
C664 C663 1.524 . S
C664 C665 1.397 . S
C664 C669 1.363 . S
C665 H636 0.950 . S
C665 C664 1.397 . S
C665 C666 1.334 . S
C666 H637 0.950 . S
C666 C665 1.334 . S
C666 C667 1.287 . S
C667 C666 1.287 . S
C667 C668 1.524 . S
C667 H670 0.999 . S
C668 H638 0.950 . S
C668 C667 1.524 . S
C668 C669 1.415 . S
C669 H639 0.950 . S
C669 C664 1.363 . S
C669 C668 1.415 . S
H670 C667 0.999 . S
H671 C652 0.913 . S
H672 C690 0.951 . S
H673 C692 0.951 . S
H674 C694 0.950 . S
H675 C695 0.950 1_455 S
H676 C697 0.950 . S
H677 C700 0.950 . S
H678 C701 0.950 . S
H679 C703 0.950 . S
H680 C704 0.950 . S
H681 C705 0.951 . S
H682 C707 0.951 . S
H683 C709 0.950 . S
H684 C710 0.950 . S
H685 C712 0.950 . S
H686 C715 0.950 . S
H687 C716 0.950 . S
H688 C718 0.950 . S
H689 C719 0.967 . S
C690 H672 0.951 . S
C690 C691 1.366 . S
C690 C692 1.388 . S
C691 C690 1.366 . S
C691 C695 1.385 . S
C692 H673 0.951 . S
C692 C690 1.388 . S
C692 C693 1.366 . S
C693 C692 1.366 . S
C693 C694 1.414 . S
C693 C696 1.499 . S
C694 H674 0.950 . S
C694 C693 1.414 . S
C694 C695 1.374 . S
C695 H675 0.950 1_655 S
C695 C691 1.385 . S
C695 C694 1.374 . S
C696 C693 1.499 . S
C696 C697 1.373 . S
C696 C698 1.389 . S
C697 H676 0.950 . S
C697 C696 1.373 . S
C697 C713 1.377 . S
C698 C696 1.389 . S
C698 C699 1.524 . S
C698 C712 1.377 . S
C699 C698 1.524 . S
C699 C700 1.397 . S
C699 C704 1.363 . S
C700 H677 0.950 . S
C700 C699 1.397 . S
C700 C701 1.334 1_556 S
C701 H678 0.950 . S
C701 C700 1.334 1_554 S
C701 C702 1.287 . S
C702 C701 1.287 . S
C702 C703 1.524 1_554 S
C702 H721 0.913 . S
C703 H679 0.950 . S
C703 C702 1.524 1_556 S
C703 C704 1.415 . S
C704 H680 0.950 . S
C704 C699 1.363 . S
C704 C703 1.415 . S
C705 H681 0.951 . S
C705 C706 1.366 . S
C705 C707 1.388 . S
C706 C705 1.366 . S
C706 C710 1.385 . S
C707 H682 0.951 . S
C707 C705 1.388 . S
C707 C708 1.366 . S
C708 C707 1.366 . S
C708 C709 1.414 . S
C708 C711 1.499 . S
C709 H683 0.950 . S
C709 C708 1.414 . S
C709 C710 1.374 . S
C710 H684 0.950 . S
C710 C706 1.385 . S
C710 C709 1.374 . S
C711 C708 1.499 . S
C711 C712 1.373 . S
C711 C713 1.389 . S
C712 H685 0.950 . S
C712 C698 1.377 . S
C712 C711 1.373 . S
C713 C697 1.377 . S
C713 C711 1.389 . S
C713 C714 1.524 . S
C714 C713 1.524 . S
C714 C715 1.397 . S
C714 C719 1.363 . S
C715 H686 0.950 . S
C715 C714 1.397 . S
C715 C716 1.334 . S
C716 H687 0.950 . S
C716 C715 1.334 . S
C716 C717 1.287 . S
C717 C716 1.287 . S
C717 C718 1.524 1_655 S
C717 H720 0.999 . S
C718 H688 0.950 . S
C718 C717 1.524 1_455 S
C718 C719 1.415 1_455 S
C719 H689 0.967 . S
C719 C714 1.363 . S
C719 C718 1.415 1_655 S
H720 C717 0.999 . S
H721 C702 0.913 . S
C141 C15 1.215 . S
C156 C99 1.131 . S
C191 C46 0.893 . S
C206 C105 0.848 . S
C241 C10 1.179 . S
C256 C96 1.112 . S
C291 C59 2.046 . S
C306 C121 1.923 . S
C341 C18 2.068 . S
C356 C87 1.974 . S
C406 C104 1.894 . S
C391 C58 1.977 . S
C441 C50 1.847 . S
C456 C100 1.745 . S
C506 C117 2.122 . S
C491 C9 2.196 . S
C556 C84 2.099 . S
C541 C49 2.252 . S
C606 C120 1.191 . S
C591 C6 1.299 . S
C656 C83 0.860 . S
C641 C55 0.900 . S
C706 C108 0.933 . S
C691 C19 0.991 . S
