# Generated by pormake.
# Topology gar, (4,6)-cn, num edge types: 1
# Building blocks:
#     Node 0, Type 0, BuildingBlock: UXUYUI_clean_sbu_0, # of connection points: 4
#     Node 1, Type 0, BuildingBlock: UXUYUI_clean_sbu_0, # of connection points: 4
#     Node 2, Type 0, BuildingBlock: UXUYUI_clean_sbu_0, # of connection points: 4
#     Node 3, Type 0, BuildingBlock: UXUYUI_clean_sbu_0, # of connection points: 4
#     Node 4, Type 0, BuildingBlock: UXUYUI_clean_sbu_0, # of connection points: 4
#     Node 5, Type 0, BuildingBlock: UXUYUI_clean_sbu_0, # of connection points: 4
#     Node 6, Type 0, BuildingBlock: UXUYUI_clean_sbu_0, # of connection points: 4
#     Node 7, Type 0, BuildingBlock: UXUYUI_clean_sbu_0, # of connection points: 4
#     Node 8, Type 0, BuildingBlock: UXUYUI_clean_sbu_0, # of connection points: 4
#     Node 9, Type 0, BuildingBlock: UXUYUI_clean_sbu_0, # of connection points: 4
#     Node 10, Type 0, BuildingBlock: UXUYUI_clean_sbu_0, # of connection points: 4
#     Node 11, Type 0, BuildingBlock: UXUYUI_clean_sbu_0, # of connection points: 4
#     Node 12, Type 0, BuildingBlock: UXUYUI_clean_sbu_0, # of connection points: 4
#     Node 13, Type 0, BuildingBlock: UXUYUI_clean_sbu_0, # of connection points: 4
#     Node 14, Type 0, BuildingBlock: UXUYUI_clean_sbu_0, # of connection points: 4
#     Node 15, Type 0, BuildingBlock: UXUYUI_clean_sbu_0, # of connection points: 4
#     Node 16, Type 0, BuildingBlock: UXUYUI_clean_sbu_0, # of connection points: 4
#     Node 17, Type 0, BuildingBlock: UXUYUI_clean_sbu_0, # of connection points: 4
#     Node 18, Type 0, BuildingBlock: UXUYUI_clean_sbu_0, # of connection points: 4
#     Node 19, Type 0, BuildingBlock: UXUYUI_clean_sbu_0, # of connection points: 4
#     Node 20, Type 0, BuildingBlock: UXUYUI_clean_sbu_0, # of connection points: 4
#     Node 21, Type 0, BuildingBlock: UXUYUI_clean_sbu_0, # of connection points: 4
#     Node 22, Type 0, BuildingBlock: UXUYUI_clean_sbu_0, # of connection points: 4
#     Node 23, Type 0, BuildingBlock: UXUYUI_clean_sbu_0, # of connection points: 4
#     Node 24, Type 1, BuildingBlock: KUMBUR_clean_sbu_0, # of connection points: 6
#     Node 25, Type 1, BuildingBlock: KUMBUR_clean_sbu_0, # of connection points: 6
#     Node 26, Type 1, BuildingBlock: KUMBUR_clean_sbu_0, # of connection points: 6
#     Node 27, Type 1, BuildingBlock: KUMBUR_clean_sbu_0, # of connection points: 6
#     Node 28, Type 1, BuildingBlock: KUMBUR_clean_sbu_0, # of connection points: 6
#     Node 29, Type 1, BuildingBlock: KUMBUR_clean_sbu_0, # of connection points: 6
#     Node 30, Type 1, BuildingBlock: KUMBUR_clean_sbu_0, # of connection points: 6
#     Node 31, Type 1, BuildingBlock: KUMBUR_clean_sbu_0, # of connection points: 6
#     Node 32, Type 1, BuildingBlock: KUMBUR_clean_sbu_0, # of connection points: 6
#     Node 33, Type 1, BuildingBlock: KUMBUR_clean_sbu_0, # of connection points: 6
#     Node 34, Type 1, BuildingBlock: KUMBUR_clean_sbu_0, # of connection points: 6
#     Node 35, Type 1, BuildingBlock: KUMBUR_clean_sbu_0, # of connection points: 6
#     Node 36, Type 1, BuildingBlock: KUMBUR_clean_sbu_0, # of connection points: 6
#     Node 37, Type 1, BuildingBlock: KUMBUR_clean_sbu_0, # of connection points: 6
#     Node 38, Type 1, BuildingBlock: KUMBUR_clean_sbu_0, # of connection points: 6
#     Node 39, Type 1, BuildingBlock: KUMBUR_clean_sbu_0, # of connection points: 6
#     Edge 40, Type (0, 1), BuildingBlock: OJICUG_clean_linker_0, # of connection points: 2
#     Edge 41, Type (0, 1), BuildingBlock: OJICUG_clean_linker_0, # of connection points: 2
#     Edge 42, Type (0, 1), BuildingBlock: OJICUG_clean_linker_0, # of connection points: 2
#     Edge 43, Type (0, 1), BuildingBlock: OJICUG_clean_linker_0, # of connection points: 2
#     Edge 44, Type (0, 1), BuildingBlock: OJICUG_clean_linker_0, # of connection points: 2
#     Edge 45, Type (0, 1), BuildingBlock: OJICUG_clean_linker_0, # of connection points: 2
#     Edge 46, Type (0, 1), BuildingBlock: OJICUG_clean_linker_0, # of connection points: 2
#     Edge 47, Type (0, 1), BuildingBlock: OJICUG_clean_linker_0, # of connection points: 2
#     Edge 48, Type (0, 1), BuildingBlock: OJICUG_clean_linker_0, # of connection points: 2
#     Edge 49, Type (0, 1), BuildingBlock: OJICUG_clean_linker_0, # of connection points: 2
#     Edge 50, Type (0, 1), BuildingBlock: OJICUG_clean_linker_0, # of connection points: 2
#     Edge 51, Type (0, 1), BuildingBlock: OJICUG_clean_linker_0, # of connection points: 2
#     Edge 52, Type (0, 1), BuildingBlock: OJICUG_clean_linker_0, # of connection points: 2
#     Edge 53, Type (0, 1), BuildingBlock: OJICUG_clean_linker_0, # of connection points: 2
#     Edge 54, Type (0, 1), BuildingBlock: OJICUG_clean_linker_0, # of connection points: 2
#     Edge 55, Type (0, 1), BuildingBlock: OJICUG_clean_linker_0, # of connection points: 2
#     Edge 56, Type (0, 1), BuildingBlock: OJICUG_clean_linker_0, # of connection points: 2
#     Edge 57, Type (0, 1), BuildingBlock: OJICUG_clean_linker_0, # of connection points: 2
#     Edge 58, Type (0, 1), BuildingBlock: OJICUG_clean_linker_0, # of connection points: 2
#     Edge 59, Type (0, 1), BuildingBlock: OJICUG_clean_linker_0, # of connection points: 2
#     Edge 60, Type (0, 1), BuildingBlock: OJICUG_clean_linker_0, # of connection points: 2
#     Edge 61, Type (0, 1), BuildingBlock: OJICUG_clean_linker_0, # of connection points: 2
#     Edge 62, Type (0, 1), BuildingBlock: OJICUG_clean_linker_0, # of connection points: 2
#     Edge 63, Type (0, 1), BuildingBlock: OJICUG_clean_linker_0, # of connection points: 2
#     Edge 64, Type (0, 1), BuildingBlock: OJICUG_clean_linker_0, # of connection points: 2
#     Edge 65, Type (0, 1), BuildingBlock: OJICUG_clean_linker_0, # of connection points: 2
#     Edge 66, Type (0, 1), BuildingBlock: OJICUG_clean_linker_0, # of connection points: 2
#     Edge 67, Type (0, 1), BuildingBlock: OJICUG_clean_linker_0, # of connection points: 2
#     Edge 68, Type (0, 1), BuildingBlock: OJICUG_clean_linker_0, # of connection points: 2
#     Edge 69, Type (0, 1), BuildingBlock: OJICUG_clean_linker_0, # of connection points: 2
#     Edge 70, Type (0, 1), BuildingBlock: OJICUG_clean_linker_0, # of connection points: 2
#     Edge 71, Type (0, 1), BuildingBlock: OJICUG_clean_linker_0, # of connection points: 2
#     Edge 72, Type (0, 1), BuildingBlock: OJICUG_clean_linker_0, # of connection points: 2
#     Edge 73, Type (0, 1), BuildingBlock: OJICUG_clean_linker_0, # of connection points: 2
#     Edge 74, Type (0, 1), BuildingBlock: OJICUG_clean_linker_0, # of connection points: 2
#     Edge 75, Type (0, 1), BuildingBlock: OJICUG_clean_linker_0, # of connection points: 2
#     Edge 76, Type (0, 1), BuildingBlock: OJICUG_clean_linker_0, # of connection points: 2
#     Edge 77, Type (0, 1), BuildingBlock: OJICUG_clean_linker_0, # of connection points: 2
#     Edge 78, Type (0, 1), BuildingBlock: OJICUG_clean_linker_0, # of connection points: 2
#     Edge 79, Type (0, 1), BuildingBlock: OJICUG_clean_linker_0, # of connection points: 2
#     Edge 80, Type (0, 1), BuildingBlock: OJICUG_clean_linker_0, # of connection points: 2
#     Edge 81, Type (0, 1), BuildingBlock: OJICUG_clean_linker_0, # of connection points: 2
#     Edge 82, Type (0, 1), BuildingBlock: OJICUG_clean_linker_0, # of connection points: 2
#     Edge 83, Type (0, 1), BuildingBlock: OJICUG_clean_linker_0, # of connection points: 2
#     Edge 84, Type (0, 1), BuildingBlock: OJICUG_clean_linker_0, # of connection points: 2
#     Edge 85, Type (0, 1), BuildingBlock: OJICUG_clean_linker_0, # of connection points: 2
#     Edge 86, Type (0, 1), BuildingBlock: OJICUG_clean_linker_0, # of connection points: 2
#     Edge 87, Type (0, 1), BuildingBlock: OJICUG_clean_linker_0, # of connection points: 2
#     Edge 88, Type (0, 1), BuildingBlock: OJICUG_clean_linker_0, # of connection points: 2
#     Edge 89, Type (0, 1), BuildingBlock: OJICUG_clean_linker_0, # of connection points: 2
#     Edge 90, Type (0, 1), BuildingBlock: OJICUG_clean_linker_0, # of connection points: 2
#     Edge 91, Type (0, 1), BuildingBlock: OJICUG_clean_linker_0, # of connection points: 2
#     Edge 92, Type (0, 1), BuildingBlock: OJICUG_clean_linker_0, # of connection points: 2
#     Edge 93, Type (0, 1), BuildingBlock: OJICUG_clean_linker_0, # of connection points: 2
#     Edge 94, Type (0, 1), BuildingBlock: OJICUG_clean_linker_0, # of connection points: 2
#     Edge 95, Type (0, 1), BuildingBlock: OJICUG_clean_linker_0, # of connection points: 2
#     Edge 96, Type (0, 1), BuildingBlock: OJICUG_clean_linker_0, # of connection points: 2
#     Edge 97, Type (0, 1), BuildingBlock: OJICUG_clean_linker_0, # of connection points: 2
#     Edge 98, Type (0, 1), BuildingBlock: OJICUG_clean_linker_0, # of connection points: 2
#     Edge 99, Type (0, 1), BuildingBlock: OJICUG_clean_linker_0, # of connection points: 2
#     Edge 100, Type (0, 1), BuildingBlock: OJICUG_clean_linker_0, # of connection points: 2
#     Edge 101, Type (0, 1), BuildingBlock: OJICUG_clean_linker_0, # of connection points: 2
#     Edge 102, Type (0, 1), BuildingBlock: OJICUG_clean_linker_0, # of connection points: 2
#     Edge 103, Type (0, 1), BuildingBlock: OJICUG_clean_linker_0, # of connection points: 2
#     Edge 104, Type (0, 1), BuildingBlock: OJICUG_clean_linker_0, # of connection points: 2
#     Edge 105, Type (0, 1), BuildingBlock: OJICUG_clean_linker_0, # of connection points: 2
#     Edge 106, Type (0, 1), BuildingBlock: OJICUG_clean_linker_0, # of connection points: 2
#     Edge 107, Type (0, 1), BuildingBlock: OJICUG_clean_linker_0, # of connection points: 2
#     Edge 108, Type (0, 1), BuildingBlock: OJICUG_clean_linker_0, # of connection points: 2
#     Edge 109, Type (0, 1), BuildingBlock: OJICUG_clean_linker_0, # of connection points: 2
#     Edge 110, Type (0, 1), BuildingBlock: OJICUG_clean_linker_0, # of connection points: 2
#     Edge 111, Type (0, 1), BuildingBlock: OJICUG_clean_linker_0, # of connection points: 2
#     Edge 112, Type (0, 1), BuildingBlock: OJICUG_clean_linker_0, # of connection points: 2
#     Edge 113, Type (0, 1), BuildingBlock: OJICUG_clean_linker_0, # of connection points: 2
#     Edge 114, Type (0, 1), BuildingBlock: OJICUG_clean_linker_0, # of connection points: 2
#     Edge 115, Type (0, 1), BuildingBlock: OJICUG_clean_linker_0, # of connection points: 2
#     Edge 116, Type (0, 1), BuildingBlock: OJICUG_clean_linker_0, # of connection points: 2
#     Edge 117, Type (0, 1), BuildingBlock: OJICUG_clean_linker_0, # of connection points: 2
#     Edge 118, Type (0, 1), BuildingBlock: OJICUG_clean_linker_0, # of connection points: 2
#     Edge 119, Type (0, 1), BuildingBlock: OJICUG_clean_linker_0, # of connection points: 2
#     Edge 120, Type (0, 1), BuildingBlock: OJICUG_clean_linker_0, # of connection points: 2
#     Edge 121, Type (0, 1), BuildingBlock: OJICUG_clean_linker_0, # of connection points: 2
#     Edge 122, Type (0, 1), BuildingBlock: OJICUG_clean_linker_0, # of connection points: 2
#     Edge 123, Type (0, 1), BuildingBlock: OJICUG_clean_linker_0, # of connection points: 2
#     Edge 124, Type (0, 1), BuildingBlock: OJICUG_clean_linker_0, # of connection points: 2
#     Edge 125, Type (0, 1), BuildingBlock: OJICUG_clean_linker_0, # of connection points: 2
#     Edge 126, Type (0, 1), BuildingBlock: OJICUG_clean_linker_0, # of connection points: 2
#     Edge 127, Type (0, 1), BuildingBlock: OJICUG_clean_linker_0, # of connection points: 2
#     Edge 128, Type (0, 1), BuildingBlock: OJICUG_clean_linker_0, # of connection points: 2
#     Edge 129, Type (0, 1), BuildingBlock: OJICUG_clean_linker_0, # of connection points: 2
#     Edge 130, Type (0, 1), BuildingBlock: OJICUG_clean_linker_0, # of connection points: 2
#     Edge 131, Type (0, 1), BuildingBlock: OJICUG_clean_linker_0, # of connection points: 2
#     Edge 132, Type (0, 1), BuildingBlock: OJICUG_clean_linker_0, # of connection points: 2
#     Edge 133, Type (0, 1), BuildingBlock: OJICUG_clean_linker_0, # of connection points: 2
#     Edge 134, Type (0, 1), BuildingBlock: OJICUG_clean_linker_0, # of connection points: 2
#     Edge 135, Type (0, 1), BuildingBlock: OJICUG_clean_linker_0, # of connection points: 2
# Relax obj value: 0.151
# Max RMSD: 0.325
# Mean RMSD: 0.197
data_MOF--net-gar--node1-UXUYUI_clean_sbu_0--node2-KUMBUR_clean_sbu_0--edge1-OJICUG_clean_linker_0
_symmetry_space_group_name_H-M    P1
_symmetry_Int_Tables_number       1
_symmetry_cell_setting            triclinic
loop_
_symmetry_equiv_pos_as_xyz
'x, y, z'
_cell_length_a     59.106111
_cell_length_b     54.523738
_cell_length_c     54.419199
_cell_angle_alpha  100.5574
_cell_angle_beta   93.6226
_cell_angle_gamma 102.38099
loop_
_atom_site_label
_atom_site_type_symbol
_atom_site_fract_x
_atom_site_fract_y
_atom_site_fract_z
_atom_type_partial_charge
Li0 Li 0.09792 0.31961 0.36081 0.0
Li1 Li 0.11766 0.34658 0.39977 0.0
Li2 Li 0.14063 0.32295 0.37265 0.0
Li3 Li 0.11252 0.30104 0.39735 0.0
C4 C 0.13331 0.37545 0.36747 0.0
N5 N 0.1506 0.42782 0.37441 0.0
C6 C 0.15209 0.3878 0.3856 0.0
C7 C 0.12362 0.3897 0.35256 0.0
C8 C 0.16049 0.41429 0.38892 0.0
C9 C 0.13254 0.41617 0.35643 0.0
C10 C 0.07296 0.32722 0.41121 0.0
C11 C 0.06212 0.33537 0.45343 0.0
N12 N 0.04245 0.34147 0.44455 0.0
C13 C 0.05245 0.33321 0.40246 0.0
C14 C 0.07768 0.328 0.43685 0.0
C15 C 0.03733 0.34051 0.41963 0.0
C16 C 0.06045 0.29754 0.31981 0.0
N17 N 0.07291 0.31854 0.33651 0.0
C18 C 0.04788 0.34422 0.32421 0.0
C19 C 0.06701 0.34152 0.33883 0.0
C20 C 0.03441 0.32298 0.30695 0.0
C21 C 0.04093 0.29935 0.30474 0.0
H22 H 0.06533 0.27937 0.31859 0.0
H23 H 0.0767 0.35759 0.35287 0.0
C24 C 0.13033 0.38995 0.44168 0.0
N25 N 0.11547 0.37763 0.42087 0.0
C26 C 0.12631 0.41204 0.45661 0.0
C27 C 0.09207 0.40824 0.42813 0.0
C28 C 0.09702 0.38671 0.41361 0.0
C29 C 0.10674 0.42128 0.45005 0.0
H30 H 0.14528 0.38271 0.44663 0.0
H31 H 0.08582 0.37682 0.39669 0.0
C32 C 0.12087 0.27866 0.33835 0.0
N33 N 0.13505 0.25519 0.2945 0.0
C34 C 0.12644 0.25481 0.33676 0.0
C35 C 0.12235 0.29051 0.31762 0.0
C36 C 0.13362 0.24327 0.31442 0.0
C37 C 0.12959 0.27835 0.29562 0.0
C38 C 0.15391 0.3262 0.43041 0.0
C39 C 0.1745 0.31765 0.42807 0.0
C40 C 0.14659 0.33227 0.45424 0.0
C41 C 0.18713 0.31479 0.44953 0.0
C42 C 0.15968 0.32914 0.47525 0.0
N43 N 0.1795 0.32051 0.47248 0.0
C44 C 0.17864 0.30123 0.35818 0.0
C45 C 0.18231 0.34399 0.35297 0.0
C46 C 0.20042 0.30086 0.34973 0.0
N47 N 0.17006 0.32264 0.35975 0.0
C48 C 0.20438 0.34469 0.34499 0.0
C49 C 0.21386 0.32294 0.34328 0.0
H50 H 0.16871 0.28453 0.36388 0.0
H51 H 0.17516 0.36069 0.35399 0.0
C52 C 0.08219 0.26698 0.42018 0.0
N53 N 0.10498 0.27514 0.41683 0.0
C54 C 0.07595 0.25205 0.43805 0.0
C55 C 0.11663 0.25293 0.44767 0.0
C56 C 0.12204 0.26759 0.42941 0.0
C57 C 0.09338 0.24552 0.45258 0.0
H58 H 0.06891 0.27299 0.40975 0.0
H59 H 0.13995 0.2736 0.4259 0.0
O60 O 0.1246 0.34953 0.36428 0.0
O61 O 0.08814 0.32032 0.39468 0.0
O62 O 0.11476 0.29076 0.36036 0.0
O63 O 0.1413 0.32899 0.40951 0.0
H64 H 0.15996 0.37704 0.39716 0.0
H65 H 0.10953 0.38046 0.33796 0.0
H66 H 0.17486 0.42409 0.40304 0.0
H67 H 0.12514 0.42743 0.34508 0.0
H68 H 0.06565 0.33614 0.47334 0.0
H69 H 0.04825 0.3323 0.38266 0.0
H70 H 0.09307 0.32276 0.44386 0.0
H71 H 0.0215 0.34537 0.41313 0.0
H72 H 0.04322 0.36261 0.32711 0.0
H73 H 0.031 0.28249 0.29165 0.0
H74 H 0.13841 0.42175 0.47301 0.0
H75 H 0.07655 0.41418 0.42241 0.0
H76 H 0.12551 0.24549 0.35273 0.0
H77 H 0.11824 0.30907 0.31864 0.0
H78 H 0.13814 0.22489 0.31295 0.0
H79 H 0.13096 0.28736 0.27948 0.0
H80 H 0.18063 0.31313 0.40989 0.0
H81 H 0.13107 0.33948 0.45659 0.0
H82 H 0.203 0.30802 0.44794 0.0
H83 H 0.15413 0.33367 0.49377 0.0
H84 H 0.20656 0.28337 0.34827 0.0
H85 H 0.21398 0.36237 0.34071 0.0
H86 H 0.05781 0.2466 0.44119 0.0
H87 H 0.13051 0.24772 0.45806 0.0
Li88 Li 0.02121 0.79408 0.65969 0.0
Li89 Li 0.03804 0.7779 0.69578 0.0
Li90 Li 0.01333 0.74863 0.66014 0.0
Li91 Li 0.9959 0.77537 0.68986 0.0
C92 C 0.05334 0.76048 0.64044 0.0
N93 N 0.07088 0.73398 0.60064 0.0
C94 C 0.07087 0.74775 0.64492 0.0
C95 C 0.04484 0.75989 0.61572 0.0
C96 C 0.07947 0.73441 0.62454 0.0
C97 C 0.05392 0.74637 0.59586 0.0
C98 C 0.02354 0.81995 0.72178 0.0
C99 C 0.02062 0.81899 0.76562 0.0
N100 N 0.02676 0.84506 0.77126 0.0
C101 C 0.02981 0.84671 0.728 0.0
C102 C 0.01892 0.80595 0.74072 0.0
C103 C 0.03136 0.85905 0.75313 0.0
C104 C 1.00906 0.82251 0.62434 0.0
N105 N 0.02712 0.81754 0.63778 0.0
C106 C 0.05452 0.8404 0.61474 0.0
C107 C 0.04955 0.82644 0.63363 0.0
C108 C 0.0362 0.84514 0.5999 0.0
C109 C 0.01322 0.83632 0.6052 0.0
H110 H 0.99138 0.81496 0.62791 0.0
H111 H 0.06355 0.82195 0.64446 0.0
C112 C 0.06879 0.75551 0.71654 0.0
N113 N 0.06449 0.77914 0.71778 0.0
C114 C 0.08838 0.75238 0.72998 0.0
C115 C 0.0989 0.79812 0.74624 0.0
C116 C 0.07893 0.80038 0.7323 0.0
C117 C 0.10385 0.77381 0.74506 0.0
H118 H 0.05717 0.73907 0.70454 0.0
H119 H 0.07518 0.81902 0.73274 0.0
C120 C 0.97152 0.75467 0.63735 0.0
N121 N 0.93218 0.72584 0.60672 0.0
C122 C 0.95438 0.73831 0.64704 0.0
C123 C 0.96853 0.75658 0.61213 0.0
C124 C 0.93465 0.72384 0.63124 0.0
C125 C 0.94856 0.74178 0.59693 0.0
C126 C 1.00318 0.72892 0.70699 0.0
C127 C 0.98546 0.70853 0.69395 0.0
C128 C 0.01176 0.72873 0.73148 0.0
C129 C 0.97645 0.68839 0.70573 0.0
C130 C 1.00228 0.70824 0.74261 0.0
N131 N 0.98496 0.68867 0.72962 0.0
C132 C 0.02466 0.70193 0.65124 0.0
C133 C 1.00283 0.70818 0.61579 0.0
C134 C 0.02931 0.67985 0.63735 0.0
N135 N 0.01202 0.71583 0.64024 0.0
C136 C 1.00689 0.686 0.60118 0.0
C137 C 0.0208 0.67187 0.61181 0.0
H138 H 0.03231 0.70886 0.67048 0.0
H139 H 0.9935 0.71992 0.6072 0.0
C140 C 0.95516 0.79216 0.69727 0.0
N141 N 0.96817 0.77705 0.70565 0.0
C142 C 0.93308 0.79202 0.70497 0.0
C143 C 0.93837 0.76128 0.73037 0.0
C144 C 0.96051 0.76228 0.72241 0.0
C145 C 0.92408 0.77585 0.72119 0.0
H146 H 0.96171 0.80375 0.68398 0.0
H147 H 0.97117 0.75062 0.72909 0.0
O148 O 0.04403 0.7728 0.66013 0.0
O149 O 0.02212 0.80764 0.69727 0.0
O150 O 0.99086 0.76926 0.65252 0.0
O151 O 0.01237 0.74884 0.69583 0.0
H152 H 0.07759 0.74796 0.66392 0.0
H153 H 0.03103 0.76932 0.61191 0.0
H154 H 0.09292 0.72432 0.62773 0.0
H155 H 0.04737 0.74556 0.57664 0.0
H156 H 0.01707 0.80839 0.78045 0.0
H157 H 0.0335 0.85781 0.71354 0.0
H158 H 0.01408 0.78526 0.73628 0.0
H159 H 0.03622 0.87976 0.75823 0.0
H160 H 0.07252 0.8472 0.61168 0.0
H161 H 0.99852 0.83928 0.59414 0.0
H162 H 0.09169 0.73337 0.72791 0.0
H163 H 0.11035 0.81515 0.75768 0.0
H164 H 0.95618 0.73684 0.66655 0.0
H165 H 0.98164 0.7691 0.60429 0.0
H166 H 0.92128 0.71106 0.6385 0.0
H167 H 0.9461 0.74294 0.57735 0.0
H168 H 0.97888 0.70809 0.67486 0.0
H169 H 0.02553 0.7443 0.74183 0.0
H170 H 0.96274 0.67249 0.69586 0.0
H171 H 1.0087 0.70789 0.76158 0.0
H172 H 0.04052 0.66997 0.64625 0.0
H173 H 0.99982 0.68043 0.5816 0.0
H174 H 0.92305 0.8042 0.69795 0.0
H175 H 0.93226 0.7485 0.74283 0.0
Li176 Li 0.58935 0.81687 0.8574 0.0
Li177 Li 0.61346 0.84482 0.89394 0.0
Li178 Li 0.62911 0.81683 0.86303 0.0
Li179 Li 0.60455 0.79879 0.89206 0.0
C180 C 0.61031 0.8568 0.83866 0.0
N181 N 0.59744 0.87788 0.79895 0.0
C182 C 0.60723 0.88189 0.843 0.0
C183 C 0.60731 0.84266 0.81404 0.0
C184 C 0.60062 0.89216 0.8227 0.0
C185 C 0.60066 0.85357 0.79425 0.0
C186 C 0.57365 0.82641 0.91522 0.0
C187 C 0.5779 0.83432 0.96054 0.0
N188 N 0.55544 0.83666 0.9605 0.0
C189 C 0.55064 0.82893 0.91562 0.0
C190 C 0.58744 0.82919 0.93784 0.0
C191 C 0.54175 0.8341 0.93871 0.0
C192 C 0.55599 0.8013 0.81271 0.0
N193 N 0.56322 0.81708 0.83554 0.0
C194 C 0.53545 0.84177 0.82903 0.0
C195 C 0.55318 0.83676 0.84396 0.0
C196 C 0.5278 0.82624 0.80517 0.0
C197 C 0.53799 0.80549 0.79712 0.0
H198 H 0.56455 0.78598 0.80639 0.0
H199 H 0.55939 0.84897 0.86214 0.0
C200 C 0.62998 0.88607 0.93743 0.0
N201 N 0.61532 0.87639 0.9159 0.0
C202 C 0.62771 0.90845 0.95337 0.0
C203 C 0.59518 0.90987 0.92477 0.0
C204 C 0.5981 0.88767 0.90953 0.0
C205 C 0.61008 0.92058 0.94701 0.0
H206 H 0.64298 0.87616 0.94259 0.0
H207 H 0.58615 0.8789 0.89287 0.0
C208 C 0.61275 0.76798 0.84231 0.0
N209 N 0.63513 0.73279 0.81732 0.0
C210 C 0.62054 0.75062 0.85482 0.0
C211 C 0.61599 0.76714 0.81697 0.0
C212 C 0.63187 0.73302 0.84187 0.0
C213 C 0.62748 0.74933 0.80471 0.0
C214 C 0.65756 0.83795 0.90773 0.0
C215 C 0.66506 0.86024 0.89834 0.0
C216 C 0.67306 0.83054 0.92381 0.0
C217 C 0.68783 0.87476 0.90532 0.0
C218 C 0.69569 0.84558 0.93034 0.0
N219 N 0.70255 0.86719 0.92104 0.0
C220 C 0.66415 0.83229 0.83226 0.0
C221 C 0.66965 0.7992 0.85319 0.0
C222 C 0.68564 0.8334 0.82276 0.0
N223 N 0.65663 0.81538 0.84715 0.0
C224 C 0.69111 0.79945 0.8439 0.0
C225 C 0.69956 0.81703 0.82881 0.0
H226 H 0.65395 0.84564 0.8285 0.0
H227 H 0.66365 0.78659 0.86578 0.0
C228 C 0.57497 0.76268 0.91426 0.0
N229 N 0.59745 0.77496 0.91356 0.0
C230 C 0.56924 0.74827 0.93268 0.0
C231 C 0.60992 0.75908 0.94894 0.0
C232 C 0.61486 0.77315 0.93017 0.0
C233 C 0.5868 0.74671 0.95061 0.0
H234 H 0.56142 0.76488 0.90108 0.0
H235 H 0.63251 0.78326 0.92926 0.0
O236 O 0.61637 0.8462 0.85836 0.0
O237 O 0.58275 0.82191 0.89277 0.0
O238 O 0.60199 0.78562 0.85482 0.0
O239 O 0.63552 0.82292 0.90062 0.0
H240 H 0.61011 0.89344 0.86178 0.0
H241 H 0.60986 0.82335 0.81031 0.0
H242 H 0.59808 0.91151 0.82583 0.0
H243 H 0.59803 0.8427 0.77515 0.0
H244 H 0.58837 0.83654 0.97818 0.0
H245 H 0.5398 0.82699 0.89826 0.0
H246 H 0.60538 0.82761 0.9379 0.0
H247 H 0.52397 0.83611 0.9393 0.0
H248 H 0.52772 0.8576 0.83618 0.0
H249 H 0.53249 0.79307 0.77883 0.0
H250 H 0.63944 0.91606 0.97047 0.0
H251 H 0.58091 0.9181 0.91953 0.0
H252 H 0.6181 0.75091 0.87439 0.0
H253 H 0.60981 0.78017 0.80689 0.0
H254 H 0.63814 0.71962 0.85138 0.0
H255 H 0.63031 0.74864 0.78517 0.0
H256 H 0.65352 0.86641 0.88584 0.0
H257 H 0.66776 0.81327 0.9311 0.0
H258 H 0.69381 0.89203 0.8982 0.0
H259 H 0.70783 0.84003 0.94276 0.0
H260 H 0.69162 0.84757 0.81161 0.0
H261 H 0.7011 0.78624 0.84882 0.0
H262 H 0.55117 0.73918 0.93341 0.0
H263 H 0.62403 0.75803 0.96211 0.0
Li264 Li 0.51784 0.29129 0.16167 0.0
Li265 Li 0.5365 0.27212 0.19639 0.0
Li266 Li 0.51345 0.24527 0.15802 0.0
Li267 Li 0.4942 0.26641 0.18891 0.0
C268 C 0.55443 0.26243 0.14185 0.0
N269 N 0.57685 0.24129 0.10318 0.0
C270 C 0.57318 0.25168 0.14712 0.0
C271 C 0.54727 0.26271 0.11696 0.0
C272 C 0.58424 0.24101 0.12729 0.0
C273 C 0.55878 0.25186 0.09766 0.0
C274 C 0.50686 0.31207 0.21698 0.0
C275 C 0.49548 0.32028 0.2589 0.0
N276 N 0.48157 0.33505 0.25143 0.0
C277 C 0.49247 0.3273 0.20968 0.0
C278 C 0.50843 0.3085 0.24175 0.0
C279 C 0.47979 0.33874 0.22739 0.0
C280 C 0.50554 0.32312 0.12904 0.0
N281 N 0.52335 0.31764 0.14247 0.0
C282 C 0.55138 0.34375 0.12258 0.0
C283 C 0.54594 0.32799 0.13995 0.0
C284 C 0.5334 0.34873 0.10748 0.0
C285 C 0.5102 0.33859 0.11123 0.0
H286 H 0.48773 0.31453 0.13133 0.0
H287 H 0.55976 0.32304 0.15064 0.0
C288 C 0.56799 0.24999 0.21718 0.0
N289 N 0.5632 0.27339 0.21822 0.0
C290 C 0.58796 0.24745 0.23043 0.0
C291 C 0.59777 0.29326 0.24622 0.0
C292 C 0.57746 0.29493 0.23246 0.0
C293 C 0.6033 0.26923 0.24516 0.0
H294 H 0.55653 0.23328 0.20542 0.0
H295 H 0.57329 0.31336 0.23279 0.0
C296 C 0.47293 0.25225 0.13221 0.0
N297 N 0.43987 0.22894 0.09177 0.0
C298 C 0.45255 0.23519 0.13548 0.0
C299 C 0.47629 0.25776 0.10842 0.0
C300 C 0.43612 0.2235 0.11479 0.0
C301 C 0.45942 0.24571 0.0882 0.0
C302 C 0.50066 0.21809 0.19787 0.0
C303 C 0.48189 0.20261 0.1813 0.0
C304 C 0.50763 0.2101 0.21954 0.0
C305 C 0.47019 0.17946 0.18681 0.0
C306 C 0.49548 0.18684 0.22441 0.0
N307 N 0.47715 0.17213 0.20809 0.0
C308 C 0.5296 0.2023 0.14656 0.0
C309 C 0.50488 0.2057 0.11195 0.0
C310 C 0.53552 0.18108 0.13258 0.0
N311 N 0.51485 0.21439 0.13606 0.0
C312 C 0.51015 0.18422 0.09724 0.0
C313 C 0.52595 0.17188 0.10748 0.0
H314 H 0.5376 0.2099 0.16559 0.0
H315 H 0.49343 0.21567 0.10381 0.0
C316 C 0.44861 0.27187 0.19619 0.0
N317 N 0.46632 0.26282 0.20546 0.0
C318 C 0.4275 0.26868 0.20667 0.0
C319 C 0.44301 0.24655 0.23593 0.0
C320 C 0.46405 0.25073 0.22524 0.0
C321 C 0.42423 0.25559 0.22673 0.0
H322 H 0.45094 0.28167 0.18063 0.0
H323 H 0.47852 0.24425 0.23277 0.0
O324 O 0.54282 0.27214 0.16091 0.0
O325 O 0.51905 0.30032 0.19981 0.0
O326 O 0.48898 0.26437 0.15237 0.0
O327 O 0.51239 0.24088 0.19291 0.0
H328 H 0.57896 0.25133 0.16628 0.0
H329 H 0.53279 0.27094 0.11257 0.0
H330 H 0.59865 0.23244 0.13107 0.0
H331 H 0.55329 0.25176 0.07829 0.0
H332 H 0.49642 0.31764 0.27813 0.0
H333 H 0.491 0.33006 0.19049 0.0
H334 H 0.51942 0.2966 0.24758 0.0
H335 H 0.46849 0.3505 0.22203 0.0
H336 H 0.56949 0.35096 0.12019 0.0
H337 H 0.49582 0.3422 0.10019 0.0
H338 H 0.59167 0.22862 0.22845 0.0
H339 H 0.60903 0.31055 0.25744 0.0
H340 H 0.44932 0.23115 0.15383 0.0
H341 H 0.49186 0.27095 0.10547 0.0
H342 H 0.42032 0.21019 0.11706 0.0
H343 H 0.46189 0.24966 0.06966 0.0
H344 H 0.47657 0.20825 0.16425 0.0
H345 H 0.52214 0.22188 0.23259 0.0
H346 H 0.45562 0.16729 0.17413 0.0
H347 H 0.5006 0.18048 0.24118 0.0
H348 H 0.54818 0.17263 0.14116 0.0
H349 H 0.50218 0.1776 0.07802 0.0
H350 H 0.41414 0.277 0.19932 0.0
H351 H 0.44163 0.23628 0.25119 0.0
Li352 Li 0.10533 0.84206 0.10484 0.0
Li353 Li 0.12898 0.82416 0.13925 0.0
Li354 Li 0.1023 0.79248 0.10458 0.0
Li355 Li 0.08546 0.81803 0.1379 0.0
C356 C 0.14001 0.80795 0.08236 0.0
N357 N 0.15755 0.77988 0.04364 0.0
C358 C 0.15319 0.79066 0.08736 0.0
C359 C 0.13583 0.81107 0.05769 0.0
C360 C 0.16187 0.77661 0.06753 0.0
C361 C 0.14484 0.79669 0.03836 0.0
C362 C 0.12459 0.87141 0.15884 0.0
C363 C 0.14213 0.89385 0.20031 0.0
N364 N 0.15611 0.91158 0.18996 0.0
C365 C 0.13915 0.88979 0.1486 0.0
C366 C 0.12607 0.87339 0.18489 0.0
C367 C 0.15496 0.90999 0.16466 0.0
C368 C 0.08663 0.88701 0.10026 0.0
N369 N 0.10144 0.87343 0.08902 0.0
C370 C 0.10818 0.90357 0.06065 0.0
C371 C 0.1121 0.88148 0.06931 0.0
C372 C 0.09323 0.91825 0.07227 0.0
C373 C 0.08234 0.9091 0.09231 0.0
H374 H 0.07802 0.88076 0.11575 0.0
H375 H 0.12391 0.87099 0.06024 0.0
C376 C 0.15832 0.82752 0.18634 0.0
N377 N 0.15909 0.82813 0.16144 0.0
C378 C 0.17816 0.82657 0.20166 0.0
C379 C 0.20004 0.82774 0.16603 0.0
C380 C 0.17972 0.82867 0.15135 0.0
C381 C 0.19957 0.82625 0.19166 0.0
H382 H 0.14213 0.82719 0.19445 0.0
H383 H 0.18043 0.82928 0.13167 0.0
C384 C 0.06417 0.80061 0.07802 0.0
N385 N 0.03835 0.77767 0.03234 0.0
C386 C 0.04476 0.78038 0.07664 0.0
C387 C 0.07039 0.80922 0.0562 0.0
C388 C 0.03193 0.76904 0.05337 0.0
C389 C 0.05715 0.79734 0.03327 0.0
C390 C 0.09228 0.77902 0.15603 0.0
C391 C 0.07692 0.75557 0.14542 0.0
C392 C 0.09366 0.78854 0.18188 0.0
C393 C 0.06364 0.74182 0.16092 0.0
C394 C 0.08003 0.77428 0.19673 0.0
N395 N 0.06546 0.75138 0.18604 0.0
C396 C 0.1124 0.74275 0.09995 0.0
C397 C 0.08605 0.74202 0.06535 0.0
C398 C 0.11009 0.71607 0.09305 0.0
N399 N 0.09999 0.75539 0.0867 0.0
C400 C 0.08332 0.71512 0.05764 0.0
C401 C 0.09491 0.70142 0.07196 0.0
H402 H 0.12348 0.75326 0.11681 0.0
H403 H 0.07638 0.75189 0.05458 0.0
C404 C 0.05888 0.83691 0.1773 0.0
N405 N 0.05886 0.81722 0.15788 0.0
C406 C 0.04026 0.83589 0.19218 0.0
C407 C 0.02157 0.79465 0.16659 0.0
C408 C 0.0405 0.79649 0.15221 0.0
C409 C 0.02124 0.81442 0.18711 0.0
H410 H 0.07339 0.85341 0.18137 0.0
H411 H 0.04071 0.78101 0.13677 0.0
O412 O 0.13087 0.82139 0.10145 0.0
O413 O 0.10937 0.85123 0.1434 0.0
O414 O 0.07689 0.81213 0.10062 0.0
O415 O 0.10517 0.79306 0.14111 0.0
H416 H 0.15644 0.78788 0.10634 0.0
H417 H 0.12573 0.82442 0.05349 0.0
H418 H 0.17198 0.76304 0.07112 0.0
H419 H 0.14171 0.79886 0.01916 0.0
H420 H 0.14353 0.89558 0.2205 0.0
H421 H 0.13837 0.88838 0.12845 0.0
H422 H 0.11512 0.85913 0.1931 0.0
H423 H 0.16635 0.92437 0.157 0.0
H424 H 0.11731 0.90941 0.0453 0.0
H425 H 0.0703 0.91884 0.10193 0.0
H426 H 0.17636 0.82523 0.22106 0.0
H427 H 0.21597 0.82811 0.15719 0.0
H428 H 0.03975 0.77336 0.09328 0.0
H429 H 0.08524 0.82496 0.05696 0.0
H430 H 0.01691 0.75332 0.052 0.0
H431 H 0.06181 0.80379 0.01622 0.0
H432 H 0.07477 0.74823 0.1254 0.0
H433 H 0.1046 0.80708 0.19033 0.0
H434 H 0.05171 0.72367 0.15292 0.0
H435 H 0.08088 0.78153 0.21673 0.0
H436 H 0.11989 0.70691 0.10458 0.0
H437 H 0.07142 0.70502 0.04121 0.0
H438 H 0.04077 0.85186 0.20747 0.0
H439 H 1.00763 0.77752 0.16203 0.0
Li440 Li 0.53754 0.80605 0.45301 0.0
Li441 Li 0.50644 0.77529 0.41798 0.0
Li442 Li 0.53245 0.75532 0.44985 0.0
Li443 Li 0.55015 0.77701 0.41698 0.0
C444 C 0.49984 0.78526 0.47865 0.0
N445 N 0.48259 0.79969 0.52369 0.0
C446 C 0.47846 0.79228 0.47881 0.0
C447 C 0.51244 0.78548 0.50132 0.0
C448 C 0.47003 0.79954 0.5018 0.0
C449 C 0.50343 0.79287 0.52392 0.0
C450 C 0.5398 0.81241 0.39463 0.0
C451 C 0.53919 0.8048 0.34946 0.0
N452 N 0.55586 0.82678 0.35157 0.0
C453 C 0.55691 0.83493 0.39634 0.0
C454 C 0.53088 0.79719 0.371 0.0
C455 C 0.5648 0.84187 0.37435 0.0
C456 C 0.56383 0.85916 0.4678 0.0
N457 N 0.54377 0.84323 0.47173 0.0
C458 C 0.53101 0.88035 0.49285 0.0
C459 C 0.52761 0.8535 0.48442 0.0
C460 C 0.55098 0.89722 0.48774 0.0
C461 C 0.5676 0.88605 0.47529 0.0
H462 H 0.57659 0.85107 0.45775 0.0
H463 H 0.51151 0.84106 0.48716 0.0
C464 C 0.45586 0.75761 0.39528 0.0
N465 N 0.47606 0.77617 0.39858 0.0
C466 C 0.43553 0.76014 0.38158 0.0
C467 C 0.45686 0.8005 0.37444 0.0
C468 C 0.47647 0.79756 0.38872 0.0
C469 C 0.43584 0.78173 0.37057 0.0
H470 H 0.4554 0.74078 0.40329 0.0
H471 H 0.49212 0.81267 0.39195 0.0
C472 C 0.57872 0.77983 0.46809 0.0
N473 N 0.61351 0.76972 0.49826 0.0
C474 C 0.59086 0.76151 0.45845 0.0
C475 C 0.58431 0.79314 0.49298 0.0
C476 C 0.60838 0.75663 0.47403 0.0
C477 C 0.60196 0.78773 0.50795 0.0
C478 C 0.5261 0.7274 0.39289 0.0
C479 C 0.54361 0.7142 0.39575 0.0
C480 C 0.51148 0.72133 0.37037 0.0
C481 C 0.54633 0.6952 0.37588 0.0
C482 C 0.51478 0.70222 0.35093 0.0
N483 N 0.53199 0.68967 0.35406 0.0
C484 C 0.52518 0.69959 0.45176 0.0
C485 C 0.54773 0.72494 0.48834 0.0
C486 C 0.52852 0.67689 0.45925 0.0
N487 N 0.53504 0.72342 0.46589 0.0
C488 C 0.55133 0.70256 0.49668 0.0
C489 C 0.54209 0.67774 0.48191 0.0
H490 H 0.51495 0.69798 0.43411 0.0
H491 H 0.55569 0.74358 0.49979 0.0
C492 C 0.59671 0.79332 0.40404 0.0
N493 N 0.57556 0.77751 0.39483 0.0
C494 C 0.61529 0.79573 0.38907 0.0
C495 C 0.59036 0.76518 0.35538 0.0
C496 C 0.5722 0.76367 0.37084 0.0
C497 C 0.61237 0.78164 0.36417 0.0
H498 H 0.59906 0.80455 0.42298 0.0
H499 H 0.55529 0.75173 0.36332 0.0
O500 O 0.50849 0.77832 0.4564 0.0
O501 O 0.5324 0.80468 0.41591 0.0
O502 O 0.56125 0.78458 0.45332 0.0
O503 O 0.5231 0.74604 0.41208 0.0
H504 H 0.46855 0.79221 0.46135 0.0
H505 H 0.52904 0.78008 0.50143 0.0
H506 H 0.45353 0.80508 0.50226 0.0
H507 H 0.51299 0.79319 0.54163 0.0
H508 H 0.5325 0.79314 0.33108 0.0
H509 H 0.56411 0.84689 0.41439 0.0
H510 H 0.51788 0.7795 0.36935 0.0
H511 H 0.57807 0.85922 0.37541 0.0
H512 H 0.51755 0.88791 0.50213 0.0
H513 H 0.58328 0.89809 0.47086 0.0
H514 H 0.41982 0.74508 0.37924 0.0
H515 H 0.45807 0.81769 0.36682 0.0
H516 H 0.58677 0.75115 0.43917 0.0
H517 H 0.57501 0.80738 0.50067 0.0
H518 H 0.61788 0.74243 0.46688 0.0
H519 H 0.60645 0.7978 0.5273 0.0
H520 H 0.55501 0.71864 0.4131 0.0
H521 H 0.49779 0.73133 0.36793 0.0
H522 H 0.55985 0.68488 0.37779 0.0
H523 H 0.50365 0.69736 0.33335 0.0
H524 H 0.52041 0.65865 0.44709 0.0
H525 H 0.56197 0.70485 0.51424 0.0
H526 H 0.63158 0.80908 0.39683 0.0
H527 H 0.58698 0.7535 0.33661 0.0
Li528 Li 0.60571 0.34583 0.60882 0.0
Li529 Li 0.63003 0.32841 0.63998 0.0
Li530 Li 0.60334 0.29566 0.60639 0.0
Li531 Li 0.58667 0.32163 0.64293 0.0
C532 C 0.63491 0.32349 0.57752 0.0
N533 N 0.64263 0.32239 0.52785 0.0
C534 C 0.65715 0.33346 0.57137 0.0
C535 C 0.61658 0.31299 0.55845 0.0
C536 C 0.66071 0.33272 0.54613 0.0
C537 C 0.62084 0.31259 0.53344 0.0
C538 C 0.62425 0.37696 0.66083 0.0
C539 C 0.63551 0.40791 0.69975 0.0
N540 N 0.65266 0.42155 0.6888 0.0
C541 C 0.64191 0.39127 0.64991 0.0
C542 C 0.62093 0.3853 0.6859 0.0
C543 C 0.65612 0.41378 0.66439 0.0
C544 C 0.58629 0.39042 0.60371 0.0
N545 N 0.60098 0.37665 0.5925 0.0
C546 C 0.60734 0.40618 0.56348 0.0
C547 C 0.61135 0.38427 0.57246 0.0
C548 C 0.59255 0.42111 0.57507 0.0
C549 C 0.58189 0.41232 0.59542 0.0
H550 H 0.57791 0.38453 0.61947 0.0
H551 H 0.62306 0.37361 0.5634 0.0
C552 C 0.67652 0.31966 0.65134 0.0
N553 N 0.66038 0.33186 0.66151 0.0
C554 C 0.69616 0.31758 0.66632 0.0
C555 C 0.68307 0.34131 0.70215 0.0
C556 C 0.66359 0.34283 0.68652 0.0
C557 C 0.69972 0.32816 0.69236 0.0
H558 H 0.67374 0.31061 0.63163 0.0
H559 H 0.65049 0.35181 0.69476 0.0
C560 C 0.55721 0.30264 0.5922 0.0
N561 N 0.51539 0.27583 0.56509 0.0
C562 C 0.54289 0.28312 0.60126 0.0
C563 C 0.55025 0.30866 0.56945 0.0
C564 C 0.52181 0.26975 0.58725 0.0
C565 C 0.52904 0.29485 0.55599 0.0
C566 C 0.61868 0.28615 0.65872 0.0
C567 C 0.63134 0.26843 0.64881 0.0
C568 C 0.61928 0.29366 0.68478 0.0
C569 C 0.64433 0.25842 0.66518 0.0
C570 C 0.63249 0.28321 0.70051 0.0
N571 N 0.64464 0.26596 0.69047 0.0
C572 C 0.60849 0.24801 0.56917 0.0
C573 C 0.58362 0.242 0.60083 0.0
C574 C 0.60542 0.22105 0.56136 0.0
N575 N 0.59773 0.25814 0.58882 0.0
C576 C 0.58034 0.21519 0.59387 0.0
C577 C 0.59154 0.20403 0.57411 0.0
H578 H 0.62013 0.2607 0.55998 0.0
H579 H 0.57549 0.24997 0.61668 0.0
C580 C 0.54486 0.33368 0.66236 0.0
N581 N 0.56044 0.31864 0.66328 0.0
C582 C 0.52522 0.33033 0.67579 0.0
C583 C 0.53808 0.29632 0.69114 0.0
C584 C 0.55724 0.30011 0.67723 0.0
C585 C 0.52143 0.31132 0.69048 0.0
H586 H 0.54745 0.34803 0.65083 0.0
H587 H 0.56942 0.28792 0.67733 0.0
O588 O 0.63109 0.32452 0.60216 0.0
O589 O 0.61032 0.3548 0.64704 0.0
O590 O 0.57793 0.31591 0.60558 0.0
O591 O 0.60648 0.29681 0.64301 0.0
H592 H 0.67148 0.34176 0.58596 0.0
H593 H 0.59929 0.30513 0.56289 0.0
H594 H 0.67783 0.34039 0.54107 0.0
H595 H 0.60683 0.30449 0.51848 0.0
H596 H 0.63322 0.41459 0.7192 0.0
H597 H 0.64466 0.38499 0.6305 0.0
H598 H 0.60731 0.37435 0.69457 0.0
H599 H 0.66991 0.42505 0.65623 0.0
H600 H 0.61631 0.41169 0.54791 0.0
H601 H 0.56994 0.42221 0.60505 0.0
H602 H 0.70838 0.30753 0.65746 0.0
H603 H 0.6845 0.34954 0.72201 0.0
H604 H 0.54798 0.27836 0.61893 0.0
H605 H 0.56115 0.32383 0.56227 0.0
H606 H 0.51055 0.25455 0.594 0.0
H607 H 0.52344 0.29924 0.53832 0.0
H608 H 0.63143 0.26274 0.62871 0.0
H609 H 0.61003 0.30781 0.69278 0.0
H610 H 0.65429 0.24478 0.65777 0.0
H611 H 0.63322 0.28896 0.72071 0.0
H612 H 0.61464 0.21367 0.54615 0.0
H613 H 0.56921 0.20327 0.60425 0.0
H614 H 0.51291 0.34221 0.67419 0.0
H615 H 0.5365 0.28174 0.70241 0.0
Li616 Li 0.03402 0.30266 0.95267 0.0
Li617 Li 1.00382 0.27229 0.91852 0.0
Li618 Li 0.02945 0.25085 0.94923 0.0
Li619 Li 0.04699 0.27442 0.91697 0.0
C620 C 0.99721 0.28245 0.97867 0.0
N621 N 0.98076 0.2991 0.02364 0.0
C622 C 0.97787 0.29337 0.97887 0.0
C623 C 1.00816 0.27989 1.00128 0.0
C624 C 0.96982 0.30169 1.00183 0.0
C625 C 0.99959 0.28847 0.02384 0.0
C626 C 0.02523 0.3157 0.89942 0.0
C627 C 0.02419 0.32351 0.85719 0.0
N628 N 0.01575 0.34463 0.86501 0.0
C629 C 0.01668 0.33758 0.90706 0.0
C630 C 0.02914 0.30866 0.87431 0.0
C631 C 0.01193 0.3519 0.88937 0.0
C632 C 0.05642 0.35578 0.9599 0.0
N633 N 0.0407 0.34 0.9707 0.0
C634 C 0.03293 0.3775 0.99735 0.0
C635 C 0.0292 0.35051 0.98945 0.0
C636 C 0.04841 0.39421 0.98571 0.0
C637 C 0.06049 0.38264 0.96703 0.0
H638 H 0.06522 0.34749 0.94478 0.0
H639 H 0.01651 0.33813 0.99785 0.0
C640 C 0.96106 0.25345 0.88058 0.0
N641 N 0.97319 0.27281 0.89943 0.0
C642 C 0.9409 0.25604 0.86668 0.0
C643 C 0.94555 0.29825 0.89172 0.0
C644 C 0.9654 0.29478 0.90523 0.0
C645 C 0.93274 0.27884 0.87185 0.0
H646 H 0.96704 0.23592 0.87605 0.0
H647 H 0.97488 0.31005 0.92025 0.0
C648 C 0.08085 0.28111 0.95341 0.0
N649 N 0.1274 0.28213 0.94957 0.0
C650 C 0.08829 0.2582 0.94836 0.0
C651 C 0.09707 0.30453 0.95666 0.0
C652 C 0.11191 0.25913 0.94647 0.0
C653 C 0.12053 0.30464 0.9546 0.0
C654 C 0.02185 0.2278 0.88858 0.0
C655 C 0.02959 0.20517 0.88755 0.0
C656 C 0.0153 0.23492 0.86628 0.0
C657 C 0.03086 0.19017 0.86416 0.0
C658 C 0.01682 0.21942 0.84326 0.0
N659 N 0.02452 0.19755 0.84268 0.0
C660 C 0.02004 0.19534 0.95282 0.0
C661 C 0.04743 0.22091 0.98575 0.0
C662 C 0.02358 0.17272 0.96031 0.0
N663 N 0.03217 0.21916 0.9651 0.0
C664 C 0.05118 0.19867 0.99417 0.0
C665 C 0.03958 0.17378 0.98116 0.0
H666 H 1.0079 0.19365 0.93653 0.0
H667 H 0.05736 0.23962 0.99547 0.0
C668 C 0.08455 0.29944 0.89264 0.0
N669 N 0.07287 0.27589 0.89554 0.0
C670 C 0.10387 0.30205 0.87875 0.0
C671 C 0.09904 0.25619 0.87094 0.0
C672 C 0.08008 0.2545 0.88532 0.0
C673 C 0.11128 0.28021 0.86743 0.0
H674 H 0.079 0.31633 0.90136 0.0
H675 H 0.07153 0.23609 0.88872 0.0
O676 O 1.00541 0.27424 0.95646 0.0
O677 O 0.02994 0.30139 0.91647 0.0
O678 O 0.05771 0.28052 0.95449 0.0
O679 O 0.02042 0.24277 0.91127 0.0
H680 H 0.96919 0.29541 0.96151 0.0
H681 H 0.02315 0.27145 1.00137 0.0
H682 H 0.9549 0.31022 1.00231 0.0
H683 H 1.0079 0.28668 0.0415 0.0
H684 H 0.02711 0.31826 0.8377 0.0
H685 H 0.01348 0.34329 0.9264 0.0
H686 H 0.03604 0.29201 0.8681 0.0
H687 H 1.00519 0.36879 0.89501 0.0
H688 H 0.02304 0.38517 0.01174 0.0
H689 H 0.07291 0.39429 0.95761 0.0
H690 H 0.93179 0.2401 0.85206 0.0
H691 H 0.94072 0.31643 0.89663 0.0
H692 H 0.0759 0.23991 0.94552 0.0
H693 H 0.09158 0.32241 0.96055 0.0
H694 H 0.1179 0.24155 0.94239 0.0
H695 H 0.13328 0.32262 0.95694 0.0
H696 H 0.03501 0.19949 0.90459 0.0
H697 H 1.00904 0.25221 0.86675 0.0
H698 H 0.03698 0.17271 0.86308 0.0
H699 H 0.01185 0.22475 0.82586 0.0
H700 H 0.0138 0.15436 0.94958 0.0
H701 H 0.06381 0.201 0.01021 0.0
H702 H 0.11268 0.32097 0.87655 0.0
H703 H 0.10433 0.23885 0.86299 0.0
Li704 Li 0.44444 0.06983 0.33704 0.0
Li705 Li 0.41487 0.03437 0.31111 0.0
Li706 Li 0.44962 0.0594 0.29281 0.0
Li707 Li 0.41765 0.07855 0.30738 0.0
C708 C 0.46305 0.02293 0.32486 0.0
N709 N 0.49212 0.99315 0.33882 0.0
C710 C 0.45421 1.00175 0.33539 0.0
C711 C 0.4866 0.02857 0.32092 0.0
C712 C 0.46921 0.98704 0.34246 0.0
C713 C 0.50103 0.01341 0.32827 0.0
C714 C 0.40194 0.05429 0.35785 0.0
C715 C 0.3745 0.05054 0.38871 0.0
N716 N 0.38653 0.03578 0.39932 0.0
C717 C 0.414 0.03906 0.36906 0.0
C718 C 0.38203 0.0601 0.36774 0.0
C719 C 0.40596 0.02992 0.39002 0.0
C720 C 0.45701 0.08548 0.39104 0.0
N721 N 0.46447 0.08054 0.36791 0.0
C722 C 0.5028 0.08243 0.38611 0.0
C723 C 0.48718 0.08059 0.36524 0.0
C724 C 0.49489 0.08443 0.40995 0.0
C725 C 0.47199 0.08718 0.4125 0.0
H726 H 0.43917 0.08671 0.39285 0.0
H727 H 0.4929 0.07797 0.34671 0.0
C728 C 0.40208 0.98411 0.28682 0.0
N729 N 0.39726 1.00002 0.3071 0.0
C730 C 0.39251 0.95781 0.28257 0.0
C731 C 0.37321 0.96461 0.32027 0.0
C732 C 0.38268 0.99092 0.32344 0.0
C733 C 0.37824 0.94781 0.29968 0.0
H734 H 0.41384 0.99187 0.27425 0.0
H735 H 0.37866 1.00383 0.33917 0.0
C736 C 0.46195 0.11594 0.32965 0.0
N737 N 0.4832 0.16026 0.3638 0.0
C738 C 0.44877 0.12852 0.34591 0.0
C739 C 0.48593 0.12586 0.33077 0.0
C740 C 0.45984 0.15092 0.36303 0.0
C741 C 0.49634 0.1483 0.34817 0.0
C742 C 0.40191 0.05194 0.26095 0.0
C743 C 0.41081 0.06875 0.24552 0.0
C744 C 0.37825 0.03984 0.2575 0.0
C745 C 0.39572 0.07354 0.22709 0.0
C746 C 0.36375 0.04508 0.23881 0.0
N747 N 0.3727 0.06172 0.22416 0.0
C748 C 0.47403 0.03232 0.25961 0.0
C749 C 0.48607 0.07761 0.26572 0.0
C750 C 0.49189 0.02937 0.24458 0.0
N751 N 0.4717 0.05615 0.26999 0.0
C752 C 0.50417 0.07557 0.25082 0.0
C753 C 0.50738 0.0512 0.24025 0.0
H754 H 0.46236 0.01565 0.26361 0.0
H755 H 0.48361 0.09628 0.27416 0.0
C756 C 0.37613 0.09429 0.29571 0.0
N757 N 0.3998 0.1012 0.29799 0.0
C758 C 0.36302 0.10851 0.28439 0.0
C759 C 0.39887 0.13757 0.2796 0.0
C760 C 0.41128 0.12251 0.29049 0.0
C761 C 0.37448 0.13025 0.27592 0.0
H762 H 0.3675 0.07703 0.30155 0.0
H763 H 0.43009 0.12722 0.29196 0.0
O764 O 0.44851 0.0373 0.31737 0.0
O765 O 0.40937 0.06352 0.33728 0.0
O766 O 0.45148 0.09364 0.31322 0.0
O767 O 0.41623 0.0477 0.27964 0.0
H768 H 0.43594 0.99655 0.33798 0.0
H769 H 0.49372 0.04453 0.31234 0.0
H770 H 0.4626 0.97069 0.35074 0.0
H771 H 0.51931 0.01771 0.32549 0.0
H772 H 0.3591 0.05487 0.39654 0.0
H773 H 0.42954 0.03466 0.36187 0.0
H774 H 0.37248 0.07184 0.35927 0.0
H775 H 0.4152 0.0182 0.39892 0.0
H776 H 0.52036 0.08045 0.38336 0.0
H777 H 0.46544 0.08935 0.43073 0.0
H778 H 0.39678 0.94532 0.26652 0.0
H779 H 0.36211 0.95747 0.33371 0.0
H780 H 0.43023 0.12091 0.34547 0.0
H781 H 0.49643 0.11618 0.31855 0.0
H782 H 0.44987 0.16082 0.37577 0.0
H783 H 0.5149 0.15616 0.34931 0.0
H784 H 0.42911 0.07828 0.24804 0.0
H785 H 0.37115 0.0268 0.26935 0.0
H786 H 0.40229 0.08671 0.21517 0.0
H787 H 0.34536 0.03602 0.23604 0.0
H788 H 0.49385 1.01026 0.23687 0.0
H789 H 0.51543 0.09286 0.24749 0.0
H790 H 0.3442 0.10237 0.28187 0.0
H791 H 0.40827 0.15407 0.27304 0.0
Li792 Li 0.30551 0.21687 0.54514 0.0
Li793 Li 0.32252 0.18098 0.51937 0.0
Li794 Li 0.30654 0.21097 0.4981 0.0
Li795 Li 0.27978 0.17913 0.51441 0.0
C796 C 0.34876 0.23602 0.5152 0.0
N797 N 0.37774 0.26921 0.49179 0.0
C798 C 0.36285 0.22666 0.49785 0.0
C799 C 0.34946 0.26224 0.52078 0.0
C800 C 0.37738 0.24375 0.48618 0.0
C801 C 0.36422 0.27872 0.50871 0.0
C802 C 0.29349 0.15624 0.55272 0.0
C803 C 0.28798 0.11025 0.54472 0.0
N804 N 0.28026 0.10996 0.56771 0.0
C805 C 0.28556 0.15552 0.57629 0.0
C806 C 0.29477 0.13346 0.53681 0.0
C807 C 0.27893 0.13192 0.58351 0.0
C808 C 0.28742 0.2277 0.59162 0.0
N809 N 0.30618 0.23618 0.57959 0.0
C810 C 0.32518 0.26425 0.6182 0.0
C811 C 0.32474 0.25451 0.59226 0.0
C812 C 0.30656 0.25467 0.63133 0.0
C813 C 0.28733 0.23652 0.61749 0.0
H814 H 0.27288 0.21309 0.58129 0.0
H815 H 0.33965 0.26083 0.58253 0.0
C816 C 0.3495 0.14418 0.5019 0.0
N817 N 0.34655 0.1619 0.52183 0.0
C818 C 0.36617 0.12965 0.50413 0.0
C819 C 0.37714 0.15244 0.54706 0.0
C820 C 0.36007 0.16632 0.54409 0.0
C821 C 0.38024 0.13357 0.527 0.0
H822 H 0.33878 0.14116 0.48429 0.0
H823 H 0.3574 0.18048 0.5597 0.0
C824 C 0.27304 0.23728 0.5141 0.0
N825 N 0.25832 0.2798 0.50475 0.0
C826 C 0.25502 0.23455 0.49518 0.0
C827 C 0.28337 0.26158 0.52848 0.0
C828 C 0.2479 0.2563 0.49067 0.0
C829 C 0.27572 0.28285 0.52342 0.0
C830 C 0.2864 0.15874 0.46743 0.0
C831 C 0.27065 0.16971 0.45547 0.0
C832 C 0.28672 0.13308 0.45866 0.0
C833 C 0.25552 0.15483 0.4348 0.0
C834 C 0.27128 0.11883 0.43794 0.0
N835 N 0.25613 0.12991 0.42654 0.0
C836 C 0.31899 0.21322 0.44824 0.0
C837 C 0.3082 0.25108 0.46673 0.0
C838 C 0.32217 0.22204 0.42572 0.0
N839 N 0.31172 0.22745 0.46821 0.0
C840 C 0.31121 0.26069 0.4445 0.0
C841 C 0.31805 0.24604 0.42331 0.0
H842 H 0.32229 0.19476 0.4497 0.0
H843 H 0.30295 0.2626 0.48268 0.0
C844 C 0.23139 0.16929 0.51792 0.0
N845 N 0.24851 0.15723 0.51079 0.0
C846 C 0.2085 0.1553 0.51747 0.0
C847 C 0.22091 0.1165 0.50195 0.0
C848 C 0.24363 0.1313 0.50265 0.0
C849 C 0.20294 0.12842 0.50977 0.0
H850 H 0.23556 0.18987 0.52434 0.0
H851 H 0.25741 0.12194 0.49713 0.0
O852 O 0.33378 0.21945 0.52602 0.0
O853 O 0.3 0.17913 0.54524 0.0
O854 O 0.28014 0.21622 0.51893 0.0
O855 O 0.30104 0.17289 0.488 0.0
H856 H 0.36234 0.20635 0.49322 0.0
H857 H 0.33859 0.26975 0.53412 0.0
H858 H 0.38828 0.23678 0.47258 0.0
H859 H 0.36488 0.29905 0.51273 0.0
H860 H 0.28879 0.09246 0.53254 0.0
H861 H 0.28457 0.17297 0.5889 0.0
H862 H 0.30071 0.13365 0.51844 0.0
H863 H 0.27274 0.13106 0.60169 0.0
H864 H 0.34048 0.27802 0.62816 0.0
H865 H 0.2726 0.2286 0.62678 0.0
H866 H 0.36808 0.11553 0.48806 0.0
H867 H 0.38736 0.15598 0.56511 0.0
H868 H 0.24657 0.21582 0.48415 0.0
H869 H 0.29719 0.26399 0.54334 0.0
H870 H 0.23404 0.2545 0.47602 0.0
H871 H 0.28364 0.30179 0.53432 0.0
H872 H 0.27009 0.18948 0.46212 0.0
H873 H 0.29855 0.12417 0.4679 0.0
H874 H 0.24324 0.16309 0.42537 0.0
H875 H 0.27129 0.09893 0.43099 0.0
H876 H 0.32801 0.21013 0.41038 0.0
H877 H 0.3077 0.27926 0.44384 0.0
H878 H 0.1953 0.16553 0.52324 0.0
H879 H 0.21764 0.09587 0.49608 0.0
Li880 Li 0.20667 0.04591 0.77722 0.0
Li881 Li 0.17373 0.01981 0.79873 0.0
Li882 Li 0.20502 0.99403 0.77113 0.0
Li883 Li 0.17223 0.0172 0.74586 0.0
C884 C 0.22818 0.03796 0.81925 0.0
N885 N 0.26645 0.06928 0.84978 0.0
C886 C 0.22619 0.06082 0.83449 0.0
C887 C 0.24958 0.03099 0.8195 0.0
C888 C 0.24576 0.07642 0.8498 0.0
C889 C 0.26874 0.04708 0.8351 0.0
C890 C 0.15277 0.05443 0.78049 0.0
C891 C 0.11108 0.04846 0.77356 0.0
N892 N 0.11246 0.07045 0.79067 0.0
C893 C 0.1538 0.07694 0.79802 0.0
C894 C 0.13127 0.04003 0.76817 0.0
C895 C 0.13321 0.08473 0.80291 0.0
C896 C 0.25085 0.0914 0.7848 0.0
N897 N 0.22706 0.08372 0.78027 0.0
C898 C 0.22623 0.12781 0.77777 0.0
C899 C 0.21496 0.10179 0.77675 0.0
C900 C 0.25078 0.13655 0.78224 0.0
C901 C 0.26288 0.11737 0.78584 0.0
H902 H 0.26079 0.0774 0.78744 0.0
H903 H 0.1962 0.0961 0.77294 0.0
C904 C 0.14173 1.00076 0.84001 0.0
N905 N 0.15547 0.02173 0.83327 0.0
C906 C 0.13076 1.00247 0.86298 0.0
C907 C 0.1476 0.04727 0.87287 0.0
C908 C 0.15822 0.04477 0.84977 0.0
C909 C 0.13337 0.02602 0.88056 0.0
H910 H 0.13923 0.9822 0.82768 0.0
H911 H 0.16891 0.06175 0.84527 0.0
C912 C 0.2289 0.0292 0.738 0.0
N913 N 0.27171 0.0514 0.72465 0.0
C914 C 0.23041 0.04637 0.72169 0.0
C915 C 0.24917 0.02334 0.74755 0.0
C916 C 0.25221 0.05738 0.71514 0.0
C917 C 0.27064 0.03476 0.74059 0.0
C918 C 0.14967 0.96747 0.76024 0.0
C919 C 0.15295 0.94545 0.74458 0.0
C920 C 0.12759 0.96836 0.76762 0.0
C921 C 0.13398 0.92458 0.73649 0.0
C922 C 0.10907 0.94709 0.75914 0.0
N923 N 0.11262 0.92582 0.74388 0.0
C924 C 0.22508 0.94997 0.79075 0.0
C925 C 0.23343 0.9508 0.74961 0.0
C926 C 0.23664 0.92922 0.79136 0.0
N927 N 0.22332 0.96099 0.77009 0.0
C928 C 0.24519 0.93 0.7495 0.0
C929 C 0.24741 0.91819 0.77063 0.0
H930 H 0.21745 0.95717 0.80733 0.0
H931 H 0.23263 0.95876 0.73286 0.0
C932 C 0.16168 0.04013 0.69929 0.0
N933 N 0.15293 0.01971 0.71016 0.0
C934 C 0.15119 0.0439 0.67617 0.0
C935 C 0.12133 1.00659 0.67501 0.0
C936 C 0.13271 1.00314 0.69802 0.0
C937 C 0.13046 0.02715 0.66301 0.0
H938 H 0.17704 0.0541 0.70862 0.0
H939 H 0.12502 0.98696 0.70606 0.0
O940 O 0.20941 0.02287 0.80361 0.0
O941 O 0.17261 0.04612 0.77587 0.0
O942 O 0.20787 0.01858 0.74522 0.0
O943 O 0.16799 0.98808 0.76828 0.0
H944 H 0.20979 0.06661 0.83423 0.0
H945 H 0.25138 0.01335 0.80774 0.0
H946 H 0.24453 0.09424 0.86161 0.0
H947 H 0.28544 0.04196 0.83549 0.0
H948 H 0.09432 0.03748 0.76418 0.0
H949 H 0.1703 0.08816 0.80791 0.0
H950 H 0.13017 0.02243 0.75472 0.0
H951 H 0.13372 0.10207 0.81648 0.0
H952 H 0.21538 0.14099 0.77528 0.0
H953 H 0.2817 0.12212 0.78906 0.0
H954 H 0.12051 0.98497 0.86696 0.0
H955 H 0.15057 0.06622 0.88452 0.0
H956 H 0.21498 0.05124 0.71422 0.0
H957 H 0.24832 1.01023 0.76035 0.0
H958 H 0.25363 0.07072 0.70253 0.0
H959 H 0.28646 0.03043 0.74789 0.0
H960 H 0.16998 0.94451 0.73873 0.0
H961 H 0.12482 0.98527 0.77981 0.0
H962 H 0.13624 0.90739 0.72435 0.0
H963 H 0.09187 0.94747 0.7647 0.0
H964 H 0.23674 0.92184 0.80847 0.0
H965 H 0.25272 0.92344 0.73263 0.0
H966 H 0.15932 0.06044 0.66888 0.0
H967 H 0.10558 0.99271 0.66642 0.0
Li968 Li 0.32271 0.97252 0.02156 0.0
Li969 Li 0.3353 0.9354 0.03354 0.0
Li970 Li 0.36222 0.96976 0.02178 0.0
Li971 Li 0.33477 0.93989 0.98992 0.0
C972 C 0.35882 0.9905 0.06826 0.0
N973 N 0.39042 0.02823 0.10207 0.0
C974 C 0.37061 0.98424 0.08847 0.0
C975 C 0.36283 0.01599 0.06549 0.0
C976 C 0.38658 1.00358 0.1053 0.0
C977 C 0.37895 0.03478 0.0827 0.0
C978 C 0.28712 0.92934 0.02078 0.0
C979 C 0.24586 0.91088 0.01747 0.0
N980 N 0.24599 0.91957 0.04257 0.0
C981 C 0.28684 0.93809 0.04655 0.0
C982 C 0.26647 0.91564 1.00611 0.0
C983 C 0.26588 0.93296 0.0572 0.0
C984 C 0.29128 1.00185 1.00869 0.0
N985 N 0.30221 0.99474 0.02803 0.0
C986 C 0.28404 0.01976 0.05796 0.0
C987 C 0.29901 1.0034 0.05232 0.0
C988 C 0.2725 0.02748 0.03841 0.0
C989 C 0.27637 0.01848 0.0135 0.0
H990 H 0.29422 0.99464 0.98957 0.0
H991 H 0.30802 0.9975 0.06733 0.0
C992 C 0.35519 0.91131 0.06558 0.0
N993 N 0.33401 0.91046 0.05384 0.0
C994 C 0.35811 0.89281 0.07921 0.0
C995 C 0.31724 0.87248 0.06832 0.0
C996 C 0.31517 0.89137 0.05462 0.0
C997 C 0.33897 0.87313 0.08088 0.0
H998 H 0.37003 0.92603 0.06373 0.0
H999 H 0.2987 0.89041 0.04425 0.0
C1000 C 0.35409 0.99852 0.98568 0.0
N1001 N 0.37682 0.0405 0.96784 0.0
C1002 C 0.36836 0.99537 0.96635 0.0
C1003 C 0.3511 0.02301 0.99564 0.0
C1004 C 0.3798 0.01684 0.95769 0.0
C1005 C 0.3628 0.04399 0.98644 0.0
C1006 C 0.36175 0.90837 1.00396 0.0
C1007 C 0.38379 0.90313 1.00236 0.0
C1008 C 0.34189 0.88825 0.99801 0.0
C1009 C 0.38562 0.87777 0.99485 0.0
C1010 C 0.34445 0.86317 0.99057 0.0
N1011 N 0.36607 0.85849 0.98916 0.0
C1012 C 0.40587 0.97217 0.04165 0.0
C1013 C 0.40596 1.00717 0.02151 0.0
C1014 C 0.43 0.97883 0.04625 0.0
N1015 N 0.39439 0.98592 0.02903 0.0
C1016 C 0.43026 0.01424 0.02521 0.0
C1017 C 0.44262 0.99961 0.03726 0.0
H1018 H 0.39622 0.95553 0.04763 0.0
H1019 H 0.3966 0.01827 0.01207 0.0
C1020 C 0.31203 0.90351 0.94617 0.0
N1021 N 0.33214 0.92022 0.95714 0.0
C1022 C 0.31209 0.88611 0.92386 0.0
C1023 C 0.35338 0.90388 0.92459 0.0
C1024 C 0.35257 0.92068 0.94691 0.0
C1025 C 0.33303 0.88612 0.91296 0.0
H1026 H 0.29622 0.90308 0.9552 0.0
H1027 H 0.36846 0.93331 0.95676 0.0
O1028 O 0.34351 0.97178 0.0512 0.0
O1029 O 0.30734 0.9344 0.00975 0.0
O1030 O 0.34255 0.97768 0.99422 0.0
O1031 O 0.35975 0.93316 0.01115 0.0
H1032 H 0.36747 0.9647 0.09117 0.0
H1033 H 0.35371 0.02119 0.05012 0.0
H1034 H 0.39592 0.99898 0.12095 0.0
H1035 H 0.38234 0.05456 0.08065 0.0
H1036 H 0.22975 0.90029 1.00633 0.0
H1037 H 0.30262 0.94856 0.05829 0.0
H1038 H 0.26636 0.9088 0.98612 0.0
H1039 H 0.26543 0.9396 0.07712 0.0
H1040 H 0.28159 0.02642 0.07741 0.0
H1041 H 0.26757 0.02378 0.9979 0.0
H1042 H 0.3753 0.89372 0.088 0.0
H1043 H 0.30201 0.85765 0.06916 0.0
H1044 H 0.37074 0.97662 0.95822 0.0
H1045 H 0.33984 0.02585 0.01026 0.0
H1046 H 0.39104 0.01469 0.94289 0.0
H1047 H 0.36072 0.06304 0.99406 0.0
H1048 H 0.39933 0.9185 1.00683 0.0
H1049 H 0.32468 0.89194 0.99907 0.0
H1050 H 0.40257 0.87343 0.99353 0.0
H1051 H 0.32924 0.84742 0.9859 0.0
H1052 H 0.43864 0.96744 0.05632 0.0
H1053 H 0.4392 0.0304 0.01786 0.0
H1054 H 0.29603 0.87271 0.91532 0.0
H1055 H 0.36991 0.90416 0.91698 0.0
Li1056 Li 0.31619 0.4104 0.04468 0.0
Li1057 Li 0.33378 0.38063 0.06457 0.0
Li1058 Li 0.35959 0.41231 0.0444 0.0
Li1059 Li 0.33071 0.37383 0.01698 0.0
C1060 C 0.3465 0.4453 0.08343 0.0
N1061 N 0.35745 0.4976 0.10221 0.0
C1062 C 0.34996 0.4548 0.1094 0.0
C1063 C 0.34889 0.46247 0.06708 0.0
C1064 C 0.3554 0.48129 0.11851 0.0
C1065 C 0.35436 0.48881 0.0769 0.0
C1066 C 0.29019 0.35718 0.05224 0.0
C1067 C 0.27197 0.31558 0.05965 0.0
N1068 N 0.26246 0.32706 0.07947 0.0
C1069 C 0.28014 0.36859 0.07257 0.0
C1070 C 0.28603 0.33049 0.04561 0.0
C1071 C 0.26621 0.35301 0.08614 0.0
C1072 C 0.27829 0.42641 0.02244 0.0
N1073 N 0.29215 0.42992 0.04434 0.0
C1074 C 0.27309 0.462 0.06379 0.0
C1075 C 0.28946 0.44693 0.06501 0.0
C1076 C 0.25903 0.45939 0.04118 0.0
C1077 C 0.2616 0.44095 0.02043 0.0
H1078 H 0.2806 0.41269 1.00627 0.0
H1079 H 0.30015 0.44908 0.08246 0.0
C1080 C 0.33377 0.34052 0.09583 0.0
N1081 N 0.33226 0.36505 0.09529 0.0
C1082 C 0.33309 0.33147 0.11854 0.0
C1083 C 0.32915 0.37279 0.13994 0.0
C1084 C 0.3296 0.38091 0.11686 0.0
C1085 C 0.33103 0.34775 0.14123 0.0
H1086 H 0.33552 0.32783 0.07871 0.0
H1087 H 0.32766 0.4 0.11616 0.0
C1088 C 0.33873 0.42247 0.99599 0.0
N1089 N 0.3432 0.44427 0.95395 0.0
C1090 C 0.3498 0.41201 0.97603 0.0
C1091 C 0.32996 0.4441 0.99451 0.0
C1092 C 0.35186 0.42326 0.95496 0.0
C1093 C 0.33241 0.45484 0.97313 0.0
C1094 C 0.36843 0.35478 0.03809 0.0
C1095 C 0.39263 0.35886 0.0387 0.0
C1096 C 0.35475 0.32979 0.03354 0.0
C1097 C 0.4028 0.33776 0.03492 0.0
C1098 C 0.36557 0.30919 0.02989 0.0
N1099 N 0.38917 0.31357 0.03065 0.0
C1100 C 0.4029 0.44817 0.06695 0.0
C1101 C 0.39964 0.43415 0.02285 0.0
C1102 C 0.42532 0.46335 0.0668 0.0
N1103 N 0.39048 0.43403 0.04511 0.0
C1104 C 0.42178 0.44913 0.02178 0.0
C1105 C 0.43517 0.46391 0.04396 0.0
H1106 H 0.39558 0.44749 0.08459 0.0
H1107 H 0.38989 0.42234 1.00584 0.0
C1108 C 0.30827 0.35784 0.96723 0.0
N1109 N 0.32591 0.35364 0.98206 0.0
C1110 C 0.3062 0.34975 0.941 0.0
C1111 C 0.33949 0.3314 0.94538 0.0
C1112 C 0.34122 0.34029 0.97163 0.0
C1113 C 0.32221 0.33679 0.92959 0.0
H1114 H 0.29661 0.36897 0.97565 0.0
H1115 H 0.35564 0.33779 0.98337 0.0
O1116 O 0.34124 0.41937 0.07416 0.0
O1117 O 0.3046 0.37215 0.0394 0.0
O1118 O 0.33582 0.41118 0.01648 0.0
O1119 O 0.35822 0.37521 0.04118 0.0
H1120 H 0.3486 0.44196 0.12246 0.0
H1121 H 0.34673 0.4556 0.04702 0.0
H1122 H 0.35806 0.48887 0.13855 0.0
H1123 H 0.3562 0.50225 0.0644 0.0
H1124 H 0.26866 0.29489 0.05482 0.0
H1125 H 0.28336 0.38925 0.07799 0.0
H1126 H 0.29364 0.32139 0.02987 0.0
H1127 H 0.25845 0.36156 0.10204 0.0
H1128 H 0.27151 0.4756 0.08042 0.0
H1129 H 0.25134 0.43834 1.00255 0.0
H1130 H 0.33459 0.312 0.11837 0.0
H1131 H 0.32698 0.38599 0.15662 0.0
H1132 H 0.35691 0.39546 0.97685 0.0
H1133 H 0.32133 0.45256 0.00967 0.0
H1134 H 0.36037 0.41529 0.9394 0.0
H1135 H 0.3257 0.47156 0.97178 0.0
H1136 H 0.40342 0.37814 0.04196 0.0
H1137 H 0.33598 0.32636 0.03261 0.0
H1138 H 0.42151 0.34061 0.03533 0.0
H1139 H 0.3552 0.28973 0.02636 0.0
H1140 H 0.43499 0.47402 0.08446 0.0
H1141 H 0.42827 0.44907 1.00362 0.0
H1142 H 0.29262 0.35439 0.92963 0.0
H1143 H 0.3524 0.3218 0.93743 0.0
Li1144 Li 0.81037 0.16282 0.04783 0.0
Li1145 Li 0.82134 0.12802 0.02114 0.0
Li1146 Li 0.80784 0.16283 1.00276 0.0
Li1147 Li 0.78086 0.13018 0.02039 0.0
C1148 C 0.8556 0.18117 0.04029 0.0
N1149 N 0.89441 0.21258 0.0699 0.0
C1150 C 0.86689 0.17222 0.05897 0.0
C1151 C 0.86414 0.20601 0.0365 0.0
C1152 C 0.88644 0.18843 0.07381 0.0
C1153 C 0.88378 0.22161 0.0517 0.0
C1154 C 0.80743 0.11148 0.06439 0.0
C1155 C 0.80582 0.07024 0.07528 0.0
N1156 N 0.8206 0.08185 0.09636 0.0
C1157 C 0.82252 0.12302 0.08625 0.0
C1158 C 0.79889 0.08489 0.05893 0.0
C1159 C 0.82899 0.1077 0.10214 0.0
C1160 C 0.7961 0.17483 0.09451 0.0
N1161 N 0.8125 0.18443 0.0802 0.0
C1162 C 0.82455 0.22331 0.11103 0.0
C1163 C 0.82653 0.20829 0.08786 0.0
C1164 C 0.80772 0.21382 0.12622 0.0
C1165 C 0.79337 0.18921 0.1176 0.0
H1166 H 0.78461 0.15617 0.08757 0.0
H1167 H 0.83879 0.21602 0.07585 0.0
C1168 C 0.8435 0.09531 0.991 0.0
N1169 N 0.84136 0.10472 0.01547 0.0
C1170 C 0.85709 0.07752 0.98484 0.0
C1171 C 0.86617 0.07943 0.02917 0.0
C1172 C 0.85267 0.09745 0.03447 0.0
C1173 C 0.86847 0.06924 1.00408 0.0
H1174 H 0.83458 0.10161 0.97622 0.0
H1175 H 0.85141 0.10563 0.05376 0.0
C1176 C 0.77832 0.18869 0.03745 0.0
N1177 N 0.76696 0.23213 0.06329 0.0
C1178 C 0.75918 0.18648 0.05137 0.0
C1179 C 0.7916 0.21293 0.03648 0.0
C1180 C 0.75375 0.2087 0.06436 0.0
C1181 C 0.78559 0.23468 0.04972 0.0
C1182 C 0.78443 0.10348 0.97606 0.0
C1183 C 0.77167 0.10577 0.95443 0.0
C1184 C 0.78199 0.07952 0.98264 0.0
C1185 C 0.75643 0.08403 0.93986 0.0
C1186 C 0.76658 0.05824 0.96759 0.0
N1187 N 0.75421 0.06092 0.9467 0.0
C1188 C 0.82534 0.19658 0.9688 0.0
C1189 C 0.78483 0.17873 0.96698 0.0
C1190 C 0.82132 0.2098 0.94974 0.0
N1191 N 0.80707 0.18153 0.97695 0.0
C1192 C 0.78008 0.1911 0.94779 0.0
C1193 C 0.79841 0.20689 0.93896 0.0
H1194 H 0.84289 0.19845 0.97711 0.0
H1195 H 0.77071 0.16692 0.97415 0.0
C1196 C 0.74012 0.09826 0.03238 0.0
N1197 N 0.74922 0.11388 0.01692 0.0
C1198 C 0.716 0.09021 0.03187 0.0
C1199 C 0.71137 0.11426 0.99939 0.0
C1200 C 0.73548 0.12167 1.00041 0.0
C1201 C 0.70141 0.09876 0.0156 0.0
H1202 H 0.75152 0.09303 0.04582 0.0
H1203 H 0.74332 0.13452 0.98877 0.0
O1204 O 0.8365 0.16558 0.02552 0.0
O1205 O 0.80062 0.12616 0.04874 0.0
O1206 O 0.78438 0.16718 0.02531 0.0
O1207 O 0.79906 0.1246 0.99094 0.0
H1208 H 0.86058 0.15301 0.062 0.0
H1209 H 0.85554 0.21324 0.02218 0.0
H1210 H 0.89529 0.1818 0.08841 0.0
H1211 H 0.89052 0.24092 0.04907 0.0
H1212 H 0.79942 0.04964 0.07122 0.0
H1213 H 0.82937 0.14353 0.09081 0.0
H1214 H 0.78705 0.07564 0.04225 0.0
H1215 H 0.84073 0.11636 0.11904 0.0
H1216 H 0.8361 0.24212 0.11695 0.0
H1217 H 0.7798 0.18129 0.1283 0.0
H1218 H 0.85855 0.07017 0.96526 0.0
H1219 H 0.87515 0.07394 0.04453 0.0
H1220 H 0.7488 0.1678 0.05234 0.0
H1221 H 0.80657 0.2149 0.0259 0.0
H1222 H 0.73907 0.20732 0.07535 0.0
H1223 H 0.79579 0.25358 0.04929 0.0
H1224 H 0.77344 0.12411 0.94895 0.0
H1225 H 0.79185 0.07742 0.99924 0.0
H1226 H 0.74637 0.08553 0.92312 0.0
H1227 H 0.76445 0.0396 0.97252 0.0
H1228 H 0.83585 0.22196 0.9434 0.0
H1229 H 0.76215 0.1888 0.94033 0.0
H1230 H 0.70886 0.07846 0.04484 0.0
H1231 H 0.70063 0.12103 0.98646 0.0
Li1232 Li 0.2271 0.57564 0.25581 0.0
Li1233 Li 0.1963 0.55373 0.27564 0.0
Li1234 Li 0.22297 0.53035 0.25299 0.0
Li1235 Li 0.19302 0.5465 0.23059 0.0
C1236 C 0.23796 0.57384 0.30726 0.0
N1237 N 0.25322 0.60623 0.35348 0.0
C1238 C 0.23351 0.59832 0.31215 0.0
C1239 C 0.25025 0.56587 0.32596 0.0
C1240 C 0.24135 0.61442 0.33558 0.0
C1241 C 0.25778 0.58249 0.3492 0.0
C1242 C 0.17896 0.59284 0.26207 0.0
C1243 C 0.13949 0.59546 0.26877 0.0
N1244 N 0.14717 0.62082 0.27913 0.0
C1245 C 0.18641 0.61902 0.27257 0.0
C1246 C 0.15527 0.58104 0.25996 0.0
C1247 C 0.17009 0.6328 0.28115 0.0
C1248 C 0.24072 0.62346 0.24451 0.0
N1249 N 0.24843 0.60723 0.25735 0.0
C1250 C 0.28065 0.64043 0.27822 0.0
C1251 C 0.26864 0.61474 0.27294 0.0
C1252 C 0.27181 0.65814 0.26697 0.0
C1253 C 0.25231 0.64912 0.24891 0.0
H1254 H 0.22469 0.61678 0.23205 0.0
H1255 H 0.27449 0.60123 0.28263 0.0
C1256 C 0.16183 0.53308 0.30353 0.0
N1257 N 0.17692 0.55528 0.30215 0.0
C1258 C 0.14343 0.53351 0.31827 0.0
C1259 C 0.15734 0.57945 0.33118 0.0
C1260 C 0.1755 0.57811 0.31629 0.0
C1261 C 0.14063 0.55704 0.33172 0.0
H1262 H 0.16349 0.51514 0.29236 0.0
H1263 H 0.18746 0.59558 0.31482 0.0
C1264 C 0.24241 0.5615 0.21255 0.0
N1265 N 0.27578 0.58908 0.18861 0.0
C1266 C 0.23574 0.57394 0.19399 0.0
C1267 C 0.266 0.56289 0.21884 0.0
C1268 C 0.2529 0.58784 0.18212 0.0
C1269 C 0.28262 0.57699 0.20654 0.0
C1270 C 0.17162 0.49972 0.23944 0.0
C1271 C 0.17762 0.47747 0.2273 0.0
C1272 C 0.14819 0.50087 0.23858 0.0
C1273 C 0.16014 0.45697 0.21406 0.0
C1274 C 0.13121 0.47999 0.22512 0.0
N1275 N 0.13749 0.45866 0.21322 0.0
C1276 C 0.24825 0.50003 0.27311 0.0
C1277 C 0.24364 0.49205 0.22857 0.0
C1278 C 0.2626 0.48286 0.27288 0.0
N1279 N 0.23946 0.50452 0.25121 0.0
C1280 C 0.25746 0.47417 0.2274 0.0
C1281 C 0.26753 0.46968 0.2498 0.0
H1282 H 0.24459 0.51032 0.29076 0.0
H1283 H 0.23639 0.4962 0.21145 0.0
C1284 C 0.16121 0.55944 0.19826 0.0
N1285 N 0.17185 0.54035 0.20148 0.0
C1286 C 0.14416 0.55565 0.17829 0.0
C1287 C 0.15022 0.51303 0.16431 0.0
C1288 C 0.16713 0.51764 0.18473 0.0
C1289 C 0.13836 0.53214 0.16113 0.0
H1290 H 0.16608 0.57775 0.21107 0.0
H1291 H 0.17645 0.50311 0.18724 0.0
O1292 O 0.23083 0.55789 0.28422 0.0
O1293 O 0.19475 0.5789 0.25379 0.0
O1294 O 0.22593 0.54834 0.22479 0.0
O1295 O 0.18856 0.52005 0.25241 0.0
H1296 H 0.22424 0.60492 0.29792 0.0
H1297 H 0.25406 0.54709 0.32261 0.0
H1298 H 0.23804 0.63344 0.3395 0.0
H1299 H 0.2673 0.57653 0.3638 0.0
H1300 H 0.12114 0.58648 0.2674 0.0
H1301 H 0.2046 0.62866 0.27429 0.0
H1302 H 0.14914 0.56093 0.25171 0.0
H1303 H 0.17567 0.65301 0.28946 0.0
H1304 H 0.2957 0.64658 0.29216 0.0
H1305 H 0.24533 0.662 0.23924 0.0
H1306 H 0.13129 0.51568 0.31875 0.0
H1307 H 0.1558 0.59801 0.34119 0.0
H1308 H 0.21752 0.57307 0.18899 0.0
H1309 H 0.27139 0.55338 0.23324 0.0
H1310 H 0.24802 0.5977 0.16781 0.0
H1311 H 0.30097 0.57837 0.21129 0.0
H1312 H 0.19557 0.47602 0.22799 0.0
H1313 H 0.14311 0.51767 0.2482 0.0
H1314 H 0.16457 0.43971 0.20446 0.0
H1315 H 0.11304 0.48072 0.22419 0.0
H1316 H 0.27033 0.48073 0.2907 0.0
H1317 H 0.2604 0.46426 0.20917 0.0
H1318 H 0.13607 0.57123 0.1759 0.0
H1319 H 0.14647 0.4948 0.15117 0.0
Li1320 Li 0.8112 0.91173 0.5355 0.0
Li1321 Li 0.82518 0.88057 0.55581 0.0
Li1322 Li 0.85485 0.91224 0.53969 0.0
Li1323 Li 0.82695 0.87598 0.50926 0.0
C1324 C 0.83624 0.92264 0.59176 0.0
N1325 N 0.84076 0.927 0.64333 0.0
C1326 C 0.81933 0.9307 0.60599 0.0
C1327 C 0.85544 0.91677 0.60375 0.0
C1328 C 0.82195 0.93283 0.63205 0.0
C1329 C 0.85739 0.91908 0.62984 0.0
C1330 C 0.78342 0.8526 0.53165 0.0
C1331 C 0.77105 0.80665 0.526 0.0
N1332 N 0.75263 0.80945 0.53914 0.0
C1333 C 0.76423 0.85505 0.54483 0.0
C1334 C 0.78677 0.82825 0.52191 0.0
C1335 C 0.74891 0.83299 0.54853 0.0
C1336 C 0.77293 0.92482 0.51161 0.0
N1337 N 0.78872 0.93241 0.53239 0.0
C1338 C 0.77294 0.96907 0.54606 0.0
C1339 C 0.78904 0.95414 0.54949 0.0
C1340 C 0.75656 0.96185 0.5246 0.0
C1341 C 0.75671 0.93931 0.5073 0.0
H1342 H 0.77311 0.90758 0.49819 0.0
H1343 H 0.80207 0.96017 0.56558 0.0
C1344 C 0.83531 0.85124 0.59378 0.0
N1345 N 0.81966 0.86366 0.58531 0.0
C1346 C 0.83319 0.84233 0.61643 0.0
C1347 C 0.7989 0.85902 0.6216 0.0
C1348 C 0.80152 0.86735 0.59873 0.0
C1349 C 0.815 0.84649 0.63115 0.0
H1350 H 0.84997 0.84893 0.58343 0.0
H1351 H 0.78958 0.87791 0.59233 0.0
C1352 C 0.83888 0.93638 0.50232 0.0
N1353 N 0.84857 0.98298 0.48746 0.0
C1354 C 0.83993 0.93722 0.47691 0.0
C1355 C 0.84283 0.95921 0.5202 0.0
C1356 C 0.84484 0.96099 0.46977 0.0
C1357 C 0.84767 0.98258 0.5123 0.0
C1358 C 0.86224 0.85513 0.52785 0.0
C1359 C 0.88316 0.86015 0.51706 0.0
C1360 C 0.85222 0.83011 0.53016 0.0
C1361 C 0.89366 0.83996 0.50861 0.0
C1362 C 0.86327 0.81045 0.5215 0.0
N1363 N 0.88358 0.81574 0.51098 0.0
C1364 C 0.89833 0.94785 0.56379 0.0
C1365 C 0.8954 0.93396 0.51968 0.0
C1366 C 0.92102 0.96254 0.56391 0.0
N1367 N 0.88611 0.93366 0.54188 0.0
C1368 C 0.91782 0.94853 0.51889 0.0
C1369 C 0.93124 0.96291 0.54124 0.0
H1370 H 0.89061 0.94777 0.58124 0.0
H1371 H 0.88534 0.92277 0.50244 0.0
C1372 C 0.81013 0.86614 0.45839 0.0
N1373 N 0.82384 0.85715 0.47396 0.0
C1374 C 0.8086 0.85815 0.43223 0.0
C1375 C 0.83438 0.83047 0.438 0.0
C1376 C 0.83557 0.8392 0.46425 0.0
C1377 C 0.82123 0.84049 0.42149 0.0
H1378 H 0.80098 0.88042 0.46631 0.0
H1379 H 0.84649 0.83216 0.47662 0.0
O1380 O 0.83374 0.91981 0.56616 0.0
O1381 O 0.79873 0.87393 0.52805 0.0
O1382 O 0.83416 0.91331 0.50969 0.0
O1383 O 0.85179 0.87467 0.53633 0.0
H1384 H 0.80415 0.93489 0.597 0.0
H1385 H 0.8684 0.90992 0.59295 0.0
H1386 H 0.80895 0.93894 0.64329 0.0
H1387 H 0.87206 0.91439 0.63934 0.0
H1388 H 0.77348 0.78767 0.51868 0.0
H1389 H 0.76132 0.87381 0.55226 0.0
H1390 H 0.80133 0.82607 0.51128 0.0
H1391 H 0.73407 0.83458 0.55887 0.0
H1392 H 0.77372 0.98648 0.5597 0.0
H1393 H 0.74436 0.93288 0.49058 0.0
H1394 H 0.84596 0.83247 0.62237 0.0
H1395 H 0.78481 0.86332 0.63211 0.0
H1396 H 0.83706 0.91972 0.46285 0.0
H1397 H 0.8422 0.95889 0.53997 0.0
H1398 H 0.84571 0.96195 0.45016 0.0
H1399 H 0.85074 1.00041 0.52592 0.0
H1400 H 0.89118 0.87941 0.5152 0.0
H1401 H 0.83611 0.82592 0.53859 0.0
H1402 H 0.90982 0.84355 0.50017 0.0
H1403 H 0.8557 0.79099 0.52314 0.0
H1404 H 0.93054 0.9731 0.58168 0.0
H1405 H 0.92445 0.94856 0.50081 0.0
H1406 H 0.79788 0.86617 0.42045 0.0
H1407 H 0.84448 0.8169 0.43071 0.0
Li1408 Li 0.96358 0.07433 0.30358 0.0
Li1409 Li 0.92914 0.04572 0.27313 0.0
Li1410 Li 0.96244 0.07186 0.25084 0.0
Li1411 Li 0.93088 0.09756 0.27739 0.0
C1412 C 0.97926 0.0326 0.27958 0.0
N1413 N 0.01232 1.00726 0.29317 0.0
C1414 C 0.97519 0.01728 0.29754 0.0
C1415 C 1.00017 0.03517 0.26863 0.0
C1416 C 0.99211 1.00457 0.30412 0.0
C1417 C 0.01666 0.02216 0.27573 0.0
C1418 C 0.91007 0.06188 0.31527 0.0
C1419 C 0.87005 0.05602 0.32417 0.0
N1420 N 0.87287 0.03727 0.33667 0.0
C1421 C 0.91261 0.04256 0.32819 0.0
C1422 C 0.88865 0.06869 0.31318 0.0
C1423 C 0.89358 0.03034 0.3389 0.0
C1424 C 0.9716 0.07457 0.36132 0.0
N1425 N 0.98261 0.07254 0.33979 0.0
C1426 C 0.01512 0.06373 0.36524 0.0
C1427 C 1.0044 0.06739 0.342 0.0
C1428 C 1.00396 0.06521 0.38776 0.0
C1429 C 0.98171 0.07115 0.38482 0.0
H1430 H 0.95447 0.07863 0.3605 0.0
H1431 H 0.0137 0.06549 0.32552 0.0
C1432 C 0.9191 0.98814 0.26503 0.0
N1433 N 0.90815 1.00801 0.26955 0.0
C1434 C 0.90737 0.96234 0.26439 0.0
C1435 C 0.87232 0.97647 0.2716 0.0
C1436 C 0.88484 1.0022 0.27247 0.0
C1437 C 0.88348 0.95569 0.26789 0.0
H1438 H 0.93728 0.99213 0.26198 0.0
H1439 H 0.87577 0.01753 0.27585 0.0
C1440 C 0.98732 0.12155 0.27892 0.0
N1441 N 0.02633 0.15693 0.27231 0.0
C1442 C 0.98491 0.14362 0.27041 0.0
C1443 C 1.0095 0.1174 0.28405 0.0
C1444 C 1.00488 0.16131 0.26721 0.0
C1445 C 0.02903 0.13555 0.28059 0.0
C1446 C 0.90699 0.05307 0.2315 0.0
C1447 C 0.90867 0.03256 0.21267 0.0
C1448 C 0.88512 0.05739 0.2365 0.0
C1449 C 0.88834 0.01671 0.19898 0.0
C1450 C 0.8652 0.04111 0.2224 0.0
N1451 N 0.86721 0.02127 0.20409 0.0
C1452 C 0.97899 0.04686 0.20059 0.0
C1453 C 0.99383 0.09121 0.20935 0.0
C1454 C 0.98969 0.04439 0.17753 0.0
N1455 N 0.98085 0.07006 0.21651 0.0
C1456 C 1.00489 0.08953 0.18645 0.0
C1457 C 1.00312 0.06582 0.1694 0.0
H1458 H 0.96901 0.02974 0.20558 0.0
H1459 H 0.99565 0.10987 0.22126 0.0
C1460 C 0.91083 0.14791 0.29866 0.0
N1461 N 0.91248 0.13037 0.27744 0.0
C1462 C 0.89915 0.16868 0.29811 0.0
C1463 C 0.89029 0.15426 0.25404 0.0
C1464 C 0.90207 0.13381 0.25535 0.0
C1465 C 0.88832 0.1729 0.27552 0.0
H1466 H 0.91867 0.14613 0.31656 0.0
H1467 H 0.90274 0.12056 0.23813 0.0
O1468 O 0.96311 0.04555 0.27317 0.0
O1469 O 0.92832 0.07373 0.30426 0.0
O1470 O 0.96803 0.10378 0.28172 0.0
O1471 O 0.92658 0.06817 0.24578 0.0
H1472 H 0.9592 0.01537 0.30642 0.0
H1473 H 1.00365 0.04717 0.25487 0.0
H1474 H 0.98922 0.99267 0.31801 0.0
H1475 H 0.03293 0.02395 0.26741 0.0
H1476 H 0.85335 0.06105 0.32269 0.0
H1477 H 0.92903 0.03691 0.32972 0.0
H1478 H 0.88643 0.08353 0.3031 0.0
H1479 H 0.89524 0.01529 0.34888 0.0
H1480 H 0.03207 0.05924 0.36519 0.0
H1481 H 0.97172 0.07339 0.40069 0.0
H1482 H 0.91711 0.94759 0.26085 0.0
H1483 H 0.85405 0.97307 0.27448 0.0
H1484 H 0.96781 0.14698 0.26625 0.0
H1485 H 0.01157 0.10029 0.29051 0.0
H1486 H 1.00332 0.17849 0.26062 0.0
H1487 H 0.04632 0.1326 0.28444 0.0
H1488 H 0.92549 0.02881 0.20883 0.0
H1489 H 0.88357 0.07301 0.25127 0.0
H1490 H 0.88934 1.00072 0.18437 0.0
H1491 H 0.84814 0.04417 0.22607 0.0
H1492 H 0.98745 0.02534 0.16628 0.0
H1493 H 0.01452 0.10714 0.18207 0.0
H1494 H 0.89895 0.18159 0.31569 0.0
H1495 H 0.88254 0.15498 0.23576 0.0
Li1496 Li 0.30376 0.6676 0.54297 0.0
Li1497 Li 0.31344 0.62958 0.51842 0.0
Li1498 Li 0.29758 0.65893 0.4977 0.0
Li1499 Li 0.27363 0.63134 0.52139 0.0
C1500 C 0.34579 0.6835 0.53335 0.0
N1501 N 0.3814 0.71825 0.56504 0.0
C1502 C 0.36267 0.67487 0.54636 0.0
C1503 C 0.34703 0.70979 0.53639 0.0
C1504 C 0.38055 0.69275 0.5623 0.0
C1505 C 0.36516 0.72705 0.55253 0.0
C1506 C 0.28381 0.61857 0.56365 0.0
C1507 C 0.26145 0.57854 0.571 0.0
N1508 N 0.25428 0.59142 0.59179 0.0
C1509 C 0.27629 0.6314 0.58515 0.0
C1510 C 0.27642 0.5919 0.55657 0.0
C1511 C 0.26135 0.61734 0.59911 0.0
C1512 C 0.29578 0.70962 0.57664 0.0
N1513 N 0.3095 0.69244 0.57354 0.0
C1514 C 0.32375 0.70418 0.61714 0.0
C1515 C 0.32369 0.68979 0.59306 0.0
C1516 C 0.30903 0.72134 0.62106 0.0
C1517 C 0.29542 0.72449 0.6003 0.0
H1518 H 0.28406 0.71074 0.5611 0.0
H1519 H 0.33391 0.67546 0.59021 0.0
C1520 C 0.34927 0.61149 0.49623 0.0
N1521 N 0.33491 0.60811 0.51446 0.0
C1522 C 0.36487 0.59585 0.49097 0.0
C1523 C 0.35121 0.57401 0.52395 0.0
C1524 C 0.33563 0.58994 0.52838 0.0
C1525 C 0.36611 0.57683 0.50498 0.0
H1526 H 0.34836 0.6262 0.48556 0.0
H1527 H 0.32419 0.58788 0.54296 0.0
C1528 C 0.2639 0.68144 0.50942 0.0
N1529 N 0.24072 0.70784 0.48148 0.0
C1530 C 0.24228 0.6693 0.49583 0.0
C1531 C 0.27369 0.70703 0.50881 0.0
C1532 C 0.23084 0.68299 0.48186 0.0
C1533 C 0.26172 0.72002 0.49455 0.0
C1534 C 0.29283 0.6015 0.47446 0.0
C1535 C 0.30445 0.60635 0.45365 0.0
C1536 C 0.28726 0.57655 0.47886 0.0
C1537 C 0.31049 0.58615 0.43769 0.0
C1538 C 0.29366 0.55689 0.4625 0.0
N1539 N 0.30505 0.56205 0.44243 0.0
C1540 C 0.31038 0.69486 0.46573 0.0
C1541 C 0.27761 0.66039 0.45083 0.0
C1542 C 0.30606 0.7061 0.44533 0.0
N1543 N 0.29585 0.67273 0.4683 0.0
C1544 C 0.27264 0.67091 0.43023 0.0
C1545 C 0.28663 0.69437 0.42756 0.0
H1546 H 0.32473 0.70425 0.47998 0.0
H1547 H 0.26627 0.6429 0.45355 0.0
C1548 C 0.23214 0.62861 0.54141 0.0
N1549 N 0.24267 0.61523 0.52389 0.0
C1550 C 0.2083 0.62104 0.54252 0.0
C1551 C 0.20665 0.58556 0.5079 0.0
C1552 C 0.23065 0.59386 0.50747 0.0
C1553 C 0.19519 0.59967 0.5252 0.0
H1554 H 0.24216 0.64587 0.5538 0.0
H1555 H 0.23946 0.58401 0.49336 0.0
O1556 O 0.32791 0.66631 0.51804 0.0
O1557 O 0.298 0.63205 0.54937 0.0
O1558 O 0.27577 0.66815 0.5226 0.0
O1559 O 0.2871 0.62109 0.49054 0.0
H1560 H 0.36189 0.65458 0.54433 0.0
H1561 H 0.33398 0.71676 0.52661 0.0
H1562 H 0.39371 0.68636 0.57255 0.0
H1563 H 0.36628 0.74745 0.55517 0.0
H1564 H 0.25547 0.55792 0.56564 0.0
H1565 H 0.28161 0.65203 0.59083 0.0
H1566 H 0.28193 0.58166 0.53994 0.0
H1567 H 0.25528 0.62705 0.61569 0.0
H1568 H 0.33465 0.70134 0.63265 0.0
H1569 H 0.28362 0.73724 0.60255 0.0
H1570 H 0.3757 0.59855 0.47592 0.0
H1571 H 0.35184 0.55996 0.53554 0.0
H1572 H 0.23455 0.64943 0.4957 0.0
H1573 H 0.29058 0.71661 0.51884 0.0
H1574 H 0.21416 0.67379 0.47118 0.0
H1575 H 0.2692 0.73975 0.49374 0.0
H1576 H 0.30906 0.62556 0.45004 0.0
H1577 H 0.27827 0.57245 0.49485 0.0
H1578 H 0.31961 0.58966 0.4216 0.0
H1579 H 0.28959 0.53752 0.46578 0.0
H1580 H 0.31745 0.72405 0.44382 0.0
H1581 H 0.25729 0.66138 0.41728 0.0
H1582 H 0.20009 0.6322 0.55631 0.0
H1583 H 0.19703 0.5691 0.49411 0.0
Li1584 Li 0.42808 0.54559 0.77491 0.0
Li1585 Li 0.46325 0.5752 0.80507 0.0
Li1586 Li 0.43168 0.5984 0.77853 0.0
Li1587 Li 0.46261 0.57376 0.75268 0.0
C1588 C 0.40585 0.5668 0.81288 0.0
N1589 N 0.36171 0.55109 0.82678 0.0
C1590 C 0.40241 0.55224 0.83151 0.0
C1591 C 0.38681 0.57327 0.80123 0.0
C1592 C 0.37997 0.54449 0.83829 0.0
C1593 C 0.36465 0.56521 0.80856 0.0
C1594 C 0.48144 0.53704 0.78143 0.0
C1595 C 0.52194 0.53604 0.7802 0.0
N1596 N 0.51968 0.51983 0.79662 0.0
C1597 C 0.47951 0.52038 0.79829 0.0
C1598 C 0.50282 0.54499 0.77233 0.0
C1599 C 0.49905 0.5119 0.80575 0.0
C1600 C 0.41904 0.48828 0.7694 0.0
N1601 N 0.40763 0.50784 0.77247 0.0
C1602 C 0.37204 0.47611 0.77491 0.0
C1603 C 0.38426 0.50178 0.77502 0.0
C1604 C 0.38359 0.45564 0.77246 0.0
C1605 C 0.40759 0.46254 0.76952 0.0
H1606 H 0.43736 0.49252 0.76693 0.0
H1607 H 0.37485 0.51687 0.77745 0.0
C1608 C 0.50511 0.58509 0.85015 0.0
N1609 N 0.48259 0.57233 0.84084 0.0
C1610 C 0.51651 0.58134 0.87303 0.0
C1611 C 0.48212 0.55129 0.87741 0.0
C1612 C 0.47151 0.55535 0.85448 0.0
C1613 C 0.5052 0.56427 0.88778 0.0
H1614 H 0.51469 0.59838 0.8399 0.0
H1615 H 0.4542 0.5442 0.84745 0.0
C1616 C 0.41103 0.56909 0.72882 0.0
N1617 N 0.37907 0.57234 0.69101 0.0
C1618 C 0.41844 0.58187 0.70971 0.0
C1619 C 0.38743 0.55791 0.72873 0.0
C1620 C 0.40199 0.58332 0.69074 0.0
C1621 C 0.37152 0.55977 0.70943 0.0
C1622 C 0.48703 0.62316 0.77995 0.0
C1623 C 0.48347 0.64391 0.76972 0.0
C1624 C 0.50969 0.62075 0.78591 0.0
C1625 C 0.50274 0.66204 0.76567 0.0
C1626 C 0.5285 0.63926 0.78155 0.0
N1627 N 0.52467 0.65935 0.77161 0.0
C1628 C 0.40282 0.64202 0.79776 0.0
C1629 C 0.41134 0.64122 0.75647 0.0
C1630 C 0.39094 0.66258 0.79681 0.0
N1631 N 0.41307 0.63111 0.77775 0.0
C1632 C 0.39965 0.66168 0.75479 0.0
C1633 C 0.38873 0.67341 0.77502 0.0
H1634 H 0.40361 0.63485 0.81499 0.0
H1635 H 0.41917 0.63354 0.74023 0.0
C1636 C 0.47783 0.54915 0.70145 0.0
N1637 N 0.48079 0.57208 0.71817 0.0
C1638 C 0.48851 0.54679 0.67837 0.0
C1639 C 0.50578 0.59149 0.68879 0.0
C1640 C 0.49476 0.59306 0.71171 0.0
C1641 C 0.503 0.56807 0.67098 0.0
H1642 H 0.46696 0.53218 0.70581 0.0
H1643 H 0.49744 0.61152 0.72422 0.0
O1644 O 0.42757 0.57437 0.80556 0.0
O1645 O 0.46278 0.54632 0.77457 0.0
O1646 O 0.42679 0.56786 0.74775 0.0
O1647 O 0.46842 0.60503 0.78368 0.0
H1648 H 0.41682 0.54688 0.84063 0.0
H1649 H 0.38909 0.58419 0.78651 0.0
H1650 H 0.37706 0.53319 0.85267 0.0
H1651 H 0.34978 0.57007 0.79967 0.0
H1652 H 0.53861 0.54206 0.77334 0.0
H1653 H 0.46317 0.51435 0.8058 0.0
H1654 H 0.50465 0.5581 0.75947 0.0
H1655 H 0.49784 0.49911 0.81888 0.0
H1656 H 0.35368 0.47254 0.77736 0.0
H1657 H 0.41767 0.44804 0.76703 0.0
H1658 H 0.53414 0.59223 0.87926 0.0
H1659 H 0.47207 0.53738 0.88671 0.0
H1660 H 0.43667 0.59071 0.70963 0.0
H1661 H 0.38146 0.54798 0.74345 0.0
H1662 H 0.40744 0.59321 0.67585 0.0
H1663 H 0.35318 0.55126 0.70912 0.0
H1664 H 0.466 0.64592 0.76489 0.0
H1665 H 0.51268 0.60467 0.79368 0.0
H1666 H 0.50028 0.6782 0.75776 0.0
H1667 H 0.54615 0.63765 0.78602 0.0
H1668 H 0.3833 0.66972 0.8134 0.0
H1669 H 0.39958 0.66831 0.73727 0.0
H1670 H 0.48538 0.52794 0.66651 0.0
H1671 H 0.51623 0.60901 0.68505 0.0
Li1672 Li 0.70587 0.04395 0.76721 0.0
Li1673 Li 0.73364 0.07973 0.75636 0.0
Li1674 Li 0.70732 0.04696 0.72292 0.0
Li1675 Li 0.7407 0.03793 0.74826 0.0
C1676 C 0.68196 0.08029 0.76121 0.0
N1677 N 0.64646 0.09719 0.78484 0.0
C1678 C 0.68701 0.10247 0.78007 0.0
C1679 C 0.65882 0.06688 0.75421 0.0
C1680 C 0.66882 0.11067 0.7918 0.0
C1681 C 0.64113 0.07567 0.76645 0.0
C1682 C 0.75378 0.05339 0.79774 0.0
C1683 C 0.7933 0.05557 0.81384 0.0
N1684 N 0.78512 0.04011 0.82984 0.0
C1685 C 0.74576 0.03763 0.81444 0.0
C1686 C 0.77773 0.06258 0.79753 0.0
C1687 C 0.7619 0.03112 0.83051 0.0
C1688 C 0.66625 0.01679 0.788 0.0
N1689 N 0.68478 0.0372 0.79141 0.0
C1690 C 0.67058 0.05785 0.82777 0.0
C1691 C 0.68768 0.05697 0.81141 0.0
C1692 C 0.65052 0.03779 0.82392 0.0
C1693 C 0.64885 0.01666 0.80419 0.0
H1694 H 0.66442 1.00101 0.77238 0.0
H1695 H 0.70265 0.0729 0.81368 0.0
C1696 C 0.73889 0.13096 0.75253 0.0
N1697 N 0.7466 0.11528 0.76613 0.0
C1698 C 0.74745 0.1574 0.75932 0.0
C1699 C 0.77155 0.15103 0.79415 0.0
C1700 C 0.76244 0.12469 0.78671 0.0
C1701 C 0.76404 0.16774 0.78036 0.0
H1702 H 0.726 0.12287 0.73647 0.0
H1703 H 0.76784 0.11179 0.7975 0.0
C1704 C 0.69113 0.99457 0.73334 0.0
N1705 N 0.65678 0.94971 0.72206 0.0
C1706 C 0.69604 0.97157 0.7374 0.0
C1707 C 0.66877 0.99468 0.72337 0.0
C1708 C 0.67843 0.94912 0.73165 0.0
C1709 C 0.65164 0.97182 0.71782 0.0
C1710 C 0.75451 0.08138 0.71547 0.0
C1711 C 0.74487 0.09069 0.69598 0.0
C1712 C 0.77709 0.09322 0.72671 0.0
C1713 C 0.75795 0.11188 0.68816 0.0
C1714 C 0.78958 0.11441 0.7184 0.0
N1715 N 0.77984 0.1232 0.69944 0.0
C1716 C 0.67625 0.06125 0.69181 0.0
C1717 C 0.68389 0.02114 0.67402 0.0
C1718 C 0.65913 0.05873 0.67218 0.0
N1719 N 0.6879 0.04242 0.69262 0.0
C1720 C 0.66698 0.01794 0.65377 0.0
C1721 C 0.65411 0.03674 0.65299 0.0
H1722 H 0.67998 0.07809 0.70671 0.0
H1723 H 0.69331 1.00637 0.6753 0.0
C1724 C 0.76281 1.00217 0.76362 0.0
N1725 N 0.76473 0.01976 0.74867 0.0
C1726 C 0.78164 0.99174 0.76894 0.0
C1727 C 0.80351 0.01604 0.7417 0.0
C1728 C 0.78433 0.02647 0.73728 0.0
C1729 C 0.8024 0.99907 0.7583 0.0
H1730 H 0.74706 0.99732 0.77249 0.0
H1731 H 0.78537 0.04054 0.72551 0.0
O1732 O 0.69959 0.07161 0.74988 0.0
O1733 O 0.73824 0.05965 0.78162 0.0
O1734 O 0.70836 0.01659 0.73843 0.0
O1735 O 0.74185 0.06086 0.72359 0.0
H1736 H 0.7048 0.11301 0.78592 0.0
H1737 H 0.65454 0.04976 0.73963 0.0
H1738 H 0.67251 0.12768 0.80655 0.0
H1739 H 0.62317 0.06535 0.76134 0.0
H1740 H 0.81187 0.06231 0.81368 0.0
H1741 H 0.7273 0.03028 0.81481 0.0
H1742 H 0.78425 0.0746 0.78458 0.0
H1743 H 0.75595 0.01884 0.84343 0.0
H1744 H 0.67265 0.07469 0.84252 0.0
H1745 H 0.63404 1.00041 0.80094 0.0
H1746 H 0.74133 0.16956 0.74804 0.0
H1747 H 0.78406 0.15826 0.81068 0.0
H1748 H 0.71329 0.97103 0.74483 0.0
H1749 H 0.66455 1.01222 0.72025 0.0
H1750 H 0.68199 0.93121 0.73474 0.0
H1751 H 0.63425 0.97169 0.71021 0.0
H1752 H 0.72743 0.08172 0.68706 0.0
H1753 H 0.78476 0.08635 0.74192 0.0
H1754 H 0.75068 0.11936 0.67316 0.0
H1755 H 0.807 0.1239 0.72705 0.0
H1756 H 0.65002 0.07395 0.67192 0.0
H1757 H 0.66364 1.00076 0.63921 0.0
H1758 H 0.78014 0.97838 0.78156 0.0
H1759 H 0.81926 0.02186 0.73304 0.0
Li1760 Li 0.80688 0.71772 0.03552 0.0
Li1761 Li 0.82282 0.68373 1.00886 0.0
Li1762 Li 0.80694 0.71304 0.9875 0.0
Li1763 Li 0.78013 0.67998 1.00426 0.0
C1764 C 0.85352 0.73349 1.00551 0.0
N1765 N 0.89239 0.75712 0.98586 0.0
C1766 C 0.86391 0.71922 0.98744 0.0
C1767 C 0.86294 0.75976 0.0137 0.0
C1768 C 0.88354 0.73152 0.97769 0.0
C1769 C 0.8826 0.77136 1.00351 0.0
C1770 C 0.80793 0.66384 0.04747 0.0
C1771 C 0.81049 0.62099 0.0507 0.0
N1772 N 0.82483 0.63065 0.07245 0.0
C1773 C 0.82266 0.67337 0.06986 0.0
C1774 C 0.80172 0.63746 0.0378 0.0
C1775 C 0.83101 0.65626 0.08222 0.0
C1776 C 0.79014 0.72497 0.0831 0.0
N1777 N 0.80752 0.73622 0.07071 0.0
C1778 C 0.8248 0.76554 0.10944 0.0
C1779 C 0.82456 0.75648 0.08332 0.0
C1780 C 0.8076 0.7534 0.12288 0.0
C1781 C 0.78988 0.73315 0.10907 0.0
H1782 H 0.77684 0.70879 0.07293 0.0
H1783 H 0.83847 0.76506 0.07339 0.0
C1784 C 0.84479 0.64185 0.9936 0.0
N1785 N 0.84674 0.66407 0.01056 0.0
C1786 C 0.86113 0.62679 0.99518 0.0
C1787 C 0.88142 0.65775 0.03156 0.0
C1788 C 0.86478 0.67232 0.02915 0.0
C1789 C 0.87971 0.63441 0.01456 0.0
H1790 H 0.83035 0.63562 0.97895 0.0
H1791 H 0.866 0.69002 0.04249 0.0
C1792 C 0.77673 0.74163 0.01079 0.0
N1793 N 0.76853 0.79003 0.01373 0.0
C1794 C 0.75475 0.74452 1.00254 0.0
C1795 C 0.79452 0.76332 0.02057 0.0
C1796 C 0.75096 0.76918 1.00417 0.0
C1797 C 0.79003 0.78763 0.0219 0.0
C1798 C 0.78778 0.66684 0.9546 0.0
C1799 C 0.7682 0.67662 0.95026 0.0
C1800 C 0.79394 0.64947 0.93543 0.0
C1801 C 0.75507 0.66878 0.92678 0.0
C1802 C 0.78035 0.64209 0.9122 0.0
N1803 N 0.76136 0.65182 0.90839 0.0
C1804 C 0.82359 0.71991 0.93939 0.0
C1805 C 0.79786 0.74639 0.9516 0.0
C1806 C 0.82513 0.72805 0.91627 0.0
N1807 N 0.81015 0.72907 0.95676 0.0
C1808 C 0.79869 0.75482 0.92858 0.0
C1809 C 0.81236 0.7456 0.91028 0.0
H1810 H 0.83268 0.70553 0.94306 0.0
H1811 H 0.78688 0.75339 0.965 0.0
C1812 C 0.74409 0.63223 0.9925 0.0
N1813 N 0.74909 0.65802 1.00151 0.0
C1814 C 0.72167 0.61719 0.99309 0.0
C1815 C 0.70981 0.65558 0.0114 0.0
C1816 C 0.73238 0.66977 0.01062 0.0
C1817 C 0.70416 0.62876 1.00304 0.0
H1818 H 0.75763 0.62322 0.98537 0.0
H1819 H 0.73672 0.69025 0.01777 0.0
O1820 O 0.8342 0.72187 0.01517 0.0
O1821 O 0.80014 0.68031 0.03469 0.0
O1822 O 0.78075 0.71767 0.00927 0.0
O1823 O 0.8012 0.67458 0.97727 0.0
H1824 H 0.85676 0.6989 0.98077 0.0
H1825 H 0.85515 0.77107 0.02776 0.0
H1826 H 0.89169 0.72073 0.96359 0.0
H1827 H 0.89006 0.79169 0.00963 0.0
H1828 H 0.80596 0.60054 0.04337 0.0
H1829 H 0.8278 0.69377 0.07747 0.0
H1830 H 0.79052 0.62984 0.02036 0.0
H1831 H 0.8425 0.66336 0.09952 0.0
H1832 H 0.83895 0.78103 0.1192 0.0
H1833 H 0.77615 0.72325 0.11841 0.0
H1834 H 0.85912 0.60929 0.98129 0.0
H1835 H 0.89509 0.66442 0.04704 0.0
H1836 H 0.74083 0.72791 0.99484 0.0
H1837 H 0.8116 0.7614 0.02703 0.0
H1838 H 0.73407 0.77173 0.99781 0.0
H1839 H 0.80364 0.80459 0.0294 0.0
H1840 H 0.76323 0.69023 0.96477 0.0
H1841 H 0.80914 0.64186 0.93843 0.0
H1842 H 0.7399 0.67621 0.92315 0.0
H1843 H 0.78493 0.62867 0.89718 0.0
H1844 H 0.83562 0.71992 0.90284 0.0
H1845 H 0.7886 0.76848 0.92516 0.0
H1846 H 0.71834 0.59663 0.98657 0.0
H1847 H 0.69696 0.66562 0.01871 0.0
Li1848 Li 0.90578 0.53872 0.81543 0.0
Li1849 Li 0.94196 0.5634 0.84137 0.0
Li1850 Li 0.91295 0.58327 0.82781 0.0
Li1851 Li 0.93599 0.56508 0.79692 0.0
C1852 C 0.8942 0.56833 0.86539 0.0
N1853 N 0.86389 0.58967 0.89455 0.0
C1854 C 0.90279 0.58901 0.88546 0.0
C1855 C 0.87014 0.5586 0.86014 0.0
C1856 C 0.88721 0.59951 0.89998 0.0
C1857 C 0.85511 0.56961 0.8751 0.0
C1858 C 0.93995 0.51211 0.81707 0.0
C1859 C 0.94934 0.47082 0.80566 0.0
N1860 N 0.94188 0.46471 0.82737 0.0
C1861 C 0.93256 0.50545 0.83939 0.0
C1862 C 0.94855 0.49468 0.80013 0.0
C1863 C 0.93361 0.4814 0.84421 0.0
C1864 C 0.88946 0.49192 0.78385 0.0
N1865 N 0.88614 0.50517 0.80654 0.0
C1866 C 0.86323 0.46717 0.8163 0.0
C1867 C 0.87326 0.49344 0.82275 0.0
C1868 C 0.86735 0.45299 0.79349 0.0
C1869 C 0.88025 0.46564 0.77695 0.0
H1870 H 0.90057 0.50152 0.7718 0.0
H1871 H 0.87195 0.50399 0.84123 0.0
C1872 C 0.96985 0.5808 0.88815 0.0
N1873 N 0.96671 0.56419 0.86566 0.0
C1874 C 0.98828 0.5818 0.90589 0.0
C1875 C 1.00061 0.54963 0.87641 0.0
C1876 C 0.98209 0.54936 0.85929 0.0
C1877 C 1.00356 0.56563 0.90016 0.0
H1878 H 0.95808 0.59323 0.89235 0.0
H1879 H 0.98024 0.53741 0.84085 0.0
C1880 C 0.88506 0.54921 0.77503 0.0
N1881 N 0.85035 0.52011 0.73831 0.0
C1882 C 0.88985 0.54326 0.75009 0.0
C1883 C 0.86249 0.54069 0.7812 0.0
C1884 C 0.8721 0.52845 0.73182 0.0
C1885 C 0.84522 0.52589 0.7624 0.0
C1886 C 0.97068 0.60369 0.82654 0.0
C1887 C 0.98037 0.62997 0.83427 0.0
C1888 C 0.98515 0.58715 0.81883 0.0
C1889 C 1.0043 0.63924 0.83415 0.0
C1890 C 1.00898 0.59715 0.81895 0.0
N1891 N 0.018 0.62278 0.82655 0.0
C1892 C 0.91226 0.63536 0.84439 0.0
C1893 C 0.8757 0.60703 0.82904 0.0
C1894 C 0.90261 0.65658 0.84425 0.0
N1895 N 0.89892 0.61131 0.83573 0.0
C1896 C 0.86526 0.62755 0.82906 0.0
C1897 C 0.87904 0.6527 0.83534 0.0
H1898 H 0.93067 0.63809 0.84971 0.0
H1899 H 0.86561 0.58774 0.82201 0.0
C1900 C 0.95338 0.54294 0.75516 0.0
N1901 N 0.9522 0.56624 0.76826 0.0
C1902 C 0.96992 0.54097 0.73828 0.0
C1903 C 0.98236 0.58726 0.74709 0.0
C1904 C 0.96545 0.58832 0.7638 0.0
C1905 C 0.98527 0.56328 0.73482 0.0
H1906 H 0.94228 0.52584 0.7589 0.0
H1907 H 0.96404 0.60661 0.77448 0.0
O1908 O 0.90921 0.55788 0.85081 0.0
O1909 O 0.93802 0.53516 0.81142 0.0
O1910 O 0.90229 0.56361 0.79318 0.0
O1911 O 0.94721 0.59438 0.82665 0.0
H1912 H 0.92123 0.59719 0.88959 0.0
H1913 H 0.86303 0.54307 0.84439 0.0
H1914 H 0.89366 0.61557 0.91549 0.0
H1915 H 0.83647 0.56231 0.87113 0.0
H1916 H 0.95585 0.45714 0.79265 0.0
H1917 H 0.92586 0.51857 0.8528 0.0
H1918 H 0.95452 0.4994 0.78286 0.0
H1919 H 0.92777 0.47597 0.86132 0.0
H1920 H 0.85362 0.4578 0.82957 0.0
H1921 H 0.88388 0.45514 0.7593 0.0
H1922 H 0.99006 0.59435 0.92415 0.0
H1923 H 0.01233 0.53718 0.87129 0.0
H1924 H 0.90706 0.55004 0.74484 0.0
H1925 H 0.85842 0.545 0.80035 0.0
H1926 H 0.87561 0.52362 0.71247 0.0
H1927 H 0.82776 0.51894 0.76698 0.0
H1928 H 0.96955 0.64314 0.84026 0.0
H1929 H 0.97807 0.56682 0.81249 0.0
H1930 H 0.01199 0.65954 0.84008 0.0
H1931 H 0.0203 0.58454 0.81293 0.0
H1932 H 0.91376 0.6757 0.84917 0.0
H1933 H 0.84712 0.62363 0.82163 0.0
H1934 H 0.97152 0.5221 0.7292 0.0
H1935 H 0.99355 0.60492 0.7445 0.0
Li1936 Li 0.82871 0.42732 0.53591 0.0
Li1937 Li 0.81555 0.4657 0.5266 0.0
Li1938 Li 0.82875 0.4351 0.49317 0.0
Li1939 Li 0.85588 0.46437 0.52647 0.0
C1940 C 0.78226 0.41174 0.518 0.0
N1941 N 0.74376 0.3787 0.52943 0.0
C1942 C 0.76668 0.42129 0.53328 0.0
C1943 C 0.77822 0.38538 0.50848 0.0
C1944 C 0.74733 0.40428 0.53885 0.0
C1945 C 0.75868 0.36899 0.5145 0.0
C1946 C 0.85194 0.47662 0.57563 0.0
C1947 C 0.87554 0.5166 0.59956 0.0
N1948 N 0.88404 0.50368 0.61576 0.0
C1949 C 0.86071 0.46377 0.59269 0.0
C1950 C 0.85921 0.50328 0.57925 0.0
C1951 C 0.877 0.47778 0.61279 0.0
C1952 C 0.8488 0.39475 0.55796 0.0
N1953 N 0.82786 0.40091 0.55462 0.0
C1954 C 0.81016 0.36863 0.57629 0.0
C1955 C 0.80875 0.38865 0.56389 0.0
C1956 C 0.83155 0.36172 0.57961 0.0
C1957 C 0.85105 0.37515 0.57041 0.0
H1958 H 0.86391 0.40523 0.55108 0.0
H1959 H 0.79249 0.39441 0.56189 0.0
C1960 C 0.78536 0.49662 0.51528 0.0
N1961 N 0.79535 0.48794 0.53412 0.0
C1962 C 0.77171 0.51447 0.52079 0.0
C1963 C 0.77857 0.51364 0.56491 0.0
C1964 C 0.79231 0.49605 0.55857 0.0
C1965 C 0.76818 0.52315 0.54588 0.0
H1966 H 0.7883 0.48994 0.49604 0.0
H1967 H 0.80071 0.48894 0.57314 0.0
C1968 C 0.86231 0.40955 0.50031 0.0
N1969 N 0.8793 0.37222 0.4707 0.0
C1970 C 0.8842 0.41581 0.49174 0.0
C1971 C 0.84915 0.38429 0.49402 0.0
C1972 C 0.89247 0.39665 0.47675 0.0
C1973 C 0.85801 0.36571 0.47896 0.0
C1974 C 0.84393 0.4965 0.49394 0.0
C1975 C 0.85229 0.4981 0.47068 0.0
C1976 C 0.84328 0.51897 0.51077 0.0
C1977 C 0.8602 0.52218 0.46482 0.0
C1978 C 0.85131 0.54268 0.5042 0.0
N1979 N 0.85956 0.54378 0.48157 0.0
C1980 C 0.80898 0.39778 0.44929 0.0
C1981 C 0.8463 0.42382 0.44753 0.0
C1982 C 0.81062 0.38174 0.42665 0.0
N1983 N 0.82693 0.41796 0.45943 0.0
C1984 C 0.84867 0.40837 0.4249 0.0
C1985 C 0.8309 0.38668 0.41449 0.0
H1986 H 0.79382 0.39356 0.45922 0.0
H1987 H 0.86054 0.4396 0.45643 0.0
C1988 C 0.89979 0.46877 0.54778 0.0
N1989 N 0.88773 0.48101 0.53389 0.0
C1990 C 0.92396 0.47611 0.55186 0.0
C1991 C 0.92296 0.50881 0.52747 0.0
C1992 C 0.89872 0.50098 0.52406 0.0
C1993 C 0.93589 0.49594 0.5411 0.0
H1994 H 0.89062 0.45256 0.55484 0.0
H1995 H 0.88896 0.51018 0.51272 0.0
O1996 O 0.80111 0.42815 0.51204 0.0
O1997 O 0.83624 0.46316 0.55561 0.0
O1998 O 0.85366 0.42816 0.5145 0.0
O1999 O 0.83612 0.47303 0.49991 0.0
H2000 H 0.76947 0.4416 0.54078 0.0
H2001 H 0.79017 0.37758 0.49682 0.0
H2002 H 0.73515 0.41141 0.55067 0.0
H2003 H 0.7554 0.34855 0.50735 0.0
H2004 H 0.88144 0.53722 0.60246 0.0
H2005 H 0.85508 0.44321 0.59042 0.0
H2006 H 0.85244 0.51359 0.56647 0.0
H2007 H 0.88403 0.46806 0.62604 0.0
H2008 H 0.79486 0.35907 0.58371 0.0
H2009 H 0.86788 0.3705 0.57276 0.0
H2010 H 0.76374 0.52112 0.50558 0.0
H2011 H 0.77632 0.51998 0.58447 0.0
H2012 H 0.89456 0.4353 0.49635 0.0
H2013 H 0.83217 0.37917 0.50051 0.0
H2014 H 0.90932 0.40123 0.46985 0.0
H2015 H 0.84794 0.34612 0.47379 0.0
H2016 H 0.85267 0.48096 0.45726 0.0
H2017 H 0.83663 0.51818 0.52868 0.0
H2018 H 0.86681 0.52368 0.44693 0.0
H2019 H 0.85095 0.5602 0.51709 0.0
H2020 H 0.79635 0.36546 0.41895 0.0
H2021 H 0.86467 0.41271 0.41625 0.0
H2022 H 0.9332 0.46589 0.56278 0.0
H2023 H 0.93148 0.52398 0.51855 0.0
Li2024 Li 0.67578 0.52207 0.30101 0.0
Li2025 Li 0.70821 0.54689 0.27773 0.0
Li2026 Li 0.67337 0.51906 0.24659 0.0
Li2027 Li 0.70638 0.49552 0.27338 0.0
C2028 C 0.67356 0.57277 0.28057 0.0
N2029 N 0.67475 0.62449 0.28666 0.0
C2030 C 0.68359 0.5895 0.30309 0.0
C2031 C 0.664 0.58231 0.26119 0.0
C2032 C 0.68408 0.61559 0.30578 0.0
C2033 C 0.66478 0.60852 0.26463 0.0
C2034 C 0.72945 0.53658 0.32288 0.0
C2035 C 0.76961 0.54263 0.33908 0.0
N2036 N 0.76639 0.56004 0.35912 0.0
C2037 C 0.72648 0.55435 0.34372 0.0
C2038 C 0.75111 0.53048 0.32059 0.0
C2039 C 0.74539 0.56607 0.36181 0.0
C2040 C 0.64413 0.50283 0.34283 0.0
N2041 N 0.65717 0.52396 0.33563 0.0
C2042 C 0.64811 0.54962 0.3746 0.0
C2043 C 0.65888 0.54715 0.35158 0.0
C2044 C 0.63462 0.52824 0.38272 0.0
C2045 C 0.63293 0.50453 0.36569 0.0
H2046 H 0.64234 0.48415 0.33095 0.0
H2047 H 0.6688 0.56432 0.34674 0.0
C2048 C 0.72524 0.59513 0.25845 0.0
N2049 N 0.72884 0.58431 0.27875 0.0
C2050 C 0.73616 0.62096 0.258 0.0
C2051 C 0.75528 0.62498 0.29907 0.0
C2052 C 0.74387 0.59904 0.29883 0.0
C2053 C 0.75151 0.6369 0.27856 0.0
H2054 H 0.71336 0.58385 0.24246 0.0
H2055 H 0.74683 0.59102 0.31515 0.0
C2056 C 0.6512 0.47102 0.27301 0.0
N2057 N 0.61469 0.43317 0.2808 0.0
C2058 C 0.65563 0.45103 0.28396 0.0
C2059 C 0.62826 0.47183 0.26604 0.0
C2060 C 0.63691 0.43205 0.28773 0.0
C2061 C 0.61002 0.45249 0.27013 0.0
C2062 C 0.72742 0.52914 0.23496 0.0
C2063 C 0.72497 0.53 0.20946 0.0
C2064 C 0.74925 0.5386 0.24888 0.0
C2065 C 0.74437 0.54077 0.19837 0.0
C2066 C 0.76822 0.54926 0.23713 0.0
N2067 N 0.76541 0.55014 0.21233 0.0
C2068 C 0.66564 0.53956 0.19787 0.0
C2069 C 0.63274 0.50792 0.20043 0.0
C2070 C 0.65547 0.54338 0.17462 0.0
N2071 N 0.65467 0.52176 0.21075 0.0
C2072 C 0.62177 0.51146 0.17727 0.0
C2073 C 0.63298 0.52934 0.16328 0.0
H2074 H 0.68259 0.5514 0.20569 0.0
H2075 H 0.62334 0.49389 0.21006 0.0
C2076 C 0.72751 0.45215 0.2933 0.0
N2077 N 0.72487 0.46256 0.27236 0.0
C2078 C 0.73927 0.43154 0.29388 0.0
C2079 C 0.74624 0.43118 0.25142 0.0
C2080 C 0.73434 0.45189 0.25159 0.0
C2081 C 0.74935 0.42001 0.27282 0.0
H2082 H 0.72044 0.45976 0.31015 0.0
H2083 H 0.73288 0.45938 0.23461 0.0
O2084 O 0.67361 0.54729 0.27726 0.0
O2085 O 0.71116 0.52486 0.30499 0.0
O2086 O 0.66925 0.48996 0.26952 0.0
O2087 O 0.70858 0.51909 0.24631 0.0
H2088 H 0.69154 0.58253 0.31802 0.0
H2089 H 0.65607 0.56962 0.24369 0.0
H2090 H 0.69204 0.6288 0.32301 0.0
H2091 H 0.6575 0.61617 0.24977 0.0
H2092 H 0.7865 0.53818 0.33752 0.0
H2093 H 0.70978 0.5591 0.34586 0.0
H2094 H 0.75359 0.51647 0.30474 0.0
H2095 H 0.74338 0.57995 0.37799 0.0
H2096 H 0.6503 0.56868 0.38583 0.0
H2097 H 0.62324 0.48694 0.37005 0.0
H2098 H 0.73254 0.62824 0.24133 0.0
H2099 H 0.76655 0.63578 0.3157 0.0
H2100 H 0.67332 0.45024 0.28956 0.0
H2101 H 0.6246 0.4873 0.25767 0.0
H2102 H 0.64004 0.41645 0.2962 0.0
H2103 H 0.59216 0.45286 0.26486 0.0
H2104 H 0.70833 0.52219 0.19827 0.0
H2105 H 0.75144 0.53806 0.26863 0.0
H2106 H 0.74272 0.54161 0.17865 0.0
H2107 H 0.78517 0.55688 0.24774 0.0
H2108 H 0.66535 0.55786 0.16582 0.0
H2109 H 0.60458 0.49973 0.17018 0.0
H2110 H 0.74008 0.42465 0.31122 0.0
H2111 H 0.7532 0.42421 0.23429 0.0
Tb2112 Tb 0.04246 0.02539 0.0098 0.0
C2113 C 0.10375 0.12135 0.07638 0.0
C2114 C 0.1069 0.15313 0.05041 0.0
C2115 C 0.11015 0.16649 0.09583 0.0
C2116 C 0.10307 0.12729 0.05296 0.0
C2117 C 0.10792 0.14087 0.09819 0.0
C2118 C 0.10967 0.17262 0.07193 0.0
C2119 C 0.11021 0.10873 0.12278 0.0
N2120 N 0.10209 0.0965 0.07774 0.0
C2121 C 0.10627 0.09013 0.10058 0.0
C2122 C 0.11067 0.13418 0.12162 0.0
Tb2123 Tb 0.09436 0.06682 0.04043 0.0
N2124 N 0.10068 0.10789 0.03277 0.0
C2125 C 0.10439 0.11351 0.0096 0.0
C2126 C 0.10889 0.15867 0.02646 0.0
C2127 C 0.1081 0.13879 1.00604 0.0
H2128 H 0.10581 0.07052 0.10187 0.0
H2129 H 0.11023 0.14288 0.98749 0.0
H2130 H 0.1123 0.19253 0.07034 0.0
H2131 H 0.11286 0.10341 0.14077 0.0
H2132 H 0.10374 0.09867 0.99337 0.0
H2133 H 0.02611 0.94814 0.06119 0.0
H2134 H 0.1118 0.17823 0.02367 0.0
H2135 H 0.03041 0.02244 0.94855 0.0
H2136 H 0.03216 0.9926 0.05594 0.0
H2137 H 0.02371 0.99008 0.90928 0.0
H2138 H 0.11311 0.18175 0.11234 0.0
H2139 H 0.0258 0.91346 0.02478 0.0
H2140 H 0.02608 0.89997 0.9781 0.0
H2141 H 0.11389 0.1486 0.13882 0.0
H2142 H 0.02522 0.91143 0.93639 0.0
N2143 N 0.03633 0.9841 0.01679 0.0
C2144 C 0.03209 0.978 0.03966 0.0
C2145 C 0.02856 0.93311 0.02229 0.0
C2146 C 0.03089 0.9391 0.99855 0.0
C2147 C 0.02861 0.95261 0.04284 0.0
C2148 C 0.03447 0.96503 0.9964 0.0
H2149 H 0.02368 0.94495 0.91051 0.0
N2150 N 0.03498 0.99623 0.97216 0.0
C2151 C 0.02665 0.98455 0.92712 0.0
C2152 C 0.03375 0.97135 0.97314 0.0
C2153 C 0.03041 1.00285 0.94952 0.0
C2154 C 0.02675 0.95913 0.92787 0.0
C2155 C 0.0298 0.95213 0.95111 0.0
O2156 O 0.01257 0.03326 0.9926 0.0
O2157 O 0.06041 0.06592 0.02237 0.0
O2158 O 0.06788 0.07227 0.06785 0.0
O2159 O 0.03895 0.03572 0.05161 0.0
O2160 O 0.04334 0.05488 0.98715 0.0
O2161 O 0.01118 0.01786 0.02627 0.0
O2162 O 0.12468 0.06055 0.0584 0.0
O2163 O 0.07624 0.02643 0.02832 0.0
O2164 O 0.06882 0.01976 0.98234 0.0
O2165 O 0.09779 0.05625 0.99859 0.0
O2166 O 0.09369 0.03754 0.06335 0.0
O2167 O 0.12504 0.07213 0.0227 0.0
C2168 C 0.05503 0.07459 1.00296 0.0
C2169 C 0.97635 1.00876 0.99922 0.0
C2170 C 0.93497 1.0063 0.99046 0.0
C2171 C 0.95781 0.02078 0.9977 0.0
C2172 C 0.9308 0.97944 0.98439 0.0
C2173 C 0.97218 0.98195 0.99276 0.0
C2174 C 0.94943 0.96737 0.98527 0.0
C2175 C 0.04839 0.0556 0.07046 0.0
C2176 C 0.99945 0.02495 1.00893 0.0
C2177 C 0.02797 0.92646 0.95308 0.0
C2178 C 0.0285 0.91995 0.97681 0.0
C2179 C 0.08164 0.01786 0.04778 0.0
C2180 C 0.1606 0.08312 0.04862 0.0
C2181 C 0.17944 0.07138 0.04835 0.0
C2182 C 0.20238 0.08614 0.0537 0.0
C2183 C 0.2063 0.11299 0.05961 0.0
C2184 C 0.1646 0.10992 0.05485 0.0
C2185 C 0.18743 0.12477 0.06041 0.0
C2186 C 0.08833 0.03638 0.97973 0.0
C2187 C 0.13725 0.0667 0.04079 0.0
H2188 H 0.96108 0.04151 1.00305 0.0
H2189 H 0.91325 0.96791 0.97893 0.0
H2190 H 0.98634 0.97235 0.99386 0.0
H2191 H 0.94618 0.94668 0.98047 0.0
H2192 H 0.17626 0.05065 0.04315 0.0
H2193 H 0.22387 0.12476 0.06372 0.0
H2194 H 0.15021 0.1193 0.05505 0.0
H2195 H 0.19052 0.14546 0.06507 0.0
Tb2196 Tb 0.32867 0.79179 0.25454 0.0
C2197 C 0.32088 0.87357 0.33934 0.0
C2198 C 0.33818 0.87334 0.38084 0.0
C2199 C 0.33595 0.9138 0.36944 0.0
C2200 C 0.32755 0.86026 0.35666 0.0
C2201 C 0.32474 0.90058 0.34571 0.0
C2202 C 0.34269 0.9002 0.38697 0.0
C2203 C 0.3063 0.89972 0.3048 0.0
N2204 N 0.31044 0.8601 0.3164 0.0
C2205 C 0.30309 0.87306 0.29918 0.0
C2206 C 0.31719 0.91356 0.32812 0.0
Tb2207 Tb 0.30488 0.81585 0.31039 0.0
N2208 N 0.32268 0.83436 0.35021 0.0
C2209 C 0.32643 0.82026 0.36789 0.0
C2210 C 0.34338 0.859 0.39838 0.0
C2211 C 0.33721 0.83231 0.39195 0.0
H2212 H 0.29563 0.86365 0.28045 0.0
H2213 H 0.34056 0.82098 0.40557 0.0
H2214 H 0.35098 0.91058 0.40536 0.0
H2215 H 0.30066 0.90963 0.29088 0.0
H2216 H 0.32134 0.79959 0.36331 0.0
H2217 H 0.2523 0.71592 0.2181 0.0
H2218 H 0.35155 0.86833 0.41712 0.0
H2219 H 0.38455 0.79229 0.2548 0.0
H2220 H 0.27342 0.75949 0.23791 0.0
H2221 H 0.40931 0.76122 0.24574 0.0
H2222 H 0.33925 0.93451 0.3745 0.0
H2223 H 0.27356 0.68152 0.20815 0.0
H2224 H 0.31173 0.66819 0.20873 0.0
H2225 H 0.31975 0.93424 0.33231 0.0
H2226 H 0.35453 0.68032 0.21727 0.0
N2227 N 0.30698 0.75077 0.23888 0.0
C2228 C 0.28328 0.74514 0.23331 0.0
C2229 C 0.28308 0.70084 0.21665 0.0
C2230 C 0.30727 0.70665 0.22217 0.0
C2231 C 0.27105 0.72021 0.22216 0.0
C2232 C 0.3188 0.73213 0.23318 0.0
H2233 H 0.39114 0.71503 0.23109 0.0
N2234 N 0.35273 0.76383 0.24722 0.0
C2235 C 0.39054 0.75459 0.24368 0.0
C2236 C 0.34259 0.73884 0.23799 0.0
C2237 C 0.37646 0.7721 0.24891 0.0
C2238 C 0.38023 0.72855 0.23544 0.0
C2239 C 0.35594 0.72044 0.23196 0.0
O2240 O 0.35161 0.80842 0.23082 0.0
O2241 O 0.32449 0.82551 0.28037 0.0
O2242 O 0.28218 0.82131 0.27897 0.0
O2243 O 0.29574 0.80177 0.24286 0.0
O2244 O 0.35691 0.82534 0.26901 0.0
O2245 O 0.31532 0.79291 0.21828 0.0
O2246 O 0.26891 0.80018 0.30174 0.0
O2247 O 0.30567 0.78292 0.28217 0.0
O2248 O 0.35184 0.78649 0.28606 0.0
O2249 O 0.34026 0.80981 0.32206 0.0
O2250 O 0.3064 0.77862 0.31893 0.0
O2251 O 0.28294 0.81676 0.33963 0.0
C2252 C 0.34526 0.83849 0.28299 0.0
C2253 C 0.34094 0.79376 0.18716 0.0
C2254 C 0.34565 0.80098 0.1448 0.0
C2255 C 0.3419 0.80969 0.16975 0.0
C2256 C 0.34841 0.77581 0.13738 0.0
C2257 C 0.34385 0.76871 0.17974 0.0
C2258 C 0.34764 0.75982 0.15488 0.0
C2259 C 0.28051 0.81339 0.25418 0.0
C2260 C 0.33538 0.80373 0.21229 0.0
C2261 C 0.34462 0.69481 0.22186 0.0
C2262 C 0.32028 0.68792 0.21691 0.0
C2263 C 0.3066 0.76704 0.29624 0.0
C2264 C 0.25186 0.7796 0.33213 0.0
C2265 C 0.26227 0.76769 0.34911 0.0
C2266 C 0.25071 0.74379 0.35351 0.0
C2267 C 0.22848 0.73196 0.34085 0.0
C2268 C 0.22954 0.76763 0.3199 0.0
C2269 C 0.21795 0.74393 0.32426 0.0
C2270 C 0.3548 0.79677 0.31062 0.0
C2271 C 0.26474 0.80305 0.32497 0.0
H2272 H 0.33905 0.82883 0.17554 0.0
H2273 H 0.35129 0.76863 0.1182 0.0
H2274 H 0.34288 0.75602 0.19292 0.0
H2275 H 0.3498 0.74045 0.14913 0.0
H2276 H 0.27959 0.7766 0.35841 0.0
H2277 H 0.21911 0.71365 0.34406 0.0
H2278 H 0.22131 0.77638 0.30654 0.0
H2279 H 0.20081 0.73474 0.31462 0.0
Tb2280 Tb 0.59783 0.0568 0.51636 0.0
C2281 C 0.5222 1.00329 0.57389 0.0
C2282 C 0.50317 0.96444 0.54438 0.0
C2283 C 0.50387 0.96549 0.58927 0.0
C2284 C 0.51604 0.99012 0.54952 0.0
C2285 C 0.51576 0.99141 0.59413 0.0
C2286 C 0.4976 0.952 0.56439 0.0
C2287 C 0.5314 0.03221 0.62216 0.0
N2288 N 0.5334 0.02829 0.57767 0.0
C2289 C 0.5373 0.04311 0.6014 0.0
C2290 C 0.52085 1.00615 0.61855 0.0
Tb2291 Tb 0.54323 0.04451 0.54276 0.0
N2292 N 0.52156 1.00299 0.53085 0.0
C2293 C 0.51303 0.99166 0.50648 0.0
C2294 C 0.49571 0.95233 0.51937 0.0
C2295 C 0.50038 0.96614 0.50037 0.0
H2296 H 0.54553 0.06326 0.6045 0.0
H2297 H 0.49428 0.95715 0.48097 0.0
H2298 H 0.48792 0.93221 0.56084 0.0
H2299 H 0.53502 0.04392 0.64093 0.0
H2300 H 0.51638 1.00181 0.49139 0.0
H2301 H 0.6485 0.14407 0.5766 0.0
H2302 H 0.48587 0.93259 0.51459 0.0
H2303 H 0.59129 0.03808 0.45411 0.0
H2304 H 0.62583 0.0995 0.56694 0.0
H2305 H 0.60014 0.05736 0.41731 0.0
H2306 H 0.49894 0.95592 0.60455 0.0
H2307 H 0.65614 0.16816 0.5425 0.0
H2308 H 0.65257 0.16824 0.4962 0.0
H2309 H 0.5162 0.99776 0.63464 0.0
H2310 H 0.63955 0.14457 0.45278 0.0
N2311 N 0.61983 0.09808 0.52756 0.0
C2312 C 0.62894 0.10953 0.55171 0.0
C2313 C 0.64611 0.1485 0.53808 0.0
C2314 C 0.63787 0.13626 0.51325 0.0
C2315 C 0.64188 0.13494 0.55736 0.0
C2316 C 0.62479 0.11069 0.50857 0.0
H2317 H 0.62022 0.1031 0.42315 0.0
N2318 N 0.6058 0.07266 0.48082 0.0
C2319 C 0.60507 0.0689 0.43606 0.0
C2320 C 0.61756 0.09748 0.4843 0.0
C2321 C 0.60014 0.05802 0.45704 0.0
C2322 C 0.61637 0.09473 0.43943 0.0
C2323 C 0.62303 0.10931 0.46379 0.0
O2324 O 0.61682 0.03114 0.49886 0.0
O2325 O 0.56948 0.02739 0.52454 0.0
O2326 O 0.56814 0.03273 0.56714 0.0
O2327 O 0.6027 0.05642 0.55658 0.0
O2328 O 0.58202 0.0201 0.49081 0.0
O2329 O 0.63035 0.05637 0.53433 0.0
O2330 O 0.52303 0.06928 0.55971 0.0
O2331 O 0.57205 0.07362 0.53548 0.0
O2332 O 0.57313 0.07112 0.49438 0.0
O2333 O 0.53962 0.04409 0.5022 0.0
O2334 O 0.55859 0.08141 0.56844 0.0
O2335 O 0.51228 0.04648 0.52272 0.0
C2336 C 0.56762 1.01003 0.50489 0.0
C2337 C 0.65777 0.04202 0.50866 0.0
C2338 C 0.69433 0.02772 0.50564 0.0
C2339 C 0.67198 0.02549 0.51402 0.0
C2340 C 0.70226 0.04704 0.49217 0.0
C2341 C 0.66615 0.06114 0.49531 0.0
C2342 C 0.68831 0.06363 0.48718 0.0
C2343 C 0.59097 0.04222 0.57095 0.0
C2344 C 0.63409 0.03858 0.51662 0.0
C2345 C 0.63532 0.13506 0.46827 0.0
C2346 C 0.64272 0.14853 0.49299 0.0
C2347 C 0.57384 0.09108 0.55498 0.0
C2348 C 0.48252 0.05803 0.54604 0.0
C2349 C 0.46831 0.07462 0.5407 0.0
C2350 C 0.44443 0.06925 0.54437 0.0
C2351 C 0.43519 0.04726 0.55382 0.0
C2352 C 0.47282 0.03632 0.55549 0.0
C2353 C 0.44932 0.03105 0.55941 0.0
C2354 C 0.55063 0.06041 0.48926 0.0
C2355 C 0.50707 0.06297 0.54062 0.0
H2356 H 0.66544 1.01057 0.5242 0.0
H2357 H 0.7194 0.04949 0.48569 0.0
H2358 H 0.65555 0.07402 0.49106 0.0
H2359 H 0.69468 0.07845 0.47686 0.0
H2360 H 0.47571 0.09129 0.53315 0.0
H2361 H 0.41703 0.04271 0.55713 0.0
H2362 H 0.48336 0.02336 0.55964 0.0
H2363 H 0.44196 0.01424 0.56671 0.0
Tb2364 Tb 0.2884 0.30345 0.77519 0.0
C2365 C 0.36349 0.26249 0.82537 0.0
C2366 C 0.37646 0.29368 0.86405 0.0
C2367 C 0.37859 0.24938 0.86226 0.0
C2368 C 0.3666 0.28712 0.83875 0.0
C2369 C 0.37018 0.24346 0.83664 0.0
C2370 C 0.3817 0.27449 0.87597 0.0
C2371 C 0.36278 0.21539 0.79573 0.0
N2372 N 0.35586 0.25782 0.80061 0.0
C2373 C 0.35651 0.235 0.78544 0.0
C2374 C 0.36924 0.21947 0.82155 0.0
Tb2375 Tb 0.34511 0.29072 0.78536 0.0
N2376 N 0.36174 0.30508 0.82633 0.0
C2377 C 0.36849 0.3305 0.83761 0.0
C2378 C 0.38168 0.31944 0.8762 0.0
C2379 C 0.3781 0.33798 0.86275 0.0
H2380 H 0.35146 0.23159 0.76547 0.0
H2381 H 0.38264 0.35806 0.87175 0.0
H2382 H 0.38899 0.27907 0.89548 0.0
H2383 H 0.36261 0.19716 0.78376 0.0
H2384 H 0.36581 0.34522 0.82773 0.0
H2385 H 0.24888 0.23578 0.68956 0.0
H2386 H 0.38918 0.32529 0.89564 0.0
H2387 H 0.28218 0.36272 0.7947 0.0
H2388 H 0.26595 0.24877 0.7334 0.0
H2389 H 0.2711 0.39705 0.77624 0.0
H2390 H 0.38354 0.23496 0.87138 0.0
H2391 H 0.24352 0.26849 0.6651 0.0
H2392 H 0.24472 0.31482 0.66475 0.0
H2393 H 0.37425 0.20433 0.82946 0.0
H2394 H 0.25053 0.35908 0.68861 0.0
N2395 N 0.27133 0.28896 0.73431 0.0
C2396 C 0.26379 0.26351 0.72337 0.0
C2397 C 0.25113 0.27442 0.6845 0.0
C2398 C 0.25697 0.30027 0.69636 0.0
C2399 C 0.25402 0.25592 0.69828 0.0
C2400 C 0.2669 0.30691 0.72163 0.0
H2401 H 0.25964 0.38978 0.73049 0.0
N2402 N 0.27755 0.33622 0.75969 0.0
C2403 C 0.27086 0.37875 0.76434 0.0
C2404 C 0.27007 0.33155 0.7349 0.0
C2405 C 0.27705 0.35916 0.77474 0.0
C2406 C 0.26453 0.37463 0.7385 0.0
C2407 C 0.26358 0.3506 0.7235 0.0
O2408 O 0.26521 0.31504 0.80066 0.0
O2409 O 0.3152 0.29996 0.80286 0.0
O2410 O 0.3202 0.25649 0.79319 0.0
O2411 O 0.28529 0.26135 0.77432 0.0
O2412 O 0.29959 0.33004 0.81107 0.0
O2413 O 0.2569 0.27753 0.7775 0.0
O2414 O 0.36733 0.28033 0.75829 0.0
O2415 O 0.31829 0.29433 0.75792 0.0
O2416 O 0.31341 0.33736 0.76683 0.0
O2417 O 0.34844 0.33268 0.78556 0.0
O2418 O 0.33396 0.26425 0.74932 0.0
O2419 O 0.37798 0.31539 0.78537 0.0
C2420 C 0.31444 0.31902 0.81991 0.0
C2421 C 0.22509 0.29557 0.78906 0.0
C2422 C 0.18546 0.29219 0.80174 0.0
C2423 C 0.20918 0.29204 0.80725 0.0
C2424 C 0.17816 0.29641 0.77809 0.0
C2425 C 0.21719 0.29991 0.76575 0.0
C2426 C 0.19393 0.30041 0.76038 0.0
C2427 C 0.29783 0.24706 0.78417 0.0
C2428 C 0.24956 0.29368 0.79399 0.0
C2429 C 0.25532 0.34464 0.69784 0.0
C2430 C 0.25203 0.31946 0.68425 0.0
C2431 C 0.31892 0.27528 0.74082 0.0
C2432 C 0.40787 0.29573 0.76987 0.0
C2433 C 0.42364 0.3004 0.75177 0.0
C2434 C 0.44586 0.29472 0.75415 0.0
C2435 C 0.45204 0.28467 0.77495 0.0
C2436 C 0.41478 0.28605 0.79055 0.0
C2437 C 0.43669 0.28056 0.79304 0.0
C2438 C 0.3359 0.34676 0.77542 0.0
C2439 C 0.38412 0.30036 0.76682 0.0
H2440 H 0.21506 0.28854 0.82528 0.0
H2441 H 0.16017 0.29678 0.77336 0.0
H2442 H 0.22894 0.3026 0.75154 0.0
H2443 H 0.18803 0.30369 0.74228 0.0
H2444 H 0.41849 0.3079 0.73571 0.0
H2445 H 0.46895 0.28022 0.77736 0.0
H2446 H 0.40324 0.28267 0.80479 0.0
H2447 H 0.4418 0.273 0.80905 0.0
Tb2448 Tb 0.06091 0.07388 0.54078 0.0
C2449 C 0.09745 1.00369 0.4608 0.0
C2450 C 0.06788 0.99374 0.42545 0.0
C2451 C 0.10796 0.9933 0.41826 0.0
C2452 C 0.07471 1.00105 0.45156 0.0
C2453 C 0.11435 0.99941 0.44435 0.0
C2454 C 0.08473 0.99046 0.40882 0.0
C2455 C 0.14208 1.00561 0.48067 0.0
N2456 N 0.10279 1.00941 0.48608 0.0
C2457 C 0.12468 1.0096 0.4962 0.0
C2458 C 0.13698 1.00079 0.45462 0.0
Tb2459 Tb 0.07341 0.01717 0.51012 0.0
N2460 N 0.05903 1.00411 0.46831 0.0
C2461 C 0.03575 0.99794 0.46006 0.0
C2462 C 0.04426 0.9891 0.41693 0.0
C2463 C 0.02808 0.99079 0.43436 0.0
H2464 H 0.12912 0.01341 0.51625 0.0
H2465 H 1.00968 0.98668 0.42804 0.0
H2466 H 0.07987 0.98509 0.3887 0.0
H2467 H 0.15945 1.00632 0.48884 0.0
H2468 H 0.02282 0.99909 0.47305 0.0
H2469 H 0.1234 0.10406 0.6239 0.0
H2470 H 0.03828 0.98351 0.39704 0.0
H2471 H 1.00545 0.07878 0.53367 0.0
H2472 H 0.11092 0.09185 0.57873 0.0
H2473 H 0.97486 0.08634 0.56043 0.0
H2474 H 0.12071 0.99014 0.40529 0.0
H2475 H 0.09429 0.10715 0.65432 0.0
H2476 H 0.05257 0.10587 0.66187 0.0
H2477 H 0.15047 0.99764 0.44264 0.0
H2478 H 0.01205 0.10139 0.64453 0.0
N2479 N 0.0746 0.08676 0.58281 0.0
C2480 C 0.09778 0.09293 0.59147 0.0
C2481 C 0.0886 0.10161 0.63436 0.0
C2482 C 0.0651 0.09711 0.62541 0.0
C2483 C 0.10507 0.09997 0.61726 0.0
C2484 C 0.05866 0.08988 0.59923 0.0
H2485 H 0.98301 0.09459 0.6067 0.0
N2486 N 0.0312 0.08199 0.56424 0.0
C2487 C 0.992 0.08661 0.56891 0.0
C2488 C 0.03611 0.08755 0.58958 0.0
C2489 C 1.00958 0.0823 0.55375 0.0
C2490 C 0.99664 0.0912 0.595 0.0
C2491 C 0.01901 0.09209 0.60568 0.0
O2492 O 0.05056 0.10295 0.52529 0.0
O2493 O 0.06162 0.051 0.50283 0.0
O2494 O 0.10003 0.04771 0.50076 0.0
O2495 O 0.09811 0.07883 0.53512 0.0
O2496 O 0.03366 0.06598 0.50888 0.0
O2497 O 0.0843 0.10985 0.54612 0.0
O2498 O 0.08443 0.98807 0.52489 0.0
O2499 O 0.07277 0.04008 0.5479 0.0
O2500 O 0.03424 0.04357 0.55035 0.0
O2501 O 0.03631 1.0121 0.51633 0.0
O2502 O 0.10065 0.02484 0.54215 0.0
O2503 O 0.05004 0.98124 0.50552 0.0
C2504 C 0.04254 0.05334 0.49131 0.0
C2505 C 0.06952 0.14611 0.54183 0.0
C2506 C 0.07307 0.18808 0.53101 0.0
C2507 C 0.07198 0.16177 0.52403 0.0
C2508 C 0.07147 0.19861 0.55625 0.0
C2509 C 0.06763 0.15661 0.5669 0.0
C2510 C 0.06854 0.18285 0.57403 0.0
C2511 C 0.10905 0.06985 0.51622 0.0
C2512 C 0.07022 0.11928 0.53329 0.0
C2513 C 0.02497 0.09804 0.63183 0.0
C2514 C 0.04801 0.10056 0.6417 0.0
C2515 C 0.09176 0.03772 0.55956 0.0
C2516 C 0.06451 0.94483 0.5101 0.0
C2517 C 0.05824 0.92896 0.52723 0.0
C2518 C 0.0578 0.90269 0.52122 0.0
C2519 C 0.06405 0.89255 0.49761 0.0
C2520 C 0.07059 0.9346 0.4866 0.0
C2521 C 0.07035 0.90846 0.48042 0.0
C2522 C 0.02541 0.02117 0.53523 0.0
C2523 C 0.06448 0.97192 0.51799 0.0
H2524 H 0.07379 0.15354 0.50473 0.0
H2525 H 0.07234 0.21891 0.56214 0.0
H2526 H 0.06573 0.14467 0.58086 0.0
H2527 H 0.06721 0.19105 0.59341 0.0
H2528 H 0.05401 0.93729 0.54555 0.0
H2529 H 0.06382 0.87235 0.49233 0.0
H2530 H 0.0755 0.94674 0.47321 0.0
H2531 H 0.07504 0.90047 0.46227 0.0
Tb2532 Tb 0.34123 0.81324 0.76018 0.0
C2533 C 0.28835 0.75082 0.82712 0.0
C2534 C 0.29975 0.7104 0.8171 0.0
C2535 C 0.28862 0.72444 0.85863 0.0
C2536 C 0.29641 0.73329 0.8104 0.0
C2537 C 0.28354 0.74615 0.85113 0.0
C2538 C 0.29673 0.70657 0.84161 0.0
C2539 C 0.26571 0.78237 0.85697 0.0
N2540 N 0.28315 0.77125 0.81891 0.0
C2541 C 0.27074 0.78615 0.83298 0.0
C2542 C 0.27261 0.76265 0.86633 0.0
Tb2543 Tb 0.29272 0.77594 0.77934 0.0
N2544 N 0.29847 0.73737 0.7867 0.0
C2545 C 0.30129 0.71794 0.76814 0.0
C2546 C 0.30463 0.69141 0.79857 0.0
C2547 C 0.30479 0.69493 0.77383 0.0
H2548 H 0.26469 0.80115 0.82609 0.0
H2549 H 0.30772 0.68001 0.75913 0.0
H2550 H 0.29955 0.68929 0.84722 0.0
H2551 H 0.25641 0.79462 0.86818 0.0
H2552 H 0.30132 0.72021 0.7489 0.0
H2553 H 0.32991 0.91046 0.78406 0.0
H2554 H 0.30727 0.67355 0.80292 0.0
H2555 H 0.36086 0.78351 0.70899 0.0
H2556 H 0.33393 0.86885 0.79246 0.0
H2557 H 0.36766 0.79031 0.66663 0.0
H2558 H 0.28535 0.72071 0.87712 0.0
H2559 H 0.33174 0.91893 0.74103 0.0
H2560 H 0.33856 0.90398 0.69623 0.0
H2561 H 0.26854 0.75966 0.88485 0.0
H2562 H 0.34904 0.87131 0.66427 0.0
N2563 N 0.33739 0.85299 0.75442 0.0
C2564 C 0.3348 0.872 0.77355 0.0
C2565 C 0.33348 0.90047 0.74459 0.0
C2566 C 0.3375 0.88157 0.72537 0.0
C2567 C 0.33253 0.8958 0.76889 0.0
C2568 C 0.33961 0.85786 0.73102 0.0
H2569 H 0.36027 0.82904 0.65318 0.0
N2570 N 0.34879 0.8178 0.72 0.0
C2571 C 0.36138 0.80433 0.67951 0.0
C2572 C 0.34569 0.83969 0.7132 0.0
C2573 C 0.35743 0.80057 0.70377 0.0
C2574 C 0.35713 0.82617 0.67196 0.0
C2575 C 0.34955 0.8444 0.68899 0.0
O2576 O 0.37543 0.80806 0.7617 0.0
O2577 O 0.33025 0.7782 0.77612 0.0
O2578 O 0.31415 0.7948 0.81441 0.0
O2579 O 0.33784 0.82759 0.79977 0.0
O2580 O 0.35121 0.77623 0.74844 0.0
O2581 O 0.36826 0.84344 0.7803 0.0
O2582 O 0.25934 0.78099 0.76838 0.0
O2583 O 0.30406 0.81145 0.76446 0.0
O2584 O 0.31633 0.79806 0.72714 0.0
O2585 O 0.29846 0.76153 0.74009 0.0
O2586 O 0.2828 0.81284 0.79195 0.0
O2587 O 0.26549 0.74349 0.76484 0.0
C2588 C 0.34162 0.76283 0.76368 0.0
C2589 C 0.40504 0.84477 0.76457 0.0
C2590 C 0.44653 0.84964 0.76044 0.0
C2591 C 0.42613 0.83798 0.76961 0.0
C2592 C 0.44554 0.86836 0.746 0.0
C2593 C 0.40424 0.86342 0.75008 0.0
C2594 C 0.42445 0.87511 0.74081 0.0
C2595 C 0.32914 0.81719 0.81825 0.0
C2596 C 0.3843 0.83118 0.77409 0.0
C2597 C 0.34634 0.86742 0.68282 0.0
C2598 C 0.34034 0.886 0.701 0.0
C2599 C 0.29305 0.82687 0.77747 0.0
C2600 C 0.22904 0.74946 0.77727 0.0
C2601 C 0.20879 0.7576 0.77119 0.0
C2602 C 0.1892 0.75244 0.78453 0.0
C2603 C 0.19044 0.73929 0.80438 0.0
C2604 C 0.2295 0.73557 0.79656 0.0
C2605 C 0.2104 0.73079 0.81018 0.0
C2606 C 0.30437 0.77416 0.72205 0.0
C2607 C 0.2498 0.75675 0.76416 0.0
H2608 H 0.42668 0.82383 0.78116 0.0
H2609 H 0.46102 0.8777 0.73872 0.0
H2610 H 0.38813 0.86896 0.74596 0.0
H2611 H 0.42379 0.88949 0.72963 0.0
H2612 H 0.20828 0.76764 0.75579 0.0
H2613 H 0.17597 0.73548 0.81545 0.0
H2614 H 0.24465 0.72857 0.80133 0.0
H2615 H 0.21106 0.72047 0.82531 0.0
Tb2616 Tb 0.58582 0.0451 0.05981 0.0
C2617 C 0.51329 0.06779 0.98468 0.0
C2618 C 0.48147 0.03028 0.97741 0.0
C2619 C 0.47386 0.07157 0.97362 0.0
C2620 C 0.5053 0.04207 0.98404 0.0
C2621 C 0.49783 0.08279 0.9788 0.0
C2622 C 0.46568 0.04531 0.97294 0.0
C2623 C 0.53115 0.11786 0.98077 0.0
N2624 N 0.53655 0.07773 0.98947 0.0
C2625 C 0.54576 0.10212 0.98645 0.0
C2626 C 0.50703 0.1083 0.97736 0.0
Tb2627 Tb 0.55918 0.05085 0.99915 0.0
N2628 N 0.52119 0.02828 0.98824 0.0
C2629 C 0.51455 1.00209 0.98388 0.0
C2630 C 0.47441 1.00366 0.97452 0.0
C2631 C 0.49111 0.98946 0.97726 0.0
H2632 H 0.56435 0.10977 0.98913 0.0
H2633 H 0.48593 0.96878 0.9745 0.0
H2634 H 0.44726 0.03668 0.96816 0.0
H2635 H 0.53851 0.13736 0.97907 0.0
H2636 H 0.52712 0.99074 0.98608 0.0
H2637 H 0.65745 0.12886 0.08363 0.0
H2638 H 0.45627 0.99385 0.9695 0.0
H2639 H 0.58227 0.98629 0.06897 0.0
H2640 H 0.61648 0.10581 0.07261 0.0
H2641 H 0.60911 0.95961 0.07901 0.0
H2642 H 0.46163 0.08281 0.96934 0.0
H2643 H 0.68798 0.10488 0.08859 0.0
H2644 H 0.69819 0.06262 0.0901 0.0
H2645 H 0.49576 0.12048 0.97286 0.0
H2646 H 0.685 0.01632 0.08889 0.0
N2647 N 0.62345 0.06872 0.07051 0.0
C2648 C 0.62946 0.09494 0.07475 0.0
C2649 C 0.66996 0.09458 0.08374 0.0
C2650 C 0.66354 0.06793 0.08101 0.0
C2651 C 0.65277 0.10818 0.08102 0.0
C2652 C 0.63985 0.05549 0.07451 0.0
H2653 H 0.65168 0.97778 0.08529 0.0
N2654 N 0.60941 0.01898 0.06884 0.0
C2655 C 0.61597 0.97924 0.07739 0.0
C2656 C 0.63254 0.02963 0.07369 0.0
C2657 C 0.60081 0.99443 0.07175 0.0
C2658 C 0.63998 0.98954 0.08084 0.0
C2659 C 0.64854 0.0152 0.07948 0.0
O2660 O 0.56919 0.03115 0.08914 0.0
O2661 O 0.555 0.03988 0.03479 0.0
O2662 O 0.54871 0.07897 0.0271 0.0
O2663 O 0.57641 0.08243 0.06132 0.0
O2664 O 0.55516 1.01315 0.05638 0.0
O2665 O 0.58792 0.07072 0.09416 0.0
O2666 O 0.57795 0.06326 0.97048 0.0
O2667 O 0.59009 0.05618 0.02424 0.0
O2668 O 0.59632 0.01717 0.0314 0.0
O2669 O 0.56729 1.01309 0.99848 0.0
O2670 O 0.58945 0.0832 1.0031 0.0
O2671 O 0.55593 0.02512 0.96459 0.0
C2672 C 0.54259 0.0202 0.04007 0.0
C2673 C 0.58587 0.05188 0.12993 0.0
C2674 C 0.57826 0.04848 0.17272 0.0
C2675 C 0.57038 0.04929 0.14811 0.0
C2676 C 0.60208 0.05034 0.17902 0.0
C2677 C 0.6096 0.05347 0.13624 0.0
C2678 C 0.61763 0.05267 0.16076 0.0
C2679 C 0.55956 0.09019 0.04969 0.0
C2680 C 0.57647 0.05302 0.10477 0.0
C2681 C 0.67236 0.02712 0.08467 0.0
C2682 C 0.67986 0.05347 0.08539 0.0
C2683 C 0.60222 0.07622 0.01928 0.0
C2684 C 0.56342 0.04339 0.92893 0.0
C2685 C 0.57987 0.04073 0.91198 0.0
C2686 C 0.57607 0.04444 0.88738 0.0
C2687 C 0.55476 0.04972 0.87959 0.0
C2688 C 0.54231 0.04887 0.9212 0.0
C2689 C 0.53795 0.05178 0.89644 0.0
C2690 C 0.585 1.00582 1.00903 0.0
C2691 C 0.56987 0.04165 0.95476 0.0
H2692 H 0.55212 0.04848 0.14315 0.0
H2693 H 0.60859 0.04983 0.19793 0.0
H2694 H 0.62184 0.05551 0.1224 0.0
H2695 H 0.63595 0.05399 0.16564 0.0
H2696 H 0.59592 0.03602 0.91823 0.0
H2697 H 0.5513 0.05282 0.86076 0.0
H2698 H 0.52944 0.05106 0.93423 0.0
H2699 H 0.52169 0.05608 0.89041 0.0
Tb2700 Tb 0.34834 0.3268 0.29827 0.0
C2701 C 0.24949 0.2849 0.27156 0.0
C2702 C 0.22758 0.25603 0.29495 0.0
C2703 C 0.20856 0.28422 0.27584 0.0
C2704 C 0.24853 0.26616 0.28546 0.0
C2705 C 0.22951 0.29429 0.26664 0.0
C2706 C 0.20762 0.26516 0.29005 0.0
C2707 C 0.25282 0.3245 0.2459 0.0
N2708 N 0.27032 0.29479 0.26388 0.0
C2709 C 0.27218 0.31481 0.25154 0.0
C2710 C 0.23133 0.31407 0.25329 0.0
Tb2711 Tb 0.30018 0.27448 0.27044 0.0
N2712 N 0.26819 0.25794 0.2898 0.0
C2713 C 0.26735 0.238 0.30217 0.0
C2714 C 0.22725 0.23692 0.30895 0.0
C2715 C 0.24721 0.22771 0.31239 0.0
H2716 H 0.28853 0.32428 0.24654 0.0
H2717 H 0.24698 0.21231 0.32247 0.0
H2718 H 0.19141 0.25767 0.29722 0.0
H2719 H 0.25462 0.34033 0.23617 0.0
H2720 H 0.28216 0.2295 0.30368 0.0
H2721 H 0.4164 0.31386 0.23882 0.0
H2722 H 0.21157 0.22877 0.31668 0.0
H2723 H 0.35409 0.35052 0.35977 0.0
H2724 H 0.3773 0.31835 0.24779 0.0
H2725 H 0.3816 0.35335 0.39668 0.0
H2726 H 0.19312 0.29131 0.27239 0.0
H2727 H 0.44462 0.31013 0.27265 0.0
H2728 H 0.45454 0.31151 0.31844 0.0
H2729 H 0.21644 0.32186 0.2492 0.0
H2730 H 0.44461 0.32143 0.36182 0.0
N2731 N 0.38291 0.31794 0.28687 0.0
C2732 C 0.38924 0.31704 0.26299 0.0
C2733 C 0.4275 0.31258 0.27689 0.0
C2734 C 0.42132 0.31444 0.30141 0.0
C2735 C 0.41158 0.31454 0.25773 0.0
C2736 C 0.39882 0.31779 0.30596 0.0
H2737 H 0.41756 0.33756 0.39127 0.0
N2738 N 0.37291 0.33067 0.33386 0.0
C2739 C 0.38501 0.3447 0.37816 0.0
C2740 C 0.39346 0.32395 0.33032 0.0
C2741 C 0.36937 0.3429 0.35716 0.0
C2742 C 0.40524 0.33569 0.37504 0.0
C2743 C 0.41013 0.32608 0.3508 0.0
O2744 O 0.34166 0.36378 0.30505 0.0
O2745 O 0.31097 0.31367 0.2894 0.0
O2746 O 0.31155 0.2935 0.2394 0.0
O2747 O 0.3418 0.32845 0.25803 0.0
O2748 O 0.32361 0.3364 0.32458 0.0
O2749 O 0.3749 0.35837 0.29524 0.0
O2750 O 0.29538 0.26026 0.23119 0.0
O2751 O 0.33745 0.28955 0.2739 0.0
O2752 O 0.34354 0.30153 0.32613 0.0
O2753 O 0.30824 0.27172 0.31027 0.0
O2754 O 0.32596 0.25274 0.27816 0.0
O2755 O 0.28555 0.23532 0.25661 0.0
C2756 C 0.30509 0.32386 0.31016 0.0
C2757 C 0.36169 0.39126 0.28035 0.0
C2758 C 0.34162 0.41659 0.25768 0.0
C2759 C 0.34114 0.39783 0.27242 0.0
C2760 C 0.36295 0.42718 0.2493 0.0
C2761 C 0.38272 0.40213 0.27183 0.0
C2762 C 0.38322 0.41964 0.25603 0.0
C2763 C 0.32761 0.31429 0.23818 0.0
C2764 C 0.36161 0.37441 0.29868 0.0
C2765 C 0.4317 0.32023 0.34632 0.0
C2766 C 0.43736 0.31458 0.32163 0.0
C2767 C 0.34436 0.26989 0.27713 0.0
C2768 C 0.30108 0.21822 0.22013 0.0
C2769 C 0.31293 0.2039 0.2332 0.0
C2770 C 0.32466 0.18651 0.22036 0.0
C2771 C 0.32426 0.18323 0.19412 0.0
C2772 C 0.30104 0.21488 0.19395 0.0
C2773 C 0.31256 0.19743 0.18104 0.0
C2774 C 0.32583 0.2825 0.32824 0.0
C2775 C 0.28876 0.23662 0.23353 0.0
H2776 H 0.32483 0.38871 0.27829 0.0
H2777 H 0.36435 0.44201 0.23836 0.0
H2778 H 0.39882 0.39733 0.27766 0.0
H2779 H 0.39953 0.42809 0.24968 0.0
H2780 H 0.31287 0.20594 0.25337 0.0
H2781 H 0.33326 0.16997 0.18382 0.0
H2782 H 0.29208 0.22573 0.1835 0.0
H2783 H 0.31245 0.19495 0.16084 0.0
Tb2784 Tb 0.56403 0.57527 0.04008 0.0
C2785 C 0.59896 0.50257 0.96078 0.0
C2786 C 0.56889 0.49193 0.92587 0.0
C2787 C 0.60875 0.491 0.9181 0.0
C2788 C 0.57613 0.49984 0.95187 0.0
C2789 C 0.61556 0.4978 0.9441 0.0
C2790 C 0.58541 0.48806 0.90899 0.0
C2791 C 0.64392 0.50515 0.9801 0.0
N2792 N 0.60471 0.50899 0.98599 0.0
C2793 C 0.6268 0.5096 0.99586 0.0
C2794 C 0.63835 0.49948 0.95408 0.0
Tb2795 Tb 0.57586 0.51778 0.0104 0.0
N2796 N 0.56077 0.50352 0.96886 0.0
C2797 C 0.53741 0.49748 0.96101 0.0
C2798 C 0.54519 0.4874 0.91772 0.0
C2799 C 0.52935 0.48979 0.93543 0.0
H2800 H 0.6316 0.5141 0.01587 0.0
H2801 H 0.51089 0.48577 0.92941 0.0
H2802 H 0.58024 0.48221 0.88894 0.0
H2803 H 0.66143 0.50616 0.98806 0.0
H2804 H 0.52471 0.49915 0.97417 0.0
H2805 H 0.6272 0.60566 0.1226 0.0
H2806 H 0.5389 0.48136 0.89792 0.0
H2807 H 0.50886 0.58121 0.03324 0.0
H2808 H 0.61433 0.59308 0.07748 0.0
H2809 H 0.47861 0.58952 0.06023 0.0
H2810 H 0.62126 0.48744 0.90495 0.0
H2811 H 0.5984 0.6095 0.15329 0.0
H2812 H 0.55685 0.60889 0.16117 0.0
H2813 H 0.65163 0.49599 0.94192 0.0
H2814 H 0.51632 0.6048 0.14412 0.0
N2815 N 0.57813 0.58848 0.08195 0.0
C2816 C 0.60136 0.59447 0.09038 0.0
C2817 C 0.59256 0.60379 0.13337 0.0
C2818 C 0.56902 0.59949 0.12462 0.0
C2819 C 0.60885 0.60172 0.11612 0.0
C2820 C 0.56236 0.59201 0.09848 0.0
H2821 H 0.48708 0.59805 0.10648 0.0
N2822 N 0.53465 0.58408 0.06366 0.0
C2823 C 0.49572 0.58953 0.0686 0.0
C2824 C 0.53978 0.58989 0.08899 0.0
C2825 C 0.51309 0.58476 0.0533 0.0
C2826 C 0.50054 0.59428 0.09468 0.0
C2827 C 0.5229 0.59491 0.10521 0.0
O2828 O 0.55439 0.60332 0.02246 0.0
O2829 O 0.56428 0.55153 1.00244 0.0
O2830 O 0.60217 0.54779 0.9998 0.0
O2831 O 0.60109 0.57977 0.03371 0.0
O2832 O 0.53637 0.56671 1.00846 0.0
O2833 O 0.58651 0.61198 0.04656 0.0
O2834 O 0.58714 0.48856 0.02497 0.0
O2835 O 0.57586 0.54164 0.04781 0.0
O2836 O 0.53721 0.54565 0.05046 0.0
O2837 O 0.53893 0.51347 0.01693 0.0
O2838 O 0.60353 0.52608 0.04202 0.0
O2839 O 0.55182 0.4828 1.00847 0.0
C2840 C 0.54507 0.55364 0.991 0.0
C2841 C 0.57021 0.64678 0.04019 0.0
C2842 C 0.56989 0.68787 0.02866 0.0
C2843 C 0.57189 0.66236 0.0223 0.0
C2844 C 0.56617 0.69768 0.05345 0.0
C2845 C 0.56621 0.65658 0.06477 0.0
C2846 C 0.56421 0.68202 0.07133 0.0
C2847 C 0.61156 0.57019 0.01466 0.0
C2848 C 0.57304 0.62059 0.03214 0.0
C2849 C 0.52908 0.60109 0.13133 0.0
C2850 C 0.55213 0.60338 0.14103 0.0
C2851 C 0.59489 0.53932 0.05937 0.0
C2852 C 0.56463 0.44563 0.01394 0.0
C2853 C 0.55972 0.43158 0.0329 0.0
C2854 C 0.5562 0.40476 0.02778 0.0
C2855 C 0.55784 0.39215 1.00319 0.0
C2856 C 0.56635 0.43291 0.98958 0.0
C2857 C 0.56301 0.4062 0.98429 0.0
C2858 C 0.5283 0.52298 0.03587 0.0
C2859 C 0.56654 0.47332 0.02036 0.0
H2860 H 0.57527 0.65468 1.00339 0.0
H2861 H 0.56457 0.71731 0.05891 0.0
H2862 H 0.56478 0.64469 0.07877 0.0
H2863 H 0.56121 0.68966 0.09033 0.0
H2864 H 0.55801 0.44158 0.05161 0.0
H2865 H 0.55535 0.3715 0.99864 0.0
H2866 H 0.57002 0.44355 0.97475 0.0
H2867 H 0.5643 0.39632 0.96546 0.0
Tb2868 Tb 0.84369 0.31443 0.26209 0.0
C2869 C 0.79114 0.25462 0.33145 0.0
C2870 C 0.80115 0.21342 0.32177 0.0
C2871 C 0.79153 0.22901 0.36363 0.0
C2872 C 0.7982 0.23629 0.3147 0.0
C2873 C 0.78701 0.25085 0.35589 0.0
C2874 C 0.79859 0.2103 0.34657 0.0
C2875 C 0.77124 0.28853 0.36201 0.0
N2876 N 0.78649 0.27518 0.32302 0.0
C2877 C 0.77551 0.29138 0.33758 0.0
C2878 C 0.77743 0.26848 0.3714 0.0
Tb2879 Tb 0.79499 0.2784 0.28272 0.0
N2880 N 0.79991 0.23977 0.29079 0.0
C2881 C 0.80221 0.21987 0.27246 0.0
C2882 C 0.80531 0.19383 0.30338 0.0
C2883 C 0.80527 0.19685 0.27849 0.0
H2884 H 0.77006 0.30677 0.33083 0.0
H2885 H 0.80775 0.18153 0.26393 0.0
H2886 H 0.80109 0.19303 0.35243 0.0
H2887 H 0.76308 0.30179 0.37356 0.0
H2888 H 0.80218 0.22179 0.25313 0.0
H2889 H 0.83144 0.4115 0.28115 0.0
H2890 H 0.80763 0.17597 0.30801 0.0
H2891 H 0.86603 0.28412 0.21269 0.0
H2892 H 0.83641 0.37103 0.29183 0.0
H2893 H 0.87236 0.28885 0.16979 0.0
H2894 H 0.78873 0.22593 0.38242 0.0
H2895 H 0.83231 0.4174 0.23722 0.0
H2896 H 0.83891 0.4004 0.19283 0.0
H2897 H 0.77395 0.26624 0.39028 0.0
H2898 H 0.85019 0.36696 0.16248 0.0
N2899 N 0.8393 0.35329 0.25425 0.0
C2900 C 0.83679 0.37308 0.27257 0.0
C2901 C 0.83444 0.39945 0.2418 0.0
C2902 C 0.83859 0.37986 0.2234 0.0
C2903 C 0.83403 0.39623 0.2666 0.0
C2904 C 0.84124 0.35686 0.23038 0.0
H2905 H 0.86306 0.32553 0.15384 0.0
N2906 N 0.8517 0.31721 0.22155 0.0
C2907 C 0.86524 0.30279 0.18181 0.0
C2908 C 0.84777 0.33823 0.21343 0.0
C2909 C 0.8614 0.30014 0.20638 0.0
C2910 C 0.85994 0.32348 0.17285 0.0
C2911 C 0.85155 0.34182 0.18886 0.0
O2912 O 0.87708 0.30823 0.27059 0.0
O2913 O 0.83215 0.27963 0.2782 0.0
O2914 O 0.81825 0.29667 0.31668 0.0
O2915 O 0.83975 0.33018 0.30126 0.0
O2916 O 0.85286 0.27702 0.25027 0.0
O2917 O 0.87167 0.3462 0.27657 0.0
O2918 O 0.76144 0.28414 0.27401 0.0
O2919 O 0.80659 0.31342 0.26707 0.0
O2920 O 0.81963 0.29745 0.22863 0.0
O2921 O 0.79929 0.26292 0.24334 0.0
O2922 O 0.78549 0.31558 0.29465 0.0
O2923 O 0.76739 0.24642 0.26778 0.0
C2924 C 0.84294 0.26376 0.26549 0.0
C2925 C 0.90831 0.34018 0.26439 0.0
C2926 C 0.94939 0.34002 0.26105 0.0
C2927 C 0.92889 0.33381 0.27273 0.0
C2928 C 0.94882 0.35251 0.24063 0.0
C2929 C 0.90827 0.35297 0.24424 0.0
C2930 C 0.92841 0.35896 0.23238 0.0
C2931 C 0.83232 0.31958 0.32013 0.0
C2932 C 0.887 0.33237 0.27642 0.0
C2933 C 0.8476 0.36398 0.18134 0.0
C2934 C 0.84114 0.383 0.19861 0.0
C2935 C 0.79568 0.32919 0.27984 0.0
C2936 C 0.73093 0.25173 0.28089 0.0
C2937 C 0.71011 0.25825 0.27368 0.0
C2938 C 0.6902 0.25207 0.28631 0.0
C2939 C 0.69167 0.23948 0.30656 0.0
C2940 C 0.73174 0.23855 0.30067 0.0
C2941 C 0.71226 0.23267 0.31353 0.0
C2942 C 0.80616 0.27425 0.22469 0.0
C2943 C 0.7518 0.25992 0.26829 0.0
H2944 H 0.92896 0.32435 0.2886 0.0
H2945 H 0.96413 0.35725 0.23096 0.0
H2946 H 0.89274 0.35829 0.23761 0.0
H2947 H 0.9282 0.36864 0.21672 0.0
H2948 H 0.70944 0.26784 0.25796 0.0
H2949 H 0.67693 0.23488 0.31709 0.0
H2950 H 0.74739 0.23289 0.30631 0.0
H2951 H 0.71312 0.22281 0.32899 0.0
Tb2952 Tb 0.07854 0.54388 0.56256 0.0
C2953 C 1.00642 0.56832 0.48893 0.0
C2954 C 0.97447 0.53088 0.48098 0.0
C2955 C 0.96705 0.57252 0.47831 0.0
C2956 C 0.99832 0.54247 0.48768 0.0
C2957 C 0.99103 0.5836 0.4836 0.0
C2958 C 0.95877 0.54616 0.47701 0.0
C2959 C 0.02446 0.61876 0.48636 0.0
N2960 N 0.02969 0.57815 0.49384 0.0
C2961 C 0.03899 0.60273 0.49142 0.0
C2962 C 1.00033 0.60928 0.48285 0.0
Tb2963 Tb 0.05215 0.55068 0.50228 0.0
N2964 N 0.01412 0.52842 0.49136 0.0
C2965 C 1.00736 0.50222 0.48647 0.0
C2966 C 0.96727 0.50421 0.47757 0.0
C2967 C 0.98387 0.48979 0.47986 0.0
H2968 H 0.05761 0.61026 0.49413 0.0
H2969 H 0.97859 0.4691 0.4767 0.0
H2970 H 0.94033 0.53767 0.47216 0.0
H2971 H 0.03188 0.6384 0.48516 0.0
H2972 H 0.01992 0.49075 0.48827 0.0
H2973 H 0.15089 0.62666 0.5895 0.0
H2974 H 0.9491 0.49455 0.4725 0.0
H2975 H 0.07372 0.48434 0.57039 0.0
H2976 H 0.10996 0.60425 0.57686 0.0
H2977 H 0.09965 0.45701 0.58094 0.0
H2978 H 0.95488 0.58398 0.47443 0.0
H2979 H 0.18075 0.60202 0.59524 0.0
H2980 H 0.19009 0.55933 0.5966 0.0
H2981 H 0.98911 0.62169 0.4788 0.0
H2982 H 0.17608 0.51295 0.59441 0.0
N2983 N 0.11624 0.56685 0.57469 0.0
C2984 C 0.1226 0.59307 0.57936 0.0
C2985 C 0.16272 0.592 0.58971 0.0
C2986 C 0.1559 0.56533 0.58652 0.0
C2987 C 0.14591 0.60596 0.58656 0.0
C2988 C 0.13222 0.55328 0.57918 0.0
H2989 H 0.14224 0.47468 0.58915 0.0
N2990 N 0.10133 0.51715 0.57216 0.0
C2991 C 0.10689 0.47677 0.58 0.0
C2992 C 0.12445 0.52741 0.57789 0.0
C2993 C 0.09223 0.49236 0.57406 0.0
C2994 C 0.13093 0.48678 0.58454 0.0
C2995 C 0.13997 0.51254 0.58392 0.0
O2996 O 0.06123 0.52995 0.59151 0.0
O2997 O 0.04779 0.53871 0.53741 0.0
O2998 O 0.0416 0.5782 0.53079 0.0
O2999 O 0.07005 0.58167 0.5642 0.0
O3000 O 0.04829 0.51143 0.55826 0.0
O3001 O 0.07901 0.56989 0.59621 0.0
O3002 O 0.07068 0.56369 0.4737 0.0
O3003 O 0.08294 0.55547 0.5273 0.0
O3004 O 0.08951 0.51671 0.53368 0.0
O3005 O 0.06061 0.51292 0.50071 0.0
O3006 O 0.08286 0.58269 0.50627 0.0
O3007 O 0.04801 0.52581 0.46713 0.0
C3008 C 0.03561 0.51861 0.54218 0.0
C3009 C 0.07361 0.55299 0.63282 0.0
C3010 C 0.06142 0.55518 0.6748 0.0
C3011 C 0.05647 0.55425 0.64912 0.0
C3012 C 0.08417 0.55527 0.68417 0.0
C3013 C 0.09622 0.55278 0.64207 0.0
C3014 C 0.10145 0.55398 0.66779 0.0
C3015 C 0.0528 0.58934 0.55323 0.0
C3016 C 0.06685 0.55236 0.60647 0.0
C3017 C 0.16381 0.52409 0.58998 0.0
C3018 C 0.17178 0.55048 0.59124 0.0
C3019 C 0.09533 0.57542 0.52251 0.0
C3020 C 0.05348 0.54632 0.43257 0.0
C3021 C 0.07015 0.55034 0.41587 0.0
C3022 C 0.06405 0.55427 0.39187 0.0
C3023 C 0.04072 0.55376 0.38449 0.0
C3024 C 0.03023 0.54618 0.42536 0.0
C3025 C 0.02391 0.54985 0.4013 0.0
C3026 C 0.07836 0.50558 0.51112 0.0
C3027 C 0.06148 0.54278 0.45734 0.0
H3028 H 0.03914 0.55485 0.64173 0.0
H3029 H 0.08846 0.55599 0.70398 0.0
H3030 H 0.10968 0.55183 0.62955 0.0
H3031 H 0.11891 0.55389 0.67504 0.0
H3032 H 0.08802 0.55007 0.42155 0.0
H3033 H 0.03558 0.5566 0.36595 0.0
H3034 H 0.0171 0.5432 0.43817 0.0
H3035 H 1.00597 0.54966 0.39566 0.0
Tb3036 Tb 0.78742 0.80304 0.26716 0.0
C3037 C 0.86133 0.762 0.31867 0.0
C3038 C 0.87451 0.79355 0.35705 0.0
C3039 C 0.87553 0.74907 0.35607 0.0
C3040 C 0.86479 0.78681 0.33171 0.0
C3041 C 0.86736 0.74294 0.33038 0.0
C3042 C 0.87909 0.77438 0.36941 0.0
C3043 C 0.85974 0.71429 0.28979 0.0
N3044 N 0.85394 0.75713 0.29383 0.0
C3045 C 0.85411 0.73394 0.27904 0.0
C3046 C 0.866 0.71866 0.31566 0.0
Tb3047 Tb 0.84389 0.79005 0.27791 0.0
N3048 N 0.8606 0.80472 0.31885 0.0
C3049 C 0.86798 0.8302 0.32973 0.0
C3050 C 0.88032 0.81944 0.3688 0.0
C3051 C 0.8775 0.83788 0.3549 0.0
H3052 H 0.84911 0.73026 0.25905 0.0
H3053 H 0.88254 0.85804 0.36358 0.0
H3054 H 0.88623 0.77911 0.38898 0.0
H3055 H 0.85919 0.69579 0.27811 0.0
H3056 H 0.86588 0.84487 0.31954 0.0
H3057 H 0.74953 0.73681 0.18025 0.0
H3058 H 0.88775 0.82544 0.38826 0.0
H3059 H 0.78022 0.86179 0.28752 0.0
H3060 H 0.76568 0.74905 0.22454 0.0
H3061 H 0.76961 0.89659 0.26947 0.0
H3062 H 0.87998 0.73463 0.36553 0.0
H3063 H 0.7449 0.77013 0.15628 0.0
H3064 H 0.74637 0.81667 0.15662 0.0
H3065 H 0.87049 0.70347 0.32393 0.0
H3066 H 0.75173 0.86059 0.18116 0.0
N3067 N 0.77122 0.78932 0.22599 0.0
C3068 C 0.76381 0.76399 0.21461 0.0
C3069 C 0.75211 0.7757 0.17582 0.0
C3070 C 0.75783 0.80143 0.18811 0.0
C3071 C 0.75459 0.75685 0.18933 0.0
C3072 C 0.76723 0.8076 0.21355 0.0
H3073 H 0.75968 0.89044 0.22355 0.0
N3074 N 0.77714 0.83629 0.25209 0.0
C3075 C 0.76992 0.87861 0.2573 0.0
C3076 C 0.77028 0.83211 0.22717 0.0
C3077 C 0.77591 0.85879 0.26746 0.0
C3078 C 0.76444 0.87511 0.23137 0.0
C3079 C 0.76401 0.85141 0.216 0.0
O3080 O 0.76536 0.81294 0.29464 0.0
O3081 O 0.81401 0.79951 0.29505 0.0
O3082 O 0.81864 0.75677 0.28674 0.0
O3083 O 0.7841 0.76088 0.26649 0.0
O3084 O 0.7986 0.82988 0.30287 0.0
O3085 O 0.75406 0.77893 0.26644 0.0
O3086 O 0.86703 0.77828 0.25256 0.0
O3087 O 0.81734 0.79348 0.24999 0.0
O3088 O 0.8125 0.83731 0.25959 0.0
O3089 O 0.84748 0.832 0.27791 0.0
O3090 O 0.83301 0.76342 0.24189 0.0
O3091 O 0.87611 0.81531 0.27673 0.0
C3092 C 0.81341 0.81887 0.31184 0.0
C3093 C 0.72477 0.7992 0.28272 0.0
C3094 C 0.68604 0.7993 0.29731 0.0
C3095 C 0.70826 0.79342 0.29989 0.0
C3096 C 0.6812 0.81166 0.27765 0.0
C3097 C 0.71889 0.81079 0.26305 0.0
C3098 C 0.69737 0.81714 0.26069 0.0
C3099 C 0.79644 0.74703 0.27731 0.0
C3100 C 0.74817 0.79354 0.28548 0.0
C3101 C 0.75632 0.84594 0.19021 0.0
C3102 C 0.75327 0.82094 0.17624 0.0
C3103 C 0.81814 0.77438 0.23297 0.0
C3104 C 0.90723 0.79619 0.26487 0.0
C3105 C 0.9239 0.80152 0.24783 0.0
C3106 C 0.9471 0.79922 0.25293 0.0
C3107 C 0.95298 0.79103 0.27508 0.0
C3108 C 0.91385 0.78836 0.28682 0.0
C3109 C 0.93652 0.78569 0.2918 0.0
C3110 C 0.83504 0.8464 0.26815 0.0
C3111 C 0.88314 0.7992 0.25991 0.0
H3112 H 0.7126 0.78407 0.31488 0.0
H3113 H 0.66487 0.81736 0.27537 0.0
H3114 H 0.73094 0.81504 0.2495 0.0
H3115 H 0.6932 0.82644 0.24561 0.0
H3116 H 0.91893 0.80786 0.23097 0.0
H3117 H 0.97036 0.78847 0.27943 0.0
H3118 H 0.90154 0.78438 0.3002 0.0
H3119 H 0.94138 0.77947 0.30875 0.0
Tb3120 Tb 0.82523 0.29243 0.7555 0.0
C3121 C 0.8154 0.38554 0.83696 0.0
C3122 C 0.85518 0.40261 0.85523 0.0
C3123 C 0.82702 0.42894 0.86199 0.0
C3124 C 0.83745 0.38206 0.84145 0.0
C3125 C 0.80997 0.4092 0.84671 0.0
C3126 C 0.84965 0.42565 0.86624 0.0
C3127 C 0.77154 0.39259 0.82472 0.0
N3128 N 0.79963 0.36625 0.82162 0.0
C3129 C 0.77769 0.36949 0.81571 0.0
C3130 C 0.7877 0.41252 0.84043 0.0
Tb3131 Tb 0.80898 0.32686 0.81199 0.0
N3132 N 0.84204 0.35963 0.8299 0.0
C3133 C 0.86508 0.3587 0.82862 0.0
C3134 C 0.87815 0.40002 0.8563 0.0
C3135 C 0.88317 0.37824 0.8423 0.0
H3136 H 0.76438 0.3541 0.80454 0.0
H3137 H 0.90108 0.37676 0.8414 0.0
H3138 H 0.86296 0.44144 0.87711 0.0
H3139 H 0.75416 0.39483 0.81984 0.0
H3140 H 0.87023 0.34367 0.81619 0.0
H3141 H 0.76211 0.20231 0.72533 0.0
H3142 H 0.89224 0.41537 0.8665 0.0
H3143 H 0.88287 0.30603 0.75572 0.0
H3144 H 0.77523 0.249 0.7387 0.0
H3145 H 0.9141 0.28269 0.75072 0.0
H3146 H 0.82312 0.44713 0.86985 0.0
H3147 H 0.79061 0.17501 0.7242 0.0
H3148 H 0.83248 0.17203 0.72874 0.0
H3149 H 0.78288 0.4304 0.84747 0.0
H3150 H 0.87404 0.19401 0.73568 0.0
N3151 N 0.81114 0.24876 0.74523 0.0
C3152 C 0.78804 0.23756 0.73826 0.0
C3153 C 0.79657 0.19562 0.72996 0.0
C3154 C 0.82026 0.20716 0.73604 0.0
C3155 C 0.78044 0.21095 0.73059 0.0
C3156 C 0.82705 0.23411 0.74335 0.0
H3157 H 0.90466 0.23532 0.74338 0.0
N3158 N 0.85572 0.27235 0.75229 0.0
C3159 C 0.89621 0.27221 0.7498 0.0
C3160 C 0.85022 0.24636 0.74702 0.0
C3161 C 0.87836 0.28539 0.75262 0.0
C3162 C 0.89082 0.24548 0.74571 0.0
C3163 C 0.86755 0.23218 0.74383 0.0
O3164 O 0.83995 0.30884 0.72624 0.0
O3165 O 0.82264 0.32873 0.77728 0.0
O3166 O 0.78826 0.33203 0.77801 0.0
O3167 O 0.78823 0.29483 0.74976 0.0
O3168 O 0.85191 0.32846 0.75957 0.0
O3169 O 0.80708 0.28142 0.71937 0.0
O3170 O 0.77319 0.31515 0.81451 0.0
O3171 O 0.80317 0.29108 0.78523 0.0
O3172 O 0.84824 0.28714 0.78773 0.0
O3173 O 0.83952 0.31241 0.82462 0.0
O3174 O 0.8065 0.28992 0.82304 0.0
O3175 O 0.79739 0.32997 0.84804 0.0
C3176 C 0.84117 0.34281 0.77342 0.0
C3177 C 0.82931 0.2842 0.68519 0.0
C3178 C 0.83569 0.28892 0.6425 0.0
C3179 C 0.83193 0.29927 0.66697 0.0
C3180 C 0.83714 0.26321 0.63632 0.0
C3181 C 0.83115 0.25859 0.67916 0.0
C3182 C 0.83515 0.2482 0.65475 0.0
C3183 C 0.77909 0.31488 0.75706 0.0
C3184 C 0.82304 0.29561 0.70954 0.0
C3185 C 0.861 0.20527 0.73798 0.0
C3186 C 0.83735 0.19276 0.73405 0.0
C3187 C 0.80222 0.27626 0.80066 0.0
C3188 C 0.76325 0.29788 0.84972 0.0
C3189 C 0.77495 0.28458 0.86418 0.0
C3190 C 0.76256 0.26294 0.87219 0.0
C3191 C 0.73825 0.2552 0.86614 0.0
C3192 C 0.739 0.28988 0.84402 0.0
C3193 C 0.72658 0.26869 0.85225 0.0
C3194 C 0.85217 0.29717 0.81249 0.0
C3195 C 0.77584 0.31909 0.83893 0.0
H3196 H 0.8302 0.31897 0.67161 0.0
H3197 H 0.83987 0.25487 0.61741 0.0
H3198 H 0.8291 0.24662 0.69305 0.0
H3199 H 0.83638 0.2284 0.65003 0.0
H3200 H 0.79369 0.29054 0.86861 0.0
H3201 H 0.72818 0.23889 0.87245 0.0
H3202 H 0.72968 0.29987 0.83288 0.0
H3203 H 0.70788 0.26261 0.84773 0.0
Tb3204 Tb 0.83476 0.8237 0.78625 0.0
C3205 C 0.73903 0.77119 0.72541 0.0
C3206 C 0.70888 0.76776 0.75334 0.0
C3207 C 0.69945 0.77129 0.71024 0.0
C3208 C 0.73245 0.7698 0.74894 0.0
C3209 C 0.72249 0.77103 0.70548 0.0
C3210 C 0.69263 0.76958 0.73417 0.0
C3211 C 0.75156 0.76576 0.67701 0.0
N3212 N 0.76115 0.76992 0.72147 0.0
C3213 C 0.76717 0.76561 0.69736 0.0
C3214 C 0.72925 0.76906 0.68115 0.0
Tb3215 Tb 0.7861 0.77041 0.75593 0.0
N3216 N 0.74868 0.76781 0.76678 0.0
C3217 C 0.7417 0.7609 0.78856 0.0
C3218 C 0.70213 0.76253 0.77634 0.0
C3219 C 0.71854 0.75849 0.79378 0.0
H3220 H 0.78445 0.7631 0.69399 0.0
H3221 H 0.71338 0.7535 0.8113 0.0
H3222 H 0.67456 0.76852 0.73734 0.0
H3223 H 0.75676 0.76332 0.65816 0.0
H3224 H 0.7537 0.7569 0.80209 0.0
H3225 H 0.91131 0.8372 0.73623 0.0
H3226 H 0.68421 0.76068 0.78045 0.0
H3227 H 0.83144 0.83171 0.84791 0.0
H3228 H 0.87001 0.83291 0.74165 0.0
H3229 H 0.85664 0.83343 0.88618 0.0
H3230 H 0.68655 0.77153 0.69528 0.0
H3231 H 0.93881 0.8337 0.77088 0.0
H3232 H 0.94577 0.82949 0.81583 0.0
H3233 H 0.71708 0.7689 0.66534 0.0
H3234 H 0.93076 0.82838 0.85692 0.0
N3235 N 0.87312 0.82629 0.77897 0.0
C3236 C 0.88141 0.8311 0.757 0.0
C3237 C 0.92053 0.83179 0.77342 0.0
C3238 C 0.91229 0.82833 0.79634 0.0
C3239 C 0.90507 0.83379 0.75385 0.0
C3240 C 0.88832 0.82617 0.79864 0.0
H3241 H 0.89759 0.83035 0.88347 0.0
N3242 N 0.85747 0.82674 0.82319 0.0
C3243 C 0.86349 0.83132 0.86813 0.0
C3244 C 0.8801 0.82613 0.82162 0.0
C3245 C 0.84928 0.83047 0.8463 0.0
C3246 C 0.88654 0.82943 0.86651 0.0
C3247 C 0.89529 0.82741 0.84312 0.0
O3248 O 0.83524 0.86067 0.80634 0.0
O3249 O 0.79773 0.80862 0.77753 0.0
O3250 O 0.78985 0.80206 0.73486 0.0
O3251 O 0.8294 0.82102 0.74493 0.0
O3252 O 0.80874 0.83469 0.81037 0.0
O3253 O 0.84126 0.85419 0.76715 0.0
O3254 O 0.78097 0.73479 0.73142 0.0
O3255 O 0.82308 0.78512 0.76507 0.0
O3256 O 0.83245 0.79188 0.80688 0.0
O3257 O 0.79297 0.77174 0.79712 0.0
O3258 O 0.8124 0.76009 0.73159 0.0
O3259 O 0.78111 0.73723 0.77137 0.0
C3260 C 0.79067 0.82108 0.79611 0.0
C3261 C 0.85656 0.89567 0.79102 0.0
C3262 C 0.86382 0.94004 0.78628 0.0
C3263 C 0.84949 0.91533 0.78169 0.0
C3264 C 0.88572 0.94497 0.80013 0.0
C3265 C 0.87862 0.90039 0.80441 0.0
C3266 C 0.8932 0.92505 0.80884 0.0
C3267 C 0.80978 0.81573 0.72951 0.0
C3268 C 0.83979 0.87098 0.78691 0.0
C3269 C 0.91885 0.82765 0.84069 0.0
C3270 C 0.92738 0.82823 0.81731 0.0
C3271 C 0.83036 0.7727 0.74665 0.0
C3272 C 0.80028 0.70771 0.74869 0.0
C3273 C 0.81462 0.70802 0.7704 0.0
C3274 C 0.83326 0.69588 0.76867 0.0
C3275 C 0.83755 0.68348 0.74498 0.0
C3276 C 0.80454 0.69473 0.72526 0.0
C3277 C 0.82319 0.68286 0.72345 0.0
C3278 C 0.81291 0.77741 0.81223 0.0
C3279 C 0.78231 0.72276 0.7498 0.0
H3280 H 0.83226 0.91163 0.77159 0.0
H3281 H 0.89686 0.9641 0.80424 0.0
H3282 H 0.88437 0.88525 0.81164 0.0
H3283 H 0.91015 0.92883 0.8194 0.0
H3284 H 0.81154 0.71787 0.78863 0.0
H3285 H 0.85156 0.67351 0.74318 0.0
H3286 H 0.79374 0.69426 0.70826 0.0
H3287 H 0.82647 0.67305 0.70533 0.0
Tb3288 Tb 0.54266 0.52897 0.51128 0.0
C3289 C 0.60419 0.62393 0.57848 0.0
C3290 C 0.60784 0.65583 0.55262 0.0
C3291 C 0.61076 0.66906 0.59803 0.0
C3292 C 0.60377 0.62996 0.55509 0.0
C3293 C 0.60836 0.64341 0.60033 0.0
C3294 C 0.61052 0.67527 0.57416 0.0
C3295 C 0.61047 0.61116 0.62483 0.0
N3296 N 0.6024 0.59905 0.57978 0.0
C3297 C 0.60653 0.5926 0.6026 0.0
C3298 C 0.611 0.63664 0.62373 0.0
Tb3299 Tb 0.59469 0.56947 0.54241 0.0
N3300 N 0.60153 0.61061 0.53489 0.0
C3301 C 0.6057 0.61628 0.51184 0.0
C3302 C 0.61022 0.66143 0.52873 0.0
C3303 C 0.60964 0.64159 0.50834 0.0
H3304 H 0.60603 0.57297 0.60383 0.0
H3305 H 0.6121 0.64572 0.48986 0.0
H3306 H 0.61332 0.69521 0.57262 0.0
H3307 H 0.61307 0.60577 0.6428 0.0
H3308 H 0.6052 0.60142 0.49566 0.0
H3309 H 0.52569 0.45028 0.56078 0.0
H3310 H 0.61332 0.68102 0.526 0.0
H3311 H 0.53008 0.5274 0.4503 0.0
H3312 H 0.53202 0.49511 0.5565 0.0
H3313 H 0.52323 0.49583 0.41053 0.0
H3314 H 0.6137 0.68429 0.61457 0.0
H3315 H 0.52513 0.41621 0.5237 0.0
H3316 H 0.52523 0.40368 0.47689 0.0
H3317 H 0.61421 0.65101 0.64097 0.0
H3318 H 0.52436 0.41614 0.43564 0.0
N3319 N 0.53612 0.48734 0.51731 0.0
C3320 C 0.53185 0.48074 0.53998 0.0
C3321 C 0.52801 0.43601 0.52166 0.0
C3322 C 0.53034 0.44254 0.49814 0.0
C3323 C 0.52821 0.45516 0.54258 0.0
C3324 C 0.53408 0.46864 0.49657 0.0
H3325 H 0.52298 0.45043 0.41067 0.0
N3326 N 0.53474 0.50056 0.47316 0.0
C3327 C 0.52621 0.48986 0.42813 0.0
C3328 C 0.53335 0.47552 0.47356 0.0
C3329 C 0.5301 0.50774 0.45083 0.0
C3330 C 0.52618 0.46428 0.42827 0.0
C3331 C 0.52923 0.4567 0.45121 0.0
O3332 O 0.51356 0.53973 0.49588 0.0
O3333 O 0.56107 0.56934 0.52413 0.0
O3334 O 0.56817 0.57507 0.56975 0.0
O3335 O 0.53905 0.53882 0.55311 0.0
O3336 O 0.54448 0.5586 0.48868 0.0
O3337 O 0.51075 0.5196 0.52637 0.0
O3338 O 0.62431 0.56171 0.56026 0.0
O3339 O 0.57619 0.52923 0.53005 0.0
O3340 O 0.56885 0.52296 0.4837 0.0
O3341 O 0.59851 0.55864 0.50062 0.0
O3342 O 0.59328 0.54013 0.5653 0.0
O3343 O 0.62597 0.57569 0.52579 0.0
C3344 C 0.55621 0.57818 0.50464 0.0
C3345 C 0.47644 0.51545 0.49969 0.0
C3346 C 0.43568 0.51636 0.49099 0.0
C3347 C 0.4585 0.52851 0.50167 0.0
C3348 C 0.431 0.49051 0.47859 0.0
C3349 C 0.47167 0.48976 0.48716 0.0
C3350 C 0.44895 0.47734 0.47672 0.0
C3351 C 0.54853 0.55851 0.57213 0.0
C3352 C 0.49983 0.52965 0.51084 0.0
C3353 C 0.52725 0.43086 0.45258 0.0
C3354 C 0.52777 0.42378 0.47606 0.0
C3355 C 0.58123 0.52054 0.5496 0.0
C3356 C 0.66081 0.5849 0.55281 0.0
C3357 C 0.67917 0.57257 0.55385 0.0
C3358 C 0.70216 0.58673 0.56075 0.0
C3359 C 0.70666 0.6136 0.56692 0.0
C3360 C 0.66532 0.61173 0.55933 0.0
C3361 C 0.68822 0.626 0.56645 0.0
C3362 C 0.58879 0.53911 0.48148 0.0
C3363 C 0.63752 0.569 0.54356 0.0
H3364 H 0.46238 0.54826 0.5118 0.0
H3365 H 0.41363 0.48061 0.47003 0.0
H3366 H 0.4854 0.47941 0.48549 0.0
H3367 H 0.44525 0.4575 0.46702 0.0
H3368 H 0.67561 0.55183 0.54841 0.0
H3369 H 0.72432 0.62491 0.57215 0.0
H3370 H 0.6513 0.62157 0.55858 0.0
H3371 H 0.69173 0.64671 0.57132 0.0
Tb3372 Tb 0.09969 0.55375 0.0217 0.0
C3373 C 0.01538 0.50126 0.06843 0.0
C3374 C 0.99883 0.46199 0.03837 0.0
C3375 C 0.99473 0.4638 0.08278 0.0
C3376 C 0.01165 0.48769 0.04408 0.0
C3377 C 1.00652 0.48976 0.08808 0.0
C3378 C 0.99091 0.44991 0.05793 0.0
C3379 C 0.01967 0.531 0.11609 0.0
N3380 N 0.0266 0.52631 0.07261 0.0
C3381 C 0.02804 0.54153 0.09591 0.0
C3382 C 1.00914 0.50491 0.11224 0.0
Tb3383 Tb 0.04073 0.54178 0.03871 0.0
N3384 N 0.01928 0.50027 0.0258 0.0
C3385 C 0.01295 0.48864 1.00107 0.0
C3386 C 0.99368 0.44954 0.01315 0.0
C3387 C 1.00045 0.46308 0.99441 0.0
H3388 H 0.03622 0.56169 0.09922 0.0
H3389 H 0.99612 0.45383 0.97481 0.0
H3390 H 0.98125 0.4301 0.05397 0.0
H3391 H 0.02136 0.54302 0.1346 0.0
H3392 H 0.01796 0.4986 0.98622 0.0
H3393 H 0.14464 0.63982 0.08789 0.0
H3394 H 0.98396 0.42977 1.00795 0.0
H3395 H 0.10215 0.53631 0.9604 0.0
H3396 H 0.12251 0.59517 0.07516 0.0
H3397 H 0.1162 0.55673 0.92563 0.0
H3398 H 0.98797 0.4545 0.09764 0.0
H3399 H 0.1566 0.66527 0.05571 0.0
H3400 H 0.15876 0.66676 0.00994 0.0
H3401 H 1.00257 0.49682 0.12787 0.0
H3402 H 0.1512 0.64405 0.96567 0.0
N3403 N 0.12112 0.595 0.03584 0.0
C3404 C 0.12755 0.60577 0.06074 0.0
C3405 C 0.14683 0.64556 0.04993 0.0
C3406 C 0.14144 0.634 0.02449 0.0
C3407 C 0.14017 0.63124 0.06813 0.0
C3408 C 0.12858 0.60834 0.01803 0.0
H3409 H 0.13562 0.60285 0.93405 0.0
N3410 N 0.11304 0.57065 0.98828 0.0
C3411 C 0.11856 0.56794 0.94458 0.0
C3412 C 0.12446 0.59567 0.99331 0.0
C3413 C 0.11071 0.55641 0.96438 0.0
C3414 C 0.12947 0.59399 0.9494 0.0
C3415 C 0.13284 0.60813 0.97407 0.0
O3416 O 0.12111 0.52925 1.00745 0.0
O3417 O 0.06897 0.52475 0.02529 0.0
O3418 O 0.06152 0.52897 0.0663 0.0
O3419 O 0.09823 0.55305 0.06173 0.0
O3420 O 0.08694 0.51674 0.99542 0.0
O3421 O 0.12881 0.55177 0.04499 0.0
O3422 O 0.02007 0.56791 0.05086 0.0
O3423 O 0.07156 0.57055 0.03509 0.0
O3424 O 0.07831 0.56717 0.99531 0.0
O3425 O 0.04279 0.5402 0.99838 0.0
O3426 O 0.05383 0.57896 0.06487 0.0
O3427 O 0.01144 0.54268 0.01485 0.0
C3428 C 0.06964 0.50721 1.00656 0.0
C3429 C 0.16063 0.54074 0.02485 0.0
C3430 C 0.19812 0.52822 0.02743 0.0
C3431 C 0.17388 0.523 0.0294 0.0
C3432 C 0.20866 0.5513 0.02048 0.0
C3433 C 0.17165 0.56351 0.01795 0.0
C3434 C 0.19551 0.56869 0.01573 0.0
C3435 C 0.08394 0.53839 0.07374 0.0
C3436 C 0.13549 0.53555 0.02791 0.0
C3437 C 0.14477 0.63403 0.98019 0.0
C3438 C 0.14906 0.64696 1.00539 0.0
C3439 C 0.07126 0.58821 0.05377 0.0
C3440 C 0.98024 0.55579 0.03483 0.0
C3441 C 0.96653 0.5726 0.02866 0.0
C3442 C 0.9426 0.56826 0.0325 0.0
C3443 C 0.93298 0.54705 0.04297 0.0
C3444 C 0.96995 0.53478 0.04496 0.0
C3445 C 0.94652 0.53052 0.04906 0.0
C3446 C 0.05674 0.55515 0.98636 0.0
C3447 C 1.00523 0.56026 0.0308 0.0
H3448 H 0.16543 0.50545 0.03493 0.0
H3449 H 0.22712 0.5558 0.01843 0.0
H3450 H 0.16186 0.57733 0.01437 0.0
H3451 H 0.20387 0.58632 0.01036 0.0
H3452 H 0.9744 0.58874 0.02061 0.0
H3453 H 0.91494 0.54333 0.04681 0.0
H3454 H 0.98003 0.52167 0.04977 0.0
H3455 H 0.9388 0.51432 0.05707 0.0
C3456 C 0.04619 0.12841 0.96899 0.0
C3457 C 0.04469 0.14916 0.98806 0.0
H3458 H 0.05111 0.09012 0.95887 0.0
C3459 C 0.0478 0.14556 0.01318 0.0
H3460 H 0.0443 0.13001 0.94946 0.0
C3461 C 0.05151 0.12195 0.01873 0.0
C3462 C 0.05303 0.10133 0.99936 0.0
H3463 H 0.04674 0.16078 0.02862 0.0
H3464 H 0.0529 0.11979 0.0381 0.0
C3465 C 0.05028 0.10529 0.97449 0.0
C3466 C 0.23732 0.8108 0.19703 0.0
C3467 C 0.22083 0.82375 0.20763 0.0
H3468 H 0.26849 0.79735 0.20283 0.0
C3469 C 0.22469 0.83371 0.23383 0.0
H3470 H 0.23514 0.8024 0.17716 0.0
C3471 C 0.24393 0.83059 0.24874 0.0
C3472 C 0.26024 0.81744 0.23812 0.0
H3473 H 0.2129 0.84419 0.24298 0.0
H3474 H 0.24597 0.83851 0.26872 0.0
C3475 C 0.25658 0.80772 0.21193 0.0
C3476 C 0.55586 0.93928 0.47309 0.0
C3477 C 0.55367 0.92607 0.49303 0.0
H3478 H 0.56099 0.97532 0.46129 0.0
C3479 C 0.55476 0.94081 0.51753 0.0
H3480 H 0.55505 0.92876 0.45401 0.0
C3481 C 0.5588 0.96801 0.52189 0.0
C3482 C 0.56092 0.98111 0.50173 0.0
H3483 H 0.55327 0.9314 0.53342 0.0
H3484 H 0.56072 0.97874 0.54101 0.0
C3485 C 0.55921 0.96612 0.47733 0.0
C3486 C 0.49063 0.28226 0.70913 0.0
C3487 C 0.50043 0.30691 0.70493 0.0
H3488 H 0.46587 0.25921 0.72768 0.0
C3489 C 0.49032 0.3272 0.71533 0.0
H3490 H 0.49717 0.26586 0.70095 0.0
C3491 C 0.47171 0.32309 0.73018 0.0
C3492 C 0.4629 0.29868 0.73527 0.0
H3493 H 0.49729 0.34652 0.71283 0.0
H3494 H 0.46494 0.33924 0.73864 0.0
C3495 C 0.47238 0.27829 0.72424 0.0
C3496 C 0.02806 0.8766 0.57396 0.0
C3497 C 0.04105 0.85894 0.57889 0.0
H3498 H 0.02273 0.90367 0.55159 0.0
C3499 C 0.05879 0.8547 0.56366 0.0
H3500 H 0.01436 0.88049 0.58534 0.0
C3501 C 0.06382 0.86829 0.54444 0.0
C3502 C 0.05121 0.88644 0.54001 0.0
H3503 H 0.06887 0.84088 0.5666 0.0
H3504 H 0.078 0.8651 0.53354 0.0
C3505 C 0.03303 0.89011 0.55474 0.0
C3506 C 0.48946 0.8118 0.77843 0.0
C3507 C 0.5087 0.83157 0.78952 0.0
H3508 H 0.45467 0.80203 0.76009 0.0
C3509 C 0.50849 0.85695 0.78782 0.0
H3510 H 0.48916 0.79208 0.77946 0.0
C3511 C 0.48875 0.86268 0.77688 0.0
C3512 C 0.46884 0.84313 0.7675 0.0
H3513 H 0.52327 0.87253 0.79589 0.0
H3514 H 0.48862 0.88256 0.77715 0.0
C3515 C 0.46968 0.81754 0.76756 0.0
C3516 C 0.53727 0.15031 0.06679 0.0
C3517 C 0.53341 0.15027 0.09203 0.0
H3518 H 0.54906 0.13143 0.03367 0.0
C3519 C 0.53801 0.13011 0.10289 0.0
H3520 H 0.53431 0.16577 0.05798 0.0
C3521 C 0.54691 0.11088 0.08909 0.0
C3522 C 0.55095 0.11112 0.06404 0.0
H3523 H 0.53476 0.12916 0.12209 0.0
H3524 H 0.55024 0.09554 0.09791 0.0
C3525 C 0.54583 0.13075 0.05287 0.0
C3526 C 0.25173 0.30854 0.34412 0.0
C3527 C 0.23754 0.32335 0.33498 0.0
H3528 H 0.28416 0.29701 0.3433 0.0
C3529 C 0.24635 0.33877 0.31801 0.0
H3530 H 0.24615 0.29721 0.35794 0.0
C3531 C 0.26836 0.33885 0.31002 0.0
C3532 C 0.28163 0.32278 0.31792 0.0
H3533 H 0.23615 0.35042 0.31037 0.0
H3534 H 0.27491 0.35127 0.29738 0.0
C3535 C 0.27361 0.30841 0.33579 0.0
C3536 C 1.00729 0.04195 0.12355 0.0
C3537 C 0.01481 0.06343 0.14389 0.0
H3538 H 0.01094 0.02265 0.08598 0.0
C3539 C 0.03374 0.08248 0.13907 0.0
H3540 H 0.99281 0.02662 0.12518 0.0
C3541 C 0.04433 0.08012 0.1159 0.0
C3542 C 0.03679 0.05859 0.09573 0.0
H3543 H 0.04083 0.09945 0.15342 0.0
H3544 H 0.05858 0.09552 0.11382 0.0
C3545 C 0.01783 0.03966 0.1004 0.0
C3546 C 0.27001 0.69319 0.38356 0.0
C3547 C 0.27972 0.70739 0.40757 0.0
H3548 H 0.25339 0.69363 0.34754 0.0
C3549 C 0.28105 0.73391 0.41303 0.0
H3550 H 0.26906 0.6728 0.37862 0.0
C3551 C 0.27218 0.74581 0.39521 0.0
C3552 C 0.26166 0.73143 0.37161 0.0
H3553 H 0.28804 0.74535 0.43145 0.0
H3554 H 0.27275 0.76611 0.40028 0.0
C3555 C 0.26101 0.70508 0.36578 0.0
C3556 C 0.64121 0.02788 0.60701 0.0
C3557 C 0.63616 0.03428 0.63188 0.0
H3558 H 0.63047 0.02521 0.56817 0.0
C3559 C 0.61467 0.0405 0.63642 0.0
H3560 H 0.65765 0.02313 0.60297 0.0
C3561 C 0.59905 0.04159 0.61645 0.0
C3562 C 0.60484 0.03673 0.59175 0.0
H3563 H 0.61028 0.0453 0.65546 0.0
H3564 H 0.58321 0.04768 0.62047 0.0
C3565 C 0.62575 0.02926 0.58715 0.0
C3566 C 0.32138 0.30693 0.8872 0.0
C3567 C 0.32204 0.33153 0.90148 0.0
H3568 H 0.31796 0.28316 0.85006 0.0
C3569 C 0.32189 0.35159 0.88859 0.0
H3570 H 0.32144 0.29104 0.89655 0.0
C3571 C 0.32055 0.34724 0.86233 0.0
C3572 C 0.31919 0.32266 0.84787 0.0
H3573 H 0.32265 0.37079 0.8989 0.0
H3574 H 0.32012 0.36323 0.85319 0.0
C3575 C 0.31957 0.30244 0.86061 0.0
C3576 C 0.03891 0.06102 0.41953 0.0
C3577 C 0.0148 0.0606 0.41358 0.0
H3578 H 0.06683 0.05904 0.44699 0.0
C3579 C 1.00092 0.05572 0.43332 0.0
H3580 H 0.05093 0.0646 0.40573 0.0
C3581 C 0.01022 0.05249 0.4571 0.0
C3582 C 0.03414 0.05346 0.46335 0.0
H3583 H 0.98238 0.0543 0.4307 0.0
H3584 H 0.99826 0.04944 0.47112 0.0
C3585 C 0.04831 0.05766 0.44365 0.0
C3586 C 0.30489 0.72133 0.66662 0.0
C3587 C 0.30672 0.73469 0.64678 0.0
H3588 H 0.30217 0.72318 0.70586 0.0
C3589 C 0.30572 0.76064 0.65161 0.0
H3590 H 0.30513 0.70119 0.66338 0.0
C3591 C 0.30373 0.77315 0.67591 0.0
C3592 C 0.30263 0.75997 0.69587 0.0
H3593 H 0.3071 0.77145 0.63672 0.0
H3594 H 0.30374 0.79337 0.67923 0.0
C3595 C 0.30277 0.73382 0.69089 0.0
C3596 C 0.60781 0.03002 0.82979 0.0
C3597 C 0.63126 0.03938 0.83997 0.0
H3598 H 0.57194 0.02402 0.83674 0.0
C3599 C 0.63621 0.05104 0.86554 0.0
H3600 H 0.60334 0.02139 0.81003 0.0
C3601 C 0.61826 0.05333 0.88053 0.0
C3602 C 0.59483 0.04344 0.87058 0.0
H3603 H 0.65399 0.05826 0.87415 0.0
H3604 H 0.62284 0.06286 0.90006 0.0
C3605 C 0.58978 0.03193 0.84497 0.0
C3606 C 0.34245 0.35519 0.1884 0.0
C3607 C 0.33071 0.33885 0.16598 0.0
H3608 H 0.35115 0.36032 0.22821 0.0
C3609 C 0.31842 0.31411 0.16761 0.0
H3610 H 0.35234 0.37428 0.18806 0.0
C3611 C 0.31753 0.30617 0.19084 0.0
C3612 C 0.32918 0.32255 0.21326 0.0
H3613 H 0.30899 0.30097 0.15094 0.0
H3614 H 0.30762 0.28709 0.19116 0.0
C3615 C 0.34186 0.34711 0.21156 0.0
C3616 C 0.25611 0.06504 0.03227 0.0
C3617 C 0.2558 0.044 0.0439 0.0
H3618 H 0.23958 0.09531 0.02671 0.0
C3619 C 0.23884 0.03817 0.06021 0.0
H3620 H 0.26914 0.07005 0.01977 0.0
C3621 C 0.22197 0.05249 0.06407 0.0
C3622 C 0.22191 0.07311 0.05195 0.0
H3623 H 0.23811 0.02197 0.0693 0.0
H3624 H 0.20866 0.04714 0.07615 0.0
C3625 C 0.2394 0.07962 0.03642 0.0
C3626 C 0.66925 0.59118 0.98766 0.0
C3627 C 0.68048 0.6132 1.00571 0.0
H3628 H 0.63874 0.56047 0.97603 0.0
C3629 C 0.66882 0.62044 0.02667 0.0
H3630 H 0.67749 0.58504 0.97115 0.0
C3631 C 0.64662 0.60652 0.02934 0.0
C3632 C 0.63529 0.58465 0.01129 0.0
H3633 H 0.67694 0.63682 0.04134 0.0
H3634 H 0.63843 0.61295 0.0458 0.0
C3635 C 0.64693 0.5771 0.9904 0.0
C3636 C 0.76936 0.39022 0.29636 0.0
C3637 C 0.7626 0.39723 0.27348 0.0
H3638 H 0.78448 0.36547 0.3159 0.0
C3639 C 0.76878 0.38165 0.25176 0.0
H3640 H 0.76601 0.4008 0.31403 0.0
C3641 C 0.78013 0.3606 0.25298 0.0
C3642 C 0.78647 0.35373 0.2761 0.0
H3643 H 0.76441 0.38525 0.23337 0.0
H3644 H 0.78348 0.34938 0.2356 0.0
C3645 C 0.78055 0.36946 0.29752 0.0
C3646 C 0.97429 0.52748 0.5456 0.0
C3647 C 0.96163 0.50202 0.54269 0.0
H3648 H 1.0077 0.55273 0.54805 0.0
C3649 C 0.97369 0.48222 0.54042 0.0
H3650 H 0.96557 0.54319 0.54795 0.0
C3651 C 0.99785 0.48776 0.54053 0.0
C3652 C 0.01024 0.51306 0.54225 0.0
H3653 H 0.96445 0.46235 0.53785 0.0
H3654 H 1.00679 0.47222 0.53848 0.0
C3655 C 0.99841 0.53295 0.54552 0.0
C3656 C 0.34529 0.1316 0.24114 0.0
C3657 C 0.36123 0.14455 0.26213 0.0
H3658 H 0.32143 0.13487 0.21116 0.0
C3659 C 0.36514 0.17132 0.26921 0.0
H3660 H 0.3422 0.11097 0.23517 0.0
C3661 C 0.35313 0.18488 0.25569 0.0
C3662 C 0.33738 0.172 0.23453 0.0
H3663 H 0.37737 0.18172 0.28531 0.0
H3664 H 0.35631 0.20548 0.26159 0.0
C3665 C 0.33361 0.14524 0.22731 0.0
C3666 C 0.3912 0.0908 0.521 0.0
C3667 C 0.39739 0.11746 0.5302 0.0
H3668 H 0.4011 0.05487 0.51816 0.0
C3669 C 0.41977 0.12834 0.54308 0.0
H3670 H 0.3741 0.08171 0.51118 0.0
C3671 C 0.43538 0.1129 0.54693 0.0
C3672 C 0.42885 0.08616 0.53838 0.0
H3673 H 0.42521 0.14882 0.55023 0.0
H3674 H 0.4523 0.1218 0.55728 0.0
C3675 C 0.40664 0.07538 0.52516 0.0
C3676 C 0.75247 0.68029 0.26466 0.0
C3677 C 0.76307 0.66534 0.27857 0.0
H3678 H 0.7539 0.71652 0.25343 0.0
C3679 C 0.78487 0.67819 0.29244 0.0
H3680 H 0.73563 0.67204 0.25398 0.0
C3681 C 0.79547 0.70424 0.29217 0.0
C3682 C 0.78489 0.719 0.27809 0.0
H3683 H 0.79413 0.66804 0.30338 0.0
H3684 H 0.81205 0.71286 0.30326 0.0
C3685 C 0.76302 0.70632 0.26449 0.0
C3686 C 0.83678 0.41217 0.78601 0.0
C3687 C 0.86029 0.42482 0.78798 0.0
H3688 H 0.81211 0.37609 0.77811 0.0
C3689 C 0.8773 0.41046 0.78441 0.0
H3690 H 0.82339 0.42298 0.78828 0.0
C3691 C 0.87092 0.38375 0.77949 0.0
C3692 C 0.84747 0.37102 0.77822 0.0
H3693 H 0.89557 0.41995 0.78581 0.0
H3694 H 0.88437 0.37304 0.7772 0.0
C3695 C 0.83038 0.38541 0.78059 0.0
C3696 C 0.08997 0.94752 0.03963 0.0
C3697 C 0.08952 0.94319 0.06463 0.0
H3698 H 0.08746 0.97349 0.01414 0.0
C3699 C 0.08561 0.96349 0.08284 0.0
H3700 H 0.09281 0.93271 0.02476 0.0
C3701 C 0.08249 0.9867 0.07666 0.0
C3702 C 0.0827 0.99106 0.05187 0.0
H3703 H 0.08555 0.96187 0.10236 0.0
H3704 H 0.08001 1.00162 0.09168 0.0
C3705 C 0.08661 0.97097 0.03336 0.0
C3706 C 0.89766 0.29925 0.8674 0.0
C3707 C 0.91141 0.2826 0.85675 0.0
H3708 H 0.8689 0.31681 0.86242 0.0
C3709 C 0.9046 0.27 0.83138 0.0
H3710 H 0.9015 0.30902 0.88688 0.0
C3711 C 0.8853 0.27418 0.81733 0.0
C3712 C 0.87206 0.29136 0.82784 0.0
H3713 H 0.91444 0.25715 0.822 0.0
H3714 H 0.88086 0.26393 0.79809 0.0
C3715 C 0.87853 0.30358 0.85328 0.0
C3716 C 0.58934 0.16151 0.58781 0.0
C3717 C 0.58932 0.17511 0.56813 0.0
H3718 H 0.58515 0.12516 0.5989 0.0
C3719 C 0.58623 0.16054 0.54326 0.0
H3720 H 0.59207 0.17169 0.60719 0.0
C3721 C 0.58215 0.13332 0.53844 0.0
C3722 C 0.58161 0.11992 0.55837 0.0
H3723 H 0.58603 0.17007 0.52749 0.0
H3724 H 0.57867 0.12279 0.51919 0.0
C3725 C 0.58555 0.13462 0.58303 0.0
C3726 C 0.62626 0.78213 0.32107 0.0
C3727 C 0.63161 0.78481 0.34716 0.0
H3728 H 0.63867 0.78333 0.28522 0.0
C3729 C 0.65542 0.79102 0.35659 0.0
H3730 H 0.60838 0.77779 0.31277 0.0
C3731 C 0.67313 0.79502 0.34057 0.0
C3732 C 0.66761 0.79289 0.31458 0.0
H3733 H 0.66048 0.79288 0.37643 0.0
H3734 H 0.69112 0.80047 0.34869 0.0
C3735 C 0.64385 0.78581 0.30513 0.0
C3736 C 0.10041 0.23974 0.49689 0.0
C3737 C 0.08741 0.23156 0.47312 0.0
H3738 H 0.10574 0.23261 0.53407 0.0
C3739 C 0.0687 0.20999 0.46913 0.0
H3740 H 0.11473 0.25653 0.50058 0.0
C3741 C 0.06359 0.19637 0.48824 0.0
C3742 C 0.07689 0.20423 0.51184 0.0
H3743 H 0.0584 0.20324 0.451 0.0
H3744 H 0.04941 0.17943 0.48448 0.0
C3745 C 0.0951 0.22629 0.51613 0.0
C3746 C 0.64639 0.28449 0.25876 0.0
C3747 C 0.62528 0.26654 0.25824 0.0
H3748 H 0.68334 0.29435 0.26843 0.0
C3749 C 0.62558 0.24482 0.26866 0.0
H3750 H 0.64685 0.30137 0.2508 0.0
C3751 C 0.64653 0.24045 0.27814 0.0
C3752 C 0.66778 0.25787 0.27784 0.0
H3753 H 0.60962 0.23081 0.26903 0.0
H3754 H 0.64605 0.2229 0.28494 0.0
C3755 C 0.66739 0.28024 0.26852 0.0
C3756 C 0.60015 0.9633 0.95306 0.0
C3757 C 0.60629 0.9437 0.96364 0.0
H3758 H 0.58865 0.99816 0.95925 0.0
C3759 C 0.60686 0.94549 0.98979 0.0
H3760 H 0.60009 0.96279 0.93306 0.0
C3761 C 0.60041 0.96601 1.00487 0.0
C3762 C 0.59311 0.9848 0.99397 0.0
H3763 H 0.61134 0.93055 0.99844 0.0
H3764 H 0.60022 0.96654 0.02476 0.0
C3765 C 0.59349 0.98352 0.96804 0.0
C3766 C 0.88219 0.77564 0.70996 0.0
C3767 C 0.89975 0.7738 0.72778 0.0
H3768 H 0.84657 0.77708 0.7023 0.0
C3769 C 0.89385 0.77051 0.75187 0.0
H3770 H 0.88576 0.7772 0.69097 0.0
C3771 C 0.87125 0.7704 0.75827 0.0
C3772 C 0.85432 0.77373 0.74075 0.0
H3773 H 0.90684 0.76896 0.76609 0.0
H3774 H 0.86707 0.76805 0.77693 0.0
C3775 C 0.85971 0.77546 0.71635 0.0
C3776 C 0.12953 0.04978 0.92662 0.0
C3777 C 0.12176 0.02844 0.90615 0.0
H3778 H 0.1261 0.069 0.9643 0.0
C3779 C 0.10266 1.00957 0.91093 0.0
H3780 H 0.14415 0.06497 0.92508 0.0
C3781 C 0.09215 1.01195 0.93416 0.0
C3782 C 0.0999 0.03335 0.95443 0.0
H3783 H 0.09536 0.99271 0.89653 0.0
H3784 H 0.07779 0.99666 0.9362 0.0
C3785 C 0.11904 0.05211 0.94981 0.0
C3786 C 0.81764 0.31793 0.58893 0.0
C3787 C 0.83394 0.34162 0.59382 0.0
H3788 H 0.80593 0.28203 0.60034 0.0
C3789 C 0.85225 0.34647 0.61308 0.0
H3790 H 0.80349 0.3137 0.57403 0.0
C3791 C 0.8536 0.3285 0.62799 0.0
C3792 C 0.83687 0.30523 0.62367 0.0
H3793 H 0.86495 0.36464 0.61735 0.0
H3794 H 0.8672 0.33315 0.64354 0.0
C3795 C 0.81919 0.29975 0.60368 0.0
C3796 C 0.53319 0.09152 0.43627 0.0
C3797 C 0.50927 0.07992 0.43117 0.0
H3798 H 0.56513 0.09467 0.4589 0.0
C3799 C 0.49931 0.06187 0.44504 0.0
H3800 H 0.5413 0.10541 0.42571 0.0
C3801 C 0.5129 0.05533 0.46349 0.0
C3802 C 0.53681 0.06693 0.46882 0.0
H3803 H 0.48106 0.05214 0.44108 0.0
H3804 H 0.50454 0.04099 0.47342 0.0
C3805 C 0.54683 0.08522 0.45511 0.0
C3806 C 0.80613 0.73987 0.16472 0.0
C3807 C 0.80907 0.7598 0.15122 0.0
H3808 H 0.80666 0.72911 0.20066 0.0
C3809 C 0.81385 0.78527 0.16512 0.0
H3810 H 0.80277 0.72008 0.15489 0.0
C3811 C 0.81565 0.79048 0.19174 0.0
C3812 C 0.81299 0.77032 0.20502 0.0
H3813 H 0.81621 0.80114 0.1554 0.0
H3814 H 0.81976 0.81019 0.20191 0.0
C3815 C 0.80838 0.74506 0.19106 0.0
C3816 C 0.09492 0.0249 0.62929 0.0
C3817 C 0.11938 0.03101 0.63718 0.0
H3818 H 0.06675 0.02284 0.60042 0.0
C3819 C 0.13349 0.04096 0.61949 0.0
H3820 H 0.0829 0.01727 0.64171 0.0
C3821 C 0.12412 0.04384 0.59558 0.0
C3822 C 0.09985 0.03792 0.58761 0.0
H3823 H 0.15224 0.04585 0.62371 0.0
H3824 H 0.13626 0.05062 0.58285 0.0
C3825 C 0.08542 0.02844 0.60535 0.0
C3826 C 0.84282 0.37918 0.37096 0.0
C3827 C 0.83361 0.36922 0.39117 0.0
H3828 H 0.85038 0.3713 0.33297 0.0
C3829 C 0.82682 0.34249 0.38885 0.0
H3830 H 0.84834 0.39968 0.37224 0.0
C3831 C 0.82804 0.32612 0.36625 0.0
C3832 C 0.83565 0.33618 0.34543 0.0
H3833 H 0.82034 0.33424 0.40442 0.0
H3834 H 0.82238 0.30565 0.36489 0.0
C3835 C 0.84393 0.36284 0.34838 0.0
C3836 C 0.5487 0.06511 0.231 0.0
C3837 C 0.52646 0.04866 0.22429 0.0
H3838 H 0.58274 0.07772 0.21995 0.0
C3839 C 0.52226 0.03046 0.20166 0.0
H3840 H 0.55252 0.07905 0.24854 0.0
C3841 C 0.53957 0.02956 0.1855 0.0
C3842 C 0.56143 0.04681 0.19165 0.0
H3843 H 0.50529 0.01761 0.19593 0.0
H3844 H 0.53564 0.01585 0.1678 0.0
C3845 C 0.56607 0.06414 0.21483 0.0
C3846 C 0.83333 0.7582 0.8731 0.0
C3847 C 0.81269 0.75354 0.88497 0.0
H3848 H 0.84974 0.76945 0.84134 0.0
C3849 C 0.79217 0.7564 0.87225 0.0
H3850 H 0.84957 0.75643 0.88219 0.0
C3851 C 0.79225 0.76361 0.84868 0.0
C3852 C 0.81288 0.76857 0.83695 0.0
H3853 H 0.77584 0.75278 0.8804 0.0
H3854 H 0.77609 0.76583 0.83994 0.0
C3855 C 0.83346 0.76578 0.84962 0.0
C3856 C 0.88214 0.03009 0.01017 0.0
C3857 C 0.88361 0.05104 0.99817 0.0
H3858 H 0.89711 0.99896 0.01655 0.0
C3859 C 0.9006 0.05544 0.98159 0.0
H3860 H 0.86906 0.02621 0.0229 0.0
C3861 C 0.91664 0.04001 0.97811 0.0
C3862 C 0.91573 0.01968 0.99084 0.0
H3863 H 0.90218 0.07153 0.97222 0.0
H3864 H 0.93025 0.04445 0.9661 0.0
C3865 C 0.89798 0.01439 1.00637 0.0
C3866 C 0.46863 0.50303 0.05912 0.0
C3867 C 0.45939 0.47904 0.04301 0.0
H3868 H 0.49763 0.53559 0.06992 0.0
C3869 C 0.47349 0.46952 0.02549 0.0
H3870 H 0.45835 0.5111 0.07285 0.0
C3871 C 0.49568 0.48376 0.02346 0.0
C3872 C 0.5048 0.50795 0.03912 0.0
H3873 H 0.46746 0.45087 0.01323 0.0
H3874 H 0.50561 0.47563 0.00941 0.0
C3875 C 0.49111 0.51725 0.05728 0.0
C3876 C 0.36992 0.70288 0.74985 0.0
C3877 C 0.37557 0.69604 0.77316 0.0
H3878 H 0.35551 0.7272 0.72904 0.0
C3879 C 0.36836 0.71162 0.79417 0.0
H3880 H 0.37413 0.69231 0.73263 0.0
C3881 C 0.35697 0.73241 0.79192 0.0
C3882 C 0.35164 0.73904 0.76839 0.0
H3883 H 0.37184 0.70815 0.81281 0.0
H3884 H 0.35265 0.74353 0.80883 0.0
C3885 C 0.35868 0.72342 0.74766 0.0
C3886 C 0.15728 0.5677 0.52187 0.0
C3887 C 0.16955 0.59321 0.52431 0.0
H3888 H 0.12409 0.542 0.51907 0.0
C3889 C 0.15717 0.61266 0.52557 0.0
H3890 H 0.1664 0.55235 0.52073 0.0
C3891 C 0.13296 0.60674 0.5249 0.0
C3892 C 0.12082 0.58139 0.52347 0.0
H3893 H 0.16619 0.63244 0.52687 0.0
H3894 H 0.12373 0.622 0.52594 0.0
C3895 C 0.13308 0.56183 0.52131 0.0
C3896 C 0.83131 0.97298 0.74622 0.0
C3897 C 0.82258 0.98875 0.7648 0.0
H3898 H 0.85186 0.94498 0.73871 0.0
C3899 C 0.83118 0.99195 0.79012 0.0
H3900 H 0.82479 0.97019 0.72661 0.0
C3901 C 0.847 0.97806 0.79696 0.0
C3902 C 0.8541 0.96052 0.77859 0.0
H3903 H 0.82464 1.00411 0.8047 0.0
H3904 H 0.85209 0.97936 0.81673 0.0
C3905 C 0.84682 0.95873 0.7531 0.0
C3906 C 0.72812 0.9888 0.53914 0.0
C3907 C 0.73998 0.9781 0.51979 0.0
H3908 H 0.70417 1.0125 0.54983 0.0
C3909 C 0.73612 0.98332 0.49569 0.0
H3910 H 0.73055 0.98503 0.55787 0.0
C3911 C 0.72116 0.99911 0.49115 0.0
C3912 C 0.7094 1.00995 0.51048 0.0
H3913 H 0.74507 0.9756 0.48039 0.0
H3914 H 0.71877 1.00285 0.47239 0.0
C3915 C 0.71285 1.00436 0.53449 0.0
C3916 C 0.38275 0.41104 0.78333 0.0
C3917 C 0.37109 0.42769 0.77312 0.0
H3918 H 0.38145 0.37388 0.79233 0.0
C3919 C 0.34746 0.41696 0.76346 0.0
H3920 H 0.40074 0.41796 0.79131 0.0
C3921 C 0.33626 0.3911 0.76384 0.0
C3922 C 0.34789 0.37462 0.77433 0.0
H3923 H 0.33755 0.42843 0.75505 0.0
H3924 H 0.31839 0.38399 0.75564 0.0
C3925 C 0.37147 0.38537 0.78402 0.0
C3926 C 0.26586 0.70252 0.27849 0.0
C3927 C 0.28129 0.68606 0.27551 0.0
H3928 H 0.26215 0.74124 0.28696 0.0
C3929 C 0.3054 0.69655 0.28096 0.0
H3930 H 0.24717 0.69502 0.27553 0.0
C3931 C 0.31387 0.72312 0.28801 0.0
C3932 C 0.29834 0.73931 0.28902 0.0
H3933 H 0.31769 0.68434 0.27911 0.0
H3934 H 0.33248 0.73104 0.2919 0.0
C3935 C 0.27434 0.72891 0.28518 0.0
C3936 C 0.54944 0.63248 0.47035 0.0
C3937 C 0.54695 0.65305 0.48914 0.0
H3938 H 0.55464 0.59426 0.46065 0.0
C3939 C 0.54887 0.64917 0.51428 0.0
H3940 H 0.54866 0.63423 0.45084 0.0
C3941 C 0.55236 0.62554 0.52006 0.0
C3942 C 0.55464 0.60505 0.50095 0.0
H3943 H 0.54705 0.66417 0.52956 0.0
H3944 H 0.55289 0.62322 0.53941 0.0
C3945 C 0.55312 0.60928 0.47609 0.0
C3946 C 0.72874 0.30242 0.7044 0.0
C3947 C 0.72013 0.32491 0.7091 0.0
H3948 H 0.75337 0.28157 0.71543 0.0
C3949 C 0.73123 0.34407 0.73009 0.0
H3950 H 0.72072 0.28691 0.68885 0.0
C3951 C 0.75014 0.34092 0.74556 0.0
C3952 C 0.75863 0.31838 0.74084 0.0
H3953 H 0.7256 0.36186 0.7344 0.0
H3954 H 0.75829 0.35641 0.76104 0.0
C3955 C 0.74755 0.29924 0.71991 0.0
C3956 C 0.05251 0.43743 0.0166 0.0
C3957 C 0.05151 0.42324 0.99181 0.0
H3958 H 0.05909 0.47489 0.0411 0.0
C3959 C 0.05432 0.4373 0.97245 0.0
H3960 H 0.0505 0.42754 0.03214 0.0
C3961 C 0.05892 0.46423 0.97759 0.0
C3962 C 0.06075 0.47849 1.00227 0.0
H3963 H 0.0532 0.42747 0.95308 0.0
H3964 H 0.06158 0.47407 0.96205 0.0
C3965 C 0.05731 0.46467 0.02179 0.0
C3966 C 1.00627 0.82116 0.22976 0.0
C3967 C 1.00172 0.81218 0.20359 0.0
H3968 H 0.99283 0.8247 0.26552 0.0
C3969 C 0.97851 0.80028 0.19359 0.0
H3970 H 0.02382 0.83021 0.23834 0.0
C3971 C 0.9606 0.79686 0.20936 0.0
C3972 C 0.96541 0.8051 0.2356 0.0
H3973 H 0.97416 0.79342 0.17352 0.0
H3974 H 0.94314 0.787 0.20105 0.0
C3975 C 0.98844 0.81772 0.24546 0.0
C3976 C 0.52666 0.3547 0.06304 0.0
C3977 C 0.53891 0.36337 0.08719 0.0
H3978 H 0.52263 0.36079 0.02532 0.0
C3979 C 0.557 0.38561 0.09154 0.0
H3980 H 0.51283 0.33745 0.05899 0.0
C3981 C 0.56264 0.39891 0.07226 0.0
C3982 C 0.55048 0.39018 0.04807 0.0
H3983 H 0.56671 0.39285 0.10994 0.0
H3984 H 0.57671 0.41595 0.07623 0.0
C3985 C 0.53247 0.36787 0.04367 0.0
C3986 C 0.99206 0.3072 0.29007 0.0
C3987 C 0.01313 0.32569 0.29253 0.0
H3988 H 0.95544 0.29704 0.27801 0.0
C3989 C 0.0133 0.34802 0.28299 0.0
H3990 H 0.99129 0.28987 0.29735 0.0
C3991 C 0.99276 0.35231 0.27229 0.0
C3992 C 0.97148 0.33434 0.27071 0.0
H3993 H 0.02928 0.36251 0.2843 0.0
H3994 H 0.99348 0.3702 0.26606 0.0
C3995 C 0.97145 0.31149 0.2793 0.0
C3996 C 0.03342 0.65109 0.57154 0.0
C3997 C 0.02785 0.65006 0.59616 0.0
H3998 H 0.04618 0.63278 0.5388 0.0
C3999 C 0.03046 0.62873 0.60624 0.0
H4000 H 0.03214 0.66749 0.56339 0.0
C4001 C 0.03892 0.60919 0.59226 0.0
C4002 C 0.04456 0.6104 0.56783 0.0
H4003 H 0.02597 0.62709 0.62495 0.0
H4004 H 0.04068 0.59292 0.60042 0.0
C4005 C 0.04156 0.63131 0.55745 0.0
C4006 C 0.74144 0.81571 0.83626 0.0
C4007 C 0.7231 0.81883 0.82027 0.0
H4008 H 0.77719 0.81377 0.84075 0.0
C4009 C 0.72744 0.8233 0.79611 0.0
H4010 H 0.73899 0.81317 0.85527 0.0
C4011 C 0.74939 0.82345 0.78781 0.0
C4012 C 0.76714 0.81902 0.80349 0.0
H4013 H 0.71373 0.82586 0.78334 0.0
H4014 H 0.75245 0.82686 0.76917 0.0
C4015 C 0.76329 0.81603 0.82801 0.0
C4016 C 0.50693 0.54474 0.62479 0.0
C4017 C 0.51474 0.56584 0.64548 0.0
H4018 H 0.51043 0.52589 0.587 0.0
C4019 C 0.53404 0.58467 0.64101 0.0
H4020 H 0.49217 0.5296 0.6261 0.0
C4021 C 0.54467 0.58249 0.61786 0.0
C4022 C 0.53685 0.56133 0.59737 0.0
H4023 H 0.5414 0.60134 0.6556 0.0
H4024 H 0.55918 0.59772 0.61606 0.0
C4025 C 0.51754 0.5426 0.60168 0.0
C4026 C 0.7773 0.20794 0.89818 0.0
C4027 C 0.7929 0.22093 0.91941 0.0
H4028 H 0.75586 0.21107 0.86629 0.0
C4029 C 0.80065 0.24769 0.92337 0.0
H4030 H 0.77132 0.18726 0.89456 0.0
C4031 C 0.79158 0.26139 0.90733 0.0
C4032 C 0.77471 0.24848 0.88709 0.0
H4033 H 0.81256 0.25812 0.9397 0.0
H4034 H 0.79681 0.28213 0.91161 0.0
C4035 C 0.76835 0.22157 0.88214 0.0
C4036 C 0.10095 0.53762 0.14108 0.0
C4037 C 0.1216 0.52885 0.13885 0.0
H4038 H 0.07245 0.54741 0.12175 0.0
C4039 C 0.12759 0.51981 0.11488 0.0
H4040 H 0.0959 0.5445 0.15941 0.0
C4041 C 0.11416 0.5214 0.09355 0.0
C4042 C 0.09447 0.53178 0.09586 0.0
H4043 H 0.14347 0.51313 0.11261 0.0
H4044 H 0.11977 0.51561 0.07524 0.0
C4045 C 0.0874 0.53903 0.11963 0.0
C4046 C 0.81933 0.80887 0.37984 0.0
C4047 C 0.82151 0.83415 0.39338 0.0
H4048 H 0.81488 0.78376 0.34327 0.0
C4049 C 0.82317 0.85385 0.37967 0.0
H4050 H 0.81799 0.79319 0.38972 0.0
C4051 C 0.82169 0.8485 0.35341 0.0
C4052 C 0.81869 0.82331 0.33974 0.0
H4053 H 0.82536 0.87358 0.38927 0.0
H4054 H 0.82243 0.86423 0.34363 0.0
C4055 C 0.81767 0.80345 0.35324 0.0
C4056 C 0.54102 0.56359 0.9201 0.0
C4057 C 0.51653 0.56023 0.91351 0.0
H4058 H 0.56945 0.56361 0.94789 0.0
C4059 C 0.50264 0.55295 0.9325 0.0
H4060 H 0.55294 0.56903 0.9067 0.0
C4061 C 0.51225 0.5499 0.95624 0.0
C4062 C 0.53651 0.5533 0.96299 0.0
H4063 H 0.48394 0.55032 0.92951 0.0
H4064 H 0.50029 0.54517 0.96986 0.0
C4065 C 0.55071 0.56011 0.94402 0.0
C4066 C 0.808 0.256 0.1545 0.0
C4067 C 0.80522 0.22928 0.15099 0.0
H4068 H 0.80975 0.29116 0.18047 0.0
C4069 C 0.80038 0.21737 0.17152 0.0
H4070 H 0.81119 0.26576 0.13899 0.0
C4071 C 0.79921 0.23188 0.19514 0.0
C4072 C 0.80315 0.25868 0.19893 0.0
H4073 H 0.79835 0.19687 0.16962 0.0
H4074 H 0.79629 0.22209 0.21062 0.0
C4075 C 0.80696 0.27054 0.17822 0.0
C4076 C 0.12302 0.57433 0.36981 0.0
C4077 C 0.12029 0.55822 0.34603 0.0
H4078 H 0.10701 0.58625 0.40264 0.0
C4079 C 0.09808 0.54295 0.33621 0.0
H4080 H 0.13988 0.58628 0.37791 0.0
C4081 C 0.07925 0.5428 0.35049 0.0
C4082 C 0.08237 0.55791 0.37479 0.0
H4083 H 0.09534 0.53078 0.31766 0.0
H4084 H 0.06258 0.52999 0.34304 0.0
C4085 C 0.10423 0.57424 0.384 0.0
C4086 C 0.79179 0.83186 0.66623 0.0
C4087 C 0.81337 0.8387 0.6565 0.0
H4088 H 0.77367 0.82009 0.69673 0.0
C4089 C 0.83359 0.83839 0.67156 0.0
H4090 H 0.77567 0.83155 0.65545 0.0
C4091 C 0.8323 0.83117 0.69502 0.0
C4092 C 0.8108 0.82417 0.70465 0.0
H4093 H 0.85066 0.84402 0.66543 0.0
H4094 H 0.84833 0.83083 0.70545 0.0
C4095 C 0.79056 0.82489 0.68993 0.0
C4096 C 0.755 0.56293 0.5409 0.0
C4097 C 0.75302 0.54132 0.55201 0.0
H4098 H 0.74058 0.59471 0.53548 0.0
C4099 C 0.73563 0.53639 0.56805 0.0
H4100 H 0.76842 0.56728 0.52866 0.0
C4101 C 0.71977 0.55199 0.57188 0.0
C4102 C 0.72118 0.57298 0.55999 0.0
H4103 H 0.73364 0.51982 0.57675 0.0
H4104 H 0.70592 0.5472 0.58352 0.0
C4105 C 0.73929 0.57875 0.545 0.0
C4106 C 0.16834 0.0911 0.49253 0.0
C4107 C 0.17883 0.1131 0.51094 0.0
H4108 H 0.13808 0.06043 0.47935 0.0
C4109 C 0.16606 0.12048 0.53085 0.0
H4110 H 0.17749 0.08492 0.47677 0.0
C4111 C 0.14356 0.10652 0.53229 0.0
C4112 C 0.133 0.08456 0.51395 0.0
H4113 H 0.17357 0.13693 0.54569 0.0
H4114 H 0.13454 0.113 0.54805 0.0
C4115 C 0.14568 0.07705 0.49397 0.0
C4116 C 0.26761 0.88045 0.74978 0.0
C4117 C 0.26043 0.89526 0.77134 0.0
H4118 H 0.28299 0.84872 0.7337 0.0
C4119 C 0.26596 0.88732 0.79408 0.0
H4120 H 0.26423 0.8848 0.73149 0.0
C4121 C 0.27695 0.86642 0.79524 0.0
C4122 C 0.28386 0.85147 0.77395 0.0
H4123 H 0.2618 0.89725 0.81166 0.0
H4124 H 0.27995 0.86171 0.81349 0.0
C4125 C 0.27877 0.85927 0.75099 0.0
C4126 C 0.48011 0.98495 0.03717 0.0
C4127 C 0.46844 1.00512 0.03939 0.0
H4128 H 0.51291 0.97416 0.03584 0.0
C4129 C 0.48164 0.03044 0.04291 0.0
H4130 H 0.47056 0.96516 0.03408 0.0
C4131 C 0.50579 0.03537 0.04324 0.0
C4132 C 0.5172 0.01512 0.03998 0.0
H4133 H 0.47337 0.04649 0.04544 0.0
H4134 H 0.51543 0.05503 0.04616 0.0
C4135 C 0.50432 0.98998 0.0379 0.0
C4136 C 0.8468 0.67442 0.82832 0.0
C4137 C 0.87011 0.67312 0.8263 0.0
H4138 H 0.8166 0.68288 0.81121 0.0
C4139 C 0.88259 0.68595 0.80943 0.0
H4140 H 0.83691 0.66497 0.84143 0.0
C4141 C 0.87098 0.69611 0.79209 0.0
C4142 C 0.84684 0.6937 0.79156 0.0
H4143 H 0.90061 0.68538 0.80749 0.0
H4144 H 0.88043 0.70367 0.77765 0.0
C4145 C 0.83519 0.68466 0.811 0.0
C4146 C 0.88881 0.59078 0.01195 0.0
C4147 C 0.8965 0.61767 0.01763 0.0
H4148 H 0.89716 0.55443 0.01139 0.0
C4149 C 0.92012 0.62819 0.0269 0.0
H4150 H 0.87082 0.58174 1.00506 0.0
C4151 C 0.93532 0.61231 0.03097 0.0
C4152 C 0.92735 0.58545 0.02596 0.0
H4153 H 0.92692 0.64875 0.03116 0.0
H4154 H 0.95314 0.62115 0.03877 0.0
C4155 C 0.90396 0.57499 0.01594 0.0
C4156 C 0.28578 0.17662 0.79564 0.0
C4157 C 0.26322 0.16497 0.78287 0.0
H4158 H 0.31392 0.21048 0.80656 0.0
C4159 C 0.25258 0.18121 0.77072 0.0
H4160 H 0.29497 0.16568 0.80568 0.0
C4161 C 0.26359 0.20727 0.77141 0.0
C4162 C 0.28607 0.21883 0.78408 0.0
H4163 H 0.23563 0.17382 0.76012 0.0
H4164 H 0.25432 0.21836 0.76166 0.0
C4165 C 0.29686 0.20277 0.79623 0.0
C4166 C 0.37385 0.90654 0.31478 0.0
C4167 C 0.36896 0.91988 0.29606 0.0
H4168 H 0.37034 0.86973 0.32504 0.0
C4169 C 0.35598 0.90627 0.27334 0.0
H4170 H 0.38414 0.91668 0.3323 0.0
C4171 C 0.34774 0.87974 0.2695 0.0
C4172 C 0.35241 0.86649 0.2883 0.0
H4173 H 0.35218 0.91618 0.2586 0.0
H4174 H 0.33782 0.86951 0.25179 0.0
C4175 C 0.366 0.87987 0.3107 0.0
C4176 C 0.58947 0.45012 0.54206 0.0
C4177 C 0.58882 0.44594 0.56712 0.0
H4178 H 0.58722 0.47591 0.51629 0.0
C4179 C 0.58472 0.46634 0.58508 0.0
H4180 H 0.59245 0.43526 0.52734 0.0
C4181 C 0.58164 0.48946 0.57865 0.0
C4182 C 0.58212 0.49371 0.55382 0.0
H4183 H 0.58451 0.46489 0.60463 0.0
H4184 H 0.57903 0.50444 0.59353 0.0
C4185 C 0.58618 0.47351 0.53553 0.0
C4186 C 0.39249 0.78154 0.36379 0.0
C4187 C 0.41475 0.78494 0.35511 0.0
H4188 H 0.35648 0.78296 0.35707 0.0
C4189 C 0.41686 0.79225 0.33163 0.0
H4190 H 0.39007 0.77606 0.38176 0.0
C4191 C 0.39749 0.79582 0.3173 0.0
C4192 C 0.37537 0.79291 0.32616 0.0
H4193 H 0.43357 0.79502 0.32416 0.0
H4194 H 0.39999 0.80141 0.29941 0.0
C4195 C 0.37322 0.78578 0.34971 0.0
C4196 C 0.08864 0.65878 0.08627 0.0
C4197 C 0.09026 0.67222 0.06637 0.0
H4198 H 0.08166 0.62248 0.09773 0.0
C4199 C 0.08683 0.6573 0.04164 0.0
H4200 H 0.09068 0.66912 0.10555 0.0
C4201 C 0.08184 0.63007 0.03714 0.0
C4202 C 0.07998 0.61691 0.05724 0.0
H4203 H 0.08795 0.66667 0.02571 0.0
H4204 H 0.07879 0.61935 0.01795 0.0
C4205 C 0.08339 0.63182 0.08177 0.0
C4206 C 0.15208 0.30119 0.85933 0.0
C4207 C 0.1312 0.28233 0.85156 0.0
H4208 H 0.1859 0.31865 0.85003 0.0
C4209 C 0.12919 0.26576 0.82804 0.0
H4210 H 0.1543 0.31414 0.87741 0.0
C4211 C 0.14714 0.26851 0.81238 0.0
C4212 C 0.16782 0.28759 0.81992 0.0
H4213 H 0.11337 0.25114 0.82135 0.0
H4214 H 0.14468 0.25592 0.79406 0.0
C4215 C 0.17027 0.30362 0.84379 0.0
C4216 C 0.59169 0.74263 0.99579 0.0
C4217 C 0.58115 0.73244 0.97105 0.0
H4218 H 0.5962 0.73664 0.03349 0.0
C4219 C 0.56561 0.70826 0.96589 0.0
H4220 H 0.60348 0.7614 1.00043 0.0
C4221 C 0.56138 0.69419 0.98482 0.0
C4222 C 0.57246 0.70405 0.00938 0.0
H4223 H 0.55727 0.69985 0.94703 0.0
H4224 H 0.54968 0.67537 0.98016 0.0
C4225 C 0.58732 0.72862 0.01479 0.0
C4226 C 0.14696 0.78762 0.75861 0.0
C4227 C 0.12544 0.77043 0.75825 0.0
H4228 H 0.18394 0.7958 0.76765 0.0
C4229 C 0.12496 0.74855 0.76863 0.0
H4230 H 0.14798 0.80462 0.75071 0.0
C4231 C 0.14555 0.74313 0.77769 0.0
C4232 C 0.16722 0.75966 0.77702 0.0
H4233 H 0.10865 0.73513 0.7691 0.0
H4234 H 0.14445 0.7254 0.7843 0.0
C4235 C 0.16762 0.78233 0.76796 0.0
C4236 C 0.10546 0.44878 0.49233 0.0
C4237 C 0.10112 0.44396 0.46596 0.0
H4238 H 0.10198 0.47224 0.52729 0.0
C4239 C 0.09024 0.46036 0.45483 0.0
H4240 H 0.11366 0.4365 0.50164 0.0
C4241 C 0.08277 0.48013 0.46961 0.0
C4242 C 0.08652 0.48452 0.49593 0.0
H4243 H 0.08733 0.45793 0.4346 0.0
H4244 H 0.07428 0.49215 0.46029 0.0
C4245 C 0.09849 0.46909 0.50714 0.0
C4246 C 0.40204 0.25353 0.26501 0.0
C4247 C 0.40208 0.25334 0.239 0.0
H4248 H 0.38352 0.25915 0.29763 0.0
C4249 C 0.38122 0.25413 0.22543 0.0
H4250 H 0.41749 0.25278 0.27632 0.0
C4251 C 0.36218 0.25866 0.23793 0.0
C4252 C 0.36334 0.26179 0.26414 0.0
H4253 H 0.37986 0.25252 0.20525 0.0
H4254 H 0.34688 0.26078 0.22721 0.0
C4255 C 0.3827 0.25757 0.27744 0.0
C4256 C 0.60352 0.51202 0.41284 0.0
C4257 C 0.62282 0.53075 0.4082 0.0
H4258 H 0.57821 0.49945 0.43785 0.0
C4259 C 0.63056 0.55208 0.42867 0.0
H4260 H 0.59626 0.4952 0.39838 0.0
C4261 C 0.61991 0.55453 0.45178 0.0
C4262 C 0.60056 0.53595 0.45627 0.0
H4263 H 0.64531 0.56716 0.42718 0.0
H4264 H 0.62701 0.57139 0.46629 0.0
C4265 C 0.59278 0.51457 0.43595 0.0
C4266 C 0.33035 0.82793 0.08822 0.0
C4267 C 0.34177 0.85392 0.09621 0.0
H4268 H 0.32284 0.79054 0.09734 0.0
C4269 C 0.35585 0.86171 0.1193 0.0
H4270 H 0.31966 0.82128 0.07034 0.0
C4271 C 0.358 0.84414 0.13438 0.0
C4272 C 0.34593 0.81839 0.1269 0.0
H4273 H 0.36472 0.8816 0.12616 0.0
H4274 H 0.36867 0.85087 0.15229 0.0
C4275 C 0.33245 0.81028 0.10345 0.0
C4276 C 0.02071 0.53871 0.92447 0.0
C4277 C 0.02068 0.56316 0.9198 0.0
H4278 H 0.03264 0.51717 0.94954 0.0
C4279 C 0.0353 0.5849 0.93543 0.0
H4280 H 1.00947 0.52169 0.91276 0.0
C4281 C 0.04885 0.58223 0.95632 0.0
C4282 C 0.04735 0.55788 0.9619 0.0
H4283 H 0.03558 0.60391 0.93198 0.0
H4284 H 0.0592 0.5992 0.96897 0.0
C4285 C 0.03383 0.53612 0.9455 0.0
C4286 C 0.30511 0.24091 0.67281 0.0
C4287 C 0.3082 0.26096 0.65951 0.0
H4288 H 0.30617 0.23 0.70866 0.0
C4289 C 0.31352 0.28641 0.6734 0.0
H4290 H 0.30125 0.22114 0.66281 0.0
C4291 C 0.31575 0.29153 0.69998 0.0
C4292 C 0.31309 0.27127 0.71309 0.0
H4293 H 0.31604 0.30229 0.6637 0.0
H4294 H 0.32029 0.31121 0.71022 0.0
C4295 C 0.30792 0.246 0.69911 0.0
C4296 C 0.63644 0.5405 0.11868 0.0
C4297 C 0.62214 0.5331 0.13729 0.0
H4298 H 0.63945 0.54815 0.08134 0.0
C4299 C 0.59773 0.52935 0.13014 0.0
H4300 H 0.65514 0.54344 0.12222 0.0
C4301 C 0.58844 0.53264 0.10601 0.0
C4302 C 0.60304 0.53957 0.08741 0.0
H4303 H 0.58556 0.5238 0.14328 0.0
H4304 H 0.56974 0.52894 0.10169 0.0
C4305 C 0.62724 0.54329 0.09469 0.0
C4306 C 0.32303 0.84166 0.88663 0.0
C4307 C 0.33377 0.86778 0.88954 0.0
H4308 H 0.31456 0.80471 0.86229 0.0
C4309 C 0.34528 0.87639 0.86988 0.0
H4310 H 0.31461 0.83441 0.90181 0.0
C4311 C 0.34497 0.85952 0.84722 0.0
C4312 C 0.33309 0.83364 0.84369 0.0
H4313 H 0.35385 0.8964 0.8717 0.0
H4314 H 0.35339 0.86709 0.83223 0.0
C4315 C 0.32297 0.82469 0.86401 0.0
C4316 C 0.02735 0.57675 0.72802 0.0
C4317 C 1.00492 0.56128 0.7196 0.0
H4318 H 0.06301 0.58674 0.72053 0.0
C4319 C 1.00161 0.54303 0.69709 0.0
H4320 H 0.03051 0.59065 0.74558 0.0
C4321 C 0.02021 0.54047 0.68314 0.0
C4322 C 0.04253 0.55625 0.69125 0.0
H4323 H 0.98455 0.53088 0.69007 0.0
H4324 H 0.01706 0.52628 0.66578 0.0
C4325 C 0.04602 0.57422 0.71397 0.0
C4326 C 0.31466 0.23824 0.37545 0.0
C4327 C 0.32066 0.25543 0.39889 0.0
H4328 H 0.31204 0.23307 0.33519 0.0
C4329 C 0.32899 0.28164 0.39863 0.0
H4330 H 0.30791 0.21798 0.37457 0.0
C4331 C 0.33109 0.29029 0.37584 0.0
C4332 C 0.32496 0.2731 0.35251 0.0
H4333 H 0.334 0.29559 0.41609 0.0
H4334 H 0.33684 0.31061 0.37656 0.0
C4335 C 0.31674 0.24694 0.35269 0.0
C4336 C 0.37806 0.53472 0.50209 0.0
C4337 C 0.3834 0.56073 0.50029 0.0
H4338 H 0.39035 0.50026 0.50062 0.0
C4339 C 0.40565 0.57148 0.49426 0.0
H4340 H 0.36098 0.5257 0.50633 0.0
C4341 C 0.42221 0.55681 0.49046 0.0
C4342 C 0.41715 0.53104 0.49294 0.0
H4343 H 0.41055 0.59148 0.493 0.0
H4344 H 0.43914 0.5658 0.4858 0.0
C4345 C 0.39477 0.52003 0.49846 0.0
C4346 C 0.96523 1.0013 0.55742 0.0
C4347 C 0.95571 0.97775 0.54066 0.0
H4348 H 0.99466 0.03317 0.56933 0.0
C4349 C 0.96982 0.96844 0.523 0.0
H4350 H 0.95501 1.00928 0.57125 0.0
C4351 C 0.9923 0.98244 0.52154 0.0
C4352 C 1.00168 1.00618 0.53788 0.0
H4353 H 0.96359 0.95012 0.51022 0.0
H4354 H 1.00228 0.97452 0.50739 0.0
C4355 C 0.98796 0.01523 0.55614 0.0
C4356 C 0.86947 0.21212 0.29536 0.0
C4357 C 0.87564 0.19596 0.27406 0.0
H4358 H 0.85476 0.24469 0.3105 0.0
C4359 C 0.86951 0.20269 0.25084 0.0
H4360 H 0.87326 0.20867 0.31395 0.0
C4361 C 0.85857 0.22351 0.24896 0.0
C4362 C 0.8524 0.23959 0.26995 0.0
H4363 H 0.87357 0.19219 0.2335 0.0
H4364 H 0.85507 0.22725 0.23038 0.0
C4365 C 0.85836 0.23319 0.29341 0.0
C4366 C 0.6637 0.11229 0.01745 0.0
C4367 C 0.67596 0.09277 0.01643 0.0
H4368 H 0.63055 0.12213 0.01947 0.0
C4369 C 0.6638 0.06765 0.01627 0.0
H4370 H 0.67274 0.13187 0.01773 0.0
C4371 C 0.63976 0.06216 0.01716 0.0
C4372 C 0.62762 0.08181 0.01898 0.0
H4373 H 0.67284 0.05223 0.01511 0.0
H4374 H 0.63078 0.04254 0.01633 0.0
C4375 C 0.63968 0.10681 0.01858 0.0
C4376 C 0.28632 0.43967 0.26913 0.0
C4377 C 0.28419 0.4527 0.24943 0.0
H4378 H 0.30635 0.41958 0.28805 0.0
C4379 C 0.29944 0.45104 0.23066 0.0
H4380 H 0.27446 0.43966 0.28349 0.0
C4381 C 0.31719 0.43794 0.23242 0.0
C4382 C 0.32057 0.42685 0.25337 0.0
H4383 H 0.29845 0.46078 0.21513 0.0
H4384 H 0.32865 0.43726 0.21769 0.0
C4385 C 0.30449 0.42744 0.27138 0.0
C4386 C 0.22036 0.46709 0.02528 0.0
C4387 C 0.24258 0.47652 0.03894 0.0
H4388 H 0.1888 0.47581 0.01121 0.0
C4389 C 0.24936 0.50282 0.04982 0.0
H4390 H 0.21444 0.44692 0.01684 0.0
C4391 C 0.2347 0.51931 0.04658 0.0
C4392 C 0.21271 0.51002 0.0325 0.0
H4393 H 0.26635 0.51089 0.06028 0.0
H4394 H 0.24071 0.53949 0.05496 0.0
C4395 C 0.20555 0.4836 0.02225 0.0
C4396 C 0.84701 0.91741 0.25841 0.0
C4397 C 0.87076 0.92765 0.26783 0.0
H4398 H 0.81767 0.88472 0.25015 0.0
C4399 C 0.88235 0.91043 0.27709 0.0
H4400 H 0.83715 0.92937 0.25073 0.0
C4401 C 0.8709 0.88465 0.27712 0.0
C4402 C 0.8472 0.87437 0.26765 0.0
H4403 H 0.90043 0.91696 0.28484 0.0
H4404 H 0.88084 0.87272 0.28473 0.0
C4405 C 0.83563 0.89143 0.2581 0.0
C4406 C 0.79772 0.20562 0.79454 0.0
C4407 C 0.7737 0.19575 0.78748 0.0
H4408 H 0.82567 0.23929 0.80405 0.0
C4409 C 0.75914 0.21285 0.78604 0.0
H4410 H 0.80938 0.19294 0.79577 0.0
C4411 C 0.76858 0.23918 0.79024 0.0
C4412 C 0.79267 0.2487 0.79575 0.0
H4413 H 0.7405 0.20586 0.78132 0.0
H4414 H 0.75715 0.25209 0.78882 0.0
C4415 C 0.8071 0.23201 0.79894 0.0
loop_
_geom_bond_atom_site_label_1
_geom_bond_atom_site_label_2
_geom_bond_distance
_geom_bond_site_symmetry_2
_ccdc_geom_bond_type
Li0 N17 1.990 . S
Li0 O60 1.956 . S
Li0 O61 1.970 . S
Li0 O62 1.961 . S
Li1 N25 1.990 . S
Li1 O60 1.970 . S
Li1 O61 1.956 . S
Li1 O63 1.961 . S
Li2 N47 1.990 . S
Li2 O60 1.961 . S
Li2 O62 1.956 . S
Li2 O63 1.970 . S
Li3 N53 1.990 . S
Li3 O61 1.961 . S
Li3 O62 1.970 . S
Li3 O63 1.956 . S
C4 C6 1.348 . S
C4 C7 1.356 . S
C4 O60 1.325 . S
N5 C8 1.314 . S
N5 C9 1.279 . S
C6 C4 1.348 . S
C6 C8 1.353 . S
C6 H64 0.929 . S
C7 C4 1.356 . S
C7 C9 1.358 . S
C7 H65 0.930 . S
C8 N5 1.314 . S
C8 C6 1.353 . S
C8 H66 0.930 . S
C9 N5 1.279 . S
C9 C7 1.358 . S
C9 H67 0.930 . S
C10 C13 1.348 . S
C10 C14 1.356 . S
C10 O61 1.325 . S
C11 N12 1.279 . S
C11 C14 1.358 . S
C11 H68 0.930 . S
N12 C11 1.279 . S
N12 C15 1.314 . S
C13 C10 1.348 . S
C13 C15 1.353 . S
C13 H69 0.929 . S
C14 C10 1.356 . S
C14 C11 1.358 . S
C14 H70 0.930 . S
C15 N12 1.314 . S
C15 C13 1.353 . S
C15 H71 0.930 . S
C16 N17 1.314 . S
C16 C21 1.353 . S
C16 H22 0.930 . S
N17 Li0 1.990 . S
N17 C16 1.314 . S
N17 C19 1.279 . S
C18 C19 1.358 . S
C18 C20 1.356 . S
C18 H72 0.930 . S
C19 N17 1.279 . S
C19 C18 1.358 . S
C19 H23 0.930 . S
C20 C18 1.356 . S
C20 C21 1.348 . S
C21 C16 1.353 . S
C21 C20 1.348 . S
C21 H73 0.929 . S
H22 C16 0.930 . S
H23 C19 0.930 . S
C24 N25 1.314 . S
C24 C26 1.353 . S
C24 H30 0.930 . S
N25 Li1 1.990 . S
N25 C24 1.314 . S
N25 C28 1.279 . S
C26 C24 1.353 . S
C26 C29 1.348 . S
C26 H74 0.929 . S
C27 C28 1.358 . S
C27 C29 1.356 . S
C27 H75 0.930 . S
C28 N25 1.279 . S
C28 C27 1.358 . S
C28 H31 0.930 . S
C29 C26 1.348 . S
C29 C27 1.356 . S
H30 C24 0.930 . S
H31 C28 0.930 . S
C32 C34 1.348 . S
C32 C35 1.356 . S
C32 O62 1.325 . S
N33 C36 1.314 . S
N33 C37 1.279 . S
C34 C32 1.348 . S
C34 C36 1.353 . S
C34 H76 0.929 . S
C35 C32 1.356 . S
C35 C37 1.358 . S
C35 H77 0.930 . S
C36 N33 1.314 . S
C36 C34 1.353 . S
C36 H78 0.930 . S
C37 N33 1.279 . S
C37 C35 1.358 . S
C37 H79 0.930 . S
C38 C39 1.348 . S
C38 C40 1.356 . S
C38 O63 1.325 . S
C39 C38 1.348 . S
C39 C41 1.353 . S
C39 H80 0.929 . S
C40 C38 1.356 . S
C40 C42 1.358 . S
C40 H81 0.930 . S
C41 C39 1.353 . S
C41 N43 1.314 . S
C41 H82 0.930 . S
C42 C40 1.358 . S
C42 N43 1.279 . S
C42 H83 0.930 . S
N43 C41 1.314 . S
N43 C42 1.279 . S
C44 C46 1.353 . S
C44 N47 1.314 . S
C44 H50 0.930 . S
C45 N47 1.279 . S
C45 C48 1.358 . S
C45 H51 0.930 . S
C46 C44 1.353 . S
C46 C49 1.348 . S
C46 H84 0.929 . S
N47 Li2 1.990 . S
N47 C44 1.314 . S
N47 C45 1.279 . S
C48 C45 1.358 . S
C48 C49 1.356 . S
C48 H85 0.930 . S
C49 C46 1.348 . S
C49 C48 1.356 . S
H50 C44 0.930 . S
H51 C45 0.930 . S
C52 N53 1.314 . S
C52 C54 1.353 . S
C52 H58 0.930 . S
N53 Li3 1.990 . S
N53 C52 1.314 . S
N53 C56 1.279 . S
C54 C52 1.353 . S
C54 C57 1.348 . S
C54 H86 0.929 . S
C55 C56 1.358 . S
C55 C57 1.356 . S
C55 H87 0.930 . S
C56 N53 1.279 . S
C56 C55 1.358 . S
C56 H59 0.930 . S
C57 C54 1.348 . S
C57 C55 1.356 . S
H58 C52 0.930 . S
H59 C56 0.930 . S
O60 Li0 1.956 . S
O60 Li1 1.970 . S
O60 Li2 1.961 . S
O60 C4 1.325 . S
O61 Li0 1.970 . S
O61 Li1 1.956 . S
O61 Li3 1.961 . S
O61 C10 1.325 . S
O62 Li0 1.961 . S
O62 Li2 1.956 . S
O62 Li3 1.970 . S
O62 C32 1.325 . S
O63 Li1 1.961 . S
O63 Li2 1.970 . S
O63 Li3 1.956 . S
O63 C38 1.325 . S
H64 C6 0.929 . S
H65 C7 0.930 . S
H66 C8 0.930 . S
H67 C9 0.930 . S
H68 C11 0.930 . S
H69 C13 0.929 . S
H70 C14 0.930 . S
H71 C15 0.930 . S
H72 C18 0.930 . S
H73 C21 0.929 . S
H74 C26 0.929 . S
H75 C27 0.930 . S
H76 C34 0.929 . S
H77 C35 0.930 . S
H78 C36 0.930 . S
H79 C37 0.930 . S
H80 C39 0.929 . S
H81 C40 0.930 . S
H82 C41 0.930 . S
H83 C42 0.930 . S
H84 C46 0.929 . S
H85 C48 0.930 . S
H86 C54 0.929 . S
H87 C55 0.930 . S
Li88 N105 1.990 . S
Li88 O148 1.956 . S
Li88 O149 1.970 . S
Li88 O150 1.961 1_455 S
Li89 N113 1.990 . S
Li89 O148 1.970 . S
Li89 O149 1.956 . S
Li89 O151 1.961 1_455 S
Li90 N135 1.990 . S
Li90 O148 1.961 1_655 S
Li90 O150 1.956 . S
Li90 O151 1.970 . S
Li91 N141 1.990 . S
Li91 O149 1.961 1_655 S
Li91 O150 1.970 . S
Li91 O151 1.956 . S
C92 C94 1.348 . S
C92 C95 1.356 . S
C92 O148 1.325 . S
N93 C96 1.314 . S
N93 C97 1.279 . S
C94 C92 1.348 . S
C94 C96 1.353 . S
C94 H152 0.929 . S
C95 C92 1.356 . S
C95 C97 1.358 . S
C95 H153 0.930 . S
C96 N93 1.314 . S
C96 C94 1.353 . S
C96 H154 0.930 . S
C97 N93 1.279 . S
C97 C95 1.358 . S
C97 H155 0.930 . S
C98 C101 1.348 . S
C98 C102 1.356 . S
C98 O149 1.325 . S
C99 N100 1.279 . S
C99 C102 1.358 . S
C99 H156 0.930 . S
N100 C99 1.279 . S
N100 C103 1.314 . S
C101 C98 1.348 . S
C101 C103 1.353 . S
C101 H157 0.929 . S
C102 C98 1.356 . S
C102 C99 1.358 . S
C102 H158 0.929 1_455 S
C103 N100 1.314 . S
C103 C101 1.353 . S
C103 H159 0.930 . S
C104 N105 1.314 1_655 S
C104 C109 1.353 . S
C104 H110 0.930 . S
N105 Li88 1.990 . S
N105 C104 1.314 1_455 S
N105 C107 1.279 . S
C106 C107 1.358 . S
C106 C108 1.356 . S
C106 H160 0.930 . S
C107 N105 1.279 . S
C107 C106 1.358 . S
C107 H111 0.930 . S
C108 C106 1.356 . S
C108 C109 1.348 1_455 S
C109 C104 1.353 . S
C109 C108 1.348 1_655 S
C109 H161 0.929 . S
H110 C104 0.930 . S
H111 C107 0.930 . S
C112 N113 1.314 . S
C112 C114 1.353 . S
C112 H118 0.930 . S
N113 Li89 1.990 . S
N113 C112 1.314 . S
N113 C116 1.279 . S
C114 C112 1.353 . S
C114 C117 1.348 . S
C114 H162 0.929 . S
C115 C116 1.358 . S
C115 C117 1.356 . S
C115 H163 0.930 . S
C116 N113 1.279 . S
C116 C115 1.358 . S
C116 H119 0.930 . S
C117 C114 1.348 . S
C117 C115 1.356 . S
H118 C112 0.930 . S
H119 C116 0.930 . S
C120 C122 1.348 . S
C120 C123 1.356 . S
C120 O150 1.325 . S
N121 C124 1.314 . S
N121 C125 1.279 . S
C122 C120 1.348 . S
C122 C124 1.353 . S
C122 H164 0.929 . S
C123 C120 1.356 . S
C123 C125 1.358 . S
C123 H165 0.930 . S
C124 N121 1.314 . S
C124 C122 1.353 . S
C124 H166 0.930 . S
C125 N121 1.279 . S
C125 C123 1.358 . S
C125 H167 0.930 . S
C126 C127 1.348 . S
C126 C128 1.356 1_655 S
C126 O151 1.325 . S
C127 C126 1.348 . S
C127 C129 1.353 . S
C127 H168 0.929 . S
C128 C126 1.356 1_455 S
C128 C130 1.359 . S
C128 H169 0.930 . S
C129 C127 1.353 . S
C129 N131 1.314 . S
C129 H170 0.930 . S
C130 C128 1.359 . S
C130 N131 1.279 1_455 S
C130 H171 0.930 . S
N131 C129 1.314 . S
N131 C130 1.279 1_655 S
C132 C134 1.353 . S
C132 N135 1.314 1_455 S
C132 H138 0.930 . S
C133 N135 1.279 . S
C133 C136 1.358 . S
C133 H139 0.930 . S
C134 C132 1.353 . S
C134 C137 1.348 1_455 S
C134 H172 0.929 . S
N135 Li90 1.990 . S
N135 C132 1.314 1_655 S
N135 C133 1.279 . S
C136 C133 1.358 . S
C136 C137 1.356 . S
C136 H173 0.930 . S
C137 C134 1.348 1_655 S
C137 C136 1.356 . S
H138 C132 0.930 . S
H139 C133 0.930 . S
C140 N141 1.314 . S
C140 C142 1.353 . S
C140 H146 0.930 . S
N141 Li91 1.990 . S
N141 C140 1.314 . S
N141 C144 1.279 . S
C142 C140 1.353 . S
C142 C145 1.348 . S
C142 H174 0.929 . S
C143 C144 1.358 . S
C143 C145 1.356 . S
C143 H175 0.930 . S
C144 N141 1.279 . S
C144 C143 1.358 . S
C144 H147 0.930 . S
C145 C142 1.348 . S
C145 C143 1.356 . S
H146 C140 0.930 . S
H147 C144 0.930 . S
O148 Li88 1.956 . S
O148 Li89 1.970 . S
O148 Li90 1.961 1_455 S
O148 C92 1.325 . S
O149 Li88 1.970 . S
O149 Li89 1.956 . S
O149 Li91 1.961 1_455 S
O149 C98 1.325 . S
O150 Li88 1.961 1_655 S
O150 Li90 1.956 . S
O150 Li91 1.970 . S
O150 C120 1.325 . S
O151 Li89 1.961 1_655 S
O151 Li90 1.970 . S
O151 Li91 1.956 . S
O151 C126 1.325 . S
H152 C94 0.929 . S
H153 C95 0.930 . S
H154 C96 0.930 . S
H155 C97 0.930 . S
H156 C99 0.930 . S
H157 C101 0.929 . S
H158 C102 0.929 1_655 S
H159 C103 0.930 . S
H160 C106 0.930 . S
H161 C109 0.929 . S
H162 C114 0.929 . S
H163 C115 0.930 . S
H164 C122 0.929 . S
H165 C123 0.930 . S
H166 C124 0.930 . S
H167 C125 0.930 . S
H168 C127 0.929 . S
H169 C128 0.930 . S
H170 C129 0.930 . S
H171 C130 0.930 . S
H172 C134 0.929 . S
H173 C136 0.930 . S
H174 C142 0.929 . S
H175 C143 0.930 . S
Li176 N193 1.990 . S
Li176 O236 1.956 . S
Li176 O237 1.970 . S
Li176 O238 1.961 . S
Li177 N201 1.990 . S
Li177 O236 1.970 . S
Li177 O237 1.956 . S
Li177 O239 1.961 . S
Li178 N223 1.990 . S
Li178 O236 1.961 . S
Li178 O238 1.956 . S
Li178 O239 1.970 . S
Li179 N229 1.990 . S
Li179 O237 1.961 . S
Li179 O238 1.970 . S
Li179 O239 1.956 . S
C180 C182 1.348 . S
C180 C183 1.356 . S
C180 O236 1.325 . S
N181 C184 1.314 . S
N181 C185 1.279 . S
C182 C180 1.348 . S
C182 C184 1.353 . S
C182 H240 0.929 . S
C183 C180 1.356 . S
C183 C185 1.358 . S
C183 H241 0.930 . S
C184 N181 1.314 . S
C184 C182 1.353 . S
C184 H242 0.930 . S
C185 N181 1.279 . S
C185 C183 1.358 . S
C185 H243 0.930 . S
C186 C189 1.348 . S
C186 C190 1.356 . S
C186 O237 1.325 . S
C187 N188 1.279 . S
C187 C190 1.358 . S
C187 H244 0.930 . S
N188 C187 1.279 . S
N188 C191 1.314 . S
C189 C186 1.348 . S
C189 C191 1.353 . S
C189 H245 0.929 . S
C190 C186 1.356 . S
C190 C187 1.358 . S
C190 H246 0.930 . S
C191 N188 1.314 . S
C191 C189 1.353 . S
C191 H247 0.930 . S
C192 N193 1.314 . S
C192 C197 1.353 . S
C192 H198 0.930 . S
N193 Li176 1.990 . S
N193 C192 1.314 . S
N193 C195 1.279 . S
C194 C195 1.358 . S
C194 C196 1.356 . S
C194 H248 0.930 . S
C195 N193 1.279 . S
C195 C194 1.358 . S
C195 H199 0.930 . S
C196 C194 1.356 . S
C196 C197 1.348 . S
C197 C192 1.353 . S
C197 C196 1.348 . S
C197 H249 0.929 . S
H198 C192 0.930 . S
H199 C195 0.930 . S
C200 N201 1.314 . S
C200 C202 1.353 . S
C200 H206 0.930 . S
N201 Li177 1.990 . S
N201 C200 1.314 . S
N201 C204 1.279 . S
C202 C200 1.353 . S
C202 C205 1.348 . S
C202 H250 0.929 . S
C203 C204 1.358 . S
C203 C205 1.356 . S
C203 H251 0.930 . S
C204 N201 1.279 . S
C204 C203 1.358 . S
C204 H207 0.930 . S
C205 C202 1.348 . S
C205 C203 1.356 . S
H206 C200 0.930 . S
H207 C204 0.930 . S
C208 C210 1.348 . S
C208 C211 1.356 . S
C208 O238 1.325 . S
N209 C212 1.314 . S
N209 C213 1.279 . S
C210 C208 1.348 . S
C210 C212 1.353 . S
C210 H252 0.929 . S
C211 C208 1.356 . S
C211 C213 1.358 . S
C211 H253 0.930 . S
C212 N209 1.314 . S
C212 C210 1.353 . S
C212 H254 0.930 . S
C213 N209 1.279 . S
C213 C211 1.358 . S
C213 H255 0.930 . S
C214 C215 1.348 . S
C214 C216 1.356 . S
C214 O239 1.325 . S
C215 C214 1.348 . S
C215 C217 1.353 . S
C215 H256 0.929 . S
C216 C214 1.356 . S
C216 C218 1.358 . S
C216 H257 0.930 . S
C217 C215 1.353 . S
C217 N219 1.314 . S
C217 H258 0.930 . S
C218 C216 1.358 . S
C218 N219 1.279 . S
C218 H259 0.930 . S
N219 C217 1.314 . S
N219 C218 1.279 . S
C220 C222 1.353 . S
C220 N223 1.314 . S
C220 H226 0.930 . S
C221 N223 1.279 . S
C221 C224 1.358 . S
C221 H227 0.930 . S
C222 C220 1.353 . S
C222 C225 1.348 . S
C222 H260 0.929 . S
N223 Li178 1.990 . S
N223 C220 1.314 . S
N223 C221 1.279 . S
C224 C221 1.358 . S
C224 C225 1.356 . S
C224 H261 0.930 . S
C225 C222 1.348 . S
C225 C224 1.356 . S
H226 C220 0.930 . S
H227 C221 0.930 . S
C228 N229 1.314 . S
C228 C230 1.353 . S
C228 H234 0.930 . S
N229 Li179 1.990 . S
N229 C228 1.314 . S
N229 C232 1.279 . S
C230 C228 1.353 . S
C230 C233 1.348 . S
C230 H262 0.929 . S
C231 C232 1.358 . S
C231 C233 1.356 . S
C231 H263 0.930 . S
C232 N229 1.279 . S
C232 C231 1.358 . S
C232 H235 0.930 . S
C233 C230 1.348 . S
C233 C231 1.356 . S
H234 C228 0.930 . S
H235 C232 0.930 . S
O236 Li176 1.956 . S
O236 Li177 1.970 . S
O236 Li178 1.961 . S
O236 C180 1.325 . S
O237 Li176 1.970 . S
O237 Li177 1.956 . S
O237 Li179 1.961 . S
O237 C186 1.325 . S
O238 Li176 1.961 . S
O238 Li178 1.956 . S
O238 Li179 1.970 . S
O238 C208 1.325 . S
O239 Li177 1.961 . S
O239 Li178 1.970 . S
O239 Li179 1.956 . S
O239 C214 1.325 . S
H240 C182 0.929 . S
H241 C183 0.930 . S
H242 C184 0.930 . S
H243 C185 0.930 . S
H244 C187 0.930 . S
H245 C189 0.929 . S
H246 C190 0.930 . S
H247 C191 0.930 . S
H248 C194 0.930 . S
H249 C197 0.929 . S
H250 C202 0.929 . S
H251 C203 0.930 . S
H252 C210 0.929 . S
H253 C211 0.930 . S
H254 C212 0.930 . S
H255 C213 0.930 . S
H256 C215 0.929 . S
H257 C216 0.930 . S
H258 C217 0.930 . S
H259 C218 0.930 . S
H260 C222 0.929 . S
H261 C224 0.930 . S
H262 C230 0.929 . S
H263 C231 0.930 . S
Li264 N281 1.990 . S
Li264 O324 1.956 . S
Li264 O325 1.970 . S
Li264 O326 1.961 . S
Li265 N289 1.990 . S
Li265 O324 1.970 . S
Li265 O325 1.956 . S
Li265 O327 1.961 . S
Li266 N311 1.990 . S
Li266 O324 1.961 . S
Li266 O326 1.956 . S
Li266 O327 1.970 . S
Li267 N317 1.990 . S
Li267 O325 1.961 . S
Li267 O326 1.970 . S
Li267 O327 1.956 . S
C268 C270 1.348 . S
C268 C271 1.356 . S
C268 O324 1.325 . S
N269 C272 1.314 . S
N269 C273 1.279 . S
C270 C268 1.348 . S
C270 C272 1.353 . S
C270 H328 0.929 . S
C271 C268 1.356 . S
C271 C273 1.358 . S
C271 H329 0.930 . S
C272 N269 1.314 . S
C272 C270 1.353 . S
C272 H330 0.930 . S
C273 N269 1.279 . S
C273 C271 1.358 . S
C273 H331 0.930 . S
C274 C277 1.348 . S
C274 C278 1.356 . S
C274 O325 1.325 . S
C275 N276 1.279 . S
C275 C278 1.358 . S
C275 H332 0.930 . S
N276 C275 1.279 . S
N276 C279 1.314 . S
C277 C274 1.348 . S
C277 C279 1.353 . S
C277 H333 0.929 . S
C278 C274 1.356 . S
C278 C275 1.358 . S
C278 H334 0.930 . S
C279 N276 1.314 . S
C279 C277 1.353 . S
C279 H335 0.930 . S
C280 N281 1.314 . S
C280 C285 1.353 . S
C280 H286 0.930 . S
N281 Li264 1.990 . S
N281 C280 1.314 . S
N281 C283 1.279 . S
C282 C283 1.358 . S
C282 C284 1.356 . S
C282 H336 0.930 . S
C283 N281 1.279 . S
C283 C282 1.358 . S
C283 H287 0.930 . S
C284 C282 1.356 . S
C284 C285 1.348 . S
C285 C280 1.353 . S
C285 C284 1.348 . S
C285 H337 0.929 . S
H286 C280 0.930 . S
H287 C283 0.930 . S
C288 N289 1.314 . S
C288 C290 1.353 . S
C288 H294 0.930 . S
N289 Li265 1.990 . S
N289 C288 1.314 . S
N289 C292 1.279 . S
C290 C288 1.353 . S
C290 C293 1.348 . S
C290 H338 0.929 . S
C291 C292 1.358 . S
C291 C293 1.356 . S
C291 H339 0.930 . S
C292 N289 1.279 . S
C292 C291 1.358 . S
C292 H295 0.930 . S
C293 C290 1.348 . S
C293 C291 1.356 . S
H294 C288 0.930 . S
H295 C292 0.930 . S
C296 C298 1.348 . S
C296 C299 1.356 . S
C296 O326 1.325 . S
N297 C300 1.314 . S
N297 C301 1.279 . S
C298 C296 1.348 . S
C298 C300 1.353 . S
C298 H340 0.929 . S
C299 C296 1.356 . S
C299 C301 1.358 . S
C299 H341 0.930 . S
C300 N297 1.314 . S
C300 C298 1.353 . S
C300 H342 0.930 . S
C301 N297 1.279 . S
C301 C299 1.358 . S
C301 H343 0.930 . S
C302 C303 1.348 . S
C302 C304 1.356 . S
C302 O327 1.325 . S
C303 C302 1.348 . S
C303 C305 1.353 . S
C303 H344 0.929 . S
C304 C302 1.356 . S
C304 C306 1.358 . S
C304 H345 0.930 . S
C305 C303 1.353 . S
C305 N307 1.314 . S
C305 H346 0.930 . S
C306 C304 1.358 . S
C306 N307 1.279 . S
C306 H347 0.930 . S
N307 C305 1.314 . S
N307 C306 1.279 . S
C308 C310 1.353 . S
C308 N311 1.314 . S
C308 H314 0.930 . S
C309 N311 1.279 . S
C309 C312 1.358 . S
C309 H315 0.930 . S
C310 C308 1.353 . S
C310 C313 1.348 . S
C310 H348 0.929 . S
N311 Li266 1.990 . S
N311 C308 1.314 . S
N311 C309 1.279 . S
C312 C309 1.358 . S
C312 C313 1.356 . S
C312 H349 0.930 . S
C313 C310 1.348 . S
C313 C312 1.356 . S
H314 C308 0.930 . S
H315 C309 0.930 . S
C316 N317 1.314 . S
C316 C318 1.353 . S
C316 H322 0.930 . S
N317 Li267 1.990 . S
N317 C316 1.314 . S
N317 C320 1.279 . S
C318 C316 1.353 . S
C318 C321 1.348 . S
C318 H350 0.929 . S
C319 C320 1.358 . S
C319 C321 1.356 . S
C319 H351 0.930 . S
C320 N317 1.279 . S
C320 C319 1.358 . S
C320 H323 0.930 . S
C321 C318 1.348 . S
C321 C319 1.356 . S
H322 C316 0.930 . S
H323 C320 0.930 . S
O324 Li264 1.956 . S
O324 Li265 1.970 . S
O324 Li266 1.961 . S
O324 C268 1.325 . S
O325 Li264 1.970 . S
O325 Li265 1.956 . S
O325 Li267 1.961 . S
O325 C274 1.325 . S
O326 Li264 1.961 . S
O326 Li266 1.956 . S
O326 Li267 1.970 . S
O326 C296 1.325 . S
O327 Li265 1.961 . S
O327 Li266 1.970 . S
O327 Li267 1.956 . S
O327 C302 1.325 . S
H328 C270 0.929 . S
H329 C271 0.930 . S
H330 C272 0.930 . S
H331 C273 0.930 . S
H332 C275 0.930 . S
H333 C277 0.929 . S
H334 C278 0.930 . S
H335 C279 0.930 . S
H336 C282 0.930 . S
H337 C285 0.929 . S
H338 C290 0.929 . S
H339 C291 0.930 . S
H340 C298 0.929 . S
H341 C299 0.930 . S
H342 C300 0.930 . S
H343 C301 0.930 . S
H344 C303 0.929 . S
H345 C304 0.930 . S
H346 C305 0.930 . S
H347 C306 0.930 . S
H348 C310 0.929 . S
H349 C312 0.930 . S
H350 C318 0.929 . S
H351 C319 0.930 . S
Li352 N369 1.990 . S
Li352 O412 1.956 . S
Li352 O413 1.970 . S
Li352 O414 1.961 . S
Li353 N377 1.990 . S
Li353 O412 1.970 . S
Li353 O413 1.956 . S
Li353 O415 1.961 . S
Li354 N399 1.990 . S
Li354 O412 1.961 . S
Li354 O414 1.956 . S
Li354 O415 1.970 . S
Li355 N405 1.990 . S
Li355 O413 1.961 . S
Li355 O414 1.970 . S
Li355 O415 1.956 . S
C356 C358 1.348 . S
C356 C359 1.356 . S
C356 O412 1.325 . S
N357 C360 1.314 . S
N357 C361 1.279 . S
C358 C356 1.348 . S
C358 C360 1.353 . S
C358 H416 0.929 . S
C359 C356 1.356 . S
C359 C361 1.358 . S
C359 H417 0.930 . S
C360 N357 1.314 . S
C360 C358 1.353 . S
C360 H418 0.930 . S
C361 N357 1.279 . S
C361 C359 1.358 . S
C361 H419 0.930 . S
C362 C365 1.348 . S
C362 C366 1.356 . S
C362 O413 1.325 . S
C363 N364 1.279 . S
C363 C366 1.358 . S
C363 H420 0.930 . S
N364 C363 1.279 . S
N364 C367 1.314 . S
C365 C362 1.348 . S
C365 C367 1.353 . S
C365 H421 0.929 . S
C366 C362 1.356 . S
C366 C363 1.358 . S
C366 H422 0.930 . S
C367 N364 1.314 . S
C367 C365 1.353 . S
C367 H423 0.930 . S
C368 N369 1.314 . S
C368 C373 1.353 . S
C368 H374 0.930 . S
N369 Li352 1.990 . S
N369 C368 1.314 . S
N369 C371 1.279 . S
C370 C371 1.358 . S
C370 C372 1.356 . S
C370 H424 0.930 . S
C371 N369 1.279 . S
C371 C370 1.358 . S
C371 H375 0.930 . S
C372 C370 1.356 . S
C372 C373 1.348 . S
C373 C368 1.353 . S
C373 C372 1.348 . S
C373 H425 0.929 . S
H374 C368 0.930 . S
H375 C371 0.930 . S
C376 N377 1.314 . S
C376 C378 1.353 . S
C376 H382 0.930 . S
N377 Li353 1.990 . S
N377 C376 1.314 . S
N377 C380 1.279 . S
C378 C376 1.353 . S
C378 C381 1.348 . S
C378 H426 0.929 . S
C379 C380 1.358 . S
C379 C381 1.356 . S
C379 H427 0.930 . S
C380 N377 1.279 . S
C380 C379 1.358 . S
C380 H383 0.930 . S
C381 C378 1.348 . S
C381 C379 1.356 . S
H382 C376 0.930 . S
H383 C380 0.930 . S
C384 C386 1.348 . S
C384 C387 1.356 . S
C384 O414 1.325 . S
N385 C388 1.314 . S
N385 C389 1.279 . S
C386 C384 1.348 . S
C386 C388 1.353 . S
C386 H428 0.929 . S
C387 C384 1.356 . S
C387 C389 1.358 . S
C387 H429 0.930 . S
C388 N385 1.314 . S
C388 C386 1.353 . S
C388 H430 0.930 1_455 S
C389 N385 1.279 . S
C389 C387 1.358 . S
C389 H431 0.930 . S
C390 C391 1.348 . S
C390 C392 1.356 . S
C390 O415 1.325 . S
C391 C390 1.348 . S
C391 C393 1.353 . S
C391 H432 0.929 . S
C392 C390 1.356 . S
C392 C394 1.358 . S
C392 H433 0.930 . S
C393 C391 1.353 . S
C393 N395 1.314 . S
C393 H434 0.930 . S
C394 C392 1.358 . S
C394 N395 1.279 . S
C394 H435 0.930 . S
N395 C393 1.314 . S
N395 C394 1.279 . S
C396 C398 1.353 . S
C396 N399 1.314 . S
C396 H402 0.930 . S
C397 N399 1.279 . S
C397 C400 1.358 . S
C397 H403 0.930 . S
C398 C396 1.353 . S
C398 C401 1.348 . S
C398 H436 0.929 . S
N399 Li354 1.990 . S
N399 C396 1.314 . S
N399 C397 1.279 . S
C400 C397 1.358 . S
C400 C401 1.356 . S
C400 H437 0.930 . S
C401 C398 1.348 . S
C401 C400 1.356 . S
H402 C396 0.930 . S
H403 C397 0.930 . S
C404 N405 1.314 . S
C404 C406 1.353 . S
C404 H410 0.930 . S
N405 Li355 1.990 . S
N405 C404 1.314 . S
N405 C408 1.279 . S
C406 C404 1.353 . S
C406 C409 1.348 . S
C406 H438 0.929 . S
C407 C408 1.358 . S
C407 C409 1.356 . S
C407 H439 0.930 . S
C408 N405 1.279 . S
C408 C407 1.358 . S
C408 H411 0.930 . S
C409 C406 1.348 . S
C409 C407 1.356 . S
H410 C404 0.930 . S
H411 C408 0.930 . S
O412 Li352 1.956 . S
O412 Li353 1.970 . S
O412 Li354 1.961 . S
O412 C356 1.325 . S
O413 Li352 1.970 . S
O413 Li353 1.956 . S
O413 Li355 1.961 . S
O413 C362 1.325 . S
O414 Li352 1.961 . S
O414 Li354 1.956 . S
O414 Li355 1.970 . S
O414 C384 1.325 . S
O415 Li353 1.961 . S
O415 Li354 1.970 . S
O415 Li355 1.956 . S
O415 C390 1.325 . S
H416 C358 0.929 . S
H417 C359 0.930 . S
H418 C360 0.930 . S
H419 C361 0.930 . S
H420 C363 0.930 . S
H421 C365 0.929 . S
H422 C366 0.930 . S
H423 C367 0.930 . S
H424 C370 0.930 . S
H425 C373 0.929 . S
H426 C378 0.929 . S
H427 C379 0.930 . S
H428 C386 0.929 . S
H429 C387 0.930 . S
H430 C388 0.930 1_655 S
H431 C389 0.930 . S
H432 C391 0.929 . S
H433 C392 0.930 . S
H434 C393 0.930 . S
H435 C394 0.930 . S
H436 C398 0.929 . S
H437 C400 0.930 . S
H438 C406 0.929 . S
H439 C407 0.930 . S
Li440 N457 1.990 . S
Li440 O500 1.956 . S
Li440 O501 1.970 . S
Li440 O502 1.961 . S
Li441 N465 1.990 . S
Li441 O500 1.970 . S
Li441 O501 1.956 . S
Li441 O503 1.961 . S
Li442 N487 1.990 . S
Li442 O500 1.961 . S
Li442 O502 1.956 . S
Li442 O503 1.970 . S
Li443 N493 1.990 . S
Li443 O501 1.961 . S
Li443 O502 1.970 . S
Li443 O503 1.956 . S
C444 C446 1.348 . S
C444 C447 1.356 . S
C444 O500 1.325 . S
N445 C448 1.314 . S
N445 C449 1.279 . S
C446 C444 1.348 . S
C446 C448 1.353 . S
C446 H504 0.929 . S
C447 C444 1.356 . S
C447 C449 1.358 . S
C447 H505 0.930 . S
C448 N445 1.314 . S
C448 C446 1.353 . S
C448 H506 0.930 . S
C449 N445 1.279 . S
C449 C447 1.358 . S
C449 H507 0.930 . S
C450 C453 1.348 . S
C450 C454 1.356 . S
C450 O501 1.325 . S
C451 N452 1.279 . S
C451 C454 1.358 . S
C451 H508 0.930 . S
N452 C451 1.279 . S
N452 C455 1.314 . S
C453 C450 1.348 . S
C453 C455 1.353 . S
C453 H509 0.929 . S
C454 C450 1.356 . S
C454 C451 1.358 . S
C454 H510 0.930 . S
C455 N452 1.314 . S
C455 C453 1.353 . S
C455 H511 0.930 . S
C456 N457 1.314 . S
C456 C461 1.353 . S
C456 H462 0.930 . S
N457 Li440 1.990 . S
N457 C456 1.314 . S
N457 C459 1.279 . S
C458 C459 1.358 . S
C458 C460 1.356 . S
C458 H512 0.930 . S
C459 N457 1.279 . S
C459 C458 1.358 . S
C459 H463 0.930 . S
C460 C458 1.356 . S
C460 C461 1.348 . S
C461 C456 1.353 . S
C461 C460 1.348 . S
C461 H513 0.929 . S
H462 C456 0.930 . S
H463 C459 0.930 . S
C464 N465 1.314 . S
C464 C466 1.353 . S
C464 H470 0.930 . S
N465 Li441 1.990 . S
N465 C464 1.314 . S
N465 C468 1.279 . S
C466 C464 1.353 . S
C466 C469 1.348 . S
C466 H514 0.929 . S
C467 C468 1.358 . S
C467 C469 1.356 . S
C467 H515 0.930 . S
C468 N465 1.279 . S
C468 C467 1.358 . S
C468 H471 0.930 . S
C469 C466 1.348 . S
C469 C467 1.356 . S
H470 C464 0.930 . S
H471 C468 0.930 . S
C472 C474 1.348 . S
C472 C475 1.356 . S
C472 O502 1.325 . S
N473 C476 1.314 . S
N473 C477 1.279 . S
C474 C472 1.348 . S
C474 C476 1.353 . S
C474 H516 0.929 . S
C475 C472 1.356 . S
C475 C477 1.358 . S
C475 H517 0.930 . S
C476 N473 1.314 . S
C476 C474 1.353 . S
C476 H518 0.930 . S
C477 N473 1.279 . S
C477 C475 1.358 . S
C477 H519 0.930 . S
C478 C479 1.348 . S
C478 C480 1.356 . S
C478 O503 1.325 . S
C479 C478 1.348 . S
C479 C481 1.353 . S
C479 H520 0.929 . S
C480 C478 1.356 . S
C480 C482 1.358 . S
C480 H521 0.930 . S
C481 C479 1.353 . S
C481 N483 1.314 . S
C481 H522 0.930 . S
C482 C480 1.358 . S
C482 N483 1.279 . S
C482 H523 0.930 . S
N483 C481 1.314 . S
N483 C482 1.279 . S
C484 C486 1.353 . S
C484 N487 1.314 . S
C484 H490 0.930 . S
C485 N487 1.279 . S
C485 C488 1.358 . S
C485 H491 0.930 . S
C486 C484 1.353 . S
C486 C489 1.348 . S
C486 H524 0.929 . S
N487 Li442 1.990 . S
N487 C484 1.314 . S
N487 C485 1.279 . S
C488 C485 1.358 . S
C488 C489 1.356 . S
C488 H525 0.930 . S
C489 C486 1.348 . S
C489 C488 1.356 . S
H490 C484 0.930 . S
H491 C485 0.930 . S
C492 N493 1.314 . S
C492 C494 1.353 . S
C492 H498 0.930 . S
N493 Li443 1.990 . S
N493 C492 1.314 . S
N493 C496 1.279 . S
C494 C492 1.353 . S
C494 C497 1.348 . S
C494 H526 0.929 . S
C495 C496 1.358 . S
C495 C497 1.356 . S
C495 H527 0.930 . S
C496 N493 1.279 . S
C496 C495 1.358 . S
C496 H499 0.930 . S
C497 C494 1.348 . S
C497 C495 1.356 . S
H498 C492 0.930 . S
H499 C496 0.930 . S
O500 Li440 1.956 . S
O500 Li441 1.970 . S
O500 Li442 1.961 . S
O500 C444 1.325 . S
O501 Li440 1.970 . S
O501 Li441 1.956 . S
O501 Li443 1.961 . S
O501 C450 1.325 . S
O502 Li440 1.961 . S
O502 Li442 1.956 . S
O502 Li443 1.970 . S
O502 C472 1.325 . S
O503 Li441 1.961 . S
O503 Li442 1.970 . S
O503 Li443 1.956 . S
O503 C478 1.325 . S
H504 C446 0.929 . S
H505 C447 0.930 . S
H506 C448 0.930 . S
H507 C449 0.930 . S
H508 C451 0.930 . S
H509 C453 0.929 . S
H510 C454 0.930 . S
H511 C455 0.930 . S
H512 C458 0.930 . S
H513 C461 0.929 . S
H514 C466 0.929 . S
H515 C467 0.930 . S
H516 C474 0.929 . S
H517 C475 0.930 . S
H518 C476 0.930 . S
H519 C477 0.930 . S
H520 C479 0.929 . S
H521 C480 0.930 . S
H522 C481 0.930 . S
H523 C482 0.930 . S
H524 C486 0.929 . S
H525 C488 0.930 . S
H526 C494 0.929 . S
H527 C495 0.930 . S
Li528 N545 1.990 . S
Li528 O588 1.956 . S
Li528 O589 1.970 . S
Li528 O590 1.961 . S
Li529 N553 1.990 . S
Li529 O588 1.970 . S
Li529 O589 1.956 . S
Li529 O591 1.961 . S
Li530 N575 1.990 . S
Li530 O588 1.961 . S
Li530 O590 1.956 . S
Li530 O591 1.970 . S
Li531 N581 1.990 . S
Li531 O589 1.961 . S
Li531 O590 1.970 . S
Li531 O591 1.956 . S
C532 C534 1.348 . S
C532 C535 1.356 . S
C532 O588 1.325 . S
N533 C536 1.314 . S
N533 C537 1.279 . S
C534 C532 1.348 . S
C534 C536 1.353 . S
C534 H592 0.929 . S
C535 C532 1.356 . S
C535 C537 1.358 . S
C535 H593 0.930 . S
C536 N533 1.314 . S
C536 C534 1.353 . S
C536 H594 0.930 . S
C537 N533 1.279 . S
C537 C535 1.358 . S
C537 H595 0.930 . S
C538 C541 1.348 . S
C538 C542 1.356 . S
C538 O589 1.325 . S
C539 N540 1.279 . S
C539 C542 1.358 . S
C539 H596 0.930 . S
N540 C539 1.279 . S
N540 C543 1.314 . S
C541 C538 1.348 . S
C541 C543 1.353 . S
C541 H597 0.929 . S
C542 C538 1.356 . S
C542 C539 1.358 . S
C542 H598 0.930 . S
C543 N540 1.314 . S
C543 C541 1.353 . S
C543 H599 0.930 . S
C544 N545 1.314 . S
C544 C549 1.353 . S
C544 H550 0.930 . S
N545 Li528 1.990 . S
N545 C544 1.314 . S
N545 C547 1.279 . S
C546 C547 1.358 . S
C546 C548 1.356 . S
C546 H600 0.930 . S
C547 N545 1.279 . S
C547 C546 1.358 . S
C547 H551 0.930 . S
C548 C546 1.356 . S
C548 C549 1.348 . S
C549 C544 1.353 . S
C549 C548 1.348 . S
C549 H601 0.929 . S
H550 C544 0.930 . S
H551 C547 0.930 . S
C552 N553 1.314 . S
C552 C554 1.353 . S
C552 H558 0.930 . S
N553 Li529 1.990 . S
N553 C552 1.314 . S
N553 C556 1.279 . S
C554 C552 1.353 . S
C554 C557 1.348 . S
C554 H602 0.929 . S
C555 C556 1.358 . S
C555 C557 1.356 . S
C555 H603 0.930 . S
C556 N553 1.279 . S
C556 C555 1.358 . S
C556 H559 0.930 . S
C557 C554 1.348 . S
C557 C555 1.356 . S
H558 C552 0.930 . S
H559 C556 0.930 . S
C560 C562 1.348 . S
C560 C563 1.356 . S
C560 O590 1.325 . S
N561 C564 1.314 . S
N561 C565 1.279 . S
C562 C560 1.348 . S
C562 C564 1.353 . S
C562 H604 0.929 . S
C563 C560 1.356 . S
C563 C565 1.358 . S
C563 H605 0.930 . S
C564 N561 1.314 . S
C564 C562 1.353 . S
C564 H606 0.930 . S
C565 N561 1.279 . S
C565 C563 1.358 . S
C565 H607 0.930 . S
C566 C567 1.348 . S
C566 C568 1.356 . S
C566 O591 1.325 . S
C567 C566 1.348 . S
C567 C569 1.353 . S
C567 H608 0.929 . S
C568 C566 1.356 . S
C568 C570 1.358 . S
C568 H609 0.930 . S
C569 C567 1.353 . S
C569 N571 1.314 . S
C569 H610 0.930 . S
C570 C568 1.358 . S
C570 N571 1.279 . S
C570 H611 0.930 . S
N571 C569 1.314 . S
N571 C570 1.279 . S
C572 C574 1.353 . S
C572 N575 1.314 . S
C572 H578 0.930 . S
C573 N575 1.279 . S
C573 C576 1.358 . S
C573 H579 0.930 . S
C574 C572 1.353 . S
C574 C577 1.348 . S
C574 H612 0.929 . S
N575 Li530 1.990 . S
N575 C572 1.314 . S
N575 C573 1.279 . S
C576 C573 1.358 . S
C576 C577 1.356 . S
C576 H613 0.930 . S
C577 C574 1.348 . S
C577 C576 1.356 . S
H578 C572 0.930 . S
H579 C573 0.930 . S
C580 N581 1.314 . S
C580 C582 1.353 . S
C580 H586 0.930 . S
N581 Li531 1.990 . S
N581 C580 1.314 . S
N581 C584 1.279 . S
C582 C580 1.353 . S
C582 C585 1.348 . S
C582 H614 0.929 . S
C583 C584 1.358 . S
C583 C585 1.356 . S
C583 H615 0.930 . S
C584 N581 1.279 . S
C584 C583 1.358 . S
C584 H587 0.930 . S
C585 C582 1.348 . S
C585 C583 1.356 . S
H586 C580 0.930 . S
H587 C584 0.930 . S
O588 Li528 1.956 . S
O588 Li529 1.970 . S
O588 Li530 1.961 . S
O588 C532 1.325 . S
O589 Li528 1.970 . S
O589 Li529 1.956 . S
O589 Li531 1.961 . S
O589 C538 1.325 . S
O590 Li528 1.961 . S
O590 Li530 1.956 . S
O590 Li531 1.970 . S
O590 C560 1.325 . S
O591 Li529 1.961 . S
O591 Li530 1.970 . S
O591 Li531 1.956 . S
O591 C566 1.325 . S
H592 C534 0.929 . S
H593 C535 0.930 . S
H594 C536 0.930 . S
H595 C537 0.930 . S
H596 C539 0.930 . S
H597 C541 0.929 . S
H598 C542 0.930 . S
H599 C543 0.930 . S
H600 C546 0.930 . S
H601 C549 0.929 . S
H602 C554 0.929 . S
H603 C555 0.930 . S
H604 C562 0.929 . S
H605 C563 0.930 . S
H606 C564 0.930 . S
H607 C565 0.930 . S
H608 C567 0.929 . S
H609 C568 0.930 . S
H610 C569 0.930 . S
H611 C570 0.930 . S
H612 C574 0.929 . S
H613 C576 0.930 . S
H614 C582 0.929 . S
H615 C583 0.930 . S
Li616 N633 1.990 . S
Li616 O676 1.930 1_455 S
Li616 O677 1.970 . S
Li616 O678 1.961 . S
Li617 N641 1.987 . S
Li617 O676 1.966 . S
Li617 O677 1.959 1_655 S
Li617 O679 1.964 1_655 S
Li618 N663 1.990 . S
Li618 O676 1.926 1_455 S
Li618 O678 1.956 . S
Li618 O679 1.970 . S
Li619 N669 1.990 . S
Li619 O677 1.961 . S
Li619 O678 1.970 . S
Li619 O679 1.956 . S
C620 C622 1.348 . S
C620 C623 1.356 . S
C620 O676 1.359 . S
N621 C624 1.314 1_554 S
N621 C625 1.279 . S
C622 C620 1.348 . S
C622 C624 1.353 . S
C622 H680 0.929 . S
C623 C620 1.356 . S
C623 C625 1.358 1_556 S
C623 H681 0.930 1_556 S
C624 N621 1.314 1_556 S
C624 C622 1.353 . S
C624 H682 0.930 . S
C625 N621 1.279 . S
C625 C623 1.358 1_554 S
C625 H683 0.930 . S
C626 C629 1.348 . S
C626 C630 1.356 . S
C626 O677 1.325 . S
C627 N628 1.279 . S
C627 C630 1.358 . S
C627 H684 0.930 . S
N628 C627 1.279 . S
N628 C631 1.314 . S
C629 C626 1.348 . S
C629 C631 1.353 . S
C629 H685 0.929 . S
C630 C626 1.356 . S
C630 C627 1.358 . S
C630 H686 0.930 . S
C631 N628 1.314 . S
C631 C629 1.353 . S
C631 H687 0.930 . S
C632 N633 1.314 . S
C632 C637 1.353 1_556 S
C632 H638 0.930 . S
N633 Li616 1.990 . S
N633 C632 1.314 . S
N633 C635 1.279 . S
C634 C635 1.358 1_554 S
C634 C636 1.356 . S
C634 H688 0.930 . S
C635 N633 1.279 . S
C635 C634 1.358 1_556 S
C635 H639 0.935 . S
C636 C634 1.356 . S
C636 C637 1.348 . S
C637 C632 1.353 1_554 S
C637 C636 1.348 . S
C637 H689 0.929 . S
H638 C632 0.930 . S
H639 C635 0.935 . S
C640 N641 1.314 . S
C640 C642 1.353 . S
C640 H646 0.930 . S
N641 Li617 1.987 . S
N641 C640 1.314 . S
N641 C644 1.279 . S
C642 C640 1.353 . S
C642 C645 1.348 . S
C642 H690 0.929 . S
C643 C644 1.358 . S
C643 C645 1.356 . S
C643 H691 0.930 . S
C644 N641 1.279 . S
C644 C643 1.358 . S
C644 H647 0.930 . S
C645 C642 1.348 . S
C645 C643 1.356 . S
H646 C640 0.930 . S
H647 C644 0.930 . S
C648 C650 1.348 . S
C648 C651 1.352 . S
C648 O678 1.325 . S
N649 C652 1.314 1_554 S
N649 C653 1.279 . S
C650 C648 1.348 . S
C650 C652 1.353 . S
C650 H692 0.929 . S
C651 C648 1.352 . S
C651 C653 1.361 1_556 S
C651 H693 0.931 1_556 S
C652 N649 1.314 1_556 S
C652 C650 1.353 . S
C652 H694 0.930 . S
C653 N649 1.279 . S
C653 C651 1.361 1_554 S
C653 H695 0.930 . S
C654 C655 1.348 . S
C654 C656 1.356 . S
C654 O679 1.325 . S
C655 C654 1.348 . S
C655 C657 1.353 . S
C655 H696 0.929 . S
C656 C654 1.356 . S
C656 C658 1.358 . S
C656 H697 0.930 . S
C657 C655 1.353 . S
C657 N659 1.314 . S
C657 H698 0.930 . S
C658 C656 1.358 . S
C658 N659 1.279 . S
C658 H699 0.930 . S
N659 C657 1.314 . S
N659 C658 1.279 . S
C660 C662 1.354 1_455 S
C660 N663 1.345 . S
C660 H666 0.894 1_455 S
C661 N663 1.279 . S
C661 C664 1.333 1_556 S
C661 H667 0.930 . S
C662 C660 1.354 1_655 S
C662 C665 1.326 1_656 S
C662 H700 0.929 . S
N663 Li618 1.990 . S
N663 C660 1.345 . S
N663 C661 1.279 . S
C664 C661 1.333 1_554 S
C664 C665 1.354 . S
C664 H701 0.948 . S
C665 C662 1.326 1_454 S
C665 C664 1.354 . S
H666 C660 0.894 1_655 S
H667 C661 0.930 . S
C668 N669 1.314 . S
C668 C670 1.353 . S
C668 H674 0.930 . S
N669 Li619 1.990 . S
N669 C668 1.314 . S
N669 C672 1.279 . S
C670 C668 1.353 . S
C670 C673 1.348 . S
C670 H702 0.929 . S
C671 C672 1.358 . S
C671 C673 1.356 . S
C671 H703 0.930 . S
C672 N669 1.279 . S
C672 C671 1.358 . S
C672 H675 0.930 . S
C673 C670 1.348 . S
C673 C671 1.356 . S
H674 C668 0.930 . S
H675 C672 0.930 . S
O676 Li616 1.930 1_655 S
O676 Li617 1.966 . S
O676 Li618 1.926 1_655 S
O676 C620 1.359 . S
O677 Li616 1.970 . S
O677 Li617 1.959 1_455 S
O677 Li619 1.961 . S
O677 C626 1.325 . S
O678 Li616 1.961 . S
O678 Li618 1.956 . S
O678 Li619 1.970 . S
O678 C648 1.325 . S
O679 Li617 1.964 1_455 S
O679 Li618 1.970 . S
O679 Li619 1.956 . S
O679 C654 1.325 . S
H680 C622 0.929 . S
H681 C623 0.930 1_554 S
H682 C624 0.930 . S
H683 C625 0.930 . S
H684 C627 0.930 . S
H685 C629 0.929 . S
H686 C630 0.930 . S
H687 C631 0.930 . S
H688 C634 0.930 . S
H689 C637 0.929 . S
H690 C642 0.929 . S
H691 C643 0.930 . S
H692 C650 0.929 . S
H693 C651 0.931 1_554 S
H694 C652 0.930 . S
H695 C653 0.930 . S
H696 C655 0.929 . S
H697 C656 0.930 . S
H698 C657 0.930 . S
H699 C658 0.930 . S
H700 C662 0.929 . S
H701 C664 0.948 . S
H702 C670 0.929 . S
H703 C671 0.930 . S
Li704 N721 1.990 . S
Li704 O764 1.956 1_545 S
Li704 O765 1.970 . S
Li704 O766 1.961 . S
Li705 N729 1.990 . S
Li705 O764 1.970 . S
Li705 O765 1.956 1_565 S
Li705 O767 1.961 1_565 S
Li706 N751 1.990 . S
Li706 O764 1.961 1_545 S
Li706 O766 1.956 . S
Li706 O767 1.970 . S
Li707 N757 1.990 . S
Li707 O765 1.961 . S
Li707 O766 1.970 . S
Li707 O767 1.956 . S
C708 C710 1.348 . S
C708 C711 1.356 . S
C708 O764 1.325 . S
N709 C712 1.314 . S
N709 C713 1.279 . S
C710 C708 1.348 . S
C710 C712 1.353 . S
C710 H768 0.929 . S
C711 C708 1.356 . S
C711 C713 1.358 . S
C711 H769 0.930 . S
C712 N709 1.314 . S
C712 C710 1.353 . S
C712 H770 0.930 . S
C713 N709 1.279 . S
C713 C711 1.358 . S
C713 H771 0.930 . S
C714 C717 1.348 . S
C714 C718 1.356 . S
C714 O765 1.325 . S
C715 N716 1.279 . S
C715 C718 1.358 . S
C715 H772 0.930 . S
N716 C715 1.279 . S
N716 C719 1.314 . S
C717 C714 1.348 . S
C717 C719 1.353 . S
C717 H773 0.929 . S
C718 C714 1.356 . S
C718 C715 1.358 . S
C718 H774 0.930 . S
C719 N716 1.314 . S
C719 C717 1.353 . S
C719 H775 0.930 . S
C720 N721 1.314 . S
C720 C725 1.353 . S
C720 H726 0.930 . S
N721 Li704 1.990 . S
N721 C720 1.314 . S
N721 C723 1.279 . S
C722 C723 1.358 . S
C722 C724 1.356 . S
C722 H776 0.930 . S
C723 N721 1.279 . S
C723 C722 1.358 . S
C723 H727 0.930 1_545 S
C724 C722 1.356 . S
C724 C725 1.348 . S
C725 C720 1.353 . S
C725 C724 1.348 . S
C725 H777 0.929 . S
H726 C720 0.930 . S
H727 C723 0.930 1_565 S
C728 N729 1.314 . S
C728 C730 1.353 . S
C728 H734 0.930 . S
N729 Li705 1.990 . S
N729 C728 1.314 . S
N729 C732 1.279 . S
C730 C728 1.353 . S
C730 C733 1.348 . S
C730 H778 0.929 . S
C731 C732 1.358 . S
C731 C733 1.356 . S
C731 H779 0.930 . S
C732 N729 1.279 . S
C732 C731 1.358 . S
C732 H735 0.930 . S
C733 C730 1.348 . S
C733 C731 1.356 . S
H734 C728 0.930 . S
H735 C732 0.930 . S
C736 C738 1.348 . S
C736 C739 1.356 . S
C736 O766 1.325 . S
N737 C740 1.314 . S
N737 C741 1.279 . S
C738 C736 1.348 . S
C738 C740 1.353 . S
C738 H780 0.929 . S
C739 C736 1.356 . S
C739 C741 1.358 . S
C739 H781 0.930 . S
C740 N737 1.314 . S
C740 C738 1.353 . S
C740 H782 0.930 . S
C741 N737 1.279 . S
C741 C739 1.358 . S
C741 H783 0.930 . S
C742 C743 1.348 . S
C742 C744 1.354 1_545 S
C742 O767 1.325 . S
C743 C742 1.348 . S
C743 C745 1.353 . S
C743 H784 0.929 . S
C744 C742 1.354 1_565 S
C744 C746 1.354 . S
C744 H785 0.937 . S
C745 C743 1.353 . S
C745 N747 1.315 1_545 S
C745 H786 0.930 . S
C746 C744 1.354 . S
C746 N747 1.279 . S
C746 H787 0.930 . S
N747 C745 1.315 1_565 S
N747 C746 1.279 . S
C748 C750 1.353 . S
C748 N751 1.314 1_565 S
C748 H754 0.930 . S
C749 N751 1.279 . S
C749 C752 1.358 . S
C749 H755 0.930 . S
C750 C748 1.353 . S
C750 C753 1.348 1_565 S
C750 H788 0.929 . S
N751 Li706 1.990 . S
N751 C748 1.314 1_545 S
N751 C749 1.279 . S
C752 C749 1.358 . S
C752 C753 1.356 . S
C752 H789 0.930 . S
C753 C750 1.348 1_545 S
C753 C752 1.356 . S
H754 C748 0.930 . S
H755 C749 0.930 . S
C756 N757 1.314 . S
C756 C758 1.353 . S
C756 H762 0.930 . S
N757 Li707 1.990 . S
N757 C756 1.314 . S
N757 C760 1.279 . S
C758 C756 1.353 . S
C758 C761 1.348 . S
C758 H790 0.929 . S
C759 C760 1.358 . S
C759 C761 1.356 . S
C759 H791 0.930 . S
C760 N757 1.279 . S
C760 C759 1.358 . S
C760 H763 0.930 . S
C761 C758 1.348 . S
C761 C759 1.356 . S
H762 C756 0.930 . S
H763 C760 0.930 . S
O764 Li704 1.956 1_565 S
O764 Li705 1.970 . S
O764 Li706 1.961 1_565 S
O764 C708 1.325 . S
O765 Li704 1.970 . S
O765 Li705 1.956 1_545 S
O765 Li707 1.961 . S
O765 C714 1.325 . S
O766 Li704 1.961 . S
O766 Li706 1.956 . S
O766 Li707 1.970 . S
O766 C736 1.325 . S
O767 Li705 1.961 1_545 S
O767 Li706 1.970 . S
O767 Li707 1.956 . S
O767 C742 1.325 . S
H768 C710 0.929 . S
H769 C711 0.930 . S
H770 C712 0.930 . S
H771 C713 0.930 . S
H772 C715 0.930 . S
H773 C717 0.929 . S
H774 C718 0.930 . S
H775 C719 0.930 . S
H776 C722 0.930 . S
H777 C725 0.929 . S
H778 C730 0.929 . S
H779 C731 0.930 . S
H780 C738 0.929 . S
H781 C739 0.930 . S
H782 C740 0.930 . S
H783 C741 0.930 . S
H784 C743 0.929 . S
H785 C744 0.937 . S
H786 C745 0.930 . S
H787 C746 0.930 . S
H788 C750 0.929 . S
H789 C752 0.930 . S
H790 C758 0.929 . S
H791 C759 0.930 . S
Li792 N809 1.990 . S
Li792 O852 1.956 . S
Li792 O853 1.970 . S
Li792 O854 1.961 . S
Li793 N817 1.990 . S
Li793 O852 1.970 . S
Li793 O853 1.956 . S
Li793 O855 1.961 . S
Li794 N839 1.990 . S
Li794 O852 1.961 . S
Li794 O854 1.956 . S
Li794 O855 1.970 . S
Li795 N845 1.990 . S
Li795 O853 1.961 . S
Li795 O854 1.970 . S
Li795 O855 1.956 . S
C796 C798 1.348 . S
C796 C799 1.356 . S
C796 O852 1.325 . S
N797 C800 1.314 . S
N797 C801 1.279 . S
C798 C796 1.348 . S
C798 C800 1.353 . S
C798 H856 0.929 . S
C799 C796 1.356 . S
C799 C801 1.358 . S
C799 H857 0.930 . S
C800 N797 1.314 . S
C800 C798 1.353 . S
C800 H858 0.930 . S
C801 N797 1.279 . S
C801 C799 1.358 . S
C801 H859 0.930 . S
C802 C805 1.348 . S
C802 C806 1.356 . S
C802 O853 1.325 . S
C803 N804 1.279 . S
C803 C806 1.358 . S
C803 H860 0.930 . S
N804 C803 1.279 . S
N804 C807 1.314 . S
C805 C802 1.348 . S
C805 C807 1.353 . S
C805 H861 0.929 . S
C806 C802 1.356 . S
C806 C803 1.358 . S
C806 H862 0.930 . S
C807 N804 1.314 . S
C807 C805 1.353 . S
C807 H863 0.930 . S
C808 N809 1.314 . S
C808 C813 1.353 . S
C808 H814 0.930 . S
N809 Li792 1.990 . S
N809 C808 1.314 . S
N809 C811 1.279 . S
C810 C811 1.358 . S
C810 C812 1.356 . S
C810 H864 0.930 . S
C811 N809 1.279 . S
C811 C810 1.358 . S
C811 H815 0.930 . S
C812 C810 1.356 . S
C812 C813 1.348 . S
C813 C808 1.353 . S
C813 C812 1.348 . S
C813 H865 0.929 . S
H814 C808 0.930 . S
H815 C811 0.930 . S
C816 N817 1.314 . S
C816 C818 1.353 . S
C816 H822 0.930 . S
N817 Li793 1.990 . S
N817 C816 1.314 . S
N817 C820 1.279 . S
C818 C816 1.353 . S
C818 C821 1.348 . S
C818 H866 0.929 . S
C819 C820 1.358 . S
C819 C821 1.356 . S
C819 H867 0.930 . S
C820 N817 1.279 . S
C820 C819 1.358 . S
C820 H823 0.930 . S
C821 C818 1.348 . S
C821 C819 1.356 . S
H822 C816 0.930 . S
H823 C820 0.930 . S
C824 C826 1.348 . S
C824 C827 1.356 . S
C824 O854 1.325 . S
N825 C828 1.314 . S
N825 C829 1.279 . S
C826 C824 1.348 . S
C826 C828 1.353 . S
C826 H868 0.929 . S
C827 C824 1.356 . S
C827 C829 1.358 . S
C827 H869 0.930 . S
C828 N825 1.314 . S
C828 C826 1.353 . S
C828 H870 0.930 . S
C829 N825 1.279 . S
C829 C827 1.358 . S
C829 H871 0.930 . S
C830 C831 1.348 . S
C830 C832 1.356 . S
C830 O855 1.325 . S
C831 C830 1.348 . S
C831 C833 1.353 . S
C831 H872 0.929 . S
C832 C830 1.356 . S
C832 C834 1.358 . S
C832 H873 0.930 . S
C833 C831 1.353 . S
C833 N835 1.314 . S
C833 H874 0.930 . S
C834 C832 1.358 . S
C834 N835 1.279 . S
C834 H875 0.930 . S
N835 C833 1.314 . S
N835 C834 1.279 . S
C836 C838 1.353 . S
C836 N839 1.314 . S
C836 H842 0.930 . S
C837 N839 1.279 . S
C837 C840 1.358 . S
C837 H843 0.930 . S
C838 C836 1.353 . S
C838 C841 1.348 . S
C838 H876 0.929 . S
N839 Li794 1.990 . S
N839 C836 1.314 . S
N839 C837 1.279 . S
C840 C837 1.358 . S
C840 C841 1.356 . S
C840 H877 0.930 . S
C841 C838 1.348 . S
C841 C840 1.356 . S
H842 C836 0.930 . S
H843 C837 0.930 . S
C844 N845 1.314 . S
C844 C846 1.353 . S
C844 H850 0.930 . S
N845 Li795 1.990 . S
N845 C844 1.314 . S
N845 C848 1.279 . S
C846 C844 1.353 . S
C846 C849 1.348 . S
C846 H878 0.929 . S
C847 C848 1.358 . S
C847 C849 1.356 . S
C847 H879 0.930 . S
C848 N845 1.279 . S
C848 C847 1.358 . S
C848 H851 0.930 . S
C849 C846 1.348 . S
C849 C847 1.356 . S
H850 C844 0.930 . S
H851 C848 0.930 . S
O852 Li792 1.956 . S
O852 Li793 1.970 . S
O852 Li794 1.961 . S
O852 C796 1.325 . S
O853 Li792 1.970 . S
O853 Li793 1.956 . S
O853 Li795 1.961 . S
O853 C802 1.325 . S
O854 Li792 1.961 . S
O854 Li794 1.956 . S
O854 Li795 1.970 . S
O854 C824 1.325 . S
O855 Li793 1.961 . S
O855 Li794 1.970 . S
O855 Li795 1.956 . S
O855 C830 1.325 . S
H856 C798 0.929 . S
H857 C799 0.930 . S
H858 C800 0.930 . S
H859 C801 0.930 . S
H860 C803 0.930 . S
H861 C805 0.929 . S
H862 C806 0.930 . S
H863 C807 0.930 . S
H864 C810 0.930 . S
H865 C813 0.929 . S
H866 C818 0.929 . S
H867 C819 0.930 . S
H868 C826 0.929 . S
H869 C827 0.930 . S
H870 C828 0.930 . S
H871 C829 0.930 . S
H872 C831 0.929 . S
H873 C832 0.930 . S
H874 C833 0.930 . S
H875 C834 0.930 . S
H876 C838 0.929 . S
H877 C840 0.930 . S
H878 C846 0.929 . S
H879 C847 0.930 . S
Li880 N897 1.990 . S
Li880 O940 1.956 . S
Li880 O941 1.970 . S
Li880 O942 1.977 . S
Li881 N905 1.990 . S
Li881 O940 1.966 . S
Li881 O941 1.982 . S
Li881 O943 1.938 1_545 S
Li882 N927 1.990 . S
Li882 O940 1.961 1_565 S
Li882 O942 1.935 1_565 S
Li882 O943 1.970 . S
Li883 N933 1.990 . S
Li883 O941 1.961 1_565 S
Li883 O942 1.972 1_565 S
Li883 O943 1.956 . S
C884 C886 1.348 . S
C884 C887 1.356 . S
C884 O940 1.325 . S
N885 C888 1.314 . S
N885 C889 1.279 . S
C886 C884 1.348 . S
C886 C888 1.353 . S
C886 H944 0.929 . S
C887 C884 1.356 . S
C887 C889 1.358 . S
C887 H945 0.930 . S
C888 N885 1.314 . S
C888 C886 1.353 . S
C888 H946 0.930 . S
C889 N885 1.279 . S
C889 C887 1.358 . S
C889 H947 0.930 . S
C890 C893 1.348 . S
C890 C894 1.356 . S
C890 O941 1.325 . S
C891 N892 1.279 . S
C891 C894 1.358 . S
C891 H948 0.930 . S
N892 C891 1.279 . S
N892 C895 1.314 . S
C893 C890 1.348 . S
C893 C895 1.353 . S
C893 H949 0.929 . S
C894 C890 1.356 . S
C894 C891 1.358 . S
C894 H950 0.930 . S
C895 N892 1.314 . S
C895 C893 1.353 . S
C895 H951 0.930 . S
C896 N897 1.314 . S
C896 C901 1.353 . S
C896 H902 0.930 . S
N897 Li880 1.990 . S
N897 C896 1.314 . S
N897 C899 1.279 . S
C898 C899 1.358 . S
C898 C900 1.356 . S
C898 H952 0.930 . S
C899 N897 1.279 . S
C899 C898 1.358 . S
C899 H903 0.930 . S
C900 C898 1.356 . S
C900 C901 1.348 . S
C901 C896 1.353 . S
C901 C900 1.348 . S
C901 H953 0.929 . S
H902 C896 0.930 . S
H903 C899 0.930 . S
C904 N905 1.280 1_565 S
C904 C906 1.353 . S
C904 H910 0.930 . S
N905 Li881 1.990 . S
N905 C904 1.280 1_545 S
N905 C908 1.312 . S
C906 C904 1.353 . S
C906 C909 1.333 1_565 S
C906 H954 0.929 . S
C907 C908 1.358 . S
C907 C909 1.372 . S
C907 H955 0.930 . S
C908 N905 1.312 . S
C908 C907 1.358 . S
C908 H911 0.930 . S
C909 C906 1.333 1_545 S
C909 C907 1.372 . S
H910 C904 0.930 . S
H911 C908 0.930 . S
C912 C914 1.348 1_545 S
C912 C915 1.356 . S
C912 O942 1.325 . S
N913 C916 1.314 . S
N913 C917 1.279 1_565 S
C914 C912 1.348 1_565 S
C914 C916 1.353 . S
C914 H956 0.929 . S
C915 C912 1.356 . S
C915 C917 1.358 . S
C915 H957 0.930 . S
C916 N913 1.314 . S
C916 C914 1.353 . S
C916 H958 0.930 . S
C917 N913 1.279 1_545 S
C917 C915 1.358 . S
C917 H959 0.930 . S
C918 C919 1.348 . S
C918 C920 1.356 . S
C918 O943 1.325 . S
C919 C918 1.348 . S
C919 C921 1.353 . S
C919 H960 0.929 . S
C920 C918 1.356 . S
C920 C922 1.358 . S
C920 H961 0.930 . S
C921 C919 1.353 . S
C921 N923 1.314 . S
C921 H962 0.930 . S
C922 C920 1.358 . S
C922 N923 1.279 . S
C922 H963 0.930 . S
N923 C921 1.314 . S
N923 C922 1.279 . S
C924 C926 1.353 . S
C924 N927 1.314 . S
C924 H930 0.930 . S
C925 N927 1.279 . S
C925 C928 1.358 . S
C925 H931 0.930 . S
C926 C924 1.353 . S
C926 C929 1.348 . S
C926 H964 0.929 . S
N927 Li882 1.990 . S
N927 C924 1.314 . S
N927 C925 1.279 . S
C928 C925 1.358 . S
C928 C929 1.356 . S
C928 H965 0.930 . S
C929 C926 1.348 . S
C929 C928 1.356 . S
H930 C924 0.930 . S
H931 C925 0.930 . S
C932 N933 1.314 1_545 S
C932 C934 1.353 . S
C932 H938 0.930 . S
N933 Li883 1.990 . S
N933 C932 1.314 1_565 S
N933 C936 1.279 . S
C934 C932 1.353 . S
C934 C937 1.348 1_545 S
C934 H966 0.929 . S
C935 C936 1.358 . S
C935 C937 1.356 . S
C935 H967 0.930 . S
C936 N933 1.279 . S
C936 C935 1.358 . S
C936 H939 0.930 . S
C937 C934 1.348 1_565 S
C937 C935 1.356 . S
H938 C932 0.930 . S
H939 C936 0.930 . S
O940 Li880 1.956 . S
O940 Li881 1.966 . S
O940 Li882 1.961 1_545 S
O940 C884 1.325 . S
O941 Li880 1.970 . S
O941 Li881 1.982 . S
O941 Li883 1.961 1_545 S
O941 C890 1.325 . S
O942 Li880 1.977 . S
O942 Li882 1.935 1_545 S
O942 Li883 1.972 1_545 S
O942 C912 1.325 . S
O943 Li881 1.938 1_565 S
O943 Li882 1.970 . S
O943 Li883 1.956 . S
O943 C918 1.325 . S
H944 C886 0.929 . S
H945 C887 0.930 . S
H946 C888 0.930 . S
H947 C889 0.930 . S
H948 C891 0.930 . S
H949 C893 0.929 . S
H950 C894 0.930 . S
H951 C895 0.930 . S
H952 C898 0.930 . S
H953 C901 0.929 . S
H954 C906 0.929 . S
H955 C907 0.930 . S
H956 C914 0.929 . S
H957 C915 0.930 . S
H958 C916 0.930 . S
H959 C917 0.930 . S
H960 C919 0.929 . S
H961 C920 0.930 . S
H962 C921 0.930 . S
H963 C922 0.930 . S
H964 C926 0.929 . S
H965 C928 0.930 . S
H966 C934 0.929 . S
H967 C935 0.930 . S
Li968 N985 1.990 . S
Li968 O1028 1.956 . S
Li968 O1029 1.970 . S
Li968 O1030 1.961 1_554 S
Li969 N993 1.990 . S
Li969 O1028 1.970 . S
Li969 O1029 1.956 . S
Li969 O1031 1.961 . S
Li970 N1015 1.990 . S
Li970 O1028 1.961 . S
Li970 O1030 1.956 1_554 S
Li970 O1031 1.970 . S
Li971 N1021 1.990 . S
Li971 O1029 1.961 1_556 S
Li971 O1030 1.970 . S
Li971 O1031 1.956 1_556 S
C972 C974 1.348 . S
C972 C975 1.356 . S
C972 O1028 1.325 . S
N973 C976 1.314 1_545 S
N973 C977 1.279 . S
C974 C972 1.348 . S
C974 C976 1.353 . S
C974 H1032 0.929 . S
C975 C972 1.356 . S
C975 C977 1.358 1_565 S
C975 H1033 0.930 1_565 S
C976 N973 1.314 1_565 S
C976 C974 1.353 . S
C976 H1034 0.930 . S
C977 N973 1.279 . S
C977 C975 1.358 1_545 S
C977 H1035 0.930 . S
C978 C981 1.348 . S
C978 C982 1.356 1_554 S
C978 O1029 1.325 . S
C979 N980 1.279 . S
C979 C982 1.358 . S
C979 H1036 0.930 . S
N980 C979 1.279 . S
N980 C983 1.314 1_556 S
C981 C978 1.348 . S
C981 C983 1.353 . S
C981 H1037 0.929 . S
C982 C978 1.356 1_556 S
C982 C979 1.358 . S
C982 H1038 0.930 . S
C983 N980 1.314 1_554 S
C983 C981 1.353 . S
C983 H1039 0.930 . S
C984 N985 1.314 1_556 S
C984 C989 1.353 . S
C984 H990 0.930 . S
N985 Li968 1.990 . S
N985 C984 1.314 1_554 S
N985 C987 1.279 . S
C986 C987 1.358 . S
C986 C988 1.356 . S
C986 H1040 0.930 1_565 S
C987 N985 1.279 . S
C987 C986 1.358 . S
C987 H991 0.930 . S
C988 C986 1.356 . S
C988 C989 1.348 1_554 S
C989 C984 1.353 . S
C989 C988 1.348 1_556 S
C989 H1041 0.929 . S
H990 C984 0.930 . S
H991 C987 0.930 . S
C992 N993 1.314 . S
C992 C994 1.353 . S
C992 H998 0.930 . S
N993 Li969 1.990 . S
N993 C992 1.314 . S
N993 C996 1.279 . S
C994 C992 1.353 . S
C994 C997 1.348 . S
C994 H1042 0.929 . S
C995 C996 1.358 . S
C995 C997 1.356 . S
C995 H1043 0.930 . S
C996 N993 1.279 . S
C996 C995 1.358 . S
C996 H999 0.930 . S
C997 C994 1.348 . S
C997 C995 1.356 . S
H998 C992 0.930 . S
H999 C996 0.930 . S
C1000 C1002 1.348 . S
C1000 C1003 1.356 . S
C1000 O1030 1.325 . S
N1001 C1004 1.314 . S
N1001 C1005 1.279 1_565 S
C1002 C1000 1.348 . S
C1002 C1004 1.353 . S
C1002 H1044 0.929 . S
C1003 C1000 1.356 . S
C1003 C1005 1.358 1_565 S
C1003 H1045 0.930 . S
C1004 N1001 1.314 . S
C1004 C1002 1.353 . S
C1004 H1046 0.930 . S
C1005 N1001 1.279 1_545 S
C1005 C1003 1.358 1_545 S
C1005 H1047 0.930 . S
C1006 C1007 1.353 . S
C1006 C1008 1.356 . S
C1006 O1031 1.325 . S
C1007 C1006 1.353 . S
C1007 C1009 1.353 1_554 S
C1007 H1048 0.924 1_554 S
C1008 C1006 1.356 . S
C1008 C1010 1.358 . S
C1008 H1049 0.930 . S
C1009 C1007 1.353 1_556 S
C1009 N1011 1.304 1_556 S
C1009 H1050 0.930 . S
C1010 C1008 1.358 . S
C1010 N1011 1.291 . S
C1010 H1051 0.930 . S
N1011 C1009 1.304 1_554 S
N1011 C1010 1.291 . S
C1012 C1014 1.353 1_565 S
C1012 N1015 1.314 . S
C1012 H1018 0.930 . S
C1013 N1015 1.279 1_556 S
C1013 C1016 1.363 1_566 S
C1013 H1019 0.930 . S
C1014 C1012 1.353 1_545 S
C1014 C1017 1.348 . S
C1014 H1052 0.929 . S
N1015 Li970 1.990 . S
N1015 C1012 1.314 . S
N1015 C1013 1.279 1_554 S
C1016 C1013 1.363 1_544 S
C1016 C1017 1.387 . S
C1016 H1053 0.895 1_554 S
C1017 C1014 1.348 . S
C1017 C1016 1.387 . S
H1018 C1012 0.930 . S
H1019 C1013 0.930 . S
C1020 N1021 1.314 . S
C1020 C1022 1.353 . S
C1020 H1026 0.930 . S
N1021 Li971 1.990 . S
N1021 C1020 1.314 . S
N1021 C1024 1.279 . S
C1022 C1020 1.353 . S
C1022 C1025 1.348 . S
C1022 H1054 0.929 . S
C1023 C1024 1.358 . S
C1023 C1025 1.356 . S
C1023 H1055 0.930 . S
C1024 N1021 1.279 . S
C1024 C1023 1.358 . S
C1024 H1027 0.930 . S
C1025 C1022 1.348 . S
C1025 C1023 1.356 . S
H1026 C1020 0.930 . S
H1027 C1024 0.930 . S
O1028 Li968 1.956 . S
O1028 Li969 1.970 . S
O1028 Li970 1.961 . S
O1028 C972 1.325 . S
O1029 Li968 1.970 . S
O1029 Li969 1.956 . S
O1029 Li971 1.961 1_554 S
O1029 C978 1.325 . S
O1030 Li968 1.961 1_556 S
O1030 Li970 1.956 1_556 S
O1030 Li971 1.970 . S
O1030 C1000 1.325 . S
O1031 Li969 1.961 . S
O1031 Li970 1.970 . S
O1031 Li971 1.956 1_554 S
O1031 C1006 1.325 . S
H1032 C974 0.929 . S
H1033 C975 0.930 1_545 S
H1034 C976 0.930 . S
H1035 C977 0.930 . S
H1036 C979 0.930 . S
H1037 C981 0.929 . S
H1038 C982 0.930 . S
H1039 C983 0.930 . S
H1040 C986 0.930 1_545 S
H1041 C989 0.929 . S
H1042 C994 0.929 . S
H1043 C995 0.930 . S
H1044 C1002 0.929 . S
H1045 C1003 0.930 . S
H1046 C1004 0.930 . S
H1047 C1005 0.930 . S
H1048 C1007 0.924 1_556 S
H1049 C1008 0.930 . S
H1050 C1009 0.930 . S
H1051 C1010 0.930 . S
H1052 C1014 0.929 . S
H1053 C1016 0.895 1_556 S
H1054 C1022 0.929 . S
H1055 C1023 0.930 . S
Li1056 N1073 1.990 . S
Li1056 O1116 1.956 . S
Li1056 O1117 1.970 . S
Li1056 O1118 1.961 . S
Li1057 N1081 1.990 . S
Li1057 O1116 1.970 . S
Li1057 O1117 1.956 . S
Li1057 O1119 1.961 . S
Li1058 N1103 1.990 . S
Li1058 O1116 1.961 . S
Li1058 O1118 1.956 . S
Li1058 O1119 1.970 . S
Li1059 N1109 1.990 1_554 S
Li1059 O1117 1.961 . S
Li1059 O1118 1.970 . S
Li1059 O1119 1.956 . S
C1060 C1062 1.348 . S
C1060 C1063 1.356 . S
C1060 O1116 1.325 . S
N1061 C1064 1.314 . S
N1061 C1065 1.279 . S
C1062 C1060 1.348 . S
C1062 C1064 1.353 . S
C1062 H1120 0.929 . S
C1063 C1060 1.356 . S
C1063 C1065 1.358 . S
C1063 H1121 0.930 . S
C1064 N1061 1.314 . S
C1064 C1062 1.353 . S
C1064 H1122 0.930 . S
C1065 N1061 1.279 . S
C1065 C1063 1.358 . S
C1065 H1123 0.930 . S
C1066 C1069 1.348 . S
C1066 C1070 1.356 . S
C1066 O1117 1.325 . S
C1067 N1068 1.279 . S
C1067 C1070 1.358 . S
C1067 H1124 0.930 . S
N1068 C1067 1.279 . S
N1068 C1071 1.314 . S
C1069 C1066 1.348 . S
C1069 C1071 1.353 . S
C1069 H1125 0.929 . S
C1070 C1066 1.356 . S
C1070 C1067 1.358 . S
C1070 H1126 0.930 . S
C1071 N1068 1.314 . S
C1071 C1069 1.353 . S
C1071 H1127 0.930 . S
C1072 N1073 1.314 . S
C1072 C1077 1.353 . S
C1072 H1078 0.930 . S
N1073 Li1056 1.990 . S
N1073 C1072 1.314 . S
N1073 C1075 1.279 . S
C1074 C1075 1.358 . S
C1074 C1076 1.356 . S
C1074 H1128 0.930 . S
C1075 N1073 1.279 . S
C1075 C1074 1.358 . S
C1075 H1079 0.930 . S
C1076 C1074 1.356 . S
C1076 C1077 1.348 . S
C1077 C1072 1.353 . S
C1077 C1076 1.348 . S
C1077 H1129 0.929 . S
H1078 C1072 0.930 . S
H1079 C1075 0.930 . S
C1080 N1081 1.314 . S
C1080 C1082 1.353 . S
C1080 H1086 0.930 . S
N1081 Li1057 1.990 . S
N1081 C1080 1.314 . S
N1081 C1084 1.279 . S
C1082 C1080 1.353 . S
C1082 C1085 1.348 . S
C1082 H1130 0.929 . S
C1083 C1084 1.358 . S
C1083 C1085 1.356 . S
C1083 H1131 0.930 . S
C1084 N1081 1.279 . S
C1084 C1083 1.358 . S
C1084 H1087 0.930 . S
C1085 C1082 1.348 . S
C1085 C1083 1.356 . S
H1086 C1080 0.930 . S
H1087 C1084 0.930 . S
C1088 C1090 1.348 . S
C1088 C1091 1.356 . S
C1088 O1118 1.325 1_556 S
N1089 C1092 1.314 . S
N1089 C1093 1.279 . S
C1090 C1088 1.348 . S
C1090 C1092 1.353 . S
C1090 H1132 0.929 . S
C1091 C1088 1.356 . S
C1091 C1093 1.358 . S
C1091 H1133 0.930 1_556 S
C1092 N1089 1.314 . S
C1092 C1090 1.353 . S
C1092 H1134 0.930 . S
C1093 N1089 1.279 . S
C1093 C1091 1.358 . S
C1093 H1135 0.930 . S
C1094 C1095 1.348 . S
C1094 C1096 1.356 . S
C1094 O1119 1.325 . S
C1095 C1094 1.348 . S
C1095 C1097 1.353 . S
C1095 H1136 0.929 . S
C1096 C1094 1.356 . S
C1096 C1098 1.358 . S
C1096 H1137 0.930 . S
C1097 C1095 1.353 . S
C1097 N1099 1.314 . S
C1097 H1138 0.930 . S
C1098 C1096 1.358 . S
C1098 N1099 1.279 . S
C1098 H1139 0.930 . S
N1099 C1097 1.314 . S
N1099 C1098 1.279 . S
C1100 C1102 1.353 . S
C1100 N1103 1.314 . S
C1100 H1106 0.930 . S
C1101 N1103 1.279 . S
C1101 C1104 1.358 . S
C1101 H1107 0.930 . S
C1102 C1100 1.353 . S
C1102 C1105 1.348 . S
C1102 H1140 0.929 . S
N1103 Li1058 1.990 . S
N1103 C1100 1.314 . S
N1103 C1101 1.279 . S
C1104 C1101 1.358 . S
C1104 C1105 1.356 . S
C1104 H1141 0.930 . S
C1105 C1102 1.348 . S
C1105 C1104 1.356 . S
H1106 C1100 0.930 . S
H1107 C1101 0.930 . S
C1108 N1109 1.314 . S
C1108 C1110 1.353 . S
C1108 H1114 0.930 . S
N1109 Li1059 1.990 1_556 S
N1109 C1108 1.314 . S
N1109 C1112 1.279 . S
C1110 C1108 1.353 . S
C1110 C1113 1.348 . S
C1110 H1142 0.929 . S
C1111 C1112 1.358 . S
C1111 C1113 1.356 . S
C1111 H1143 0.930 . S
C1112 N1109 1.279 . S
C1112 C1111 1.358 . S
C1112 H1115 0.930 . S
C1113 C1110 1.348 . S
C1113 C1111 1.356 . S
H1114 C1108 0.930 . S
H1115 C1112 0.930 . S
O1116 Li1056 1.956 . S
O1116 Li1057 1.970 . S
O1116 Li1058 1.961 . S
O1116 C1060 1.325 . S
O1117 Li1056 1.970 . S
O1117 Li1057 1.956 . S
O1117 Li1059 1.961 . S
O1117 C1066 1.325 . S
O1118 Li1056 1.961 . S
O1118 Li1058 1.956 . S
O1118 Li1059 1.970 . S
O1118 C1088 1.325 1_554 S
O1119 Li1057 1.961 . S
O1119 Li1058 1.970 . S
O1119 Li1059 1.956 . S
O1119 C1094 1.325 . S
H1120 C1062 0.929 . S
H1121 C1063 0.930 . S
H1122 C1064 0.930 . S
H1123 C1065 0.930 . S
H1124 C1067 0.930 . S
H1125 C1069 0.929 . S
H1126 C1070 0.930 . S
H1127 C1071 0.930 . S
H1128 C1074 0.930 . S
H1129 C1077 0.929 . S
H1130 C1082 0.929 . S
H1131 C1083 0.930 . S
H1132 C1090 0.929 . S
H1133 C1091 0.930 1_554 S
H1134 C1092 0.930 . S
H1135 C1093 0.930 . S
H1136 C1095 0.929 . S
H1137 C1096 0.930 . S
H1138 C1097 0.930 . S
H1139 C1098 0.930 . S
H1140 C1102 0.929 . S
H1141 C1104 0.930 . S
H1142 C1110 0.929 . S
H1143 C1111 0.930 . S
Li1144 N1161 1.990 . S
Li1144 O1204 1.956 . S
Li1144 O1205 1.970 . S
Li1144 O1206 1.961 . S
Li1145 N1169 1.990 . S
Li1145 O1204 1.970 . S
Li1145 O1205 1.956 . S
Li1145 O1207 1.961 1_554 S
Li1146 N1191 1.990 1_554 S
Li1146 O1204 1.961 . S
Li1146 O1206 1.956 . S
Li1146 O1207 1.970 1_554 S
Li1147 N1197 1.990 . S
Li1147 O1205 1.961 . S
Li1147 O1206 1.970 . S
Li1147 O1207 1.956 1_554 S
C1148 C1150 1.348 . S
C1148 C1151 1.356 . S
C1148 O1204 1.325 . S
N1149 C1152 1.314 . S
N1149 C1153 1.279 . S
C1150 C1148 1.348 . S
C1150 C1152 1.353 . S
C1150 H1208 0.929 . S
C1151 C1148 1.356 . S
C1151 C1153 1.358 . S
C1151 H1209 0.930 . S
C1152 N1149 1.314 . S
C1152 C1150 1.353 . S
C1152 H1210 0.930 . S
C1153 N1149 1.279 . S
C1153 C1151 1.358 . S
C1153 H1211 0.930 . S
C1154 C1157 1.348 . S
C1154 C1158 1.356 . S
C1154 O1205 1.325 . S
C1155 N1156 1.279 . S
C1155 C1158 1.358 . S
C1155 H1212 0.930 . S
N1156 C1155 1.279 . S
N1156 C1159 1.314 . S
C1157 C1154 1.348 . S
C1157 C1159 1.353 . S
C1157 H1213 0.929 . S
C1158 C1154 1.356 . S
C1158 C1155 1.358 . S
C1158 H1214 0.930 . S
C1159 N1156 1.314 . S
C1159 C1157 1.353 . S
C1159 H1215 0.930 . S
C1160 N1161 1.314 . S
C1160 C1165 1.353 . S
C1160 H1166 0.930 . S
N1161 Li1144 1.990 . S
N1161 C1160 1.314 . S
N1161 C1163 1.279 . S
C1162 C1163 1.358 . S
C1162 C1164 1.356 . S
C1162 H1216 0.930 . S
C1163 N1161 1.279 . S
C1163 C1162 1.358 . S
C1163 H1167 0.930 . S
C1164 C1162 1.356 . S
C1164 C1165 1.348 . S
C1165 C1160 1.353 . S
C1165 C1164 1.348 . S
C1165 H1217 0.929 . S
H1166 C1160 0.930 . S
H1167 C1163 0.930 . S
C1168 N1169 1.314 . S
C1168 C1170 1.353 . S
C1168 H1174 0.930 1_554 S
N1169 Li1145 1.990 . S
N1169 C1168 1.314 . S
N1169 C1172 1.279 . S
C1170 C1168 1.353 . S
C1170 C1173 1.348 . S
C1170 H1218 0.929 1_554 S
C1171 C1172 1.358 . S
C1171 C1173 1.356 . S
C1171 H1219 0.930 . S
C1172 N1169 1.279 . S
C1172 C1171 1.358 . S
C1172 H1175 0.930 . S
C1173 C1170 1.348 . S
C1173 C1171 1.356 . S
H1174 C1168 0.930 1_556 S
H1175 C1172 0.930 . S
C1176 C1178 1.348 . S
C1176 C1179 1.356 . S
C1176 O1206 1.325 . S
N1177 C1180 1.314 . S
N1177 C1181 1.279 . S
C1178 C1176 1.348 . S
C1178 C1180 1.353 . S
C1178 H1220 0.929 . S
C1179 C1176 1.356 . S
C1179 C1181 1.358 . S
C1179 H1221 0.930 . S
C1180 N1177 1.314 . S
C1180 C1178 1.353 . S
C1180 H1222 0.930 . S
C1181 N1177 1.279 . S
C1181 C1179 1.358 . S
C1181 H1223 0.930 . S
C1182 C1183 1.348 . S
C1182 C1184 1.356 . S
C1182 O1207 1.325 . S
C1183 C1182 1.348 . S
C1183 C1185 1.353 . S
C1183 H1224 0.929 . S
C1184 C1182 1.356 . S
C1184 C1186 1.358 . S
C1184 H1225 0.930 . S
C1185 C1183 1.353 . S
C1185 N1187 1.314 . S
C1185 H1226 0.930 . S
C1186 C1184 1.358 . S
C1186 N1187 1.279 . S
C1186 H1227 0.930 . S
N1187 C1185 1.314 . S
N1187 C1186 1.279 . S
C1188 C1190 1.353 . S
C1188 N1191 1.314 . S
C1188 H1194 0.930 . S
C1189 N1191 1.279 . S
C1189 C1192 1.358 . S
C1189 H1195 0.930 . S
C1190 C1188 1.353 . S
C1190 C1193 1.348 . S
C1190 H1228 0.929 . S
N1191 Li1146 1.990 1_556 S
N1191 C1188 1.314 . S
N1191 C1189 1.279 . S
C1192 C1189 1.358 . S
C1192 C1193 1.356 . S
C1192 H1229 0.930 . S
C1193 C1190 1.348 . S
C1193 C1192 1.356 . S
H1194 C1188 0.930 . S
H1195 C1189 0.930 . S
C1196 N1197 1.314 . S
C1196 C1198 1.353 . S
C1196 H1202 0.930 . S
N1197 Li1147 1.990 . S
N1197 C1196 1.314 . S
N1197 C1200 1.279 1_554 S
C1198 C1196 1.353 . S
C1198 C1201 1.348 . S
C1198 H1230 0.929 . S
C1199 C1200 1.358 . S
C1199 C1201 1.356 1_556 S
C1199 H1231 0.930 . S
C1200 N1197 1.279 1_556 S
C1200 C1199 1.358 . S
C1200 H1203 0.930 . S
C1201 C1198 1.348 . S
C1201 C1199 1.356 1_554 S
H1202 C1196 0.930 . S
H1203 C1200 0.930 . S
O1204 Li1144 1.956 . S
O1204 Li1145 1.970 . S
O1204 Li1146 1.961 . S
O1204 C1148 1.325 . S
O1205 Li1144 1.970 . S
O1205 Li1145 1.956 . S
O1205 Li1147 1.961 . S
O1205 C1154 1.325 . S
O1206 Li1144 1.961 . S
O1206 Li1146 1.956 . S
O1206 Li1147 1.970 . S
O1206 C1176 1.325 . S
O1207 Li1145 1.961 1_556 S
O1207 Li1146 1.970 1_556 S
O1207 Li1147 1.956 1_556 S
O1207 C1182 1.325 . S
H1208 C1150 0.929 . S
H1209 C1151 0.930 . S
H1210 C1152 0.930 . S
H1211 C1153 0.930 . S
H1212 C1155 0.930 . S
H1213 C1157 0.929 . S
H1214 C1158 0.930 . S
H1215 C1159 0.930 . S
H1216 C1162 0.930 . S
H1217 C1165 0.929 . S
H1218 C1170 0.929 1_556 S
H1219 C1171 0.930 . S
H1220 C1178 0.929 . S
H1221 C1179 0.930 . S
H1222 C1180 0.930 . S
H1223 C1181 0.930 . S
H1224 C1183 0.929 . S
H1225 C1184 0.930 . S
H1226 C1185 0.930 . S
H1227 C1186 0.930 . S
H1228 C1190 0.929 . S
H1229 C1192 0.930 . S
H1230 C1198 0.929 . S
H1231 C1199 0.930 . S
Li1232 N1249 1.990 . S
Li1232 O1292 1.956 . S
Li1232 O1293 1.970 . S
Li1232 O1294 1.961 . S
Li1233 N1257 1.990 . S
Li1233 O1292 1.970 . S
Li1233 O1293 1.956 . S
Li1233 O1295 1.961 . S
Li1234 N1279 1.990 . S
Li1234 O1292 1.961 . S
Li1234 O1294 1.956 . S
Li1234 O1295 1.970 . S
Li1235 N1285 1.990 . S
Li1235 O1293 1.961 . S
Li1235 O1294 1.970 . S
Li1235 O1295 1.956 . S
C1236 C1238 1.348 . S
C1236 C1239 1.356 . S
C1236 O1292 1.325 . S
N1237 C1240 1.314 . S
N1237 C1241 1.279 . S
C1238 C1236 1.348 . S
C1238 C1240 1.353 . S
C1238 H1296 0.929 . S
C1239 C1236 1.356 . S
C1239 C1241 1.358 . S
C1239 H1297 0.930 . S
C1240 N1237 1.314 . S
C1240 C1238 1.353 . S
C1240 H1298 0.930 . S
C1241 N1237 1.279 . S
C1241 C1239 1.358 . S
C1241 H1299 0.930 . S
C1242 C1245 1.348 . S
C1242 C1246 1.356 . S
C1242 O1293 1.325 . S
C1243 N1244 1.279 . S
C1243 C1246 1.358 . S
C1243 H1300 0.930 . S
N1244 C1243 1.279 . S
N1244 C1247 1.314 . S
C1245 C1242 1.348 . S
C1245 C1247 1.353 . S
C1245 H1301 0.929 . S
C1246 C1242 1.356 . S
C1246 C1243 1.358 . S
C1246 H1302 0.930 . S
C1247 N1244 1.314 . S
C1247 C1245 1.353 . S
C1247 H1303 0.930 . S
C1248 N1249 1.314 . S
C1248 C1253 1.353 . S
C1248 H1254 0.930 . S
N1249 Li1232 1.990 . S
N1249 C1248 1.314 . S
N1249 C1251 1.279 . S
C1250 C1251 1.358 . S
C1250 C1252 1.356 . S
C1250 H1304 0.930 . S
C1251 N1249 1.279 . S
C1251 C1250 1.358 . S
C1251 H1255 0.930 . S
C1252 C1250 1.356 . S
C1252 C1253 1.348 . S
C1253 C1248 1.353 . S
C1253 C1252 1.348 . S
C1253 H1305 0.929 . S
H1254 C1248 0.930 . S
H1255 C1251 0.930 . S
C1256 N1257 1.314 . S
C1256 C1258 1.353 . S
C1256 H1262 0.930 . S
N1257 Li1233 1.990 . S
N1257 C1256 1.314 . S
N1257 C1260 1.279 . S
C1258 C1256 1.353 . S
C1258 C1261 1.348 . S
C1258 H1306 0.929 . S
C1259 C1260 1.358 . S
C1259 C1261 1.356 . S
C1259 H1307 0.930 . S
C1260 N1257 1.279 . S
C1260 C1259 1.358 . S
C1260 H1263 0.930 . S
C1261 C1258 1.348 . S
C1261 C1259 1.356 . S
H1262 C1256 0.930 . S
H1263 C1260 0.930 . S
C1264 C1266 1.348 . S
C1264 C1267 1.356 . S
C1264 O1294 1.325 . S
N1265 C1268 1.314 . S
N1265 C1269 1.279 . S
C1266 C1264 1.348 . S
C1266 C1268 1.353 . S
C1266 H1308 0.929 . S
C1267 C1264 1.356 . S
C1267 C1269 1.358 . S
C1267 H1309 0.930 . S
C1268 N1265 1.314 . S
C1268 C1266 1.353 . S
C1268 H1310 0.930 . S
C1269 N1265 1.279 . S
C1269 C1267 1.358 . S
C1269 H1311 0.930 . S
C1270 C1271 1.348 . S
C1270 C1272 1.356 . S
C1270 O1295 1.325 . S
C1271 C1270 1.348 . S
C1271 C1273 1.353 . S
C1271 H1312 0.929 . S
C1272 C1270 1.356 . S
C1272 C1274 1.358 . S
C1272 H1313 0.930 . S
C1273 C1271 1.353 . S
C1273 N1275 1.314 . S
C1273 H1314 0.930 . S
C1274 C1272 1.358 . S
C1274 N1275 1.279 . S
C1274 H1315 0.930 . S
N1275 C1273 1.314 . S
N1275 C1274 1.279 . S
C1276 C1278 1.353 . S
C1276 N1279 1.314 . S
C1276 H1282 0.930 . S
C1277 N1279 1.279 . S
C1277 C1280 1.358 . S
C1277 H1283 0.930 . S
C1278 C1276 1.353 . S
C1278 C1281 1.348 . S
C1278 H1316 0.929 . S
N1279 Li1234 1.990 . S
N1279 C1276 1.314 . S
N1279 C1277 1.279 . S
C1280 C1277 1.358 . S
C1280 C1281 1.356 . S
C1280 H1317 0.930 . S
C1281 C1278 1.348 . S
C1281 C1280 1.356 . S
H1282 C1276 0.930 . S
H1283 C1277 0.930 . S
C1284 N1285 1.314 . S
C1284 C1286 1.353 . S
C1284 H1290 0.930 . S
N1285 Li1235 1.990 . S
N1285 C1284 1.314 . S
N1285 C1288 1.279 . S
C1286 C1284 1.353 . S
C1286 C1289 1.348 . S
C1286 H1318 0.929 . S
C1287 C1288 1.358 . S
C1287 C1289 1.356 . S
C1287 H1319 0.930 . S
C1288 N1285 1.279 . S
C1288 C1287 1.358 . S
C1288 H1291 0.930 . S
C1289 C1286 1.348 . S
C1289 C1287 1.356 . S
H1290 C1284 0.930 . S
H1291 C1288 0.930 . S
O1292 Li1232 1.956 . S
O1292 Li1233 1.970 . S
O1292 Li1234 1.961 . S
O1292 C1236 1.325 . S
O1293 Li1232 1.970 . S
O1293 Li1233 1.956 . S
O1293 Li1235 1.961 . S
O1293 C1242 1.325 . S
O1294 Li1232 1.961 . S
O1294 Li1234 1.956 . S
O1294 Li1235 1.970 . S
O1294 C1264 1.325 . S
O1295 Li1233 1.961 . S
O1295 Li1234 1.970 . S
O1295 Li1235 1.956 . S
O1295 C1270 1.325 . S
H1296 C1238 0.929 . S
H1297 C1239 0.930 . S
H1298 C1240 0.930 . S
H1299 C1241 0.930 . S
H1300 C1243 0.930 . S
H1301 C1245 0.929 . S
H1302 C1246 0.930 . S
H1303 C1247 0.930 . S
H1304 C1250 0.930 . S
H1305 C1253 0.929 . S
H1306 C1258 0.929 . S
H1307 C1259 0.930 . S
H1308 C1266 0.929 . S
H1309 C1267 0.930 . S
H1310 C1268 0.930 . S
H1311 C1269 0.930 . S
H1312 C1271 0.929 . S
H1313 C1272 0.930 . S
H1314 C1273 0.930 . S
H1315 C1274 0.930 . S
H1316 C1278 0.929 . S
H1317 C1280 0.930 . S
H1318 C1286 0.929 . S
H1319 C1287 0.930 . S
Li1320 N1337 1.990 . S
Li1320 O1380 1.956 . S
Li1320 O1381 1.970 . S
Li1320 O1382 1.961 . S
Li1321 N1345 1.990 . S
Li1321 O1380 1.970 . S
Li1321 O1381 1.956 . S
Li1321 O1383 1.961 . S
Li1322 N1367 1.990 . S
Li1322 O1380 1.961 . S
Li1322 O1382 1.956 . S
Li1322 O1383 1.970 . S
Li1323 N1373 1.990 . S
Li1323 O1381 1.961 . S
Li1323 O1382 1.970 . S
Li1323 O1383 1.956 . S
C1324 C1326 1.348 . S
C1324 C1327 1.356 . S
C1324 O1380 1.325 . S
N1325 C1328 1.314 . S
N1325 C1329 1.279 . S
C1326 C1324 1.348 . S
C1326 C1328 1.353 . S
C1326 H1384 0.929 . S
C1327 C1324 1.356 . S
C1327 C1329 1.358 . S
C1327 H1385 0.930 . S
C1328 N1325 1.314 . S
C1328 C1326 1.353 . S
C1328 H1386 0.930 . S
C1329 N1325 1.279 . S
C1329 C1327 1.358 . S
C1329 H1387 0.930 . S
C1330 C1333 1.348 . S
C1330 C1334 1.356 . S
C1330 O1381 1.325 . S
C1331 N1332 1.279 . S
C1331 C1334 1.358 . S
C1331 H1388 0.930 . S
N1332 C1331 1.279 . S
N1332 C1335 1.314 . S
C1333 C1330 1.348 . S
C1333 C1335 1.353 . S
C1333 H1389 0.929 . S
C1334 C1330 1.356 . S
C1334 C1331 1.358 . S
C1334 H1390 0.930 . S
C1335 N1332 1.314 . S
C1335 C1333 1.353 . S
C1335 H1391 0.930 . S
C1336 N1337 1.314 . S
C1336 C1341 1.353 . S
C1336 H1342 0.930 . S
N1337 Li1320 1.990 . S
N1337 C1336 1.314 . S
N1337 C1339 1.279 . S
C1338 C1339 1.358 . S
C1338 C1340 1.356 . S
C1338 H1392 0.930 . S
C1339 N1337 1.279 . S
C1339 C1338 1.358 . S
C1339 H1343 0.930 . S
C1340 C1338 1.356 . S
C1340 C1341 1.348 . S
C1341 C1336 1.353 . S
C1341 C1340 1.348 . S
C1341 H1393 0.929 . S
H1342 C1336 0.930 . S
H1343 C1339 0.930 . S
C1344 N1345 1.314 . S
C1344 C1346 1.353 . S
C1344 H1350 0.930 . S
N1345 Li1321 1.990 . S
N1345 C1344 1.314 . S
N1345 C1348 1.279 . S
C1346 C1344 1.353 . S
C1346 C1349 1.348 . S
C1346 H1394 0.929 . S
C1347 C1348 1.358 . S
C1347 C1349 1.356 . S
C1347 H1395 0.930 . S
C1348 N1345 1.279 . S
C1348 C1347 1.358 . S
C1348 H1351 0.930 . S
C1349 C1346 1.348 . S
C1349 C1347 1.356 . S
H1350 C1344 0.930 . S
H1351 C1348 0.930 . S
C1352 C1354 1.348 . S
C1352 C1355 1.356 . S
C1352 O1382 1.325 . S
N1353 C1356 1.314 . S
N1353 C1357 1.279 . S
C1354 C1352 1.348 . S
C1354 C1356 1.353 . S
C1354 H1396 0.929 . S
C1355 C1352 1.356 . S
C1355 C1357 1.358 . S
C1355 H1397 0.930 . S
C1356 N1353 1.314 . S
C1356 C1354 1.353 . S
C1356 H1398 0.930 . S
C1357 N1353 1.279 . S
C1357 C1355 1.358 . S
C1357 H1399 0.930 . S
C1358 C1359 1.348 . S
C1358 C1360 1.356 . S
C1358 O1383 1.325 . S
C1359 C1358 1.348 . S
C1359 C1361 1.353 . S
C1359 H1400 0.929 . S
C1360 C1358 1.356 . S
C1360 C1362 1.358 . S
C1360 H1401 0.930 . S
C1361 C1359 1.353 . S
C1361 N1363 1.314 . S
C1361 H1402 0.930 . S
C1362 C1360 1.358 . S
C1362 N1363 1.279 . S
C1362 H1403 0.930 . S
N1363 C1361 1.314 . S
N1363 C1362 1.279 . S
C1364 C1366 1.353 . S
C1364 N1367 1.314 . S
C1364 H1370 0.930 . S
C1365 N1367 1.279 . S
C1365 C1368 1.358 . S
C1365 H1371 0.930 . S
C1366 C1364 1.353 . S
C1366 C1369 1.348 . S
C1366 H1404 0.929 . S
N1367 Li1322 1.990 . S
N1367 C1364 1.314 . S
N1367 C1365 1.279 . S
C1368 C1365 1.358 . S
C1368 C1369 1.356 . S
C1368 H1405 0.930 . S
C1369 C1366 1.348 . S
C1369 C1368 1.356 . S
H1370 C1364 0.930 . S
H1371 C1365 0.930 . S
C1372 N1373 1.314 . S
C1372 C1374 1.353 . S
C1372 H1378 0.930 . S
N1373 Li1323 1.990 . S
N1373 C1372 1.314 . S
N1373 C1376 1.279 . S
C1374 C1372 1.353 . S
C1374 C1377 1.348 . S
C1374 H1406 0.929 . S
C1375 C1376 1.358 . S
C1375 C1377 1.356 . S
C1375 H1407 0.930 . S
C1376 N1373 1.279 . S
C1376 C1375 1.358 . S
C1376 H1379 0.930 . S
C1377 C1374 1.348 . S
C1377 C1375 1.356 . S
H1378 C1372 0.930 . S
H1379 C1376 0.930 . S
O1380 Li1320 1.956 . S
O1380 Li1321 1.970 . S
O1380 Li1322 1.961 . S
O1380 C1324 1.325 . S
O1381 Li1320 1.970 . S
O1381 Li1321 1.956 . S
O1381 Li1323 1.961 . S
O1381 C1330 1.325 . S
O1382 Li1320 1.961 . S
O1382 Li1322 1.956 . S
O1382 Li1323 1.970 . S
O1382 C1352 1.325 . S
O1383 Li1321 1.961 . S
O1383 Li1322 1.970 . S
O1383 Li1323 1.956 . S
O1383 C1358 1.325 . S
H1384 C1326 0.929 . S
H1385 C1327 0.930 . S
H1386 C1328 0.930 . S
H1387 C1329 0.930 . S
H1388 C1331 0.930 . S
H1389 C1333 0.929 . S
H1390 C1334 0.930 . S
H1391 C1335 0.930 . S
H1392 C1338 0.930 . S
H1393 C1341 0.929 . S
H1394 C1346 0.929 . S
H1395 C1347 0.930 . S
H1396 C1354 0.929 . S
H1397 C1355 0.930 . S
H1398 C1356 0.930 . S
H1399 C1357 0.930 . S
H1400 C1359 0.929 . S
H1401 C1360 0.930 . S
H1402 C1361 0.930 . S
H1403 C1362 0.930 . S
H1404 C1366 0.929 . S
H1405 C1368 0.930 . S
H1406 C1374 0.929 . S
H1407 C1375 0.930 . S
Li1408 N1425 1.990 . S
Li1408 O1468 1.956 . S
Li1408 O1469 1.970 . S
Li1408 O1470 1.961 . S
Li1409 N1433 1.990 . S
Li1409 O1468 1.970 . S
Li1409 O1469 1.956 . S
Li1409 O1471 1.961 . S
Li1410 N1455 1.990 . S
Li1410 O1468 1.961 . S
Li1410 O1470 1.956 . S
Li1410 O1471 1.970 . S
Li1411 N1461 1.990 . S
Li1411 O1469 1.961 . S
Li1411 O1470 1.970 . S
Li1411 O1471 1.956 . S
C1412 C1414 1.348 . S
C1412 C1415 1.356 . S
C1412 O1468 1.325 . S
N1413 C1416 1.314 1_455 S
N1413 C1417 1.279 1_565 S
C1414 C1412 1.348 . S
C1414 C1416 1.353 1_545 S
C1414 H1472 0.929 . S
C1415 C1412 1.356 . S
C1415 C1417 1.358 1_655 S
C1415 H1473 0.930 1_655 S
C1416 N1413 1.314 1_655 S
C1416 C1414 1.353 1_565 S
C1416 H1474 0.930 . S
C1417 N1413 1.279 1_545 S
C1417 C1415 1.358 1_455 S
C1417 H1475 0.930 . S
C1418 C1421 1.348 . S
C1418 C1422 1.356 . S
C1418 O1469 1.325 . S
C1419 N1420 1.279 . S
C1419 C1422 1.358 . S
C1419 H1476 0.930 . S
N1420 C1419 1.279 . S
N1420 C1423 1.314 . S
C1421 C1418 1.348 . S
C1421 C1423 1.353 . S
C1421 H1477 0.929 . S
C1422 C1418 1.356 . S
C1422 C1419 1.358 . S
C1422 H1478 0.930 . S
C1423 N1420 1.314 . S
C1423 C1421 1.353 . S
C1423 H1479 0.930 . S
C1424 N1425 1.314 . S
C1424 C1429 1.353 1_655 S
C1424 H1430 0.930 . S
N1425 Li1408 1.990 . S
N1425 C1424 1.314 . S
N1425 C1427 1.279 . S
C1426 C1427 1.358 1_455 S
C1426 C1428 1.356 . S
C1426 H1480 0.930 . S
C1427 N1425 1.279 . S
C1427 C1426 1.358 1_655 S
C1427 H1431 0.930 . S
C1428 C1426 1.356 . S
C1428 C1429 1.348 . S
C1429 C1424 1.353 1_455 S
C1429 C1428 1.348 . S
C1429 H1481 0.929 . S
H1430 C1424 0.930 . S
H1431 C1427 0.930 . S
C1432 N1433 1.314 1_565 S
C1432 C1434 1.353 . S
C1432 H1438 0.945 . S
N1433 Li1409 1.990 . S
N1433 C1432 1.314 1_545 S
N1433 C1436 1.279 . S
C1434 C1432 1.353 . S
C1434 C1437 1.348 . S
C1434 H1482 0.929 . S
C1435 C1436 1.358 1_565 S
C1435 C1437 1.356 . S
C1435 H1483 0.930 . S
C1436 N1433 1.279 . S
C1436 C1435 1.358 1_545 S
C1436 H1439 0.930 . S
C1437 C1434 1.348 . S
C1437 C1435 1.356 . S
H1438 C1432 0.945 . S
H1439 C1436 0.930 . S
C1440 C1442 1.348 . S
C1440 C1443 1.356 1_655 S
C1440 O1470 1.325 . S
N1441 C1444 1.314 1_455 S
N1441 C1445 1.279 . S
C1442 C1440 1.348 . S
C1442 C1444 1.353 . S
C1442 H1484 0.929 . S
C1443 C1440 1.356 1_455 S
C1443 C1445 1.358 . S
C1443 H1485 0.930 . S
C1444 N1441 1.314 1_655 S
C1444 C1442 1.353 . S
C1444 H1486 0.930 . S
C1445 N1441 1.279 . S
C1445 C1443 1.358 . S
C1445 H1487 0.930 . S
C1446 C1447 1.348 . S
C1446 C1448 1.356 . S
C1446 O1471 1.325 . S
C1447 C1446 1.348 . S
C1447 C1449 1.353 . S
C1447 H1488 0.929 . S
C1448 C1446 1.356 . S
C1448 C1450 1.358 . S
C1448 H1489 0.930 . S
C1449 C1447 1.353 . S
C1449 N1451 1.314 . S
C1449 H1490 0.930 . S
C1450 C1448 1.358 . S
C1450 N1451 1.279 . S
C1450 H1491 0.930 . S
N1451 C1449 1.314 . S
N1451 C1450 1.279 . S
C1452 C1454 1.353 . S
C1452 N1455 1.314 . S
C1452 H1458 0.930 . S
C1453 N1455 1.279 . S
C1453 C1456 1.358 1_655 S
C1453 H1459 0.930 . S
C1454 C1452 1.353 . S
C1454 C1457 1.348 1_655 S
C1454 H1492 0.929 . S
N1455 Li1410 1.990 . S
N1455 C1452 1.314 . S
N1455 C1453 1.279 . S
C1456 C1453 1.358 1_455 S
C1456 C1457 1.356 . S
C1456 H1493 0.930 . S
C1457 C1454 1.348 1_455 S
C1457 C1456 1.356 . S
H1458 C1452 0.930 . S
H1459 C1453 0.930 . S
C1460 N1461 1.314 . S
C1460 C1462 1.353 . S
C1460 H1466 0.930 . S
N1461 Li1411 1.990 . S
N1461 C1460 1.314 . S
N1461 C1464 1.279 . S
C1462 C1460 1.353 . S
C1462 C1465 1.348 . S
C1462 H1494 0.929 . S
C1463 C1464 1.358 . S
C1463 C1465 1.356 . S
C1463 H1495 0.930 . S
C1464 N1461 1.279 . S
C1464 C1463 1.358 . S
C1464 H1467 0.930 . S
C1465 C1462 1.348 . S
C1465 C1463 1.356 . S
H1466 C1460 0.930 . S
H1467 C1464 0.930 . S
O1468 Li1408 1.956 . S
O1468 Li1409 1.970 . S
O1468 Li1410 1.961 . S
O1468 C1412 1.325 . S
O1469 Li1408 1.970 . S
O1469 Li1409 1.956 . S
O1469 Li1411 1.961 . S
O1469 C1418 1.325 . S
O1470 Li1408 1.961 . S
O1470 Li1410 1.956 . S
O1470 Li1411 1.970 . S
O1470 C1440 1.325 . S
O1471 Li1409 1.961 . S
O1471 Li1410 1.970 . S
O1471 Li1411 1.956 . S
O1471 C1446 1.325 . S
H1472 C1414 0.929 . S
H1473 C1415 0.930 1_455 S
H1474 C1416 0.930 . S
H1475 C1417 0.930 . S
H1476 C1419 0.930 . S
H1477 C1421 0.929 . S
H1478 C1422 0.930 . S
H1479 C1423 0.930 . S
H1480 C1426 0.930 . S
H1481 C1429 0.929 . S
H1482 C1434 0.929 . S
H1483 C1435 0.930 . S
H1484 C1442 0.929 . S
H1485 C1443 0.930 . S
H1486 C1444 0.930 . S
H1487 C1445 0.930 . S
H1488 C1447 0.929 . S
H1489 C1448 0.930 . S
H1490 C1449 0.930 . S
H1491 C1450 0.930 . S
H1492 C1454 0.929 . S
H1493 C1456 0.930 . S
H1494 C1462 0.929 . S
H1495 C1463 0.930 . S
Li1496 N1513 1.990 . S
Li1496 O1556 1.956 . S
Li1496 O1557 1.970 . S
Li1496 O1558 1.961 . S
Li1497 N1521 1.990 . S
Li1497 O1556 1.970 . S
Li1497 O1557 1.956 . S
Li1497 O1559 1.961 . S
Li1498 N1543 1.990 . S
Li1498 O1556 1.961 . S
Li1498 O1558 1.956 . S
Li1498 O1559 1.970 . S
Li1499 N1549 1.990 . S
Li1499 O1557 1.961 . S
Li1499 O1558 1.970 . S
Li1499 O1559 1.956 . S
C1500 C1502 1.348 . S
C1500 C1503 1.356 . S
C1500 O1556 1.325 . S
N1501 C1504 1.314 . S
N1501 C1505 1.279 . S
C1502 C1500 1.348 . S
C1502 C1504 1.353 . S
C1502 H1560 0.929 . S
C1503 C1500 1.356 . S
C1503 C1505 1.358 . S
C1503 H1561 0.930 . S
C1504 N1501 1.314 . S
C1504 C1502 1.353 . S
C1504 H1562 0.930 . S
C1505 N1501 1.279 . S
C1505 C1503 1.358 . S
C1505 H1563 0.930 . S
C1506 C1509 1.348 . S
C1506 C1510 1.356 . S
C1506 O1557 1.325 . S
C1507 N1508 1.279 . S
C1507 C1510 1.358 . S
C1507 H1564 0.930 . S
N1508 C1507 1.279 . S
N1508 C1511 1.314 . S
C1509 C1506 1.348 . S
C1509 C1511 1.353 . S
C1509 H1565 0.929 . S
C1510 C1506 1.356 . S
C1510 C1507 1.358 . S
C1510 H1566 0.930 . S
C1511 N1508 1.314 . S
C1511 C1509 1.353 . S
C1511 H1567 0.930 . S
C1512 N1513 1.314 . S
C1512 C1517 1.353 . S
C1512 H1518 0.930 . S
N1513 Li1496 1.990 . S
N1513 C1512 1.314 . S
N1513 C1515 1.279 . S
C1514 C1515 1.358 . S
C1514 C1516 1.356 . S
C1514 H1568 0.930 . S
C1515 N1513 1.279 . S
C1515 C1514 1.358 . S
C1515 H1519 0.930 . S
C1516 C1514 1.356 . S
C1516 C1517 1.348 . S
C1517 C1512 1.353 . S
C1517 C1516 1.348 . S
C1517 H1569 0.929 . S
H1518 C1512 0.930 . S
H1519 C1515 0.930 . S
C1520 N1521 1.314 . S
C1520 C1522 1.353 . S
C1520 H1526 0.930 . S
N1521 Li1497 1.990 . S
N1521 C1520 1.314 . S
N1521 C1524 1.279 . S
C1522 C1520 1.353 . S
C1522 C1525 1.348 . S
C1522 H1570 0.929 . S
C1523 C1524 1.358 . S
C1523 C1525 1.356 . S
C1523 H1571 0.930 . S
C1524 N1521 1.279 . S
C1524 C1523 1.358 . S
C1524 H1527 0.930 . S
C1525 C1522 1.348 . S
C1525 C1523 1.356 . S
H1526 C1520 0.930 . S
H1527 C1524 0.930 . S
C1528 C1530 1.348 . S
C1528 C1531 1.356 . S
C1528 O1558 1.325 . S
N1529 C1532 1.314 . S
N1529 C1533 1.279 . S
C1530 C1528 1.348 . S
C1530 C1532 1.353 . S
C1530 H1572 0.929 . S
C1531 C1528 1.356 . S
C1531 C1533 1.358 . S
C1531 H1573 0.930 . S
C1532 N1529 1.314 . S
C1532 C1530 1.353 . S
C1532 H1574 0.930 . S
C1533 N1529 1.279 . S
C1533 C1531 1.358 . S
C1533 H1575 0.930 . S
C1534 C1535 1.348 . S
C1534 C1536 1.356 . S
C1534 O1559 1.325 . S
C1535 C1534 1.348 . S
C1535 C1537 1.353 . S
C1535 H1576 0.929 . S
C1536 C1534 1.356 . S
C1536 C1538 1.358 . S
C1536 H1577 0.930 . S
C1537 C1535 1.353 . S
C1537 N1539 1.314 . S
C1537 H1578 0.930 . S
C1538 C1536 1.358 . S
C1538 N1539 1.279 . S
C1538 H1579 0.930 . S
N1539 C1537 1.314 . S
N1539 C1538 1.279 . S
C1540 C1542 1.353 . S
C1540 N1543 1.314 . S
C1540 H1546 0.930 . S
C1541 N1543 1.279 . S
C1541 C1544 1.358 . S
C1541 H1547 0.930 . S
C1542 C1540 1.353 . S
C1542 C1545 1.348 . S
C1542 H1580 0.929 . S
N1543 Li1498 1.990 . S
N1543 C1540 1.314 . S
N1543 C1541 1.279 . S
C1544 C1541 1.358 . S
C1544 C1545 1.356 . S
C1544 H1581 0.930 . S
C1545 C1542 1.348 . S
C1545 C1544 1.356 . S
H1546 C1540 0.930 . S
H1547 C1541 0.930 . S
C1548 N1549 1.314 . S
C1548 C1550 1.353 . S
C1548 H1554 0.930 . S
N1549 Li1499 1.990 . S
N1549 C1548 1.314 . S
N1549 C1552 1.279 . S
C1550 C1548 1.353 . S
C1550 C1553 1.348 . S
C1550 H1582 0.929 . S
C1551 C1552 1.358 . S
C1551 C1553 1.356 . S
C1551 H1583 0.930 . S
C1552 N1549 1.279 . S
C1552 C1551 1.358 . S
C1552 H1555 0.930 . S
C1553 C1550 1.348 . S
C1553 C1551 1.356 . S
H1554 C1548 0.930 . S
H1555 C1552 0.930 . S
O1556 Li1496 1.956 . S
O1556 Li1497 1.970 . S
O1556 Li1498 1.961 . S
O1556 C1500 1.325 . S
O1557 Li1496 1.970 . S
O1557 Li1497 1.956 . S
O1557 Li1499 1.961 . S
O1557 C1506 1.325 . S
O1558 Li1496 1.961 . S
O1558 Li1498 1.956 . S
O1558 Li1499 1.970 . S
O1558 C1528 1.325 . S
O1559 Li1497 1.961 . S
O1559 Li1498 1.970 . S
O1559 Li1499 1.956 . S
O1559 C1534 1.325 . S
H1560 C1502 0.929 . S
H1561 C1503 0.930 . S
H1562 C1504 0.930 . S
H1563 C1505 0.930 . S
H1564 C1507 0.930 . S
H1565 C1509 0.929 . S
H1566 C1510 0.930 . S
H1567 C1511 0.930 . S
H1568 C1514 0.930 . S
H1569 C1517 0.929 . S
H1570 C1522 0.929 . S
H1571 C1523 0.930 . S
H1572 C1530 0.929 . S
H1573 C1531 0.930 . S
H1574 C1532 0.930 . S
H1575 C1533 0.930 . S
H1576 C1535 0.929 . S
H1577 C1536 0.930 . S
H1578 C1537 0.930 . S
H1579 C1538 0.930 . S
H1580 C1542 0.929 . S
H1581 C1544 0.930 . S
H1582 C1550 0.929 . S
H1583 C1551 0.930 . S
Li1584 N1601 1.990 . S
Li1584 O1644 1.956 . S
Li1584 O1645 1.970 . S
Li1584 O1646 1.961 . S
Li1585 N1609 1.990 . S
Li1585 O1644 1.970 . S
Li1585 O1645 1.956 . S
Li1585 O1647 1.961 . S
Li1586 N1631 1.990 . S
Li1586 O1644 1.961 . S
Li1586 O1646 1.956 . S
Li1586 O1647 1.970 . S
Li1587 N1637 1.990 . S
Li1587 O1645 1.961 . S
Li1587 O1646 1.970 . S
Li1587 O1647 1.956 . S
C1588 C1590 1.348 . S
C1588 C1591 1.356 . S
C1588 O1644 1.325 . S
N1589 C1592 1.314 . S
N1589 C1593 1.279 . S
C1590 C1588 1.348 . S
C1590 C1592 1.353 . S
C1590 H1648 0.929 . S
C1591 C1588 1.356 . S
C1591 C1593 1.358 . S
C1591 H1649 0.930 . S
C1592 N1589 1.314 . S
C1592 C1590 1.353 . S
C1592 H1650 0.930 . S
C1593 N1589 1.279 . S
C1593 C1591 1.358 . S
C1593 H1651 0.930 . S
C1594 C1597 1.348 . S
C1594 C1598 1.356 . S
C1594 O1645 1.325 . S
C1595 N1596 1.279 . S
C1595 C1598 1.358 . S
C1595 H1652 0.930 . S
N1596 C1595 1.279 . S
N1596 C1599 1.314 . S
C1597 C1594 1.348 . S
C1597 C1599 1.353 . S
C1597 H1653 0.929 . S
C1598 C1594 1.356 . S
C1598 C1595 1.358 . S
C1598 H1654 0.930 . S
C1599 N1596 1.314 . S
C1599 C1597 1.353 . S
C1599 H1655 0.930 . S
C1600 N1601 1.314 . S
C1600 C1605 1.353 . S
C1600 H1606 0.930 . S
N1601 Li1584 1.990 . S
N1601 C1600 1.314 . S
N1601 C1603 1.279 . S
C1602 C1603 1.358 . S
C1602 C1604 1.356 . S
C1602 H1656 0.930 . S
C1603 N1601 1.279 . S
C1603 C1602 1.358 . S
C1603 H1607 0.930 . S
C1604 C1602 1.356 . S
C1604 C1605 1.348 . S
C1605 C1600 1.353 . S
C1605 C1604 1.348 . S
C1605 H1657 0.929 . S
H1606 C1600 0.930 . S
H1607 C1603 0.930 . S
C1608 N1609 1.314 . S
C1608 C1610 1.353 . S
C1608 H1614 0.930 . S
N1609 Li1585 1.990 . S
N1609 C1608 1.314 . S
N1609 C1612 1.279 . S
C1610 C1608 1.353 . S
C1610 C1613 1.348 . S
C1610 H1658 0.929 . S
C1611 C1612 1.358 . S
C1611 C1613 1.356 . S
C1611 H1659 0.930 . S
C1612 N1609 1.279 . S
C1612 C1611 1.358 . S
C1612 H1615 0.930 . S
C1613 C1610 1.348 . S
C1613 C1611 1.356 . S
H1614 C1608 0.930 . S
H1615 C1612 0.930 . S
C1616 C1618 1.348 . S
C1616 C1619 1.356 . S
C1616 O1646 1.325 . S
N1617 C1620 1.314 . S
N1617 C1621 1.279 . S
C1618 C1616 1.348 . S
C1618 C1620 1.353 . S
C1618 H1660 0.929 . S
C1619 C1616 1.356 . S
C1619 C1621 1.358 . S
C1619 H1661 0.930 . S
C1620 N1617 1.314 . S
C1620 C1618 1.353 . S
C1620 H1662 0.930 . S
C1621 N1617 1.279 . S
C1621 C1619 1.358 . S
C1621 H1663 0.930 . S
C1622 C1623 1.348 . S
C1622 C1624 1.356 . S
C1622 O1647 1.325 . S
C1623 C1622 1.348 . S
C1623 C1625 1.353 . S
C1623 H1664 0.929 . S
C1624 C1622 1.356 . S
C1624 C1626 1.358 . S
C1624 H1665 0.930 . S
C1625 C1623 1.353 . S
C1625 N1627 1.314 . S
C1625 H1666 0.930 . S
C1626 C1624 1.358 . S
C1626 N1627 1.279 . S
C1626 H1667 0.930 . S
N1627 C1625 1.314 . S
N1627 C1626 1.279 . S
C1628 C1630 1.353 . S
C1628 N1631 1.314 . S
C1628 H1634 0.930 . S
C1629 N1631 1.279 . S
C1629 C1632 1.358 . S
C1629 H1635 0.930 . S
C1630 C1628 1.353 . S
C1630 C1633 1.348 . S
C1630 H1668 0.929 . S
N1631 Li1586 1.990 . S
N1631 C1628 1.314 . S
N1631 C1629 1.279 . S
C1632 C1629 1.358 . S
C1632 C1633 1.356 . S
C1632 H1669 0.930 . S
C1633 C1630 1.348 . S
C1633 C1632 1.356 . S
H1634 C1628 0.930 . S
H1635 C1629 0.930 . S
C1636 N1637 1.314 . S
C1636 C1638 1.353 . S
C1636 H1642 0.930 . S
N1637 Li1587 1.990 . S
N1637 C1636 1.314 . S
N1637 C1640 1.279 . S
C1638 C1636 1.353 . S
C1638 C1641 1.348 . S
C1638 H1670 0.929 . S
C1639 C1640 1.358 . S
C1639 C1641 1.356 . S
C1639 H1671 0.930 . S
C1640 N1637 1.279 . S
C1640 C1639 1.358 . S
C1640 H1643 0.930 . S
C1641 C1638 1.348 . S
C1641 C1639 1.356 . S
H1642 C1636 0.930 . S
H1643 C1640 0.930 . S
O1644 Li1584 1.956 . S
O1644 Li1585 1.970 . S
O1644 Li1586 1.961 . S
O1644 C1588 1.325 . S
O1645 Li1584 1.970 . S
O1645 Li1585 1.956 . S
O1645 Li1587 1.961 . S
O1645 C1594 1.325 . S
O1646 Li1584 1.961 . S
O1646 Li1586 1.956 . S
O1646 Li1587 1.970 . S
O1646 C1616 1.325 . S
O1647 Li1585 1.961 . S
O1647 Li1586 1.970 . S
O1647 Li1587 1.956 . S
O1647 C1622 1.325 . S
H1648 C1590 0.929 . S
H1649 C1591 0.930 . S
H1650 C1592 0.930 . S
H1651 C1593 0.930 . S
H1652 C1595 0.930 . S
H1653 C1597 0.929 . S
H1654 C1598 0.930 . S
H1655 C1599 0.930 . S
H1656 C1602 0.930 . S
H1657 C1605 0.929 . S
H1658 C1610 0.929 . S
H1659 C1611 0.930 . S
H1660 C1618 0.929 . S
H1661 C1619 0.930 . S
H1662 C1620 0.930 . S
H1663 C1621 0.930 . S
H1664 C1623 0.929 . S
H1665 C1624 0.930 . S
H1666 C1625 0.930 . S
H1667 C1626 0.930 . S
H1668 C1630 0.929 . S
H1669 C1632 0.930 . S
H1670 C1638 0.929 . S
H1671 C1639 0.930 . S
Li1672 N1689 1.990 . S
Li1672 O1732 1.956 . S
Li1672 O1733 1.970 . S
Li1672 O1734 1.961 . S
Li1673 N1697 1.990 . S
Li1673 O1732 1.970 . S
Li1673 O1733 1.956 . S
Li1673 O1735 1.961 . S
Li1674 N1719 1.990 . S
Li1674 O1732 1.961 . S
Li1674 O1734 1.956 . S
Li1674 O1735 1.970 . S
Li1675 N1725 1.990 . S
Li1675 O1733 1.961 . S
Li1675 O1734 1.970 . S
Li1675 O1735 1.956 . S
C1676 C1678 1.348 . S
C1676 C1679 1.356 . S
C1676 O1732 1.325 . S
N1677 C1680 1.314 . S
N1677 C1681 1.279 . S
C1678 C1676 1.348 . S
C1678 C1680 1.353 . S
C1678 H1736 0.929 . S
C1679 C1676 1.356 . S
C1679 C1681 1.358 . S
C1679 H1737 0.930 . S
C1680 N1677 1.314 . S
C1680 C1678 1.353 . S
C1680 H1738 0.930 . S
C1681 N1677 1.279 . S
C1681 C1679 1.358 . S
C1681 H1739 0.930 . S
C1682 C1685 1.348 . S
C1682 C1686 1.356 . S
C1682 O1733 1.325 . S
C1683 N1684 1.279 . S
C1683 C1686 1.358 . S
C1683 H1740 0.930 . S
N1684 C1683 1.279 . S
N1684 C1687 1.314 . S
C1685 C1682 1.348 . S
C1685 C1687 1.353 . S
C1685 H1741 0.929 . S
C1686 C1682 1.356 . S
C1686 C1683 1.358 . S
C1686 H1742 0.930 . S
C1687 N1684 1.314 . S
C1687 C1685 1.353 . S
C1687 H1743 0.930 . S
C1688 N1689 1.314 . S
C1688 C1693 1.353 . S
C1688 H1694 0.930 . S
N1689 Li1672 1.990 . S
N1689 C1688 1.314 . S
N1689 C1691 1.279 . S
C1690 C1691 1.358 . S
C1690 C1692 1.356 . S
C1690 H1744 0.930 . S
C1691 N1689 1.279 . S
C1691 C1690 1.358 . S
C1691 H1695 0.930 . S
C1692 C1690 1.356 . S
C1692 C1693 1.348 . S
C1693 C1688 1.353 . S
C1693 C1692 1.348 . S
C1693 H1745 0.929 . S
H1694 C1688 0.930 . S
H1695 C1691 0.930 . S
C1696 N1697 1.314 . S
C1696 C1698 1.353 . S
C1696 H1702 0.930 . S
N1697 Li1673 1.990 . S
N1697 C1696 1.314 . S
N1697 C1700 1.279 . S
C1698 C1696 1.353 . S
C1698 C1701 1.348 . S
C1698 H1746 0.929 . S
C1699 C1700 1.358 . S
C1699 C1701 1.356 . S
C1699 H1747 0.930 . S
C1700 N1697 1.279 . S
C1700 C1699 1.358 . S
C1700 H1703 0.930 . S
C1701 C1698 1.348 . S
C1701 C1699 1.356 . S
H1702 C1696 0.930 . S
H1703 C1700 0.930 . S
C1704 C1706 1.304 1_545 S
C1704 C1707 1.372 1_545 S
C1704 O1734 1.361 . S
N1705 C1708 1.314 . S
N1705 C1709 1.279 . S
C1706 C1704 1.304 1_565 S
C1706 C1708 1.353 . S
C1706 H1748 0.929 . S
C1707 C1704 1.372 1_565 S
C1707 C1709 1.396 . S
C1707 H1749 0.885 1_565 S
C1708 N1705 1.314 . S
C1708 C1706 1.353 . S
C1708 H1750 0.930 . S
C1709 N1705 1.279 . S
C1709 C1707 1.396 . S
C1709 H1751 0.930 . S
C1710 C1711 1.348 . S
C1710 C1712 1.356 . S
C1710 O1735 1.325 . S
C1711 C1710 1.348 . S
C1711 C1713 1.353 . S
C1711 H1752 0.929 . S
C1712 C1710 1.356 . S
C1712 C1714 1.358 . S
C1712 H1753 0.930 . S
C1713 C1711 1.353 . S
C1713 N1715 1.314 . S
C1713 H1754 0.930 . S
C1714 C1712 1.358 . S
C1714 N1715 1.279 . S
C1714 H1755 0.930 . S
N1715 C1713 1.314 . S
N1715 C1714 1.279 . S
C1716 C1718 1.353 . S
C1716 N1719 1.314 . S
C1716 H1722 0.930 . S
C1717 N1719 1.279 . S
C1717 C1720 1.358 . S
C1717 H1723 0.930 . S
C1718 C1716 1.353 . S
C1718 C1721 1.348 . S
C1718 H1756 0.929 . S
N1719 Li1674 1.990 . S
N1719 C1716 1.314 . S
N1719 C1717 1.279 . S
C1720 C1717 1.358 . S
C1720 C1721 1.356 . S
C1720 H1757 0.930 1_545 S
C1721 C1718 1.348 . S
C1721 C1720 1.356 . S
H1722 C1716 0.930 . S
H1723 C1717 0.930 . S
C1724 N1725 1.314 1_565 S
C1724 C1726 1.353 . S
C1724 H1730 0.930 . S
N1725 Li1675 1.990 . S
N1725 C1724 1.314 1_545 S
N1725 C1728 1.279 1_545 S
C1726 C1724 1.353 . S
C1726 C1729 1.348 . S
C1726 H1758 0.929 . S
C1727 C1728 1.358 . S
C1727 C1729 1.356 . S
C1727 H1759 0.930 . S
C1728 N1725 1.279 1_565 S
C1728 C1727 1.358 . S
C1728 H1731 0.930 1_565 S
C1729 C1726 1.348 . S
C1729 C1727 1.356 . S
H1730 C1724 0.930 . S
H1731 C1728 0.930 1_545 S
O1732 Li1672 1.956 . S
O1732 Li1673 1.970 . S
O1732 Li1674 1.961 . S
O1732 C1676 1.325 . S
O1733 Li1672 1.970 . S
O1733 Li1673 1.956 . S
O1733 Li1675 1.961 . S
O1733 C1682 1.325 . S
O1734 Li1672 1.961 . S
O1734 Li1674 1.956 . S
O1734 Li1675 1.970 . S
O1734 C1704 1.361 . S
O1735 Li1673 1.961 . S
O1735 Li1674 1.970 . S
O1735 Li1675 1.956 . S
O1735 C1710 1.325 . S
H1736 C1678 0.929 . S
H1737 C1679 0.930 . S
H1738 C1680 0.930 . S
H1739 C1681 0.930 . S
H1740 C1683 0.930 . S
H1741 C1685 0.929 . S
H1742 C1686 0.930 . S
H1743 C1687 0.930 . S
H1744 C1690 0.930 . S
H1745 C1693 0.929 . S
H1746 C1698 0.929 . S
H1747 C1699 0.930 . S
H1748 C1706 0.929 . S
H1749 C1707 0.885 1_545 S
H1750 C1708 0.930 . S
H1751 C1709 0.930 . S
H1752 C1711 0.929 . S
H1753 C1712 0.930 . S
H1754 C1713 0.930 . S
H1755 C1714 0.930 . S
H1756 C1718 0.929 . S
H1757 C1720 0.930 1_565 S
H1758 C1726 0.929 . S
H1759 C1727 0.930 . S
Li1760 N1777 1.990 . S
Li1760 O1820 1.956 . S
Li1760 O1821 1.970 . S
Li1760 O1822 1.961 . S
Li1761 N1785 1.989 . S
Li1761 O1820 1.975 1_556 S
Li1761 O1821 1.930 1_556 S
Li1761 O1823 1.987 . S
Li1762 N1807 1.990 . S
Li1762 O1820 1.961 1_556 S
Li1762 O1822 1.956 1_556 S
Li1762 O1823 1.970 . S
Li1763 N1813 1.990 . S
Li1763 O1821 1.961 1_556 S
Li1763 O1822 1.970 1_556 S
Li1763 O1823 1.956 . S
C1764 C1766 1.348 . S
C1764 C1767 1.356 . S
C1764 O1820 1.325 . S
N1765 C1768 1.314 . S
N1765 C1769 1.279 . S
C1766 C1764 1.348 . S
C1766 C1768 1.353 . S
C1766 H1824 0.929 . S
C1767 C1764 1.356 . S
C1767 C1769 1.358 . S
C1767 H1825 0.930 . S
C1768 N1765 1.314 . S
C1768 C1766 1.353 . S
C1768 H1826 0.930 . S
C1769 N1765 1.279 . S
C1769 C1767 1.358 . S
C1769 H1827 0.930 . S
C1770 C1773 1.348 . S
C1770 C1774 1.356 . S
C1770 O1821 1.325 . S
C1771 N1772 1.279 . S
C1771 C1774 1.358 . S
C1771 H1828 0.930 . S
N1772 C1771 1.279 . S
N1772 C1775 1.314 . S
C1773 C1770 1.348 . S
C1773 C1775 1.353 . S
C1773 H1829 0.929 . S
C1774 C1770 1.356 . S
C1774 C1771 1.358 . S
C1774 H1830 0.930 . S
C1775 N1772 1.314 . S
C1775 C1773 1.353 . S
C1775 H1831 0.930 . S
C1776 N1777 1.314 . S
C1776 C1781 1.353 . S
C1776 H1782 0.930 . S
N1777 Li1760 1.990 . S
N1777 C1776 1.314 . S
N1777 C1779 1.279 . S
C1778 C1779 1.358 . S
C1778 C1780 1.356 . S
C1778 H1832 0.930 . S
C1779 N1777 1.279 . S
C1779 C1778 1.358 . S
C1779 H1783 0.930 . S
C1780 C1778 1.356 . S
C1780 C1781 1.348 . S
C1781 C1776 1.353 . S
C1781 C1780 1.348 . S
C1781 H1833 0.929 . S
H1782 C1776 0.930 . S
H1783 C1779 0.930 . S
C1784 N1785 1.314 . S
C1784 C1786 1.353 . S
C1784 H1790 0.930 . S
N1785 Li1761 1.989 . S
N1785 C1784 1.314 . S
N1785 C1788 1.279 1_556 S
C1786 C1784 1.353 . S
C1786 C1789 1.348 . S
C1786 H1834 0.929 . S
C1787 C1788 1.358 . S
C1787 C1789 1.356 1_554 S
C1787 H1835 0.930 . S
C1788 N1785 1.279 1_554 S
C1788 C1787 1.358 . S
C1788 H1791 0.930 . S
C1789 C1786 1.348 . S
C1789 C1787 1.356 1_556 S
H1790 C1784 0.930 . S
H1791 C1788 0.930 . S
C1792 C1794 1.348 1_554 S
C1792 C1795 1.356 . S
C1792 O1822 1.325 . S
N1793 C1796 1.314 1_554 S
N1793 C1797 1.279 . S
C1794 C1792 1.348 1_556 S
C1794 C1796 1.353 . S
C1794 H1836 0.929 . S
C1795 C1792 1.356 . S
C1795 C1797 1.358 . S
C1795 H1837 0.930 . S
C1796 N1793 1.314 1_556 S
C1796 C1794 1.353 . S
C1796 H1838 0.930 . S
C1797 N1793 1.279 . S
C1797 C1795 1.358 . S
C1797 H1839 0.930 . S
C1798 C1799 1.348 . S
C1798 C1800 1.356 . S
C1798 O1823 1.325 . S
C1799 C1798 1.348 . S
C1799 C1801 1.353 . S
C1799 H1840 0.929 . S
C1800 C1798 1.356 . S
C1800 C1802 1.358 . S
C1800 H1841 0.930 . S
C1801 C1799 1.353 . S
C1801 N1803 1.314 . S
C1801 H1842 0.930 . S
C1802 C1800 1.358 . S
C1802 N1803 1.279 . S
C1802 H1843 0.930 . S
N1803 C1801 1.314 . S
N1803 C1802 1.279 . S
C1804 C1806 1.353 . S
C1804 N1807 1.314 . S
C1804 H1810 0.930 . S
C1805 N1807 1.279 . S
C1805 C1808 1.358 . S
C1805 H1811 0.930 . S
C1806 C1804 1.353 . S
C1806 C1809 1.348 . S
C1806 H1844 0.929 . S
N1807 Li1762 1.990 . S
N1807 C1804 1.314 . S
N1807 C1805 1.279 . S
C1808 C1805 1.358 . S
C1808 C1809 1.356 . S
C1808 H1845 0.930 . S
C1809 C1806 1.348 . S
C1809 C1808 1.356 . S
H1810 C1804 0.930 . S
H1811 C1805 0.930 . S
C1812 N1813 1.314 1_554 S
C1812 C1814 1.353 . S
C1812 H1818 0.930 . S
N1813 Li1763 1.990 . S
N1813 C1812 1.314 1_556 S
N1813 C1816 1.279 . S
C1814 C1812 1.353 . S
C1814 C1817 1.348 1_554 S
C1814 H1846 0.929 . S
C1815 C1816 1.358 . S
C1815 C1817 1.356 . S
C1815 H1847 0.930 . S
C1816 N1813 1.279 . S
C1816 C1815 1.358 . S
C1816 H1819 0.930 . S
C1817 C1814 1.348 1_556 S
C1817 C1815 1.356 . S
H1818 C1812 0.930 . S
H1819 C1816 0.930 . S
O1820 Li1760 1.956 . S
O1820 Li1761 1.975 1_554 S
O1820 Li1762 1.961 1_554 S
O1820 C1764 1.325 . S
O1821 Li1760 1.970 . S
O1821 Li1761 1.930 1_554 S
O1821 Li1763 1.961 1_554 S
O1821 C1770 1.325 . S
O1822 Li1760 1.961 . S
O1822 Li1762 1.956 1_554 S
O1822 Li1763 1.970 1_554 S
O1822 C1792 1.325 . S
O1823 Li1761 1.987 . S
O1823 Li1762 1.970 . S
O1823 Li1763 1.956 . S
O1823 C1798 1.325 . S
H1824 C1766 0.929 . S
H1825 C1767 0.930 . S
H1826 C1768 0.930 . S
H1827 C1769 0.930 . S
H1828 C1771 0.930 . S
H1829 C1773 0.929 . S
H1830 C1774 0.930 . S
H1831 C1775 0.930 . S
H1832 C1778 0.930 . S
H1833 C1781 0.929 . S
H1834 C1786 0.929 . S
H1835 C1787 0.930 . S
H1836 C1794 0.929 . S
H1837 C1795 0.930 . S
H1838 C1796 0.930 . S
H1839 C1797 0.930 . S
H1840 C1799 0.929 . S
H1841 C1800 0.930 . S
H1842 C1801 0.930 . S
H1843 C1802 0.930 . S
H1844 C1806 0.929 . S
H1845 C1808 0.930 . S
H1846 C1814 0.929 . S
H1847 C1815 0.930 . S
Li1848 N1865 1.990 . S
Li1848 O1908 1.956 . S
Li1848 O1909 1.970 . S
Li1848 O1910 1.961 . S
Li1849 N1873 1.990 . S
Li1849 O1908 1.970 . S
Li1849 O1909 1.956 . S
Li1849 O1911 1.961 . S
Li1850 N1895 1.990 . S
Li1850 O1908 1.961 . S
Li1850 O1910 1.956 . S
Li1850 O1911 1.970 . S
Li1851 N1901 1.990 . S
Li1851 O1909 1.961 . S
Li1851 O1910 1.970 . S
Li1851 O1911 1.956 . S
C1852 C1854 1.348 . S
C1852 C1855 1.356 . S
C1852 O1908 1.325 . S
N1853 C1856 1.314 . S
N1853 C1857 1.279 . S
C1854 C1852 1.348 . S
C1854 C1856 1.353 . S
C1854 H1912 0.929 . S
C1855 C1852 1.356 . S
C1855 C1857 1.358 . S
C1855 H1913 0.930 . S
C1856 N1853 1.314 . S
C1856 C1854 1.353 . S
C1856 H1914 0.930 . S
C1857 N1853 1.279 . S
C1857 C1855 1.358 . S
C1857 H1915 0.930 . S
C1858 C1861 1.348 . S
C1858 C1862 1.356 . S
C1858 O1909 1.325 . S
C1859 N1860 1.279 . S
C1859 C1862 1.358 . S
C1859 H1916 0.930 . S
N1860 C1859 1.279 . S
N1860 C1863 1.314 . S
C1861 C1858 1.348 . S
C1861 C1863 1.353 . S
C1861 H1917 0.929 . S
C1862 C1858 1.356 . S
C1862 C1859 1.358 . S
C1862 H1918 0.930 . S
C1863 N1860 1.314 . S
C1863 C1861 1.353 . S
C1863 H1919 0.930 . S
C1864 N1865 1.314 . S
C1864 C1869 1.353 . S
C1864 H1870 0.930 . S
N1865 Li1848 1.990 . S
N1865 C1864 1.314 . S
N1865 C1867 1.279 . S
C1866 C1867 1.358 . S
C1866 C1868 1.356 . S
C1866 H1920 0.930 . S
C1867 N1865 1.279 . S
C1867 C1866 1.358 . S
C1867 H1871 0.930 . S
C1868 C1866 1.356 . S
C1868 C1869 1.348 . S
C1869 C1864 1.353 . S
C1869 C1868 1.348 . S
C1869 H1921 0.929 . S
H1870 C1864 0.930 . S
H1871 C1867 0.930 . S
C1872 N1873 1.314 . S
C1872 C1874 1.353 . S
C1872 H1878 0.930 . S
N1873 Li1849 1.990 . S
N1873 C1872 1.314 . S
N1873 C1876 1.279 . S
C1874 C1872 1.353 . S
C1874 C1877 1.348 . S
C1874 H1922 0.929 . S
C1875 C1876 1.358 . S
C1875 C1877 1.356 . S
C1875 H1923 0.930 . S
C1876 N1873 1.279 . S
C1876 C1875 1.358 . S
C1876 H1879 0.930 . S
C1877 C1874 1.348 . S
C1877 C1875 1.356 . S
H1878 C1872 0.930 . S
H1879 C1876 0.930 . S
C1880 C1882 1.348 . S
C1880 C1883 1.356 . S
C1880 O1910 1.325 . S
N1881 C1884 1.314 . S
N1881 C1885 1.279 . S
C1882 C1880 1.348 . S
C1882 C1884 1.353 . S
C1882 H1924 0.929 . S
C1883 C1880 1.356 . S
C1883 C1885 1.358 . S
C1883 H1925 0.930 . S
C1884 N1881 1.314 . S
C1884 C1882 1.353 . S
C1884 H1926 0.930 . S
C1885 N1881 1.279 . S
C1885 C1883 1.358 . S
C1885 H1927 0.930 . S
C1886 C1887 1.348 . S
C1886 C1888 1.356 . S
C1886 O1911 1.325 . S
C1887 C1886 1.348 . S
C1887 C1889 1.353 . S
C1887 H1928 0.929 . S
C1888 C1886 1.356 . S
C1888 C1890 1.358 . S
C1888 H1929 0.930 . S
C1889 C1887 1.353 . S
C1889 N1891 1.314 . S
C1889 H1930 0.930 . S
C1890 C1888 1.358 . S
C1890 N1891 1.279 . S
C1890 H1931 0.930 1_655 S
N1891 C1889 1.314 . S
N1891 C1890 1.279 . S
C1892 C1894 1.353 . S
C1892 N1895 1.314 . S
C1892 H1898 0.930 . S
C1893 N1895 1.279 . S
C1893 C1896 1.358 . S
C1893 H1899 0.930 . S
C1894 C1892 1.353 . S
C1894 C1897 1.348 . S
C1894 H1932 0.929 . S
N1895 Li1850 1.990 . S
N1895 C1892 1.314 . S
N1895 C1893 1.279 . S
C1896 C1893 1.358 . S
C1896 C1897 1.356 . S
C1896 H1933 0.930 . S
C1897 C1894 1.348 . S
C1897 C1896 1.356 . S
H1898 C1892 0.930 . S
H1899 C1893 0.930 . S
C1900 N1901 1.314 . S
C1900 C1902 1.353 . S
C1900 H1906 0.930 . S
N1901 Li1851 1.990 . S
N1901 C1900 1.314 . S
N1901 C1904 1.279 . S
C1902 C1900 1.353 . S
C1902 C1905 1.348 . S
C1902 H1934 0.929 . S
C1903 C1904 1.358 . S
C1903 C1905 1.356 . S
C1903 H1935 0.930 . S
C1904 N1901 1.279 . S
C1904 C1903 1.358 . S
C1904 H1907 0.930 . S
C1905 C1902 1.348 . S
C1905 C1903 1.356 . S
H1906 C1900 0.930 . S
H1907 C1904 0.930 . S
O1908 Li1848 1.956 . S
O1908 Li1849 1.970 . S
O1908 Li1850 1.961 . S
O1908 C1852 1.325 . S
O1909 Li1848 1.970 . S
O1909 Li1849 1.956 . S
O1909 Li1851 1.961 . S
O1909 C1858 1.325 . S
O1910 Li1848 1.961 . S
O1910 Li1850 1.956 . S
O1910 Li1851 1.970 . S
O1910 C1880 1.325 . S
O1911 Li1849 1.961 . S
O1911 Li1850 1.970 . S
O1911 Li1851 1.956 . S
O1911 C1886 1.325 . S
H1912 C1854 0.929 . S
H1913 C1855 0.930 . S
H1914 C1856 0.930 . S
H1915 C1857 0.930 . S
H1916 C1859 0.930 . S
H1917 C1861 0.929 . S
H1918 C1862 0.930 . S
H1919 C1863 0.930 . S
H1920 C1866 0.930 . S
H1921 C1869 0.929 . S
H1922 C1874 0.929 . S
H1923 C1875 0.930 . S
H1924 C1882 0.929 . S
H1925 C1883 0.930 . S
H1926 C1884 0.930 . S
H1927 C1885 0.930 . S
H1928 C1887 0.929 . S
H1929 C1888 0.930 . S
H1930 C1889 0.930 . S
H1931 C1890 0.930 1_455 S
H1932 C1894 0.929 . S
H1933 C1896 0.930 . S
H1934 C1902 0.929 . S
H1935 C1903 0.930 . S
Li1936 N1953 1.990 . S
Li1936 O1996 1.956 . S
Li1936 O1997 1.970 . S
Li1936 O1998 1.961 . S
Li1937 N1961 1.990 . S
Li1937 O1996 1.970 . S
Li1937 O1997 1.956 . S
Li1937 O1999 1.961 . S
Li1938 N1983 1.990 . S
Li1938 O1996 1.961 . S
Li1938 O1998 1.956 . S
Li1938 O1999 1.970 . S
Li1939 N1989 1.990 . S
Li1939 O1997 1.961 . S
Li1939 O1998 1.970 . S
Li1939 O1999 1.956 . S
C1940 C1942 1.348 . S
C1940 C1943 1.356 . S
C1940 O1996 1.325 . S
N1941 C1944 1.314 . S
N1941 C1945 1.279 . S
C1942 C1940 1.348 . S
C1942 C1944 1.353 . S
C1942 H2000 0.929 . S
C1943 C1940 1.356 . S
C1943 C1945 1.358 . S
C1943 H2001 0.930 . S
C1944 N1941 1.314 . S
C1944 C1942 1.353 . S
C1944 H2002 0.930 . S
C1945 N1941 1.279 . S
C1945 C1943 1.358 . S
C1945 H2003 0.930 . S
C1946 C1949 1.348 . S
C1946 C1950 1.356 . S
C1946 O1997 1.325 . S
C1947 N1948 1.279 . S
C1947 C1950 1.358 . S
C1947 H2004 0.930 . S
N1948 C1947 1.279 . S
N1948 C1951 1.314 . S
C1949 C1946 1.348 . S
C1949 C1951 1.353 . S
C1949 H2005 0.929 . S
C1950 C1946 1.356 . S
C1950 C1947 1.358 . S
C1950 H2006 0.930 . S
C1951 N1948 1.314 . S
C1951 C1949 1.353 . S
C1951 H2007 0.930 . S
C1952 N1953 1.314 . S
C1952 C1957 1.353 . S
C1952 H1958 0.930 . S
N1953 Li1936 1.990 . S
N1953 C1952 1.314 . S
N1953 C1955 1.279 . S
C1954 C1955 1.358 . S
C1954 C1956 1.356 . S
C1954 H2008 0.930 . S
C1955 N1953 1.279 . S
C1955 C1954 1.358 . S
C1955 H1959 0.930 . S
C1956 C1954 1.356 . S
C1956 C1957 1.348 . S
C1957 C1952 1.353 . S
C1957 C1956 1.348 . S
C1957 H2009 0.929 . S
H1958 C1952 0.930 . S
H1959 C1955 0.930 . S
C1960 N1961 1.314 . S
C1960 C1962 1.353 . S
C1960 H1966 0.930 . S
N1961 Li1937 1.990 . S
N1961 C1960 1.314 . S
N1961 C1964 1.279 . S
C1962 C1960 1.353 . S
C1962 C1965 1.348 . S
C1962 H2010 0.929 . S
C1963 C1964 1.358 . S
C1963 C1965 1.356 . S
C1963 H2011 0.930 . S
C1964 N1961 1.279 . S
C1964 C1963 1.358 . S
C1964 H1967 0.930 . S
C1965 C1962 1.348 . S
C1965 C1963 1.356 . S
H1966 C1960 0.930 . S
H1967 C1964 0.930 . S
C1968 C1970 1.348 . S
C1968 C1971 1.356 . S
C1968 O1998 1.325 . S
N1969 C1972 1.314 . S
N1969 C1973 1.279 . S
C1970 C1968 1.348 . S
C1970 C1972 1.353 . S
C1970 H2012 0.929 . S
C1971 C1968 1.356 . S
C1971 C1973 1.358 . S
C1971 H2013 0.930 . S
C1972 N1969 1.314 . S
C1972 C1970 1.353 . S
C1972 H2014 0.930 . S
C1973 N1969 1.279 . S
C1973 C1971 1.358 . S
C1973 H2015 0.930 . S
C1974 C1975 1.348 . S
C1974 C1976 1.356 . S
C1974 O1999 1.325 . S
C1975 C1974 1.348 . S
C1975 C1977 1.353 . S
C1975 H2016 0.929 . S
C1976 C1974 1.356 . S
C1976 C1978 1.358 . S
C1976 H2017 0.930 . S
C1977 C1975 1.353 . S
C1977 N1979 1.314 . S
C1977 H2018 0.930 . S
C1978 C1976 1.358 . S
C1978 N1979 1.279 . S
C1978 H2019 0.930 . S
N1979 C1977 1.314 . S
N1979 C1978 1.279 . S
C1980 C1982 1.353 . S
C1980 N1983 1.314 . S
C1980 H1986 0.930 . S
C1981 N1983 1.279 . S
C1981 C1984 1.358 . S
C1981 H1987 0.930 . S
C1982 C1980 1.353 . S
C1982 C1985 1.348 . S
C1982 H2020 0.929 . S
N1983 Li1938 1.990 . S
N1983 C1980 1.314 . S
N1983 C1981 1.279 . S
C1984 C1981 1.358 . S
C1984 C1985 1.356 . S
C1984 H2021 0.930 . S
C1985 C1982 1.348 . S
C1985 C1984 1.356 . S
H1986 C1980 0.930 . S
H1987 C1981 0.930 . S
C1988 N1989 1.314 . S
C1988 C1990 1.353 . S
C1988 H1994 0.930 . S
N1989 Li1939 1.990 . S
N1989 C1988 1.314 . S
N1989 C1992 1.279 . S
C1990 C1988 1.353 . S
C1990 C1993 1.348 . S
C1990 H2022 0.929 . S
C1991 C1992 1.358 . S
C1991 C1993 1.356 . S
C1991 H2023 0.930 . S
C1992 N1989 1.279 . S
C1992 C1991 1.358 . S
C1992 H1995 0.930 . S
C1993 C1990 1.348 . S
C1993 C1991 1.356 . S
H1994 C1988 0.930 . S
H1995 C1992 0.930 . S
O1996 Li1936 1.956 . S
O1996 Li1937 1.970 . S
O1996 Li1938 1.961 . S
O1996 C1940 1.325 . S
O1997 Li1936 1.970 . S
O1997 Li1937 1.956 . S
O1997 Li1939 1.961 . S
O1997 C1946 1.325 . S
O1998 Li1936 1.961 . S
O1998 Li1938 1.956 . S
O1998 Li1939 1.970 . S
O1998 C1968 1.325 . S
O1999 Li1937 1.961 . S
O1999 Li1938 1.970 . S
O1999 Li1939 1.956 . S
O1999 C1974 1.325 . S
H2000 C1942 0.929 . S
H2001 C1943 0.930 . S
H2002 C1944 0.930 . S
H2003 C1945 0.930 . S
H2004 C1947 0.930 . S
H2005 C1949 0.929 . S
H2006 C1950 0.930 . S
H2007 C1951 0.930 . S
H2008 C1954 0.930 . S
H2009 C1957 0.929 . S
H2010 C1962 0.929 . S
H2011 C1963 0.930 . S
H2012 C1970 0.929 . S
H2013 C1971 0.930 . S
H2014 C1972 0.930 . S
H2015 C1973 0.930 . S
H2016 C1975 0.929 . S
H2017 C1976 0.930 . S
H2018 C1977 0.930 . S
H2019 C1978 0.930 . S
H2020 C1982 0.929 . S
H2021 C1984 0.930 . S
H2022 C1990 0.929 . S
H2023 C1991 0.930 . S
Li2024 N2041 1.990 . S
Li2024 O2084 1.956 . S
Li2024 O2085 1.970 . S
Li2024 O2086 1.961 . S
Li2025 N2049 1.990 . S
Li2025 O2084 1.970 . S
Li2025 O2085 1.956 . S
Li2025 O2087 1.961 . S
Li2026 N2071 1.990 . S
Li2026 O2084 1.961 . S
Li2026 O2086 1.956 . S
Li2026 O2087 1.970 . S
Li2027 N2077 1.990 . S
Li2027 O2085 1.961 . S
Li2027 O2086 1.970 . S
Li2027 O2087 1.956 . S
C2028 C2030 1.348 . S
C2028 C2031 1.356 . S
C2028 O2084 1.325 . S
N2029 C2032 1.314 . S
N2029 C2033 1.279 . S
C2030 C2028 1.348 . S
C2030 C2032 1.353 . S
C2030 H2088 0.929 . S
C2031 C2028 1.356 . S
C2031 C2033 1.358 . S
C2031 H2089 0.930 . S
C2032 N2029 1.314 . S
C2032 C2030 1.353 . S
C2032 H2090 0.930 . S
C2033 N2029 1.279 . S
C2033 C2031 1.358 . S
C2033 H2091 0.930 . S
C2034 C2037 1.348 . S
C2034 C2038 1.356 . S
C2034 O2085 1.325 . S
C2035 N2036 1.279 . S
C2035 C2038 1.358 . S
C2035 H2092 0.930 . S
N2036 C2035 1.279 . S
N2036 C2039 1.314 . S
C2037 C2034 1.348 . S
C2037 C2039 1.353 . S
C2037 H2093 0.929 . S
C2038 C2034 1.356 . S
C2038 C2035 1.358 . S
C2038 H2094 0.930 . S
C2039 N2036 1.314 . S
C2039 C2037 1.353 . S
C2039 H2095 0.930 . S
C2040 N2041 1.314 . S
C2040 C2045 1.353 . S
C2040 H2046 0.930 . S
N2041 Li2024 1.990 . S
N2041 C2040 1.314 . S
N2041 C2043 1.279 . S
C2042 C2043 1.358 . S
C2042 C2044 1.356 . S
C2042 H2096 0.930 . S
C2043 N2041 1.279 . S
C2043 C2042 1.358 . S
C2043 H2047 0.930 . S
C2044 C2042 1.356 . S
C2044 C2045 1.348 . S
C2045 C2040 1.353 . S
C2045 C2044 1.348 . S
C2045 H2097 0.929 . S
H2046 C2040 0.930 . S
H2047 C2043 0.930 . S
C2048 N2049 1.314 . S
C2048 C2050 1.353 . S
C2048 H2054 0.930 . S
N2049 Li2025 1.990 . S
N2049 C2048 1.314 . S
N2049 C2052 1.279 . S
C2050 C2048 1.353 . S
C2050 C2053 1.348 . S
C2050 H2098 0.929 . S
C2051 C2052 1.358 . S
C2051 C2053 1.356 . S
C2051 H2099 0.930 . S
C2052 N2049 1.279 . S
C2052 C2051 1.358 . S
C2052 H2055 0.930 . S
C2053 C2050 1.348 . S
C2053 C2051 1.356 . S
H2054 C2048 0.930 . S
H2055 C2052 0.930 . S
C2056 C2058 1.348 . S
C2056 C2059 1.356 . S
C2056 O2086 1.325 . S
N2057 C2060 1.314 . S
N2057 C2061 1.279 . S
C2058 C2056 1.348 . S
C2058 C2060 1.353 . S
C2058 H2100 0.929 . S
C2059 C2056 1.356 . S
C2059 C2061 1.358 . S
C2059 H2101 0.930 . S
C2060 N2057 1.314 . S
C2060 C2058 1.353 . S
C2060 H2102 0.930 . S
C2061 N2057 1.279 . S
C2061 C2059 1.358 . S
C2061 H2103 0.930 . S
C2062 C2063 1.348 . S
C2062 C2064 1.356 . S
C2062 O2087 1.325 . S
C2063 C2062 1.348 . S
C2063 C2065 1.353 . S
C2063 H2104 0.929 . S
C2064 C2062 1.356 . S
C2064 C2066 1.358 . S
C2064 H2105 0.930 . S
C2065 C2063 1.353 . S
C2065 N2067 1.314 . S
C2065 H2106 0.930 . S
C2066 C2064 1.358 . S
C2066 N2067 1.279 . S
C2066 H2107 0.930 . S
N2067 C2065 1.314 . S
N2067 C2066 1.279 . S
C2068 C2070 1.353 . S
C2068 N2071 1.314 . S
C2068 H2074 0.930 . S
C2069 N2071 1.279 . S
C2069 C2072 1.358 . S
C2069 H2075 0.930 . S
C2070 C2068 1.353 . S
C2070 C2073 1.348 . S
C2070 H2108 0.929 . S
N2071 Li2026 1.990 . S
N2071 C2068 1.314 . S
N2071 C2069 1.279 . S
C2072 C2069 1.358 . S
C2072 C2073 1.356 . S
C2072 H2109 0.930 . S
C2073 C2070 1.348 . S
C2073 C2072 1.356 . S
H2074 C2068 0.930 . S
H2075 C2069 0.930 . S
C2076 N2077 1.314 . S
C2076 C2078 1.353 . S
C2076 H2082 0.930 . S
N2077 Li2027 1.990 . S
N2077 C2076 1.314 . S
N2077 C2080 1.279 . S
C2078 C2076 1.353 . S
C2078 C2081 1.348 . S
C2078 H2110 0.929 . S
C2079 C2080 1.358 . S
C2079 C2081 1.356 . S
C2079 H2111 0.930 . S
C2080 N2077 1.279 . S
C2080 C2079 1.358 . S
C2080 H2083 0.930 . S
C2081 C2078 1.348 . S
C2081 C2079 1.356 . S
H2082 C2076 0.930 . S
H2083 C2080 0.930 . S
O2084 Li2024 1.956 . S
O2084 Li2025 1.970 . S
O2084 Li2026 1.961 . S
O2084 C2028 1.325 . S
O2085 Li2024 1.970 . S
O2085 Li2025 1.956 . S
O2085 Li2027 1.961 . S
O2085 C2034 1.325 . S
O2086 Li2024 1.961 . S
O2086 Li2026 1.956 . S
O2086 Li2027 1.970 . S
O2086 C2056 1.325 . S
O2087 Li2025 1.961 . S
O2087 Li2026 1.970 . S
O2087 Li2027 1.956 . S
O2087 C2062 1.325 . S
H2088 C2030 0.929 . S
H2089 C2031 0.930 . S
H2090 C2032 0.930 . S
H2091 C2033 0.930 . S
H2092 C2035 0.930 . S
H2093 C2037 0.929 . S
H2094 C2038 0.930 . S
H2095 C2039 0.930 . S
H2096 C2042 0.930 . S
H2097 C2045 0.929 . S
H2098 C2050 0.929 . S
H2099 C2051 0.930 . S
H2100 C2058 0.929 . S
H2101 C2059 0.930 . S
H2102 C2060 0.930 . S
H2103 C2061 0.930 . S
H2104 C2063 0.929 . S
H2105 C2064 0.930 . S
H2106 C2065 0.930 . S
H2107 C2066 0.930 . S
H2108 C2070 0.929 . S
H2109 C2072 0.930 . S
H2110 C2078 0.929 . S
H2111 C2079 0.930 . S
Tb2112 N2143 2.660 1_545 S
Tb2112 N2150 2.600 1_544 S
Tb2112 O2156 2.546 1_454 S
Tb2112 O2157 2.610 . S
Tb2112 O2159 2.320 . S
Tb2112 O2160 2.544 1_554 S
Tb2112 O2161 2.413 1_455 S
Tb2112 O2163 2.362 . S
Tb2112 O2164 2.421 1_554 S
Tb2112 C2176 2.833 1_454 S
C2113 C2116 1.432 . S
C2113 C2117 1.414 . S
C2113 N2120 1.359 . S
C2114 C2116 1.417 . S
C2114 C2118 1.432 . S
C2114 C2126 1.410 1_554 S
C2115 C2117 1.444 . S
C2115 C2118 1.317 . S
C2115 H2138 0.929 . S
C2116 C2113 1.432 . S
C2116 C2114 1.417 . S
C2116 N2124 1.360 . S
C2117 C2113 1.414 . S
C2117 C2115 1.444 . S
C2117 C2122 1.385 . S
C2118 C2114 1.432 . S
C2118 C2115 1.317 . S
C2118 H2130 0.930 . S
C2119 C2121 1.392 . S
C2119 C2122 1.370 . S
C2119 H2131 0.931 . S
N2120 C2113 1.359 . S
N2120 C2121 1.327 . S
N2120 Tb2123 2.600 . S
C2121 C2119 1.392 . S
C2121 N2120 1.327 . S
C2121 H2128 0.930 . S
C2122 C2117 1.385 . S
C2122 C2119 1.370 . S
C2122 H2141 0.930 . S
Tb2123 N2120 2.600 . S
Tb2123 N2124 2.660 . S
Tb2123 O2157 2.362 . S
Tb2123 O2158 2.421 . S
Tb2123 O2162 2.546 . S
Tb2123 O2163 2.610 . S
Tb2123 O2165 2.320 1_554 S
Tb2123 O2166 2.552 . S
Tb2123 O2167 2.413 . S
Tb2123 C2187 2.833 . S
N2124 C2116 1.360 . S
N2124 Tb2123 2.660 . S
N2124 C2125 1.305 1_554 S
C2125 N2124 1.305 1_556 S
C2125 C2127 1.407 . S
C2125 H2132 0.930 . S
C2126 C2114 1.410 1_556 S
C2126 C2127 1.345 . S
C2126 H2134 0.930 . S
C2127 C2125 1.407 . S
C2127 C2126 1.345 . S
C2127 H2129 0.930 . S
H2128 C2121 0.930 . S
H2129 C2127 0.930 . S
H2130 C2118 0.930 . S
H2131 C2119 0.931 . S
H2132 C2125 0.930 . S
H2133 C2147 0.930 . S
H2134 C2126 0.930 . S
H2135 C2153 0.930 . S
H2136 C2144 0.930 . S
H2137 C2151 0.931 . S
H2138 C2115 0.929 . S
H2139 C2145 0.930 . S
H2140 C2178 0.932 . S
H2141 C2122 0.930 . S
H2142 C2177 0.929 . S
N2143 Tb2112 2.660 1_565 S
N2143 C2144 1.305 . S
N2143 C2148 1.357 1_455 S
C2144 H2136 0.930 . S
C2144 N2143 1.305 . S
C2144 C2147 1.407 . S
C2145 H2139 0.930 . S
C2145 C2146 1.410 . S
C2145 C2147 1.345 1_655 S
C2146 C2145 1.410 . S
C2146 C2148 1.421 . S
C2146 C2178 1.432 1_554 S
C2147 H2133 0.930 . S
C2147 C2144 1.407 . S
C2147 C2145 1.345 1_455 S
C2148 N2143 1.357 1_655 S
C2148 C2146 1.421 . S
C2148 C2152 1.434 1_554 S
H2149 C2154 0.930 . S
N2150 Tb2112 2.600 1_566 S
N2150 C2152 1.345 1_455 S
N2150 C2153 1.327 . S
C2151 H2137 0.931 . S
C2151 C2153 1.392 1_655 S
C2151 C2154 1.370 . S
C2152 C2148 1.434 1_556 S
C2152 N2150 1.345 1_655 S
C2152 C2155 1.425 . S
C2153 H2135 0.930 . S
C2153 N2150 1.327 . S
C2153 C2151 1.392 1_455 S
C2154 H2149 0.930 . S
C2154 C2151 1.370 . S
C2154 C2155 1.385 . S
C2155 C2152 1.425 . S
C2155 C2154 1.385 . S
C2155 C2177 1.444 . S
O2156 Tb2112 2.546 1_656 S
O2156 C2176 1.251 . S
O2157 Tb2112 2.610 . S
O2157 Tb2123 2.362 . S
O2157 C2168 1.283 . S
O2158 Tb2123 2.421 . S
O2158 C2175 1.262 . S
O2159 Tb2112 2.320 . S
O2159 C2175 1.260 . S
O2160 Tb2112 2.544 1_556 S
O2160 C2168 1.230 1_556 S
O2161 Tb2112 2.413 1_655 S
O2161 C2176 1.256 1_554 S
O2162 Tb2123 2.546 . S
O2162 C2187 1.251 . S
O2163 Tb2112 2.362 . S
O2163 Tb2123 2.610 . S
O2163 C2179 1.283 1_545 S
O2164 Tb2112 2.421 1_556 S
O2164 C2186 1.262 . S
O2165 Tb2123 2.320 1_556 S
O2165 C2186 1.260 . S
O2166 Tb2123 2.552 . S
O2166 C2179 1.243 1_545 S
O2167 Tb2123 2.413 . S
O2167 C2187 1.256 . S
C2168 O2157 1.283 . S
C2168 O2160 1.230 1_554 S
C2169 C2171 1.382 1_556 S
C2169 C2173 1.393 . S
C2169 C2176 1.500 . S
C2170 C2171 1.400 1_556 S
C2170 C2172 1.384 . S
C2171 C2169 1.382 1_554 S
C2171 C2170 1.400 1_554 S
C2171 H2188 0.930 . S
C2172 C2170 1.384 . S
C2172 C2174 1.392 . S
C2172 H2189 0.931 . S
C2173 C2169 1.393 . S
C2173 C2174 1.401 . S
C2173 H2190 0.930 . S
C2174 C2172 1.392 . S
C2174 C2173 1.401 . S
C2174 H2191 0.930 . S
C2175 O2158 1.262 . S
C2175 O2159 1.260 . S
C2176 Tb2112 2.833 1_656 S
C2176 O2156 1.251 . S
C2176 O2161 1.256 1_556 S
C2176 C2169 1.500 . S
C2177 H2142 0.929 . S
C2177 C2155 1.444 . S
C2177 C2178 1.317 . S
C2178 H2140 0.932 . S
C2178 C2146 1.432 1_556 S
C2178 C2177 1.317 . S
C2179 O2163 1.283 1_565 S
C2179 O2166 1.243 1_565 S
C2180 C2181 1.382 . S
C2180 C2184 1.393 . S
C2180 C2187 1.500 . S
C2181 C2180 1.382 . S
C2181 C2182 1.400 . S
C2181 H2192 0.930 . S
C2182 C2181 1.400 . S
C2182 C2183 1.384 . S
C2183 C2182 1.384 . S
C2183 C2185 1.392 . S
C2183 H2193 0.931 . S
C2184 C2180 1.393 . S
C2184 C2185 1.401 . S
C2184 H2194 0.930 . S
C2185 C2183 1.392 . S
C2185 C2184 1.401 . S
C2185 H2195 0.930 . S
C2186 O2164 1.262 . S
C2186 O2165 1.260 . S
C2187 Tb2123 2.833 . S
C2187 O2162 1.251 . S
C2187 O2167 1.256 . S
C2187 C2180 1.500 . S
H2188 C2171 0.930 . S
H2189 C2172 0.931 . S
H2190 C2173 0.930 . S
H2191 C2174 0.930 . S
H2192 C2181 0.930 . S
H2193 C2183 0.931 . S
H2194 C2184 0.930 . S
H2195 C2185 0.930 . S
Tb2196 N2227 2.660 . S
Tb2196 N2234 2.600 . S
Tb2196 O2240 2.546 . S
Tb2196 O2241 2.610 . S
Tb2196 O2243 2.320 . S
Tb2196 O2244 2.552 . S
Tb2196 O2245 2.413 . S
Tb2196 O2247 2.362 . S
Tb2196 O2248 2.421 . S
Tb2196 C2260 2.833 . S
C2197 C2200 1.432 . S
C2197 C2201 1.414 . S
C2197 N2204 1.359 . S
C2198 C2200 1.417 . S
C2198 C2202 1.432 . S
C2198 C2210 1.410 . S
C2199 C2201 1.444 . S
C2199 C2202 1.317 . S
C2199 H2222 0.929 . S
C2200 C2197 1.432 . S
C2200 C2198 1.417 . S
C2200 N2208 1.360 . S
C2201 C2197 1.414 . S
C2201 C2199 1.444 . S
C2201 C2206 1.385 . S
C2202 C2198 1.432 . S
C2202 C2199 1.317 . S
C2202 H2214 0.930 . S
C2203 C2205 1.392 . S
C2203 C2206 1.370 . S
C2203 H2215 0.931 . S
N2204 C2197 1.359 . S
N2204 C2205 1.327 . S
N2204 Tb2207 2.600 . S
C2205 C2203 1.392 . S
C2205 N2204 1.327 . S
C2205 H2212 0.930 . S
C2206 C2201 1.385 . S
C2206 C2203 1.370 . S
C2206 H2225 0.930 . S
Tb2207 N2204 2.600 . S
Tb2207 N2208 2.660 . S
Tb2207 O2241 2.362 . S
Tb2207 O2242 2.421 . S
Tb2207 O2246 2.546 . S
Tb2207 O2247 2.610 . S
Tb2207 O2249 2.320 . S
Tb2207 O2250 2.552 . S
Tb2207 O2251 2.413 . S
Tb2207 C2271 2.833 . S
N2208 C2200 1.360 . S
N2208 Tb2207 2.660 . S
N2208 C2209 1.305 . S
C2209 N2208 1.305 . S
C2209 C2211 1.407 . S
C2209 H2216 0.930 . S
C2210 C2198 1.410 . S
C2210 C2211 1.345 . S
C2210 H2218 0.930 . S
C2211 C2209 1.407 . S
C2211 C2210 1.345 . S
C2211 H2213 0.930 . S
H2212 C2205 0.930 . S
H2213 C2211 0.930 . S
H2214 C2202 0.930 . S
H2215 C2203 0.931 . S
H2216 C2209 0.930 . S
H2217 C2231 0.930 . S
H2218 C2210 0.930 . S
H2219 C2237 0.930 . S
H2220 C2228 0.930 . S
H2221 C2235 0.931 . S
H2222 C2199 0.929 . S
H2223 C2229 0.930 . S
H2224 C2262 0.930 . S
H2225 C2206 0.930 . S
H2226 C2261 0.929 . S
N2227 Tb2196 2.660 . S
N2227 C2228 1.305 . S
N2227 C2232 1.360 . S
C2228 H2220 0.930 . S
C2228 N2227 1.305 . S
C2228 C2231 1.407 . S
C2229 H2223 0.930 . S
C2229 C2230 1.410 . S
C2229 C2231 1.345 . S
C2230 C2229 1.410 . S
C2230 C2232 1.417 . S
C2230 C2262 1.432 . S
C2231 H2217 0.930 . S
C2231 C2228 1.407 . S
C2231 C2229 1.345 . S
C2232 N2227 1.360 . S
C2232 C2230 1.417 . S
C2232 C2236 1.432 . S
H2233 C2238 0.930 . S
N2234 Tb2196 2.600 . S
N2234 C2236 1.359 . S
N2234 C2237 1.327 . S
C2235 H2221 0.931 . S
C2235 C2237 1.392 . S
C2235 C2238 1.370 . S
C2236 C2232 1.432 . S
C2236 N2234 1.359 . S
C2236 C2239 1.414 . S
C2237 H2219 0.930 . S
C2237 N2234 1.327 . S
C2237 C2235 1.392 . S
C2238 H2233 0.930 . S
C2238 C2235 1.370 . S
C2238 C2239 1.385 . S
C2239 C2236 1.414 . S
C2239 C2238 1.385 . S
C2239 C2261 1.444 . S
O2240 Tb2196 2.546 . S
O2240 C2260 1.251 . S
O2241 Tb2196 2.610 . S
O2241 Tb2207 2.362 . S
O2241 C2252 1.283 . S
O2242 Tb2207 2.421 . S
O2242 C2259 1.262 . S
O2243 Tb2196 2.320 . S
O2243 C2259 1.260 . S
O2244 Tb2196 2.552 . S
O2244 C2252 1.243 . S
O2245 Tb2196 2.413 . S
O2245 C2260 1.256 . S
O2246 Tb2207 2.546 . S
O2246 C2271 1.251 . S
O2247 Tb2196 2.362 . S
O2247 Tb2207 2.610 . S
O2247 C2263 1.283 . S
O2248 Tb2196 2.421 . S
O2248 C2270 1.262 . S
O2249 Tb2207 2.320 . S
O2249 C2270 1.260 . S
O2250 Tb2207 2.552 . S
O2250 C2263 1.243 . S
O2251 Tb2207 2.413 . S
O2251 C2271 1.256 . S
C2252 O2241 1.283 . S
C2252 O2244 1.243 . S
C2253 C2255 1.382 . S
C2253 C2257 1.393 . S
C2253 C2260 1.500 . S
C2254 C2255 1.400 . S
C2254 C2256 1.384 . S
C2255 C2253 1.382 . S
C2255 C2254 1.400 . S
C2255 H2272 0.930 . S
C2256 C2254 1.384 . S
C2256 C2258 1.392 . S
C2256 H2273 0.931 . S
C2257 C2253 1.393 . S
C2257 C2258 1.401 . S
C2257 H2274 0.930 . S
C2258 C2256 1.392 . S
C2258 C2257 1.401 . S
C2258 H2275 0.930 . S
C2259 O2242 1.262 . S
C2259 O2243 1.260 . S
C2260 Tb2196 2.833 . S
C2260 O2240 1.251 . S
C2260 O2245 1.256 . S
C2260 C2253 1.500 . S
C2261 H2226 0.929 . S
C2261 C2239 1.444 . S
C2261 C2262 1.317 . S
C2262 H2224 0.930 . S
C2262 C2230 1.432 . S
C2262 C2261 1.317 . S
C2263 O2247 1.283 . S
C2263 O2250 1.243 . S
C2264 C2265 1.382 . S
C2264 C2268 1.393 . S
C2264 C2271 1.500 . S
C2265 C2264 1.382 . S
C2265 C2266 1.400 . S
C2265 H2276 0.930 . S
C2266 C2265 1.400 . S
C2266 C2267 1.384 . S
C2267 C2266 1.384 . S
C2267 C2269 1.392 . S
C2267 H2277 0.931 . S
C2268 C2264 1.393 . S
C2268 C2269 1.401 . S
C2268 H2278 0.930 . S
C2269 C2267 1.392 . S
C2269 C2268 1.401 . S
C2269 H2279 0.930 . S
C2270 O2248 1.262 . S
C2270 O2249 1.260 . S
C2271 Tb2207 2.833 . S
C2271 O2246 1.251 . S
C2271 O2251 1.256 . S
C2271 C2264 1.500 . S
H2272 C2255 0.930 . S
H2273 C2256 0.931 . S
H2274 C2257 0.930 . S
H2275 C2258 0.930 . S
H2276 C2265 0.930 . S
H2277 C2267 0.931 . S
H2278 C2268 0.930 . S
H2279 C2269 0.930 . S
Tb2280 N2311 2.660 . S
Tb2280 N2318 2.600 . S
Tb2280 O2324 2.546 . S
Tb2280 O2325 2.610 . S
Tb2280 O2327 2.320 . S
Tb2280 O2328 2.552 1_545 S
Tb2280 O2329 2.413 . S
Tb2280 O2331 2.362 . S
Tb2280 O2332 2.421 . S
Tb2280 C2344 2.833 . S
C2281 C2284 1.432 . S
C2281 C2285 1.414 . S
C2281 N2288 1.359 1_565 S
C2282 C2284 1.417 . S
C2282 C2286 1.432 . S
C2282 C2294 1.410 . S
C2283 C2285 1.444 . S
C2283 C2286 1.317 . S
C2283 H2306 0.929 . S
C2284 C2281 1.432 . S
C2284 C2282 1.417 . S
C2284 N2292 1.360 . S
C2285 C2281 1.414 . S
C2285 C2283 1.444 . S
C2285 C2290 1.385 . S
C2286 C2282 1.432 . S
C2286 C2283 1.317 . S
C2286 H2298 0.930 . S
C2287 C2289 1.392 . S
C2287 C2290 1.370 1_545 S
C2287 H2299 0.931 . S
N2288 C2281 1.359 1_545 S
N2288 C2289 1.327 . S
N2288 Tb2291 2.600 . S
C2289 C2287 1.392 . S
C2289 N2288 1.327 . S
C2289 H2296 0.930 . S
C2290 C2285 1.385 . S
C2290 C2287 1.370 1_565 S
C2290 H2309 0.930 . S
Tb2291 N2288 2.600 . S
Tb2291 N2292 2.660 1_545 S
Tb2291 O2325 2.362 . S
Tb2291 O2326 2.421 . S
Tb2291 O2330 2.546 . S
Tb2291 O2331 2.610 . S
Tb2291 O2333 2.320 . S
Tb2291 O2334 2.552 . S
Tb2291 O2335 2.413 . S
Tb2291 C2355 2.833 . S
N2292 C2284 1.360 . S
N2292 Tb2291 2.660 1_565 S
N2292 C2293 1.305 . S
C2293 N2292 1.305 . S
C2293 C2295 1.407 . S
C2293 H2300 0.930 . S
C2294 C2282 1.410 . S
C2294 C2295 1.345 . S
C2294 H2302 0.930 . S
C2295 C2293 1.407 . S
C2295 C2294 1.345 . S
C2295 H2297 0.930 . S
H2296 C2289 0.930 . S
H2297 C2295 0.930 . S
H2298 C2286 0.930 . S
H2299 C2287 0.931 . S
H2300 C2293 0.930 . S
H2301 C2315 0.930 . S
H2302 C2294 0.930 . S
H2303 C2321 0.930 . S
H2304 C2312 0.930 . S
H2305 C2319 0.931 . S
H2306 C2283 0.929 . S
H2307 C2313 0.930 . S
H2308 C2346 0.930 . S
H2309 C2290 0.930 . S
H2310 C2345 0.929 . S
N2311 Tb2280 2.660 . S
N2311 C2312 1.305 . S
N2311 C2316 1.360 . S
C2312 H2304 0.930 . S
C2312 N2311 1.305 . S
C2312 C2315 1.407 . S
C2313 H2307 0.930 . S
C2313 C2314 1.410 . S
C2313 C2315 1.345 . S
C2314 C2313 1.410 . S
C2314 C2316 1.417 . S
C2314 C2346 1.432 . S
C2315 H2301 0.930 . S
C2315 C2312 1.407 . S
C2315 C2313 1.345 . S
C2316 N2311 1.360 . S
C2316 C2314 1.417 . S
C2316 C2320 1.432 . S
H2317 C2322 0.930 . S
N2318 Tb2280 2.600 . S
N2318 C2320 1.359 . S
N2318 C2321 1.327 . S
C2319 H2305 0.931 . S
C2319 C2321 1.392 . S
C2319 C2322 1.370 . S
C2320 C2316 1.432 . S
C2320 N2318 1.359 . S
C2320 C2323 1.414 . S
C2321 H2303 0.930 . S
C2321 N2318 1.327 . S
C2321 C2319 1.392 . S
C2322 H2317 0.930 . S
C2322 C2319 1.370 . S
C2322 C2323 1.385 . S
C2323 C2320 1.414 . S
C2323 C2322 1.385 . S
C2323 C2345 1.444 . S
O2324 Tb2280 2.546 . S
O2324 C2344 1.251 . S
O2325 Tb2280 2.610 . S
O2325 Tb2291 2.362 . S
O2325 C2336 1.283 1_545 S
O2326 Tb2291 2.421 . S
O2326 C2343 1.262 . S
O2327 Tb2280 2.320 . S
O2327 C2343 1.260 . S
O2328 Tb2280 2.552 1_565 S
O2328 C2336 1.243 . S
O2329 Tb2280 2.413 . S
O2329 C2344 1.256 . S
O2330 Tb2291 2.546 . S
O2330 C2355 1.251 . S
O2331 Tb2280 2.362 . S
O2331 Tb2291 2.610 . S
O2331 C2347 1.283 . S
O2332 Tb2280 2.421 . S
O2332 C2354 1.262 . S
O2333 Tb2291 2.320 . S
O2333 C2354 1.260 . S
O2334 Tb2291 2.552 . S
O2334 C2347 1.243 . S
O2335 Tb2291 2.413 . S
O2335 C2355 1.256 . S
C2336 O2325 1.283 1_565 S
C2336 O2328 1.243 . S
C2337 C2339 1.382 1_545 S
C2337 C2341 1.393 . S
C2337 C2344 1.500 . S
C2338 C2339 1.400 . S
C2338 C2340 1.384 . S
C2339 C2337 1.382 1_565 S
C2339 C2338 1.400 . S
C2339 H2356 0.930 . S
C2340 C2338 1.384 . S
C2340 C2342 1.392 . S
C2340 H2357 0.931 . S
C2341 C2337 1.393 . S
C2341 C2342 1.401 1_545 S
C2341 H2358 0.930 . S
C2342 C2340 1.392 . S
C2342 C2341 1.401 1_565 S
C2342 H2359 0.930 . S
C2343 O2326 1.262 . S
C2343 O2327 1.260 . S
C2344 Tb2280 2.833 . S
C2344 O2324 1.251 . S
C2344 O2329 1.256 . S
C2344 C2337 1.500 . S
C2345 H2310 0.929 . S
C2345 C2323 1.444 . S
C2345 C2346 1.317 . S
C2346 H2308 0.930 . S
C2346 C2314 1.432 . S
C2346 C2345 1.317 . S
C2347 O2331 1.283 . S
C2347 O2334 1.243 . S
C2348 C2349 1.382 . S
C2348 C2352 1.393 . S
C2348 C2355 1.500 . S
C2349 C2348 1.382 . S
C2349 C2350 1.400 . S
C2349 H2360 0.930 . S
C2350 C2349 1.400 . S
C2350 C2351 1.384 . S
C2351 C2350 1.384 . S
C2351 C2353 1.392 . S
C2351 H2361 0.931 . S
C2352 C2348 1.393 . S
C2352 C2353 1.401 . S
C2352 H2362 0.930 . S
C2353 C2351 1.392 . S
C2353 C2352 1.401 . S
C2353 H2363 0.930 . S
C2354 O2332 1.262 . S
C2354 O2333 1.260 . S
C2355 Tb2291 2.833 . S
C2355 O2330 1.251 . S
C2355 O2335 1.256 . S
C2355 C2348 1.500 . S
H2356 C2339 0.930 . S
H2357 C2340 0.931 . S
H2358 C2341 0.930 . S
H2359 C2342 0.930 . S
H2360 C2349 0.930 . S
H2361 C2351 0.931 . S
H2362 C2352 0.930 . S
H2363 C2353 0.930 . S
Tb2364 N2395 2.660 . S
Tb2364 N2402 2.600 . S
Tb2364 O2408 2.546 . S
Tb2364 O2409 2.610 . S
Tb2364 O2411 2.320 . S
Tb2364 O2412 2.552 . S
Tb2364 O2413 2.413 . S
Tb2364 O2415 2.362 . S
Tb2364 O2416 2.421 . S
Tb2364 C2428 2.833 . S
C2365 C2368 1.432 . S
C2365 C2369 1.414 . S
C2365 N2372 1.359 . S
C2366 C2368 1.417 . S
C2366 C2370 1.432 . S
C2366 C2378 1.410 . S
C2367 C2369 1.444 . S
C2367 C2370 1.317 . S
C2367 H2390 0.929 . S
C2368 C2365 1.432 . S
C2368 C2366 1.417 . S
C2368 N2376 1.360 . S
C2369 C2365 1.414 . S
C2369 C2367 1.444 . S
C2369 C2374 1.385 . S
C2370 C2366 1.432 . S
C2370 C2367 1.317 . S
C2370 H2382 0.930 . S
C2371 C2373 1.392 . S
C2371 C2374 1.370 . S
C2371 H2383 0.931 . S
N2372 C2365 1.359 . S
N2372 C2373 1.327 . S
N2372 Tb2375 2.600 . S
C2373 C2371 1.392 . S
C2373 N2372 1.327 . S
C2373 H2380 0.930 . S
C2374 C2369 1.385 . S
C2374 C2371 1.370 . S
C2374 H2393 0.930 . S
Tb2375 N2372 2.600 . S
Tb2375 N2376 2.660 . S
Tb2375 O2409 2.362 . S
Tb2375 O2410 2.421 . S
Tb2375 O2414 2.546 . S
Tb2375 O2415 2.610 . S
Tb2375 O2417 2.320 . S
Tb2375 O2418 2.552 . S
Tb2375 O2419 2.413 . S
Tb2375 C2439 2.833 . S
N2376 C2368 1.360 . S
N2376 Tb2375 2.660 . S
N2376 C2377 1.305 . S
C2377 N2376 1.305 . S
C2377 C2379 1.407 . S
C2377 H2384 0.930 . S
C2378 C2366 1.410 . S
C2378 C2379 1.345 . S
C2378 H2386 0.930 . S
C2379 C2377 1.407 . S
C2379 C2378 1.345 . S
C2379 H2381 0.930 . S
H2380 C2373 0.930 . S
H2381 C2379 0.930 . S
H2382 C2370 0.930 . S
H2383 C2371 0.931 . S
H2384 C2377 0.930 . S
H2385 C2399 0.930 . S
H2386 C2378 0.930 . S
H2387 C2405 0.930 . S
H2388 C2396 0.930 . S
H2389 C2403 0.931 . S
H2390 C2367 0.929 . S
H2391 C2397 0.930 . S
H2392 C2430 0.930 . S
H2393 C2374 0.930 . S
H2394 C2429 0.929 . S
N2395 Tb2364 2.660 . S
N2395 C2396 1.305 . S
N2395 C2400 1.360 . S
C2396 H2388 0.930 . S
C2396 N2395 1.305 . S
C2396 C2399 1.407 . S
C2397 H2391 0.930 . S
C2397 C2398 1.410 . S
C2397 C2399 1.345 . S
C2398 C2397 1.410 . S
C2398 C2400 1.417 . S
C2398 C2430 1.432 . S
C2399 H2385 0.930 . S
C2399 C2396 1.407 . S
C2399 C2397 1.345 . S
C2400 N2395 1.360 . S
C2400 C2398 1.417 . S
C2400 C2404 1.432 . S
H2401 C2406 0.930 . S
N2402 Tb2364 2.600 . S
N2402 C2404 1.359 . S
N2402 C2405 1.327 . S
C2403 H2389 0.931 . S
C2403 C2405 1.392 . S
C2403 C2406 1.370 . S
C2404 C2400 1.432 . S
C2404 N2402 1.359 . S
C2404 C2407 1.414 . S
C2405 H2387 0.930 . S
C2405 N2402 1.327 . S
C2405 C2403 1.392 . S
C2406 H2401 0.930 . S
C2406 C2403 1.370 . S
C2406 C2407 1.385 . S
C2407 C2404 1.414 . S
C2407 C2406 1.385 . S
C2407 C2429 1.444 . S
O2408 Tb2364 2.546 . S
O2408 C2428 1.251 . S
O2409 Tb2364 2.610 . S
O2409 Tb2375 2.362 . S
O2409 C2420 1.283 . S
O2410 Tb2375 2.421 . S
O2410 C2427 1.262 . S
O2411 Tb2364 2.320 . S
O2411 C2427 1.260 . S
O2412 Tb2364 2.552 . S
O2412 C2420 1.243 . S
O2413 Tb2364 2.413 . S
O2413 C2428 1.256 . S
O2414 Tb2375 2.546 . S
O2414 C2439 1.251 . S
O2415 Tb2364 2.362 . S
O2415 Tb2375 2.610 . S
O2415 C2431 1.283 . S
O2416 Tb2364 2.421 . S
O2416 C2438 1.262 . S
O2417 Tb2375 2.320 . S
O2417 C2438 1.260 . S
O2418 Tb2375 2.552 . S
O2418 C2431 1.243 . S
O2419 Tb2375 2.413 . S
O2419 C2439 1.256 . S
C2420 O2409 1.283 . S
C2420 O2412 1.243 . S
C2421 C2423 1.382 . S
C2421 C2425 1.393 . S
C2421 C2428 1.500 . S
C2422 C2423 1.400 . S
C2422 C2424 1.384 . S
C2423 C2421 1.382 . S
C2423 C2422 1.400 . S
C2423 H2440 0.930 . S
C2424 C2422 1.384 . S
C2424 C2426 1.392 . S
C2424 H2441 0.931 . S
C2425 C2421 1.393 . S
C2425 C2426 1.401 . S
C2425 H2442 0.930 . S
C2426 C2424 1.392 . S
C2426 C2425 1.401 . S
C2426 H2443 0.930 . S
C2427 O2410 1.262 . S
C2427 O2411 1.260 . S
C2428 Tb2364 2.833 . S
C2428 O2408 1.251 . S
C2428 O2413 1.256 . S
C2428 C2421 1.500 . S
C2429 H2394 0.929 . S
C2429 C2407 1.444 . S
C2429 C2430 1.317 . S
C2430 H2392 0.930 . S
C2430 C2398 1.432 . S
C2430 C2429 1.317 . S
C2431 O2415 1.283 . S
C2431 O2418 1.243 . S
C2432 C2433 1.382 . S
C2432 C2436 1.393 . S
C2432 C2439 1.500 . S
C2433 C2432 1.382 . S
C2433 C2434 1.400 . S
C2433 H2444 0.930 . S
C2434 C2433 1.400 . S
C2434 C2435 1.384 . S
C2435 C2434 1.384 . S
C2435 C2437 1.392 . S
C2435 H2445 0.931 . S
C2436 C2432 1.393 . S
C2436 C2437 1.401 . S
C2436 H2446 0.930 . S
C2437 C2435 1.392 . S
C2437 C2436 1.401 . S
C2437 H2447 0.930 . S
C2438 O2416 1.262 . S
C2438 O2417 1.260 . S
C2439 Tb2375 2.833 . S
C2439 O2414 1.251 . S
C2439 O2419 1.256 . S
C2439 C2432 1.500 . S
H2440 C2423 0.930 . S
H2441 C2424 0.931 . S
H2442 C2425 0.930 . S
H2443 C2426 0.930 . S
H2444 C2433 0.930 . S
H2445 C2435 0.931 . S
H2446 C2436 0.930 . S
H2447 C2437 0.930 . S
Tb2448 N2479 2.660 . S
Tb2448 N2486 2.600 . S
Tb2448 O2492 2.546 . S
Tb2448 O2493 2.610 . S
Tb2448 O2495 2.320 . S
Tb2448 O2496 2.552 . S
Tb2448 O2497 2.413 . S
Tb2448 O2499 2.362 . S
Tb2448 O2500 2.421 . S
Tb2448 C2512 2.833 . S
C2449 C2452 1.432 . S
C2449 C2453 1.414 . S
C2449 N2456 1.359 . S
C2450 C2452 1.417 . S
C2450 C2454 1.432 . S
C2450 C2462 1.410 . S
C2451 C2453 1.444 . S
C2451 C2454 1.317 . S
C2451 H2474 0.929 . S
C2452 C2449 1.432 . S
C2452 C2450 1.417 . S
C2452 N2460 1.360 . S
C2453 C2449 1.414 . S
C2453 C2451 1.444 . S
C2453 C2458 1.385 . S
C2454 C2450 1.432 . S
C2454 C2451 1.317 . S
C2454 H2466 0.930 . S
C2455 C2457 1.392 . S
C2455 C2458 1.370 . S
C2455 H2467 0.931 . S
N2456 C2449 1.359 . S
N2456 C2457 1.327 . S
N2456 Tb2459 2.600 1_565 S
C2457 C2455 1.392 . S
C2457 N2456 1.327 . S
C2457 H2464 0.930 . S
C2458 C2453 1.385 . S
C2458 C2455 1.370 . S
C2458 H2477 0.930 . S
Tb2459 N2456 2.600 1_545 S
Tb2459 N2460 2.660 1_545 S
Tb2459 O2493 2.362 . S
Tb2459 O2494 2.421 . S
Tb2459 O2498 2.546 1_545 S
Tb2459 O2499 2.610 . S
Tb2459 O2501 2.317 . S
Tb2459 O2502 2.552 . S
Tb2459 O2503 2.413 1_545 S
Tb2459 C2523 2.833 1_545 S
N2460 C2452 1.360 . S
N2460 Tb2459 2.660 1_565 S
N2460 C2461 1.305 . S
C2461 N2460 1.305 . S
C2461 C2463 1.413 . S
C2461 H2468 0.930 . S
C2462 C2450 1.410 . S
C2462 C2463 1.351 . S
C2462 H2470 0.916 1_455 S
C2463 C2461 1.413 . S
C2463 C2462 1.351 . S
C2463 H2465 0.919 1_455 S
H2464 C2457 0.930 . S
H2465 C2463 0.919 1_655 S
H2466 C2454 0.930 . S
H2467 C2455 0.931 . S
H2468 C2461 0.930 . S
H2469 C2483 0.930 . S
H2470 C2462 0.916 1_655 S
H2471 C2489 0.930 . S
H2472 C2480 0.930 . S
H2473 C2487 0.911 1_655 S
H2474 C2451 0.929 . S
H2475 C2481 0.930 . S
H2476 C2514 0.930 . S
H2477 C2458 0.930 . S
H2478 C2513 0.929 . S
N2479 Tb2448 2.660 . S
N2479 C2480 1.305 . S
N2479 C2484 1.360 . S
C2480 H2472 0.930 . S
C2480 N2479 1.305 . S
C2480 C2483 1.407 . S
C2481 H2475 0.930 . S
C2481 C2482 1.410 . S
C2481 C2483 1.345 . S
C2482 C2481 1.410 . S
C2482 C2484 1.417 . S
C2482 C2514 1.432 . S
C2483 H2469 0.930 . S
C2483 C2480 1.407 . S
C2483 C2481 1.345 . S
C2484 N2479 1.360 . S
C2484 C2482 1.417 . S
C2484 C2488 1.432 . S
H2485 C2490 0.930 . S
N2486 Tb2448 2.600 . S
N2486 C2488 1.359 . S
N2486 C2489 1.327 . S
C2487 H2473 0.911 1_455 S
C2487 C2489 1.405 . S
C2487 C2490 1.378 . S
C2488 C2484 1.432 . S
C2488 N2486 1.359 . S
C2488 C2491 1.414 . S
C2489 H2471 0.930 . S
C2489 N2486 1.327 . S
C2489 C2487 1.405 . S
C2490 H2485 0.930 . S
C2490 C2487 1.378 . S
C2490 C2491 1.385 . S
C2491 C2488 1.414 . S
C2491 C2490 1.385 . S
C2491 C2513 1.444 . S
O2492 Tb2448 2.546 . S
O2492 C2512 1.251 . S
O2493 Tb2448 2.610 . S
O2493 Tb2459 2.362 . S
O2493 C2504 1.283 . S
O2494 Tb2459 2.421 . S
O2494 C2511 1.262 . S
O2495 Tb2448 2.320 . S
O2495 C2511 1.260 . S
O2496 Tb2448 2.552 . S
O2496 C2504 1.243 . S
O2497 Tb2448 2.413 . S
O2497 C2512 1.256 . S
O2498 Tb2459 2.546 1_565 S
O2498 C2523 1.251 . S
O2499 Tb2448 2.362 . S
O2499 Tb2459 2.610 . S
O2499 C2515 1.283 . S
O2500 Tb2448 2.421 . S
O2500 C2522 1.262 . S
O2501 Tb2459 2.317 . S
O2501 C2522 1.271 . S
O2502 Tb2459 2.552 . S
O2502 C2515 1.243 . S
O2503 Tb2459 2.413 1_565 S
O2503 C2523 1.256 . S
C2504 O2493 1.283 . S
C2504 O2496 1.243 . S
C2505 C2507 1.382 . S
C2505 C2509 1.393 . S
C2505 C2512 1.500 . S
C2506 C2507 1.400 . S
C2506 C2508 1.384 . S
C2507 C2505 1.382 . S
C2507 C2506 1.400 . S
C2507 H2524 0.930 . S
C2508 C2506 1.384 . S
C2508 C2510 1.392 . S
C2508 H2525 0.931 . S
C2509 C2505 1.393 . S
C2509 C2510 1.401 . S
C2509 H2526 0.930 . S
C2510 C2508 1.392 . S
C2510 C2509 1.401 . S
C2510 H2527 0.930 . S
C2511 O2494 1.262 . S
C2511 O2495 1.260 . S
C2512 Tb2448 2.833 . S
C2512 O2492 1.251 . S
C2512 O2497 1.256 . S
C2512 C2505 1.500 . S
C2513 H2478 0.929 . S
C2513 C2491 1.444 . S
C2513 C2514 1.317 . S
C2514 H2476 0.930 . S
C2514 C2482 1.432 . S
C2514 C2513 1.317 . S
C2515 O2499 1.283 . S
C2515 O2502 1.243 . S
C2516 C2517 1.382 . S
C2516 C2520 1.393 . S
C2516 C2523 1.500 . S
C2517 C2516 1.382 . S
C2517 C2518 1.400 . S
C2517 H2528 0.930 . S
C2518 C2517 1.400 . S
C2518 C2519 1.384 . S
C2519 C2518 1.384 . S
C2519 C2521 1.392 . S
C2519 H2529 0.931 . S
C2520 C2516 1.393 . S
C2520 C2521 1.401 . S
C2520 H2530 0.930 . S
C2521 C2519 1.392 . S
C2521 C2520 1.401 . S
C2521 H2531 0.930 . S
C2522 O2500 1.262 . S
C2522 O2501 1.271 . S
C2523 Tb2459 2.833 1_565 S
C2523 O2498 1.251 . S
C2523 O2503 1.256 . S
C2523 C2516 1.500 . S
H2524 C2507 0.930 . S
H2525 C2508 0.931 . S
H2526 C2509 0.930 . S
H2527 C2510 0.930 . S
H2528 C2517 0.930 . S
H2529 C2519 0.931 . S
H2530 C2520 0.930 . S
H2531 C2521 0.930 . S
Tb2532 N2563 2.660 . S
Tb2532 N2570 2.600 . S
Tb2532 O2576 2.546 . S
Tb2532 O2577 2.610 . S
Tb2532 O2579 2.320 . S
Tb2532 O2580 2.552 . S
Tb2532 O2581 2.413 . S
Tb2532 O2583 2.362 . S
Tb2532 O2584 2.421 . S
Tb2532 C2596 2.833 . S
C2533 C2536 1.432 . S
C2533 C2537 1.414 . S
C2533 N2540 1.359 . S
C2534 C2536 1.417 . S
C2534 C2538 1.432 . S
C2534 C2546 1.410 . S
C2535 C2537 1.444 . S
C2535 C2538 1.317 . S
C2535 H2558 0.929 . S
C2536 C2533 1.432 . S
C2536 C2534 1.417 . S
C2536 N2544 1.360 . S
C2537 C2533 1.414 . S
C2537 C2535 1.444 . S
C2537 C2542 1.385 . S
C2538 C2534 1.432 . S
C2538 C2535 1.317 . S
C2538 H2550 0.930 . S
C2539 C2541 1.392 . S
C2539 C2542 1.370 . S
C2539 H2551 0.931 . S
N2540 C2533 1.359 . S
N2540 C2541 1.327 . S
N2540 Tb2543 2.600 . S
C2541 C2539 1.392 . S
C2541 N2540 1.327 . S
C2541 H2548 0.930 . S
C2542 C2537 1.385 . S
C2542 C2539 1.370 . S
C2542 H2561 0.930 . S
Tb2543 N2540 2.600 . S
Tb2543 N2544 2.660 . S
Tb2543 O2577 2.362 . S
Tb2543 O2578 2.421 . S
Tb2543 O2582 2.546 . S
Tb2543 O2583 2.610 . S
Tb2543 O2585 2.320 . S
Tb2543 O2586 2.552 . S
Tb2543 O2587 2.413 . S
Tb2543 C2607 2.833 . S
N2544 C2536 1.360 . S
N2544 Tb2543 2.660 . S
N2544 C2545 1.305 . S
C2545 N2544 1.305 . S
C2545 C2547 1.407 . S
C2545 H2552 0.930 . S
C2546 C2534 1.410 . S
C2546 C2547 1.345 . S
C2546 H2554 0.930 . S
C2547 C2545 1.407 . S
C2547 C2546 1.345 . S
C2547 H2549 0.930 . S
H2548 C2541 0.930 . S
H2549 C2547 0.930 . S
H2550 C2538 0.930 . S
H2551 C2539 0.931 . S
H2552 C2545 0.930 . S
H2553 C2567 0.930 . S
H2554 C2546 0.930 . S
H2555 C2573 0.930 . S
H2556 C2564 0.930 . S
H2557 C2571 0.931 . S
H2558 C2535 0.929 . S
H2559 C2565 0.930 . S
H2560 C2598 0.930 . S
H2561 C2542 0.930 . S
H2562 C2597 0.929 . S
N2563 Tb2532 2.660 . S
N2563 C2564 1.305 . S
N2563 C2568 1.360 . S
C2564 H2556 0.930 . S
C2564 N2563 1.305 . S
C2564 C2567 1.407 . S
C2565 H2559 0.930 . S
C2565 C2566 1.410 . S
C2565 C2567 1.345 . S
C2566 C2565 1.410 . S
C2566 C2568 1.417 . S
C2566 C2598 1.432 . S
C2567 H2553 0.930 . S
C2567 C2564 1.407 . S
C2567 C2565 1.345 . S
C2568 N2563 1.360 . S
C2568 C2566 1.417 . S
C2568 C2572 1.432 . S
H2569 C2574 0.930 . S
N2570 Tb2532 2.600 . S
N2570 C2572 1.359 . S
N2570 C2573 1.327 . S
C2571 H2557 0.931 . S
C2571 C2573 1.392 . S
C2571 C2574 1.370 . S
C2572 C2568 1.432 . S
C2572 N2570 1.359 . S
C2572 C2575 1.414 . S
C2573 H2555 0.930 . S
C2573 N2570 1.327 . S
C2573 C2571 1.392 . S
C2574 H2569 0.930 . S
C2574 C2571 1.370 . S
C2574 C2575 1.385 . S
C2575 C2572 1.414 . S
C2575 C2574 1.385 . S
C2575 C2597 1.444 . S
O2576 Tb2532 2.546 . S
O2576 C2596 1.251 . S
O2577 Tb2532 2.610 . S
O2577 Tb2543 2.362 . S
O2577 C2588 1.283 . S
O2578 Tb2543 2.421 . S
O2578 C2595 1.262 . S
O2579 Tb2532 2.320 . S
O2579 C2595 1.260 . S
O2580 Tb2532 2.552 . S
O2580 C2588 1.243 . S
O2581 Tb2532 2.413 . S
O2581 C2596 1.256 . S
O2582 Tb2543 2.546 . S
O2582 C2607 1.251 . S
O2583 Tb2532 2.362 . S
O2583 Tb2543 2.610 . S
O2583 C2599 1.283 . S
O2584 Tb2532 2.421 . S
O2584 C2606 1.262 . S
O2585 Tb2543 2.320 . S
O2585 C2606 1.260 . S
O2586 Tb2543 2.552 . S
O2586 C2599 1.243 . S
O2587 Tb2543 2.413 . S
O2587 C2607 1.256 . S
C2588 O2577 1.283 . S
C2588 O2580 1.243 . S
C2589 C2591 1.382 . S
C2589 C2593 1.393 . S
C2589 C2596 1.500 . S
C2590 C2591 1.400 . S
C2590 C2592 1.384 . S
C2591 C2589 1.382 . S
C2591 C2590 1.400 . S
C2591 H2608 0.930 . S
C2592 C2590 1.384 . S
C2592 C2594 1.392 . S
C2592 H2609 0.931 . S
C2593 C2589 1.393 . S
C2593 C2594 1.401 . S
C2593 H2610 0.930 . S
C2594 C2592 1.392 . S
C2594 C2593 1.401 . S
C2594 H2611 0.930 . S
C2595 O2578 1.262 . S
C2595 O2579 1.260 . S
C2596 Tb2532 2.833 . S
C2596 O2576 1.251 . S
C2596 O2581 1.256 . S
C2596 C2589 1.500 . S
C2597 H2562 0.929 . S
C2597 C2575 1.444 . S
C2597 C2598 1.317 . S
C2598 H2560 0.930 . S
C2598 C2566 1.432 . S
C2598 C2597 1.317 . S
C2599 O2583 1.283 . S
C2599 O2586 1.243 . S
C2600 C2601 1.382 . S
C2600 C2604 1.393 . S
C2600 C2607 1.500 . S
C2601 C2600 1.382 . S
C2601 C2602 1.400 . S
C2601 H2612 0.930 . S
C2602 C2601 1.400 . S
C2602 C2603 1.384 . S
C2603 C2602 1.384 . S
C2603 C2605 1.392 . S
C2603 H2613 0.931 . S
C2604 C2600 1.393 . S
C2604 C2605 1.401 . S
C2604 H2614 0.930 . S
C2605 C2603 1.392 . S
C2605 C2604 1.401 . S
C2605 H2615 0.930 . S
C2606 O2584 1.262 . S
C2606 O2585 1.260 . S
C2607 Tb2543 2.833 . S
C2607 O2582 1.251 . S
C2607 O2587 1.256 . S
C2607 C2600 1.500 . S
H2608 C2591 0.930 . S
H2609 C2592 0.931 . S
H2610 C2593 0.930 . S
H2611 C2594 0.930 . S
H2612 C2601 0.930 . S
H2613 C2603 0.931 . S
H2614 C2604 0.930 . S
H2615 C2605 0.930 . S
Tb2616 N2647 2.660 . S
Tb2616 N2654 2.600 . S
Tb2616 O2660 2.546 1_545 S
Tb2616 O2661 2.610 . S
Tb2616 O2663 2.320 . S
Tb2616 O2664 2.552 . S
Tb2616 O2665 2.413 . S
Tb2616 O2667 2.362 . S
Tb2616 O2668 2.421 1_545 S
Tb2616 C2680 2.833 . S
C2617 C2620 1.432 . S
C2617 C2621 1.414 . S
C2617 N2624 1.359 . S
C2618 C2620 1.417 . S
C2618 C2622 1.432 . S
C2618 C2630 1.410 1_545 S
C2619 C2621 1.444 . S
C2619 C2622 1.317 . S
C2619 H2642 0.929 . S
C2620 C2617 1.432 . S
C2620 C2618 1.417 . S
C2620 N2628 1.360 . S
C2621 C2617 1.414 . S
C2621 C2619 1.444 . S
C2621 C2626 1.385 . S
C2622 C2618 1.432 . S
C2622 C2619 1.317 . S
C2622 H2634 0.930 . S
C2623 C2625 1.392 . S
C2623 C2626 1.370 . S
C2623 H2635 0.931 . S
N2624 C2617 1.359 . S
N2624 C2625 1.327 . S
N2624 Tb2627 2.600 . S
C2625 C2623 1.392 . S
C2625 N2624 1.327 . S
C2625 H2632 0.930 . S
C2626 C2621 1.385 . S
C2626 C2623 1.370 . S
C2626 H2645 0.930 . S
Tb2627 N2624 2.600 . S
Tb2627 N2628 2.660 . S
Tb2627 O2661 2.362 1_556 S
Tb2627 O2662 2.421 1_556 S
Tb2627 O2666 2.546 . S
Tb2627 O2667 2.610 1_556 S
Tb2627 O2669 2.320 . S
Tb2627 O2670 2.552 . S
Tb2627 O2671 2.413 . S
Tb2627 C2691 2.833 . S
N2628 C2620 1.360 . S
N2628 Tb2627 2.660 . S
N2628 C2629 1.305 1_545 S
C2629 N2628 1.305 1_565 S
C2629 C2631 1.407 . S
C2629 H2636 0.930 . S
C2630 C2618 1.410 1_565 S
C2630 C2631 1.345 . S
C2630 H2638 0.930 . S
C2631 C2629 1.407 . S
C2631 C2630 1.345 . S
C2631 H2633 0.930 . S
H2632 C2625 0.930 . S
H2633 C2631 0.930 . S
H2634 C2622 0.930 . S
H2635 C2623 0.931 . S
H2636 C2629 0.930 . S
H2637 C2651 0.930 . S
H2638 C2630 0.930 . S
H2639 C2657 0.930 . S
H2640 C2648 0.930 . S
H2641 C2655 0.931 . S
H2642 C2619 0.929 . S
H2643 C2649 0.930 . S
H2644 C2682 0.930 . S
H2645 C2626 0.930 . S
H2646 C2681 0.929 . S
N2647 Tb2616 2.660 . S
N2647 C2648 1.305 . S
N2647 C2652 1.360 . S
C2648 H2640 0.930 . S
C2648 N2647 1.305 . S
C2648 C2651 1.407 . S
C2649 H2643 0.930 . S
C2649 C2650 1.410 . S
C2649 C2651 1.345 . S
C2650 C2649 1.410 . S
C2650 C2652 1.417 . S
C2650 C2682 1.432 . S
C2651 H2637 0.930 . S
C2651 C2648 1.407 . S
C2651 C2649 1.345 . S
C2652 N2647 1.360 . S
C2652 C2650 1.417 . S
C2652 C2656 1.432 . S
H2653 C2658 0.930 . S
N2654 Tb2616 2.600 . S
N2654 C2656 1.359 . S
N2654 C2657 1.327 1_545 S
C2655 H2641 0.931 . S
C2655 C2657 1.392 . S
C2655 C2658 1.370 . S
C2656 C2652 1.432 . S
C2656 N2654 1.359 . S
C2656 C2659 1.414 . S
C2657 H2639 0.930 . S
C2657 N2654 1.327 1_565 S
C2657 C2655 1.392 . S
C2658 H2653 0.930 . S
C2658 C2655 1.370 . S
C2658 C2659 1.385 1_565 S
C2659 C2656 1.414 . S
C2659 C2658 1.385 1_545 S
C2659 C2681 1.444 . S
O2660 Tb2616 2.546 1_565 S
O2660 C2680 1.251 1_565 S
O2661 Tb2616 2.610 . S
O2661 Tb2627 2.362 1_554 S
O2661 C2672 1.283 . S
O2662 Tb2627 2.421 1_554 S
O2662 C2679 1.262 . S
O2663 Tb2616 2.320 . S
O2663 C2679 1.260 . S
O2664 Tb2616 2.552 . S
O2664 C2672 1.243 . S
O2665 Tb2616 2.413 . S
O2665 C2680 1.256 . S
O2666 Tb2627 2.546 . S
O2666 C2691 1.251 . S
O2667 Tb2616 2.362 . S
O2667 Tb2627 2.610 1_554 S
O2667 C2683 1.283 . S
O2668 Tb2616 2.421 1_565 S
O2668 C2690 1.262 1_554 S
O2669 Tb2627 2.320 . S
O2669 C2690 1.260 1_545 S
O2670 Tb2627 2.552 . S
O2670 C2683 1.243 1_556 S
O2671 Tb2627 2.413 . S
O2671 C2691 1.256 . S
C2672 O2661 1.283 . S
C2672 O2664 1.243 . S
C2673 C2675 1.382 . S
C2673 C2677 1.393 1_545 S
C2673 C2680 1.500 . S
C2674 C2675 1.400 . S
C2674 C2676 1.384 1_545 S
C2675 C2673 1.382 . S
C2675 C2674 1.400 . S
C2675 H2692 0.930 . S
C2676 C2674 1.384 1_565 S
C2676 C2678 1.392 . S
C2676 H2693 0.931 . S
C2677 C2673 1.393 1_565 S
C2677 C2678 1.401 . S
C2677 H2694 0.930 . S
C2678 C2676 1.392 . S
C2678 C2677 1.401 . S
C2678 H2695 0.930 . S
C2679 O2662 1.262 . S
C2679 O2663 1.260 . S
C2680 Tb2616 2.833 . S
C2680 O2660 1.251 1_545 S
C2680 O2665 1.256 . S
C2680 C2673 1.500 . S
C2681 H2646 0.929 . S
C2681 C2659 1.444 . S
C2681 C2682 1.317 . S
C2682 H2644 0.930 . S
C2682 C2650 1.432 . S
C2682 C2681 1.317 . S
C2683 O2667 1.283 . S
C2683 O2670 1.243 1_554 S
C2684 C2685 1.382 . S
C2684 C2688 1.393 . S
C2684 C2691 1.500 . S
C2685 C2684 1.382 . S
C2685 C2686 1.400 . S
C2685 H2696 0.930 . S
C2686 C2685 1.400 . S
C2686 C2687 1.384 . S
C2687 C2686 1.384 . S
C2687 C2689 1.392 . S
C2687 H2697 0.931 . S
C2688 C2684 1.393 . S
C2688 C2689 1.401 . S
C2688 H2698 0.930 . S
C2689 C2687 1.392 . S
C2689 C2688 1.401 . S
C2689 H2699 0.930 . S
C2690 O2668 1.262 1_556 S
C2690 O2669 1.260 1_565 S
C2691 Tb2627 2.833 . S
C2691 O2666 1.251 . S
C2691 O2671 1.256 . S
C2691 C2684 1.500 . S
H2692 C2675 0.930 . S
H2693 C2676 0.931 . S
H2694 C2677 0.930 . S
H2695 C2678 0.930 . S
H2696 C2685 0.930 . S
H2697 C2687 0.931 . S
H2698 C2688 0.930 . S
H2699 C2689 0.930 . S
Tb2700 N2731 2.660 . S
Tb2700 N2738 2.600 . S
Tb2700 O2744 2.546 . S
Tb2700 O2745 2.610 . S
Tb2700 O2747 2.320 . S
Tb2700 O2748 2.552 . S
Tb2700 O2749 2.413 . S
Tb2700 O2751 2.362 . S
Tb2700 O2752 2.421 . S
Tb2700 C2764 2.833 . S
C2701 C2704 1.432 . S
C2701 C2705 1.414 . S
C2701 N2708 1.359 . S
C2702 C2704 1.417 . S
C2702 C2706 1.432 . S
C2702 C2714 1.410 . S
C2703 C2705 1.444 . S
C2703 C2706 1.317 . S
C2703 H2726 0.929 . S
C2704 C2701 1.432 . S
C2704 C2702 1.417 . S
C2704 N2712 1.360 . S
C2705 C2701 1.414 . S
C2705 C2703 1.444 . S
C2705 C2710 1.385 . S
C2706 C2702 1.432 . S
C2706 C2703 1.317 . S
C2706 H2718 0.930 . S
C2707 C2709 1.392 . S
C2707 C2710 1.370 . S
C2707 H2719 0.931 . S
N2708 C2701 1.359 . S
N2708 C2709 1.327 . S
N2708 Tb2711 2.600 . S
C2709 C2707 1.392 . S
C2709 N2708 1.327 . S
C2709 H2716 0.930 . S
C2710 C2705 1.385 . S
C2710 C2707 1.370 . S
C2710 H2729 0.930 . S
Tb2711 N2708 2.600 . S
Tb2711 N2712 2.660 . S
Tb2711 O2745 2.362 . S
Tb2711 O2746 2.421 . S
Tb2711 O2750 2.546 . S
Tb2711 O2751 2.610 . S
Tb2711 O2753 2.320 . S
Tb2711 O2754 2.552 . S
Tb2711 O2755 2.413 . S
Tb2711 C2775 2.833 . S
N2712 C2704 1.360 . S
N2712 Tb2711 2.660 . S
N2712 C2713 1.305 . S
C2713 N2712 1.305 . S
C2713 C2715 1.407 . S
C2713 H2720 0.930 . S
C2714 C2702 1.410 . S
C2714 C2715 1.345 . S
C2714 H2722 0.930 . S
C2715 C2713 1.407 . S
C2715 C2714 1.345 . S
C2715 H2717 0.930 . S
H2716 C2709 0.930 . S
H2717 C2715 0.930 . S
H2718 C2706 0.930 . S
H2719 C2707 0.931 . S
H2720 C2713 0.930 . S
H2721 C2735 0.930 . S
H2722 C2714 0.930 . S
H2723 C2741 0.930 . S
H2724 C2732 0.930 . S
H2725 C2739 0.931 . S
H2726 C2703 0.929 . S
H2727 C2733 0.930 . S
H2728 C2766 0.930 . S
H2729 C2710 0.930 . S
H2730 C2765 0.929 . S
N2731 Tb2700 2.660 . S
N2731 C2732 1.305 . S
N2731 C2736 1.360 . S
C2732 H2724 0.930 . S
C2732 N2731 1.305 . S
C2732 C2735 1.407 . S
C2733 H2727 0.930 . S
C2733 C2734 1.410 . S
C2733 C2735 1.345 . S
C2734 C2733 1.410 . S
C2734 C2736 1.417 . S
C2734 C2766 1.432 . S
C2735 H2721 0.930 . S
C2735 C2732 1.407 . S
C2735 C2733 1.345 . S
C2736 N2731 1.360 . S
C2736 C2734 1.417 . S
C2736 C2740 1.432 . S
H2737 C2742 0.930 . S
N2738 Tb2700 2.600 . S
N2738 C2740 1.359 . S
N2738 C2741 1.327 . S
C2739 H2725 0.931 . S
C2739 C2741 1.392 . S
C2739 C2742 1.370 . S
C2740 C2736 1.432 . S
C2740 N2738 1.359 . S
C2740 C2743 1.414 . S
C2741 H2723 0.930 . S
C2741 N2738 1.327 . S
C2741 C2739 1.392 . S
C2742 H2737 0.930 . S
C2742 C2739 1.370 . S
C2742 C2743 1.385 . S
C2743 C2740 1.414 . S
C2743 C2742 1.385 . S
C2743 C2765 1.444 . S
O2744 Tb2700 2.546 . S
O2744 C2764 1.251 . S
O2745 Tb2700 2.610 . S
O2745 Tb2711 2.362 . S
O2745 C2756 1.283 . S
O2746 Tb2711 2.421 . S
O2746 C2763 1.262 . S
O2747 Tb2700 2.320 . S
O2747 C2763 1.260 . S
O2748 Tb2700 2.552 . S
O2748 C2756 1.243 . S
O2749 Tb2700 2.413 . S
O2749 C2764 1.256 . S
O2750 Tb2711 2.546 . S
O2750 C2775 1.251 . S
O2751 Tb2700 2.362 . S
O2751 Tb2711 2.610 . S
O2751 C2767 1.283 . S
O2752 Tb2700 2.421 . S
O2752 C2774 1.262 . S
O2753 Tb2711 2.320 . S
O2753 C2774 1.260 . S
O2754 Tb2711 2.552 . S
O2754 C2767 1.243 . S
O2755 Tb2711 2.413 . S
O2755 C2775 1.256 . S
C2756 O2745 1.283 . S
C2756 O2748 1.243 . S
C2757 C2759 1.382 . S
C2757 C2761 1.393 . S
C2757 C2764 1.500 . S
C2758 C2759 1.400 . S
C2758 C2760 1.384 . S
C2759 C2757 1.382 . S
C2759 C2758 1.400 . S
C2759 H2776 0.930 . S
C2760 C2758 1.384 . S
C2760 C2762 1.392 . S
C2760 H2777 0.931 . S
C2761 C2757 1.393 . S
C2761 C2762 1.401 . S
C2761 H2778 0.930 . S
C2762 C2760 1.392 . S
C2762 C2761 1.401 . S
C2762 H2779 0.930 . S
C2763 O2746 1.262 . S
C2763 O2747 1.260 . S
C2764 Tb2700 2.833 . S
C2764 O2744 1.251 . S
C2764 O2749 1.256 . S
C2764 C2757 1.500 . S
C2765 H2730 0.929 . S
C2765 C2743 1.444 . S
C2765 C2766 1.317 . S
C2766 H2728 0.930 . S
C2766 C2734 1.432 . S
C2766 C2765 1.317 . S
C2767 O2751 1.283 . S
C2767 O2754 1.243 . S
C2768 C2769 1.382 . S
C2768 C2772 1.393 . S
C2768 C2775 1.500 . S
C2769 C2768 1.382 . S
C2769 C2770 1.400 . S
C2769 H2780 0.930 . S
C2770 C2769 1.400 . S
C2770 C2771 1.384 . S
C2771 C2770 1.384 . S
C2771 C2773 1.392 . S
C2771 H2781 0.931 . S
C2772 C2768 1.393 . S
C2772 C2773 1.401 . S
C2772 H2782 0.930 . S
C2773 C2771 1.392 . S
C2773 C2772 1.401 . S
C2773 H2783 0.930 . S
C2774 O2752 1.262 . S
C2774 O2753 1.260 . S
C2775 Tb2711 2.833 . S
C2775 O2750 1.251 . S
C2775 O2755 1.256 . S
C2775 C2768 1.500 . S
H2776 C2759 0.930 . S
H2777 C2760 0.931 . S
H2778 C2761 0.930 . S
H2779 C2762 0.930 . S
H2780 C2769 0.930 . S
H2781 C2771 0.931 . S
H2782 C2772 0.930 . S
H2783 C2773 0.930 . S
Tb2784 N2815 2.660 . S
Tb2784 N2822 2.600 . S
Tb2784 O2828 2.546 . S
Tb2784 O2829 2.610 1_554 S
Tb2784 O2831 2.320 . S
Tb2784 O2832 2.552 1_554 S
Tb2784 O2833 2.413 . S
Tb2784 O2835 2.362 . S
Tb2784 O2836 2.421 . S
Tb2784 C2848 2.833 . S
C2785 C2788 1.432 . S
C2785 C2789 1.414 . S
C2785 N2792 1.359 . S
C2786 C2788 1.417 . S
C2786 C2790 1.432 . S
C2786 C2798 1.410 . S
C2787 C2789 1.444 . S
C2787 C2790 1.317 . S
C2787 H2810 0.929 . S
C2788 C2785 1.432 . S
C2788 C2786 1.417 . S
C2788 N2796 1.360 . S
C2789 C2785 1.414 . S
C2789 C2787 1.444 . S
C2789 C2794 1.385 . S
C2790 C2786 1.432 . S
C2790 C2787 1.317 . S
C2790 H2802 0.930 . S
C2791 C2793 1.392 . S
C2791 C2794 1.370 . S
C2791 H2803 0.931 . S
N2792 C2785 1.359 . S
N2792 C2793 1.327 . S
N2792 Tb2795 2.600 1_556 S
C2793 C2791 1.392 . S
C2793 N2792 1.327 . S
C2793 H2800 0.930 . S
C2794 C2789 1.385 . S
C2794 C2791 1.370 . S
C2794 H2813 0.930 . S
Tb2795 N2792 2.600 1_554 S
Tb2795 N2796 2.660 1_554 S
Tb2795 O2829 2.362 1_554 S
Tb2795 O2830 2.421 . S
Tb2795 O2834 2.546 . S
Tb2795 O2835 2.610 . S
Tb2795 O2837 2.320 . S
Tb2795 O2838 2.552 . S
Tb2795 O2839 2.413 . S
Tb2795 C2859 2.833 . S
N2796 C2788 1.360 . S
N2796 Tb2795 2.660 1_556 S
N2796 C2797 1.305 . S
C2797 N2796 1.305 . S
C2797 C2799 1.407 . S
C2797 H2804 0.930 . S
C2798 C2786 1.410 . S
C2798 C2799 1.345 . S
C2798 H2806 0.930 . S
C2799 C2797 1.407 . S
C2799 C2798 1.345 . S
C2799 H2801 0.930 . S
H2800 C2793 0.930 . S
H2801 C2799 0.930 . S
H2802 C2790 0.930 . S
H2803 C2791 0.931 . S
H2804 C2797 0.930 . S
H2805 C2819 0.930 . S
H2806 C2798 0.930 . S
H2807 C2825 0.930 . S
H2808 C2816 0.930 . S
H2809 C2823 0.931 . S
H2810 C2787 0.929 . S
H2811 C2817 0.930 . S
H2812 C2850 0.930 . S
H2813 C2794 0.930 . S
H2814 C2849 0.929 . S
N2815 Tb2784 2.660 . S
N2815 C2816 1.305 . S
N2815 C2820 1.360 . S
C2816 H2808 0.930 . S
C2816 N2815 1.305 . S
C2816 C2819 1.407 . S
C2817 H2811 0.930 . S
C2817 C2818 1.410 . S
C2817 C2819 1.345 . S
C2818 C2817 1.410 . S
C2818 C2820 1.417 . S
C2818 C2850 1.432 . S
C2819 H2805 0.930 . S
C2819 C2816 1.407 . S
C2819 C2817 1.345 . S
C2820 N2815 1.360 . S
C2820 C2818 1.417 . S
C2820 C2824 1.432 . S
H2821 C2826 0.930 . S
N2822 Tb2784 2.600 . S
N2822 C2824 1.359 . S
N2822 C2825 1.327 . S
C2823 H2809 0.931 . S
C2823 C2825 1.392 . S
C2823 C2826 1.370 . S
C2824 C2820 1.432 . S
C2824 N2822 1.359 . S
C2824 C2827 1.414 . S
C2825 H2807 0.930 . S
C2825 N2822 1.327 . S
C2825 C2823 1.392 . S
C2826 H2821 0.930 . S
C2826 C2823 1.370 . S
C2826 C2827 1.385 . S
C2827 C2824 1.414 . S
C2827 C2826 1.385 . S
C2827 C2849 1.444 . S
O2828 Tb2784 2.546 . S
O2828 C2848 1.251 . S
O2829 Tb2784 2.610 1_556 S
O2829 Tb2795 2.362 1_556 S
O2829 C2840 1.283 . S
O2830 Tb2795 2.421 . S
O2830 C2847 1.262 . S
O2831 Tb2784 2.320 . S
O2831 C2847 1.260 . S
O2832 Tb2784 2.552 1_556 S
O2832 C2840 1.243 . S
O2833 Tb2784 2.413 . S
O2833 C2848 1.256 . S
O2834 Tb2795 2.546 . S
O2834 C2859 1.251 . S
O2835 Tb2784 2.362 . S
O2835 Tb2795 2.610 . S
O2835 C2851 1.283 . S
O2836 Tb2784 2.421 . S
O2836 C2858 1.262 . S
O2837 Tb2795 2.320 . S
O2837 C2858 1.260 . S
O2838 Tb2795 2.552 . S
O2838 C2851 1.243 . S
O2839 Tb2795 2.413 . S
O2839 C2859 1.256 . S
C2840 O2829 1.283 . S
C2840 O2832 1.243 . S
C2841 C2843 1.382 . S
C2841 C2845 1.393 . S
C2841 C2848 1.500 . S
C2842 C2843 1.400 1_556 S
C2842 C2844 1.384 1_556 S
C2843 C2841 1.382 . S
C2843 C2842 1.400 1_554 S
C2843 H2860 0.930 1_554 S
C2844 C2842 1.384 1_554 S
C2844 C2846 1.392 . S
C2844 H2861 0.932 . S
C2845 C2841 1.393 . S
C2845 C2846 1.401 . S
C2845 H2862 0.930 . S
C2846 C2844 1.392 . S
C2846 C2845 1.401 . S
C2846 H2863 0.930 . S
C2847 O2830 1.262 . S
C2847 O2831 1.260 . S
C2848 Tb2784 2.833 . S
C2848 O2828 1.251 . S
C2848 O2833 1.256 . S
C2848 C2841 1.500 . S
C2849 H2814 0.929 . S
C2849 C2827 1.444 . S
C2849 C2850 1.317 . S
C2850 H2812 0.930 . S
C2850 C2818 1.432 . S
C2850 C2849 1.317 . S
C2851 O2835 1.283 . S
C2851 O2838 1.243 . S
C2852 C2853 1.382 . S
C2852 C2856 1.393 . S
C2852 C2859 1.500 . S
C2853 C2852 1.382 . S
C2853 C2854 1.400 . S
C2853 H2864 0.930 . S
C2854 C2853 1.400 . S
C2854 C2855 1.384 . S
C2855 C2854 1.384 . S
C2855 C2857 1.392 . S
C2855 H2865 0.931 . S
C2856 C2852 1.393 . S
C2856 C2857 1.401 . S
C2856 H2866 0.930 . S
C2857 C2855 1.392 . S
C2857 C2856 1.401 . S
C2857 H2867 0.930 . S
C2858 O2836 1.262 . S
C2858 O2837 1.260 . S
C2859 Tb2795 2.833 . S
C2859 O2834 1.251 . S
C2859 O2839 1.256 . S
C2859 C2852 1.500 . S
H2860 C2843 0.930 1_556 S
H2861 C2844 0.932 . S
H2862 C2845 0.930 . S
H2863 C2846 0.930 . S
H2864 C2853 0.930 . S
H2865 C2855 0.931 . S
H2866 C2856 0.930 . S
H2867 C2857 0.930 . S
Tb2868 N2899 2.660 . S
Tb2868 N2906 2.600 . S
Tb2868 O2912 2.546 . S
Tb2868 O2913 2.610 . S
Tb2868 O2915 2.320 . S
Tb2868 O2916 2.552 . S
Tb2868 O2917 2.413 . S
Tb2868 O2919 2.362 . S
Tb2868 O2920 2.421 . S
Tb2868 C2932 2.833 . S
C2869 C2872 1.432 . S
C2869 C2873 1.414 . S
C2869 N2876 1.359 . S
C2870 C2872 1.417 . S
C2870 C2874 1.432 . S
C2870 C2882 1.410 . S
C2871 C2873 1.444 . S
C2871 C2874 1.317 . S
C2871 H2894 0.929 . S
C2872 C2869 1.432 . S
C2872 C2870 1.417 . S
C2872 N2880 1.360 . S
C2873 C2869 1.414 . S
C2873 C2871 1.444 . S
C2873 C2878 1.385 . S
C2874 C2870 1.432 . S
C2874 C2871 1.317 . S
C2874 H2886 0.930 . S
C2875 C2877 1.392 . S
C2875 C2878 1.370 . S
C2875 H2887 0.931 . S
N2876 C2869 1.359 . S
N2876 C2877 1.327 . S
N2876 Tb2879 2.600 . S
C2877 C2875 1.392 . S
C2877 N2876 1.327 . S
C2877 H2884 0.930 . S
C2878 C2873 1.385 . S
C2878 C2875 1.370 . S
C2878 H2897 0.930 . S
Tb2879 N2876 2.600 . S
Tb2879 N2880 2.660 . S
Tb2879 O2913 2.362 . S
Tb2879 O2914 2.421 . S
Tb2879 O2918 2.546 . S
Tb2879 O2919 2.610 . S
Tb2879 O2921 2.320 . S
Tb2879 O2922 2.552 . S
Tb2879 O2923 2.413 . S
Tb2879 C2943 2.833 . S
N2880 C2872 1.360 . S
N2880 Tb2879 2.660 . S
N2880 C2881 1.305 . S
C2881 N2880 1.305 . S
C2881 C2883 1.407 . S
C2881 H2888 0.930 . S
C2882 C2870 1.410 . S
C2882 C2883 1.345 . S
C2882 H2890 0.930 . S
C2883 C2881 1.407 . S
C2883 C2882 1.345 . S
C2883 H2885 0.930 . S
H2884 C2877 0.930 . S
H2885 C2883 0.930 . S
H2886 C2874 0.930 . S
H2887 C2875 0.931 . S
H2888 C2881 0.930 . S
H2889 C2903 0.930 . S
H2890 C2882 0.930 . S
H2891 C2909 0.930 . S
H2892 C2900 0.930 . S
H2893 C2907 0.931 . S
H2894 C2871 0.929 . S
H2895 C2901 0.930 . S
H2896 C2934 0.930 . S
H2897 C2878 0.930 . S
H2898 C2933 0.929 . S
N2899 Tb2868 2.660 . S
N2899 C2900 1.305 . S
N2899 C2904 1.360 . S
C2900 H2892 0.930 . S
C2900 N2899 1.305 . S
C2900 C2903 1.407 . S
C2901 H2895 0.930 . S
C2901 C2902 1.410 . S
C2901 C2903 1.345 . S
C2902 C2901 1.410 . S
C2902 C2904 1.417 . S
C2902 C2934 1.432 . S
C2903 H2889 0.930 . S
C2903 C2900 1.407 . S
C2903 C2901 1.345 . S
C2904 N2899 1.360 . S
C2904 C2902 1.417 . S
C2904 C2908 1.432 . S
H2905 C2910 0.930 . S
N2906 Tb2868 2.600 . S
N2906 C2908 1.359 . S
N2906 C2909 1.327 . S
C2907 H2893 0.931 . S
C2907 C2909 1.392 . S
C2907 C2910 1.370 . S
C2908 C2904 1.432 . S
C2908 N2906 1.359 . S
C2908 C2911 1.414 . S
C2909 H2891 0.930 . S
C2909 N2906 1.327 . S
C2909 C2907 1.392 . S
C2910 H2905 0.930 . S
C2910 C2907 1.370 . S
C2910 C2911 1.385 . S
C2911 C2908 1.414 . S
C2911 C2910 1.385 . S
C2911 C2933 1.444 . S
O2912 Tb2868 2.546 . S
O2912 C2932 1.251 . S
O2913 Tb2868 2.610 . S
O2913 Tb2879 2.362 . S
O2913 C2924 1.283 . S
O2914 Tb2879 2.421 . S
O2914 C2931 1.262 . S
O2915 Tb2868 2.320 . S
O2915 C2931 1.260 . S
O2916 Tb2868 2.552 . S
O2916 C2924 1.243 . S
O2917 Tb2868 2.413 . S
O2917 C2932 1.256 . S
O2918 Tb2879 2.546 . S
O2918 C2943 1.251 . S
O2919 Tb2868 2.362 . S
O2919 Tb2879 2.610 . S
O2919 C2935 1.283 . S
O2920 Tb2868 2.421 . S
O2920 C2942 1.262 . S
O2921 Tb2879 2.320 . S
O2921 C2942 1.260 . S
O2922 Tb2879 2.552 . S
O2922 C2935 1.243 . S
O2923 Tb2879 2.413 . S
O2923 C2943 1.256 . S
C2924 O2913 1.283 . S
C2924 O2916 1.243 . S
C2925 C2927 1.382 . S
C2925 C2929 1.393 . S
C2925 C2932 1.500 . S
C2926 C2927 1.400 . S
C2926 C2928 1.384 . S
C2927 C2925 1.382 . S
C2927 C2926 1.400 . S
C2927 H2944 0.930 . S
C2928 C2926 1.384 . S
C2928 C2930 1.392 . S
C2928 H2945 0.931 . S
C2929 C2925 1.393 . S
C2929 C2930 1.401 . S
C2929 H2946 0.930 . S
C2930 C2928 1.392 . S
C2930 C2929 1.401 . S
C2930 H2947 0.930 . S
C2931 O2914 1.262 . S
C2931 O2915 1.260 . S
C2932 Tb2868 2.833 . S
C2932 O2912 1.251 . S
C2932 O2917 1.256 . S
C2932 C2925 1.500 . S
C2933 H2898 0.929 . S
C2933 C2911 1.444 . S
C2933 C2934 1.317 . S
C2934 H2896 0.930 . S
C2934 C2902 1.432 . S
C2934 C2933 1.317 . S
C2935 O2919 1.283 . S
C2935 O2922 1.243 . S
C2936 C2937 1.382 . S
C2936 C2940 1.393 . S
C2936 C2943 1.500 . S
C2937 C2936 1.382 . S
C2937 C2938 1.400 . S
C2937 H2948 0.930 . S
C2938 C2937 1.400 . S
C2938 C2939 1.384 . S
C2939 C2938 1.384 . S
C2939 C2941 1.392 . S
C2939 H2949 0.931 . S
C2940 C2936 1.393 . S
C2940 C2941 1.401 . S
C2940 H2950 0.930 . S
C2941 C2939 1.392 . S
C2941 C2940 1.401 . S
C2941 H2951 0.930 . S
C2942 O2920 1.262 . S
C2942 O2921 1.260 . S
C2943 Tb2879 2.833 . S
C2943 O2918 1.251 . S
C2943 O2923 1.256 . S
C2943 C2936 1.500 . S
H2944 C2927 0.930 . S
H2945 C2928 0.931 . S
H2946 C2929 0.930 . S
H2947 C2930 0.930 . S
H2948 C2937 0.930 . S
H2949 C2939 0.931 . S
H2950 C2940 0.930 . S
H2951 C2941 0.930 . S
Tb2952 N2983 2.660 . S
Tb2952 N2990 2.600 . S
Tb2952 O2996 2.546 . S
Tb2952 O2997 2.610 . S
Tb2952 O2999 2.320 . S
Tb2952 O3000 2.552 . S
Tb2952 O3001 2.413 . S
Tb2952 O3003 2.362 . S
Tb2952 O3004 2.421 . S
Tb2952 C3016 2.833 . S
C2953 C2956 1.432 . S
C2953 C2957 1.414 1_455 S
C2953 N2960 1.359 . S
C2954 C2956 1.417 1_655 S
C2954 C2958 1.432 . S
C2954 C2966 1.410 . S
C2955 C2957 1.444 . S
C2955 C2958 1.317 . S
C2955 H2978 0.929 . S
C2956 C2953 1.432 . S
C2956 C2954 1.417 1_455 S
C2956 N2964 1.360 . S
C2957 C2953 1.414 1_655 S
C2957 C2955 1.444 . S
C2957 C2962 1.385 . S
C2958 C2954 1.432 . S
C2958 C2955 1.317 . S
C2958 H2970 0.930 . S
C2959 C2961 1.392 . S
C2959 C2962 1.370 1_455 S
C2959 H2971 0.931 . S
N2960 C2953 1.359 . S
N2960 C2961 1.327 . S
N2960 Tb2963 2.600 . S
C2961 C2959 1.392 . S
C2961 N2960 1.327 . S
C2961 H2968 0.930 . S
C2962 C2957 1.385 . S
C2962 C2959 1.370 1_655 S
C2962 H2981 0.930 . S
Tb2963 N2960 2.600 . S
Tb2963 N2964 2.660 . S
Tb2963 O2997 2.362 . S
Tb2963 O2998 2.421 . S
Tb2963 O3002 2.546 . S
Tb2963 O3003 2.610 . S
Tb2963 O3005 2.320 . S
Tb2963 O3006 2.552 . S
Tb2963 O3007 2.413 . S
Tb2963 C3027 2.833 . S
N2964 C2956 1.360 . S
N2964 Tb2963 2.660 . S
N2964 C2965 1.305 . S
C2965 N2964 1.305 . S
C2965 C2967 1.407 1_455 S
C2965 H2972 0.930 . S
C2966 C2954 1.410 . S
C2966 C2967 1.345 . S
C2966 H2974 0.930 . S
C2967 C2965 1.407 1_655 S
C2967 C2966 1.345 . S
C2967 H2969 0.930 . S
H2968 C2961 0.930 . S
H2969 C2967 0.930 . S
H2970 C2958 0.930 . S
H2971 C2959 0.931 . S
H2972 C2965 0.930 . S
H2973 C2987 0.930 . S
H2974 C2966 0.930 . S
H2975 C2993 0.930 . S
H2976 C2984 0.930 . S
H2977 C2991 0.931 . S
H2978 C2955 0.929 . S
H2979 C2985 0.930 . S
H2980 C3018 0.930 . S
H2981 C2962 0.930 . S
H2982 C3017 0.929 . S
N2983 Tb2952 2.660 . S
N2983 C2984 1.305 . S
N2983 C2988 1.360 . S
C2984 H2976 0.930 . S
C2984 N2983 1.305 . S
C2984 C2987 1.407 . S
C2985 H2979 0.930 . S
C2985 C2986 1.410 . S
C2985 C2987 1.345 . S
C2986 C2985 1.410 . S
C2986 C2988 1.417 . S
C2986 C3018 1.432 . S
C2987 H2973 0.930 . S
C2987 C2984 1.407 . S
C2987 C2985 1.345 . S
C2988 N2983 1.360 . S
C2988 C2986 1.417 . S
C2988 C2992 1.432 . S
H2989 C2994 0.930 . S
N2990 Tb2952 2.600 . S
N2990 C2992 1.359 . S
N2990 C2993 1.327 . S
C2991 H2977 0.931 . S
C2991 C2993 1.392 . S
C2991 C2994 1.370 . S
C2992 C2988 1.432 . S
C2992 N2990 1.359 . S
C2992 C2995 1.414 . S
C2993 H2975 0.930 . S
C2993 N2990 1.327 . S
C2993 C2991 1.392 . S
C2994 H2989 0.930 . S
C2994 C2991 1.370 . S
C2994 C2995 1.385 . S
C2995 C2992 1.414 . S
C2995 C2994 1.385 . S
C2995 C3017 1.444 . S
O2996 Tb2952 2.546 . S
O2996 C3016 1.251 . S
O2997 Tb2952 2.610 . S
O2997 Tb2963 2.362 . S
O2997 C3008 1.283 . S
O2998 Tb2963 2.421 . S
O2998 C3015 1.262 . S
O2999 Tb2952 2.320 . S
O2999 C3015 1.260 . S
O3000 Tb2952 2.552 . S
O3000 C3008 1.243 . S
O3001 Tb2952 2.413 . S
O3001 C3016 1.256 . S
O3002 Tb2963 2.546 . S
O3002 C3027 1.251 . S
O3003 Tb2952 2.362 . S
O3003 Tb2963 2.610 . S
O3003 C3019 1.283 . S
O3004 Tb2952 2.421 . S
O3004 C3026 1.262 . S
O3005 Tb2963 2.320 . S
O3005 C3026 1.260 . S
O3006 Tb2963 2.552 . S
O3006 C3019 1.243 . S
O3007 Tb2963 2.413 . S
O3007 C3027 1.256 . S
C3008 O2997 1.283 . S
C3008 O3000 1.243 . S
C3009 C3011 1.382 . S
C3009 C3013 1.393 . S
C3009 C3016 1.500 . S
C3010 C3011 1.400 . S
C3010 C3012 1.384 . S
C3011 C3009 1.382 . S
C3011 C3010 1.400 . S
C3011 H3028 0.930 . S
C3012 C3010 1.384 . S
C3012 C3014 1.392 . S
C3012 H3029 0.931 . S
C3013 C3009 1.393 . S
C3013 C3014 1.401 . S
C3013 H3030 0.930 . S
C3014 C3012 1.392 . S
C3014 C3013 1.401 . S
C3014 H3031 0.930 . S
C3015 O2998 1.262 . S
C3015 O2999 1.260 . S
C3016 Tb2952 2.833 . S
C3016 O2996 1.251 . S
C3016 O3001 1.256 . S
C3016 C3009 1.500 . S
C3017 H2982 0.929 . S
C3017 C2995 1.444 . S
C3017 C3018 1.317 . S
C3018 H2980 0.930 . S
C3018 C2986 1.432 . S
C3018 C3017 1.317 . S
C3019 O3003 1.283 . S
C3019 O3006 1.243 . S
C3020 C3021 1.382 . S
C3020 C3024 1.393 . S
C3020 C3027 1.500 . S
C3021 C3020 1.382 . S
C3021 C3022 1.400 . S
C3021 H3032 0.930 . S
C3022 C3021 1.400 . S
C3022 C3023 1.384 . S
C3023 C3022 1.384 . S
C3023 C3025 1.392 . S
C3023 H3033 0.931 . S
C3024 C3020 1.393 . S
C3024 C3025 1.401 . S
C3024 H3034 0.930 . S
C3025 C3023 1.392 . S
C3025 C3024 1.401 . S
C3025 H3035 0.930 . S
C3026 O3004 1.262 . S
C3026 O3005 1.260 . S
C3027 Tb2963 2.833 . S
C3027 O3002 1.251 . S
C3027 O3007 1.256 . S
C3027 C3020 1.500 . S
H3028 C3011 0.930 . S
H3029 C3012 0.931 . S
H3030 C3013 0.930 . S
H3031 C3014 0.930 . S
H3032 C3021 0.930 . S
H3033 C3023 0.931 . S
H3034 C3024 0.930 . S
H3035 C3025 0.930 . S
Tb3036 N3067 2.660 . S
Tb3036 N3074 2.600 . S
Tb3036 O3080 2.546 . S
Tb3036 O3081 2.610 . S
Tb3036 O3083 2.320 . S
Tb3036 O3084 2.552 . S
Tb3036 O3085 2.413 . S
Tb3036 O3087 2.362 . S
Tb3036 O3088 2.421 . S
Tb3036 C3100 2.833 . S
C3037 C3040 1.432 . S
C3037 C3041 1.414 . S
C3037 N3044 1.359 . S
C3038 C3040 1.417 . S
C3038 C3042 1.432 . S
C3038 C3050 1.410 . S
C3039 C3041 1.444 . S
C3039 C3042 1.317 . S
C3039 H3062 0.929 . S
C3040 C3037 1.432 . S
C3040 C3038 1.417 . S
C3040 N3048 1.360 . S
C3041 C3037 1.414 . S
C3041 C3039 1.444 . S
C3041 C3046 1.385 . S
C3042 C3038 1.432 . S
C3042 C3039 1.317 . S
C3042 H3054 0.930 . S
C3043 C3045 1.392 . S
C3043 C3046 1.370 . S
C3043 H3055 0.931 . S
N3044 C3037 1.359 . S
N3044 C3045 1.327 . S
N3044 Tb3047 2.600 . S
C3045 C3043 1.392 . S
C3045 N3044 1.327 . S
C3045 H3052 0.930 . S
C3046 C3041 1.385 . S
C3046 C3043 1.370 . S
C3046 H3065 0.930 . S
Tb3047 N3044 2.600 . S
Tb3047 N3048 2.660 . S
Tb3047 O3081 2.362 . S
Tb3047 O3082 2.421 . S
Tb3047 O3086 2.546 . S
Tb3047 O3087 2.610 . S
Tb3047 O3089 2.320 . S
Tb3047 O3090 2.552 . S
Tb3047 O3091 2.413 . S
Tb3047 C3111 2.833 . S
N3048 C3040 1.360 . S
N3048 Tb3047 2.660 . S
N3048 C3049 1.305 . S
C3049 N3048 1.305 . S
C3049 C3051 1.407 . S
C3049 H3056 0.930 . S
C3050 C3038 1.410 . S
C3050 C3051 1.345 . S
C3050 H3058 0.930 . S
C3051 C3049 1.407 . S
C3051 C3050 1.345 . S
C3051 H3053 0.930 . S
H3052 C3045 0.930 . S
H3053 C3051 0.930 . S
H3054 C3042 0.930 . S
H3055 C3043 0.931 . S
H3056 C3049 0.930 . S
H3057 C3071 0.930 . S
H3058 C3050 0.930 . S
H3059 C3077 0.930 . S
H3060 C3068 0.930 . S
H3061 C3075 0.931 . S
H3062 C3039 0.929 . S
H3063 C3069 0.930 . S
H3064 C3102 0.930 . S
H3065 C3046 0.930 . S
H3066 C3101 0.929 . S
N3067 Tb3036 2.660 . S
N3067 C3068 1.305 . S
N3067 C3072 1.360 . S
C3068 H3060 0.930 . S
C3068 N3067 1.305 . S
C3068 C3071 1.407 . S
C3069 H3063 0.930 . S
C3069 C3070 1.410 . S
C3069 C3071 1.345 . S
C3070 C3069 1.410 . S
C3070 C3072 1.417 . S
C3070 C3102 1.432 . S
C3071 H3057 0.930 . S
C3071 C3068 1.407 . S
C3071 C3069 1.345 . S
C3072 N3067 1.360 . S
C3072 C3070 1.417 . S
C3072 C3076 1.432 . S
H3073 C3078 0.930 . S
N3074 Tb3036 2.600 . S
N3074 C3076 1.359 . S
N3074 C3077 1.327 . S
C3075 H3061 0.931 . S
C3075 C3077 1.392 . S
C3075 C3078 1.370 . S
C3076 C3072 1.432 . S
C3076 N3074 1.359 . S
C3076 C3079 1.414 . S
C3077 H3059 0.930 . S
C3077 N3074 1.327 . S
C3077 C3075 1.392 . S
C3078 H3073 0.930 . S
C3078 C3075 1.370 . S
C3078 C3079 1.385 . S
C3079 C3076 1.414 . S
C3079 C3078 1.385 . S
C3079 C3101 1.444 . S
O3080 Tb3036 2.546 . S
O3080 C3100 1.251 . S
O3081 Tb3036 2.610 . S
O3081 Tb3047 2.362 . S
O3081 C3092 1.283 . S
O3082 Tb3047 2.421 . S
O3082 C3099 1.262 . S
O3083 Tb3036 2.320 . S
O3083 C3099 1.260 . S
O3084 Tb3036 2.552 . S
O3084 C3092 1.243 . S
O3085 Tb3036 2.413 . S
O3085 C3100 1.256 . S
O3086 Tb3047 2.546 . S
O3086 C3111 1.251 . S
O3087 Tb3036 2.362 . S
O3087 Tb3047 2.610 . S
O3087 C3103 1.283 . S
O3088 Tb3036 2.421 . S
O3088 C3110 1.262 . S
O3089 Tb3047 2.320 . S
O3089 C3110 1.260 . S
O3090 Tb3047 2.552 . S
O3090 C3103 1.243 . S
O3091 Tb3047 2.413 . S
O3091 C3111 1.256 . S
C3092 O3081 1.283 . S
C3092 O3084 1.243 . S
C3093 C3095 1.382 . S
C3093 C3097 1.393 . S
C3093 C3100 1.500 . S
C3094 C3095 1.400 . S
C3094 C3096 1.384 . S
C3095 C3093 1.382 . S
C3095 C3094 1.400 . S
C3095 H3112 0.930 . S
C3096 C3094 1.384 . S
C3096 C3098 1.392 . S
C3096 H3113 0.931 . S
C3097 C3093 1.393 . S
C3097 C3098 1.401 . S
C3097 H3114 0.930 . S
C3098 C3096 1.392 . S
C3098 C3097 1.401 . S
C3098 H3115 0.930 . S
C3099 O3082 1.262 . S
C3099 O3083 1.260 . S
C3100 Tb3036 2.833 . S
C3100 O3080 1.251 . S
C3100 O3085 1.256 . S
C3100 C3093 1.500 . S
C3101 H3066 0.929 . S
C3101 C3079 1.444 . S
C3101 C3102 1.317 . S
C3102 H3064 0.930 . S
C3102 C3070 1.432 . S
C3102 C3101 1.317 . S
C3103 O3087 1.283 . S
C3103 O3090 1.243 . S
C3104 C3105 1.382 . S
C3104 C3108 1.393 . S
C3104 C3111 1.500 . S
C3105 C3104 1.382 . S
C3105 C3106 1.400 . S
C3105 H3116 0.930 . S
C3106 C3105 1.400 . S
C3106 C3107 1.384 . S
C3107 C3106 1.384 . S
C3107 C3109 1.392 . S
C3107 H3117 0.931 . S
C3108 C3104 1.393 . S
C3108 C3109 1.401 . S
C3108 H3118 0.930 . S
C3109 C3107 1.392 . S
C3109 C3108 1.401 . S
C3109 H3119 0.930 . S
C3110 O3088 1.262 . S
C3110 O3089 1.260 . S
C3111 Tb3047 2.833 . S
C3111 O3086 1.251 . S
C3111 O3091 1.256 . S
C3111 C3104 1.500 . S
H3112 C3095 0.930 . S
H3113 C3096 0.931 . S
H3114 C3097 0.930 . S
H3115 C3098 0.930 . S
H3116 C3105 0.930 . S
H3117 C3107 0.931 . S
H3118 C3108 0.930 . S
H3119 C3109 0.930 . S
Tb3120 N3151 2.660 . S
Tb3120 N3158 2.600 . S
Tb3120 O3164 2.546 . S
Tb3120 O3165 2.610 . S
Tb3120 O3167 2.320 . S
Tb3120 O3168 2.552 . S
Tb3120 O3169 2.413 . S
Tb3120 O3171 2.362 . S
Tb3120 O3172 2.421 . S
Tb3120 C3184 2.833 . S
C3121 C3124 1.432 . S
C3121 C3125 1.414 . S
C3121 N3128 1.359 . S
C3122 C3124 1.417 . S
C3122 C3126 1.432 . S
C3122 C3134 1.410 . S
C3123 C3125 1.444 . S
C3123 C3126 1.317 . S
C3123 H3146 0.929 . S
C3124 C3121 1.432 . S
C3124 C3122 1.417 . S
C3124 N3132 1.360 . S
C3125 C3121 1.414 . S
C3125 C3123 1.444 . S
C3125 C3130 1.385 . S
C3126 C3122 1.432 . S
C3126 C3123 1.317 . S
C3126 H3138 0.930 . S
C3127 C3129 1.392 . S
C3127 C3130 1.370 . S
C3127 H3139 0.931 . S
N3128 C3121 1.359 . S
N3128 C3129 1.327 . S
N3128 Tb3131 2.600 . S
C3129 C3127 1.392 . S
C3129 N3128 1.327 . S
C3129 H3136 0.930 . S
C3130 C3125 1.385 . S
C3130 C3127 1.370 . S
C3130 H3149 0.930 . S
Tb3131 N3128 2.600 . S
Tb3131 N3132 2.660 . S
Tb3131 O3165 2.362 . S
Tb3131 O3166 2.421 . S
Tb3131 O3170 2.546 . S
Tb3131 O3171 2.610 . S
Tb3131 O3173 2.320 . S
Tb3131 O3174 2.552 . S
Tb3131 O3175 2.413 . S
Tb3131 C3195 2.833 . S
N3132 C3124 1.360 . S
N3132 Tb3131 2.660 . S
N3132 C3133 1.305 . S
C3133 N3132 1.305 . S
C3133 C3135 1.407 . S
C3133 H3140 0.930 . S
C3134 C3122 1.410 . S
C3134 C3135 1.345 . S
C3134 H3142 0.930 . S
C3135 C3133 1.407 . S
C3135 C3134 1.345 . S
C3135 H3137 0.930 . S
H3136 C3129 0.930 . S
H3137 C3135 0.930 . S
H3138 C3126 0.930 . S
H3139 C3127 0.931 . S
H3140 C3133 0.930 . S
H3141 C3155 0.930 . S
H3142 C3134 0.930 . S
H3143 C3161 0.930 . S
H3144 C3152 0.930 . S
H3145 C3159 0.931 . S
H3146 C3123 0.929 . S
H3147 C3153 0.930 . S
H3148 C3186 0.930 . S
H3149 C3130 0.930 . S
H3150 C3185 0.929 . S
N3151 Tb3120 2.660 . S
N3151 C3152 1.305 . S
N3151 C3156 1.360 . S
C3152 H3144 0.930 . S
C3152 N3151 1.305 . S
C3152 C3155 1.407 . S
C3153 H3147 0.930 . S
C3153 C3154 1.410 . S
C3153 C3155 1.345 . S
C3154 C3153 1.410 . S
C3154 C3156 1.417 . S
C3154 C3186 1.432 . S
C3155 H3141 0.930 . S
C3155 C3152 1.407 . S
C3155 C3153 1.345 . S
C3156 N3151 1.360 . S
C3156 C3154 1.417 . S
C3156 C3160 1.432 . S
H3157 C3162 0.930 . S
N3158 Tb3120 2.600 . S
N3158 C3160 1.359 . S
N3158 C3161 1.327 . S
C3159 H3145 0.931 . S
C3159 C3161 1.392 . S
C3159 C3162 1.370 . S
C3160 C3156 1.432 . S
C3160 N3158 1.359 . S
C3160 C3163 1.414 . S
C3161 H3143 0.930 . S
C3161 N3158 1.327 . S
C3161 C3159 1.392 . S
C3162 H3157 0.930 . S
C3162 C3159 1.370 . S
C3162 C3163 1.385 . S
C3163 C3160 1.414 . S
C3163 C3162 1.385 . S
C3163 C3185 1.444 . S
O3164 Tb3120 2.546 . S
O3164 C3184 1.251 . S
O3165 Tb3120 2.610 . S
O3165 Tb3131 2.362 . S
O3165 C3176 1.283 . S
O3166 Tb3131 2.421 . S
O3166 C3183 1.262 . S
O3167 Tb3120 2.320 . S
O3167 C3183 1.260 . S
O3168 Tb3120 2.552 . S
O3168 C3176 1.243 . S
O3169 Tb3120 2.413 . S
O3169 C3184 1.256 . S
O3170 Tb3131 2.546 . S
O3170 C3195 1.251 . S
O3171 Tb3120 2.362 . S
O3171 Tb3131 2.610 . S
O3171 C3187 1.283 . S
O3172 Tb3120 2.421 . S
O3172 C3194 1.262 . S
O3173 Tb3131 2.320 . S
O3173 C3194 1.260 . S
O3174 Tb3131 2.552 . S
O3174 C3187 1.243 . S
O3175 Tb3131 2.413 . S
O3175 C3195 1.256 . S
C3176 O3165 1.283 . S
C3176 O3168 1.243 . S
C3177 C3179 1.382 . S
C3177 C3181 1.393 . S
C3177 C3184 1.500 . S
C3178 C3179 1.400 . S
C3178 C3180 1.384 . S
C3179 C3177 1.382 . S
C3179 C3178 1.400 . S
C3179 H3196 0.930 . S
C3180 C3178 1.384 . S
C3180 C3182 1.392 . S
C3180 H3197 0.931 . S
C3181 C3177 1.393 . S
C3181 C3182 1.401 . S
C3181 H3198 0.930 . S
C3182 C3180 1.392 . S
C3182 C3181 1.401 . S
C3182 H3199 0.930 . S
C3183 O3166 1.262 . S
C3183 O3167 1.260 . S
C3184 Tb3120 2.833 . S
C3184 O3164 1.251 . S
C3184 O3169 1.256 . S
C3184 C3177 1.500 . S
C3185 H3150 0.929 . S
C3185 C3163 1.444 . S
C3185 C3186 1.317 . S
C3186 H3148 0.930 . S
C3186 C3154 1.432 . S
C3186 C3185 1.317 . S
C3187 O3171 1.283 . S
C3187 O3174 1.243 . S
C3188 C3189 1.382 . S
C3188 C3192 1.393 . S
C3188 C3195 1.500 . S
C3189 C3188 1.382 . S
C3189 C3190 1.400 . S
C3189 H3200 0.930 . S
C3190 C3189 1.400 . S
C3190 C3191 1.384 . S
C3191 C3190 1.384 . S
C3191 C3193 1.392 . S
C3191 H3201 0.931 . S
C3192 C3188 1.393 . S
C3192 C3193 1.401 . S
C3192 H3202 0.930 . S
C3193 C3191 1.392 . S
C3193 C3192 1.401 . S
C3193 H3203 0.930 . S
C3194 O3172 1.262 . S
C3194 O3173 1.260 . S
C3195 Tb3131 2.833 . S
C3195 O3170 1.251 . S
C3195 O3175 1.256 . S
C3195 C3188 1.500 . S
H3196 C3179 0.930 . S
H3197 C3180 0.931 . S
H3198 C3181 0.930 . S
H3199 C3182 0.930 . S
H3200 C3189 0.930 . S
H3201 C3191 0.931 . S
H3202 C3192 0.930 . S
H3203 C3193 0.930 . S
Tb3204 N3235 2.660 . S
Tb3204 N3242 2.600 . S
Tb3204 O3248 2.546 . S
Tb3204 O3249 2.610 . S
Tb3204 O3251 2.320 . S
Tb3204 O3252 2.552 . S
Tb3204 O3253 2.413 . S
Tb3204 O3255 2.362 . S
Tb3204 O3256 2.421 . S
Tb3204 C3268 2.833 . S
C3205 C3208 1.432 . S
C3205 C3209 1.414 . S
C3205 N3212 1.359 . S
C3206 C3208 1.417 . S
C3206 C3210 1.432 . S
C3206 C3218 1.410 . S
C3207 C3209 1.444 . S
C3207 C3210 1.317 . S
C3207 H3230 0.929 . S
C3208 C3205 1.432 . S
C3208 C3206 1.417 . S
C3208 N3216 1.360 . S
C3209 C3205 1.414 . S
C3209 C3207 1.444 . S
C3209 C3214 1.385 . S
C3210 C3206 1.432 . S
C3210 C3207 1.317 . S
C3210 H3222 0.930 . S
C3211 C3213 1.392 . S
C3211 C3214 1.370 . S
C3211 H3223 0.931 . S
N3212 C3205 1.359 . S
N3212 C3213 1.327 . S
N3212 Tb3215 2.600 . S
C3213 C3211 1.392 . S
C3213 N3212 1.327 . S
C3213 H3220 0.930 . S
C3214 C3209 1.385 . S
C3214 C3211 1.370 . S
C3214 H3233 0.930 . S
Tb3215 N3212 2.600 . S
Tb3215 N3216 2.660 . S
Tb3215 O3249 2.362 . S
Tb3215 O3250 2.421 . S
Tb3215 O3254 2.546 . S
Tb3215 O3255 2.610 . S
Tb3215 O3257 2.320 . S
Tb3215 O3258 2.552 . S
Tb3215 O3259 2.413 . S
Tb3215 C3279 2.833 . S
N3216 C3208 1.360 . S
N3216 Tb3215 2.660 . S
N3216 C3217 1.305 . S
C3217 N3216 1.305 . S
C3217 C3219 1.407 . S
C3217 H3224 0.930 . S
C3218 C3206 1.410 . S
C3218 C3219 1.345 . S
C3218 H3226 0.930 . S
C3219 C3217 1.407 . S
C3219 C3218 1.345 . S
C3219 H3221 0.930 . S
H3220 C3213 0.930 . S
H3221 C3219 0.930 . S
H3222 C3210 0.930 . S
H3223 C3211 0.931 . S
H3224 C3217 0.930 . S
H3225 C3239 0.930 . S
H3226 C3218 0.930 . S
H3227 C3245 0.930 . S
H3228 C3236 0.930 . S
H3229 C3243 0.931 . S
H3230 C3207 0.929 . S
H3231 C3237 0.930 . S
H3232 C3270 0.930 . S
H3233 C3214 0.930 . S
H3234 C3269 0.929 . S
N3235 Tb3204 2.660 . S
N3235 C3236 1.305 . S
N3235 C3240 1.360 . S
C3236 H3228 0.930 . S
C3236 N3235 1.305 . S
C3236 C3239 1.407 . S
C3237 H3231 0.930 . S
C3237 C3238 1.410 . S
C3237 C3239 1.345 . S
C3238 C3237 1.410 . S
C3238 C3240 1.417 . S
C3238 C3270 1.432 . S
C3239 H3225 0.930 . S
C3239 C3236 1.407 . S
C3239 C3237 1.345 . S
C3240 N3235 1.360 . S
C3240 C3238 1.417 . S
C3240 C3244 1.432 . S
H3241 C3246 0.930 . S
N3242 Tb3204 2.600 . S
N3242 C3244 1.359 . S
N3242 C3245 1.327 . S
C3243 H3229 0.931 . S
C3243 C3245 1.392 . S
C3243 C3246 1.370 . S
C3244 C3240 1.432 . S
C3244 N3242 1.359 . S
C3244 C3247 1.414 . S
C3245 H3227 0.930 . S
C3245 N3242 1.327 . S
C3245 C3243 1.392 . S
C3246 H3241 0.930 . S
C3246 C3243 1.370 . S
C3246 C3247 1.385 . S
C3247 C3244 1.414 . S
C3247 C3246 1.385 . S
C3247 C3269 1.444 . S
O3248 Tb3204 2.546 . S
O3248 C3268 1.251 . S
O3249 Tb3204 2.610 . S
O3249 Tb3215 2.362 . S
O3249 C3260 1.283 . S
O3250 Tb3215 2.421 . S
O3250 C3267 1.262 . S
O3251 Tb3204 2.320 . S
O3251 C3267 1.260 . S
O3252 Tb3204 2.552 . S
O3252 C3260 1.243 . S
O3253 Tb3204 2.413 . S
O3253 C3268 1.256 . S
O3254 Tb3215 2.546 . S
O3254 C3279 1.251 . S
O3255 Tb3204 2.362 . S
O3255 Tb3215 2.610 . S
O3255 C3271 1.283 . S
O3256 Tb3204 2.421 . S
O3256 C3278 1.262 . S
O3257 Tb3215 2.320 . S
O3257 C3278 1.260 . S
O3258 Tb3215 2.552 . S
O3258 C3271 1.243 . S
O3259 Tb3215 2.413 . S
O3259 C3279 1.256 . S
C3260 O3249 1.283 . S
C3260 O3252 1.243 . S
C3261 C3263 1.382 . S
C3261 C3265 1.393 . S
C3261 C3268 1.500 . S
C3262 C3263 1.400 . S
C3262 C3264 1.384 . S
C3263 C3261 1.382 . S
C3263 C3262 1.400 . S
C3263 H3280 0.930 . S
C3264 C3262 1.384 . S
C3264 C3266 1.392 . S
C3264 H3281 0.931 . S
C3265 C3261 1.393 . S
C3265 C3266 1.401 . S
C3265 H3282 0.930 . S
C3266 C3264 1.392 . S
C3266 C3265 1.401 . S
C3266 H3283 0.930 . S
C3267 O3250 1.262 . S
C3267 O3251 1.260 . S
C3268 Tb3204 2.833 . S
C3268 O3248 1.251 . S
C3268 O3253 1.256 . S
C3268 C3261 1.500 . S
C3269 H3234 0.929 . S
C3269 C3247 1.444 . S
C3269 C3270 1.317 . S
C3270 H3232 0.930 . S
C3270 C3238 1.432 . S
C3270 C3269 1.317 . S
C3271 O3255 1.283 . S
C3271 O3258 1.243 . S
C3272 C3273 1.382 . S
C3272 C3276 1.393 . S
C3272 C3279 1.500 . S
C3273 C3272 1.382 . S
C3273 C3274 1.400 . S
C3273 H3284 0.930 . S
C3274 C3273 1.400 . S
C3274 C3275 1.384 . S
C3275 C3274 1.384 . S
C3275 C3277 1.392 . S
C3275 H3285 0.931 . S
C3276 C3272 1.393 . S
C3276 C3277 1.401 . S
C3276 H3286 0.930 . S
C3277 C3275 1.392 . S
C3277 C3276 1.401 . S
C3277 H3287 0.930 . S
C3278 O3256 1.262 . S
C3278 O3257 1.260 . S
C3279 Tb3215 2.833 . S
C3279 O3254 1.251 . S
C3279 O3259 1.256 . S
C3279 C3272 1.500 . S
H3280 C3263 0.930 . S
H3281 C3264 0.931 . S
H3282 C3265 0.930 . S
H3283 C3266 0.930 . S
H3284 C3273 0.930 . S
H3285 C3275 0.931 . S
H3286 C3276 0.930 . S
H3287 C3277 0.930 . S
Tb3288 N3319 2.660 . S
Tb3288 N3326 2.600 . S
Tb3288 O3332 2.546 . S
Tb3288 O3333 2.610 . S
Tb3288 O3335 2.320 . S
Tb3288 O3336 2.552 . S
Tb3288 O3337 2.413 . S
Tb3288 O3339 2.362 . S
Tb3288 O3340 2.421 . S
Tb3288 C3352 2.833 . S
C3289 C3292 1.432 . S
C3289 C3293 1.414 . S
C3289 N3296 1.359 . S
C3290 C3292 1.417 . S
C3290 C3294 1.432 . S
C3290 C3302 1.410 . S
C3291 C3293 1.444 . S
C3291 C3294 1.317 . S
C3291 H3314 0.929 . S
C3292 C3289 1.432 . S
C3292 C3290 1.417 . S
C3292 N3300 1.360 . S
C3293 C3289 1.414 . S
C3293 C3291 1.444 . S
C3293 C3298 1.385 . S
C3294 C3290 1.432 . S
C3294 C3291 1.317 . S
C3294 H3306 0.930 . S
C3295 C3297 1.392 . S
C3295 C3298 1.370 . S
C3295 H3307 0.931 . S
N3296 C3289 1.359 . S
N3296 C3297 1.327 . S
N3296 Tb3299 2.600 . S
C3297 C3295 1.392 . S
C3297 N3296 1.327 . S
C3297 H3304 0.930 . S
C3298 C3293 1.385 . S
C3298 C3295 1.370 . S
C3298 H3317 0.930 . S
Tb3299 N3296 2.600 . S
Tb3299 N3300 2.660 . S
Tb3299 O3333 2.362 . S
Tb3299 O3334 2.421 . S
Tb3299 O3338 2.546 . S
Tb3299 O3339 2.610 . S
Tb3299 O3341 2.320 . S
Tb3299 O3342 2.552 . S
Tb3299 O3343 2.413 . S
Tb3299 C3363 2.833 . S
N3300 C3292 1.360 . S
N3300 Tb3299 2.660 . S
N3300 C3301 1.305 . S
C3301 N3300 1.305 . S
C3301 C3303 1.407 . S
C3301 H3308 0.930 . S
C3302 C3290 1.410 . S
C3302 C3303 1.345 . S
C3302 H3310 0.930 . S
C3303 C3301 1.407 . S
C3303 C3302 1.345 . S
C3303 H3305 0.930 . S
H3304 C3297 0.930 . S
H3305 C3303 0.930 . S
H3306 C3294 0.930 . S
H3307 C3295 0.931 . S
H3308 C3301 0.930 . S
H3309 C3323 0.930 . S
H3310 C3302 0.930 . S
H3311 C3329 0.930 . S
H3312 C3320 0.930 . S
H3313 C3327 0.931 . S
H3314 C3291 0.929 . S
H3315 C3321 0.930 . S
H3316 C3354 0.930 . S
H3317 C3298 0.930 . S
H3318 C3353 0.929 . S
N3319 Tb3288 2.660 . S
N3319 C3320 1.305 . S
N3319 C3324 1.360 . S
C3320 H3312 0.930 . S
C3320 N3319 1.305 . S
C3320 C3323 1.407 . S
C3321 H3315 0.930 . S
C3321 C3322 1.410 . S
C3321 C3323 1.345 . S
C3322 C3321 1.410 . S
C3322 C3324 1.417 . S
C3322 C3354 1.432 . S
C3323 H3309 0.930 . S
C3323 C3320 1.407 . S
C3323 C3321 1.345 . S
C3324 N3319 1.360 . S
C3324 C3322 1.417 . S
C3324 C3328 1.432 . S
H3325 C3330 0.930 . S
N3326 Tb3288 2.600 . S
N3326 C3328 1.359 . S
N3326 C3329 1.327 . S
C3327 H3313 0.931 . S
C3327 C3329 1.392 . S
C3327 C3330 1.370 . S
C3328 C3324 1.432 . S
C3328 N3326 1.359 . S
C3328 C3331 1.414 . S
C3329 H3311 0.930 . S
C3329 N3326 1.327 . S
C3329 C3327 1.392 . S
C3330 H3325 0.930 . S
C3330 C3327 1.370 . S
C3330 C3331 1.385 . S
C3331 C3328 1.414 . S
C3331 C3330 1.385 . S
C3331 C3353 1.444 . S
O3332 Tb3288 2.546 . S
O3332 C3352 1.251 . S
O3333 Tb3288 2.610 . S
O3333 Tb3299 2.362 . S
O3333 C3344 1.283 . S
O3334 Tb3299 2.421 . S
O3334 C3351 1.262 . S
O3335 Tb3288 2.320 . S
O3335 C3351 1.260 . S
O3336 Tb3288 2.552 . S
O3336 C3344 1.243 . S
O3337 Tb3288 2.413 . S
O3337 C3352 1.256 . S
O3338 Tb3299 2.546 . S
O3338 C3363 1.251 . S
O3339 Tb3288 2.362 . S
O3339 Tb3299 2.610 . S
O3339 C3355 1.283 . S
O3340 Tb3288 2.421 . S
O3340 C3362 1.262 . S
O3341 Tb3299 2.320 . S
O3341 C3362 1.260 . S
O3342 Tb3299 2.552 . S
O3342 C3355 1.243 . S
O3343 Tb3299 2.413 . S
O3343 C3363 1.256 . S
C3344 O3333 1.283 . S
C3344 O3336 1.243 . S
C3345 C3347 1.382 . S
C3345 C3349 1.393 . S
C3345 C3352 1.500 . S
C3346 C3347 1.400 . S
C3346 C3348 1.384 . S
C3347 C3345 1.382 . S
C3347 C3346 1.400 . S
C3347 H3364 0.930 . S
C3348 C3346 1.384 . S
C3348 C3350 1.392 . S
C3348 H3365 0.931 . S
C3349 C3345 1.393 . S
C3349 C3350 1.401 . S
C3349 H3366 0.930 . S
C3350 C3348 1.392 . S
C3350 C3349 1.401 . S
C3350 H3367 0.930 . S
C3351 O3334 1.262 . S
C3351 O3335 1.260 . S
C3352 Tb3288 2.833 . S
C3352 O3332 1.251 . S
C3352 O3337 1.256 . S
C3352 C3345 1.500 . S
C3353 H3318 0.929 . S
C3353 C3331 1.444 . S
C3353 C3354 1.317 . S
C3354 H3316 0.930 . S
C3354 C3322 1.432 . S
C3354 C3353 1.317 . S
C3355 O3339 1.283 . S
C3355 O3342 1.243 . S
C3356 C3357 1.382 . S
C3356 C3360 1.393 . S
C3356 C3363 1.500 . S
C3357 C3356 1.382 . S
C3357 C3358 1.400 . S
C3357 H3368 0.930 . S
C3358 C3357 1.400 . S
C3358 C3359 1.384 . S
C3359 C3358 1.384 . S
C3359 C3361 1.392 . S
C3359 H3369 0.931 . S
C3360 C3356 1.393 . S
C3360 C3361 1.401 . S
C3360 H3370 0.930 . S
C3361 C3359 1.392 . S
C3361 C3360 1.401 . S
C3361 H3371 0.930 . S
C3362 O3340 1.262 . S
C3362 O3341 1.260 . S
C3363 Tb3299 2.833 . S
C3363 O3338 1.251 . S
C3363 O3343 1.256 . S
C3363 C3356 1.500 . S
H3364 C3347 0.930 . S
H3365 C3348 0.931 . S
H3366 C3349 0.930 . S
H3367 C3350 0.930 . S
H3368 C3357 0.930 . S
H3369 C3359 0.931 . S
H3370 C3360 0.930 . S
H3371 C3361 0.930 . S
Tb3372 N3403 2.660 . S
Tb3372 N3410 2.600 1_554 S
Tb3372 O3416 2.546 1_554 S
Tb3372 O3417 2.610 . S
Tb3372 O3419 2.320 . S
Tb3372 O3420 2.552 1_554 S
Tb3372 O3421 2.413 . S
Tb3372 O3423 2.362 . S
Tb3372 O3424 2.421 1_554 S
Tb3372 C3436 2.833 1_554 S
C3373 C3376 1.432 . S
C3373 C3377 1.414 . S
C3373 N3380 1.359 1_655 S
C3374 C3376 1.417 . S
C3374 C3378 1.432 . S
C3374 C3386 1.410 1_554 S
C3375 C3377 1.444 . S
C3375 C3378 1.317 . S
C3375 H3398 0.929 . S
C3376 C3373 1.432 . S
C3376 C3374 1.417 . S
C3376 N3384 1.344 1_655 S
C3377 C3373 1.414 . S
C3377 C3375 1.444 . S
C3377 C3382 1.385 . S
C3378 C3374 1.432 . S
C3378 C3375 1.317 . S
C3378 H3390 0.930 . S
C3379 C3381 1.392 . S
C3379 C3382 1.370 1_455 S
C3379 H3391 0.931 . S
N3380 C3373 1.359 1_455 S
N3380 C3381 1.327 . S
N3380 Tb3383 2.600 . S
C3381 C3379 1.392 . S
C3381 N3380 1.327 . S
C3381 H3388 0.930 . S
C3382 C3377 1.385 . S
C3382 C3379 1.370 1_655 S
C3382 H3401 0.930 . S
Tb3383 N3380 2.600 . S
Tb3383 N3384 2.681 . S
Tb3383 O3417 2.362 . S
Tb3383 O3418 2.421 . S
Tb3383 O3422 2.546 . S
Tb3383 O3423 2.610 . S
Tb3383 O3425 2.320 1_554 S
Tb3383 O3426 2.552 . S
Tb3383 O3427 2.413 1_455 S
Tb3383 C3447 2.833 1_455 S
N3384 C3376 1.344 1_455 S
N3384 Tb3383 2.681 . S
N3384 C3385 1.302 1_454 S
C3385 N3384 1.302 1_656 S
C3385 C3387 1.407 . S
C3385 H3392 0.930 1_655 S
C3386 C3374 1.410 1_556 S
C3386 C3387 1.345 . S
C3386 H3394 0.930 . S
C3387 C3385 1.407 . S
C3387 C3386 1.345 . S
C3387 H3389 0.930 . S
H3388 C3381 0.930 . S
H3389 C3387 0.930 . S
H3390 C3378 0.930 . S
H3391 C3379 0.931 . S
H3392 C3385 0.930 1_455 S
H3393 C3407 0.930 . S
H3394 C3386 0.930 . S
H3395 C3413 0.930 . S
H3396 C3404 0.930 . S
H3397 C3411 0.931 . S
H3398 C3375 0.929 . S
H3399 C3405 0.930 . S
H3400 C3438 0.926 1_554 S
H3401 C3382 0.930 . S
H3402 C3437 0.929 . S
N3403 Tb3372 2.660 . S
N3403 C3404 1.305 . S
N3403 C3408 1.360 . S
C3404 H3396 0.930 . S
C3404 N3403 1.305 . S
C3404 C3407 1.407 . S
C3405 H3399 0.930 . S
C3405 C3406 1.410 . S
C3405 C3407 1.345 . S
C3406 C3405 1.410 . S
C3406 C3408 1.417 . S
C3406 C3438 1.406 1_554 S
C3407 H3393 0.930 . S
C3407 C3404 1.407 . S
C3407 C3405 1.345 . S
C3408 N3403 1.360 . S
C3408 C3406 1.417 . S
C3408 C3412 1.432 1_554 S
H3409 C3414 0.930 . S
N3410 Tb3372 2.600 1_556 S
N3410 C3412 1.359 . S
N3410 C3413 1.327 . S
C3411 H3397 0.931 . S
C3411 C3413 1.392 . S
C3411 C3414 1.370 . S
C3412 C3408 1.432 1_556 S
C3412 N3410 1.359 . S
C3412 C3415 1.414 . S
C3413 H3395 0.930 . S
C3413 N3410 1.327 . S
C3413 C3411 1.392 . S
C3414 H3409 0.930 . S
C3414 C3411 1.370 . S
C3414 C3415 1.385 . S
C3415 C3412 1.414 . S
C3415 C3414 1.385 . S
C3415 C3437 1.444 . S
O3416 Tb3372 2.546 1_556 S
O3416 C3436 1.251 . S
O3417 Tb3372 2.610 . S
O3417 Tb3383 2.362 . S
O3417 C3428 1.283 . S
O3418 Tb3383 2.421 . S
O3418 C3435 1.262 . S
O3419 Tb3372 2.320 . S
O3419 C3435 1.260 . S
O3420 Tb3372 2.552 1_556 S
O3420 C3428 1.243 1_556 S
O3421 Tb3372 2.413 . S
O3421 C3436 1.256 1_554 S
O3422 Tb3383 2.546 . S
O3422 C3447 1.251 1_455 S
O3423 Tb3372 2.362 . S
O3423 Tb3383 2.610 . S
O3423 C3439 1.283 . S
O3424 Tb3372 2.421 1_556 S
O3424 C3446 1.262 . S
O3425 Tb3383 2.320 1_556 S
O3425 C3446 1.260 . S
O3426 Tb3383 2.552 . S
O3426 C3439 1.243 . S
O3427 Tb3383 2.413 1_655 S
O3427 C3447 1.256 . S
C3428 O3417 1.283 . S
C3428 O3420 1.243 1_554 S
C3429 C3431 1.394 . S
C3429 C3433 1.393 . S
C3429 C3436 1.500 . S
C3430 C3431 1.403 . S
C3430 C3432 1.384 . S
C3431 C3429 1.394 . S
C3431 C3430 1.403 . S
C3431 H3448 0.915 1_556 S
C3432 C3430 1.384 . S
C3432 C3434 1.392 . S
C3432 H3449 0.931 . S
C3433 C3429 1.393 . S
C3433 C3434 1.401 . S
C3433 H3450 0.930 . S
C3434 C3432 1.392 . S
C3434 C3433 1.401 . S
C3434 H3451 0.930 . S
C3435 O3418 1.262 . S
C3435 O3419 1.260 . S
C3436 Tb3372 2.833 1_556 S
C3436 O3416 1.251 . S
C3436 O3421 1.256 1_556 S
C3436 C3429 1.500 . S
C3437 H3402 0.929 . S
C3437 C3415 1.444 . S
C3437 C3438 1.347 . S
C3438 H3400 0.926 1_556 S
C3438 C3406 1.406 1_556 S
C3438 C3437 1.347 . S
C3439 O3423 1.283 . S
C3439 O3426 1.243 . S
C3440 C3441 1.382 . S
C3440 C3444 1.393 . S
C3440 C3447 1.500 . S
C3441 C3440 1.382 . S
C3441 C3442 1.400 . S
C3441 H3452 0.930 . S
C3442 C3441 1.400 . S
C3442 C3443 1.384 . S
C3443 C3442 1.384 . S
C3443 C3445 1.392 . S
C3443 H3453 0.931 . S
C3444 C3440 1.393 . S
C3444 C3445 1.401 . S
C3444 H3454 0.930 . S
C3445 C3443 1.392 . S
C3445 C3444 1.401 . S
C3445 H3455 0.930 . S
C3446 O3424 1.262 . S
C3446 O3425 1.260 . S
C3447 Tb3383 2.833 1_655 S
C3447 O3422 1.251 1_655 S
C3447 O3427 1.256 . S
C3447 C3440 1.500 . S
H3448 C3431 0.915 1_554 S
H3449 C3432 0.931 . S
H3450 C3433 0.930 . S
H3451 C3434 0.930 . S
H3452 C3441 0.930 . S
H3453 C3443 0.931 . S
H3454 C3444 0.930 . S
H3455 C3445 0.930 . S
C3456 C3457 1.387 1_556 S
C3456 H3460 0.950 . S
C3456 C3465 1.390 . S
C3457 C3456 1.387 1_554 S
C3457 C3459 1.387 . S
H3458 C3465 0.950 . S
C3459 C3457 1.387 . S
C3459 C3461 1.390 . S
C3459 H3463 0.950 . S
H3460 C3456 0.950 . S
C3461 C3459 1.390 . S
C3461 C3462 1.387 . S
C3461 H3464 0.950 . S
C3462 C3461 1.387 . S
C3462 C3465 1.387 1_554 S
H3463 C3459 0.950 . S
H3464 C3461 0.950 . S
C3465 C3456 1.390 . S
C3465 H3458 0.950 . S
C3465 C3462 1.387 1_556 S
C3466 C3467 1.387 . S
C3466 H3470 0.950 . S
C3466 C3475 1.390 . S
C3467 C3466 1.387 . S
C3467 C3469 1.387 . S
H3468 C3475 0.950 . S
C3469 C3467 1.387 . S
C3469 C3471 1.390 . S
C3469 H3473 0.950 . S
H3470 C3466 0.950 . S
C3471 C3469 1.390 . S
C3471 C3472 1.387 . S
C3471 H3474 0.950 . S
C3472 C3471 1.387 . S
C3472 C3475 1.387 . S
H3473 C3469 0.950 . S
H3474 C3471 0.950 . S
C3475 C3466 1.390 . S
C3475 H3468 0.950 . S
C3475 C3472 1.387 . S
C3476 C3477 1.387 . S
C3476 H3480 0.950 . S
C3476 C3485 1.390 . S
C3477 C3476 1.387 . S
C3477 C3479 1.387 . S
H3478 C3485 0.950 . S
C3479 C3477 1.387 . S
C3479 C3481 1.390 . S
C3479 H3483 0.950 . S
H3480 C3476 0.950 . S
C3481 C3479 1.390 . S
C3481 C3482 1.387 . S
C3481 H3484 0.950 . S
C3482 C3481 1.387 . S
C3482 C3485 1.387 . S
H3483 C3479 0.950 . S
H3484 C3481 0.950 . S
C3485 C3476 1.390 . S
C3485 H3478 0.950 . S
C3485 C3482 1.387 . S
C3486 C3487 1.387 . S
C3486 H3490 0.950 . S
C3486 C3495 1.390 . S
C3487 C3486 1.387 . S
C3487 C3489 1.387 . S
H3488 C3495 0.950 . S
C3489 C3487 1.387 . S
C3489 C3491 1.390 . S
C3489 H3493 0.950 . S
H3490 C3486 0.950 . S
C3491 C3489 1.390 . S
C3491 C3492 1.387 . S
C3491 H3494 0.950 . S
C3492 C3491 1.387 . S
C3492 C3495 1.387 . S
H3493 C3489 0.950 . S
H3494 C3491 0.950 . S
C3495 C3486 1.390 . S
C3495 H3488 0.950 . S
C3495 C3492 1.387 . S
C3496 C3497 1.387 . S
C3496 H3500 0.950 1_455 S
C3496 C3505 1.390 . S
C3497 C3496 1.387 . S
C3497 C3499 1.387 . S
H3498 C3505 0.950 . S
C3499 C3497 1.387 . S
C3499 C3501 1.390 . S
C3499 H3503 0.950 . S
H3500 C3496 0.950 1_655 S
C3501 C3499 1.390 . S
C3501 C3502 1.387 . S
C3501 H3504 0.950 . S
C3502 C3501 1.387 . S
C3502 C3505 1.387 . S
H3503 C3499 0.950 . S
H3504 C3501 0.950 . S
C3505 C3496 1.390 . S
C3505 H3498 0.950 . S
C3505 C3502 1.387 . S
C3506 C3507 1.387 . S
C3506 H3510 0.950 . S
C3506 C3515 1.390 . S
C3507 C3506 1.387 . S
C3507 C3509 1.387 . S
H3508 C3515 0.950 . S
C3509 C3507 1.387 . S
C3509 C3511 1.390 . S
C3509 H3513 0.950 . S
H3510 C3506 0.950 . S
C3511 C3509 1.390 . S
C3511 C3512 1.387 . S
C3511 H3514 0.950 . S
C3512 C3511 1.387 . S
C3512 C3515 1.387 . S
H3513 C3509 0.950 . S
H3514 C3511 0.950 . S
C3515 C3506 1.390 . S
C3515 H3508 0.950 . S
C3515 C3512 1.387 . S
C3516 C3517 1.387 . S
C3516 H3520 0.950 . S
C3516 C3525 1.390 . S
C3517 C3516 1.387 . S
C3517 C3519 1.387 . S
H3518 C3525 0.950 . S
C3519 C3517 1.387 . S
C3519 C3521 1.390 . S
C3519 H3523 0.950 . S
H3520 C3516 0.950 . S
C3521 C3519 1.390 . S
C3521 C3522 1.387 . S
C3521 H3524 0.950 . S
C3522 C3521 1.387 . S
C3522 C3525 1.387 . S
H3523 C3519 0.950 . S
H3524 C3521 0.950 . S
C3525 C3516 1.390 . S
C3525 H3518 0.950 . S
C3525 C3522 1.387 . S
C3526 C3527 1.387 . S
C3526 H3530 0.950 . S
C3526 C3535 1.390 . S
C3527 C3526 1.387 . S
C3527 C3529 1.387 . S
H3528 C3535 0.950 . S
C3529 C3527 1.387 . S
C3529 C3531 1.390 . S
C3529 H3533 0.950 . S
H3530 C3526 0.950 . S
C3531 C3529 1.390 . S
C3531 C3532 1.387 . S
C3531 H3534 0.950 . S
C3532 C3531 1.387 . S
C3532 C3535 1.387 . S
H3533 C3529 0.950 . S
H3534 C3531 0.950 . S
C3535 C3526 1.390 . S
C3535 H3528 0.950 . S
C3535 C3532 1.387 . S
C3536 C3537 1.387 . S
C3536 H3540 0.950 . S
C3536 C3545 1.390 . S
C3537 C3536 1.387 . S
C3537 C3539 1.387 . S
H3538 C3545 0.950 . S
C3539 C3537 1.387 . S
C3539 C3541 1.390 . S
C3539 H3543 0.950 . S
H3540 C3536 0.950 . S
C3541 C3539 1.390 . S
C3541 C3542 1.387 . S
C3541 H3544 0.950 . S
C3542 C3541 1.387 . S
C3542 C3545 1.387 . S
H3543 C3539 0.950 . S
H3544 C3541 0.950 . S
C3545 C3536 1.390 . S
C3545 H3538 0.950 . S
C3545 C3542 1.387 . S
C3546 C3547 1.387 . S
C3546 H3550 0.950 . S
C3546 C3555 1.390 . S
C3547 C3546 1.387 . S
C3547 C3549 1.387 . S
H3548 C3555 0.950 . S
C3549 C3547 1.387 . S
C3549 C3551 1.390 . S
C3549 H3553 0.950 . S
H3550 C3546 0.950 . S
C3551 C3549 1.390 . S
C3551 C3552 1.387 . S
C3551 H3554 0.950 . S
C3552 C3551 1.387 . S
C3552 C3555 1.387 . S
H3553 C3549 0.950 . S
H3554 C3551 0.950 . S
C3555 C3546 1.390 . S
C3555 H3548 0.950 . S
C3555 C3552 1.387 . S
C3556 C3557 1.387 . S
C3556 H3560 0.950 1_545 S
C3556 C3565 1.390 . S
C3557 C3556 1.387 . S
C3557 C3559 1.387 . S
H3558 C3565 0.950 1_565 S
C3559 C3557 1.387 . S
C3559 C3561 1.390 . S
C3559 H3563 0.950 . S
H3560 C3556 0.950 1_565 S
C3561 C3559 1.390 . S
C3561 C3562 1.387 . S
C3561 H3564 0.950 . S
C3562 C3561 1.387 . S
C3562 C3565 1.387 . S
H3563 C3559 0.950 . S
H3564 C3561 0.950 . S
C3565 C3556 1.390 . S
C3565 H3558 0.950 1_545 S
C3565 C3562 1.387 . S
C3566 C3567 1.387 . S
C3566 H3570 0.950 . S
C3566 C3575 1.390 . S
C3567 C3566 1.387 . S
C3567 C3569 1.387 . S
H3568 C3575 0.950 . S
C3569 C3567 1.387 . S
C3569 C3571 1.390 . S
C3569 H3573 0.950 . S
H3570 C3566 0.950 . S
C3571 C3569 1.390 . S
C3571 C3572 1.387 . S
C3571 H3574 0.950 . S
C3572 C3571 1.387 . S
C3572 C3575 1.387 . S
H3573 C3569 0.950 . S
H3574 C3571 0.950 . S
C3575 C3566 1.390 . S
C3575 H3568 0.950 . S
C3575 C3572 1.387 . S
C3576 C3577 1.387 . S
C3576 H3580 0.950 . S
C3576 C3585 1.390 . S
C3577 C3576 1.387 . S
C3577 C3579 1.387 . S
H3578 C3585 0.950 . S
C3579 C3577 1.387 . S
C3579 C3581 1.390 . S
C3579 H3583 0.950 . S
H3580 C3576 0.950 . S
C3581 C3579 1.390 . S
C3581 C3582 1.387 . S
C3581 H3584 0.950 . S
C3582 C3581 1.387 . S
C3582 C3585 1.387 . S
H3583 C3579 0.950 . S
H3584 C3581 0.950 . S
C3585 C3576 1.390 . S
C3585 H3578 0.950 . S
C3585 C3582 1.387 . S
C3586 C3587 1.387 . S
C3586 H3590 0.950 . S
C3586 C3595 1.390 . S
C3587 C3586 1.387 . S
C3587 C3589 1.387 . S
H3588 C3595 0.950 . S
C3589 C3587 1.387 . S
C3589 C3591 1.390 . S
C3589 H3593 0.950 . S
H3590 C3586 0.950 . S
C3591 C3589 1.390 . S
C3591 C3592 1.387 . S
C3591 H3594 0.950 . S
C3592 C3591 1.387 . S
C3592 C3595 1.387 . S
H3593 C3589 0.950 . S
H3594 C3591 0.950 . S
C3595 C3586 1.390 . S
C3595 H3588 0.950 . S
C3595 C3592 1.387 . S
C3596 C3597 1.387 . S
C3596 H3600 0.950 . S
C3596 C3605 1.390 . S
C3597 C3596 1.387 . S
C3597 C3599 1.387 . S
H3598 C3605 0.950 . S
C3599 C3597 1.387 . S
C3599 C3601 1.390 . S
C3599 H3603 0.950 . S
H3600 C3596 0.950 . S
C3601 C3599 1.390 . S
C3601 C3602 1.387 . S
C3601 H3604 0.950 . S
C3602 C3601 1.387 . S
C3602 C3605 1.387 . S
H3603 C3599 0.950 . S
H3604 C3601 0.950 . S
C3605 C3596 1.390 . S
C3605 H3598 0.950 . S
C3605 C3602 1.387 . S
C3606 C3607 1.387 . S
C3606 H3610 0.950 . S
C3606 C3615 1.390 . S
C3607 C3606 1.387 . S
C3607 C3609 1.387 . S
H3608 C3615 0.950 . S
C3609 C3607 1.387 . S
C3609 C3611 1.390 . S
C3609 H3613 0.950 . S
H3610 C3606 0.950 . S
C3611 C3609 1.390 . S
C3611 C3612 1.387 . S
C3611 H3614 0.950 . S
C3612 C3611 1.387 . S
C3612 C3615 1.387 . S
H3613 C3609 0.950 . S
H3614 C3611 0.950 . S
C3615 C3606 1.390 . S
C3615 H3608 0.950 . S
C3615 C3612 1.387 . S
C3616 C3617 1.387 . S
C3616 H3620 0.950 . S
C3616 C3625 1.390 . S
C3617 C3616 1.387 . S
C3617 C3619 1.387 1_545 S
H3618 C3625 0.950 . S
C3619 C3617 1.387 1_565 S
C3619 C3621 1.390 . S
C3619 H3623 0.950 . S
H3620 C3616 0.950 . S
C3621 C3619 1.390 . S
C3621 C3622 1.387 1_565 S
C3621 H3624 0.950 . S
C3622 C3621 1.387 1_545 S
C3622 C3625 1.387 . S
H3623 C3619 0.950 . S
H3624 C3621 0.950 . S
C3625 C3616 1.390 . S
C3625 H3618 0.950 . S
C3625 C3622 1.387 . S
C3626 C3627 1.399 . S
C3626 H3630 0.944 1_556 S
C3626 C3635 1.384 1_556 S
C3627 C3626 1.399 . S
C3627 C3629 1.387 . S
H3628 C3635 0.950 . S
C3629 C3627 1.387 . S
C3629 C3631 1.390 . S
C3629 H3633 0.950 . S
H3630 C3626 0.944 1_554 S
C3631 C3629 1.390 . S
C3631 C3632 1.387 . S
C3631 H3634 0.950 . S
C3632 C3631 1.387 . S
C3632 C3635 1.387 1_556 S
H3633 C3629 0.950 . S
H3634 C3631 0.950 . S
C3635 C3626 1.384 1_554 S
C3635 H3628 0.950 . S
C3635 C3632 1.387 1_554 S
C3636 C3637 1.387 . S
C3636 H3640 0.950 . S
C3636 C3645 1.390 . S
C3637 C3636 1.387 . S
C3637 C3639 1.387 . S
H3638 C3645 0.950 . S
C3639 C3637 1.387 . S
C3639 C3641 1.390 . S
C3639 H3643 0.950 . S
H3640 C3636 0.950 . S
C3641 C3639 1.390 . S
C3641 C3642 1.387 . S
C3641 H3644 0.950 . S
C3642 C3641 1.387 . S
C3642 C3645 1.387 . S
H3643 C3639 0.950 . S
H3644 C3641 0.950 . S
C3645 C3636 1.390 . S
C3645 H3638 0.950 . S
C3645 C3642 1.387 . S
C3646 C3647 1.387 . S
C3646 H3650 0.950 . S
C3646 C3655 1.390 . S
C3647 C3646 1.387 . S
C3647 C3649 1.387 . S
H3648 C3655 0.950 1_455 S
C3649 C3647 1.387 . S
C3649 C3651 1.390 . S
C3649 H3653 0.950 . S
H3650 C3646 0.950 . S
C3651 C3649 1.390 . S
C3651 C3652 1.387 1_655 S
C3651 H3654 0.950 . S
C3652 C3651 1.387 1_455 S
C3652 C3655 1.387 1_455 S
H3653 C3649 0.950 . S
H3654 C3651 0.950 . S
C3655 C3646 1.390 . S
C3655 H3648 0.950 1_655 S
C3655 C3652 1.387 1_655 S
C3656 C3657 1.387 . S
C3656 H3660 0.950 . S
C3656 C3665 1.390 . S
C3657 C3656 1.387 . S
C3657 C3659 1.387 . S
H3658 C3665 0.950 . S
C3659 C3657 1.387 . S
C3659 C3661 1.390 . S
C3659 H3663 0.950 . S
H3660 C3656 0.950 . S
C3661 C3659 1.390 . S
C3661 C3662 1.387 . S
C3661 H3664 0.950 . S
C3662 C3661 1.387 . S
C3662 C3665 1.387 . S
H3663 C3659 0.950 . S
H3664 C3661 0.950 . S
C3665 C3656 1.390 . S
C3665 H3658 0.950 . S
C3665 C3662 1.387 . S
C3666 C3667 1.387 . S
C3666 H3670 0.950 . S
C3666 C3675 1.390 . S
C3667 C3666 1.387 . S
C3667 C3669 1.387 . S
H3668 C3675 0.950 . S
C3669 C3667 1.387 . S
C3669 C3671 1.390 . S
C3669 H3673 0.950 . S
H3670 C3666 0.950 . S
C3671 C3669 1.390 . S
C3671 C3672 1.387 . S
C3671 H3674 0.950 . S
C3672 C3671 1.387 . S
C3672 C3675 1.387 . S
H3673 C3669 0.950 . S
H3674 C3671 0.950 . S
C3675 C3666 1.390 . S
C3675 H3668 0.950 . S
C3675 C3672 1.387 . S
C3676 C3677 1.387 . S
C3676 H3680 0.950 . S
C3676 C3685 1.390 . S
C3677 C3676 1.387 . S
C3677 C3679 1.387 . S
H3678 C3685 0.950 . S
C3679 C3677 1.387 . S
C3679 C3681 1.390 . S
C3679 H3683 0.950 . S
H3680 C3676 0.950 . S
C3681 C3679 1.390 . S
C3681 C3682 1.387 . S
C3681 H3684 0.950 . S
C3682 C3681 1.387 . S
C3682 C3685 1.387 . S
H3683 C3679 0.950 . S
H3684 C3681 0.950 . S
C3685 C3676 1.390 . S
C3685 H3678 0.950 . S
C3685 C3682 1.387 . S
C3686 C3687 1.387 . S
C3686 H3690 0.950 . S
C3686 C3695 1.390 . S
C3687 C3686 1.387 . S
C3687 C3689 1.387 . S
H3688 C3695 0.950 . S
C3689 C3687 1.387 . S
C3689 C3691 1.390 . S
C3689 H3693 0.950 . S
H3690 C3686 0.950 . S
C3691 C3689 1.390 . S
C3691 C3692 1.387 . S
C3691 H3694 0.950 . S
C3692 C3691 1.387 . S
C3692 C3695 1.387 . S
H3693 C3689 0.950 . S
H3694 C3691 0.950 . S
C3695 C3686 1.390 . S
C3695 H3688 0.950 . S
C3695 C3692 1.387 . S
C3696 C3697 1.387 . S
C3696 H3700 0.950 1_554 S
C3696 C3705 1.390 . S
C3697 C3696 1.387 . S
C3697 C3699 1.387 . S
H3698 C3705 0.950 1_556 S
C3699 C3697 1.387 . S
C3699 C3701 1.390 . S
C3699 H3703 0.950 . S
H3700 C3696 0.950 1_556 S
C3701 C3699 1.390 . S
C3701 C3702 1.387 . S
C3701 H3704 0.950 . S
C3702 C3701 1.387 . S
C3702 C3705 1.387 . S
H3703 C3699 0.950 . S
H3704 C3701 0.950 . S
C3705 C3696 1.390 . S
C3705 H3698 0.950 1_554 S
C3705 C3702 1.387 . S
C3706 C3707 1.387 . S
C3706 H3710 0.950 . S
C3706 C3715 1.390 . S
C3707 C3706 1.387 . S
C3707 C3709 1.387 . S
H3708 C3715 0.950 . S
C3709 C3707 1.387 . S
C3709 C3711 1.390 . S
C3709 H3713 0.950 . S
H3710 C3706 0.950 . S
C3711 C3709 1.390 . S
C3711 C3712 1.387 . S
C3711 H3714 0.950 . S
C3712 C3711 1.387 . S
C3712 C3715 1.387 . S
H3713 C3709 0.950 . S
H3714 C3711 0.950 . S
C3715 C3706 1.390 . S
C3715 H3708 0.950 . S
C3715 C3712 1.387 . S
C3716 C3717 1.387 . S
C3716 H3720 0.950 . S
C3716 C3725 1.390 . S
C3717 C3716 1.387 . S
C3717 C3719 1.387 . S
H3718 C3725 0.950 . S
C3719 C3717 1.387 . S
C3719 C3721 1.390 . S
C3719 H3723 0.950 . S
H3720 C3716 0.950 . S
C3721 C3719 1.390 . S
C3721 C3722 1.387 . S
C3721 H3724 0.950 . S
C3722 C3721 1.387 . S
C3722 C3725 1.387 . S
H3723 C3719 0.950 . S
H3724 C3721 0.950 . S
C3725 C3716 1.390 . S
C3725 H3718 0.950 . S
C3725 C3722 1.387 . S
C3726 C3727 1.387 . S
C3726 H3730 0.950 . S
C3726 C3735 1.390 . S
C3727 C3726 1.387 . S
C3727 C3729 1.387 . S
H3728 C3735 0.950 . S
C3729 C3727 1.387 . S
C3729 C3731 1.390 . S
C3729 H3733 0.950 . S
H3730 C3726 0.950 . S
C3731 C3729 1.390 . S
C3731 C3732 1.387 . S
C3731 H3734 0.950 . S
C3732 C3731 1.387 . S
C3732 C3735 1.387 . S
H3733 C3729 0.950 . S
H3734 C3731 0.950 . S
C3735 C3726 1.390 . S
C3735 H3728 0.950 . S
C3735 C3732 1.387 . S
C3736 C3737 1.387 . S
C3736 H3740 0.950 . S
C3736 C3745 1.390 . S
C3737 C3736 1.387 . S
C3737 C3739 1.387 . S
H3738 C3745 0.950 . S
C3739 C3737 1.387 . S
C3739 C3741 1.390 . S
C3739 H3743 0.950 . S
H3740 C3736 0.950 . S
C3741 C3739 1.390 . S
C3741 C3742 1.387 . S
C3741 H3744 0.950 . S
C3742 C3741 1.387 . S
C3742 C3745 1.387 . S
H3743 C3739 0.950 . S
H3744 C3741 0.950 . S
C3745 C3736 1.390 . S
C3745 H3738 0.950 . S
C3745 C3742 1.387 . S
C3746 C3747 1.387 . S
C3746 H3750 0.950 . S
C3746 C3755 1.390 . S
C3747 C3746 1.387 . S
C3747 C3749 1.387 . S
H3748 C3755 0.950 . S
C3749 C3747 1.387 . S
C3749 C3751 1.390 . S
C3749 H3753 0.950 . S
H3750 C3746 0.950 . S
C3751 C3749 1.390 . S
C3751 C3752 1.387 . S
C3751 H3754 0.950 . S
C3752 C3751 1.387 . S
C3752 C3755 1.387 . S
H3753 C3749 0.950 . S
H3754 C3751 0.950 . S
C3755 C3746 1.390 . S
C3755 H3748 0.950 . S
C3755 C3752 1.387 . S
C3756 C3757 1.387 . S
C3756 H3760 0.950 . S
C3756 C3765 1.390 . S
C3757 C3756 1.387 . S
C3757 C3759 1.387 . S
H3758 C3765 0.950 1_545 S
C3759 C3757 1.387 . S
C3759 C3761 1.390 . S
C3759 H3763 0.950 . S
H3760 C3756 0.950 . S
C3761 C3759 1.390 . S
C3761 C3762 1.387 . S
C3761 H3764 0.950 . S
C3762 C3761 1.387 . S
C3762 C3765 1.387 . S
H3763 C3759 0.950 . S
H3764 C3761 0.950 . S
C3765 C3756 1.390 . S
C3765 H3758 0.950 1_565 S
C3765 C3762 1.387 . S
C3766 C3767 1.387 . S
C3766 H3770 0.950 . S
C3766 C3775 1.390 . S
C3767 C3766 1.387 . S
C3767 C3769 1.387 . S
H3768 C3775 0.950 . S
C3769 C3767 1.387 . S
C3769 C3771 1.390 . S
C3769 H3773 0.950 . S
H3770 C3766 0.950 . S
C3771 C3769 1.390 . S
C3771 C3772 1.387 . S
C3771 H3774 0.950 . S
C3772 C3771 1.387 . S
C3772 C3775 1.387 . S
H3773 C3769 0.950 . S
H3774 C3771 0.950 . S
C3775 C3766 1.390 . S
C3775 H3768 0.950 . S
C3775 C3772 1.387 . S
C3776 C3777 1.387 . S
C3776 H3780 0.950 . S
C3776 C3785 1.390 . S
C3777 C3776 1.387 . S
C3777 C3779 1.387 1_545 S
H3778 C3785 0.950 . S
C3779 C3777 1.387 1_565 S
C3779 C3781 1.390 . S
C3779 H3783 0.950 . S
H3780 C3776 0.950 . S
C3781 C3779 1.390 . S
C3781 C3782 1.387 1_565 S
C3781 H3784 0.950 . S
C3782 C3781 1.387 1_545 S
C3782 C3785 1.387 . S
H3783 C3779 0.950 . S
H3784 C3781 0.950 . S
C3785 C3776 1.390 . S
C3785 H3778 0.950 . S
C3785 C3782 1.387 . S
C3786 C3787 1.387 . S
C3786 H3790 0.950 . S
C3786 C3795 1.390 . S
C3787 C3786 1.387 . S
C3787 C3789 1.387 . S
H3788 C3795 0.950 . S
C3789 C3787 1.387 . S
C3789 C3791 1.390 . S
C3789 H3793 0.950 . S
H3790 C3786 0.950 . S
C3791 C3789 1.390 . S
C3791 C3792 1.387 . S
C3791 H3794 0.950 . S
C3792 C3791 1.387 . S
C3792 C3795 1.387 . S
H3793 C3789 0.950 . S
H3794 C3791 0.950 . S
C3795 C3786 1.390 . S
C3795 H3788 0.950 . S
C3795 C3792 1.387 . S
C3796 C3797 1.387 . S
C3796 H3800 0.950 . S
C3796 C3805 1.390 . S
C3797 C3796 1.387 . S
C3797 C3799 1.387 . S
H3798 C3805 0.950 . S
C3799 C3797 1.387 . S
C3799 C3801 1.390 . S
C3799 H3803 0.950 . S
H3800 C3796 0.950 . S
C3801 C3799 1.390 . S
C3801 C3802 1.387 . S
C3801 H3804 0.950 . S
C3802 C3801 1.387 . S
C3802 C3805 1.387 . S
H3803 C3799 0.950 . S
H3804 C3801 0.950 . S
C3805 C3796 1.390 . S
C3805 H3798 0.950 . S
C3805 C3802 1.387 . S
C3806 C3807 1.387 . S
C3806 H3810 0.950 . S
C3806 C3815 1.390 . S
C3807 C3806 1.387 . S
C3807 C3809 1.387 . S
H3808 C3815 0.950 . S
C3809 C3807 1.387 . S
C3809 C3811 1.390 . S
C3809 H3813 0.950 . S
H3810 C3806 0.950 . S
C3811 C3809 1.390 . S
C3811 C3812 1.387 . S
C3811 H3814 0.950 . S
C3812 C3811 1.387 . S
C3812 C3815 1.387 . S
H3813 C3809 0.950 . S
H3814 C3811 0.950 . S
C3815 C3806 1.390 . S
C3815 H3808 0.950 . S
C3815 C3812 1.387 . S
C3816 C3817 1.387 . S
C3816 H3820 0.950 . S
C3816 C3825 1.390 . S
C3817 C3816 1.387 . S
C3817 C3819 1.387 1_565 S
H3818 C3825 0.950 . S
C3819 C3817 1.387 1_545 S
C3819 C3821 1.390 . S
C3819 H3823 0.950 . S
H3820 C3816 0.950 . S
C3821 C3819 1.390 . S
C3821 C3822 1.387 . S
C3821 H3824 0.950 . S
C3822 C3821 1.387 . S
C3822 C3825 1.387 1_545 S
H3823 C3819 0.950 . S
H3824 C3821 0.950 . S
C3825 C3816 1.390 . S
C3825 H3818 0.950 . S
C3825 C3822 1.387 1_565 S
C3826 C3827 1.387 . S
C3826 H3830 0.950 . S
C3826 C3835 1.390 . S
C3827 C3826 1.387 . S
C3827 C3829 1.387 . S
H3828 C3835 0.950 . S
C3829 C3827 1.387 . S
C3829 C3831 1.390 . S
C3829 H3833 0.950 . S
H3830 C3826 0.950 . S
C3831 C3829 1.390 . S
C3831 C3832 1.387 . S
C3831 H3834 0.950 . S
C3832 C3831 1.387 . S
C3832 C3835 1.387 . S
H3833 C3829 0.950 . S
H3834 C3831 0.950 . S
C3835 C3826 1.390 . S
C3835 H3828 0.950 . S
C3835 C3832 1.387 . S
C3836 C3837 1.387 . S
C3836 H3840 0.950 . S
C3836 C3845 1.390 . S
C3837 C3836 1.387 . S
C3837 C3839 1.387 1_545 S
H3838 C3845 0.950 . S
C3839 C3837 1.387 1_565 S
C3839 C3841 1.390 . S
C3839 H3843 0.950 . S
H3840 C3836 0.950 . S
C3841 C3839 1.390 . S
C3841 C3842 1.387 1_565 S
C3841 H3844 0.950 . S
C3842 C3841 1.387 1_545 S
C3842 C3845 1.387 . S
H3843 C3839 0.950 . S
H3844 C3841 0.950 . S
C3845 C3836 1.390 . S
C3845 H3838 0.950 . S
C3845 C3842 1.387 . S
C3846 C3847 1.387 . S
C3846 H3850 0.950 . S
C3846 C3855 1.390 . S
C3847 C3846 1.387 . S
C3847 C3849 1.387 . S
H3848 C3855 0.950 . S
C3849 C3847 1.387 . S
C3849 C3851 1.390 . S
C3849 H3853 0.950 . S
H3850 C3846 0.950 . S
C3851 C3849 1.390 . S
C3851 C3852 1.387 . S
C3851 H3854 0.950 . S
C3852 C3851 1.387 . S
C3852 C3855 1.387 . S
H3853 C3849 0.950 . S
H3854 C3851 0.950 . S
C3855 C3846 1.390 . S
C3855 H3848 0.950 . S
C3855 C3852 1.387 . S
C3856 C3857 1.387 . S
C3856 H3860 0.950 . S
C3856 C3865 1.390 . S
C3857 C3856 1.387 . S
C3857 C3859 1.387 . S
H3858 C3865 0.950 . S
C3859 C3857 1.387 . S
C3859 C3861 1.390 1_554 S
C3859 H3863 0.950 1_554 S
H3860 C3856 0.950 . S
C3861 C3859 1.390 1_556 S
C3861 C3862 1.387 1_556 S
C3861 H3864 0.950 . S
C3862 C3861 1.387 1_554 S
C3862 C3865 1.387 . S
H3863 C3859 0.950 1_556 S
H3864 C3861 0.950 . S
C3865 C3856 1.390 . S
C3865 H3858 0.950 . S
C3865 C3862 1.387 . S
C3866 C3867 1.387 . S
C3866 H3870 0.950 . S
C3866 C3875 1.390 . S
C3867 C3866 1.387 . S
C3867 C3869 1.387 . S
H3868 C3875 0.950 . S
C3869 C3867 1.387 . S
C3869 C3871 1.390 . S
C3869 H3873 0.950 . S
H3870 C3866 0.950 . S
C3871 C3869 1.390 . S
C3871 C3872 1.387 . S
C3871 H3874 0.950 . S
C3872 C3871 1.387 . S
C3872 C3875 1.387 . S
H3873 C3869 0.950 . S
H3874 C3871 0.950 . S
C3875 C3866 1.390 . S
C3875 H3868 0.950 . S
C3875 C3872 1.387 . S
C3876 C3877 1.387 . S
C3876 H3880 0.950 . S
C3876 C3885 1.390 . S
C3877 C3876 1.387 . S
C3877 C3879 1.387 . S
H3878 C3885 0.950 . S
C3879 C3877 1.387 . S
C3879 C3881 1.390 . S
C3879 H3883 0.950 . S
H3880 C3876 0.950 . S
C3881 C3879 1.390 . S
C3881 C3882 1.387 . S
C3881 H3884 0.950 . S
C3882 C3881 1.387 . S
C3882 C3885 1.387 . S
H3883 C3879 0.950 . S
H3884 C3881 0.950 . S
C3885 C3876 1.390 . S
C3885 H3878 0.950 . S
C3885 C3882 1.387 . S
C3886 C3887 1.387 . S
C3886 H3890 0.950 . S
C3886 C3895 1.390 . S
C3887 C3886 1.387 . S
C3887 C3889 1.387 . S
H3888 C3895 0.950 . S
C3889 C3887 1.387 . S
C3889 C3891 1.390 . S
C3889 H3893 0.950 . S
H3890 C3886 0.950 . S
C3891 C3889 1.390 . S
C3891 C3892 1.387 . S
C3891 H3894 0.950 . S
C3892 C3891 1.387 . S
C3892 C3895 1.387 . S
H3893 C3889 0.950 . S
H3894 C3891 0.950 . S
C3895 C3886 1.390 . S
C3895 H3888 0.950 . S
C3895 C3892 1.387 . S
C3896 C3897 1.387 . S
C3896 H3900 0.950 . S
C3896 C3905 1.390 . S
C3897 C3896 1.387 . S
C3897 C3899 1.387 . S
H3898 C3905 0.950 . S
C3899 C3897 1.387 . S
C3899 C3901 1.390 . S
C3899 H3903 0.950 . S
H3900 C3896 0.950 . S
C3901 C3899 1.390 . S
C3901 C3902 1.387 . S
C3901 H3904 0.950 . S
C3902 C3901 1.387 . S
C3902 C3905 1.387 . S
H3903 C3899 0.950 . S
H3904 C3901 0.950 . S
C3905 C3896 1.390 . S
C3905 H3898 0.950 . S
C3905 C3902 1.387 . S
C3906 C3907 1.387 . S
C3906 H3910 0.950 . S
C3906 C3915 1.390 . S
C3907 C3906 1.387 . S
C3907 C3909 1.387 . S
H3908 C3915 0.950 . S
C3909 C3907 1.387 . S
C3909 C3911 1.390 . S
C3909 H3913 0.950 . S
H3910 C3906 0.950 . S
C3911 C3909 1.390 . S
C3911 C3912 1.387 . S
C3911 H3914 0.950 . S
C3912 C3911 1.387 . S
C3912 C3915 1.387 . S
H3913 C3909 0.950 . S
H3914 C3911 0.950 . S
C3915 C3906 1.390 . S
C3915 H3908 0.950 . S
C3915 C3912 1.387 . S
C3916 C3917 1.387 . S
C3916 H3920 0.950 . S
C3916 C3925 1.390 . S
C3917 C3916 1.387 . S
C3917 C3919 1.387 . S
H3918 C3925 0.950 . S
C3919 C3917 1.387 . S
C3919 C3921 1.390 . S
C3919 H3923 0.950 . S
H3920 C3916 0.950 . S
C3921 C3919 1.390 . S
C3921 C3922 1.387 . S
C3921 H3924 0.950 . S
C3922 C3921 1.387 . S
C3922 C3925 1.387 . S
H3923 C3919 0.950 . S
H3924 C3921 0.950 . S
C3925 C3916 1.390 . S
C3925 H3918 0.950 . S
C3925 C3922 1.387 . S
C3926 C3927 1.387 . S
C3926 H3930 0.950 . S
C3926 C3935 1.390 . S
C3927 C3926 1.387 . S
C3927 C3929 1.387 . S
H3928 C3935 0.950 . S
C3929 C3927 1.387 . S
C3929 C3931 1.390 . S
C3929 H3933 0.950 . S
H3930 C3926 0.950 . S
C3931 C3929 1.390 . S
C3931 C3932 1.387 . S
C3931 H3934 0.950 . S
C3932 C3931 1.387 . S
C3932 C3935 1.387 . S
H3933 C3929 0.950 . S
H3934 C3931 0.950 . S
C3935 C3926 1.390 . S
C3935 H3928 0.950 . S
C3935 C3932 1.387 . S
C3936 C3937 1.387 . S
C3936 H3940 0.950 . S
C3936 C3945 1.390 . S
C3937 C3936 1.387 . S
C3937 C3939 1.387 . S
H3938 C3945 0.950 . S
C3939 C3937 1.387 . S
C3939 C3941 1.390 . S
C3939 H3943 0.950 . S
H3940 C3936 0.950 . S
C3941 C3939 1.390 . S
C3941 C3942 1.387 . S
C3941 H3944 0.950 . S
C3942 C3941 1.387 . S
C3942 C3945 1.387 . S
H3943 C3939 0.950 . S
H3944 C3941 0.950 . S
C3945 C3936 1.390 . S
C3945 H3938 0.950 . S
C3945 C3942 1.387 . S
C3946 C3947 1.387 . S
C3946 H3950 0.950 . S
C3946 C3955 1.390 . S
C3947 C3946 1.387 . S
C3947 C3949 1.387 . S
H3948 C3955 0.950 . S
C3949 C3947 1.387 . S
C3949 C3951 1.390 . S
C3949 H3953 0.950 . S
H3950 C3946 0.950 . S
C3951 C3949 1.390 . S
C3951 C3952 1.387 . S
C3951 H3954 0.950 . S
C3952 C3951 1.387 . S
C3952 C3955 1.387 . S
H3953 C3949 0.950 . S
H3954 C3951 0.950 . S
C3955 C3946 1.390 . S
C3955 H3948 0.950 . S
C3955 C3952 1.387 . S
C3956 C3957 1.387 . S
C3956 H3960 0.950 . S
C3956 C3965 1.390 . S
C3957 C3956 1.387 . S
C3957 C3959 1.387 . S
H3958 C3965 0.950 . S
C3959 C3957 1.387 . S
C3959 C3961 1.390 . S
C3959 H3963 0.950 . S
H3960 C3956 0.950 . S
C3961 C3959 1.390 . S
C3961 C3962 1.387 . S
C3961 H3964 0.950 1_554 S
C3962 C3961 1.387 . S
C3962 C3965 1.387 . S
H3963 C3959 0.950 . S
H3964 C3961 0.950 1_556 S
C3965 C3956 1.390 . S
C3965 H3958 0.950 . S
C3965 C3962 1.387 . S
C3966 C3967 1.387 . S
C3966 H3970 0.950 . S
C3966 C3975 1.390 . S
C3967 C3966 1.387 . S
C3967 C3969 1.387 . S
H3968 C3975 0.950 . S
C3969 C3967 1.387 . S
C3969 C3971 1.390 . S
C3969 H3973 0.950 . S
H3970 C3966 0.950 . S
C3971 C3969 1.390 . S
C3971 C3972 1.387 . S
C3971 H3974 0.950 . S
C3972 C3971 1.387 . S
C3972 C3975 1.387 . S
H3973 C3969 0.950 . S
H3974 C3971 0.950 . S
C3975 C3966 1.390 . S
C3975 H3968 0.950 . S
C3975 C3972 1.387 . S
C3976 C3977 1.387 . S
C3976 H3980 0.950 . S
C3976 C3985 1.390 . S
C3977 C3976 1.387 . S
C3977 C3979 1.387 . S
H3978 C3985 0.950 . S
C3979 C3977 1.387 . S
C3979 C3981 1.390 . S
C3979 H3983 0.950 . S
H3980 C3976 0.950 . S
C3981 C3979 1.390 . S
C3981 C3982 1.387 . S
C3981 H3984 0.950 . S
C3982 C3981 1.387 . S
C3982 C3985 1.387 . S
H3983 C3979 0.950 . S
H3984 C3981 0.950 . S
C3985 C3976 1.390 . S
C3985 H3978 0.950 . S
C3985 C3982 1.387 . S
C3986 C3987 1.387 1_655 S
C3986 H3990 0.950 1_655 S
C3986 C3995 1.390 . S
C3987 C3986 1.387 1_455 S
C3987 C3989 1.387 1_455 S
H3988 C3995 0.950 . S
C3989 C3987 1.387 1_655 S
C3989 C3991 1.390 . S
C3989 H3993 0.944 1_655 S
H3990 C3986 0.950 1_455 S
C3991 C3989 1.390 . S
C3991 C3992 1.387 . S
C3991 H3994 0.950 . S
C3992 C3991 1.387 . S
C3992 C3995 1.387 . S
H3993 C3989 0.944 1_455 S
H3994 C3991 0.950 . S
C3995 C3986 1.390 . S
C3995 H3988 0.950 . S
C3995 C3992 1.387 . S
C3996 C3997 1.387 1_455 S
C3996 H4000 0.971 . S
C3996 C4005 1.390 . S
C3997 C3996 1.387 1_655 S
C3997 C3999 1.387 . S
H3998 C4005 0.950 . S
C3999 C3997 1.387 . S
C3999 C4001 1.390 1_655 S
C3999 H4003 0.950 . S
H4000 C3996 0.971 . S
C4001 C3999 1.390 1_455 S
C4001 C4002 1.387 . S
C4001 H4004 0.950 . S
C4002 C4001 1.387 . S
C4002 C4005 1.387 . S
H4003 C3999 0.950 . S
H4004 C4001 0.950 . S
C4005 C3996 1.390 . S
C4005 H3998 0.950 . S
C4005 C4002 1.387 . S
C4006 C4007 1.387 . S
C4006 H4010 0.950 . S
C4006 C4015 1.390 . S
C4007 C4006 1.387 . S
C4007 C4009 1.387 . S
H4008 C4015 0.950 . S
C4009 C4007 1.387 . S
C4009 C4011 1.390 . S
C4009 H4013 0.950 . S
H4010 C4006 0.950 . S
C4011 C4009 1.390 . S
C4011 C4012 1.387 . S
C4011 H4014 0.950 . S
C4012 C4011 1.387 . S
C4012 C4015 1.387 . S
H4013 C4009 0.950 . S
H4014 C4011 0.950 . S
C4015 C4006 1.390 . S
C4015 H4008 0.950 . S
C4015 C4012 1.387 . S
C4016 C4017 1.387 . S
C4016 H4020 0.950 . S
C4016 C4025 1.390 . S
C4017 C4016 1.387 . S
C4017 C4019 1.387 . S
H4018 C4025 0.950 . S
C4019 C4017 1.387 . S
C4019 C4021 1.390 . S
C4019 H4023 0.950 . S
H4020 C4016 0.950 . S
C4021 C4019 1.390 . S
C4021 C4022 1.387 . S
C4021 H4024 0.950 . S
C4022 C4021 1.387 . S
C4022 C4025 1.387 . S
H4023 C4019 0.950 . S
H4024 C4021 0.950 . S
C4025 C4016 1.390 . S
C4025 H4018 0.950 . S
C4025 C4022 1.387 . S
C4026 C4027 1.387 . S
C4026 H4030 0.950 . S
C4026 C4035 1.390 . S
C4027 C4026 1.387 . S
C4027 C4029 1.387 . S
H4028 C4035 0.950 . S
C4029 C4027 1.387 . S
C4029 C4031 1.390 . S
C4029 H4033 0.950 . S
H4030 C4026 0.950 . S
C4031 C4029 1.390 . S
C4031 C4032 1.387 . S
C4031 H4034 0.950 . S
C4032 C4031 1.387 . S
C4032 C4035 1.387 . S
H4033 C4029 0.950 . S
H4034 C4031 0.950 . S
C4035 C4026 1.390 . S
C4035 H4028 0.950 . S
C4035 C4032 1.387 . S
C4036 C4037 1.387 . S
C4036 H4040 0.950 . S
C4036 C4045 1.390 . S
C4037 C4036 1.387 . S
C4037 C4039 1.387 . S
H4038 C4045 0.950 . S
C4039 C4037 1.387 . S
C4039 C4041 1.390 . S
C4039 H4043 0.950 . S
H4040 C4036 0.950 . S
C4041 C4039 1.390 . S
C4041 C4042 1.387 . S
C4041 H4044 0.950 . S
C4042 C4041 1.387 . S
C4042 C4045 1.387 . S
H4043 C4039 0.950 . S
H4044 C4041 0.950 . S
C4045 C4036 1.390 . S
C4045 H4038 0.950 . S
C4045 C4042 1.387 . S
C4046 C4047 1.387 . S
C4046 H4050 0.950 . S
C4046 C4055 1.390 . S
C4047 C4046 1.387 . S
C4047 C4049 1.387 . S
H4048 C4055 0.950 . S
C4049 C4047 1.387 . S
C4049 C4051 1.390 . S
C4049 H4053 0.950 . S
H4050 C4046 0.950 . S
C4051 C4049 1.390 . S
C4051 C4052 1.387 . S
C4051 H4054 0.950 . S
C4052 C4051 1.387 . S
C4052 C4055 1.387 . S
H4053 C4049 0.950 . S
H4054 C4051 0.950 . S
C4055 C4046 1.390 . S
C4055 H4048 0.950 . S
C4055 C4052 1.387 . S
C4056 C4057 1.387 . S
C4056 H4060 0.950 . S
C4056 C4065 1.390 . S
C4057 C4056 1.387 . S
C4057 C4059 1.387 . S
H4058 C4065 0.950 . S
C4059 C4057 1.387 . S
C4059 C4061 1.390 . S
C4059 H4063 0.950 . S
H4060 C4056 0.950 . S
C4061 C4059 1.390 . S
C4061 C4062 1.387 . S
C4061 H4064 0.950 . S
C4062 C4061 1.387 . S
C4062 C4065 1.387 . S
H4063 C4059 0.950 . S
H4064 C4061 0.950 . S
C4065 C4056 1.390 . S
C4065 H4058 0.950 . S
C4065 C4062 1.387 . S
C4066 C4067 1.387 . S
C4066 H4070 0.950 . S
C4066 C4075 1.390 . S
C4067 C4066 1.387 . S
C4067 C4069 1.387 . S
H4068 C4075 0.950 . S
C4069 C4067 1.387 . S
C4069 C4071 1.390 . S
C4069 H4073 0.950 . S
H4070 C4066 0.950 . S
C4071 C4069 1.390 . S
C4071 C4072 1.387 . S
C4071 H4074 0.950 . S
C4072 C4071 1.387 . S
C4072 C4075 1.387 . S
H4073 C4069 0.950 . S
H4074 C4071 0.950 . S
C4075 C4066 1.390 . S
C4075 H4068 0.950 . S
C4075 C4072 1.387 . S
C4076 C4077 1.387 . S
C4076 H4080 0.950 . S
C4076 C4085 1.390 . S
C4077 C4076 1.387 . S
C4077 C4079 1.387 . S
H4078 C4085 0.950 . S
C4079 C4077 1.387 . S
C4079 C4081 1.390 . S
C4079 H4083 0.950 . S
H4080 C4076 0.950 . S
C4081 C4079 1.390 . S
C4081 C4082 1.387 . S
C4081 H4084 0.950 . S
C4082 C4081 1.387 . S
C4082 C4085 1.387 . S
H4083 C4079 0.950 . S
H4084 C4081 0.950 . S
C4085 C4076 1.390 . S
C4085 H4078 0.950 . S
C4085 C4082 1.387 . S
C4086 C4087 1.387 . S
C4086 H4090 0.950 . S
C4086 C4095 1.390 . S
C4087 C4086 1.387 . S
C4087 C4089 1.387 . S
H4088 C4095 0.950 . S
C4089 C4087 1.387 . S
C4089 C4091 1.390 . S
C4089 H4093 0.950 . S
H4090 C4086 0.950 . S
C4091 C4089 1.390 . S
C4091 C4092 1.387 . S
C4091 H4094 0.950 . S
C4092 C4091 1.387 . S
C4092 C4095 1.387 . S
H4093 C4089 0.950 . S
H4094 C4091 0.950 . S
C4095 C4086 1.390 . S
C4095 H4088 0.950 . S
C4095 C4092 1.387 . S
C4096 C4097 1.387 . S
C4096 H4100 0.950 . S
C4096 C4105 1.390 . S
C4097 C4096 1.387 . S
C4097 C4099 1.387 . S
H4098 C4105 0.950 . S
C4099 C4097 1.387 . S
C4099 C4101 1.390 . S
C4099 H4103 0.950 . S
H4100 C4096 0.950 . S
C4101 C4099 1.390 . S
C4101 C4102 1.387 . S
C4101 H4104 0.950 . S
C4102 C4101 1.387 . S
C4102 C4105 1.387 . S
H4103 C4099 0.950 . S
H4104 C4101 0.950 . S
C4105 C4096 1.390 . S
C4105 H4098 0.950 . S
C4105 C4102 1.387 . S
C4106 C4107 1.387 . S
C4106 H4110 0.950 . S
C4106 C4115 1.390 . S
C4107 C4106 1.387 . S
C4107 C4109 1.387 . S
H4108 C4115 0.950 . S
C4109 C4107 1.387 . S
C4109 C4111 1.390 . S
C4109 H4113 0.950 . S
H4110 C4106 0.950 . S
C4111 C4109 1.390 . S
C4111 C4112 1.387 . S
C4111 H4114 0.950 . S
C4112 C4111 1.387 . S
C4112 C4115 1.387 . S
H4113 C4109 0.950 . S
H4114 C4111 0.950 . S
C4115 C4106 1.390 . S
C4115 H4108 0.950 . S
C4115 C4112 1.387 . S
C4116 C4117 1.387 . S
C4116 H4120 0.950 . S
C4116 C4125 1.390 . S
C4117 C4116 1.387 . S
C4117 C4119 1.387 . S
H4118 C4125 0.950 . S
C4119 C4117 1.387 . S
C4119 C4121 1.390 . S
C4119 H4123 0.950 . S
H4120 C4116 0.950 . S
C4121 C4119 1.390 . S
C4121 C4122 1.387 . S
C4121 H4124 0.950 . S
C4122 C4121 1.387 . S
C4122 C4125 1.387 . S
H4123 C4119 0.950 . S
H4124 C4121 0.950 . S
C4125 C4116 1.390 . S
C4125 H4118 0.950 . S
C4125 C4122 1.387 . S
C4126 C4127 1.387 . S
C4126 H4130 0.950 1_545 S
C4126 C4135 1.393 . S
C4127 C4126 1.387 . S
C4127 C4129 1.387 . S
H4128 C4135 0.943 1_565 S
C4129 C4127 1.387 . S
C4129 C4131 1.390 . S
C4129 H4133 0.950 . S
H4130 C4126 0.950 1_565 S
C4131 C4129 1.390 . S
C4131 C4132 1.387 . S
C4131 H4134 0.950 1_554 S
C4132 C4131 1.387 . S
C4132 C4135 1.392 . S
H4133 C4129 0.950 . S
H4134 C4131 0.950 1_556 S
C4135 C4126 1.393 . S
C4135 H4128 0.943 1_545 S
C4135 C4132 1.392 . S
C4136 C4137 1.387 . S
C4136 H4140 0.950 . S
C4136 C4145 1.390 . S
C4137 C4136 1.387 . S
C4137 C4139 1.387 . S
H4138 C4145 0.950 . S
C4139 C4137 1.387 . S
C4139 C4141 1.390 . S
C4139 H4143 0.950 . S
H4140 C4136 0.950 . S
C4141 C4139 1.390 . S
C4141 C4142 1.387 . S
C4141 H4144 0.950 . S
C4142 C4141 1.387 . S
C4142 C4145 1.387 . S
H4143 C4139 0.950 . S
H4144 C4141 0.950 . S
C4145 C4136 1.390 . S
C4145 H4138 0.950 . S
C4145 C4142 1.387 . S
C4146 C4147 1.387 . S
C4146 H4150 0.950 . S
C4146 C4155 1.390 . S
C4147 C4146 1.387 . S
C4147 C4149 1.387 1_554 S
H4148 C4155 0.950 . S
C4149 C4147 1.387 1_556 S
C4149 C4151 1.390 1_556 S
C4149 H4153 0.950 . S
H4150 C4146 0.950 . S
C4151 C4149 1.390 1_554 S
C4151 C4152 1.387 . S
C4151 H4154 0.950 . S
C4152 C4151 1.387 . S
C4152 C4155 1.387 . S
H4153 C4149 0.950 . S
H4154 C4151 0.950 . S
C4155 C4146 1.390 . S
C4155 H4148 0.950 . S
C4155 C4152 1.387 . S
C4156 C4157 1.387 . S
C4156 H4160 0.950 . S
C4156 C4165 1.390 . S
C4157 C4156 1.387 . S
C4157 C4159 1.387 . S
H4158 C4165 0.950 . S
C4159 C4157 1.387 . S
C4159 C4161 1.390 . S
C4159 H4163 0.950 . S
H4160 C4156 0.950 . S
C4161 C4159 1.390 . S
C4161 C4162 1.387 . S
C4161 H4164 0.950 . S
C4162 C4161 1.387 . S
C4162 C4165 1.387 . S
H4163 C4159 0.950 . S
H4164 C4161 0.950 . S
C4165 C4156 1.390 . S
C4165 H4158 0.950 . S
C4165 C4162 1.387 . S
C4166 C4167 1.387 . S
C4166 H4170 0.950 . S
C4166 C4175 1.390 . S
C4167 C4166 1.387 . S
C4167 C4169 1.387 . S
H4168 C4175 0.950 . S
C4169 C4167 1.387 . S
C4169 C4171 1.390 . S
C4169 H4173 0.950 . S
H4170 C4166 0.950 . S
C4171 C4169 1.390 . S
C4171 C4172 1.387 . S
C4171 H4174 0.950 . S
C4172 C4171 1.387 . S
C4172 C4175 1.387 . S
H4173 C4169 0.950 . S
H4174 C4171 0.950 . S
C4175 C4166 1.390 . S
C4175 H4168 0.950 . S
C4175 C4172 1.387 . S
C4176 C4177 1.387 . S
C4176 H4180 0.950 . S
C4176 C4185 1.390 . S
C4177 C4176 1.387 . S
C4177 C4179 1.387 . S
H4178 C4185 0.950 . S
C4179 C4177 1.387 . S
C4179 C4181 1.390 . S
C4179 H4183 0.950 . S
H4180 C4176 0.950 . S
C4181 C4179 1.390 . S
C4181 C4182 1.387 . S
C4181 H4184 0.950 . S
C4182 C4181 1.387 . S
C4182 C4185 1.387 . S
H4183 C4179 0.950 . S
H4184 C4181 0.950 . S
C4185 C4176 1.390 . S
C4185 H4178 0.950 . S
C4185 C4182 1.387 . S
C4186 C4187 1.387 . S
C4186 H4190 0.950 . S
C4186 C4195 1.390 . S
C4187 C4186 1.387 . S
C4187 C4189 1.387 . S
H4188 C4195 0.950 . S
C4189 C4187 1.387 . S
C4189 C4191 1.390 . S
C4189 H4193 0.950 . S
H4190 C4186 0.950 . S
C4191 C4189 1.390 . S
C4191 C4192 1.387 . S
C4191 H4194 0.950 . S
C4192 C4191 1.387 . S
C4192 C4195 1.387 . S
H4193 C4189 0.950 . S
H4194 C4191 0.950 . S
C4195 C4186 1.390 . S
C4195 H4188 0.950 . S
C4195 C4192 1.387 . S
C4196 C4197 1.387 . S
C4196 H4200 0.950 . S
C4196 C4205 1.390 . S
C4197 C4196 1.387 . S
C4197 C4199 1.387 1_554 S
H4198 C4205 0.950 . S
C4199 C4197 1.387 1_556 S
C4199 C4201 1.390 . S
C4199 H4203 0.950 . S
H4200 C4196 0.950 . S
C4201 C4199 1.390 . S
C4201 C4202 1.387 1_556 S
C4201 H4204 0.950 . S
C4202 C4201 1.387 1_554 S
C4202 C4205 1.387 . S
H4203 C4199 0.950 . S
H4204 C4201 0.950 . S
C4205 C4196 1.390 . S
C4205 H4198 0.950 . S
C4205 C4202 1.387 . S
C4206 C4207 1.387 . S
C4206 H4210 0.950 . S
C4206 C4215 1.390 . S
C4207 C4206 1.387 . S
C4207 C4209 1.387 . S
H4208 C4215 0.950 . S
C4209 C4207 1.387 . S
C4209 C4211 1.390 . S
C4209 H4213 0.950 . S
H4210 C4206 0.950 . S
C4211 C4209 1.390 . S
C4211 C4212 1.387 . S
C4211 H4214 0.950 . S
C4212 C4211 1.387 . S
C4212 C4215 1.387 . S
H4213 C4209 0.950 . S
H4214 C4211 0.950 . S
C4215 C4206 1.390 . S
C4215 H4208 0.950 . S
C4215 C4212 1.387 . S
C4216 C4217 1.387 . S
C4216 H4220 0.950 . S
C4216 C4225 1.390 . S
C4217 C4216 1.387 . S
C4217 C4219 1.387 . S
H4218 C4225 0.950 1_554 S
C4219 C4217 1.387 . S
C4219 C4221 1.390 . S
C4219 H4223 0.950 . S
H4220 C4216 0.950 . S
C4221 C4219 1.390 . S
C4221 C4222 1.387 . S
C4221 H4224 0.950 . S
C4222 C4221 1.387 . S
C4222 C4225 1.387 . S
H4223 C4219 0.950 . S
H4224 C4221 0.950 . S
C4225 C4216 1.390 . S
C4225 H4218 0.950 1_556 S
C4225 C4222 1.387 . S
C4226 C4227 1.387 . S
C4226 H4230 0.950 . S
C4226 C4235 1.390 . S
C4227 C4226 1.387 . S
C4227 C4229 1.387 . S
H4228 C4235 0.950 . S
C4229 C4227 1.387 . S
C4229 C4231 1.390 . S
C4229 H4233 0.950 . S
H4230 C4226 0.950 . S
C4231 C4229 1.390 . S
C4231 C4232 1.387 . S
C4231 H4234 0.950 . S
C4232 C4231 1.387 . S
C4232 C4235 1.387 . S
H4233 C4229 0.950 . S
H4234 C4231 0.950 . S
C4235 C4226 1.390 . S
C4235 H4228 0.950 . S
C4235 C4232 1.387 . S
C4236 C4237 1.387 . S
C4236 H4240 0.950 . S
C4236 C4245 1.390 . S
C4237 C4236 1.387 . S
C4237 C4239 1.387 . S
H4238 C4245 0.950 . S
C4239 C4237 1.387 . S
C4239 C4241 1.390 . S
C4239 H4243 0.950 . S
H4240 C4236 0.950 . S
C4241 C4239 1.390 . S
C4241 C4242 1.387 . S
C4241 H4244 0.950 . S
C4242 C4241 1.387 . S
C4242 C4245 1.387 . S
H4243 C4239 0.950 . S
H4244 C4241 0.950 . S
C4245 C4236 1.390 . S
C4245 H4238 0.950 . S
C4245 C4242 1.387 . S
C4246 C4247 1.387 . S
C4246 H4250 0.950 . S
C4246 C4255 1.390 . S
C4247 C4246 1.387 . S
C4247 C4249 1.387 . S
H4248 C4255 0.950 . S
C4249 C4247 1.387 . S
C4249 C4251 1.390 . S
C4249 H4253 0.950 . S
H4250 C4246 0.950 . S
C4251 C4249 1.390 . S
C4251 C4252 1.387 . S
C4251 H4254 0.950 . S
C4252 C4251 1.387 . S
C4252 C4255 1.387 . S
H4253 C4249 0.950 . S
H4254 C4251 0.950 . S
C4255 C4246 1.390 . S
C4255 H4248 0.950 . S
C4255 C4252 1.387 . S
C4256 C4257 1.387 . S
C4256 H4260 0.950 . S
C4256 C4265 1.390 . S
C4257 C4256 1.387 . S
C4257 C4259 1.387 . S
H4258 C4265 0.950 . S
C4259 C4257 1.387 . S
C4259 C4261 1.390 . S
C4259 H4263 0.950 . S
H4260 C4256 0.950 . S
C4261 C4259 1.390 . S
C4261 C4262 1.387 . S
C4261 H4264 0.950 . S
C4262 C4261 1.387 . S
C4262 C4265 1.387 . S
H4263 C4259 0.950 . S
H4264 C4261 0.950 . S
C4265 C4256 1.390 . S
C4265 H4258 0.950 . S
C4265 C4262 1.387 . S
C4266 C4267 1.387 . S
C4266 H4270 0.950 . S
C4266 C4275 1.390 . S
C4267 C4266 1.387 . S
C4267 C4269 1.387 . S
H4268 C4275 0.950 . S
C4269 C4267 1.387 . S
C4269 C4271 1.390 . S
C4269 H4273 0.950 . S
H4270 C4266 0.950 . S
C4271 C4269 1.390 . S
C4271 C4272 1.387 . S
C4271 H4274 0.950 . S
C4272 C4271 1.387 . S
C4272 C4275 1.387 . S
H4273 C4269 0.950 . S
H4274 C4271 0.950 . S
C4275 C4266 1.390 . S
C4275 H4268 0.950 . S
C4275 C4272 1.387 . S
C4276 C4277 1.387 1_455 S
C4276 H4280 0.950 1_455 S
C4276 C4285 1.390 . S
C4277 C4276 1.387 1_655 S
C4277 C4279 1.387 1_655 S
H4278 C4285 0.950 . S
C4279 C4277 1.387 1_455 S
C4279 C4281 1.390 . S
C4279 H4283 0.950 . S
H4280 C4276 0.950 1_655 S
C4281 C4279 1.390 . S
C4281 C4282 1.387 . S
C4281 H4284 0.950 . S
C4282 C4281 1.387 . S
C4282 C4285 1.387 . S
H4283 C4279 0.950 . S
H4284 C4281 0.950 . S
C4285 C4276 1.390 . S
C4285 H4278 0.950 . S
C4285 C4282 1.387 . S
C4286 C4287 1.387 . S
C4286 H4290 0.950 . S
C4286 C4295 1.390 . S
C4287 C4286 1.387 . S
C4287 C4289 1.387 . S
H4288 C4295 0.950 . S
C4289 C4287 1.387 . S
C4289 C4291 1.390 . S
C4289 H4293 0.950 . S
H4290 C4286 0.950 . S
C4291 C4289 1.390 . S
C4291 C4292 1.387 . S
C4291 H4294 0.950 . S
C4292 C4291 1.387 . S
C4292 C4295 1.387 . S
H4293 C4289 0.950 . S
H4294 C4291 0.950 . S
C4295 C4286 1.390 . S
C4295 H4288 0.950 . S
C4295 C4292 1.387 . S
C4296 C4297 1.387 . S
C4296 H4300 0.950 . S
C4296 C4305 1.390 . S
C4297 C4296 1.387 . S
C4297 C4299 1.387 . S
H4298 C4305 0.950 . S
C4299 C4297 1.387 . S
C4299 C4301 1.390 . S
C4299 H4303 0.950 . S
H4300 C4296 0.950 . S
C4301 C4299 1.390 . S
C4301 C4302 1.387 . S
C4301 H4304 0.950 . S
C4302 C4301 1.387 . S
C4302 C4305 1.387 . S
H4303 C4299 0.950 . S
H4304 C4301 0.950 . S
C4305 C4296 1.390 . S
C4305 H4298 0.950 . S
C4305 C4302 1.387 . S
C4306 C4307 1.387 . S
C4306 H4310 0.950 . S
C4306 C4315 1.390 . S
C4307 C4306 1.387 . S
C4307 C4309 1.387 . S
H4308 C4315 0.950 . S
C4309 C4307 1.387 . S
C4309 C4311 1.390 . S
C4309 H4313 0.950 . S
H4310 C4306 0.950 . S
C4311 C4309 1.390 . S
C4311 C4312 1.387 . S
C4311 H4314 0.950 . S
C4312 C4311 1.387 . S
C4312 C4315 1.387 . S
H4313 C4309 0.950 . S
H4314 C4311 0.950 . S
C4315 C4306 1.390 . S
C4315 H4308 0.950 . S
C4315 C4312 1.387 . S
C4316 C4317 1.387 . S
C4316 H4320 0.950 . S
C4316 C4325 1.405 . S
C4317 C4316 1.387 . S
C4317 C4319 1.387 . S
H4318 C4325 0.946 1_455 S
C4319 C4317 1.387 . S
C4319 C4321 1.390 . S
C4319 H4323 0.950 . S
H4320 C4316 0.950 . S
C4321 C4319 1.390 . S
C4321 C4322 1.388 1_655 S
C4321 H4324 0.950 . S
C4322 C4321 1.388 1_455 S
C4322 C4325 1.379 1_455 S
H4323 C4319 0.950 . S
H4324 C4321 0.950 . S
C4325 C4316 1.405 . S
C4325 H4318 0.946 1_655 S
C4325 C4322 1.379 1_655 S
C4326 C4327 1.387 . S
C4326 H4330 0.950 . S
C4326 C4335 1.390 . S
C4327 C4326 1.387 . S
C4327 C4329 1.387 . S
H4328 C4335 0.950 . S
C4329 C4327 1.387 . S
C4329 C4331 1.390 . S
C4329 H4333 0.950 . S
H4330 C4326 0.950 . S
C4331 C4329 1.390 . S
C4331 C4332 1.387 . S
C4331 H4334 0.950 . S
C4332 C4331 1.387 . S
C4332 C4335 1.387 . S
H4333 C4329 0.950 . S
H4334 C4331 0.950 . S
C4335 C4326 1.390 . S
C4335 H4328 0.950 . S
C4335 C4332 1.387 . S
C4336 C4337 1.387 . S
C4336 H4340 0.950 . S
C4336 C4345 1.390 . S
C4337 C4336 1.387 . S
C4337 C4339 1.387 . S
H4338 C4345 0.950 . S
C4339 C4337 1.387 . S
C4339 C4341 1.390 . S
C4339 H4343 0.950 . S
H4340 C4336 0.950 . S
C4341 C4339 1.390 . S
C4341 C4342 1.387 . S
C4341 H4344 0.950 . S
C4342 C4341 1.387 . S
C4342 C4345 1.387 . S
H4343 C4339 0.950 . S
H4344 C4341 0.950 . S
C4345 C4336 1.390 . S
C4345 H4338 0.950 . S
C4345 C4342 1.387 . S
C4346 C4347 1.387 . S
C4346 H4350 0.950 . S
C4346 C4355 1.390 1_565 S
C4347 C4346 1.387 . S
C4347 C4349 1.387 . S
H4348 C4355 0.950 . S
C4349 C4347 1.387 . S
C4349 C4351 1.390 . S
C4349 H4353 0.950 . S
H4350 C4346 0.950 . S
C4351 C4349 1.390 . S
C4351 C4352 1.387 . S
C4351 H4354 0.950 . S
C4352 C4351 1.387 . S
C4352 C4355 1.387 1_565 S
H4353 C4349 0.950 . S
H4354 C4351 0.950 . S
C4355 C4346 1.390 1_545 S
C4355 H4348 0.950 . S
C4355 C4352 1.387 1_545 S
C4356 C4357 1.387 . S
C4356 H4360 0.950 . S
C4356 C4365 1.390 . S
C4357 C4356 1.387 . S
C4357 C4359 1.387 . S
H4358 C4365 0.950 . S
C4359 C4357 1.387 . S
C4359 C4361 1.390 . S
C4359 H4363 0.950 . S
H4360 C4356 0.950 . S
C4361 C4359 1.390 . S
C4361 C4362 1.387 . S
C4361 H4364 0.950 . S
C4362 C4361 1.387 . S
C4362 C4365 1.387 . S
H4363 C4359 0.950 . S
H4364 C4361 0.950 . S
C4365 C4356 1.390 . S
C4365 H4358 0.950 . S
C4365 C4362 1.387 . S
C4366 C4367 1.387 1_556 S
C4366 H4370 0.950 . S
C4366 C4375 1.391 . S
C4367 C4366 1.387 1_554 S
C4367 C4369 1.387 . S
H4368 C4375 0.954 . S
C4369 C4367 1.387 . S
C4369 C4371 1.390 . S
C4369 H4373 0.950 . S
H4370 C4366 0.950 . S
C4371 C4369 1.390 . S
C4371 C4372 1.387 . S
C4371 H4374 0.950 . S
C4372 C4371 1.387 . S
C4372 C4375 1.383 1_554 S
H4373 C4369 0.950 . S
H4374 C4371 0.950 . S
C4375 C4366 1.391 . S
C4375 H4368 0.954 . S
C4375 C4372 1.383 1_556 S
C4376 C4377 1.387 . S
C4376 H4380 0.950 . S
C4376 C4385 1.390 . S
C4377 C4376 1.387 . S
C4377 C4379 1.387 . S
H4378 C4385 0.950 . S
C4379 C4377 1.387 . S
C4379 C4381 1.390 . S
C4379 H4383 0.950 . S
H4380 C4376 0.950 . S
C4381 C4379 1.390 . S
C4381 C4382 1.387 . S
C4381 H4384 0.950 . S
C4382 C4381 1.387 . S
C4382 C4385 1.387 . S
H4383 C4379 0.950 . S
H4384 C4381 0.950 . S
C4385 C4376 1.390 . S
C4385 H4378 0.950 . S
C4385 C4382 1.387 . S
C4386 C4387 1.387 . S
C4386 H4390 0.950 . S
C4386 C4395 1.408 . S
C4387 C4386 1.387 . S
C4387 C4389 1.387 . S
H4388 C4395 0.926 1_556 S
C4389 C4387 1.387 . S
C4389 C4391 1.390 . S
C4389 H4393 0.950 . S
H4390 C4386 0.950 . S
C4391 C4389 1.390 . S
C4391 C4392 1.387 . S
C4391 H4394 0.950 . S
C4392 C4391 1.387 . S
C4392 C4395 1.395 . S
H4393 C4389 0.950 . S
H4394 C4391 0.950 . S
C4395 C4386 1.408 . S
C4395 H4388 0.926 1_554 S
C4395 C4392 1.395 . S
C4396 C4397 1.387 . S
C4396 H4400 0.950 . S
C4396 C4405 1.390 . S
C4397 C4396 1.387 . S
C4397 C4399 1.387 . S
H4398 C4405 0.950 . S
C4399 C4397 1.387 . S
C4399 C4401 1.390 . S
C4399 H4403 0.950 . S
H4400 C4396 0.950 . S
C4401 C4399 1.390 . S
C4401 C4402 1.387 . S
C4401 H4404 0.950 . S
C4402 C4401 1.387 . S
C4402 C4405 1.387 . S
H4403 C4399 0.950 . S
H4404 C4401 0.950 . S
C4405 C4396 1.390 . S
C4405 H4398 0.950 . S
C4405 C4402 1.387 . S
C4406 C4407 1.387 . S
C4406 H4410 0.950 . S
C4406 C4415 1.390 . S
C4407 C4406 1.387 . S
C4407 C4409 1.387 . S
H4408 C4415 0.950 . S
C4409 C4407 1.387 . S
C4409 C4411 1.390 . S
C4409 H4413 0.950 . S
H4410 C4406 0.950 . S
C4411 C4409 1.390 . S
C4411 C4412 1.387 . S
C4411 H4414 0.950 . S
C4412 C4411 1.387 . S
C4412 C4415 1.387 . S
H4413 C4409 0.950 . S
H4414 C4411 0.950 . S
C4415 C4406 1.390 . S
C4415 H4408 0.950 . S
C4415 C4412 1.387 . S
C3457 C665 1.970 . S
C3462 C2168 1.885 . S
C3467 C381 2.225 . S
C3472 C2259 2.241 . S
C3477 C460 1.823 . S
C3482 C2336 1.918 . S
C3492 C2434 1.423 . S
C3487 C585 1.549 . S
C3497 C108 1.591 . S
C3502 C2518 1.606 . S
C3512 C2590 1.022 . S
C3507 C196 1.177 . S
C3522 C2679 1.403 . S
C3517 C313 1.230 . S
C3527 C49 1.564 . S
C3532 C2756 1.380 . S
C3542 C2175 2.039 . S
C3537 C1457 2.134 . S
C3547 C1545 0.643 . S
C3552 C2266 0.673 . S
C3562 C2343 1.158 . S
C3557 C1721 1.188 . S
C3572 C2420 1.875 . S
C3567 C1113 1.846 . S
C3577 C1428 2.278 . S
C3582 C2504 2.140 . S
C3592 C2606 1.103 . S
C3587 C1516 1.173 . S
C3602 C2686 0.756 . S
C3597 C1692 0.756 . S
C3612 C2763 1.574 . S
C3607 C1085 1.726 . S
C3622 C2182 1.411 . S
C3617 C988 1.495 1_545 S
C3627 C1817 1.934 . S
C3632 C2847 1.888 1_556 S
C3642 C2935 2.178 . S
C3637 C2081 2.366 . S
C3652 C3008 0.692 . S
C3647 C1993 0.701 . S
C3657 C761 1.121 . S
C3662 C2770 1.231 . S
C3667 C821 1.518 . S
C3672 C2350 1.545 . S
C3677 C2053 2.293 . S
C3682 C3099 2.233 . S
C3692 C3176 0.759 . S
C3687 C1868 0.758 . S
C3702 C2179 1.879 . S
C3697 C372 1.953 . S
C3712 C3194 2.240 . S
C3707 C645 2.219 . S
C3717 C577 1.815 . S
C3722 C2347 1.913 . S
C3727 C497 1.548 . S
C3732 C3094 1.419 . S
C3742 C2506 1.602 . S
C3737 C57 1.595 . S
C3747 C293 1.171 . S
C3752 C2938 1.015 . S
C3762 C2690 1.400 . S
C3757 C205 1.217 . S
C3772 C3271 1.380 . S
C3767 C145 1.569 . S
C3782 C2186 2.035 . S
C3777 C909 2.128 . S
C3792 C3178 0.671 . S
C3787 C1956 0.640 . S
C3797 C724 1.185 . S
C3802 C2354 1.155 . S
C3807 C1780 1.843 . S
C3812 C3103 1.864 . S
C3817 C937 2.284 . S
C3822 C2515 2.134 . S
C3832 C2931 1.100 . S
C3827 C1985 1.172 . S
C3837 C753 0.749 . S
C3842 C2674 0.747 . S
C3847 C1809 1.726 . S
C3852 C3278 1.575 . S
C3857 C1173 1.494 . S
C3862 C2170 1.405 1_554 S
C3867 C1105 1.928 . S
C3872 C2858 1.891 . S
C3877 C1633 2.364 . S
C3882 C2588 2.177 . S
C3887 C1553 0.697 . S
C3892 C3019 0.691 . S
C3902 C3262 1.233 . S
C3897 C1729 1.132 . S
C3907 C1340 1.522 . S
C3912 C2338 1.542 . S
C3922 C2438 2.230 . S
C3917 C1604 2.289 . S
C3932 C2263 0.751 . S
C3927 C1252 0.756 . S
C3937 C489 1.951 . S
C3942 C3344 1.885 . S
C3952 C3183 2.241 . S
C3947 C557 2.225 . S
C3957 C636 1.820 . S
C3962 C3428 1.917 . S
C3967 C409 1.550 1_655 S
C3972 C3106 1.425 . S
C3977 C284 1.589 . S
C3982 C2854 1.606 . S
C3992 C2926 1.021 . S
C3987 C20 1.177 . S
C4002 C3015 1.403 . S
C3997 C137 1.231 . S
C4012 C3260 1.385 . S
C4007 C225 1.566 . S
C4022 C3351 2.039 . S
C4017 C1641 2.134 . S
C4027 C1193 0.643 . S
C4032 C3190 0.673 . S
C4042 C3435 1.156 . S
C4037 C1289 1.187 . S
C4052 C3092 1.875 . S
C4047 C1377 1.846 . S
C4062 C2840 2.138 . S
C4057 C1613 2.278 . S
C4067 C1164 1.173 . S
C4072 C2942 1.102 . S
C4082 C3022 0.749 . S
C4077 C1261 0.753 . S
C4087 C1349 1.726 . S
C4092 C3267 1.570 . S
C4102 C3358 1.411 . S
C4097 C1965 1.495 . S
C4107 C849 1.933 . S
C4112 C2511 1.892 . S
C4122 C2599 2.180 . S
C4117 C929 2.371 . S
C4132 C2672 0.698 . S
C4127 C1017 0.708 . S
C4142 C3274 1.233 . S
C4137 C1897 1.123 . S
C4147 C1789 1.518 1_554 S
C4152 C3442 1.541 . S
C4162 C2427 2.231 . S
C4157 C900 2.288 . S
C4172 C2252 0.761 . S
C4167 C733 0.759 . S
C4177 C548 1.952 . S
C4182 C3355 1.880 . S
C4192 C2270 2.240 . S
C4187 C469 2.218 . S
C4197 C401 1.817 . S
C4202 C3439 1.912 . S
C4207 C673 1.548 . S
C4212 C2422 1.422 . S
C4217 C233 1.594 . S
C4222 C2842 1.602 . S
C4232 C2602 1.014 . S
C4227 C117 1.171 . S
C4237 C29 1.212 . S
C4242 C3026 1.399 . S
C4247 C321 1.570 . S
C4252 C2767 1.381 . S
C4262 C3362 2.037 . S
C4257 C2044 2.130 . S
C4267 C997 0.640 . S
C4272 C2254 0.671 . S
C4282 C3446 1.157 . S
C4277 C1877 1.185 . S
C4287 C812 1.843 . S
C4292 C2431 1.870 . S
C4297 C2073 2.282 . S
C4302 C2851 2.133 . S
C4312 C2595 1.095 . S
C4307 C1025 1.171 . S
C4317 C1905 0.749 . S
C4322 C3010 0.744 . S
C4332 C2774 1.565 . S
C4327 C841 1.724 . S
C4342 C3346 1.405 . S
C4337 C1525 1.495 . S
C4352 C2522 1.892 1_665 S
C4347 C1369 1.928 . S
C4357 C1465 2.363 . S
C4362 C2924 2.175 . S
C4372 C2683 0.686 . S
C4367 C1201 0.694 . S
C4377 C1281 1.129 . S
C4382 C2758 1.234 . S
C4387 C1076 1.521 . S
C4392 C3430 1.544 1_554 S
C4402 C3110 2.230 . S
C4397 C1437 2.288 . S
C4412 C3187 0.756 . S
C4407 C1701 0.751 . S
