# Generated by pormake.
# Topology pth, (4,4)-cn, num edge types: 1
# Building blocks:
#     Node 0, Type 0, BuildingBlock: TATPOV_clean_sbu_0, # of connection points: 4
#     Node 1, Type 0, BuildingBlock: TATPOV_clean_sbu_0, # of connection points: 4
#     Node 2, Type 0, BuildingBlock: TATPOV_clean_sbu_0, # of connection points: 4
#     Node 3, Type 1, BuildingBlock: MUDLON_clean_sbu_0, # of connection points: 4
#     Node 4, Type 1, BuildingBlock: MUDLON_clean_sbu_0, # of connection points: 4
#     Node 5, Type 1, BuildingBlock: MUDLON_clean_sbu_0, # of connection points: 4
#     Edge 6, Type (0, 1), BuildingBlock: TEMPAE_clean_linker_10, # of connection points: 2
#     Edge 7, Type (0, 1), BuildingBlock: TEMPAE_clean_linker_10, # of connection points: 2
#     Edge 8, Type (0, 1), BuildingBlock: TEMPAE_clean_linker_10, # of connection points: 2
#     Edge 9, Type (0, 1), BuildingBlock: TEMPAE_clean_linker_10, # of connection points: 2
#     Edge 10, Type (0, 1), BuildingBlock: TEMPAE_clean_linker_10, # of connection points: 2
#     Edge 11, Type (0, 1), BuildingBlock: TEMPAE_clean_linker_10, # of connection points: 2
#     Edge 12, Type (0, 1), BuildingBlock: TEMPAE_clean_linker_10, # of connection points: 2
#     Edge 13, Type (0, 1), BuildingBlock: TEMPAE_clean_linker_10, # of connection points: 2
#     Edge 14, Type (0, 1), BuildingBlock: TEMPAE_clean_linker_10, # of connection points: 2
#     Edge 15, Type (0, 1), BuildingBlock: TEMPAE_clean_linker_10, # of connection points: 2
#     Edge 16, Type (0, 1), BuildingBlock: TEMPAE_clean_linker_10, # of connection points: 2
#     Edge 17, Type (0, 1), BuildingBlock: TEMPAE_clean_linker_10, # of connection points: 2
# Relax obj value: 0.072
# Max RMSD: 0.185
# Mean RMSD: 0.119
data_MOF--net-pth--node1-TATPOV_clean_sbu_0--node2-MUDLON_clean_sbu_0--edge1-TEMPAE_clean_linker_10
_symmetry_space_group_name_H-M    P1
_symmetry_Int_Tables_number       1
_symmetry_cell_setting            triclinic
loop_
_symmetry_equiv_pos_as_xyz
'x, y, z'
_cell_length_a     23.121732
_cell_length_b     22.888913
_cell_length_c     59.683307
_cell_angle_alpha  92.55715
_cell_angle_beta   91.910048
_cell_angle_gamma 121.25277
loop_
_atom_site_label
_atom_site_type_symbol
_atom_site_fract_x
_atom_site_fract_y
_atom_site_fract_z
_atom_type_partial_charge
Zn0 Zn 0.23871 0.08146 0.06841 0.0
Zn1 Zn 0.15556 0.11908 0.0841 0.0
O2 O 0.18337 0.08024 0.11032 0.0
O3 O 0.26134 0.06044 0.09881 0.0
O4 O 0.10988 0.16234 0.10041 0.0
O5 O 0.29782 0.17219 0.05521 0.0
O6 O 0.22658 0.20081 0.06731 0.0
C7 C 0.22484 0.0603 0.11416 0.0
C8 C 0.09668 1.00071 0.04927 0.0
O9 O 0.08684 0.04144 0.06157 0.0
O10 O 0.15468 0.00718 0.04977 0.0
C11 C 0.05157 0.15455 0.09707 0.0
O12 O 0.00956 0.11075 0.08085 0.0
C13 C 0.27867 0.21488 0.05666 0.0
Zn14 Zn 0.21814 0.14981 0.38782 0.0
Zn15 Zn 0.10806 0.11186 0.41011 0.0
O16 O 0.18476 0.13567 0.43473 0.0
O17 O 0.27704 0.17451 0.41621 0.0
O18 O 0.02606 0.0818 0.42844 0.0
O19 O 0.20713 0.22136 0.37366 0.0
O20 O 0.11673 0.19227 0.39243 0.0
C21 C 0.24867 0.16112 0.43461 0.0
C22 C 0.11192 0.01049 0.37556 0.0
O23 O 0.07962 0.0253 0.38932 0.0
O24 O 0.1731 0.05445 0.37243 0.0
C25 C 0.02548 0.12216 0.44366 0.0
O26 O 0.07817 0.1849 0.44683 0.0
C27 C 0.15884 0.2297 0.37842 0.0
Zn28 Zn 0.13065 0.9344 0.76151 0.0
Zn29 Zn 0.09477 0.01603 0.74179 0.0
O30 O 0.12793 0.97753 0.71648 0.0
O31 O 0.14863 0.90374 0.73159 0.0
O32 O 0.05593 0.066 0.7256 0.0
O33 O 0.03937 0.88058 0.7747 0.0
O34 O 0.0118 0.94829 0.75877 0.0
C35 C 0.14658 0.93403 0.71461 0.0
C36 C 0.21445 0.08081 0.77644 0.0
O37 O 0.17445 0.08776 0.76309 0.0
O38 O 0.2063 0.02204 0.77838 0.0
C39 C 0.06237 0.07826 0.70494 0.0
O40 O 0.10117 0.06359 0.69341 0.0
C41 C 0.99681 0.89862 0.77099 0.0
Mg42 Mg 0.03395 0.57072 0.23769 0.0
C43 C 0.05075 0.47568 0.2653 0.0
O44 O 0.99745 0.43414 0.25177 0.0
C45 C 0.12629 0.72108 0.22877 0.0
O46 O 0.1126 0.73052 0.24934 0.0
C47 C 0.997 0.49374 0.19176 0.0
O48 O 0.03373 0.5567 0.18571 0.0
O49 O 0.98283 0.48461 0.21222 0.0
O50 O 0.08086 0.53983 0.2631 0.0
O51 O 0.97394 0.60362 0.2555 0.0
C52 C 0.96326 0.59141 0.27603 0.0
O53 O 0.97491 0.54614 0.28444 0.0
O54 O 0.10467 0.66037 0.22064 0.0
Mg55 Mg 0.59236 0.05194 0.58049 0.0
C56 C 0.53185 0.08564 0.54365 0.0
O57 O 0.52926 0.02904 0.53667 0.0
C58 C 0.67515 0.06386 0.62059 0.0
O59 O 0.62074 1.00226 0.62018 0.0
C60 C 0.44309 0.96206 0.59231 0.0
O61 O 0.42904 0.97126 0.57174 0.0
O62 O 0.50433 0.98354 0.59879 0.0
O63 O 0.56079 0.11369 0.56295 0.0
O64 O 0.62732 0.00971 0.55421 0.0
C65 C 0.67724 1.00152 0.55757 0.0
O66 O 0.70141 0.00684 0.57827 0.0
O67 O 0.67778 0.10348 0.60579 0.0
Mg68 Mg 0.59635 0.59917 0.91212 0.0
C69 C 0.57256 0.48841 0.87494 0.0
O70 O 0.6291 0.53678 0.86728 0.0
C71 C 0.74356 0.6816 0.92876 0.0
O72 O 0.74792 0.70764 0.90928 0.0
C73 C 0.46514 0.5316 0.93477 0.0
O74 O 0.44466 0.49557 0.91531 0.0
O75 O 0.52404 0.58524 0.93689 0.0
O76 O 0.55275 0.50049 0.89323 0.0
O77 O 0.62612 0.67903 0.8887 0.0
C78 C 0.60583 0.66634 0.868 0.0
O79 O 0.5531 0.60595 0.86133 0.0
O80 O 0.68725 0.63019 0.93335 0.0
C81 C 0.96927 0.19026 0.10786 0.0
C82 C 0.03322 0.19749 0.11091 0.0
C83 C 0.95306 0.23283 0.12043 0.0
C84 C 1.00205 0.28402 0.13632 0.0
C85 C 0.06622 0.29078 0.13968 0.0
C86 C 0.08089 0.24748 0.12702 0.0
C87 C 0.88396 0.22376 0.11648 0.0
C88 C 0.1201 0.34477 0.1564 0.0
C89 C 1.00525 0.44698 0.15408 0.0
C90 C 0.98532 0.43552 0.1762 0.0
C91 C 1.00689 0.39641 0.14039 0.0
C92 C 0.98805 0.33263 0.14897 0.0
C93 C 0.96335 0.31898 0.17071 0.0
C94 C 0.96224 0.37056 0.18407 0.0
C95 C 0.03324 0.41308 0.11728 0.0
C96 C 0.94231 0.25152 0.18045 0.0
H97 H 0.93199 0.15172 0.09552 0.0
H98 H 0.13043 0.2536 0.12958 0.0
H99 H 0.85917 0.21631 0.13258 0.0
H100 H 0.88926 0.2707 0.10985 0.0
H101 H 0.85035 0.1794 0.10439 0.0
H102 H 0.16683 0.34228 0.15739 0.0
H103 H 0.13379 0.39649 0.1516 0.0
H104 H 0.10038 0.33866 0.17337 0.0
H105 H 0.02267 0.49675 0.14775 0.0
H106 H 0.94653 0.361 0.2011 0.0
H107 H 0.99903 0.37102 0.1046 0.0
H108 H 0.0837 0.41828 0.11718 0.0
H109 H 0.03847 0.46155 0.11211 0.0
H110 H 0.90853 0.20808 0.16812 0.0
H111 H 0.9158 0.24534 0.19616 0.0
H112 H 0.98791 0.24846 0.18431 0.0
C113 C 0.96728 0.1435 0.47481 0.0
C114 C 0.96793 0.098 0.45842 0.0
C115 C 0.91501 0.12118 0.4896 0.0
C116 C 0.86193 0.05149 0.48808 0.0
C117 C 0.86159 0.00542 0.47136 0.0
C118 C 0.91452 0.02922 0.45671 0.0
C119 C 0.91718 0.17214 0.50711 0.0
C120 C 0.80599 0.93078 0.46921 0.0
C121 C 0.773 0.99417 0.54227 0.0
C122 C 0.71695 1.00153 0.53849 0.0
C123 C 0.81857 0.00653 0.52554 0.0
C124 C 0.80815 0.02715 0.50451 0.0
C125 C 0.74944 0.03057 0.5001 0.0
C126 C 0.7044 0.01746 0.51711 0.0
C127 C 0.88002 1.00138 0.53085 0.0
C128 C 0.73633 0.05224 0.47792 0.0
H129 H 0.00809 0.19673 0.47626 0.0
H130 H 0.9145 0.99361 0.44411 0.0
H131 H 0.86967 0.17296 0.50552 0.0
H132 H 0.92087 0.1565 0.52418 0.0
H133 H 0.96079 0.22489 0.50565 0.0
H134 H 0.81159 0.90212 0.45478 0.0
H135 H 0.80637 0.90643 0.48483 0.0
H136 H 0.75577 0.92586 0.46708 0.0
H137 H 0.78293 0.98143 0.55867 0.0
H138 H 0.66126 0.02327 0.51397 0.0
H139 H 0.92628 0.05335 0.53204 0.0
H140 H 0.88587 0.97071 0.51719 0.0
H141 H 0.87703 0.97773 0.54696 0.0
H142 H 0.77439 0.10723 0.47648 0.0
H143 H 0.68495 0.04492 0.47618 0.0
H144 H 0.74184 0.0229 0.46372 0.0
C145 C 0.88788 0.89005 0.78105 0.0
C146 C 0.93166 0.86469 0.78213 0.0
C147 C 0.82916 0.86173 0.79319 0.0
C148 C 0.81384 0.80676 0.8067 0.0
C149 C 0.85666 0.77959 0.80726 0.0
C150 C 0.91487 0.80883 0.79501 0.0
C151 C 0.78466 0.89191 0.79209 0.0
C152 C 0.84204 0.72072 0.82134 0.0
C153 C 0.71326 0.77122 0.85855 0.0
C154 C 0.65229 0.71078 0.85129 0.0
C155 C 0.76476 0.80559 0.8438 0.0
C156 C 0.75508 0.77914 0.82117 0.0
C157 C 0.69166 0.72137 0.8133 0.0
C158 C 0.641 0.6879 0.82845 0.0
C159 C 0.83138 0.8673 0.85288 0.0
C160 C 0.67899 0.69183 0.78928 0.0
H161 H 0.90029 0.93317 0.77116 0.0
H162 H 0.94802 0.78854 0.7959 0.0
H163 H 0.73108 0.85095 0.78784 0.0
H164 H 0.7867 0.91645 0.80879 0.0
H165 H 0.80049 0.93086 0.77948 0.0
H166 H 0.87877 0.70372 0.81924 0.0
H167 H 0.84401 0.73622 0.83936 0.0
H168 H 0.79021 0.67646 0.81676 0.0
H169 H 0.7224 0.78976 0.87611 0.0
H170 H 0.59406 0.64145 0.8226 0.0
H171 H 0.84814 0.90961 0.84157 0.0
H172 H 0.87092 0.85361 0.85366 0.0
H173 H 0.82819 0.88615 0.87 0.0
H174 H 0.69658 0.73299 0.77747 0.0
H175 H 0.62448 0.65361 0.78496 0.0
H176 H 0.70819 0.66626 0.7867 0.0
C177 C 0.16439 0.99773 0.14716 0.0
C178 C 0.22304 0.02716 0.13514 0.0
C179 C 0.15589 0.95428 0.16428 0.0
C180 C 0.20797 0.9412 0.16988 0.0
C181 C 0.26947 0.97513 0.15903 0.0
C182 C 0.27595 0.01703 0.14158 0.0
C183 C 0.08913 0.91852 0.1752 0.0
C184 C 0.32702 0.96427 0.16498 0.0
C185 C 0.18561 0.84675 0.22289 0.0
C186 C 0.1557 0.77875 0.21393 0.0
C187 C 0.206 0.90085 0.20877 0.0
C188 C 0.19478 0.88637 0.18517 0.0
C189 C 0.16669 0.8181 0.17605 0.0
C190 C 0.14823 0.76534 0.19051 0.0
C191 C 0.23747 0.97313 0.21912 0.0
C192 C 0.15305 0.80017 0.151 0.0
H193 H 0.12313 0.00503 0.14224 0.0
H194 H 0.32167 0.04007 0.13249 0.0
H195 H 0.06196 0.86277 0.17025 0.0
H196 H 0.09772 0.9248 0.19376 0.0
H197 H 0.05594 0.93819 0.17025 0.0
H198 H 0.37471 1.00213 0.15763 0.0
H199 H 0.33634 0.96793 0.18349 0.0
H200 H 0.31338 0.91214 0.15857 0.0
H201 H 0.1919 0.8576 0.24097 0.0
H202 H 0.12498 0.71301 0.18341 0.0
H203 H 0.2017 0.99119 0.21657 0.0
H204 H 0.28421 0.00826 0.21079 0.0
H205 H 0.25028 0.9769 0.23744 0.0
H206 H 0.11599 0.81328 0.14445 0.0
H207 H 0.13257 0.7449 0.14658 0.0
H208 H 0.20031 0.83055 0.14229 0.0
C209 C 0.36059 0.21223 0.45613 0.0
C210 C 0.2898 0.16925 0.4554 0.0
C211 C 0.40205 0.21045 0.47344 0.0
C212 C 0.37205 0.16387 0.49027 0.0
C213 C 0.30044 0.12488 0.49074 0.0
C214 C 0.26003 0.12831 0.47331 0.0
C215 C 0.47807 0.25382 0.47246 0.0
C216 C 0.26637 0.07471 0.50841 0.0
C217 C 0.46646 0.07788 0.50858 0.0
C218 C 0.4949 0.11015 0.53 0.0
C219 C 0.42644 0.09499 0.49571 0.0
C220 C 0.41462 0.14625 0.5043 0.0
C221 C 0.44415 0.18024 0.52573 0.0
C222 C 0.48398 0.16167 0.5384 0.0
C223 C 0.39627 0.05751 0.4729 0.0
C224 C 0.43297 0.23543 0.53534 0.0
H225 H 0.38392 0.24496 0.44252 0.0
H226 H 0.20535 0.09524 0.47292 0.0
H227 H 0.50294 0.27652 0.48943 0.0
H228 H 0.49741 0.22115 0.46622 0.0
H229 H 0.4932 0.29577 0.46105 0.0
H230 H 0.21187 0.05768 0.50889 0.0
H231 H 0.27018 0.02892 0.50467 0.0
H232 H 0.29188 0.09756 0.52529 0.0
H233 H 0.47471 0.03819 0.50186 0.0
H234 H 0.50553 0.18662 0.55497 0.0
H235 H 0.41438 0.09447 0.45965 0.0
H236 H 0.34021 0.0317 0.47228 0.0
H237 H 0.4097 0.01833 0.46882 0.0
H238 H 0.44833 0.27619 0.52346 0.0
H239 H 0.4618 0.25901 0.55178 0.0
H240 H 0.37825 0.21353 0.53765 0.0
C241 C 0.31885 0.13394 0.80256 0.0
C242 C 0.27075 0.14094 0.78989 0.0
C243 C 0.37151 0.18945 0.81588 0.0
C244 C 0.37614 0.25361 0.81672 0.0
C245 C 0.32849 0.26145 0.80372 0.0
C246 C 0.27648 0.20509 0.7904 0.0
C247 C 0.42153 0.1791 0.82938 0.0
C248 C 0.33161 0.32905 0.80425 0.0
C249 C 0.46315 0.37611 0.86848 0.0
C250 C 0.52578 0.42487 0.8607 0.0
C251 C 0.41451 0.31979 0.85442 0.0
C252 C 0.42881 0.31158 0.83202 0.0
C253 C 0.49274 0.35922 0.82426 0.0
C254 C 0.54048 0.41538 0.83869 0.0
C255 C 0.34704 0.27007 0.86338 0.0
C256 C 0.51004 0.3518 0.80055 0.0
H257 H 0.31528 0.08478 0.80219 0.0
H258 H 0.23969 0.21107 0.78067 0.0
H259 H 0.4741 0.2174 0.8255 0.0
H260 H 0.41741 0.18704 0.84759 0.0
H261 H 0.41301 0.12699 0.826 0.0
H262 H 0.29234 0.32746 0.79256 0.0
H263 H 0.32443 0.34309 0.82152 0.0
H264 H 0.38225 0.37022 0.79972 0.0
H265 H 0.45123 0.38279 0.88546 0.0
H266 H 0.58861 0.45278 0.83251 0.0
H267 H 0.33742 0.21725 0.86155 0.0
H268 H 0.30565 0.2702 0.85347 0.0
H269 H 0.3445 0.28283 0.88136 0.0
H270 H 0.50284 0.30033 0.79706 0.0
H271 H 0.56307 0.39124 0.79744 0.0
H272 H 0.4753 0.35625 0.78844 0.0
C273 C 0.97986 0.11848 0.70534 0.0
C274 C 0.01771 0.09753 0.69317 0.0
C275 C 0.92978 0.12647 0.69444 0.0
C276 C 0.91629 0.11179 0.67088 0.0
C277 C 0.95727 0.09486 0.65838 0.0
C278 C 0.00784 0.08857 0.66965 0.0
C279 C 0.88845 0.14637 0.70832 0.0
C280 C 0.9442 0.07793 0.63328 0.0
C281 C 0.73438 0.02836 0.64729 0.0
C282 C 0.73551 0.08035 0.63533 0.0
C283 C 0.79245 0.03874 0.65927 0.0
C284 C 0.85333 0.10335 0.65982 0.0
C285 C 0.85422 0.15732 0.64874 0.0
C286 C 0.7954 0.14497 0.63639 0.0
C287 C 0.78921 0.97935 0.67056 0.0
C288 C 0.91769 0.22739 0.64943 0.0
H289 H 0.98769 0.12636 0.7235 0.0
H290 H 0.03694 0.07263 0.66006 0.0
H291 H 0.88121 0.18474 0.70001 0.0
H292 H 0.8375 0.10058 0.7099 0.0
H293 H 0.91264 0.16774 0.72548 0.0
H294 H 0.98484 0.07295 0.62573 0.0
H295 H 0.89531 0.02877 0.62971 0.0
H296 H 0.93989 0.11791 0.62491 0.0
H297 H 0.68851 0.97819 0.64665 0.0
H298 H 0.79667 0.18551 0.62728 0.0
H299 H 0.80479 0.99352 0.6887 0.0
H300 H 0.82503 0.96666 0.66308 0.0
H301 H 0.73762 0.93269 0.66883 0.0
H302 H 0.93978 0.24512 0.66696 0.0
H303 H 0.90788 0.26587 0.64245 0.0
H304 H 0.95618 0.22485 0.63954 0.0
C305 C 0.98271 0.94784 0.02832 0.0
C306 C 0.04183 0.947 0.03355 0.0
C307 C 0.93346 0.90039 0.01197 0.0
C308 C 0.94337 0.85066 1.00075 0.0
C309 C 1.00167 0.84796 0.00658 0.0
C310 C 0.05024 0.89625 0.02282 0.0
C311 C 0.87193 0.90494 0.00616 0.0
C312 C 0.01377 0.79532 0.99518 0.0
C313 C 0.7903 0.69875 0.96866 0.0
C314 C 0.79863 0.71996 0.94667 0.0
C315 C 0.83774 0.74004 0.98639 0.0
C316 C 0.89474 0.80405 0.98204 0.0
C317 C 0.90479 0.82445 0.95975 0.0
C318 C 0.85677 0.7821 0.94235 0.0
C319 C 0.82575 0.7162 0.0099 0.0
C320 C 0.96514 0.89217 0.95439 0.0
H321 H 0.97581 0.98683 0.03652 0.0
H322 H 0.09546 0.89472 0.02688 0.0
H323 H 0.87238 0.91804 0.98847 0.0
H324 H 0.82495 0.85463 0.0076 0.0
H325 H 0.86998 0.94419 0.0172 0.0
H326 H 0.05918 0.79696 1.00276 0.0
H327 H 0.96904 0.74308 0.99619 0.0
H328 H 0.02087 0.80439 0.9771 0.0
H329 H 0.74558 0.65083 0.97218 0.0
H330 H 0.8638 0.79894 0.92543 0.0
H331 H 0.81704 0.75124 0.02072 0.0
H332 H 0.87118 0.71779 0.01735 0.0
H333 H 0.78133 0.66332 0.01026 0.0
H334 H 0.96348 0.93482 0.9633 0.0
H335 H 0.96672 0.89949 0.93609 0.0
H336 H 0.01289 0.89576 0.96038 0.0
C337 C 0.00746 0.8993 0.36114 0.0
C338 C 0.07829 0.94289 0.36259 0.0
C339 C 0.97569 0.83699 0.34776 0.0
C340 C 0.01578 0.81771 0.33578 0.0
C341 C 0.08729 0.86094 0.33757 0.0
C342 C 0.11752 0.92293 0.35084 0.0
C343 C 0.89934 0.79248 0.3461 0.0
C344 C 0.13211 0.84207 0.32528 0.0
C345 C 0.96282 0.63731 0.3148 0.0
C346 C 0.95808 0.641 0.29145 0.0
C347 C 0.97607 0.69269 0.32971 0.0
C348 C 0.98418 0.75293 0.32107 0.0
C349 C 0.97249 0.75416 0.2977 0.0
C350 C 0.95966 0.6982 0.28315 0.0
C351 C 0.98777 0.689 0.35451 0.0
C352 C 0.97956 0.81695 0.28781 0.0
H353 H 0.97675 0.91449 0.37008 0.0
H354 H 0.17226 0.95599 0.35194 0.0
H355 H 0.87973 0.78812 0.3285 0.0
H356 H 0.88326 0.73994 0.35066 0.0
H357 H 0.87555 0.81327 0.35719 0.0
H358 H 0.1869 0.88054 0.32891 0.0
H359 H 0.12223 0.79157 0.3301 0.0
H360 H 0.1203 0.83745 0.30688 0.0
H361 H 0.96093 0.59309 0.32144 0.0
H362 H 0.95533 0.70133 0.26516 0.0
H363 H 0.96277 0.71037 0.36465 0.0
H364 H 0.04295 0.72022 0.35931 0.0
H365 H 0.9687 0.63561 0.35892 0.0
H366 H 0.95439 0.83808 0.29798 0.0
H367 H 0.95767 0.80577 0.27019 0.0
H368 H 0.0341 0.85719 0.28798 0.0
C369 C 0.17943 0.86732 0.6892 0.0
C370 C 0.17422 0.92515 0.69352 0.0
C371 C 0.21501 0.86326 0.67114 0.0
C372 C 0.24768 0.91912 0.65746 0.0
C373 C 0.23982 0.97618 0.6611 0.0
C374 C 0.20253 0.97812 0.67892 0.0
C375 C 0.22036 0.80062 0.66741 0.0
C376 C 0.27454 0.03729 0.64713 0.0
C377 C 0.41126 0.95758 0.63209 0.0
C378 C 0.39112 0.94093 0.60911 0.0
C379 C 0.36464 0.94897 0.64802 0.0
C380 C 0.29568 0.92144 0.64092 0.0
C381 C 0.27418 0.90051 0.61794 0.0
C382 C 0.32231 0.91127 0.60226 0.0
C383 C 0.39 0.97281 0.6723 0.0
C384 C 0.20084 0.86912 0.6098 0.0
H385 H 0.15718 0.82592 0.70031 0.0
H386 H 0.19909 0.02314 0.68222 0.0
H387 H 0.21055 0.78274 0.64932 0.0
H388 H 0.27253 0.81368 0.67252 0.0
H389 H 0.18425 0.75788 0.67723 0.0
H390 H 0.25967 0.07543 0.65108 0.0
H391 H 0.33033 0.0628 0.65024 0.0
H392 H 0.26238 0.02074 0.62897 0.0
H393 H 0.46431 0.98081 0.63757 0.0
H394 H 0.30626 0.89795 0.58456 0.0
H395 H 0.36087 0.9306 0.6833 0.0
H396 H 0.38215 0.01522 0.67752 0.0
H397 H 0.44471 0.99113 0.67519 0.0
H398 H 0.16738 0.82776 0.62052 0.0
H399 H 0.19092 0.84768 0.59207 0.0
H400 H 0.18674 0.90861 0.61105 0.0
C401 C 0.36575 0.28882 0.03052 0.0
C402 C 0.31139 0.27641 0.04345 0.0
C403 C 0.38993 0.33914 0.01493 0.0
C404 C 0.35939 0.37858 0.01221 0.0
C405 C 0.30755 0.36956 0.02623 0.0
C406 C 0.284 0.31843 0.04165 0.0
C407 C 0.44563 0.34727 1.00042 0.0
C408 C 0.27444 0.41128 0.02412 0.0
C409 C 0.45922 0.5293 0.97671 0.0
C410 C 0.42928 0.4999 0.95511 0.0
C411 C 0.43403 0.4922 0.99583 0.0
C412 C 0.37782 0.42412 0.99325 0.0
C413 C 0.3441 0.39643 0.97174 0.0
C414 C 0.37004 0.43473 0.95297 0.0
C415 C 0.47068 0.52413 0.01851 0.0
C416 C 0.28371 0.3242 0.96822 0.0
H417 H 0.38769 0.2571 0.03186 0.0
H418 H 0.24217 0.30956 0.0516 0.0
H419 H 0.42533 0.33127 0.98266 0.0
H420 H 0.48715 0.40177 1.00108 0.0
H421 H 0.46722 0.31612 1.00568 0.0
H422 H 0.24263 0.40567 0.03837 0.0
H423 H 0.31325 0.46634 0.02329 0.0
H424 H 0.24172 0.39426 0.00828 0.0
H425 H 0.50472 0.57982 0.97862 0.0
H426 H 0.34606 0.41171 0.93642 0.0
H427 H 0.50129 0.50155 0.02336 0.0
H428 H 0.43408 0.51331 0.03159 0.0
H429 H 0.50522 0.58049 0.01837 0.0
H430 H 0.30028 0.28731 0.97103 0.0
H431 H 0.25907 0.31283 0.95098 0.0
H432 H 0.24553 0.31548 0.9805 0.0
C433 C 0.0915 0.28384 0.36809 0.0
C434 C 0.14918 0.27908 0.36595 0.0
C435 C 0.0781 0.32346 0.35387 0.0
C436 C 0.12313 0.35849 0.33705 0.0
C437 C 0.18333 0.35707 0.33573 0.0
C438 C 0.19576 0.3178 0.35025 0.0
C439 C 0.01393 0.32474 0.35603 0.0
C440 C 0.23254 0.39326 0.31799 0.0
C441 C 0.04967 0.37757 0.28207 0.0
C442 C 0.07146 0.44739 0.28358 0.0
C443 C 0.0657 0.34819 0.29946 0.0
C444 C 0.10371 0.38937 0.31907 0.0
C445 C 0.12553 0.45989 0.32082 0.0
C446 C 0.10963 0.4883 0.30294 0.0
C447 C 0.04249 0.27305 0.2967 0.0
C448 C 0.16535 0.50512 0.3416 0.0
H449 H 0.05548 0.2546 0.38027 0.0
H450 H 0.24093 0.31522 0.34856 0.0
H451 H 0.02466 0.37787 0.35558 0.0
H452 H 0.97739 0.29392 0.34161 0.0
H453 H 0.98953 0.30349 0.37182 0.0
H454 H 0.28007 0.39275 0.32061 0.0
H455 H 0.20846 0.36775 0.30117 0.0
H456 H 0.24571 0.44722 0.31783 0.0
H457 H 0.02029 0.34573 0.26713 0.0
H458 H 0.12588 0.54214 0.30429 0.0
H459 H 0.0105 0.24565 0.31055 0.0
H460 H 0.08705 0.26691 0.29762 0.0
H461 H 0.01297 0.24811 0.28045 0.0
H462 H 0.13674 0.48346 0.35667 0.0
H463 H 0.17637 0.5583 0.34069 0.0
H464 H 0.21404 0.50693 0.34397 0.0
loop_
_geom_bond_atom_site_label_1
_geom_bond_atom_site_label_2
_geom_bond_distance
_geom_bond_site_symmetry_2
_ccdc_geom_bond_type
Zn0 O3 2.031 1_545 S
Zn0 O5 2.049 . S
Zn0 O10 2.067 . S
Zn1 O2 1.962 . S
Zn1 O4 1.986 . S
Zn1 O6 1.996 . S
Zn1 O9 1.943 . S
O2 Zn1 1.962 . S
O2 C7 1.254 . S
O3 Zn0 2.031 1_565 S
O3 C7 1.269 1_565 S
O4 Zn1 1.986 . S
O4 C11 1.262 . S
O5 Zn0 2.049 . S
O5 C13 1.260 . S
O6 Zn1 1.996 . S
O6 C13 1.257 . S
C7 O2 1.254 . S
C7 O3 1.269 1_545 S
C8 O9 1.249 . S
C8 O10 1.270 . S
O9 Zn1 1.943 . S
O9 C8 1.249 . S
O10 Zn0 2.067 . S
O10 C8 1.270 . S
C11 O4 1.262 . S
C11 O12 1.232 . S
O12 C11 1.232 . S
C13 O5 1.260 . S
C13 O6 1.257 . S
Zn14 O17 2.031 . S
Zn14 O19 2.049 . S
Zn14 O24 2.067 . S
Zn15 O16 1.962 . S
Zn15 O18 1.986 1_455 S
Zn15 O20 1.996 . S
Zn15 O23 1.943 . S
O16 Zn15 1.962 . S
O16 C21 1.254 . S
O17 Zn14 2.031 . S
O17 C21 1.269 . S
O18 Zn15 1.986 1_655 S
O18 C25 1.262 . S
O19 Zn14 2.049 . S
O19 C27 1.260 . S
O20 Zn15 1.996 . S
O20 C27 1.257 . S
C21 O16 1.254 . S
C21 O17 1.269 . S
C22 O23 1.249 . S
C22 O24 1.270 . S
O23 Zn15 1.943 . S
O23 C22 1.249 . S
O24 Zn14 2.067 . S
O24 C22 1.270 . S
C25 O18 1.262 . S
C25 O26 1.232 . S
O26 C25 1.232 . S
C27 O19 1.260 . S
C27 O20 1.257 . S
Zn28 O31 2.031 1_565 S
Zn28 O33 2.049 . S
Zn28 O38 2.067 1_565 S
Zn29 O30 1.962 1_545 S
Zn29 O32 1.986 1_455 S
Zn29 O34 1.996 1_545 S
Zn29 O37 1.943 . S
O30 Zn29 1.962 1_565 S
O30 C35 1.254 1_565 S
O31 Zn28 2.031 1_545 S
O31 C35 1.269 . S
O32 Zn29 1.986 1_655 S
O32 C39 1.262 . S
O33 Zn28 2.049 . S
O33 C41 1.260 . S
O34 Zn29 1.996 1_565 S
O34 C41 1.257 . S
C35 O30 1.254 1_545 S
C35 O31 1.269 . S
C36 O37 1.249 . S
C36 O38 1.270 . S
O37 Zn29 1.943 . S
O37 C36 1.249 . S
O38 Zn28 2.067 1_545 S
O38 C36 1.270 . S
C39 O32 1.262 . S
C39 O40 1.232 1_655 S
O40 C39 1.232 1_455 S
C41 O33 1.260 . S
C41 O34 1.257 . S
Mg42 O49 2.141 . S
Mg42 O50 2.048 . S
Mg42 O51 2.048 . S
Mg42 O54 2.141 . S
C43 O44 1.313 . S
C43 O50 1.195 . S
O44 C43 1.313 . S
C45 O46 1.245 . S
C45 O54 1.289 . S
O46 C45 1.245 . S
C47 O48 1.245 . S
C47 O49 1.289 . S
O48 C47 1.245 . S
O49 Mg42 2.141 . S
O49 C47 1.289 . S
O50 Mg42 2.048 . S
O50 C43 1.195 . S
O51 Mg42 2.048 . S
O51 C52 1.195 . S
C52 O51 1.195 . S
C52 O53 1.313 . S
O53 C52 1.313 . S
O54 Mg42 2.141 . S
O54 C45 1.289 . S
Mg55 O62 2.141 . S
Mg55 O63 2.048 . S
Mg55 O64 2.048 . S
Mg55 O67 2.141 . S
C56 O57 1.324 . S
C56 O63 1.195 . S
O57 C56 1.324 . S
C58 O59 1.245 1_545 S
C58 O67 1.289 . S
O59 C58 1.245 1_565 S
C60 O61 1.245 1_545 S
C60 O62 1.289 . S
O61 C60 1.245 1_565 S
O62 Mg55 2.141 . S
O62 C60 1.289 . S
O63 Mg55 2.048 . S
O63 C56 1.195 . S
O64 Mg55 2.048 . S
O64 C65 1.195 . S
C65 O64 1.195 . S
C65 O66 1.321 . S
O66 C65 1.321 . S
O67 Mg55 2.141 . S
O67 C58 1.289 . S
Mg68 O75 2.141 . S
Mg68 O76 2.048 . S
Mg68 O77 2.048 . S
Mg68 O80 2.141 . S
C69 O70 1.313 . S
C69 O76 1.195 . S
O70 C69 1.313 . S
C71 O72 1.245 . S
C71 O80 1.289 . S
O72 C71 1.245 . S
C73 O74 1.245 . S
C73 O75 1.289 . S
O74 C73 1.245 . S
O75 Mg68 2.141 . S
O75 C73 1.289 . S
O76 Mg68 2.048 . S
O76 C69 1.195 . S
O77 Mg68 2.048 . S
O77 C78 1.195 . S
C78 O77 1.195 . S
C78 O79 1.313 . S
O79 C78 1.313 . S
O80 Mg68 2.141 . S
O80 C71 1.289 . S
C81 C82 1.391 . S
C81 C83 1.394 . S
C81 H97 0.923 1_455 S
C82 C81 1.391 . S
C82 C86 1.376 . S
C83 C81 1.394 . S
C83 C84 1.369 . S
C83 C87 1.531 1_455 S
C84 C83 1.369 . S
C84 C85 1.410 . S
C84 C92 1.503 . S
C85 C84 1.410 . S
C85 C86 1.392 . S
C85 C88 1.511 . S
C86 C82 1.376 . S
C86 C85 1.392 . S
C86 H98 0.929 . S
C87 C83 1.531 1_655 S
C87 H99 0.960 . S
C87 H100 0.962 . S
C87 H101 0.960 . S
C88 C85 1.511 . S
C88 H102 0.961 . S
C88 H103 0.961 . S
C88 H104 0.961 . S
C89 C90 1.370 . S
C89 C91 1.363 . S
C89 H105 0.931 . S
C90 C89 1.370 . S
C90 C94 1.408 . S
C91 C89 1.363 . S
C91 C92 1.370 . S
C91 C95 1.524 . S
C92 C84 1.503 . S
C92 C91 1.370 . S
C92 C93 1.403 . S
C93 C92 1.403 . S
C93 C94 1.404 . S
C93 C96 1.539 . S
C94 C90 1.408 . S
C94 C93 1.404 . S
C94 H106 0.930 . S
C95 C91 1.524 . S
C95 H107 0.956 . S
C95 H108 0.961 . S
C95 H109 0.961 . S
C96 C93 1.539 . S
C96 H110 0.958 . S
C96 H111 0.961 . S
C96 H112 0.960 . S
H97 C81 0.923 1_655 S
H98 C86 0.929 . S
H99 C87 0.960 . S
H100 C87 0.962 . S
H101 C87 0.960 . S
H102 C88 0.961 . S
H103 C88 0.961 . S
H104 C88 0.961 . S
H105 C89 0.931 . S
H106 C94 0.930 . S
H107 C95 0.956 . S
H108 C95 0.961 . S
H109 C95 0.961 . S
H110 C96 0.958 . S
H111 C96 0.961 . S
H112 C96 0.960 . S
C113 C114 1.391 . S
C113 C115 1.394 . S
C113 H129 0.931 . S
C114 C113 1.391 . S
C114 C118 1.376 . S
C115 C113 1.394 . S
C115 C116 1.369 . S
C115 C119 1.531 . S
C116 C115 1.369 . S
C116 C117 1.410 . S
C116 C124 1.503 . S
C117 C116 1.410 . S
C117 C118 1.392 . S
C117 C120 1.511 . S
C118 C114 1.376 . S
C118 C117 1.392 . S
C118 H130 0.929 . S
C119 C115 1.531 . S
C119 H131 0.960 . S
C119 H132 0.962 . S
C119 H133 0.960 . S
C120 C117 1.511 . S
C120 H134 0.961 1_545 S
C120 H135 0.961 . S
C120 H136 0.961 . S
C121 C122 1.370 . S
C121 C123 1.363 . S
C121 H137 0.931 1_545 S
C122 C121 1.370 . S
C122 C126 1.408 . S
C123 C121 1.363 . S
C123 C124 1.370 . S
C123 C127 1.524 1_545 S
C124 C116 1.503 . S
C124 C123 1.370 . S
C124 C125 1.403 . S
C125 C124 1.403 . S
C125 C126 1.404 . S
C125 C128 1.539 . S
C126 C122 1.408 . S
C126 C125 1.404 . S
C126 H138 0.930 . S
C127 C123 1.524 1_565 S
C127 H139 0.956 . S
C127 H140 0.961 . S
C127 H141 0.961 . S
C128 C125 1.539 . S
C128 H142 0.958 . S
C128 H143 0.961 . S
C128 H144 0.960 . S
H129 C113 0.931 . S
H130 C118 0.929 . S
H131 C119 0.960 . S
H132 C119 0.962 . S
H133 C119 0.960 . S
H134 C120 0.961 1_565 S
H135 C120 0.961 . S
H136 C120 0.961 . S
H137 C121 0.931 1_565 S
H138 C126 0.930 . S
H139 C127 0.956 . S
H140 C127 0.961 . S
H141 C127 0.961 . S
H142 C128 0.958 . S
H143 C128 0.961 . S
H144 C128 0.960 . S
C145 C146 1.391 . S
C145 C147 1.394 . S
C145 H161 0.931 . S
C146 C145 1.391 . S
C146 C150 1.376 . S
C147 C145 1.394 . S
C147 C148 1.369 . S
C147 C151 1.531 . S
C148 C147 1.369 . S
C148 C149 1.410 . S
C148 C156 1.503 . S
C149 C148 1.410 . S
C149 C150 1.392 . S
C149 C152 1.511 . S
C150 C146 1.376 . S
C150 C149 1.392 . S
C150 H162 0.929 1_655 S
C151 C147 1.531 . S
C151 H163 0.960 . S
C151 H164 0.962 . S
C151 H165 0.960 . S
C152 C149 1.511 . S
C152 H166 0.961 1_655 S
C152 H167 0.961 . S
C152 H168 0.961 . S
C153 C154 1.370 . S
C153 C155 1.363 . S
C153 H169 0.931 . S
C154 C153 1.370 . S
C154 C158 1.408 . S
C155 C153 1.363 . S
C155 C156 1.370 . S
C155 C159 1.524 . S
C156 C148 1.503 . S
C156 C155 1.370 . S
C156 C157 1.403 . S
C157 C156 1.403 . S
C157 C158 1.404 . S
C157 C160 1.539 . S
C158 C154 1.408 . S
C158 C157 1.404 . S
C158 H170 0.930 . S
C159 C155 1.524 . S
C159 H171 0.956 . S
C159 H172 0.961 . S
C159 H173 0.961 . S
C160 C157 1.539 . S
C160 H174 0.958 . S
C160 H175 0.961 . S
C160 H176 0.960 . S
H161 C145 0.931 . S
H162 C150 0.929 1_455 S
H163 C151 0.960 . S
H164 C151 0.962 . S
H165 C151 0.960 . S
H166 C152 0.961 1_455 S
H167 C152 0.961 . S
H168 C152 0.961 . S
H169 C153 0.931 . S
H170 C158 0.930 . S
H171 C159 0.956 . S
H172 C159 0.961 . S
H173 C159 0.961 . S
H174 C160 0.958 . S
H175 C160 0.961 . S
H176 C160 0.960 . S
C177 C178 1.391 . S
C177 C179 1.394 . S
C177 H193 0.931 . S
C178 C177 1.391 . S
C178 C182 1.376 . S
C179 C177 1.394 . S
C179 C180 1.369 . S
C179 C183 1.531 . S
C180 C179 1.369 . S
C180 C181 1.410 . S
C180 C188 1.503 . S
C181 C180 1.410 . S
C181 C182 1.392 . S
C181 C184 1.511 . S
C182 C178 1.376 . S
C182 C181 1.392 . S
C182 H194 0.929 1_565 S
C183 C179 1.531 . S
C183 H195 0.960 . S
C183 H196 0.962 1_455 S
C183 H197 0.962 . S
C184 C181 1.511 . S
C184 H198 0.961 1_565 S
C184 H199 0.961 . S
C184 H200 0.961 . S
C185 C186 1.370 . S
C185 C187 1.363 . S
C185 H201 0.931 . S
C186 C185 1.370 . S
C186 C190 1.408 . S
C187 C185 1.363 . S
C187 C188 1.370 . S
C187 C191 1.524 . S
C188 C180 1.503 . S
C188 C187 1.370 . S
C188 C189 1.403 . S
C189 C188 1.403 . S
C189 C190 1.404 . S
C189 C192 1.539 . S
C190 C186 1.408 . S
C190 C189 1.404 . S
C190 H202 0.930 . S
C191 C187 1.524 . S
C191 H203 0.956 . S
C191 H204 0.961 . S
C191 H205 0.961 . S
C192 C189 1.539 . S
C192 H206 0.958 . S
C192 H207 0.961 . S
C192 H208 0.960 . S
H193 C177 0.931 . S
H194 C182 0.929 1_545 S
H195 C183 0.960 . S
H196 C183 0.962 1_655 S
H197 C183 0.962 . S
H198 C184 0.961 1_545 S
H199 C184 0.961 . S
H200 C184 0.961 . S
H201 C185 0.931 . S
H202 C190 0.930 . S
H203 C191 0.956 . S
H204 C191 0.961 . S
H205 C191 0.961 . S
H206 C192 0.958 . S
H207 C192 0.961 . S
H208 C192 0.960 . S
C209 C210 1.391 . S
C209 C211 1.394 . S
C209 H225 0.931 . S
C210 C209 1.391 . S
C210 C214 1.376 . S
C211 C209 1.394 . S
C211 C212 1.369 . S
C211 C215 1.531 . S
C212 C211 1.369 . S
C212 C213 1.410 . S
C212 C220 1.503 . S
C213 C212 1.410 . S
C213 C214 1.392 . S
C213 C216 1.511 . S
C214 C210 1.376 . S
C214 C213 1.392 . S
C214 H226 0.929 . S
C215 C211 1.531 . S
C215 H227 0.960 . S
C215 H228 0.962 . S
C215 H229 0.960 . S
C216 C213 1.511 . S
C216 H230 0.961 . S
C216 H231 0.961 . S
C216 H232 0.961 . S
C217 C218 1.370 . S
C217 C219 1.363 . S
C217 H233 0.931 1_545 S
C218 C217 1.370 . S
C218 C222 1.408 . S
C219 C217 1.363 . S
C219 C220 1.370 . S
C219 C223 1.524 1_545 S
C220 C212 1.503 . S
C220 C219 1.370 . S
C220 C221 1.403 . S
C221 C220 1.403 . S
C221 C222 1.404 . S
C221 C224 1.539 . S
C222 C218 1.408 . S
C222 C221 1.404 . S
C222 H234 0.930 . S
C223 C219 1.524 1_565 S
C223 H235 0.956 . S
C223 H236 0.961 . S
C223 H237 0.961 . S
C224 C221 1.539 . S
C224 H238 0.958 . S
C224 H239 0.961 . S
C224 H240 0.960 . S
H225 C209 0.931 . S
H226 C214 0.929 . S
H227 C215 0.960 . S
H228 C215 0.962 . S
H229 C215 0.960 . S
H230 C216 0.961 . S
H231 C216 0.961 . S
H232 C216 0.961 . S
H233 C217 0.931 1_565 S
H234 C222 0.930 . S
H235 C223 0.956 . S
H236 C223 0.961 . S
H237 C223 0.961 . S
H238 C224 0.958 . S
H239 C224 0.961 . S
H240 C224 0.960 . S
C241 C242 1.391 . S
C241 C243 1.394 . S
C241 H257 0.931 . S
C242 C241 1.391 . S
C242 C246 1.376 . S
C243 C241 1.394 . S
C243 C244 1.369 . S
C243 C247 1.531 . S
C244 C243 1.369 . S
C244 C245 1.410 . S
C244 C252 1.503 . S
C245 C244 1.410 . S
C245 C246 1.392 . S
C245 C248 1.511 . S
C246 C242 1.376 . S
C246 C245 1.392 . S
C246 H258 0.929 . S
C247 C243 1.531 . S
C247 H259 0.960 . S
C247 H260 0.962 . S
C247 H261 0.960 . S
C248 C245 1.511 . S
C248 H262 0.961 . S
C248 H263 0.961 . S
C248 H264 0.961 . S
C249 C250 1.370 . S
C249 C251 1.363 . S
C249 H265 0.931 . S
C250 C249 1.370 . S
C250 C254 1.408 . S
C251 C249 1.363 . S
C251 C252 1.370 . S
C251 C255 1.524 . S
C252 C244 1.503 . S
C252 C251 1.370 . S
C252 C253 1.403 . S
C253 C252 1.403 . S
C253 C254 1.404 . S
C253 C256 1.539 . S
C254 C250 1.408 . S
C254 C253 1.404 . S
C254 H266 0.930 . S
C255 C251 1.524 . S
C255 H267 0.956 . S
C255 H268 0.961 . S
C255 H269 0.961 . S
C256 C253 1.539 . S
C256 H270 0.958 . S
C256 H271 0.961 . S
C256 H272 0.960 . S
H257 C241 0.931 . S
H258 C246 0.929 . S
H259 C247 0.960 . S
H260 C247 0.962 . S
H261 C247 0.960 . S
H262 C248 0.961 . S
H263 C248 0.961 . S
H264 C248 0.961 . S
H265 C249 0.931 . S
H266 C254 0.930 . S
H267 C255 0.956 . S
H268 C255 0.961 . S
H269 C255 0.961 . S
H270 C256 0.958 . S
H271 C256 0.961 . S
H272 C256 0.960 . S
C273 C274 1.391 . S
C273 C275 1.394 . S
C273 H289 0.931 . S
C274 C273 1.391 . S
C274 C278 1.376 . S
C275 C273 1.394 . S
C275 C276 1.369 . S
C275 C279 1.531 1_545 S
C276 C275 1.369 . S
C276 C277 1.410 . S
C276 C284 1.503 . S
C277 C276 1.410 . S
C277 C278 1.392 . S
C277 C280 1.511 . S
C278 C274 1.376 . S
C278 C277 1.392 . S
C278 H290 0.912 1_655 S
C279 C275 1.531 1_565 S
C279 H291 0.960 1_565 S
C279 H292 0.962 . S
C279 H293 0.960 . S
C280 C277 1.511 . S
C280 H294 0.961 . S
C280 H295 0.961 . S
C280 H296 0.961 . S
C281 C282 1.370 . S
C281 C283 1.363 . S
C281 H297 0.931 1_545 S
C282 C281 1.370 . S
C282 C286 1.408 . S
C283 C281 1.363 . S
C283 C284 1.370 . S
C283 C287 1.524 1_545 S
C284 C276 1.503 . S
C284 C283 1.370 . S
C284 C285 1.403 . S
C285 C284 1.403 . S
C285 C286 1.404 . S
C285 C288 1.539 . S
C286 C282 1.408 . S
C286 C285 1.404 . S
C286 H298 0.930 . S
C287 C283 1.524 1_565 S
C287 H299 0.956 . S
C287 H300 0.961 . S
C287 H301 0.961 . S
C288 C285 1.539 . S
C288 H302 0.958 . S
C288 H303 0.961 . S
C288 H304 0.960 . S
H289 C273 0.931 . S
H290 C278 0.912 1_455 S
H291 C279 0.960 1_545 S
H292 C279 0.962 . S
H293 C279 0.960 . S
H294 C280 0.961 . S
H295 C280 0.961 . S
H296 C280 0.961 . S
H297 C281 0.931 1_565 S
H298 C286 0.930 . S
H299 C287 0.956 . S
H300 C287 0.961 . S
H301 C287 0.961 . S
H302 C288 0.958 . S
H303 C288 0.961 . S
H304 C288 0.960 . S
C305 C306 1.391 . S
C305 C307 1.394 . S
C305 H321 0.931 1_565 S
C306 C305 1.391 . S
C306 C310 1.375 1_655 S
C307 C305 1.394 . S
C307 C308 1.369 1_554 S
C307 C311 1.531 1_554 S
C308 C307 1.369 1_556 S
C308 C309 1.410 1_556 S
C308 C316 1.503 . S
C309 C308 1.410 1_554 S
C309 C310 1.392 1_655 S
C309 C312 1.511 . S
C310 C306 1.375 1_455 S
C310 C309 1.392 1_455 S
C310 H322 0.929 . S
C311 C307 1.531 1_556 S
C311 H323 0.960 . S
C311 H324 0.962 . S
C311 H325 0.960 . S
C312 C309 1.511 . S
C312 H326 0.961 . S
C312 H327 0.961 1_554 S
C312 H328 0.961 1_654 S
C313 C314 1.370 . S
C313 C315 1.363 . S
C313 H329 0.931 . S
C314 C313 1.370 . S
C314 C318 1.408 . S
C315 C313 1.363 . S
C315 C316 1.370 . S
C315 C319 1.524 1_556 S
C316 C308 1.503 . S
C316 C315 1.370 . S
C316 C317 1.403 . S
C317 C316 1.403 . S
C317 C318 1.404 . S
C317 C320 1.539 . S
C318 C314 1.408 . S
C318 C317 1.404 . S
C318 H330 0.930 . S
C319 C315 1.524 1_554 S
C319 H331 0.956 . S
C319 H332 0.961 . S
C319 H333 0.961 . S
C320 C317 1.539 . S
C320 H334 0.958 . S
C320 H335 0.961 . S
C320 H336 0.960 . S
H321 C305 0.931 1_545 S
H322 C310 0.929 . S
H323 C311 0.960 . S
H324 C311 0.962 . S
H325 C311 0.960 . S
H326 C312 0.961 . S
H327 C312 0.961 1_556 S
H328 C312 0.961 1_456 S
H329 C313 0.931 . S
H330 C318 0.930 . S
H331 C319 0.956 . S
H332 C319 0.961 . S
H333 C319 0.961 . S
H334 C320 0.958 . S
H335 C320 0.961 . S
H336 C320 0.960 . S
C337 C338 1.391 . S
C337 C339 1.394 . S
C337 H353 0.931 1_455 S
C338 C337 1.391 . S
C338 C342 1.376 . S
C339 C337 1.394 . S
C339 C340 1.369 . S
C339 C343 1.531 1_455 S
C340 C339 1.369 . S
C340 C341 1.410 . S
C340 C348 1.503 . S
C341 C340 1.410 . S
C341 C342 1.392 . S
C341 C344 1.511 . S
C342 C338 1.376 . S
C342 C341 1.392 . S
C342 H354 0.929 . S
C343 C339 1.531 1_655 S
C343 H355 0.960 1_655 S
C343 H356 0.962 . S
C343 H357 0.960 . S
C344 C341 1.511 . S
C344 H358 0.961 . S
C344 H359 0.961 . S
C344 H360 0.961 . S
C345 C346 1.370 . S
C345 C347 1.363 . S
C345 H361 0.931 . S
C346 C345 1.370 . S
C346 C350 1.408 . S
C347 C345 1.363 . S
C347 C348 1.370 . S
C347 C351 1.524 1_455 S
C348 C340 1.503 . S
C348 C347 1.370 . S
C348 C349 1.403 . S
C349 C348 1.403 . S
C349 C350 1.404 . S
C349 C352 1.539 . S
C350 C346 1.408 . S
C350 C349 1.404 . S
C350 H362 0.930 . S
C351 C347 1.524 1_655 S
C351 H363 0.956 . S
C351 H364 0.961 1_655 S
C351 H365 0.961 . S
C352 C349 1.539 . S
C352 H366 0.958 . S
C352 H367 0.961 . S
C352 H368 0.960 . S
H353 C337 0.931 1_655 S
H354 C342 0.929 . S
H355 C343 0.960 1_455 S
H356 C343 0.962 . S
H357 C343 0.960 . S
H358 C344 0.961 . S
H359 C344 0.961 . S
H360 C344 0.961 . S
H361 C345 0.931 . S
H362 C350 0.930 . S
H363 C351 0.956 . S
H364 C351 0.961 1_455 S
H365 C351 0.961 . S
H366 C352 0.958 . S
H367 C352 0.961 . S
H368 C352 0.960 . S
C369 C370 1.391 1_565 S
C369 C371 1.394 . S
C369 H385 0.931 . S
C370 C369 1.391 1_545 S
C370 C374 1.376 . S
C371 C369 1.394 . S
C371 C372 1.369 1_565 S
C371 C375 1.531 . S
C372 C371 1.369 1_545 S
C372 C373 1.410 . S
C372 C380 1.503 . S
C373 C372 1.410 . S
C373 C374 1.392 . S
C373 C376 1.511 . S
C374 C370 1.376 . S
C374 C373 1.392 . S
C374 H386 0.929 . S
C375 C371 1.531 . S
C375 H387 0.960 . S
C375 H388 0.962 . S
C375 H389 0.960 . S
C376 C373 1.511 . S
C376 H390 0.961 . S
C376 H391 0.961 . S
C376 H392 0.961 . S
C377 C378 1.370 . S
C377 C379 1.363 . S
C377 H393 0.931 . S
C378 C377 1.370 . S
C378 C382 1.408 . S
C379 C377 1.363 . S
C379 C380 1.370 . S
C379 C383 1.524 . S
C380 C372 1.503 . S
C380 C379 1.370 . S
C380 C381 1.403 . S
C381 C380 1.403 . S
C381 C382 1.404 . S
C381 C384 1.539 . S
C382 C378 1.408 . S
C382 C381 1.404 . S
C382 H394 0.930 . S
C383 C379 1.524 . S
C383 H395 0.956 . S
C383 H396 0.961 . S
C383 H397 0.961 . S
C384 C381 1.539 . S
C384 H398 0.958 1_545 S
C384 H399 0.961 . S
C384 H400 0.960 . S
H385 C369 0.931 . S
H386 C374 0.929 . S
H387 C375 0.960 . S
H388 C375 0.962 . S
H389 C375 0.960 . S
H390 C376 0.961 . S
H391 C376 0.961 . S
H392 C376 0.961 . S
H393 C377 0.931 . S
H394 C382 0.930 . S
H395 C383 0.956 . S
H396 C383 0.961 . S
H397 C383 0.961 . S
H398 C384 0.958 1_565 S
H399 C384 0.961 . S
H400 C384 0.960 . S
C401 C402 1.391 . S
C401 C403 1.394 . S
C401 H417 0.931 . S
C402 C401 1.391 . S
C402 C406 1.376 . S
C403 C401 1.394 . S
C403 C404 1.369 1_554 S
C403 C407 1.531 . S
C404 C403 1.369 1_556 S
C404 C405 1.410 . S
C404 C412 1.503 . S
C405 C404 1.410 . S
C405 C406 1.392 1_556 S
C405 C408 1.511 . S
C406 C402 1.376 . S
C406 C405 1.392 1_554 S
C406 H418 0.929 . S
C407 C403 1.531 . S
C407 H419 0.960 . S
C407 H420 0.962 . S
C407 H421 0.960 . S
C408 C405 1.511 . S
C408 H422 0.961 . S
C408 H423 0.961 . S
C408 H424 0.961 . S
C409 C410 1.370 . S
C409 C411 1.363 . S
C409 H425 0.931 . S
C410 C409 1.370 . S
C410 C414 1.408 . S
C411 C409 1.363 . S
C411 C412 1.370 . S
C411 C415 1.524 1_556 S
C412 C404 1.503 . S
C412 C411 1.370 . S
C412 C413 1.403 . S
C413 C412 1.403 . S
C413 C414 1.404 . S
C413 C416 1.539 . S
C414 C410 1.408 . S
C414 C413 1.404 . S
C414 H426 0.930 . S
C415 C411 1.524 1_554 S
C415 H427 0.956 . S
C415 H428 0.961 . S
C415 H429 0.961 . S
C416 C413 1.539 . S
C416 H430 0.958 . S
C416 H431 0.961 . S
C416 H432 0.960 . S
H417 C401 0.931 . S
H418 C406 0.929 . S
H419 C407 0.960 . S
H420 C407 0.962 . S
H421 C407 0.960 . S
H422 C408 0.961 . S
H423 C408 0.961 . S
H424 C408 0.961 . S
H425 C409 0.931 . S
H426 C414 0.930 . S
H427 C415 0.956 . S
H428 C415 0.961 . S
H429 C415 0.961 . S
H430 C416 0.958 . S
H431 C416 0.961 . S
H432 C416 0.960 . S
C433 C434 1.391 . S
C433 C435 1.394 . S
C433 H449 0.931 . S
C434 C433 1.391 . S
C434 C438 1.376 . S
C435 C433 1.394 . S
C435 C436 1.369 . S
C435 C439 1.531 1_455 S
C436 C435 1.369 . S
C436 C437 1.410 . S
C436 C444 1.503 . S
C437 C436 1.410 . S
C437 C438 1.392 . S
C437 C440 1.511 . S
C438 C434 1.376 . S
C438 C437 1.392 . S
C438 H450 0.929 . S
C439 C435 1.531 1_655 S
C439 H451 0.960 1_655 S
C439 H452 0.962 . S
C439 H453 0.960 . S
C440 C437 1.511 . S
C440 H454 0.961 . S
C440 H455 0.961 . S
C440 H456 0.961 . S
C441 C442 1.370 . S
C441 C443 1.363 . S
C441 H457 0.931 . S
C442 C441 1.370 . S
C442 C446 1.408 . S
C443 C441 1.363 . S
C443 C444 1.370 . S
C443 C447 1.524 . S
C444 C436 1.503 . S
C444 C443 1.370 . S
C444 C445 1.403 . S
C445 C444 1.403 . S
C445 C446 1.404 . S
C445 C448 1.539 . S
C446 C442 1.408 . S
C446 C445 1.404 . S
C446 H458 0.930 . S
C447 C443 1.524 . S
C447 H459 0.956 1_455 S
C447 H460 0.961 . S
C447 H461 0.961 . S
C448 C445 1.539 . S
C448 H462 0.958 . S
C448 H463 0.961 . S
C448 H464 0.960 . S
H449 C433 0.931 . S
H450 C438 0.929 . S
H451 C439 0.960 1_455 S
H452 C439 0.962 . S
H453 C439 0.960 . S
H454 C440 0.961 . S
H455 C440 0.961 . S
H456 C440 0.961 . S
H457 C441 0.931 . S
H458 C446 0.930 . S
H459 C447 0.956 1_655 S
H460 C447 0.961 . S
H461 C447 0.961 . S
H462 C448 0.958 . S
H463 C448 0.961 . S
H464 C448 0.960 . S
C90 C47 1.278 . S
C82 C11 1.238 . S
C114 C25 1.382 . S
C122 C65 1.410 . S
C146 C41 1.352 1_655 S
C154 C78 1.426 . S
C178 C7 1.335 1_565 S
C186 C45 1.335 . S
C218 C56 1.461 . S
C210 C21 1.460 . S
C242 C36 1.369 . S
C250 C69 1.474 . S
C282 C58 1.337 . S
C274 C39 1.336 . S
C306 C8 1.296 1_665 S
C314 C71 1.399 . S
C346 C52 1.517 . S
C338 C22 1.410 1_565 S
C378 C60 1.368 . S
C370 C35 1.381 . S
C410 C73 1.352 . S
C402 C13 1.253 . S
C434 C27 1.409 . S
C442 C43 1.470 . S
