# Generated by pormake.
# Topology iac, (4,6)-cn, num edge types: 1
# Building blocks:
#     Node 0, Type 0, BuildingBlock: QUQFOY_clean_sbu_3, # of connection points: 4
#     Node 1, Type 0, BuildingBlock: QUQFOY_clean_sbu_3, # of connection points: 4
#     Node 2, Type 0, BuildingBlock: QUQFOY_clean_sbu_3, # of connection points: 4
#     Node 3, Type 0, BuildingBlock: QUQFOY_clean_sbu_3, # of connection points: 4
#     Node 4, Type 0, BuildingBlock: QUQFOY_clean_sbu_3, # of connection points: 4
#     Node 5, Type 0, BuildingBlock: QUQFOY_clean_sbu_3, # of connection points: 4
#     Node 6, Type 0, BuildingBlock: QUQFOY_clean_sbu_3, # of connection points: 4
#     Node 7, Type 0, BuildingBlock: QUQFOY_clean_sbu_3, # of connection points: 4
#     Node 8, Type 0, BuildingBlock: QUQFOY_clean_sbu_3, # of connection points: 4
#     Node 9, Type 0, BuildingBlock: QUQFOY_clean_sbu_3, # of connection points: 4
#     Node 10, Type 0, BuildingBlock: QUQFOY_clean_sbu_3, # of connection points: 4
#     Node 11, Type 0, BuildingBlock: QUQFOY_clean_sbu_3, # of connection points: 4
#     Node 12, Type 0, BuildingBlock: QUQFOY_clean_sbu_3, # of connection points: 4
#     Node 13, Type 0, BuildingBlock: QUQFOY_clean_sbu_3, # of connection points: 4
#     Node 14, Type 0, BuildingBlock: QUQFOY_clean_sbu_3, # of connection points: 4
#     Node 15, Type 0, BuildingBlock: QUQFOY_clean_sbu_3, # of connection points: 4
#     Node 16, Type 0, BuildingBlock: QUQFOY_clean_sbu_3, # of connection points: 4
#     Node 17, Type 0, BuildingBlock: QUQFOY_clean_sbu_3, # of connection points: 4
#     Node 18, Type 0, BuildingBlock: QUQFOY_clean_sbu_3, # of connection points: 4
#     Node 19, Type 0, BuildingBlock: QUQFOY_clean_sbu_3, # of connection points: 4
#     Node 20, Type 0, BuildingBlock: QUQFOY_clean_sbu_3, # of connection points: 4
#     Node 21, Type 0, BuildingBlock: QUQFOY_clean_sbu_3, # of connection points: 4
#     Node 22, Type 0, BuildingBlock: QUQFOY_clean_sbu_3, # of connection points: 4
#     Node 23, Type 0, BuildingBlock: QUQFOY_clean_sbu_3, # of connection points: 4
#     Node 24, Type 1, BuildingBlock: JUFBIX_clean_sbu_0, # of connection points: 6
#     Node 25, Type 1, BuildingBlock: JUFBIX_clean_sbu_0, # of connection points: 6
#     Node 26, Type 1, BuildingBlock: JUFBIX_clean_sbu_0, # of connection points: 6
#     Node 27, Type 1, BuildingBlock: JUFBIX_clean_sbu_0, # of connection points: 6
#     Node 28, Type 1, BuildingBlock: JUFBIX_clean_sbu_0, # of connection points: 6
#     Node 29, Type 1, BuildingBlock: JUFBIX_clean_sbu_0, # of connection points: 6
#     Node 30, Type 1, BuildingBlock: JUFBIX_clean_sbu_0, # of connection points: 6
#     Node 31, Type 1, BuildingBlock: JUFBIX_clean_sbu_0, # of connection points: 6
#     Node 32, Type 1, BuildingBlock: JUFBIX_clean_sbu_0, # of connection points: 6
#     Node 33, Type 1, BuildingBlock: JUFBIX_clean_sbu_0, # of connection points: 6
#     Node 34, Type 1, BuildingBlock: JUFBIX_clean_sbu_0, # of connection points: 6
#     Node 35, Type 1, BuildingBlock: JUFBIX_clean_sbu_0, # of connection points: 6
#     Node 36, Type 1, BuildingBlock: JUFBIX_clean_sbu_0, # of connection points: 6
#     Node 37, Type 1, BuildingBlock: JUFBIX_clean_sbu_0, # of connection points: 6
#     Node 38, Type 1, BuildingBlock: JUFBIX_clean_sbu_0, # of connection points: 6
#     Node 39, Type 1, BuildingBlock: JUFBIX_clean_sbu_0, # of connection points: 6
#     Edge 40, Type (0, 1), BuildingBlock: UVAHIK_clean_linker_0, # of connection points: 2
#     Edge 41, Type (0, 1), BuildingBlock: UVAHIK_clean_linker_0, # of connection points: 2
#     Edge 42, Type (0, 1), BuildingBlock: UVAHIK_clean_linker_0, # of connection points: 2
#     Edge 43, Type (0, 1), BuildingBlock: UVAHIK_clean_linker_0, # of connection points: 2
#     Edge 44, Type (0, 1), BuildingBlock: UVAHIK_clean_linker_0, # of connection points: 2
#     Edge 45, Type (0, 1), BuildingBlock: UVAHIK_clean_linker_0, # of connection points: 2
#     Edge 46, Type (0, 1), BuildingBlock: UVAHIK_clean_linker_0, # of connection points: 2
#     Edge 47, Type (0, 1), BuildingBlock: UVAHIK_clean_linker_0, # of connection points: 2
#     Edge 48, Type (0, 1), BuildingBlock: UVAHIK_clean_linker_0, # of connection points: 2
#     Edge 49, Type (0, 1), BuildingBlock: UVAHIK_clean_linker_0, # of connection points: 2
#     Edge 50, Type (0, 1), BuildingBlock: UVAHIK_clean_linker_0, # of connection points: 2
#     Edge 51, Type (0, 1), BuildingBlock: UVAHIK_clean_linker_0, # of connection points: 2
#     Edge 52, Type (0, 1), BuildingBlock: UVAHIK_clean_linker_0, # of connection points: 2
#     Edge 53, Type (0, 1), BuildingBlock: UVAHIK_clean_linker_0, # of connection points: 2
#     Edge 54, Type (0, 1), BuildingBlock: UVAHIK_clean_linker_0, # of connection points: 2
#     Edge 55, Type (0, 1), BuildingBlock: UVAHIK_clean_linker_0, # of connection points: 2
#     Edge 56, Type (0, 1), BuildingBlock: UVAHIK_clean_linker_0, # of connection points: 2
#     Edge 57, Type (0, 1), BuildingBlock: UVAHIK_clean_linker_0, # of connection points: 2
#     Edge 58, Type (0, 1), BuildingBlock: UVAHIK_clean_linker_0, # of connection points: 2
#     Edge 59, Type (0, 1), BuildingBlock: UVAHIK_clean_linker_0, # of connection points: 2
#     Edge 60, Type (0, 1), BuildingBlock: UVAHIK_clean_linker_0, # of connection points: 2
#     Edge 61, Type (0, 1), BuildingBlock: UVAHIK_clean_linker_0, # of connection points: 2
#     Edge 62, Type (0, 1), BuildingBlock: UVAHIK_clean_linker_0, # of connection points: 2
#     Edge 63, Type (0, 1), BuildingBlock: UVAHIK_clean_linker_0, # of connection points: 2
#     Edge 64, Type (0, 1), BuildingBlock: UVAHIK_clean_linker_0, # of connection points: 2
#     Edge 65, Type (0, 1), BuildingBlock: UVAHIK_clean_linker_0, # of connection points: 2
#     Edge 66, Type (0, 1), BuildingBlock: UVAHIK_clean_linker_0, # of connection points: 2
#     Edge 67, Type (0, 1), BuildingBlock: UVAHIK_clean_linker_0, # of connection points: 2
#     Edge 68, Type (0, 1), BuildingBlock: UVAHIK_clean_linker_0, # of connection points: 2
#     Edge 69, Type (0, 1), BuildingBlock: UVAHIK_clean_linker_0, # of connection points: 2
#     Edge 70, Type (0, 1), BuildingBlock: UVAHIK_clean_linker_0, # of connection points: 2
#     Edge 71, Type (0, 1), BuildingBlock: UVAHIK_clean_linker_0, # of connection points: 2
#     Edge 72, Type (0, 1), BuildingBlock: UVAHIK_clean_linker_0, # of connection points: 2
#     Edge 73, Type (0, 1), BuildingBlock: UVAHIK_clean_linker_0, # of connection points: 2
#     Edge 74, Type (0, 1), BuildingBlock: UVAHIK_clean_linker_0, # of connection points: 2
#     Edge 75, Type (0, 1), BuildingBlock: UVAHIK_clean_linker_0, # of connection points: 2
#     Edge 76, Type (0, 1), BuildingBlock: UVAHIK_clean_linker_0, # of connection points: 2
#     Edge 77, Type (0, 1), BuildingBlock: UVAHIK_clean_linker_0, # of connection points: 2
#     Edge 78, Type (0, 1), BuildingBlock: UVAHIK_clean_linker_0, # of connection points: 2
#     Edge 79, Type (0, 1), BuildingBlock: UVAHIK_clean_linker_0, # of connection points: 2
#     Edge 80, Type (0, 1), BuildingBlock: UVAHIK_clean_linker_0, # of connection points: 2
#     Edge 81, Type (0, 1), BuildingBlock: UVAHIK_clean_linker_0, # of connection points: 2
#     Edge 82, Type (0, 1), BuildingBlock: UVAHIK_clean_linker_0, # of connection points: 2
#     Edge 83, Type (0, 1), BuildingBlock: UVAHIK_clean_linker_0, # of connection points: 2
#     Edge 84, Type (0, 1), BuildingBlock: UVAHIK_clean_linker_0, # of connection points: 2
#     Edge 85, Type (0, 1), BuildingBlock: UVAHIK_clean_linker_0, # of connection points: 2
#     Edge 86, Type (0, 1), BuildingBlock: UVAHIK_clean_linker_0, # of connection points: 2
#     Edge 87, Type (0, 1), BuildingBlock: UVAHIK_clean_linker_0, # of connection points: 2
#     Edge 88, Type (0, 1), BuildingBlock: UVAHIK_clean_linker_0, # of connection points: 2
#     Edge 89, Type (0, 1), BuildingBlock: UVAHIK_clean_linker_0, # of connection points: 2
#     Edge 90, Type (0, 1), BuildingBlock: UVAHIK_clean_linker_0, # of connection points: 2
#     Edge 91, Type (0, 1), BuildingBlock: UVAHIK_clean_linker_0, # of connection points: 2
#     Edge 92, Type (0, 1), BuildingBlock: UVAHIK_clean_linker_0, # of connection points: 2
#     Edge 93, Type (0, 1), BuildingBlock: UVAHIK_clean_linker_0, # of connection points: 2
#     Edge 94, Type (0, 1), BuildingBlock: UVAHIK_clean_linker_0, # of connection points: 2
#     Edge 95, Type (0, 1), BuildingBlock: UVAHIK_clean_linker_0, # of connection points: 2
#     Edge 96, Type (0, 1), BuildingBlock: UVAHIK_clean_linker_0, # of connection points: 2
#     Edge 97, Type (0, 1), BuildingBlock: UVAHIK_clean_linker_0, # of connection points: 2
#     Edge 98, Type (0, 1), BuildingBlock: UVAHIK_clean_linker_0, # of connection points: 2
#     Edge 99, Type (0, 1), BuildingBlock: UVAHIK_clean_linker_0, # of connection points: 2
#     Edge 100, Type (0, 1), BuildingBlock: UVAHIK_clean_linker_0, # of connection points: 2
#     Edge 101, Type (0, 1), BuildingBlock: UVAHIK_clean_linker_0, # of connection points: 2
#     Edge 102, Type (0, 1), BuildingBlock: UVAHIK_clean_linker_0, # of connection points: 2
#     Edge 103, Type (0, 1), BuildingBlock: UVAHIK_clean_linker_0, # of connection points: 2
#     Edge 104, Type (0, 1), BuildingBlock: UVAHIK_clean_linker_0, # of connection points: 2
#     Edge 105, Type (0, 1), BuildingBlock: UVAHIK_clean_linker_0, # of connection points: 2
#     Edge 106, Type (0, 1), BuildingBlock: UVAHIK_clean_linker_0, # of connection points: 2
#     Edge 107, Type (0, 1), BuildingBlock: UVAHIK_clean_linker_0, # of connection points: 2
#     Edge 108, Type (0, 1), BuildingBlock: UVAHIK_clean_linker_0, # of connection points: 2
#     Edge 109, Type (0, 1), BuildingBlock: UVAHIK_clean_linker_0, # of connection points: 2
#     Edge 110, Type (0, 1), BuildingBlock: UVAHIK_clean_linker_0, # of connection points: 2
#     Edge 111, Type (0, 1), BuildingBlock: UVAHIK_clean_linker_0, # of connection points: 2
#     Edge 112, Type (0, 1), BuildingBlock: UVAHIK_clean_linker_0, # of connection points: 2
#     Edge 113, Type (0, 1), BuildingBlock: UVAHIK_clean_linker_0, # of connection points: 2
#     Edge 114, Type (0, 1), BuildingBlock: UVAHIK_clean_linker_0, # of connection points: 2
#     Edge 115, Type (0, 1), BuildingBlock: UVAHIK_clean_linker_0, # of connection points: 2
#     Edge 116, Type (0, 1), BuildingBlock: UVAHIK_clean_linker_0, # of connection points: 2
#     Edge 117, Type (0, 1), BuildingBlock: UVAHIK_clean_linker_0, # of connection points: 2
#     Edge 118, Type (0, 1), BuildingBlock: UVAHIK_clean_linker_0, # of connection points: 2
#     Edge 119, Type (0, 1), BuildingBlock: UVAHIK_clean_linker_0, # of connection points: 2
#     Edge 120, Type (0, 1), BuildingBlock: UVAHIK_clean_linker_0, # of connection points: 2
#     Edge 121, Type (0, 1), BuildingBlock: UVAHIK_clean_linker_0, # of connection points: 2
#     Edge 122, Type (0, 1), BuildingBlock: UVAHIK_clean_linker_0, # of connection points: 2
#     Edge 123, Type (0, 1), BuildingBlock: UVAHIK_clean_linker_0, # of connection points: 2
#     Edge 124, Type (0, 1), BuildingBlock: UVAHIK_clean_linker_0, # of connection points: 2
#     Edge 125, Type (0, 1), BuildingBlock: UVAHIK_clean_linker_0, # of connection points: 2
#     Edge 126, Type (0, 1), BuildingBlock: UVAHIK_clean_linker_0, # of connection points: 2
#     Edge 127, Type (0, 1), BuildingBlock: UVAHIK_clean_linker_0, # of connection points: 2
#     Edge 128, Type (0, 1), BuildingBlock: UVAHIK_clean_linker_0, # of connection points: 2
#     Edge 129, Type (0, 1), BuildingBlock: UVAHIK_clean_linker_0, # of connection points: 2
#     Edge 130, Type (0, 1), BuildingBlock: UVAHIK_clean_linker_0, # of connection points: 2
#     Edge 131, Type (0, 1), BuildingBlock: UVAHIK_clean_linker_0, # of connection points: 2
#     Edge 132, Type (0, 1), BuildingBlock: UVAHIK_clean_linker_0, # of connection points: 2
#     Edge 133, Type (0, 1), BuildingBlock: UVAHIK_clean_linker_0, # of connection points: 2
#     Edge 134, Type (0, 1), BuildingBlock: UVAHIK_clean_linker_0, # of connection points: 2
#     Edge 135, Type (0, 1), BuildingBlock: UVAHIK_clean_linker_0, # of connection points: 2
# Relax obj value: 0.213
# Max RMSD: 0.227
# Mean RMSD: 0.110
data_MOF--net-iac--node1-QUQFOY_clean_sbu_3--node2-JUFBIX_clean_sbu_0--edge1-UVAHIK_clean_linker_0
_symmetry_space_group_name_H-M    P1
_symmetry_Int_Tables_number       1
_symmetry_cell_setting            triclinic
loop_
_symmetry_equiv_pos_as_xyz
'x, y, z'
_cell_length_a     70.126787
_cell_length_b     72.456045
_cell_length_c     71.028428
_cell_angle_alpha  90.315991
_cell_angle_beta   88.569605
_cell_angle_gamma 89.620712
loop_
_atom_site_label
_atom_site_type_symbol
_atom_site_fract_x
_atom_site_fract_y
_atom_site_fract_z
_atom_type_partial_charge
C0 C 0.99246 0.26562 0.1719 0.0
O1 O 0.00335 0.25574 0.18177 0.0
Cd2 Cd 0.03468 0.24629 0.17233 0.0
O3 O -0.00176 0.27191 0.15602 0.0
Cd4 Cd 0.02817 0.27222 0.13599 0.0
C5 C 0.02487 0.22563 0.12952 0.0
O6 O 0.04928 0.27407 0.16218 0.0
O7 O 0.06362 0.26831 0.13567 0.0
O8 O 0.02388 0.30538 0.13296 0.0
C9 C 0.06486 0.2718 0.15313 0.0
O10 O 0.0299 0.22455 0.14658 0.0
C11 C 0.02394 0.30592 0.11512 0.0
O12 O 0.02234 0.24133 0.12185 0.0
O13 O 0.02566 0.29054 0.1065 0.0
C14 C 0.02713 0.74844 0.3543 0.0
O15 O 0.04112 0.75777 0.34799 0.0
Cd16 Cd 0.06396 0.77046 0.36857 0.0
O17 O 0.02613 0.74387 0.3716 0.0
Cd18 Cd 0.04558 0.74554 0.40028 0.0
C19 C 0.03314 0.78976 0.4026 0.0
O20 O 0.07704 0.74571 0.38603 0.0
O21 O 0.07497 0.75721 0.4141 0.0
O22 O 0.04305 0.71263 0.40269 0.0
C23 C 0.08545 0.75193 0.40027 0.0
O24 O 0.04536 0.7916 0.38915 0.0
C25 C 0.03801 0.71234 0.41996 0.0
O26 O 0.02928 0.77389 0.40922 0.0
O27 O 0.03587 0.72783 0.42827 0.0
C28 C 0.49133 0.76838 0.67172 0.0
O29 O 0.5027 0.75844 0.68101 0.0
Cd30 Cd 0.53383 0.7493 0.67075 0.0
O31 O 0.49633 0.77477 0.65561 0.0
Cd32 Cd 0.5252 0.77524 0.63395 0.0
C33 C 0.5231 0.7282 0.62831 0.0
O34 O 0.54638 0.77764 0.65978 0.0
O35 O 0.56112 0.77348 0.63325 0.0
O36 O 0.51926 0.80815 0.62994 0.0
C37 C 0.56211 0.77634 0.65085 0.0
O38 O 0.52859 0.72733 0.64525 0.0
C39 C 0.51835 0.80801 0.61213 0.0
O40 O 0.52007 0.74381 0.62061 0.0
O41 O 0.52051 0.79241 0.60402 0.0
C42 C 0.50229 0.28817 0.88932 0.0
O43 O 0.51641 0.29852 0.88555 0.0
Cd44 Cd 0.54854 0.29332 0.8944 0.0
O45 O 0.50437 0.27356 0.89904 0.0
Cd46 Cd 0.53151 0.25852 0.91489 0.0
C47 C 0.541 0.29568 0.94172 0.0
O48 O 0.55346 0.26129 0.88849 0.0
O49 O 0.56652 0.25397 0.91448 0.0
O50 O 0.51944 0.2274 0.90934 0.0
C51 C 0.56819 0.25597 0.8968 0.0
O52 O 0.55021 0.30206 0.92756 0.0
C53 C 0.52111 0.22234 0.92632 0.0
O54 O 0.53133 0.28097 0.9404 0.0
O55 O 0.52655 0.23445 0.93796 0.0
C56 C 0.1202 0.99274 0.3077 0.0
O57 O 0.10973 0.00048 0.29568 0.0
Cd58 Cd 0.11981 0.00924 0.26479 0.0
O59 O 0.1376 0.98883 0.30371 0.0
Cd60 Cd 0.15965 0.99222 0.27606 0.0
C61 C 0.15459 0.03874 0.27792 0.0
O62 O 0.13678 0.98245 0.25343 0.0
O63 O 0.16245 0.99377 0.24122 0.0
O64 O 0.17504 0.9639 0.28618 0.0
C65 C 0.14676 0.98562 0.23878 0.0
O66 O 0.13879 0.03709 0.26965 0.0
C67 C 0.19195 0.96957 0.28319 0.0
O68 O 0.16413 0.02459 0.2826 0.0
O69 O 0.19383 0.98597 0.27727 0.0
C70 C 0.24303 0.92608 0.52528 0.0
O71 O 0.22848 0.93189 0.5168 0.0
Cd72 Cd 0.20208 0.91186 0.51236 0.0
O73 O 0.24297 0.91016 0.53281 0.0
Cd74 Cd 0.22069 0.88412 0.53801 0.0
C75 C 0.22555 0.87491 0.49209 0.0
O76 O 0.19168 0.90156 0.5433 0.0
O77 O 0.18783 0.8726 0.53685 0.0
O78 O 0.23118 0.88282 0.57015 0.0
C79 C 0.18085 0.88766 0.54311 0.0
O80 O 0.21483 0.88889 0.48957 0.0
C81 C 0.23404 0.86551 0.57015 0.0
O82 O 0.23025 0.8703 0.50855 0.0
O83 O 0.23119 0.85687 0.55489 0.0
C84 C 0.42873 0.02658 0.75987 0.0
O85 O 0.43169 0.01782 0.74454 0.0
Cd86 Cd 0.41245 0.02268 0.71757 0.0
O87 O 0.41442 0.03736 0.76202 0.0
Cd88 Cd 0.38695 0.04626 0.74326 0.0
C89 C 0.37211 0.00322 0.73405 0.0
O90 O 0.4062 0.05551 0.71666 0.0
O91 O 0.37609 0.05392 0.71142 0.0
O92 O 0.38446 0.07544 0.76007 0.0
C93 C 0.39245 0.05954 0.70623 0.0
O94 O 0.38475 0.00243 0.72092 0.0
C95 C 0.36652 0.07456 0.76276 0.0
O96 O 0.37121 0.01697 0.74519 0.0
O97 O 0.35842 0.05988 0.7575 0.0
C98 C 0.29015 0.10751 0.01306 0.0
O99 O 0.27968 0.09843 0.02449 0.0
Cd100 Cd 0.24922 0.10795 0.03643 0.0
O101 O 0.2846 0.12308 0.00678 0.0
Cd102 Cd 0.2558 0.14361 0.00945 0.0
C103 C 0.26101 0.14953 0.05686 0.0
O104 O 0.23423 0.11809 0.00868 0.0
O105 O 0.22032 0.14409 0.01451 0.0
O106 O 0.2579 0.14936 0.9757 0.0
C107 C 0.21881 0.1269 0.01137 0.0
O108 O 0.25559 0.13288 0.05859 0.0
C109 C 0.25952 0.16675 0.97688 0.0
O110 O 0.26297 0.15678 0.04061 0.0
O111 O 0.25964 0.17365 0.99336 0.0
C112 C 0.75972 0.42213 0.01459 0.0
O113 O 0.74686 0.43075 0.00586 0.0
Cd114 Cd 0.71358 0.42511 0.00933 0.0
O115 O 0.75534 0.40968 0.02654 0.0
Cd116 Cd 0.72535 0.39584 0.03915 0.0
C117 C 0.71497 0.38024 0.99546 0.0
O118 O 0.70926 0.42509 0.04309 0.0
O119 O 0.69154 0.40134 0.04807 0.0
O120 O 0.73937 0.3911 0.06986 0.0
C121 C 0.69365 0.41866 0.04933 0.0
O122 O 0.70994 0.39654 0.99113 0.0
C123 C 0.73466 0.37422 0.07081 0.0
O124 O 0.72128 0.37686 0.01167 0.0
O125 O 0.7263 0.36743 0.05677 0.0
C126 C 0.90288 0.51068 0.26877 0.0
O127 O 0.9078 0.50431 0.25267 0.0
Cd128 Cd 0.89271 0.51371 0.22433 0.0
O129 O 0.88978 0.52289 0.27043 0.0
Cd130 Cd 0.86853 0.54008 0.24959 0.0
C131 C 0.84715 0.50146 0.23595 0.0
O132 O 0.89135 0.54681 0.22487 0.0
O133 O 0.86194 0.54958 0.21713 0.0
O134 O 0.87179 0.56824 0.26778 0.0
C135 C 0.87937 0.5525 0.21316 0.0
O136 O 0.86133 0.49888 0.22466 0.0
C137 C 0.85397 0.57127 0.26942 0.0
O138 O 0.84695 0.51472 0.2477 0.0
O139 O 0.843 0.55912 0.26278 0.0
C140 C 0.79022 0.60835 0.51776 0.0
O141 O 0.77954 0.59879 0.52857 0.0
Cd142 Cd 0.74867 0.60796 0.53998 0.0
O143 O 0.78476 0.62413 0.51199 0.0
Cd144 Cd 0.75612 0.64478 0.51444 0.0
C145 C 0.75941 0.64891 0.56233 0.0
O146 O 0.73465 0.61927 0.51214 0.0
O147 O 0.72043 0.64518 0.51751 0.0
O148 O 0.76096 0.65166 0.48113 0.0
C149 C 0.7191 0.62798 0.51433 0.0
O150 O 0.75402 0.63218 0.56329 0.0
C151 C 0.76245 0.669 0.48303 0.0
O152 O 0.762 0.65668 0.5464 0.0
O153 O 0.76089 0.67538 0.49971 0.0
C154 C 0.6132 0.4868 0.81144 0.0
O155 O 0.60252 0.49436 0.79948 0.0
Cd156 Cd 0.61233 0.5023 0.76804 0.0
O157 O 0.63054 0.48291 0.80721 0.0
Cd158 Cd 0.65253 0.48569 0.77961 0.0
C159 C 0.6478 0.53231 0.77801 0.0
O160 O 0.62968 0.47553 0.75698 0.0
O161 O 0.65615 0.48526 0.74491 0.0
O162 O 0.66836 0.45794 0.79054 0.0
C163 C 0.64 0.47803 0.74239 0.0
O164 O 0.6316 0.53033 0.77058 0.0
C165 C 0.68511 0.46444 0.78903 0.0
O166 O 0.65725 0.51838 0.78344 0.0
O167 O 0.68666 0.48088 0.78314 0.0
C168 C 0.98676 0.77528 0.86313 0.0
O169 O -0.00071 0.78418 0.85378 0.0
Cd170 Cd 0.03066 0.78988 0.86439 0.0
O171 O 0.9907 0.76835 0.87908 0.0
Cd172 Cd 0.01887 0.7656 0.90016 0.0
C173 C 0.01996 0.81222 0.90662 0.0
O174 O 0.04249 0.76074 0.8747 0.0
O175 O 0.05394 0.76619 0.902 0.0
O176 O 0.00734 0.7341 0.90395 0.0
C177 C 0.057 0.76179 0.88489 0.0
O178 O 0.02643 0.81251 0.88971 0.0
C179 C 0.01 0.73289 0.92149 0.0
O180 O 0.01502 0.797 0.91426 0.0
O181 O 0.01636 0.74721 0.92958 0.0
C182 C 0.99019 0.27285 0.66604 0.0
O183 O 0.00585 0.27168 0.67455 0.0
Cd184 Cd 0.03613 0.27667 0.65963 0.0
O185 O 0.98962 0.27828 0.64901 0.0
Cd186 Cd 0.01132 0.29042 0.62386 0.0
C187 C 0.03182 0.24827 0.62054 0.0
O188 O 0.03205 0.30569 0.64471 0.0
O189 O 0.04385 0.30266 0.61675 0.0
O190 O 0.98846 0.3148 0.61817 0.0
C191 C 0.04579 0.30874 0.63337 0.0
O192 O 0.03958 0.2516 0.63625 0.0
C193 C 0.98761 0.312 0.60055 0.0
O194 O 0.02033 0.25979 0.61339 0.0
O195 O -0.00228 0.29886 0.5937 0.0
C196 C 0.49209 0.27908 0.3614 0.0
O197 O 0.50537 0.28773 0.35287 0.0
Cd198 Cd 0.53624 0.29174 0.3653 0.0
O199 O 0.49497 0.27155 0.3773 0.0
Cd200 Cd 0.52165 0.26692 0.39969 0.0
C201 C 0.52401 0.31334 0.40752 0.0
O202 O 0.54599 0.26181 0.37533 0.0
O203 O 0.55673 0.26595 0.40315 0.0
O204 O 0.51075 0.23517 0.40074 0.0
C205 C 0.56013 0.26177 0.38602 0.0
O206 O 0.53128 0.31379 0.39093 0.0
C207 C 0.51056 0.23333 0.41848 0.0
O208 O 0.51833 0.29811 0.41462 0.0
O209 O 0.51497 0.24752 0.42803 0.0
C210 C 0.48569 0.76141 0.16971 0.0
O211 O 0.49989 0.75625 0.17915 0.0
Cd212 Cd 0.53223 0.76235 0.17008 0.0
O213 O 0.48784 0.77155 0.15523 0.0
Cd214 Cd 0.51333 0.78771 0.13736 0.0
C215 C 0.53249 0.74672 0.1239 0.0
O216 O 0.53265 0.79446 0.16354 0.0
O217 O 0.54697 0.79795 0.13666 0.0
O218 O 0.49694 0.81719 0.13711 0.0
C219 C 0.54757 0.79916 0.15448 0.0
O220 O 0.53776 0.74478 0.14084 0.0
C221 C 0.49437 0.81735 0.1195 0.0
O222 O 0.52281 0.76075 0.11903 0.0
O223 O 0.50055 0.80355 0.11 0.0
C224 C 0.91561 0.04379 0.76885 0.0
O225 O 0.92512 0.03852 0.75431 0.0
Cd226 Cd 0.91152 0.03589 0.72371 0.0
O227 O 0.89806 0.04815 0.76778 0.0
Cd228 Cd 0.8727 0.0501 0.74459 0.0
C229 C 0.87731 0.00438 0.73557 0.0
O230 O 0.89241 0.06311 0.71987 0.0
O231 O 0.86445 0.0548 0.71156 0.0
O232 O 0.86086 0.07625 0.76257 0.0
C233 C 0.88025 0.06213 0.70703 0.0
O234 O 0.89228 0.00785 0.72572 0.0
C235 C 0.84355 0.07119 0.76298 0.0
O236 O 0.86844 0.01708 0.74467 0.0
O237 O 0.83974 0.05603 0.75489 0.0
C238 C 0.81215 0.11662 0.5168 0.0
O239 O 0.80263 0.10642 0.52803 0.0
Cd240 Cd 0.7688 0.11122 0.53357 0.0
O241 O 0.80408 0.12982 0.50833 0.0
Cd242 Cd 0.77345 0.1452 0.5045 0.0
C243 C 0.76734 0.15548 0.55098 0.0
O244 O 0.75544 0.1169 0.5033 0.0
O245 O 0.73907 0.14217 0.50117 0.0
O246 O 0.78392 0.14882 0.47214 0.0
C247 C 0.73931 0.12469 0.50167 0.0
O248 O 0.76512 0.13829 0.55387 0.0
C249 C 0.78337 0.16633 0.47234 0.0
O250 O 0.7714 0.16149 0.53456 0.0
O251 O 0.7775 0.17414 0.48748 0.0
C252 C 0.59774 0.00428 0.29825 0.0
O253 O 0.58752 0.01161 0.28577 0.0
Cd254 Cd 0.59998 0.01791 0.25466 0.0
O255 O 0.615 -0.00017 0.29458 0.0
Cd256 Cd 0.63884 -0.00035 0.26893 0.0
C257 C 0.63725 0.04599 0.2655 0.0
O258 O 0.61686 0.99021 0.24561 0.0
O259 O 0.6442 -0.00138 0.23439 0.0
O260 O 0.64954 0.97099 0.28232 0.0
C261 C 0.62775 0.99224 0.23134 0.0
O262 O 0.62152 0.04448 0.25703 0.0
C263 C 0.66693 0.97561 0.28319 0.0
O264 O 0.64548 0.03197 0.27236 0.0
O265 O 0.67143 0.99137 0.27678 0.0
C266 C 0.78762 0.92558 0.01131 0.0
O267 O 0.77484 0.93412 0.00241 0.0
Cd268 Cd 0.74363 0.92249 -0.00177 0.0
O269 O 0.78403 0.91003 0.01895 0.0
Cd270 Cd 0.75658 0.88829 0.02343 0.0
C271 C 0.75481 0.8809 0.97617 0.0
O272 O 0.73307 0.91272 0.02877 0.0
O273 O 0.72148 0.88565 0.0245 0.0
O274 O 0.77014 0.88571 0.05462 0.0
C275 C 0.71853 0.90248 0.02856 0.0
O276 O 0.74809 0.89726 0.97573 0.0
C277 C 0.76655 0.86875 0.05702 0.0
O278 O 0.76006 0.87385 0.99167 0.0
O279 O 0.75881 0.86038 0.04343 0.0
C280 C 0.30328 0.60886 0.01184 0.0
O281 O 0.29139 0.5996 0.02167 0.0
Cd282 Cd 0.26008 0.61079 0.03084 0.0
O283 O 0.29928 0.62514 0.0065 0.0
Cd284 Cd 0.27436 0.64903 0.00687 0.0
C285 C 0.26952 0.65138 0.05483 0.0
O286 O 0.25094 0.62621 0.00304 0.0
O287 O 0.23965 0.65384 0.00279 0.0
O288 O 0.28712 0.6556 0.97591 0.0
C289 C 0.23644 0.63663 0.00277 0.0
O290 O 0.26342 0.63484 0.05487 0.0
C291 C 0.2894 0.67274 0.97874 0.0
O292 O 0.27518 0.65909 0.03962 0.0
O293 O 0.28426 0.67911 0.9948 0.0
C294 C 0.10648 0.52104 0.8067 0.0
O295 O 0.09546 0.52907 0.79535 0.0
Cd296 Cd 0.10024 0.52778 0.76181 0.0
O297 O 0.1208 0.51171 0.80061 0.0
Cd298 Cd 0.13707 0.50226 0.77117 0.0
C299 C 0.14468 0.54683 0.75847 0.0
O300 O 0.1079 0.4959 0.75558 0.0
O301 O 0.13333 0.49257 0.73823 0.0
O302 O 0.14462 0.4737 0.78693 0.0
C303 C 0.1153 0.49156 0.73973 0.0
O304 O 0.1269 0.54866 0.7557 0.0
C305 C 0.16252 0.4749 0.78413 0.0
O306 O 0.15151 0.53175 0.76451 0.0
O307 O 0.16856 0.48875 0.77492 0.0
C308 C 0.28799 0.4268 0.50469 0.0
O309 O 0.27548 0.43527 0.49537 0.0
Cd310 Cd 0.24434 0.4236 0.49034 0.0
O311 O 0.28422 0.41123 0.5122 0.0
Cd312 Cd 0.2565 0.38958 0.51527 0.0
C313 C 0.25568 0.38234 0.46801 0.0
O314 O 0.23252 0.41382 0.52056 0.0
O315 O 0.22161 0.38663 0.51526 0.0
O316 O 0.26853 0.38566 0.54697 0.0
C317 C 0.21824 0.40326 0.51992 0.0
O318 O 0.24882 0.39863 0.46744 0.0
C319 C 0.26497 0.36857 0.54828 0.0
O320 O 0.26082 0.37543 0.4836 0.0
O321 O 0.25806 0.36085 0.53389 0.0
C322 C 0.41216 0.54705 0.27 0.0
O323 O 0.42207 0.54279 0.25539 0.0
Cd324 Cd 0.40959 0.54163 0.22424 0.0
O325 O 0.39452 0.55109 0.26882 0.0
Cd326 Cd 0.36973 0.55353 0.24496 0.0
C327 C 0.37614 0.5085 0.23304 0.0
O328 O 0.38989 0.5686 0.22171 0.0
O329 O 0.36246 0.56033 0.21201 0.0
O330 O 0.35612 0.57757 0.26507 0.0
C331 C 0.37823 0.56815 0.20841 0.0
O332 O 0.3912 0.51304 0.22385 0.0
C333 C 0.339 0.57219 0.26384 0.0
O334 O 0.36664 0.52034 0.24276 0.0
O335 O 0.33613 0.55794 0.25383 0.0
Co336 Co 0.00338 0.02657 0.00581 0.0
C337 C 0.00071 0.04978 0.03756 0.0
Co338 Co 0.00934 0.01292 0.03264 0.0
C339 C 0.99108 0.03313 0.96786 0.0
C340 C 0.00417 0.05672 0.98023 0.0
N341 N -0.00101 0.03918 0.98384 0.0
N342 N 0.99119 0.04621 0.95436 0.0
C343 C -0.00065 0.06109 0.96219 0.0
H344 H 0.98584 0.01924 0.96605 0.0
H345 H 0.01129 0.06569 0.99 0.0
C346 C 0.01215 0.9896 0.00107 0.0
N347 N 0.01415 0.0004 0.05456 0.0
C348 C 0.02784 0.00399 0.06703 0.0
C349 C 0.00623 0.98445 0.06039 0.0
N350 N 0.02901 0.99077 0.08026 0.0
C351 C 0.0153 0.97851 0.07622 0.0
C352 C 0.97132 0.01131 0.02247 0.0
O353 O 0.0081 0.00414 0.992 0.0
O354 O 0.01362 0.99063 0.01884 0.0
O355 O 0.98305 0.00701 0.0351 0.0
O356 O 0.97719 0.02034 0.00819 0.0
O357 O 0.00511 0.03526 0.04649 0.0
H358 H -0.00484 0.97717 0.05312 0.0
H359 H 0.03708 0.01586 0.06611 0.0
O360 O -0.00126 0.04876 0.01986 0.0
O361 O 0.02948 0.03281 0.00343 0.0
O362 O 0.03564 0.01905 0.02993 0.0
C363 C 0.04133 0.02844 0.01587 0.0
H364 H 0.00168 0.07426 0.95544 0.0
H365 H 0.01265 0.9657 0.08357 0.0
Co366 Co 0.2881 0.77234 0.28989 0.0
C367 C 0.27071 0.73873 0.28585 0.0
Co368 Co 0.26719 0.77226 0.26724 0.0
C369 C 0.30467 0.78753 0.32215 0.0
C370 C 0.31617 0.76055 0.31689 0.0
N371 N 0.30457 0.7735 0.30969 0.0
N372 N 0.31542 0.78385 0.33712 0.0
C373 C 0.32272 0.76683 0.33395 0.0
H374 H 0.29549 0.79954 0.32114 0.0
H375 H 0.31862 0.74699 0.31083 0.0
C376 C 0.28422 0.80603 0.2717 0.0
N377 N 0.25068 0.77117 0.24744 0.0
C378 C 0.25 0.75713 0.23499 0.0
C379 C 0.23883 0.78417 0.24073 0.0
N380 N 0.23845 0.76084 0.22063 0.0
C381 C 0.2314 0.7779 0.22406 0.0
C382 C 0.25088 0.78194 0.3012 0.0
O383 O 0.29326 0.79746 0.28425 0.0
O384 O 0.27199 0.79741 0.2622 0.0
O385 O 0.24687 0.77919 0.28405 0.0
O386 O 0.26793 0.77976 0.30632 0.0
O387 O 0.26237 0.74697 0.27261 0.0
H388 H 0.23645 0.79763 0.24705 0.0
H389 H 0.25885 0.74486 0.23577 0.0
O390 O 0.28277 0.74745 0.29545 0.0
O391 O 0.30805 0.76472 0.27356 0.0
O392 O 0.28775 0.7654 0.25048 0.0
C393 C 0.30447 0.76247 0.2563 0.0
H394 H 0.33119 0.75907 0.34372 0.0
H395 H 0.2221 0.78549 0.21489 0.0
Co396 Co 0.4803 0.01402 0.50164 0.0
C397 C 0.49518 0.04873 0.49294 0.0
Co398 Co 0.50788 0.01962 0.51454 0.0
C399 C 0.441 0.00407 0.49964 0.0
C400 C 0.45234 0.01219 0.47271 0.0
N401 N 0.45712 0.00974 0.4908 0.0
N402 N 0.42628 0.00294 0.48784 0.0
C403 C 0.43337 0.00795 0.47083 0.0
H404 H 0.44012 0.00078 0.51448 0.0
H405 H 0.46196 0.017 0.46168 0.0
C406 C 0.49322 0.98503 0.5235 0.0
N407 N 0.53098 0.02395 0.52546 0.0
C408 C 0.54617 0.03251 0.51759 0.0
C409 C 0.53649 0.01914 0.54284 0.0
N410 N 0.56095 0.03321 0.52933 0.0
C411 C 0.55499 0.02474 0.54522 0.0
C412 C 0.47704 0.03134 0.53623 0.0
O413 O 0.47982 0.98981 0.51275 0.0
O414 O 0.50667 -0.00374 0.52637 0.0
O415 O 0.49514 0.03071 0.53543 0.0
O416 O 0.46765 0.02413 0.52309 0.0
O417 O 0.50893 0.04302 0.5027 0.0
H418 H 0.5276 0.01204 0.55311 0.0
H419 H 0.54647 0.0379 0.50341 0.0
O420 O 0.48095 0.03821 0.49063 0.0
O421 O 0.49307 0.00416 0.48023 0.0
O422 O 0.5206 0.00869 0.49339 0.0
C423 C 0.51113 0.00295 0.47954 0.0
H424 H 0.42533 0.00889 0.45805 0.0
H425 H 0.56329 0.02302 0.55774 0.0
Co426 Co 0.28151 0.28212 0.7693 0.0
C427 C 0.26628 0.29208 0.73508 0.0
Co428 Co 0.25134 0.27424 0.76675 0.0
C429 C 0.31672 0.29233 0.78622 0.0
C430 C 0.32013 0.28776 0.75652 0.0
N431 N 0.30704 0.28765 0.77077 0.0
N432 N 0.33529 0.2954 0.78216 0.0
C433 C 0.33752 0.29261 0.76348 0.0
H434 H 0.31029 0.29346 0.8002 0.0
H435 H 0.31729 0.28427 0.74204 0.0
C436 C 0.26673 0.26401 0.80081 0.0
N437 N 0.22554 0.26899 0.76522 0.0
C438 C 0.21495 0.2688 0.74962 0.0
C439 C 0.21273 0.26787 0.77967 0.0
N440 N 0.1961 0.26818 0.75373 0.0
C441 C 0.19465 0.26739 0.77265 0.0
C442 C 0.27548 0.24704 0.75432 0.0
O443 O 0.28166 0.27158 0.79401 0.0
O444 O 0.25178 0.26372 0.79111 0.0
O445 O 0.25786 0.25097 0.75635 0.0
O446 O 0.28789 0.25887 0.75885 0.0
O447 O 0.25138 0.28473 0.74211 0.0
H448 H 0.21615 0.26866 0.79441 0.0
H449 H 0.22078 0.27063 0.73552 0.0
O450 O 0.28121 0.29259 0.74477 0.0
O451 O 0.27502 0.30521 0.7798 0.0
O452 O 0.24494 0.2976 0.77747 0.0
C453 C 0.25749 0.30916 0.78233 0.0
H454 H 0.35088 0.29341 0.75557 0.0
H455 H 0.18145 0.26754 0.78088 0.0
Co456 Co -0.00349 0.00208 0.51065 0.0
C457 C 0.98476 0.02108 0.54224 0.0
Co458 Co 0.01704 0.02345 0.51869 0.0
C459 C 0.98567 0.96796 0.49463 0.0
C460 C 0.96081 0.98294 0.50397 0.0
N461 N 0.98006 0.98378 0.50314 0.0
N462 N 0.97086 0.9574 0.48983 0.0
C463 C 0.95509 0.96657 0.49582 0.0
H464 H 0.00044 0.96419 0.49185 0.0
H465 H 0.95156 0.99367 0.50977 0.0
C466 C 0.02867 0.00471 0.48685 0.0
N467 N 0.03371 0.04145 0.52617 0.0
C468 C 0.02907 0.0583 0.53301 0.0
C469 C 0.05292 0.04065 0.52644 0.0
N470 N 0.04458 0.06808 0.53765 0.0
C471 C 0.05966 0.05705 0.53346 0.0
C472 C 0.02411 0.98943 0.53453 0.0
O473 O 0.01321 -0.00381 0.49008 0.0
O474 O 0.03324 0.01785 0.49767 0.0
O475 O 0.03011 0.00588 0.53319 0.0
O476 O 0.00931 0.98477 0.5258 0.0
O477 O 0.00067 0.02907 0.53967 0.0
H478 H 0.06144 0.02882 0.52202 0.0
H479 H 0.01453 0.06331 0.53445 0.0
O480 O 0.98001 0.00826 0.53109 0.0
O481 O 0.98371 0.01945 0.49571 0.0
O482 O 0.00367 0.04094 0.50426 0.0
C483 C 0.98899 0.0362 0.49532 0.0
H484 H 0.94058 0.96208 0.49385 0.0
H485 H 0.07445 0.06042 0.53569 0.0
Co486 Co 0.27629 0.78615 0.78457 0.0
C487 C 0.24295 0.76795 0.7949 0.0
Co488 Co 0.2753 0.75744 0.77431 0.0
C489 C 0.28101 0.82478 0.78162 0.0
C490 C 0.27062 0.81774 0.80919 0.0
N491 N 0.2763 0.81032 0.79252 0.0
N492 N 0.27835 0.84104 0.79062 0.0
C493 C 0.27192 0.83669 0.80809 0.0
H494 H 0.28634 0.82329 0.76726 0.0
H495 H 0.26553 0.80992 0.82121 0.0
C496 C 0.30858 0.77593 0.76398 0.0
N497 N 0.27517 0.73321 0.76568 0.0
C498 C 0.26382 0.7193 0.77151 0.0
C499 C 0.28528 0.72614 0.75085 0.0
N500 N 0.26639 0.70397 0.76087 0.0
C501 C 0.27999 0.70815 0.74795 0.0
C502 C 0.26095 0.78212 0.74913 0.0
O503 O 0.30071 0.78939 0.77272 0.0
O504 O 0.30002 0.76059 0.76346 0.0
O505 O 0.26453 0.76512 0.75147 0.0
O506 O 0.26453 0.79348 0.7622 0.0
O507 O 0.25033 0.75475 0.78533 0.0
H508 H 0.29523 0.73376 0.74207 0.0
H509 H 0.25346 0.72047 0.783 0.0
O510 O 0.25206 0.78294 0.7964 0.0
O511 O 0.28806 0.77869 0.80674 0.0
O512 O 0.28633 0.74985 0.79723 0.0
C513 C 0.29112 0.76165 0.80956 0.0
H514 H 0.26807 0.84645 0.81914 0.0
H515 H 0.28491 0.69922 0.73654 0.0
Co516 Co 0.50474 0.00198 0.99194 0.0
C517 C 0.53782 0.99388 0.01081 0.0
Co518 Co 0.50609 0.01539 0.01971 0.0
C519 C 0.50039 -0.00122 0.95229 0.0
C520 C 0.50915 0.97315 0.96422 0.0
N521 N 0.50414 0.99064 0.96876 0.0
N522 N 0.50312 0.9872 0.93752 0.0
C523 C 0.50849 0.97097 0.94499 0.0
H524 H 0.49593 0.01305 0.95122 0.0
H525 H 0.51356 0.96283 0.9742 0.0
C526 C 0.47308 0.02353 0.00082 0.0
N527 N 0.50721 0.0267 0.0429 0.0
C528 C 0.5137 0.01893 0.05869 0.0
C529 C 0.50451 0.04469 0.04728 0.0
N530 N 0.51556 0.03137 0.07265 0.0
C531 C 0.50985 0.04764 0.06559 0.0
C532 C 0.52078 0.03678 0.99083 0.0
O533 O 0.48025 0.01277 0.98829 0.0
O534 O 0.48211 0.02642 0.01583 0.0
O535 O 0.51805 0.03602 0.00853 0.0
O536 O 0.51627 0.02304 0.98076 0.0
O537 O 0.53041 0.00426 0.02347 0.0
H538 H 0.49999 0.05513 0.03749 0.0
H539 H 0.51833 0.00468 0.05948 0.0
O540 O 0.52901 0.99129 -0.00434 0.0
O541 O 0.49322 0.98117 0.00312 0.0
O542 O 0.49384 0.99466 0.03083 0.0
C543 C 0.48954 0.98088 0.02069 0.0
H544 H 0.51228 0.95859 0.93712 0.0
H545 H 0.51027 0.06079 0.07287 0.0
Co546 Co 0.27377 0.25276 0.26793 0.0
C547 C 0.31141 0.26477 0.27079 0.0
Co548 Co 0.28001 0.27892 0.25337 0.0
C549 C 0.25236 0.22276 0.28499 0.0
C550 C 0.28249 0.2186 0.28656 0.0
N551 N 0.26925 0.23076 0.28068 0.0
N552 N 0.25458 0.20615 0.29319 0.0
C553 C 0.27354 0.20356 0.29428 0.0
H554 H 0.23865 0.22872 0.28179 0.0
H555 H 0.29774 0.22005 0.28469 0.0
C556 C 0.24245 0.26737 0.25029 0.0
N557 N 0.28463 0.30038 0.24032 0.0
C558 C 0.29471 0.31523 0.2456 0.0
C559 C 0.27948 0.30391 0.22251 0.0
N560 N 0.29623 0.32776 0.23169 0.0
C561 C 0.28667 0.32072 0.21713 0.0
C562 C 0.28501 0.24757 0.23073 0.0
O563 O 0.24797 0.25373 0.25996 0.0
O564 O 0.25419 0.2801 0.24634 0.0
O565 O 0.28602 0.26507 0.23111 0.0
O566 O 0.28037 0.2391 0.24576 0.0
O567 O 0.30595 0.27787 0.2604 0.0
H568 H 0.27129 0.29469 0.21387 0.0
H569 H 0.30132 0.31654 0.25915 0.0
O570 O 0.29958 0.25236 0.27553 0.0
O571 O 0.26718 0.26642 0.29008 0.0
O572 O 0.27391 0.29251 0.27587 0.0
C573 C 0.26866 0.28391 0.29069 0.0
H574 H 0.28048 0.19118 0.29924 0.0
H575 H 0.28501 0.32726 0.2036 0.0
Co576 Co 0.49874 0.50682 0.01847 0.0
C577 C 0.48334 0.53437 0.04154 0.0
Co578 Co 0.51099 0.53431 0.01339 0.0
C579 C 0.49976 0.4683 0.02555 0.0
C580 C 0.47114 0.47858 0.02793 0.0
N581 N 0.48923 0.48379 0.02403 0.0
N582 N 0.48909 0.45354 0.03026 0.0
C583 C 0.47099 0.45992 0.03168 0.0
H584 H 0.51501 0.46785 0.02281 0.0
H585 H 0.4589 0.48775 0.02801 0.0
C586 C 0.52618 0.5068 0.99002 0.0
N587 N 0.52077 0.55724 0.00781 0.0
C588 C 0.52565 0.57064 0.01995 0.0
C589 C 0.52411 0.56437 0.99056 0.0
N590 N 0.53183 0.58593 0.01098 0.0
C591 C 0.53088 0.58204 0.99246 0.0
C592 C 0.53078 0.51498 0.0395 0.0
O593 O 0.51468 0.49645 -0.00095 0.0
O594 O 0.52673 0.52384 0.99414 0.0
O595 O 0.53052 0.53027 0.03086 0.0
O596 O 0.51813 0.50306 0.03609 0.0
O597 O 0.49511 0.54471 0.03284 0.0
H598 H 0.52156 0.55725 0.97744 0.0
H599 H 0.52412 0.56937 0.03509 0.0
O600 O 0.48281 0.51729 0.03754 0.0
O601 O 0.4794 0.51075 0.00105 0.0
O602 O 0.49128 0.53824 -0.00403 0.0
C603 C 0.47867 0.52618 0.99273 0.0
H604 H 0.45855 0.45174 0.03516 0.0
H605 H 0.5347 0.5913 0.98109 0.0
Co606 Co 0.77487 0.28079 0.27825 0.0
C607 C 0.7422 0.26235 0.29003 0.0
Co608 Co 0.77239 0.25301 0.26598 0.0
C609 C 0.77795 0.31964 0.27763 0.0
C610 C 0.77155 0.31039 0.30561 0.0
N611 N 0.77587 0.3043 0.28803 0.0
N612 N 0.77453 0.33512 0.28776 0.0
C613 C 0.77075 0.32942 0.30549 0.0
H614 H 0.78127 0.31933 0.26268 0.0
H615 H 0.76815 0.30157 0.31745 0.0
C616 C 0.80515 0.27169 0.25444 0.0
N617 N 0.77088 0.22967 0.25565 0.0
C618 C 0.76186 0.21487 0.26293 0.0
C619 C 0.77603 0.22464 0.23791 0.0
N620 N 0.76079 0.20098 0.25032 0.0
C621 C 0.76976 0.20702 0.23456 0.0
C622 C 0.75624 0.27973 0.24416 0.0
O623 O 0.79818 0.28457 0.26473 0.0
O624 O 0.79627 0.25652 0.25332 0.0
O625 O 0.75975 0.26257 0.24485 0.0
O626 O 0.76123 0.28998 0.25765 0.0
O627 O 0.74832 0.2498 0.27883 0.0
H628 H 0.78288 0.23361 0.22771 0.0
H629 H 0.75495 0.21477 0.27673 0.0
O630 O 0.75177 0.27701 0.2918 0.0
O631 O 0.7884 0.27153 0.2986 0.0
O632 O 0.78517 0.24351 0.28721 0.0
C633 C 0.79122 0.25427 0.29995 0.0
H634 H 0.76674 0.33825 0.31729 0.0
H635 H 0.77091 0.19956 0.22133 0.0
Co636 Co 0.00271 0.50022 0.4934 0.0
C637 C 0.03306 0.48773 0.51453 0.0
Co638 Co 0.00106 0.50863 0.52319 0.0
C639 C 0.99151 0.48892 0.45644 0.0
C640 C 0.02167 0.49264 0.45806 0.0
N641 N 0.00532 0.49343 0.46844 0.0
N642 N -0.00143 0.48544 0.43891 0.0
C643 C 0.01757 0.48771 0.43991 0.0
H644 H 0.97654 0.48844 0.46047 0.0
H645 H 0.03563 0.49591 0.46325 0.0
C646 C 0.97082 0.52124 0.50207 0.0
N647 N -0.00127 0.51557 0.54814 0.0
C648 C 0.00492 0.50622 0.56317 0.0
C649 C 0.99185 0.53168 0.55519 0.0
N650 N 0.00248 0.51593 0.57931 0.0
C651 C -0.00583 0.53196 0.57435 0.0
C652 C 0.01959 0.53396 0.50092 0.0
O653 O 0.97961 0.51318 0.48846 0.0
O654 O 0.97762 0.52042 0.51843 0.0
O655 O 0.01393 0.5309 0.51771 0.0
O656 O 0.01659 0.52197 0.48825 0.0
O657 O 0.02487 0.49681 0.52779 0.0
H658 H 0.98618 0.54278 0.54684 0.0
H659 H 0.0121 0.49297 0.56212 0.0
O660 O 0.02557 0.48733 0.49847 0.0
O661 O 0.98878 0.47862 0.4986 0.0
O662 O 0.98794 0.4863 0.52854 0.0
C663 C 0.98372 0.47507 0.51548 0.0
H664 H 0.0277 0.48669 0.42819 0.0
H665 H 0.99061 0.54331 0.58379 0.0
Co666 Co 0.79476 0.79194 0.28105 0.0
C667 C 0.77815 0.80082 0.24694 0.0
Co668 Co 0.7647 0.78354 0.27933 0.0
C669 C 0.83486 0.78687 0.28538 0.0
C670 C 0.82817 0.81441 0.27687 0.0
N671 N 0.82014 0.79814 0.28151 0.0
N672 N 0.85181 0.79537 0.28322 0.0
C673 C 0.84767 0.81276 0.27797 0.0
H674 H 0.83315 0.77265 0.28965 0.0
H675 H 0.82037 0.82654 0.27256 0.0
C676 C 0.78151 0.77408 0.31311 0.0
N677 N 0.73906 0.77735 0.2789 0.0
C678 C 0.72786 0.77608 0.26378 0.0
C679 C 0.72712 0.77485 0.29385 0.0
N680 N 0.70941 0.77318 0.26867 0.0
C681 C 0.70895 0.77224 0.28762 0.0
C682 C 0.78907 0.75643 0.26698 0.0
O683 O 0.79607 0.78216 0.30612 0.0
O684 O 0.76643 0.77334 0.30365 0.0
O685 O 0.77147 0.76034 0.26902 0.0
O686 O 0.8014 0.76847 0.27107 0.0
O687 O 0.76351 0.79363 0.2547 0.0
H688 H 0.73113 0.77559 0.30843 0.0
H689 H 0.73295 0.7782 0.24948 0.0
O690 O 0.79347 0.8016 0.25607 0.0
O691 O 0.78789 0.81518 0.29112 0.0
O692 O 0.75795 0.8068 0.28997 0.0
C693 C 0.77035 0.81876 0.29416 0.0
H694 H 0.858 0.82337 0.27467 0.0
H695 H 0.69632 0.77036 0.29645 0.0
Co696 Co 0.78549 0.27177 0.79484 0.0
C697 C 0.77196 0.23876 0.78131 0.0
Co698 Co 0.77142 0.27435 0.76756 0.0
C699 C 0.78994 0.27974 0.83345 0.0
C700 C 0.80774 0.25685 0.82527 0.0
N701 N 0.79591 0.26979 0.81835 0.0
N702 N 0.79712 0.27337 0.84952 0.0
C703 C 0.8084 0.25897 0.84461 0.0
H704 H 0.77932 0.29064 0.83291 0.0
H705 H 0.81428 0.24581 0.81703 0.0
C706 C 0.78441 0.30753 0.78169 0.0
N707 N 0.76063 0.27647 0.74425 0.0
C708 C 0.7624 0.26427 0.72993 0.0
C709 C 0.74947 0.29012 0.7377 0.0
N710 N 0.75278 0.26968 0.71472 0.0
C711 C 0.74469 0.28602 0.71944 0.0
C712 C 0.74616 0.27804 0.79719 0.0
O713 O 0.79041 0.29745 0.79489 0.0
O714 O 0.77557 0.30012 0.76824 0.0
O715 O 0.74713 0.27775 0.77934 0.0
O716 O 0.7613 0.2761 0.80636 0.0
O717 O 0.76729 0.24839 0.76724 0.0
H718 H 0.74504 0.30222 0.7457 0.0
H719 H 0.77081 0.25172 0.7306 0.0
O720 O 0.78031 0.24634 0.79493 0.0
O721 O 0.80955 0.26721 0.78301 0.0
O722 O 0.79569 0.27094 0.75586 0.0
C723 C 0.81061 0.26779 0.76513 0.0
H724 H 0.81538 0.24987 0.85436 0.0
H725 H 0.7357 0.2942 0.7105 0.0
Co726 Co 0.76474 0.75263 0.7752 0.0
C727 C 0.80303 0.76146 0.77868 0.0
Co728 Co 0.77306 0.77802 0.76048 0.0
C729 C 0.74633 0.71815 0.78248 0.0
C730 C 0.76294 0.72693 0.80573 0.0
N731 N 0.75777 0.7318 0.78828 0.0
N732 N 0.74415 0.7049 0.7956 0.0
C733 C 0.75462 0.71034 0.81026 0.0
H734 H 0.73998 0.71782 0.76874 0.0
H735 H 0.77214 0.73495 0.81458 0.0
C736 C 0.73491 0.7693 0.75662 0.0
N737 N 0.77994 0.79874 0.74715 0.0
C738 C 0.79052 0.81311 0.75279 0.0
C739 C 0.77595 0.80229 0.72904 0.0
N740 N 0.79342 0.82539 0.73883 0.0
C741 C 0.7843 0.81865 0.72386 0.0
C742 C 0.77608 0.746 0.73836 0.0
O743 O 0.73916 0.75564 0.7669 0.0
O744 O 0.74766 0.7811 0.75264 0.0
O745 O 0.77848 0.76336 0.73861 0.0
O746 O 0.77041 0.73806 0.75336 0.0
O747 O 0.79854 0.77492 0.76827 0.0
H748 H 0.76761 0.79346 0.72013 0.0
H749 H 0.7963 0.81434 0.76673 0.0
O750 O 0.79034 0.74976 0.78329 0.0
O751 O 0.75911 0.76717 0.79698 0.0
O752 O 0.76761 0.79259 0.78258 0.0
C753 C 0.76175 0.78449 0.79747 0.0
H754 H 0.75602 0.70297 0.82337 0.0
H755 H 0.78354 0.82519 0.71023 0.0
Co756 Co 0.50362 0.52799 0.50561 0.0
C757 C 0.50047 0.55143 0.53724 0.0
Co758 Co 0.50887 0.5145 0.53269 0.0
C759 C 0.49139 0.53476 0.4677 0.0
C760 C 0.50562 0.55787 0.47972 0.0
N761 N 0.49985 0.54054 0.48349 0.0
N762 N 0.49166 0.54781 0.45417 0.0
C763 C 0.50057 0.5624 0.46179 0.0
H764 H 0.48547 0.5211 0.46611 0.0
H765 H 0.51312 0.56665 0.48939 0.0
C766 C 0.5122 0.49097 0.50126 0.0
N767 N 0.5129 0.5019 0.55478 0.0
C768 C 0.5264 0.5049 0.56761 0.0
C769 C 0.50411 0.48631 0.56041 0.0
N770 N 0.52652 0.49168 0.58093 0.0
C771 C 0.5124 0.48003 0.57651 0.0
C772 C 0.47103 0.5131 0.52152 0.0
O773 O 0.50843 0.50546 0.49199 0.0
O774 O 0.51331 0.49213 0.51905 0.0
O775 O 0.48241 0.50882 0.53446 0.0
O776 O 0.47732 0.52204 0.50736 0.0
O777 O 0.5045 0.53692 0.54636 0.0
H778 H 0.49294 0.47948 0.55286 0.0
H779 H 0.53624 0.51633 0.56693 0.0
O780 O 0.4989 0.55032 0.51948 0.0
O781 O 0.52983 0.53395 0.50383 0.0
O782 O 0.53532 0.52042 0.53063 0.0
C783 C 0.54138 0.52963 0.51657 0.0
H784 H 0.50315 0.57551 0.45501 0.0
H785 H 0.50892 0.46738 0.58381 0.0
Co786 Co -0.0061 0.51499 0.01003 0.0
C787 C 0.00377 0.55166 0.0047 0.0
Co788 Co 0.01814 0.52346 0.02703 0.0
C789 C 0.95855 0.49807 0.00178 0.0
C790 C 0.9716 0.50951 0.97696 0.0
N791 N 0.97393 0.50749 -0.00438 0.0
N792 N 0.94666 0.49408 0.98774 0.0
C793 C 0.95481 0.5012 0.97204 0.0
H794 H 0.95631 0.49391 0.01627 0.0
H795 H 0.9815 0.5165 0.96755 0.0
C796 C 0.0083 0.48678 0.03227 0.0
N797 N 0.03809 0.53096 0.04151 0.0
C798 C 0.05111 0.54376 0.03671 0.0
C799 C 0.04282 0.52544 0.05892 0.0
N800 N 0.06372 0.54653 0.05037 0.0
C801 C 0.05876 0.53493 0.06436 0.0
C802 C 0.9831 0.52921 0.04469 0.0
O803 O -0.00449 0.49081 0.02058 0.0
O804 O 0.01995 0.49918 0.03712 0.0
O805 O 0.001 0.53033 0.04651 0.0
O806 O 0.97656 0.52251 0.02964 0.0
O807 O 0.01606 0.54767 0.01688 0.0
H808 H 0.03514 0.51525 0.06714 0.0
H809 H 0.05157 0.55074 0.02326 0.0
O810 O 0.99241 0.53918 -0.00063 0.0
O811 O 0.01124 0.50771 0.99069 0.0
O812 O 0.03547 0.51682 0.00724 0.0
C813 C 0.02907 0.50995 0.9922 0.0
H814 H 0.94896 0.50064 0.95809 0.0
H815 H 0.066 0.53358 0.07757 0.0
C816 C 0.01498 0.20826 0.10038 0.0
C817 C 0.02134 0.2082 0.11901 0.0
C818 C 0.01114 0.19161 0.09104 0.0
C819 C 0.00025 0.14237 0.10054 0.0
H820 H 0.01713 0.13436 0.04876 0.0
C821 C 0.00404 0.06976 0.06633 0.0
C822 C -0.0004 0.068 0.04722 0.0
C823 C 0.00489 0.0872 0.07486 0.0
C824 C 0.01205 0.13644 0.06314 0.0
H825 H 0.02891 0.19042 0.14225 0.0
H826 H 0.02244 0.16172 0.12603 0.0
H827 H 0.02212 0.16431 0.06366 0.0
H828 H 0.99195 0.08324 0.02226 0.0
H829 H 0.99316 0.11355 0.03719 0.0
H830 H 0.99035 0.11449 0.10012 0.0
C831 C 0.02008 0.17457 0.11869 0.0
C832 C 0.01493 0.15364 0.07168 0.0
C833 C 0.02394 0.1911 0.12796 0.0
C834 C -0.00454 0.08406 0.037 0.0
C835 C -0.00369 0.10148 0.04552 0.0
C836 C -0.00264 0.1252 0.092 0.0
C837 C 0.0135 0.17456 0.10017 0.0
C838 C 0.0093 0.15674 0.09058 0.0
C839 C 0.00131 0.10331 0.06449 0.0
C840 C 0.00342 0.12193 0.07326 0.0
H841 H 0.01279 0.22115 0.09307 0.0
H842 H 0.00601 0.1921 0.0768 0.0
H843 H -0.0046 0.14438 0.115 0.0
H844 H 0.00741 0.0577 0.07459 0.0
H845 H 0.00898 0.08807 0.08944 0.0
C846 C 0.1182 0.74574 0.388 0.0
C847 C 0.10562 0.757 0.39861 0.0
C848 C 0.13653 0.75182 0.38349 0.0
C849 C 0.17723 0.76683 0.38202 0.0
H850 H 0.174 0.80877 0.34846 0.0
C851 C 0.24054 0.78711 0.33467 0.0
C852 C 0.23587 0.78615 0.31553 0.0
C853 C 0.22623 0.78833 0.34859 0.0
C854 C 0.17517 0.79727 0.35804 0.0
H855 H 0.10229 0.78306 0.41349 0.0
H856 H 0.13438 0.79408 0.40488 0.0
H857 H 0.14638 0.80051 0.36839 0.0
H858 H 0.21268 0.78723 0.29593 0.0
H859 H 0.18761 0.78943 0.32036 0.0
H860 H 0.20563 0.76295 0.37104 0.0
C861 C 0.13011 0.78041 0.40047 0.0
C862 C 0.15949 0.79264 0.36952 0.0
C863 C 0.11188 0.7741 0.40542 0.0
C864 C 0.21669 0.7878 0.31055 0.0
C865 C 0.20237 0.7892 0.32451 0.0
C866 C 0.193 0.77162 0.3708 0.0
C867 C 0.14238 0.76944 0.38915 0.0
C868 C 0.16019 0.77695 0.38101 0.0
C869 C 0.20701 0.78884 0.34365 0.0
C870 C 0.19183 0.78643 0.35817 0.0
H871 H 0.11359 0.73253 0.38259 0.0
H872 H 0.14571 0.74323 0.37455 0.0
H873 H 0.17799 0.75463 0.39074 0.0
H874 H 0.25522 0.78607 0.33898 0.0
H875 H 0.23014 0.78816 0.36325 0.0
C876 C 0.5186 0.84245 0.61037 0.0
C877 C 0.51524 0.82537 0.60161 0.0
C878 C 0.51586 0.85898 0.60073 0.0
C879 C 0.48926 0.88101 0.56378 0.0
H880 H 0.53038 0.91649 0.56313 0.0
C881 C 0.48417 0.95141 0.52453 0.0
C882 C 0.49378 0.96651 0.53229 0.0
C883 C 0.48629 0.93367 0.53211 0.0
C884 C 0.51857 0.90695 0.56341 0.0
H885 H 0.50604 0.81228 0.5759 0.0
H886 H 0.50071 0.84141 0.55914 0.0
H887 H 0.53493 0.88663 0.57787 0.0
H888 H 0.51235 0.975 0.55464 0.0
H889 H 0.51531 0.94456 0.56832 0.0
H890 H 0.47257 0.90155 0.55001 0.0
C891 C 0.50569 0.84185 0.57345 0.0
C892 C 0.52129 0.88973 0.57173 0.0
C893 C 0.50882 0.82522 0.583 0.0
C894 C 0.50494 0.96362 0.54816 0.0
C895 C 0.50679 0.94604 0.55591 0.0
C896 C 0.48638 0.89841 0.55569 0.0
C897 C 0.50934 0.85889 0.5822 0.0
C898 C 0.50664 0.87664 0.57218 0.0
C899 C 0.49785 0.93068 0.54779 0.0
C900 C 0.50094 0.91175 0.5556 0.0
H901 H 0.52357 0.84307 0.62468 0.0
H902 H 0.51866 0.8719 0.60786 0.0
H903 H 0.47767 0.87119 0.56403 0.0
H904 H 0.47553 0.9532 0.51223 0.0
H905 H 0.47927 0.92225 0.52533 0.0
C906 C 0.46733 0.28221 0.88595 0.0
C907 C 0.48355 0.29275 0.88144 0.0
C908 C 0.45006 0.28574 0.87721 0.0
C909 C 0.43283 0.30278 0.83296 0.0
H910 H 0.38308 0.30422 0.85801 0.0
C911 C 0.36542 0.31046 0.78999 0.0
C912 C 0.35007 0.29913 0.79522 0.0
C913 C 0.38065 0.31279 0.80201 0.0
C914 C 0.39686 0.30371 0.8508 0.0
H915 H 0.49413 0.31579 0.86483 0.0
H916 H 0.46408 0.32173 0.84949 0.0
H917 H 0.41181 0.30213 0.87675 0.0
H918 H 0.33825 0.28172 0.81719 0.0
H919 H 0.36511 0.28519 0.83797 0.0
H920 H 0.41819 0.30342 0.80705 0.0
C921 C 0.46478 0.31072 0.85973 0.0
C922 C 0.41326 0.30258 0.86154 0.0
C923 C 0.48196 0.30732 0.86855 0.0
C924 C 0.34987 0.29066 0.81293 0.0
C925 C 0.36524 0.29273 0.82485 0.0
C926 C 0.4165 0.30366 0.82224 0.0
C927 C 0.44879 0.29976 0.86371 0.0
C928 C 0.43136 0.302 0.85267 0.0
C929 C 0.381 0.30354 0.81937 0.0
C930 C 0.39829 0.30401 0.831 0.0
H931 H 0.46807 0.27096 0.89589 0.0
H932 H 0.43792 0.27703 0.88041 0.0
H933 H 0.44663 0.30205 0.82578 0.0
H934 H 0.36569 0.31736 0.7765 0.0
H935 H 0.39232 0.32158 0.79753 0.0
C936 C 0.00959 0.80486 0.42515 0.0
C937 C 0.02371 0.80636 0.41082 0.0
C938 C 0.00145 0.82071 0.43344 0.0
C939 C 0.0131 0.86882 0.44253 0.0
H940 H 0.95881 0.87667 0.45132 0.0
C941 C 0.98543 0.93954 0.46391 0.0
C942 C 0.97233 0.94063 0.47911 0.0
C943 C 0.98935 0.92273 0.45509 0.0
C944 C 0.974 0.87455 0.44911 0.0
H945 H 0.03986 0.82567 0.39354 0.0
H946 H 0.02573 0.85315 0.408 0.0
H947 H 0.97033 0.84761 0.437 0.0
H948 H 0.95217 0.92542 0.49641 0.0
H949 H 0.95928 0.89552 0.48108 0.0
H950 H 0.01699 0.89546 0.45466 0.0
C951 C 0.0211 0.83975 0.41295 0.0
C952 C 0.98057 0.85797 0.44094 0.0
C953 C 0.02914 0.82398 0.40462 0.0
C954 C 0.9623 0.9248 0.48467 0.0
C955 C 0.96638 0.90778 0.47591 0.0
C956 C 0.00659 0.88524 0.45072 0.0
C957 C 0.0074 0.83828 0.42762 0.0
C958 C 0.00017 0.85516 0.43726 0.0
C959 C 0.98043 0.90654 0.46145 0.0
C960 C 0.98697 0.88847 0.45375 0.0
H961 H 0.00502 0.79148 0.43018 0.0
H962 H 0.99095 0.81923 0.44477 0.0
H963 H 0.02832 0.86682 0.44029 0.0
H964 H 0.99306 0.95169 0.45922 0.0
H965 H -0.00017 0.92232 0.44362 0.0
C966 C 0.4683 0.76877 0.6991 0.0
C967 C 0.47227 0.77278 0.68006 0.0
C968 C 0.45037 0.77257 0.70716 0.0
C969 C 0.40043 0.77705 0.69543 0.0
H970 H 0.39514 0.79602 0.74651 0.0
C971 C 0.33727 0.79475 0.75479 0.0
C972 C 0.32708 0.77814 0.75381 0.0
C973 C 0.35455 0.79676 0.74473 0.0
C974 C 0.39634 0.79095 0.73216 0.0
H975 H 0.46053 0.78414 0.65461 0.0
H976 H 0.42894 0.79057 0.66875 0.0
H977 H 0.4265 0.79544 0.73074 0.0
H978 H 0.32701 0.75066 0.74145 0.0
H979 H 0.35701 0.75419 0.72403 0.0
H980 H 0.37036 0.77214 0.69701 0.0
C981 C 0.43984 0.78451 0.67737 0.0
C982 C 0.4143 0.79048 0.72319 0.0
C983 C 0.45791 0.78086 0.6693 0.0
C984 C 0.33447 0.76365 0.74253 0.0
C985 C 0.3516 0.76571 0.7324 0.0
C986 C 0.3825 0.7774 0.70445 0.0
C987 C 0.43591 0.78036 0.69638 0.0
C988 C 0.41659 0.78314 0.7049 0.0
C989 C 0.36182 0.78227 0.73338 0.0
C990 C 0.38035 0.78397 0.72305 0.0
H991 H 0.47903 0.76261 0.70784 0.0
H992 H 0.44769 0.76895 0.72177 0.0
H993 H 0.40177 0.77124 0.68137 0.0
H994 H 0.33191 0.8062 0.7633 0.0
H995 H 0.36212 0.80969 0.7457 0.0
C996 C 0.51633 0.189 0.91839 0.0
C997 C 0.51903 0.20287 0.93196 0.0
C998 C 0.51738 0.17038 0.92337 0.0
C999 C 0.539 0.1407 0.95887 0.0
H1000 H 0.50397 0.10354 0.94141 0.0
C1001 C 0.53075 0.06966 0.9933 0.0
C1002 C 0.52635 0.05438 0.98198 0.0
C1003 C 0.5324 0.08718 0.98544 0.0
C1004 C 0.5141 0.11369 0.94611 0.0
H1005 H 0.52385 0.20815 0.96156 0.0
H1006 H 0.5254 0.17574 0.97025 0.0
H1007 H 0.50014 0.1355 0.93144 0.0
H1008 H 0.52151 0.04528 0.95334 0.0
H1009 H 0.52461 0.07595 0.93959 0.0
H1010 H 0.55281 0.11899 0.97374 0.0
C1011 C 0.52289 0.17923 0.9557 0.0
C1012 C 0.51183 0.132 0.94046 0.0
C1013 C 0.52183 0.19779 0.95075 0.0
C1014 C 0.52487 0.05679 0.96244 0.0
C1015 C 0.52647 0.07437 0.95459 0.0
C1016 C 0.54128 0.12241 0.96448 0.0
C1017 C 0.52118 0.16534 0.94198 0.0
C1018 C 0.52405 0.14574 0.94708 0.0
C1019 C 0.52969 0.08981 0.9661 0.0
C1020 C 0.52867 0.10877 0.95842 0.0
H1021 H 0.51418 0.1925 0.90378 0.0
H1022 H 0.51601 0.15997 0.9125 0.0
H1023 H 0.54891 0.15092 0.96384 0.0
H1024 H 0.53199 0.06826 0.0084 0.0
H1025 H 0.53475 0.09881 0.99473 0.0
C1026 C 0.10021 0.2658 0.15384 0.0
C1027 C 0.08317 0.27145 0.16304 0.0
C1028 C 0.11729 0.26512 0.16366 0.0
C1029 C 0.1403 0.28435 0.20541 0.0
H1030 H 0.17437 0.24215 0.20027 0.0
C1031 C 0.21669 0.28403 0.2335 0.0
C1032 C 0.22312 0.26797 0.24244 0.0
C1033 C 0.19919 0.2843 0.22458 0.0
C1034 C 0.16491 0.25395 0.20195 0.0
H1035 H 0.07068 0.28091 0.18968 0.0
H1036 H 0.10035 0.2798 0.20666 0.0
H1037 H 0.14487 0.24297 0.18259 0.0
H1038 H 0.21603 0.23966 0.24931 0.0
H1039 H 0.18533 0.24015 0.23365 0.0
H1040 H 0.16024 0.29533 0.22478 0.0
C1041 C 0.10059 0.27597 0.19189 0.0
C1042 C 0.14815 0.25452 0.19167 0.0
C1043 C 0.08357 0.27652 0.18215 0.0
C1044 C 0.21145 0.25226 0.24259 0.0
C1045 C 0.19396 0.25249 0.2335 0.0
C1046 C 0.15709 0.28385 0.21556 0.0
C1047 C 0.11764 0.27025 0.18278 0.0
C1048 C 0.13566 0.26972 0.19332 0.0
C1049 C 0.18774 0.26847 0.22427 0.0
C1050 C 0.16958 0.26865 0.21395 0.0
H1051 H 0.10034 0.26179 0.13912 0.0
H1052 H 0.13025 0.26079 0.15623 0.0
H1053 H 0.13102 0.29632 0.20688 0.0
H1054 H 0.22534 0.29636 0.23309 0.0
H1055 H 0.19487 0.29677 0.21745 0.0
C1056 C 0.14747 0.99071 0.2039 0.0
C1057 C 0.13886 0.98279 0.21996 0.0
C1058 C 0.13864 0.98955 0.1865 0.0
C1059 C 0.1007 0.96518 0.16099 0.0
H1060 H 0.09432 0.01194 0.13552 0.0
C1061 C 0.03933 0.97893 0.11091 0.0
C1062 C 0.04317 0.98908 0.09448 0.0
C1063 C 0.05321 0.97691 0.12449 0.0
C1064 C 0.09622 -0.00129 0.14227 0.0
H1065 H 0.11489 0.96664 0.23028 0.0
H1066 H 0.09952 0.96472 0.2001 0.0
H1067 H 0.11568 0.00987 0.16198 0.0
H1068 H 0.06481 0.00478 0.07928 0.0
H1069 H 0.08894 0.00141 0.10311 0.0
H1070 H 0.08078 0.95416 0.14163 0.0
C1071 C 0.11307 0.97173 0.20082 0.0
C1072 C 0.1085 -0.00249 0.15738 0.0
C1073 C 0.12181 0.97297 0.21817 0.0
C1074 C 0.06122 -0.00282 0.09193 0.0
C1075 C 0.0751 -0.00482 0.10554 0.0
C1076 C 0.08841 0.96638 0.14589 0.0
C1077 C 0.12118 0.98032 0.18489 0.0
C1078 C 0.1105 0.98084 0.16718 0.0
C1079 C 0.07124 0.98501 0.12194 0.0
C1080 C 0.08571 0.98326 0.13667 0.0
H1081 H 0.16067 -0.00169 0.20488 0.0
H1082 H 0.14528 -0.00384 0.17438 0.0
H1083 H 0.10219 0.95208 0.1681 0.0
H1084 H 0.0255 0.97273 0.11339 0.0
H1085 H 0.04969 0.96928 0.13717 0.0
C1086 C 0.23576 0.87331 0.45814 0.0
C1087 C 0.23416 0.86487 0.47585 0.0
C1088 C 0.2462 0.86478 0.44349 0.0
C1089 C 0.2838 0.82916 0.43513 0.0
H1090 H 0.26839 0.83349 0.38332 0.0
C1091 C 0.31181 0.78482 0.37172 0.0
C1092 C 0.31422 0.79406 0.3545 0.0
C1093 C 0.30514 0.79442 0.38773 0.0
C1094 C 0.27299 0.83239 0.39772 0.0
H1095 H 0.24131 0.84047 0.49183 0.0
H1096 H 0.25885 0.82527 0.46608 0.0
H1097 H 0.24871 0.84744 0.40831 0.0
H1098 H 0.31376 0.82074 0.34095 0.0
H1099 H 0.30205 0.8375 0.36886 0.0
H1100 H 0.30777 0.81346 0.42436 0.0
C1101 C 0.25266 0.83875 0.46366 0.0
C1102 C 0.26172 0.84038 0.41204 0.0
C1103 C 0.24245 0.84738 0.47837 0.0
C1104 C 0.31173 0.81329 0.35402 0.0
C1105 C 0.30498 0.82284 0.36992 0.0
C1106 C 0.29496 0.82095 0.42078 0.0
C1107 C 0.25503 0.84752 0.44617 0.0
C1108 C 0.26698 0.83888 0.43093 0.0
C1109 C 0.30077 0.81333 0.38664 0.0
C1110 C 0.28967 0.82258 0.40196 0.0
H1111 H 0.22966 0.88686 0.45584 0.0
H1112 H 0.24788 0.87204 0.43027 0.0
H1113 H 0.28847 0.82801 0.4495 0.0
H1114 H 0.3135 0.76998 0.37245 0.0
H1115 H 0.302 0.78679 0.40049 0.0
C1116 C 0.41177 0.07956 0.68525 0.0
C1117 C 0.3962 0.06772 0.6877 0.0
C1118 C 0.41815 0.08431 0.66723 0.0
C1119 C 0.40992 0.07753 0.61598 0.0
H1120 H 0.46345 0.06374 0.61586 0.0
C1121 C 0.44744 0.03862 0.55505 0.0
C1122 C 0.46704 0.04122 0.5517 0.0
C1123 C 0.43802 0.04791 0.56983 0.0
C1124 C 0.44867 0.06812 0.61549 0.0
H1125 H 0.37379 0.05302 0.67366 0.0
H1126 H 0.38549 0.06051 0.64199 0.0
H1127 H 0.44723 0.07107 0.64526 0.0
H1128 H 0.49197 0.05634 0.56035 0.0
H1129 H 0.47546 0.07284 0.58593 0.0
H1130 H 0.41137 0.0736 0.58606 0.0
C1131 C 0.39256 0.06653 0.65391 0.0
C1132 C 0.43931 0.07238 0.63243 0.0
C1133 C 0.38592 0.0621 0.67202 0.0
C1134 C 0.47692 0.05379 0.56288 0.0
C1135 C 0.46745 0.06328 0.57748 0.0
C1136 C 0.41936 0.07331 0.59891 0.0
C1137 C 0.40936 0.07683 0.65138 0.0
C1138 C 0.4197 0.07651 0.63296 0.0
C1139 C 0.44799 0.06014 0.58138 0.0
C1140 C 0.43868 0.06793 0.59862 0.0
H1141 H 0.41965 0.08436 0.69725 0.0
H1142 H 0.43084 0.09267 0.66569 0.0
H1143 H 0.39484 0.08085 0.61597 0.0
H1144 H 0.43946 0.02907 0.54654 0.0
H1145 H 0.4231 0.04494 0.57264 0.0
C1146 C 0.25384 0.17146 0.94269 0.0
C1147 C 0.26077 0.17826 0.95976 0.0
C1148 C 0.25467 0.18223 0.92645 0.0
C1149 C 0.28113 0.21687 0.90171 0.0
H1150 H 0.23412 0.22773 0.87629 0.0
C1151 C 0.28025 0.25999 0.83299 0.0
C1152 C 0.26663 0.25534 0.81963 0.0
C1153 C 0.27971 0.2519 0.85088 0.0
C1154 C 0.24745 0.22461 0.88297 0.0
H1155 H 0.27429 0.20154 0.97316 0.0
H1156 H 0.27635 0.2202 0.94437 0.0
H1157 H 0.23308 0.21089 0.90587 0.0
H1158 H 0.24213 0.23818 0.8143 0.0
H1159 H 0.2417 0.22348 0.84488 0.0
H1160 H 0.2957 0.22963 0.87844 0.0
C1161 C 0.27003 0.20661 0.94378 0.0
C1162 C 0.24678 0.21511 0.90003 0.0
C1163 C 0.26879 0.19599 0.9602 0.0
C1164 C 0.25269 0.24223 0.82437 0.0
C1165 C 0.25236 0.23391 0.84205 0.0
C1166 C 0.28187 0.22606 0.8844 0.0
C1167 C 0.26283 0.19985 0.92683 0.0
C1168 C 0.26361 0.21103 0.90947 0.0
C1169 C 0.26572 0.23873 0.85568 0.0
C1170 C 0.26503 0.22987 0.87466 0.0
H1171 H 0.24753 0.15788 0.94193 0.0
H1172 H 0.2491 0.17671 0.9135 0.0
H1173 H 0.29431 0.21375 0.90872 0.0
H1174 H 0.29113 0.27012 0.82975 0.0
H1175 H 0.2901 0.2562 0.861 0.0
C1176 C 0.09298 0.99323 0.33097 0.0
C1177 C 0.11218 0.98899 0.32672 0.0
C1178 C 0.08553 0.99092 0.34915 0.0
C1179 C 0.09992 0.9897 0.39824 0.0
H1180 H 0.0472 0.97533 0.40627 0.0
C1181 C 0.03783 0.98268 0.46104 0.0
C1182 C 0.04094 -0.00059 0.47053 0.0
C1183 C 0.04863 0.97804 0.44494 0.0
C1184 C 0.06205 0.97905 0.40442 0.0
H1185 H 0.13851 0.97845 0.33813 0.0
H1186 H 0.12535 0.97427 0.37001 0.0
H1187 H 0.06194 0.97217 0.37514 0.0
H1188 H 0.05819 0.02411 0.47105 0.0
H1189 H 0.07662 0.01635 0.44253 0.0
H1190 H 0.09999 -0.00342 0.42758 0.0
C1191 C 0.11617 0.97959 0.35923 0.0
C1192 C 0.07043 0.97746 0.38649 0.0
C1193 C 0.12366 0.9819 0.34097 0.0
C1194 C 0.05547 0.01113 0.46399 0.0
C1195 C 0.06614 0.00659 0.44773 0.0
C1196 C 0.09156 0.9912 0.41625 0.0
C1197 C 0.09706 0.98426 0.36353 0.0
C1198 C 0.08925 0.98328 0.38308 0.0
C1199 C 0.06261 0.99013 0.43784 0.0
C1200 C 0.07237 0.98635 0.41943 0.0
H1201 H 0.08372 -0.00128 0.32035 0.0
H1202 H 0.07084 0.99496 0.35204 0.0
H1203 H 0.11444 0.99438 0.39605 0.0
H1204 H 0.0269 0.97322 0.46592 0.0
H1205 H 0.0458 0.96509 0.43788 0.0
C1206 C 0.24157 0.86575 0.60422 0.0
C1207 C 0.23922 0.85578 0.58745 0.0
C1208 C 0.24471 0.85655 0.62104 0.0
C1209 C 0.23643 0.81207 0.64398 0.0
H1210 H 0.27064 0.83199 0.68091 0.0
C1211 C 0.25391 0.77713 0.71512 0.0
C1212 C 0.25495 0.78906 0.73073 0.0
C1213 C 0.25129 0.78425 0.69712 0.0
C1214 C 0.26092 0.82636 0.67077 0.0
H1215 H 0.23892 0.82839 0.57496 0.0
H1216 H 0.24465 0.81227 0.60443 0.0
H1217 H 0.26923 0.84608 0.64993 0.0
H1218 H 0.25281 0.81765 0.73993 0.0
H1219 H 0.24811 0.82998 0.70862 0.0
H1220 H 0.22815 0.79235 0.66499 0.0
C1221 C 0.24379 0.8272 0.60456 0.0
C1222 C 0.26014 0.8344 0.65305 0.0
C1223 C 0.24065 0.83643 0.5877 0.0
C1224 C 0.25223 0.8081 0.72818 0.0
C1225 C 0.24967 0.81519 0.71024 0.0
C1226 C 0.23728 0.80396 0.66174 0.0
C1227 C 0.24561 0.83718 0.62143 0.0
C1228 C 0.24766 0.82754 0.63958 0.0
C1229 C 0.24974 0.80339 0.6945 0.0
C1230 C 0.24929 0.81127 0.67538 0.0
H1231 H 0.2405 0.88068 0.60448 0.0
H1232 H 0.24582 0.86461 0.63384 0.0
H1233 H 0.22653 0.80661 0.63393 0.0
H1234 H 0.25595 0.76239 0.71666 0.0
H1235 H 0.25138 0.77488 0.68518 0.0
C1236 C 0.45041 0.00682 0.77855 0.0
C1237 C 0.44161 0.02397 0.77562 0.0
C1238 C 0.46094 0.00385 0.79471 0.0
C1239 C 0.46476 0.02289 0.84279 0.0
H1240 H 0.50629 0.98751 0.84604 0.0
C1241 C 0.50212 0.01002 0.91191 0.0
C1242 C 0.50107 0.99159 0.91794 0.0
C1243 C 0.49841 0.01456 0.89334 0.0
C1244 C 0.49474 -0.00254 0.84523 0.0
H1245 H 0.43805 0.05189 0.78623 0.0
H1246 H 0.45724 0.0471 0.81386 0.0
H1247 H 0.49367 -0.00474 0.81522 0.0
H1248 H 0.49636 0.96337 0.90885 0.0
H1249 H 0.49014 0.97138 0.8762 0.0
H1250 H 0.46597 0.02519 0.87273 0.0
C1251 C 0.45533 0.03562 0.80428 0.0
C1252 C 0.48744 0.00184 0.82766 0.0
C1253 C 0.44444 0.03843 0.78841 0.0
C1254 C 0.49733 0.97768 0.90468 0.0
C1255 C 0.49381 0.98223 0.886 0.0
C1256 C 0.47227 0.01877 0.86022 0.0
C1257 C 0.46316 0.01813 0.80798 0.0
C1258 C 0.47218 0.01445 0.82628 0.0
C1259 C 0.49383 0.00075 0.88036 0.0
C1260 C 0.48714 0.00588 0.86161 0.0
H1261 H 0.44839 -0.00455 0.76885 0.0
H1262 H 0.46656 0.99015 0.79715 0.0
H1263 H 0.45269 0.03226 0.84243 0.0
H1264 H 0.50555 0.02104 0.92156 0.0
H1265 H 0.49871 0.02892 0.88919 0.0
C1266 C 0.27128 0.17879 0.07297 0.0
C1267 C 0.26544 0.16028 0.07406 0.0
C1268 C 0.27563 0.18866 0.08933 0.0
C1269 C 0.28869 0.18203 0.13914 0.0
H1270 H 0.26954 0.23198 0.14599 0.0
C1271 C 0.28405 0.21833 0.21173 0.0
C1272 C 0.28726 0.23744 0.21262 0.0
C1273 C 0.28383 0.20916 0.19435 0.0
C1274 C 0.27529 0.21816 0.1442 0.0
H1275 H 0.25958 0.1377 0.0933 0.0
H1276 H 0.26696 0.15488 0.12161 0.0
H1277 H 0.26432 0.21577 0.11642 0.0
H1278 H 0.29357 0.26176 0.19595 0.0
H1279 H 0.29346 0.24571 0.16569 0.0
H1280 H 0.29943 0.18432 0.167 0.0
C1281 C 0.26845 0.16173 0.10814 0.0
C1282 C 0.27226 0.20885 0.12723 0.0
C1283 C 0.26406 0.15191 0.09187 0.0
C1284 C 0.29099 0.24703 0.19578 0.0
C1285 C 0.29078 0.23787 0.17841 0.0
C1286 C 0.29173 0.19134 0.15609 0.0
C1287 C 0.27432 0.1802 0.1071 0.0
C1288 C 0.27869 0.19058 0.1246 0.0
C1289 C 0.28683 0.21889 0.17745 0.0
C1290 C 0.28485 0.20943 0.15893 0.0
H1291 H 0.27255 0.18566 0.0595 0.0
H1292 H 0.28024 0.20284 0.08803 0.0
H1293 H 0.29414 0.16809 0.13744 0.0
H1294 H 0.28106 0.21052 0.22441 0.0
H1295 H 0.28056 0.19458 0.19415 0.0
C1296 C 0.2 0.09798 0.0088 0.0
C1297 C 0.2004 0.11707 0.01238 0.0
C1298 C 0.18289 0.08833 0.00987 0.0
C1299 C 0.14701 0.06921 0.02333 0.0
H1300 H 0.10141 0.09027 0.00216 0.0
C1301 C 0.07275 0.03494 0.03053 0.0
C1302 C 0.06082 0.03609 0.01496 0.0
C1303 C 0.09008 0.04439 0.03057 0.0
C1304 C 0.11407 0.08413 0.008 0.0
H1305 H 0.18313 0.14104 0.01989 0.0
H1306 H 0.15306 0.12407 0.02194 0.0
H1307 H 0.13081 0.10802 0.00178 0.0
H1308 H 0.05813 0.04735 0.98689 0.0
H1309 H 0.08848 0.06343 0.98681 0.0
H1310 H 0.13042 0.04511 0.02907 0.0
C1311 C 0.16605 0.11663 0.01812 0.0
C1312 C 0.13085 0.09442 0.00803 0.0
C1313 C 0.18325 0.12634 0.01702 0.0
C1314 C 0.06694 0.04625 -0.00085 0.0
C1315 C 0.08426 0.05562 -0.00082 0.0
C1316 C 0.13025 0.05891 0.02329 0.0
C1317 C 0.16571 0.09749 0.01461 0.0
C1318 C 0.14757 0.08701 0.01553 0.0
C1319 C 0.09585 0.05514 0.01503 0.0
C1320 C 0.11362 0.06618 0.01546 0.0
H1321 H 0.21295 0.09042 0.00509 0.0
H1322 H 0.18311 0.07369 0.00672 0.0
H1323 H 0.15958 0.06319 0.02946 0.0
H1324 H 0.0684 0.02731 0.04297 0.0
H1325 H 0.09861 0.0438 0.04305 0.0
C1326 C 0.68227 0.44992 0.05936 0.0
C1327 C 0.67854 0.43104 0.05692 0.0
C1328 C 0.66781 0.462 0.0654 0.0
C1329 C 0.61825 0.46469 0.08493 0.0
H1330 H 0.61404 0.50563 0.05035 0.0
C1331 C 0.5479 0.49223 0.05918 0.0
C1332 C 0.54669 0.51011 0.05176 0.0
C1333 C 0.56461 0.48616 0.06741 0.0
C1334 C 0.61514 0.49469 0.06059 0.0
H1335 H 0.65706 0.4098 0.05986 0.0
H1336 H 0.63158 0.43102 0.06995 0.0
H1337 H 0.64306 0.48748 0.05039 0.0
H1338 H 0.56113 0.53639 0.04913 0.0
H1339 H 0.59032 0.52584 0.06383 0.0
H1340 H 0.58984 0.47146 0.09446 0.0
C1341 C 0.64577 0.43644 0.06746 0.0
C1342 C 0.63183 0.48418 0.06055 0.0
C1343 C 0.66029 0.42431 0.06148 0.0
C1344 C 0.56179 0.52241 0.05444 0.0
C1345 C 0.57851 0.51636 0.06282 0.0
C1346 C 0.60153 0.4753 0.08506 0.0
C1347 C 0.64929 0.45547 0.06904 0.0
C1348 C 0.63325 0.46861 0.07213 0.0
C1349 C 0.58043 0.49788 0.06851 0.0
C1350 C 0.59948 0.48988 0.07225 0.0
H1351 H 0.69629 0.45547 0.05624 0.0
H1352 H 0.67099 0.47656 0.06671 0.0
H1353 H 0.61912 0.45295 0.09425 0.0
H1354 H 0.53642 0.48245 0.05753 0.0
H1355 H 0.56557 0.47181 0.07149 0.0
C1356 C 0.82071 0.48594 0.25344 0.0
C1357 C 0.83158 0.48794 0.23673 0.0
C1358 C 0.80799 0.47138 0.25547 0.0
C1359 C 0.80218 0.42458 0.23643 0.0
H1360 H 0.76167 0.42342 0.27462 0.0
C1361 C 0.77025 0.35657 0.26131 0.0
C1362 C 0.77371 0.3536 0.2805 0.0
C1363 C 0.77145 0.3742 0.25373 0.0
C1364 C 0.7728 0.42364 0.26377 0.0
H1365 H 0.83634 0.47752 0.20835 0.0
H1366 H 0.81337 0.45252 0.2115 0.0
H1367 H 0.77364 0.45311 0.2634 0.0
H1368 H 0.77973 0.36705 0.30702 0.0
H1369 H 0.78163 0.39806 0.29371 0.0
H1370 H 0.80136 0.39513 0.23693 0.0
C1371 C 0.81528 0.46169 0.22338 0.0
C1372 C 0.77976 0.44057 0.25742 0.0
C1373 C 0.82837 0.47604 0.22151 0.0
C1374 C 0.77704 0.36887 0.29221 0.0
C1375 C 0.77804 0.3866 0.28463 0.0
C1376 C 0.79493 0.40773 0.24248 0.0
C1377 C 0.80555 0.45869 0.24067 0.0
C1378 C 0.79512 0.44123 0.24426 0.0
C1379 C 0.77583 0.38926 0.26523 0.0
C1380 C 0.78071 0.40713 0.25667 0.0
H1381 H 0.82288 0.49493 0.26543 0.0
H1382 H 0.80105 0.46948 0.2691 0.0
H1383 H 0.81418 0.42438 0.22655 0.0
H1384 H 0.76697 0.34524 0.25199 0.0
H1385 H 0.76954 0.37601 0.23876 0.0
C1386 C 0.81367 0.58228 0.51537 0.0
C1387 C 0.809 0.60076 0.51156 0.0
C1388 C 0.83136 0.57497 0.50976 0.0
C1389 C 0.88045 0.58846 0.50038 0.0
H1390 H 0.8856 0.53798 0.48231 0.0
C1391 C 0.94318 0.53046 0.48224 0.0
C1392 C 0.95315 0.53191 0.4991 0.0
C1393 C 0.92621 0.54041 0.47994 0.0
C1394 C 0.88442 0.5522 0.48703 0.0
H1395 H 0.81922 0.62601 0.49861 0.0
H1396 H 0.85039 0.61321 0.489 0.0
H1397 H 0.85403 0.55239 0.48473 0.0
H1398 H 0.95349 0.54529 0.52652 0.0
H1399 H 0.92409 0.56252 0.52249 0.0
H1400 H 0.91077 0.58806 0.50327 0.0
C1401 C 0.84023 0.60443 0.49632 0.0
C1402 C 0.86636 0.56038 0.48858 0.0
C1403 C 0.8224 0.61173 0.5018 0.0
C1404 C 0.9461 0.54378 0.51339 0.0
C1405 C 0.92935 0.55382 0.51102 0.0
C1406 C 0.8985 0.58024 0.49894 0.0
C1407 C 0.84489 0.58599 0.5003 0.0
C1408 C 0.86415 0.5784 0.4958 0.0
C1409 C 0.91914 0.55216 0.49435 0.0
C1410 C 0.90059 0.56185 0.49279 0.0
H1411 H 0.80368 0.5734 0.52278 0.0
H1412 H 0.83465 0.5608 0.51331 0.0
H1413 H 0.87919 0.60234 0.50605 0.0
H1414 H 0.94831 0.52145 0.47096 0.0
H1415 H 0.9186 0.5389 0.46694 0.0
C1416 C 0.1551 0.07308 0.27354 0.0
C1417 C 0.16197 0.05721 0.2825 0.0
C1418 C 0.16284 0.09037 0.27749 0.0
C1419 C 0.20675 0.11071 0.29583 0.0
H1420 H 0.17734 0.15625 0.29677 0.0
C1421 C 0.24315 0.17893 0.31059 0.0
C1422 C 0.24022 0.19248 0.29688 0.0
C1423 C 0.23109 0.16375 0.31196 0.0
C1424 C 0.18568 0.14361 0.29656 0.0
H1425 H 0.18155 0.04713 0.30333 0.0
H1426 H 0.19463 0.07719 0.31054 0.0
H1427 H 0.16106 0.12671 0.29289 0.0
H1428 H 0.22155 0.20142 0.27475 0.0
H1429 H 0.20049 0.17485 0.27713 0.0
H1430 H 0.23133 0.12745 0.29927 0.0
C1431 C 0.18373 0.07629 0.30004 0.0
C1432 C 0.17641 0.12673 0.29426 0.0
C1433 C 0.17619 0.05905 0.29594 0.0
C1434 C 0.22413 0.19126 0.28553 0.0
C1435 C 0.21206 0.17604 0.28689 0.0
C1436 C 0.21594 0.12748 0.29825 0.0
C1437 C 0.17744 0.09212 0.29061 0.0
C1438 C 0.18688 0.1101 0.29376 0.0
C1439 C 0.21588 0.16181 0.29963 0.0
C1440 C 0.20556 0.14411 0.29854 0.0
H1441 H 0.14412 0.07207 0.26314 0.0
H1442 H 0.1578 0.10226 0.26984 0.0
H1443 H 0.21534 0.09824 0.29505 0.0
H1444 H 0.2552 0.17974 0.31978 0.0
H1445 H 0.23413 0.15315 0.32217 0.0
C1446 C 0.26096 0.95484 0.517 0.0
C1447 C 0.26065 0.93719 0.5251 0.0
C1448 C 0.27809 0.96444 0.51494 0.0
C1449 C 0.31725 0.97425 0.49933 0.0
H1450 H 0.35764 0.97104 0.53547 0.0
C1451 C 0.39565 0.98903 0.47928 0.0
C1452 C 0.407 -0.00222 0.49261 0.0
C1453 C 0.37711 0.98355 0.48409 0.0
C1454 C 0.34645 0.9723 0.52532 0.0
H1455 H 0.27798 0.91611 0.53812 0.0
H1456 H 0.30782 0.93266 0.53422 0.0
H1457 H 0.32623 0.95885 0.54355 0.0
H1458 H 0.4076 0.00831 0.52122 0.0
H1459 H 0.3752 -0.00108 0.5296 0.0
H1460 H 0.3374 0.98785 0.48117 0.0
C1461 C 0.29482 0.93924 0.52968 0.0
C1462 C 0.3285 0.96511 0.52988 0.0
C1463 C 0.2777 0.92968 0.53182 0.0
C1464 C 0.39932 0.00127 0.51075 0.0
C1465 C 0.38075 -0.0041 0.51555 0.0
C1466 C 0.33517 0.9815 0.49481 0.0
C1467 C 0.29528 0.95656 0.52087 0.0
C1468 C 0.31378 0.96574 0.51682 0.0
C1469 C 0.36948 0.98684 0.50232 0.0
C1470 C 0.35006 0.98034 0.50763 0.0
H1471 H 0.24805 0.96109 0.51181 0.0
H1472 H 0.2779 0.97791 0.5084 0.0
H1473 H 0.30631 0.9748 0.48885 0.0
H1474 H 0.40126 0.98598 0.46526 0.0
H1475 H 0.36894 0.97633 0.47366 0.0
C1476 C 0.85912 0.60391 0.27904 0.0
C1477 C 0.84648 0.58937 0.27568 0.0
C1478 C 0.8524 0.62205 0.27995 0.0
C1479 C 0.80961 0.65177 0.28322 0.0
H1480 H 0.83821 0.68239 0.24803 0.0
C1481 C 0.78184 0.72309 0.262 0.0
C1482 C 0.79529 0.73733 0.26299 0.0
C1483 C 0.78777 0.70467 0.26236 0.0
C1484 C 0.83016 0.67407 0.25801 0.0
H1485 H 0.81672 0.58212 0.27273 0.0
H1486 H 0.80501 0.61383 0.2744 0.0
H1487 H 0.84943 0.65127 0.25462 0.0
H1488 H 0.82553 0.74349 0.26365 0.0
H1489 H 0.83579 0.71148 0.26444 0.0
H1490 H 0.79041 0.67464 0.28673 0.0
C1491 C 0.82009 0.61123 0.27618 0.0
C1492 C 0.83664 0.65631 0.26187 0.0
C1493 C 0.82681 0.59308 0.27519 0.0
C1494 C 0.81481 0.73283 0.26293 0.0
C1495 C 0.82071 0.71445 0.26333 0.0
C1496 C 0.80318 0.6696 0.27945 0.0
C1497 C 0.83295 0.62589 0.27765 0.0
C1498 C 0.82646 0.64502 0.27454 0.0
C1499 C 0.80722 0.70021 0.26369 0.0
C1500 C 0.81342 0.68094 0.26682 0.0
H1501 H 0.87434 0.60145 0.27966 0.0
H1502 H 0.86254 0.63314 0.28149 0.0
H1503 H 0.80153 0.64332 0.29306 0.0
H1504 H 0.7667 0.72613 0.26194 0.0
H1505 H 0.77709 0.69394 0.2622 0.0
C1506 C 0.69978 0.43556 0.80114 0.0
C1507 C 0.70203 0.4531 0.79316 0.0
C1508 C 0.71555 0.42407 0.80348 0.0
C1509 C 0.76143 0.41416 0.78121 0.0
H1510 H 0.7631 0.37787 0.82103 0.0
C1511 C 0.79175 0.33633 0.79963 0.0
C1512 C 0.78569 0.32781 0.78301 0.0
C1513 C 0.78924 0.35532 0.80233 0.0
C1514 C 0.76332 0.38812 0.81 0.0
H1515 H 0.72264 0.47278 0.7822 0.0
H1516 H 0.75027 0.45251 0.78614 0.0
H1517 H 0.74325 0.40527 0.82518 0.0
H1518 H 0.77407 0.3327 0.75544 0.0
H1519 H 0.76942 0.36558 0.76022 0.0
H1520 H 0.78085 0.39658 0.76568 0.0
C1521 C 0.73628 0.44769 0.79054 0.0
C1522 C 0.75174 0.40373 0.81231 0.0
C1523 C 0.72047 0.45926 0.78831 0.0
C1524 C 0.77871 0.33883 0.76849 0.0
C1525 C 0.77622 0.35777 0.77117 0.0
C1526 C 0.77306 0.39856 0.77891 0.0
C1527 C 0.73391 0.42984 0.79782 0.0
C1528 C 0.74988 0.41636 0.79754 0.0
C1529 C 0.78067 0.36609 0.78844 0.0
C1530 C 0.77329 0.38488 0.79286 0.0
H1531 H 0.68577 0.43047 0.8051 0.0
H1532 H 0.71319 0.41029 0.80885 0.0
H1533 H 0.76033 0.42368 0.76958 0.0
H1534 H 0.79737 0.32822 0.81102 0.0
H1535 H 0.79305 0.3614 0.81567 0.0
C1536 C 0.01549 0.8306 0.9368 0.0
C1537 C 0.01817 0.83 0.91712 0.0
C1538 C 0.01454 0.84759 0.9464 0.0
C1539 C 0.00441 0.89717 0.93931 0.0
H1540 H 0.03462 0.90479 0.98359 0.0
C1541 C 0.01354 0.96991 0.97172 0.0
C1542 C 0.01394 0.97139 0.99144 0.0
C1543 C 0.0142 0.95256 0.96288 0.0
C1544 C 0.02586 0.90288 0.9714 0.0
H1545 H 0.02159 0.84691 0.89211 0.0
H1546 H 0.01974 0.87627 0.90876 0.0
H1547 H 0.03446 0.87452 0.96837 0.0
H1548 H 0.0154 0.95571 0.01732 0.0
H1549 H 0.01611 0.92563 0.00203 0.0
H1550 H -0.00444 0.92535 0.94237 0.0
C1551 C 0.01838 0.86367 0.91681 0.0
C1552 C 0.0258 0.88549 0.96268 0.0
C1553 C 0.01956 0.84677 0.90728 0.0
C1554 C 0.01521 0.95512 0.00208 0.0
C1555 C 0.01572 0.93781 0.99328 0.0
C1556 C 0.00432 0.9145 0.94811 0.0
C1557 C 0.01595 0.86432 0.93648 0.0
C1558 C 0.01519 0.88247 0.94644 0.0
C1559 C 0.01512 0.93624 0.97355 0.0
C1560 C 0.01516 0.91767 0.96422 0.0
H1561 H 0.0144 0.81795 0.94481 0.0
H1562 H 0.01254 0.84765 0.96158 0.0
H1563 H -0.00411 0.89524 0.92695 0.0
H1564 H 0.0126 0.98215 0.9631 0.0
H1565 H 0.01406 0.95198 0.94765 0.0
C1566 C 0.95715 0.26034 0.66699 0.0
C1567 C 0.97232 0.26859 0.67629 0.0
C1568 C 0.94001 0.2568 0.6767 0.0
C1569 C 0.90161 0.2616 0.69581 0.0
H1570 H 0.89973 0.25607 0.75004 0.0
C1571 C 0.8323 0.27459 0.73799 0.0
C1572 C 0.829 0.26541 0.75506 0.0
C1573 C 0.84975 0.27272 0.72837 0.0
C1574 C 0.89988 0.25723 0.73486 0.0
H1575 H 0.98166 0.27973 0.70282 0.0
H1576 H 0.95148 0.27487 0.71944 0.0
H1577 H 0.93024 0.25528 0.73339 0.0
H1578 H 0.84097 0.24669 0.77533 0.0
H1579 H 0.87119 0.24245 0.75799 0.0
H1580 H 0.87124 0.26235 0.6971 0.0
C1581 C 0.95287 0.2702 0.70497 0.0
C1582 C 0.91751 0.25717 0.72529 0.0
C1583 C 0.97017 0.27319 0.69541 0.0
C1584 C 0.84331 0.25404 0.76224 0.0
C1585 C 0.86065 0.25173 0.75233 0.0
C1586 C 0.88399 0.26112 0.7053 0.0
C1587 C 0.93748 0.26203 0.69574 0.0
C1588 C 0.91867 0.25991 0.70569 0.0
C1589 C 0.86416 0.26116 0.7353 0.0
C1590 C 0.88287 0.25952 0.72503 0.0
H1591 H 0.95861 0.25647 0.65227 0.0
H1592 H 0.92876 0.25005 0.66918 0.0
H1593 H 0.90175 0.26393 0.68077 0.0
H1594 H 0.82152 0.28361 0.73228 0.0
H1595 H 0.85199 0.28067 0.71566 0.0
C1596 C 0.50579 0.21289 0.44685 0.0
C1597 C 0.50634 0.21517 0.4272 0.0
C1598 C 0.50288 0.19537 0.45473 0.0
C1599 C 0.50875 0.15555 0.46716 0.0
H1600 H 0.47714 0.11967 0.44223 0.0
C1601 C 0.51238 0.07812 0.48548 0.0
C1602 C 0.49555 0.0677 0.48513 0.0
C1603 C 0.51267 0.09629 0.47891 0.0
C1604 C 0.48586 0.12953 0.44955 0.0
H1605 H 0.50408 0.20081 0.40047 0.0
H1606 H 0.49951 0.1705 0.41406 0.0
H1607 H 0.47837 0.15117 0.43072 0.0
H1608 H 0.4658 0.06825 0.47759 0.0
H1609 H 0.46616 0.10007 0.46653 0.0
H1610 H 0.51581 0.13404 0.48633 0.0
C1611 C 0.50087 0.18217 0.4235 0.0
C1612 C 0.48678 0.14761 0.44277 0.0
C1613 C 0.50364 0.19962 0.41567 0.0
C1614 C 0.47904 0.07585 0.47793 0.0
C1615 C 0.47928 0.09411 0.47152 0.0
C1616 C 0.50771 0.1375 0.47405 0.0
C1617 C 0.50055 0.17973 0.44314 0.0
C1618 C 0.49846 0.16083 0.45129 0.0
C1619 C 0.4961 0.10463 0.47198 0.0
C1620 C 0.49646 0.12414 0.46518 0.0
H1621 H 0.50779 0.22459 0.45613 0.0
H1622 H 0.50246 0.19412 0.46992 0.0
H1623 H 0.51804 0.16523 0.47404 0.0
H1624 H 0.52541 0.07225 0.49083 0.0
H1625 H 0.52601 0.10372 0.47913 0.0
C1626 C 0.56537 0.80373 0.18384 0.0
C1627 C 0.56572 0.8006 0.16433 0.0
C1628 C 0.58188 0.80159 0.1941 0.0
C1629 C 0.63421 0.79659 0.19113 0.0
H1630 H 0.62576 0.76827 0.23677 0.0
C1631 C 0.69578 0.77039 0.23698 0.0
C1632 C 0.69338 0.77395 0.2564 0.0
C1633 C 0.68062 0.77283 0.22484 0.0
C1634 C 0.62833 0.77626 0.22412 0.0
H1635 H 0.58382 0.79405 0.13997 0.0
H1636 H 0.61282 0.7901 0.15803 0.0
H1637 H 0.59893 0.7758 0.2171 0.0
H1638 H 0.67294 0.78263 0.27821 0.0
H1639 H 0.64656 0.78658 0.25716 0.0
H1640 H 0.66371 0.79702 0.19831 0.0
C1641 C 0.59975 0.79429 0.16535 0.0
C1642 C 0.61297 0.78065 0.2129 0.0
C1643 C 0.58318 0.79656 0.15502 0.0
C1644 C 0.6753 0.77945 0.26344 0.0
C1645 C 0.66016 0.78178 0.25135 0.0
C1646 C 0.64964 0.79216 0.20239 0.0
C1647 C 0.59906 0.79613 0.18507 0.0
C1648 C 0.61569 0.79112 0.19646 0.0
C1649 C 0.66271 0.77872 0.23191 0.0
C1650 C 0.64676 0.78218 0.21914 0.0
H1651 H 0.55213 0.80709 0.19132 0.0
H1652 H 0.58104 0.8036 0.20922 0.0
H1653 H 0.63671 0.80469 0.17854 0.0
H1654 H 0.70941 0.76583 0.23111 0.0
H1655 H 0.68289 0.77012 0.20994 0.0
C1656 C 0.04626 0.21652 0.61932 0.0
C1657 C 0.0357 0.23056 0.61071 0.0
C1658 C 0.04882 0.19939 0.61045 0.0
C1659 C 0.05922 0.16699 0.58455 0.0
H1660 H 0.01453 0.14648 0.56132 0.0
C1661 C 0.06045 0.09801 0.54275 0.0
C1662 C 0.04477 0.08631 0.54577 0.0
C1663 C 0.06032 0.11587 0.55027 0.0
C1664 C 0.02711 0.15197 0.56783 0.0
H1665 H 0.02027 0.23787 0.58567 0.0
H1666 H 0.02495 0.20813 0.57016 0.0
H1667 H 0.01289 0.17727 0.57507 0.0
H1668 H 0.01702 0.08394 0.55969 0.0
H1669 H 0.01679 0.115 0.57279 0.0
H1670 H 0.07324 0.14137 0.57772 0.0
C1671 C 0.03091 0.21023 0.58392 0.0
C1672 C 0.02625 0.16971 0.5755 0.0
C1673 C 0.0283 0.2273 0.59279 0.0
C1674 C 0.02913 0.09274 0.55674 0.0
C1675 C 0.029 0.11054 0.56426 0.0
C1676 C 0.06009 0.14919 0.57685 0.0
C1677 C 0.04092 0.19598 0.59279 0.0
C1678 C 0.04225 0.17739 0.58403 0.0
C1679 C 0.04451 0.12236 0.56098 0.0
C1680 C 0.04397 0.14145 0.56857 0.0
H1681 H 0.05216 0.21858 0.63311 0.0
H1682 H 0.05645 0.18863 0.61771 0.0
H1683 H 0.07183 0.1726 0.59089 0.0
H1684 H 0.07263 0.0935 0.53422 0.0
H1685 H 0.07241 0.12474 0.54737 0.0
C1686 C 0.59553 0.26531 0.38818 0.0
C1687 C 0.5797 0.25905 0.37831 0.0
C1688 C 0.61387 0.26396 0.38005 0.0
C1689 C 0.64324 0.23976 0.34426 0.0
H1690 H 0.67113 0.28565 0.34062 0.0
C1691 C 0.71023 0.24774 0.29565 0.0
C1692 C 0.72441 0.26003 0.30128 0.0
C1693 C 0.69307 0.24641 0.30606 0.0
C1694 C 0.6638 0.27259 0.3418 0.0
H1695 H 0.57064 0.24573 0.35263 0.0
H1696 H 0.60273 0.24306 0.33865 0.0
H1697 H 0.64074 0.28493 0.3578 0.0
H1698 H 0.73227 0.27981 0.3227 0.0
H1699 H 0.70293 0.27692 0.34124 0.0
H1700 H 0.66638 0.22728 0.32854 0.0
C1701 C 0.60094 0.24912 0.35256 0.0
C1702 C 0.64632 0.27224 0.35162 0.0
C1703 C 0.5826 0.25077 0.36052 0.0
C1704 C 0.72144 0.27045 0.31783 0.0
C1705 C 0.70453 0.26886 0.32841 0.0
C1706 C 0.66091 0.24002 0.33469 0.0
C1707 C 0.61669 0.256 0.3621 0.0
C1708 C 0.63581 0.25588 0.3528 0.0
C1709 C 0.68993 0.25709 0.32251 0.0
C1710 C 0.67137 0.25649 0.3332 0.0
H1711 H 0.59371 0.27174 0.40189 0.0
H1712 H 0.62584 0.26929 0.38771 0.0
H1713 H 0.63539 0.22695 0.34507 0.0
H1714 H 0.71216 0.23955 0.28293 0.0
H1715 H 0.68212 0.23735 0.30092 0.0
C1716 C 0.48872 0.8511 0.11781 0.0
C1717 C 0.48573 0.83343 0.11043 0.0
C1718 C 0.48226 0.86665 0.10838 0.0
C1719 C 0.46729 0.88087 0.06062 0.0
H1720 H 0.46459 0.92813 0.08626 0.0
C1721 C 0.48719 0.94681 0.02209 0.0
C1722 C 0.48176 0.96411 0.02938 0.0
C1723 C 0.48167 0.93074 0.03134 0.0
C1724 C 0.46478 0.91513 0.07871 0.0
H1725 H 0.47253 0.81786 0.08824 0.0
H1726 H 0.45993 0.84492 0.07237 0.0
H1727 H 0.46397 0.90019 0.10446 0.0
H1728 H 0.46528 0.97838 0.05119 0.0
H1729 H 0.45438 0.95028 0.06671 0.0
H1730 H 0.46674 0.89574 0.03486 0.0
C1731 C 0.46814 0.847 0.08489 0.0
C1732 C 0.46489 0.89895 0.08927 0.0
C1733 C 0.47522 0.83144 0.09403 0.0
C1734 C 0.46982 0.96512 0.04547 0.0
C1735 C 0.46373 0.94898 0.05442 0.0
C1736 C 0.46641 0.89701 0.05005 0.0
C1737 C 0.47206 0.8649 0.09161 0.0
C1738 C 0.46734 0.88164 0.08042 0.0
C1739 C 0.47006 0.93153 0.04783 0.0
C1740 C 0.46634 0.91443 0.05892 0.0
H1741 H 0.49692 0.85297 0.13041 0.0
H1742 H 0.48612 0.88001 0.11391 0.0
H1743 H 0.46906 0.86794 0.05308 0.0
H1744 H 0.49655 0.94571 0.00976 0.0
H1745 H 0.48736 0.91779 0.02594 0.0
C1746 C 0.95431 0.76057 0.86331 0.0
C1747 C 0.96765 0.77269 0.85506 0.0
C1748 C 0.93661 0.75774 0.85507 0.0
C1749 C 0.91206 0.76337 0.80964 0.0
H1750 H 0.86585 0.75959 0.84045 0.0
C1751 C 0.83689 0.77207 0.77978 0.0
C1752 C 0.82246 0.76016 0.78628 0.0
C1753 C 0.85484 0.77184 0.78786 0.0
C1754 C 0.87867 0.76038 0.83167 0.0
H1755 H 0.9726 0.79165 0.83191 0.0
H1756 H 0.94179 0.78703 0.81789 0.0
H1757 H 0.89658 0.7628 0.85553 0.0
H1758 H 0.81568 0.73844 0.80623 0.0
H1759 H 0.8471 0.7381 0.82039 0.0
H1760 H 0.89409 0.76138 0.78579 0.0
C1761 C 0.9451 0.77934 0.83043 0.0
C1762 C 0.89629 0.7622 0.84031 0.0
C1763 C 0.96276 0.78209 0.83858 0.0
C1764 C 0.8265 0.74777 0.80085 0.0
C1765 C 0.84444 0.74765 0.80906 0.0
C1766 C 0.89446 0.76166 0.80103 0.0
C1767 C 0.93185 0.767 0.83844 0.0
C1768 C 0.91318 0.76397 0.82939 0.0
C1769 C 0.85876 0.75979 0.80274 0.0
C1770 C 0.87755 0.76036 0.81193 0.0
H1771 H 0.95764 0.75306 0.87596 0.0
H1772 H 0.92681 0.74803 0.86154 0.0
H1773 H 0.92481 0.76425 0.80078 0.0
H1774 H 0.83423 0.78181 0.76861 0.0
H1775 H 0.86551 0.78148 0.7828 0.0
C1776 C 0.94246 0.03564 0.78997 0.0
C1777 C 0.92465 0.04415 0.7874 0.0
C1778 C 0.95034 0.03502 0.80782 0.0
C1779 C 0.93662 0.03886 0.85831 0.0
H1780 H 0.99084 0.04575 0.86478 0.0
C1781 C 0.97093 0.03127 0.93074 0.0
C1782 C 0.98458 0.04455 0.93539 0.0
C1783 C 0.96432 0.02996 0.9124 0.0
C1784 C 0.97564 0.0439 0.86322 0.0
H1785 H 0.90144 0.0592 0.80141 0.0
H1786 H 0.91539 0.05852 0.83237 0.0
H1787 H 0.97789 0.04682 0.8333 0.0
H1788 H 0.00236 0.06652 0.92414 0.0
H1789 H 0.99035 0.0647 0.89249 0.0
H1790 H 0.93423 0.03669 0.88825 0.0
C1791 C 0.92304 0.05189 0.82073 0.0
C1792 C 0.96826 0.0443 0.84516 0.0
C1793 C 0.91511 0.05239 0.80294 0.0
C1794 C 0.99163 0.05633 0.9212 0.0
C1795 C 0.98495 0.05509 0.90293 0.0
C1796 C 0.94397 0.03858 0.87637 0.0
C1797 C 0.94062 0.04299 0.82343 0.0
C1798 C 0.94864 0.04195 0.84252 0.0
C1799 C 0.97116 0.04196 0.89832 0.0
C1800 C 0.96354 0.04125 0.87905 0.0
H1801 H 0.95012 0.02909 0.77828 0.0
H1802 H 0.96382 0.02791 0.80946 0.0
H1803 H 0.92147 0.03669 0.85674 0.0
H1804 H 0.96509 0.02206 0.94131 0.0
H1805 H 0.95384 0.01955 0.90926 0.0
C1806 C 0.76478 0.18777 0.56376 0.0
C1807 C 0.76466 0.16862 0.56684 0.0
C1808 C 0.76161 0.2001 0.57874 0.0
C1809 C 0.74143 0.20232 0.62735 0.0
H1810 H 0.77301 0.24578 0.63197 0.0
C1811 C 0.75143 0.24034 0.69724 0.0
C1812 C 0.75136 0.25972 0.69727 0.0
C1813 C 0.75086 0.23052 0.68036 0.0
C1814 C 0.76388 0.23386 0.6307 0.0
H1815 H 0.76141 0.14741 0.58813 0.0
H1816 H 0.75629 0.16884 0.6142 0.0
H1817 H 0.77663 0.22601 0.60413 0.0
H1818 H 0.75042 0.28405 0.67975 0.0
H1819 H 0.74957 0.26678 0.64998 0.0
H1820 H 0.72914 0.20985 0.65421 0.0
C1821 C 0.7584 0.17436 0.60017 0.0
C1822 C 0.76594 0.22254 0.61477 0.0
C1823 C 0.76149 0.16207 0.58522 0.0
C1824 C 0.75039 0.26912 0.68008 0.0
C1825 C 0.75004 0.25927 0.6631 0.0
C1826 C 0.73946 0.21356 0.64329 0.0
C1827 C 0.7583 0.19351 0.59709 0.0
C1828 C 0.755 0.20644 0.61312 0.0
C1829 C 0.75034 0.23987 0.66311 0.0
C1830 C 0.75092 0.22923 0.64528 0.0
H1831 H 0.7671 0.19328 0.54974 0.0
H1832 H 0.76149 0.21477 0.57589 0.0
H1833 H 0.73247 0.19026 0.6263 0.0
H1834 H 0.75194 0.23276 0.71032 0.0
H1835 H 0.7513 0.21558 0.68077 0.0
C1836 C 0.60178 -0.00439 0.33186 0.0
C1837 C 0.58966 0.00059 0.31721 0.0
C1838 C 0.59433 0.99214 0.34984 0.0
C1839 C 0.55083 0.97953 0.37598 0.0
H1840 H 0.57281 0.0069 0.41709 0.0
C1841 C 0.51068 0.99402 0.44566 0.0
C1842 C 0.52098 -0.00354 0.46218 0.0
C1843 C 0.52018 0.99043 0.42857 0.0
C1844 C 0.56677 -0.00123 0.40591 0.0
H1845 H 0.56023 0.00547 0.30983 0.0
H1846 H 0.54719 -0.00069 0.34139 0.0
H1847 H 0.58728 0.00875 0.38572 0.0
H1848 H 0.54916 -0.00435 0.47408 0.0
H1849 H 0.56576 0.98886 0.44424 0.0
H1850 H 0.53022 0.96963 0.39612 0.0
C1851 C 0.56244 -0.00192 0.33883 0.0
C1852 C 0.57501 -6e-05 0.38792 0.0
C1853 C 0.56991 0.00176 0.32085 0.0
C1854 C 0.54087 0.99405 0.46152 0.0
C1855 C 0.55037 0.99026 0.44442 0.0
C1856 C 0.5427 0.97818 0.39404 0.0
C1857 C 0.57462 0.99337 0.35348 0.0
C1858 C 0.56686 0.99066 0.37274 0.0
C1859 C 0.54017 0.98901 0.42767 0.0
C1860 C 0.55031 0.98814 0.40912 0.0
H1861 H 0.61707 0.99457 0.3295 0.0
H1862 H 0.60397 0.98846 0.36092 0.0
H1863 H 0.54448 0.97205 0.36449 0.0
H1864 H 0.49532 -0.00423 0.44573 0.0
H1865 H 0.51187 0.98978 0.41594 0.0
C1866 C 0.78271 0.86776 0.08798 0.0
C1867 C 0.77009 0.85975 0.0753 0.0
C1868 C 0.78473 0.8605 0.10603 0.0
C1869 C 0.77274 0.81969 0.13622 0.0
H1870 H 0.78052 0.85489 0.1766 0.0
C1871 C 0.76268 0.8022 0.2155 0.0
C1872 C 0.7775 0.8076 0.2273 0.0
C1873 C 0.76236 0.80807 0.19677 0.0
C1874 C 0.77849 0.84489 0.16545 0.0
H1875 H 0.74992 0.83762 0.07147 0.0
H1876 H 0.75285 0.82532 0.10317 0.0
H1877 H 0.77894 0.86569 0.14429 0.0
H1878 H 0.80346 0.82358 0.22872 0.0
H1879 H 0.80261 0.8342 0.19609 0.0
H1880 H 0.77159 0.79901 0.15773 0.0
C1881 C 0.76163 0.83693 0.0991 0.0
C1882 C 0.7777 0.85103 0.14685 0.0
C1883 C 0.75988 0.84401 0.08089 0.0
C1884 C 0.79186 0.81918 0.22 0.0
C1885 C 0.79135 0.8253 0.20135 0.0
C1886 C 0.77324 0.81359 0.15488 0.0
C1887 C 0.77388 0.84525 0.11205 0.0
C1888 C 0.77489 0.83853 0.13191 0.0
C1889 C 0.77666 0.81971 0.18951 0.0
C1890 C 0.77617 0.82613 0.16968 0.0
H1891 H 0.79092 0.87981 0.08403 0.0
H1892 H 0.79472 0.86702 0.1153 0.0
H1893 H 0.77088 0.80955 0.12517 0.0
H1894 H 0.75144 0.79323 0.22066 0.0
H1895 H 0.75078 0.80367 0.18802 0.0
C1896 C 0.904 0.07213 0.68255 0.0
C1897 C 0.88598 0.06486 0.68714 0.0
C1898 C 0.91104 0.07148 0.66402 0.0
C1899 C 0.90796 0.04098 0.62407 0.0
H1900 H 0.94181 0.0762 0.59984 0.0
C1901 C 0.95234 0.02165 0.55758 0.0
C1902 C 0.97137 0.02758 0.5572 0.0
C1903 C 0.93939 0.02854 0.57115 0.0
C1904 C 0.93245 0.0662 0.60648 0.0
H1905 H 0.86046 0.05276 0.67577 0.0
H1906 H 0.87287 0.05152 0.64335 0.0
H1907 H 0.92259 0.08565 0.62745 0.0
H1908 H 0.9918 0.04538 0.57065 0.0
H1909 H 0.96941 0.05687 0.59475 0.0
H1910 H 0.91845 0.02124 0.6039 0.0
C1911 C 0.88159 0.05755 0.65414 0.0
C1912 C 0.92137 0.07166 0.62217 0.0
C1913 C 0.87449 0.0583 0.67266 0.0
C1914 C 0.97722 0.04051 0.57063 0.0
C1915 C 0.96432 0.04727 0.58429 0.0
C1916 C 0.91911 0.03549 0.6085 0.0
C1917 C 0.9002 0.06348 0.6498 0.0
C1918 C 0.90937 0.05896 0.63136 0.0
C1919 C 0.94525 0.04137 0.5847 0.0
C1920 C 0.93184 0.0479 0.59981 0.0
H1921 H 0.9131 0.07742 0.69341 0.0
H1922 H 0.92548 0.07606 0.66111 0.0
H1923 H 0.89907 0.0308 0.63105 0.0
H1924 H 0.94734 0.01189 0.54724 0.0
H1925 H 0.92475 0.02389 0.57092 0.0
C1926 C 0.79368 0.16796 0.43858 0.0
C1927 C 0.78975 0.177 0.45578 0.0
C1928 C 0.7997 0.17792 0.42283 0.0
C1929 C 0.79729 0.22453 0.40334 0.0
H1930 H 0.83034 0.20284 0.36445 0.0
C1931 C 0.80491 0.25873 0.33172 0.0
C1932 C 0.79978 0.24677 0.31706 0.0
C1933 C 0.80986 0.25169 0.34917 0.0
C1934 C 0.82123 0.20912 0.37527 0.0
H1935 H 0.78965 0.20344 0.47023 0.0
H1936 H 0.80048 0.22088 0.44271 0.0
H1937 H 0.82715 0.18784 0.39508 0.0
H1938 H 0.79745 0.21806 0.30863 0.0
H1939 H 0.80597 0.20578 0.33918 0.0
H1940 H 0.79093 0.24548 0.38341 0.0
C1941 C 0.79856 0.20612 0.44132 0.0
C1942 C 0.81931 0.20052 0.39275 0.0
C1943 C 0.79235 0.19615 0.45706 0.0
C1944 C 0.80119 0.22762 0.3197 0.0
C1945 C 0.80621 0.22058 0.33716 0.0
C1946 C 0.79934 0.23319 0.38596 0.0
C1947 C 0.8021 0.19713 0.42397 0.0
C1948 C 0.80678 0.20779 0.40673 0.0
C1949 C 0.80986 0.23258 0.35224 0.0
C1950 C 0.81083 0.22525 0.37156 0.0
H1951 H 0.79181 0.15319 0.43718 0.0
H1952 H 0.80191 0.17059 0.40961 0.0
H1953 H 0.78735 0.2304 0.41367 0.0
H1954 H 0.80418 0.27357 0.33005 0.0
H1955 H 0.81285 0.26121 0.36052 0.0
C1956 C 0.62585 0.0052 0.199 0.0
C1957 C 0.61962 0.99236 0.21248 0.0
C1958 C 0.61532 0.00814 0.18284 0.0
C1959 C 0.56584 0.00257 0.1671 0.0
H1960 H 0.58707 0.01899 0.11918 0.0
C1961 C 0.52255 0.01159 0.09959 0.0
C1962 C 0.52532 0.02817 0.08982 0.0
C1963 C 0.53381 0.00725 0.11486 0.0
C1964 C 0.58101 0.01454 0.13257 0.0
H1965 H 0.59872 0.97134 0.21902 0.0
H1966 H 0.58093 0.97569 0.19037 0.0
H1967 H 0.60846 0.00931 0.14394 0.0
H1968 H 0.54172 0.05336 0.08837 0.0
H1969 H 0.56169 0.04566 0.11509 0.0
H1970 H 0.53839 0.00741 0.15546 0.0
C1971 C 0.59338 0.98412 0.19257 0.0
C1972 C 0.59321 0.009 0.14674 0.0
C1973 C 0.60368 0.98145 0.20887 0.0
C1974 C 0.53919 0.0406 0.09587 0.0
C1975 C 0.5507 0.03612 0.11095 0.0
C1976 C 0.55367 0.00783 0.15284 0.0
C1977 C 0.59858 -0.00195 0.17977 0.0
C1978 C 0.58577 0.00302 0.16422 0.0
C1979 C 0.54826 0.01929 0.12038 0.0
C1980 C 0.56115 0.01396 0.13552 0.0
H1981 H 0.63805 0.01388 0.20155 0.0
H1982 H 0.61971 0.01906 0.17336 0.0
H1983 H 0.55956 -0.00148 0.18052 0.0
H1984 H 0.51192 0.00184 0.0951 0.0
H1985 H 0.53172 0.99417 0.12192 0.0
C1986 C 0.75841 0.85103 0.95789 0.0
C1987 C 0.75653 0.87036 0.9582 0.0
C1988 C 0.75912 0.84136 0.94069 0.0
C1989 C 0.77024 0.84706 0.89005 0.0
H1990 H 0.73711 0.80511 0.88307 0.0
C1991 C 0.76125 0.8139 0.81656 0.0
C1992 C 0.75952 0.79461 0.81564 0.0
C1993 C 0.76047 0.8231 0.83398 0.0
C1994 C 0.74668 0.81663 0.8848 0.0
H1995 H 0.75439 0.89469 0.94063 0.0
H1996 H 0.75591 0.87792 0.91089 0.0
H1997 H 0.73775 0.82052 0.91367 0.0
H1998 H 0.75553 0.76988 0.83236 0.0
H1999 H 0.7547 0.78574 0.86253 0.0
H2000 H 0.77949 0.84309 0.8614 0.0
C2001 C 0.75676 0.8702 0.92386 0.0
C2002 C 0.74701 0.82546 0.90238 0.0
C2003 C 0.75577 0.8798 0.94096 0.0
C2004 C 0.75675 0.78478 0.8325 0.0
C2005 C 0.75617 0.79392 0.84988 0.0
C2006 C 0.77009 0.83812 0.87255 0.0
C2007 C 0.7583 0.85088 0.9235 0.0
C2008 C 0.7587 0.84085 0.90516 0.0
C2009 C 0.75816 0.81321 0.85092 0.0
C2010 C 0.75822 0.82283 0.86961 0.0
H2011 H 0.75899 0.84335 0.97091 0.0
H2012 H 0.76042 0.82646 0.94083 0.0
H2013 H 0.77955 0.85879 0.89183 0.0
H2014 H 0.76337 0.82189 0.80385 0.0
H2015 H 0.7617 0.83798 0.83414 0.0
C2016 C 0.81973 0.9274 0.02612 0.0
C2017 C 0.8066 0.93414 0.01315 0.0
C2018 C 0.83728 0.93614 0.02832 0.0
C2019 C 0.86185 0.98056 0.0187 0.0
H2020 H 0.90769 0.95167 0.02642 0.0
C2021 C 0.93814 0.00978 0.01023 0.0
C2022 C 0.95149 0.00448 0.02364 0.0
C2023 C 0.91997 0.00195 0.01033 0.0
C2024 C 0.89496 0.95993 0.02449 0.0
H2025 H 0.80184 0.95505 0.99198 0.0
H2026 H 0.83251 0.96989 0.99544 0.0
H2027 H 0.87717 0.93609 0.02359 0.0
H2028 H 0.95606 0.98715 0.04798 0.0
H2029 H 0.92438 0.97346 0.04806 0.0
H2030 H 0.87982 0.00435 0.01913 0.0
C2031 C 0.8291 0.9582 0.00432 0.0
C2032 C 0.87746 0.95101 0.0229 0.0
C2033 C 0.81154 0.94958 0.00223 0.0
C2034 C 0.94612 0.99155 0.03745 0.0
C2035 C 0.92802 0.9836 0.03743 0.0
C2036 C 0.87938 0.98945 0.02013 0.0
C2037 C 0.84213 0.95172 0.01751 0.0
C2038 C 0.86069 0.9612 0.01986 0.0
C2039 C 0.91485 0.98854 0.02373 0.0
C2040 C 0.89612 0.97922 0.02295 0.0
H2041 H 0.81631 0.91558 0.03482 0.0
H2042 H 0.84688 0.93088 0.03876 0.0
H2043 H 0.84919 0.98889 0.01676 0.0
H2044 H 0.94184 0.01968 -0.0006 0.0
H2045 H 0.91015 0.00593 -0.00048 0.0
C2046 C 0.32517 0.5815 0.00834 0.0
C2047 C 0.32137 0.60026 0.00508 0.0
C2048 C 0.34175 0.57321 0.00086 0.0
C2049 C 0.37319 0.55721 0.97512 0.0
H2050 H 0.42052 0.58276 0.98399 0.0
C2051 C 0.46083 0.5484 0.97295 0.0
C2052 C 0.46152 0.53145 0.98242 0.0
C2053 C 0.44331 0.55607 0.96818 0.0
C2054 C 0.40748 0.57559 0.98082 0.0
H2055 H 0.33201 0.62503 0.9914 0.0
H2056 H 0.36093 0.61057 0.97854 0.0
H2057 H 0.39044 0.59799 0.99156 0.0
H2058 H 0.44475 0.50815 0.99212 0.0
H2059 H 0.41429 0.52171 0.98439 0.0
H2060 H 0.39034 0.53454 0.96494 0.0
C2061 C 0.35111 0.6023 0.98688 0.0
C2062 C 0.3902 0.58432 0.98531 0.0
C2063 C 0.33454 0.61057 0.99428 0.0
C2064 C 0.44466 0.52132 0.98498 0.0
C2065 C 0.42714 0.52909 0.98043 0.0
C2066 C 0.39052 0.54848 0.9705 0.0
C2067 C 0.35487 0.58354 0.99006 0.0
C2068 C 0.37292 0.57503 0.98304 0.0
C2069 C 0.42622 0.54704 0.97305 0.0
C2070 C 0.40788 0.55737 0.97387 0.0
H2071 H 0.31529 0.57316 0.01652 0.0
H2072 H 0.34446 0.55879 0.00381 0.0
H2073 H 0.36002 0.54987 0.97292 0.0
H2074 H 0.47367 0.55636 0.97048 0.0
H2075 H 0.44309 0.56969 0.96198 0.0
C2076 C 0.17733 0.55988 0.7542 0.0
C2077 C 0.15751 0.56266 0.75566 0.0
C2078 C 0.18963 0.5749 0.75316 0.0
C2079 C 0.19099 0.62557 0.74527 0.0
H2080 H 0.23713 0.62219 0.77412 0.0
C2081 C 0.2353 0.68886 0.76545 0.0
C2082 C 0.25493 0.68764 0.76119 0.0
C2083 C 0.22383 0.67328 0.7642 0.0
C2084 C 0.22437 0.62323 0.7659 0.0
H2085 H 0.13497 0.5833 0.75675 0.0
H2086 H 0.15643 0.60954 0.75555 0.0
H2087 H 0.21616 0.59559 0.7722 0.0
H2088 H 0.2781 0.66921 0.75288 0.0
H2089 H 0.25802 0.64173 0.75104 0.0
H2090 H 0.199 0.6535 0.73958 0.0
C2091 C 0.16251 0.59578 0.75475 0.0
C2092 C 0.2124 0.608 0.76468 0.0
C2093 C 0.15019 0.58074 0.75553 0.0
C2094 C 0.26299 0.67046 0.75615 0.0
C2095 C 0.25156 0.6548 0.75517 0.0
C2096 C 0.20284 0.64088 0.74671 0.0
C2097 C 0.18239 0.59304 0.75383 0.0
C2098 C 0.19551 0.60901 0.75441 0.0
C2099 C 0.23185 0.65617 0.75893 0.0
C2100 C 0.21957 0.63984 0.7571 0.0
H2101 H 0.18338 0.54608 0.75405 0.0
H2102 H 0.20484 0.57228 0.75201 0.0
H2103 H 0.1783 0.62674 0.73696 0.0
H2104 H 0.2287 0.70198 0.76913 0.0
H2105 H 0.20868 0.6746 0.76732 0.0
C2106 C 0.18321 0.40058 0.51495 0.0
C2107 C 0.19859 0.41051 0.5221 0.0
C2108 C 0.16479 0.40806 0.51579 0.0
C2109 C 0.13315 0.44068 0.5402 0.0
H2110 H 0.10871 0.44557 0.49212 0.0
C2111 C 0.06368 0.48332 0.53144 0.0
C2112 C 0.05109 0.47771 0.51749 0.0
C2113 C 0.08133 0.47443 0.5332 0.0
C2114 C 0.11506 0.444 0.50576 0.0
H2115 H 0.2067 0.43566 0.53643 0.0
H2116 H 0.17432 0.44854 0.53829 0.0
H2117 H 0.13979 0.43071 0.49354 0.0
H2118 H 0.04651 0.45785 0.49517 0.0
H2119 H 0.07665 0.44178 0.49882 0.0
H2120 H 0.10825 0.45349 0.55258 0.0
C2121 C 0.17662 0.43507 0.53189 0.0
C2122 C 0.13295 0.43558 0.5065 0.0
C2123 C 0.19511 0.42775 0.53073 0.0
C2124 C 0.05609 0.46265 0.50586 0.0
C2125 C 0.07348 0.45353 0.50788 0.0
C2126 C 0.11502 0.44881 0.53953 0.0
C2127 C 0.16138 0.42542 0.52413 0.0
C2128 C 0.14218 0.4339 0.52369 0.0
C2129 C 0.08656 0.45954 0.52128 0.0
C2130 C 0.10574 0.45063 0.52227 0.0
H2131 H 0.18546 0.38726 0.50822 0.0
H2132 H 0.15322 0.40035 0.50978 0.0
H2133 H 0.14002 0.43946 0.55363 0.0
H2134 H 0.06016 0.49494 0.54057 0.0
H2135 H 0.09106 0.47962 0.54355 0.0
C2136 C 0.87546 0.97212 0.723 0.0
C2137 C 0.87018 0.98532 0.73674 0.0
C2138 C 0.86822 0.95423 0.724 0.0
C2139 C 0.8286 0.9278 0.74609 0.0
H2140 H 0.85908 0.88546 0.72996 0.0
C2141 C 0.80342 0.853 0.75626 0.0
C2142 C 0.80387 0.8423 0.73972 0.0
C2143 C 0.81268 0.86997 0.75675 0.0
C2144 C 0.85046 0.89721 0.73448 0.0
H2145 H 0.85378 0.99004 0.76264 0.0
H2146 H 0.84173 0.95876 0.76476 0.0
H2147 H 0.87318 0.91621 0.72937 0.0
H2148 H 0.81494 0.84045 0.71102 0.0
H2149 H 0.83136 0.87011 0.71192 0.0
H2150 H 0.80601 0.90869 0.75147 0.0
C2151 C 0.85091 0.9623 0.75285 0.0
C2152 C 0.85845 0.91481 0.73404 0.0
C2153 C 0.85789 0.98022 0.75169 0.0
C2154 C 0.81423 0.84857 0.72386 0.0
C2155 C 0.82373 0.8654 0.72443 0.0
C2156 C 0.82073 0.9102 0.74677 0.0
C2157 C 0.85579 0.94914 0.73891 0.0
C2158 C 0.84756 0.93033 0.73974 0.0
C2159 C 0.82279 0.87635 0.74079 0.0
C2160 C 0.83155 0.89479 0.74086 0.0
H2161 H 0.88486 0.97571 0.71127 0.0
H2162 H 0.87206 0.94454 0.71286 0.0
H2163 H 0.81966 0.93945 0.7502 0.0
H2164 H 0.79543 0.84848 0.76862 0.0
H2165 H 0.81185 0.87818 0.76954 0.0
C2166 C 0.70418 0.12234 0.4973 0.0
C2167 C 0.72151 0.11398 0.50209 0.0
C2168 C 0.68715 0.11253 0.49883 0.0
C2169 C 0.66495 0.07579 0.52564 0.0
H2170 H 0.62791 0.07483 0.48603 0.0
C2171 C 0.59579 0.03376 0.53296 0.0
C2172 C 0.57918 0.04151 0.52563 0.0
C2173 C 0.61352 0.04179 0.52924 0.0
C2174 C 0.63798 0.07516 0.49734 0.0
H2175 H 0.73472 0.08877 0.51193 0.0
H2176 H 0.70484 0.07173 0.51489 0.0
H2177 H 0.65827 0.09047 0.48075 0.0
H2178 H 0.56791 0.06385 0.50902 0.0
H2179 H 0.59872 0.07827 0.50298 0.0
H2180 H 0.64457 0.06114 0.54254 0.0
C2181 C 0.7045 0.08583 0.5099 0.0
C2182 C 0.65538 0.08403 0.49424 0.0
C2183 C 0.72156 0.09554 0.50811 0.0
C2184 C 0.58057 0.05748 0.51461 0.0
C2185 C 0.59824 0.06567 0.5111 0.0
C2186 C 0.64746 0.06714 0.52884 0.0
C2187 C 0.68715 0.0943 0.50542 0.0
C2188 C 0.66898 0.08443 0.50838 0.0
C2189 C 0.61495 0.05791 0.51833 0.0
C2190 C 0.63373 0.06675 0.51475 0.0
H2191 H 0.70374 0.13653 0.49258 0.0
H2192 H 0.67391 0.11938 0.49541 0.0
H2193 H 0.67514 0.07615 0.53686 0.0
H2194 H 0.59509 0.02131 0.54129 0.0
H2195 H 0.62611 0.03524 0.53475 0.0
C2196 C 0.16842 0.44413 0.79845 0.0
C2197 C 0.17565 0.4606 0.79092 0.0
C2198 C 0.18076 0.42999 0.80359 0.0
C2199 C 0.22828 0.41229 0.79103 0.0
H2200 H 0.21493 0.3759 0.8289 0.0
C2201 C 0.26503 0.34156 0.79163 0.0
C2202 C 0.2517 0.32725 0.79017 0.0
C2203 C 0.2591 0.35922 0.79723 0.0
C2204 C 0.21895 0.38607 0.81842 0.0
H2205 H 0.20145 0.47571 0.78394 0.0
H2206 H 0.22309 0.45106 0.79322 0.0
H2207 H 0.19834 0.40566 0.82897 0.0
H2208 H 0.22201 0.31983 0.79462 0.0
H2209 H 0.21168 0.35064 0.80436 0.0
H2210 H 0.24839 0.39246 0.78008 0.0
C2211 C 0.20786 0.44893 0.79478 0.0
C2212 C 0.20943 0.40304 0.81839 0.0
C2213 C 0.19548 0.46304 0.78948 0.0
C2214 C 0.23257 0.33063 0.79545 0.0
C2215 C 0.22669 0.34822 0.80123 0.0
C2216 C 0.23791 0.39541 0.79118 0.0
C2217 C 0.20062 0.43208 0.80146 0.0
C2218 C 0.21341 0.41599 0.80418 0.0
C2219 C 0.2398 0.36277 0.80169 0.0
C2220 C 0.23277 0.38187 0.80439 0.0
H2221 H 0.15319 0.44189 0.79978 0.0
H2222 H 0.17466 0.4171 0.80837 0.0
H2223 H 0.2316 0.42183 0.77977 0.0
H2224 H 0.2799 0.33931 0.78775 0.0
H2225 H 0.26947 0.37022 0.79755 0.0
C2226 C 0.32679 0.59605 0.2865 0.0
C2227 C 0.32312 0.5829 0.27251 0.0
C2228 C 0.31252 0.6083 0.29263 0.0
C2229 C 0.27455 0.63312 0.27188 0.0
H2230 H 0.27045 0.65574 0.32142 0.0
C2231 C 0.25418 0.70905 0.27867 0.0
C2232 C 0.26735 0.71894 0.28931 0.0
C2233 C 0.25285 0.68989 0.28036 0.0
C2234 C 0.2713 0.64954 0.30751 0.0
H2235 H 0.30133 0.57126 0.25493 0.0
H2236 H 0.27642 0.59313 0.26534 0.0
H2237 H 0.28351 0.62453 0.31797 0.0
H2238 H 0.28846 0.71671 0.31102 0.0
H2239 H 0.28663 0.68346 0.31352 0.0
H2240 H 0.26411 0.65854 0.2611 0.0
C2241 C 0.29031 0.59382 0.27163 0.0
C2242 C 0.27865 0.63165 0.30558 0.0
C2243 C 0.30455 0.58135 0.26569 0.0
C2244 C 0.27825 0.70948 0.30252 0.0
C2245 C 0.27702 0.69036 0.30412 0.0
C2246 C 0.26739 0.65105 0.27378 0.0
C2247 C 0.29437 0.60778 0.2847 0.0
C2248 C 0.2813 0.6237 0.28762 0.0
C2249 C 0.26475 0.68025 0.29263 0.0
C2250 C 0.26673 0.65985 0.29149 0.0
H2251 H 0.34094 0.59742 0.29212 0.0
H2252 H 0.31614 0.61905 0.30255 0.0
H2253 H 0.27652 0.62739 0.25784 0.0
H2254 H 0.2454 0.716 0.26853 0.0
H2255 H 0.24305 0.68255 0.27151 0.0
C2256 C 0.51339 0.71046 0.59932 0.0
C2257 C 0.5197 0.71063 0.61798 0.0
C2258 C 0.5098 0.6937 0.59009 0.0
C2259 C 0.49946 0.64438 0.59983 0.0
H2260 H 0.51664 0.63627 0.54815 0.0
C2261 C 0.50353 0.57158 0.56594 0.0
C2262 C 0.49932 0.56973 0.54678 0.0
C2263 C 0.50433 0.58907 0.57439 0.0
C2264 C 0.51148 0.63837 0.5625 0.0
H2265 H 0.52737 0.69311 0.64138 0.0
H2266 H 0.52127 0.6642 0.62535 0.0
H2267 H 0.52128 0.66633 0.56294 0.0
H2268 H 0.49207 0.58486 0.52163 0.0
H2269 H 0.49316 0.61524 0.53643 0.0
H2270 H 0.48978 0.61642 0.59948 0.0
C2271 C 0.51881 0.67697 0.6179 0.0
C2272 C 0.51416 0.65563 0.57098 0.0
C2273 C 0.52245 0.69363 0.62706 0.0
C2274 C 0.4954 0.58575 0.53642 0.0
C2275 C 0.49618 0.60322 0.54487 0.0
C2276 C 0.49675 0.62715 0.59135 0.0
C2277 C 0.51233 0.67674 0.59935 0.0
C2278 C 0.50841 0.65879 0.58984 0.0
C2279 C 0.50093 0.60515 0.56391 0.0
C2280 C 0.50291 0.62382 0.57264 0.0
H2281 H 0.5111 0.72327 0.59189 0.0
H2282 H 0.50473 0.69402 0.57582 0.0
H2283 H 0.49452 0.64641 0.61426 0.0
H2284 H 0.50675 0.55956 0.57432 0.0
H2285 H 0.50824 0.58999 0.58902 0.0
C2286 C 0.58773 0.25741 0.86718 0.0
C2287 C 0.58687 0.25592 0.88689 0.0
C2288 C 0.60522 0.25923 0.85768 0.0
C2289 C 0.6533 0.27615 0.86472 0.0
H2290 H 0.66487 0.25079 0.81753 0.0
C2291 C 0.72699 0.27843 0.82719 0.0
C2292 C 0.72762 0.27876 0.80739 0.0
C2293 C 0.70966 0.27656 0.83697 0.0
C2294 C 0.66171 0.25818 0.83055 0.0
H2295 H 0.60362 0.25445 0.9121 0.0
H2296 H 0.63436 0.25765 0.8954 0.0
H2297 H 0.63532 0.24398 0.83485 0.0
H2298 H 0.71053 0.27842 0.78236 0.0
H2299 H 0.68013 0.27548 0.79953 0.0
H2300 H 0.67961 0.29047 0.86036 0.0
C2301 C 0.62142 0.25757 0.88738 0.0
C2302 C 0.64487 0.25419 0.84051 0.0
C2303 C 0.60388 0.25562 0.8969 0.0
C2304 C 0.71049 0.27812 0.7976 0.0
C2305 C 0.69312 0.27627 0.80742 0.0
C2306 C 0.67012 0.28019 0.85473 0.0
C2307 C 0.62219 0.25967 0.86771 0.0
C2308 C 0.6405 0.26317 0.85766 0.0
C2309 C 0.69259 0.27505 0.82718 0.0
C2310 C 0.67448 0.27127 0.83752 0.0
H2311 H 0.57484 0.2576 0.85909 0.0
H2312 H 0.60538 0.26096 0.84254 0.0
H2313 H 0.65011 0.2835 0.87775 0.0
H2314 H 0.73995 0.27895 0.83515 0.0
H2315 H 0.70974 0.27554 0.85218 0.0
C2316 C 0.01731 0.32473 0.0862 0.0
C2317 C 0.02251 0.32381 0.10516 0.0
C2318 C 0.01579 0.34185 0.07718 0.0
C2319 C 0.03354 0.38917 0.07861 0.0
H2320 H 0.98689 0.40329 0.05418 0.0
C2321 C 0.02036 0.46442 0.05609 0.0
C2322 C 0.00977 0.46784 0.03994 0.0
C2323 C 0.02192 0.44654 0.06327 0.0
C2324 C 0.00018 0.39952 0.06061 0.0
H2325 H 0.03046 0.34009 0.12943 0.0
H2326 H 0.0283 0.36976 0.11359 0.0
H2327 H 0.99003 0.37238 0.06732 0.0
H2328 H 0.99261 0.45511 0.01856 0.0
H2329 H -0.0041 0.42385 0.03058 0.0
H2330 H 0.04403 0.41594 0.07164 0.0
C2331 C 0.02523 0.35731 0.10574 0.0
C2332 C 0.00191 0.38179 0.0682 0.0
C2333 C 0.02637 0.3403 0.11482 0.0
C2334 C 0.00078 0.45295 0.03111 0.0
C2335 C 0.00259 0.435 0.0381 0.0
C2336 C 0.03197 0.40676 0.07076 0.0
C2337 C 0.01987 0.3583 0.08686 0.0
C2338 C 0.0185 0.37654 0.07752 0.0
C2339 C 0.01319 0.4315 0.05431 0.0
C2340 C 0.01515 0.41234 0.06189 0.0
H2341 H 0.01422 0.31225 0.07841 0.0
H2342 H 0.01168 0.34224 0.06259 0.0
H2343 H 0.04659 0.3854 0.08553 0.0
H2344 H 0.02732 0.47561 0.06334 0.0
H2345 H 0.02981 0.44461 0.07602 0.0
C2346 C 0.99305 0.74 0.34995 0.0
C2347 C 0.01083 0.74492 0.34203 0.0
C2348 C 0.97674 0.74046 0.33911 0.0
C2349 C 0.94346 0.74004 0.31297 0.0
H2350 H 0.94206 0.78516 0.28391 0.0
C2351 C 0.8735 0.76835 0.2827 0.0
C2352 C 0.87039 0.78735 0.28566 0.0
C2353 C 0.8914 0.76049 0.28567 0.0
C2354 C 0.94222 0.77249 0.29194 0.0
H2355 H 0.02584 0.75218 0.31606 0.0
H2356 H -0.00257 0.75249 0.29701 0.0
H2357 H 0.97211 0.77444 0.29618 0.0
H2358 H 0.88359 0.813 0.29391 0.0
H2359 H 0.91472 0.79933 0.29934 0.0
H2360 H 0.91325 0.7389 0.30981 0.0
C2361 C -0.00402 0.74889 0.31175 0.0
C2362 C 0.95953 0.76615 0.29874 0.0
C2363 C 0.01227 0.74863 0.32265 0.0
C2364 C 0.88561 0.79838 0.2913 0.0
C2365 C 0.90347 0.79053 0.29433 0.0
C2366 C 0.9261 0.74647 0.30625 0.0
C2367 C 0.97791 0.74566 0.32006 0.0
C2368 C 0.96027 0.75017 0.30986 0.0
C2369 C 0.90654 0.77147 0.29167 0.0
C2370 C 0.92522 0.76311 0.29621 0.0
H2371 H 0.99147 0.73701 0.36484 0.0
H2372 H 0.96307 0.73801 0.34605 0.0
H2373 H 0.94359 0.72752 0.32123 0.0
H2374 H 0.86212 0.75956 0.27801 0.0
H2375 H 0.89338 0.74582 0.28327 0.0
C2376 C 0.5228 0.30739 0.96987 0.0
C2377 C 0.5399 0.30662 0.95922 0.0
C2378 C 0.52041 0.32033 0.98438 0.0
C2379 C 0.53991 0.3658 -0.0029 0.0
H2380 H 0.50011 0.36343 0.0359 0.0
C2381 C 0.51503 0.43102 0.03516 0.0
C2382 C 0.49577 0.43475 0.03146 0.0
C2383 C 0.52246 0.41323 0.03288 0.0
C2384 C 0.51143 0.36418 0.02527 0.0
H2385 H 0.56861 0.31722 0.95651 0.0
H2386 H 0.56497 0.33902 0.98263 0.0
H2387 H 0.51108 0.33508 0.02011 0.0
H2388 H 0.46883 0.42234 0.02425 0.0
H2389 H 0.48181 0.39119 0.02047 0.0
H2390 H 0.54011 0.39486 0.00215 0.0
C2391 C 0.55299 0.33038 0.97923 0.0
C2392 C 0.51763 0.34801 0.0161 0.0
C2393 C 0.55517 0.31781 0.96436 0.0
C2394 C 0.48371 0.41997 0.02719 0.0
C2395 C 0.49113 0.40211 0.02507 0.0
C2396 C 0.53401 0.38182 0.00652 0.0
C2397 C 0.53526 0.33248 0.98881 0.0
C2398 C 0.53143 0.34872 0.00135 0.0
C2399 C 0.51072 0.39878 0.02711 0.0
C2400 C 0.51927 0.38126 0.0202 0.0
H2401 H 0.51079 0.2989 0.96614 0.0
H2402 H 0.50648 0.32155 0.99118 0.0
H2403 H 0.55026 0.36715 0.98564 0.0
H2404 H 0.52458 0.44199 0.03907 0.0
H2405 H 0.53758 0.41094 0.03474 0.0
C2406 C 0.95926 0.27798 0.16756 0.0
C2407 C 0.97289 0.26976 0.17911 0.0
C2408 C 0.94064 0.28124 0.17444 0.0
C2409 C 0.91203 0.28587 0.21863 0.0
H2410 H 0.86995 0.26901 0.18875 0.0
C2411 C 0.83056 0.26026 0.23187 0.0
C2412 C 0.82342 0.27422 0.24397 0.0
C2413 C 0.84808 0.26235 0.22238 0.0
C2414 C 0.88156 0.27383 0.19723 0.0
H2415 H 0.97775 0.25889 0.20703 0.0
H2416 H 0.94547 0.26456 0.2189 0.0
H2417 H 0.90238 0.2681 0.17536 0.0
H2418 H 0.82884 0.30153 0.25524 0.0
H2419 H 0.85951 0.30514 0.23866 0.0
H2420 H 0.89138 0.29094 0.24074 0.0
C2421 C 0.94914 0.26859 0.2046 0.0
C2422 C 0.90009 0.27348 0.1895 0.0
C2423 C 0.96762 0.2652 0.19772 0.0
C2424 C 0.83401 0.29047 0.2461 0.0
C2425 C 0.85158 0.29253 0.23665 0.0
C2426 C 0.89352 0.2863 0.22632 0.0
C2427 C 0.93541 0.27653 0.19303 0.0
C2428 C 0.91556 0.27908 0.20029 0.0
C2429 C 0.85888 0.27842 0.22481 0.0
C2430 C 0.87814 0.27989 0.21585 0.0
H2431 H 0.96287 0.28166 0.15316 0.0
H2432 H 0.93035 0.28746 0.16524 0.0
H2433 H 0.92367 0.29047 0.2272 0.0
H2434 H 0.82274 0.24758 0.22988 0.0
H2435 H 0.85343 0.25112 0.21356 0.0
C2436 C 0.03826 0.67804 0.41987 0.0
C2437 C 0.03567 0.69465 0.42989 0.0
C2438 C 0.03715 0.66119 0.4291 0.0
C2439 C 0.0413 0.63952 0.47539 0.0
H2440 H 0.01631 0.59897 0.45032 0.0
C2441 C 0.02494 0.56739 0.50786 0.0
C2442 C 0.027 0.55222 0.49551 0.0
C2443 C 0.02802 0.58531 0.50131 0.0
C2444 C 0.02354 0.61011 0.45739 0.0
H2445 H 0.02971 0.70669 0.45746 0.0
H2446 H 0.0275 0.67698 0.47368 0.0
H2447 H 0.01587 0.62948 0.43632 0.0
H2448 H 0.0357 0.54372 0.46723 0.0
H2449 H 0.04125 0.57491 0.45592 0.0
H2450 H 0.04877 0.61993 0.4966 0.0
C2451 C 0.03061 0.67712 0.45867 0.0
C2452 C 0.02323 0.62759 0.44941 0.0
C2453 C 0.03173 0.69407 0.44938 0.0
C2454 C 0.03374 0.55515 0.47701 0.0
C2455 C 0.03683 0.573 0.4705 0.0
C2456 C 0.04151 0.62195 0.48347 0.0
C2457 C 0.03333 0.66052 0.44859 0.0
C2458 C 0.03238 0.64242 0.45812 0.0
C2459 C 0.0332 0.58826 0.48235 0.0
C2460 C 0.03292 0.60704 0.47433 0.0
H2461 H 0.04143 0.678 0.40486 0.0
H2462 H 0.03964 0.64866 0.42099 0.0
H2463 H 0.04857 0.65069 0.48236 0.0
H2464 H 0.01979 0.56554 0.52223 0.0
H2465 H 0.02516 0.59686 0.51073 0.0
C2466 C 0.59772 0.77154 0.65196 0.0
C2467 C 0.58027 0.77597 0.66108 0.0
C2468 C 0.61454 0.77054 0.6622 0.0
C2469 C 0.63127 0.765 0.7111 0.0
H2470 H 0.67883 0.7843 0.69074 0.0
C2471 C 0.7115 0.78606 0.7368 0.0
C2472 C 0.71608 0.77058 0.74768 0.0
C2473 C 0.69479 0.7865 0.72651 0.0
C2474 C 0.66562 0.77897 0.69671 0.0
H2475 H 0.56687 0.78327 0.68801 0.0
H2476 H 0.59601 0.78184 0.70565 0.0
H2477 H 0.65024 0.78559 0.67193 0.0
H2478 H 0.70644 0.74355 0.75661 0.0
H2479 H 0.67729 0.74426 0.73854 0.0
H2480 H 0.64648 0.75883 0.73607 0.0
C2481 C 0.59676 0.77871 0.69072 0.0
C2482 C 0.64929 0.77949 0.6858 0.0
C2483 C 0.58004 0.77967 0.68054 0.0
C2484 C 0.70327 0.75575 0.74848 0.0
C2485 C 0.68654 0.75617 0.73812 0.0
C2486 C 0.64758 0.7645 0.72201 0.0
C2487 C 0.61421 0.77396 0.68176 0.0
C2488 C 0.63186 0.77266 0.69293 0.0
C2489 C 0.68225 0.77144 0.72677 0.0
C2490 C 0.66494 0.77161 0.71502 0.0
H2491 H 0.59834 0.76859 0.63699 0.0
H2492 H 0.62772 0.76673 0.65488 0.0
H2493 H 0.61816 0.75935 0.71694 0.0
H2494 H 0.72102 0.79776 0.73591 0.0
H2495 H 0.69174 0.79865 0.71826 0.0
C2496 C 0.64165 0.48291 0.7075 0.0
C2497 C 0.63215 0.47571 0.72346 0.0
C2498 C 0.63299 0.48253 0.68999 0.0
C2499 C 0.59355 0.46145 0.6638 0.0
H2500 H 0.59174 0.50859 0.63829 0.0
C2501 C 0.53498 0.47956 0.61203 0.0
C2502 C 0.54002 0.48938 0.59569 0.0
C2503 C 0.54823 0.47669 0.62605 0.0
C2504 C 0.59236 0.49525 0.64505 0.0
H2505 H 0.60668 0.4616 0.73349 0.0
H2506 H 0.59164 0.461 0.70303 0.0
H2507 H 0.61222 0.50478 0.66524 0.0
H2508 H 0.56307 0.50375 0.58117 0.0
H2509 H 0.58619 0.49885 0.60575 0.0
H2510 H 0.57331 0.45206 0.64391 0.0
C2511 C 0.60575 0.46686 0.70395 0.0
C2512 C 0.60412 0.49305 0.66046 0.0
C2513 C 0.61432 0.46734 0.72143 0.0
C2514 C 0.55862 0.49639 0.59372 0.0
C2515 C 0.57189 0.49352 0.60776 0.0
C2516 C 0.5818 0.46364 0.6484 0.0
C2517 C 0.6148 0.4748 0.68813 0.0
C2518 C 0.60449 0.47626 0.67025 0.0
C2519 C 0.56686 0.48357 0.62404 0.0
C2520 C 0.58075 0.48069 0.63914 0.0
H2521 H 0.65542 0.48938 0.70865 0.0
H2522 H 0.64037 0.48859 0.67796 0.0
H2523 H 0.59378 0.44826 0.67092 0.0
H2524 H 0.5207 0.47422 0.61409 0.0
H2525 H 0.54379 0.4693 0.63861 0.0
C2526 C 0.72165 0.34759 0.98579 0.0
C2527 C 0.71674 0.36574 0.98078 0.0
C2528 C 0.72804 0.33495 0.9721 0.0
C2529 C 0.75426 0.33602 0.9275 0.0
H2530 H 0.74451 0.28343 0.92536 0.0
C2531 C 0.80029 0.2888 0.88005 0.0
C2532 C 0.78963 0.27803 0.86782 0.0
C2533 C 0.79141 0.29704 0.89584 0.0
C2534 C 0.74739 0.29809 0.92587 0.0
H2535 H 0.71289 0.38429 0.95729 0.0
H2536 H 0.72396 0.36215 0.93337 0.0
H2537 H 0.72606 0.30296 0.94755 0.0
H2538 H 0.76198 0.26636 0.86262 0.0
H2539 H 0.74636 0.28055 0.8903 0.0
H2540 H 0.77542 0.33131 0.90582 0.0
C2541 C 0.72318 0.35785 0.94795 0.0
C2542 C 0.73686 0.30923 0.93853 0.0
C2543 C 0.71668 0.37047 0.96163 0.0
C2544 C 0.77038 0.27452 0.87213 0.0
C2545 C 0.76152 0.28262 0.88793 0.0
C2546 C 0.76486 0.32489 0.91501 0.0
C2547 C 0.72969 0.34026 0.95316 0.0
C2548 C 0.74011 0.32833 0.93934 0.0
C2549 C 0.77177 0.29452 0.89955 0.0
C2550 C 0.76151 0.30584 0.914 0.0
H2551 H 0.7217 0.34346 0.00043 0.0
H2552 H 0.73293 0.32148 0.97652 0.0
H2553 H 0.75734 0.35064 0.92806 0.0
H2554 H 0.8151 0.29175 0.87671 0.0
H2555 H 0.79967 0.30602 0.9047 0.0
C2556 C 0.90342 0.56733 0.19232 0.0
C2557 C 0.8859 0.55831 0.19437 0.0
C2558 C 0.91179 0.56959 0.17453 0.0
C2559 C 0.90578 0.5627 0.12307 0.0
H2560 H 0.9582 0.54575 0.12595 0.0
C2561 C 0.95081 0.53176 0.06049 0.0
C2562 C 0.97027 0.53625 0.05982 0.0
C2563 C 0.93913 0.53788 0.07555 0.0
C2564 C 0.9437 0.55082 0.12486 0.0
H2565 H 0.86248 0.54595 0.17961 0.0
H2566 H 0.87752 0.54916 0.14838 0.0
H2567 H 0.93995 0.55173 0.15463 0.0
H2568 H 0.99251 0.55164 0.07356 0.0
H2569 H 0.97218 0.56245 0.09951 0.0
H2570 H 0.90965 0.56107 0.09302 0.0
C2571 C 0.88464 0.55485 0.16044 0.0
C2572 C 0.93322 0.55433 0.14133 0.0
C2573 C 0.87606 0.55293 0.1783 0.0
C2574 C 0.97765 0.54763 0.0739 0.0
C2575 C 0.96601 0.55385 0.08876 0.0
C2576 C 0.91634 0.55913 0.10645 0.0
C2577 C 0.90299 0.56241 0.15852 0.0
C2578 C 0.91415 0.56029 0.14068 0.0
C2579 C 0.94678 0.54865 0.09002 0.0
C2580 C 0.93541 0.55313 0.10725 0.0
H2581 H 0.91108 0.57186 0.20456 0.0
H2582 H 0.9257 0.57596 0.17342 0.0
H2583 H 0.89109 0.56726 0.12216 0.0
H2584 H 0.94475 0.5231 0.04972 0.0
H2585 H 0.92437 0.53359 0.07625 0.0
C2586 C 0.76278 0.67419 0.4483 0.0
C2587 C 0.76597 0.68098 0.46649 0.0
C2588 C 0.76639 0.68515 0.43252 0.0
C2589 C 0.77453 0.73381 0.41757 0.0
H2590 H 0.79051 0.70953 0.37093 0.0
C2591 C 0.79509 0.76959 0.34533 0.0
C2592 C 0.78204 0.76461 0.3315 0.0
C2593 C 0.79511 0.76038 0.36267 0.0
C2594 C 0.78621 0.71648 0.38392 0.0
H2595 H 0.77552 0.70461 0.48243 0.0
H2596 H 0.78252 0.72361 0.45481 0.0
H2597 H 0.78726 0.69154 0.3997 0.0
H2598 H 0.7591 0.74588 0.32482 0.0
H2599 H 0.75967 0.72952 0.3547 0.0
H2600 H 0.77385 0.75884 0.40146 0.0
C2601 C 0.77676 0.70995 0.45271 0.0
C2602 C 0.7841 0.70617 0.40039 0.0
C2603 C 0.77283 0.69904 0.46857 0.0
C2604 C 0.76925 0.75014 0.33523 0.0
C2605 C 0.76959 0.74071 0.35227 0.0
C2606 C 0.777 0.74418 0.4011 0.0
C2607 C 0.77366 0.70312 0.43443 0.0
C2608 C 0.77771 0.71457 0.41736 0.0
C2609 C 0.78245 0.74577 0.36615 0.0
C2610 C 0.78244 0.7355 0.38408 0.0
H2611 H 0.75731 0.6604 0.44623 0.0
H2612 H 0.76326 0.67951 0.41881 0.0
H2613 H 0.76943 0.74079 0.43025 0.0
H2614 H 0.80508 0.78071 0.34283 0.0
H2615 H 0.80516 0.76445 0.37323 0.0
C2616 C 0.58636 0.48686 0.83528 0.0
C2617 C 0.60555 0.48294 0.83059 0.0
C2618 C 0.57934 0.48431 0.85361 0.0
C2619 C 0.59539 0.48414 0.90203 0.0
H2620 H 0.54316 0.46945 0.91266 0.0
C2621 C 0.55182 0.51089 0.9655 0.0
C2622 C 0.53828 0.49945 0.97438 0.0
C2623 C 0.56221 0.50469 0.94971 0.0
C2624 C 0.55789 0.47325 0.91003 0.0
H2625 H 0.63226 0.4726 0.84137 0.0
H2626 H 0.61992 0.46814 0.87345 0.0
H2627 H 0.55681 0.46534 0.881 0.0
H2628 H 0.5256 0.47222 0.97418 0.0
H2629 H 0.54381 0.46137 0.94639 0.0
H2630 H 0.59633 0.49244 0.93095 0.0
C2631 C 0.61039 0.47334 0.86292 0.0
C2632 C 0.56564 0.47109 0.89185 0.0
C2633 C 0.61742 0.47586 0.84453 0.0
C2634 C 0.53587 0.48139 0.96757 0.0
C2635 C 0.54624 0.47519 0.95165 0.0
C2636 C 0.58765 0.4863 0.92021 0.0
C2637 C 0.59134 0.47778 0.8677 0.0
C2638 C 0.58425 0.47708 0.88752 0.0
C2639 C 0.55929 0.48691 0.94239 0.0
C2640 C 0.56861 0.48146 0.92423 0.0
H2641 H 0.5768 0.49229 0.82489 0.0
H2642 H 0.56467 0.48813 0.85689 0.0
H2643 H 0.60975 0.48897 0.89915 0.0
H2644 H 0.55408 0.52486 0.97044 0.0
H2645 H 0.57194 0.51415 0.94275 0.0
C2646 C 0.74192 0.37205 0.10496 0.0
C2647 C 0.73733 0.3633 0.08799 0.0
C2648 C 0.74226 0.36202 0.12167 0.0
C2649 C 0.74723 0.31569 0.14085 0.0
H2650 H 0.71996 0.33632 0.18434 0.0
C2651 C 0.74454 0.27717 0.21126 0.0
C2652 C 0.74854 0.2881 0.22705 0.0
C2653 C 0.74016 0.28545 0.19417 0.0
C2654 C 0.72773 0.33042 0.17236 0.0
H2655 H 0.73026 0.33712 0.07501 0.0
H2656 H 0.73119 0.31956 0.10422 0.0
H2657 H 0.71996 0.35279 0.15448 0.0
H2658 H 0.74996 0.3162 0.23767 0.0
H2659 H 0.74277 0.33056 0.20793 0.0
H2660 H 0.75559 0.29365 0.15878 0.0
C2661 C 0.73437 0.33417 0.10458 0.0
C2662 C 0.72773 0.33985 0.1553 0.0
C2663 C 0.73382 0.34422 0.0879 0.0
C2664 C 0.747 0.30739 0.22574 0.0
C2665 C 0.74275 0.31564 0.20868 0.0
C2666 C 0.74739 0.30632 0.15796 0.0
C2667 C 0.73824 0.34306 0.12165 0.0
C2668 C 0.73769 0.33269 0.13948 0.0
C2669 C 0.73977 0.30478 0.19257 0.0
C2670 C 0.73785 0.31371 0.17398 0.0
H2671 H 0.74466 0.38673 0.10545 0.0
H2672 H 0.74554 0.36912 0.13464 0.0
H2673 H 0.75508 0.30993 0.12884 0.0
H2674 H 0.7455 0.26226 0.21188 0.0
H2675 H 0.73757 0.27671 0.18209 0.0
C2676 C 0.92827 0.49204 0.28426 0.0
C2677 C 0.9123 0.50384 0.28577 0.0
C2678 C 0.93728 0.48588 0.3004 0.0
C2679 C 0.93002 0.48018 0.35165 0.0
H2680 H 0.9848 0.48654 0.35363 0.0
C2681 C 0.96932 0.48925 0.4207 0.0
C2682 C 0.98794 0.48223 0.42216 0.0
C2683 C 0.95971 0.48777 0.40383 0.0
C2684 C 0.96956 0.48428 0.35321 0.0
H2685 H 0.89306 0.51814 0.30542 0.0
H2686 H 0.90882 0.50747 0.3335 0.0
H2687 H 0.96866 0.49165 0.32411 0.0
H2688 H 0.01063 0.46718 0.40741 0.0
H2689 H -0.00621 0.46458 0.37784 0.0
H2690 H 0.93084 0.47328 0.38086 0.0
C2691 C 0.91427 0.50286 0.31985 0.0
C2692 C 0.96032 0.48724 0.3363 0.0
C2693 C 0.90535 0.5091 0.30375 0.0
C2694 C -0.00357 0.47301 0.4066 0.0
C2695 C 0.98679 0.47151 0.3897 0.0
C2696 C 0.93926 0.47715 0.36853 0.0
C2697 C 0.93038 0.49128 0.31834 0.0
C2698 C 0.94041 0.48571 0.33551 0.0
C2699 C 0.96847 0.47919 0.38804 0.0
C2700 C 0.95906 0.47967 0.36961 0.0
H2701 H 0.93394 0.4877 0.2706 0.0
H2702 H 0.94964 0.47689 0.29887 0.0
H2703 H 0.91469 0.4786 0.35132 0.0
H2704 H 0.96247 0.49666 0.43231 0.0
H2705 H 0.94573 0.49411 0.40293 0.0
C2706 C 0.76915 0.67761 0.57972 0.0
C2707 C 0.76287 0.65922 0.58005 0.0
C2708 C 0.77244 0.68714 0.59654 0.0
C2709 C 0.78111 0.67962 0.64732 0.0
H2710 H 0.7638 0.73032 0.65283 0.0
C2711 C 0.77368 0.71672 0.71952 0.0
C2712 C 0.77822 0.73557 0.72041 0.0
C2713 C 0.77377 0.7074 0.70221 0.0
C2714 C 0.76899 0.71625 0.65145 0.0
H2715 H 0.7551 0.63648 0.59843 0.0
H2716 H 0.76058 0.6531 0.62757 0.0
H2717 H 0.7601 0.71431 0.62289 0.0
H2718 H 0.7871 0.75923 0.70383 0.0
H2719 H 0.78746 0.74292 0.67373 0.0
H2720 H 0.78976 0.6815 0.67597 0.0
C2721 C 0.76327 0.6601 0.61435 0.0
C2722 C 0.76686 0.70707 0.63426 0.0
C2723 C 0.75998 0.65061 0.59758 0.0
C2724 C 0.78346 0.74472 0.70367 0.0
C2725 C 0.78354 0.73541 0.68638 0.0
C2726 C 0.78323 0.6888 0.66451 0.0
C2727 C 0.76955 0.67848 0.61406 0.0
C2728 C 0.77272 0.68857 0.63204 0.0
C2729 C 0.77839 0.71672 0.68539 0.0
C2730 C 0.77705 0.70719 0.66684 0.0
H2731 H 0.77159 0.68467 0.56648 0.0
H2732 H 0.77745 0.70123 0.59581 0.0
H2733 H 0.7861 0.66548 0.646 0.0
H2734 H 0.76951 0.70928 0.73213 0.0
H2735 H 0.76956 0.69305 0.70195 0.0
C2736 C 0.68341 0.62728 0.51896 0.0
C2737 C 0.70072 0.61805 0.51487 0.0
C2738 C 0.66625 0.61749 0.51973 0.0
C2739 C 0.63137 0.59504 0.50917 0.0
H2740 H 0.63049 0.54606 0.53098 0.0
C2741 C 0.56747 0.54694 0.50001 0.0
C2742 C 0.56097 0.53712 0.51591 0.0
C2743 C 0.58485 0.5562 0.50016 0.0
C2744 C 0.63045 0.55977 0.52497 0.0
H2745 H 0.71357 0.59139 0.50822 0.0
H2746 H 0.68378 0.57451 0.50929 0.0
H2747 H 0.65968 0.56413 0.53157 0.0
H2748 H 0.56797 0.52878 0.5442 0.0
H2749 H 0.59835 0.54505 0.54449 0.0
H2750 H 0.60206 0.59083 0.50286 0.0
C2751 C 0.68341 0.58919 0.51225 0.0
C2752 C 0.64723 0.57006 0.52513 0.0
C2753 C 0.7005 0.59892 0.51149 0.0
C2754 C 0.57262 0.53615 0.5317 0.0
C2755 C 0.59003 0.54547 0.53186 0.0
C2756 C 0.61459 0.58476 0.50901 0.0
C2757 C 0.66608 0.5983 0.51645 0.0
C2758 C 0.64795 0.58776 0.51709 0.0
C2759 C 0.59615 0.55592 0.51622 0.0
C2760 C 0.61396 0.56693 0.51676 0.0
H2761 H 0.68314 0.642 0.52168 0.0
H2762 H 0.65314 0.62491 0.52315 0.0
H2763 H 0.63146 0.60856 0.50273 0.0
H2764 H 0.55889 0.54789 0.48757 0.0
H2765 H 0.58934 0.56376 0.48772 0.0
C2766 C 0.15612 0.89424 0.56767 0.0
C2767 C 0.16083 0.88945 0.54901 0.0
C2768 C 0.13736 0.89886 0.57282 0.0
C2769 C 0.08821 0.90427 0.55322 0.0
H2770 H 0.08807 0.94836 0.58435 0.0
C2771 C 0.05343 0.97981 0.55103 0.0
C2772 C 0.03515 0.97553 0.54481 0.0
C2773 C 0.06512 0.96607 0.55819 0.0
C2774 C 0.0878 0.93604 0.57564 0.0
H2775 H 0.15004 0.88479 0.52119 0.0
H2776 H 0.11752 0.89403 0.52963 0.0
H2777 H 0.11584 0.9285 0.58341 0.0
H2778 H 0.01411 0.95384 0.54269 0.0
H2779 H 0.03442 0.92985 0.55571 0.0
H2780 H 0.06099 0.91307 0.54382 0.0
C2781 C 0.12786 0.89353 0.54068 0.0
C2782 C 0.10369 0.92439 0.57533 0.0
C2783 C 0.14653 0.88838 0.5357 0.0
C2784 C 0.02826 0.95749 0.54716 0.0
C2785 C 0.03992 0.94374 0.55455 0.0
C2786 C 0.07249 0.91619 0.55319 0.0
C2787 C 0.12314 0.89947 0.55918 0.0
C2788 C 0.10453 0.90886 0.56331 0.0
C2789 C 0.05874 0.94773 0.55954 0.0
C2790 C 0.07259 0.93276 0.56361 0.0
H2791 H 0.16708 0.89495 0.57814 0.0
H2792 H 0.13424 0.90279 0.5873 0.0
H2793 H 0.08801 0.89208 0.54435 0.0
H2794 H 0.05914 0.99359 0.54945 0.0
H2795 H 0.0796 0.96971 0.56154 0.0
C2796 C 0.34836 0.9865 0.7541 0.0
C2797 C 0.35859 0.98794 0.73692 0.0
C2798 C 0.33616 0.97174 0.7574 0.0
C2799 C 0.32779 0.92413 0.74143 0.0
H2800 H 0.28356 0.92888 0.7751 0.0
C2801 C 0.28286 0.86169 0.76335 0.0
C2802 C 0.28213 0.85905 0.78298 0.0
C2803 C 0.28869 0.87849 0.7558 0.0
C2804 C 0.29582 0.92743 0.76561 0.0
H2805 H 0.36351 0.97543 0.70942 0.0
H2806 H 0.34167 0.94981 0.71495 0.0
H2807 H 0.30017 0.95656 0.76432 0.0
H2808 H 0.28582 0.87246 0.81002 0.0
H2809 H 0.29565 0.902 0.79673 0.0
H2810 H 0.32335 0.89499 0.74276 0.0
C2811 C 0.34349 0.95987 0.72608 0.0
C2812 C 0.3054 0.94321 0.75951 0.0
C2813 C 0.35595 0.97456 0.72287 0.0
C2814 C 0.28617 0.87401 0.79488 0.0
C2815 C 0.2918 0.89092 0.78729 0.0
C2816 C 0.31802 0.90841 0.74728 0.0
C2817 C 0.33365 0.95816 0.7435 0.0
C2818 C 0.32184 0.94171 0.74778 0.0
C2819 C 0.2936 0.89309 0.7677 0.0
C2820 C 0.30226 0.90991 0.75977 0.0
H2821 H 0.35017 -0.00346 0.76527 0.0
H2822 H 0.3292 0.97069 0.77113 0.0
H2823 H 0.34053 0.92239 0.73265 0.0
H2824 H 0.27926 0.85069 0.75375 0.0
H2825 H 0.28975 0.87996 0.74063 0.0
C2826 C 0.3221 0.11015 -0.00355 0.0
C2827 C 0.30888 0.0997 0.00701 0.0
C2828 C 0.34 0.10272 0.99142 0.0
C2829 C 0.36674 0.05851 0.98719 0.0
H2830 H 0.41079 0.08812 -0.00112 0.0
C2831 C 0.44804 0.04626 0.01118 0.0
C2832 C 0.45472 0.0331 -0.00206 0.0
C2833 C 0.43081 0.05549 0.00863 0.0
C2834 C 0.39862 0.07972 0.99546 0.0
H2835 H 0.3039 0.07308 0.0201 0.0
H2836 H 0.33496 0.06029 0.01146 0.0
H2837 H 0.379 0.102 0.00075 0.0
H2838 H 0.44868 0.01948 0.97149 0.0
H2839 H 0.41834 0.03561 0.96712 0.0
H2840 H 0.38628 0.03599 0.9828 0.0
C2841 C 0.33151 0.07413 0.0069 0.0
C2842 C 0.38045 0.08772 -0.00366 0.0
C2843 C 0.31375 0.08156 0.01203 0.0
C2844 C 0.44385 0.02948 0.98199 0.0
C2845 C 0.4265 0.03869 0.97949 0.0
C2846 C 0.38492 0.05053 0.98626 0.0
C2847 C 0.3449 0.08466 -0.00331 0.0
C2848 C 0.36427 0.07704 0.99277 0.0
C2849 C 0.41981 0.05178 0.99281 0.0
C2850 C 0.40098 0.06091 0.99095 0.0
H2851 H 0.31876 0.12415 0.99232 0.0
H2852 H 0.35003 0.11111 0.98347 0.0
H2853 H 0.35454 0.05002 0.98412 0.0
H2854 H 0.45607 0.04942 0.0236 0.0
H2855 H 0.42589 0.06525 0.01931 0.0
C2856 C 0.64802 0.56637 0.77151 0.0
C2857 C 0.65616 0.55086 0.78008 0.0
C2858 C 0.65671 0.58364 0.77284 0.0
C2859 C 0.70346 0.60444 0.78215 0.0
H2860 H 0.67433 0.64945 0.79108 0.0
C2861 C 0.739 0.67218 0.80342 0.0
C2862 C 0.73333 0.68821 0.79399 0.0
C2863 C 0.72891 0.6558 0.80136 0.0
C2864 C 0.6826 0.63699 0.78841 0.0
H2865 H 0.67941 0.54145 0.79734 0.0
H2866 H 0.69424 0.57145 0.79991 0.0
H2867 H 0.65769 0.62005 0.78809 0.0
H2868 H 0.71231 0.69981 0.77546 0.0
H2869 H 0.6947 0.67108 0.77178 0.0
H2870 H 0.72836 0.62127 0.7827 0.0
C2871 C 0.68145 0.57025 0.79177 0.0
C2872 C 0.6731 0.62019 0.78666 0.0
C2873 C 0.67286 0.55306 0.79038 0.0
C2874 C 0.71715 0.68761 0.78271 0.0
C2875 C 0.70697 0.67124 0.78075 0.0
C2876 C 0.71293 0.62116 0.78398 0.0
C2877 C 0.67365 0.58569 0.78281 0.0
C2878 C 0.68346 0.60371 0.78374 0.0
C2879 C 0.71288 0.65514 0.78991 0.0
C2880 C 0.70263 0.63757 0.78732 0.0
H2881 H 0.63517 0.56511 0.76347 0.0
H2882 H 0.65042 0.59527 0.7657 0.0
H2883 H 0.71184 0.59204 0.77946 0.0
H2884 H 0.75148 0.67218 0.81208 0.0
H2885 H 0.73365 0.64363 0.80875 0.0
C2886 C 0.79468 0.41596 0.01819 0.0
C2887 C 0.77994 0.42666 0.01068 0.0
C2888 C 0.81375 0.42043 0.01444 0.0
C2889 C 0.85146 0.44074 0.01477 0.0
H2890 H 0.86697 0.46148 0.96659 0.0
C2891 C 0.91792 0.48559 0.00619 0.0
C2892 C 0.92893 0.48435 0.98945 0.0
C2893 C 0.90075 0.47613 0.00803 0.0
C2894 C 0.863 0.45545 0.98003 0.0
H2895 H 0.77366 0.45039 0.99331 0.0
H2896 H 0.80674 0.45842 0.98721 0.0
H2897 H 0.8352 0.44856 0.97064 0.0
H2898 H 0.93079 0.47206 0.9616 0.0
H2899 H 0.90076 0.45531 0.96482 0.0
H2900 H 0.87932 0.44746 0.02411 0.0
C2901 C 0.80366 0.44633 -0.00439 0.0
C2902 C 0.8447 0.44826 0.98243 0.0
C2903 C 0.78465 0.44181 -0.00073 0.0
C2904 C 0.92245 0.47342 0.97456 0.0
C2905 C 0.90529 0.46383 0.97644 0.0
C2906 C 0.86981 0.44781 0.01233 0.0
C2907 C 0.81843 0.43573 0.00318 0.0
C2908 C 0.83856 0.44126 -4e-05 0.0
C2909 C 0.89424 0.46512 0.9932 0.0
C2910 C 0.87561 0.45567 0.99509 0.0
H2911 H 0.79151 0.40411 0.02694 0.0
H2912 H 0.82482 0.41189 0.02032 0.0
H2913 H 0.84717 0.43553 0.02849 0.0
H2914 H 0.92239 0.49417 0.01777 0.0
H2915 H 0.89238 0.4778 0.02095 0.0
C2916 C 0.33518 0.0903 0.7686 0.0
C2917 C 0.35522 0.09106 0.76809 0.0
C2918 C 0.32437 0.10653 0.76799 0.0
C2919 C 0.32903 0.15068 0.74605 0.0
H2920 H 0.28489 0.1667 0.7759 0.0
C2921 C 0.30119 0.22456 0.74593 0.0
C2922 C 0.28175 0.22814 0.74952 0.0
C2923 C 0.30809 0.20652 0.74568 0.0
C2924 C 0.29692 0.16217 0.76716 0.0
H2925 H 0.3796 0.10932 0.7688 0.0
H2926 H 0.3607 0.1376 0.76768 0.0
H2927 H 0.30124 0.13791 0.7838 0.0
H2928 H 0.25398 0.21566 0.75404 0.0
H2929 H 0.26608 0.18394 0.75331 0.0
H2930 H 0.32482 0.17468 0.72931 0.0
C2931 C 0.35342 0.12446 0.76825 0.0
C2932 C 0.30635 0.14584 0.77183 0.0
C2933 C 0.3642 0.10829 0.76902 0.0
C2934 C 0.26906 0.21328 0.7513 0.0
C2935 C 0.276 0.19516 0.75107 0.0
C2936 C 0.31951 0.16682 0.74124 0.0
C2937 C 0.33352 0.12364 0.76677 0.0
C2938 C 0.32278 0.1403 0.76162 0.0
C2939 C 0.29567 0.19167 0.74895 0.0
C2940 C 0.30368 0.17302 0.75205 0.0
H2941 H 0.32787 0.07718 0.76804 0.0
H2942 H 0.30902 0.10562 0.76699 0.0
H2943 H 0.34139 0.14635 0.73766 0.0
H2944 H 0.31129 0.23573 0.7444 0.0
H2945 H 0.32334 0.20435 0.74415 0.0
C2946 C 0.22635 0.96166 0.27702 0.0
C2947 C 0.20854 0.95719 0.28526 0.0
C2948 C 0.24135 0.94885 0.27689 0.0
C2949 C 0.25767 0.90509 0.29793 0.0
H2950 H 0.2767 0.89319 0.24754 0.0
C2951 C 0.27541 0.83577 0.25653 0.0
C2952 C 0.28574 0.82628 0.27017 0.0
C2953 C 0.27315 0.85489 0.25769 0.0
C2954 C 0.27176 0.8965 0.26173 0.0
H2955 H 0.19281 0.93634 0.30081 0.0
H2956 H 0.21895 0.91408 0.30071 0.0
H2957 H 0.25832 0.92154 0.25302 0.0
H2958 H 0.30342 0.82955 0.29461 0.0
H2959 H 0.29941 0.86298 0.29662 0.0
H2960 H 0.26991 0.8795 0.30645 0.0
C2961 C 0.22137 0.92744 0.29435 0.0
C2962 C 0.26136 0.91279 0.26491 0.0
C2963 C 0.20634 0.94013 0.29428 0.0
C2964 C 0.29523 0.83645 0.28396 0.0
C2965 C 0.29289 0.85558 0.28518 0.0
C2966 C 0.26813 0.88887 0.29478 0.0
C2967 C 0.23887 0.93149 0.28525 0.0
C2968 C 0.2535 0.91679 0.28288 0.0
C2969 C 0.28113 0.86487 0.27255 0.0
C2970 C 0.27455 0.88402 0.27649 0.0
H2971 H 0.22845 0.97474 0.26997 0.0
H2972 H 0.25472 0.95232 0.26985 0.0
H2973 H 0.25195 0.90797 0.31196 0.0
H2974 H 0.26804 0.82833 0.24564 0.0
H2975 H 0.2639 0.8616 0.2478 0.0
C2976 C 0.51819 0.33155 0.43767 0.0
C2977 C 0.52191 0.33104 0.41812 0.0
C2978 C 0.51675 0.34851 0.4473 0.0
C2979 C 0.50681 0.39805 0.43981 0.0
H2980 H 0.53494 0.40597 0.48538 0.0
C2981 C 0.51448 0.47103 0.4721 0.0
C2982 C 0.51418 0.47267 0.49183 0.0
C2983 C 0.51544 0.4536 0.46343 0.0
C2984 C 0.52675 0.40398 0.47282 0.0
H2985 H 0.52671 0.34808 0.39339 0.0
H2986 H 0.524 0.37734 0.41007 0.0
H2987 H 0.53554 0.37562 0.4703 0.0
H2988 H 0.51463 0.4572 0.51789 0.0
H2989 H 0.51583 0.427 0.50288 0.0
H2990 H 0.49777 0.42622 0.44234 0.0
C2991 C 0.52221 0.36471 0.41799 0.0
C2992 C 0.52712 0.38654 0.46418 0.0
C2993 C 0.52389 0.34786 0.40845 0.0
C2994 C 0.515 0.45649 0.50265 0.0
C2995 C 0.51579 0.4391 0.494 0.0
C2996 C 0.50628 0.41542 0.44852 0.0
C2997 C 0.51868 0.36528 0.43752 0.0
C2998 C 0.51731 0.38342 0.44747 0.0
C2999 C 0.51595 0.43736 0.47426 0.0
C3000 C 0.51637 0.41871 0.46508 0.0
H3001 H 0.51662 0.31887 0.44554 0.0
H3002 H 0.51393 0.34852 0.46237 0.0
H3003 H 0.4989 0.39603 0.42706 0.0
H3004 H 0.51391 0.4832 0.46334 0.0
H3005 H 0.51589 0.4529 0.44819 0.0
C3006 C 0.46204 0.75434 0.19525 0.0
C3007 C 0.46636 0.75619 0.176 0.0
C3008 C 0.44344 0.75067 0.20141 0.0
C3009 C 0.40473 0.73692 0.2124 0.0
H3010 H 0.36367 0.75938 0.18493 0.0
C3011 C 0.32997 0.74062 0.24602 0.0
C3012 C 0.31979 0.75698 0.24312 0.0
C3013 C 0.3459 0.73629 0.23466 0.0
C3014 C 0.37495 0.75317 0.19293 0.0
H3015 H 0.45504 0.75474 0.14795 0.0
H3016 H 0.42271 0.74719 0.15854 0.0
H3017 H 0.39585 0.76032 0.17198 0.0
H3018 H 0.31752 0.7815 0.22614 0.0
H3019 H 0.34613 0.77489 0.20721 0.0
H3020 H 0.38433 0.73153 0.23426 0.0
C3021 C 0.43341 0.74938 0.16903 0.0
C3022 C 0.39347 0.75337 0.18527 0.0
C3023 C 0.45195 0.75358 0.16292 0.0
C3024 C 0.32525 0.76874 0.22844 0.0
C3025 C 0.34157 0.76478 0.21749 0.0
C3026 C 0.38635 0.73725 0.22033 0.0
C3027 C 0.4288 0.74822 0.1884 0.0
C3028 C 0.40872 0.74572 0.19517 0.0
C3029 C 0.3524 0.74867 0.22071 0.0
C3030 C 0.37126 0.74584 0.21094 0.0
H3031 H 0.4729 0.75646 0.20562 0.0
H3032 H 0.44051 0.75041 0.21643 0.0
H3033 H 0.41592 0.7303 0.22019 0.0
H3034 H 0.32573 0.73131 0.25724 0.0
H3035 H 0.35338 0.72348 0.23722 0.0
C3036 C 0.0145 0.71214 0.94935 0.0
C3037 C 0.00677 0.71525 0.93157 0.0
C3038 C 0.01292 0.6948 0.95791 0.0
C3039 C 0.00388 0.6455 0.94591 0.0
H3040 H -0.00066 0.63996 9e-05 0.0
C3041 C 0.99147 0.5746 0.9814 0.0
C3042 C 0.0029 0.57059 -0.00314 0.0
C3043 C 0.99108 0.59241 0.97382 0.0
C3044 C 0.00071 0.64129 0.98493 0.0
H3045 H 0.99058 0.70287 0.90924 0.0
H3046 H 0.98725 0.67299 0.92435 0.0
H3047 H -0.00026 0.67081 0.98644 0.0
H3048 H 0.02271 0.58226 0.0166 0.0
H3049 H 0.02188 0.61329 0.00346 0.0
H3050 H 0.00464 0.61596 0.94445 0.0
C3051 C -0.00491 0.68365 0.93149 0.0
C3052 C 0.00101 0.659 0.97709 0.0
C3053 C -0.00315 0.70088 0.92287 0.0
C3054 C 0.01374 0.58486 0.00469 0.0
C3055 C 0.01319 0.60268 -0.00276 0.0
C3056 C 0.00339 0.62783 0.95375 0.0
C3057 C 0.00341 0.68021 0.94897 0.0
C3058 C 0.00266 0.66137 0.95745 0.0
C3059 C 0.00195 0.60666 0.98164 0.0
C3060 C 0.0019 0.6255 0.97335 0.0
H3061 H 0.02232 0.7229 0.95638 0.0
H3062 H 0.01971 0.69269 0.97126 0.0
H3063 H 0.0056 0.64667 0.93078 0.0
H3064 H 0.98296 0.56395 0.97503 0.0
H3065 H 0.98216 0.59507 0.96189 0.0
C3066 C 0.0658 0.32149 0.65843 0.0
C3067 C 0.0647 0.31229 0.64106 0.0
C3068 C 0.08215 0.31996 0.66905 0.0
C3069 C 0.13178 0.30269 0.67053 0.0
H3070 H 0.11521 0.28555 0.71991 0.0
C3071 C 0.18303 0.26707 0.7218 0.0
C3072 C 0.18112 0.27217 0.74087 0.0
C3073 C 0.16949 0.27272 0.70889 0.0
C3074 C 0.12014 0.29055 0.70631 0.0
H3075 H 0.08047 0.29602 0.62015 0.0
H3076 H 0.10912 0.29321 0.63886 0.0
H3077 H 0.09178 0.29679 0.69812 0.0
H3078 H 0.16352 0.2872 0.76136 0.0
H3079 H 0.14 0.29709 0.73897 0.0
H3080 H 0.16023 0.29636 0.67884 0.0
C3081 C 0.09736 0.30163 0.64423 0.0
C3082 C 0.10671 0.29704 0.69382 0.0
C3083 C 0.08098 0.30328 0.6335 0.0
C3084 C 0.1652 0.2827 0.74686 0.0
C3085 C 0.15174 0.28843 0.73398 0.0
C3086 C 0.14531 0.29629 0.68313 0.0
C3087 C 0.09761 0.30908 0.66254 0.0
C3088 C 0.11237 0.30324 0.67584 0.0
C3089 C 0.1538 0.28365 0.71482 0.0
C3090 C 0.1396 0.29016 0.70118 0.0
H3091 H 0.05347 0.32868 0.66445 0.0
H3092 H 0.08217 0.32621 0.68294 0.0
H3093 H 0.13648 0.30734 0.65672 0.0
H3094 H 0.1951 0.25884 0.71685 0.0
H3095 H 0.1713 0.26853 0.6943 0.0
C3096 C 0.54512 0.71527 0.11554 0.0
C3097 C 0.53704 0.73209 0.10989 0.0
C3098 C 0.54804 0.70091 0.10258 0.0
C3099 C 0.5293 0.68385 0.05807 0.0
H3100 H 0.5714 0.64904 0.06068 0.0
C3101 C 0.53361 0.61994 0.01006 0.0
C3102 C 0.53678 0.60325 0.01951 0.0
C3103 C 0.53674 0.6368 0.01902 0.0
C3104 C 0.55958 0.65867 0.0598 0.0
H3105 H 0.52659 0.74736 0.086 0.0
H3106 H 0.53196 0.72239 0.06336 0.0
H3107 H 0.57141 0.67697 0.08013 0.0
H3108 H 0.54678 0.59115 0.04533 0.0
H3109 H 0.55196 0.62059 0.06111 0.0
H3110 H 0.51726 0.66542 0.0381 0.0
C3111 C 0.53566 0.72018 0.07789 0.0
C3112 C 0.55956 0.67462 0.07094 0.0
C3113 C 0.53265 0.7345 0.09086 0.0
C3114 C 0.54393 0.60378 0.03781 0.0
C3115 C 0.54713 0.62063 0.04674 0.0
C3116 C 0.52937 0.66797 0.0469 0.0
C3117 C 0.54304 0.7031 0.08368 0.0
C3118 C 0.54423 0.68721 0.07045 0.0
C3119 C 0.54318 0.63731 0.03758 0.0
C3120 C 0.54432 0.65505 0.04791 0.0
H3121 H 0.54867 0.71295 0.13009 0.0
H3122 H 0.55352 0.68786 0.10757 0.0
H3123 H 0.51712 0.69309 0.05758 0.0
H3124 H 0.52801 0.62001 -0.004 0.0
H3125 H 0.53375 0.64945 0.01156 0.0
C3126 C 0.09202 0.76809 0.88597 0.0
C3127 C 0.07651 0.7604 0.87663 0.0
C3128 C 0.11024 0.76788 0.87752 0.0
C3129 C 0.14123 0.74425 0.84318 0.0
H3130 H 0.16611 0.79157 0.83744 0.0
C3131 C 0.21114 0.75256 0.79878 0.0
C3132 C 0.22415 0.76599 0.80452 0.0
C3133 C 0.19317 0.75122 0.80771 0.0
C3134 C 0.15962 0.77815 0.8392 0.0
H3135 H 0.06801 0.74586 0.85146 0.0
H3136 H 0.10004 0.74507 0.83691 0.0
H3137 H 0.13514 0.78992 0.85352 0.0
H3138 H 0.2289 0.78806 0.82455 0.0
H3139 H 0.19815 0.78522 0.84064 0.0
H3140 H 0.16588 0.73231 0.82943 0.0
C3141 C 0.09799 0.75142 0.85067 0.0
C3142 C 0.14179 0.77727 0.84834 0.0
C3143 C 0.07969 0.75195 0.85895 0.0
C3144 C 0.21906 0.77774 0.81962 0.0
C3145 C 0.20131 0.77618 0.82877 0.0
C3146 C 0.15927 0.74506 0.83433 0.0
C3147 C 0.11335 0.75965 0.85975 0.0
C3148 C 0.13242 0.76034 0.85038 0.0
C3149 C 0.18797 0.76308 0.82281 0.0
C3150 C 0.16872 0.76205 0.8322 0.0
H3151 H 0.08999 0.77472 0.89959 0.0
H3152 H 0.1219 0.77423 0.88483 0.0
H3153 H 0.13429 0.731 0.84467 0.0
H3154 H 0.21468 0.74333 0.78713 0.0
H3155 H 0.18326 0.74113 0.8025 0.0
C3156 C 0.97628 0.32168 0.56891 0.0
C3157 C 0.9767 0.32453 0.58848 0.0
C3158 C 0.96865 0.33519 0.55726 0.0
C3159 C 0.94373 0.3812 0.55785 0.0
H3160 H 0.98103 0.39205 0.51834 0.0
C3161 C 0.96829 0.45362 0.53859 0.0
C3162 C 0.97413 0.45751 0.51999 0.0
C3163 C 0.96149 0.43614 0.5433 0.0
C3164 C 0.97014 0.38907 0.52896 0.0
H3165 H 0.96803 0.34298 0.61132 0.0
H3166 H 0.95539 0.36667 0.59112 0.0
H3167 H 0.98155 0.36218 0.53338 0.0
H3168 H 0.97611 0.44661 0.49147 0.0
H3169 H 0.96442 0.416 0.4998 0.0
H3170 H 0.93337 0.40883 0.55427 0.0
C3171 C 0.9606 0.35398 0.58465 0.0
C3172 C 0.97039 0.37186 0.5376 0.0
C3173 C 0.96806 0.34044 0.59627 0.0
C3174 C 0.9719 0.44397 0.50597 0.0
C3175 C 0.9652 0.42646 0.51072 0.0
C3176 C 0.94359 0.39852 0.5493 0.0
C3177 C 0.96147 0.35185 0.56495 0.0
C3178 C 0.95778 0.36801 0.55275 0.0
C3179 C 0.96048 0.42221 0.52952 0.0
C3180 C 0.95735 0.40286 0.53534 0.0
H3181 H 0.9826 0.30941 0.56253 0.0
H3182 H 0.9692 0.33296 0.54217 0.0
H3183 H 0.93351 0.37852 0.56918 0.0
H3184 H 0.9697 0.4638 0.54968 0.0
H3185 H 0.95817 0.43323 0.55796 0.0
C3186 C 0.46922 0.28799 0.33649 0.0
C3187 C 0.47333 0.2774 0.35244 0.0
C3188 C 0.45187 0.28605 0.32751 0.0
C3189 C 0.40274 0.26838 0.33448 0.0
H3190 H 0.40227 0.2708 0.27994 0.0
C3191 C 0.33567 0.25181 0.29241 0.0
C3192 C 0.33082 0.26463 0.27849 0.0
C3193 C 0.35337 0.25261 0.30095 0.0
C3194 C 0.40218 0.27021 0.29518 0.0
H3195 H 0.46235 0.25652 0.3715 0.0
H3196 H 0.43217 0.25285 0.35559 0.0
H3197 H 0.4324 0.27359 0.2961 0.0
H3198 H 0.34099 0.288 0.26224 0.0
H3199 H 0.37203 0.28927 0.27706 0.0
H3200 H 0.3725 0.2648 0.33347 0.0
C3201 C 0.44225 0.2629 0.35022 0.0
C3202 C 0.41942 0.27187 0.30447 0.0
C3203 C 0.45959 0.26495 0.35931 0.0
C3204 C 0.3443 0.27792 0.27289 0.0
C3205 C 0.36209 0.27861 0.28134 0.0
C3206 C 0.38553 0.26657 0.32518 0.0
C3207 C 0.43822 0.27337 0.33414 0.0
C3208 C 0.41991 0.2711 0.32425 0.0
C3209 C 0.36668 0.26614 0.29565 0.0
C3210 C 0.38506 0.26757 0.30544 0.0
H3211 H 0.47942 0.29783 0.33091 0.0
H3212 H 0.44912 0.29462 0.31543 0.0
H3213 H 0.40252 0.26801 0.34973 0.0
H3214 H 0.32562 0.2414 0.29707 0.0
H3215 H 0.35661 0.24268 0.31177 0.0
C3216 C 0.41123 0.55446 0.30443 0.0
C3217 C 0.42096 0.54683 0.28868 0.0
C3218 C 0.41925 0.55381 0.32219 0.0
C3219 C 0.46516 0.5471 0.34584 0.0
H3220 H 0.43219 0.53908 0.38963 0.0
C3221 C 0.49088 0.55839 0.42117 0.0
C3222 C 0.48427 0.5465 0.43545 0.0
C3223 C 0.48348 0.55747 0.40316 0.0
C3224 C 0.44164 0.5411 0.37754 0.0
H3225 H 0.44673 0.53248 0.2792 0.0
H3226 H 0.46055 0.53096 0.31028 0.0
H3227 H 0.41871 0.53896 0.35841 0.0
H3228 H 0.46469 0.52416 0.44177 0.0
H3229 H 0.45226 0.52214 0.41017 0.0
H3230 H 0.48817 0.5487 0.36491 0.0
C3231 C 0.44688 0.53779 0.30885 0.0
C3232 C 0.43387 0.54131 0.35965 0.0
C3233 C 0.43893 0.5386 0.29104 0.0
C3234 C 0.47025 0.53345 0.43114 0.0
C3235 C 0.46294 0.53243 0.41305 0.0
C3236 C 0.47296 0.54674 0.36371 0.0
C3237 C 0.43711 0.54535 0.32464 0.0
C3238 C 0.4455 0.5445 0.3436 0.0
C3239 C 0.4694 0.54451 0.39888 0.0
C3240 C 0.46126 0.54393 0.3798 0.0
H3241 H 0.39741 0.56102 0.30305 0.0
H3242 H 0.4115 0.5601 0.33397 0.0
H3243 H 0.47451 0.54976 0.33381 0.0
H3244 H 0.50185 0.56843 0.4238 0.0
H3245 H 0.48861 0.56716 0.39267 0.0
C3246 C 0.26962 0.68176 0.07179 0.0
C3247 C 0.26809 0.66242 0.07239 0.0
C3248 C 0.26587 0.6924 0.08793 0.0
C3249 C 0.26314 0.69073 0.13944 0.0
H3250 H 0.22854 0.7324 0.13504 0.0
C3251 C 0.23719 0.73057 0.20503 0.0
C3252 C 0.23708 0.74989 0.20382 0.0
C3253 C 0.23911 0.71973 0.18881 0.0
C3254 C 0.23837 0.72093 0.13648 0.0
H3255 H 0.26224 0.63907 0.09061 0.0
H3256 H 0.25599 0.65769 0.11883 0.0
H3257 H 0.2372 0.71402 0.10717 0.0
H3258 H 0.23808 0.77308 0.18478 0.0
H3259 H 0.24182 0.7542 0.15632 0.0
H3260 H 0.26474 0.69776 0.16857 0.0
C3261 C 0.25997 0.66457 0.10583 0.0
C3262 C 0.24332 0.71042 0.12052 0.0
C3263 C 0.26352 0.65393 0.08966 0.0
C3264 C 0.23793 0.7582 0.18603 0.0
C3265 C 0.24009 0.74735 0.16976 0.0
C3266 C 0.25834 0.70131 0.15535 0.0
C3267 C 0.26075 0.68392 0.10503 0.0
C3268 C 0.25574 0.69522 0.12187 0.0
C3269 C 0.24124 0.72799 0.17102 0.0
C3270 C 0.24585 0.71652 0.15409 0.0
H3271 H 0.27307 0.68875 0.05872 0.0
H3272 H 0.26682 0.70728 0.087 0.0
H3273 H 0.27291 0.6792 0.14082 0.0
H3274 H 0.23633 0.72389 0.21862 0.0
H3275 H 0.2394 0.70486 0.19026 0.0
C3276 C 0.08691 0.53232 0.83439 0.0
C3277 C 0.10204 0.52145 0.82711 0.0
C3278 C 0.08155 0.53123 0.85339 0.0
C3279 C 0.09636 0.51409 0.89992 0.0
H3280 H 0.04172 0.5108 0.90878 0.0
C3281 C 0.05879 0.51654 0.97349 0.0
C3282 C 0.04172 0.50667 0.9757 0.0
C3283 C 0.06859 0.51654 0.95613 0.0
C3284 C 0.05703 0.51143 0.90653 0.0
H3285 H 0.12402 0.50158 0.83421 0.0
H3286 H 0.11436 0.49941 0.86724 0.0
H3287 H 0.05411 0.51598 0.87712 0.0
H3288 H 0.02256 0.48755 0.96234 0.0
H3289 H 0.03998 0.48704 0.93227 0.0
H3290 H 0.09916 0.50911 0.92945 0.0
C3291 C 0.1068 0.50893 0.85834 0.0
C3292 C 0.06412 0.51475 0.88842 0.0
C3293 C 0.11224 0.5101 0.83937 0.0
C3294 C 0.03554 0.4955 0.96089 0.0
C3295 C 0.04544 0.49531 0.94366 0.0
C3296 C 0.08923 0.51071 0.91812 0.0
C3297 C 0.09111 0.51915 0.86543 0.0
C3298 C 0.08383 0.51619 0.88491 0.0
C3299 C 0.06153 0.50651 0.94083 0.0
C3300 C 0.06948 0.50929 0.92157 0.0
H3301 H 0.07892 0.54137 0.82535 0.0
H3302 H 0.06963 0.53956 0.85856 0.0
H3303 H 0.11163 0.51521 0.89762 0.0
H3304 H 0.06384 0.52528 0.98472 0.0
H3305 H 0.08093 0.52533 0.95437 0.0
C3306 C 0.27928 0.36602 0.58005 0.0
C3307 C 0.2675 0.35867 0.56623 0.0
C3308 C 0.2802 0.35787 0.59779 0.0
C3309 C 0.26642 0.31568 0.6251 0.0
H3310 H 0.27143 0.34899 0.6676 0.0
C3311 C 0.25212 0.29474 0.70308 0.0
C3312 C 0.26643 0.29957 0.71571 0.0
C3313 C 0.25264 0.30138 0.68461 0.0
C3314 C 0.27014 0.33952 0.65586 0.0
H3315 H 0.2477 0.33678 0.56002 0.0
H3316 H 0.24868 0.3229 0.59117 0.0
H3317 H 0.2718 0.36129 0.6358 0.0
H3318 H 0.29236 0.31531 0.71889 0.0
H3319 H 0.29296 0.32727 0.68677 0.0
H3320 H 0.26405 0.29401 0.6455 0.0
C3321 C 0.25767 0.33469 0.58824 0.0
C3322 C 0.27049 0.34652 0.63756 0.0
C3323 C 0.25703 0.34267 0.57035 0.0
C3324 C 0.28113 0.31134 0.70952 0.0
C3325 C 0.28145 0.31823 0.69116 0.0
C3326 C 0.26576 0.30872 0.64346 0.0
C3327 C 0.26904 0.34236 0.60234 0.0
C3328 C 0.26875 0.33471 0.62187 0.0
C3329 C 0.26728 0.31325 0.67849 0.0
C3330 C 0.26771 0.32057 0.65901 0.0
H3331 H 0.28765 0.37826 0.57723 0.0
H3332 H 0.28956 0.3639 0.608 0.0
H3333 H 0.26533 0.30607 0.61346 0.0
H3334 H 0.24065 0.28564 0.7074 0.0
H3335 H 0.24146 0.29744 0.67516 0.0
C3336 C 0.40251 0.57982 0.18515 0.0
C3337 C 0.38462 0.57181 0.18884 0.0
C3338 C 0.41021 0.5801 0.16683 0.0
C3339 C 0.41038 0.55053 0.12642 0.0
H3340 H 0.439 0.58905 0.10097 0.0
C3341 C 0.45186 0.53402 0.05824 0.0
C3342 C 0.4699 0.542 0.0558 0.0
C3343 C 0.43924 0.54048 0.07226 0.0
C3344 C 0.43121 0.5781 0.10798 0.0
H3345 H 0.36004 0.55923 0.1761 0.0
H3346 H 0.37367 0.55945 0.14414 0.0
H3347 H 0.42037 0.59638 0.12969 0.0
H3348 H 0.48883 0.5633 0.06558 0.0
H3349 H 0.46722 0.57397 0.09094 0.0
H3350 H 0.42197 0.53193 0.10583 0.0
C3351 C 0.38171 0.56546 0.15544 0.0
C3352 C 0.42044 0.58237 0.1243 0.0
C3353 C 0.37393 0.56537 0.17371 0.0
C3354 C 0.47496 0.55692 0.06727 0.0
C3355 C 0.46249 0.5631 0.08167 0.0
C3356 C 0.42136 0.5462 0.11039 0.0
C3357 C 0.40019 0.57221 0.15197 0.0
C3358 C 0.41003 0.56856 0.13368 0.0
C3359 C 0.44458 0.55474 0.08455 0.0
C3360 C 0.43203 0.55988 0.10098 0.0
H3361 H 0.411 0.58502 0.19653 0.0
H3362 H 0.42451 0.5853 0.16451 0.0
H3363 H 0.40282 0.53954 0.13364 0.0
H3364 H 0.44749 0.52273 0.04928 0.0
H3365 H 0.42537 0.53408 0.07359 0.0
C3366 C 0.30278 0.6769 0.94627 0.0
C3367 C 0.29734 0.68464 0.96376 0.0
C3368 C 0.30899 0.68811 0.93153 0.0
C3369 C 0.30189 0.73473 0.91444 0.0
H3370 H 0.33653 0.7175 0.87458 0.0
C3371 C 0.30247 0.76852 0.8419 0.0
C3372 C 0.29934 0.75564 0.82744 0.0
C3373 C 0.30834 0.76263 0.85951 0.0
C3374 C 0.32696 0.72258 0.88568 0.0
H3375 H 0.29515 0.71008 0.97993 0.0
H3376 H 0.30609 0.72979 0.95405 0.0
H3377 H 0.33617 0.70209 0.90509 0.0
H3378 H 0.30105 0.72666 0.81969 0.0
H3379 H 0.31113 0.71637 0.85049 0.0
H3380 H 0.29208 0.75466 0.89482 0.0
C3381 C 0.30532 0.71503 0.95172 0.0
C3382 C 0.32672 0.71376 0.9031 0.0
C3383 C 0.29907 0.70377 0.96652 0.0
C3384 C 0.30322 0.73689 0.83059 0.0
C3385 C 0.30918 0.73102 0.84817 0.0
C3386 C 0.30222 0.7436 0.89708 0.0
C3387 C 0.30996 0.70734 0.93396 0.0
C3388 C 0.31356 0.71922 0.91736 0.0
C3389 C 0.3113 0.74378 0.86294 0.0
C3390 C 0.31417 0.7371 0.88229 0.0
H3391 H 0.30172 0.66219 0.94374 0.0
H3392 H 0.31213 0.68175 0.91796 0.0
H3393 H 0.29146 0.73919 0.92504 0.0
H3394 H 0.29975 0.78309 0.83985 0.0
H3395 H 0.31001 0.77275 0.87062 0.0
C3396 C 0.08339 0.48822 0.72544 0.0
C3397 C 0.10335 0.48854 0.72324 0.0
C3398 C 0.07189 0.48778 0.70971 0.0
C3399 C 0.07314 0.50351 0.66138 0.0
H3400 H 0.02545 0.47707 0.65744 0.0
C3401 C 0.01723 0.52544 0.60892 0.0
C3402 C 0.01043 0.51142 0.59718 0.0
C3403 C 0.02743 0.52102 0.62488 0.0
C3404 C 0.03878 0.48446 0.65835 0.0
H3405 H 0.12698 0.48743 0.70296 0.0
H3406 H 0.10683 0.4867 0.67543 0.0
H3407 H 0.04659 0.47045 0.68357 0.0
H3408 H 0.00777 0.48182 0.59366 0.0
H3409 H 0.02573 0.47408 0.62165 0.0
H3410 H 0.06536 0.51762 0.63636 0.0
C3411 C 0.10011 0.48699 0.68933 0.0
C3412 C 0.05081 0.48073 0.67328 0.0
C3413 C 0.11163 0.48735 0.70507 0.0
C3414 C 0.01309 0.49289 0.60233 0.0
C3415 C 0.02322 0.48846 0.61839 0.0
C3416 C 0.06109 0.50732 0.6466 0.0
C3417 C 0.08015 0.48772 0.69151 0.0
C3418 C 0.06804 0.49032 0.67498 0.0
C3419 C 0.03095 0.50251 0.62948 0.0
C3420 C 0.04371 0.49799 0.64505 0.0
H3421 H 0.07661 0.48901 0.7393 0.0
H3422 H 0.05654 0.48847 0.7118 0.0
H3423 H 0.0862 0.51129 0.66246 0.0
H3424 H 0.01552 0.53983 0.6053 0.0
H3425 H 0.03301 0.53211 0.63339 0.0
C3426 C 0.26059 0.35239 0.45018 0.0
C3427 C 0.25764 0.37161 0.45018 0.0
C3428 C 0.26175 0.34247 0.43317 0.0
C3429 C 0.27247 0.34797 0.38247 0.0
H3430 H 0.24257 0.30365 0.37625 0.0
C3431 C 0.26577 0.31327 0.3096 0.0
C3432 C 0.26566 0.29389 0.30884 0.0
C3433 C 0.2643 0.32256 0.32692 0.0
C3434 C 0.25124 0.31585 0.37778 0.0
H3435 H 0.25394 0.39547 0.43223 0.0
H3436 H 0.2562 0.37825 0.40277 0.0
H3437 H 0.24198 0.3197 0.40657 0.0
H3438 H 0.26375 0.26908 0.32574 0.0
H3439 H 0.26167 0.28518 0.35583 0.0
H3440 H 0.28205 0.34407 0.35391 0.0
C3441 C 0.25758 0.37083 0.41587 0.0
C3442 C 0.25087 0.32505 0.39518 0.0
C3443 C 0.25617 0.38068 0.4328 0.0
C3444 C 0.26374 0.28403 0.32578 0.0
C3445 C 0.26246 0.2933 0.34309 0.0
C3446 C 0.27301 0.33869 0.36515 0.0
C3447 C 0.26029 0.35162 0.41583 0.0
C3448 C 0.26137 0.34129 0.39767 0.0
C3449 C 0.26289 0.3127 0.34394 0.0
C3450 C 0.2623 0.32256 0.36249 0.0
H3451 H 0.26174 0.34498 0.46331 0.0
H3452 H 0.26396 0.32767 0.43356 0.0
H3453 H 0.28091 0.36033 0.38403 0.0
H3454 H 0.26717 0.32129 0.29682 0.0
H3455 H 0.26429 0.3375 0.32694 0.0
C3456 C 0.31208 0.45096 0.49643 0.0
C3457 C 0.30686 0.43546 0.50716 0.0
C3458 C 0.32952 0.45965 0.49907 0.0
C3459 C 0.37731 0.4526 0.51918 0.0
H3460 H 0.37968 0.50593 0.51531 0.0
C3461 C 0.44538 0.49335 0.53581 0.0
C3462 C 0.45116 0.50628 0.52216 0.0
C3463 C 0.42732 0.48535 0.53524 0.0
C3464 C 0.37925 0.49103 0.51635 0.0
H3465 H 0.31599 0.4169 0.52907 0.0
H3466 H 0.34633 0.4323 0.53397 0.0
H3467 H 0.34921 0.49039 0.51198 0.0
H3468 H 0.44225 0.52144 0.4976 0.0
H3469 H 0.41062 0.50761 0.49676 0.0
H3470 H 0.40738 0.45334 0.52371 0.0
C3471 C 0.33705 0.43756 0.52326 0.0
C3472 C 0.36181 0.48209 0.51437 0.0
C3473 C 0.31961 0.42875 0.5205 0.0
C3474 C 0.43823 0.51154 0.50834 0.0
C3475 C 0.42009 0.50366 0.50788 0.0
C3476 C 0.39472 0.46157 0.52133 0.0
C3477 C 0.34218 0.45318 0.51263 0.0
C3478 C 0.36064 0.46273 0.51555 0.0
C3479 C 0.41458 0.49024 0.52113 0.0
C3480 C 0.39591 0.48086 0.51976 0.0
H3481 H 0.30268 0.45642 0.48591 0.0
H3482 H 0.33314 0.47137 0.49032 0.0
H3483 H 0.37704 0.43768 0.51991 0.0
H3484 H 0.455 0.48897 0.54665 0.0
H3485 H 0.42338 0.47521 0.54576 0.0
C3486 C 0.84174 0.12138 0.4972 0.0
C3487 C 0.83255 0.11284 0.51266 0.0
C3488 C 0.86073 0.11725 0.49254 0.0
C3489 C 0.89543 0.09424 0.47933 0.0
H3490 H 0.93335 0.09091 0.51798 0.0
C3491 C 0.95953 0.04509 0.4786 0.0
C3492 C 0.97598 0.0504 0.48808 0.0
C3493 C 0.94427 0.05739 0.47703 0.0
C3494 C 0.92306 0.09215 0.50692 0.0
H3495 H 0.8362 0.09363 0.53562 0.0
H3496 H 0.86956 0.08658 0.52756 0.0
H3497 H 0.9017 0.10314 0.52598 0.0
H3498 H 0.99036 0.07343 0.50114 0.0
H3499 H 0.96362 0.09484 0.49845 0.0
H3500 H 0.91658 0.0824 0.46048 0.0
C3501 C 0.86198 0.09646 0.51909 0.0
C3502 C 0.90489 0.09892 0.51158 0.0
C3503 C 0.84288 0.1004 0.52363 0.0
C3504 C 0.9778 0.06887 0.49391 0.0
C3505 C 0.96247 0.08112 0.49247 0.0
C3506 C 0.91357 0.08726 0.47471 0.0
C3507 C 0.87098 0.10471 0.50339 0.0
C3508 C 0.89079 0.0996 0.49795 0.0
C3509 C 0.94521 0.07514 0.48498 0.0
C3510 C 0.92741 0.08577 0.48858 0.0
H3511 H 0.83417 0.13101 0.48842 0.0
H3512 H 0.8674 0.12385 0.48043 0.0
H3513 H 0.88475 0.09459 0.46858 0.0
H3514 H 0.95779 0.031 0.47379 0.0
H3515 H 0.93114 0.0524 0.47118 0.0
C3516 C 0.65998 0.0673 0.28067 0.0
C3517 C 0.647 0.06389 0.26636 0.0
C3518 C 0.67116 0.08313 0.2803 0.0
C3519 C 0.67768 0.12843 0.25652 0.0
H3520 H 0.7302 0.12118 0.27098 0.0
C3521 C 0.73821 0.17882 0.2371 0.0
C3522 C 0.74914 0.18486 0.25222 0.0
C3523 C 0.72546 0.16428 0.23946 0.0
C3524 C 0.71554 0.12341 0.26704 0.0
H3525 H 0.63498 0.07459 0.24079 0.0
H3526 H 0.655 0.10196 0.23969 0.0
H3527 H 0.70766 0.09592 0.27428 0.0
H3528 H 0.75584 0.18021 0.28139 0.0
H3529 H 0.73377 0.15434 0.28544 0.0
H3530 H 0.68598 0.15578 0.24859 0.0
C3531 C 0.65627 0.09267 0.25149 0.0
C3532 C 0.70256 0.10901 0.26903 0.0
C3533 C 0.64481 0.07697 0.25206 0.0
C3534 C 0.74751 0.17577 0.26958 0.0
C3535 C 0.73498 0.16102 0.27186 0.0
C3536 C 0.69076 0.14274 0.25426 0.0
C3537 C 0.66989 0.09572 0.26539 0.0
C3538 C 0.68345 0.11133 0.26381 0.0
C3539 C 0.72365 0.15536 0.25689 0.0
C3540 C 0.70979 0.14031 0.25948 0.0
H3541 H 0.66176 0.05753 0.292 0.0
H3542 H 0.68107 0.08529 0.29154 0.0
H3543 H 0.66304 0.13082 0.25263 0.0
H3544 H 0.73902 0.18576 0.22365 0.0
H3545 H 0.71696 0.16003 0.22769 0.0
C3546 C 0.69609 0.92824 0.03729 0.0
C3547 C 0.69911 0.91047 0.0297 0.0
C3548 C 0.67802 0.93646 0.03701 0.0
C3549 C 0.63608 0.93768 0.00892 0.0
H3550 H 0.61034 0.96021 0.05228 0.0
C3551 C 0.56083 0.96842 0.00321 0.0
C3552 C 0.55608 0.98425 0.01384 0.0
C3553 C 0.57788 0.95897 0.00613 0.0
C3554 C 0.61745 0.95425 0.03996 0.0
H3555 H 0.68557 0.88719 0.01628 0.0
H3556 H 0.65406 0.90182 0.01535 0.0
H3557 H 0.64086 0.94435 0.05609 0.0
H3558 H 0.56541 0.00267 0.03585 0.0
H3559 H 0.59568 0.9867 0.04038 0.0
H3560 H 0.6134 0.94813 0.99253 0.0
C3561 C 0.66567 0.90926 0.02164 0.0
C3562 C 0.63484 0.94506 0.04221 0.0
C3563 C 0.68365 0.90089 0.02225 0.0
C3564 C 0.56872 0.99048 0.02746 0.0
C3565 C 0.586 0.98121 0.03016 0.0
C3566 C 0.61892 0.94713 0.00659 0.0
C3567 C 0.66277 0.92718 0.02882 0.0
C3568 C 0.64422 0.93662 0.02671 0.0
C3569 C 0.59081 0.96532 0.0195 0.0
C3570 C 0.60928 0.95546 0.02209 0.0
H3571 H 0.70776 0.9359 0.04318 0.0
H3572 H 0.67613 0.95033 0.04253 0.0
H3573 H 0.64323 0.93154 -0.0033 0.0
H3574 H 0.55122 0.96312 0.99279 0.0
H3575 H 0.58078 0.94654 -0.00201 0.0
C3576 C 0.35726 0.48269 0.24703 0.0
C3577 C 0.36972 0.48916 0.23277 0.0
C3578 C 0.35119 0.46441 0.24693 0.0
C3579 C 0.34168 0.42627 0.21581 0.0
H3580 H 0.34446 0.39611 0.26062 0.0
C3581 C 0.31613 0.35108 0.2158 0.0
C3582 C 0.30639 0.34487 0.23202 0.0
C3583 C 0.32561 0.36793 0.21591 0.0
C3584 C 0.34336 0.4044 0.24806 0.0
H3585 H 0.38555 0.48162 0.20721 0.0
H3586 H 0.37448 0.44964 0.20684 0.0
H3587 H 0.35761 0.42721 0.26076 0.0
H3588 H 0.29888 0.35121 0.26107 0.0
H3589 H 0.31483 0.38102 0.2612 0.0
H3590 H 0.32671 0.40399 0.20329 0.0
C3591 C 0.36962 0.45876 0.21813 0.0
C3592 C 0.35099 0.42214 0.24813 0.0
C3593 C 0.37597 0.477 0.21839 0.0
C3594 C 0.30645 0.35568 0.24845 0.0
C3595 C 0.31568 0.37269 0.2485 0.0
C3596 C 0.33378 0.40865 0.21581 0.0
C3597 C 0.35723 0.45234 0.23244 0.0
C3598 C 0.35011 0.43323 0.23205 0.0
C3599 C 0.32529 0.37908 0.23219 0.0
C3600 C 0.33442 0.39753 0.23198 0.0
H3601 H 0.35228 0.49172 0.25835 0.0
H3602 H 0.34149 0.45978 0.25802 0.0
H3603 H 0.34065 0.43469 0.20331 0.0
H3604 H 0.31654 0.3428 0.20306 0.0
H3605 H 0.33322 0.37218 0.20323 0.0
C3606 C 0.21521 0.61091 0.01262 0.0
C3607 C 0.21725 0.62931 0.0068 0.0
C3608 C 0.19749 0.60436 0.01864 0.0
C3609 C 0.14701 0.60936 0.01425 0.0
H3610 H 0.14402 0.58634 0.06344 0.0
C3611 C 0.0776 0.57614 0.04082 0.0
C3612 C 0.07955 0.55889 0.04946 0.0
C3613 C 0.09344 0.58737 0.03788 0.0
C3614 C 0.14463 0.59259 0.04963 0.0
H3615 H 0.20225 0.65504 0.00185 0.0
H3616 H 0.1709 0.64324 0.0119 0.0
H3617 H 0.17374 0.6006 0.05267 0.0
H3618 H 0.09922 0.54 0.06238 0.0
H3619 H 0.12716 0.55922 0.05669 0.0
H3620 H 0.11838 0.60052 0.01059 0.0
C3621 C 0.1832 0.63412 0.01206 0.0
C3622 C 0.16159 0.60082 0.04354 0.0
C3623 C 0.20106 0.64081 0.00632 0.0
C3624 C 0.09742 0.55333 0.05583 0.0
C3625 C 0.11336 0.56441 0.05261 0.0
C3626 C 0.13012 0.60087 0.02019 0.0
C3627 C 0.18143 0.61597 0.01864 0.0
C3628 C 0.16297 0.60897 0.0257 0.0
C3629 C 0.11161 0.58139 0.04323 0.0
C3630 C 0.12884 0.5921 0.03783 0.0
H3631 H 0.22741 0.60169 0.0131 0.0
H3632 H 0.19634 0.59022 0.02341 0.0
H3633 H 0.14787 0.61549 0.00038 0.0
H3634 H 0.06382 0.58078 0.03608 0.0
H3635 H 0.09148 0.60055 0.03106 0.0
C3636 C 0.67539 0.94622 0.29902 0.0
C3637 C 0.68116 0.96317 0.29138 0.0
C3638 C 0.68879 0.93399 0.30608 0.0
C3639 C 0.7382 0.92073 0.29831 0.0
H3640 H 0.72572 0.88611 0.33814 0.0
C3641 C 0.7773 0.85156 0.30249 0.0
C3642 C 0.76432 0.8369 0.30171 0.0
C3643 C 0.77099 0.86927 0.30756 0.0
C3644 C 0.72954 0.89581 0.32715 0.0
H3645 H 0.70537 0.98102 0.28589 0.0
H3646 H 0.72892 0.95946 0.29819 0.0
H3647 H 0.70708 0.91452 0.33539 0.0
H3648 H 0.73491 0.8289 0.30695 0.0
H3649 H 0.7239 0.85972 0.31563 0.0
H3650 H 0.7599 0.90158 0.28938 0.0
C3651 C 0.714 0.95566 0.2986 0.0
C3652 C 0.71888 0.91202 0.32554 0.0
C3653 C 0.70054 0.96795 0.29154 0.0
C3654 C 0.7452 0.83998 0.30724 0.0
C3655 C 0.73895 0.8576 0.31245 0.0
C3656 C 0.7489 0.90457 0.29996 0.0
C3657 C 0.70827 0.93843 0.30567 0.0
C3658 C 0.72247 0.92414 0.3105 0.0
C3659 C 0.75165 0.87252 0.31212 0.0
C3660 C 0.74402 0.89153 0.31379 0.0
H3661 H 0.66054 0.94219 0.2992 0.0
H3662 H 0.68393 0.92069 0.31109 0.0
H3663 H 0.74127 0.92974 0.28651 0.0
H3664 H 0.79216 0.84956 0.29842 0.0
H3665 H 0.78107 0.88053 0.30728 0.0
C3666 C 0.83356 0.09878 0.78176 0.0
C3667 C 0.8285 0.08313 0.77137 0.0
C3668 C 0.81975 0.11163 0.78748 0.0
C3669 C 0.78816 0.13604 0.80183 0.0
H3670 H 0.75855 0.15203 0.75948 0.0
C3671 C 0.76395 0.21046 0.79928 0.0
C3672 C 0.76805 0.21891 0.78194 0.0
C3673 C 0.7627 0.19131 0.80046 0.0
C3674 C 0.76666 0.14775 0.77149 0.0
H3675 H 0.80485 0.06794 0.75991 0.0
H3676 H 0.78055 0.0906 0.76993 0.0
H3677 H 0.77377 0.12177 0.75866 0.0
H3678 H 0.77276 0.21436 0.75206 0.0
H3679 H 0.77195 0.18088 0.75417 0.0
H3680 H 0.78298 0.16256 0.81383 0.0
C3681 C 0.79527 0.09293 0.77351 0.0
C3682 C 0.77513 0.13024 0.77116 0.0
C3683 C 0.80915 0.07996 0.76783 0.0
C3684 C 0.76967 0.20807 0.76559 0.0
C3685 C 0.76898 0.18886 0.76684 0.0
C3686 C 0.77999 0.15361 0.80204 0.0
C3687 C 0.80053 0.10914 0.78295 0.0
C3688 C 0.78691 0.12469 0.78585 0.0
C3689 C 0.7662 0.1802 0.78443 0.0
C3690 C 0.77004 0.16009 0.78639 0.0
H3691 H 0.84834 0.10152 0.78481 0.0
H3692 H 0.8244 0.12408 0.79446 0.0
H3693 H 0.79676 0.13193 0.81357 0.0
H3694 H 0.76221 0.21866 0.81202 0.0
H3695 H 0.75992 0.18521 0.81413 0.0
loop_
_geom_bond_atom_site_label_1
_geom_bond_atom_site_label_2
_geom_bond_distance
_geom_bond_site_symmetry_2
_ccdc_geom_bond_type
C0 O1 1.306 . S
C0 O3 1.160 . S
O1 C0 1.306 . S
O1 Cd2 2.228 1_655 S
Cd2 O1 2.228 1_455 S
Cd2 O6 2.273 . S
Cd2 O10 2.277 . S
O3 C0 1.160 . S
O3 Cd4 2.203 1_655 S
Cd4 O3 2.203 1_455 S
Cd4 O6 2.411 . S
Cd4 O7 2.333 . S
Cd4 O8 2.352 . S
Cd4 O12 2.277 . S
Cd4 O13 2.356 . S
C5 O10 1.209 . S
C5 O12 1.226 . S
O6 Cd2 2.273 . S
O6 Cd4 2.411 . S
O6 C9 1.320 . S
O7 Cd4 2.333 . S
O7 C9 1.214 . S
O8 Cd4 2.352 . S
O8 C11 1.258 . S
C9 O6 1.320 . S
C9 O7 1.214 . S
O10 Cd2 2.277 . S
O10 C5 1.209 . S
C11 O8 1.258 . S
C11 O13 1.282 . S
O12 Cd4 2.277 . S
O12 C5 1.226 . S
O13 Cd4 2.356 . S
O13 C11 1.282 . S
C14 O15 1.306 . S
C14 O17 1.160 . S
O15 C14 1.306 . S
O15 Cd16 2.228 . S
Cd16 O15 2.228 . S
Cd16 O20 2.273 . S
Cd16 O24 2.277 . S
O17 C14 1.160 . S
O17 Cd18 2.203 . S
Cd18 O17 2.203 . S
Cd18 O20 2.411 . S
Cd18 O21 2.333 . S
Cd18 O22 2.352 . S
Cd18 O26 2.277 . S
Cd18 O27 2.356 . S
C19 O24 1.209 . S
C19 O26 1.226 . S
O20 Cd16 2.273 . S
O20 Cd18 2.411 . S
O20 C23 1.320 . S
O21 Cd18 2.333 . S
O21 C23 1.214 . S
O22 Cd18 2.352 . S
O22 C25 1.258 . S
C23 O20 1.320 . S
C23 O21 1.214 . S
O24 Cd16 2.277 . S
O24 C19 1.209 . S
C25 O22 1.258 . S
C25 O27 1.282 . S
O26 Cd18 2.277 . S
O26 C19 1.226 . S
O27 Cd18 2.356 . S
O27 C25 1.282 . S
C28 O29 1.306 . S
C28 O31 1.160 . S
O29 C28 1.306 . S
O29 Cd30 2.228 . S
Cd30 O29 2.228 . S
Cd30 O34 2.273 . S
Cd30 O38 2.277 . S
O31 C28 1.160 . S
O31 Cd32 2.203 . S
Cd32 O31 2.203 . S
Cd32 O34 2.411 . S
Cd32 O35 2.333 . S
Cd32 O36 2.352 . S
Cd32 O40 2.277 . S
Cd32 O41 2.356 . S
C33 O38 1.209 . S
C33 O40 1.226 . S
O34 Cd30 2.273 . S
O34 Cd32 2.411 . S
O34 C37 1.320 . S
O35 Cd32 2.333 . S
O35 C37 1.214 . S
O36 Cd32 2.352 . S
O36 C39 1.258 . S
C37 O34 1.320 . S
C37 O35 1.214 . S
O38 Cd30 2.277 . S
O38 C33 1.209 . S
C39 O36 1.258 . S
C39 O41 1.282 . S
O40 Cd32 2.277 . S
O40 C33 1.226 . S
O41 Cd32 2.356 . S
O41 C39 1.282 . S
C42 O43 1.306 . S
C42 O45 1.160 . S
O43 C42 1.306 . S
O43 Cd44 2.228 . S
Cd44 O43 2.228 . S
Cd44 O48 2.273 . S
Cd44 O52 2.277 . S
O45 C42 1.160 . S
O45 Cd46 2.203 . S
Cd46 O45 2.203 . S
Cd46 O48 2.411 . S
Cd46 O49 2.333 . S
Cd46 O50 2.352 . S
Cd46 O54 2.277 . S
Cd46 O55 2.356 . S
C47 O52 1.209 . S
C47 O54 1.226 . S
O48 Cd44 2.273 . S
O48 Cd46 2.411 . S
O48 C51 1.320 . S
O49 Cd46 2.333 . S
O49 C51 1.214 . S
O50 Cd46 2.352 . S
O50 C53 1.258 . S
C51 O48 1.320 . S
C51 O49 1.214 . S
O52 Cd44 2.277 . S
O52 C47 1.209 . S
C53 O50 1.258 . S
C53 O55 1.282 . S
O54 Cd46 2.277 . S
O54 C47 1.226 . S
O55 Cd46 2.356 . S
O55 C53 1.282 . S
C56 O57 1.306 . S
C56 O59 1.160 . S
O57 C56 1.306 . S
O57 Cd58 2.228 . S
Cd58 O57 2.228 . S
Cd58 O62 2.273 . S
Cd58 O66 2.277 . S
O59 C56 1.160 . S
O59 Cd60 2.203 . S
Cd60 O59 2.203 . S
Cd60 O62 2.411 . S
Cd60 O63 2.333 . S
Cd60 O64 2.352 1_545 S
Cd60 O68 2.277 . S
Cd60 O69 2.356 1_545 S
C61 O66 1.209 . S
C61 O68 1.226 . S
O62 Cd58 2.273 . S
O62 Cd60 2.411 . S
O62 C65 1.320 . S
O63 Cd60 2.333 . S
O63 C65 1.214 . S
O64 Cd60 2.352 1_565 S
O64 C67 1.258 . S
C65 O62 1.320 . S
C65 O63 1.214 . S
O66 Cd58 2.277 . S
O66 C61 1.209 . S
C67 O64 1.258 . S
C67 O69 1.282 . S
O68 Cd60 2.277 . S
O68 C61 1.226 . S
O69 Cd60 2.356 1_565 S
O69 C67 1.282 . S
C70 O71 1.306 . S
C70 O73 1.160 . S
O71 C70 1.306 . S
O71 Cd72 2.228 . S
Cd72 O71 2.228 . S
Cd72 O76 2.273 . S
Cd72 O80 2.277 . S
O73 C70 1.160 . S
O73 Cd74 2.203 . S
Cd74 O73 2.203 . S
Cd74 O76 2.411 . S
Cd74 O77 2.333 . S
Cd74 O78 2.352 . S
Cd74 O82 2.277 . S
Cd74 O83 2.356 . S
C75 O80 1.209 . S
C75 O82 1.226 . S
O76 Cd72 2.273 . S
O76 Cd74 2.411 . S
O76 C79 1.320 . S
O77 Cd74 2.333 . S
O77 C79 1.214 . S
O78 Cd74 2.352 . S
O78 C81 1.258 . S
C79 O76 1.320 . S
C79 O77 1.214 . S
O80 Cd72 2.277 . S
O80 C75 1.209 . S
C81 O78 1.258 . S
C81 O83 1.282 . S
O82 Cd74 2.277 . S
O82 C75 1.226 . S
O83 Cd74 2.356 . S
O83 C81 1.282 . S
C84 O85 1.306 . S
C84 O87 1.160 . S
O85 C84 1.306 . S
O85 Cd86 2.228 . S
Cd86 O85 2.228 . S
Cd86 O90 2.273 . S
Cd86 O94 2.277 . S
O87 C84 1.160 . S
O87 Cd88 2.203 . S
Cd88 O87 2.203 . S
Cd88 O90 2.411 . S
Cd88 O91 2.333 . S
Cd88 O92 2.352 . S
Cd88 O96 2.277 . S
Cd88 O97 2.356 . S
C89 O94 1.209 . S
C89 O96 1.226 . S
O90 Cd86 2.273 . S
O90 Cd88 2.411 . S
O90 C93 1.320 . S
O91 Cd88 2.333 . S
O91 C93 1.214 . S
O92 Cd88 2.352 . S
O92 C95 1.258 . S
C93 O90 1.320 . S
C93 O91 1.214 . S
O94 Cd86 2.277 . S
O94 C89 1.209 . S
C95 O92 1.258 . S
C95 O97 1.282 . S
O96 Cd88 2.277 . S
O96 C89 1.226 . S
O97 Cd88 2.356 . S
O97 C95 1.282 . S
C98 O99 1.306 . S
C98 O101 1.160 . S
O99 C98 1.306 . S
O99 Cd100 2.228 . S
Cd100 O99 2.228 . S
Cd100 O104 2.273 . S
Cd100 O108 2.277 . S
O101 C98 1.160 . S
O101 Cd102 2.203 . S
Cd102 O101 2.203 . S
Cd102 O104 2.411 . S
Cd102 O105 2.333 . S
Cd102 O106 2.352 1_554 S
Cd102 O110 2.277 . S
Cd102 O111 2.327 1_554 S
C103 O108 1.209 . S
C103 O110 1.226 . S
O104 Cd100 2.273 . S
O104 Cd102 2.411 . S
O104 C107 1.320 . S
O105 Cd102 2.333 . S
O105 C107 1.214 . S
O106 Cd102 2.352 1_556 S
O106 C109 1.258 . S
C107 O104 1.320 . S
C107 O105 1.214 . S
O108 Cd100 2.277 . S
O108 C103 1.209 . S
C109 O106 1.258 . S
C109 O111 1.315 . S
O110 Cd102 2.277 . S
O110 C103 1.226 . S
O111 Cd102 2.327 1_556 S
O111 C109 1.315 . S
C112 O113 1.306 . S
C112 O115 1.160 . S
O113 C112 1.306 . S
O113 Cd114 2.228 . S
Cd114 O113 2.228 . S
Cd114 O118 2.273 . S
Cd114 O122 2.277 . S
O115 C112 1.160 . S
O115 Cd116 2.203 . S
Cd116 O115 2.203 . S
Cd116 O118 2.411 . S
Cd116 O119 2.333 . S
Cd116 O120 2.352 . S
Cd116 O124 2.277 . S
Cd116 O125 2.356 . S
C117 O122 1.209 . S
C117 O124 1.226 . S
O118 Cd114 2.273 . S
O118 Cd116 2.411 . S
O118 C121 1.320 . S
O119 Cd116 2.333 . S
O119 C121 1.214 . S
O120 Cd116 2.352 . S
O120 C123 1.258 . S
C121 O118 1.320 . S
C121 O119 1.214 . S
O122 Cd114 2.277 . S
O122 C117 1.209 . S
C123 O120 1.258 . S
C123 O125 1.282 . S
O124 Cd116 2.277 . S
O124 C117 1.226 . S
O125 Cd116 2.356 . S
O125 C123 1.282 . S
C126 O127 1.306 . S
C126 O129 1.160 . S
O127 C126 1.306 . S
O127 Cd128 2.228 . S
Cd128 O127 2.228 . S
Cd128 O132 2.273 . S
Cd128 O136 2.277 . S
O129 C126 1.160 . S
O129 Cd130 2.203 . S
Cd130 O129 2.203 . S
Cd130 O132 2.411 . S
Cd130 O133 2.333 . S
Cd130 O134 2.352 . S
Cd130 O138 2.277 . S
Cd130 O139 2.356 . S
C131 O136 1.209 . S
C131 O138 1.226 . S
O132 Cd128 2.273 . S
O132 Cd130 2.411 . S
O132 C135 1.320 . S
O133 Cd130 2.333 . S
O133 C135 1.214 . S
O134 Cd130 2.352 . S
O134 C137 1.258 . S
C135 O132 1.320 . S
C135 O133 1.214 . S
O136 Cd128 2.277 . S
O136 C131 1.209 . S
C137 O134 1.258 . S
C137 O139 1.282 . S
O138 Cd130 2.277 . S
O138 C131 1.226 . S
O139 Cd130 2.356 . S
O139 C137 1.282 . S
C140 O141 1.306 . S
C140 O143 1.160 . S
O141 C140 1.306 . S
O141 Cd142 2.228 . S
Cd142 O141 2.228 . S
Cd142 O146 2.273 . S
Cd142 O150 2.277 . S
O143 C140 1.160 . S
O143 Cd144 2.203 . S
Cd144 O143 2.203 . S
Cd144 O146 2.411 . S
Cd144 O147 2.333 . S
Cd144 O148 2.352 . S
Cd144 O152 2.277 . S
Cd144 O153 2.356 . S
C145 O150 1.209 . S
C145 O152 1.226 . S
O146 Cd142 2.273 . S
O146 Cd144 2.411 . S
O146 C149 1.320 . S
O147 Cd144 2.333 . S
O147 C149 1.214 . S
O148 Cd144 2.352 . S
O148 C151 1.258 . S
C149 O146 1.320 . S
C149 O147 1.214 . S
O150 Cd142 2.277 . S
O150 C145 1.209 . S
C151 O148 1.258 . S
C151 O153 1.282 . S
O152 Cd144 2.277 . S
O152 C145 1.226 . S
O153 Cd144 2.356 . S
O153 C151 1.282 . S
C154 O155 1.306 . S
C154 O157 1.160 . S
O155 C154 1.306 . S
O155 Cd156 2.228 . S
Cd156 O155 2.228 . S
Cd156 O160 2.273 . S
Cd156 O164 2.277 . S
O157 C154 1.160 . S
O157 Cd158 2.203 . S
Cd158 O157 2.203 . S
Cd158 O160 2.411 . S
Cd158 O161 2.333 . S
Cd158 O162 2.352 . S
Cd158 O166 2.277 . S
Cd158 O167 2.356 . S
C159 O164 1.209 . S
C159 O166 1.226 . S
O160 Cd156 2.273 . S
O160 Cd158 2.411 . S
O160 C163 1.320 . S
O161 Cd158 2.333 . S
O161 C163 1.214 . S
O162 Cd158 2.352 . S
O162 C165 1.258 . S
C163 O160 1.320 . S
C163 O161 1.214 . S
O164 Cd156 2.277 . S
O164 C159 1.209 . S
C165 O162 1.258 . S
C165 O167 1.282 . S
O166 Cd158 2.277 . S
O166 C159 1.226 . S
O167 Cd158 2.356 . S
O167 C165 1.282 . S
C168 O169 1.306 . S
C168 O171 1.160 . S
O169 C168 1.306 . S
O169 Cd170 2.228 1_655 S
Cd170 O169 2.228 1_455 S
Cd170 O174 2.273 . S
Cd170 O178 2.277 . S
O171 C168 1.160 . S
O171 Cd172 2.203 1_655 S
Cd172 O171 2.203 1_455 S
Cd172 O174 2.411 . S
Cd172 O175 2.333 . S
Cd172 O176 2.352 . S
Cd172 O180 2.277 . S
Cd172 O181 2.356 . S
C173 O178 1.209 . S
C173 O180 1.226 . S
O174 Cd170 2.273 . S
O174 Cd172 2.411 . S
O174 C177 1.320 . S
O175 Cd172 2.333 . S
O175 C177 1.214 . S
O176 Cd172 2.352 . S
O176 C179 1.258 . S
C177 O174 1.320 . S
C177 O175 1.214 . S
O178 Cd170 2.277 . S
O178 C173 1.209 . S
C179 O176 1.258 . S
C179 O181 1.282 . S
O180 Cd172 2.277 . S
O180 C173 1.226 . S
O181 Cd172 2.356 . S
O181 C179 1.282 . S
C182 O183 1.306 . S
C182 O185 1.160 . S
O183 C182 1.306 . S
O183 Cd184 2.228 1_655 S
Cd184 O183 2.228 1_455 S
Cd184 O188 2.273 . S
Cd184 O192 2.277 . S
O185 C182 1.160 . S
O185 Cd186 2.203 1_655 S
Cd186 O185 2.203 1_455 S
Cd186 O188 2.411 . S
Cd186 O189 2.333 . S
Cd186 O190 2.351 1_455 S
Cd186 O194 2.276 1_455 S
Cd186 O195 2.356 . S
C187 O192 1.212 . S
C187 O194 1.225 1_455 S
O188 Cd184 2.273 . S
O188 Cd186 2.411 . S
O188 C191 1.320 . S
O189 Cd186 2.333 . S
O189 C191 1.214 . S
O190 Cd186 2.351 1_655 S
O190 C193 1.256 1_655 S
C191 O188 1.320 . S
C191 O189 1.214 . S
O192 Cd184 2.277 . S
O192 C187 1.212 . S
C193 O190 1.256 1_455 S
C193 O195 1.282 . S
O194 Cd186 2.276 1_655 S
O194 C187 1.225 1_655 S
O195 Cd186 2.356 . S
O195 C193 1.282 . S
C196 O197 1.306 . S
C196 O199 1.160 . S
O197 C196 1.306 . S
O197 Cd198 2.228 . S
Cd198 O197 2.228 . S
Cd198 O202 2.273 . S
Cd198 O206 2.277 . S
O199 C196 1.160 . S
O199 Cd200 2.203 . S
Cd200 O199 2.203 . S
Cd200 O202 2.411 . S
Cd200 O203 2.333 . S
Cd200 O204 2.352 . S
Cd200 O208 2.277 . S
Cd200 O209 2.356 . S
C201 O206 1.209 . S
C201 O208 1.226 . S
O202 Cd198 2.273 . S
O202 Cd200 2.411 . S
O202 C205 1.320 . S
O203 Cd200 2.333 . S
O203 C205 1.214 . S
O204 Cd200 2.352 . S
O204 C207 1.258 . S
C205 O202 1.320 . S
C205 O203 1.214 . S
O206 Cd198 2.277 . S
O206 C201 1.209 . S
C207 O204 1.258 . S
C207 O209 1.282 . S
O208 Cd200 2.277 . S
O208 C201 1.226 . S
O209 Cd200 2.356 . S
O209 C207 1.282 . S
C210 O211 1.306 . S
C210 O213 1.160 . S
O211 C210 1.306 . S
O211 Cd212 2.228 . S
Cd212 O211 2.228 . S
Cd212 O216 2.273 . S
Cd212 O220 2.277 . S
O213 C210 1.160 . S
O213 Cd214 2.203 . S
Cd214 O213 2.203 . S
Cd214 O216 2.411 . S
Cd214 O217 2.333 . S
Cd214 O218 2.352 . S
Cd214 O222 2.277 . S
Cd214 O223 2.356 . S
C215 O220 1.209 . S
C215 O222 1.226 . S
O216 Cd212 2.273 . S
O216 Cd214 2.411 . S
O216 C219 1.320 . S
O217 Cd214 2.333 . S
O217 C219 1.214 . S
O218 Cd214 2.352 . S
O218 C221 1.258 . S
C219 O216 1.320 . S
C219 O217 1.214 . S
O220 Cd212 2.277 . S
O220 C215 1.209 . S
C221 O218 1.258 . S
C221 O223 1.282 . S
O222 Cd214 2.277 . S
O222 C215 1.226 . S
O223 Cd214 2.356 . S
O223 C221 1.282 . S
C224 O225 1.306 . S
C224 O227 1.160 . S
O225 C224 1.306 . S
O225 Cd226 2.228 . S
Cd226 O225 2.228 . S
Cd226 O230 2.273 . S
Cd226 O234 2.277 . S
O227 C224 1.160 . S
O227 Cd228 2.203 . S
Cd228 O227 2.203 . S
Cd228 O230 2.411 . S
Cd228 O231 2.333 . S
Cd228 O232 2.352 . S
Cd228 O236 2.277 . S
Cd228 O237 2.356 . S
C229 O234 1.209 . S
C229 O236 1.226 . S
O230 Cd226 2.273 . S
O230 Cd228 2.411 . S
O230 C233 1.320 . S
O231 Cd228 2.333 . S
O231 C233 1.214 . S
O232 Cd228 2.352 . S
O232 C235 1.258 . S
C233 O230 1.320 . S
C233 O231 1.214 . S
O234 Cd226 2.277 . S
O234 C229 1.209 . S
C235 O232 1.258 . S
C235 O237 1.282 . S
O236 Cd228 2.277 . S
O236 C229 1.226 . S
O237 Cd228 2.356 . S
O237 C235 1.282 . S
C238 O239 1.306 . S
C238 O241 1.160 . S
O239 C238 1.306 . S
O239 Cd240 2.228 . S
Cd240 O239 2.228 . S
Cd240 O244 2.273 . S
Cd240 O248 2.277 . S
O241 C238 1.160 . S
O241 Cd242 2.203 . S
Cd242 O241 2.203 . S
Cd242 O244 2.411 . S
Cd242 O245 2.333 . S
Cd242 O246 2.352 . S
Cd242 O250 2.277 . S
Cd242 O251 2.356 . S
C243 O248 1.209 . S
C243 O250 1.226 . S
O244 Cd240 2.273 . S
O244 Cd242 2.411 . S
O244 C247 1.320 . S
O245 Cd242 2.333 . S
O245 C247 1.214 . S
O246 Cd242 2.352 . S
O246 C249 1.258 . S
C247 O244 1.320 . S
C247 O245 1.214 . S
O248 Cd240 2.277 . S
O248 C243 1.209 . S
C249 O246 1.258 . S
C249 O251 1.282 . S
O250 Cd242 2.277 . S
O250 C243 1.226 . S
O251 Cd242 2.356 . S
O251 C249 1.282 . S
C252 O253 1.306 . S
C252 O255 1.160 . S
O253 C252 1.306 . S
O253 Cd254 2.228 . S
Cd254 O253 2.228 . S
Cd254 O258 2.273 . S
Cd254 O262 2.277 . S
O255 C252 1.160 . S
O255 Cd256 2.203 . S
Cd256 O255 2.203 . S
Cd256 O258 2.411 . S
Cd256 O259 2.333 . S
Cd256 O260 2.352 1_545 S
Cd256 O264 2.277 . S
Cd256 O265 2.356 1_545 S
C257 O262 1.209 . S
C257 O264 1.226 . S
O258 Cd254 2.273 . S
O258 Cd256 2.411 . S
O258 C261 1.320 . S
O259 Cd256 2.333 . S
O259 C261 1.214 . S
O260 Cd256 2.352 1_565 S
O260 C263 1.258 . S
C261 O258 1.320 . S
C261 O259 1.214 . S
O262 Cd254 2.277 . S
O262 C257 1.209 . S
C263 O260 1.258 . S
C263 O265 1.282 . S
O264 Cd256 2.277 . S
O264 C257 1.226 . S
O265 Cd256 2.356 1_565 S
O265 C263 1.282 . S
C266 O267 1.306 . S
C266 O269 1.160 . S
O267 C266 1.306 . S
O267 Cd268 2.228 1_554 S
Cd268 O267 2.228 1_556 S
Cd268 O272 2.273 1_556 S
Cd268 O276 2.277 . S
O269 C266 1.160 . S
O269 Cd270 2.203 . S
Cd270 O269 2.203 . S
Cd270 O272 2.411 . S
Cd270 O273 2.333 . S
Cd270 O274 2.352 . S
Cd270 O278 2.277 1_554 S
Cd270 O279 2.356 . S
C271 O276 1.209 . S
C271 O278 1.226 . S
O272 Cd268 2.273 1_554 S
O272 Cd270 2.411 . S
O272 C275 1.320 . S
O273 Cd270 2.333 . S
O273 C275 1.214 . S
O274 Cd270 2.352 . S
O274 C277 1.258 . S
C275 O272 1.320 . S
C275 O273 1.214 . S
O276 Cd268 2.277 . S
O276 C271 1.209 . S
C277 O274 1.258 . S
C277 O279 1.282 . S
O278 Cd270 2.277 1_556 S
O278 C271 1.226 . S
O279 Cd270 2.356 . S
O279 C277 1.282 . S
C280 O281 1.306 . S
C280 O283 1.160 1_554 S
O281 C280 1.306 . S
O281 Cd282 2.228 . S
Cd282 O281 2.228 . S
Cd282 O286 2.273 . S
Cd282 O290 2.277 . S
O283 C280 1.160 1_556 S
O283 Cd284 2.203 . S
Cd284 O283 2.203 . S
Cd284 O286 2.411 1_556 S
Cd284 O287 2.333 . S
Cd284 O288 2.352 . S
Cd284 O292 2.277 1_556 S
Cd284 O293 2.356 . S
C285 O290 1.209 . S
C285 O292 1.226 . S
O286 Cd282 2.273 . S
O286 Cd284 2.411 1_554 S
O286 C289 1.322 . S
O287 Cd284 2.333 . S
O287 C289 1.212 1_556 S
O288 Cd284 2.352 . S
O288 C291 1.258 . S
C289 O286 1.322 . S
C289 O287 1.212 1_554 S
O290 Cd282 2.277 . S
O290 C285 1.209 . S
C291 O288 1.258 . S
C291 O293 1.282 . S
O292 Cd284 2.277 1_554 S
O292 C285 1.226 . S
O293 Cd284 2.356 . S
O293 C291 1.282 . S
C294 O295 1.306 . S
C294 O297 1.160 . S
O295 C294 1.306 . S
O295 Cd296 2.228 . S
Cd296 O295 2.228 . S
Cd296 O300 2.273 . S
Cd296 O304 2.277 . S
O297 C294 1.160 . S
O297 Cd298 2.203 . S
Cd298 O297 2.203 . S
Cd298 O300 2.411 . S
Cd298 O301 2.333 . S
Cd298 O302 2.352 . S
Cd298 O306 2.277 . S
Cd298 O307 2.356 . S
C299 O304 1.209 . S
C299 O306 1.226 . S
O300 Cd296 2.273 . S
O300 Cd298 2.411 . S
O300 C303 1.320 . S
O301 Cd298 2.333 . S
O301 C303 1.214 . S
O302 Cd298 2.352 . S
O302 C305 1.258 . S
C303 O300 1.320 . S
C303 O301 1.214 . S
O304 Cd296 2.277 . S
O304 C299 1.209 . S
C305 O302 1.258 . S
C305 O307 1.282 . S
O306 Cd298 2.277 . S
O306 C299 1.226 . S
O307 Cd298 2.356 . S
O307 C305 1.282 . S
C308 O309 1.306 . S
C308 O311 1.160 . S
O309 C308 1.306 . S
O309 Cd310 2.228 . S
Cd310 O309 2.228 . S
Cd310 O314 2.273 . S
Cd310 O318 2.277 . S
O311 C308 1.160 . S
O311 Cd312 2.203 . S
Cd312 O311 2.203 . S
Cd312 O314 2.411 . S
Cd312 O315 2.333 . S
Cd312 O316 2.352 . S
Cd312 O320 2.277 . S
Cd312 O321 2.356 . S
C313 O318 1.209 . S
C313 O320 1.226 . S
O314 Cd310 2.273 . S
O314 Cd312 2.411 . S
O314 C317 1.320 . S
O315 Cd312 2.333 . S
O315 C317 1.214 . S
O316 Cd312 2.352 . S
O316 C319 1.258 . S
C317 O314 1.320 . S
C317 O315 1.214 . S
O318 Cd310 2.277 . S
O318 C313 1.209 . S
C319 O316 1.258 . S
C319 O321 1.282 . S
O320 Cd312 2.277 . S
O320 C313 1.226 . S
O321 Cd312 2.356 . S
O321 C319 1.282 . S
C322 O323 1.306 . S
C322 O325 1.160 . S
O323 C322 1.306 . S
O323 Cd324 2.228 . S
Cd324 O323 2.228 . S
Cd324 O328 2.273 . S
Cd324 O332 2.277 . S
O325 C322 1.160 . S
O325 Cd326 2.203 . S
Cd326 O325 2.203 . S
Cd326 O328 2.411 . S
Cd326 O329 2.333 . S
Cd326 O330 2.352 . S
Cd326 O334 2.277 . S
Cd326 O335 2.356 . S
C327 O332 1.209 . S
C327 O334 1.226 . S
O328 Cd324 2.273 . S
O328 Cd326 2.411 . S
O328 C331 1.320 . S
O329 Cd326 2.333 . S
O329 C331 1.214 . S
O330 Cd326 2.352 . S
O330 C333 1.258 . S
C331 O328 1.320 . S
C331 O329 1.214 . S
O332 Cd324 2.277 . S
O332 C327 1.209 . S
C333 O330 1.258 . S
C333 O335 1.282 . S
O334 Cd326 2.277 . S
O334 C327 1.226 . S
O335 Cd326 2.356 . S
O335 C333 1.282 . S
Co336 N341 2.057 1_554 S
Co336 O353 2.021 1_554 S
Co336 O356 2.062 1_455 S
Co336 O360 2.117 . S
Co336 O361 2.020 . S
C337 O357 1.259 . S
C337 O360 1.258 . S
Co338 N347 2.057 . S
Co338 O354 2.117 1_545 S
Co338 O355 2.020 1_455 S
Co338 O357 2.021 . S
Co338 O362 2.062 . S
C339 N341 1.333 . S
C339 N342 1.320 1_455 S
C339 H344 0.943 . S
C340 N341 1.362 1_655 S
C340 C343 1.370 . S
C340 H345 0.923 1_655 S
N341 Co336 2.057 1_556 S
N341 C339 1.333 . S
N341 C340 1.362 1_455 S
N342 C339 1.320 1_655 S
N342 C343 1.373 . S
C343 C340 1.370 . S
C343 N342 1.373 . S
C343 H364 0.931 . S
H344 C339 0.943 . S
H345 C340 0.923 1_455 S
C346 O353 1.259 1_564 S
C346 O354 1.258 . S
N347 Co338 2.057 . S
N347 C348 1.316 . S
N347 C349 1.375 1_545 S
C348 N347 1.316 . S
C348 N350 1.347 . S
C348 H359 0.931 . S
C349 N347 1.375 1_565 S
C349 C351 1.350 . S
C349 H358 0.930 . S
N350 C348 1.347 . S
N350 C351 1.373 1_545 S
C351 C349 1.350 . S
C351 N350 1.373 1_565 S
C351 H365 0.931 . S
C352 O355 1.256 . S
C352 O356 1.255 . S
O353 Co336 2.021 1_556 S
O353 C346 1.259 1_546 S
O354 Co338 2.117 1_565 S
O354 C346 1.258 . S
O355 Co338 2.020 1_655 S
O355 C352 1.256 . S
O356 Co336 2.062 1_655 S
O356 C352 1.255 . S
O357 C337 1.259 . S
O357 Co338 2.021 . S
H358 C349 0.930 . S
H359 C348 0.931 . S
O360 Co336 2.117 . S
O360 C337 1.258 . S
O361 Co336 2.020 . S
O361 C363 1.256 . S
O362 Co338 2.062 . S
O362 C363 1.255 . S
C363 O361 1.256 . S
C363 O362 1.255 . S
H364 C343 0.931 . S
H365 C351 0.931 . S
Co366 N371 2.057 . S
Co366 O383 2.021 . S
Co366 O386 2.062 . S
Co366 O390 2.117 . S
Co366 O391 2.020 . S
C367 O387 1.259 . S
C367 O390 1.258 . S
Co368 N377 2.057 . S
Co368 O384 2.117 . S
Co368 O385 2.020 . S
Co368 O387 2.021 . S
Co368 O392 2.062 . S
C369 N371 1.316 . S
C369 N372 1.347 . S
C369 H374 0.931 . S
C370 N371 1.375 . S
C370 C373 1.350 . S
C370 H375 0.930 . S
N371 Co366 2.057 . S
N371 C369 1.316 . S
N371 C370 1.375 . S
N372 C369 1.347 . S
N372 C373 1.373 . S
C373 C370 1.350 . S
C373 N372 1.373 . S
C373 H394 0.931 . S
H374 C369 0.931 . S
H375 C370 0.930 . S
C376 O383 1.259 . S
C376 O384 1.258 . S
N377 Co368 2.057 . S
N377 C378 1.316 . S
N377 C379 1.375 . S
C378 N377 1.316 . S
C378 N380 1.347 . S
C378 H389 0.931 . S
C379 N377 1.375 . S
C379 C381 1.350 . S
C379 H388 0.930 . S
N380 C378 1.347 . S
N380 C381 1.373 . S
C381 C379 1.350 . S
C381 N380 1.373 . S
C381 H395 0.931 . S
C382 O385 1.256 . S
C382 O386 1.255 . S
O383 Co366 2.021 . S
O383 C376 1.259 . S
O384 Co368 2.117 . S
O384 C376 1.258 . S
O385 Co368 2.020 . S
O385 C382 1.256 . S
O386 Co366 2.062 . S
O386 C382 1.255 . S
O387 C367 1.259 . S
O387 Co368 2.021 . S
H388 C379 0.930 . S
H389 C378 0.931 . S
O390 Co366 2.117 . S
O390 C367 1.258 . S
O391 Co366 2.020 . S
O391 C393 1.256 . S
O392 Co368 2.062 . S
O392 C393 1.255 . S
C393 O391 1.256 . S
C393 O392 1.255 . S
H394 C373 0.931 . S
H395 C381 0.931 . S
Co396 N401 2.057 . S
Co396 O413 2.021 1_545 S
Co396 O416 2.062 . S
Co396 O420 2.117 . S
Co396 O421 2.020 . S
C397 O417 1.259 . S
C397 O420 1.258 . S
Co398 N407 2.057 . S
Co398 O414 2.117 . S
Co398 O415 2.020 . S
Co398 O417 2.021 . S
Co398 O422 2.062 . S
C399 N401 1.270 1_565 S
C399 N402 1.338 1_565 S
C399 H404 0.981 . S
C400 N401 1.375 . S
C400 C403 1.350 . S
C400 H405 0.930 . S
N401 Co396 2.057 . S
N401 C399 1.270 1_545 S
N401 C400 1.375 . S
N402 C399 1.338 1_545 S
N402 C403 1.373 . S
C403 C400 1.350 . S
C403 N402 1.373 . S
C403 H424 0.931 . S
H404 C399 0.981 . S
H405 C400 0.930 . S
C406 O413 1.259 . S
C406 O414 1.258 1_565 S
N407 Co398 2.057 . S
N407 C408 1.316 . S
N407 C409 1.375 . S
C408 N407 1.316 . S
C408 N410 1.347 . S
C408 H419 0.931 . S
C409 N407 1.375 . S
C409 C411 1.350 . S
C409 H418 0.930 . S
N410 C408 1.347 . S
N410 C411 1.373 . S
C411 C409 1.350 . S
C411 N410 1.373 . S
C411 H425 0.931 . S
C412 O415 1.256 . S
C412 O416 1.255 . S
O413 Co396 2.021 1_565 S
O413 C406 1.259 . S
O414 Co398 2.117 . S
O414 C406 1.258 1_545 S
O415 Co398 2.020 . S
O415 C412 1.256 . S
O416 Co396 2.062 . S
O416 C412 1.255 . S
O417 C397 1.259 . S
O417 Co398 2.021 . S
H418 C409 0.930 . S
H419 C408 0.931 . S
O420 Co396 2.117 . S
O420 C397 1.258 . S
O421 Co396 2.020 . S
O421 C423 1.256 . S
O422 Co398 2.062 . S
O422 C423 1.255 . S
C423 O421 1.256 . S
C423 O422 1.255 . S
H424 C403 0.931 . S
H425 C411 0.931 . S
Co426 N431 2.057 . S
Co426 O443 2.021 . S
Co426 O446 2.062 . S
Co426 O450 2.117 . S
Co426 O451 2.020 . S
C427 O447 1.259 . S
C427 O450 1.258 . S
Co428 N437 2.057 . S
Co428 O444 2.117 . S
Co428 O445 2.020 . S
Co428 O447 2.021 . S
Co428 O452 2.062 . S
C429 N431 1.316 . S
C429 N432 1.347 . S
C429 H434 0.931 . S
C430 N431 1.375 . S
C430 C433 1.350 . S
C430 H435 0.930 . S
N431 Co426 2.057 . S
N431 C429 1.316 . S
N431 C430 1.375 . S
N432 C429 1.347 . S
N432 C433 1.373 . S
C433 C430 1.350 . S
C433 N432 1.373 . S
C433 H454 0.931 . S
H434 C429 0.931 . S
H435 C430 0.930 . S
C436 O443 1.259 . S
C436 O444 1.258 . S
N437 Co428 2.057 . S
N437 C438 1.316 . S
N437 C439 1.375 . S
C438 N437 1.316 . S
C438 N440 1.347 . S
C438 H449 0.931 . S
C439 N437 1.375 . S
C439 C441 1.350 . S
C439 H448 0.930 . S
N440 C438 1.347 . S
N440 C441 1.373 . S
C441 C439 1.350 . S
C441 N440 1.373 . S
C441 H455 0.931 . S
C442 O445 1.256 . S
C442 O446 1.255 . S
O443 Co426 2.021 . S
O443 C436 1.259 . S
O444 Co428 2.117 . S
O444 C436 1.258 . S
O445 Co428 2.020 . S
O445 C442 1.256 . S
O446 Co426 2.062 . S
O446 C442 1.255 . S
O447 C427 1.259 . S
O447 Co428 2.021 . S
H448 C439 0.930 . S
H449 C438 0.931 . S
O450 Co426 2.117 . S
O450 C427 1.258 . S
O451 Co426 2.020 . S
O451 C453 1.256 . S
O452 Co428 2.062 . S
O452 C453 1.255 . S
C453 O451 1.256 . S
C453 O452 1.255 . S
H454 C433 0.931 . S
H455 C441 0.931 . S
Co456 N461 2.057 1_545 S
Co456 O473 2.021 . S
Co456 O476 2.061 1_545 S
Co456 O480 2.117 . S
Co456 O481 2.020 1_455 S
C457 O477 1.259 . S
C457 O480 1.258 . S
Co458 N467 2.057 . S
Co458 O474 2.117 . S
Co458 O475 2.020 . S
Co458 O477 2.021 . S
Co458 O482 2.062 1_455 S
C459 N461 1.316 . S
C459 N462 1.347 . S
C459 H464 0.931 . S
C460 N461 1.375 1_655 S
C460 C463 1.350 . S
C460 H465 0.930 . S
N461 Co456 2.057 1_565 S
N461 C459 1.316 . S
N461 C460 1.375 1_455 S
N462 C459 1.347 . S
N462 C463 1.373 1_455 S
C463 C460 1.350 . S
C463 N462 1.373 1_655 S
C463 H484 0.931 . S
H464 C459 0.931 . S
H465 C460 0.930 . S
C466 O473 1.259 . S
C466 O474 1.258 . S
N467 Co458 2.057 . S
N467 C468 1.316 . S
N467 C469 1.375 . S
C468 N467 1.316 . S
C468 N470 1.347 . S
C468 H479 0.931 . S
C469 N467 1.375 . S
C469 C471 1.350 . S
C469 H478 0.930 . S
N470 C468 1.347 . S
N470 C471 1.373 . S
C471 C469 1.350 . S
C471 N470 1.373 . S
C471 H485 0.931 . S
C472 O475 1.256 . S
C472 O476 1.253 1_545 S
O473 Co456 2.021 . S
O473 C466 1.259 . S
O474 Co458 2.117 . S
O474 C466 1.258 . S
O475 Co458 2.020 . S
O475 C472 1.256 . S
O476 Co456 2.061 1_565 S
O476 C472 1.253 1_565 S
O477 C457 1.259 . S
O477 Co458 2.021 . S
H478 C469 0.930 . S
H479 C468 0.931 . S
O480 Co456 2.117 . S
O480 C457 1.258 . S
O481 Co456 2.020 1_655 S
O481 C483 1.256 . S
O482 Co458 2.062 1_655 S
O482 C483 1.255 . S
C483 O481 1.256 . S
C483 O482 1.255 . S
H484 C463 0.931 . S
H485 C471 0.931 . S
Co486 N491 2.057 . S
Co486 O503 2.021 . S
Co486 O506 2.062 . S
Co486 O510 2.117 . S
Co486 O511 2.020 . S
C487 O507 1.259 . S
C487 O510 1.258 . S
Co488 N497 2.057 . S
Co488 O504 2.117 . S
Co488 O505 2.020 . S
Co488 O507 2.021 . S
Co488 O512 2.062 . S
C489 N491 1.316 . S
C489 N492 1.347 . S
C489 H494 0.931 . S
C490 N491 1.375 . S
C490 C493 1.350 . S
C490 H495 0.930 . S
N491 Co486 2.057 . S
N491 C489 1.316 . S
N491 C490 1.375 . S
N492 C489 1.347 . S
N492 C493 1.373 . S
C493 C490 1.350 . S
C493 N492 1.373 . S
C493 H514 0.931 . S
H494 C489 0.931 . S
H495 C490 0.930 . S
C496 O503 1.259 . S
C496 O504 1.258 . S
N497 Co488 2.057 . S
N497 C498 1.316 . S
N497 C499 1.375 . S
C498 N497 1.316 . S
C498 N500 1.347 . S
C498 H509 0.931 . S
C499 N497 1.375 . S
C499 C501 1.350 . S
C499 H508 0.930 . S
N500 C498 1.347 . S
N500 C501 1.373 . S
C501 C499 1.350 . S
C501 N500 1.373 . S
C501 H515 0.931 . S
C502 O505 1.256 . S
C502 O506 1.255 . S
O503 Co486 2.021 . S
O503 C496 1.259 . S
O504 Co488 2.117 . S
O504 C496 1.258 . S
O505 Co488 2.020 . S
O505 C502 1.256 . S
O506 Co486 2.062 . S
O506 C502 1.255 . S
O507 C487 1.259 . S
O507 Co488 2.021 . S
H508 C499 0.930 . S
H509 C498 0.931 . S
O510 Co486 2.117 . S
O510 C487 1.258 . S
O511 Co486 2.020 . S
O511 C513 1.256 . S
O512 Co488 2.062 . S
O512 C513 1.255 . S
C513 O511 1.256 . S
C513 O512 1.255 . S
H514 C493 0.931 . S
H515 C501 0.931 . S
Co516 N521 2.057 1_554 S
Co516 O533 2.021 . S
Co516 O536 2.062 1_554 S
Co516 O540 2.117 . S
Co516 O541 2.020 1_545 S
C517 O537 1.259 . S
C517 O540 1.258 . S
Co518 N527 2.057 . S
Co518 O534 2.117 . S
Co518 O535 2.020 . S
Co518 O537 2.021 . S
Co518 O542 2.062 . S
C519 N521 1.316 . S
C519 N522 1.347 . S
C519 H524 0.931 . S
C520 N521 1.375 . S
C520 C523 1.350 . S
C520 H525 0.930 1_545 S
N521 Co516 2.057 1_556 S
N521 C519 1.316 . S
N521 C520 1.375 . S
N522 C519 1.347 . S
N522 C523 1.373 . S
C523 C520 1.350 . S
C523 N522 1.373 . S
C523 H544 0.931 1_545 S
H524 C519 0.931 . S
H525 C520 0.930 1_565 S
C526 O533 1.259 . S
C526 O534 1.258 . S
N527 Co518 2.057 . S
N527 C528 1.316 . S
N527 C529 1.375 . S
C528 N527 1.316 . S
C528 N530 1.347 . S
C528 H539 0.931 . S
C529 N527 1.375 . S
C529 C531 1.350 . S
C529 H538 0.930 . S
N530 C528 1.347 . S
N530 C531 1.373 . S
C531 C529 1.350 . S
C531 N530 1.373 . S
C531 H545 0.931 . S
C532 O535 1.256 . S
C532 O536 1.255 1_554 S
O533 Co516 2.021 . S
O533 C526 1.259 . S
O534 Co518 2.117 . S
O534 C526 1.258 . S
O535 Co518 2.020 . S
O535 C532 1.256 . S
O536 Co516 2.062 1_556 S
O536 C532 1.255 1_556 S
O537 C517 1.259 . S
O537 Co518 2.021 . S
H538 C529 0.930 . S
H539 C528 0.931 . S
O540 Co516 2.117 . S
O540 C517 1.258 . S
O541 Co516 2.020 1_565 S
O541 C543 1.256 . S
O542 Co518 2.062 . S
O542 C543 1.255 1_545 S
C543 O541 1.256 . S
C543 O542 1.255 1_565 S
H544 C523 0.931 1_565 S
H545 C531 0.931 . S
Co546 N551 2.057 . S
Co546 O563 2.021 . S
Co546 O566 2.062 . S
Co546 O570 2.117 . S
Co546 O571 2.020 . S
C547 O567 1.259 . S
C547 O570 1.258 . S
Co548 N557 2.057 . S
Co548 O564 2.117 . S
Co548 O565 2.020 . S
Co548 O567 2.021 . S
Co548 O572 2.062 . S
C549 N551 1.316 . S
C549 N552 1.347 . S
C549 H554 0.931 . S
C550 N551 1.375 . S
C550 C553 1.350 . S
C550 H555 0.930 . S
N551 Co546 2.057 . S
N551 C549 1.316 . S
N551 C550 1.375 . S
N552 C549 1.347 . S
N552 C553 1.373 . S
C553 C550 1.350 . S
C553 N552 1.373 . S
C553 H574 0.931 . S
H554 C549 0.931 . S
H555 C550 0.930 . S
C556 O563 1.259 . S
C556 O564 1.258 . S
N557 Co548 2.057 . S
N557 C558 1.316 . S
N557 C559 1.375 . S
C558 N557 1.316 . S
C558 N560 1.347 . S
C558 H569 0.931 . S
C559 N557 1.375 . S
C559 C561 1.350 . S
C559 H568 0.930 . S
N560 C558 1.347 . S
N560 C561 1.373 . S
C561 C559 1.350 . S
C561 N560 1.373 . S
C561 H575 0.931 . S
C562 O565 1.256 . S
C562 O566 1.255 . S
O563 Co546 2.021 . S
O563 C556 1.259 . S
O564 Co548 2.117 . S
O564 C556 1.258 . S
O565 Co548 2.020 . S
O565 C562 1.256 . S
O566 Co546 2.062 . S
O566 C562 1.255 . S
O567 C547 1.259 . S
O567 Co548 2.021 . S
H568 C559 0.930 . S
H569 C558 0.931 . S
O570 Co546 2.117 . S
O570 C547 1.258 . S
O571 Co546 2.020 . S
O571 C573 1.256 . S
O572 Co548 2.062 . S
O572 C573 1.255 . S
C573 O571 1.256 . S
C573 O572 1.255 . S
H574 C553 0.931 . S
H575 C561 0.931 . S
Co576 N581 2.057 . S
Co576 O593 2.021 1_554 S
Co576 O596 2.062 . S
Co576 O600 2.117 . S
Co576 O601 2.020 . S
C577 O597 1.259 . S
C577 O600 1.258 . S
Co578 N587 2.057 . S
Co578 O594 2.117 . S
Co578 O595 2.020 . S
Co578 O597 2.021 . S
Co578 O602 2.062 . S
C579 N581 1.316 1_556 S
C579 N582 1.347 1_556 S
C579 H584 0.931 . S
C580 N581 1.375 . S
C580 C583 1.350 . S
C580 H585 0.930 . S
N581 Co576 2.057 . S
N581 C579 1.316 1_554 S
N581 C580 1.375 . S
N582 C579 1.347 1_554 S
N582 C583 1.373 . S
C583 C580 1.350 . S
C583 N582 1.373 . S
C583 H604 0.931 . S
H584 C579 0.931 . S
H585 C580 0.930 . S
C586 O593 1.259 . S
C586 O594 1.258 1_556 S
N587 Co578 2.057 . S
N587 C588 1.316 . S
N587 C589 1.375 . S
C588 N587 1.316 . S
C588 N590 1.347 . S
C588 H599 0.931 . S
C589 N587 1.375 . S
C589 C591 1.350 . S
C589 H598 0.930 . S
N590 C588 1.347 . S
N590 C591 1.373 . S
C591 C589 1.350 . S
C591 N590 1.373 . S
C591 H605 0.931 . S
C592 O595 1.256 . S
C592 O596 1.255 . S
O593 Co576 2.021 1_556 S
O593 C586 1.259 . S
O594 Co578 2.117 . S
O594 C586 1.258 1_554 S
O595 Co578 2.020 . S
O595 C592 1.256 . S
O596 Co576 2.062 . S
O596 C592 1.255 . S
O597 C577 1.259 . S
O597 Co578 2.021 . S
H598 C589 0.930 . S
H599 C588 0.931 . S
O600 Co576 2.117 . S
O600 C577 1.258 . S
O601 Co576 2.020 . S
O601 C603 1.256 . S
O602 Co578 2.062 . S
O602 C603 1.255 . S
C603 O601 1.256 . S
C603 O602 1.255 . S
H604 C583 0.931 . S
H605 C591 0.931 . S
Co606 N611 2.057 . S
Co606 O623 2.021 . S
Co606 O626 2.062 . S
Co606 O630 2.117 . S
Co606 O631 2.020 . S
C607 O627 1.259 . S
C607 O630 1.258 . S
Co608 N617 2.057 . S
Co608 O624 2.117 . S
Co608 O625 2.020 . S
Co608 O627 2.021 . S
Co608 O632 2.062 . S
C609 N611 1.316 . S
C609 N612 1.347 . S
C609 H614 0.931 . S
C610 N611 1.375 . S
C610 C613 1.350 . S
C610 H615 0.930 . S
N611 Co606 2.057 . S
N611 C609 1.316 . S
N611 C610 1.375 . S
N612 C609 1.347 . S
N612 C613 1.373 . S
C613 C610 1.350 . S
C613 N612 1.373 . S
C613 H634 0.931 . S
H614 C609 0.931 . S
H615 C610 0.930 . S
C616 O623 1.259 . S
C616 O624 1.258 . S
N617 Co608 2.057 . S
N617 C618 1.316 . S
N617 C619 1.375 . S
C618 N617 1.316 . S
C618 N620 1.347 . S
C618 H629 0.931 . S
C619 N617 1.375 . S
C619 C621 1.350 . S
C619 H628 0.930 . S
N620 C618 1.347 . S
N620 C621 1.373 . S
C621 C619 1.350 . S
C621 N620 1.373 . S
C621 H635 0.931 . S
C622 O625 1.256 . S
C622 O626 1.255 . S
O623 Co606 2.021 . S
O623 C616 1.259 . S
O624 Co608 2.117 . S
O624 C616 1.258 . S
O625 Co608 2.020 . S
O625 C622 1.256 . S
O626 Co606 2.062 . S
O626 C622 1.255 . S
O627 C607 1.259 . S
O627 Co608 2.021 . S
H628 C619 0.930 . S
H629 C618 0.931 . S
O630 Co606 2.117 . S
O630 C607 1.258 . S
O631 Co606 2.020 . S
O631 C633 1.256 . S
O632 Co608 2.062 . S
O632 C633 1.255 . S
C633 O631 1.256 . S
C633 O632 1.255 . S
H634 C613 0.931 . S
H635 C621 0.931 . S
Co636 N641 2.057 . S
Co636 O653 2.021 1_455 S
Co636 O656 2.062 . S
Co636 O660 2.117 . S
Co636 O661 2.020 . S
C637 O657 1.259 . S
C637 O660 1.258 . S
Co638 N647 2.057 . S
Co638 O654 2.152 . S
Co638 O655 2.020 . S
Co638 O657 2.021 . S
Co638 O662 2.062 . S
C639 N641 1.316 1_655 S
C639 N642 1.355 . S
C639 H644 0.931 . S
C640 N641 1.375 . S
C640 C643 1.350 . S
C640 H645 0.930 . S
N641 Co636 2.057 . S
N641 C639 1.316 1_455 S
N641 C640 1.375 . S
N642 C639 1.355 . S
N642 C643 1.331 1_655 S
C643 C640 1.350 . S
C643 N642 1.331 1_455 S
C643 H664 0.931 . S
H644 C639 0.931 . S
H645 C640 0.930 . S
C646 O653 1.259 . S
C646 O654 1.230 1_655 S
N647 Co638 2.057 . S
N647 C648 1.316 . S
N647 C649 1.375 . S
C648 N647 1.316 . S
C648 N650 1.347 . S
C648 H659 0.931 . S
C649 N647 1.375 . S
C649 C651 1.350 . S
C649 H658 0.930 . S
N650 C648 1.347 . S
N650 C651 1.373 . S
C651 C649 1.350 . S
C651 N650 1.373 . S
C651 H665 0.931 . S
C652 O655 1.256 . S
C652 O656 1.255 . S
O653 Co636 2.021 1_655 S
O653 C646 1.259 . S
O654 Co638 2.152 . S
O654 C646 1.230 1_455 S
O655 Co638 2.020 . S
O655 C652 1.256 . S
O656 Co636 2.062 . S
O656 C652 1.255 . S
O657 C637 1.259 . S
O657 Co638 2.021 . S
H658 C649 0.930 . S
H659 C648 0.931 . S
O660 Co636 2.117 . S
O660 C637 1.258 . S
O661 Co636 2.020 . S
O661 C663 1.256 . S
O662 Co638 2.062 . S
O662 C663 1.255 . S
C663 O661 1.256 . S
C663 O662 1.255 . S
H664 C643 0.931 . S
H665 C651 0.931 . S
Co666 N671 2.057 . S
Co666 O683 2.021 . S
Co666 O686 2.062 . S
Co666 O690 2.117 . S
Co666 O691 2.020 . S
C667 O687 1.259 . S
C667 O690 1.258 . S
Co668 N677 2.057 . S
Co668 O684 2.117 . S
Co668 O685 2.020 . S
Co668 O687 2.021 . S
Co668 O692 2.062 . S
C669 N671 1.316 . S
C669 N672 1.347 . S
C669 H674 0.931 . S
C670 N671 1.375 . S
C670 C673 1.350 . S
C670 H675 0.930 . S
N671 Co666 2.057 . S
N671 C669 1.316 . S
N671 C670 1.375 . S
N672 C669 1.347 . S
N672 C673 1.373 . S
C673 C670 1.350 . S
C673 N672 1.373 . S
C673 H694 0.931 . S
H674 C669 0.931 . S
H675 C670 0.930 . S
C676 O683 1.259 . S
C676 O684 1.258 . S
N677 Co668 2.057 . S
N677 C678 1.316 . S
N677 C679 1.375 . S
C678 N677 1.316 . S
C678 N680 1.347 . S
C678 H689 0.931 . S
C679 N677 1.375 . S
C679 C681 1.350 . S
C679 H688 0.930 . S
N680 C678 1.347 . S
N680 C681 1.373 . S
C681 C679 1.350 . S
C681 N680 1.373 . S
C681 H695 0.931 . S
C682 O685 1.256 . S
C682 O686 1.255 . S
O683 Co666 2.021 . S
O683 C676 1.259 . S
O684 Co668 2.117 . S
O684 C676 1.258 . S
O685 Co668 2.020 . S
O685 C682 1.256 . S
O686 Co666 2.062 . S
O686 C682 1.255 . S
O687 C667 1.259 . S
O687 Co668 2.021 . S
H688 C679 0.930 . S
H689 C678 0.931 . S
O690 Co666 2.117 . S
O690 C667 1.258 . S
O691 Co666 2.020 . S
O691 C693 1.256 . S
O692 Co668 2.062 . S
O692 C693 1.255 . S
C693 O691 1.256 . S
C693 O692 1.255 . S
H694 C673 0.931 . S
H695 C681 0.931 . S
Co696 N701 2.057 . S
Co696 O713 2.021 . S
Co696 O716 2.062 . S
Co696 O720 2.117 . S
Co696 O721 2.020 . S
C697 O717 1.259 . S
C697 O720 1.258 . S
Co698 N707 2.057 . S
Co698 O714 2.117 . S
Co698 O715 2.020 . S
Co698 O717 2.021 . S
Co698 O722 2.062 . S
C699 N701 1.316 . S
C699 N702 1.347 . S
C699 H704 0.931 . S
C700 N701 1.375 . S
C700 C703 1.350 . S
C700 H705 0.930 . S
N701 Co696 2.057 . S
N701 C699 1.316 . S
N701 C700 1.375 . S
N702 C699 1.347 . S
N702 C703 1.373 . S
C703 C700 1.350 . S
C703 N702 1.373 . S
C703 H724 0.931 . S
H704 C699 0.931 . S
H705 C700 0.930 . S
C706 O713 1.259 . S
C706 O714 1.258 . S
N707 Co698 2.057 . S
N707 C708 1.316 . S
N707 C709 1.375 . S
C708 N707 1.316 . S
C708 N710 1.347 . S
C708 H719 0.931 . S
C709 N707 1.375 . S
C709 C711 1.350 . S
C709 H718 0.930 . S
N710 C708 1.347 . S
N710 C711 1.373 . S
C711 C709 1.350 . S
C711 N710 1.373 . S
C711 H725 0.931 . S
C712 O715 1.256 . S
C712 O716 1.255 . S
O713 Co696 2.021 . S
O713 C706 1.259 . S
O714 Co698 2.117 . S
O714 C706 1.258 . S
O715 Co698 2.020 . S
O715 C712 1.256 . S
O716 Co696 2.062 . S
O716 C712 1.255 . S
O717 C697 1.259 . S
O717 Co698 2.021 . S
H718 C709 0.930 . S
H719 C708 0.931 . S
O720 Co696 2.117 . S
O720 C697 1.258 . S
O721 Co696 2.020 . S
O721 C723 1.256 . S
O722 Co698 2.062 . S
O722 C723 1.255 . S
C723 O721 1.256 . S
C723 O722 1.255 . S
H724 C703 0.931 . S
H725 C711 0.931 . S
Co726 N731 2.057 . S
Co726 O743 2.021 . S
Co726 O746 2.062 . S
Co726 O750 2.117 . S
Co726 O751 2.020 . S
C727 O747 1.259 . S
C727 O750 1.258 . S
Co728 N737 2.057 . S
Co728 O744 2.117 . S
Co728 O745 2.020 . S
Co728 O747 2.021 . S
Co728 O752 2.062 . S
C729 N731 1.316 . S
C729 N732 1.347 . S
C729 H734 0.931 . S
C730 N731 1.375 . S
C730 C733 1.350 . S
C730 H735 0.930 . S
N731 Co726 2.057 . S
N731 C729 1.316 . S
N731 C730 1.375 . S
N732 C729 1.347 . S
N732 C733 1.373 . S
C733 C730 1.350 . S
C733 N732 1.373 . S
C733 H754 0.931 . S
H734 C729 0.931 . S
H735 C730 0.930 . S
C736 O743 1.259 . S
C736 O744 1.258 . S
N737 Co728 2.057 . S
N737 C738 1.316 . S
N737 C739 1.375 . S
C738 N737 1.316 . S
C738 N740 1.347 . S
C738 H749 0.931 . S
C739 N737 1.375 . S
C739 C741 1.350 . S
C739 H748 0.930 . S
N740 C738 1.347 . S
N740 C741 1.373 . S
C741 C739 1.350 . S
C741 N740 1.373 . S
C741 H755 0.931 . S
C742 O745 1.256 . S
C742 O746 1.255 . S
O743 Co726 2.021 . S
O743 C736 1.259 . S
O744 Co728 2.117 . S
O744 C736 1.258 . S
O745 Co728 2.020 . S
O745 C742 1.256 . S
O746 Co726 2.062 . S
O746 C742 1.255 . S
O747 C727 1.259 . S
O747 Co728 2.021 . S
H748 C739 0.930 . S
H749 C738 0.931 . S
O750 Co726 2.117 . S
O750 C727 1.258 . S
O751 Co726 2.020 . S
O751 C753 1.256 . S
O752 Co728 2.062 . S
O752 C753 1.255 . S
C753 O751 1.256 . S
C753 O752 1.255 . S
H754 C733 0.931 . S
H755 C741 0.931 . S
Co756 N761 2.057 . S
Co756 O773 2.021 . S
Co756 O776 2.062 . S
Co756 O780 2.117 . S
Co756 O781 2.020 . S
C757 O777 1.259 . S
C757 O780 1.258 . S
Co758 N767 2.057 . S
Co758 O774 2.117 . S
Co758 O775 2.020 . S
Co758 O777 2.021 . S
Co758 O782 2.062 . S
C759 N761 1.316 . S
C759 N762 1.347 . S
C759 H764 0.931 . S
C760 N761 1.375 . S
C760 C763 1.350 . S
C760 H765 0.930 . S
N761 Co756 2.057 . S
N761 C759 1.316 . S
N761 C760 1.375 . S
N762 C759 1.347 . S
N762 C763 1.373 . S
C763 C760 1.350 . S
C763 N762 1.373 . S
C763 H784 0.931 . S
H764 C759 0.931 . S
H765 C760 0.930 . S
C766 O773 1.259 . S
C766 O774 1.258 . S
N767 Co758 2.057 . S
N767 C768 1.316 . S
N767 C769 1.375 . S
C768 N767 1.316 . S
C768 N770 1.347 . S
C768 H779 0.931 . S
C769 N767 1.375 . S
C769 C771 1.350 . S
C769 H778 0.930 . S
N770 C768 1.347 . S
N770 C771 1.373 . S
C771 C769 1.350 . S
C771 N770 1.373 . S
C771 H785 0.931 . S
C772 O775 1.256 . S
C772 O776 1.255 . S
O773 Co756 2.021 . S
O773 C766 1.259 . S
O774 Co758 2.117 . S
O774 C766 1.258 . S
O775 Co758 2.020 . S
O775 C772 1.256 . S
O776 Co756 2.062 . S
O776 C772 1.255 . S
O777 C757 1.259 . S
O777 Co758 2.021 . S
H778 C769 0.930 . S
H779 C768 0.931 . S
O780 Co756 2.117 . S
O780 C757 1.258 . S
O781 Co756 2.020 . S
O781 C783 1.256 . S
O782 Co758 2.062 . S
O782 C783 1.255 . S
C783 O781 1.256 . S
C783 O782 1.255 . S
H784 C763 0.931 . S
H785 C771 0.931 . S
Co786 N791 2.057 1_455 S
Co786 O803 2.021 . S
Co786 O806 2.062 1_455 S
Co786 O810 2.117 . S
Co786 O811 2.020 1_554 S
C787 O807 1.259 . S
C787 O810 1.258 . S
Co788 N797 2.057 . S
Co788 O804 2.117 . S
Co788 O805 2.020 . S
Co788 O807 2.021 . S
Co788 O812 2.047 1_554 S
C789 N791 1.316 . S
C789 N792 1.347 . S
C789 H794 0.931 . S
C790 N791 1.387 . S
C790 C793 1.349 . S
C790 H795 0.921 1_554 S
N791 Co786 2.057 1_655 S
N791 C789 1.316 . S
N791 C790 1.387 . S
N792 C789 1.347 . S
N792 C793 1.373 . S
C793 C790 1.349 . S
C793 N792 1.373 . S
C793 H814 0.931 1_554 S
H794 C789 0.931 . S
H795 C790 0.921 1_556 S
C796 O803 1.259 . S
C796 O804 1.258 . S
N797 Co788 2.057 . S
N797 C798 1.316 . S
N797 C799 1.375 . S
C798 N797 1.316 . S
C798 N800 1.347 . S
C798 H809 0.931 . S
C799 N797 1.375 . S
C799 C801 1.350 . S
C799 H808 0.930 . S
N800 C798 1.347 . S
N800 C801 1.373 . S
C801 C799 1.350 . S
C801 N800 1.373 . S
C801 H815 0.931 . S
C802 O805 1.256 . S
C802 O806 1.255 1_455 S
O803 Co786 2.021 . S
O803 C796 1.259 . S
O804 Co788 2.117 . S
O804 C796 1.258 . S
O805 Co788 2.020 . S
O805 C802 1.256 . S
O806 Co786 2.062 1_655 S
O806 C802 1.255 1_655 S
O807 C787 1.259 . S
O807 Co788 2.021 . S
H808 C799 0.930 . S
H809 C798 0.931 . S
O810 Co786 2.117 . S
O810 C787 1.258 . S
O811 Co786 2.020 1_556 S
O811 C813 1.256 . S
O812 Co788 2.047 1_556 S
O812 C813 1.265 . S
C813 O811 1.256 . S
C813 O812 1.265 . S
H814 C793 0.931 1_556 S
H815 C801 0.931 . S
C816 C817 1.349 . S
C816 C818 1.327 . S
C816 H841 0.950 . S
C817 C816 1.349 . S
C817 C833 1.349 . S
C818 C816 1.327 . S
C818 C837 1.429 . S
C818 H842 0.950 . S
C819 C836 1.574 . S
C819 C838 1.368 . S
C819 H843 0.925 1_455 S
H820 C824 0.949 . S
C821 C822 1.349 . S
C821 C823 1.327 . S
C821 H844 0.950 1_455 S
C822 C821 1.349 . S
C822 C834 1.349 . S
C823 C821 1.327 . S
C823 C839 1.429 . S
C823 H845 0.950 1_455 S
C824 H820 0.949 . S
C824 C832 1.574 . S
C824 C840 1.368 . S
H825 C833 0.950 . S
H826 C831 0.981 . S
H827 C832 0.949 . S
H828 C834 0.950 . S
H829 C835 0.950 . S
H830 C836 0.949 1_655 S
C831 H826 0.981 . S
C831 C833 1.327 . S
C831 C837 1.429 . S
C832 C824 1.574 . S
C832 H827 0.949 . S
C832 C838 1.368 . S
C833 C817 1.349 . S
C833 H825 0.950 . S
C833 C831 1.327 . S
C834 C822 1.349 . S
C834 H828 0.950 . S
C834 C835 1.327 . S
C835 H829 0.950 . S
C835 C834 1.327 . S
C835 C839 1.429 . S
C836 C819 1.574 . S
C836 H830 0.949 1_455 S
C836 C840 1.368 . S
C837 C818 1.429 . S
C837 C831 1.429 . S
C837 C838 1.523 . S
C838 C819 1.368 . S
C838 C832 1.368 . S
C838 C837 1.523 . S
C839 C823 1.429 . S
C839 C835 1.429 . S
C839 C840 1.523 . S
C840 C824 1.368 . S
C840 C836 1.368 . S
C840 C839 1.523 . S
H841 C816 0.950 . S
H842 C818 0.950 . S
H843 C819 0.925 1_655 S
H844 C821 0.950 1_655 S
H845 C823 0.950 1_655 S
C846 C847 1.349 . S
C846 C848 1.327 . S
C846 H871 0.950 . S
C847 C846 1.349 . S
C847 C863 1.349 . S
C848 C846 1.327 . S
C848 C867 1.429 . S
C848 H872 0.950 . S
C849 C866 1.574 . S
C849 C868 1.368 . S
C849 H873 0.949 . S
H850 C854 0.949 . S
C851 C852 1.349 . S
C851 C853 1.327 . S
C851 H874 0.950 . S
C852 C851 1.349 . S
C852 C864 1.349 . S
C853 C851 1.327 . S
C853 C869 1.429 . S
C853 H875 0.950 . S
C854 H850 0.949 . S
C854 C862 1.574 . S
C854 C870 1.368 . S
H855 C863 0.950 . S
H856 C861 0.950 . S
H857 C862 0.949 . S
H858 C864 0.950 . S
H859 C865 0.950 . S
H860 C866 0.949 . S
C861 H856 0.950 . S
C861 C863 1.327 . S
C861 C867 1.429 . S
C862 C854 1.574 . S
C862 H857 0.949 . S
C862 C868 1.368 . S
C863 C847 1.349 . S
C863 H855 0.950 . S
C863 C861 1.327 . S
C864 C852 1.349 . S
C864 H858 0.950 . S
C864 C865 1.327 . S
C865 H859 0.950 . S
C865 C864 1.327 . S
C865 C869 1.429 . S
C866 C849 1.574 . S
C866 H860 0.949 . S
C866 C870 1.368 . S
C867 C848 1.429 . S
C867 C861 1.429 . S
C867 C868 1.523 . S
C868 C849 1.368 . S
C868 C862 1.368 . S
C868 C867 1.523 . S
C869 C853 1.429 . S
C869 C865 1.429 . S
C869 C870 1.523 . S
C870 C854 1.368 . S
C870 C866 1.368 . S
C870 C869 1.523 . S
H871 C846 0.950 . S
H872 C848 0.950 . S
H873 C849 0.949 . S
H874 C851 0.950 . S
H875 C853 0.950 . S
C876 C877 1.349 . S
C876 C878 1.327 . S
C876 H901 0.950 . S
C877 C876 1.349 . S
C877 C893 1.349 . S
C878 C876 1.327 . S
C878 C897 1.429 . S
C878 H902 0.950 . S
C879 C896 1.574 . S
C879 C898 1.368 . S
C879 H903 0.949 . S
H880 C884 0.949 . S
C881 C882 1.349 . S
C881 C883 1.327 . S
C881 H904 0.950 . S
C882 C881 1.349 . S
C882 C894 1.349 . S
C883 C881 1.327 . S
C883 C899 1.429 . S
C883 H905 0.950 . S
C884 H880 0.949 . S
C884 C892 1.574 . S
C884 C900 1.368 . S
H885 C893 0.950 . S
H886 C891 0.950 . S
H887 C892 0.949 . S
H888 C894 0.950 . S
H889 C895 0.950 . S
H890 C896 0.949 . S
C891 H886 0.950 . S
C891 C893 1.327 . S
C891 C897 1.429 . S
C892 C884 1.574 . S
C892 H887 0.949 . S
C892 C898 1.368 . S
C893 C877 1.349 . S
C893 H885 0.950 . S
C893 C891 1.327 . S
C894 C882 1.349 . S
C894 H888 0.950 . S
C894 C895 1.327 . S
C895 H889 0.950 . S
C895 C894 1.327 . S
C895 C899 1.429 . S
C896 C879 1.574 . S
C896 H890 0.949 . S
C896 C900 1.368 . S
C897 C878 1.429 . S
C897 C891 1.429 . S
C897 C898 1.523 . S
C898 C879 1.368 . S
C898 C892 1.368 . S
C898 C897 1.523 . S
C899 C883 1.429 . S
C899 C895 1.429 . S
C899 C900 1.523 . S
C900 C884 1.368 . S
C900 C896 1.368 . S
C900 C899 1.523 . S
H901 C876 0.950 . S
H902 C878 0.950 . S
H903 C879 0.949 . S
H904 C881 0.950 . S
H905 C883 0.950 . S
C906 C907 1.349 . S
C906 C908 1.327 . S
C906 H931 0.950 . S
C907 C906 1.349 . S
C907 C923 1.349 . S
C908 C906 1.327 . S
C908 C927 1.429 . S
C908 H932 0.950 . S
C909 C926 1.574 . S
C909 C928 1.368 . S
C909 H933 0.949 . S
H910 C914 0.949 . S
C911 C912 1.349 . S
C911 C913 1.327 . S
C911 H934 0.950 . S
C912 C911 1.349 . S
C912 C924 1.349 . S
C913 C911 1.327 . S
C913 C929 1.429 . S
C913 H935 0.950 . S
C914 H910 0.949 . S
C914 C922 1.574 . S
C914 C930 1.368 . S
H915 C923 0.950 . S
H916 C921 0.950 . S
H917 C922 0.949 . S
H918 C924 0.950 . S
H919 C925 0.950 . S
H920 C926 0.949 . S
C921 H916 0.950 . S
C921 C923 1.327 . S
C921 C927 1.429 . S
C922 C914 1.574 . S
C922 H917 0.949 . S
C922 C928 1.368 . S
C923 C907 1.349 . S
C923 H915 0.950 . S
C923 C921 1.327 . S
C924 C912 1.349 . S
C924 H918 0.950 . S
C924 C925 1.327 . S
C925 H919 0.950 . S
C925 C924 1.327 . S
C925 C929 1.429 . S
C926 C909 1.574 . S
C926 H920 0.949 . S
C926 C930 1.368 . S
C927 C908 1.429 . S
C927 C921 1.429 . S
C927 C928 1.523 . S
C928 C909 1.368 . S
C928 C922 1.368 . S
C928 C927 1.523 . S
C929 C913 1.429 . S
C929 C925 1.429 . S
C929 C930 1.523 . S
C930 C914 1.368 . S
C930 C926 1.368 . S
C930 C929 1.523 . S
H931 C906 0.950 . S
H932 C908 0.950 . S
H933 C909 0.949 . S
H934 C911 0.950 . S
H935 C913 0.950 . S
C936 C937 1.349 . S
C936 C938 1.327 . S
C936 H961 0.950 . S
C937 C936 1.349 . S
C937 C953 1.349 . S
C938 C936 1.327 . S
C938 C957 1.429 . S
C938 H962 0.950 . S
C939 C956 1.574 . S
C939 C958 1.368 . S
C939 H963 0.949 . S
H940 C944 0.949 . S
C941 C942 1.349 . S
C941 C943 1.327 . S
C941 H964 0.966 . S
C942 C941 1.349 . S
C942 C954 1.349 . S
C943 C941 1.327 . S
C943 C959 1.429 . S
C943 H965 0.950 . S
C944 H940 0.949 . S
C944 C952 1.574 . S
C944 C960 1.368 . S
H945 C953 0.950 . S
H946 C951 0.950 . S
H947 C952 0.949 . S
H948 C954 0.950 . S
H949 C955 0.950 . S
H950 C956 0.949 . S
C951 H946 0.950 . S
C951 C953 1.327 . S
C951 C957 1.429 . S
C952 C944 1.574 . S
C952 H947 0.949 . S
C952 C958 1.368 . S
C953 C937 1.349 . S
C953 H945 0.950 . S
C953 C951 1.327 . S
C954 C942 1.349 . S
C954 H948 0.950 . S
C954 C955 1.327 . S
C955 H949 0.950 . S
C955 C954 1.327 . S
C955 C959 1.429 . S
C956 C939 1.574 . S
C956 H950 0.949 . S
C956 C960 1.368 . S
C957 C938 1.429 . S
C957 C951 1.429 . S
C957 C958 1.523 . S
C958 C939 1.368 . S
C958 C952 1.368 . S
C958 C957 1.523 . S
C959 C943 1.429 . S
C959 C955 1.429 . S
C959 C960 1.523 . S
C960 C944 1.368 . S
C960 C956 1.368 . S
C960 C959 1.523 . S
H961 C936 0.950 . S
H962 C938 0.950 . S
H963 C939 0.949 . S
H964 C941 0.966 . S
H965 C943 0.950 . S
C966 C967 1.349 . S
C966 C968 1.327 . S
C966 H991 0.950 . S
C967 C966 1.349 . S
C967 C983 1.349 . S
C968 C966 1.327 . S
C968 C987 1.429 . S
C968 H992 0.950 . S
C969 C986 1.574 . S
C969 C988 1.368 . S
C969 H993 0.949 . S
H970 C974 0.949 . S
C971 C972 1.349 . S
C971 C973 1.327 . S
C971 H994 0.950 . S
C972 C971 1.349 . S
C972 C984 1.349 . S
C973 C971 1.327 . S
C973 C989 1.429 . S
C973 H995 0.950 . S
C974 H970 0.949 . S
C974 C982 1.574 . S
C974 C990 1.368 . S
H975 C983 0.950 . S
H976 C981 0.950 . S
H977 C982 0.949 . S
H978 C984 0.950 . S
H979 C985 0.950 . S
H980 C986 0.949 . S
C981 H976 0.950 . S
C981 C983 1.327 . S
C981 C987 1.429 . S
C982 C974 1.574 . S
C982 H977 0.949 . S
C982 C988 1.368 . S
C983 C967 1.349 . S
C983 H975 0.950 . S
C983 C981 1.327 . S
C984 C972 1.349 . S
C984 H978 0.950 . S
C984 C985 1.327 . S
C985 H979 0.950 . S
C985 C984 1.327 . S
C985 C989 1.429 . S
C986 C969 1.574 . S
C986 H980 0.949 . S
C986 C990 1.368 . S
C987 C968 1.429 . S
C987 C981 1.429 . S
C987 C988 1.523 . S
C988 C969 1.368 . S
C988 C982 1.368 . S
C988 C987 1.523 . S
C989 C973 1.429 . S
C989 C985 1.429 . S
C989 C990 1.523 . S
C990 C974 1.368 . S
C990 C986 1.368 . S
C990 C989 1.523 . S
H991 C966 0.950 . S
H992 C968 0.950 . S
H993 C969 0.949 . S
H994 C971 0.950 . S
H995 C973 0.950 . S
C996 C997 1.349 . S
C996 C998 1.327 . S
C996 H1021 0.950 . S
C997 C996 1.349 . S
C997 C1013 1.349 . S
C998 C996 1.327 . S
C998 C1017 1.429 . S
C998 H1022 0.950 . S
C999 C1016 1.574 . S
C999 C1018 1.368 . S
C999 H1023 0.949 . S
H1000 C1004 0.949 . S
C1001 C1002 1.349 . S
C1001 C1003 1.327 . S
C1001 H1024 0.950 . S
C1002 C1001 1.349 . S
C1002 C1014 1.349 1_554 S
C1003 C1001 1.327 . S
C1003 C1019 1.429 1_554 S
C1003 H1025 0.950 . S
C1004 H1000 0.949 . S
C1004 C1012 1.574 . S
C1004 C1020 1.368 . S
H1005 C1013 0.950 . S
H1006 C1011 0.950 . S
H1007 C1012 0.949 . S
H1008 C1014 0.950 . S
H1009 C1015 0.950 . S
H1010 C1016 0.949 . S
C1011 H1006 0.950 . S
C1011 C1013 1.327 . S
C1011 C1017 1.429 . S
C1012 C1004 1.574 . S
C1012 H1007 0.949 . S
C1012 C1018 1.368 . S
C1013 C997 1.349 . S
C1013 H1005 0.950 . S
C1013 C1011 1.327 . S
C1014 C1002 1.349 1_556 S
C1014 H1008 0.950 . S
C1014 C1015 1.327 . S
C1015 H1009 0.950 . S
C1015 C1014 1.327 . S
C1015 C1019 1.429 . S
C1016 C999 1.574 . S
C1016 H1010 0.949 . S
C1016 C1020 1.368 . S
C1017 C998 1.429 . S
C1017 C1011 1.429 . S
C1017 C1018 1.523 . S
C1018 C999 1.368 . S
C1018 C1012 1.368 . S
C1018 C1017 1.523 . S
C1019 C1003 1.429 1_556 S
C1019 C1015 1.429 . S
C1019 C1020 1.523 . S
C1020 C1004 1.368 . S
C1020 C1016 1.368 . S
C1020 C1019 1.523 . S
H1021 C996 0.950 . S
H1022 C998 0.950 . S
H1023 C999 0.949 . S
H1024 C1001 0.950 . S
H1025 C1003 0.950 . S
C1026 C1027 1.349 . S
C1026 C1028 1.327 . S
C1026 H1051 0.950 . S
C1027 C1026 1.349 . S
C1027 C1043 1.349 . S
C1028 C1026 1.327 . S
C1028 C1047 1.429 . S
C1028 H1052 0.950 . S
C1029 C1046 1.574 . S
C1029 C1048 1.368 . S
C1029 H1053 0.949 . S
H1030 C1034 0.949 . S
C1031 C1032 1.349 . S
C1031 C1033 1.327 . S
C1031 H1054 0.950 . S
C1032 C1031 1.349 . S
C1032 C1044 1.349 . S
C1033 C1031 1.327 . S
C1033 C1049 1.429 . S
C1033 H1055 0.950 . S
C1034 H1030 0.949 . S
C1034 C1042 1.574 . S
C1034 C1050 1.368 . S
H1035 C1043 0.950 . S
H1036 C1041 0.950 . S
H1037 C1042 0.949 . S
H1038 C1044 0.950 . S
H1039 C1045 0.950 . S
H1040 C1046 0.949 . S
C1041 H1036 0.950 . S
C1041 C1043 1.327 . S
C1041 C1047 1.429 . S
C1042 C1034 1.574 . S
C1042 H1037 0.949 . S
C1042 C1048 1.368 . S
C1043 C1027 1.349 . S
C1043 H1035 0.950 . S
C1043 C1041 1.327 . S
C1044 C1032 1.349 . S
C1044 H1038 0.950 . S
C1044 C1045 1.327 . S
C1045 H1039 0.950 . S
C1045 C1044 1.327 . S
C1045 C1049 1.429 . S
C1046 C1029 1.574 . S
C1046 H1040 0.949 . S
C1046 C1050 1.368 . S
C1047 C1028 1.429 . S
C1047 C1041 1.429 . S
C1047 C1048 1.523 . S
C1048 C1029 1.368 . S
C1048 C1042 1.368 . S
C1048 C1047 1.523 . S
C1049 C1033 1.429 . S
C1049 C1045 1.429 . S
C1049 C1050 1.523 . S
C1050 C1034 1.368 . S
C1050 C1046 1.368 . S
C1050 C1049 1.523 . S
H1051 C1026 0.950 . S
H1052 C1028 0.950 . S
H1053 C1029 0.949 . S
H1054 C1031 0.950 . S
H1055 C1033 0.950 . S
C1056 C1057 1.349 . S
C1056 C1058 1.327 . S
C1056 H1081 0.950 . S
C1057 C1056 1.349 . S
C1057 C1073 1.349 1_545 S
C1058 C1056 1.327 . S
C1058 C1077 1.429 . S
C1058 H1082 0.950 . S
C1059 C1076 1.574 . S
C1059 C1078 1.368 1_565 S
C1059 H1083 0.949 . S
H1060 C1064 0.949 . S
C1061 C1062 1.349 1_565 S
C1061 C1063 1.327 . S
C1061 H1084 0.950 . S
C1062 C1061 1.349 1_545 S
C1062 C1074 1.349 . S
C1063 C1061 1.327 . S
C1063 C1079 1.429 1_565 S
C1063 H1085 0.950 . S
C1064 H1060 0.949 . S
C1064 C1072 1.574 . S
C1064 C1080 1.368 . S
H1065 C1073 0.950 . S
H1066 C1071 0.950 . S
H1067 C1072 0.949 . S
H1068 C1074 0.950 . S
H1069 C1075 0.950 . S
H1070 C1076 0.949 . S
C1071 H1066 0.950 . S
C1071 C1073 1.327 . S
C1071 C1077 1.429 1_565 S
C1072 C1064 1.574 . S
C1072 H1067 0.949 . S
C1072 C1078 1.368 . S
C1073 C1057 1.349 1_565 S
C1073 H1065 0.950 . S
C1073 C1071 1.327 . S
C1074 C1062 1.349 . S
C1074 H1068 0.950 . S
C1074 C1075 1.327 . S
C1075 H1069 0.950 . S
C1075 C1074 1.327 . S
C1075 C1079 1.429 . S
C1076 C1059 1.574 . S
C1076 H1070 0.949 . S
C1076 C1080 1.368 1_565 S
C1077 C1058 1.429 . S
C1077 C1071 1.429 1_545 S
C1077 C1078 1.523 . S
C1078 C1059 1.368 1_545 S
C1078 C1072 1.368 . S
C1078 C1077 1.523 . S
C1079 C1063 1.429 1_545 S
C1079 C1075 1.429 . S
C1079 C1080 1.523 . S
C1080 C1064 1.368 . S
C1080 C1076 1.368 1_545 S
C1080 C1079 1.523 . S
H1081 C1056 0.950 . S
H1082 C1058 0.950 . S
H1083 C1059 0.949 . S
H1084 C1061 0.950 . S
H1085 C1063 0.950 . S
C1086 C1087 1.349 . S
C1086 C1088 1.327 . S
C1086 H1111 0.950 . S
C1087 C1086 1.349 . S
C1087 C1103 1.349 . S
C1088 C1086 1.327 . S
C1088 C1107 1.429 . S
C1088 H1112 0.950 . S
C1089 C1106 1.574 . S
C1089 C1108 1.368 . S
C1089 H1113 0.949 . S
H1090 C1094 0.949 . S
C1091 C1092 1.349 . S
C1091 C1093 1.327 . S
C1091 H1114 0.950 . S
C1092 C1091 1.349 . S
C1092 C1104 1.349 . S
C1093 C1091 1.327 . S
C1093 C1109 1.429 . S
C1093 H1115 0.950 . S
C1094 H1090 0.949 . S
C1094 C1102 1.574 . S
C1094 C1110 1.368 . S
H1095 C1103 0.950 . S
H1096 C1101 0.950 . S
H1097 C1102 0.949 . S
H1098 C1104 0.950 . S
H1099 C1105 0.950 . S
H1100 C1106 0.949 . S
C1101 H1096 0.950 . S
C1101 C1103 1.327 . S
C1101 C1107 1.429 . S
C1102 C1094 1.574 . S
C1102 H1097 0.949 . S
C1102 C1108 1.368 . S
C1103 C1087 1.349 . S
C1103 H1095 0.950 . S
C1103 C1101 1.327 . S
C1104 C1092 1.349 . S
C1104 H1098 0.950 . S
C1104 C1105 1.327 . S
C1105 H1099 0.950 . S
C1105 C1104 1.327 . S
C1105 C1109 1.429 . S
C1106 C1089 1.574 . S
C1106 H1100 0.949 . S
C1106 C1110 1.368 . S
C1107 C1088 1.429 . S
C1107 C1101 1.429 . S
C1107 C1108 1.523 . S
C1108 C1089 1.368 . S
C1108 C1102 1.368 . S
C1108 C1107 1.523 . S
C1109 C1093 1.429 . S
C1109 C1105 1.429 . S
C1109 C1110 1.523 . S
C1110 C1094 1.368 . S
C1110 C1106 1.368 . S
C1110 C1109 1.523 . S
H1111 C1086 0.950 . S
H1112 C1088 0.950 . S
H1113 C1089 0.949 . S
H1114 C1091 0.950 . S
H1115 C1093 0.950 . S
C1116 C1117 1.349 . S
C1116 C1118 1.327 . S
C1116 H1141 0.950 . S
C1117 C1116 1.349 . S
C1117 C1133 1.349 . S
C1118 C1116 1.327 . S
C1118 C1137 1.429 . S
C1118 H1142 0.950 . S
C1119 C1136 1.574 . S
C1119 C1138 1.368 . S
C1119 H1143 0.949 . S
H1120 C1124 0.949 . S
C1121 C1122 1.349 . S
C1121 C1123 1.327 . S
C1121 H1144 0.950 . S
C1122 C1121 1.349 . S
C1122 C1134 1.349 . S
C1123 C1121 1.327 . S
C1123 C1139 1.429 . S
C1123 H1145 0.950 . S
C1124 H1120 0.949 . S
C1124 C1132 1.574 . S
C1124 C1140 1.368 . S
H1125 C1133 0.950 . S
H1126 C1131 0.950 . S
H1127 C1132 0.949 . S
H1128 C1134 0.950 . S
H1129 C1135 0.950 . S
H1130 C1136 0.949 . S
C1131 H1126 0.950 . S
C1131 C1133 1.327 . S
C1131 C1137 1.429 . S
C1132 C1124 1.574 . S
C1132 H1127 0.949 . S
C1132 C1138 1.368 . S
C1133 C1117 1.349 . S
C1133 H1125 0.950 . S
C1133 C1131 1.327 . S
C1134 C1122 1.349 . S
C1134 H1128 0.950 . S
C1134 C1135 1.327 . S
C1135 H1129 0.950 . S
C1135 C1134 1.327 . S
C1135 C1139 1.429 . S
C1136 C1119 1.574 . S
C1136 H1130 0.949 . S
C1136 C1140 1.368 . S
C1137 C1118 1.429 . S
C1137 C1131 1.429 . S
C1137 C1138 1.523 . S
C1138 C1119 1.368 . S
C1138 C1132 1.368 . S
C1138 C1137 1.523 . S
C1139 C1123 1.429 . S
C1139 C1135 1.429 . S
C1139 C1140 1.523 . S
C1140 C1124 1.368 . S
C1140 C1136 1.368 . S
C1140 C1139 1.523 . S
H1141 C1116 0.950 . S
H1142 C1118 0.950 . S
H1143 C1119 0.949 . S
H1144 C1121 0.950 . S
H1145 C1123 0.950 . S
C1146 C1147 1.349 . S
C1146 C1148 1.327 . S
C1146 H1171 0.950 . S
C1147 C1146 1.349 . S
C1147 C1163 1.349 . S
C1148 C1146 1.327 . S
C1148 C1167 1.429 . S
C1148 H1172 0.950 . S
C1149 C1166 1.574 . S
C1149 C1168 1.368 . S
C1149 H1173 0.949 . S
H1150 C1154 0.949 . S
C1151 C1152 1.349 . S
C1151 C1153 1.327 . S
C1151 H1174 0.950 . S
C1152 C1151 1.349 . S
C1152 C1164 1.349 . S
C1153 C1151 1.327 . S
C1153 C1169 1.429 . S
C1153 H1175 0.950 . S
C1154 H1150 0.949 . S
C1154 C1162 1.574 . S
C1154 C1170 1.368 . S
H1155 C1163 0.950 . S
H1156 C1161 0.950 . S
H1157 C1162 0.949 . S
H1158 C1164 0.950 . S
H1159 C1165 0.950 . S
H1160 C1166 0.949 . S
C1161 H1156 0.950 . S
C1161 C1163 1.327 . S
C1161 C1167 1.429 . S
C1162 C1154 1.574 . S
C1162 H1157 0.949 . S
C1162 C1168 1.368 . S
C1163 C1147 1.349 . S
C1163 H1155 0.950 . S
C1163 C1161 1.327 . S
C1164 C1152 1.349 . S
C1164 H1158 0.950 . S
C1164 C1165 1.327 . S
C1165 H1159 0.950 . S
C1165 C1164 1.327 . S
C1165 C1169 1.429 . S
C1166 C1149 1.574 . S
C1166 H1160 0.949 . S
C1166 C1170 1.368 . S
C1167 C1148 1.429 . S
C1167 C1161 1.429 . S
C1167 C1168 1.523 . S
C1168 C1149 1.368 . S
C1168 C1162 1.368 . S
C1168 C1167 1.523 . S
C1169 C1153 1.429 . S
C1169 C1165 1.429 . S
C1169 C1170 1.523 . S
C1170 C1154 1.368 . S
C1170 C1166 1.368 . S
C1170 C1169 1.523 . S
H1171 C1146 0.950 . S
H1172 C1148 0.950 . S
H1173 C1149 0.949 . S
H1174 C1151 0.950 . S
H1175 C1153 0.950 . S
C1176 C1177 1.349 . S
C1176 C1178 1.327 . S
C1176 H1201 0.950 . S
C1177 C1176 1.349 . S
C1177 C1193 1.352 . S
C1178 C1176 1.327 . S
C1178 C1197 1.429 . S
C1178 H1202 0.950 . S
C1179 C1196 1.574 . S
C1179 C1198 1.368 . S
C1179 H1203 0.940 1_545 S
H1180 C1184 0.949 . S
C1181 C1182 1.349 . S
C1181 C1183 1.327 . S
C1181 H1204 0.950 . S
C1182 C1181 1.349 . S
C1182 C1194 1.349 . S
C1183 C1181 1.327 . S
C1183 C1199 1.429 . S
C1183 H1205 0.950 . S
C1184 H1180 0.949 . S
C1184 C1192 1.574 . S
C1184 C1200 1.368 . S
H1185 C1193 0.946 1_565 S
H1186 C1191 0.950 1_565 S
H1187 C1192 0.949 . S
H1188 C1194 0.950 . S
H1189 C1195 0.950 . S
H1190 C1196 0.949 . S
C1191 H1186 0.950 1_545 S
C1191 C1193 1.328 . S
C1191 C1197 1.429 . S
C1192 C1184 1.574 . S
C1192 H1187 0.949 . S
C1192 C1198 1.368 . S
C1193 C1177 1.352 . S
C1193 H1185 0.946 1_545 S
C1193 C1191 1.328 . S
C1194 C1182 1.349 . S
C1194 H1188 0.950 . S
C1194 C1195 1.327 . S
C1195 H1189 0.950 . S
C1195 C1194 1.327 . S
C1195 C1199 1.429 . S
C1196 C1179 1.574 . S
C1196 H1190 0.949 . S
C1196 C1200 1.368 . S
C1197 C1178 1.429 . S
C1197 C1191 1.429 . S
C1197 C1198 1.523 . S
C1198 C1179 1.368 . S
C1198 C1192 1.368 . S
C1198 C1197 1.523 . S
C1199 C1183 1.429 . S
C1199 C1195 1.429 . S
C1199 C1200 1.523 . S
C1200 C1184 1.368 . S
C1200 C1196 1.368 . S
C1200 C1199 1.523 . S
H1201 C1176 0.950 . S
H1202 C1178 0.950 . S
H1203 C1179 0.940 1_565 S
H1204 C1181 0.950 . S
H1205 C1183 0.950 . S
C1206 C1207 1.349 . S
C1206 C1208 1.327 . S
C1206 H1231 0.950 . S
C1207 C1206 1.349 . S
C1207 C1223 1.349 . S
C1208 C1206 1.327 . S
C1208 C1227 1.429 . S
C1208 H1232 0.950 . S
C1209 C1226 1.574 . S
C1209 C1228 1.368 . S
C1209 H1233 0.949 . S
H1210 C1214 0.949 . S
C1211 C1212 1.349 . S
C1211 C1213 1.327 . S
C1211 H1234 0.950 . S
C1212 C1211 1.349 . S
C1212 C1224 1.349 . S
C1213 C1211 1.327 . S
C1213 C1229 1.429 . S
C1213 H1235 0.950 . S
C1214 H1210 0.949 . S
C1214 C1222 1.574 . S
C1214 C1230 1.368 . S
H1215 C1223 0.950 . S
H1216 C1221 0.950 . S
H1217 C1222 0.949 . S
H1218 C1224 0.950 . S
H1219 C1225 0.950 . S
H1220 C1226 0.949 . S
C1221 H1216 0.950 . S
C1221 C1223 1.327 . S
C1221 C1227 1.429 . S
C1222 C1214 1.574 . S
C1222 H1217 0.949 . S
C1222 C1228 1.368 . S
C1223 C1207 1.349 . S
C1223 H1215 0.950 . S
C1223 C1221 1.327 . S
C1224 C1212 1.349 . S
C1224 H1218 0.950 . S
C1224 C1225 1.327 . S
C1225 H1219 0.950 . S
C1225 C1224 1.327 . S
C1225 C1229 1.429 . S
C1226 C1209 1.574 . S
C1226 H1220 0.949 . S
C1226 C1230 1.368 . S
C1227 C1208 1.429 . S
C1227 C1221 1.429 . S
C1227 C1228 1.523 . S
C1228 C1209 1.368 . S
C1228 C1222 1.368 . S
C1228 C1227 1.523 . S
C1229 C1213 1.429 . S
C1229 C1225 1.429 . S
C1229 C1230 1.523 . S
C1230 C1214 1.368 . S
C1230 C1226 1.368 . S
C1230 C1229 1.523 . S
H1231 C1206 0.950 . S
H1232 C1208 0.950 . S
H1233 C1209 0.949 . S
H1234 C1211 0.950 . S
H1235 C1213 0.950 . S
C1236 C1237 1.349 . S
C1236 C1238 1.327 . S
C1236 H1261 0.950 . S
C1237 C1236 1.349 . S
C1237 C1253 1.349 . S
C1238 C1236 1.327 . S
C1238 C1257 1.429 . S
C1238 H1262 0.950 . S
C1239 C1256 1.574 . S
C1239 C1258 1.368 . S
C1239 H1263 0.949 . S
H1240 C1244 0.949 1_565 S
C1241 C1242 1.349 . S
C1241 C1243 1.327 . S
C1241 H1264 0.950 . S
C1242 C1241 1.349 . S
C1242 C1254 1.314 1_545 S
C1243 C1241 1.327 . S
C1243 C1259 1.429 . S
C1243 H1265 0.950 . S
C1244 H1240 0.949 1_545 S
C1244 C1252 1.574 . S
C1244 C1260 1.368 . S
H1245 C1253 0.950 . S
H1246 C1251 0.950 . S
H1247 C1252 0.949 . S
H1248 C1254 0.994 . S
H1249 C1255 0.950 1_565 S
H1250 C1256 0.949 . S
C1251 H1246 0.950 . S
C1251 C1253 1.327 . S
C1251 C1257 1.429 . S
C1252 C1244 1.574 . S
C1252 H1247 0.949 . S
C1252 C1258 1.368 . S
C1253 C1237 1.349 . S
C1253 H1245 0.950 . S
C1253 C1251 1.327 . S
C1254 C1242 1.314 1_565 S
C1254 H1248 0.994 . S
C1254 C1255 1.320 1_565 S
C1255 H1249 0.950 1_545 S
C1255 C1254 1.320 1_545 S
C1255 C1259 1.429 . S
C1256 C1239 1.574 . S
C1256 H1250 0.949 . S
C1256 C1260 1.368 . S
C1257 C1238 1.429 . S
C1257 C1251 1.429 . S
C1257 C1258 1.523 . S
C1258 C1239 1.368 . S
C1258 C1252 1.368 . S
C1258 C1257 1.523 . S
C1259 C1243 1.429 . S
C1259 C1255 1.429 . S
C1259 C1260 1.523 . S
C1260 C1244 1.368 . S
C1260 C1256 1.368 . S
C1260 C1259 1.523 . S
H1261 C1236 0.950 . S
H1262 C1238 0.950 . S
H1263 C1239 0.949 . S
H1264 C1241 0.950 . S
H1265 C1243 0.950 . S
C1266 C1267 1.349 . S
C1266 C1268 1.327 . S
C1266 H1291 0.950 . S
C1267 C1266 1.349 . S
C1267 C1283 1.349 . S
C1268 C1266 1.327 . S
C1268 C1287 1.429 . S
C1268 H1292 0.950 . S
C1269 C1286 1.574 . S
C1269 C1288 1.368 . S
C1269 H1293 0.949 . S
H1270 C1274 0.949 . S
C1271 C1272 1.349 . S
C1271 C1273 1.327 . S
C1271 H1294 0.950 . S
C1272 C1271 1.349 . S
C1272 C1284 1.349 . S
C1273 C1271 1.327 . S
C1273 C1289 1.429 . S
C1273 H1295 0.950 . S
C1274 H1270 0.949 . S
C1274 C1282 1.574 . S
C1274 C1290 1.368 . S
H1275 C1283 0.950 . S
H1276 C1281 0.950 . S
H1277 C1282 0.949 . S
H1278 C1284 0.950 . S
H1279 C1285 0.950 . S
H1280 C1286 0.949 . S
C1281 H1276 0.950 . S
C1281 C1283 1.327 . S
C1281 C1287 1.429 . S
C1282 C1274 1.574 . S
C1282 H1277 0.949 . S
C1282 C1288 1.368 . S
C1283 C1267 1.349 . S
C1283 H1275 0.950 . S
C1283 C1281 1.327 . S
C1284 C1272 1.349 . S
C1284 H1278 0.950 . S
C1284 C1285 1.327 . S
C1285 H1279 0.950 . S
C1285 C1284 1.327 . S
C1285 C1289 1.429 . S
C1286 C1269 1.574 . S
C1286 H1280 0.949 . S
C1286 C1290 1.368 . S
C1287 C1268 1.429 . S
C1287 C1281 1.429 . S
C1287 C1288 1.523 . S
C1288 C1269 1.368 . S
C1288 C1282 1.368 . S
C1288 C1287 1.523 . S
C1289 C1273 1.429 . S
C1289 C1285 1.429 . S
C1289 C1290 1.523 . S
C1290 C1274 1.368 . S
C1290 C1286 1.368 . S
C1290 C1289 1.523 . S
H1291 C1266 0.950 . S
H1292 C1268 0.950 . S
H1293 C1269 0.949 . S
H1294 C1271 0.950 . S
H1295 C1273 0.950 . S
C1296 C1297 1.349 . S
C1296 C1298 1.327 . S
C1296 H1321 0.950 . S
C1297 C1296 1.349 . S
C1297 C1313 1.349 . S
C1298 C1296 1.327 . S
C1298 C1317 1.429 . S
C1298 H1322 0.950 . S
C1299 C1316 1.574 . S
C1299 C1318 1.368 . S
C1299 H1323 0.949 . S
H1300 C1304 0.949 1_556 S
C1301 C1302 1.349 . S
C1301 C1303 1.327 . S
C1301 H1324 0.950 . S
C1302 C1301 1.349 . S
C1302 C1314 1.349 . S
C1303 C1301 1.327 . S
C1303 C1319 1.429 . S
C1303 H1325 0.950 . S
C1304 H1300 0.949 1_554 S
C1304 C1312 1.574 . S
C1304 C1320 1.368 . S
H1305 C1313 0.950 . S
H1306 C1311 0.950 . S
H1307 C1312 0.970 . S
H1308 C1314 0.950 1_556 S
H1309 C1315 0.950 1_556 S
H1310 C1316 0.949 . S
C1311 H1306 0.950 . S
C1311 C1313 1.327 . S
C1311 C1317 1.429 . S
C1312 C1304 1.574 . S
C1312 H1307 0.970 . S
C1312 C1318 1.368 . S
C1313 C1297 1.349 . S
C1313 H1305 0.950 . S
C1313 C1311 1.327 . S
C1314 C1302 1.349 . S
C1314 H1308 0.950 1_554 S
C1314 C1315 1.327 . S
C1315 H1309 0.950 1_554 S
C1315 C1314 1.327 . S
C1315 C1319 1.429 . S
C1316 C1299 1.574 . S
C1316 H1310 0.949 . S
C1316 C1320 1.368 . S
C1317 C1298 1.429 . S
C1317 C1311 1.429 . S
C1317 C1318 1.523 . S
C1318 C1299 1.368 . S
C1318 C1312 1.368 . S
C1318 C1317 1.523 . S
C1319 C1303 1.429 . S
C1319 C1315 1.429 . S
C1319 C1320 1.523 . S
C1320 C1304 1.368 . S
C1320 C1316 1.368 . S
C1320 C1319 1.523 . S
H1321 C1296 0.950 . S
H1322 C1298 0.950 . S
H1323 C1299 0.949 . S
H1324 C1301 0.950 . S
H1325 C1303 0.950 . S
C1326 C1327 1.349 . S
C1326 C1328 1.327 . S
C1326 H1351 0.950 . S
C1327 C1326 1.349 . S
C1327 C1343 1.349 . S
C1328 C1326 1.327 . S
C1328 C1347 1.429 . S
C1328 H1352 0.950 . S
C1329 C1346 1.574 . S
C1329 C1348 1.368 . S
C1329 H1353 0.949 . S
H1330 C1334 0.949 . S
C1331 C1332 1.349 . S
C1331 C1333 1.327 . S
C1331 H1354 0.950 . S
C1332 C1331 1.349 . S
C1332 C1344 1.349 . S
C1333 C1331 1.327 . S
C1333 C1349 1.429 . S
C1333 H1355 0.950 . S
C1334 H1330 0.949 . S
C1334 C1342 1.574 . S
C1334 C1350 1.368 . S
H1335 C1343 0.950 . S
H1336 C1341 0.950 . S
H1337 C1342 0.949 . S
H1338 C1344 0.950 . S
H1339 C1345 0.950 . S
H1340 C1346 0.949 . S
C1341 H1336 0.950 . S
C1341 C1343 1.327 . S
C1341 C1347 1.429 . S
C1342 C1334 1.574 . S
C1342 H1337 0.949 . S
C1342 C1348 1.368 . S
C1343 C1327 1.349 . S
C1343 H1335 0.950 . S
C1343 C1341 1.327 . S
C1344 C1332 1.349 . S
C1344 H1338 0.950 . S
C1344 C1345 1.327 . S
C1345 H1339 0.950 . S
C1345 C1344 1.327 . S
C1345 C1349 1.429 . S
C1346 C1329 1.574 . S
C1346 H1340 0.949 . S
C1346 C1350 1.368 . S
C1347 C1328 1.429 . S
C1347 C1341 1.429 . S
C1347 C1348 1.523 . S
C1348 C1329 1.368 . S
C1348 C1342 1.368 . S
C1348 C1347 1.523 . S
C1349 C1333 1.429 . S
C1349 C1345 1.429 . S
C1349 C1350 1.523 . S
C1350 C1334 1.368 . S
C1350 C1346 1.368 . S
C1350 C1349 1.523 . S
H1351 C1326 0.950 . S
H1352 C1328 0.950 . S
H1353 C1329 0.949 . S
H1354 C1331 0.950 . S
H1355 C1333 0.950 . S
C1356 C1357 1.349 . S
C1356 C1358 1.327 . S
C1356 H1381 0.950 . S
C1357 C1356 1.349 . S
C1357 C1373 1.349 . S
C1358 C1356 1.327 . S
C1358 C1377 1.429 . S
C1358 H1382 0.950 . S
C1359 C1376 1.574 . S
C1359 C1378 1.368 . S
C1359 H1383 0.949 . S
H1360 C1364 0.949 . S
C1361 C1362 1.349 . S
C1361 C1363 1.327 . S
C1361 H1384 0.950 . S
C1362 C1361 1.349 . S
C1362 C1374 1.349 . S
C1363 C1361 1.327 . S
C1363 C1379 1.429 . S
C1363 H1385 0.950 . S
C1364 H1360 0.949 . S
C1364 C1372 1.574 . S
C1364 C1380 1.368 . S
H1365 C1373 0.950 . S
H1366 C1371 0.950 . S
H1367 C1372 0.949 . S
H1368 C1374 0.950 . S
H1369 C1375 0.950 . S
H1370 C1376 0.949 . S
C1371 H1366 0.950 . S
C1371 C1373 1.327 . S
C1371 C1377 1.429 . S
C1372 C1364 1.574 . S
C1372 H1367 0.949 . S
C1372 C1378 1.368 . S
C1373 C1357 1.349 . S
C1373 H1365 0.950 . S
C1373 C1371 1.327 . S
C1374 C1362 1.349 . S
C1374 H1368 0.950 . S
C1374 C1375 1.327 . S
C1375 H1369 0.950 . S
C1375 C1374 1.327 . S
C1375 C1379 1.429 . S
C1376 C1359 1.574 . S
C1376 H1370 0.949 . S
C1376 C1380 1.368 . S
C1377 C1358 1.429 . S
C1377 C1371 1.429 . S
C1377 C1378 1.523 . S
C1378 C1359 1.368 . S
C1378 C1372 1.368 . S
C1378 C1377 1.523 . S
C1379 C1363 1.429 . S
C1379 C1375 1.429 . S
C1379 C1380 1.523 . S
C1380 C1364 1.368 . S
C1380 C1376 1.368 . S
C1380 C1379 1.523 . S
H1381 C1356 0.950 . S
H1382 C1358 0.950 . S
H1383 C1359 0.949 . S
H1384 C1361 0.950 . S
H1385 C1363 0.950 . S
C1386 C1387 1.349 . S
C1386 C1388 1.327 . S
C1386 H1411 0.950 . S
C1387 C1386 1.349 . S
C1387 C1403 1.349 . S
C1388 C1386 1.327 . S
C1388 C1407 1.429 . S
C1388 H1412 0.950 . S
C1389 C1406 1.574 . S
C1389 C1408 1.368 . S
C1389 H1413 0.949 . S
H1390 C1394 0.949 . S
C1391 C1392 1.349 . S
C1391 C1393 1.327 . S
C1391 H1414 0.950 . S
C1392 C1391 1.349 . S
C1392 C1404 1.349 . S
C1393 C1391 1.327 . S
C1393 C1409 1.429 . S
C1393 H1415 0.950 . S
C1394 H1390 0.949 . S
C1394 C1402 1.574 . S
C1394 C1410 1.368 . S
H1395 C1403 0.950 . S
H1396 C1401 0.950 . S
H1397 C1402 0.949 . S
H1398 C1404 0.950 . S
H1399 C1405 0.950 . S
H1400 C1406 0.949 . S
C1401 H1396 0.950 . S
C1401 C1403 1.327 . S
C1401 C1407 1.429 . S
C1402 C1394 1.574 . S
C1402 H1397 0.949 . S
C1402 C1408 1.368 . S
C1403 C1387 1.349 . S
C1403 H1395 0.950 . S
C1403 C1401 1.327 . S
C1404 C1392 1.349 . S
C1404 H1398 0.950 . S
C1404 C1405 1.327 . S
C1405 H1399 0.950 . S
C1405 C1404 1.327 . S
C1405 C1409 1.429 . S
C1406 C1389 1.574 . S
C1406 H1400 0.949 . S
C1406 C1410 1.368 . S
C1407 C1388 1.429 . S
C1407 C1401 1.429 . S
C1407 C1408 1.523 . S
C1408 C1389 1.368 . S
C1408 C1402 1.368 . S
C1408 C1407 1.523 . S
C1409 C1393 1.429 . S
C1409 C1405 1.429 . S
C1409 C1410 1.523 . S
C1410 C1394 1.368 . S
C1410 C1406 1.368 . S
C1410 C1409 1.523 . S
H1411 C1386 0.950 . S
H1412 C1388 0.950 . S
H1413 C1389 0.949 . S
H1414 C1391 0.950 . S
H1415 C1393 0.950 . S
C1416 C1417 1.349 . S
C1416 C1418 1.327 . S
C1416 H1441 0.950 . S
C1417 C1416 1.349 . S
C1417 C1433 1.349 . S
C1418 C1416 1.327 . S
C1418 C1437 1.429 . S
C1418 H1442 0.950 . S
C1419 C1436 1.574 . S
C1419 C1438 1.368 . S
C1419 H1443 0.949 . S
H1420 C1424 0.949 . S
C1421 C1422 1.349 . S
C1421 C1423 1.327 . S
C1421 H1444 0.950 . S
C1422 C1421 1.349 . S
C1422 C1434 1.349 . S
C1423 C1421 1.327 . S
C1423 C1439 1.429 . S
C1423 H1445 0.950 . S
C1424 H1420 0.949 . S
C1424 C1432 1.574 . S
C1424 C1440 1.368 . S
H1425 C1433 0.950 . S
H1426 C1431 0.950 . S
H1427 C1432 0.949 . S
H1428 C1434 0.950 . S
H1429 C1435 0.950 . S
H1430 C1436 0.949 . S
C1431 H1426 0.950 . S
C1431 C1433 1.327 . S
C1431 C1437 1.429 . S
C1432 C1424 1.574 . S
C1432 H1427 0.949 . S
C1432 C1438 1.368 . S
C1433 C1417 1.349 . S
C1433 H1425 0.950 . S
C1433 C1431 1.327 . S
C1434 C1422 1.349 . S
C1434 H1428 0.950 . S
C1434 C1435 1.327 . S
C1435 H1429 0.950 . S
C1435 C1434 1.327 . S
C1435 C1439 1.429 . S
C1436 C1419 1.574 . S
C1436 H1430 0.949 . S
C1436 C1440 1.368 . S
C1437 C1418 1.429 . S
C1437 C1431 1.429 . S
C1437 C1438 1.523 . S
C1438 C1419 1.368 . S
C1438 C1432 1.368 . S
C1438 C1437 1.523 . S
C1439 C1423 1.429 . S
C1439 C1435 1.429 . S
C1439 C1440 1.523 . S
C1440 C1424 1.368 . S
C1440 C1436 1.368 . S
C1440 C1439 1.523 . S
H1441 C1416 0.950 . S
H1442 C1418 0.950 . S
H1443 C1419 0.949 . S
H1444 C1421 0.950 . S
H1445 C1423 0.950 . S
C1446 C1447 1.349 . S
C1446 C1448 1.327 . S
C1446 H1471 0.950 . S
C1447 C1446 1.349 . S
C1447 C1463 1.349 . S
C1448 C1446 1.327 . S
C1448 C1467 1.429 . S
C1448 H1472 0.950 . S
C1449 C1466 1.574 . S
C1449 C1468 1.368 . S
C1449 H1473 0.949 . S
H1450 C1454 0.949 . S
C1451 C1452 1.349 . S
C1451 C1453 1.327 . S
C1451 H1474 0.950 . S
C1452 C1451 1.349 . S
C1452 C1464 1.349 . S
C1453 C1451 1.327 . S
C1453 C1469 1.429 . S
C1453 H1475 0.950 . S
C1454 H1450 0.949 . S
C1454 C1462 1.574 . S
C1454 C1470 1.368 . S
H1455 C1463 0.950 . S
H1456 C1461 0.950 . S
H1457 C1462 0.949 . S
H1458 C1464 0.950 . S
H1459 C1465 0.950 . S
H1460 C1466 0.949 . S
C1461 H1456 0.950 . S
C1461 C1463 1.327 . S
C1461 C1467 1.429 . S
C1462 C1454 1.574 . S
C1462 H1457 0.949 . S
C1462 C1468 1.368 . S
C1463 C1447 1.349 . S
C1463 H1455 0.950 . S
C1463 C1461 1.327 . S
C1464 C1452 1.349 . S
C1464 H1458 0.950 . S
C1464 C1465 1.327 . S
C1465 H1459 0.950 . S
C1465 C1464 1.327 . S
C1465 C1469 1.429 . S
C1466 C1449 1.574 . S
C1466 H1460 0.949 . S
C1466 C1470 1.368 . S
C1467 C1448 1.429 . S
C1467 C1461 1.429 . S
C1467 C1468 1.523 . S
C1468 C1449 1.368 . S
C1468 C1462 1.368 . S
C1468 C1467 1.523 . S
C1469 C1453 1.429 . S
C1469 C1465 1.429 . S
C1469 C1470 1.523 . S
C1470 C1454 1.368 . S
C1470 C1466 1.368 . S
C1470 C1469 1.523 . S
H1471 C1446 0.950 . S
H1472 C1448 0.950 . S
H1473 C1449 0.949 . S
H1474 C1451 0.950 . S
H1475 C1453 0.950 . S
C1476 C1477 1.349 . S
C1476 C1478 1.327 . S
C1476 H1501 0.950 . S
C1477 C1476 1.349 . S
C1477 C1493 1.349 . S
C1478 C1476 1.327 . S
C1478 C1497 1.429 . S
C1478 H1502 0.950 . S
C1479 C1496 1.574 . S
C1479 C1498 1.368 . S
C1479 H1503 0.949 . S
H1480 C1484 0.949 . S
C1481 C1482 1.349 . S
C1481 C1483 1.327 . S
C1481 H1504 0.950 . S
C1482 C1481 1.349 . S
C1482 C1494 1.349 . S
C1483 C1481 1.327 . S
C1483 C1499 1.429 . S
C1483 H1505 0.950 . S
C1484 H1480 0.949 . S
C1484 C1492 1.574 . S
C1484 C1500 1.368 . S
H1485 C1493 0.950 . S
H1486 C1491 0.950 . S
H1487 C1492 0.949 . S
H1488 C1494 0.950 . S
H1489 C1495 0.950 . S
H1490 C1496 0.949 . S
C1491 H1486 0.950 . S
C1491 C1493 1.327 . S
C1491 C1497 1.429 . S
C1492 C1484 1.574 . S
C1492 H1487 0.949 . S
C1492 C1498 1.368 . S
C1493 C1477 1.349 . S
C1493 H1485 0.950 . S
C1493 C1491 1.327 . S
C1494 C1482 1.349 . S
C1494 H1488 0.950 . S
C1494 C1495 1.327 . S
C1495 H1489 0.950 . S
C1495 C1494 1.327 . S
C1495 C1499 1.429 . S
C1496 C1479 1.574 . S
C1496 H1490 0.949 . S
C1496 C1500 1.368 . S
C1497 C1478 1.429 . S
C1497 C1491 1.429 . S
C1497 C1498 1.523 . S
C1498 C1479 1.368 . S
C1498 C1492 1.368 . S
C1498 C1497 1.523 . S
C1499 C1483 1.429 . S
C1499 C1495 1.429 . S
C1499 C1500 1.523 . S
C1500 C1484 1.368 . S
C1500 C1496 1.368 . S
C1500 C1499 1.523 . S
H1501 C1476 0.950 . S
H1502 C1478 0.950 . S
H1503 C1479 0.949 . S
H1504 C1481 0.950 . S
H1505 C1483 0.950 . S
C1506 C1507 1.349 . S
C1506 C1508 1.327 . S
C1506 H1531 0.950 . S
C1507 C1506 1.349 . S
C1507 C1523 1.349 . S
C1508 C1506 1.327 . S
C1508 C1527 1.429 . S
C1508 H1532 0.950 . S
C1509 C1526 1.574 . S
C1509 C1528 1.368 . S
C1509 H1533 0.949 . S
H1510 C1514 0.949 . S
C1511 C1512 1.349 . S
C1511 C1513 1.327 . S
C1511 H1534 0.950 . S
C1512 C1511 1.349 . S
C1512 C1524 1.349 . S
C1513 C1511 1.327 . S
C1513 C1529 1.429 . S
C1513 H1535 0.950 . S
C1514 H1510 0.949 . S
C1514 C1522 1.574 . S
C1514 C1530 1.368 . S
H1515 C1523 0.950 . S
H1516 C1521 0.950 . S
H1517 C1522 0.949 . S
H1518 C1524 0.950 . S
H1519 C1525 0.950 . S
H1520 C1526 0.949 . S
C1521 H1516 0.950 . S
C1521 C1523 1.327 . S
C1521 C1527 1.429 . S
C1522 C1514 1.574 . S
C1522 H1517 0.949 . S
C1522 C1528 1.368 . S
C1523 C1507 1.349 . S
C1523 H1515 0.950 . S
C1523 C1521 1.327 . S
C1524 C1512 1.349 . S
C1524 H1518 0.950 . S
C1524 C1525 1.327 . S
C1525 H1519 0.950 . S
C1525 C1524 1.327 . S
C1525 C1529 1.429 . S
C1526 C1509 1.574 . S
C1526 H1520 0.949 . S
C1526 C1530 1.368 . S
C1527 C1508 1.429 . S
C1527 C1521 1.429 . S
C1527 C1528 1.523 . S
C1528 C1509 1.368 . S
C1528 C1522 1.368 . S
C1528 C1527 1.523 . S
C1529 C1513 1.429 . S
C1529 C1525 1.429 . S
C1529 C1530 1.523 . S
C1530 C1514 1.368 . S
C1530 C1526 1.368 . S
C1530 C1529 1.523 . S
H1531 C1506 0.950 . S
H1532 C1508 0.950 . S
H1533 C1509 0.949 . S
H1534 C1511 0.950 . S
H1535 C1513 0.950 . S
C1536 C1537 1.349 . S
C1536 C1538 1.327 . S
C1536 H1561 0.950 . S
C1537 C1536 1.349 . S
C1537 C1553 1.349 . S
C1538 C1536 1.327 . S
C1538 C1557 1.429 . S
C1538 H1562 0.950 . S
C1539 C1556 1.574 . S
C1539 C1558 1.368 . S
C1539 H1563 0.949 . S
H1540 C1544 0.949 . S
C1541 C1542 1.349 . S
C1541 C1543 1.327 . S
C1541 H1564 0.950 . S
C1542 C1541 1.349 . S
C1542 C1554 1.349 1_556 S
C1543 C1541 1.327 . S
C1543 C1559 1.429 . S
C1543 H1565 0.950 . S
C1544 H1540 0.949 . S
C1544 C1552 1.574 . S
C1544 C1560 1.368 . S
H1545 C1553 0.950 . S
H1546 C1551 0.950 . S
H1547 C1552 0.949 . S
H1548 C1554 0.950 . S
H1549 C1555 0.950 1_554 S
H1550 C1556 0.949 . S
C1551 H1546 0.950 . S
C1551 C1553 1.327 . S
C1551 C1557 1.429 . S
C1552 C1544 1.574 . S
C1552 H1547 0.949 . S
C1552 C1558 1.368 . S
C1553 C1537 1.349 . S
C1553 H1545 0.950 . S
C1553 C1551 1.327 . S
C1554 C1542 1.349 1_554 S
C1554 H1548 0.950 . S
C1554 C1555 1.327 1_554 S
C1555 H1549 0.950 1_556 S
C1555 C1554 1.327 1_556 S
C1555 C1559 1.429 . S
C1556 C1539 1.574 . S
C1556 H1550 0.949 . S
C1556 C1560 1.368 . S
C1557 C1538 1.429 . S
C1557 C1551 1.429 . S
C1557 C1558 1.523 . S
C1558 C1539 1.368 . S
C1558 C1552 1.368 . S
C1558 C1557 1.523 . S
C1559 C1543 1.429 . S
C1559 C1555 1.429 . S
C1559 C1560 1.523 . S
C1560 C1544 1.368 . S
C1560 C1556 1.368 . S
C1560 C1559 1.523 . S
H1561 C1536 0.950 . S
H1562 C1538 0.950 . S
H1563 C1539 0.949 . S
H1564 C1541 0.950 . S
H1565 C1543 0.950 . S
C1566 C1567 1.349 . S
C1566 C1568 1.327 . S
C1566 H1591 0.950 . S
C1567 C1566 1.349 . S
C1567 C1583 1.349 . S
C1568 C1566 1.327 . S
C1568 C1587 1.429 . S
C1568 H1592 0.950 . S
C1569 C1586 1.574 . S
C1569 C1588 1.368 . S
C1569 H1593 0.949 . S
H1570 C1574 0.949 . S
C1571 C1572 1.349 . S
C1571 C1573 1.327 . S
C1571 H1594 0.950 . S
C1572 C1571 1.349 . S
C1572 C1584 1.349 . S
C1573 C1571 1.327 . S
C1573 C1589 1.429 . S
C1573 H1595 0.950 . S
C1574 H1570 0.949 . S
C1574 C1582 1.574 . S
C1574 C1590 1.368 . S
H1575 C1583 0.950 . S
H1576 C1581 0.950 . S
H1577 C1582 0.949 . S
H1578 C1584 0.950 . S
H1579 C1585 0.950 . S
H1580 C1586 0.949 . S
C1581 H1576 0.950 . S
C1581 C1583 1.327 . S
C1581 C1587 1.429 . S
C1582 C1574 1.574 . S
C1582 H1577 0.949 . S
C1582 C1588 1.368 . S
C1583 C1567 1.349 . S
C1583 H1575 0.950 . S
C1583 C1581 1.327 . S
C1584 C1572 1.349 . S
C1584 H1578 0.950 . S
C1584 C1585 1.327 . S
C1585 H1579 0.950 . S
C1585 C1584 1.327 . S
C1585 C1589 1.429 . S
C1586 C1569 1.574 . S
C1586 H1580 0.949 . S
C1586 C1590 1.368 . S
C1587 C1568 1.429 . S
C1587 C1581 1.429 . S
C1587 C1588 1.523 . S
C1588 C1569 1.368 . S
C1588 C1582 1.368 . S
C1588 C1587 1.523 . S
C1589 C1573 1.429 . S
C1589 C1585 1.429 . S
C1589 C1590 1.523 . S
C1590 C1574 1.368 . S
C1590 C1586 1.368 . S
C1590 C1589 1.523 . S
H1591 C1566 0.950 . S
H1592 C1568 0.950 . S
H1593 C1569 0.949 . S
H1594 C1571 0.950 . S
H1595 C1573 0.950 . S
C1596 C1597 1.349 . S
C1596 C1598 1.327 . S
C1596 H1621 0.950 . S
C1597 C1596 1.349 . S
C1597 C1613 1.349 . S
C1598 C1596 1.327 . S
C1598 C1617 1.429 . S
C1598 H1622 0.950 . S
C1599 C1616 1.574 . S
C1599 C1618 1.368 . S
C1599 H1623 0.949 . S
H1600 C1604 0.949 . S
C1601 C1602 1.349 . S
C1601 C1603 1.327 . S
C1601 H1624 0.950 . S
C1602 C1601 1.349 . S
C1602 C1614 1.349 . S
C1603 C1601 1.327 . S
C1603 C1619 1.429 . S
C1603 H1625 0.950 . S
C1604 H1600 0.949 . S
C1604 C1612 1.574 . S
C1604 C1620 1.368 . S
H1605 C1613 0.950 . S
H1606 C1611 0.950 . S
H1607 C1612 0.949 . S
H1608 C1614 0.950 . S
H1609 C1615 0.950 . S
H1610 C1616 0.949 . S
C1611 H1606 0.950 . S
C1611 C1613 1.327 . S
C1611 C1617 1.429 . S
C1612 C1604 1.574 . S
C1612 H1607 0.949 . S
C1612 C1618 1.368 . S
C1613 C1597 1.349 . S
C1613 H1605 0.950 . S
C1613 C1611 1.327 . S
C1614 C1602 1.349 . S
C1614 H1608 0.950 . S
C1614 C1615 1.327 . S
C1615 H1609 0.950 . S
C1615 C1614 1.327 . S
C1615 C1619 1.429 . S
C1616 C1599 1.574 . S
C1616 H1610 0.949 . S
C1616 C1620 1.368 . S
C1617 C1598 1.429 . S
C1617 C1611 1.429 . S
C1617 C1618 1.523 . S
C1618 C1599 1.368 . S
C1618 C1612 1.368 . S
C1618 C1617 1.523 . S
C1619 C1603 1.429 . S
C1619 C1615 1.429 . S
C1619 C1620 1.523 . S
C1620 C1604 1.368 . S
C1620 C1616 1.368 . S
C1620 C1619 1.523 . S
H1621 C1596 0.950 . S
H1622 C1598 0.950 . S
H1623 C1599 0.949 . S
H1624 C1601 0.950 . S
H1625 C1603 0.950 . S
C1626 C1627 1.349 . S
C1626 C1628 1.327 . S
C1626 H1651 0.950 . S
C1627 C1626 1.349 . S
C1627 C1643 1.349 . S
C1628 C1626 1.327 . S
C1628 C1647 1.429 . S
C1628 H1652 0.950 . S
C1629 C1646 1.574 . S
C1629 C1648 1.368 . S
C1629 H1653 0.949 . S
H1630 C1634 0.949 . S
C1631 C1632 1.349 . S
C1631 C1633 1.327 . S
C1631 H1654 0.950 . S
C1632 C1631 1.349 . S
C1632 C1644 1.349 . S
C1633 C1631 1.327 . S
C1633 C1649 1.429 . S
C1633 H1655 0.950 . S
C1634 H1630 0.949 . S
C1634 C1642 1.574 . S
C1634 C1650 1.368 . S
H1635 C1643 0.950 . S
H1636 C1641 0.950 . S
H1637 C1642 0.949 . S
H1638 C1644 0.950 . S
H1639 C1645 0.950 . S
H1640 C1646 0.949 . S
C1641 H1636 0.950 . S
C1641 C1643 1.327 . S
C1641 C1647 1.429 . S
C1642 C1634 1.574 . S
C1642 H1637 0.949 . S
C1642 C1648 1.368 . S
C1643 C1627 1.349 . S
C1643 H1635 0.950 . S
C1643 C1641 1.327 . S
C1644 C1632 1.349 . S
C1644 H1638 0.950 . S
C1644 C1645 1.327 . S
C1645 H1639 0.950 . S
C1645 C1644 1.327 . S
C1645 C1649 1.429 . S
C1646 C1629 1.574 . S
C1646 H1640 0.949 . S
C1646 C1650 1.368 . S
C1647 C1628 1.429 . S
C1647 C1641 1.429 . S
C1647 C1648 1.523 . S
C1648 C1629 1.368 . S
C1648 C1642 1.368 . S
C1648 C1647 1.523 . S
C1649 C1633 1.429 . S
C1649 C1645 1.429 . S
C1649 C1650 1.523 . S
C1650 C1634 1.368 . S
C1650 C1646 1.368 . S
C1650 C1649 1.523 . S
H1651 C1626 0.950 . S
H1652 C1628 0.950 . S
H1653 C1629 0.949 . S
H1654 C1631 0.950 . S
H1655 C1633 0.950 . S
C1656 C1657 1.349 1_655 S
C1656 C1658 1.327 . S
C1656 H1681 0.950 . S
C1657 C1656 1.349 1_455 S
C1657 C1673 1.349 . S
C1658 C1656 1.327 . S
C1658 C1677 1.429 1_655 S
C1658 H1682 0.950 . S
C1659 C1676 1.574 . S
C1659 C1678 1.368 . S
C1659 H1683 0.949 . S
H1660 C1664 0.949 . S
C1661 C1662 1.349 . S
C1661 C1663 1.327 . S
C1661 H1684 0.950 . S
C1662 C1661 1.349 . S
C1662 C1674 1.349 . S
C1663 C1661 1.327 . S
C1663 C1679 1.429 . S
C1663 H1685 0.950 . S
C1664 H1660 0.949 . S
C1664 C1672 1.574 . S
C1664 C1680 1.368 . S
H1665 C1673 0.950 . S
H1666 C1671 0.950 . S
H1667 C1672 0.933 1_655 S
H1668 C1674 0.950 . S
H1669 C1675 0.950 . S
H1670 C1676 0.949 . S
C1671 H1666 0.950 . S
C1671 C1673 1.327 . S
C1671 C1677 1.429 . S
C1672 C1664 1.574 . S
C1672 H1667 0.933 1_455 S
C1672 C1678 1.368 . S
C1673 C1657 1.349 . S
C1673 H1665 0.950 . S
C1673 C1671 1.327 . S
C1674 C1662 1.349 . S
C1674 H1668 0.950 . S
C1674 C1675 1.327 . S
C1675 H1669 0.950 . S
C1675 C1674 1.327 . S
C1675 C1679 1.429 . S
C1676 C1659 1.574 . S
C1676 H1670 0.949 . S
C1676 C1680 1.368 . S
C1677 C1658 1.429 1_455 S
C1677 C1671 1.429 . S
C1677 C1678 1.523 . S
C1678 C1659 1.368 . S
C1678 C1672 1.368 . S
C1678 C1677 1.523 . S
C1679 C1663 1.429 . S
C1679 C1675 1.429 . S
C1679 C1680 1.523 . S
C1680 C1664 1.368 . S
C1680 C1676 1.368 . S
C1680 C1679 1.523 . S
H1681 C1656 0.950 . S
H1682 C1658 0.950 . S
H1683 C1659 0.949 . S
H1684 C1661 0.950 . S
H1685 C1663 0.950 . S
C1686 C1687 1.349 . S
C1686 C1688 1.327 . S
C1686 H1711 0.950 . S
C1687 C1686 1.349 . S
C1687 C1703 1.349 . S
C1688 C1686 1.327 . S
C1688 C1707 1.429 . S
C1688 H1712 0.950 . S
C1689 C1706 1.574 . S
C1689 C1708 1.368 . S
C1689 H1713 0.949 . S
H1690 C1694 0.949 . S
C1691 C1692 1.349 . S
C1691 C1693 1.327 . S
C1691 H1714 0.950 . S
C1692 C1691 1.349 . S
C1692 C1704 1.349 . S
C1693 C1691 1.327 . S
C1693 C1709 1.429 . S
C1693 H1715 0.950 . S
C1694 H1690 0.949 . S
C1694 C1702 1.574 . S
C1694 C1710 1.368 . S
H1695 C1703 0.950 . S
H1696 C1701 0.950 . S
H1697 C1702 0.949 . S
H1698 C1704 0.950 . S
H1699 C1705 0.950 . S
H1700 C1706 0.949 . S
C1701 H1696 0.950 . S
C1701 C1703 1.327 . S
C1701 C1707 1.429 . S
C1702 C1694 1.574 . S
C1702 H1697 0.949 . S
C1702 C1708 1.368 . S
C1703 C1687 1.349 . S
C1703 H1695 0.950 . S
C1703 C1701 1.327 . S
C1704 C1692 1.349 . S
C1704 H1698 0.950 . S
C1704 C1705 1.327 . S
C1705 H1699 0.950 . S
C1705 C1704 1.327 . S
C1705 C1709 1.429 . S
C1706 C1689 1.574 . S
C1706 H1700 0.949 . S
C1706 C1710 1.368 . S
C1707 C1688 1.429 . S
C1707 C1701 1.429 . S
C1707 C1708 1.523 . S
C1708 C1689 1.368 . S
C1708 C1702 1.368 . S
C1708 C1707 1.523 . S
C1709 C1693 1.429 . S
C1709 C1705 1.429 . S
C1709 C1710 1.523 . S
C1710 C1694 1.368 . S
C1710 C1706 1.368 . S
C1710 C1709 1.523 . S
H1711 C1686 0.950 . S
H1712 C1688 0.950 . S
H1713 C1689 0.949 . S
H1714 C1691 0.950 . S
H1715 C1693 0.950 . S
C1716 C1717 1.349 . S
C1716 C1718 1.327 . S
C1716 H1741 0.950 . S
C1717 C1716 1.349 . S
C1717 C1733 1.349 . S
C1718 C1716 1.327 . S
C1718 C1737 1.429 . S
C1718 H1742 0.950 . S
C1719 C1736 1.574 . S
C1719 C1738 1.368 . S
C1719 H1743 0.949 . S
H1720 C1724 0.949 . S
C1721 C1722 1.349 . S
C1721 C1723 1.327 . S
C1721 H1744 0.950 . S
C1722 C1721 1.349 . S
C1722 C1734 1.349 . S
C1723 C1721 1.327 . S
C1723 C1739 1.429 . S
C1723 H1745 0.950 . S
C1724 H1720 0.949 . S
C1724 C1732 1.574 . S
C1724 C1740 1.368 . S
H1725 C1733 0.950 . S
H1726 C1731 0.950 . S
H1727 C1732 0.949 . S
H1728 C1734 0.950 . S
H1729 C1735 0.950 . S
H1730 C1736 0.949 . S
C1731 H1726 0.950 . S
C1731 C1733 1.327 . S
C1731 C1737 1.429 . S
C1732 C1724 1.574 . S
C1732 H1727 0.949 . S
C1732 C1738 1.368 . S
C1733 C1717 1.349 . S
C1733 H1725 0.950 . S
C1733 C1731 1.327 . S
C1734 C1722 1.349 . S
C1734 H1728 0.950 . S
C1734 C1735 1.327 . S
C1735 H1729 0.950 . S
C1735 C1734 1.327 . S
C1735 C1739 1.429 . S
C1736 C1719 1.574 . S
C1736 H1730 0.949 . S
C1736 C1740 1.368 . S
C1737 C1718 1.429 . S
C1737 C1731 1.429 . S
C1737 C1738 1.523 . S
C1738 C1719 1.368 . S
C1738 C1732 1.368 . S
C1738 C1737 1.523 . S
C1739 C1723 1.429 . S
C1739 C1735 1.429 . S
C1739 C1740 1.523 . S
C1740 C1724 1.368 . S
C1740 C1736 1.368 . S
C1740 C1739 1.523 . S
H1741 C1716 0.950 . S
H1742 C1718 0.950 . S
H1743 C1719 0.949 . S
H1744 C1721 0.950 . S
H1745 C1723 0.950 . S
C1746 C1747 1.349 . S
C1746 C1748 1.327 . S
C1746 H1771 0.950 . S
C1747 C1746 1.349 . S
C1747 C1763 1.349 . S
C1748 C1746 1.327 . S
C1748 C1767 1.429 . S
C1748 H1772 0.950 . S
C1749 C1766 1.574 . S
C1749 C1768 1.368 . S
C1749 H1773 0.949 . S
H1750 C1754 0.949 . S
C1751 C1752 1.349 . S
C1751 C1753 1.327 . S
C1751 H1774 0.950 . S
C1752 C1751 1.349 . S
C1752 C1764 1.349 . S
C1753 C1751 1.327 . S
C1753 C1769 1.429 . S
C1753 H1775 0.950 . S
C1754 H1750 0.949 . S
C1754 C1762 1.574 . S
C1754 C1770 1.368 . S
H1755 C1763 0.950 . S
H1756 C1761 0.950 . S
H1757 C1762 0.949 . S
H1758 C1764 0.950 . S
H1759 C1765 0.950 . S
H1760 C1766 0.949 . S
C1761 H1756 0.950 . S
C1761 C1763 1.327 . S
C1761 C1767 1.429 . S
C1762 C1754 1.574 . S
C1762 H1757 0.949 . S
C1762 C1768 1.368 . S
C1763 C1747 1.349 . S
C1763 H1755 0.950 . S
C1763 C1761 1.327 . S
C1764 C1752 1.349 . S
C1764 H1758 0.950 . S
C1764 C1765 1.327 . S
C1765 H1759 0.950 . S
C1765 C1764 1.327 . S
C1765 C1769 1.429 . S
C1766 C1749 1.574 . S
C1766 H1760 0.949 . S
C1766 C1770 1.368 . S
C1767 C1748 1.429 . S
C1767 C1761 1.429 . S
C1767 C1768 1.523 . S
C1768 C1749 1.368 . S
C1768 C1762 1.368 . S
C1768 C1767 1.523 . S
C1769 C1753 1.429 . S
C1769 C1765 1.429 . S
C1769 C1770 1.523 . S
C1770 C1754 1.368 . S
C1770 C1766 1.368 . S
C1770 C1769 1.523 . S
H1771 C1746 0.950 . S
H1772 C1748 0.950 . S
H1773 C1749 0.949 . S
H1774 C1751 0.950 . S
H1775 C1753 0.950 . S
C1776 C1777 1.349 . S
C1776 C1778 1.327 . S
C1776 H1801 0.950 . S
C1777 C1776 1.349 . S
C1777 C1793 1.349 . S
C1778 C1776 1.327 . S
C1778 C1797 1.429 . S
C1778 H1802 0.950 . S
C1779 C1796 1.574 . S
C1779 C1798 1.368 . S
C1779 H1803 0.949 . S
H1780 C1784 0.949 . S
C1781 C1782 1.349 . S
C1781 C1783 1.327 . S
C1781 H1804 0.950 . S
C1782 C1781 1.349 . S
C1782 C1794 1.349 . S
C1783 C1781 1.327 . S
C1783 C1799 1.429 . S
C1783 H1805 0.950 . S
C1784 H1780 0.949 . S
C1784 C1792 1.574 . S
C1784 C1800 1.368 . S
H1785 C1793 0.950 . S
H1786 C1791 0.950 . S
H1787 C1792 0.949 . S
H1788 C1794 0.950 1_455 S
H1789 C1795 0.950 . S
H1790 C1796 0.949 . S
C1791 H1786 0.950 . S
C1791 C1793 1.327 . S
C1791 C1797 1.429 . S
C1792 C1784 1.574 . S
C1792 H1787 0.949 . S
C1792 C1798 1.368 . S
C1793 C1777 1.349 . S
C1793 H1785 0.950 . S
C1793 C1791 1.327 . S
C1794 C1782 1.349 . S
C1794 H1788 0.950 1_655 S
C1794 C1795 1.327 . S
C1795 H1789 0.950 . S
C1795 C1794 1.327 . S
C1795 C1799 1.429 . S
C1796 C1779 1.574 . S
C1796 H1790 0.949 . S
C1796 C1800 1.368 . S
C1797 C1778 1.429 . S
C1797 C1791 1.429 . S
C1797 C1798 1.523 . S
C1798 C1779 1.368 . S
C1798 C1792 1.368 . S
C1798 C1797 1.523 . S
C1799 C1783 1.429 . S
C1799 C1795 1.429 . S
C1799 C1800 1.523 . S
C1800 C1784 1.368 . S
C1800 C1796 1.368 . S
C1800 C1799 1.523 . S
H1801 C1776 0.950 . S
H1802 C1778 0.950 . S
H1803 C1779 0.949 . S
H1804 C1781 0.950 . S
H1805 C1783 0.950 . S
C1806 C1807 1.349 . S
C1806 C1808 1.327 . S
C1806 H1831 0.950 . S
C1807 C1806 1.349 . S
C1807 C1823 1.349 . S
C1808 C1806 1.327 . S
C1808 C1827 1.429 . S
C1808 H1832 0.950 . S
C1809 C1826 1.574 . S
C1809 C1828 1.368 . S
C1809 H1833 0.949 . S
H1810 C1814 0.949 . S
C1811 C1812 1.349 . S
C1811 C1813 1.327 . S
C1811 H1834 0.950 . S
C1812 C1811 1.349 . S
C1812 C1824 1.349 . S
C1813 C1811 1.327 . S
C1813 C1829 1.429 . S
C1813 H1835 0.950 . S
C1814 H1810 0.949 . S
C1814 C1822 1.574 . S
C1814 C1830 1.368 . S
H1815 C1823 0.950 . S
H1816 C1821 0.950 . S
H1817 C1822 0.949 . S
H1818 C1824 0.950 . S
H1819 C1825 0.950 . S
H1820 C1826 0.949 . S
C1821 H1816 0.950 . S
C1821 C1823 1.327 . S
C1821 C1827 1.429 . S
C1822 C1814 1.574 . S
C1822 H1817 0.949 . S
C1822 C1828 1.368 . S
C1823 C1807 1.349 . S
C1823 H1815 0.950 . S
C1823 C1821 1.327 . S
C1824 C1812 1.349 . S
C1824 H1818 0.950 . S
C1824 C1825 1.327 . S
C1825 H1819 0.950 . S
C1825 C1824 1.327 . S
C1825 C1829 1.429 . S
C1826 C1809 1.574 . S
C1826 H1820 0.949 . S
C1826 C1830 1.368 . S
C1827 C1808 1.429 . S
C1827 C1821 1.429 . S
C1827 C1828 1.523 . S
C1828 C1809 1.368 . S
C1828 C1822 1.368 . S
C1828 C1827 1.523 . S
C1829 C1813 1.429 . S
C1829 C1825 1.429 . S
C1829 C1830 1.523 . S
C1830 C1814 1.368 . S
C1830 C1826 1.368 . S
C1830 C1829 1.523 . S
H1831 C1806 0.950 . S
H1832 C1808 0.950 . S
H1833 C1809 0.949 . S
H1834 C1811 0.950 . S
H1835 C1813 0.950 . S
C1836 C1837 1.349 1_565 S
C1836 C1838 1.327 . S
C1836 H1861 0.950 . S
C1837 C1836 1.349 1_545 S
C1837 C1853 1.349 . S
C1838 C1836 1.327 . S
C1838 C1857 1.429 1_565 S
C1838 H1862 0.950 . S
C1839 C1856 1.574 . S
C1839 C1858 1.368 . S
C1839 H1863 0.949 . S
H1840 C1844 0.949 . S
C1841 C1842 1.349 . S
C1841 C1843 1.327 . S
C1841 H1864 0.950 . S
C1842 C1841 1.349 . S
C1842 C1854 1.349 . S
C1843 C1841 1.327 . S
C1843 C1859 1.429 . S
C1843 H1865 0.950 . S
C1844 H1840 0.949 . S
C1844 C1852 1.574 . S
C1844 C1860 1.368 1_565 S
H1845 C1853 0.950 . S
H1846 C1851 0.950 . S
H1847 C1852 0.949 . S
H1848 C1854 0.950 1_565 S
H1849 C1855 0.946 . S
H1850 C1856 0.949 . S
C1851 H1846 0.950 . S
C1851 C1853 1.327 . S
C1851 C1857 1.429 . S
C1852 C1844 1.574 . S
C1852 H1847 0.949 . S
C1852 C1858 1.368 1_565 S
C1853 C1837 1.349 . S
C1853 H1845 0.950 . S
C1853 C1851 1.327 . S
C1854 C1842 1.349 . S
C1854 H1848 0.950 1_545 S
C1854 C1855 1.327 1_545 S
C1855 H1849 0.946 . S
C1855 C1854 1.327 1_565 S
C1855 C1859 1.432 1_565 S
C1856 C1839 1.574 . S
C1856 H1850 0.949 . S
C1856 C1860 1.368 . S
C1857 C1838 1.429 1_545 S
C1857 C1851 1.429 . S
C1857 C1858 1.523 . S
C1858 C1839 1.368 . S
C1858 C1852 1.368 1_545 S
C1858 C1857 1.523 . S
C1859 C1843 1.429 . S
C1859 C1855 1.432 1_545 S
C1859 C1860 1.523 . S
C1860 C1844 1.368 1_545 S
C1860 C1856 1.368 . S
C1860 C1859 1.523 . S
H1861 C1836 0.950 . S
H1862 C1838 0.950 . S
H1863 C1839 0.949 . S
H1864 C1841 0.950 . S
H1865 C1843 0.950 . S
C1866 C1867 1.349 . S
C1866 C1868 1.327 . S
C1866 H1891 0.950 . S
C1867 C1866 1.349 . S
C1867 C1883 1.349 . S
C1868 C1866 1.327 . S
C1868 C1887 1.429 . S
C1868 H1892 0.950 . S
C1869 C1886 1.574 . S
C1869 C1888 1.368 . S
C1869 H1893 0.949 . S
H1870 C1874 0.949 . S
C1871 C1872 1.349 . S
C1871 C1873 1.327 . S
C1871 H1894 0.950 . S
C1872 C1871 1.349 . S
C1872 C1884 1.349 . S
C1873 C1871 1.327 . S
C1873 C1889 1.429 . S
C1873 H1895 0.950 . S
C1874 H1870 0.949 . S
C1874 C1882 1.574 . S
C1874 C1890 1.368 . S
H1875 C1883 0.950 . S
H1876 C1881 0.950 . S
H1877 C1882 0.949 . S
H1878 C1884 0.950 . S
H1879 C1885 0.950 . S
H1880 C1886 0.949 . S
C1881 H1876 0.950 . S
C1881 C1883 1.327 . S
C1881 C1887 1.429 . S
C1882 C1874 1.574 . S
C1882 H1877 0.949 . S
C1882 C1888 1.368 . S
C1883 C1867 1.349 . S
C1883 H1875 0.950 . S
C1883 C1881 1.327 . S
C1884 C1872 1.349 . S
C1884 H1878 0.950 . S
C1884 C1885 1.327 . S
C1885 H1879 0.950 . S
C1885 C1884 1.327 . S
C1885 C1889 1.429 . S
C1886 C1869 1.574 . S
C1886 H1880 0.949 . S
C1886 C1890 1.368 . S
C1887 C1868 1.429 . S
C1887 C1881 1.429 . S
C1887 C1888 1.523 . S
C1888 C1869 1.368 . S
C1888 C1882 1.368 . S
C1888 C1887 1.523 . S
C1889 C1873 1.429 . S
C1889 C1885 1.429 . S
C1889 C1890 1.523 . S
C1890 C1874 1.368 . S
C1890 C1886 1.368 . S
C1890 C1889 1.523 . S
H1891 C1866 0.950 . S
H1892 C1868 0.950 . S
H1893 C1869 0.949 . S
H1894 C1871 0.950 . S
H1895 C1873 0.950 . S
C1896 C1897 1.349 . S
C1896 C1898 1.327 . S
C1896 H1921 0.950 . S
C1897 C1896 1.349 . S
C1897 C1913 1.349 . S
C1898 C1896 1.327 . S
C1898 C1917 1.429 . S
C1898 H1922 0.950 . S
C1899 C1916 1.574 . S
C1899 C1918 1.368 . S
C1899 H1923 0.949 . S
H1900 C1904 0.949 . S
C1901 C1902 1.349 . S
C1901 C1903 1.327 . S
C1901 H1924 0.950 1_545 S
C1902 C1901 1.349 . S
C1902 C1914 1.349 . S
C1903 C1901 1.327 . S
C1903 C1919 1.429 . S
C1903 H1925 0.950 1_545 S
C1904 H1900 0.949 . S
C1904 C1912 1.574 . S
C1904 C1920 1.368 . S
H1905 C1913 0.950 . S
H1906 C1911 0.950 . S
H1907 C1912 0.949 . S
H1908 C1914 0.950 1_455 S
H1909 C1915 0.950 . S
H1910 C1916 0.968 . S
C1911 H1906 0.950 . S
C1911 C1913 1.327 . S
C1911 C1917 1.429 . S
C1912 C1904 1.574 . S
C1912 H1907 0.949 . S
C1912 C1918 1.368 . S
C1913 C1897 1.349 . S
C1913 H1905 0.950 . S
C1913 C1911 1.327 . S
C1914 C1902 1.349 . S
C1914 H1908 0.950 1_655 S
C1914 C1915 1.327 . S
C1915 H1909 0.950 . S
C1915 C1914 1.327 . S
C1915 C1919 1.429 . S
C1916 C1899 1.574 . S
C1916 H1910 0.968 . S
C1916 C1920 1.368 . S
C1917 C1898 1.429 . S
C1917 C1911 1.429 . S
C1917 C1918 1.523 . S
C1918 C1899 1.368 . S
C1918 C1912 1.368 . S
C1918 C1917 1.523 . S
C1919 C1903 1.429 . S
C1919 C1915 1.429 . S
C1919 C1920 1.523 . S
C1920 C1904 1.368 . S
C1920 C1916 1.368 . S
C1920 C1919 1.523 . S
H1921 C1896 0.950 . S
H1922 C1898 0.950 . S
H1923 C1899 0.949 . S
H1924 C1901 0.950 1_565 S
H1925 C1903 0.950 1_565 S
C1926 C1927 1.349 . S
C1926 C1928 1.327 . S
C1926 H1951 0.950 . S
C1927 C1926 1.349 . S
C1927 C1943 1.349 . S
C1928 C1926 1.327 . S
C1928 C1947 1.429 . S
C1928 H1952 0.950 . S
C1929 C1946 1.574 . S
C1929 C1948 1.368 . S
C1929 H1953 0.949 . S
H1930 C1934 0.949 . S
C1931 C1932 1.349 . S
C1931 C1933 1.327 . S
C1931 H1954 0.950 . S
C1932 C1931 1.349 . S
C1932 C1944 1.349 . S
C1933 C1931 1.327 . S
C1933 C1949 1.429 . S
C1933 H1955 0.950 . S
C1934 H1930 0.949 . S
C1934 C1942 1.574 . S
C1934 C1950 1.368 . S
H1935 C1943 0.950 . S
H1936 C1941 0.950 . S
H1937 C1942 0.949 . S
H1938 C1944 0.950 . S
H1939 C1945 0.950 . S
H1940 C1946 0.949 . S
C1941 H1936 0.950 . S
C1941 C1943 1.327 . S
C1941 C1947 1.429 . S
C1942 C1934 1.574 . S
C1942 H1937 0.949 . S
C1942 C1948 1.368 . S
C1943 C1927 1.349 . S
C1943 H1935 0.950 . S
C1943 C1941 1.327 . S
C1944 C1932 1.349 . S
C1944 H1938 0.950 . S
C1944 C1945 1.327 . S
C1945 H1939 0.950 . S
C1945 C1944 1.327 . S
C1945 C1949 1.429 . S
C1946 C1929 1.574 . S
C1946 H1940 0.949 . S
C1946 C1950 1.368 . S
C1947 C1928 1.429 . S
C1947 C1941 1.429 . S
C1947 C1948 1.523 . S
C1948 C1929 1.368 . S
C1948 C1942 1.368 . S
C1948 C1947 1.523 . S
C1949 C1933 1.429 . S
C1949 C1945 1.429 . S
C1949 C1950 1.523 . S
C1950 C1934 1.368 . S
C1950 C1946 1.368 . S
C1950 C1949 1.523 . S
H1951 C1926 0.950 . S
H1952 C1928 0.950 . S
H1953 C1929 0.949 . S
H1954 C1931 0.950 . S
H1955 C1933 0.950 . S
C1956 C1957 1.349 . S
C1956 C1958 1.327 . S
C1956 H1981 0.950 . S
C1957 C1956 1.349 . S
C1957 C1973 1.349 1_545 S
C1958 C1956 1.327 . S
C1958 C1977 1.429 . S
C1958 H1982 0.950 . S
C1959 C1976 1.574 . S
C1959 C1978 1.368 . S
C1959 H1983 0.949 1_545 S
H1960 C1964 0.949 . S
C1961 C1962 1.349 . S
C1961 C1963 1.327 . S
C1961 H1984 0.950 . S
C1962 C1961 1.349 . S
C1962 C1974 1.349 . S
C1963 C1961 1.327 . S
C1963 C1979 1.429 . S
C1963 H1985 0.950 . S
C1964 H1960 0.949 . S
C1964 C1972 1.574 . S
C1964 C1980 1.368 . S
H1965 C1973 0.950 . S
H1966 C1971 0.950 . S
H1967 C1972 0.949 . S
H1968 C1974 0.950 . S
H1969 C1975 0.950 . S
H1970 C1976 0.961 . S
C1971 H1966 0.950 . S
C1971 C1973 1.327 . S
C1971 C1977 1.429 1_565 S
C1972 C1964 1.574 . S
C1972 H1967 0.949 . S
C1972 C1978 1.368 . S
C1973 C1957 1.349 1_565 S
C1973 H1965 0.950 . S
C1973 C1971 1.327 . S
C1974 C1962 1.349 . S
C1974 H1968 0.950 . S
C1974 C1975 1.327 . S
C1975 H1969 0.950 . S
C1975 C1974 1.327 . S
C1975 C1979 1.429 . S
C1976 C1959 1.574 . S
C1976 H1970 0.961 . S
C1976 C1980 1.368 . S
C1977 C1958 1.429 . S
C1977 C1971 1.429 1_545 S
C1977 C1978 1.523 . S
C1978 C1959 1.368 . S
C1978 C1972 1.368 . S
C1978 C1977 1.523 . S
C1979 C1963 1.429 . S
C1979 C1975 1.429 . S
C1979 C1980 1.523 . S
C1980 C1964 1.368 . S
C1980 C1976 1.368 . S
C1980 C1979 1.523 . S
H1981 C1956 0.950 . S
H1982 C1958 0.950 . S
H1983 C1959 0.949 1_565 S
H1984 C1961 0.950 . S
H1985 C1963 0.950 . S
C1986 C1987 1.349 . S
C1986 C1988 1.327 . S
C1986 H2011 0.950 . S
C1987 C1986 1.349 . S
C1987 C2003 1.349 . S
C1988 C1986 1.327 . S
C1988 C2007 1.429 . S
C1988 H2012 0.950 . S
C1989 C2006 1.574 . S
C1989 C2008 1.368 . S
C1989 H2013 0.949 . S
H1990 C1994 0.949 . S
C1991 C1992 1.349 . S
C1991 C1993 1.327 . S
C1991 H2014 0.950 . S
C1992 C1991 1.349 . S
C1992 C2004 1.349 . S
C1993 C1991 1.327 . S
C1993 C2009 1.429 . S
C1993 H2015 0.950 . S
C1994 H1990 0.949 . S
C1994 C2002 1.574 . S
C1994 C2010 1.368 . S
H1995 C2003 0.950 . S
H1996 C2001 0.950 . S
H1997 C2002 0.949 . S
H1998 C2004 0.950 . S
H1999 C2005 0.950 . S
H2000 C2006 0.949 . S
C2001 H1996 0.950 . S
C2001 C2003 1.327 . S
C2001 C2007 1.429 . S
C2002 C1994 1.574 . S
C2002 H1997 0.949 . S
C2002 C2008 1.368 . S
C2003 C1987 1.349 . S
C2003 H1995 0.950 . S
C2003 C2001 1.327 . S
C2004 C1992 1.349 . S
C2004 H1998 0.950 . S
C2004 C2005 1.327 . S
C2005 H1999 0.950 . S
C2005 C2004 1.327 . S
C2005 C2009 1.429 . S
C2006 C1989 1.574 . S
C2006 H2000 0.949 . S
C2006 C2010 1.368 . S
C2007 C1988 1.429 . S
C2007 C2001 1.429 . S
C2007 C2008 1.523 . S
C2008 C1989 1.368 . S
C2008 C2002 1.368 . S
C2008 C2007 1.523 . S
C2009 C1993 1.429 . S
C2009 C2005 1.429 . S
C2009 C2010 1.523 . S
C2010 C1994 1.368 . S
C2010 C2006 1.368 . S
C2010 C2009 1.523 . S
H2011 C1986 0.950 . S
H2012 C1988 0.950 . S
H2013 C1989 0.949 . S
H2014 C1991 0.950 . S
H2015 C1993 0.950 . S
C2016 C2017 1.349 . S
C2016 C2018 1.327 . S
C2016 H2041 0.950 . S
C2017 C2016 1.349 . S
C2017 C2033 1.349 . S
C2018 C2016 1.327 . S
C2018 C2037 1.429 . S
C2018 H2042 0.950 . S
C2019 C2036 1.574 . S
C2019 C2038 1.368 . S
C2019 H2043 0.949 1_554 S
H2020 C2024 0.949 . S
C2021 C2022 1.349 . S
C2021 C2023 1.321 1_545 S
C2021 H2044 0.950 . S
C2022 C2021 1.349 . S
C2022 C2034 1.349 1_545 S
C2023 C2021 1.321 1_565 S
C2023 C2039 1.439 . S
C2023 H2045 0.946 1_565 S
C2024 H2020 0.949 . S
C2024 C2032 1.574 . S
C2024 C2040 1.368 . S
H2025 C2033 0.950 1_556 S
H2026 C2031 0.950 1_556 S
H2027 C2032 0.949 . S
H2028 C2034 0.950 . S
H2029 C2035 0.950 . S
H2030 C2036 0.949 . S
C2031 H2026 0.950 1_554 S
C2031 C2033 1.327 . S
C2031 C2037 1.429 . S
C2032 C2024 1.574 . S
C2032 H2027 0.949 . S
C2032 C2038 1.368 . S
C2033 C2017 1.349 . S
C2033 H2025 0.950 1_554 S
C2033 C2031 1.327 . S
C2034 C2022 1.349 1_565 S
C2034 H2028 0.950 . S
C2034 C2035 1.327 . S
C2035 H2029 0.950 . S
C2035 C2034 1.327 . S
C2035 C2039 1.429 . S
C2036 C2019 1.574 . S
C2036 H2030 0.949 . S
C2036 C2040 1.368 . S
C2037 C2018 1.429 . S
C2037 C2031 1.429 . S
C2037 C2038 1.523 . S
C2038 C2019 1.368 . S
C2038 C2032 1.368 . S
C2038 C2037 1.523 . S
C2039 C2023 1.439 . S
C2039 C2035 1.429 . S
C2039 C2040 1.523 . S
C2040 C2024 1.368 . S
C2040 C2036 1.368 . S
C2040 C2039 1.523 . S
H2041 C2016 0.950 . S
H2042 C2018 0.950 . S
H2043 C2019 0.949 1_556 S
H2044 C2021 0.950 . S
H2045 C2023 0.946 1_545 S
C2046 C2047 1.349 . S
C2046 C2048 1.327 . S
C2046 H2071 0.950 . S
C2047 C2046 1.349 . S
C2047 C2063 1.349 1_554 S
C2048 C2046 1.327 . S
C2048 C2067 1.429 . S
C2048 H2072 0.950 . S
C2049 C2066 1.573 . S
C2049 C2068 1.367 . S
C2049 H2073 0.951 1_554 S
H2050 C2054 0.949 . S
C2051 C2052 1.349 . S
C2051 C2053 1.327 . S
C2051 H2074 0.950 . S
C2052 C2051 1.349 . S
C2052 C2064 1.349 . S
C2053 C2051 1.327 . S
C2053 C2069 1.429 . S
C2053 H2075 0.951 1_554 S
C2054 H2050 0.949 . S
C2054 C2062 1.574 . S
C2054 C2070 1.368 . S
H2055 C2063 0.950 . S
H2056 C2061 0.950 . S
H2057 C2062 0.949 . S
H2058 C2064 0.950 . S
H2059 C2065 0.950 . S
H2060 C2066 0.949 1_556 S
C2061 H2056 0.950 . S
C2061 C2063 1.327 . S
C2061 C2067 1.429 1_556 S
C2062 C2054 1.574 . S
C2062 H2057 0.949 . S
C2062 C2068 1.368 . S
C2063 C2047 1.349 1_556 S
C2063 H2055 0.950 . S
C2063 C2061 1.327 . S
C2064 C2052 1.349 . S
C2064 H2058 0.950 . S
C2064 C2065 1.327 . S
C2065 H2059 0.950 . S
C2065 C2064 1.327 . S
C2065 C2069 1.429 . S
C2066 C2049 1.573 . S
C2066 H2060 0.949 1_554 S
C2066 C2070 1.368 . S
C2067 C2048 1.429 . S
C2067 C2061 1.429 1_554 S
C2067 C2068 1.523 . S
C2068 C2049 1.367 . S
C2068 C2062 1.368 . S
C2068 C2067 1.523 . S
C2069 C2053 1.429 . S
C2069 C2065 1.429 . S
C2069 C2070 1.523 . S
C2070 C2054 1.368 . S
C2070 C2066 1.368 . S
C2070 C2069 1.523 . S
H2071 C2046 0.950 . S
H2072 C2048 0.950 . S
H2073 C2049 0.951 1_556 S
H2074 C2051 0.950 . S
H2075 C2053 0.951 1_556 S
C2076 C2077 1.349 . S
C2076 C2078 1.327 . S
C2076 H2101 0.950 . S
C2077 C2076 1.349 . S
C2077 C2093 1.349 . S
C2078 C2076 1.327 . S
C2078 C2097 1.429 . S
C2078 H2102 0.950 . S
C2079 C2096 1.574 . S
C2079 C2098 1.368 . S
C2079 H2103 0.949 . S
H2080 C2084 0.949 . S
C2081 C2082 1.349 . S
C2081 C2083 1.327 . S
C2081 H2104 0.950 . S
C2082 C2081 1.349 . S
C2082 C2094 1.349 . S
C2083 C2081 1.327 . S
C2083 C2099 1.429 . S
C2083 H2105 0.950 . S
C2084 H2080 0.949 . S
C2084 C2092 1.574 . S
C2084 C2100 1.368 . S
H2085 C2093 0.950 . S
H2086 C2091 0.950 . S
H2087 C2092 0.949 . S
H2088 C2094 0.950 . S
H2089 C2095 0.950 . S
H2090 C2096 0.949 . S
C2091 H2086 0.950 . S
C2091 C2093 1.327 . S
C2091 C2097 1.429 . S
C2092 C2084 1.574 . S
C2092 H2087 0.949 . S
C2092 C2098 1.368 . S
C2093 C2077 1.349 . S
C2093 H2085 0.950 . S
C2093 C2091 1.327 . S
C2094 C2082 1.349 . S
C2094 H2088 0.950 . S
C2094 C2095 1.327 . S
C2095 H2089 0.950 . S
C2095 C2094 1.327 . S
C2095 C2099 1.429 . S
C2096 C2079 1.574 . S
C2096 H2090 0.949 . S
C2096 C2100 1.368 . S
C2097 C2078 1.429 . S
C2097 C2091 1.429 . S
C2097 C2098 1.523 . S
C2098 C2079 1.368 . S
C2098 C2092 1.368 . S
C2098 C2097 1.523 . S
C2099 C2083 1.429 . S
C2099 C2095 1.429 . S
C2099 C2100 1.523 . S
C2100 C2084 1.368 . S
C2100 C2096 1.368 . S
C2100 C2099 1.523 . S
H2101 C2076 0.950 . S
H2102 C2078 0.950 . S
H2103 C2079 0.949 . S
H2104 C2081 0.950 . S
H2105 C2083 0.950 . S
C2106 C2107 1.349 . S
C2106 C2108 1.327 . S
C2106 H2131 0.950 . S
C2107 C2106 1.349 . S
C2107 C2123 1.349 . S
C2108 C2106 1.327 . S
C2108 C2127 1.429 . S
C2108 H2132 0.950 . S
C2109 C2126 1.574 . S
C2109 C2128 1.368 . S
C2109 H2133 0.949 . S
H2110 C2114 0.949 . S
C2111 C2112 1.349 . S
C2111 C2113 1.327 . S
C2111 H2134 0.950 . S
C2112 C2111 1.349 . S
C2112 C2124 1.349 . S
C2113 C2111 1.327 . S
C2113 C2129 1.429 . S
C2113 H2135 0.950 . S
C2114 H2110 0.949 . S
C2114 C2122 1.574 . S
C2114 C2130 1.368 . S
H2115 C2123 0.950 . S
H2116 C2121 0.950 . S
H2117 C2122 0.949 . S
H2118 C2124 0.950 . S
H2119 C2125 0.950 . S
H2120 C2126 0.949 . S
C2121 H2116 0.950 . S
C2121 C2123 1.327 . S
C2121 C2127 1.429 . S
C2122 C2114 1.574 . S
C2122 H2117 0.949 . S
C2122 C2128 1.368 . S
C2123 C2107 1.349 . S
C2123 H2115 0.950 . S
C2123 C2121 1.327 . S
C2124 C2112 1.349 . S
C2124 H2118 0.950 . S
C2124 C2125 1.327 . S
C2125 H2119 0.950 . S
C2125 C2124 1.327 . S
C2125 C2129 1.429 . S
C2126 C2109 1.574 . S
C2126 H2120 0.949 . S
C2126 C2130 1.368 . S
C2127 C2108 1.429 . S
C2127 C2121 1.429 . S
C2127 C2128 1.523 . S
C2128 C2109 1.368 . S
C2128 C2122 1.368 . S
C2128 C2127 1.523 . S
C2129 C2113 1.429 . S
C2129 C2125 1.429 . S
C2129 C2130 1.523 . S
C2130 C2114 1.368 . S
C2130 C2126 1.368 . S
C2130 C2129 1.523 . S
H2131 C2106 0.950 . S
H2132 C2108 0.950 . S
H2133 C2109 0.949 . S
H2134 C2111 0.950 . S
H2135 C2113 0.950 . S
C2136 C2137 1.349 . S
C2136 C2138 1.327 . S
C2136 H2161 0.950 . S
C2137 C2136 1.349 . S
C2137 C2153 1.349 . S
C2138 C2136 1.327 . S
C2138 C2157 1.429 . S
C2138 H2162 0.950 . S
C2139 C2156 1.574 . S
C2139 C2158 1.368 . S
C2139 H2163 0.949 . S
H2140 C2144 0.949 . S
C2141 C2142 1.349 . S
C2141 C2143 1.327 . S
C2141 H2164 0.950 . S
C2142 C2141 1.349 . S
C2142 C2154 1.349 . S
C2143 C2141 1.327 . S
C2143 C2159 1.429 . S
C2143 H2165 0.950 . S
C2144 H2140 0.949 . S
C2144 C2152 1.574 . S
C2144 C2160 1.368 . S
H2145 C2153 0.922 1_545 S
H2146 C2151 0.950 . S
H2147 C2152 0.949 . S
H2148 C2154 0.950 . S
H2149 C2155 0.950 . S
H2150 C2156 0.949 . S
C2151 H2146 0.950 . S
C2151 C2153 1.327 . S
C2151 C2157 1.429 . S
C2152 C2144 1.574 . S
C2152 H2147 0.949 . S
C2152 C2158 1.368 . S
C2153 C2137 1.349 . S
C2153 H2145 0.922 1_565 S
C2153 C2151 1.327 . S
C2154 C2142 1.349 . S
C2154 H2148 0.950 . S
C2154 C2155 1.327 . S
C2155 H2149 0.950 . S
C2155 C2154 1.327 . S
C2155 C2159 1.429 . S
C2156 C2139 1.574 . S
C2156 H2150 0.949 . S
C2156 C2160 1.368 . S
C2157 C2138 1.429 . S
C2157 C2151 1.429 . S
C2157 C2158 1.523 . S
C2158 C2139 1.368 . S
C2158 C2152 1.368 . S
C2158 C2157 1.523 . S
C2159 C2143 1.429 . S
C2159 C2155 1.429 . S
C2159 C2160 1.523 . S
C2160 C2144 1.368 . S
C2160 C2156 1.368 . S
C2160 C2159 1.523 . S
H2161 C2136 0.950 . S
H2162 C2138 0.950 . S
H2163 C2139 0.949 . S
H2164 C2141 0.950 . S
H2165 C2143 0.950 . S
C2166 C2167 1.349 . S
C2166 C2168 1.327 . S
C2166 H2191 0.950 . S
C2167 C2166 1.349 . S
C2167 C2183 1.349 . S
C2168 C2166 1.327 . S
C2168 C2187 1.429 . S
C2168 H2192 0.950 . S
C2169 C2186 1.574 . S
C2169 C2188 1.368 . S
C2169 H2193 0.949 . S
H2170 C2174 0.949 . S
C2171 C2172 1.349 . S
C2171 C2173 1.327 . S
C2171 H2194 0.950 . S
C2172 C2171 1.349 . S
C2172 C2184 1.349 . S
C2173 C2171 1.327 . S
C2173 C2189 1.429 . S
C2173 H2195 0.950 . S
C2174 H2170 0.949 . S
C2174 C2182 1.574 . S
C2174 C2190 1.368 . S
H2175 C2183 0.950 . S
H2176 C2181 0.950 . S
H2177 C2182 0.949 . S
H2178 C2184 0.950 . S
H2179 C2185 0.950 . S
H2180 C2186 0.949 . S
C2181 H2176 0.950 . S
C2181 C2183 1.327 . S
C2181 C2187 1.429 . S
C2182 C2174 1.574 . S
C2182 H2177 0.949 . S
C2182 C2188 1.368 . S
C2183 C2167 1.349 . S
C2183 H2175 0.950 . S
C2183 C2181 1.327 . S
C2184 C2172 1.349 . S
C2184 H2178 0.950 . S
C2184 C2185 1.327 . S
C2185 H2179 0.950 . S
C2185 C2184 1.327 . S
C2185 C2189 1.429 . S
C2186 C2169 1.574 . S
C2186 H2180 0.949 . S
C2186 C2190 1.368 . S
C2187 C2168 1.429 . S
C2187 C2181 1.429 . S
C2187 C2188 1.523 . S
C2188 C2169 1.368 . S
C2188 C2182 1.368 . S
C2188 C2187 1.523 . S
C2189 C2173 1.429 . S
C2189 C2185 1.429 . S
C2189 C2190 1.523 . S
C2190 C2174 1.368 . S
C2190 C2186 1.368 . S
C2190 C2189 1.523 . S
H2191 C2166 0.950 . S
H2192 C2168 0.950 . S
H2193 C2169 0.949 . S
H2194 C2171 0.950 . S
H2195 C2173 0.950 . S
C2196 C2197 1.349 . S
C2196 C2198 1.327 . S
C2196 H2221 0.950 . S
C2197 C2196 1.349 . S
C2197 C2213 1.349 . S
C2198 C2196 1.327 . S
C2198 C2217 1.429 . S
C2198 H2222 0.950 . S
C2199 C2216 1.574 . S
C2199 C2218 1.368 . S
C2199 H2223 0.949 . S
H2200 C2204 0.949 . S
C2201 C2202 1.349 . S
C2201 C2203 1.327 . S
C2201 H2224 0.950 . S
C2202 C2201 1.349 . S
C2202 C2214 1.349 . S
C2203 C2201 1.327 . S
C2203 C2219 1.429 . S
C2203 H2225 0.950 . S
C2204 H2200 0.949 . S
C2204 C2212 1.574 . S
C2204 C2220 1.368 . S
H2205 C2213 0.950 . S
H2206 C2211 0.950 . S
H2207 C2212 0.949 . S
H2208 C2214 0.950 . S
H2209 C2215 0.950 . S
H2210 C2216 0.949 . S
C2211 H2206 0.950 . S
C2211 C2213 1.327 . S
C2211 C2217 1.429 . S
C2212 C2204 1.574 . S
C2212 H2207 0.949 . S
C2212 C2218 1.368 . S
C2213 C2197 1.349 . S
C2213 H2205 0.950 . S
C2213 C2211 1.327 . S
C2214 C2202 1.349 . S
C2214 H2208 0.950 . S
C2214 C2215 1.327 . S
C2215 H2209 0.950 . S
C2215 C2214 1.327 . S
C2215 C2219 1.429 . S
C2216 C2199 1.574 . S
C2216 H2210 0.949 . S
C2216 C2220 1.368 . S
C2217 C2198 1.429 . S
C2217 C2211 1.429 . S
C2217 C2218 1.523 . S
C2218 C2199 1.368 . S
C2218 C2212 1.368 . S
C2218 C2217 1.523 . S
C2219 C2203 1.429 . S
C2219 C2215 1.429 . S
C2219 C2220 1.523 . S
C2220 C2204 1.368 . S
C2220 C2216 1.368 . S
C2220 C2219 1.523 . S
H2221 C2196 0.950 . S
H2222 C2198 0.950 . S
H2223 C2199 0.949 . S
H2224 C2201 0.950 . S
H2225 C2203 0.950 . S
C2226 C2227 1.349 . S
C2226 C2228 1.327 . S
C2226 H2251 0.950 . S
C2227 C2226 1.349 . S
C2227 C2243 1.349 . S
C2228 C2226 1.327 . S
C2228 C2247 1.429 . S
C2228 H2252 0.950 . S
C2229 C2246 1.574 . S
C2229 C2248 1.368 . S
C2229 H2253 0.949 . S
H2230 C2234 0.949 . S
C2231 C2232 1.349 . S
C2231 C2233 1.327 . S
C2231 H2254 0.950 . S
C2232 C2231 1.349 . S
C2232 C2244 1.349 . S
C2233 C2231 1.327 . S
C2233 C2249 1.429 . S
C2233 H2255 0.950 . S
C2234 H2230 0.949 . S
C2234 C2242 1.574 . S
C2234 C2250 1.368 . S
H2235 C2243 0.950 . S
H2236 C2241 0.950 . S
H2237 C2242 0.949 . S
H2238 C2244 0.950 . S
H2239 C2245 0.950 . S
H2240 C2246 0.949 . S
C2241 H2236 0.950 . S
C2241 C2243 1.327 . S
C2241 C2247 1.429 . S
C2242 C2234 1.574 . S
C2242 H2237 0.949 . S
C2242 C2248 1.368 . S
C2243 C2227 1.349 . S
C2243 H2235 0.950 . S
C2243 C2241 1.327 . S
C2244 C2232 1.349 . S
C2244 H2238 0.950 . S
C2244 C2245 1.327 . S
C2245 H2239 0.950 . S
C2245 C2244 1.327 . S
C2245 C2249 1.429 . S
C2246 C2229 1.574 . S
C2246 H2240 0.949 . S
C2246 C2250 1.368 . S
C2247 C2228 1.429 . S
C2247 C2241 1.429 . S
C2247 C2248 1.523 . S
C2248 C2229 1.368 . S
C2248 C2242 1.368 . S
C2248 C2247 1.523 . S
C2249 C2233 1.429 . S
C2249 C2245 1.429 . S
C2249 C2250 1.523 . S
C2250 C2234 1.368 . S
C2250 C2246 1.368 . S
C2250 C2249 1.523 . S
H2251 C2226 0.950 . S
H2252 C2228 0.950 . S
H2253 C2229 0.949 . S
H2254 C2231 0.950 . S
H2255 C2233 0.950 . S
C2256 C2257 1.349 . S
C2256 C2258 1.327 . S
C2256 H2281 0.950 . S
C2257 C2256 1.349 . S
C2257 C2273 1.349 . S
C2258 C2256 1.327 . S
C2258 C2277 1.429 . S
C2258 H2282 0.950 . S
C2259 C2276 1.574 . S
C2259 C2278 1.368 . S
C2259 H2283 0.949 . S
H2260 C2264 0.949 . S
C2261 C2262 1.349 . S
C2261 C2263 1.327 . S
C2261 H2284 0.950 . S
C2262 C2261 1.349 . S
C2262 C2274 1.349 . S
C2263 C2261 1.327 . S
C2263 C2279 1.429 . S
C2263 H2285 0.950 . S
C2264 H2260 0.949 . S
C2264 C2272 1.574 . S
C2264 C2280 1.368 . S
H2265 C2273 0.950 . S
H2266 C2271 0.950 . S
H2267 C2272 0.949 . S
H2268 C2274 0.950 . S
H2269 C2275 0.950 . S
H2270 C2276 0.949 . S
C2271 H2266 0.950 . S
C2271 C2273 1.327 . S
C2271 C2277 1.429 . S
C2272 C2264 1.574 . S
C2272 H2267 0.949 . S
C2272 C2278 1.368 . S
C2273 C2257 1.349 . S
C2273 H2265 0.950 . S
C2273 C2271 1.327 . S
C2274 C2262 1.349 . S
C2274 H2268 0.950 . S
C2274 C2275 1.327 . S
C2275 H2269 0.950 . S
C2275 C2274 1.327 . S
C2275 C2279 1.429 . S
C2276 C2259 1.574 . S
C2276 H2270 0.949 . S
C2276 C2280 1.368 . S
C2277 C2258 1.429 . S
C2277 C2271 1.429 . S
C2277 C2278 1.523 . S
C2278 C2259 1.368 . S
C2278 C2272 1.368 . S
C2278 C2277 1.523 . S
C2279 C2263 1.429 . S
C2279 C2275 1.429 . S
C2279 C2280 1.523 . S
C2280 C2264 1.368 . S
C2280 C2276 1.368 . S
C2280 C2279 1.523 . S
H2281 C2256 0.950 . S
H2282 C2258 0.950 . S
H2283 C2259 0.949 . S
H2284 C2261 0.950 . S
H2285 C2263 0.950 . S
C2286 C2287 1.349 . S
C2286 C2288 1.327 . S
C2286 H2311 0.950 . S
C2287 C2286 1.349 . S
C2287 C2303 1.349 . S
C2288 C2286 1.327 . S
C2288 C2307 1.429 . S
C2288 H2312 0.950 . S
C2289 C2306 1.574 . S
C2289 C2308 1.368 . S
C2289 H2313 0.949 . S
H2290 C2294 0.949 . S
C2291 C2292 1.349 . S
C2291 C2293 1.327 . S
C2291 H2314 0.950 . S
C2292 C2291 1.349 . S
C2292 C2304 1.349 . S
C2293 C2291 1.327 . S
C2293 C2309 1.429 . S
C2293 H2315 0.950 . S
C2294 H2290 0.949 . S
C2294 C2302 1.574 . S
C2294 C2310 1.368 . S
H2295 C2303 0.950 . S
H2296 C2301 0.950 . S
H2297 C2302 0.949 . S
H2298 C2304 0.950 . S
H2299 C2305 0.950 . S
H2300 C2306 0.949 . S
C2301 H2296 0.950 . S
C2301 C2303 1.327 . S
C2301 C2307 1.429 . S
C2302 C2294 1.574 . S
C2302 H2297 0.949 . S
C2302 C2308 1.368 . S
C2303 C2287 1.349 . S
C2303 H2295 0.950 . S
C2303 C2301 1.327 . S
C2304 C2292 1.349 . S
C2304 H2298 0.950 . S
C2304 C2305 1.327 . S
C2305 H2299 0.950 . S
C2305 C2304 1.327 . S
C2305 C2309 1.429 . S
C2306 C2289 1.574 . S
C2306 H2300 0.949 . S
C2306 C2310 1.368 . S
C2307 C2288 1.429 . S
C2307 C2301 1.429 . S
C2307 C2308 1.523 . S
C2308 C2289 1.368 . S
C2308 C2302 1.368 . S
C2308 C2307 1.523 . S
C2309 C2293 1.429 . S
C2309 C2305 1.429 . S
C2309 C2310 1.523 . S
C2310 C2294 1.368 . S
C2310 C2306 1.368 . S
C2310 C2309 1.523 . S
H2311 C2286 0.950 . S
H2312 C2288 0.950 . S
H2313 C2289 0.949 . S
H2314 C2291 0.950 . S
H2315 C2293 0.950 . S
C2316 C2317 1.349 . S
C2316 C2318 1.327 . S
C2316 H2341 0.945 . S
C2317 C2316 1.349 . S
C2317 C2333 1.349 . S
C2318 C2316 1.327 . S
C2318 C2337 1.429 . S
C2318 H2342 0.985 . S
C2319 C2336 1.574 . S
C2319 C2338 1.368 . S
C2319 H2343 0.949 . S
H2320 C2324 0.949 . S
C2321 C2322 1.349 . S
C2321 C2323 1.327 . S
C2321 H2344 0.950 . S
C2322 C2321 1.349 . S
C2322 C2334 1.349 . S
C2323 C2321 1.327 . S
C2323 C2339 1.429 . S
C2323 H2345 0.950 . S
C2324 H2320 0.949 . S
C2324 C2332 1.574 . S
C2324 C2340 1.368 . S
H2325 C2333 0.950 . S
H2326 C2331 0.950 . S
H2327 C2332 0.949 . S
H2328 C2334 0.950 . S
H2329 C2335 0.950 . S
H2330 C2336 0.949 . S
C2331 H2326 0.950 . S
C2331 C2333 1.327 . S
C2331 C2337 1.429 . S
C2332 C2324 1.574 . S
C2332 H2327 0.949 . S
C2332 C2338 1.368 . S
C2333 C2317 1.349 . S
C2333 H2325 0.950 . S
C2333 C2331 1.327 . S
C2334 C2322 1.349 . S
C2334 H2328 0.950 . S
C2334 C2335 1.327 . S
C2335 H2329 0.950 . S
C2335 C2334 1.327 . S
C2335 C2339 1.429 . S
C2336 C2319 1.574 . S
C2336 H2330 0.949 . S
C2336 C2340 1.368 . S
C2337 C2318 1.429 . S
C2337 C2331 1.429 . S
C2337 C2338 1.523 . S
C2338 C2319 1.368 . S
C2338 C2332 1.368 . S
C2338 C2337 1.523 . S
C2339 C2323 1.429 . S
C2339 C2335 1.429 . S
C2339 C2340 1.523 . S
C2340 C2324 1.368 . S
C2340 C2336 1.368 . S
C2340 C2339 1.523 . S
H2341 C2316 0.945 . S
H2342 C2318 0.985 . S
H2343 C2319 0.949 . S
H2344 C2321 0.950 . S
H2345 C2323 0.950 . S
C2346 C2347 1.349 . S
C2346 C2348 1.327 . S
C2346 H2371 0.950 . S
C2347 C2346 1.349 . S
C2347 C2363 1.349 . S
C2348 C2346 1.327 . S
C2348 C2367 1.429 . S
C2348 H2372 0.950 . S
C2349 C2366 1.574 . S
C2349 C2368 1.368 . S
C2349 H2373 0.949 . S
H2350 C2354 0.949 . S
C2351 C2352 1.349 . S
C2351 C2353 1.327 . S
C2351 H2374 0.950 . S
C2352 C2351 1.349 . S
C2352 C2364 1.349 . S
C2353 C2351 1.327 . S
C2353 C2369 1.429 . S
C2353 H2375 0.950 . S
C2354 H2350 0.949 . S
C2354 C2362 1.574 . S
C2354 C2370 1.368 . S
H2355 C2363 0.950 . S
H2356 C2361 0.950 . S
H2357 C2362 0.949 . S
H2358 C2364 0.950 . S
H2359 C2365 0.950 . S
H2360 C2366 0.949 . S
C2361 H2356 0.950 . S
C2361 C2363 1.327 . S
C2361 C2367 1.429 . S
C2362 C2354 1.574 . S
C2362 H2357 0.949 . S
C2362 C2368 1.368 . S
C2363 C2347 1.349 . S
C2363 H2355 0.950 . S
C2363 C2361 1.327 . S
C2364 C2352 1.349 . S
C2364 H2358 0.950 . S
C2364 C2365 1.327 . S
C2365 H2359 0.950 . S
C2365 C2364 1.327 . S
C2365 C2369 1.429 . S
C2366 C2349 1.574 . S
C2366 H2360 0.949 . S
C2366 C2370 1.368 . S
C2367 C2348 1.429 . S
C2367 C2361 1.429 . S
C2367 C2368 1.523 . S
C2368 C2349 1.368 . S
C2368 C2362 1.368 . S
C2368 C2367 1.523 . S
C2369 C2353 1.429 . S
C2369 C2365 1.429 . S
C2369 C2370 1.523 . S
C2370 C2354 1.368 . S
C2370 C2366 1.368 . S
C2370 C2369 1.523 . S
H2371 C2346 0.950 . S
H2372 C2348 0.950 . S
H2373 C2349 0.949 . S
H2374 C2351 0.950 . S
H2375 C2353 0.950 . S
C2376 C2377 1.349 . S
C2376 C2378 1.327 . S
C2376 H2401 0.950 . S
C2377 C2376 1.349 . S
C2377 C2393 1.349 . S
C2378 C2376 1.327 . S
C2378 C2397 1.429 . S
C2378 H2402 0.950 . S
C2379 C2396 1.574 . S
C2379 C2398 1.368 . S
C2379 H2403 0.949 . S
H2380 C2384 0.949 . S
C2381 C2382 1.349 . S
C2381 C2383 1.327 . S
C2381 H2404 0.950 . S
C2382 C2381 1.349 . S
C2382 C2394 1.349 . S
C2383 C2381 1.327 . S
C2383 C2399 1.429 . S
C2383 H2405 0.950 . S
C2384 H2380 0.949 . S
C2384 C2392 1.574 . S
C2384 C2400 1.368 . S
H2385 C2393 0.950 . S
H2386 C2391 0.950 . S
H2387 C2392 0.949 . S
H2388 C2394 0.926 1_554 S
H2389 C2395 0.950 . S
H2390 C2396 0.949 . S
C2391 H2386 0.950 . S
C2391 C2393 1.327 . S
C2391 C2397 1.429 . S
C2392 C2384 1.574 . S
C2392 H2387 0.949 . S
C2392 C2398 1.368 . S
C2393 C2377 1.349 . S
C2393 H2385 0.950 . S
C2393 C2391 1.327 . S
C2394 C2382 1.349 . S
C2394 H2388 0.926 1_556 S
C2394 C2395 1.327 . S
C2395 H2389 0.950 . S
C2395 C2394 1.327 . S
C2395 C2399 1.429 . S
C2396 C2379 1.574 . S
C2396 H2390 0.949 . S
C2396 C2400 1.368 . S
C2397 C2378 1.429 . S
C2397 C2391 1.429 . S
C2397 C2398 1.523 . S
C2398 C2379 1.368 . S
C2398 C2392 1.368 . S
C2398 C2397 1.523 . S
C2399 C2383 1.429 . S
C2399 C2395 1.429 . S
C2399 C2400 1.523 . S
C2400 C2384 1.368 . S
C2400 C2396 1.368 . S
C2400 C2399 1.523 . S
H2401 C2376 0.950 . S
H2402 C2378 0.950 . S
H2403 C2379 0.949 . S
H2404 C2381 0.950 . S
H2405 C2383 0.950 . S
C2406 C2407 1.349 . S
C2406 C2408 1.327 . S
C2406 H2431 0.950 . S
C2407 C2406 1.349 . S
C2407 C2423 1.349 . S
C2408 C2406 1.327 . S
C2408 C2427 1.429 . S
C2408 H2432 0.950 . S
C2409 C2426 1.574 . S
C2409 C2428 1.368 . S
C2409 H2433 0.949 . S
H2410 C2414 0.949 . S
C2411 C2412 1.349 . S
C2411 C2413 1.327 . S
C2411 H2434 0.950 . S
C2412 C2411 1.349 . S
C2412 C2424 1.349 . S
C2413 C2411 1.327 . S
C2413 C2429 1.429 . S
C2413 H2435 0.950 . S
C2414 H2410 0.949 . S
C2414 C2422 1.574 . S
C2414 C2430 1.368 . S
H2415 C2423 0.950 . S
H2416 C2421 0.950 . S
H2417 C2422 0.949 . S
H2418 C2424 0.950 . S
H2419 C2425 0.950 . S
H2420 C2426 0.949 . S
C2421 H2416 0.950 . S
C2421 C2423 1.327 . S
C2421 C2427 1.429 . S
C2422 C2414 1.574 . S
C2422 H2417 0.949 . S
C2422 C2428 1.368 . S
C2423 C2407 1.349 . S
C2423 H2415 0.950 . S
C2423 C2421 1.327 . S
C2424 C2412 1.349 . S
C2424 H2418 0.950 . S
C2424 C2425 1.327 . S
C2425 H2419 0.950 . S
C2425 C2424 1.327 . S
C2425 C2429 1.429 . S
C2426 C2409 1.574 . S
C2426 H2420 0.949 . S
C2426 C2430 1.368 . S
C2427 C2408 1.429 . S
C2427 C2421 1.429 . S
C2427 C2428 1.523 . S
C2428 C2409 1.368 . S
C2428 C2422 1.368 . S
C2428 C2427 1.523 . S
C2429 C2413 1.429 . S
C2429 C2425 1.429 . S
C2429 C2430 1.523 . S
C2430 C2414 1.368 . S
C2430 C2426 1.368 . S
C2430 C2429 1.523 . S
H2431 C2406 0.950 . S
H2432 C2408 0.950 . S
H2433 C2409 0.949 . S
H2434 C2411 0.950 . S
H2435 C2413 0.950 . S
C2436 C2437 1.349 . S
C2436 C2438 1.327 . S
C2436 H2461 0.950 . S
C2437 C2436 1.349 . S
C2437 C2453 1.349 . S
C2438 C2436 1.327 . S
C2438 C2457 1.429 . S
C2438 H2462 0.950 . S
C2439 C2456 1.574 . S
C2439 C2458 1.368 . S
C2439 H2463 0.949 . S
H2440 C2444 0.949 . S
C2441 C2442 1.349 . S
C2441 C2443 1.327 . S
C2441 H2464 0.950 . S
C2442 C2441 1.349 . S
C2442 C2454 1.349 . S
C2443 C2441 1.327 . S
C2443 C2459 1.429 . S
C2443 H2465 0.950 . S
C2444 H2440 0.949 . S
C2444 C2452 1.574 . S
C2444 C2460 1.368 . S
H2445 C2453 0.950 . S
H2446 C2451 0.950 . S
H2447 C2452 0.949 . S
H2448 C2454 0.950 . S
H2449 C2455 0.950 . S
H2450 C2456 0.949 . S
C2451 H2446 0.950 . S
C2451 C2453 1.327 . S
C2451 C2457 1.429 . S
C2452 C2444 1.574 . S
C2452 H2447 0.949 . S
C2452 C2458 1.368 . S
C2453 C2437 1.349 . S
C2453 H2445 0.950 . S
C2453 C2451 1.327 . S
C2454 C2442 1.349 . S
C2454 H2448 0.950 . S
C2454 C2455 1.327 . S
C2455 H2449 0.950 . S
C2455 C2454 1.327 . S
C2455 C2459 1.429 . S
C2456 C2439 1.574 . S
C2456 H2450 0.949 . S
C2456 C2460 1.368 . S
C2457 C2438 1.429 . S
C2457 C2451 1.429 . S
C2457 C2458 1.523 . S
C2458 C2439 1.368 . S
C2458 C2452 1.368 . S
C2458 C2457 1.523 . S
C2459 C2443 1.429 . S
C2459 C2455 1.429 . S
C2459 C2460 1.523 . S
C2460 C2444 1.368 . S
C2460 C2456 1.368 . S
C2460 C2459 1.523 . S
H2461 C2436 0.950 . S
H2462 C2438 0.950 . S
H2463 C2439 0.949 . S
H2464 C2441 0.950 . S
H2465 C2443 0.950 . S
C2466 C2467 1.349 . S
C2466 C2468 1.327 . S
C2466 H2491 0.950 . S
C2467 C2466 1.349 . S
C2467 C2483 1.349 . S
C2468 C2466 1.327 . S
C2468 C2487 1.429 . S
C2468 H2492 0.950 . S
C2469 C2486 1.574 . S
C2469 C2488 1.368 . S
C2469 H2493 0.949 . S
H2470 C2474 0.949 . S
C2471 C2472 1.349 . S
C2471 C2473 1.327 . S
C2471 H2494 0.950 . S
C2472 C2471 1.349 . S
C2472 C2484 1.349 . S
C2473 C2471 1.327 . S
C2473 C2489 1.429 . S
C2473 H2495 0.950 . S
C2474 H2470 0.949 . S
C2474 C2482 1.574 . S
C2474 C2490 1.368 . S
H2475 C2483 0.950 . S
H2476 C2481 0.950 . S
H2477 C2482 0.949 . S
H2478 C2484 0.950 . S
H2479 C2485 0.950 . S
H2480 C2486 0.949 . S
C2481 H2476 0.950 . S
C2481 C2483 1.327 . S
C2481 C2487 1.429 . S
C2482 C2474 1.574 . S
C2482 H2477 0.949 . S
C2482 C2488 1.368 . S
C2483 C2467 1.349 . S
C2483 H2475 0.950 . S
C2483 C2481 1.327 . S
C2484 C2472 1.349 . S
C2484 H2478 0.950 . S
C2484 C2485 1.327 . S
C2485 H2479 0.950 . S
C2485 C2484 1.327 . S
C2485 C2489 1.429 . S
C2486 C2469 1.574 . S
C2486 H2480 0.949 . S
C2486 C2490 1.368 . S
C2487 C2468 1.429 . S
C2487 C2481 1.429 . S
C2487 C2488 1.523 . S
C2488 C2469 1.368 . S
C2488 C2482 1.368 . S
C2488 C2487 1.523 . S
C2489 C2473 1.429 . S
C2489 C2485 1.429 . S
C2489 C2490 1.523 . S
C2490 C2474 1.368 . S
C2490 C2486 1.368 . S
C2490 C2489 1.523 . S
H2491 C2466 0.950 . S
H2492 C2468 0.950 . S
H2493 C2469 0.949 . S
H2494 C2471 0.950 . S
H2495 C2473 0.950 . S
C2496 C2497 1.349 . S
C2496 C2498 1.327 . S
C2496 H2521 0.950 . S
C2497 C2496 1.349 . S
C2497 C2513 1.349 . S
C2498 C2496 1.327 . S
C2498 C2517 1.429 . S
C2498 H2522 0.950 . S
C2499 C2516 1.574 . S
C2499 C2518 1.368 . S
C2499 H2523 0.949 . S
H2500 C2504 0.949 . S
C2501 C2502 1.349 . S
C2501 C2503 1.327 . S
C2501 H2524 0.950 . S
C2502 C2501 1.349 . S
C2502 C2514 1.349 . S
C2503 C2501 1.327 . S
C2503 C2519 1.429 . S
C2503 H2525 0.950 . S
C2504 H2500 0.949 . S
C2504 C2512 1.574 . S
C2504 C2520 1.368 . S
H2505 C2513 0.950 . S
H2506 C2511 0.950 . S
H2507 C2512 0.949 . S
H2508 C2514 0.950 . S
H2509 C2515 0.950 . S
H2510 C2516 0.949 . S
C2511 H2506 0.950 . S
C2511 C2513 1.327 . S
C2511 C2517 1.429 . S
C2512 C2504 1.574 . S
C2512 H2507 0.949 . S
C2512 C2518 1.368 . S
C2513 C2497 1.349 . S
C2513 H2505 0.950 . S
C2513 C2511 1.327 . S
C2514 C2502 1.349 . S
C2514 H2508 0.950 . S
C2514 C2515 1.327 . S
C2515 H2509 0.950 . S
C2515 C2514 1.327 . S
C2515 C2519 1.429 . S
C2516 C2499 1.574 . S
C2516 H2510 0.949 . S
C2516 C2520 1.368 . S
C2517 C2498 1.429 . S
C2517 C2511 1.429 . S
C2517 C2518 1.523 . S
C2518 C2499 1.368 . S
C2518 C2512 1.368 . S
C2518 C2517 1.523 . S
C2519 C2503 1.429 . S
C2519 C2515 1.429 . S
C2519 C2520 1.523 . S
C2520 C2504 1.368 . S
C2520 C2516 1.368 . S
C2520 C2519 1.523 . S
H2521 C2496 0.950 . S
H2522 C2498 0.950 . S
H2523 C2499 0.949 . S
H2524 C2501 0.950 . S
H2525 C2503 0.950 . S
C2526 C2527 1.349 . S
C2526 C2528 1.327 . S
C2526 H2551 0.950 . S
C2527 C2526 1.349 . S
C2527 C2543 1.349 . S
C2528 C2526 1.327 . S
C2528 C2547 1.429 . S
C2528 H2552 0.950 . S
C2529 C2546 1.574 . S
C2529 C2548 1.368 . S
C2529 H2553 0.949 . S
H2530 C2534 0.949 . S
C2531 C2532 1.349 . S
C2531 C2533 1.327 . S
C2531 H2554 0.950 . S
C2532 C2531 1.349 . S
C2532 C2544 1.349 . S
C2533 C2531 1.327 . S
C2533 C2549 1.429 . S
C2533 H2555 0.950 . S
C2534 H2530 0.949 . S
C2534 C2542 1.574 . S
C2534 C2550 1.368 . S
H2535 C2543 0.950 . S
H2536 C2541 0.950 . S
H2537 C2542 0.949 . S
H2538 C2544 0.950 . S
H2539 C2545 0.950 . S
H2540 C2546 0.949 . S
C2541 H2536 0.950 . S
C2541 C2543 1.327 . S
C2541 C2547 1.429 . S
C2542 C2534 1.574 . S
C2542 H2537 0.949 . S
C2542 C2548 1.368 . S
C2543 C2527 1.349 . S
C2543 H2535 0.950 . S
C2543 C2541 1.327 . S
C2544 C2532 1.349 . S
C2544 H2538 0.950 . S
C2544 C2545 1.327 . S
C2545 H2539 0.950 . S
C2545 C2544 1.327 . S
C2545 C2549 1.429 . S
C2546 C2529 1.574 . S
C2546 H2540 0.949 . S
C2546 C2550 1.368 . S
C2547 C2528 1.429 . S
C2547 C2541 1.429 . S
C2547 C2548 1.523 . S
C2548 C2529 1.368 . S
C2548 C2542 1.368 . S
C2548 C2547 1.523 . S
C2549 C2533 1.429 . S
C2549 C2545 1.429 . S
C2549 C2550 1.523 . S
C2550 C2534 1.368 . S
C2550 C2546 1.368 . S
C2550 C2549 1.523 . S
H2551 C2526 0.950 . S
H2552 C2528 0.950 . S
H2553 C2529 0.949 . S
H2554 C2531 0.950 . S
H2555 C2533 0.950 . S
C2556 C2557 1.349 . S
C2556 C2558 1.327 . S
C2556 H2581 0.950 . S
C2557 C2556 1.349 . S
C2557 C2573 1.349 . S
C2558 C2556 1.327 . S
C2558 C2577 1.429 . S
C2558 H2582 0.950 . S
C2559 C2576 1.574 . S
C2559 C2578 1.368 . S
C2559 H2583 0.949 . S
H2560 C2564 0.949 . S
C2561 C2562 1.345 . S
C2561 C2563 1.327 . S
C2561 H2584 0.950 . S
C2562 C2561 1.345 . S
C2562 C2574 1.346 1_655 S
C2563 C2561 1.327 . S
C2563 C2579 1.429 . S
C2563 H2585 0.950 . S
C2564 H2560 0.949 . S
C2564 C2572 1.574 . S
C2564 C2580 1.368 . S
H2565 C2573 0.950 . S
H2566 C2571 0.950 . S
H2567 C2572 0.949 . S
H2568 C2574 0.983 . S
H2569 C2575 0.950 . S
H2570 C2576 0.949 . S
C2571 H2566 0.950 . S
C2571 C2573 1.327 . S
C2571 C2577 1.429 . S
C2572 C2564 1.574 . S
C2572 H2567 0.949 . S
C2572 C2578 1.368 . S
C2573 C2557 1.349 . S
C2573 H2565 0.950 . S
C2573 C2571 1.327 . S
C2574 C2562 1.346 1_455 S
C2574 H2568 0.983 . S
C2574 C2575 1.300 1_455 S
C2575 H2569 0.950 . S
C2575 C2574 1.300 1_655 S
C2575 C2579 1.429 . S
C2576 C2559 1.574 . S
C2576 H2570 0.949 . S
C2576 C2580 1.368 . S
C2577 C2558 1.429 . S
C2577 C2571 1.429 . S
C2577 C2578 1.523 . S
C2578 C2559 1.368 . S
C2578 C2572 1.368 . S
C2578 C2577 1.523 . S
C2579 C2563 1.429 . S
C2579 C2575 1.429 . S
C2579 C2580 1.523 . S
C2580 C2564 1.368 . S
C2580 C2576 1.368 . S
C2580 C2579 1.523 . S
H2581 C2556 0.950 . S
H2582 C2558 0.950 . S
H2583 C2559 0.949 . S
H2584 C2561 0.950 . S
H2585 C2563 0.950 . S
C2586 C2587 1.349 . S
C2586 C2588 1.327 . S
C2586 H2611 0.950 . S
C2587 C2586 1.349 . S
C2587 C2603 1.349 . S
C2588 C2586 1.327 . S
C2588 C2607 1.429 . S
C2588 H2612 0.950 . S
C2589 C2606 1.574 . S
C2589 C2608 1.368 . S
C2589 H2613 0.949 . S
H2590 C2594 0.949 . S
C2591 C2592 1.349 . S
C2591 C2593 1.327 . S
C2591 H2614 0.950 . S
C2592 C2591 1.349 . S
C2592 C2604 1.349 . S
C2593 C2591 1.327 . S
C2593 C2609 1.429 . S
C2593 H2615 0.950 . S
C2594 H2590 0.949 . S
C2594 C2602 1.574 . S
C2594 C2610 1.368 . S
H2595 C2603 0.950 . S
H2596 C2601 0.950 . S
H2597 C2602 0.949 . S
H2598 C2604 0.950 . S
H2599 C2605 0.950 . S
H2600 C2606 0.949 . S
C2601 H2596 0.950 . S
C2601 C2603 1.327 . S
C2601 C2607 1.429 . S
C2602 C2594 1.574 . S
C2602 H2597 0.949 . S
C2602 C2608 1.368 . S
C2603 C2587 1.349 . S
C2603 H2595 0.950 . S
C2603 C2601 1.327 . S
C2604 C2592 1.349 . S
C2604 H2598 0.950 . S
C2604 C2605 1.327 . S
C2605 H2599 0.950 . S
C2605 C2604 1.327 . S
C2605 C2609 1.429 . S
C2606 C2589 1.574 . S
C2606 H2600 0.949 . S
C2606 C2610 1.368 . S
C2607 C2588 1.429 . S
C2607 C2601 1.429 . S
C2607 C2608 1.523 . S
C2608 C2589 1.368 . S
C2608 C2602 1.368 . S
C2608 C2607 1.523 . S
C2609 C2593 1.429 . S
C2609 C2605 1.429 . S
C2609 C2610 1.523 . S
C2610 C2594 1.368 . S
C2610 C2606 1.368 . S
C2610 C2609 1.523 . S
H2611 C2586 0.950 . S
H2612 C2588 0.950 . S
H2613 C2589 0.949 . S
H2614 C2591 0.950 . S
H2615 C2593 0.950 . S
C2616 C2617 1.349 . S
C2616 C2618 1.327 . S
C2616 H2641 0.950 . S
C2617 C2616 1.349 . S
C2617 C2633 1.349 . S
C2618 C2616 1.327 . S
C2618 C2637 1.429 . S
C2618 H2642 0.950 . S
C2619 C2636 1.574 . S
C2619 C2638 1.368 . S
C2619 H2643 0.949 . S
H2620 C2624 0.949 . S
C2621 C2622 1.349 . S
C2621 C2623 1.327 . S
C2621 H2644 0.950 . S
C2622 C2621 1.349 . S
C2622 C2634 1.349 . S
C2623 C2621 1.327 . S
C2623 C2639 1.429 . S
C2623 H2645 0.950 . S
C2624 H2620 0.949 . S
C2624 C2632 1.574 . S
C2624 C2640 1.368 . S
H2625 C2633 0.950 . S
H2626 C2631 0.950 . S
H2627 C2632 0.949 . S
H2628 C2634 0.950 . S
H2629 C2635 0.950 . S
H2630 C2636 0.949 . S
C2631 H2626 0.950 . S
C2631 C2633 1.327 . S
C2631 C2637 1.429 . S
C2632 C2624 1.574 . S
C2632 H2627 0.949 . S
C2632 C2638 1.368 . S
C2633 C2617 1.349 . S
C2633 H2625 0.950 . S
C2633 C2631 1.327 . S
C2634 C2622 1.349 . S
C2634 H2628 0.950 . S
C2634 C2635 1.327 . S
C2635 H2629 0.950 . S
C2635 C2634 1.327 . S
C2635 C2639 1.429 . S
C2636 C2619 1.574 . S
C2636 H2630 0.949 . S
C2636 C2640 1.368 . S
C2637 C2618 1.429 . S
C2637 C2631 1.429 . S
C2637 C2638 1.523 . S
C2638 C2619 1.368 . S
C2638 C2632 1.368 . S
C2638 C2637 1.523 . S
C2639 C2623 1.429 . S
C2639 C2635 1.429 . S
C2639 C2640 1.523 . S
C2640 C2624 1.368 . S
C2640 C2636 1.368 . S
C2640 C2639 1.523 . S
H2641 C2616 0.950 . S
H2642 C2618 0.950 . S
H2643 C2619 0.949 . S
H2644 C2621 0.950 . S
H2645 C2623 0.950 . S
C2646 C2647 1.349 . S
C2646 C2648 1.327 . S
C2646 H2671 0.950 . S
C2647 C2646 1.349 . S
C2647 C2663 1.349 . S
C2648 C2646 1.327 . S
C2648 C2667 1.429 . S
C2648 H2672 0.950 . S
C2649 C2666 1.574 . S
C2649 C2668 1.368 . S
C2649 H2673 0.949 . S
H2650 C2654 0.949 . S
C2651 C2652 1.349 . S
C2651 C2653 1.327 . S
C2651 H2674 0.950 . S
C2652 C2651 1.349 . S
C2652 C2664 1.349 . S
C2653 C2651 1.327 . S
C2653 C2669 1.429 . S
C2653 H2675 0.950 . S
C2654 H2650 0.949 . S
C2654 C2662 1.574 . S
C2654 C2670 1.368 . S
H2655 C2663 0.950 . S
H2656 C2661 0.950 . S
H2657 C2662 0.949 . S
H2658 C2664 0.950 . S
H2659 C2665 0.950 . S
H2660 C2666 0.949 . S
C2661 H2656 0.950 . S
C2661 C2663 1.327 . S
C2661 C2667 1.429 . S
C2662 C2654 1.574 . S
C2662 H2657 0.949 . S
C2662 C2668 1.368 . S
C2663 C2647 1.349 . S
C2663 H2655 0.950 . S
C2663 C2661 1.327 . S
C2664 C2652 1.349 . S
C2664 H2658 0.950 . S
C2664 C2665 1.327 . S
C2665 H2659 0.950 . S
C2665 C2664 1.327 . S
C2665 C2669 1.429 . S
C2666 C2649 1.574 . S
C2666 H2660 0.949 . S
C2666 C2670 1.368 . S
C2667 C2648 1.429 . S
C2667 C2661 1.429 . S
C2667 C2668 1.523 . S
C2668 C2649 1.368 . S
C2668 C2662 1.368 . S
C2668 C2667 1.523 . S
C2669 C2653 1.429 . S
C2669 C2665 1.429 . S
C2669 C2670 1.523 . S
C2670 C2654 1.368 . S
C2670 C2666 1.368 . S
C2670 C2669 1.523 . S
H2671 C2646 0.950 . S
H2672 C2648 0.950 . S
H2673 C2649 0.949 . S
H2674 C2651 0.950 . S
H2675 C2653 0.950 . S
C2676 C2677 1.349 . S
C2676 C2678 1.327 . S
C2676 H2701 0.950 . S
C2677 C2676 1.349 . S
C2677 C2693 1.349 . S
C2678 C2676 1.327 . S
C2678 C2697 1.429 . S
C2678 H2702 0.950 . S
C2679 C2696 1.574 . S
C2679 C2698 1.368 . S
C2679 H2703 0.949 . S
H2680 C2684 0.949 . S
C2681 C2682 1.349 . S
C2681 C2683 1.327 . S
C2681 H2704 0.950 . S
C2682 C2681 1.349 . S
C2682 C2694 1.349 . S
C2683 C2681 1.327 . S
C2683 C2699 1.429 . S
C2683 H2705 0.950 . S
C2684 H2680 0.949 . S
C2684 C2692 1.574 . S
C2684 C2700 1.368 . S
H2685 C2693 0.950 . S
H2686 C2691 0.950 . S
H2687 C2692 0.949 . S
H2688 C2694 0.950 1_455 S
H2689 C2695 0.950 . S
H2690 C2696 0.949 . S
C2691 H2686 0.950 . S
C2691 C2693 1.327 . S
C2691 C2697 1.429 . S
C2692 C2684 1.574 . S
C2692 H2687 0.949 . S
C2692 C2698 1.368 . S
C2693 C2677 1.349 . S
C2693 H2685 0.950 . S
C2693 C2691 1.327 . S
C2694 C2682 1.349 . S
C2694 H2688 0.950 1_655 S
C2694 C2695 1.327 . S
C2695 H2689 0.950 . S
C2695 C2694 1.327 . S
C2695 C2699 1.429 . S
C2696 C2679 1.574 . S
C2696 H2690 0.949 . S
C2696 C2700 1.368 . S
C2697 C2678 1.429 . S
C2697 C2691 1.429 . S
C2697 C2698 1.523 . S
C2698 C2679 1.368 . S
C2698 C2692 1.368 . S
C2698 C2697 1.523 . S
C2699 C2683 1.429 . S
C2699 C2695 1.429 . S
C2699 C2700 1.523 . S
C2700 C2684 1.368 . S
C2700 C2696 1.368 . S
C2700 C2699 1.523 . S
H2701 C2676 0.950 . S
H2702 C2678 0.950 . S
H2703 C2679 0.949 . S
H2704 C2681 0.950 . S
H2705 C2683 0.950 . S
C2706 C2707 1.349 . S
C2706 C2708 1.327 . S
C2706 H2731 0.950 . S
C2707 C2706 1.349 . S
C2707 C2723 1.349 . S
C2708 C2706 1.327 . S
C2708 C2727 1.429 . S
C2708 H2732 0.950 . S
C2709 C2726 1.574 . S
C2709 C2728 1.368 . S
C2709 H2733 0.949 . S
H2710 C2714 0.949 . S
C2711 C2712 1.349 . S
C2711 C2713 1.327 . S
C2711 H2734 0.950 . S
C2712 C2711 1.349 . S
C2712 C2724 1.349 . S
C2713 C2711 1.327 . S
C2713 C2729 1.429 . S
C2713 H2735 0.950 . S
C2714 H2710 0.949 . S
C2714 C2722 1.574 . S
C2714 C2730 1.368 . S
H2715 C2723 0.950 . S
H2716 C2721 0.950 . S
H2717 C2722 0.949 . S
H2718 C2724 0.950 . S
H2719 C2725 0.950 . S
H2720 C2726 0.949 . S
C2721 H2716 0.950 . S
C2721 C2723 1.327 . S
C2721 C2727 1.429 . S
C2722 C2714 1.574 . S
C2722 H2717 0.949 . S
C2722 C2728 1.368 . S
C2723 C2707 1.349 . S
C2723 H2715 0.950 . S
C2723 C2721 1.327 . S
C2724 C2712 1.349 . S
C2724 H2718 0.950 . S
C2724 C2725 1.327 . S
C2725 H2719 0.950 . S
C2725 C2724 1.327 . S
C2725 C2729 1.429 . S
C2726 C2709 1.574 . S
C2726 H2720 0.949 . S
C2726 C2730 1.368 . S
C2727 C2708 1.429 . S
C2727 C2721 1.429 . S
C2727 C2728 1.523 . S
C2728 C2709 1.368 . S
C2728 C2722 1.368 . S
C2728 C2727 1.523 . S
C2729 C2713 1.429 . S
C2729 C2725 1.429 . S
C2729 C2730 1.523 . S
C2730 C2714 1.368 . S
C2730 C2726 1.368 . S
C2730 C2729 1.523 . S
H2731 C2706 0.950 . S
H2732 C2708 0.950 . S
H2733 C2709 0.949 . S
H2734 C2711 0.950 . S
H2735 C2713 0.950 . S
C2736 C2737 1.349 . S
C2736 C2738 1.327 . S
C2736 H2761 0.950 . S
C2737 C2736 1.349 . S
C2737 C2753 1.349 . S
C2738 C2736 1.327 . S
C2738 C2757 1.429 . S
C2738 H2762 0.950 . S
C2739 C2756 1.574 . S
C2739 C2758 1.368 . S
C2739 H2763 0.949 . S
H2740 C2744 0.949 . S
C2741 C2742 1.349 . S
C2741 C2743 1.327 . S
C2741 H2764 0.950 . S
C2742 C2741 1.349 . S
C2742 C2754 1.349 . S
C2743 C2741 1.327 . S
C2743 C2759 1.429 . S
C2743 H2765 0.950 . S
C2744 H2740 0.949 . S
C2744 C2752 1.574 . S
C2744 C2760 1.368 . S
H2745 C2753 0.950 . S
H2746 C2751 0.950 . S
H2747 C2752 0.949 . S
H2748 C2754 0.950 . S
H2749 C2755 0.950 . S
H2750 C2756 0.949 . S
C2751 H2746 0.950 . S
C2751 C2753 1.327 . S
C2751 C2757 1.429 . S
C2752 C2744 1.574 . S
C2752 H2747 0.949 . S
C2752 C2758 1.368 . S
C2753 C2737 1.349 . S
C2753 H2745 0.950 . S
C2753 C2751 1.327 . S
C2754 C2742 1.349 . S
C2754 H2748 0.950 . S
C2754 C2755 1.327 . S
C2755 H2749 0.950 . S
C2755 C2754 1.327 . S
C2755 C2759 1.429 . S
C2756 C2739 1.574 . S
C2756 H2750 0.949 . S
C2756 C2760 1.368 . S
C2757 C2738 1.429 . S
C2757 C2751 1.429 . S
C2757 C2758 1.523 . S
C2758 C2739 1.368 . S
C2758 C2752 1.368 . S
C2758 C2757 1.523 . S
C2759 C2743 1.429 . S
C2759 C2755 1.429 . S
C2759 C2760 1.523 . S
C2760 C2744 1.368 . S
C2760 C2756 1.368 . S
C2760 C2759 1.523 . S
H2761 C2736 0.950 . S
H2762 C2738 0.950 . S
H2763 C2739 0.949 . S
H2764 C2741 0.950 . S
H2765 C2743 0.950 . S
C2766 C2767 1.349 . S
C2766 C2768 1.327 . S
C2766 H2791 0.950 . S
C2767 C2766 1.349 . S
C2767 C2783 1.349 . S
C2768 C2766 1.327 . S
C2768 C2787 1.429 . S
C2768 H2792 0.950 . S
C2769 C2786 1.574 . S
C2769 C2788 1.368 . S
C2769 H2793 0.949 . S
H2770 C2774 0.949 . S
C2771 C2772 1.349 . S
C2771 C2773 1.327 1_545 S
C2771 H2794 0.950 . S
C2772 C2771 1.349 . S
C2772 C2784 1.349 1_545 S
C2773 C2771 1.327 1_565 S
C2773 C2789 1.429 . S
C2773 H2795 0.950 . S
C2774 H2770 0.949 . S
C2774 C2782 1.574 . S
C2774 C2790 1.368 . S
H2775 C2783 0.950 . S
H2776 C2781 0.950 . S
H2777 C2782 0.949 . S
H2778 C2784 0.950 . S
H2779 C2785 0.950 . S
H2780 C2786 0.949 . S
C2781 H2776 0.950 . S
C2781 C2783 1.327 . S
C2781 C2787 1.429 . S
C2782 C2774 1.574 . S
C2782 H2777 0.949 . S
C2782 C2788 1.368 . S
C2783 C2767 1.349 . S
C2783 H2775 0.950 . S
C2783 C2781 1.327 . S
C2784 C2772 1.349 1_565 S
C2784 H2778 0.950 . S
C2784 C2785 1.327 . S
C2785 H2779 0.950 . S
C2785 C2784 1.327 . S
C2785 C2789 1.429 . S
C2786 C2769 1.574 . S
C2786 H2780 0.949 . S
C2786 C2790 1.368 . S
C2787 C2768 1.429 . S
C2787 C2781 1.429 . S
C2787 C2788 1.523 . S
C2788 C2769 1.368 . S
C2788 C2782 1.368 . S
C2788 C2787 1.523 . S
C2789 C2773 1.429 . S
C2789 C2785 1.429 . S
C2789 C2790 1.523 . S
C2790 C2774 1.368 . S
C2790 C2786 1.368 . S
C2790 C2789 1.523 . S
H2791 C2766 0.950 . S
H2792 C2768 0.950 . S
H2793 C2769 0.949 . S
H2794 C2771 0.950 . S
H2795 C2773 0.950 . S
C2796 C2797 1.349 . S
C2796 C2798 1.327 . S
C2796 H2821 0.950 1_565 S
C2797 C2796 1.349 . S
C2797 C2813 1.349 . S
C2798 C2796 1.327 . S
C2798 C2817 1.429 . S
C2798 H2822 0.950 . S
C2799 C2816 1.574 . S
C2799 C2818 1.368 . S
C2799 H2823 0.949 . S
H2800 C2804 0.949 . S
C2801 C2802 1.349 . S
C2801 C2803 1.327 . S
C2801 H2824 0.950 . S
C2802 C2801 1.349 . S
C2802 C2814 1.349 . S
C2803 C2801 1.327 . S
C2803 C2819 1.429 . S
C2803 H2825 0.950 . S
C2804 H2800 0.949 . S
C2804 C2812 1.574 . S
C2804 C2820 1.368 . S
H2805 C2813 0.950 . S
H2806 C2811 0.950 . S
H2807 C2812 0.949 . S
H2808 C2814 0.950 . S
H2809 C2815 0.950 . S
H2810 C2816 0.949 . S
C2811 H2806 0.950 . S
C2811 C2813 1.327 . S
C2811 C2817 1.429 . S
C2812 C2804 1.574 . S
C2812 H2807 0.949 . S
C2812 C2818 1.368 . S
C2813 C2797 1.349 . S
C2813 H2805 0.950 . S
C2813 C2811 1.327 . S
C2814 C2802 1.349 . S
C2814 H2808 0.950 . S
C2814 C2815 1.327 . S
C2815 H2809 0.950 . S
C2815 C2814 1.327 . S
C2815 C2819 1.429 . S
C2816 C2799 1.574 . S
C2816 H2810 0.949 . S
C2816 C2820 1.368 . S
C2817 C2798 1.429 . S
C2817 C2811 1.429 . S
C2817 C2818 1.523 . S
C2818 C2799 1.368 . S
C2818 C2812 1.368 . S
C2818 C2817 1.523 . S
C2819 C2803 1.429 . S
C2819 C2815 1.429 . S
C2819 C2820 1.523 . S
C2820 C2804 1.368 . S
C2820 C2816 1.368 . S
C2820 C2819 1.523 . S
H2821 C2796 0.950 1_545 S
H2822 C2798 0.950 . S
H2823 C2799 0.949 . S
H2824 C2801 0.950 . S
H2825 C2803 0.950 . S
C2826 C2827 1.349 . S
C2826 C2828 1.327 . S
C2826 H2851 0.950 . S
C2827 C2826 1.349 . S
C2827 C2843 1.349 . S
C2828 C2826 1.327 . S
C2828 C2847 1.429 . S
C2828 H2852 0.950 . S
C2829 C2846 1.574 . S
C2829 C2848 1.368 . S
C2829 H2853 0.949 . S
H2830 C2834 0.949 . S
C2831 C2832 1.349 . S
C2831 C2833 1.327 . S
C2831 H2854 0.950 . S
C2832 C2831 1.349 . S
C2832 C2844 1.349 . S
C2833 C2831 1.327 . S
C2833 C2849 1.429 . S
C2833 H2855 0.950 . S
C2834 H2830 0.949 . S
C2834 C2842 1.574 . S
C2834 C2850 1.368 . S
H2835 C2843 0.950 . S
H2836 C2841 0.950 . S
H2837 C2842 0.949 . S
H2838 C2844 0.950 . S
H2839 C2845 0.950 . S
H2840 C2846 0.949 . S
C2841 H2836 0.950 . S
C2841 C2843 1.327 . S
C2841 C2847 1.429 . S
C2842 C2834 1.574 . S
C2842 H2837 0.949 . S
C2842 C2848 1.368 . S
C2843 C2827 1.349 . S
C2843 H2835 0.950 . S
C2843 C2841 1.327 . S
C2844 C2832 1.349 . S
C2844 H2838 0.950 . S
C2844 C2845 1.327 . S
C2845 H2839 0.950 . S
C2845 C2844 1.327 . S
C2845 C2849 1.429 . S
C2846 C2829 1.574 . S
C2846 H2840 0.949 . S
C2846 C2850 1.368 . S
C2847 C2828 1.429 . S
C2847 C2841 1.429 . S
C2847 C2848 1.523 . S
C2848 C2829 1.368 . S
C2848 C2842 1.368 . S
C2848 C2847 1.523 . S
C2849 C2833 1.429 . S
C2849 C2845 1.429 . S
C2849 C2850 1.523 . S
C2850 C2834 1.368 . S
C2850 C2846 1.368 . S
C2850 C2849 1.523 . S
H2851 C2826 0.950 . S
H2852 C2828 0.950 . S
H2853 C2829 0.949 . S
H2854 C2831 0.950 . S
H2855 C2833 0.950 . S
C2856 C2857 1.349 . S
C2856 C2858 1.327 . S
C2856 H2881 0.950 . S
C2857 C2856 1.349 . S
C2857 C2873 1.349 . S
C2858 C2856 1.327 . S
C2858 C2877 1.429 . S
C2858 H2882 0.950 . S
C2859 C2876 1.574 . S
C2859 C2878 1.368 . S
C2859 H2883 0.949 . S
H2860 C2864 0.949 . S
C2861 C2862 1.349 . S
C2861 C2863 1.327 . S
C2861 H2884 0.950 . S
C2862 C2861 1.349 . S
C2862 C2874 1.349 . S
C2863 C2861 1.327 . S
C2863 C2879 1.429 . S
C2863 H2885 0.950 . S
C2864 H2860 0.949 . S
C2864 C2872 1.574 . S
C2864 C2880 1.368 . S
H2865 C2873 0.950 . S
H2866 C2871 0.950 . S
H2867 C2872 0.949 . S
H2868 C2874 0.950 . S
H2869 C2875 0.950 . S
H2870 C2876 0.949 . S
C2871 H2866 0.950 . S
C2871 C2873 1.327 . S
C2871 C2877 1.429 . S
C2872 C2864 1.574 . S
C2872 H2867 0.949 . S
C2872 C2878 1.368 . S
C2873 C2857 1.349 . S
C2873 H2865 0.950 . S
C2873 C2871 1.327 . S
C2874 C2862 1.349 . S
C2874 H2868 0.950 . S
C2874 C2875 1.327 . S
C2875 H2869 0.950 . S
C2875 C2874 1.327 . S
C2875 C2879 1.429 . S
C2876 C2859 1.574 . S
C2876 H2870 0.949 . S
C2876 C2880 1.368 . S
C2877 C2858 1.429 . S
C2877 C2871 1.429 . S
C2877 C2878 1.523 . S
C2878 C2859 1.368 . S
C2878 C2872 1.368 . S
C2878 C2877 1.523 . S
C2879 C2863 1.429 . S
C2879 C2875 1.429 . S
C2879 C2880 1.523 . S
C2880 C2864 1.368 . S
C2880 C2876 1.368 . S
C2880 C2879 1.523 . S
H2881 C2856 0.950 . S
H2882 C2858 0.950 . S
H2883 C2859 0.949 . S
H2884 C2861 0.950 . S
H2885 C2863 0.950 . S
C2886 C2887 1.349 . S
C2886 C2888 1.327 . S
C2886 H2911 0.950 . S
C2887 C2886 1.349 . S
C2887 C2903 1.349 . S
C2888 C2886 1.327 . S
C2888 C2907 1.429 . S
C2888 H2912 0.950 . S
C2889 C2906 1.574 . S
C2889 C2908 1.368 . S
C2889 H2913 0.949 . S
H2890 C2894 0.949 1_556 S
C2891 C2892 1.349 . S
C2891 C2893 1.327 . S
C2891 H2914 0.950 . S
C2892 C2891 1.349 . S
C2892 C2904 1.349 1_554 S
C2893 C2891 1.327 . S
C2893 C2909 1.429 . S
C2893 H2915 0.950 . S
C2894 H2890 0.949 1_554 S
C2894 C2902 1.574 . S
C2894 C2910 1.368 . S
H2895 C2903 0.950 . S
H2896 C2901 0.950 . S
H2897 C2902 0.949 . S
H2898 C2904 0.950 . S
H2899 C2905 0.939 1_556 S
H2900 C2906 0.949 . S
C2901 H2896 0.950 . S
C2901 C2903 1.327 . S
C2901 C2907 1.429 . S
C2902 C2894 1.574 . S
C2902 H2897 0.949 . S
C2902 C2908 1.368 . S
C2903 C2887 1.349 . S
C2903 H2895 0.950 . S
C2903 C2901 1.327 . S
C2904 C2892 1.349 1_556 S
C2904 H2898 0.950 . S
C2904 C2905 1.325 1_556 S
C2905 H2899 0.939 1_554 S
C2905 C2904 1.325 1_554 S
C2905 C2909 1.440 . S
C2906 C2889 1.574 . S
C2906 H2900 0.949 . S
C2906 C2910 1.368 . S
C2907 C2888 1.429 . S
C2907 C2901 1.429 . S
C2907 C2908 1.523 . S
C2908 C2889 1.368 . S
C2908 C2902 1.368 . S
C2908 C2907 1.523 . S
C2909 C2893 1.429 . S
C2909 C2905 1.440 . S
C2909 C2910 1.523 . S
C2910 C2894 1.368 . S
C2910 C2906 1.368 . S
C2910 C2909 1.523 . S
H2911 C2886 0.950 . S
H2912 C2888 0.950 . S
H2913 C2889 0.949 . S
H2914 C2891 0.950 . S
H2915 C2893 0.950 . S
C2916 C2917 1.349 . S
C2916 C2918 1.327 . S
C2916 H2941 0.950 . S
C2917 C2916 1.349 . S
C2917 C2933 1.349 . S
C2918 C2916 1.327 . S
C2918 C2937 1.429 . S
C2918 H2942 0.950 . S
C2919 C2936 1.574 . S
C2919 C2938 1.368 . S
C2919 H2943 0.949 . S
H2920 C2924 0.949 . S
C2921 C2922 1.349 . S
C2921 C2923 1.327 . S
C2921 H2944 0.950 . S
C2922 C2921 1.349 . S
C2922 C2934 1.349 . S
C2923 C2921 1.327 . S
C2923 C2939 1.429 . S
C2923 H2945 0.950 . S
C2924 H2920 0.949 . S
C2924 C2932 1.574 . S
C2924 C2940 1.368 . S
H2925 C2933 0.950 . S
H2926 C2931 0.950 . S
H2927 C2932 0.949 . S
H2928 C2934 0.950 . S
H2929 C2935 0.950 . S
H2930 C2936 0.949 . S
C2931 H2926 0.950 . S
C2931 C2933 1.327 . S
C2931 C2937 1.429 . S
C2932 C2924 1.574 . S
C2932 H2927 0.949 . S
C2932 C2938 1.368 . S
C2933 C2917 1.349 . S
C2933 H2925 0.950 . S
C2933 C2931 1.327 . S
C2934 C2922 1.349 . S
C2934 H2928 0.950 . S
C2934 C2935 1.327 . S
C2935 H2929 0.950 . S
C2935 C2934 1.327 . S
C2935 C2939 1.429 . S
C2936 C2919 1.574 . S
C2936 H2930 0.949 . S
C2936 C2940 1.368 . S
C2937 C2918 1.429 . S
C2937 C2931 1.429 . S
C2937 C2938 1.523 . S
C2938 C2919 1.368 . S
C2938 C2932 1.368 . S
C2938 C2937 1.523 . S
C2939 C2923 1.429 . S
C2939 C2935 1.429 . S
C2939 C2940 1.523 . S
C2940 C2924 1.368 . S
C2940 C2936 1.368 . S
C2940 C2939 1.523 . S
H2941 C2916 0.950 . S
H2942 C2918 0.950 . S
H2943 C2919 0.949 . S
H2944 C2921 0.950 . S
H2945 C2923 0.950 . S
C2946 C2947 1.349 . S
C2946 C2948 1.327 . S
C2946 H2971 0.950 . S
C2947 C2946 1.349 . S
C2947 C2963 1.349 . S
C2948 C2946 1.327 . S
C2948 C2967 1.429 . S
C2948 H2972 0.950 . S
C2949 C2966 1.574 . S
C2949 C2968 1.368 . S
C2949 H2973 0.949 . S
H2950 C2954 0.949 . S
C2951 C2952 1.349 . S
C2951 C2953 1.327 . S
C2951 H2974 0.950 . S
C2952 C2951 1.349 . S
C2952 C2964 1.349 . S
C2953 C2951 1.327 . S
C2953 C2969 1.429 . S
C2953 H2975 0.950 . S
C2954 H2950 0.949 . S
C2954 C2962 1.574 . S
C2954 C2970 1.368 . S
H2955 C2963 0.950 . S
H2956 C2961 0.950 . S
H2957 C2962 0.949 . S
H2958 C2964 0.950 . S
H2959 C2965 0.950 . S
H2960 C2966 0.949 . S
C2961 H2956 0.950 . S
C2961 C2963 1.327 . S
C2961 C2967 1.429 . S
C2962 C2954 1.574 . S
C2962 H2957 0.949 . S
C2962 C2968 1.368 . S
C2963 C2947 1.349 . S
C2963 H2955 0.950 . S
C2963 C2961 1.327 . S
C2964 C2952 1.349 . S
C2964 H2958 0.950 . S
C2964 C2965 1.327 . S
C2965 H2959 0.950 . S
C2965 C2964 1.327 . S
C2965 C2969 1.429 . S
C2966 C2949 1.574 . S
C2966 H2960 0.949 . S
C2966 C2970 1.368 . S
C2967 C2948 1.429 . S
C2967 C2961 1.429 . S
C2967 C2968 1.523 . S
C2968 C2949 1.368 . S
C2968 C2962 1.368 . S
C2968 C2967 1.523 . S
C2969 C2953 1.429 . S
C2969 C2965 1.429 . S
C2969 C2970 1.523 . S
C2970 C2954 1.368 . S
C2970 C2966 1.368 . S
C2970 C2969 1.523 . S
H2971 C2946 0.950 . S
H2972 C2948 0.950 . S
H2973 C2949 0.949 . S
H2974 C2951 0.950 . S
H2975 C2953 0.950 . S
C2976 C2977 1.349 . S
C2976 C2978 1.327 . S
C2976 H3001 0.950 . S
C2977 C2976 1.349 . S
C2977 C2993 1.349 . S
C2978 C2976 1.327 . S
C2978 C2997 1.429 . S
C2978 H3002 0.950 . S
C2979 C2996 1.574 . S
C2979 C2998 1.368 . S
C2979 H3003 0.949 . S
H2980 C2984 0.949 . S
C2981 C2982 1.349 . S
C2981 C2983 1.327 . S
C2981 H3004 0.950 . S
C2982 C2981 1.349 . S
C2982 C2994 1.349 . S
C2983 C2981 1.327 . S
C2983 C2999 1.429 . S
C2983 H3005 0.950 . S
C2984 H2980 0.949 . S
C2984 C2992 1.574 . S
C2984 C3000 1.368 . S
H2985 C2993 0.950 . S
H2986 C2991 0.950 . S
H2987 C2992 0.949 . S
H2988 C2994 0.950 . S
H2989 C2995 0.950 . S
H2990 C2996 0.949 . S
C2991 H2986 0.950 . S
C2991 C2993 1.327 . S
C2991 C2997 1.429 . S
C2992 C2984 1.574 . S
C2992 H2987 0.949 . S
C2992 C2998 1.368 . S
C2993 C2977 1.349 . S
C2993 H2985 0.950 . S
C2993 C2991 1.327 . S
C2994 C2982 1.349 . S
C2994 H2988 0.950 . S
C2994 C2995 1.327 . S
C2995 H2989 0.950 . S
C2995 C2994 1.327 . S
C2995 C2999 1.429 . S
C2996 C2979 1.574 . S
C2996 H2990 0.949 . S
C2996 C3000 1.368 . S
C2997 C2978 1.429 . S
C2997 C2991 1.429 . S
C2997 C2998 1.523 . S
C2998 C2979 1.368 . S
C2998 C2992 1.368 . S
C2998 C2997 1.523 . S
C2999 C2983 1.429 . S
C2999 C2995 1.429 . S
C2999 C3000 1.523 . S
C3000 C2984 1.368 . S
C3000 C2996 1.368 . S
C3000 C2999 1.523 . S
H3001 C2976 0.950 . S
H3002 C2978 0.950 . S
H3003 C2979 0.949 . S
H3004 C2981 0.950 . S
H3005 C2983 0.950 . S
C3006 C3007 1.349 . S
C3006 C3008 1.327 . S
C3006 H3031 0.950 . S
C3007 C3006 1.349 . S
C3007 C3023 1.349 . S
C3008 C3006 1.327 . S
C3008 C3027 1.429 . S
C3008 H3032 0.950 . S
C3009 C3026 1.574 . S
C3009 C3028 1.368 . S
C3009 H3033 0.949 . S
H3010 C3014 0.949 . S
C3011 C3012 1.349 . S
C3011 C3013 1.327 . S
C3011 H3034 0.950 . S
C3012 C3011 1.349 . S
C3012 C3024 1.349 . S
C3013 C3011 1.327 . S
C3013 C3029 1.429 . S
C3013 H3035 0.950 . S
C3014 H3010 0.949 . S
C3014 C3022 1.574 . S
C3014 C3030 1.368 . S
H3015 C3023 0.950 . S
H3016 C3021 0.950 . S
H3017 C3022 0.949 . S
H3018 C3024 0.950 . S
H3019 C3025 0.950 . S
H3020 C3026 0.949 . S
C3021 H3016 0.950 . S
C3021 C3023 1.327 . S
C3021 C3027 1.429 . S
C3022 C3014 1.574 . S
C3022 H3017 0.949 . S
C3022 C3028 1.368 . S
C3023 C3007 1.349 . S
C3023 H3015 0.950 . S
C3023 C3021 1.327 . S
C3024 C3012 1.349 . S
C3024 H3018 0.950 . S
C3024 C3025 1.327 . S
C3025 H3019 0.950 . S
C3025 C3024 1.327 . S
C3025 C3029 1.429 . S
C3026 C3009 1.574 . S
C3026 H3020 0.949 . S
C3026 C3030 1.368 . S
C3027 C3008 1.429 . S
C3027 C3021 1.429 . S
C3027 C3028 1.523 . S
C3028 C3009 1.368 . S
C3028 C3022 1.368 . S
C3028 C3027 1.523 . S
C3029 C3013 1.429 . S
C3029 C3025 1.429 . S
C3029 C3030 1.523 . S
C3030 C3014 1.368 . S
C3030 C3026 1.368 . S
C3030 C3029 1.523 . S
H3031 C3006 0.950 . S
H3032 C3008 0.950 . S
H3033 C3009 0.949 . S
H3034 C3011 0.950 . S
H3035 C3013 0.950 . S
C3036 C3037 1.349 . S
C3036 C3038 1.327 . S
C3036 H3061 0.950 . S
C3037 C3036 1.349 . S
C3037 C3053 1.349 . S
C3038 C3036 1.327 . S
C3038 C3057 1.429 . S
C3038 H3062 0.950 . S
C3039 C3056 1.574 . S
C3039 C3058 1.368 . S
C3039 H3063 0.949 . S
H3040 C3044 0.949 1_655 S
C3041 C3042 1.393 . S
C3041 C3043 1.327 . S
C3041 H3064 0.950 . S
C3042 C3041 1.393 . S
C3042 C3054 1.328 1_556 S
C3043 C3041 1.327 . S
C3043 C3059 1.429 . S
C3043 H3065 0.950 . S
C3044 H3040 0.949 1_455 S
C3044 C3052 1.574 . S
C3044 C3060 1.368 . S
H3045 C3053 0.950 . S
H3046 C3051 0.950 . S
H3047 C3052 0.957 . S
H3048 C3054 0.950 1_655 S
H3049 C3055 0.945 1_654 S
H3050 C3056 0.949 . S
C3051 H3046 0.950 . S
C3051 C3053 1.327 . S
C3051 C3057 1.429 . S
C3052 C3044 1.574 . S
C3052 H3047 0.957 . S
C3052 C3058 1.368 . S
C3053 C3037 1.349 . S
C3053 H3045 0.950 . S
C3053 C3051 1.327 . S
C3054 C3042 1.328 1_554 S
C3054 H3048 0.950 1_455 S
C3054 C3055 1.323 1_554 S
C3055 H3049 0.945 1_456 S
C3055 C3054 1.323 1_556 S
C3055 C3059 1.438 . S
C3056 C3039 1.574 . S
C3056 H3050 0.949 . S
C3056 C3060 1.368 . S
C3057 C3038 1.429 . S
C3057 C3051 1.429 . S
C3057 C3058 1.523 . S
C3058 C3039 1.368 . S
C3058 C3052 1.368 . S
C3058 C3057 1.523 . S
C3059 C3043 1.429 . S
C3059 C3055 1.438 . S
C3059 C3060 1.523 . S
C3060 C3044 1.368 . S
C3060 C3056 1.368 . S
C3060 C3059 1.523 . S
H3061 C3036 0.950 . S
H3062 C3038 0.950 . S
H3063 C3039 0.949 . S
H3064 C3041 0.950 . S
H3065 C3043 0.950 . S
C3066 C3067 1.349 . S
C3066 C3068 1.327 . S
C3066 H3091 0.950 . S
C3067 C3066 1.349 . S
C3067 C3083 1.349 . S
C3068 C3066 1.327 . S
C3068 C3087 1.429 . S
C3068 H3092 0.950 . S
C3069 C3086 1.574 . S
C3069 C3088 1.368 . S
C3069 H3093 0.949 . S
H3070 C3074 0.949 . S
C3071 C3072 1.349 . S
C3071 C3073 1.327 . S
C3071 H3094 0.950 . S
C3072 C3071 1.349 . S
C3072 C3084 1.349 . S
C3073 C3071 1.327 . S
C3073 C3089 1.429 . S
C3073 H3095 0.950 . S
C3074 H3070 0.949 . S
C3074 C3082 1.574 . S
C3074 C3090 1.368 . S
H3075 C3083 0.950 . S
H3076 C3081 0.950 . S
H3077 C3082 0.949 . S
H3078 C3084 0.950 . S
H3079 C3085 0.950 . S
H3080 C3086 0.949 . S
C3081 H3076 0.950 . S
C3081 C3083 1.327 . S
C3081 C3087 1.429 . S
C3082 C3074 1.574 . S
C3082 H3077 0.949 . S
C3082 C3088 1.368 . S
C3083 C3067 1.349 . S
C3083 H3075 0.950 . S
C3083 C3081 1.327 . S
C3084 C3072 1.349 . S
C3084 H3078 0.950 . S
C3084 C3085 1.327 . S
C3085 H3079 0.950 . S
C3085 C3084 1.327 . S
C3085 C3089 1.429 . S
C3086 C3069 1.574 . S
C3086 H3080 0.949 . S
C3086 C3090 1.368 . S
C3087 C3068 1.429 . S
C3087 C3081 1.429 . S
C3087 C3088 1.523 . S
C3088 C3069 1.368 . S
C3088 C3082 1.368 . S
C3088 C3087 1.523 . S
C3089 C3073 1.429 . S
C3089 C3085 1.429 . S
C3089 C3090 1.523 . S
C3090 C3074 1.368 . S
C3090 C3086 1.368 . S
C3090 C3089 1.523 . S
H3091 C3066 0.950 . S
H3092 C3068 0.950 . S
H3093 C3069 0.949 . S
H3094 C3071 0.950 . S
H3095 C3073 0.950 . S
C3096 C3097 1.349 . S
C3096 C3098 1.327 . S
C3096 H3121 0.950 . S
C3097 C3096 1.349 . S
C3097 C3113 1.349 . S
C3098 C3096 1.327 . S
C3098 C3117 1.429 . S
C3098 H3122 0.950 . S
C3099 C3116 1.574 . S
C3099 C3118 1.368 . S
C3099 H3123 0.949 . S
H3100 C3104 0.949 . S
C3101 C3102 1.349 . S
C3101 C3103 1.327 . S
C3101 H3124 0.950 . S
C3102 C3101 1.349 . S
C3102 C3114 1.349 . S
C3103 C3101 1.327 . S
C3103 C3119 1.429 . S
C3103 H3125 0.950 . S
C3104 H3100 0.949 . S
C3104 C3112 1.574 . S
C3104 C3120 1.368 . S
H3105 C3113 0.950 . S
H3106 C3111 0.950 . S
H3107 C3112 0.949 . S
H3108 C3114 0.950 . S
H3109 C3115 0.950 . S
H3110 C3116 0.949 . S
C3111 H3106 0.950 . S
C3111 C3113 1.327 . S
C3111 C3117 1.429 . S
C3112 C3104 1.574 . S
C3112 H3107 0.949 . S
C3112 C3118 1.368 . S
C3113 C3097 1.349 . S
C3113 H3105 0.950 . S
C3113 C3111 1.327 . S
C3114 C3102 1.349 . S
C3114 H3108 0.950 . S
C3114 C3115 1.327 . S
C3115 H3109 0.950 . S
C3115 C3114 1.327 . S
C3115 C3119 1.429 . S
C3116 C3099 1.574 . S
C3116 H3110 0.949 . S
C3116 C3120 1.368 . S
C3117 C3098 1.429 . S
C3117 C3111 1.429 . S
C3117 C3118 1.523 . S
C3118 C3099 1.368 . S
C3118 C3112 1.368 . S
C3118 C3117 1.523 . S
C3119 C3103 1.429 . S
C3119 C3115 1.429 . S
C3119 C3120 1.523 . S
C3120 C3104 1.368 . S
C3120 C3116 1.368 . S
C3120 C3119 1.523 . S
H3121 C3096 0.950 . S
H3122 C3098 0.950 . S
H3123 C3099 0.949 . S
H3124 C3101 0.950 . S
H3125 C3103 0.950 . S
C3126 C3127 1.349 . S
C3126 C3128 1.327 . S
C3126 H3151 0.950 . S
C3127 C3126 1.349 . S
C3127 C3143 1.349 . S
C3128 C3126 1.327 . S
C3128 C3147 1.429 . S
C3128 H3152 0.950 . S
C3129 C3146 1.574 . S
C3129 C3148 1.368 . S
C3129 H3153 0.949 . S
H3130 C3134 0.949 . S
C3131 C3132 1.349 . S
C3131 C3133 1.327 . S
C3131 H3154 0.950 . S
C3132 C3131 1.349 . S
C3132 C3144 1.349 . S
C3133 C3131 1.327 . S
C3133 C3149 1.429 . S
C3133 H3155 0.950 . S
C3134 H3130 0.949 . S
C3134 C3142 1.574 . S
C3134 C3150 1.368 . S
H3135 C3143 0.950 . S
H3136 C3141 0.950 . S
H3137 C3142 0.949 . S
H3138 C3144 0.950 . S
H3139 C3145 0.950 . S
H3140 C3146 0.949 . S
C3141 H3136 0.950 . S
C3141 C3143 1.327 . S
C3141 C3147 1.429 . S
C3142 C3134 1.574 . S
C3142 H3137 0.949 . S
C3142 C3148 1.368 . S
C3143 C3127 1.349 . S
C3143 H3135 0.950 . S
C3143 C3141 1.327 . S
C3144 C3132 1.349 . S
C3144 H3138 0.950 . S
C3144 C3145 1.327 . S
C3145 H3139 0.950 . S
C3145 C3144 1.327 . S
C3145 C3149 1.429 . S
C3146 C3129 1.574 . S
C3146 H3140 0.949 . S
C3146 C3150 1.368 . S
C3147 C3128 1.429 . S
C3147 C3141 1.429 . S
C3147 C3148 1.523 . S
C3148 C3129 1.368 . S
C3148 C3142 1.368 . S
C3148 C3147 1.523 . S
C3149 C3133 1.429 . S
C3149 C3145 1.429 . S
C3149 C3150 1.523 . S
C3150 C3134 1.368 . S
C3150 C3146 1.368 . S
C3150 C3149 1.523 . S
H3151 C3126 0.950 . S
H3152 C3128 0.950 . S
H3153 C3129 0.949 . S
H3154 C3131 0.950 . S
H3155 C3133 0.950 . S
C3156 C3157 1.349 1_655 S
C3156 C3158 1.327 . S
C3156 H3181 0.950 . S
C3157 C3156 1.349 1_455 S
C3157 C3173 1.349 . S
C3158 C3156 1.327 . S
C3158 C3177 1.429 1_655 S
C3158 H3182 0.950 . S
C3159 C3176 1.574 . S
C3159 C3178 1.368 . S
C3159 H3183 0.949 . S
H3160 C3164 0.949 . S
C3161 C3162 1.349 . S
C3161 C3163 1.327 . S
C3161 H3184 0.950 . S
C3162 C3161 1.349 . S
C3162 C3174 1.349 1_455 S
C3163 C3161 1.327 . S
C3163 C3179 1.429 . S
C3163 H3185 0.950 . S
C3164 H3160 0.949 . S
C3164 C3172 1.574 . S
C3164 C3180 1.368 1_655 S
H3165 C3173 0.950 . S
H3166 C3171 0.950 . S
H3167 C3172 0.949 . S
H3168 C3174 0.950 . S
H3169 C3175 0.950 . S
H3170 C3176 0.949 . S
C3171 H3166 0.950 . S
C3171 C3173 1.327 . S
C3171 C3177 1.429 . S
C3172 C3164 1.574 . S
C3172 H3167 0.949 . S
C3172 C3178 1.368 1_655 S
C3173 C3157 1.349 . S
C3173 H3165 0.950 . S
C3173 C3171 1.327 . S
C3174 C3162 1.349 1_655 S
C3174 H3168 0.950 . S
C3174 C3175 1.327 . S
C3175 H3169 0.950 . S
C3175 C3174 1.327 . S
C3175 C3179 1.429 1_655 S
C3176 C3159 1.574 . S
C3176 H3170 0.949 . S
C3176 C3180 1.368 . S
C3177 C3158 1.429 1_455 S
C3177 C3171 1.429 . S
C3177 C3178 1.523 . S
C3178 C3159 1.368 . S
C3178 C3172 1.368 1_455 S
C3178 C3177 1.523 . S
C3179 C3163 1.429 . S
C3179 C3175 1.429 1_455 S
C3179 C3180 1.523 . S
C3180 C3164 1.368 1_455 S
C3180 C3176 1.368 . S
C3180 C3179 1.523 . S
H3181 C3156 0.950 . S
H3182 C3158 0.950 . S
H3183 C3159 0.949 . S
H3184 C3161 0.950 . S
H3185 C3163 0.950 . S
C3186 C3187 1.349 . S
C3186 C3188 1.327 . S
C3186 H3211 0.950 . S
C3187 C3186 1.349 . S
C3187 C3203 1.349 . S
C3188 C3186 1.327 . S
C3188 C3207 1.429 . S
C3188 H3212 0.950 . S
C3189 C3206 1.574 . S
C3189 C3208 1.368 . S
C3189 H3213 0.949 . S
H3190 C3194 0.949 . S
C3191 C3192 1.349 . S
C3191 C3193 1.327 . S
C3191 H3214 0.950 . S
C3192 C3191 1.349 . S
C3192 C3204 1.349 . S
C3193 C3191 1.327 . S
C3193 C3209 1.429 . S
C3193 H3215 0.950 . S
C3194 H3190 0.949 . S
C3194 C3202 1.574 . S
C3194 C3210 1.368 . S
H3195 C3203 0.950 . S
H3196 C3201 0.950 . S
H3197 C3202 0.949 . S
H3198 C3204 0.950 . S
H3199 C3205 0.950 . S
H3200 C3206 0.949 . S
C3201 H3196 0.950 . S
C3201 C3203 1.327 . S
C3201 C3207 1.429 . S
C3202 C3194 1.574 . S
C3202 H3197 0.949 . S
C3202 C3208 1.368 . S
C3203 C3187 1.349 . S
C3203 H3195 0.950 . S
C3203 C3201 1.327 . S
C3204 C3192 1.349 . S
C3204 H3198 0.950 . S
C3204 C3205 1.327 . S
C3205 H3199 0.950 . S
C3205 C3204 1.327 . S
C3205 C3209 1.429 . S
C3206 C3189 1.574 . S
C3206 H3200 0.949 . S
C3206 C3210 1.368 . S
C3207 C3188 1.429 . S
C3207 C3201 1.429 . S
C3207 C3208 1.523 . S
C3208 C3189 1.368 . S
C3208 C3202 1.368 . S
C3208 C3207 1.523 . S
C3209 C3193 1.429 . S
C3209 C3205 1.429 . S
C3209 C3210 1.523 . S
C3210 C3194 1.368 . S
C3210 C3206 1.368 . S
C3210 C3209 1.523 . S
H3211 C3186 0.950 . S
H3212 C3188 0.950 . S
H3213 C3189 0.949 . S
H3214 C3191 0.950 . S
H3215 C3193 0.950 . S
C3216 C3217 1.349 . S
C3216 C3218 1.327 . S
C3216 H3241 0.950 . S
C3217 C3216 1.349 . S
C3217 C3233 1.349 . S
C3218 C3216 1.327 . S
C3218 C3237 1.429 . S
C3218 H3242 0.950 . S
C3219 C3236 1.574 . S
C3219 C3238 1.368 . S
C3219 H3243 0.949 . S
H3220 C3224 0.949 . S
C3221 C3222 1.349 . S
C3221 C3223 1.327 . S
C3221 H3244 0.950 . S
C3222 C3221 1.349 . S
C3222 C3234 1.349 . S
C3223 C3221 1.327 . S
C3223 C3239 1.429 . S
C3223 H3245 0.950 . S
C3224 H3220 0.949 . S
C3224 C3232 1.574 . S
C3224 C3240 1.368 . S
H3225 C3233 0.950 . S
H3226 C3231 0.950 . S
H3227 C3232 0.949 . S
H3228 C3234 0.950 . S
H3229 C3235 0.950 . S
H3230 C3236 0.949 . S
C3231 H3226 0.950 . S
C3231 C3233 1.327 . S
C3231 C3237 1.429 . S
C3232 C3224 1.574 . S
C3232 H3227 0.949 . S
C3232 C3238 1.368 . S
C3233 C3217 1.349 . S
C3233 H3225 0.950 . S
C3233 C3231 1.327 . S
C3234 C3222 1.349 . S
C3234 H3228 0.950 . S
C3234 C3235 1.327 . S
C3235 H3229 0.950 . S
C3235 C3234 1.327 . S
C3235 C3239 1.429 . S
C3236 C3219 1.574 . S
C3236 H3230 0.949 . S
C3236 C3240 1.368 . S
C3237 C3218 1.429 . S
C3237 C3231 1.429 . S
C3237 C3238 1.523 . S
C3238 C3219 1.368 . S
C3238 C3232 1.368 . S
C3238 C3237 1.523 . S
C3239 C3223 1.429 . S
C3239 C3235 1.429 . S
C3239 C3240 1.523 . S
C3240 C3224 1.368 . S
C3240 C3236 1.368 . S
C3240 C3239 1.523 . S
H3241 C3216 0.950 . S
H3242 C3218 0.950 . S
H3243 C3219 0.949 . S
H3244 C3221 0.950 . S
H3245 C3223 0.950 . S
C3246 C3247 1.349 . S
C3246 C3248 1.327 . S
C3246 H3271 0.950 . S
C3247 C3246 1.349 . S
C3247 C3263 1.349 . S
C3248 C3246 1.327 . S
C3248 C3267 1.429 . S
C3248 H3272 0.950 . S
C3249 C3266 1.574 . S
C3249 C3268 1.368 . S
C3249 H3273 0.949 . S
H3250 C3254 0.949 . S
C3251 C3252 1.349 . S
C3251 C3253 1.327 . S
C3251 H3274 0.950 . S
C3252 C3251 1.349 . S
C3252 C3264 1.349 . S
C3253 C3251 1.327 . S
C3253 C3269 1.429 . S
C3253 H3275 0.950 . S
C3254 H3250 0.949 . S
C3254 C3262 1.574 . S
C3254 C3270 1.368 . S
H3255 C3263 0.950 . S
H3256 C3261 0.950 . S
H3257 C3262 0.949 . S
H3258 C3264 0.950 . S
H3259 C3265 0.950 . S
H3260 C3266 0.949 . S
C3261 H3256 0.950 . S
C3261 C3263 1.327 . S
C3261 C3267 1.429 . S
C3262 C3254 1.574 . S
C3262 H3257 0.949 . S
C3262 C3268 1.368 . S
C3263 C3247 1.349 . S
C3263 H3255 0.950 . S
C3263 C3261 1.327 . S
C3264 C3252 1.349 . S
C3264 H3258 0.950 . S
C3264 C3265 1.327 . S
C3265 H3259 0.950 . S
C3265 C3264 1.327 . S
C3265 C3269 1.429 . S
C3266 C3249 1.574 . S
C3266 H3260 0.949 . S
C3266 C3270 1.368 . S
C3267 C3248 1.429 . S
C3267 C3261 1.429 . S
C3267 C3268 1.523 . S
C3268 C3249 1.368 . S
C3268 C3262 1.368 . S
C3268 C3267 1.523 . S
C3269 C3253 1.429 . S
C3269 C3265 1.429 . S
C3269 C3270 1.523 . S
C3270 C3254 1.368 . S
C3270 C3266 1.368 . S
C3270 C3269 1.523 . S
H3271 C3246 0.950 . S
H3272 C3248 0.950 . S
H3273 C3249 0.949 . S
H3274 C3251 0.950 . S
H3275 C3253 0.950 . S
C3276 C3277 1.349 . S
C3276 C3278 1.327 . S
C3276 H3301 0.950 . S
C3277 C3276 1.349 . S
C3277 C3293 1.349 . S
C3278 C3276 1.327 . S
C3278 C3297 1.429 . S
C3278 H3302 0.950 . S
C3279 C3296 1.574 . S
C3279 C3298 1.368 . S
C3279 H3303 0.949 . S
H3280 C3284 0.949 . S
C3281 C3282 1.349 . S
C3281 C3283 1.327 . S
C3281 H3304 0.950 . S
C3282 C3281 1.349 . S
C3282 C3294 1.349 . S
C3283 C3281 1.327 . S
C3283 C3299 1.429 . S
C3283 H3305 0.950 . S
C3284 H3280 0.949 . S
C3284 C3292 1.574 . S
C3284 C3300 1.368 . S
H3285 C3293 0.950 . S
H3286 C3291 0.950 . S
H3287 C3292 0.949 . S
H3288 C3294 0.950 . S
H3289 C3295 0.950 . S
H3290 C3296 0.949 . S
C3291 H3286 0.950 . S
C3291 C3293 1.327 . S
C3291 C3297 1.429 . S
C3292 C3284 1.574 . S
C3292 H3287 0.949 . S
C3292 C3298 1.368 . S
C3293 C3277 1.349 . S
C3293 H3285 0.950 . S
C3293 C3291 1.327 . S
C3294 C3282 1.349 . S
C3294 H3288 0.950 . S
C3294 C3295 1.327 . S
C3295 H3289 0.950 . S
C3295 C3294 1.327 . S
C3295 C3299 1.429 . S
C3296 C3279 1.574 . S
C3296 H3290 0.949 . S
C3296 C3300 1.368 . S
C3297 C3278 1.429 . S
C3297 C3291 1.429 . S
C3297 C3298 1.523 . S
C3298 C3279 1.368 . S
C3298 C3292 1.368 . S
C3298 C3297 1.523 . S
C3299 C3283 1.429 . S
C3299 C3295 1.429 . S
C3299 C3300 1.523 . S
C3300 C3284 1.368 . S
C3300 C3296 1.368 . S
C3300 C3299 1.523 . S
H3301 C3276 0.950 . S
H3302 C3278 0.950 . S
H3303 C3279 0.949 . S
H3304 C3281 0.950 . S
H3305 C3283 0.950 . S
C3306 C3307 1.349 . S
C3306 C3308 1.327 . S
C3306 H3331 0.950 . S
C3307 C3306 1.349 . S
C3307 C3323 1.349 . S
C3308 C3306 1.327 . S
C3308 C3327 1.429 . S
C3308 H3332 0.950 . S
C3309 C3326 1.574 . S
C3309 C3328 1.368 . S
C3309 H3333 0.949 . S
H3310 C3314 0.949 . S
C3311 C3312 1.349 . S
C3311 C3313 1.327 . S
C3311 H3334 0.950 . S
C3312 C3311 1.349 . S
C3312 C3324 1.349 . S
C3313 C3311 1.327 . S
C3313 C3329 1.429 . S
C3313 H3335 0.950 . S
C3314 H3310 0.949 . S
C3314 C3322 1.574 . S
C3314 C3330 1.368 . S
H3315 C3323 0.950 . S
H3316 C3321 0.950 . S
H3317 C3322 0.949 . S
H3318 C3324 0.950 . S
H3319 C3325 0.950 . S
H3320 C3326 0.949 . S
C3321 H3316 0.950 . S
C3321 C3323 1.327 . S
C3321 C3327 1.429 . S
C3322 C3314 1.574 . S
C3322 H3317 0.949 . S
C3322 C3328 1.368 . S
C3323 C3307 1.349 . S
C3323 H3315 0.950 . S
C3323 C3321 1.327 . S
C3324 C3312 1.349 . S
C3324 H3318 0.950 . S
C3324 C3325 1.327 . S
C3325 H3319 0.950 . S
C3325 C3324 1.327 . S
C3325 C3329 1.429 . S
C3326 C3309 1.574 . S
C3326 H3320 0.949 . S
C3326 C3330 1.368 . S
C3327 C3308 1.429 . S
C3327 C3321 1.429 . S
C3327 C3328 1.523 . S
C3328 C3309 1.368 . S
C3328 C3322 1.368 . S
C3328 C3327 1.523 . S
C3329 C3313 1.429 . S
C3329 C3325 1.429 . S
C3329 C3330 1.523 . S
C3330 C3314 1.368 . S
C3330 C3326 1.368 . S
C3330 C3329 1.523 . S
H3331 C3306 0.950 . S
H3332 C3308 0.950 . S
H3333 C3309 0.949 . S
H3334 C3311 0.950 . S
H3335 C3313 0.950 . S
C3336 C3337 1.349 . S
C3336 C3338 1.327 . S
C3336 H3361 0.950 . S
C3337 C3336 1.349 . S
C3337 C3353 1.349 . S
C3338 C3336 1.327 . S
C3338 C3357 1.429 . S
C3338 H3362 0.950 . S
C3339 C3356 1.574 . S
C3339 C3358 1.368 . S
C3339 H3363 0.949 . S
H3340 C3344 0.949 . S
C3341 C3342 1.349 . S
C3341 C3343 1.327 . S
C3341 H3364 0.950 . S
C3342 C3341 1.349 . S
C3342 C3354 1.349 . S
C3343 C3341 1.327 . S
C3343 C3359 1.429 . S
C3343 H3365 0.950 . S
C3344 H3340 0.949 . S
C3344 C3352 1.574 . S
C3344 C3360 1.368 . S
H3345 C3353 0.950 . S
H3346 C3351 0.950 . S
H3347 C3352 0.949 . S
H3348 C3354 0.950 . S
H3349 C3355 0.950 . S
H3350 C3356 0.949 . S
C3351 H3346 0.950 . S
C3351 C3353 1.327 . S
C3351 C3357 1.429 . S
C3352 C3344 1.574 . S
C3352 H3347 0.949 . S
C3352 C3358 1.368 . S
C3353 C3337 1.349 . S
C3353 H3345 0.950 . S
C3353 C3351 1.327 . S
C3354 C3342 1.349 . S
C3354 H3348 0.950 . S
C3354 C3355 1.327 . S
C3355 H3349 0.950 . S
C3355 C3354 1.327 . S
C3355 C3359 1.429 . S
C3356 C3339 1.574 . S
C3356 H3350 0.949 . S
C3356 C3360 1.368 . S
C3357 C3338 1.429 . S
C3357 C3351 1.429 . S
C3357 C3358 1.523 . S
C3358 C3339 1.368 . S
C3358 C3352 1.368 . S
C3358 C3357 1.523 . S
C3359 C3343 1.429 . S
C3359 C3355 1.429 . S
C3359 C3360 1.523 . S
C3360 C3344 1.368 . S
C3360 C3356 1.368 . S
C3360 C3359 1.523 . S
H3361 C3336 0.950 . S
H3362 C3338 0.950 . S
H3363 C3339 0.949 . S
H3364 C3341 0.950 . S
H3365 C3343 0.950 . S
C3366 C3367 1.349 . S
C3366 C3368 1.327 . S
C3366 H3391 0.950 . S
C3367 C3366 1.349 . S
C3367 C3383 1.349 . S
C3368 C3366 1.327 . S
C3368 C3387 1.429 . S
C3368 H3392 0.950 . S
C3369 C3386 1.574 . S
C3369 C3388 1.368 . S
C3369 H3393 0.949 . S
H3370 C3374 0.949 . S
C3371 C3372 1.349 . S
C3371 C3373 1.327 . S
C3371 H3394 0.950 . S
C3372 C3371 1.349 . S
C3372 C3384 1.349 . S
C3373 C3371 1.327 . S
C3373 C3389 1.429 . S
C3373 H3395 0.950 . S
C3374 H3370 0.949 . S
C3374 C3382 1.574 . S
C3374 C3390 1.368 . S
H3375 C3383 0.950 . S
H3376 C3381 0.950 . S
H3377 C3382 0.949 . S
H3378 C3384 0.950 . S
H3379 C3385 0.950 . S
H3380 C3386 0.949 . S
C3381 H3376 0.950 . S
C3381 C3383 1.327 . S
C3381 C3387 1.429 . S
C3382 C3374 1.574 . S
C3382 H3377 0.949 . S
C3382 C3388 1.368 . S
C3383 C3367 1.349 . S
C3383 H3375 0.950 . S
C3383 C3381 1.327 . S
C3384 C3372 1.349 . S
C3384 H3378 0.950 . S
C3384 C3385 1.327 . S
C3385 H3379 0.950 . S
C3385 C3384 1.327 . S
C3385 C3389 1.429 . S
C3386 C3369 1.574 . S
C3386 H3380 0.949 . S
C3386 C3390 1.368 . S
C3387 C3368 1.429 . S
C3387 C3381 1.429 . S
C3387 C3388 1.523 . S
C3388 C3369 1.368 . S
C3388 C3382 1.368 . S
C3388 C3387 1.523 . S
C3389 C3373 1.429 . S
C3389 C3385 1.429 . S
C3389 C3390 1.523 . S
C3390 C3374 1.368 . S
C3390 C3386 1.368 . S
C3390 C3389 1.523 . S
H3391 C3366 0.950 . S
H3392 C3368 0.950 . S
H3393 C3369 0.949 . S
H3394 C3371 0.950 . S
H3395 C3373 0.950 . S
C3396 C3397 1.349 . S
C3396 C3398 1.327 . S
C3396 H3421 0.950 . S
C3397 C3396 1.349 . S
C3397 C3413 1.349 . S
C3398 C3396 1.327 . S
C3398 C3417 1.429 . S
C3398 H3422 0.950 . S
C3399 C3416 1.574 . S
C3399 C3418 1.368 . S
C3399 H3423 0.949 . S
H3400 C3404 0.949 . S
C3401 C3402 1.349 . S
C3401 C3403 1.327 . S
C3401 H3424 0.950 . S
C3402 C3401 1.349 . S
C3402 C3414 1.349 . S
C3403 C3401 1.327 . S
C3403 C3419 1.429 . S
C3403 H3425 0.950 . S
C3404 H3400 0.949 . S
C3404 C3412 1.574 . S
C3404 C3420 1.368 . S
H3405 C3413 0.950 . S
H3406 C3411 0.950 . S
H3407 C3412 0.949 . S
H3408 C3414 0.950 . S
H3409 C3415 0.950 . S
H3410 C3416 0.949 . S
C3411 H3406 0.950 . S
C3411 C3413 1.327 . S
C3411 C3417 1.429 . S
C3412 C3404 1.574 . S
C3412 H3407 0.949 . S
C3412 C3418 1.368 . S
C3413 C3397 1.349 . S
C3413 H3405 0.950 . S
C3413 C3411 1.327 . S
C3414 C3402 1.349 . S
C3414 H3408 0.950 . S
C3414 C3415 1.327 . S
C3415 H3409 0.950 . S
C3415 C3414 1.327 . S
C3415 C3419 1.429 . S
C3416 C3399 1.574 . S
C3416 H3410 0.949 . S
C3416 C3420 1.368 . S
C3417 C3398 1.429 . S
C3417 C3411 1.429 . S
C3417 C3418 1.523 . S
C3418 C3399 1.368 . S
C3418 C3412 1.368 . S
C3418 C3417 1.523 . S
C3419 C3403 1.429 . S
C3419 C3415 1.429 . S
C3419 C3420 1.523 . S
C3420 C3404 1.368 . S
C3420 C3416 1.368 . S
C3420 C3419 1.523 . S
H3421 C3396 0.950 . S
H3422 C3398 0.950 . S
H3423 C3399 0.949 . S
H3424 C3401 0.950 . S
H3425 C3403 0.950 . S
C3426 C3427 1.349 . S
C3426 C3428 1.327 . S
C3426 H3451 0.950 . S
C3427 C3426 1.349 . S
C3427 C3443 1.349 . S
C3428 C3426 1.327 . S
C3428 C3447 1.429 . S
C3428 H3452 0.950 . S
C3429 C3446 1.574 . S
C3429 C3448 1.368 . S
C3429 H3453 0.949 . S
H3430 C3434 0.949 . S
C3431 C3432 1.349 . S
C3431 C3433 1.327 . S
C3431 H3454 0.950 . S
C3432 C3431 1.349 . S
C3432 C3444 1.349 . S
C3433 C3431 1.327 . S
C3433 C3449 1.429 . S
C3433 H3455 0.950 . S
C3434 H3430 0.949 . S
C3434 C3442 1.574 . S
C3434 C3450 1.368 . S
H3435 C3443 0.950 . S
H3436 C3441 0.950 . S
H3437 C3442 0.949 . S
H3438 C3444 0.950 . S
H3439 C3445 0.950 . S
H3440 C3446 0.949 . S
C3441 H3436 0.950 . S
C3441 C3443 1.327 . S
C3441 C3447 1.429 . S
C3442 C3434 1.574 . S
C3442 H3437 0.949 . S
C3442 C3448 1.368 . S
C3443 C3427 1.349 . S
C3443 H3435 0.950 . S
C3443 C3441 1.327 . S
C3444 C3432 1.349 . S
C3444 H3438 0.950 . S
C3444 C3445 1.327 . S
C3445 H3439 0.950 . S
C3445 C3444 1.327 . S
C3445 C3449 1.429 . S
C3446 C3429 1.574 . S
C3446 H3440 0.949 . S
C3446 C3450 1.368 . S
C3447 C3428 1.429 . S
C3447 C3441 1.429 . S
C3447 C3448 1.523 . S
C3448 C3429 1.368 . S
C3448 C3442 1.368 . S
C3448 C3447 1.523 . S
C3449 C3433 1.429 . S
C3449 C3445 1.429 . S
C3449 C3450 1.523 . S
C3450 C3434 1.368 . S
C3450 C3446 1.368 . S
C3450 C3449 1.523 . S
H3451 C3426 0.950 . S
H3452 C3428 0.950 . S
H3453 C3429 0.949 . S
H3454 C3431 0.950 . S
H3455 C3433 0.950 . S
C3456 C3457 1.349 . S
C3456 C3458 1.327 . S
C3456 H3481 0.950 . S
C3457 C3456 1.349 . S
C3457 C3473 1.349 . S
C3458 C3456 1.327 . S
C3458 C3477 1.429 . S
C3458 H3482 0.950 . S
C3459 C3476 1.574 . S
C3459 C3478 1.368 . S
C3459 H3483 0.949 . S
H3460 C3464 0.949 . S
C3461 C3462 1.349 . S
C3461 C3463 1.327 . S
C3461 H3484 0.950 . S
C3462 C3461 1.349 . S
C3462 C3474 1.349 . S
C3463 C3461 1.327 . S
C3463 C3479 1.429 . S
C3463 H3485 0.950 . S
C3464 H3460 0.949 . S
C3464 C3472 1.574 . S
C3464 C3480 1.368 . S
H3465 C3473 0.950 . S
H3466 C3471 0.950 . S
H3467 C3472 0.949 . S
H3468 C3474 0.950 . S
H3469 C3475 0.950 . S
H3470 C3476 0.949 . S
C3471 H3466 0.950 . S
C3471 C3473 1.327 . S
C3471 C3477 1.429 . S
C3472 C3464 1.574 . S
C3472 H3467 0.949 . S
C3472 C3478 1.368 . S
C3473 C3457 1.349 . S
C3473 H3465 0.950 . S
C3473 C3471 1.327 . S
C3474 C3462 1.349 . S
C3474 H3468 0.950 . S
C3474 C3475 1.327 . S
C3475 H3469 0.950 . S
C3475 C3474 1.327 . S
C3475 C3479 1.429 . S
C3476 C3459 1.574 . S
C3476 H3470 0.949 . S
C3476 C3480 1.368 . S
C3477 C3458 1.429 . S
C3477 C3471 1.429 . S
C3477 C3478 1.523 . S
C3478 C3459 1.368 . S
C3478 C3472 1.368 . S
C3478 C3477 1.523 . S
C3479 C3463 1.429 . S
C3479 C3475 1.429 . S
C3479 C3480 1.523 . S
C3480 C3464 1.368 . S
C3480 C3476 1.368 . S
C3480 C3479 1.523 . S
H3481 C3456 0.950 . S
H3482 C3458 0.950 . S
H3483 C3459 0.949 . S
H3484 C3461 0.950 . S
H3485 C3463 0.950 . S
C3486 C3487 1.349 . S
C3486 C3488 1.327 . S
C3486 H3511 0.950 . S
C3487 C3486 1.349 . S
C3487 C3503 1.349 . S
C3488 C3486 1.327 . S
C3488 C3507 1.429 . S
C3488 H3512 0.950 . S
C3489 C3506 1.574 . S
C3489 C3508 1.368 . S
C3489 H3513 0.949 . S
H3490 C3494 0.949 . S
C3491 C3492 1.349 . S
C3491 C3493 1.327 . S
C3491 H3514 0.950 . S
C3492 C3491 1.349 . S
C3492 C3504 1.349 . S
C3493 C3491 1.327 . S
C3493 C3509 1.429 . S
C3493 H3515 0.950 . S
C3494 H3490 0.949 . S
C3494 C3502 1.574 . S
C3494 C3510 1.368 . S
H3495 C3503 0.950 . S
H3496 C3501 0.950 . S
H3497 C3502 0.949 . S
H3498 C3504 0.950 . S
H3499 C3505 0.950 . S
H3500 C3506 0.949 . S
C3501 H3496 0.950 . S
C3501 C3503 1.327 . S
C3501 C3507 1.429 . S
C3502 C3494 1.574 . S
C3502 H3497 0.949 . S
C3502 C3508 1.368 . S
C3503 C3487 1.349 . S
C3503 H3495 0.950 . S
C3503 C3501 1.327 . S
C3504 C3492 1.349 . S
C3504 H3498 0.950 . S
C3504 C3505 1.327 . S
C3505 H3499 0.950 . S
C3505 C3504 1.327 . S
C3505 C3509 1.429 . S
C3506 C3489 1.574 . S
C3506 H3500 0.949 . S
C3506 C3510 1.368 . S
C3507 C3488 1.429 . S
C3507 C3501 1.429 . S
C3507 C3508 1.523 . S
C3508 C3489 1.368 . S
C3508 C3502 1.368 . S
C3508 C3507 1.523 . S
C3509 C3493 1.429 . S
C3509 C3505 1.429 . S
C3509 C3510 1.523 . S
C3510 C3494 1.368 . S
C3510 C3506 1.368 . S
C3510 C3509 1.523 . S
H3511 C3486 0.950 . S
H3512 C3488 0.950 . S
H3513 C3489 0.949 . S
H3514 C3491 0.950 . S
H3515 C3493 0.950 . S
C3516 C3517 1.349 . S
C3516 C3518 1.327 . S
C3516 H3541 0.950 . S
C3517 C3516 1.349 . S
C3517 C3533 1.349 . S
C3518 C3516 1.327 . S
C3518 C3537 1.429 . S
C3518 H3542 0.950 . S
C3519 C3536 1.574 . S
C3519 C3538 1.368 . S
C3519 H3543 0.949 . S
H3520 C3524 0.949 . S
C3521 C3522 1.349 . S
C3521 C3523 1.327 . S
C3521 H3544 0.950 . S
C3522 C3521 1.349 . S
C3522 C3534 1.349 . S
C3523 C3521 1.327 . S
C3523 C3539 1.429 . S
C3523 H3545 0.950 . S
C3524 H3520 0.949 . S
C3524 C3532 1.574 . S
C3524 C3540 1.368 . S
H3525 C3533 0.950 . S
H3526 C3531 0.950 . S
H3527 C3532 0.949 . S
H3528 C3534 0.950 . S
H3529 C3535 0.950 . S
H3530 C3536 0.949 . S
C3531 H3526 0.950 . S
C3531 C3533 1.327 . S
C3531 C3537 1.429 . S
C3532 C3524 1.574 . S
C3532 H3527 0.949 . S
C3532 C3538 1.368 . S
C3533 C3517 1.349 . S
C3533 H3525 0.950 . S
C3533 C3531 1.327 . S
C3534 C3522 1.349 . S
C3534 H3528 0.950 . S
C3534 C3535 1.327 . S
C3535 H3529 0.950 . S
C3535 C3534 1.327 . S
C3535 C3539 1.429 . S
C3536 C3519 1.574 . S
C3536 H3530 0.949 . S
C3536 C3540 1.368 . S
C3537 C3518 1.429 . S
C3537 C3531 1.429 . S
C3537 C3538 1.523 . S
C3538 C3519 1.368 . S
C3538 C3532 1.368 . S
C3538 C3537 1.523 . S
C3539 C3523 1.429 . S
C3539 C3535 1.429 . S
C3539 C3540 1.523 . S
C3540 C3524 1.368 . S
C3540 C3536 1.368 . S
C3540 C3539 1.523 . S
H3541 C3516 0.950 . S
H3542 C3518 0.950 . S
H3543 C3519 0.949 . S
H3544 C3521 0.950 . S
H3545 C3523 0.950 . S
C3546 C3547 1.349 . S
C3546 C3548 1.327 . S
C3546 H3571 0.950 . S
C3547 C3546 1.349 . S
C3547 C3563 1.349 . S
C3548 C3546 1.327 . S
C3548 C3567 1.429 . S
C3548 H3572 0.950 . S
C3549 C3566 1.574 . S
C3549 C3568 1.368 . S
C3549 H3573 0.949 1_554 S
H3550 C3554 0.949 . S
C3551 C3552 1.325 1_565 S
C3551 C3553 1.326 . S
C3551 H3574 0.939 1_554 S
C3552 C3551 1.325 1_545 S
C3552 C3564 1.364 . S
C3553 C3551 1.326 . S
C3553 C3569 1.459 . S
C3553 H3575 0.921 1_554 S
C3554 H3550 0.949 . S
C3554 C3562 1.574 . S
C3554 C3570 1.368 . S
H3555 C3563 0.950 1_556 S
H3556 C3561 0.950 1_556 S
H3557 C3562 0.949 . S
H3558 C3564 0.950 . S
H3559 C3565 0.950 1_545 S
H3560 C3566 0.949 1_556 S
C3561 H3556 0.950 1_554 S
C3561 C3563 1.327 . S
C3561 C3567 1.429 . S
C3562 C3554 1.574 . S
C3562 H3557 0.949 . S
C3562 C3568 1.368 . S
C3563 C3547 1.349 . S
C3563 H3555 0.950 1_554 S
C3563 C3561 1.327 . S
C3564 C3552 1.364 . S
C3564 H3558 0.950 . S
C3564 C3565 1.327 1_545 S
C3565 H3559 0.950 1_565 S
C3565 C3564 1.327 1_565 S
C3565 C3569 1.429 . S
C3566 C3549 1.574 . S
C3566 H3560 0.949 1_554 S
C3566 C3570 1.368 . S
C3567 C3548 1.429 . S
C3567 C3561 1.429 . S
C3567 C3568 1.523 . S
C3568 C3549 1.368 . S
C3568 C3562 1.368 . S
C3568 C3567 1.523 . S
C3569 C3553 1.459 . S
C3569 C3565 1.429 . S
C3569 C3570 1.523 . S
C3570 C3554 1.368 . S
C3570 C3566 1.368 . S
C3570 C3569 1.523 . S
H3571 C3546 0.950 . S
H3572 C3548 0.950 . S
H3573 C3549 0.949 1_556 S
H3574 C3551 0.939 1_556 S
H3575 C3553 0.921 1_556 S
C3576 C3577 1.349 . S
C3576 C3578 1.327 . S
C3576 H3601 0.950 . S
C3577 C3576 1.349 . S
C3577 C3593 1.349 . S
C3578 C3576 1.327 . S
C3578 C3597 1.429 . S
C3578 H3602 0.950 . S
C3579 C3596 1.574 . S
C3579 C3598 1.368 . S
C3579 H3603 0.949 . S
H3580 C3584 0.949 . S
C3581 C3582 1.349 . S
C3581 C3583 1.327 . S
C3581 H3604 0.950 . S
C3582 C3581 1.349 . S
C3582 C3594 1.349 . S
C3583 C3581 1.327 . S
C3583 C3599 1.429 . S
C3583 H3605 0.950 . S
C3584 H3580 0.949 . S
C3584 C3592 1.574 . S
C3584 C3600 1.368 . S
H3585 C3593 0.950 . S
H3586 C3591 0.950 . S
H3587 C3592 0.949 . S
H3588 C3594 0.950 . S
H3589 C3595 0.950 . S
H3590 C3596 0.949 . S
C3591 H3586 0.950 . S
C3591 C3593 1.327 . S
C3591 C3597 1.429 . S
C3592 C3584 1.574 . S
C3592 H3587 0.949 . S
C3592 C3598 1.368 . S
C3593 C3577 1.349 . S
C3593 H3585 0.950 . S
C3593 C3591 1.327 . S
C3594 C3582 1.349 . S
C3594 H3588 0.950 . S
C3594 C3595 1.327 . S
C3595 H3589 0.950 . S
C3595 C3594 1.327 . S
C3595 C3599 1.429 . S
C3596 C3579 1.574 . S
C3596 H3590 0.949 . S
C3596 C3600 1.368 . S
C3597 C3578 1.429 . S
C3597 C3591 1.429 . S
C3597 C3598 1.523 . S
C3598 C3579 1.368 . S
C3598 C3592 1.368 . S
C3598 C3597 1.523 . S
C3599 C3583 1.429 . S
C3599 C3595 1.429 . S
C3599 C3600 1.523 . S
C3600 C3584 1.368 . S
C3600 C3596 1.368 . S
C3600 C3599 1.523 . S
H3601 C3576 0.950 . S
H3602 C3578 0.950 . S
H3603 C3579 0.949 . S
H3604 C3581 0.950 . S
H3605 C3583 0.950 . S
C3606 C3607 1.349 . S
C3606 C3608 1.327 . S
C3606 H3631 0.950 . S
C3607 C3606 1.349 . S
C3607 C3623 1.349 1_554 S
C3608 C3606 1.327 . S
C3608 C3627 1.429 . S
C3608 H3632 0.950 . S
C3609 C3626 1.574 . S
C3609 C3628 1.368 . S
C3609 H3633 0.949 . S
H3610 C3614 0.949 . S
C3611 C3612 1.349 . S
C3611 C3613 1.327 . S
C3611 H3634 0.950 . S
C3612 C3611 1.349 . S
C3612 C3624 1.349 . S
C3613 C3611 1.327 . S
C3613 C3629 1.429 . S
C3613 H3635 0.950 . S
C3614 H3610 0.949 . S
C3614 C3622 1.574 . S
C3614 C3630 1.368 . S
H3615 C3623 0.950 . S
H3616 C3621 0.939 1_556 S
H3617 C3622 0.949 . S
H3618 C3624 0.950 . S
H3619 C3625 0.950 . S
H3620 C3626 0.949 . S
C3621 H3616 0.939 1_554 S
C3621 C3623 1.322 1_554 S
C3621 C3627 1.446 . S
C3622 C3614 1.574 . S
C3622 H3617 0.949 . S
C3622 C3628 1.368 . S
C3623 C3607 1.349 1_556 S
C3623 H3615 0.950 . S
C3623 C3621 1.322 1_556 S
C3624 C3612 1.349 . S
C3624 H3618 0.950 . S
C3624 C3625 1.327 . S
C3625 H3619 0.950 . S
C3625 C3624 1.327 . S
C3625 C3629 1.429 . S
C3626 C3609 1.574 . S
C3626 H3620 0.949 . S
C3626 C3630 1.368 . S
C3627 C3608 1.429 . S
C3627 C3621 1.446 . S
C3627 C3628 1.523 . S
C3628 C3609 1.368 . S
C3628 C3622 1.368 . S
C3628 C3627 1.523 . S
C3629 C3613 1.429 . S
C3629 C3625 1.429 . S
C3629 C3630 1.523 . S
C3630 C3614 1.368 . S
C3630 C3626 1.368 . S
C3630 C3629 1.523 . S
H3631 C3606 0.950 . S
H3632 C3608 0.950 . S
H3633 C3609 0.949 . S
H3634 C3611 0.950 . S
H3635 C3613 0.950 . S
C3636 C3637 1.349 . S
C3636 C3638 1.327 . S
C3636 H3661 0.950 . S
C3637 C3636 1.349 . S
C3637 C3653 1.349 . S
C3638 C3636 1.327 . S
C3638 C3657 1.429 . S
C3638 H3662 0.950 . S
C3639 C3656 1.574 . S
C3639 C3658 1.368 . S
C3639 H3663 0.949 . S
H3640 C3644 0.949 . S
C3641 C3642 1.349 . S
C3641 C3643 1.327 . S
C3641 H3664 0.950 . S
C3642 C3641 1.349 . S
C3642 C3654 1.349 . S
C3643 C3641 1.327 . S
C3643 C3659 1.429 . S
C3643 H3665 0.950 . S
C3644 H3640 0.949 . S
C3644 C3652 1.574 . S
C3644 C3660 1.368 . S
H3645 C3653 0.950 . S
H3646 C3651 0.950 . S
H3647 C3652 0.949 . S
H3648 C3654 0.950 . S
H3649 C3655 0.950 . S
H3650 C3656 0.949 . S
C3651 H3646 0.950 . S
C3651 C3653 1.327 . S
C3651 C3657 1.429 . S
C3652 C3644 1.574 . S
C3652 H3647 0.949 . S
C3652 C3658 1.368 . S
C3653 C3637 1.349 . S
C3653 H3645 0.950 . S
C3653 C3651 1.327 . S
C3654 C3642 1.349 . S
C3654 H3648 0.950 . S
C3654 C3655 1.327 . S
C3655 H3649 0.950 . S
C3655 C3654 1.327 . S
C3655 C3659 1.429 . S
C3656 C3639 1.574 . S
C3656 H3650 0.949 . S
C3656 C3660 1.368 . S
C3657 C3638 1.429 . S
C3657 C3651 1.429 . S
C3657 C3658 1.523 . S
C3658 C3639 1.368 . S
C3658 C3652 1.368 . S
C3658 C3657 1.523 . S
C3659 C3643 1.429 . S
C3659 C3655 1.429 . S
C3659 C3660 1.523 . S
C3660 C3644 1.368 . S
C3660 C3656 1.368 . S
C3660 C3659 1.523 . S
H3661 C3636 0.950 . S
H3662 C3638 0.950 . S
H3663 C3639 0.949 . S
H3664 C3641 0.950 . S
H3665 C3643 0.950 . S
C3666 C3667 1.349 . S
C3666 C3668 1.327 . S
C3666 H3691 0.950 . S
C3667 C3666 1.349 . S
C3667 C3683 1.349 . S
C3668 C3666 1.327 . S
C3668 C3687 1.429 . S
C3668 H3692 0.950 . S
C3669 C3686 1.574 . S
C3669 C3688 1.368 . S
C3669 H3693 0.949 . S
H3670 C3674 0.949 . S
C3671 C3672 1.349 . S
C3671 C3673 1.327 . S
C3671 H3694 0.950 . S
C3672 C3671 1.349 . S
C3672 C3684 1.349 . S
C3673 C3671 1.327 . S
C3673 C3689 1.429 . S
C3673 H3695 0.950 . S
C3674 H3670 0.949 . S
C3674 C3682 1.574 . S
C3674 C3690 1.368 . S
H3675 C3683 0.950 . S
H3676 C3681 0.950 . S
H3677 C3682 0.949 . S
H3678 C3684 0.950 . S
H3679 C3685 0.950 . S
H3680 C3686 0.949 . S
C3681 H3676 0.950 . S
C3681 C3683 1.327 . S
C3681 C3687 1.429 . S
C3682 C3674 1.574 . S
C3682 H3677 0.949 . S
C3682 C3688 1.368 . S
C3683 C3667 1.349 . S
C3683 H3675 0.950 . S
C3683 C3681 1.327 . S
C3684 C3672 1.349 . S
C3684 H3678 0.950 . S
C3684 C3685 1.327 . S
C3685 H3679 0.950 . S
C3685 C3684 1.327 . S
C3685 C3689 1.429 . S
C3686 C3669 1.574 . S
C3686 H3680 0.949 . S
C3686 C3690 1.368 . S
C3687 C3668 1.429 . S
C3687 C3681 1.429 . S
C3687 C3688 1.523 . S
C3688 C3669 1.368 . S
C3688 C3682 1.368 . S
C3688 C3687 1.523 . S
C3689 C3673 1.429 . S
C3689 C3685 1.429 . S
C3689 C3690 1.523 . S
C3690 C3674 1.368 . S
C3690 C3686 1.368 . S
C3690 C3689 1.523 . S
H3691 C3666 0.950 . S
H3692 C3668 0.950 . S
H3693 C3669 0.949 . S
H3694 C3671 0.950 . S
H3695 C3673 0.950 . S
C822 C337 1.709 . S
C817 C5 1.736 . S
C847 C23 0.920 . S
C852 C382 0.916 . S
C877 C39 1.598 . S
C882 C406 1.576 . S
C912 N432 0.915 . S
C907 C42 0.908 . S
C937 C19 1.002 . S
C942 N462 1.005 . S
C972 C496 1.518 . S
C967 C28 1.533 . S
C1002 C532 1.029 . S
C997 C53 1.031 . S
C1027 C9 1.662 . S
C1032 C556 1.642 . S
C1057 C65 0.898 . S
C1062 N350 0.897 . S
C1087 C75 0.990 . S
C1092 N372 0.993 . S
C1122 C412 0.981 . S
C1117 C93 0.986 . S
C1152 C436 1.663 . S
C1147 C109 1.686 . S
C1177 C56 1.161 . S
C1182 C466 1.151 . S
C1212 C502 0.918 . S
C1207 C81 0.919 . S
C1242 N522 0.995 . S
C1237 C84 0.986 . S
C1272 C562 1.609 . S
C1267 C103 1.625 . S
C1302 C363 1.528 . S
C1297 C107 1.538 . S
C1332 C592 0.931 . S
C1327 C121 0.936 . S
C1357 C131 1.045 . S
C1362 N612 1.047 . S
C1392 C646 1.530 . S
C1387 C140 1.547 . S
C1417 C61 0.857 . S
C1422 N552 0.856 . S
C1452 N402 0.925 1_565 S
C1447 C70 0.918 . S
C1477 C137 0.953 . S
C1482 C682 0.951 . S
C1512 C706 0.907 . S
C1507 C165 0.915 . S
C1537 C173 1.698 . S
C1542 C346 1.671 1_556 S
C1572 C723 0.865 . S
C1567 C182 0.872 . S
C1597 C207 1.565 . S
C1602 C397 1.542 . S
C1627 C219 0.895 . S
C1632 N680 0.895 . S
C1662 N470 0.968 . S
C1657 C187 0.966 . S
C1692 C607 1.494 . S
C1687 C205 1.516 . S
C1722 C543 0.998 . S
C1717 C221 0.999 . S
C1752 C727 1.600 . S
C1747 C168 1.620 . S
C1782 N342 0.857 . S
C1777 C224 0.858 . S
C1807 C243 0.950 . S
C1812 N710 0.953 . S
C1842 C423 0.917 . S
C1837 C252 0.917 . S
C1867 C277 1.644 . S
C1872 C667 1.620 . S
C1897 C233 1.162 . S
C1902 C457 1.139 1_655 S
C1927 C249 0.895 . S
C1932 C633 0.896 . S
C1962 N530 0.977 . S
C1957 C261 0.977 . S
C1987 C271 1.592 . S
C1992 C753 1.576 . S
C2017 C266 1.501 . S
C2022 C352 1.489 . S
C2047 C280 0.879 . S
C2052 C603 0.878 . S
C2077 C299 0.997 . S
C2082 N500 0.999 . S
C2107 C317 1.517 . S
C2112 C637 1.493 . S
C2142 N740 0.827 . S
C2137 C229 0.829 1_565 S
C2172 N410 0.915 . S
C2167 C247 0.915 . S
C2202 C453 0.918 . S
C2197 C305 0.920 . S
C2232 C367 0.889 . S
C2227 C333 0.898 . S
C2257 C33 1.736 . S
C2262 C757 1.709 . S
C2292 C712 0.916 . S
C2287 C51 0.920 . S
C2322 C796 1.576 . S
C2317 C11 1.598 . S
C2347 C14 0.908 1_655 S
C2352 N672 0.915 . S
C2377 C47 1.002 . S
C2382 N582 1.005 1_556 S
C2412 C616 1.518 . S
C2407 C0 1.533 . S
C2442 C652 1.029 . S
C2437 C25 1.032 . S
C2472 C736 1.642 . S
C2467 C37 1.662 . S
C2502 N770 0.897 . S
C2497 C163 0.898 . S
C2527 C117 0.990 1_556 S
C2532 N702 0.993 . S
C2557 C135 0.986 . S
C2562 C802 0.984 1_655 S
C2592 C676 1.663 . S
C2587 C151 1.686 . S
C2622 C586 1.151 . S
C2617 C154 1.161 . S
C2647 C123 0.919 . S
C2652 C622 0.919 . S
C2682 N642 1.022 . S
C2677 C126 0.986 . S
C2707 C145 1.625 . S
C2712 C742 1.609 . S
C2742 C783 1.528 . S
C2737 C149 1.538 . S
C2772 C472 0.931 . S
C2767 C79 0.936 . S
C2802 N492 1.047 . S
C2797 C89 1.044 1_565 S
C2827 C98 1.547 . S
C2832 C526 1.530 . S
C2862 N732 0.855 . S
C2857 C159 0.857 . S
C2887 C112 0.918 . S
C2892 N792 0.925 . S
C2922 C442 0.951 . S
C2917 C95 0.953 . S
C2952 C376 0.907 . S
C2947 C67 0.915 . S
C2977 C201 1.698 . S
C2982 C766 1.671 . S
C3012 C393 0.865 . S
C3007 C210 0.865 . S
C3042 C787 1.520 1_556 S
C3037 C179 1.565 . S
C3067 C191 0.895 . S
C3072 N440 0.889 . S
C3097 C215 0.965 . S
C3102 N590 0.968 . S
C3127 C177 1.516 . S
C3132 C487 1.494 . S
C3157 C193 0.999 . S
C3162 C663 0.996 . S
C3187 C196 1.619 . S
C3192 C547 1.600 . S
C3222 N762 0.857 . S
C3217 C322 0.858 . S
C3247 C285 0.950 . S
C3252 N380 0.949 . S
C3282 C813 0.917 . S
C3277 C294 0.917 . S
C3307 C319 1.644 . S
C3312 C427 1.620 . S
C3337 C331 1.162 . S
C3342 C577 1.139 . S
C3372 C513 0.896 . S
C3367 C291 0.899 . S
C3397 C303 0.976 . S
C3402 N650 0.977 . S
C3432 C573 1.576 . S
C3427 C313 1.592 . S
C3462 C772 1.488 . S
C3457 C308 1.501 . S
C3492 C483 0.880 . S
C3487 C238 0.879 . S
C3517 C257 0.997 . S
C3522 N620 0.999 . S
C3552 C517 1.515 . S
C3547 C275 1.517 . S
C3582 N560 0.827 . S
C3577 C327 0.828 . S
C3607 C289 0.917 . S
C3612 N800 0.914 . S
C3642 C693 0.918 . S
C3637 C263 0.919 . S
C3672 C697 0.889 . S
C3667 C235 0.898 . S
