# Generated by pormake.
# Topology bcu-b, (8,8)-cn, num edge types: 1
# Building blocks:
#     Node 0, Type 0, BuildingBlock: TAGTUT_clean_sbu_1, # of connection points: 8
#     Node 1, Type 1, BuildingBlock: TAGTUT_clean_sbu_3, # of connection points: 8
#     Edge 2, Type (0, 1), BuildingBlock: UVAHIK_clean_linker_0, # of connection points: 2
#     Edge 3, Type (0, 1), BuildingBlock: UVAHIK_clean_linker_0, # of connection points: 2
#     Edge 4, Type (0, 1), BuildingBlock: UVAHIK_clean_linker_0, # of connection points: 2
#     Edge 5, Type (0, 1), BuildingBlock: UVAHIK_clean_linker_0, # of connection points: 2
#     Edge 6, Type (0, 1), BuildingBlock: UVAHIK_clean_linker_0, # of connection points: 2
#     Edge 7, Type (0, 1), BuildingBlock: UVAHIK_clean_linker_0, # of connection points: 2
#     Edge 8, Type (0, 1), BuildingBlock: UVAHIK_clean_linker_0, # of connection points: 2
#     Edge 9, Type (0, 1), BuildingBlock: UVAHIK_clean_linker_0, # of connection points: 2
# Relax obj value: 0.021
# Max RMSD: 0.091
# Mean RMSD: 0.081
data_MOF--net-bcu-b--node1-TAGTUT_clean_sbu_1--node2-TAGTUT_clean_sbu_3--edge1-UVAHIK_clean_linker_0
_symmetry_space_group_name_H-M    P1
_symmetry_Int_Tables_number       1
_symmetry_cell_setting            triclinic
loop_
_symmetry_equiv_pos_as_xyz
'x, y, z'
_cell_length_a     24.720463
_cell_length_b     23.852317
_cell_length_c     26.344524
_cell_angle_alpha  91.358899
_cell_angle_beta   91.554386
_cell_angle_gamma 107.01374
loop_
_atom_site_label
_atom_site_type_symbol
_atom_site_fract_x
_atom_site_fract_y
_atom_site_fract_z
_atom_type_partial_charge
C0 C 0.89889 0.14932 0.04817 0.0
C1 C 0.94374 0.1209 0.89525 0.0
C2 C 0.90182 0.89424 0.95441 0.0
Mg3 Mg 0.00922 0.141 -0.00146 0.0
O4 O 0.97758 0.06151 0.01193 0.0
Mg5 Mg 0.89773 0.02212 0.98723 0.0
Mg6 Mg 0.01268 0.00038 0.98831 0.0
O7 O 0.04665 0.9378 0.9664 0.0
Mg8 Mg 0.01407 0.86212 -0.00872 0.0
Mg9 Mg 0.12742 0.97765 0.98815 0.0
C10 C 0.12252 0.10772 0.02963 0.0
C11 C 0.09365 0.04749 0.8936 0.0
O12 O 0.8739 0.09746 0.02983 0.0
O13 O 0.95189 0.17439 0.04278 0.0
O14 O 0.90854 0.07612 0.91388 0.0
O15 O 0.98844 0.15046 0.92013 0.0
O16 O 0.09693 0.14694 0.02212 0.0
O17 O 0.09687 0.05259 0.02414 0.0
C18 C 0.92879 0.94703 0.07929 0.0
O19 O 0.97804 0.95388 0.06142 0.0
O20 O 0.89261 0.96919 0.05841 0.0
O21 O 0.14627 0.89628 0.94852 0.0
O22 O 0.06535 0.82147 0.94698 0.0
O23 O 0.12129 0.93246 0.06404 0.0
C24 C 0.1174 0.84315 0.93577 0.0
O25 O 0.04077 0.86103 0.07081 0.0
O26 O 0.92546 0.85561 0.9693 0.0
C27 C 0.0883 0.89287 0.08972 0.0
O28 O 0.92927 0.94872 0.95138 0.0
O29 O 0.04673 0.0458 0.91428 0.0
O30 O 0.12906 0.0241 0.91404 0.0
C31 C 0.5922 0.58731 0.57877 0.0
C32 C 0.658 0.39363 0.55083 0.0
C33 C 0.60207 0.40599 0.39709 0.0
Mg34 Mg 0.49263 0.62507 0.51454 0.0
Mg35 Mg 0.38288 0.51844 0.47025 0.0
O36 O 0.4616 0.55417 0.46819 0.0
Mg37 Mg 0.50921 0.50481 0.49283 0.0
O38 O 0.56017 0.45908 0.51779 0.0
Mg39 Mg 0.63413 0.50963 0.49257 0.0
Mg40 Mg 0.5406 0.3797 0.49644 0.0
C41 C 0.42172 0.42265 0.40695 0.0
O42 O 0.43798 0.44311 0.53637 0.0
O43 O 0.43343 0.66803 0.46605 0.0
O44 O 0.45266 0.35539 0.5196 0.0
O45 O 0.42213 0.59605 0.57114 0.0
O46 O 0.36058 0.59058 0.43891 0.0
O47 O 0.35466 0.51419 0.54792 0.0
O48 O 0.58235 0.56227 0.45078 0.0
O49 O 0.56684 0.64967 0.45982 0.0
C50 C 0.59666 0.61749 0.44339 0.0
C51 C 0.38538 0.6459 0.44182 0.0
O52 O 0.47242 0.44154 0.42586 0.0
O53 O 0.67556 0.44742 0.53728 0.0
O54 O 0.38123 0.4426 0.42109 0.0
O55 O 0.63206 0.45304 0.42 0.0
O56 O 0.60761 0.36068 0.53994 0.0
O57 O 0.55938 0.37182 0.41774 0.0
O58 O 0.54256 0.5706 0.55762 0.0
O59 O 0.63193 0.56731 0.56301 0.0
C60 C 0.37714 0.55558 0.58045 0.0
C61 C 0.42238 0.38679 0.53677 0.0
C62 C 0.21206 0.18705 0.05014 0.0
C63 C 0.18178 0.12724 0.04948 0.0
C64 C 0.2623 0.20811 0.079 0.0
C65 C 0.31756 0.17162 0.19832 0.0
H66 H 0.42405 0.32495 0.18085 0.0
C67 C 0.4304 0.3305 0.36552 0.0
C68 C 0.41087 0.38015 0.36402 0.0
C69 C 0.42188 0.29182 0.32328 0.0
C70 C 0.39552 0.2815 0.18604 0.0
H71 H 0.18393 0.04167 0.07372 0.0
H72 H 0.27206 0.0784 0.12405 0.0
H73 H 0.37741 0.26603 0.10625 0.0
H74 H 0.36822 0.4293 0.31789 0.0
H75 H 0.35394 0.36229 0.24388 0.0
H76 H 0.33377 0.18878 0.27834 0.0
C77 C 0.25632 0.10917 0.10296 0.0
C78 C 0.3686 0.2479 0.14349 0.0
C79 C 0.20589 0.08807 0.07393 0.0
C80 C 0.38323 0.391 0.31989 0.0
C81 C 0.37584 0.35324 0.27748 0.0
C82 C 0.34519 0.20489 0.24082 0.0
C83 C 0.28352 0.1698 0.10787 0.0
C84 C 0.32632 0.1945 0.14941 0.0
C85 C 0.39499 0.30337 0.27883 0.0
C86 C 0.38152 0.26154 0.235 0.0
H87 H 0.19514 0.21833 0.03105 0.0
H88 H 0.28163 0.25512 0.08197 0.0
H89 H 0.28523 0.1308 0.20449 0.0
H90 H 0.45115 0.32109 0.3996 0.0
H91 H 0.43615 0.25307 0.32524 0.0
C92 C 0.80933 0.15129 0.0898 0.0
C93 C 0.86516 0.18065 0.07702 0.0
C94 C 0.77781 0.18013 0.118 0.0
C95 C 0.79576 0.30717 0.20661 0.0
H96 H 0.63366 0.2741 0.18323 0.0
C97 C 0.67003 0.42473 0.3264 0.0
C98 C 0.62188 0.38781 0.34849 0.0
C99 C 0.69562 0.40403 0.28642 0.0
C100 C 0.67888 0.28364 0.19024 0.0
H101 H 0.93103 0.26403 0.08292 0.0
H102 H 0.87574 0.31459 0.13134 0.0
H103 H 0.68748 0.22942 0.12682 0.0
H104 H 0.56016 0.30166 0.34288 0.0
H105 H 0.60512 0.26549 0.27308 0.0
H106 H 0.78724 0.36085 0.27019 0.0
C107 C 0.85668 0.26884 0.1204 0.0
C108 C 0.70973 0.25794 0.15805 0.0
C109 C 0.88835 0.23989 0.09244 0.0
C110 C 0.59741 0.33115 0.32701 0.0
C111 C 0.6231 0.31044 0.28688 0.0
C112 C 0.76504 0.33303 0.23852 0.0
C113 C 0.80116 0.23919 0.13394 0.0
C114 C 0.76852 0.26895 0.16616 0.0
C115 C 0.67367 0.34599 0.26745 0.0
C116 C 0.70619 0.32125 0.231 0.0
H117 H 0.79008 0.1056 0.07875 0.0
H118 H 0.73557 0.15559 0.12836 0.0
H119 H 0.84069 0.3158 0.2147 0.0
H120 H 0.6896 0.46893 0.34143 0.0
H121 H 0.73381 0.43292 0.27146 0.0
C122 C 0.85238 0.87925 0.12626 0.0
C123 C 0.91035 0.90783 0.122 0.0
C124 C 0.83353 0.84027 0.16482 0.0
C125 C 0.85918 0.81057 0.29286 0.0
H126 H 0.74743 0.6615 0.25845 0.0
C127 C 0.6699 0.70626 0.4142 0.0
C128 C 0.64856 0.64489 0.41567 0.0
C129 C 0.71635 0.73228 0.38503 0.0
C130 C 0.77943 0.70225 0.26901 0.0
H131 H 0.9942 0.91814 0.15493 0.0
H132 H 0.96047 0.85045 0.22425 0.0
H133 H 0.80357 0.71745 0.19197 0.0
H134 H 0.6609 0.5628 0.38934 0.0
H135 H 0.74189 0.6083 0.33813 0.0
H136 H 0.83253 0.79701 0.36954 0.0
C137 C 0.93011 0.85814 0.1969 0.0
C138 C 0.81134 0.73434 0.23088 0.0
C139 C 0.94927 0.89667 0.15742 0.0
C140 C 0.67618 0.61015 0.38897 0.0
C141 C 0.72251 0.63619 0.35955 0.0
C142 C 0.82685 0.77862 0.33109 0.0
C143 C 0.87204 0.82935 0.20048 0.0
C144 C 0.84978 0.78977 0.24217 0.0
C145 C 0.74237 0.69752 0.35648 0.0
C146 C 0.78508 0.72524 0.31912 0.0
H147 H 0.82136 0.88631 0.09925 0.0
H148 H 0.78848 0.81919 0.16722 0.0
H149 H 0.88847 0.85335 0.30235 0.0
H150 H 0.6499 0.73435 0.43461 0.0
H151 H 0.73009 0.77962 0.38291 0.0
C152 C 0.15888 0.92088 0.16249 0.0
C153 C 0.10966 0.88102 0.14033 0.0
C154 C 0.1864 0.90585 0.20467 0.0
C155 C 0.17382 0.79846 0.30644 0.0
H156 H 0.33456 0.82573 0.28768 0.0
C157 C 0.29816 0.65936 0.40081 0.0
C158 C 0.35523 0.68396 0.4168 0.0
C159 C 0.26873 0.69236 0.37528 0.0
C160 C 0.29006 0.81886 0.29424 0.0
H161 H 0.04827 0.79592 0.14788 0.0
H162 H 0.09654 0.76945 0.22176 0.0
H163 H 0.27962 0.86669 0.22888 0.0
H164 H 0.42555 0.76368 0.41937 0.0
H165 H 0.3736 0.82204 0.37415 0.0
H166 H 0.18405 0.74951 0.37116 0.0
C167 C 0.11385 0.81242 0.20627 0.0
C168 C 0.25842 0.84223 0.26042 0.0
C169 C 0.08616 0.82751 0.16387 0.0
C170 C 0.38175 0.74333 0.40748 0.0
C171 C 0.35205 0.77661 0.38144 0.0
C172 C 0.20551 0.77534 0.34042 0.0
C173 C 0.16542 0.85063 0.22595 0.0
C174 C 0.19967 0.83116 0.2654 0.0
C175 C 0.29517 0.75124 0.36482 0.0
C176 C 0.26373 0.78385 0.3339 0.0
H177 H 0.17774 0.96298 0.14593 0.0
H178 H 0.22524 0.93683 0.21963 0.0
H179 H 0.12889 0.78997 0.31184 0.0
H180 H 0.27587 0.61394 0.40748 0.0
H181 H 0.22548 0.67088 0.36232 0.0
C182 C 0.11079 0.75498 0.87936 0.0
C183 C 0.14432 0.80583 0.90569 0.0
C184 C 0.13561 0.72078 0.84935 0.0
C185 C 0.26893 0.72961 0.78387 0.0
H186 H 0.20374 0.56095 0.76688 0.0
C187 C 0.3814 0.5961 0.66873 0.0
C188 C 0.34889 0.56228 0.62808 0.0
C189 C 0.35548 0.61685 0.70833 0.0
C190 C 0.22224 0.60801 0.77127 0.0
H191 H 0.23053 0.85942 0.92239 0.0
H192 H 0.27402 0.79887 0.87152 0.0
H193 H 0.16174 0.61631 0.82544 0.0
H194 H 0.26345 0.51892 0.59958 0.0
H195 H 0.21772 0.55519 0.66952 0.0
H196 H 0.32964 0.72128 0.73022 0.0
C197 C 0.2283 0.78624 0.87272 0.0
C198 C 0.19812 0.6399 0.80461 0.0
C199 C 0.20341 0.8209 0.9022 0.0
C200 C 0.28957 0.54482 0.63042 0.0
C201 C 0.26344 0.56575 0.67034 0.0
C202 C 0.29331 0.69775 0.75121 0.0
C203 C 0.19472 0.73608 0.8453 0.0
C204 C 0.22108 0.70125 0.81123 0.0
C205 C 0.29636 0.60425 0.70834 0.0
C206 C 0.27031 0.63666 0.74446 0.0
H207 H 0.06508 0.74218 0.88092 0.0
H208 H 0.10817 0.68319 0.82828 0.0
H209 H 0.28705 0.77679 0.78671 0.0
H210 H 0.42721 0.60952 0.66847 0.0
H211 H 0.38189 0.64528 0.73772 0.0
C212 C 0.07467 0.10862 0.82215 0.0
C213 C 0.10896 0.0781 0.84546 0.0
C214 C 0.09186 0.13988 0.77811 0.0
C215 C 0.19247 0.15297 0.67412 0.0
H216 H 0.19616 0.31649 0.67343 0.0
C217 C 0.34976 0.37913 0.6023 0.0
C218 C 0.36777 0.35644 0.55842 0.0
C219 C 0.30209 0.34591 0.62684 0.0
C220 C 0.19546 0.27088 0.67298 0.0
H221 H 0.18757 0.0553 0.83973 0.0
H222 H 0.21725 0.10934 0.7641 0.0
H223 H 0.14292 0.25292 0.73763 0.0
H224 H 0.34719 0.28492 0.50233 0.0
H225 H 0.26227 0.22831 0.54328 0.0
H226 H 0.24857 0.17099 0.613 0.0
C227 C 0.17682 0.10891 0.77923 0.0
C228 C 0.16424 0.23429 0.70935 0.0
C229 C 0.15992 0.07823 0.82305 0.0
C230 C 0.33479 0.30255 0.53694 0.0
C231 C 0.28629 0.27011 0.56059 0.0
C232 C 0.2241 0.18946 0.63838 0.0
C233 C 0.14327 0.14033 0.75632 0.0
C234 C 0.16461 0.17561 0.71158 0.0
C235 C 0.27084 0.28995 0.60722 0.0
C236 C 0.2279 0.2495 0.63849 0.0
H237 H 0.03502 0.10889 0.83816 0.0
H238 H 0.06508 0.16362 0.76117 0.0
H239 H 0.19254 0.10757 0.67426 0.0
H240 H 0.37448 0.42086 0.61936 0.0
H241 H 0.29208 0.36274 0.66277 0.0
C242 C 0.96249 0.19717 0.8286 0.0
C243 C 0.9287 0.14347 0.84643 0.0
C244 C 0.94319 0.22405 0.78818 0.0
C245 C 0.83351 0.20042 0.68413 0.0
H246 H 0.84208 0.36292 0.7139 0.0
C247 C 0.67786 0.30849 0.59309 0.0
C248 C 0.69686 0.36755 0.57943 0.0
C249 C 0.71358 0.28285 0.61958 0.0
C250 C 0.84018 0.31794 0.70441 0.0
H251 H 0.85003 0.07386 0.83292 0.0
H252 H 0.81651 0.1207 0.76268 0.0
H253 H 0.89293 0.31327 0.76899 0.0
H254 H 0.76895 0.44583 0.58304 0.0
H255 H 0.83165 0.40072 0.62953 0.0
H256 H 0.77965 0.20464 0.62028 0.0
C257 C 0.85791 0.14213 0.77995 0.0
C258 C 0.86939 0.28943 0.73599 0.0
C259 C 0.87707 0.11533 0.82046 0.0
C260 C 0.75282 0.40032 0.59302 0.0
C261 C 0.78871 0.37451 0.61976 0.0
C262 C 0.80445 0.22894 0.6525 0.0
C263 C 0.88988 0.1977 0.76444 0.0
C264 C 0.86528 0.22991 0.72692 0.0
C265 C 0.76946 0.31537 0.63323 0.0
C266 C 0.80621 0.2876 0.66302 0.0
H267 H 1.00278 0.21987 0.84729 0.0
H268 H 0.96929 0.26635 0.77649 0.0
H269 H 0.83024 0.15487 0.67562 0.0
H270 H 0.63507 0.28171 0.58353 0.0
H271 H 0.69688 0.23761 0.63023 0.0
C272 C 0.82268 0.90148 0.89723 0.0
C273 C 0.84168 0.87464 0.93801 0.0
C274 C 0.77001 0.87481 0.87339 0.0
C275 C 0.66066 0.80806 0.81977 0.0
H276 H 0.65476 0.64426 0.8061 0.0
C277 C 0.56136 0.64803 0.64542 0.0
C278 C 0.60302 0.625 0.62551 0.0
C279 C 0.57091 0.67885 0.69241 0.0
C280 C 0.65495 0.68966 0.81004 0.0
H281 H 0.81771 0.80454 -0.0088 0.0
H282 H 0.72426 0.75956 0.95149 0.0
H283 H 0.70405 0.70182 0.8788 0.0
H284 H 0.68816 0.61846 0.63839 0.0
H285 H 0.70439 0.67156 0.7194 0.0
H286 H 0.61609 0.7958 0.74729 0.0
C287 C 0.75106 0.79928 0.93585 0.0
C288 C 0.68284 0.7229 0.85218 0.0
C289 C 0.80449 0.82503 0.95876 0.0
C290 C 0.65487 0.63504 0.65257 0.0
C291 C 0.66409 0.66509 0.69927 0.0
C292 C 0.63308 0.77462 0.7771 0.0
C293 C 0.73486 0.82139 0.89062 0.0
C294 C 0.68935 0.78352 0.85602 0.0
C295 C 0.62194 0.68624 0.72012 0.0
C296 C 0.63332 0.71618 0.77062 0.0
H297 H 0.85045 0.94021 0.88086 0.0
H298 H 0.75959 0.89351 0.83877 0.0
H299 H 0.66319 0.85413 0.82225 0.0
H300 H 0.52122 0.64147 0.62519 0.0
H301 H 0.53811 0.69547 0.70762 0.0
loop_
_geom_bond_atom_site_label_1
_geom_bond_atom_site_label_2
_geom_bond_distance
_geom_bond_site_symmetry_2
_ccdc_geom_bond_type
C0 O12 1.241 . S
C0 O13 1.280 . S
C1 O14 1.277 . S
C1 O15 1.245 . S
C2 O26 1.247 . S
C2 O28 1.289 . S
Mg3 O4 1.926 . S
Mg3 O13 1.984 . S
Mg3 O15 1.988 1_554 S
Mg3 O16 2.061 1_655 S
O4 Mg3 1.926 . S
O4 Mg5 1.986 . S
O4 Mg6 1.917 1_655 S
Mg5 O4 1.986 . S
Mg5 O12 2.042 . S
Mg5 O14 2.041 1_554 S
Mg5 O20 2.038 1_545 S
Mg5 O28 2.238 1_544 S
Mg6 O4 1.917 1_455 S
Mg6 O7 1.917 1_544 S
Mg6 O17 2.106 . S
Mg6 O19 2.079 1_445 S
Mg6 O28 2.106 1_444 S
Mg6 O29 2.079 1_554 S
O7 Mg6 1.917 1_566 S
O7 Mg8 1.926 . S
O7 Mg9 1.985 1_556 S
Mg8 O7 1.926 . S
Mg8 O22 1.984 . S
Mg8 O25 1.988 1_556 S
Mg8 O26 2.061 1_455 S
Mg9 O7 1.985 1_554 S
Mg9 O17 2.241 1_565 S
Mg9 O21 2.038 1_554 S
Mg9 O23 2.046 . S
Mg9 O30 2.033 1_564 S
C10 O16 1.247 . S
C10 O17 1.289 . S
C11 O29 1.245 . S
C11 O30 1.274 . S
O12 C0 1.241 . S
O12 Mg5 2.042 . S
O13 C0 1.280 . S
O13 Mg3 1.984 . S
O14 C1 1.277 . S
O14 Mg5 2.041 1_556 S
O15 C1 1.245 . S
O15 Mg3 1.988 1_556 S
O16 Mg3 2.061 1_455 S
O16 C10 1.247 . S
O17 Mg6 2.106 . S
O17 Mg9 2.241 1_545 S
O17 C10 1.289 . S
C18 O19 1.245 . S
C18 O20 1.274 . S
O19 Mg6 2.079 1_665 S
O19 C18 1.245 . S
O20 Mg5 2.038 1_565 S
O20 C18 1.274 . S
O21 Mg9 2.038 1_556 S
O21 C24 1.241 . S
O22 Mg8 1.984 . S
O22 C24 1.280 . S
O23 Mg9 2.046 . S
O23 C27 1.277 . S
C24 O21 1.241 . S
C24 O22 1.280 . S
O25 Mg8 1.988 1_554 S
O25 C27 1.245 . S
O26 C2 1.247 . S
O26 Mg8 2.061 1_655 S
C27 O23 1.277 . S
C27 O25 1.245 . S
O28 C2 1.289 . S
O28 Mg5 2.238 1_566 S
O28 Mg6 2.106 1_666 S
O29 Mg6 2.079 1_556 S
O29 C11 1.245 . S
O30 Mg9 2.033 1_546 S
O30 C11 1.274 . S
C31 O58 1.312 . S
C31 O59 1.208 . S
C32 O53 1.331 . S
C32 O56 1.244 . S
C33 O55 1.264 . S
C33 O57 1.273 . S
Mg34 O36 1.936 . S
Mg34 O43 2.081 . S
Mg34 O45 2.023 . S
Mg34 O49 2.031 . S
Mg34 O58 2.291 . S
Mg35 O36 1.963 . S
Mg35 O46 1.942 . S
Mg35 O47 1.955 . S
Mg35 O54 1.986 . S
O36 Mg34 1.936 . S
O36 Mg35 1.963 . S
O36 Mg37 1.915 . S
Mg37 O36 1.915 . S
Mg37 O38 1.915 . S
Mg37 O42 2.013 . S
Mg37 O48 2.114 . S
Mg37 O52 2.013 . S
Mg37 O58 2.114 . S
O38 Mg37 1.915 . S
O38 Mg39 1.936 . S
O38 Mg40 1.963 . S
Mg39 O38 1.936 . S
Mg39 O48 2.291 . S
Mg39 O53 2.081 . S
Mg39 O55 2.023 . S
Mg39 O59 2.031 . S
Mg40 O38 1.963 . S
Mg40 O44 1.986 . S
Mg40 O56 1.942 . S
Mg40 O57 1.955 . S
C41 O52 1.191 . S
C41 O54 1.307 . S
O42 Mg37 2.013 . S
O42 C61 1.191 . S
O43 Mg34 2.081 . S
O43 C51 1.331 . S
O44 Mg40 1.986 . S
O44 C61 1.307 . S
O45 Mg34 2.023 . S
O45 C60 1.264 . S
O46 Mg35 1.942 . S
O46 C51 1.244 . S
O47 Mg35 1.955 . S
O47 C60 1.273 . S
O48 Mg37 2.114 . S
O48 Mg39 2.291 . S
O48 C50 1.312 . S
O49 Mg34 2.031 . S
O49 C50 1.208 . S
C50 O48 1.312 . S
C50 O49 1.208 . S
C51 O43 1.331 . S
C51 O46 1.244 . S
O52 Mg37 2.013 . S
O52 C41 1.191 . S
O53 C32 1.331 . S
O53 Mg39 2.081 . S
O54 Mg35 1.986 . S
O54 C41 1.307 . S
O55 C33 1.264 . S
O55 Mg39 2.023 . S
O56 C32 1.244 . S
O56 Mg40 1.942 . S
O57 C33 1.273 . S
O57 Mg40 1.955 . S
O58 C31 1.312 . S
O58 Mg34 2.291 . S
O58 Mg37 2.114 . S
O59 C31 1.208 . S
O59 Mg39 2.031 . S
C60 O45 1.264 . S
C60 O47 1.273 . S
C61 O42 1.191 . S
C61 O44 1.307 . S
C62 C63 1.349 . S
C62 C64 1.327 . S
C62 H87 0.950 . S
C63 C62 1.349 . S
C63 C79 1.349 . S
C64 C62 1.327 . S
C64 C83 1.429 . S
C64 H88 0.950 . S
C65 C82 1.574 . S
C65 C84 1.368 . S
C65 H89 0.949 . S
H66 C70 0.949 . S
C67 C68 1.349 . S
C67 C69 1.327 . S
C67 H90 0.950 . S
C68 C67 1.349 . S
C68 C80 1.349 . S
C69 C67 1.327 . S
C69 C85 1.429 . S
C69 H91 0.950 . S
C70 H66 0.949 . S
C70 C78 1.574 . S
C70 C86 1.368 . S
H71 C79 0.950 . S
H72 C77 0.950 . S
H73 C78 0.949 . S
H74 C80 0.950 . S
H75 C81 0.950 . S
H76 C82 0.949 . S
C77 H72 0.950 . S
C77 C79 1.327 . S
C77 C83 1.429 . S
C78 C70 1.574 . S
C78 H73 0.949 . S
C78 C84 1.368 . S
C79 C63 1.349 . S
C79 H71 0.950 . S
C79 C77 1.327 . S
C80 C68 1.349 . S
C80 H74 0.950 . S
C80 C81 1.327 . S
C81 H75 0.950 . S
C81 C80 1.327 . S
C81 C85 1.429 . S
C82 C65 1.574 . S
C82 H76 0.949 . S
C82 C86 1.368 . S
C83 C64 1.429 . S
C83 C77 1.429 . S
C83 C84 1.523 . S
C84 C65 1.368 . S
C84 C78 1.368 . S
C84 C83 1.523 . S
C85 C69 1.429 . S
C85 C81 1.429 . S
C85 C86 1.523 . S
C86 C70 1.368 . S
C86 C82 1.368 . S
C86 C85 1.523 . S
H87 C62 0.950 . S
H88 C64 0.950 . S
H89 C65 0.949 . S
H90 C67 0.950 . S
H91 C69 0.950 . S
C92 C93 1.349 . S
C92 C94 1.327 . S
C92 H117 0.950 . S
C93 C92 1.349 . S
C93 C109 1.349 . S
C94 C92 1.327 . S
C94 C113 1.429 . S
C94 H118 0.950 . S
C95 C112 1.574 . S
C95 C114 1.368 . S
C95 H119 0.949 . S
H96 C100 0.949 . S
C97 C98 1.349 . S
C97 C99 1.327 . S
C97 H120 0.950 . S
C98 C97 1.349 . S
C98 C110 1.349 . S
C99 C97 1.327 . S
C99 C115 1.429 . S
C99 H121 0.950 . S
C100 H96 0.949 . S
C100 C108 1.574 . S
C100 C116 1.368 . S
H101 C109 0.950 . S
H102 C107 0.950 . S
H103 C108 0.949 . S
H104 C110 0.950 . S
H105 C111 0.950 . S
H106 C112 0.949 . S
C107 H102 0.950 . S
C107 C109 1.327 . S
C107 C113 1.429 . S
C108 C100 1.574 . S
C108 H103 0.949 . S
C108 C114 1.368 . S
C109 C93 1.349 . S
C109 H101 0.950 . S
C109 C107 1.327 . S
C110 C98 1.349 . S
C110 H104 0.950 . S
C110 C111 1.327 . S
C111 H105 0.950 . S
C111 C110 1.327 . S
C111 C115 1.429 . S
C112 C95 1.574 . S
C112 H106 0.949 . S
C112 C116 1.368 . S
C113 C94 1.429 . S
C113 C107 1.429 . S
C113 C114 1.523 . S
C114 C95 1.368 . S
C114 C108 1.368 . S
C114 C113 1.523 . S
C115 C99 1.429 . S
C115 C111 1.429 . S
C115 C116 1.523 . S
C116 C100 1.368 . S
C116 C112 1.368 . S
C116 C115 1.523 . S
H117 C92 0.950 . S
H118 C94 0.950 . S
H119 C95 0.949 . S
H120 C97 0.950 . S
H121 C99 0.950 . S
C122 C123 1.349 . S
C122 C124 1.327 . S
C122 H147 0.950 . S
C123 C122 1.349 . S
C123 C139 1.349 . S
C124 C122 1.327 . S
C124 C143 1.429 . S
C124 H148 0.950 . S
C125 C142 1.574 . S
C125 C144 1.368 . S
C125 H149 0.949 . S
H126 C130 0.949 . S
C127 C128 1.349 . S
C127 C129 1.327 . S
C127 H150 0.950 . S
C128 C127 1.349 . S
C128 C140 1.349 . S
C129 C127 1.327 . S
C129 C145 1.429 . S
C129 H151 0.950 . S
C130 H126 0.949 . S
C130 C138 1.574 . S
C130 C146 1.368 . S
H131 C139 0.950 . S
H132 C137 0.950 . S
H133 C138 0.949 . S
H134 C140 0.950 . S
H135 C141 0.950 . S
H136 C142 0.949 . S
C137 H132 0.950 . S
C137 C139 1.327 . S
C137 C143 1.429 . S
C138 C130 1.574 . S
C138 H133 0.949 . S
C138 C144 1.368 . S
C139 C123 1.349 . S
C139 H131 0.950 . S
C139 C137 1.327 . S
C140 C128 1.349 . S
C140 H134 0.950 . S
C140 C141 1.327 . S
C141 H135 0.950 . S
C141 C140 1.327 . S
C141 C145 1.429 . S
C142 C125 1.574 . S
C142 H136 0.949 . S
C142 C146 1.368 . S
C143 C124 1.429 . S
C143 C137 1.429 . S
C143 C144 1.523 . S
C144 C125 1.368 . S
C144 C138 1.368 . S
C144 C143 1.523 . S
C145 C129 1.429 . S
C145 C141 1.429 . S
C145 C146 1.523 . S
C146 C130 1.368 . S
C146 C142 1.368 . S
C146 C145 1.523 . S
H147 C122 0.950 . S
H148 C124 0.950 . S
H149 C125 0.949 . S
H150 C127 0.950 . S
H151 C129 0.950 . S
C152 C153 1.349 . S
C152 C154 1.327 . S
C152 H177 0.950 . S
C153 C152 1.349 . S
C153 C169 1.349 . S
C154 C152 1.327 . S
C154 C173 1.429 . S
C154 H178 0.950 . S
C155 C172 1.574 . S
C155 C174 1.368 . S
C155 H179 0.949 . S
H156 C160 0.949 . S
C157 C158 1.349 . S
C157 C159 1.327 . S
C157 H180 0.950 . S
C158 C157 1.349 . S
C158 C170 1.349 . S
C159 C157 1.327 . S
C159 C175 1.429 . S
C159 H181 0.950 . S
C160 H156 0.949 . S
C160 C168 1.574 . S
C160 C176 1.368 . S
H161 C169 0.950 . S
H162 C167 0.950 . S
H163 C168 0.949 . S
H164 C170 0.950 . S
H165 C171 0.950 . S
H166 C172 0.949 . S
C167 H162 0.950 . S
C167 C169 1.327 . S
C167 C173 1.429 . S
C168 C160 1.574 . S
C168 H163 0.949 . S
C168 C174 1.368 . S
C169 C153 1.349 . S
C169 H161 0.950 . S
C169 C167 1.327 . S
C170 C158 1.349 . S
C170 H164 0.950 . S
C170 C171 1.327 . S
C171 H165 0.950 . S
C171 C170 1.327 . S
C171 C175 1.429 . S
C172 C155 1.574 . S
C172 H166 0.949 . S
C172 C176 1.368 . S
C173 C154 1.429 . S
C173 C167 1.429 . S
C173 C174 1.523 . S
C174 C155 1.368 . S
C174 C168 1.368 . S
C174 C173 1.523 . S
C175 C159 1.429 . S
C175 C171 1.429 . S
C175 C176 1.523 . S
C176 C160 1.368 . S
C176 C172 1.368 . S
C176 C175 1.523 . S
H177 C152 0.950 . S
H178 C154 0.950 . S
H179 C155 0.949 . S
H180 C157 0.950 . S
H181 C159 0.950 . S
C182 C183 1.349 . S
C182 C184 1.327 . S
C182 H207 0.950 . S
C183 C182 1.349 . S
C183 C199 1.349 . S
C184 C182 1.327 . S
C184 C203 1.429 . S
C184 H208 0.950 . S
C185 C202 1.574 . S
C185 C204 1.368 . S
C185 H209 0.949 . S
H186 C190 0.949 . S
C187 C188 1.349 . S
C187 C189 1.327 . S
C187 H210 0.950 . S
C188 C187 1.349 . S
C188 C200 1.349 . S
C189 C187 1.327 . S
C189 C205 1.429 . S
C189 H211 0.950 . S
C190 H186 0.949 . S
C190 C198 1.574 . S
C190 C206 1.368 . S
H191 C199 0.950 . S
H192 C197 0.950 . S
H193 C198 0.949 . S
H194 C200 0.950 . S
H195 C201 0.950 . S
H196 C202 0.949 . S
C197 H192 0.950 . S
C197 C199 1.327 . S
C197 C203 1.429 . S
C198 C190 1.574 . S
C198 H193 0.949 . S
C198 C204 1.368 . S
C199 C183 1.349 . S
C199 H191 0.950 . S
C199 C197 1.327 . S
C200 C188 1.349 . S
C200 H194 0.950 . S
C200 C201 1.327 . S
C201 H195 0.950 . S
C201 C200 1.327 . S
C201 C205 1.429 . S
C202 C185 1.574 . S
C202 H196 0.949 . S
C202 C206 1.368 . S
C203 C184 1.429 . S
C203 C197 1.429 . S
C203 C204 1.523 . S
C204 C185 1.368 . S
C204 C198 1.368 . S
C204 C203 1.523 . S
C205 C189 1.429 . S
C205 C201 1.429 . S
C205 C206 1.523 . S
C206 C190 1.368 . S
C206 C202 1.368 . S
C206 C205 1.523 . S
H207 C182 0.950 . S
H208 C184 0.950 . S
H209 C185 0.949 . S
H210 C187 0.950 . S
H211 C189 0.950 . S
C212 C213 1.349 . S
C212 C214 1.327 . S
C212 H237 0.950 . S
C213 C212 1.349 . S
C213 C229 1.349 . S
C214 C212 1.327 . S
C214 C233 1.429 . S
C214 H238 0.950 . S
C215 C232 1.574 . S
C215 C234 1.368 . S
C215 H239 0.949 . S
H216 C220 0.949 . S
C217 C218 1.349 . S
C217 C219 1.327 . S
C217 H240 0.950 . S
C218 C217 1.349 . S
C218 C230 1.349 . S
C219 C217 1.327 . S
C219 C235 1.429 . S
C219 H241 0.950 . S
C220 H216 0.949 . S
C220 C228 1.574 . S
C220 C236 1.368 . S
H221 C229 0.950 . S
H222 C227 0.950 . S
H223 C228 0.949 . S
H224 C230 0.950 . S
H225 C231 0.950 . S
H226 C232 0.949 . S
C227 H222 0.950 . S
C227 C229 1.327 . S
C227 C233 1.429 . S
C228 C220 1.574 . S
C228 H223 0.949 . S
C228 C234 1.368 . S
C229 C213 1.349 . S
C229 H221 0.950 . S
C229 C227 1.327 . S
C230 C218 1.349 . S
C230 H224 0.950 . S
C230 C231 1.327 . S
C231 H225 0.950 . S
C231 C230 1.327 . S
C231 C235 1.429 . S
C232 C215 1.574 . S
C232 H226 0.949 . S
C232 C236 1.368 . S
C233 C214 1.429 . S
C233 C227 1.429 . S
C233 C234 1.523 . S
C234 C215 1.368 . S
C234 C228 1.368 . S
C234 C233 1.523 . S
C235 C219 1.429 . S
C235 C231 1.429 . S
C235 C236 1.523 . S
C236 C220 1.368 . S
C236 C232 1.368 . S
C236 C235 1.523 . S
H237 C212 0.950 . S
H238 C214 0.950 . S
H239 C215 0.949 . S
H240 C217 0.950 . S
H241 C219 0.950 . S
C242 C243 1.349 . S
C242 C244 1.327 . S
C242 H267 0.950 . S
C243 C242 1.349 . S
C243 C259 1.349 . S
C244 C242 1.327 . S
C244 C263 1.429 . S
C244 H268 0.950 . S
C245 C262 1.574 . S
C245 C264 1.368 . S
C245 H269 0.949 . S
H246 C250 0.949 . S
C247 C248 1.349 . S
C247 C249 1.327 . S
C247 H270 0.950 . S
C248 C247 1.349 . S
C248 C260 1.349 . S
C249 C247 1.327 . S
C249 C265 1.429 . S
C249 H271 0.950 . S
C250 H246 0.949 . S
C250 C258 1.574 . S
C250 C266 1.368 . S
H251 C259 0.950 . S
H252 C257 0.950 . S
H253 C258 0.949 . S
H254 C260 0.950 . S
H255 C261 0.950 . S
H256 C262 0.949 . S
C257 H252 0.950 . S
C257 C259 1.327 . S
C257 C263 1.429 . S
C258 C250 1.574 . S
C258 H253 0.949 . S
C258 C264 1.368 . S
C259 C243 1.349 . S
C259 H251 0.950 . S
C259 C257 1.327 . S
C260 C248 1.349 . S
C260 H254 0.950 . S
C260 C261 1.327 . S
C261 H255 0.950 . S
C261 C260 1.327 . S
C261 C265 1.429 . S
C262 C245 1.574 . S
C262 H256 0.949 . S
C262 C266 1.368 . S
C263 C244 1.429 . S
C263 C257 1.429 . S
C263 C264 1.523 . S
C264 C245 1.368 . S
C264 C258 1.368 . S
C264 C263 1.523 . S
C265 C249 1.429 . S
C265 C261 1.429 . S
C265 C266 1.523 . S
C266 C250 1.368 . S
C266 C262 1.368 . S
C266 C265 1.523 . S
H267 C242 0.950 . S
H268 C244 0.950 . S
H269 C245 0.949 . S
H270 C247 0.950 . S
H271 C249 0.950 . S
C272 C273 1.349 . S
C272 C274 1.327 . S
C272 H297 0.950 . S
C273 C272 1.349 . S
C273 C289 1.349 . S
C274 C272 1.327 . S
C274 C293 1.429 . S
C274 H298 0.950 . S
C275 C292 1.574 . S
C275 C294 1.368 . S
C275 H299 0.949 . S
H276 C280 0.949 . S
C277 C278 1.349 . S
C277 C279 1.327 . S
C277 H300 0.950 . S
C278 C277 1.349 . S
C278 C290 1.349 . S
C279 C277 1.327 . S
C279 C295 1.429 . S
C279 H301 0.950 . S
C280 H276 0.949 . S
C280 C288 1.574 . S
C280 C296 1.368 . S
H281 C289 0.950 . S
H282 C287 0.950 . S
H283 C288 0.949 . S
H284 C290 0.950 . S
H285 C291 0.950 . S
H286 C292 0.949 . S
C287 H282 0.950 . S
C287 C289 1.327 . S
C287 C293 1.429 . S
C288 C280 1.574 . S
C288 H283 0.949 . S
C288 C294 1.368 . S
C289 C273 1.349 . S
C289 H281 0.950 . S
C289 C287 1.327 . S
C290 C278 1.349 . S
C290 H284 0.950 . S
C290 C291 1.327 . S
C291 H285 0.950 . S
C291 C290 1.327 . S
C291 C295 1.429 . S
C292 C275 1.574 . S
C292 H286 0.949 . S
C292 C296 1.368 . S
C293 C274 1.429 . S
C293 C287 1.429 . S
C293 C294 1.523 . S
C294 C275 1.368 . S
C294 C288 1.368 . S
C294 C293 1.523 . S
C295 C279 1.429 . S
C295 C291 1.429 . S
C295 C296 1.523 . S
C296 C280 1.368 . S
C296 C292 1.368 . S
C296 C295 1.523 . S
H297 C272 0.950 . S
H298 C274 0.950 . S
H299 C275 0.949 . S
H300 C277 0.950 . S
H301 C279 0.950 . S
C63 C10 0.898 . S
C68 C41 0.902 . S
C93 C0 1.720 . S
C98 C33 1.737 . S
C123 C18 1.341 . S
C128 C50 1.338 . S
C153 C27 1.740 . S
C158 C51 1.743 . S
C183 C24 1.719 . S
C188 C60 1.739 . S
C218 C61 1.309 . S
C213 C11 1.290 . S
C243 C1 1.730 . S
C248 C32 1.736 . S
C278 C31 0.944 . S
C273 C2 0.949 . S
