# Generated by pormake.
# Topology ctn, (3,4)-cn, num edge types: 1
# Building blocks:
#     Node 0, Type 0, BuildingBlock: WUSLED_clean_sbu_0, # of connection points: 3
#     Node 1, Type 0, BuildingBlock: WUSLED_clean_sbu_0, # of connection points: 3
#     Node 2, Type 0, BuildingBlock: WUSLED_clean_sbu_0, # of connection points: 3
#     Node 3, Type 0, BuildingBlock: WUSLED_clean_sbu_0, # of connection points: 3
#     Node 4, Type 0, BuildingBlock: WUSLED_clean_sbu_0, # of connection points: 3
#     Node 5, Type 0, BuildingBlock: WUSLED_clean_sbu_0, # of connection points: 3
#     Node 6, Type 0, BuildingBlock: WUSLED_clean_sbu_0, # of connection points: 3
#     Node 7, Type 0, BuildingBlock: WUSLED_clean_sbu_0, # of connection points: 3
#     Node 8, Type 0, BuildingBlock: WUSLED_clean_sbu_0, # of connection points: 3
#     Node 9, Type 0, BuildingBlock: WUSLED_clean_sbu_0, # of connection points: 3
#     Node 10, Type 0, BuildingBlock: WUSLED_clean_sbu_0, # of connection points: 3
#     Node 11, Type 0, BuildingBlock: WUSLED_clean_sbu_0, # of connection points: 3
#     Node 12, Type 0, BuildingBlock: WUSLED_clean_sbu_0, # of connection points: 3
#     Node 13, Type 0, BuildingBlock: WUSLED_clean_sbu_0, # of connection points: 3
#     Node 14, Type 0, BuildingBlock: WUSLED_clean_sbu_0, # of connection points: 3
#     Node 15, Type 0, BuildingBlock: WUSLED_clean_sbu_0, # of connection points: 3
#     Node 16, Type 1, BuildingBlock: TATPOV_clean_sbu_0, # of connection points: 4
#     Node 17, Type 1, BuildingBlock: TATPOV_clean_sbu_0, # of connection points: 4
#     Node 18, Type 1, BuildingBlock: TATPOV_clean_sbu_0, # of connection points: 4
#     Node 19, Type 1, BuildingBlock: TATPOV_clean_sbu_0, # of connection points: 4
#     Node 20, Type 1, BuildingBlock: TATPOV_clean_sbu_0, # of connection points: 4
#     Node 21, Type 1, BuildingBlock: TATPOV_clean_sbu_0, # of connection points: 4
#     Node 22, Type 1, BuildingBlock: TATPOV_clean_sbu_0, # of connection points: 4
#     Node 23, Type 1, BuildingBlock: TATPOV_clean_sbu_0, # of connection points: 4
#     Node 24, Type 1, BuildingBlock: TATPOV_clean_sbu_0, # of connection points: 4
#     Node 25, Type 1, BuildingBlock: TATPOV_clean_sbu_0, # of connection points: 4
#     Node 26, Type 1, BuildingBlock: TATPOV_clean_sbu_0, # of connection points: 4
#     Node 27, Type 1, BuildingBlock: TATPOV_clean_sbu_0, # of connection points: 4
#     Edge 28, Type (0, 1), BuildingBlock: ZUJKAS_clean_linker_0, # of connection points: 2
#     Edge 29, Type (0, 1), BuildingBlock: ZUJKAS_clean_linker_0, # of connection points: 2
#     Edge 30, Type (0, 1), BuildingBlock: ZUJKAS_clean_linker_0, # of connection points: 2
#     Edge 31, Type (0, 1), BuildingBlock: ZUJKAS_clean_linker_0, # of connection points: 2
#     Edge 32, Type (0, 1), BuildingBlock: ZUJKAS_clean_linker_0, # of connection points: 2
#     Edge 33, Type (0, 1), BuildingBlock: ZUJKAS_clean_linker_0, # of connection points: 2
#     Edge 34, Type (0, 1), BuildingBlock: ZUJKAS_clean_linker_0, # of connection points: 2
#     Edge 35, Type (0, 1), BuildingBlock: ZUJKAS_clean_linker_0, # of connection points: 2
#     Edge 36, Type (0, 1), BuildingBlock: ZUJKAS_clean_linker_0, # of connection points: 2
#     Edge 37, Type (0, 1), BuildingBlock: ZUJKAS_clean_linker_0, # of connection points: 2
#     Edge 38, Type (0, 1), BuildingBlock: ZUJKAS_clean_linker_0, # of connection points: 2
#     Edge 39, Type (0, 1), BuildingBlock: ZUJKAS_clean_linker_0, # of connection points: 2
#     Edge 40, Type (0, 1), BuildingBlock: ZUJKAS_clean_linker_0, # of connection points: 2
#     Edge 41, Type (0, 1), BuildingBlock: ZUJKAS_clean_linker_0, # of connection points: 2
#     Edge 42, Type (0, 1), BuildingBlock: ZUJKAS_clean_linker_0, # of connection points: 2
#     Edge 43, Type (0, 1), BuildingBlock: ZUJKAS_clean_linker_0, # of connection points: 2
#     Edge 44, Type (0, 1), BuildingBlock: ZUJKAS_clean_linker_0, # of connection points: 2
#     Edge 45, Type (0, 1), BuildingBlock: ZUJKAS_clean_linker_0, # of connection points: 2
#     Edge 46, Type (0, 1), BuildingBlock: ZUJKAS_clean_linker_0, # of connection points: 2
#     Edge 47, Type (0, 1), BuildingBlock: ZUJKAS_clean_linker_0, # of connection points: 2
#     Edge 48, Type (0, 1), BuildingBlock: ZUJKAS_clean_linker_0, # of connection points: 2
#     Edge 49, Type (0, 1), BuildingBlock: ZUJKAS_clean_linker_0, # of connection points: 2
#     Edge 50, Type (0, 1), BuildingBlock: ZUJKAS_clean_linker_0, # of connection points: 2
#     Edge 51, Type (0, 1), BuildingBlock: ZUJKAS_clean_linker_0, # of connection points: 2
#     Edge 52, Type (0, 1), BuildingBlock: ZUJKAS_clean_linker_0, # of connection points: 2
#     Edge 53, Type (0, 1), BuildingBlock: ZUJKAS_clean_linker_0, # of connection points: 2
#     Edge 54, Type (0, 1), BuildingBlock: ZUJKAS_clean_linker_0, # of connection points: 2
#     Edge 55, Type (0, 1), BuildingBlock: ZUJKAS_clean_linker_0, # of connection points: 2
#     Edge 56, Type (0, 1), BuildingBlock: ZUJKAS_clean_linker_0, # of connection points: 2
#     Edge 57, Type (0, 1), BuildingBlock: ZUJKAS_clean_linker_0, # of connection points: 2
#     Edge 58, Type (0, 1), BuildingBlock: ZUJKAS_clean_linker_0, # of connection points: 2
#     Edge 59, Type (0, 1), BuildingBlock: ZUJKAS_clean_linker_0, # of connection points: 2
#     Edge 60, Type (0, 1), BuildingBlock: ZUJKAS_clean_linker_0, # of connection points: 2
#     Edge 61, Type (0, 1), BuildingBlock: ZUJKAS_clean_linker_0, # of connection points: 2
#     Edge 62, Type (0, 1), BuildingBlock: ZUJKAS_clean_linker_0, # of connection points: 2
#     Edge 63, Type (0, 1), BuildingBlock: ZUJKAS_clean_linker_0, # of connection points: 2
#     Edge 64, Type (0, 1), BuildingBlock: ZUJKAS_clean_linker_0, # of connection points: 2
#     Edge 65, Type (0, 1), BuildingBlock: ZUJKAS_clean_linker_0, # of connection points: 2
#     Edge 66, Type (0, 1), BuildingBlock: ZUJKAS_clean_linker_0, # of connection points: 2
#     Edge 67, Type (0, 1), BuildingBlock: ZUJKAS_clean_linker_0, # of connection points: 2
#     Edge 68, Type (0, 1), BuildingBlock: ZUJKAS_clean_linker_0, # of connection points: 2
#     Edge 69, Type (0, 1), BuildingBlock: ZUJKAS_clean_linker_0, # of connection points: 2
#     Edge 70, Type (0, 1), BuildingBlock: ZUJKAS_clean_linker_0, # of connection points: 2
#     Edge 71, Type (0, 1), BuildingBlock: ZUJKAS_clean_linker_0, # of connection points: 2
#     Edge 72, Type (0, 1), BuildingBlock: ZUJKAS_clean_linker_0, # of connection points: 2
#     Edge 73, Type (0, 1), BuildingBlock: ZUJKAS_clean_linker_0, # of connection points: 2
#     Edge 74, Type (0, 1), BuildingBlock: ZUJKAS_clean_linker_0, # of connection points: 2
#     Edge 75, Type (0, 1), BuildingBlock: ZUJKAS_clean_linker_0, # of connection points: 2
# Relax obj value: 0.003
# Max RMSD: 0.049
# Mean RMSD: 0.024
data_MOF--net-ctn--node1-WUSLED_clean_sbu_0--node2-TATPOV_clean_sbu_0--edge1-ZUJKAS_clean_linker_0
_symmetry_space_group_name_H-M    P1
_symmetry_Int_Tables_number       1
_symmetry_cell_setting            triclinic
loop_
_symmetry_equiv_pos_as_xyz
'x, y, z'
_cell_length_a     87.38879
_cell_length_b     87.884494
_cell_length_c     87.709392
_cell_angle_alpha  91.441934
_cell_angle_beta   90.755571
_cell_angle_gamma 90.85019
loop_
_atom_site_label
_atom_site_type_symbol
_atom_site_fract_x
_atom_site_fract_y
_atom_site_fract_z
_atom_type_partial_charge
C0 C 0.01803 0.05437 0.07934 0.0
C1 C 0.01491 0.03908 0.08271 0.0
C2 C 0.99943 0.04701 0.10449 0.0
C3 C 1.00571 0.03545 0.09517 0.0
C4 C 1.00295 0.06227 0.10124 0.0
C5 C 0.0121 0.06587 0.08882 0.0
U6 U 0.05042 0.05013 0.04956 0.0
O7 O 0.04941 0.0539 0.02485 0.0
O8 O 0.06453 0.06825 0.03951 0.0
C9 C 0.05878 0.06575 0.02574 0.0
C10 C 0.02674 0.05878 0.06571 0.0
C11 C 0.05435 0.07935 0.01716 0.0
C12 C 0.03526 0.09564 1.00564 0.0
C13 C 0.03898 0.08326 0.01474 0.0
C14 C 0.06219 0.10057 1.00158 0.0
C15 C 0.04683 0.10436 0.99876 0.0
C16 C 0.06588 0.08823 0.01064 0.0
C17 C 0.07931 0.01714 0.05274 0.0
C18 C 0.10017 0.01168 0.03536 0.0
C19 C 0.09667 0.99637 0.05764 0.0
C20 C 0.08402 1.00506 0.06173 0.0
C21 C 0.10499 0.99955 0.04442 0.0
C22 C 0.08746 0.02042 0.0395 0.0
C23 C 0.0659 0.02602 0.05755 0.0
O24 O 0.04069 0.06415 0.06817 0.0
O25 O 0.02561 0.04965 0.05361 0.0
O26 O 0.05387 0.02534 0.04839 0.0
O27 O 0.06878 0.03981 0.06311 0.0
H28 H 0.01936 0.02997 0.07559 0.0
H29 H 1.00319 0.02358 0.09724 0.0
H30 H 0.99861 0.07148 0.10829 0.0
H31 H 0.01438 0.07774 0.08648 0.0
H32 H 0.02331 0.09813 1.00366 0.0
H33 H 0.02984 0.0766 0.01966 0.0
H34 H 0.07143 0.10715 0.99676 0.0
H35 H 0.07781 0.08547 0.01238 0.0
H36 H 0.10635 0.01457 0.02518 0.0
H37 H 0.09981 0.98699 0.06476 0.0
H38 H 0.07785 1.0023 0.07196 0.0
H39 H 0.08402 0.02972 0.03242 0.0
C40 C 0.27491 0.73753 0.18751 0.0
C41 C 0.2878 0.74658 0.18438 0.0
C42 C 0.27287 0.76102 0.16611 0.0
C43 C 0.28681 0.7582 0.17375 0.0
C44 C 0.25996 0.75203 0.16952 0.0
C45 C 0.26099 0.74042 0.18009 0.0
U46 U 0.2938 0.71531 0.22002 0.0
O47 O 0.28298 0.70365 0.23907 0.0
O48 O 0.29602 0.69049 0.22221 0.0
C49 C 0.28706 0.69007 0.23412 0.0
C50 C 0.27571 0.72478 0.19812 0.0
C51 C 0.27511 0.67799 0.23381 0.0
C52 C 0.24843 0.66957 0.23245 0.0
C53 C 0.25953 0.68121 0.23173 0.0
C54 C 0.26837 0.65131 0.23692 0.0
C55 C 0.2527 0.65448 0.23523 0.0
C56 C 0.27941 0.66294 0.23625 0.0
C57 C 0.33118 0.72965 0.23928 0.0
C58 C 0.34257 0.71803 0.26155 0.0
C59 C 0.35542 0.73924 0.24979 0.0
C60 C 0.34364 0.73984 0.23889 0.0
C61 C 0.35499 0.72843 0.26137 0.0
C62 C 0.33076 0.71865 0.2506 0.0
C63 C 0.31867 0.73092 0.22797 0.0
O64 O 0.28682 0.7151 0.19583 0.0
O65 O 0.27372 0.72826 0.21261 0.0
O66 O 0.3051 0.73374 0.23358 0.0
O67 O 0.31828 0.72054 0.21691 0.0
H68 H 0.29865 0.74457 0.19005 0.0
H69 H 0.29693 0.765 0.17155 0.0
H70 H 0.24912 0.75369 0.16373 0.0
H71 H 0.25092 0.73353 0.18233 0.0
H72 H 0.23649 0.67248 0.23122 0.0
H73 H 0.25591 0.69275 0.22979 0.0
H74 H 0.27213 0.63981 0.23876 0.0
H75 H 0.29137 0.66018 0.23782 0.0
H76 H 0.3418 0.70964 0.27035 0.0
H77 H 0.36491 0.74725 0.24911 0.0
H78 H 0.3442 0.74836 0.23018 0.0
H79 H 0.32121 0.71067 0.25108 0.0
C80 C 0.96241 0.43466 0.01839 0.0
C81 C 0.97252 0.42447 0.02516 0.0
C82 C 0.97175 0.40829 1.00214 0.0
C83 C 0.9771 0.41136 0.01713 0.0
C84 C 0.96162 0.41857 0.99545 0.0
C85 C 0.95699 0.43161 1.00351 0.0
U86 U 0.96827 0.46496 0.04994 0.0
O87 O 0.96548 0.48979 0.04961 0.0
O88 O 0.95171 0.47611 0.06506 0.0
C89 C 0.95441 0.48967 0.0596 0.0
C90 C 0.95759 0.44861 0.02657 0.0
C91 C 0.94084 0.49858 0.05576 0.0
C92 C 0.9184 0.50323 0.03999 0.0
C93 C 0.93118 0.49443 0.0434 0.0
C94 C 0.92482 0.52034 0.06129 0.0
C95 C 0.91506 0.51631 0.0489 0.0
C96 C 0.93757 0.51155 0.06467 0.0
C97 C 1.0028 0.46242 0.07702 0.0
C98 C 0.0135 0.48328 0.09272 0.0
C99 C 0.01975 0.45725 0.09837 0.0
C100 C 0.01056 0.45207 0.08609 0.0
C101 C 0.02144 0.47293 0.1018 0.0
C102 C 1.00422 0.47807 0.08048 0.0
C103 C 0.99335 0.45663 0.06403 0.0
O104 O 0.95296 0.44683 0.04063 0.0
O105 O 0.96665 0.46054 0.02513 0.0
O106 O 0.99337 0.46498 0.0518 0.0
O107 O 0.97968 0.45142 0.06745 0.0
H108 H 0.97693 0.42669 0.03662 0.0
H109 H 0.98504 0.40377 0.02255 0.0
H110 H 0.95714 0.41647 0.984 0.0
H111 H 0.94918 0.43934 0.9981 0.0
H112 H 0.91104 0.49971 0.03048 0.0
H113 H 0.93353 0.48441 0.03642 0.0
H114 H 0.92276 0.53043 0.06825 0.0
H115 H 0.94494 0.51494 0.07423 0.0
H116 H 0.01462 0.49543 0.09492 0.0
H117 H 0.02539 0.44891 0.10528 0.0
H118 H 0.0095 0.43994 0.08368 0.0
H119 H 0.99825 0.48628 0.07366 0.0
C120 C 0.71671 0.75917 0.18626 0.0
C121 C 0.7285 0.7647 0.1771 0.0
C122 C 0.72528 0.74276 0.15964 0.0
C123 C 0.73275 0.75657 0.16391 0.0
C124 C 0.71349 0.7373 0.16894 0.0
C125 C 0.70926 0.74544 0.1821 0.0
U126 U 0.72114 0.79233 0.21527 0.0
O127 O 0.70348 0.80598 0.22667 0.0
O128 O 0.71925 0.79245 0.24026 0.0
C129 C 0.70702 0.80098 0.24025 0.0
C130 C 0.71204 0.76752 0.20017 0.0
C131 C 0.69405 0.79562 0.24942 0.0
C132 C 0.6768 0.77559 0.25785 0.0
C133 C 0.68908 0.78034 0.24889 0.0
C134 C 0.67425 0.80135 0.26783 0.0
C135 C 0.66919 0.78606 0.2674 0.0
C136 C 0.68654 0.80606 0.25895 0.0
C137 C 0.75346 0.82209 0.20889 0.0
C138 C 0.75681 0.84669 0.22199 0.0
C139 C 0.77653 0.83729 0.20523 0.0
C140 C 0.76777 0.8241 0.20216 0.0
C141 C 0.77116 0.84882 0.21512 0.0
C142 C 0.74803 0.83344 0.2189 0.0
C143 C 0.74441 0.80821 0.20499 0.0
O144 O 0.72186 0.76747 0.21164 0.0
O145 O 0.70608 0.78096 0.19805 0.0
O146 O 0.73016 0.81022 0.20061 0.0
O147 O 0.74599 0.79678 0.21422 0.0
H148 H 0.73437 0.77532 0.18014 0.0
H149 H 0.74175 0.7612 0.15696 0.0
H150 H 0.70765 0.72661 0.16618 0.0
H151 H 0.70018 0.74096 0.18907 0.0
H152 H 0.6731 0.76378 0.25711 0.0
H153 H 0.69468 0.77211 0.24154 0.0
H154 H 0.66881 0.80968 0.27519 0.0
H155 H 0.69023 0.81789 0.25956 0.0
H156 H 0.75224 0.85536 0.22956 0.0
H157 H 0.78762 0.83836 0.19996 0.0
H158 H 0.77218 0.81545 0.19444 0.0
H159 H 0.73699 0.8321 0.22421 0.0
C160 C 0.01865 0.96158 0.43366 0.0
C161 C 0.02518 0.97226 0.42393 0.0
C162 C 1.00253 0.97076 0.40737 0.0
C163 C 0.01722 0.97677 0.41087 0.0
C164 C 0.99606 0.96007 0.4172 0.0
C165 C 1.00406 0.95553 0.4302 0.0
U166 U 0.05049 0.96718 0.4635 0.0
O167 O 0.05054 0.96419 0.48831 0.0
O168 O 0.06579 0.95052 0.47394 0.0
C169 C 0.06036 0.95299 0.48766 0.0
C170 C 0.02686 0.95671 0.44744 0.0
C171 C 0.05656 0.93933 0.4964 0.0
C172 C 0.0382 0.92244 0.50833 0.0
C173 C 0.04135 0.935 0.4993 0.0
C174 C 0.06537 0.91817 0.51138 0.0
C175 C 0.05018 0.91392 0.51459 0.0
C176 C 0.0685 0.93075 0.50242 0.0
C177 C 0.07762 1.00165 0.46034 0.0
C178 C 0.0968 0.00914 0.47955 0.0
C179 C 0.09608 0.02173 0.45529 0.0
C180 C 0.08358 0.01259 0.45064 0.0
C181 C 0.10288 0.0201 0.46978 0.0
C182 C 0.08428 0.99994 0.47484 0.0
C183 C 0.06449 0.99218 0.45506 0.0
O184 O 0.04092 0.95205 0.44533 0.0
O185 O 0.02556 0.96569 0.45955 0.0
O186 O 0.05255 0.99216 0.46401 0.0
O187 O 0.06782 0.97858 0.44962 0.0
H188 H 0.03642 0.97714 0.42646 0.0
H189 H 0.02245 0.98514 0.40365 0.0
H190 H 0.98486 0.95508 0.41476 0.0
H191 H 0.99885 0.94726 0.43756 0.0
H192 H 0.02637 0.91961 0.51067 0.0
H193 H 0.03192 0.94143 0.49477 0.0
H194 H 0.07487 0.91174 0.51573 0.0
H195 H 0.08031 0.93386 0.50028 0.0
H196 H 0.10185 0.00751 0.49072 0.0
H197 H 0.10031 0.03021 0.44758 0.0
H198 H 0.07854 0.01409 0.43943 0.0
H199 H 0.07984 0.99148 0.48246 0.0
C200 C 0.2105 0.75165 0.82288 0.0
C201 C 0.22554 0.75359 0.82849 0.0
C202 C 0.21647 0.76937 0.84977 0.0
C203 C 0.2285 0.76237 0.8418 0.0
C204 C 0.2014 0.7671 0.84421 0.0
C205 C 0.19848 0.75836 0.83091 0.0
U206 U 0.21824 0.72126 0.79124 0.0
O207 O 0.20169 0.70648 0.77861 0.0
O208 O 0.21537 0.72325 0.76637 0.0
C209 C 0.2041 0.71318 0.7656 0.0
C210 C 0.20702 0.74327 0.80842 0.0
C211 C 0.19038 0.71764 0.75689 0.0
C212 C 0.16419 0.72664 0.75555 0.0
C213 C 0.17721 0.72301 0.76415 0.0
C214 C 0.17747 0.71992 0.73235 0.0
C215 C 0.16411 0.72503 0.73952 0.0
C216 C 0.19043 0.71624 0.74094 0.0
C217 C 0.2531 0.69512 0.79326 0.0
C218 C 0.25674 0.6726 0.77703 0.0
C219 C 0.27746 0.6821 0.79339 0.0
C220 C 0.26817 0.69388 0.79869 0.0
C221 C 0.27187 0.67125 0.78255 0.0
C222 C 0.24746 0.68446 0.78231 0.0
C223 C 0.24346 0.70744 0.79937 0.0
O224 O 0.21643 0.74563 0.79711 0.0
O225 O 0.20285 0.72892 0.80954 0.0
O226 O 0.22977 0.70333 0.80392 0.0
O227 O 0.24343 0.72005 0.79162 0.0
H228 H 0.23501 0.74851 0.82246 0.0
H229 H 0.24025 0.76397 0.84565 0.0
H230 H 0.19182 0.77204 0.85015 0.0
H231 H 0.18678 0.75696 0.82679 0.0
H232 H 0.15409 0.73041 0.76149 0.0
H233 H 0.17694 0.72424 0.77647 0.0
H234 H 0.17798 0.71882 0.72004 0.0
H235 H 0.20051 0.71221 0.73511 0.0
H236 H 0.25211 0.66455 0.76857 0.0
H237 H 0.28895 0.68131 0.79807 0.0
H238 H 0.27272 0.70198 0.80717 0.0
H239 H 0.23586 0.68526 0.7779 0.0
C240 C 0.96016 0.57626 0.50361 0.0
C241 C 0.97357 0.58441 0.50023 0.0
C242 C 0.96991 0.60114 0.52246 0.0
C243 C 0.97843 0.59675 0.5096 0.0
C244 C 0.95654 0.5928 0.52579 0.0
C245 C 0.95173 0.58049 0.51645 0.0
U246 U 0.96344 0.5499 0.46844 0.0
O247 O 0.95947 0.52513 0.46622 0.0
O248 O 0.94536 0.54064 0.45302 0.0
C249 C 0.94741 0.52658 0.45729 0.0
C250 C 0.95472 0.56339 0.49387 0.0
C251 C 0.93353 0.51833 0.46202 0.0
C252 C 0.91088 0.51642 0.47776 0.0
C253 C 0.92397 0.52446 0.47328 0.0
C254 C 0.91684 0.496 0.45984 0.0
C255 C 0.9072 0.50204 0.47114 0.0
C256 C 0.92986 0.50408 0.45533 0.0
C257 C 0.99715 0.55653 0.44119 0.0
C258 C 1.00491 0.5394 0.4206 0.0
C259 C 0.01727 0.56413 0.42398 0.0
C260 C 0.00796 0.56729 0.43646 0.0
C261 C 0.01598 0.55009 0.41596 0.0
C262 C 0.99557 0.54259 0.43312 0.0
C263 C 0.98803 0.56003 0.45478 0.0
O264 O 0.94944 0.56695 0.48034 0.0
O265 O 0.96359 0.55145 0.49352 0.0
O266 O 0.98839 0.54993 0.46558 0.0
O267 O 0.97428 0.56536 0.45225 0.0
H268 H 0.98021 0.58128 0.49032 0.0
H269 H 0.98869 0.60301 0.50663 0.0
H270 H 0.94984 0.5957 0.53572 0.0
H271 H 0.94138 0.57427 0.51925 0.0
H272 H 0.90382 0.52132 0.48661 0.0
H273 H 0.92667 0.53543 0.47865 0.0
H274 H 0.91426 0.48506 0.45438 0.0
H275 H 0.9371 0.49918 0.44661 0.0
H276 H 1.00369 0.52843 0.41478 0.0
H277 H 0.02546 0.57272 0.42058 0.0
H278 H 0.00929 0.57814 0.44252 0.0
H279 H 0.98727 0.53414 0.43662 0.0
C280 C 0.78779 0.78863 0.84132 0.0
C281 C 0.79802 0.7765 0.84173 0.0
C282 C 0.78601 0.76726 0.86475 0.0
C283 C 0.79713 0.76589 0.85334 0.0
C284 C 0.7758 0.77948 0.86424 0.0
C285 C 0.7767 0.79006 0.85262 0.0
U286 U 0.80668 0.80517 0.80621 0.0
O287 O 0.79634 0.81449 0.78553 0.0
O288 O 0.81094 0.8291 0.80047 0.0
C289 C 0.80163 0.82833 0.78857 0.0
C290 C 0.78861 0.79993 0.82926 0.0
C291 C 0.79036 0.84057 0.78769 0.0
C292 C 0.76574 0.85133 0.79412 0.0
C293 C 0.77639 0.83966 0.79534 0.0
C294 C 0.78303 0.86501 0.77779 0.0
C295 C 0.7689 0.86414 0.78527 0.0
C296 C 0.79363 0.85333 0.77898 0.0
C297 C 0.8422 0.78674 0.78946 0.0
C298 C 0.85545 0.79738 0.7679 0.0
C299 C 0.86423 0.77395 0.77882 0.0
C300 C 0.85249 0.77468 0.7895 0.0
C301 C 0.86587 0.7853 0.76789 0.0
C302 C 0.84371 0.79808 0.7786 0.0
C303 C 0.82997 0.78735 0.80081 0.0
O304 O 0.80044 0.80933 0.83016 0.0
O305 O 0.78581 0.79467 0.81532 0.0
O306 O 0.81607 0.78449 0.79546 0.0
O307 O 0.83066 0.79906 0.81042 0.0
H308 H 0.80672 0.77528 0.8331 0.0
H309 H 0.80528 0.75673 0.85348 0.0
H310 H 0.76698 0.78076 0.87271 0.0
H311 H 0.76869 0.79935 0.85245 0.0
H312 H 0.75492 0.85018 0.79989 0.0
H313 H 0.77369 0.82989 0.80215 0.0
H314 H 0.78597 0.87479 0.77109 0.0
H315 H 0.80441 0.85425 0.77307 0.0
H316 H 0.85648 0.80639 0.75977 0.0
H317 H 0.87189 0.76438 0.77901 0.0
H318 H 0.85144 0.76579 0.79778 0.0
H319 H 0.83585 0.8075 0.77843 0.0
C320 C 0.28865 0.29035 0.3413 0.0
C321 C 0.29923 0.27854 0.34212 0.0
C322 C 0.28673 0.26903 0.36478 0.0
C323 C 0.29828 0.26796 0.35376 0.0
C324 C 0.27617 0.28092 0.36385 0.0
C325 C 0.27714 0.29147 0.35221 0.0
U326 U 0.30768 0.30685 0.30622 0.0
O327 O 0.29738 0.31608 0.28547 0.0
O328 O 0.31186 0.33079 0.30043 0.0
C329 C 0.3026 0.32995 0.2885 0.0
C330 C 0.28951 0.30161 0.3292 0.0
C331 C 0.29129 0.34215 0.28751 0.0
C332 C 0.26646 0.35271 0.29349 0.0
C333 C 0.27715 0.34109 0.29483 0.0
C334 C 0.28407 0.36667 0.27772 0.0
C335 C 0.26976 0.36564 0.28486 0.0
C336 C 0.2947 0.35503 0.27903 0.0
C337 C 0.34335 0.28841 0.28973 0.0
C338 C 0.35638 0.29854 0.26778 0.0
C339 C 0.36577 0.27583 0.27966 0.0
C340 C 0.35399 0.27666 0.29028 0.0
C341 C 0.36713 0.28676 0.26827 0.0
C342 C 0.3446 0.29935 0.27842 0.0
C343 C 0.33105 0.28909 0.301 0.0
O344 O 0.30131 0.31105 0.33013 0.0
O345 O 0.2868 0.29629 0.31527 0.0
O346 O 0.31719 0.28617 0.2956 0.0
O347 O 0.33167 0.30086 0.31054 0.0
H348 H 0.30824 0.27755 0.3338 0.0
H349 H 0.3067 0.25907 0.35423 0.0
H350 H 0.26702 0.28196 0.37199 0.0
H351 H 0.26885 0.3005 0.35171 0.0
H352 H 0.25552 0.35144 0.29899 0.0
H353 H 0.27433 0.33122 0.30146 0.0
H354 H 0.28712 0.37655 0.27121 0.0
H355 H 0.30561 0.35608 0.27338 0.0
H356 H 0.35718 0.30724 0.25929 0.0
H357 H 0.37369 0.2665 0.28025 0.0
H358 H 0.35316 0.26809 0.29891 0.0
H359 H 0.33648 0.30853 0.27786 0.0
C360 C 0.46242 0.93477 0.51786 0.0
C361 C 0.47152 0.92408 0.52523 0.0
C362 C 0.47095 0.90763 0.50238 0.0
C363 C 0.47571 0.91062 0.51758 0.0
C364 C 0.46192 0.91848 0.49505 0.0
C365 C 0.45769 0.93188 0.50273 0.0
U366 U 0.46889 0.96553 0.5488 0.0
O367 O 0.46678 0.99044 0.54794 0.0
O368 O 0.4526 0.97744 0.56362 0.0
C369 C 0.45564 0.99079 0.55786 0.0
C370 C 0.45795 0.94903 0.52567 0.0
C371 C 0.4423 0.9999 0.5537 0.0
C372 C 0.41823 1.00309 0.54001 0.0
C373 C 0.43096 0.99424 0.54351 0.0
C374 C 0.42816 0.02335 0.55676 0.0
C375 C 0.41665 0.01775 0.54665 0.0
C376 C 0.44084 0.0145 0.56025 0.0
C377 C 0.50309 0.96235 0.57621 0.0
C378 C 0.51384 0.98304 0.59211 0.0
C379 C 0.52012 0.95694 0.59742 0.0
C380 C 0.51089 0.9519 0.58512 0.0
C381 C 0.52181 0.97258 0.60102 0.0
C382 C 0.50452 0.97797 0.57984 0.0
C383 C 0.49358 0.95669 0.56323 0.0
O384 O 0.45309 0.94772 0.53971 0.0
O385 O 0.46737 0.96066 0.52406 0.0
O386 O 0.49395 0.96489 0.5509 0.0
O387 O 0.47973 0.95196 0.56662 0.0
H388 H 0.47536 0.92614 0.53691 0.0
H389 H 0.48253 0.90249 0.52365 0.0
H390 H 0.45829 0.91675 0.48328 0.0
H391 H 0.45077 0.94005 0.49681 0.0
H392 H 0.40953 0.99836 0.5323 0.0
H393 H 0.43191 0.98296 0.53835 0.0
H394 H 0.42748 0.03465 0.56188 0.0
H395 H 0.44952 0.01906 0.5681 0.0
H396 H 0.51495 0.99517 0.59447 0.0
H397 H 0.5258 0.94852 0.6042 0.0
H398 H 0.50983 0.9398 0.58257 0.0
H399 H 0.49851 0.98624 0.57314 0.0
C400 C 0.21461 0.25895 0.68582 0.0
C401 C 0.22872 0.26174 0.67885 0.0
C402 C 0.22221 0.24318 0.65851 0.0
C403 C 0.2325 0.25388 0.66533 0.0
C404 C 0.20805 0.24055 0.66554 0.0
C405 C 0.20432 0.24836 0.67904 0.0
U406 U 0.21944 0.29101 0.71627 0.0
O407 O 0.2019 0.30371 0.72879 0.0
O408 O 0.21814 0.2897 0.74131 0.0
C409 C 0.20575 0.29797 0.74198 0.0
C410 C 0.21043 0.26678 0.7002 0.0
C411 C 0.19312 0.29187 0.75121 0.0
C412 C 0.1677 0.28045 0.75347 0.0
C413 C 0.17981 0.28541 0.74441 0.0
C414 C 0.1822 0.28789 0.77622 0.0
C415 C 0.1687 0.28172 0.76949 0.0
C416 C 0.19424 0.29294 0.76717 0.0
C417 C 0.25088 0.32212 0.71103 0.0
C418 C 0.25272 0.34963 0.71517 0.0
C419 C 0.27566 0.33457 0.71579 0.0
C420 C 0.26684 0.32136 0.71288 0.0
C421 C 0.26874 0.3489 0.71678 0.0
C422 C 0.24388 0.3364 0.71235 0.0
C423 C 0.24208 0.30811 0.70654 0.0
O424 O 0.2206 0.2664 0.71135 0.0
O425 O 0.20418 0.28019 0.69884 0.0
O426 O 0.22773 0.30976 0.70228 0.0
O427 O 0.24418 0.29614 0.71498 0.0
H428 H 0.2368 0.26995 0.68388 0.0
H429 H 0.24342 0.2563 0.66015 0.0
H430 H 0.19994 0.23226 0.66074 0.0
H431 H 0.19339 0.24603 0.68427 0.0
H432 H 0.15756 0.27557 0.74791 0.0
H433 H 0.17869 0.28435 0.73212 0.0
H434 H 0.18331 0.28921 0.7885 0.0
H435 H 0.20439 0.2979 0.77265 0.0
H436 H 0.247 0.36046 0.71607 0.0
H437 H 0.28797 0.33359 0.71679 0.0
H438 H 0.27256 0.31054 0.71175 0.0
H439 H 0.23161 0.33741 0.71097 0.0
C440 C 0.77353 0.23767 0.68722 0.0
C441 C 0.78624 0.24711 0.68447 0.0
C442 C 0.77149 0.26092 0.66556 0.0
C443 C 0.78524 0.25861 0.67371 0.0
C444 C 0.75876 0.25152 0.66856 0.0
C445 C 0.75979 0.24002 0.67926 0.0
U446 U 0.79236 0.21631 0.7203 0.0
O447 O 0.78149 0.20496 0.73952 0.0
O448 O 0.79483 0.19161 0.72309 0.0
C449 C 0.78587 0.19136 0.735 0.0
C450 C 0.77434 0.22512 0.69805 0.0
C451 C 0.77406 0.17921 0.73488 0.0
C452 C 0.7484 0.16952 0.72882 0.0
C453 C 0.75953 0.18116 0.72826 0.0
C454 C 0.76631 0.15383 0.74238 0.0
C455 C 0.75164 0.15571 0.73593 0.0
C456 C 0.77737 0.16545 0.74185 0.0
C457 C 0.82939 0.23133 0.73963 0.0
C458 C 0.84139 0.21903 0.76118 0.0
C459 C 0.85265 0.24204 0.75127 0.0
C460 C 0.84098 0.2425 0.74023 0.0
C461 C 0.85297 0.23037 0.76197 0.0
C462 C 0.82969 0.21952 0.75012 0.0
C463 C 0.817 0.23233 0.72815 0.0
O464 O 0.78557 0.21552 0.69605 0.0
O465 O 0.7722 0.22885 0.71246 0.0
O466 O 0.80335 0.23514 0.73357 0.0
O467 O 0.8168 0.22175 0.71729 0.0
H468 H 0.79694 0.24551 0.69056 0.0
H469 H 0.79522 0.26574 0.67183 0.0
H470 H 0.74807 0.25279 0.66237 0.0
H471 H 0.74986 0.23283 0.6812 0.0
H472 H 0.73729 0.1713 0.72359 0.0
H473 H 0.75677 0.1917 0.72276 0.0
H474 H 0.76916 0.14348 0.74815 0.0
H475 H 0.7885 0.16375 0.74707 0.0
H476 H 0.8412 0.20996 0.76931 0.0
H477 H 0.8615 0.25081 0.75135 0.0
H478 H 0.84097 0.25166 0.73219 0.0
H479 H 0.8208 0.21079 0.74983 0.0
C480 C 0.51503 0.55317 0.57502 0.0
C481 C 0.5202 0.54249 0.58549 0.0
C482 C 0.49735 0.5463 0.60091 0.0
C483 C 0.51142 0.53907 0.59832 0.0
C484 C 0.49222 0.55683 0.59022 0.0
C485 C 0.50096 0.56021 0.57745 0.0
U486 U 0.54852 0.54901 0.54651 0.0
O487 O 0.54794 0.5517 0.52157 0.0
O488 O 0.56208 0.56719 0.53602 0.0
C489 C 0.55685 0.56389 0.52219 0.0
C490 C 0.52404 0.55743 0.56159 0.0
C491 C 0.55193 0.57683 0.51294 0.0
C492 C 0.5385 0.60069 0.50975 0.0
C493 C 0.54253 0.58836 0.51879 0.0
C494 C 0.55307 0.59002 0.48889 0.0
C495 C 0.54373 0.60169 0.49465 0.0
C496 C 0.5571 0.57777 0.49792 0.0
C497 C 0.57826 0.51704 0.55117 0.0
C498 C 0.59865 0.51086 0.53346 0.0
C499 C 0.59647 0.49726 0.557 0.0
C500 C 0.58371 0.50588 0.56091 0.0
C501 C 0.60415 0.49959 0.54322 0.0
C502 C 0.58583 0.51952 0.53741 0.0
C503 C 0.56456 0.52568 0.55561 0.0
O504 O 0.5378 0.56318 0.56435 0.0
O505 O 0.52358 0.54779 0.54988 0.0
O506 O 0.55264 0.52435 0.54635 0.0
O507 O 0.56697 0.5397 0.56074 0.0
H508 H 0.53105 0.53692 0.58382 0.0
H509 H 0.51578 0.53098 0.60634 0.0
H510 H 0.48135 0.56242 0.59163 0.0
H511 H 0.49673 0.56843 0.56947 0.0
H512 H 0.53117 0.60936 0.51453 0.0
H513 H 0.53837 0.58784 0.53035 0.0
H514 H 0.55754 0.59048 0.47745 0.0
H515 H 0.56442 0.56905 0.4932 0.0
H516 H 0.60433 0.51311 0.52283 0.0
H517 H 0.60014 0.48854 0.5647 0.0
H518 H 0.57799 0.50374 0.57154 0.0
H519 H 0.58182 0.52811 0.52973 0.0
C520 C 0.51874 0.46083 0.92978 0.0
C521 C 0.52037 0.47574 0.92458 0.0
C522 C 0.50399 0.46941 0.90251 0.0
C523 C 0.51301 0.48001 0.91109 0.0
C524 C 0.5025 0.45446 0.90777 0.0
C525 C 0.5098 0.45024 0.92127 0.0
U526 U 0.54901 0.46678 0.96129 0.0
O527 O 0.54797 0.46318 0.98595 0.0
O528 O 0.56418 0.45018 0.97203 0.0
C529 C 0.55806 0.45223 0.98553 0.0
C530 C 0.52643 0.45607 0.94389 0.0
C531 C 0.55427 0.43832 0.99391 0.0
C532 C 0.53602 0.42165 1.0063 0.0
C533 C 0.53911 0.43428 0.99734 0.0
C534 C 0.56315 0.4167 0.00818 0.0
C535 C 0.54803 0.41278 0.01198 0.0
C536 C 0.56622 0.42935 0.9993 0.0
C537 C 0.57593 0.5015 0.96072 0.0
C538 C 0.60135 0.5037 0.97228 0.0
C539 C 0.5878 0.52641 0.96534 0.0
C540 C 0.57541 0.51741 0.96005 0.0
C541 C 0.601 0.51965 0.97131 0.0
C542 C 0.5889 0.49471 0.9671 0.0
C543 C 0.56305 0.49224 0.95436 0.0
O544 O 0.54069 0.45182 0.94234 0.0
O545 O 0.52435 0.46482 0.95605 0.0
O546 O 0.55064 0.49184 0.96266 0.0
O547 O 0.56658 0.47888 0.94841 0.0
H548 H 0.52735 0.48406 0.93094 0.0
H549 H 0.51451 0.49156 0.90729 0.0
H550 H 0.49548 0.44607 0.90158 0.0
H551 H 0.50842 0.43868 0.92511 0.0
H552 H 0.52425 0.41908 0.0091 0.0
H553 H 0.52965 0.44101 0.99334 0.0
H554 H 0.57267 0.41 0.01209 0.0
H555 H 0.578 0.43225 0.99678 0.0
H556 H 0.61129 0.49818 0.97698 0.0
H557 H 0.58723 0.53865 0.96431 0.0
H558 H 0.5655 0.52286 0.9552 0.0
H559 H 0.58951 0.48245 0.9679 0.0
C560 C 0.71063 0.25306 0.32193 0.0
C561 C 0.71829 0.24684 0.33444 0.0
C562 C 0.71665 0.27105 0.34864 0.0
C563 C 0.72126 0.25575 0.34768 0.0
C564 C 0.70921 0.27723 0.33593 0.0
C565 C 0.70623 0.26832 0.32276 0.0
U566 U 0.71668 0.2204 0.29218 0.0
O567 O 0.6993 0.20514 0.28129 0.0
O568 O 0.71285 0.22056 0.26734 0.0
C569 C 0.70136 0.21076 0.26771 0.0
C570 C 0.70657 0.24385 0.30811 0.0
C571 C 0.68734 0.21501 0.25943 0.0
C572 C 0.66723 0.23298 0.25383 0.0
C573 C 0.6805 0.22919 0.26196 0.0
C574 C 0.66742 0.2084 0.24072 0.0
C575 C 0.66051 0.22261 0.24312 0.0
C576 C 0.68069 0.20466 0.24879 0.0
C577 C 0.75094 0.1935 0.29522 0.0
C578 C 0.76014 0.17652 0.27507 0.0
C579 C 0.76875 0.17341 0.30114 0.0
C580 C 0.7598 0.1857 0.30582 0.0
C581 C 0.76905 0.16865 0.28571 0.0
C582 C 0.75111 0.1888 0.27979 0.0
C583 C 0.74176 0.20652 0.30056 0.0
O584 O 0.71572 0.24522 0.29644 0.0
O585 O 0.70206 0.22973 0.31024 0.0
O586 O 0.72817 0.20313 0.30587 0.0
O587 O 0.74175 0.2185 0.29188 0.0
H588 H 0.7218 0.23507 0.33406 0.0
H589 H 0.72689 0.25055 0.35726 0.0
H590 H 0.70575 0.28901 0.33611 0.0
H591 H 0.70035 0.27335 0.31322 0.0
H592 H 0.66212 0.24395 0.25607 0.0
H593 H 0.68543 0.23731 0.2702 0.0
H594 H 0.66269 0.20022 0.23243 0.0
H595 H 0.68582 0.19367 0.24668 0.0
H596 H 0.75997 0.17306 0.26313 0.0
H597 H 0.7756 0.16776 0.30961 0.0
H598 H 0.75986 0.18916 0.31777 0.0
H599 H 0.74428 0.19461 0.27141 0.0
C600 C 0.46167 0.07522 1.00426 0.0
C601 C 0.47513 0.08328 1.00084 0.0
C602 C 0.47146 0.10023 0.02291 0.0
C603 C 0.48001 0.09569 0.01012 0.0
C604 C 0.45807 0.09196 0.02629 0.0
C605 C 0.45323 0.07959 0.01704 0.0
U606 U 0.46465 0.04859 0.96922 0.0
O607 O 0.46031 0.02384 0.9672 0.0
O608 O 0.44647 0.03947 0.95386 0.0
C609 C 0.44829 0.02541 0.95825 0.0
C610 C 0.45616 0.06231 0.9946 0.0
C611 C 0.43424 0.01741 0.96297 0.0
C612 C 0.4106 0.01664 0.97731 0.0
C613 C 0.42399 0.02434 0.97309 0.0
C614 C 0.4177 0.99494 0.96153 0.0
C615 C 0.40725 1.00184 0.97155 0.0
C616 C 0.43103 1.00266 0.95728 0.0
C617 C 0.49804 0.05476 0.9414 0.0
C618 C 0.50976 0.03672 0.92377 0.0
C619 C 0.51368 0.06379 0.92066 0.0
C620 C 0.50457 0.06675 0.93335 0.0
C621 C 0.51653 0.04873 0.91577 0.0
C622 C 0.50058 0.0397 0.93644 0.0
C623 C 0.48916 0.05836 0.9552 0.0
O624 O 0.45085 0.06582 0.98108 0.0
O625 O 0.46499 0.05033 0.99429 0.0
O626 O 0.48957 0.04838 0.96612 0.0
O627 O 0.47548 0.06394 0.9529 0.0
H628 H 0.48177 0.08005 0.99097 0.0
H629 H 0.4903 0.10188 0.00712 0.0
H630 H 0.45135 0.09499 0.03617 0.0
H631 H 0.44285 0.07345 0.01987 0.0
H632 H 0.40279 0.02239 0.98492 0.0
H633 H 0.4263 0.03572 0.97766 0.0
H634 H 0.41569 0.98347 0.95709 0.0
H635 H 0.43886 0.9971 0.94954 0.0
H636 H 0.5118 0.02498 0.92044 0.0
H637 H 0.51844 0.07333 0.91464 0.0
H638 H 0.50272 0.07845 0.93696 0.0
H639 H 0.49565 0.03024 0.94247 0.0
Zn640 Zn 0.28078 0.86385 0.00766 0.0
Zn641 Zn 0.2569 0.88032 0.01241 0.0
O642 O 0.25929 0.86764 0.03246 0.0
O643 O 0.28054 0.85517 0.0284 0.0
O644 O 0.23846 0.89383 0.01697 0.0
O645 O 0.29421 0.88175 1.00361 0.0
O646 O 0.27458 0.89631 0.00865 0.0
C647 C 0.2695 0.85842 0.037 0.0
C648 C 0.2573 0.85627 0.98591 0.0
O649 O 0.25044 0.86709 0.99291 0.0
O650 O 0.2705 0.85245 0.99034 0.0
C651 C 0.23065 0.90026 1.00665 0.0
O652 O 0.23432 0.89798 0.9923 0.0
C653 C 0.28865 0.8949 1.00507 0.0
Zn654 Zn 0.11514 0.47765 0.26847 0.0
Zn655 Zn 0.13164 0.50269 0.26415 0.0
O656 O 0.11868 0.50835 0.28327 0.0
O657 O 0.10534 0.4873 0.28676 0.0
O658 O 0.14536 0.52137 0.2613 0.0
O659 O 0.13378 0.465 0.27111 0.0
O660 O 0.14769 0.48557 0.26724 0.0
C661 C 0.1088 0.50086 0.2908 0.0
C662 C 0.10887 0.49048 0.23936 0.0
O663 O 0.11872 0.50047 0.24403 0.0
O664 O 0.10544 0.47944 0.24774 0.0
C665 C 0.1423 0.53226 0.2525 0.0
O666 O 0.12934 0.53186 0.24472 0.0
C667 C 0.14677 0.47136 0.26993 0.0
Zn668 Zn 0.76901 0.61504 0.97671 0.0
Zn669 Zn 0.76317 0.631 1.00171 0.0
O670 O 0.78243 0.61856 0.00792 0.0
O671 O 0.78775 0.60649 0.98638 0.0
O672 O 0.75815 0.64364 0.0207 0.0
O673 O 0.77072 0.6338 0.96437 0.0
O674 O 0.76686 0.64747 0.98528 0.0
C675 C 0.7909 0.60952 1.00026 0.0
C676 C 0.73974 0.60727 0.98841 0.0
O677 O 0.74342 0.6177 0.99824 0.0
O678 O 0.74897 0.60376 0.97793 0.0
C679 C 0.76815 0.65169 0.02802 0.0
O680 O 0.78235 0.65173 0.02329 0.0
C681 C 0.76952 0.64668 0.97099 0.0
Zn682 Zn 0.86532 1.00656 0.28068 0.0
Zn683 Zn 0.88184 0.01062 0.25669 0.0
O684 O 0.86885 0.03073 0.25833 0.0
O685 O 0.85512 0.02651 0.27867 0.0
O686 O 0.89588 0.01329 0.23825 0.0
O687 O 0.88329 1.0049 0.29465 0.0
O688 O 0.89781 0.00782 0.27463 0.0
C689 C 0.85872 0.03505 0.26785 0.0
C690 C 0.85882 0.98333 0.25843 0.0
O691 O 0.86873 0.99089 0.25097 0.0
O692 O 0.85538 0.98775 0.27177 0.0
C693 C 0.89437 0.0234 0.22818 0.0
O694 O 0.88296 0.0329 0.22924 0.0
C695 C 0.89647 1.00575 0.28894 0.0
Zn696 Zn 0.26833 0.11612 0.47534 0.0
Zn697 Zn 0.26424 0.13198 0.50089 0.0
O698 O 0.28299 0.11844 0.50597 0.0
O699 O 0.2862 0.10543 0.48451 0.0
O700 O 0.26141 0.14469 0.52036 0.0
O701 O 0.27176 0.13496 0.46346 0.0
O702 O 0.26803 0.14847 0.4845 0.0
C703 C 0.29026 0.10849 0.49816 0.0
C704 C 0.23882 0.11032 0.48788 0.0
O705 O 0.2437 0.11969 0.49827 0.0
O706 O 0.24724 0.10702 0.47668 0.0
C707 C 0.24938 0.15244 0.52237 0.0
O708 O 0.23866 0.152 0.51172 0.0
C709 C 0.27089 0.14778 0.47024 0.0
Zn710 Zn 0.36468 0.50693 0.77838 0.0
Zn711 Zn 0.38083 0.5104 0.754 0.0
O712 O 0.36849 0.53089 0.75592 0.0
O713 O 0.35501 0.52717 0.77653 0.0
O714 O 0.39411 0.5127 0.735 0.0
O715 O 0.38303 0.50486 0.79182 0.0
O716 O 0.39719 0.50711 0.77144 0.0
C717 C 0.35869 0.53557 0.76564 0.0
C718 C 0.35717 0.48373 0.7564 0.0
O719 O 0.36708 0.49102 0.7487 0.0
O720 O 0.35409 0.4883 0.76978 0.0
C721 C 0.39941 0.52546 0.7307 0.0
O722 O 0.39609 0.53785 0.7386 0.0
C723 C 0.39609 0.50518 0.7858 0.0
Zn724 Zn 0.78076 0.36455 0.50748 0.0
Zn725 Zn 0.75667 0.38078 0.51207 0.0
O726 O 0.75888 0.3679 0.53202 0.0
O727 O 0.77998 0.3552 0.52788 0.0
O728 O 0.73813 0.3942 0.51655 0.0
O729 O 0.7943 0.38258 0.50446 0.0
O730 O 0.77432 0.39692 0.50863 0.0
C731 C 0.76892 0.35846 0.53646 0.0
C732 C 0.75777 0.35734 0.48506 0.0
O733 O 0.75053 0.36768 0.4924 0.0
O734 O 0.77106 0.35378 0.48946 0.0
C735 C 0.72986 0.40004 0.50622 0.0
O736 O 0.73306 0.3972 0.49184 0.0
C737 C 0.78855 0.39566 0.50567 0.0
Zn738 Zn 0.61555 0.97775 0.76791 0.0
Zn739 Zn 0.63232 1.00242 0.76362 0.0
O740 O 0.61919 0.00872 0.78244 0.0
O741 O 0.60485 0.9882 0.78521 0.0
O742 O 0.64637 0.02063 0.76006 0.0
O743 O 0.63386 0.96497 0.7719 0.0
O744 O 0.64807 0.98516 0.76732 0.0
C745 C 0.60858 1.00164 0.7894 0.0
C746 C 0.61023 0.98985 0.73841 0.0
O747 O 0.61968 1.00012 0.74334 0.0
O748 O 0.60684 0.97876 0.74671 0.0
C749 C 0.64203 0.0344 0.76012 0.0
O750 O 0.6276 0.03737 0.76274 0.0
C751 C 0.64694 0.97111 0.7706 0.0
Zn752 Zn 1.00559 0.27904 0.86529 0.0
Zn753 Zn 0.00969 0.25533 0.88199 0.0
O754 O 0.02967 0.25627 0.86872 0.0
O755 O 0.02481 0.27542 0.85381 0.0
O756 O 0.01246 0.23718 0.89609 0.0
O757 O 1.00556 0.2935 0.88316 0.0
O758 O 0.0073 0.2736 0.89774 0.0
C759 C 0.03353 0.26483 0.85777 0.0
C760 C 0.98148 0.25748 0.86019 0.0
O761 O 0.9896 0.24974 0.86935 0.0
O762 O 0.98574 0.27081 0.85692 0.0
C763 C 0.02212 0.2266 0.89412 0.0
O764 O 0.03101 0.22691 0.88217 0.0
C765 C 1.00603 0.28798 0.89633 0.0
Zn766 Zn 0.50687 0.77928 0.3645 0.0
Zn767 Zn 0.51157 0.75587 0.38094 0.0
O768 O 0.53171 0.75744 0.36789 0.0
O769 O 0.52707 0.7777 0.35447 0.0
O770 O 0.51531 0.73814 0.39524 0.0
O771 O 0.50436 0.79362 0.38209 0.0
O772 O 0.50824 0.77406 0.39669 0.0
C773 C 0.53589 0.76701 0.35793 0.0
C774 C 0.48404 0.75663 0.35821 0.0
O775 O 0.49176 0.74941 0.36813 0.0
O776 O 0.48831 0.76986 0.35462 0.0
C777 C 0.51507 0.72413 0.39112 0.0
O778 O 0.5124 0.72048 0.3767 0.0
C779 C 0.50547 0.78821 0.39526 0.0
Zn780 Zn 0.97919 0.76834 0.61474 0.0
Zn781 Zn 1.00455 0.76429 0.631 0.0
O782 O 0.01036 0.78254 0.61727 0.0
O783 O 0.98938 0.78519 0.60348 0.0
O784 O 0.02348 0.76142 0.64444 0.0
O785 O 0.96703 0.77302 0.63344 0.0
O786 O 0.98771 0.76872 0.64713 0.0
C787 C 1.00299 0.78929 0.60679 0.0
C788 C 0.99116 0.73854 0.60986 0.0
O789 O 1.00165 0.74363 0.61898 0.0
O790 O 0.98001 0.74689 0.60644 0.0
C791 C 0.0341 0.75215 0.64121 0.0
O792 O 0.03318 0.74413 0.62838 0.0
C793 C 0.97356 0.7721 0.64633 0.0
Zn794 Zn 0.47919 0.26762 0.11459 0.0
Zn795 Zn 0.50481 0.26418 0.13042 0.0
O796 O 0.50991 0.28249 0.11652 0.0
O797 O 0.48868 0.28467 0.10304 0.0
O798 O 0.52427 0.26168 0.14307 0.0
O799 O 0.46733 0.27209 0.13352 0.0
O800 O 0.48829 0.26835 0.14698 0.0
C801 C 0.50224 0.28906 0.10613 0.0
C802 C 0.49172 0.23809 0.10957 0.0
O803 O 0.50225 0.24343 0.11851 0.0
O804 O 0.48033 0.24619 0.10633 0.0
C805 C 0.52615 0.24986 0.15095 0.0
O806 O 0.51537 0.23927 0.15067 0.0
C807 C 0.47406 0.27142 0.14634 0.0
H808 H 0.20269 0.79615 0.85819 0.0
H809 H 0.20783 0.81221 0.88092 0.0
H810 H 0.24243 0.78111 0.89553 0.0
H811 H 0.23724 0.76485 0.87296 0.0
H812 H 0.20632 0.80513 0.9123 0.0
H813 H 0.26499 0.82255 0.89601 0.0
H814 H 0.25148 0.81383 0.88258 0.0
H815 H 0.26186 0.80231 0.8957 0.0
C816 C 0.2113 0.79262 0.86629 0.0
C817 C 0.21958 0.77918 0.86367 0.0
C818 C 0.21427 0.80188 0.87926 0.0
C819 C 0.22565 0.79799 0.88982 0.0
C820 C 0.2338 0.78451 0.88737 0.0
H821 H 0.26627 0.82928 0.97359 0.0
H822 H 0.25703 0.81635 0.95039 0.0
C823 C 0.23084 0.77523 0.87443 0.0
C824 C 0.22901 0.80796 0.90345 0.0
H825 H 0.25783 0.82821 0.92159 0.0
C826 C 0.21753 0.81032 0.91429 0.0
C827 C 0.2436 0.81484 0.90596 0.0
C828 C 0.25616 0.8134 0.89439 0.0
C829 C 0.22048 0.81874 0.92792 0.0
C830 C 0.23523 0.82517 0.93064 0.0
C831 C 0.24653 0.82323 0.91954 0.0
C832 C 0.23972 0.83288 0.94537 0.0
C833 C 0.20801 0.82015 0.93957 0.0
C834 C 0.2329 0.84646 0.95049 0.0
C835 C 0.23816 0.85396 0.96397 0.0
C836 C 0.25042 0.84804 0.97241 0.0
C837 C 0.2569 0.83427 0.96736 0.0
C838 C 0.25163 0.82682 0.95405 0.0
H839 H 0.19829 0.81215 0.93704 0.0
H840 H 0.21256 0.81795 0.95118 0.0
H841 H 0.20356 0.83191 0.93961 0.0
H842 H 0.22383 0.85148 0.94387 0.0
H843 H 0.23298 0.86457 0.96751 0.0
H844 H 0.04663 0.55661 0.41399 0.0
H845 H 0.06365 0.55106 0.39274 0.0
H846 H 0.02614 0.52955 0.36762 0.0
H847 H 0.00889 0.53549 0.38864 0.0
H848 H 0.0711 0.52313 0.38053 0.0
H849 H 0.04406 0.5583 0.33636 0.0
H850 H 0.03987 0.56055 0.35639 0.0
H851 H 0.03089 0.54544 0.34514 0.0
C852 C 0.04192 0.55092 0.40385 0.0
C853 C 0.02634 0.5466 0.403 0.0
C854 C 0.0517 0.54768 0.39174 0.0
C855 C 0.04613 0.54012 0.37848 0.0
C856 C 0.03063 0.53568 0.37761 0.0
H857 H 0.09081 0.48634 0.31112 0.0
H858 H 0.07707 0.49727 0.33259 0.0
C859 C 0.02082 0.53891 0.38973 0.0
C860 C 0.0567 0.53624 0.36587 0.0
H861 H 0.06218 0.53999 0.32762 0.0
C862 C 0.06923 0.52695 0.369 0.0
C863 C 0.05442 0.54142 0.35087 0.0
C864 C 0.04167 0.5521 0.34698 0.0
C865 C 0.07914 0.52218 0.35741 0.0
C866 C 0.07637 0.52667 0.34227 0.0
C867 C 0.06423 0.53648 0.33923 0.0
C868 C 0.08517 0.5203 0.32931 0.0
C869 C 0.09244 0.51221 0.36145 0.0
C870 C 0.09416 0.52969 0.32014 0.0
C871 C 0.10214 0.52344 0.30774 0.0
C872 C 0.10105 0.50775 0.30421 0.0
C873 C 0.09197 0.49847 0.31346 0.0
C874 C 0.08413 0.50468 0.32583 0.0
H875 H 0.09553 0.51333 0.37376 0.0
H876 H 0.08923 0.50014 0.35893 0.0
H877 H 0.10265 0.51507 0.35463 0.0
H878 H 0.09502 0.54181 0.3226 0.0
H879 H 0.10896 0.53091 0.30081 0.0
H880 H 0.78079 0.77258 0.8952 0.0
H881 H 0.77881 0.75388 0.91534 0.0
H882 H 0.78681 0.71772 0.88242 0.0
H883 H 0.78871 0.73628 0.86222 0.0
H884 H 0.75849 0.72934 0.91775 0.0
H885 H 0.81831 0.70948 0.91586 0.0
H886 H 0.8123 0.72674 0.90695 0.0
H887 H 0.80886 0.70854 0.89757 0.0
C888 C 0.78207 0.76064 0.89223 0.0
C889 C 0.78499 0.75595 0.87709 0.0
C890 C 0.78101 0.74998 0.90377 0.0
C891 C 0.78292 0.73443 0.90044 0.0
C892 C 0.78568 0.72969 0.88533 0.0
H893 H 0.77507 0.64804 0.94059 0.0
H894 H 0.77829 0.67046 0.92522 0.0
C895 C 0.78676 0.74033 0.87379 0.0
C896 C 0.78162 0.72307 0.91262 0.0
H897 H 0.80052 0.69387 0.92913 0.0
C898 C 0.76774 0.72171 0.92041 0.0
C899 C 0.79374 0.7132 0.91615 0.0
C900 C 0.80919 0.71463 0.90881 0.0
C901 C 0.76539 0.71022 0.93105 0.0
C902 C 0.77732 0.69999 0.93412 0.0
C903 C 0.79137 0.70171 0.92673 0.0
C904 C 0.77509 0.6866 0.94387 0.0
C905 C 0.74995 0.70867 0.9384 0.0
C906 C 0.77224 0.6882 0.95956 0.0
C907 C 0.77035 0.67528 0.9685 0.0
C908 C 0.77134 0.66059 0.96186 0.0
C909 C 0.77422 0.65913 0.94614 0.0
C910 C 0.7761 0.67197 0.93729 0.0
H911 H 0.7412 0.71581 0.93288 0.0
H912 H 0.74592 0.69662 0.93789 0.0
H913 H 0.75095 0.71227 0.9506 0.0
H914 H 0.77163 0.69941 0.96492 0.0
H915 H 0.7682 0.67681 0.98057 0.0
H916 H 0.97215 0.97759 0.40517 0.0
H917 H 0.95776 0.98516 0.38258 0.0
H918 H 0.99882 0.98308 0.35595 0.0
H919 H 0.01331 0.9752 0.37849 0.0
H920 H 0.96363 0.01121 0.36383 0.0
H921 H 0.96702 0.95608 0.33136 0.0
H922 H 0.9707 0.95756 0.35165 0.0
H923 H 0.98466 0.96446 0.33859 0.0
C924 C 0.97812 0.97859 0.39448 0.0
C925 C 0.99387 0.97568 0.39363 0.0
C926 C 0.96989 0.98302 0.3816 0.0
C927 C 0.97718 0.98453 0.36755 0.0
C928 C 0.99293 0.9818 0.36664 0.0
H929 H 0.92699 1.00286 0.28142 0.0
H930 H 0.94873 0.9992 0.29908 0.0
C931 C 1.00121 0.97743 0.37957 0.0
C932 C 0.96814 0.98907 0.35398 0.0
H933 H 0.95246 0.97534 0.32037 0.0
C934 C 0.96133 1.00343 0.35424 0.0
C935 C 0.9653 0.97899 0.3414 0.0
C936 C 0.9722 0.96336 0.34065 0.0
C937 C 0.95134 0.00778 0.34253 0.0
C938 C 0.94778 0.99737 0.33037 0.0
C939 C 0.95519 0.98331 0.3297 0.0
C940 C 0.93503 1.00012 0.31945 0.0
C941 C 0.94441 0.02339 0.34343 0.0
C942 C 0.92016 1.00165 0.32502 0.0
C943 C 0.90785 1.00368 0.31506 0.0
C944 C 0.91001 1.00415 0.2992 0.0
C945 C 0.92494 1.00263 0.29357 0.0
C946 C 0.93735 1.00052 0.30363 0.0
H947 H 0.95185 0.03152 0.35014 0.0
H948 H 0.94247 0.02798 0.3319 0.0
H949 H 0.93323 0.02266 0.34924 0.0
H950 H 0.91803 1.00105 0.33713 0.0
H951 H 0.89656 1.00476 0.31988 0.0
H952 H 0.20367 0.2364 0.63374 0.0
H953 H 0.20978 0.22133 0.61086 0.0
H954 H 0.25587 0.21584 0.62773 0.0
H955 H 0.24975 0.2306 0.65086 0.0
H956 H 0.23266 0.22648 0.58888 0.0
H957 H 0.24115 0.17182 0.61817 0.0
H958 H 0.2318 0.18781 0.62715 0.0
H959 H 0.25228 0.18773 0.62566 0.0
C960 C 0.21508 0.23189 0.63266 0.0
C961 C 0.22618 0.23462 0.64423 0.0
C962 C 0.21858 0.22335 0.61952 0.0
C963 C 0.23321 0.21726 0.61767 0.0
C964 C 0.24443 0.22021 0.62902 0.0
H965 H 0.27002 0.1577 0.54589 0.0
H966 H 0.26681 0.17389 0.56876 0.0
C967 C 0.24095 0.2288 0.64217 0.0
C968 C 0.23665 0.20787 0.60383 0.0
H969 H 0.24593 0.17193 0.59174 0.0
C970 C 0.23558 0.21456 0.5895 0.0
C971 C 0.24053 0.19233 0.60466 0.0
C972 C 0.24141 0.18441 0.6197 0.0
C973 C 0.2383 0.20616 0.57598 0.0
C974 C 0.24187 0.19052 0.57677 0.0
C975 C 0.24318 0.1839 0.59113 0.0
C976 C 0.24386 0.18076 0.56283 0.0
C977 C 0.23756 0.21419 0.56099 0.0
C978 C 0.23195 0.17902 0.552 0.0
C979 C 0.23376 0.16983 0.5389 0.0
C980 C 0.24749 0.16203 0.53641 0.0
C981 C 0.25932 0.16357 0.54742 0.0
C982 C 0.2575 0.17282 0.5605 0.0
H983 H 0.23936 0.22668 0.56259 0.0
H984 H 0.24625 0.20979 0.55296 0.0
H985 H 0.22606 0.21227 0.55571 0.0
H986 H 0.22116 0.18469 0.55371 0.0
H987 H 0.22436 0.16882 0.53076 0.0
H988 H 0.48163 0.56658 0.61883 0.0
H989 H 0.46544 0.56135 0.64061 0.0
H990 H 0.47551 0.51358 0.63617 0.0
H991 H 0.49177 0.51873 0.61427 0.0
H992 H 0.43958 0.54351 0.6416 0.0
H993 H 0.4836 0.52179 0.6814 0.0
H994 H 0.4885 0.53164 0.66428 0.0
H995 H 0.48257 0.51196 0.66321 0.0
C996 C 0.48041 0.55494 0.62243 0.0
C997 C 0.48802 0.54308 0.6147 0.0
C998 C 0.47117 0.55197 0.63496 0.0
C999 C 0.46934 0.53709 0.6402 0.0
C1000 C 0.47698 0.52521 0.6326 0.0
H1001 H 0.41198 0.50211 0.71375 0.0
H1002 H 0.42863 0.50414 0.69152 0.0
C1003 C 0.48627 0.52818 0.62004 0.0
C1004 C 0.45897 0.5341 0.65323 0.0
H1005 H 0.45785 0.52049 0.68945 0.0
C1006 C 0.4436 0.53848 0.65205 0.0
C1007 C 0.46415 0.52746 0.66689 0.0
C1008 C 0.48063 0.52305 0.66915 0.0
C1009 C 0.43334 0.53646 0.66408 0.0
C1010 C 0.43857 0.53006 0.67781 0.0
C1011 C 0.45384 0.52539 0.67892 0.0
C1012 C 0.4285 0.52874 0.69132 0.0
C1013 C 0.41692 0.54112 0.66198 0.0
C1014 C 0.42301 0.54188 0.69871 0.0
C1015 C 0.41358 0.54077 0.71143 0.0
C1016 C 0.40936 0.52647 0.71707 0.0
C1017 C 0.41492 0.5133 0.70968 0.0
C1018 C 0.42448 0.51443 0.69699 0.0
H1019 H 0.4138 0.5422 0.64974 0.0
H1020 H 0.40898 0.53277 0.66714 0.0
H1021 H 0.41525 0.55235 0.66775 0.0
H1022 H 0.42612 0.55304 0.69469 0.0
H1023 H 0.40958 0.55116 0.71682 0.0
H1024 H 0.79289 0.26837 0.64429 0.0
H1025 H 0.79066 0.28674 0.62392 0.0
H1026 H 0.7454 0.29816 0.63897 0.0
H1027 H 0.74769 0.28011 0.65965 0.0
H1028 H 0.76848 0.28577 0.60057 0.0
H1029 H 0.76577 0.34017 0.63409 0.0
H1030 H 0.77249 0.32277 0.64222 0.0
H1031 H 0.75235 0.3256 0.6394 0.0
C1032 C 0.78257 0.27499 0.64348 0.0
C1033 C 0.77048 0.27274 0.65366 0.0
C1034 C 0.78128 0.28543 0.63175 0.0
C1035 C 0.76793 0.29396 0.62999 0.0
C1036 C 0.75591 0.29191 0.64023 0.0
H1037 H 0.74447 0.35692 0.55619 0.0
H1038 H 0.74276 0.34174 0.57939 0.0
C1039 C 0.75718 0.28144 0.65195 0.0
C1040 C 0.76633 0.30429 0.61688 0.0
H1041 H 0.7624 0.34157 0.60734 0.0
C1042 C 0.76712 0.29796 0.60207 0.0
C1043 C 0.76437 0.32019 0.61883 0.0
C1044 C 0.76381 0.32766 0.63448 0.0
C1045 C 0.76622 0.30707 0.58918 0.0
C1046 C 0.76474 0.32302 0.59111 0.0
C1047 C 0.7635 0.32935 0.60589 0.0
C1048 C 0.76583 0.33326 0.57791 0.0
C1049 C 0.76694 0.29954 0.57356 0.0
C1050 C 0.77947 0.33389 0.56973 0.0
C1051 C 0.78046 0.34245 0.55661 0.0
C1052 C 0.76785 0.35072 0.55132 0.0
C1053 C 0.75436 0.35066 0.55992 0.0
C1054 C 0.75337 0.34199 0.57315 0.0
H1055 H 0.76376 0.28727 0.57384 0.0
H1056 H 0.75924 0.30519 0.56534 0.0
H1057 H 0.77882 0.30045 0.5693 0.0
H1058 H 0.78932 0.3275 0.57336 0.0
H1059 H 0.79112 0.34236 0.55045 0.0
H1060 H 0.54948 0.96123 0.60991 0.0
H1061 H 0.56479 0.96838 0.6325 0.0
H1062 H 0.53273 1.00356 0.64393 0.0
H1063 H 0.51688 0.99597 0.62175 0.0
H1064 H 0.57928 0.99487 0.64228 0.0
H1065 H 0.53324 0.97875 0.68224 0.0
H1066 H 0.5322 0.97396 0.66215 0.0
H1067 H 0.52813 0.99296 0.66882 0.0
C1068 C 0.54557 0.9704 0.61728 0.0
C1069 C 0.53178 0.97783 0.61411 0.0
C1070 C 0.55445 0.97459 0.63011 0.0
C1071 C 0.54979 0.98634 0.64005 0.0
C1072 C 0.5364 0.99426 0.63658 0.0
H1073 H 0.60904 0.01427 0.71926 0.0
H1074 H 0.5947 0.01565 0.69502 0.0
C1075 C 0.52743 0.99 0.62379 0.0
C1076 C 0.55864 0.98966 0.65435 0.0
H1077 H 0.55639 0.98788 0.6931 0.0
C1078 C 0.57427 0.99349 0.65341 0.0
C1079 C 0.55208 0.98776 0.66886 0.0
C1080 C 0.53554 0.98301 0.67066 0.0
C1081 C 0.58361 0.99502 0.66657 0.0
C1082 C 0.57707 0.99288 0.68103 0.0
C1083 C 0.56135 0.98959 0.68198 0.0
C1084 C 0.58649 0.99228 0.69522 0.0
C1085 C 0.6005 0.99818 0.66485 0.0
C1086 C 0.5866 0.97876 0.70335 0.0
C1087 C 0.5946 0.978 0.71714 0.0
C1088 C 0.60275 0.99075 0.72318 0.0
C1089 C 0.60295 1.00424 0.71487 0.0
C1090 C 0.5948 1.00502 0.70101 0.0
H1091 H 0.60417 0.99687 0.65281 0.0
H1092 H 0.60317 0.01003 0.66879 0.0
H1093 H 0.60731 0.99041 0.67196 0.0
H1094 H 0.58033 0.96878 0.69908 0.0
H1095 H 0.59426 0.96738 0.72315 0.0
H1096 H 0.86876 0.20587 0.77272 0.0
H1097 H 0.88916 0.20603 0.79223 0.0
H1098 H 0.88559 0.25474 0.79753 0.0
H1099 H 0.865 0.25464 0.77848 0.0
H1100 H 0.91737 0.22092 0.79204 0.0
H1101 H 0.88403 0.2412 0.84146 0.0
H1102 H 0.87505 0.23393 0.82404 0.0
H1103 H 0.88194 0.25333 0.82545 0.0
C1104 C 0.87216 0.21658 0.77821 0.0
C1105 C 0.86521 0.23025 0.77401 0.0
C1106 C 0.88388 0.21666 0.7893 0.0
C1107 C 0.88875 0.23036 0.79654 0.0
C1108 C 0.88183 0.24398 0.79236 0.0
H1109 H 0.95889 0.27358 0.84698 0.0
H1110 H 0.93628 0.26409 0.83315 0.0
C1111 C 0.87018 0.24393 0.78129 0.0
C1112 C 0.90152 0.23069 0.80796 0.0
H1113 H 0.91144 0.24465 0.8435 0.0
C1114 C 0.91603 0.22579 0.80342 0.0
C1115 C 0.89974 0.23694 0.82286 0.0
C1116 C 0.88431 0.2415 0.8288 0.0
C1117 C 0.92899 0.22797 0.81298 0.0
C1118 C 0.92734 0.2351 0.8275 0.0
C1119 C 0.91269 0.23921 0.83235 0.0
C1120 C 0.94081 0.24034 0.83684 0.0
C1121 C 0.9445 0.22352 0.80715 0.0
C1122 C 0.95079 0.23012 0.84382 0.0
C1123 C 0.96385 0.23556 0.85191 0.0
C1124 C 0.96714 0.25129 0.85298 0.0
C1125 C 0.95683 0.2614 0.84629 0.0
C1126 C 0.94383 0.256 0.83839 0.0
H1127 H 0.94402 0.21946 0.79505 0.0
H1128 H 0.95261 0.23335 0.8082 0.0
H1129 H 0.94912 0.21427 0.81418 0.0
H1130 H 0.94857 0.21798 0.84288 0.0
H1131 H 0.97156 0.22749 0.85693 0.0
H1132 H 0.49843 0.89277 0.50386 0.0
H1133 H 0.50605 0.87002 0.48941 0.0
H1134 H 0.46173 0.86776 0.46722 0.0
H1135 H 0.45374 0.89 0.48214 0.0
H1136 H 0.47171 0.8395 0.47501 0.0
H1137 H 0.51729 0.87109 0.44481 0.0
H1138 H 0.51916 0.87153 0.46522 0.0
H1139 H 0.5032 0.8806 0.45628 0.0
C1140 C 0.4902 0.88731 0.49609 0.0
C1141 C 0.47549 0.89338 0.49408 0.0
C1142 C 0.49465 0.87439 0.4877 0.0
C1143 C 0.48457 0.86734 0.477 0.0
C1144 C 0.46975 0.87305 0.47533 0.0
H1145 H 0.49761 0.818 0.39488 0.0
H1146 H 0.49367 0.83545 0.41627 0.0
C1147 C 0.46525 0.8859 0.48376 0.0
C1148 C 0.48952 0.85439 0.46707 0.0
H1149 H 0.51414 0.8451 0.4385 0.0
C1150 C 0.48108 0.84065 0.46712 0.0
C1151 C 0.50171 0.85594 0.45672 0.0
C1152 C 0.5108 0.87061 0.4556 0.0
C1153 C 0.48419 0.82861 0.45678 0.0
C1154 C 0.49622 0.83027 0.44629 0.0
C1155 C 0.50499 0.8438 0.44663 0.0
C1156 C 0.49868 0.81908 0.43358 0.0
C1157 C 0.47408 0.81454 0.45666 0.0
C1158 C 0.50285 0.80394 0.43614 0.0
C1159 C 0.50507 0.79374 0.42377 0.0
C1160 C 0.50325 0.79859 0.40869 0.0
C1161 C 0.49916 0.81379 0.4063 0.0
C1162 C 0.49691 0.82386 0.41855 0.0
H1163 H 0.46372 0.81613 0.46369 0.0
H1164 H 0.47042 0.81133 0.44483 0.0
H1165 H 0.48062 0.80493 0.46131 0.0
H1166 H 0.5045 0.80005 0.44765 0.0
H1167 H 0.50826 0.78215 0.42602 0.0
H1168 H 0.1382 0.28681 0.76463 0.0
H1169 H 0.11677 0.28017 0.78096 0.0
H1170 H 0.14792 0.25945 0.81253 0.0
H1171 H 0.16946 0.26616 0.79628 0.0
H1172 H 0.10603 0.25254 0.79048 0.0
H1173 H 0.1251 0.28844 0.84049 0.0
H1174 H 0.13358 0.2901 0.82195 0.0
H1175 H 0.1387 0.27468 0.834 0.0
C1176 C 0.1405 0.28073 0.77498 0.0
C1177 C 0.15558 0.27709 0.77916 0.0
C1178 C 0.12823 0.27698 0.78435 0.0
C1179 C 0.13072 0.26953 0.79812 0.0
C1180 C 0.14572 0.26554 0.80216 0.0
H1181 H 0.05936 0.24904 0.86625 0.0
H1182 H 0.08375 0.24762 0.85247 0.0
C1183 C 0.15802 0.26936 0.79284 0.0
C1184 C 0.11755 0.266 0.80813 0.0
H1185 H 0.10226 0.27423 0.84305 0.0
C1186 C 0.10529 0.25719 0.80202 0.0
C1187 C 0.11657 0.27197 0.82325 0.0
C1188 C 0.12911 0.28193 0.83032 0.0
C1189 C 0.09197 0.25454 0.81042 0.0
C1190 C 0.09077 0.26097 0.82529 0.0
C1191 C 0.10325 0.26923 0.83168 0.0
C1192 C 0.076 0.26094 0.83351 0.0
C1193 C 0.07912 0.24513 0.80318 0.0
C1194 C 0.06367 0.26893 0.82748 0.0
C1195 C 0.04992 0.26985 0.8353 0.0
C1196 C 0.04808 0.26278 0.84941 0.0
C1197 C 0.06037 0.25454 0.85539 0.0
C1198 C 0.0743 0.25376 0.84756 0.0
H1199 H 0.08333 0.23749 0.79391 0.0
H1200 H 0.07326 0.23813 0.81178 0.0
H1201 H 0.07058 0.25283 0.79815 0.0
H1202 H 0.06478 0.27475 0.8168 0.0
H1203 H 0.04072 0.27627 0.83029 0.0
H1204 H 0.53624 0.60121 0.46413 0.0
H1205 H 0.53102 0.62275 0.44787 0.0
H1206 H 0.53619 0.65352 0.4867 0.0
H1207 H 0.54192 0.63205 0.50301 0.0
H1208 H 0.50816 0.64423 0.44923 0.0
H1209 H 0.5653 0.67226 0.45612 0.0
H1210 H 0.56161 0.653 0.46191 0.0
H1211 H 0.55559 0.66881 0.47365 0.0
C1212 C 0.53643 0.61256 0.46923 0.0
C1213 C 0.53968 0.61484 0.48491 0.0
C1214 C 0.53333 0.62488 0.45991 0.0
C1215 C 0.53347 0.63982 0.46597 0.0
C1216 C 0.53632 0.64215 0.48167 0.0
H1217 H 0.5206 0.72747 0.42199 0.0
H1218 H 0.52446 0.70739 0.44049 0.0
C1219 C 0.53941 0.62981 0.49103 0.0
C1220 C 0.53053 0.65286 0.45579 0.0
H1221 H 0.54672 0.68528 0.44184 0.0
C1222 C 0.5166 0.6532 0.44763 0.0
C1223 C 0.5415 0.66464 0.4537 0.0
C1224 C 0.5569 0.66467 0.46169 0.0
C1225 C 0.51332 0.66495 0.43752 0.0
C1226 C 0.5244 0.67657 0.43522 0.0
C1227 C 0.53823 0.67638 0.44357 0.0
C1228 C 0.522 0.6888 0.42395 0.0
C1229 C 0.49792 0.6649 0.42954 0.0
C1230 C 0.51956 0.68511 0.40842 0.0
C1231 C 0.51734 0.69656 0.39781 0.0
C1232 C 0.5176 0.71202 0.40245 0.0
C1233 C 0.52027 0.71571 0.41799 0.0
C1234 C 0.52249 0.70423 0.4286 0.0
H1235 H 0.4893 0.65806 0.43572 0.0
H1236 H 0.4936 0.67664 0.42843 0.0
H1237 H 0.49902 0.65976 0.41793 0.0
H1238 H 0.51949 0.67334 0.40446 0.0
H1239 H 0.51543 0.69326 0.38595 0.0
H1240 H 0.86436 0.79184 0.73751 0.0
H1241 H 0.8848 0.79027 0.71879 0.0
H1242 H 0.91603 0.77528 0.75358 0.0
H1243 H 0.89569 0.77695 0.77244 0.0
H1244 H 0.91356 0.8054 0.71904 0.0
H1245 H 0.91981 0.74252 0.71958 0.0
H1246 H 0.90344 0.75201 0.72751 0.0
H1247 H 0.9213 0.75216 0.73787 0.0
C1248 C 0.8756 0.78832 0.74123 0.0
C1249 C 0.87835 0.78447 0.75649 0.0
C1250 C 0.88725 0.78736 0.73049 0.0
C1251 C 0.90188 0.78246 0.73474 0.0
C1252 C 0.90474 0.77878 0.74998 0.0
H1253 H 0.98177 0.7672 0.67625 0.0
H1254 H 0.96576 0.77055 0.6989 0.0
C1255 C 0.89309 0.77974 0.76074 0.0
C1256 C 0.91411 0.78137 0.72319 0.0
H1257 H 0.93676 0.75615 0.70406 0.0
C1258 C 0.91868 0.79464 0.71581 0.0
C1259 C 0.92086 0.76734 0.71907 0.0
C1260 C 0.91606 0.75265 0.72631 0.0
C1261 C 0.92966 0.79423 0.70427 0.0
C1262 C 0.93608 0.78014 0.69983 0.0
C1263 C 0.93186 0.76694 0.70752 0.0
C1264 C 0.94613 0.77867 0.68639 0.0
C1265 C 0.93427 0.80889 0.69688 0.0
C1266 C 0.94036 0.78201 0.67189 0.0
C1267 C 0.94939 0.78007 0.65901 0.0
C1268 C 0.96443 0.77469 0.6603 0.0
C1269 C 0.97027 0.77143 0.67487 0.0
C1270 C 0.96114 0.77331 0.6878 0.0
H1271 H 0.93197 0.81894 0.7044 0.0
H1272 H 0.9466 0.80896 0.69398 0.0
H1273 H 0.92753 0.81009 0.68617 0.0
H1274 H 0.92872 0.78587 0.67049 0.0
H1275 H 0.94447 0.78268 0.648 0.0
H1276 H 0.0657 0.90561 0.54043 0.0
H1277 H 0.06057 0.88381 0.55646 0.0
H1278 H 0.02168 0.87108 0.52793 0.0
H1279 H 0.02711 0.89244 0.51144 0.0
H1280 H 0.0355 0.87697 0.57322 0.0
H1281 H 0.04429 0.83134 0.52971 0.0
H1282 H 0.05014 0.85084 0.52687 0.0
H1283 H 0.03051 0.84495 0.52367 0.0
C1284 C 0.0562 0.89804 0.53739 0.0
C1285 C 0.04691 0.90075 0.52452 0.0
C1286 C 0.05322 0.88563 0.54666 0.0
C1287 C 0.04091 0.87563 0.54326 0.0
C1288 C 0.03146 0.87843 0.53059 0.0
H1289 H 0.99097 0.80334 0.58217 0.0
H1290 H 1.002 0.824 0.56779 0.0
C1291 C 0.03446 0.89079 0.52128 0.0
C1292 C 0.03766 0.86253 0.55318 0.0
H1293 H 0.03135 0.82405 0.55238 0.0
C1294 C 0.03481 0.86537 0.56872 0.0
C1295 C 0.03689 0.84737 0.54734 0.0
C1296 C 0.04078 0.8434 0.53102 0.0
C1297 C 0.03047 0.85356 0.57838 0.0
C1298 C 0.02907 0.83853 0.57235 0.0
C1299 C 0.03241 0.83561 0.55696 0.0
C1300 C 0.02276 0.82591 0.5814 0.0
C1301 C 0.02675 0.8573 0.59478 0.0
C1302 C 0.03086 0.82003 0.59383 0.0
C1303 C 0.02456 0.80806 0.60215 0.0
C1304 C 0.01007 0.80186 0.59817 0.0
C1305 C 1.00211 0.80782 0.58565 0.0
C1306 C 0.00842 0.81964 0.57735 0.0
H1307 H 0.02649 0.86977 0.59716 0.0
H1308 H 0.01547 0.85225 0.59771 0.0
H1309 H 0.03552 0.85232 0.60234 0.0
H1310 H 0.04204 0.82462 0.59704 0.0
H1311 H 0.031 0.80372 0.6117 0.0
H1312 H 0.15281 0.70946 0.71422 0.0
H1313 H 0.13041 0.7153 0.69865 0.0
H1314 H 0.12072 0.7535 0.7286 0.0
H1315 H 0.14354 0.74815 0.74391 0.0
H1316 H 0.1003 0.71614 0.70627 0.0
H1317 H 0.11951 0.77302 0.68721 0.0
H1318 H 0.13229 0.76002 0.69634 0.0
H1319 H 0.11923 0.77111 0.70754 0.0
C1320 C 0.14609 0.71927 0.7174 0.0
C1321 C 0.15014 0.72842 0.73027 0.0
C1322 C 0.13318 0.72251 0.70853 0.0
C1323 C 0.12399 0.73498 0.71228 0.0
C1324 C 0.1278 0.744 0.72527 0.0
H1325 H 0.04064 0.76796 0.66799 0.0
H1326 H 0.06197 0.76398 0.68584 0.0
C1327 C 0.14077 0.7408 0.73414 0.0
C1328 C 0.11031 0.73828 0.70268 0.0
H1329 H 0.09437 0.7651 0.68003 0.0
C1330 C 0.09902 0.72685 0.70054 0.0
C1331 C 0.10859 0.75228 0.69522 0.0
C1332 C 0.1206 0.76478 0.69655 0.0
C1333 C 0.08611 0.72902 0.69116 0.0
C1334 C 0.08452 0.74291 0.68354 0.0
C1335 C 0.09563 0.75446 0.68589 0.0
C1336 C 0.07166 0.74544 0.67267 0.0
C1337 C 0.07421 0.71644 0.68957 0.0
C1338 C 0.07016 0.7365 0.65924 0.0
C1339 C 0.05805 0.73877 0.649 0.0
C1340 C 0.04715 0.75006 0.65197 0.0
C1341 C 0.04878 0.75913 0.66537 0.0
C1342 C 0.06097 0.75689 0.67558 0.0
H1343 H 0.07506 0.70828 0.699 0.0
H1344 H 0.06249 0.72115 0.68935 0.0
H1345 H 0.07595 0.71004 0.67867 0.0
H1346 H 0.07842 0.72777 0.65663 0.0
H1347 H 0.0572 0.7316 0.63879 0.0
H1348 H 0.99895 0.60941 0.53231 0.0
H1349 H 1.00645 0.63103 0.5492 0.0
H1350 H 0.95931 0.64458 0.55156 0.0
H1351 H 0.95176 0.6232 0.5347 0.0
H1352 H 1.00228 0.66248 0.54581 0.0
H1353 H 0.97192 0.64203 0.5965 0.0
H1354 H 0.97577 0.6298 0.58018 0.0
H1355 H 0.95969 0.64237 0.57992 0.0
C1356 C 0.9902 0.61706 0.53637 0.0
C1357 C 0.97472 0.61447 0.5323 0.0
C1358 C 0.9945 0.62935 0.54607 0.0
C1359 C 0.98339 0.6392 0.55191 0.0
C1360 C 0.96802 0.63687 0.54753 0.0
H1361 H 0.96815 0.72301 0.5949 0.0
H1362 H 0.96899 0.69809 0.58224 0.0
C1363 C 0.96372 0.62463 0.53789 0.0
C1364 C 0.9877 0.65216 0.56236 0.0
H1365 H 0.97838 0.66877 0.59654 0.0
C1366 C 0.99734 0.66374 0.55705 0.0
C1367 C 0.98136 0.6537 0.57708 0.0
C1368 C 0.97174 0.64123 0.58383 0.0
C1369 C 0.99993 0.67728 0.56564 0.0
C1370 C 0.99275 0.67919 0.5799 0.0
C1371 C 0.98382 0.66727 0.58557 0.0
C1372 C 0.99267 0.69412 0.58811 0.0
C1373 C 0.00954 0.68985 0.55908 0.0
C1374 C 1.00571 0.70008 0.59582 0.0
C1375 C 1.00526 0.71442 0.60322 0.0
C1376 C 0.99179 0.723 0.6029 0.0
C1377 C 0.97875 0.7168 0.59533 0.0
C1378 C 0.97918 0.70252 0.58809 0.0
H1379 H 0.01359 0.68691 0.54744 0.0
H1380 H 1.00285 0.70048 0.55862 0.0
H1381 H 0.01966 0.6922 0.5666 0.0
H1382 H 0.01621 0.69368 0.59604 0.0
H1383 H 0.01549 0.71888 0.60895 0.0
H1384 H 0.78824 0.86513 0.19496 0.0
H1385 H 0.80466 0.88746 0.20036 0.0
H1386 H 0.79142 0.88718 0.24753 0.0
H1387 H 0.7754 0.86454 0.24237 0.0
H1388 H 0.79782 0.91621 0.21172 0.0
H1389 H 0.83797 0.88769 0.25075 0.0
H1390 H 0.82446 0.87724 0.2386 0.0
H1391 H 0.81835 0.88581 0.2563 0.0
C1392 C 0.78894 0.8697 0.20654 0.0
C1393 C 0.78059 0.86289 0.21826 0.0
C1394 C 0.79826 0.88255 0.20957 0.0
C1395 C 0.79952 0.88884 0.2244 0.0
C1396 C 0.7909 0.88234 0.23605 0.0
H1397 H 0.83927 0.96439 0.27294 0.0
H1398 H 0.8261 0.94168 0.26296 0.0
C1399 C 0.78158 0.86949 0.23304 0.0
C1400 C 0.80973 0.90227 0.2277 0.0
H1401 H 0.83942 0.91484 0.25066 0.0
C1402 C 0.80704 0.91588 0.22009 0.0
C1403 C 0.82187 0.90179 0.23852 0.0
C1404 C 0.82596 0.88731 0.24641 0.0
C1405 C 0.81566 0.92921 0.22359 0.0
C1406 C 0.8274 0.92885 0.23483 0.0
C1407 C 0.83041 0.91511 0.24205 0.0
C1408 C 0.83566 0.94286 0.24041 0.0
C1409 C 0.81173 0.94374 0.21573 0.0
C1410 C 0.84558 0.95112 0.23106 0.0
C1411 C 0.85326 0.96427 0.23679 0.0
C1412 C 0.85111 0.96936 0.25195 0.0
C1413 C 0.84122 0.96092 0.26121 0.0
C1414 C 0.83366 0.94786 0.25553 0.0
H1415 H 0.80088 0.94265 0.20903 0.0
H1416 H 0.81069 0.95325 0.22422 0.0
H1417 H 0.82106 0.94677 0.20784 0.0
H1418 H 0.84745 0.94733 0.2194 0.0
H1419 H 0.86081 0.97046 0.22936 0.0
H1420 H 0.77254 0.1416 0.30005 0.0
H1421 H 0.78871 0.12028 0.29266 0.0
H1422 H 0.80307 0.14416 0.25285 0.0
H1423 H 0.78709 0.16576 0.26033 0.0
H1424 H 0.78748 0.10257 0.26474 0.0
H1425 H 0.84389 0.13197 0.27391 0.0
H1426 H 0.82647 0.13927 0.28196 0.0
H1427 H 0.83005 0.14111 0.26199 0.0
C1428 C 0.77923 0.14241 0.28979 0.0
C1429 C 0.77858 0.15547 0.28085 0.0
C1430 C 0.78841 0.13016 0.28553 0.0
C1431 C 0.79725 0.13068 0.27231 0.0
C1432 C 0.79652 0.14359 0.26322 0.0
H1433 H 0.86118 0.05685 0.24559 0.0
H1434 H 0.84665 0.08063 0.2439 0.0
C1435 C 0.78726 0.15586 0.26744 0.0
C1436 C 0.80701 0.11754 0.26812 0.0
H1437 H 0.8442 0.10596 0.26689 0.0
C1438 C 0.79988 0.10337 0.26501 0.0
C1439 C 0.8232 0.11859 0.26833 0.0
C1440 C 0.83145 0.1335 0.2718 0.0
C1441 C 0.80846 0.09015 0.26268 0.0
C1442 C 0.82462 0.09103 0.26374 0.0
C1443 C 0.83182 0.10531 0.26606 0.0
C1444 C 0.83394 0.07705 0.26455 0.0
C1445 C 0.80012 0.07523 0.2595 0.0
C1446 C 0.83188 0.06741 0.27685 0.0
C1447 C 0.84009 0.054 0.27785 0.0
C1448 C 0.8507 0.04982 0.26659 0.0
C1449 C 0.85308 0.05968 0.2544 0.0
C1450 C 0.84479 0.07325 0.25343 0.0
H1451 H 0.78856 0.07701 0.25449 0.0
H1452 H 0.80668 0.06779 0.2516 0.0
H1453 H 0.79867 0.0692 0.27037 0.0
H1454 H 0.82381 0.07025 0.28571 0.0
H1455 H 0.83798 0.04685 0.28751 0.0
H1456 H 0.38863 0.98314 0.95364 0.0
H1457 H 0.36622 0.96848 0.96125 0.0
H1458 H 0.37062 0.98747 0.00694 0.0
H1459 H 0.39354 1.00164 0.9996 0.0
H1460 H 0.36657 0.95757 0.00746 0.0
H1461 H 0.32277 0.98059 0.96878 0.0
H1462 H 0.33895 0.97387 0.95837 0.0
H1463 H 0.34129 0.98965 0.97175 0.0
C1464 C 0.38489 0.9842 0.96533 0.0
C1465 C 0.39299 0.99358 0.976 0.0
C1466 C 0.37188 0.97598 0.96961 0.0
C1467 C 0.36649 0.97709 0.9846 0.0
C1468 C 0.37443 0.98655 0.99526 0.0
H1469 H 0.28234 0.92556 0.00872 0.0
H1470 H 0.30016 0.94718 1.00532 0.0
C1471 C 0.38751 0.99473 0.99101 0.0
C1472 C 0.35335 0.96742 0.9894 0.0
H1473 H 0.31696 0.95597 0.97925 0.0
C1474 C 0.35565 0.95743 1.00144 0.0
C1475 C 0.33894 0.96737 0.98179 0.0
C1476 C 0.33528 0.97858 0.96957 0.0
C1477 C 0.34432 0.94682 1.00544 0.0
C1478 C 0.3304 0.94593 0.997 0.0
C1479 C 0.32771 0.95651 0.98559 0.0
C1480 C 0.3193 0.93316 0.9989 0.0
C1481 C 0.34749 0.93644 0.01852 0.0
C1482 C 0.32403 0.91821 0.99607 0.0
C1483 C 0.31399 0.90597 0.99799 0.0
C1484 C 0.29884 0.90831 1.00269 0.0
C1485 C 0.29393 0.92335 1.00517 0.0
C1486 C 0.30409 0.93569 1.00323 0.0
H1487 H 0.35597 0.94165 0.02672 0.0
H1488 H 0.33686 0.93368 0.02474 0.0
H1489 H 0.35233 0.92565 0.014 0.0
H1490 H 0.33558 0.91598 0.99235 0.0
H1491 H 0.3182 0.8946 0.9958 0.0
H1492 H 0.263 0.38166 0.25926 0.0
H1493 H 0.24419 0.40171 0.25638 0.0
H1494 H 0.23116 0.39697 0.30329 0.0
H1495 H 0.2504 0.37735 0.30647 0.0
H1496 H 0.21359 0.39965 0.2592 0.0
H1497 H 0.23673 0.44271 0.30091 0.0
H1498 H 0.24767 0.42661 0.29438 0.0
H1499 H 0.23372 0.42442 0.3091 0.0
C1500 C 0.25635 0.38506 0.26907 0.0
C1501 C 0.25831 0.37792 0.28313 0.0
C1502 C 0.24552 0.39648 0.26736 0.0
C1503 C 0.23643 0.40105 0.27968 0.0
C1504 C 0.23828 0.3939 0.29371 0.0
H1505 H 0.14813 0.44157 0.27762 0.0
H1506 H 0.17055 0.4256 0.27937 0.0
C1507 C 0.24914 0.38251 0.29545 0.0
C1508 C 0.22444 0.41266 0.27758 0.0
H1509 H 0.21101 0.44633 0.29203 0.0
C1510 C 0.21313 0.40993 0.26629 0.0
C1511 C 0.22394 0.4262 0.28666 0.0
C1512 C 0.23625 0.43026 0.29834 0.0
C1513 C 0.20105 0.42005 0.2642 0.0
C1514 C 0.20008 0.43314 0.27384 0.0
C1515 C 0.21169 0.43621 0.28475 0.0
C1516 C 0.18665 0.44327 0.27326 0.0
C1517 C 0.18941 0.4166 0.25168 0.0
C1518 C 0.1883 0.45872 0.26976 0.0
C1519 C 0.17541 0.46801 0.26882 0.0
C1520 C 0.16069 0.46199 0.27146 0.0
C1521 C 0.15923 0.4466 0.27535 0.0
C1522 C 0.17205 0.43739 0.2763 0.0
H1523 H 0.19412 0.40898 0.24265 0.0
H1524 H 0.17934 0.41073 0.25657 0.0
H1525 H 0.18545 0.4272 0.24635 0.0
H1526 H 0.19951 0.46351 0.2675 0.0
H1527 H 0.17695 0.47983 0.26586 0.0
H1528 H 0.12754 0.02786 0.45267 0.0
H1529 H 0.14887 0.04496 0.45977 0.0
H1530 H 0.13013 0.05148 0.50465 0.0
H1531 H 0.10859 0.03438 0.49758 0.0
H1532 H 0.14618 0.07593 0.46956 0.0
H1533 H 0.17559 0.04118 0.51305 0.0
H1534 H 0.16189 0.03296 0.49949 0.0
H1535 H 0.15545 0.0443 0.51537 0.0
C1536 C 0.12791 0.03293 0.46405 0.0
C1537 C 0.1163 0.02982 0.47453 0.0
C1538 C 0.14015 0.04265 0.46811 0.0
C1539 C 0.14113 0.04943 0.48275 0.0
C1540 C 0.12972 0.04619 0.49336 0.0
H1541 H 0.21851 0.11061 0.51176 0.0
H1542 H 0.19343 0.09749 0.51259 0.0
C1543 C 0.11743 0.03642 0.4893 0.0
C1544 C 0.15386 0.06032 0.48647 0.0
H1545 H 0.18729 0.06449 0.50691 0.0
C1546 C 0.15506 0.07352 0.47787 0.0
C1547 C 0.16535 0.05724 0.49743 0.0
C1548 C 0.16466 0.04313 0.50685 0.0
C1549 C 0.16777 0.0834 0.47947 0.0
C1550 C 0.17968 0.07988 0.48978 0.0
C1551 C 0.17811 0.06714 0.49901 0.0
C1552 C 0.19461 0.08811 0.48959 0.0
C1553 C 0.16855 0.09732 0.46977 0.0
C1554 C 0.20356 0.08703 0.47649 0.0
C1555 C 0.21777 0.09438 0.47601 0.0
C1556 C 0.22343 0.10301 0.48865 0.0
C1557 C 0.21444 0.10412 0.50182 0.0
C1558 C 0.20016 0.09662 0.50232 0.0
H1559 H 0.15697 0.10084 0.46601 0.0
H1560 H 0.17425 0.10701 0.47605 0.0
H1561 H 0.17529 0.09468 0.45942 0.0
H1562 H 0.19959 0.08034 0.46663 0.0
H1563 H 0.22434 0.09323 0.46567 0.0
H1564 H 0.75539 0.12491 0.7323 0.0
H1565 H 0.73633 0.10464 0.73557 0.0
H1566 H 0.70205 0.13818 0.74524 0.0
H1567 H 0.72107 0.15854 0.7421 0.0
H1568 H 0.71978 0.09881 0.76177 0.0
H1569 H 0.68063 0.11037 0.71321 0.0
H1570 H 0.69976 0.11836 0.71472 0.0
H1571 H 0.68457 0.12651 0.72569 0.0
C1572 C 0.74379 0.128 0.73512 0.0
C1573 C 0.73979 0.14339 0.73695 0.0
C1574 C 0.73289 0.11638 0.73692 0.0
C1575 C 0.71771 0.11987 0.74049 0.0
C1576 C 0.71361 0.1352 0.74217 0.0
H1577 H 0.63697 0.06512 0.76089 0.0
H1578 H 0.65538 0.08572 0.75635 0.0
C1579 C 0.72451 0.14685 0.74036 0.0
C1580 C 0.70642 0.10742 0.74318 0.0
H1581 H 0.67218 0.09204 0.73077 0.0
C1582 C 0.70941 0.09729 0.75495 0.0
C1583 C 0.69284 0.10548 0.73432 0.0
C1584 C 0.68927 0.11566 0.72119 0.0
C1585 C 0.69911 0.08542 0.75825 0.0
C1586 C 0.68557 0.08341 0.74934 0.0
C1587 C 0.68255 0.09357 0.73759 0.0
C1588 C 0.67441 0.07082 0.75201 0.0
C1589 C 0.70268 0.07537 0.7715 0.0
C1590 C 0.6789 0.05556 0.75088 0.0
C1591 C 0.66842 0.04375 0.75355 0.0
C1592 C 0.65316 0.04693 0.75725 0.0
C1593 C 0.64863 0.06223 0.75812 0.0
C1594 C 0.65914 0.07404 0.7555 0.0
H1595 H 0.71101 0.08092 0.77963 0.0
H1596 H 0.69214 0.0724 0.77778 0.0
H1597 H 0.7078 0.06466 0.76714 0.0
H1598 H 0.69052 0.05276 0.74786 0.0
H1599 H 0.67229 0.03211 0.75264 0.0
H1600 H 0.40221 0.02097 0.51897 0.0
H1601 H 0.38026 0.03687 0.5131 0.0
H1602 H 0.37854 0.05197 0.56018 0.0
H1603 H 0.40035 0.03597 0.56622 0.0
H1604 H 0.35053 0.03604 0.52597 0.0
H1605 H 0.37971 0.09206 0.53664 0.0
H1606 H 0.39012 0.07461 0.53408 0.0
H1607 H 0.38093 0.07879 0.55185 0.0
C1608 C 0.3971 0.02757 0.52812 0.0
C1609 C 0.40313 0.02723 0.54306 0.0
C1610 C 0.3846 0.03672 0.52472 0.0
C1611 C 0.37792 0.04578 0.53615 0.0
C1612 C 0.38373 0.04533 0.55112 0.0
H1613 H 0.30121 0.10939 0.52786 0.0
H1614 H 0.32203 0.0942 0.53853 0.0
C1615 C 0.39622 0.03617 0.55453 0.0
C1616 C 0.36468 0.05546 0.5324 0.0
H1617 H 0.35344 0.09244 0.53005 0.0
C1618 C 0.35115 0.04837 0.52691 0.0
C1619 C 0.36547 0.07154 0.53378 0.0
C1620 C 0.37985 0.07977 0.5393 0.0
C1621 C 0.33844 0.05691 0.52257 0.0
C1622 C 0.33939 0.073 0.52346 0.0
C1623 C 0.35275 0.08011 0.52938 0.0
C1624 C 0.32706 0.08257 0.51718 0.0
C1625 C 0.32409 0.04861 0.51705 0.0
C1626 C 0.32329 0.08133 0.50162 0.0
C1627 C 0.31151 0.08991 0.49553 0.0
C1628 C 0.30324 0.10007 0.50484 0.0
C1629 C 0.30731 0.10164 0.52039 0.0
C1630 C 0.31918 0.09298 0.5265 0.0
H1631 H 0.32352 0.03684 0.52135 0.0
H1632 H 0.31368 0.05474 0.52068 0.0
H1633 H 0.32406 0.04784 0.5044 0.0
H1634 H 0.32947 0.07366 0.49415 0.0
H1635 H 0.30884 0.08848 0.48349 0.0
H1636 H 0.62727 0.48994 0.56204 0.0
H1637 H 0.64866 0.47348 0.55558 0.0
H1638 H 0.63333 0.47128 0.50866 0.0
H1639 H 0.61176 0.48761 0.51505 0.0
H1640 H 0.64746 0.4438 0.54313 0.0
H1641 H 0.6788 0.4826 0.50507 0.0
H1642 H 0.66402 0.48915 0.51773 0.0
H1643 H 0.65899 0.47946 0.50004 0.0
C1644 C 0.62838 0.48594 0.55034 0.0
C1645 C 0.61769 0.49015 0.53908 0.0
C1646 C 0.64069 0.47657 0.54665 0.0
C1647 C 0.64274 0.47125 0.5316 0.0
C1648 C 0.63219 0.47548 0.5203 0.0
H1649 H 0.70862 0.4122 0.48697 0.0
H1650 H 0.68752 0.42902 0.49343 0.0
C1651 C 0.61984 0.48485 0.52398 0.0
C1652 C 0.6556 0.46085 0.5279 0.0
H1653 H 0.68768 0.4573 0.50624 0.0
C1654 C 0.6563 0.44678 0.53511 0.0
C1655 C 0.66711 0.46469 0.5174 0.0
C1656 C 0.66733 0.47984 0.50969 0.0
C1657 C 0.66797 0.43634 0.53191 0.0
C1658 C 0.67955 0.4402 0.52146 0.0
C1659 C 0.67885 0.4543 0.51426 0.0
C1660 C 0.69238 0.42975 0.5177 0.0
C1661 C 0.66752 0.4211 0.53946 0.0
C1662 C 0.70232 0.42459 0.52913 0.0
C1663 C 0.71438 0.41484 0.52548 0.0
C1664 C 0.71691 0.41017 0.51026 0.0
C1665 C 0.70704 0.41551 0.49881 0.0
C1666 C 0.69495 0.42517 0.50249 0.0
H1667 H 0.65586 0.41822 0.5435 0.0
H1668 H 0.67127 0.41188 0.53155 0.0
H1669 H 0.67535 0.42149 0.54953 0.0
H1670 H 0.70087 0.42823 0.5409 0.0
H1671 H 0.72182 0.41109 0.53457 0.0
H1672 H 0.69766 0.29197 0.36204 0.0
H1673 H 0.70276 0.30822 0.38465 0.0
H1674 H 0.74681 0.28752 0.39035 0.0
H1675 H 0.74207 0.27163 0.36745 0.0
H1676 H 0.70884 0.3009 0.41464 0.0
H1677 H 0.75785 0.33269 0.39083 0.0
H1678 H 0.74504 0.32095 0.37909 0.0
H1679 H 0.76022 0.31244 0.38984 0.0
C1680 C 0.70853 0.29099 0.36798 0.0
C1681 C 0.71952 0.28056 0.36278 0.0
C1682 C 0.71136 0.30022 0.38099 0.0
C1683 C 0.72527 0.2993 0.38906 0.0
C1684 C 0.73612 0.28867 0.38413 0.0
H1685 H 0.77028 0.33393 0.46895 0.0
H1686 H 0.76067 0.32115 0.44584 0.0
C1687 C 0.73331 0.27945 0.37112 0.0
C1688 C 0.72844 0.30936 0.40269 0.0
H1689 H 0.75443 0.33519 0.41774 0.0
C1690 C 0.7187 0.30855 0.41527 0.0
C1691 C 0.74122 0.31946 0.40344 0.0
C1692 C 0.7516 0.32158 0.39003 0.0
C1693 C 0.72184 0.31697 0.42886 0.0
C1694 C 0.73497 0.32657 0.4298 0.0
C1695 C 0.74438 0.32779 0.41702 0.0
C1696 C 0.74005 0.33433 0.4443 0.0
C1697 C 0.71151 0.31503 0.44234 0.0
C1698 C 0.7316 0.34604 0.45125 0.0
C1699 C 0.7371 0.3535 0.46466 0.0
C1700 C 0.75117 0.34937 0.47125 0.0
C1701 C 0.75943 0.33752 0.46425 0.0
C1702 C 0.75396 0.33015 0.45097 0.0
H1703 H 0.70317 0.30548 0.44051 0.0
H1704 H 0.71838 0.31295 0.4528 0.0
H1705 H 0.70503 0.32564 0.44432 0.0
H1706 H 0.7209 0.34959 0.44619 0.0
H1707 H 0.73049 0.3626 0.46971 0.0
H1708 H 0.54306 0.06371 0.90821 0.0
H1709 H 0.55931 0.05889 0.88618 0.0
H1710 H 0.52968 0.02148 0.87166 0.0
H1711 H 0.513 0.02661 0.89326 0.0
H1712 H 0.57544 0.03372 0.87821 0.0
H1713 H 0.53278 0.0453 0.83294 0.0
H1714 H 0.52984 0.05055 0.8527 0.0
H1715 H 0.52604 0.03134 0.84592 0.0
C1716 C 0.53983 0.05461 0.9002 0.0
C1717 C 0.5266 0.04564 0.90247 0.0
C1718 C 0.54922 0.0518 0.88767 0.0
C1719 C 0.54558 0.04001 0.8771 0.0
C1720 C 0.53254 0.03088 0.87946 0.0
H1721 H 0.58369 0.99027 0.80378 0.0
H1722 H 0.56959 1.0016 0.82478 0.0
C1723 C 0.52311 0.0337 0.89195 0.0
C1724 C 0.55562 0.03694 0.86385 0.0
H1725 H 0.55511 0.03175 0.82511 0.0
C1726 C 0.57107 0.03352 0.86658 0.0
C1727 C 0.54995 0.03682 0.84865 0.0
C1728 C 0.53379 0.04136 0.84484 0.0
C1729 C 0.58075 0.02921 0.85458 0.0
C1730 C 0.57485 0.0284 0.8395 0.0
C1731 C 0.55959 0.03237 0.83671 0.0
C1732 C 0.58377 0.02193 0.8267 0.0
C1733 C 0.59701 0.02485 0.85815 0.0
C1734 C 0.59645 0.02968 0.82071 0.0
C1735 C 0.60461 0.02321 0.80854 0.0
C1736 C 0.60022 0.00889 0.80224 0.0
C1737 C 0.58748 1.00127 0.80833 0.0
C1738 C 0.57935 0.00775 0.82035 0.0
H1739 H 0.59937 0.02458 0.87062 0.0
H1740 H 0.59944 0.01348 0.853 0.0
H1741 H 0.605 0.03319 0.85308 0.0
H1742 H 0.59995 0.04072 0.8254 0.0
H1743 H 0.61433 0.02939 0.8041 0.0
H1744 H 0.29068 0.23817 0.3626 0.0
H1745 H 0.28859 0.21964 0.38284 0.0
H1746 H 0.27815 0.25567 0.41514 0.0
H1747 H 0.28033 0.27432 0.39499 0.0
H1748 H 0.30523 0.21846 0.41053 0.0
H1749 H 0.24292 0.22487 0.42061 0.0
H1750 H 0.2521 0.23194 0.40383 0.0
H1751 H 0.25418 0.24215 0.42175 0.0
C1752 C 0.28805 0.24219 0.37403 0.0
C1753 C 0.28562 0.25774 0.37714 0.0
C1754 C 0.28679 0.23157 0.38557 0.0
C1755 C 0.283 0.23624 0.40045 0.0
C1756 C 0.28075 0.25177 0.40367 0.0
H1757 H 0.26795 0.17783 0.47962 0.0
H1758 H 0.27166 0.20054 0.46415 0.0
C1759 C 0.282 0.26241 0.39213 0.0
C1760 C 0.28164 0.22482 0.41257 0.0
H1761 H 0.25611 0.20784 0.43624 0.0
C1762 C 0.29451 0.2162 0.4162 0.0
C1763 C 0.26767 0.22197 0.42007 0.0
C1764 C 0.25337 0.23061 0.41633 0.0
C1765 C 0.29374 0.20462 0.42692 0.0
C1766 C 0.27965 0.2014 0.43402 0.0
C1767 C 0.2669 0.21036 0.4308 0.0
C1768 C 0.27761 0.18789 0.44365 0.0
C1769 C 0.30801 0.19584 0.43046 0.0
C1770 C 0.27951 0.17332 0.43719 0.0
C1771 C 0.27739 0.16042 0.4459 0.0
C1772 C 0.27323 0.16176 0.46133 0.0
C1773 C 0.27122 0.1764 0.4678 0.0
C1774 C 0.27331 0.18937 0.45899 0.0
H1775 H 0.31852 0.20249 0.42785 0.0
H1776 H 0.30846 0.19269 0.44264 0.0
H1777 H 0.30801 0.18522 0.42335 0.0
H1778 H 0.28251 0.17189 0.42529 0.0
H1779 H 0.27898 0.14938 0.44046 0.0
H1780 H 0.50112 0.45321 0.87547 0.0
H1781 H 0.48641 0.45983 0.85272 0.0
H1782 H 0.47368 0.50219 0.8746 0.0
H1783 H 0.4884 0.49567 0.89735 0.0
H1784 H 0.45613 0.464 0.85104 0.0
H1785 H 0.48561 0.51651 0.83285 0.0
H1786 H 0.49402 0.50383 0.8464 0.0
H1787 H 0.48019 0.51762 0.85249 0.0
C1788 C 0.49526 0.46398 0.87541 0.0
C1789 C 0.49592 0.4739 0.88826 0.0
C1790 C 0.48693 0.46779 0.86235 0.0
C1791 C 0.47911 0.48162 0.86182 0.0
C1792 C 0.47994 0.49165 0.87454 0.0
H1793 H 0.3968 0.50376 0.81672 0.0
H1794 H 0.41828 0.49792 0.83332 0.0
C1795 C 0.48833 0.48788 0.88759 0.0
C1796 C 0.46897 0.4849 0.84856 0.0
H1797 H 0.46007 0.51208 0.82277 0.0
C1798 C 0.45718 0.47441 0.84472 0.0
C1799 C 0.47038 0.49839 0.84015 0.0
C1800 C 0.48334 0.50966 0.84307 0.0
C1801 C 0.44635 0.47738 0.83326 0.0
C1802 C 0.44719 0.4913 0.82553 0.0
C1803 C 0.45939 0.50147 0.8288 0.0
C1804 C 0.43464 0.49593 0.81515 0.0
C1805 C 0.43386 0.46573 0.82973 0.0
C1806 C 0.43682 0.49725 0.79938 0.0
C1807 C 0.42443 0.50063 0.7897 0.0
C1808 C 0.40974 0.50279 0.79572 0.0
C1809 C 0.40787 0.50201 0.81161 0.0
C1810 C 0.42016 0.49865 0.82117 0.0
H1811 H 0.43709 0.45423 0.83353 0.0
H1812 H 0.42332 0.46908 0.83581 0.0
H1813 H 0.43118 0.4651 0.81732 0.0
H1814 H 0.44797 0.49527 0.79453 0.0
H1815 H 0.42628 0.50119 0.77755 0.0
H1816 H 0.75419 0.73798 0.14872 0.0
H1817 H 0.76145 0.72327 0.12594 0.0
H1818 H 0.71394 0.71242 0.11644 0.0
H1819 H 0.70655 0.72753 0.13883 0.0
H1820 H 0.75644 0.69274 0.11942 0.0
H1821 H 0.72827 0.72741 0.07551 0.0
H1822 H 0.73118 0.73418 0.09494 0.0
H1823 H 0.71556 0.72132 0.09013 0.0
C1824 C 0.74525 0.73268 0.14165 0.0
C1825 C 0.72976 0.73401 0.14563 0.0
C1826 C 0.74944 0.72418 0.12868 0.0
C1827 C 0.73824 0.7169 0.11934 0.0
C1828 C 0.72278 0.71817 0.12328 0.0
H1829 H 0.73951 0.65585 0.03975 0.0
H1830 H 0.73251 0.67149 0.06202 0.0
C1831 C 0.71858 0.72667 0.13623 0.0
C1832 C 0.74275 0.70754 0.1058 0.0
H1833 H 0.73766 0.70336 0.06719 0.0
C1834 C 0.75242 0.69513 0.10799 0.0
C1835 C 0.73747 0.71062 0.09087 0.0
C1836 C 0.72767 0.72419 0.08765 0.0
C1837 C 0.7567 0.68556 0.09573 0.0
C1838 C 0.75134 0.6886 0.08083 0.0
C1839 C 0.74171 0.70101 0.07862 0.0
C1840 C 0.75567 0.67905 0.06737 0.0
C1841 C 0.76664 0.67207 0.09887 0.0
C1842 C 0.771 0.67822 0.06288 0.0
C1843 C 0.77504 0.66931 0.05014 0.0
C1844 C 0.76383 0.66106 0.0416 0.0
C1845 C 0.74845 0.66199 0.04609 0.0
C1846 C 0.74442 0.67096 0.0588 0.0
H1847 H 0.76668 0.6692 0.11113 0.0
H1848 H 0.76271 0.66191 0.09204 0.0
H1849 H 0.77858 0.67479 0.09562 0.0
H1850 H 0.77985 0.68458 0.06916 0.0
H1851 H 0.78698 0.66893 0.04699 0.0
H1852 H 0.97341 0.06184 0.11314 0.0
H1853 H 0.95653 0.05627 0.13431 0.0
H1854 H 0.98418 0.01789 0.14579 0.0
H1855 H 1.00149 0.02369 0.12488 0.0
H1856 H 0.93925 0.03026 0.13941 0.0
H1857 H 0.98122 0.04074 0.18679 0.0
H1858 H 0.9847 0.04676 0.1676 0.0
H1859 H 0.987 0.02716 0.17241 0.0
C1860 C 0.97609 0.05233 0.12028 0.0
C1861 C 0.98897 0.04332 0.11733 0.0
C1862 C 0.96632 0.04909 0.13234 0.0
C1863 C 0.96917 0.0368 0.14183 0.0
C1864 C 0.98188 0.02762 0.13883 0.0
H1865 H 0.91931 1.00555 0.22205 0.0
H1866 H 0.93734 0.00783 0.20099 0.0
C1867 C 0.99168 0.03085 0.12673 0.0
C1868 C 0.95861 0.03353 0.15463 0.0
H1869 H 0.95665 0.03176 0.19349 0.0
C1870 C 0.94307 0.03058 0.15123 0.0
C1871 C 0.96358 0.03384 0.17008 0.0
C1872 C 0.98 0.03741 0.17452 0.0
C1873 C 0.9324 0.02798 0.16279 0.0
C1874 C 0.93729 0.02865 0.17827 0.0
C1875 C 0.95288 0.03128 0.18166 0.0
C1876 C 0.9263 0.02718 0.19107 0.0
C1877 C 0.916 0.02437 0.15829 0.0
C1878 C 0.9142 0.03741 0.19268 0.0
C1879 C 0.90386 0.03612 0.20466 0.0
C1880 C 0.90543 0.02462 0.21544 0.0
C1881 C 0.91769 0.0145 0.21394 0.0
C1882 C 0.92804 0.0158 0.20191 0.0
H1883 H 0.91507 0.01979 0.14638 0.0
H1884 H 0.91081 0.01597 0.16601 0.0
H1885 H 0.90925 0.03495 0.15899 0.0
H1886 H 0.9128 0.04652 0.18471 0.0
H1887 H 0.89467 0.04421 0.20549 0.0
H1888 H 0.29376 0.7678 0.14413 0.0
H1889 H 0.29145 0.78625 0.12385 0.0
H1890 H 0.24715 0.79914 0.14043 0.0
H1891 H 0.24954 0.78101 0.16103 0.0
H1892 H 0.26864 0.78599 0.10124 0.0
H1893 H 0.26852 0.84048 0.13484 0.0
H1894 H 0.27491 0.82287 0.14278 0.0
H1895 H 0.25482 0.82635 0.14055 0.0
C1896 C 0.28365 0.77476 0.14368 0.0
C1897 C 0.27185 0.7729 0.15427 0.0
C1898 C 0.2823 0.78525 0.132 0.0
C1899 C 0.26919 0.79421 0.13069 0.0
C1900 C 0.25748 0.79255 0.14134 0.0
H1901 H 0.24528 0.8572 0.05703 0.0
H1902 H 0.24373 0.84218 0.08034 0.0
C1903 C 0.2588 0.78204 0.15302 0.0
C1904 C 0.26749 0.80458 0.11763 0.0
H1905 H 0.26436 0.84198 0.10819 0.0
C1906 C 0.26766 0.79822 0.10279 0.0
C1907 C 0.26605 0.82054 0.11963 0.0
C1908 C 0.26617 0.82804 0.13529 0.0
C1909 C 0.26667 0.80737 0.08993 0.0
C1910 C 0.26569 0.82335 0.0919 0.0
C1911 C 0.26507 0.82972 0.10671 0.0
C1912 C 0.26672 0.83354 0.07867 0.0
C1913 C 0.26679 0.79984 0.07427 0.0
C1914 C 0.28027 0.83402 0.07034 0.0
C1915 C 0.28118 0.8425 0.05715 0.0
C1916 C 0.26857 0.85082 0.05194 0.0
C1917 C 0.25517 0.85091 0.06069 0.0
C1918 C 0.25427 0.84233 0.07399 0.0
H1919 H 0.26348 0.7876 0.07463 0.0
H1920 H 0.25889 0.80561 0.06633 0.0
H1921 H 0.27852 0.80063 0.06962 0.0
H1922 H 0.29009 0.82755 0.07388 0.0
H1923 H 0.29177 0.84228 0.05087 0.0
H1924 H 0.01646 0.49657 0.12218 0.0
H1925 H 0.03239 0.5047 0.14411 0.0
H1926 H 0.06436 0.46919 0.13343 0.0
H1927 H 0.049 0.46154 0.11108 0.0
H1928 H 0.03871 0.4891 0.16854 0.0
H1929 H 0.09349 0.50409 0.14174 0.0
H1930 H 0.07596 0.50136 0.13081 0.0
H1931 H 0.08733 0.48526 0.13591 0.0
C1932 C 0.02707 0.49072 0.12427 0.0
C1933 C 0.0314 0.47837 0.11483 0.0
C1934 C 0.03613 0.49534 0.13688 0.0
C1935 C 0.04974 0.48774 0.14031 0.0
C1936 C 0.05415 0.47551 0.13083 0.0
H1937 H 0.0904 0.46913 0.22526 0.0
H1938 H 0.07631 0.47095 0.20132 0.0
C1939 C 0.04517 0.47096 0.11818 0.0
C1940 C 0.0586 0.49163 0.15451 0.0
H1941 H 0.09496 0.49767 0.16848 0.0
C1942 C 0.05096 0.49125 0.16848 0.0
C1943 C 0.07456 0.49474 0.15451 0.0
C1944 C 0.08327 0.49656 0.13991 0.0
C1945 C 0.05896 0.49294 0.18241 0.0
C1946 C 0.07508 0.49469 0.1824 0.0
C1947 C 0.08263 0.49607 0.16847 0.0
C1948 C 0.0843 0.49376 0.19668 0.0
C1949 C 0.05005 0.49255 0.19702 0.0
C1950 C 0.09403 0.50576 0.20175 0.0
C1951 C 0.10231 0.50473 0.21551 0.0
C1952 C 0.10099 0.49162 0.22434 0.0
C1953 C 0.09157 0.47949 0.2189 0.0
C1954 C 0.08341 0.48052 0.20522 0.0
H1955 H 0.03807 0.49624 0.19522 0.0
H1956 H 0.04964 0.48071 0.20112 0.0
H1957 H 0.05549 0.49997 0.20605 0.0
H1958 H 0.09501 0.51603 0.19522 0.0
H1959 H 0.1095 0.51424 0.21935 0.0
H1960 H 0.36896 0.70373 0.27399 0.0
H1961 H 0.38941 0.70389 0.29347 0.0
H1962 H 0.38963 0.75296 0.29485 0.0
H1963 H 0.36901 0.75291 0.27585 0.0
H1964 H 0.41878 0.71663 0.29225 0.0
H1965 H 0.38691 0.74303 0.33979 0.0
H1966 H 0.37746 0.73502 0.32294 0.0
H1967 H 0.38563 0.75395 0.32284 0.0
C1968 C 0.37322 0.71455 0.27861 0.0
C1969 C 0.3673 0.72831 0.27333 0.0
C1970 C 0.38496 0.71461 0.28968 0.0
C1971 C 0.39089 0.72842 0.29582 0.0
C1972 C 0.38504 0.74215 0.29053 0.0
H1973 H 0.46302 0.77182 0.34172 0.0
H1974 H 0.44037 0.76187 0.32841 0.0
C1975 C 0.37336 0.7421 0.27949 0.0
C1976 C 0.40362 0.72872 0.30727 0.0
H1977 H 0.41448 0.745 0.34159 0.0
C1978 C 0.41777 0.72251 0.30321 0.0
C1979 C 0.40228 0.73626 0.32164 0.0
C1980 C 0.38719 0.7423 0.32713 0.0
C1981 C 0.43085 0.72467 0.31261 0.0
C1982 C 0.42969 0.73314 0.32646 0.0
C1983 C 0.41535 0.73852 0.33095 0.0
C1984 C 0.44348 0.73864 0.33517 0.0
C1985 C 0.44603 0.71877 0.30726 0.0
C1986 C 0.45276 0.72886 0.34359 0.0
C1987 C 0.4659 0.73457 0.3514 0.0
C1988 C 0.46993 0.75011 0.35076 0.0
C1989 C 0.4604 0.75978 0.34243 0.0
C1990 C 0.44736 0.75413 0.33481 0.0
H1991 H 0.44517 0.71316 0.29578 0.0
H1992 H 0.45453 0.72826 0.30689 0.0
H1993 H 0.4504 0.71039 0.31545 0.0
H1994 H 0.44988 0.71686 0.3441 0.0
H1995 H 0.47297 0.72684 0.35771 0.0
H1996 H 0.97465 0.37909 0.01218 0.0
H1997 H 0.98274 0.35652 0.99751 0.0
H1998 H 0.98808 0.38378 0.95769 0.0
H1999 H 0.98029 0.40636 0.97227 0.0
H2000 H 0.9689 0.34373 0.9703 0.0
H2001 H 0.02908 0.36139 0.96102 0.0
H2002 H 0.01738 0.37014 0.97552 0.0
H2003 H 0.01553 0.37564 0.95598 0.0
C2004 C 0.97773 0.3803 1.00034 0.0
C2005 C 0.97684 0.39454 0.9934 0.0
C2006 C 0.98227 0.36738 0.99197 0.0
C2007 C 0.98621 0.36851 0.97657 0.0
C2008 C 0.98533 0.38269 0.96963 0.0
H2009 H 1.00596 0.31893 0.89638 0.0
H2010 H 1.00204 0.33654 0.91771 0.0
C2011 C 0.98071 0.39556 0.97794 0.0
C2012 C 0.99074 0.35484 0.96748 0.0
H2013 H 0.01906 0.34134 0.9446 0.0
C2014 C 0.97996 0.34303 0.96488 0.0
C2015 C 1.00521 0.35393 0.96051 0.0
C2016 C 0.01753 0.36588 0.9635 0.0
C2017 C 0.9829 0.33081 0.9547 0.0
C2018 C 0.99711 0.3303 0.94714 0.0
C2019 C 0.00816 0.34174 0.95036 0.0
C2020 C 1.00006 0.31911 0.93456 0.0
C2021 C 0.97047 0.31903 0.95144 0.0
C2022 C 1.0005 0.30335 0.93694 0.0
C2023 C 1.00275 0.2931 0.92464 0.0
C2024 C 1.0046 0.29848 0.90978 0.0
C2025 C 1.00451 0.3143 0.90761 0.0
C2026 C 1.0023 0.32445 0.91983 0.0
H2027 H 0.95933 0.32243 0.95633 0.0
H2028 H 0.96893 0.31706 0.93895 0.0
H2029 H 0.9738 0.3081 0.95649 0.0
H2030 H 0.99905 0.29898 0.94828 0.0
H2031 H 1.00281 0.28101 0.92672 0.0
H2032 H 0.66599 0.76013 0.2841 0.0
H2033 H 0.64421 0.75256 0.29977 0.0
H2034 H 0.62088 0.79356 0.28788 0.0
H2035 H 0.64236 0.80105 0.27204 0.0
H2036 H 0.63112 0.76875 0.32514 0.0
H2037 H 0.58911 0.75957 0.27788 0.0
H2038 H 0.6095 0.7605 0.27481 0.0
H2039 H 0.5988 0.7777 0.27732 0.0
C2040 C 0.65614 0.76744 0.28469 0.0
C2041 C 0.65593 0.7812 0.27678 0.0
C2042 C 0.64375 0.76314 0.29372 0.0
C2043 C 0.63083 0.7724 0.29485 0.0
C2044 C 0.63062 0.78612 0.28701 0.0
H2045 H 0.54819 0.78774 0.33901 0.0
H2046 H 0.5717 0.78631 0.32472 0.0
C2047 C 0.64299 0.79046 0.27806 0.0
C2048 C 0.61762 0.76803 0.30443 0.0
H2049 H 0.57882 0.76287 0.30293 0.0
C2050 C 0.61971 0.76717 0.3203 0.0
C2051 C 0.60276 0.76584 0.29807 0.0
C2052 C 0.59989 0.76579 0.28107 0.0
C2053 C 0.60717 0.7652 0.33004 0.0
C2054 C 0.59222 0.76389 0.32371 0.0
C2055 C 0.59027 0.76393 0.30779 0.0
C2056 C 0.57831 0.76448 0.33328 0.0
C2057 C 0.60986 0.76543 0.34706 0.0
C2058 C 0.57417 0.75268 0.34305 0.0
C2059 C 0.56053 0.75344 0.35138 0.0
C2060 C 0.55083 0.766 0.35 0.0
C2061 C 0.55525 0.77782 0.34036 0.0
C2062 C 0.56874 0.77705 0.33213 0.0
H2063 H 0.62195 0.76823 0.35021 0.0
H2064 H 0.60233 0.77387 0.3527 0.0
H2065 H 0.60695 0.75407 0.35157 0.0
H2066 H 0.58132 0.74278 0.34399 0.0
H2067 H 0.55746 0.74413 0.35866 0.0
H2068 H 0.06074 0.11181 0.97204 0.0
H2069 H 0.05501 0.13282 0.9553 0.0
H2070 H 0.01816 0.14646 0.98458 0.0
H2071 H 0.02414 0.1257 1.00173 0.0
H2072 H 0.02823 0.13866 0.93929 0.0
H2073 H 0.04225 0.18632 0.98018 0.0
H2074 H 0.04786 0.16698 0.9835 0.0
H2075 H 0.02848 0.17266 0.98672 0.0
C2076 C 0.05154 0.11938 0.97509 0.0
C2077 C 0.04302 0.11709 0.98839 0.0
C2078 C 0.0482 0.13135 0.96541 0.0
C2079 C 0.0363 0.1414 0.96875 0.0
C2080 C 0.0276 0.13905 0.98188 0.0
H2081 H 1.00529 0.22185 0.91995 0.0
H2082 H 0.00775 0.20111 0.93799 0.0
C2083 C 0.03092 0.12705 0.9916 0.0
C2084 C 0.03293 0.15409 0.95828 0.0
H2085 H 0.03236 0.19291 0.95607 0.0
C2086 C 0.02912 0.15052 0.94298 0.0
C2087 C 0.03399 0.16959 0.96307 0.0
C2088 C 0.03849 0.1742 0.97922 0.0
C2089 C 0.02639 0.16195 0.93237 0.0
C2090 C 0.02781 0.17746 0.93707 0.0
C2091 C 0.0313 0.18104 0.95244 0.0
C2092 C 0.02624 0.19007 0.92609 0.0
C2093 C 0.02183 0.15728 0.91626 0.0
C2094 C 0.03594 0.19095 0.91348 0.0
C2095 C 0.03454 0.20275 0.90314 0.0
C2096 C 0.02348 0.21408 0.9052 0.0
C2097 C 0.0139 0.21331 0.91796 0.0
C2098 C 0.0153 0.20146 0.92831 0.0
H2099 H 0.01678 0.1456 0.91567 0.0
H2100 H 0.01343 0.16527 0.91143 0.0
H2101 H 0.03214 0.15735 0.90901 0.0
H2102 H 0.04472 0.18255 0.91169 0.0
H2103 H 0.04221 0.20301 0.89355 0.0
H2104 H 0.36543 0.29198 0.23761 0.0
H2105 H 0.38589 0.29009 0.21893 0.0
H2106 H 0.41754 0.2774 0.25436 0.0
H2107 H 0.39718 0.27939 0.27317 0.0
H2108 H 0.41426 0.30587 0.21849 0.0
H2109 H 0.42213 0.24334 0.2218 0.0
H2110 H 0.40552 0.25274 0.22934 0.0
H2111 H 0.42341 0.25382 0.23964 0.0
C2112 C 0.37676 0.2889 0.24148 0.0
C2113 C 0.37962 0.28578 0.2569 0.0
C2114 C 0.38843 0.28776 0.23076 0.0
C2115 C 0.40319 0.2834 0.23521 0.0
C2116 C 0.40616 0.28047 0.25061 0.0
H2117 H 0.48287 0.26762 0.17632 0.0
H2118 H 0.46714 0.27137 0.19913 0.0
C2119 C 0.3945 0.2816 0.26135 0.0
C2120 C 0.41543 0.28211 0.22369 0.0
H2121 H 0.43854 0.25663 0.20547 0.0
C2122 C 0.41963 0.29512 0.2157 0.0
C2123 C 0.4225 0.26809 0.22015 0.0
C2124 C 0.41813 0.25365 0.22807 0.0
C2125 C 0.43053 0.29446 0.20409 0.0
C2126 C 0.43723 0.28036 0.2002 0.0
C2127 C 0.43342 0.26743 0.20852 0.0
C2128 C 0.44709 0.27853 0.18664 0.0
C2129 C 0.43471 0.30887 0.19602 0.0
C2130 C 0.44098 0.28115 0.17211 0.0
C2131 C 0.44984 0.27899 0.15916 0.0
C2132 C 0.46506 0.27409 0.16038 0.0
C2133 C 0.47122 0.27147 0.17498 0.0
C2134 C 0.46226 0.27358 0.188 0.0
H2135 H 0.43232 0.31916 0.20317 0.0
H2136 H 0.44699 0.30906 0.19292 0.0
H2137 H 0.42776 0.3095 0.18538 0.0
H2138 H 0.42922 0.28466 0.17076 0.0
H2139 H 0.44467 0.28109 0.14814 0.0
H2140 H 0.56435 0.40405 0.03716 0.0
H2141 H 0.55927 0.38242 0.05344 0.0
H2142 H 0.51902 0.37069 0.02644 0.0
H2143 H 0.52437 0.39186 0.0097 0.0
H2144 H 0.53462 0.37638 0.07116 0.0
H2145 H 0.54064 0.33033 0.02752 0.0
H2146 H 0.54691 0.34965 0.02441 0.0
H2147 H 0.52704 0.3443 0.02195 0.0
C2148 C 0.55456 0.39672 0.0345 0.0
C2149 C 0.54485 0.39966 0.02199 0.0
C2150 C 0.55161 0.38442 0.04391 0.0
C2151 C 0.53892 0.37476 0.04101 0.0
C2152 C 0.52908 0.37777 0.0287 0.0
H2153 H 0.48929 0.30331 0.08209 0.0
H2154 H 0.4999 0.32388 0.06727 0.0
C2155 C 0.53205 0.39003 0.01925 0.0
C2156 C 0.53569 0.36179 0.05111 0.0
H2157 H 0.52849 0.32347 0.05073 0.0
C2158 C 0.53349 0.36478 0.06674 0.0
C2159 C 0.53434 0.34662 0.04537 0.0
C2160 C 0.53751 0.34249 0.02892 0.0
C2161 C 0.52924 0.35312 0.07662 0.0
C2162 C 0.52728 0.3381 0.07072 0.0
C2163 C 0.52997 0.33502 0.05521 0.0
C2164 C 0.52117 0.32564 0.08009 0.0
C2165 C 0.52623 0.35704 0.09314 0.0
C2166 C 0.52967 0.31972 0.09224 0.0
C2167 C 0.52362 0.30782 0.1008 0.0
C2168 C 0.50897 0.3017 0.09735 0.0
C2169 C 0.50058 0.30772 0.08514 0.0
C2170 C 0.50663 0.31949 0.07661 0.0
H2171 H 0.52622 0.36953 0.09543 0.0
H2172 H 0.51505 0.35214 0.09658 0.0
H2173 H 0.53525 0.35201 0.10038 0.0
H2174 H 0.541 0.32421 0.095 0.0
H2175 H 0.5304 0.30342 0.11009 0.0
H2176 H 0.65354 0.24974 0.22999 0.0
H2177 H 0.63058 0.25583 0.21511 0.0
H2178 H 0.61287 0.21038 0.22121 0.0
H2179 H 0.63555 0.20431 0.23635 0.0
H2180 H 0.61974 0.24117 0.18787 0.0
H2181 H 0.57695 0.23734 0.23381 0.0
H2182 H 0.59726 0.23899 0.23768 0.0
H2183 H 0.58883 0.22092 0.23194 0.0
C2184 C 0.64465 0.24111 0.22836 0.0
C2185 C 0.64639 0.22654 0.2344 0.0
C2186 C 0.63158 0.24458 0.21977 0.0
C2187 C 0.61992 0.23362 0.2172 0.0
C2188 C 0.6216 0.2191 0.22325 0.0
H2189 H 0.53431 0.22517 0.16739 0.0
H2190 H 0.55727 0.22205 0.1831 0.0
C2191 C 0.63466 0.2156 0.23177 0.0
C2192 C 0.60623 0.23715 0.20774 0.0
H2193 H 0.56718 0.23838 0.20841 0.0
C2194 C 0.60824 0.24071 0.19238 0.0
C2195 C 0.59125 0.23651 0.21364 0.0
C2196 C 0.58839 0.23337 0.23021 0.0
C2197 C 0.59566 0.24314 0.18261 0.0
C2198 C 0.58065 0.2423 0.18846 0.0
C2199 C 0.57867 0.23899 0.20391 0.0
C2200 C 0.5668 0.24435 0.17869 0.0
C2201 C 0.59855 0.24604 0.16601 0.0
C2202 C 0.5644 0.25799 0.17104 0.0
C2203 C 0.55127 0.25978 0.16194 0.0
C2204 C 0.5402 0.24803 0.16044 0.0
C2205 C 0.54258 0.23446 0.16825 0.0
C2206 C 0.55572 0.23266 0.17727 0.0
H2207 H 0.61017 0.24245 0.16257 0.0
H2208 H 0.58997 0.23994 0.15857 0.0
H2209 H 0.59764 0.25841 0.164 0.0
H2210 H 0.5726 0.26731 0.17222 0.0
H2211 H 0.54975 0.27043 0.15618 0.0
H2212 H 0.50049 0.10851 0.03282 0.0
H2213 H 0.50796 0.13024 0.04958 0.0
H2214 H 0.46084 0.14395 0.05155 0.0
H2215 H 0.45332 0.12246 0.03482 0.0
H2216 H 0.50378 0.16178 0.04595 0.0
H2217 H 0.47327 0.14148 0.09661 0.0
H2218 H 0.47725 0.12918 0.08038 0.0
H2219 H 0.46113 0.14169 0.07997 0.0
C2220 C 0.49174 0.11622 0.03676 0.0
C2221 C 0.47627 0.11364 0.03263 0.0
C2222 C 0.49602 0.12857 0.04638 0.0
C2223 C 0.48491 0.1385 0.05209 0.0
C2224 C 0.46955 0.13618 0.04763 0.0
H2225 H 0.46892 0.22223 0.09465 0.0
H2226 H 0.47007 0.19727 0.08211 0.0
C2227 C 0.46527 0.12388 0.03806 0.0
C2228 C 0.48917 0.15149 0.0625 0.0
H2229 H 0.47964 0.16824 0.09655 0.0
C2230 C 0.4988 0.16308 0.05716 0.0
C2231 C 0.48277 0.15308 0.07718 0.0
C2232 C 0.47316 0.14062 0.08395 0.0
C2233 C 0.50129 0.17668 0.06569 0.0
C2234 C 0.49404 0.17864 0.07991 0.0
C2235 C 0.48515 0.16671 0.08561 0.0
C2236 C 0.4938 0.19362 0.08801 0.0
C2237 C 0.51087 0.18925 0.0591 0.0
C2238 C 0.50677 0.19977 0.09568 0.0
C2239 C 0.50615 0.21414 0.10302 0.0
C2240 C 0.49257 0.22255 0.10265 0.0
C2241 C 0.4796 0.21615 0.0951 0.0
C2242 C 0.48021 0.20185 0.08793 0.0
H2243 H 0.51497 0.18627 0.04748 0.0
H2244 H 0.50413 0.19984 0.05856 0.0
H2245 H 0.52096 0.19168 0.06664 0.0
H2246 H 0.51734 0.19349 0.09596 0.0
H2247 H 0.51632 0.21874 0.10873 0.0
H2248 H 0.26575 0.37616 0.70257 0.0
H2249 H 0.28156 0.39922 0.70615 0.0
H2250 H 0.30894 0.3768 0.73986 0.0
H2251 H 0.29326 0.35367 0.73625 0.0
H2252 H 0.28607 0.41711 0.73091 0.0
H2253 H 0.34184 0.39408 0.7132 0.0
H2254 H 0.324 0.38391 0.70966 0.0
H2255 H 0.33336 0.38325 0.72804 0.0
C2256 C 0.27511 0.37614 0.71078 0.0
C2257 C 0.27825 0.36303 0.7191 0.0
C2258 C 0.28421 0.38932 0.71275 0.0
C2259 C 0.29667 0.38969 0.72305 0.0
C2260 C 0.29971 0.37668 0.73151 0.0
H2261 H 0.33758 0.46518 0.77137 0.0
H2262 H 0.32332 0.44307 0.76153 0.0
C2263 C 0.29067 0.36347 0.72948 0.0
C2264 C 0.30596 0.40391 0.72554 0.0
H2265 H 0.34269 0.41796 0.72721 0.0
C2266 C 0.29843 0.41731 0.72991 0.0
C2267 C 0.32208 0.40433 0.72398 0.0
C2268 C 0.33078 0.39066 0.7183 0.0
C2269 C 0.3066 0.43085 0.73343 0.0
C2270 C 0.32279 0.43098 0.73287 0.0
C2271 C 0.3303 0.41782 0.72781 0.0
C2272 C 0.33205 0.44431 0.73863 0.0
C2273 C 0.2978 0.44489 0.73786 0.0
C2274 C 0.34221 0.45214 0.72917 0.0
C2275 C 0.35057 0.4649 0.73483 0.0
C2276 C 0.34895 0.46997 0.75007 0.0
C2277 C 0.33904 0.46179 0.75953 0.0
C2278 C 0.33077 0.44913 0.7539 0.0
H2279 H 0.28593 0.44435 0.73315 0.0
H2280 H 0.29707 0.44575 0.75047 0.0
H2281 H 0.30354 0.45536 0.73381 0.0
H2282 H 0.34348 0.44851 0.71737 0.0
H2283 H 0.35814 0.47088 0.72726 0.0
H2284 H 0.30244 0.67213 0.77571 0.0
H2285 H 0.31889 0.6508 0.76892 0.0
H2286 H 0.2802 0.61995 0.77108 0.0
H2287 H 0.26368 0.64121 0.77785 0.0
H2288 H 0.32531 0.62668 0.78594 0.0
H2289 H 0.29915 0.60604 0.73136 0.0
H2290 H 0.29482 0.62438 0.73986 0.0
H2291 H 0.28539 0.60741 0.74631 0.0
C2292 C 0.2974 0.66082 0.77467 0.0
C2293 C 0.2817 0.65842 0.77735 0.0
C2294 C 0.30682 0.64863 0.7707 0.0
C2295 C 0.30078 0.63376 0.76924 0.0
C2296 C 0.28508 0.63134 0.77171 0.0
H2297 H 0.33952 0.54856 0.78616 0.0
H2298 H 0.32724 0.5731 0.78529 0.0
C2299 C 0.27564 0.64353 0.77563 0.0
C2300 C 0.31109 0.62064 0.7664 0.0
H2301 H 0.31555 0.58847 0.7442 0.0
C2302 C 0.3233 0.61847 0.77666 0.0
C2303 C 0.30867 0.60999 0.75417 0.0
C2304 C 0.29639 0.61214 0.7422 0.0
C2305 C 0.33258 0.6056 0.77551 0.0
C2306 C 0.32951 0.59445 0.76391 0.0
C2307 C 0.31784 0.59697 0.75315 0.0
C2308 C 0.33717 0.57946 0.76389 0.0
C2309 C 0.34544 0.60386 0.78696 0.0
C2310 C 0.34667 0.57466 0.75193 0.0
C2311 C 0.35384 0.56044 0.75236 0.0
C2312 C 0.35145 0.55076 0.76469 0.0
C2313 C 0.34174 0.55565 0.77648 0.0
C2314 C 0.3347 0.56976 0.77607 0.0
H2315 H 0.34914 0.61502 0.79208 0.0
H2316 H 0.34142 0.59658 0.79631 0.0
H2317 H 0.35546 0.59835 0.78162 0.0
H2318 H 0.34864 0.58196 0.74236 0.0
H2319 H 0.36119 0.55702 0.74307 0.0
H2320 H 0.87833 0.51254 0.47699 0.0
H2321 H 0.85592 0.49783 0.48514 0.0
H2322 H 0.88264 0.45698 0.48438 0.0
H2323 H 0.90507 0.47157 0.47655 0.0
H2324 H 0.84134 0.47222 0.46991 0.0
H2325 H 0.86343 0.45753 0.52706 0.0
H2326 H 0.87163 0.4727 0.51614 0.0
H2327 H 0.87658 0.45324 0.51205 0.0
C2328 C 0.87947 0.50045 0.47872 0.0
C2329 C 0.89352 0.49324 0.47614 0.0
C2330 C 0.86663 0.49206 0.4833 0.0
C2331 C 0.86766 0.47635 0.48557 0.0
C2332 C 0.88164 0.46914 0.48294 0.0
H2333 H 0.81919 0.39567 0.50077 0.0
H2334 H 0.83629 0.41718 0.49691 0.0
C2335 C 0.89442 0.47747 0.4783 0.0
C2336 C 0.85412 0.46728 0.49029 0.0
H2337 H 0.84244 0.44227 0.51709 0.0
C2338 C 0.84141 0.46588 0.48036 0.0
C2339 C 0.85419 0.45913 0.50399 0.0
C2340 C 0.86712 0.46082 0.51551 0.0
C2341 C 0.82924 0.45572 0.48328 0.0
C2342 C 0.82975 0.44693 0.49657 0.0
C2343 C 0.84207 0.44899 0.50689 0.0
C2344 C 0.81877 0.43418 0.49903 0.0
C2345 C 0.81639 0.45379 0.47171 0.0
C2346 C 0.80312 0.43655 0.5016 0.0
C2347 C 0.79314 0.42412 0.50385 0.0
C2348 C 0.7987 0.40916 0.50355 0.0
C2349 C 0.81441 0.40697 0.50106 0.0
C2350 C 0.82428 0.41929 0.49887 0.0
H2351 H 0.8187 0.46001 0.46109 0.0
H2352 H 0.81448 0.44155 0.46873 0.0
H2353 H 0.80566 0.45819 0.47668 0.0
H2354 H 0.79866 0.44798 0.50196 0.0
H2355 H 0.78113 0.42622 0.50577 0.0
H2356 H 0.76157 0.87985 0.75963 0.0
H2357 H 0.74283 0.89999 0.75697 0.0
H2358 H 0.73101 0.89598 0.80429 0.0
H2359 H 0.75018 0.87625 0.80723 0.0
H2360 H 0.71224 0.89817 0.76072 0.0
H2361 H 0.73699 0.94166 0.80108 0.0
H2362 H 0.7476 0.92538 0.79443 0.0
H2363 H 0.73408 0.9235 0.80959 0.0
C2364 C 0.7552 0.88343 0.76956 0.0
C2365 C 0.75748 0.87646 0.78367 0.0
C2366 C 0.74442 0.8949 0.76799 0.0
C2367 C 0.73569 0.8997 0.78049 0.0
C2368 C 0.73785 0.89273 0.79457 0.0
H2369 H 0.64792 0.94172 0.77968 0.0
H2370 H 0.67008 0.9254 0.78162 0.0
C2371 C 0.74867 0.88127 0.79617 0.0
C2372 C 0.72375 0.91139 0.77855 0.0
H2373 H 0.71117 0.94552 0.79271 0.0
C2374 C 0.7121 0.90858 0.76763 0.0
C2375 C 0.72367 0.9251 0.7874 0.0
C2376 C 0.73634 0.9292 0.79868 0.0
C2377 C 0.70011 0.91883 0.76567 0.0
C2378 C 0.69959 0.93213 0.77507 0.0
C2379 C 0.71151 0.93524 0.78562 0.0
C2380 C 0.68636 0.94251 0.77454 0.0
C2381 C 0.68808 0.9153 0.75354 0.0
C2382 C 0.68821 0.95778 0.77045 0.0
C2383 C 0.67549 0.96726 0.76939 0.0
C2384 C 0.66072 0.96162 0.77249 0.0
C2385 C 0.65906 0.94644 0.77704 0.0
C2386 C 0.67173 0.93704 0.77811 0.0
H2387 H 0.69237 0.90731 0.74461 0.0
H2388 H 0.67801 0.90983 0.75886 0.0
H2389 H 0.68423 0.92583 0.74801 0.0
H2390 H 0.69945 0.96225 0.76777 0.0
H2391 H 0.67718 0.9789 0.76591 0.0
H2392 H 0.63088 0.51436 0.96459 0.0
H2393 H 0.65317 0.5308 0.97036 0.0
H2394 H 0.62432 0.56304 0.99353 0.0
H2395 H 0.60188 0.54659 0.98787 0.0
H2396 H 0.65313 0.56484 0.96117 0.0
H2397 H 0.66373 0.55383 0.02271 0.0
H2398 H 0.65467 0.53968 0.01013 0.0
H2399 H 0.6444 0.55632 0.01582 0.0
C2400 C 0.6293 0.52481 0.97115 0.0
C2401 C 0.61462 0.52917 0.97578 0.0
C2402 C 0.64203 0.53421 0.97437 0.0
C2403 C 0.64036 0.54805 0.98243 0.0
C2404 C 0.62582 0.55233 0.98739 0.0
H2405 H 0.71469 0.61398 1.00606 0.0
H2406 H 0.68961 0.60087 1.0054 0.0
C2407 C 0.61303 0.54297 0.98406 0.0
C2408 C 0.65374 0.55841 0.98466 0.0
H2409 H 0.68116 0.57018 0.01064 0.0
C2410 C 0.65921 0.56612 0.972 0.0
C2411 C 0.66146 0.56018 0.99886 0.0
C2412 C 0.65588 0.55208 0.01273 0.0
C2413 C 0.67246 0.5753 0.97306 0.0
C2414 C 0.68069 0.57646 0.98706 0.0
C2415 C 0.67488 0.56922 0.99991 0.0
C2416 C 0.69592 0.58415 0.98815 0.0
C2417 C 0.67757 0.58359 0.95911 0.0
C2418 C 0.70784 0.57885 0.979 0.0
C2419 C 0.72203 0.58631 0.97929 0.0
C2420 C 0.72474 0.59917 0.98888 0.0
C2421 C 0.71295 0.60416 0.99849 0.0
C2422 C 0.69864 0.59669 0.99813 0.0
H2423 H 0.66782 0.58551 0.95116 0.0
H2424 H 0.68299 0.59476 0.96225 0.0
H2425 H 0.68608 0.57661 0.95292 0.0
H2426 H 0.70613 0.56897 0.97152 0.0
H2427 H 0.73088 0.58198 0.97189 0.0
H2428 H 0.25258 0.63106 0.25532 0.0
H2429 H 0.2336 0.6106 0.25755 0.0
H2430 H 0.20668 0.62973 0.22142 0.0
H2431 H 0.22596 0.64993 0.21867 0.0
H2432 H 0.2033 0.61219 0.26468 0.0
H2433 H 0.20961 0.5856 0.20708 0.0
H2434 H 0.22321 0.59941 0.21497 0.0
H2435 H 0.20536 0.60552 0.20695 0.0
C2436 C 0.24277 0.63081 0.24765 0.0
C2437 C 0.24093 0.64211 0.2367 0.0
C2438 C 0.23184 0.61915 0.24904 0.0
C2439 C 0.21882 0.61846 0.2395 0.0
C2440 C 0.21679 0.62982 0.2287 0.0
H2441 H 0.13998 0.55645 0.23355 0.0
H2442 H 0.15824 0.57754 0.23067 0.0
C2443 C 0.22775 0.64149 0.22727 0.0
C2444 C 0.20725 0.60602 0.24116 0.0
H2445 H 0.18932 0.57624 0.22208 0.0
C2446 C 0.20028 0.6043 0.25538 0.0
C2447 C 0.20328 0.59573 0.22901 0.0
C2448 C 0.21084 0.59652 0.21368 0.0
C2449 C 0.18938 0.59271 0.25773 0.0
C2450 C 0.18546 0.58239 0.2456 0.0
C2451 C 0.19232 0.58417 0.23136 0.0
C2452 C 0.17436 0.56961 0.24751 0.0
C2453 C 0.18194 0.59175 0.27311 0.0
C2454 C 0.17741 0.55804 0.25783 0.0
C2455 C 0.167 0.54595 0.2595 0.0
C2456 C 0.15332 0.54515 0.25085 0.0
C2457 C 0.15035 0.55672 0.24045 0.0
C2458 C 0.1608 0.56878 0.23876 0.0
H2459 H 0.18323 0.60259 0.27982 0.0
H2460 H 0.16956 0.58888 0.27186 0.0
H2461 H 0.18745 0.58265 0.27968 0.0
H2462 H 0.18793 0.55829 0.2645 0.0
H2463 H 0.16971 0.53721 0.26755 0.0
H2464 H 0.89518 0.52996 0.06881 0.0
H2465 H 0.87351 0.54619 0.06275 0.0
H2466 H 0.88278 0.54059 0.0148 0.0
H2467 H 0.90454 0.52449 0.02073 0.0
H2468 H 0.87321 0.5737 0.04677 0.0
H2469 H 0.83724 0.52912 0.01753 0.0
H2470 H 0.85352 0.52468 0.02941 0.0
H2471 H 0.85625 0.53053 0.01012 0.0
C2472 C 0.89266 0.53222 0.05697 0.0
C2473 C 0.90159 0.52585 0.04525 0.0
C2474 C 0.88023 0.54147 0.05354 0.0
C2475 C 0.87641 0.54444 0.03833 0.0
C2476 C 0.88533 0.53818 0.02661 0.0
H2477 H 0.81392 0.59508 0.98561 0.0
H2478 H 0.83438 0.58022 0.99656 0.0
C2479 C 0.89776 0.52895 0.03002 0.0
C2480 C 0.86327 0.55429 0.03465 0.0
H2481 H 0.82975 0.55481 0.01426 0.0
C2482 C 0.8636 0.56956 0.03981 0.0
C2483 C 0.8507 0.54882 0.02567 0.0
C2484 C 0.84928 0.53235 0.02047 0.0
C2485 C 0.85207 0.5797 0.03557 0.0
C2486 C 0.8398 0.57433 0.02613 0.0
C2487 C 0.83922 0.55893 0.02144 0.0
C2488 C 0.82798 0.5846 0.01998 0.0
C2489 C 0.85342 0.59619 0.04068 0.0
C2490 C 0.81768 0.59227 0.02954 0.0
C2491 C 0.80589 0.60094 0.02327 0.0
C2492 C 0.80417 0.6019 0.00735 0.0
C2493 C 0.8148 0.59451 0.99791 0.0
C2494 C 0.82654 0.58599 1.00415 0.0
H2495 H 0.86497 0.59908 0.04545 0.0
H2496 H 0.85099 0.60377 0.03103 0.0
H2497 H 0.84489 0.59853 0.04967 0.0
H2498 H 0.81845 0.59119 0.04179 0.0
H2499 H 0.79784 0.60642 0.03083 0.0
H2500 H 0.12711 0.98824 0.06339 0.0
H2501 H 0.14848 0.97186 0.0567 0.0
H2502 H 0.13513 0.97308 0.00927 0.0
H2503 H 0.11359 0.98937 0.01587 0.0
H2504 H 0.14736 0.94312 0.04243 0.0
H2505 H 0.18087 0.9837 0.00814 0.0
H2506 H 0.16564 0.98972 0.02052 0.0
H2507 H 0.16125 0.98116 1.00212 0.0
C2508 C 0.12865 0.98501 0.05152 0.0
C2509 C 0.11853 0.99016 0.04018 0.0
C2510 C 0.14095 0.97568 0.04771 0.0
C2511 C 0.14356 0.97133 0.03246 0.0
C2512 C 0.13357 0.97651 0.02109 0.0
H2513 H 0.21043 0.91376 0.98727 0.0
H2514 H 0.18931 0.93056 0.99377 0.0
C2515 C 0.12124 0.98586 0.02489 0.0
C2516 C 0.15639 0.96095 0.02861 0.0
H2517 H 0.18932 0.9582 0.00815 0.0
C2518 C 0.15657 0.94644 0.03498 0.0
C2519 C 0.1684 0.96524 0.01885 0.0
C2520 C 0.16917 0.98084 0.0121 0.0
C2521 C 0.16823 0.93603 0.03166 0.0
C2522 C 0.18031 0.94034 0.02196 0.0
C2523 C 0.18011 0.95486 0.01558 0.0
C2524 C 0.19316 0.92993 0.01816 0.0
C2525 C 0.16726 0.92036 0.03827 0.0
C2526 C 0.20255 0.92403 0.02967 0.0
C2527 C 0.21461 0.9143 0.02599 0.0
C2528 C 0.2177 0.91039 0.01069 0.0
C2529 C 0.2084 0.91647 0.99918 0.0
C2530 C 0.1963 0.92612 1.00288 0.0
H2531 H 0.15539 0.91741 0.04166 0.0
H2532 H 0.17121 0.91154 0.03 0.0
H2533 H 0.17466 0.92005 0.04862 0.0
H2534 H 0.20065 0.92707 0.04153 0.0
H2535 H 0.22161 0.90996 0.03514 0.0
loop_
_geom_bond_atom_site_label_1
_geom_bond_atom_site_label_2
_geom_bond_distance
_geom_bond_site_symmetry_2
_ccdc_geom_bond_type
C0 C1 1.264 . S
C0 C5 1.479 1_455 S
C0 C10 1.465 . S
C1 C0 1.264 . S
C1 C3 1.339 . S
C1 H28 0.931 . S
C2 C3 1.395 1_655 S
C2 C4 1.320 . S
C3 C1 1.339 . S
C3 C2 1.395 1_455 S
C3 H29 0.929 . S
C4 C2 1.320 . S
C4 C5 1.405 . S
C4 H30 0.930 . S
C5 C0 1.479 1_655 S
C5 C4 1.405 . S
C5 H31 0.931 . S
U6 O7 2.454 . S
U6 O8 2.458 . S
U6 C9 2.984 . S
U6 C10 2.847 . S
U6 C23 2.882 . S
U6 O24 2.441 . S
U6 O25 2.420 . S
U6 O26 2.455 . S
U6 O27 2.449 . S
O7 U6 2.454 . S
O7 C9 1.353 . S
O8 U6 2.458 . S
O8 C9 1.286 . S
C9 U6 2.984 . S
C9 O7 1.353 . S
C9 O8 1.286 . S
C9 C11 1.363 . S
C10 C0 1.465 . S
C10 U6 2.847 . S
C10 O24 1.249 . S
C10 O25 1.202 . S
C11 C9 1.363 . S
C11 C13 1.408 . S
C11 C16 1.303 1_554 S
C12 C13 1.310 . S
C12 C15 1.461 1_554 S
C12 H32 0.932 . S
C13 C11 1.408 . S
C13 C12 1.310 . S
C13 H33 0.930 . S
C14 C15 1.474 . S
C14 C16 1.322 . S
C14 H34 0.929 . S
C15 C12 1.461 1_556 S
C15 C14 1.474 . S
C16 C11 1.303 1_556 S
C16 C14 1.322 . S
C16 H35 0.936 . S
C17 C20 1.424 1_545 S
C17 C22 1.245 . S
C17 C23 1.428 . S
C18 C21 1.260 1_545 S
C18 C22 1.477 . S
C18 H36 0.932 . S
C19 C20 1.384 . S
C19 C21 1.479 . S
C19 H37 0.929 . S
C20 C17 1.424 1_565 S
C20 C19 1.384 . S
C20 H38 0.928 . S
C21 C18 1.260 1_565 S
C21 C19 1.479 . S
C22 C17 1.245 . S
C22 C18 1.477 . S
C22 H39 0.932 . S
C23 U6 2.882 . S
C23 C17 1.428 . S
C23 O26 1.301 . S
C23 O27 1.282 . S
O24 U6 2.441 . S
O24 C10 1.249 . S
O25 U6 2.420 . S
O25 C10 1.202 . S
O26 U6 2.455 . S
O26 C23 1.301 . S
O27 U6 2.449 . S
O27 C23 1.282 . S
H28 C1 0.931 . S
H29 C3 0.929 . S
H30 C4 0.930 . S
H31 C5 0.931 . S
H32 C12 0.932 . S
H33 C13 0.930 . S
H34 C14 0.929 . S
H35 C16 0.936 . S
H36 C18 0.932 . S
H37 C19 0.929 . S
H38 C20 0.928 . S
H39 C22 0.932 . S
C40 C41 1.264 . S
C40 C45 1.479 . S
C40 C50 1.465 . S
C41 C40 1.264 . S
C41 C43 1.339 . S
C41 H68 0.931 . S
C42 C43 1.395 . S
C42 C44 1.320 . S
C43 C41 1.339 . S
C43 C42 1.395 . S
C43 H69 0.929 . S
C44 C42 1.320 . S
C44 C45 1.405 . S
C44 H70 0.930 . S
C45 C40 1.479 . S
C45 C44 1.405 . S
C45 H71 0.931 . S
U46 O47 2.454 . S
U46 O48 2.458 . S
U46 C49 2.984 . S
U46 C50 2.847 . S
U46 C63 2.882 . S
U46 O64 2.441 . S
U46 O65 2.420 . S
U46 O66 2.455 . S
U46 O67 2.449 . S
O47 U46 2.454 . S
O47 C49 1.353 . S
O48 U46 2.458 . S
O48 C49 1.286 . S
C49 U46 2.984 . S
C49 O47 1.353 . S
C49 O48 1.286 . S
C49 C51 1.363 . S
C50 C40 1.465 . S
C50 U46 2.847 . S
C50 O64 1.249 . S
C50 O65 1.202 . S
C51 C49 1.363 . S
C51 C53 1.408 . S
C51 C56 1.342 . S
C52 C53 1.310 . S
C52 C55 1.461 . S
C52 H72 0.932 . S
C53 C51 1.408 . S
C53 C52 1.310 . S
C53 H73 0.930 . S
C54 C55 1.474 . S
C54 C56 1.285 . S
C54 H74 0.929 . S
C55 C52 1.461 . S
C55 C54 1.474 . S
C56 C51 1.342 . S
C56 C54 1.285 . S
C56 H75 0.930 . S
C57 C60 1.424 . S
C57 C62 1.245 . S
C57 C63 1.428 . S
C58 C61 1.260 . S
C58 C62 1.477 . S
C58 H76 0.932 . S
C59 C60 1.384 . S
C59 C61 1.479 . S
C59 H77 0.929 . S
C60 C57 1.424 . S
C60 C59 1.384 . S
C60 H78 0.928 . S
C61 C58 1.260 . S
C61 C59 1.479 . S
C62 C57 1.245 . S
C62 C58 1.477 . S
C62 H79 0.932 . S
C63 U46 2.882 . S
C63 C57 1.428 . S
C63 O66 1.301 . S
C63 O67 1.282 . S
O64 U46 2.441 . S
O64 C50 1.249 . S
O65 U46 2.420 . S
O65 C50 1.202 . S
O66 U46 2.455 . S
O66 C63 1.301 . S
O67 U46 2.449 . S
O67 C63 1.282 . S
H68 C41 0.931 . S
H69 C43 0.929 . S
H70 C44 0.930 . S
H71 C45 0.931 . S
H72 C52 0.932 . S
H73 C53 0.930 . S
H74 C54 0.929 . S
H75 C56 0.930 . S
H76 C58 0.932 . S
H77 C59 0.929 . S
H78 C60 0.928 . S
H79 C62 0.932 . S
C80 C81 1.264 . S
C80 C85 1.479 . S
C80 C90 1.465 . S
C81 C80 1.264 . S
C81 C83 1.339 . S
C81 H108 0.931 . S
C82 C83 1.395 . S
C82 C84 1.320 1_554 S
C83 C81 1.339 . S
C83 C82 1.395 . S
C83 H109 0.929 . S
C84 C82 1.320 1_556 S
C84 C85 1.405 1_556 S
C84 H110 0.930 . S
C85 C80 1.479 . S
C85 C84 1.405 1_554 S
C85 H111 0.931 . S
U86 O87 2.454 . S
U86 O88 2.458 . S
U86 C89 2.984 . S
U86 C90 2.847 . S
U86 C103 2.882 . S
U86 O104 2.441 . S
U86 O105 2.420 . S
U86 O106 2.455 . S
U86 O107 2.449 . S
O87 U86 2.454 . S
O87 C89 1.353 . S
O88 U86 2.458 . S
O88 C89 1.286 . S
C89 U86 2.984 . S
C89 O87 1.353 . S
C89 O88 1.286 . S
C89 C91 1.363 . S
C90 C80 1.465 . S
C90 U86 2.847 . S
C90 O104 1.249 . S
C90 O105 1.202 . S
C91 C89 1.363 . S
C91 C93 1.408 . S
C91 C96 1.342 . S
C92 C93 1.310 . S
C92 C95 1.461 . S
C92 H112 0.932 . S
C93 C91 1.408 . S
C93 C92 1.310 . S
C93 H113 0.930 . S
C94 C95 1.474 . S
C94 C96 1.285 . S
C94 H114 0.929 . S
C95 C92 1.461 . S
C95 C94 1.474 . S
C96 C91 1.342 . S
C96 C94 1.285 . S
C96 H115 0.930 . S
C97 C100 1.424 . S
C97 C102 1.245 . S
C97 C103 1.428 . S
C98 C101 1.287 . S
C98 C102 1.477 . S
C98 H116 0.932 . S
C99 C100 1.384 1_455 S
C99 C101 1.471 1_455 S
C99 H117 0.929 . S
C100 C97 1.424 . S
C100 C99 1.384 1_655 S
C100 H118 0.928 . S
C101 C98 1.287 . S
C101 C99 1.471 1_655 S
C102 C97 1.245 . S
C102 C98 1.477 . S
C102 H119 0.932 . S
C103 U86 2.882 . S
C103 C97 1.428 . S
C103 O106 1.301 . S
C103 O107 1.282 . S
O104 U86 2.441 . S
O104 C90 1.249 . S
O105 U86 2.420 . S
O105 C90 1.202 . S
O106 U86 2.455 . S
O106 C103 1.301 . S
O107 U86 2.449 . S
O107 C103 1.282 . S
H108 C81 0.931 . S
H109 C83 0.929 . S
H110 C84 0.930 . S
H111 C85 0.931 . S
H112 C92 0.932 . S
H113 C93 0.930 . S
H114 C94 0.929 . S
H115 C96 0.930 . S
H116 C98 0.932 . S
H117 C99 0.929 . S
H118 C100 0.928 . S
H119 C102 0.932 . S
C120 C121 1.264 . S
C120 C125 1.479 . S
C120 C130 1.465 . S
C121 C120 1.264 . S
C121 C123 1.339 . S
C121 H148 0.931 . S
C122 C123 1.395 . S
C122 C124 1.320 . S
C123 C121 1.339 . S
C123 C122 1.395 . S
C123 H149 0.929 . S
C124 C122 1.320 . S
C124 C125 1.405 . S
C124 H150 0.930 . S
C125 C120 1.479 . S
C125 C124 1.405 . S
C125 H151 0.931 . S
U126 O127 2.454 . S
U126 O128 2.458 . S
U126 C129 2.984 . S
U126 C130 2.847 . S
U126 C143 2.882 . S
U126 O144 2.441 . S
U126 O145 2.420 . S
U126 O146 2.455 . S
U126 O147 2.449 . S
O127 U126 2.454 . S
O127 C129 1.353 . S
O128 U126 2.458 . S
O128 C129 1.286 . S
C129 U126 2.984 . S
C129 O127 1.353 . S
C129 O128 1.286 . S
C129 C131 1.363 . S
C130 C120 1.465 . S
C130 U126 2.847 . S
C130 O144 1.249 . S
C130 O145 1.202 . S
C131 C129 1.363 . S
C131 C133 1.408 . S
C131 C136 1.342 . S
C132 C133 1.310 . S
C132 C135 1.461 . S
C132 H152 0.932 . S
C133 C131 1.408 . S
C133 C132 1.310 . S
C133 H153 0.930 . S
C134 C135 1.474 . S
C134 C136 1.285 . S
C134 H154 0.929 . S
C135 C132 1.461 . S
C135 C134 1.474 . S
C136 C131 1.342 . S
C136 C134 1.285 . S
C136 H155 0.930 . S
C137 C140 1.424 . S
C137 C142 1.245 . S
C137 C143 1.428 . S
C138 C141 1.260 . S
C138 C142 1.477 . S
C138 H156 0.932 . S
C139 C140 1.384 . S
C139 C141 1.479 . S
C139 H157 0.929 . S
C140 C137 1.424 . S
C140 C139 1.384 . S
C140 H158 0.928 . S
C141 C138 1.260 . S
C141 C139 1.479 . S
C142 C137 1.245 . S
C142 C138 1.477 . S
C142 H159 0.932 . S
C143 U126 2.882 . S
C143 C137 1.428 . S
C143 O146 1.301 . S
C143 O147 1.282 . S
O144 U126 2.441 . S
O144 C130 1.249 . S
O145 U126 2.420 . S
O145 C130 1.202 . S
O146 U126 2.455 . S
O146 C143 1.301 . S
O147 U126 2.449 . S
O147 C143 1.282 . S
H148 C121 0.931 . S
H149 C123 0.929 . S
H150 C124 0.930 . S
H151 C125 0.931 . S
H152 C132 0.932 . S
H153 C133 0.930 . S
H154 C134 0.929 . S
H155 C136 0.930 . S
H156 C138 0.932 . S
H157 C139 0.929 . S
H158 C140 0.928 . S
H159 C142 0.932 . S
C160 C161 1.264 . S
C160 C165 1.479 . S
C160 C170 1.465 . S
C161 C160 1.264 . S
C161 C163 1.339 . S
C161 H188 0.931 . S
C162 C163 1.395 . S
C162 C164 1.333 . S
C163 C161 1.339 . S
C163 C162 1.395 . S
C163 H189 0.929 . S
C164 C162 1.333 . S
C164 C165 1.429 . S
C164 H190 0.896 1_455 S
C165 C160 1.479 . S
C165 C164 1.429 . S
C165 H191 0.931 . S
U166 O167 2.454 . S
U166 O168 2.458 . S
U166 C169 2.984 . S
U166 C170 2.847 . S
U166 C183 2.882 . S
U166 O184 2.441 . S
U166 O185 2.420 . S
U166 O186 2.455 . S
U166 O187 2.449 . S
O167 U166 2.454 . S
O167 C169 1.353 . S
O168 U166 2.458 . S
O168 C169 1.286 . S
C169 U166 2.984 . S
C169 O167 1.353 . S
C169 O168 1.286 . S
C169 C171 1.363 . S
C170 C160 1.465 . S
C170 U166 2.847 . S
C170 O184 1.249 . S
C170 O185 1.202 . S
C171 C169 1.363 . S
C171 C173 1.408 . S
C171 C176 1.342 . S
C172 C173 1.310 . S
C172 C175 1.461 . S
C172 H192 0.932 . S
C173 C171 1.408 . S
C173 C172 1.310 . S
C173 H193 0.930 . S
C174 C175 1.474 . S
C174 C176 1.285 . S
C174 H194 0.929 . S
C175 C172 1.461 . S
C175 C174 1.474 . S
C176 C171 1.342 . S
C176 C174 1.285 . S
C176 H195 0.930 . S
C177 C180 1.424 . S
C177 C182 1.245 . S
C177 C183 1.428 . S
C178 C181 1.285 . S
C178 C182 1.477 . S
C178 H196 0.932 . S
C179 C180 1.384 1_545 S
C179 C181 1.472 1_545 S
C179 H197 0.929 . S
C180 C177 1.424 . S
C180 C179 1.384 1_565 S
C180 H198 0.928 . S
C181 C178 1.285 . S
C181 C179 1.472 1_565 S
C182 C177 1.245 . S
C182 C178 1.477 . S
C182 H199 0.932 . S
C183 U166 2.882 . S
C183 C177 1.428 . S
C183 O186 1.301 . S
C183 O187 1.282 . S
O184 U166 2.441 . S
O184 C170 1.249 . S
O185 U166 2.420 . S
O185 C170 1.202 . S
O186 U166 2.455 . S
O186 C183 1.301 . S
O187 U166 2.449 . S
O187 C183 1.282 . S
H188 C161 0.931 . S
H189 C163 0.929 . S
H190 C164 0.896 1_655 S
H191 C165 0.931 . S
H192 C172 0.932 . S
H193 C173 0.930 . S
H194 C174 0.929 . S
H195 C176 0.930 . S
H196 C178 0.932 . S
H197 C179 0.929 . S
H198 C180 0.928 . S
H199 C182 0.932 . S
C200 C201 1.264 . S
C200 C205 1.479 . S
C200 C210 1.465 . S
C201 C200 1.264 . S
C201 C203 1.339 . S
C201 H228 0.931 . S
C202 C203 1.395 . S
C202 C204 1.320 . S
C203 C201 1.339 . S
C203 C202 1.395 . S
C203 H229 0.929 . S
C204 C202 1.320 . S
C204 C205 1.405 . S
C204 H230 0.930 . S
C205 C200 1.479 . S
C205 C204 1.405 . S
C205 H231 0.931 . S
U206 O207 2.454 . S
U206 O208 2.458 . S
U206 C209 2.984 . S
U206 C210 2.847 . S
U206 C223 2.882 . S
U206 O224 2.441 . S
U206 O225 2.420 . S
U206 O226 2.455 . S
U206 O227 2.449 . S
O207 U206 2.454 . S
O207 C209 1.353 . S
O208 U206 2.458 . S
O208 C209 1.286 . S
C209 U206 2.984 . S
C209 O207 1.353 . S
C209 O208 1.286 . S
C209 C211 1.363 . S
C210 C200 1.465 . S
C210 U206 2.847 . S
C210 O224 1.249 . S
C210 O225 1.202 . S
C211 C209 1.363 . S
C211 C213 1.408 . S
C211 C216 1.342 . S
C212 C213 1.310 . S
C212 C215 1.461 . S
C212 H232 0.932 . S
C213 C211 1.408 . S
C213 C212 1.310 . S
C213 H233 0.930 . S
C214 C215 1.474 . S
C214 C216 1.285 . S
C214 H234 0.929 . S
C215 C212 1.461 . S
C215 C214 1.474 . S
C216 C211 1.342 . S
C216 C214 1.285 . S
C216 H235 0.930 . S
C217 C220 1.424 . S
C217 C222 1.245 . S
C217 C223 1.428 . S
C218 C221 1.260 . S
C218 C222 1.477 . S
C218 H236 0.932 . S
C219 C220 1.384 . S
C219 C221 1.479 . S
C219 H237 0.929 . S
C220 C217 1.424 . S
C220 C219 1.384 . S
C220 H238 0.928 . S
C221 C218 1.260 . S
C221 C219 1.479 . S
C222 C217 1.245 . S
C222 C218 1.477 . S
C222 H239 0.932 . S
C223 U206 2.882 . S
C223 C217 1.428 . S
C223 O226 1.301 . S
C223 O227 1.282 . S
O224 U206 2.441 . S
O224 C210 1.249 . S
O225 U206 2.420 . S
O225 C210 1.202 . S
O226 U206 2.455 . S
O226 C223 1.301 . S
O227 U206 2.449 . S
O227 C223 1.282 . S
H228 C201 0.931 . S
H229 C203 0.929 . S
H230 C204 0.930 . S
H231 C205 0.931 . S
H232 C212 0.932 . S
H233 C213 0.930 . S
H234 C214 0.929 . S
H235 C216 0.930 . S
H236 C218 0.932 . S
H237 C219 0.929 . S
H238 C220 0.928 . S
H239 C222 0.932 . S
C240 C241 1.264 . S
C240 C245 1.479 . S
C240 C250 1.465 . S
C241 C240 1.264 . S
C241 C243 1.339 . S
C241 H268 0.931 . S
C242 C243 1.395 . S
C242 C244 1.320 . S
C243 C241 1.339 . S
C243 C242 1.395 . S
C243 H269 0.929 . S
C244 C242 1.320 . S
C244 C245 1.405 . S
C244 H270 0.930 . S
C245 C240 1.479 . S
C245 C244 1.405 . S
C245 H271 0.931 . S
U246 O247 2.454 . S
U246 O248 2.458 . S
U246 C249 2.984 . S
U246 C250 2.847 . S
U246 C263 2.882 . S
U246 O264 2.441 . S
U246 O265 2.420 . S
U246 O266 2.455 . S
U246 O267 2.449 . S
O247 U246 2.454 . S
O247 C249 1.353 . S
O248 U246 2.458 . S
O248 C249 1.286 . S
C249 U246 2.984 . S
C249 O247 1.353 . S
C249 O248 1.286 . S
C249 C251 1.363 . S
C250 C240 1.465 . S
C250 U246 2.847 . S
C250 O264 1.249 . S
C250 O265 1.202 . S
C251 C249 1.363 . S
C251 C253 1.408 . S
C251 C256 1.342 . S
C252 C253 1.310 . S
C252 C255 1.461 . S
C252 H272 0.932 . S
C253 C251 1.408 . S
C253 C252 1.310 . S
C253 H273 0.930 . S
C254 C255 1.474 . S
C254 C256 1.285 . S
C254 H274 0.929 . S
C255 C252 1.461 . S
C255 C254 1.474 . S
C256 C251 1.342 . S
C256 C254 1.285 . S
C256 H275 0.930 . S
C257 C260 1.442 . S
C257 C262 1.245 . S
C257 C263 1.428 . S
C258 C261 1.260 1_655 S
C258 C262 1.477 . S
C258 H276 0.932 . S
C259 C260 1.367 1_455 S
C259 C261 1.479 . S
C259 H277 0.929 . S
C260 C257 1.442 . S
C260 C259 1.367 1_655 S
C260 H278 0.928 . S
C261 C258 1.260 1_455 S
C261 C259 1.479 . S
C262 C257 1.245 . S
C262 C258 1.477 . S
C262 H279 0.932 . S
C263 U246 2.882 . S
C263 C257 1.428 . S
C263 O266 1.301 . S
C263 O267 1.282 . S
O264 U246 2.441 . S
O264 C250 1.249 . S
O265 U246 2.420 . S
O265 C250 1.202 . S
O266 U246 2.455 . S
O266 C263 1.301 . S
O267 U246 2.449 . S
O267 C263 1.282 . S
H268 C241 0.931 . S
H269 C243 0.929 . S
H270 C244 0.930 . S
H271 C245 0.931 . S
H272 C252 0.932 . S
H273 C253 0.930 . S
H274 C254 0.929 . S
H275 C256 0.930 . S
H276 C258 0.932 . S
H277 C259 0.929 . S
H278 C260 0.928 . S
H279 C262 0.932 . S
C280 C281 1.264 . S
C280 C285 1.479 . S
C280 C290 1.465 . S
C281 C280 1.264 . S
C281 C283 1.339 . S
C281 H308 0.931 . S
C282 C283 1.395 . S
C282 C284 1.320 . S
C283 C281 1.339 . S
C283 C282 1.395 . S
C283 H309 0.929 . S
C284 C282 1.320 . S
C284 C285 1.405 . S
C284 H310 0.930 . S
C285 C280 1.479 . S
C285 C284 1.405 . S
C285 H311 0.931 . S
U286 O287 2.454 . S
U286 O288 2.458 . S
U286 C289 2.984 . S
U286 C290 2.847 . S
U286 C303 2.882 . S
U286 O304 2.441 . S
U286 O305 2.420 . S
U286 O306 2.455 . S
U286 O307 2.449 . S
O287 U286 2.454 . S
O287 C289 1.353 . S
O288 U286 2.458 . S
O288 C289 1.286 . S
C289 U286 2.984 . S
C289 O287 1.353 . S
C289 O288 1.286 . S
C289 C291 1.363 . S
C290 C280 1.465 . S
C290 U286 2.847 . S
C290 O304 1.249 . S
C290 O305 1.202 . S
C291 C289 1.363 . S
C291 C293 1.408 . S
C291 C296 1.342 . S
C292 C293 1.310 . S
C292 C295 1.461 . S
C292 H312 0.932 . S
C293 C291 1.408 . S
C293 C292 1.310 . S
C293 H313 0.930 . S
C294 C295 1.474 . S
C294 C296 1.285 . S
C294 H314 0.929 . S
C295 C292 1.461 . S
C295 C294 1.474 . S
C296 C291 1.342 . S
C296 C294 1.285 . S
C296 H315 0.930 . S
C297 C300 1.424 . S
C297 C302 1.245 . S
C297 C303 1.428 . S
C298 C301 1.260 . S
C298 C302 1.477 . S
C298 H316 0.932 . S
C299 C300 1.384 . S
C299 C301 1.479 . S
C299 H317 0.929 . S
C300 C297 1.424 . S
C300 C299 1.384 . S
C300 H318 0.928 . S
C301 C298 1.260 . S
C301 C299 1.479 . S
C302 C297 1.245 . S
C302 C298 1.477 . S
C302 H319 0.932 . S
C303 U286 2.882 . S
C303 C297 1.428 . S
C303 O306 1.301 . S
C303 O307 1.282 . S
O304 U286 2.441 . S
O304 C290 1.249 . S
O305 U286 2.420 . S
O305 C290 1.202 . S
O306 U286 2.455 . S
O306 C303 1.301 . S
O307 U286 2.449 . S
O307 C303 1.282 . S
H308 C281 0.931 . S
H309 C283 0.929 . S
H310 C284 0.930 . S
H311 C285 0.931 . S
H312 C292 0.932 . S
H313 C293 0.930 . S
H314 C294 0.929 . S
H315 C296 0.930 . S
H316 C298 0.932 . S
H317 C299 0.929 . S
H318 C300 0.928 . S
H319 C302 0.932 . S
C320 C321 1.264 . S
C320 C325 1.479 . S
C320 C330 1.465 . S
C321 C320 1.264 . S
C321 C323 1.339 . S
C321 H348 0.931 . S
C322 C323 1.395 . S
C322 C324 1.320 . S
C323 C321 1.339 . S
C323 C322 1.395 . S
C323 H349 0.929 . S
C324 C322 1.320 . S
C324 C325 1.405 . S
C324 H350 0.930 . S
C325 C320 1.479 . S
C325 C324 1.405 . S
C325 H351 0.931 . S
U326 O327 2.454 . S
U326 O328 2.458 . S
U326 C329 2.984 . S
U326 C330 2.847 . S
U326 C343 2.882 . S
U326 O344 2.441 . S
U326 O345 2.420 . S
U326 O346 2.455 . S
U326 O347 2.449 . S
O327 U326 2.454 . S
O327 C329 1.353 . S
O328 U326 2.458 . S
O328 C329 1.286 . S
C329 U326 2.984 . S
C329 O327 1.353 . S
C329 O328 1.286 . S
C329 C331 1.363 . S
C330 C320 1.465 . S
C330 U326 2.847 . S
C330 O344 1.249 . S
C330 O345 1.202 . S
C331 C329 1.363 . S
C331 C333 1.408 . S
C331 C336 1.342 . S
C332 C333 1.310 . S
C332 C335 1.461 . S
C332 H352 0.932 . S
C333 C331 1.408 . S
C333 C332 1.310 . S
C333 H353 0.930 . S
C334 C335 1.474 . S
C334 C336 1.285 . S
C334 H354 0.929 . S
C335 C332 1.461 . S
C335 C334 1.474 . S
C336 C331 1.342 . S
C336 C334 1.285 . S
C336 H355 0.930 . S
C337 C340 1.424 . S
C337 C342 1.245 . S
C337 C343 1.428 . S
C338 C341 1.260 . S
C338 C342 1.477 . S
C338 H356 0.932 . S
C339 C340 1.384 . S
C339 C341 1.479 . S
C339 H357 0.929 . S
C340 C337 1.424 . S
C340 C339 1.384 . S
C340 H358 0.928 . S
C341 C338 1.260 . S
C341 C339 1.479 . S
C342 C337 1.245 . S
C342 C338 1.477 . S
C342 H359 0.932 . S
C343 U326 2.882 . S
C343 C337 1.428 . S
C343 O346 1.301 . S
C343 O347 1.282 . S
O344 U326 2.441 . S
O344 C330 1.249 . S
O345 U326 2.420 . S
O345 C330 1.202 . S
O346 U326 2.455 . S
O346 C343 1.301 . S
O347 U326 2.449 . S
O347 C343 1.282 . S
H348 C321 0.931 . S
H349 C323 0.929 . S
H350 C324 0.930 . S
H351 C325 0.931 . S
H352 C332 0.932 . S
H353 C333 0.930 . S
H354 C334 0.929 . S
H355 C336 0.930 . S
H356 C338 0.932 . S
H357 C339 0.929 . S
H358 C340 0.928 . S
H359 C342 0.932 . S
C360 C361 1.264 . S
C360 C365 1.479 . S
C360 C370 1.465 . S
C361 C360 1.264 . S
C361 C363 1.339 . S
C361 H388 0.931 . S
C362 C363 1.395 . S
C362 C364 1.320 . S
C363 C361 1.339 . S
C363 C362 1.395 . S
C363 H389 0.929 . S
C364 C362 1.320 . S
C364 C365 1.405 . S
C364 H390 0.930 . S
C365 C360 1.479 . S
C365 C364 1.405 . S
C365 H391 0.931 . S
U366 O367 2.454 . S
U366 O368 2.458 . S
U366 C369 2.984 . S
U366 C370 2.847 . S
U366 C383 2.882 . S
U366 O384 2.441 . S
U366 O385 2.420 . S
U366 O386 2.455 . S
U366 O387 2.449 . S
O367 U366 2.454 . S
O367 C369 1.353 . S
O368 U366 2.458 . S
O368 C369 1.286 . S
C369 U366 2.984 . S
C369 O367 1.353 . S
C369 O368 1.286 . S
C369 C371 1.363 . S
C370 C360 1.465 . S
C370 U366 2.847 . S
C370 O384 1.249 . S
C370 O385 1.202 . S
C371 C369 1.363 . S
C371 C373 1.408 . S
C371 C376 1.342 . S
C372 C373 1.310 . S
C372 C375 1.461 1_565 S
C372 H392 0.932 . S
C373 C371 1.408 . S
C373 C372 1.310 . S
C373 H393 0.930 . S
C374 C375 1.474 . S
C374 C376 1.285 1_545 S
C374 H394 0.929 . S
C375 C372 1.461 1_545 S
C375 C374 1.474 . S
C376 C371 1.342 . S
C376 C374 1.285 1_565 S
C376 H395 0.932 . S
C377 C380 1.424 . S
C377 C382 1.245 . S
C377 C383 1.428 . S
C378 C381 1.260 . S
C378 C382 1.477 . S
C378 H396 0.932 . S
C379 C380 1.384 . S
C379 C381 1.479 . S
C379 H397 0.929 . S
C380 C377 1.424 . S
C380 C379 1.384 . S
C380 H398 0.928 . S
C381 C378 1.260 . S
C381 C379 1.479 . S
C382 C377 1.245 . S
C382 C378 1.477 . S
C382 H399 0.932 . S
C383 U366 2.882 . S
C383 C377 1.428 . S
C383 O386 1.301 . S
C383 O387 1.282 . S
O384 U366 2.441 . S
O384 C370 1.249 . S
O385 U366 2.420 . S
O385 C370 1.202 . S
O386 U366 2.455 . S
O386 C383 1.301 . S
O387 U366 2.449 . S
O387 C383 1.282 . S
H388 C361 0.931 . S
H389 C363 0.929 . S
H390 C364 0.930 . S
H391 C365 0.931 . S
H392 C372 0.932 . S
H393 C373 0.930 . S
H394 C374 0.929 . S
H395 C376 0.932 . S
H396 C378 0.932 . S
H397 C379 0.929 . S
H398 C380 0.928 . S
H399 C382 0.932 . S
C400 C401 1.264 . S
C400 C405 1.479 . S
C400 C410 1.465 . S
C401 C400 1.264 . S
C401 C403 1.339 . S
C401 H428 0.931 . S
C402 C403 1.395 . S
C402 C404 1.320 . S
C403 C401 1.339 . S
C403 C402 1.395 . S
C403 H429 0.929 . S
C404 C402 1.320 . S
C404 C405 1.405 . S
C404 H430 0.930 . S
C405 C400 1.479 . S
C405 C404 1.405 . S
C405 H431 0.931 . S
U406 O407 2.454 . S
U406 O408 2.458 . S
U406 C409 2.984 . S
U406 C410 2.847 . S
U406 C423 2.882 . S
U406 O424 2.441 . S
U406 O425 2.420 . S
U406 O426 2.455 . S
U406 O427 2.449 . S
O407 U406 2.454 . S
O407 C409 1.353 . S
O408 U406 2.458 . S
O408 C409 1.286 . S
C409 U406 2.984 . S
C409 O407 1.353 . S
C409 O408 1.286 . S
C409 C411 1.363 . S
C410 C400 1.465 . S
C410 U406 2.847 . S
C410 O424 1.249 . S
C410 O425 1.202 . S
C411 C409 1.363 . S
C411 C413 1.408 . S
C411 C416 1.342 . S
C412 C413 1.310 . S
C412 C415 1.461 . S
C412 H432 0.932 . S
C413 C411 1.408 . S
C413 C412 1.310 . S
C413 H433 0.930 . S
C414 C415 1.474 . S
C414 C416 1.285 . S
C414 H434 0.929 . S
C415 C412 1.461 . S
C415 C414 1.474 . S
C416 C411 1.342 . S
C416 C414 1.285 . S
C416 H435 0.930 . S
C417 C420 1.424 . S
C417 C422 1.245 . S
C417 C423 1.428 . S
C418 C421 1.260 . S
C418 C422 1.477 . S
C418 H436 0.932 . S
C419 C420 1.384 . S
C419 C421 1.479 . S
C419 H437 0.929 . S
C420 C417 1.424 . S
C420 C419 1.384 . S
C420 H438 0.928 . S
C421 C418 1.260 . S
C421 C419 1.479 . S
C422 C417 1.245 . S
C422 C418 1.477 . S
C422 H439 0.932 . S
C423 U406 2.882 . S
C423 C417 1.428 . S
C423 O426 1.301 . S
C423 O427 1.282 . S
O424 U406 2.441 . S
O424 C410 1.249 . S
O425 U406 2.420 . S
O425 C410 1.202 . S
O426 U406 2.455 . S
O426 C423 1.301 . S
O427 U406 2.449 . S
O427 C423 1.282 . S
H428 C401 0.931 . S
H429 C403 0.929 . S
H430 C404 0.930 . S
H431 C405 0.931 . S
H432 C412 0.932 . S
H433 C413 0.930 . S
H434 C414 0.929 . S
H435 C416 0.930 . S
H436 C418 0.932 . S
H437 C419 0.929 . S
H438 C420 0.928 . S
H439 C422 0.932 . S
C440 C441 1.264 . S
C440 C445 1.479 . S
C440 C450 1.465 . S
C441 C440 1.264 . S
C441 C443 1.339 . S
C441 H468 0.931 . S
C442 C443 1.395 . S
C442 C444 1.320 . S
C443 C441 1.339 . S
C443 C442 1.395 . S
C443 H469 0.929 . S
C444 C442 1.320 . S
C444 C445 1.405 . S
C444 H470 0.930 . S
C445 C440 1.479 . S
C445 C444 1.405 . S
C445 H471 0.931 . S
U446 O447 2.454 . S
U446 O448 2.458 . S
U446 C449 2.984 . S
U446 C450 2.847 . S
U446 C463 2.882 . S
U446 O464 2.441 . S
U446 O465 2.420 . S
U446 O466 2.455 . S
U446 O467 2.449 . S
O447 U446 2.454 . S
O447 C449 1.353 . S
O448 U446 2.458 . S
O448 C449 1.286 . S
C449 U446 2.984 . S
C449 O447 1.353 . S
C449 O448 1.286 . S
C449 C451 1.363 . S
C450 C440 1.465 . S
C450 U446 2.847 . S
C450 O464 1.249 . S
C450 O465 1.202 . S
C451 C449 1.363 . S
C451 C453 1.408 . S
C451 C456 1.342 . S
C452 C453 1.310 . S
C452 C455 1.461 . S
C452 H472 0.932 . S
C453 C451 1.408 . S
C453 C452 1.310 . S
C453 H473 0.930 . S
C454 C455 1.474 . S
C454 C456 1.285 . S
C454 H474 0.929 . S
C455 C452 1.461 . S
C455 C454 1.474 . S
C456 C451 1.342 . S
C456 C454 1.285 . S
C456 H475 0.930 . S
C457 C460 1.424 . S
C457 C462 1.245 . S
C457 C463 1.428 . S
C458 C461 1.260 . S
C458 C462 1.477 . S
C458 H476 0.932 . S
C459 C460 1.384 . S
C459 C461 1.479 . S
C459 H477 0.929 . S
C460 C457 1.424 . S
C460 C459 1.384 . S
C460 H478 0.928 . S
C461 C458 1.260 . S
C461 C459 1.479 . S
C462 C457 1.245 . S
C462 C458 1.477 . S
C462 H479 0.932 . S
C463 U446 2.882 . S
C463 C457 1.428 . S
C463 O466 1.301 . S
C463 O467 1.282 . S
O464 U446 2.441 . S
O464 C450 1.249 . S
O465 U446 2.420 . S
O465 C450 1.202 . S
O466 U446 2.455 . S
O466 C463 1.301 . S
O467 U446 2.449 . S
O467 C463 1.282 . S
H468 C441 0.931 . S
H469 C443 0.929 . S
H470 C444 0.930 . S
H471 C445 0.931 . S
H472 C452 0.932 . S
H473 C453 0.930 . S
H474 C454 0.929 . S
H475 C456 0.930 . S
H476 C458 0.932 . S
H477 C459 0.929 . S
H478 C460 0.928 . S
H479 C462 0.932 . S
C480 C481 1.264 . S
C480 C485 1.479 . S
C480 C490 1.465 . S
C481 C480 1.264 . S
C481 C483 1.339 . S
C481 H508 0.931 . S
C482 C483 1.395 . S
C482 C484 1.320 . S
C483 C481 1.339 . S
C483 C482 1.395 . S
C483 H509 0.929 . S
C484 C482 1.320 . S
C484 C485 1.405 . S
C484 H510 0.930 . S
C485 C480 1.479 . S
C485 C484 1.405 . S
C485 H511 0.931 . S
U486 O487 2.454 . S
U486 O488 2.458 . S
U486 C489 2.984 . S
U486 C490 2.847 . S
U486 C503 2.882 . S
U486 O504 2.441 . S
U486 O505 2.420 . S
U486 O506 2.455 . S
U486 O507 2.449 . S
O487 U486 2.454 . S
O487 C489 1.353 . S
O488 U486 2.458 . S
O488 C489 1.286 . S
C489 U486 2.984 . S
C489 O487 1.353 . S
C489 O488 1.286 . S
C489 C491 1.363 . S
C490 C480 1.465 . S
C490 U486 2.847 . S
C490 O504 1.249 . S
C490 O505 1.202 . S
C491 C489 1.363 . S
C491 C493 1.408 . S
C491 C496 1.342 . S
C492 C493 1.310 . S
C492 C495 1.461 . S
C492 H512 0.932 . S
C493 C491 1.408 . S
C493 C492 1.310 . S
C493 H513 0.930 . S
C494 C495 1.474 . S
C494 C496 1.285 . S
C494 H514 0.929 . S
C495 C492 1.461 . S
C495 C494 1.474 . S
C496 C491 1.342 . S
C496 C494 1.285 . S
C496 H515 0.930 . S
C497 C500 1.424 . S
C497 C502 1.245 . S
C497 C503 1.428 . S
C498 C501 1.260 . S
C498 C502 1.477 . S
C498 H516 0.932 . S
C499 C500 1.384 . S
C499 C501 1.479 . S
C499 H517 0.929 . S
C500 C497 1.424 . S
C500 C499 1.384 . S
C500 H518 0.928 . S
C501 C498 1.260 . S
C501 C499 1.479 . S
C502 C497 1.245 . S
C502 C498 1.477 . S
C502 H519 0.932 . S
C503 U486 2.882 . S
C503 C497 1.428 . S
C503 O506 1.301 . S
C503 O507 1.282 . S
O504 U486 2.441 . S
O504 C490 1.249 . S
O505 U486 2.420 . S
O505 C490 1.202 . S
O506 U486 2.455 . S
O506 C503 1.301 . S
O507 U486 2.449 . S
O507 C503 1.282 . S
H508 C481 0.931 . S
H509 C483 0.929 . S
H510 C484 0.930 . S
H511 C485 0.931 . S
H512 C492 0.932 . S
H513 C493 0.930 . S
H514 C494 0.929 . S
H515 C496 0.930 . S
H516 C498 0.932 . S
H517 C499 0.929 . S
H518 C500 0.928 . S
H519 C502 0.932 . S
C520 C521 1.264 . S
C520 C525 1.479 . S
C520 C530 1.465 . S
C521 C520 1.264 . S
C521 C523 1.339 . S
C521 H548 0.931 . S
C522 C523 1.395 . S
C522 C524 1.320 . S
C523 C521 1.339 . S
C523 C522 1.395 . S
C523 H549 0.929 . S
C524 C522 1.320 . S
C524 C525 1.405 . S
C524 H550 0.930 . S
C525 C520 1.479 . S
C525 C524 1.405 . S
C525 H551 0.931 . S
U526 O527 2.454 . S
U526 O528 2.458 . S
U526 C529 2.984 . S
U526 C530 2.847 . S
U526 C543 2.882 . S
U526 O544 2.441 . S
U526 O545 2.420 . S
U526 O546 2.455 . S
U526 O547 2.449 . S
O527 U526 2.454 . S
O527 C529 1.353 . S
O528 U526 2.458 . S
O528 C529 1.286 . S
C529 U526 2.984 . S
C529 O527 1.353 . S
C529 O528 1.286 . S
C529 C531 1.363 . S
C530 C520 1.465 . S
C530 U526 2.847 . S
C530 O544 1.249 . S
C530 O545 1.202 . S
C531 C529 1.363 . S
C531 C533 1.408 . S
C531 C536 1.342 . S
C532 C533 1.310 . S
C532 C535 1.461 1_556 S
C532 H552 0.932 . S
C533 C531 1.408 . S
C533 C532 1.310 . S
C533 H553 0.930 . S
C534 C535 1.474 . S
C534 C536 1.285 1_554 S
C534 H554 0.929 . S
C535 C532 1.461 1_554 S
C535 C534 1.474 . S
C536 C531 1.342 . S
C536 C534 1.285 1_556 S
C536 H555 0.930 . S
C537 C540 1.424 . S
C537 C542 1.245 . S
C537 C543 1.428 . S
C538 C541 1.260 . S
C538 C542 1.477 . S
C538 H556 0.932 . S
C539 C540 1.384 . S
C539 C541 1.479 . S
C539 H557 0.929 . S
C540 C537 1.424 . S
C540 C539 1.384 . S
C540 H558 0.928 . S
C541 C538 1.260 . S
C541 C539 1.479 . S
C542 C537 1.245 . S
C542 C538 1.477 . S
C542 H559 0.932 . S
C543 U526 2.882 . S
C543 C537 1.428 . S
C543 O546 1.301 . S
C543 O547 1.282 . S
O544 U526 2.441 . S
O544 C530 1.249 . S
O545 U526 2.420 . S
O545 C530 1.202 . S
O546 U526 2.455 . S
O546 C543 1.301 . S
O547 U526 2.449 . S
O547 C543 1.282 . S
H548 C521 0.931 . S
H549 C523 0.929 . S
H550 C524 0.930 . S
H551 C525 0.931 . S
H552 C532 0.932 . S
H553 C533 0.930 . S
H554 C534 0.929 . S
H555 C536 0.930 . S
H556 C538 0.932 . S
H557 C539 0.929 . S
H558 C540 0.928 . S
H559 C542 0.932 . S
C560 C561 1.264 . S
C560 C565 1.479 . S
C560 C570 1.465 . S
C561 C560 1.264 . S
C561 C563 1.339 . S
C561 H588 0.931 . S
C562 C563 1.395 . S
C562 C564 1.320 . S
C563 C561 1.339 . S
C563 C562 1.395 . S
C563 H589 0.929 . S
C564 C562 1.320 . S
C564 C565 1.405 . S
C564 H590 0.930 . S
C565 C560 1.479 . S
C565 C564 1.405 . S
C565 H591 0.931 . S
U566 O567 2.454 . S
U566 O568 2.458 . S
U566 C569 2.984 . S
U566 C570 2.847 . S
U566 C583 2.882 . S
U566 O584 2.441 . S
U566 O585 2.420 . S
U566 O586 2.455 . S
U566 O587 2.449 . S
O567 U566 2.454 . S
O567 C569 1.353 . S
O568 U566 2.458 . S
O568 C569 1.286 . S
C569 U566 2.984 . S
C569 O567 1.353 . S
C569 O568 1.286 . S
C569 C571 1.363 . S
C570 C560 1.465 . S
C570 U566 2.847 . S
C570 O584 1.249 . S
C570 O585 1.202 . S
C571 C569 1.363 . S
C571 C573 1.408 . S
C571 C576 1.342 . S
C572 C573 1.310 . S
C572 C575 1.461 . S
C572 H592 0.932 . S
C573 C571 1.408 . S
C573 C572 1.310 . S
C573 H593 0.930 . S
C574 C575 1.474 . S
C574 C576 1.285 . S
C574 H594 0.929 . S
C575 C572 1.461 . S
C575 C574 1.474 . S
C576 C571 1.342 . S
C576 C574 1.285 . S
C576 H595 0.930 . S
C577 C580 1.424 . S
C577 C582 1.245 . S
C577 C583 1.428 . S
C578 C581 1.260 . S
C578 C582 1.477 . S
C578 H596 0.932 . S
C579 C580 1.384 . S
C579 C581 1.479 . S
C579 H597 0.929 . S
C580 C577 1.424 . S
C580 C579 1.384 . S
C580 H598 0.928 . S
C581 C578 1.260 . S
C581 C579 1.479 . S
C582 C577 1.245 . S
C582 C578 1.477 . S
C582 H599 0.932 . S
C583 U566 2.882 . S
C583 C577 1.428 . S
C583 O586 1.301 . S
C583 O587 1.282 . S
O584 U566 2.441 . S
O584 C570 1.249 . S
O585 U566 2.420 . S
O585 C570 1.202 . S
O586 U566 2.455 . S
O586 C583 1.301 . S
O587 U566 2.449 . S
O587 C583 1.282 . S
H588 C561 0.931 . S
H589 C563 0.929 . S
H590 C564 0.930 . S
H591 C565 0.931 . S
H592 C572 0.932 . S
H593 C573 0.930 . S
H594 C574 0.929 . S
H595 C576 0.930 . S
H596 C578 0.932 . S
H597 C579 0.929 . S
H598 C580 0.928 . S
H599 C582 0.932 . S
C600 C601 1.264 . S
C600 C605 1.479 . S
C600 C610 1.465 . S
C601 C600 1.264 . S
C601 C603 1.339 . S
C601 H628 0.931 . S
C602 C603 1.431 . S
C602 C604 1.309 1_556 S
C603 C601 1.339 . S
C603 C602 1.431 . S
C603 H629 0.929 . S
C604 C602 1.309 1_554 S
C604 C605 1.405 1_554 S
C604 H630 0.930 . S
C605 C600 1.479 . S
C605 C604 1.405 1_556 S
C605 H631 0.931 . S
U606 O607 2.454 . S
U606 O608 2.458 . S
U606 C609 2.984 . S
U606 C610 2.847 . S
U606 C623 2.882 . S
U606 O624 2.441 . S
U606 O625 2.420 . S
U606 O626 2.455 . S
U606 O627 2.449 . S
O607 U606 2.454 . S
O607 C609 1.353 . S
O608 U606 2.458 . S
O608 C609 1.286 . S
C609 U606 2.984 . S
C609 O607 1.353 . S
C609 O608 1.286 . S
C609 C611 1.363 . S
C610 C600 1.465 . S
C610 U606 2.847 . S
C610 O624 1.249 . S
C610 O625 1.202 . S
C611 C609 1.363 . S
C611 C613 1.408 . S
C611 C616 1.342 . S
C612 C613 1.310 . S
C612 C615 1.461 . S
C612 H632 0.932 . S
C613 C611 1.408 . S
C613 C612 1.310 . S
C613 H633 0.930 . S
C614 C615 1.476 . S
C614 C616 1.306 . S
C614 H634 0.907 1_545 S
C615 C612 1.461 . S
C615 C614 1.476 . S
C616 C611 1.342 . S
C616 C614 1.306 . S
C616 H635 0.930 . S
C617 C620 1.424 . S
C617 C622 1.245 . S
C617 C623 1.428 . S
C618 C621 1.260 . S
C618 C622 1.477 . S
C618 H636 0.932 . S
C619 C620 1.384 . S
C619 C621 1.479 . S
C619 H637 0.929 . S
C620 C617 1.424 . S
C620 C619 1.384 . S
C620 H638 0.928 . S
C621 C618 1.260 . S
C621 C619 1.479 . S
C622 C617 1.245 . S
C622 C618 1.477 . S
C622 H639 0.932 . S
C623 U606 2.882 . S
C623 C617 1.428 . S
C623 O626 1.301 . S
C623 O627 1.282 . S
O624 U606 2.441 . S
O624 C610 1.249 . S
O625 U606 2.420 . S
O625 C610 1.202 . S
O626 U606 2.455 . S
O626 C623 1.301 . S
O627 U606 2.449 . S
O627 C623 1.282 . S
H628 C601 0.931 . S
H629 C603 0.929 . S
H630 C604 0.930 . S
H631 C605 0.931 . S
H632 C612 0.932 . S
H633 C613 0.930 . S
H634 C614 0.907 1_565 S
H635 C616 0.930 . S
H636 C618 0.932 . S
H637 C619 0.929 . S
H638 C620 0.928 . S
H639 C622 0.932 . S
Zn640 O643 2.031 . S
Zn640 O645 2.049 1_554 S
Zn640 O650 2.067 1_554 S
Zn641 O642 1.962 . S
Zn641 O644 1.986 . S
Zn641 O646 1.996 . S
Zn641 O649 1.943 1_554 S
O642 Zn641 1.962 . S
O642 C647 1.254 . S
O643 Zn640 2.031 . S
O643 C647 1.269 . S
O644 Zn641 1.986 . S
O644 C651 1.262 . S
O645 Zn640 2.049 1_556 S
O645 C653 1.260 . S
O646 Zn641 1.996 . S
O646 C653 1.257 1_554 S
C647 O642 1.254 . S
C647 O643 1.269 . S
C648 O649 1.249 . S
C648 O650 1.270 . S
O649 Zn641 1.943 1_556 S
O649 C648 1.249 . S
O650 Zn640 2.067 1_556 S
O650 C648 1.270 . S
C651 O644 1.262 . S
C651 O652 1.232 . S
O652 C651 1.232 . S
C653 O645 1.260 . S
C653 O646 1.257 1_556 S
Zn654 O657 2.031 . S
Zn654 O659 2.049 . S
Zn654 O664 2.067 . S
Zn655 O656 1.962 . S
Zn655 O658 1.986 . S
Zn655 O660 1.996 . S
Zn655 O663 1.943 . S
O656 Zn655 1.962 . S
O656 C661 1.254 . S
O657 Zn654 2.031 . S
O657 C661 1.269 . S
O658 Zn655 1.986 . S
O658 C665 1.262 . S
O659 Zn654 2.049 . S
O659 C667 1.260 . S
O660 Zn655 1.996 . S
O660 C667 1.257 . S
C661 O656 1.254 . S
C661 O657 1.269 . S
C662 O663 1.249 . S
C662 O664 1.270 . S
O663 Zn655 1.943 . S
O663 C662 1.249 . S
O664 Zn654 2.067 . S
O664 C662 1.270 . S
C665 O658 1.262 . S
C665 O666 1.232 . S
O666 C665 1.232 . S
C667 O659 1.260 . S
C667 O660 1.257 . S
Zn668 O671 2.031 . S
Zn668 O673 2.049 . S
Zn668 O678 2.067 . S
Zn669 O670 1.962 . S
Zn669 O672 1.986 . S
Zn669 O674 1.996 1_554 S
Zn669 O677 1.943 . S
O670 Zn669 1.962 . S
O670 C675 1.254 . S
O671 Zn668 2.031 . S
O671 C675 1.269 1_556 S
O672 Zn669 1.986 . S
O672 C679 1.262 . S
O673 Zn668 2.049 . S
O673 C681 1.260 . S
O674 Zn669 1.996 1_556 S
O674 C681 1.257 . S
C675 O670 1.254 . S
C675 O671 1.269 1_554 S
C676 O677 1.249 1_556 S
C676 O678 1.270 . S
O677 Zn669 1.943 . S
O677 C676 1.249 1_554 S
O678 Zn668 2.067 . S
O678 C676 1.270 . S
C679 O672 1.262 . S
C679 O680 1.232 . S
O680 C679 1.232 . S
C681 O673 1.260 . S
C681 O674 1.257 . S
Zn682 O685 2.048 . S
Zn682 O687 2.037 1_545 S
Zn682 O692 2.044 1_545 S
Zn683 O684 1.962 . S
Zn683 O686 1.986 . S
Zn683 O688 1.996 . S
Zn683 O691 1.943 1_545 S
O684 Zn683 1.962 . S
O684 C689 1.254 . S
O685 Zn682 2.048 . S
O685 C689 1.269 . S
O686 Zn683 1.986 . S
O686 C693 1.262 . S
O687 Zn682 2.037 1_565 S
O687 C695 1.260 . S
O688 Zn683 1.996 . S
O688 C695 1.257 1_545 S
C689 O684 1.254 . S
C689 O685 1.269 . S
C690 O691 1.249 . S
C690 O692 1.270 . S
O691 Zn683 1.943 1_565 S
O691 C690 1.249 . S
O692 Zn682 2.044 1_565 S
O692 C690 1.270 . S
C693 O686 1.262 . S
C693 O694 1.232 . S
O694 C693 1.232 . S
C695 O687 1.260 . S
C695 O688 1.257 1_565 S
Zn696 O699 2.031 . S
Zn696 O701 2.049 . S
Zn696 O706 2.067 . S
Zn697 O698 1.962 . S
Zn697 O700 1.986 . S
Zn697 O702 1.996 . S
Zn697 O705 1.943 . S
O698 Zn697 1.962 . S
O698 C703 1.254 . S
O699 Zn696 2.031 . S
O699 C703 1.269 . S
O700 Zn697 1.986 . S
O700 C707 1.262 . S
O701 Zn696 2.049 . S
O701 C709 1.260 . S
O702 Zn697 1.996 . S
O702 C709 1.257 . S
C703 O698 1.254 . S
C703 O699 1.269 . S
C704 O705 1.249 . S
C704 O706 1.270 . S
O705 Zn697 1.943 . S
O705 C704 1.249 . S
O706 Zn696 2.067 . S
O706 C704 1.270 . S
C707 O700 1.262 . S
C707 O708 1.232 . S
O708 C707 1.232 . S
C709 O701 1.260 . S
C709 O702 1.257 . S
Zn710 O713 2.031 . S
Zn710 O715 2.049 . S
Zn710 O720 2.067 . S
Zn711 O712 1.962 . S
Zn711 O714 1.986 . S
Zn711 O716 1.996 . S
Zn711 O719 1.943 . S
O712 Zn711 1.962 . S
O712 C717 1.254 . S
O713 Zn710 2.031 . S
O713 C717 1.269 . S
O714 Zn711 1.986 . S
O714 C721 1.262 . S
O715 Zn710 2.049 . S
O715 C723 1.260 . S
O716 Zn711 1.996 . S
O716 C723 1.257 . S
C717 O712 1.254 . S
C717 O713 1.269 . S
C718 O719 1.249 . S
C718 O720 1.270 . S
O719 Zn711 1.943 . S
O719 C718 1.249 . S
O720 Zn710 2.067 . S
O720 C718 1.270 . S
C721 O714 1.262 . S
C721 O722 1.232 . S
O722 C721 1.232 . S
C723 O715 1.260 . S
C723 O716 1.257 . S
Zn724 O727 2.031 . S
Zn724 O729 2.049 . S
Zn724 O734 2.067 . S
Zn725 O726 1.962 . S
Zn725 O728 1.986 . S
Zn725 O730 1.996 . S
Zn725 O733 1.943 . S
O726 Zn725 1.962 . S
O726 C731 1.254 . S
O727 Zn724 2.031 . S
O727 C731 1.269 . S
O728 Zn725 1.986 . S
O728 C735 1.262 . S
O729 Zn724 2.049 . S
O729 C737 1.260 . S
O730 Zn725 1.996 . S
O730 C737 1.257 . S
C731 O726 1.254 . S
C731 O727 1.269 . S
C732 O733 1.249 . S
C732 O734 1.270 . S
O733 Zn725 1.943 . S
O733 C732 1.249 . S
O734 Zn724 2.067 . S
O734 C732 1.270 . S
C735 O728 1.262 . S
C735 O736 1.232 . S
O736 C735 1.232 . S
C737 O729 1.260 . S
C737 O730 1.257 . S
Zn738 O741 2.031 . S
Zn738 O743 2.049 . S
Zn738 O748 2.067 . S
Zn739 O740 1.962 . S
Zn739 O742 1.986 . S
Zn739 O744 1.996 1_545 S
Zn739 O747 1.943 . S
O740 Zn739 1.962 . S
O740 C745 1.254 . S
O741 Zn738 2.031 . S
O741 C745 1.269 1_565 S
O742 Zn739 1.986 . S
O742 C749 1.262 . S
O743 Zn738 2.049 . S
O743 C751 1.260 . S
O744 Zn739 1.996 1_565 S
O744 C751 1.257 . S
C745 O740 1.254 . S
C745 O741 1.269 1_545 S
C746 O747 1.249 1_565 S
C746 O748 1.270 . S
O747 Zn739 1.943 . S
O747 C746 1.249 1_545 S
O748 Zn738 2.067 . S
O748 C746 1.270 . S
C749 O742 1.262 . S
C749 O750 1.232 . S
O750 C749 1.232 . S
C751 O743 1.260 . S
C751 O744 1.257 . S
Zn752 O755 2.031 . S
Zn752 O757 2.049 1_455 S
Zn752 O762 2.067 1_455 S
Zn753 O754 1.962 . S
Zn753 O756 1.986 . S
Zn753 O758 1.996 . S
Zn753 O761 1.943 1_455 S
O754 Zn753 1.962 . S
O754 C759 1.254 . S
O755 Zn752 2.031 . S
O755 C759 1.269 . S
O756 Zn753 1.986 . S
O756 C763 1.262 . S
O757 Zn752 2.049 1_655 S
O757 C765 1.260 . S
O758 Zn753 1.996 . S
O758 C765 1.257 1_455 S
C759 O754 1.254 . S
C759 O755 1.269 . S
C760 O761 1.249 . S
C760 O762 1.270 . S
O761 Zn753 1.943 1_655 S
O761 C760 1.249 . S
O762 Zn752 2.067 1_655 S
O762 C760 1.270 . S
C763 O756 1.262 . S
C763 O764 1.232 . S
O764 C763 1.232 . S
C765 O757 1.260 . S
C765 O758 1.257 1_655 S
Zn766 O769 2.031 . S
Zn766 O771 2.049 . S
Zn766 O776 2.067 . S
Zn767 O768 1.962 . S
Zn767 O770 1.986 . S
Zn767 O772 1.996 . S
Zn767 O775 1.943 . S
O768 Zn767 1.962 . S
O768 C773 1.254 . S
O769 Zn766 2.031 . S
O769 C773 1.269 . S
O770 Zn767 1.986 . S
O770 C777 1.262 . S
O771 Zn766 2.049 . S
O771 C779 1.260 . S
O772 Zn767 1.996 . S
O772 C779 1.257 . S
C773 O768 1.254 . S
C773 O769 1.269 . S
C774 O775 1.249 . S
C774 O776 1.270 . S
O775 Zn767 1.943 . S
O775 C774 1.249 . S
O776 Zn766 2.067 . S
O776 C774 1.270 . S
C777 O770 1.262 . S
C777 O778 1.232 . S
O778 C777 1.232 . S
C779 O771 1.260 . S
C779 O772 1.257 . S
Zn780 O783 2.031 . S
Zn780 O785 2.049 . S
Zn780 O790 2.067 . S
Zn781 O782 1.962 . S
Zn781 O784 1.986 . S
Zn781 O786 1.996 1_455 S
Zn781 O789 1.943 . S
O782 Zn781 1.962 . S
O782 C787 1.254 . S
O783 Zn780 2.031 . S
O783 C787 1.269 1_655 S
O784 Zn781 1.986 . S
O784 C791 1.262 . S
O785 Zn780 2.049 . S
O785 C793 1.260 . S
O786 Zn781 1.996 1_655 S
O786 C793 1.257 . S
C787 O782 1.254 . S
C787 O783 1.269 1_455 S
C788 O789 1.249 1_655 S
C788 O790 1.270 . S
O789 Zn781 1.943 . S
O789 C788 1.249 1_455 S
O790 Zn780 2.067 . S
O790 C788 1.270 . S
C791 O784 1.262 . S
C791 O792 1.232 . S
O792 C791 1.232 . S
C793 O785 1.260 . S
C793 O786 1.257 . S
Zn794 O797 2.031 . S
Zn794 O799 2.049 . S
Zn794 O804 2.067 . S
Zn795 O796 1.962 . S
Zn795 O798 1.986 . S
Zn795 O800 1.996 . S
Zn795 O803 1.943 . S
O796 Zn795 1.962 . S
O796 C801 1.254 . S
O797 Zn794 2.031 . S
O797 C801 1.269 . S
O798 Zn795 1.986 . S
O798 C805 1.262 . S
O799 Zn794 2.049 . S
O799 C807 1.260 . S
O800 Zn795 1.996 . S
O800 C807 1.257 . S
C801 O796 1.254 . S
C801 O797 1.269 . S
C802 O803 1.249 . S
C802 O804 1.270 . S
O803 Zn795 1.943 . S
O803 C802 1.249 . S
O804 Zn794 2.067 . S
O804 C802 1.270 . S
C805 O798 1.262 . S
C805 O806 1.232 . S
O806 C805 1.232 . S
C807 O799 1.260 . S
C807 O800 1.257 . S
H808 C816 0.929 . S
H809 C818 0.930 . S
H810 C820 0.930 . S
H811 C823 0.929 . S
H812 C826 0.930 . S
H813 C828 0.960 . S
H814 C828 0.960 . S
H815 C828 0.960 . S
C816 H808 0.929 . S
C816 C817 1.377 . S
C816 C818 1.384 . S
C817 C816 1.377 . S
C817 C823 1.390 . S
C818 H809 0.930 . S
C818 C816 1.384 . S
C818 C819 1.372 . S
C819 C818 1.372 . S
C819 C820 1.400 . S
C819 C824 1.490 . S
C820 H810 0.930 . S
C820 C819 1.400 . S
C820 C823 1.386 . S
H821 C837 0.930 . S
H822 C838 0.931 . S
C823 H811 0.929 . S
C823 C817 1.390 . S
C823 C820 1.386 . S
C824 C819 1.490 . S
C824 C826 1.395 . S
C824 C827 1.403 . S
H825 C831 0.930 . S
C826 H812 0.930 . S
C826 C824 1.395 . S
C826 C829 1.403 . S
C827 C824 1.403 . S
C827 C828 1.524 . S
C827 C831 1.400 . S
C828 H813 0.960 . S
C828 H814 0.960 . S
C828 H815 0.960 . S
C828 C827 1.524 . S
C829 C826 1.403 . S
C829 C830 1.392 . S
C829 C833 1.495 . S
C830 C829 1.392 . S
C830 C831 1.385 . S
C830 C832 1.478 . S
C831 H825 0.930 . S
C831 C827 1.400 . S
C831 C830 1.385 . S
C832 C830 1.478 . S
C832 C834 1.381 . S
C832 C838 1.383 . S
C833 C829 1.495 . S
C833 H839 0.959 . S
C833 H840 0.961 . S
C833 H841 0.960 . S
C834 C832 1.381 . S
C834 C835 1.394 . S
C834 H842 0.930 . S
C835 C834 1.394 . S
C835 C836 1.383 . S
C835 H843 0.929 . S
C836 C835 1.383 . S
C836 C837 1.377 . S
C837 H821 0.930 . S
C837 C836 1.377 . S
C837 C838 1.379 . S
C838 H822 0.931 . S
C838 C832 1.383 . S
C838 C837 1.379 . S
H839 C833 0.959 . S
H840 C833 0.961 . S
H841 C833 0.960 . S
H842 C834 0.930 . S
H843 C835 0.929 . S
H844 C852 0.929 . S
H845 C854 0.930 . S
H846 C856 0.930 . S
H847 C859 0.905 1_655 S
H848 C862 0.930 . S
H849 C864 0.960 . S
H850 C864 0.960 . S
H851 C864 0.960 . S
C852 H844 0.929 . S
C852 C853 1.377 . S
C852 C854 1.384 . S
C853 C852 1.377 . S
C853 C859 1.390 . S
C854 H845 0.930 . S
C854 C852 1.384 . S
C854 C855 1.372 . S
C855 C854 1.372 . S
C855 C856 1.400 . S
C855 C860 1.490 . S
C856 H846 0.930 . S
C856 C855 1.400 . S
C856 C859 1.386 . S
H857 C873 0.930 . S
H858 C874 0.931 . S
C859 H847 0.905 1_455 S
C859 C853 1.390 . S
C859 C856 1.386 . S
C860 C855 1.490 . S
C860 C862 1.395 . S
C860 C863 1.403 . S
H861 C867 0.930 . S
C862 H848 0.930 . S
C862 C860 1.395 . S
C862 C865 1.403 . S
C863 C860 1.403 . S
C863 C864 1.524 . S
C863 C867 1.400 . S
C864 H849 0.960 . S
C864 H850 0.960 . S
C864 H851 0.960 . S
C864 C863 1.524 . S
C865 C862 1.403 . S
C865 C866 1.392 . S
C865 C869 1.495 . S
C866 C865 1.392 . S
C866 C867 1.385 . S
C866 C868 1.478 . S
C867 H861 0.930 . S
C867 C863 1.400 . S
C867 C866 1.385 . S
C868 C866 1.478 . S
C868 C870 1.381 . S
C868 C874 1.383 . S
C869 C865 1.495 . S
C869 H875 0.959 . S
C869 H876 0.961 . S
C869 H877 0.960 . S
C870 C868 1.381 . S
C870 C871 1.394 . S
C870 H878 0.930 . S
C871 C870 1.394 . S
C871 C872 1.383 . S
C871 H879 0.929 . S
C872 C871 1.383 . S
C872 C873 1.377 . S
C873 H857 0.930 . S
C873 C872 1.377 . S
C873 C874 1.379 . S
C874 H858 0.931 . S
C874 C868 1.383 . S
C874 C873 1.379 . S
H875 C869 0.959 . S
H876 C869 0.961 . S
H877 C869 0.960 . S
H878 C870 0.930 . S
H879 C871 0.929 . S
H880 C888 0.929 . S
H881 C890 0.930 . S
H882 C892 0.930 . S
H883 C895 0.929 . S
H884 C898 0.930 . S
H885 C900 0.960 . S
H886 C900 0.960 . S
H887 C900 0.960 . S
C888 H880 0.929 . S
C888 C889 1.377 . S
C888 C890 1.384 . S
C889 C888 1.377 . S
C889 C895 1.390 . S
C890 H881 0.930 . S
C890 C888 1.384 . S
C890 C891 1.372 . S
C891 C890 1.372 . S
C891 C892 1.400 . S
C891 C896 1.490 . S
C892 H882 0.930 . S
C892 C891 1.400 . S
C892 C895 1.386 . S
H893 C909 0.930 . S
H894 C910 0.931 . S
C895 H883 0.929 . S
C895 C889 1.390 . S
C895 C892 1.386 . S
C896 C891 1.490 . S
C896 C898 1.395 . S
C896 C899 1.403 . S
H897 C903 0.930 . S
C898 H884 0.930 . S
C898 C896 1.395 . S
C898 C901 1.403 . S
C899 C896 1.403 . S
C899 C900 1.524 . S
C899 C903 1.400 . S
C900 H885 0.960 . S
C900 H886 0.960 . S
C900 H887 0.960 . S
C900 C899 1.524 . S
C901 C898 1.403 . S
C901 C902 1.392 . S
C901 C905 1.495 . S
C902 C901 1.392 . S
C902 C903 1.385 . S
C902 C904 1.478 . S
C903 H897 0.930 . S
C903 C899 1.400 . S
C903 C902 1.385 . S
C904 C902 1.478 . S
C904 C906 1.381 . S
C904 C910 1.383 . S
C905 C901 1.495 . S
C905 H911 0.959 . S
C905 H912 0.961 . S
C905 H913 0.960 . S
C906 C904 1.381 . S
C906 C907 1.394 . S
C906 H914 0.930 . S
C907 C906 1.394 . S
C907 C908 1.383 . S
C907 H915 0.929 . S
C908 C907 1.383 . S
C908 C909 1.377 . S
C909 H893 0.930 . S
C909 C908 1.377 . S
C909 C910 1.379 . S
C910 H894 0.931 . S
C910 C904 1.383 . S
C910 C909 1.379 . S
H911 C905 0.959 . S
H912 C905 0.961 . S
H913 C905 0.960 . S
H914 C906 0.930 . S
H915 C907 0.929 . S
H916 C924 0.929 . S
H917 C926 0.930 . S
H918 C928 0.930 . S
H919 C931 0.929 1_455 S
H920 C934 0.930 . S
H921 C936 0.960 . S
H922 C936 0.960 . S
H923 C936 0.960 . S
C924 H916 0.929 . S
C924 C925 1.377 . S
C924 C926 1.384 . S
C925 C924 1.377 . S
C925 C931 1.390 . S
C926 H917 0.930 . S
C926 C924 1.384 . S
C926 C927 1.372 . S
C927 C926 1.372 . S
C927 C928 1.400 . S
C927 C932 1.490 . S
C928 H918 0.930 . S
C928 C927 1.400 . S
C928 C931 1.386 . S
H929 C945 0.930 . S
H930 C946 0.931 1_545 S
C931 H919 0.929 1_655 S
C931 C925 1.390 . S
C931 C928 1.386 . S
C932 C927 1.490 . S
C932 C934 1.395 . S
C932 C935 1.403 . S
H933 C939 0.930 . S
C934 H920 0.930 . S
C934 C932 1.395 . S
C934 C937 1.403 . S
C935 C932 1.403 . S
C935 C936 1.524 . S
C935 C939 1.400 . S
C936 H921 0.960 . S
C936 H922 0.960 . S
C936 H923 0.960 . S
C936 C935 1.524 . S
C937 C934 1.403 . S
C937 C938 1.392 . S
C937 C941 1.495 . S
C938 C937 1.392 . S
C938 C939 1.385 . S
C938 C940 1.478 . S
C939 H933 0.930 . S
C939 C935 1.400 . S
C939 C938 1.385 . S
C940 C938 1.478 . S
C940 C942 1.381 . S
C940 C946 1.383 . S
C941 C937 1.495 . S
C941 H947 0.959 . S
C941 H948 0.961 . S
C941 H949 0.960 . S
C942 C940 1.381 . S
C942 C943 1.394 . S
C942 H950 0.930 . S
C943 C942 1.394 . S
C943 C944 1.383 . S
C943 H951 0.929 . S
C944 C943 1.383 . S
C944 C945 1.377 1_565 S
C945 H929 0.930 . S
C945 C944 1.377 1_545 S
C945 C946 1.379 1_545 S
C946 H930 0.931 1_565 S
C946 C940 1.383 . S
C946 C945 1.379 1_565 S
H947 C941 0.959 . S
H948 C941 0.961 . S
H949 C941 0.960 . S
H950 C942 0.930 . S
H951 C943 0.929 . S
H952 C960 0.929 . S
H953 C962 0.930 . S
H954 C964 0.930 . S
H955 C967 0.929 . S
H956 C970 0.930 . S
H957 C972 0.960 . S
H958 C972 0.960 . S
H959 C972 0.960 . S
C960 H952 0.929 . S
C960 C961 1.377 . S
C960 C962 1.384 . S
C961 C960 1.377 . S
C961 C967 1.390 . S
C962 H953 0.930 . S
C962 C960 1.384 . S
C962 C963 1.372 . S
C963 C962 1.372 . S
C963 C964 1.400 . S
C963 C968 1.490 . S
C964 H954 0.930 . S
C964 C963 1.400 . S
C964 C967 1.386 . S
H965 C981 0.930 . S
H966 C982 0.931 . S
C967 H955 0.929 . S
C967 C961 1.390 . S
C967 C964 1.386 . S
C968 C963 1.490 . S
C968 C970 1.395 . S
C968 C971 1.403 . S
H969 C975 0.930 . S
C970 H956 0.930 . S
C970 C968 1.395 . S
C970 C973 1.403 . S
C971 C968 1.403 . S
C971 C972 1.524 . S
C971 C975 1.400 . S
C972 H957 0.960 . S
C972 H958 0.960 . S
C972 H959 0.960 . S
C972 C971 1.524 . S
C973 C970 1.403 . S
C973 C974 1.392 . S
C973 C977 1.495 . S
C974 C973 1.392 . S
C974 C975 1.385 . S
C974 C976 1.478 . S
C975 H969 0.930 . S
C975 C971 1.400 . S
C975 C974 1.385 . S
C976 C974 1.478 . S
C976 C978 1.381 . S
C976 C982 1.383 . S
C977 C973 1.495 . S
C977 H983 0.959 . S
C977 H984 0.961 . S
C977 H985 0.960 . S
C978 C976 1.381 . S
C978 C979 1.394 . S
C978 H986 0.930 . S
C979 C978 1.394 . S
C979 C980 1.383 . S
C979 H987 0.929 . S
C980 C979 1.383 . S
C980 C981 1.377 . S
C981 H965 0.930 . S
C981 C980 1.377 . S
C981 C982 1.379 . S
C982 H966 0.931 . S
C982 C976 1.383 . S
C982 C981 1.379 . S
H983 C977 0.959 . S
H984 C977 0.961 . S
H985 C977 0.960 . S
H986 C978 0.930 . S
H987 C979 0.929 . S
H988 C996 0.929 . S
H989 C998 0.930 . S
H990 C1000 0.930 . S
H991 C1003 0.929 . S
H992 C1006 0.930 . S
H993 C1008 0.960 . S
H994 C1008 0.960 . S
H995 C1008 0.960 . S
C996 H988 0.929 . S
C996 C997 1.377 . S
C996 C998 1.384 . S
C997 C996 1.377 . S
C997 C1003 1.390 . S
C998 H989 0.930 . S
C998 C996 1.384 . S
C998 C999 1.372 . S
C999 C998 1.372 . S
C999 C1000 1.400 . S
C999 C1004 1.490 . S
C1000 H990 0.930 . S
C1000 C999 1.400 . S
C1000 C1003 1.386 . S
H1001 C1017 0.930 . S
H1002 C1018 0.931 . S
C1003 H991 0.929 . S
C1003 C997 1.390 . S
C1003 C1000 1.386 . S
C1004 C999 1.490 . S
C1004 C1006 1.395 . S
C1004 C1007 1.403 . S
H1005 C1011 0.930 . S
C1006 H992 0.930 . S
C1006 C1004 1.395 . S
C1006 C1009 1.403 . S
C1007 C1004 1.403 . S
C1007 C1008 1.524 . S
C1007 C1011 1.400 . S
C1008 H993 0.960 . S
C1008 H994 0.960 . S
C1008 H995 0.960 . S
C1008 C1007 1.524 . S
C1009 C1006 1.403 . S
C1009 C1010 1.392 . S
C1009 C1013 1.495 . S
C1010 C1009 1.392 . S
C1010 C1011 1.385 . S
C1010 C1012 1.478 . S
C1011 H1005 0.930 . S
C1011 C1007 1.400 . S
C1011 C1010 1.385 . S
C1012 C1010 1.478 . S
C1012 C1014 1.381 . S
C1012 C1018 1.383 . S
C1013 C1009 1.495 . S
C1013 H1019 0.959 . S
C1013 H1020 0.961 . S
C1013 H1021 0.960 . S
C1014 C1012 1.381 . S
C1014 C1015 1.394 . S
C1014 H1022 0.930 . S
C1015 C1014 1.394 . S
C1015 C1016 1.383 . S
C1015 H1023 0.929 . S
C1016 C1015 1.383 . S
C1016 C1017 1.377 . S
C1017 H1001 0.930 . S
C1017 C1016 1.377 . S
C1017 C1018 1.379 . S
C1018 H1002 0.931 . S
C1018 C1012 1.383 . S
C1018 C1017 1.379 . S
H1019 C1013 0.959 . S
H1020 C1013 0.961 . S
H1021 C1013 0.960 . S
H1022 C1014 0.930 . S
H1023 C1015 0.929 . S
H1024 C1032 0.929 . S
H1025 C1034 0.930 . S
H1026 C1036 0.930 . S
H1027 C1039 0.929 . S
H1028 C1042 0.930 . S
H1029 C1044 0.960 . S
H1030 C1044 0.960 . S
H1031 C1044 0.960 . S
C1032 H1024 0.929 . S
C1032 C1033 1.377 . S
C1032 C1034 1.384 . S
C1033 C1032 1.377 . S
C1033 C1039 1.390 . S
C1034 H1025 0.930 . S
C1034 C1032 1.384 . S
C1034 C1035 1.372 . S
C1035 C1034 1.372 . S
C1035 C1036 1.400 . S
C1035 C1040 1.490 . S
C1036 H1026 0.930 . S
C1036 C1035 1.400 . S
C1036 C1039 1.386 . S
H1037 C1053 0.930 . S
H1038 C1054 0.931 . S
C1039 H1027 0.929 . S
C1039 C1033 1.390 . S
C1039 C1036 1.386 . S
C1040 C1035 1.490 . S
C1040 C1042 1.395 . S
C1040 C1043 1.403 . S
H1041 C1047 0.930 . S
C1042 H1028 0.930 . S
C1042 C1040 1.395 . S
C1042 C1045 1.403 . S
C1043 C1040 1.403 . S
C1043 C1044 1.524 . S
C1043 C1047 1.400 . S
C1044 H1029 0.960 . S
C1044 H1030 0.960 . S
C1044 H1031 0.960 . S
C1044 C1043 1.524 . S
C1045 C1042 1.403 . S
C1045 C1046 1.392 . S
C1045 C1049 1.495 . S
C1046 C1045 1.392 . S
C1046 C1047 1.385 . S
C1046 C1048 1.478 . S
C1047 H1041 0.930 . S
C1047 C1043 1.400 . S
C1047 C1046 1.385 . S
C1048 C1046 1.478 . S
C1048 C1050 1.381 . S
C1048 C1054 1.383 . S
C1049 C1045 1.495 . S
C1049 H1055 0.959 . S
C1049 H1056 0.961 . S
C1049 H1057 0.960 . S
C1050 C1048 1.381 . S
C1050 C1051 1.394 . S
C1050 H1058 0.930 . S
C1051 C1050 1.394 . S
C1051 C1052 1.383 . S
C1051 H1059 0.929 . S
C1052 C1051 1.383 . S
C1052 C1053 1.377 . S
C1053 H1037 0.930 . S
C1053 C1052 1.377 . S
C1053 C1054 1.379 . S
C1054 H1038 0.931 . S
C1054 C1048 1.383 . S
C1054 C1053 1.379 . S
H1055 C1049 0.959 . S
H1056 C1049 0.961 . S
H1057 C1049 0.960 . S
H1058 C1050 0.930 . S
H1059 C1051 0.929 . S
H1060 C1068 0.929 . S
H1061 C1070 0.930 . S
H1062 C1072 0.930 . S
H1063 C1075 0.929 . S
H1064 C1078 0.930 . S
H1065 C1080 0.960 . S
H1066 C1080 0.960 . S
H1067 C1080 0.960 . S
C1068 H1060 0.929 . S
C1068 C1069 1.377 . S
C1068 C1070 1.384 . S
C1069 C1068 1.377 . S
C1069 C1075 1.390 . S
C1070 H1061 0.930 . S
C1070 C1068 1.384 . S
C1070 C1071 1.372 . S
C1071 C1070 1.372 . S
C1071 C1072 1.400 . S
C1071 C1076 1.490 . S
C1072 H1062 0.930 . S
C1072 C1071 1.400 . S
C1072 C1075 1.386 . S
H1073 C1089 0.930 . S
H1074 C1090 0.931 . S
C1075 H1063 0.929 . S
C1075 C1069 1.390 . S
C1075 C1072 1.386 . S
C1076 C1071 1.490 . S
C1076 C1078 1.395 . S
C1076 C1079 1.403 . S
H1077 C1083 0.930 . S
C1078 H1064 0.930 . S
C1078 C1076 1.395 . S
C1078 C1081 1.403 . S
C1079 C1076 1.403 . S
C1079 C1080 1.524 . S
C1079 C1083 1.400 . S
C1080 H1065 0.960 . S
C1080 H1066 0.960 . S
C1080 H1067 0.960 . S
C1080 C1079 1.524 . S
C1081 C1078 1.403 . S
C1081 C1082 1.392 . S
C1081 C1085 1.495 . S
C1082 C1081 1.392 . S
C1082 C1083 1.385 . S
C1082 C1084 1.478 . S
C1083 H1077 0.930 . S
C1083 C1079 1.400 . S
C1083 C1082 1.385 . S
C1084 C1082 1.478 . S
C1084 C1086 1.381 . S
C1084 C1090 1.383 1_565 S
C1085 C1081 1.495 . S
C1085 H1091 0.959 . S
C1085 H1092 0.961 1_565 S
C1085 H1093 0.960 . S
C1086 C1084 1.381 . S
C1086 C1087 1.394 . S
C1086 H1094 0.930 . S
C1087 C1086 1.394 . S
C1087 C1088 1.383 . S
C1087 H1095 0.929 . S
C1088 C1087 1.383 . S
C1088 C1089 1.377 1_565 S
C1089 H1073 0.930 . S
C1089 C1088 1.377 1_545 S
C1089 C1090 1.379 . S
C1090 H1074 0.931 . S
C1090 C1084 1.383 1_545 S
C1090 C1089 1.379 . S
H1091 C1085 0.959 . S
H1092 C1085 0.961 1_545 S
H1093 C1085 0.960 . S
H1094 C1086 0.930 . S
H1095 C1087 0.929 . S
H1096 C1104 0.929 . S
H1097 C1106 0.930 . S
H1098 C1108 0.930 . S
H1099 C1111 0.929 . S
H1100 C1114 0.930 . S
H1101 C1116 0.960 . S
H1102 C1116 0.960 . S
H1103 C1116 0.960 . S
C1104 H1096 0.929 . S
C1104 C1105 1.377 . S
C1104 C1106 1.384 . S
C1105 C1104 1.377 . S
C1105 C1111 1.390 . S
C1106 H1097 0.930 . S
C1106 C1104 1.384 . S
C1106 C1107 1.372 . S
C1107 C1106 1.372 . S
C1107 C1108 1.400 . S
C1107 C1112 1.490 . S
C1108 H1098 0.930 . S
C1108 C1107 1.400 . S
C1108 C1111 1.386 . S
H1109 C1125 0.930 . S
H1110 C1126 0.931 . S
C1111 H1099 0.929 . S
C1111 C1105 1.390 . S
C1111 C1108 1.386 . S
C1112 C1107 1.490 . S
C1112 C1114 1.395 . S
C1112 C1115 1.403 . S
H1113 C1119 0.930 . S
C1114 H1100 0.930 . S
C1114 C1112 1.395 . S
C1114 C1117 1.403 . S
C1115 C1112 1.403 . S
C1115 C1116 1.524 . S
C1115 C1119 1.400 . S
C1116 H1101 0.960 . S
C1116 H1102 0.960 . S
C1116 H1103 0.960 . S
C1116 C1115 1.524 . S
C1117 C1114 1.403 . S
C1117 C1118 1.392 . S
C1117 C1121 1.495 . S
C1118 C1117 1.392 . S
C1118 C1119 1.385 . S
C1118 C1120 1.478 . S
C1119 H1113 0.930 . S
C1119 C1115 1.400 . S
C1119 C1118 1.385 . S
C1120 C1118 1.478 . S
C1120 C1122 1.381 . S
C1120 C1126 1.383 . S
C1121 C1117 1.495 . S
C1121 H1127 0.959 . S
C1121 H1128 0.961 . S
C1121 H1129 0.960 . S
C1122 C1120 1.381 . S
C1122 C1123 1.394 . S
C1122 H1130 0.930 . S
C1123 C1122 1.394 . S
C1123 C1124 1.383 . S
C1123 H1131 0.929 . S
C1124 C1123 1.383 . S
C1124 C1125 1.377 . S
C1125 H1109 0.930 . S
C1125 C1124 1.377 . S
C1125 C1126 1.379 . S
C1126 H1110 0.931 . S
C1126 C1120 1.383 . S
C1126 C1125 1.379 . S
H1127 C1121 0.959 . S
H1128 C1121 0.961 . S
H1129 C1121 0.960 . S
H1130 C1122 0.930 . S
H1131 C1123 0.929 . S
H1132 C1140 0.929 . S
H1133 C1142 0.930 . S
H1134 C1144 0.930 . S
H1135 C1147 0.929 . S
H1136 C1150 0.930 . S
H1137 C1152 0.960 . S
H1138 C1152 0.960 . S
H1139 C1152 0.960 . S
C1140 H1132 0.929 . S
C1140 C1141 1.377 . S
C1140 C1142 1.384 . S
C1141 C1140 1.377 . S
C1141 C1147 1.390 . S
C1142 H1133 0.930 . S
C1142 C1140 1.384 . S
C1142 C1143 1.372 . S
C1143 C1142 1.372 . S
C1143 C1144 1.400 . S
C1143 C1148 1.490 . S
C1144 H1134 0.930 . S
C1144 C1143 1.400 . S
C1144 C1147 1.386 . S
H1145 C1161 0.930 . S
H1146 C1162 0.931 . S
C1147 H1135 0.929 . S
C1147 C1141 1.390 . S
C1147 C1144 1.386 . S
C1148 C1143 1.490 . S
C1148 C1150 1.395 . S
C1148 C1151 1.403 . S
H1149 C1155 0.930 . S
C1150 H1136 0.930 . S
C1150 C1148 1.395 . S
C1150 C1153 1.403 . S
C1151 C1148 1.403 . S
C1151 C1152 1.524 . S
C1151 C1155 1.400 . S
C1152 H1137 0.960 . S
C1152 H1138 0.960 . S
C1152 H1139 0.960 . S
C1152 C1151 1.524 . S
C1153 C1150 1.403 . S
C1153 C1154 1.392 . S
C1153 C1157 1.495 . S
C1154 C1153 1.392 . S
C1154 C1155 1.385 . S
C1154 C1156 1.478 . S
C1155 H1149 0.930 . S
C1155 C1151 1.400 . S
C1155 C1154 1.385 . S
C1156 C1154 1.478 . S
C1156 C1158 1.381 . S
C1156 C1162 1.383 . S
C1157 C1153 1.495 . S
C1157 H1163 0.959 . S
C1157 H1164 0.961 . S
C1157 H1165 0.960 . S
C1158 C1156 1.381 . S
C1158 C1159 1.394 . S
C1158 H1166 0.930 . S
C1159 C1158 1.394 . S
C1159 C1160 1.383 . S
C1159 H1167 0.929 . S
C1160 C1159 1.383 . S
C1160 C1161 1.377 . S
C1161 H1145 0.930 . S
C1161 C1160 1.377 . S
C1161 C1162 1.379 . S
C1162 H1146 0.931 . S
C1162 C1156 1.383 . S
C1162 C1161 1.379 . S
H1163 C1157 0.959 . S
H1164 C1157 0.961 . S
H1165 C1157 0.960 . S
H1166 C1158 0.930 . S
H1167 C1159 0.929 . S
H1168 C1176 0.929 . S
H1169 C1178 0.930 . S
H1170 C1180 0.930 . S
H1171 C1183 0.929 . S
H1172 C1186 0.930 . S
H1173 C1188 0.960 . S
H1174 C1188 0.960 . S
H1175 C1188 0.960 . S
C1176 H1168 0.929 . S
C1176 C1177 1.377 . S
C1176 C1178 1.384 . S
C1177 C1176 1.377 . S
C1177 C1183 1.390 . S
C1178 H1169 0.930 . S
C1178 C1176 1.384 . S
C1178 C1179 1.372 . S
C1179 C1178 1.372 . S
C1179 C1180 1.400 . S
C1179 C1184 1.490 . S
C1180 H1170 0.930 . S
C1180 C1179 1.400 . S
C1180 C1183 1.386 . S
H1181 C1197 0.930 . S
H1182 C1198 0.931 . S
C1183 H1171 0.929 . S
C1183 C1177 1.390 . S
C1183 C1180 1.386 . S
C1184 C1179 1.490 . S
C1184 C1186 1.395 . S
C1184 C1187 1.403 . S
H1185 C1191 0.930 . S
C1186 H1172 0.930 . S
C1186 C1184 1.395 . S
C1186 C1189 1.403 . S
C1187 C1184 1.403 . S
C1187 C1188 1.524 . S
C1187 C1191 1.400 . S
C1188 H1173 0.960 . S
C1188 H1174 0.960 . S
C1188 H1175 0.960 . S
C1188 C1187 1.524 . S
C1189 C1186 1.403 . S
C1189 C1190 1.392 . S
C1189 C1193 1.495 . S
C1190 C1189 1.392 . S
C1190 C1191 1.385 . S
C1190 C1192 1.478 . S
C1191 H1185 0.930 . S
C1191 C1187 1.400 . S
C1191 C1190 1.385 . S
C1192 C1190 1.478 . S
C1192 C1194 1.381 . S
C1192 C1198 1.383 . S
C1193 C1189 1.495 . S
C1193 H1199 0.959 . S
C1193 H1200 0.961 . S
C1193 H1201 0.960 . S
C1194 C1192 1.381 . S
C1194 C1195 1.394 . S
C1194 H1202 0.930 . S
C1195 C1194 1.394 . S
C1195 C1196 1.383 . S
C1195 H1203 0.929 . S
C1196 C1195 1.383 . S
C1196 C1197 1.377 . S
C1197 H1181 0.930 . S
C1197 C1196 1.377 . S
C1197 C1198 1.379 . S
C1198 H1182 0.931 . S
C1198 C1192 1.383 . S
C1198 C1197 1.379 . S
H1199 C1193 0.959 . S
H1200 C1193 0.961 . S
H1201 C1193 0.960 . S
H1202 C1194 0.930 . S
H1203 C1195 0.929 . S
H1204 C1212 0.929 . S
H1205 C1214 0.930 . S
H1206 C1216 0.930 . S
H1207 C1219 0.929 . S
H1208 C1222 0.930 . S
H1209 C1224 0.960 . S
H1210 C1224 0.960 . S
H1211 C1224 0.960 . S
C1212 H1204 0.929 . S
C1212 C1213 1.377 . S
C1212 C1214 1.384 . S
C1213 C1212 1.377 . S
C1213 C1219 1.390 . S
C1214 H1205 0.930 . S
C1214 C1212 1.384 . S
C1214 C1215 1.372 . S
C1215 C1214 1.372 . S
C1215 C1216 1.400 . S
C1215 C1220 1.490 . S
C1216 H1206 0.930 . S
C1216 C1215 1.400 . S
C1216 C1219 1.386 . S
H1217 C1233 0.930 . S
H1218 C1234 0.931 . S
C1219 H1207 0.929 . S
C1219 C1213 1.390 . S
C1219 C1216 1.386 . S
C1220 C1215 1.490 . S
C1220 C1222 1.395 . S
C1220 C1223 1.403 . S
H1221 C1227 0.930 . S
C1222 H1208 0.930 . S
C1222 C1220 1.395 . S
C1222 C1225 1.403 . S
C1223 C1220 1.403 . S
C1223 C1224 1.524 . S
C1223 C1227 1.400 . S
C1224 H1209 0.960 . S
C1224 H1210 0.960 . S
C1224 H1211 0.960 . S
C1224 C1223 1.524 . S
C1225 C1222 1.403 . S
C1225 C1226 1.392 . S
C1225 C1229 1.495 . S
C1226 C1225 1.392 . S
C1226 C1227 1.385 . S
C1226 C1228 1.478 . S
C1227 H1221 0.930 . S
C1227 C1223 1.400 . S
C1227 C1226 1.385 . S
C1228 C1226 1.478 . S
C1228 C1230 1.381 . S
C1228 C1234 1.383 . S
C1229 C1225 1.495 . S
C1229 H1235 0.959 . S
C1229 H1236 0.961 . S
C1229 H1237 0.960 . S
C1230 C1228 1.381 . S
C1230 C1231 1.394 . S
C1230 H1238 0.930 . S
C1231 C1230 1.394 . S
C1231 C1232 1.383 . S
C1231 H1239 0.929 . S
C1232 C1231 1.383 . S
C1232 C1233 1.377 . S
C1233 H1217 0.930 . S
C1233 C1232 1.377 . S
C1233 C1234 1.379 . S
C1234 H1218 0.931 . S
C1234 C1228 1.383 . S
C1234 C1233 1.379 . S
H1235 C1229 0.959 . S
H1236 C1229 0.961 . S
H1237 C1229 0.960 . S
H1238 C1230 0.930 . S
H1239 C1231 0.929 . S
H1240 C1248 0.929 . S
H1241 C1250 0.930 . S
H1242 C1252 0.930 . S
H1243 C1255 0.929 . S
H1244 C1258 0.930 . S
H1245 C1260 0.960 . S
H1246 C1260 0.960 . S
H1247 C1260 0.960 . S
C1248 H1240 0.929 . S
C1248 C1249 1.377 . S
C1248 C1250 1.384 . S
C1249 C1248 1.377 . S
C1249 C1255 1.390 . S
C1250 H1241 0.930 . S
C1250 C1248 1.384 . S
C1250 C1251 1.372 . S
C1251 C1250 1.372 . S
C1251 C1252 1.400 . S
C1251 C1256 1.490 . S
C1252 H1242 0.930 . S
C1252 C1251 1.400 . S
C1252 C1255 1.386 . S
H1253 C1269 0.930 . S
H1254 C1270 0.931 . S
C1255 H1243 0.929 . S
C1255 C1249 1.390 . S
C1255 C1252 1.386 . S
C1256 C1251 1.490 . S
C1256 C1258 1.395 . S
C1256 C1259 1.403 . S
H1257 C1263 0.930 . S
C1258 H1244 0.930 . S
C1258 C1256 1.395 . S
C1258 C1261 1.403 . S
C1259 C1256 1.403 . S
C1259 C1260 1.524 . S
C1259 C1263 1.400 . S
C1260 H1245 0.960 . S
C1260 H1246 0.960 . S
C1260 H1247 0.960 . S
C1260 C1259 1.524 . S
C1261 C1258 1.403 . S
C1261 C1262 1.392 . S
C1261 C1265 1.495 . S
C1262 C1261 1.392 . S
C1262 C1263 1.385 . S
C1262 C1264 1.478 . S
C1263 H1257 0.930 . S
C1263 C1259 1.400 . S
C1263 C1262 1.385 . S
C1264 C1262 1.478 . S
C1264 C1266 1.381 . S
C1264 C1270 1.383 . S
C1265 C1261 1.495 . S
C1265 H1271 0.959 . S
C1265 H1272 0.961 . S
C1265 H1273 0.960 . S
C1266 C1264 1.381 . S
C1266 C1267 1.394 . S
C1266 H1274 0.930 . S
C1267 C1266 1.394 . S
C1267 C1268 1.383 . S
C1267 H1275 0.929 . S
C1268 C1267 1.383 . S
C1268 C1269 1.377 . S
C1269 H1253 0.930 . S
C1269 C1268 1.377 . S
C1269 C1270 1.379 . S
C1270 H1254 0.931 . S
C1270 C1264 1.383 . S
C1270 C1269 1.379 . S
H1271 C1265 0.959 . S
H1272 C1265 0.961 . S
H1273 C1265 0.960 . S
H1274 C1266 0.930 . S
H1275 C1267 0.929 . S
H1276 C1284 0.929 . S
H1277 C1286 0.930 . S
H1278 C1288 0.930 . S
H1279 C1291 0.929 . S
H1280 C1294 0.930 . S
H1281 C1296 0.960 . S
H1282 C1296 0.960 . S
H1283 C1296 0.960 . S
C1284 H1276 0.929 . S
C1284 C1285 1.377 . S
C1284 C1286 1.384 . S
C1285 C1284 1.377 . S
C1285 C1291 1.390 . S
C1286 H1277 0.930 . S
C1286 C1284 1.384 . S
C1286 C1287 1.372 . S
C1287 C1286 1.372 . S
C1287 C1288 1.400 . S
C1287 C1292 1.490 . S
C1288 H1278 0.930 . S
C1288 C1287 1.400 . S
C1288 C1291 1.386 . S
H1289 C1305 0.930 . S
H1290 C1306 0.931 . S
C1291 H1279 0.929 . S
C1291 C1285 1.390 . S
C1291 C1288 1.386 . S
C1292 C1287 1.490 . S
C1292 C1294 1.395 . S
C1292 C1295 1.403 . S
H1293 C1299 0.930 . S
C1294 H1280 0.930 . S
C1294 C1292 1.395 . S
C1294 C1297 1.403 . S
C1295 C1292 1.403 . S
C1295 C1296 1.524 . S
C1295 C1299 1.400 . S
C1296 H1281 0.960 . S
C1296 H1282 0.960 . S
C1296 H1283 0.960 . S
C1296 C1295 1.524 . S
C1297 C1294 1.403 . S
C1297 C1298 1.392 . S
C1297 C1301 1.495 . S
C1298 C1297 1.392 . S
C1298 C1299 1.385 . S
C1298 C1300 1.478 . S
C1299 H1293 0.930 . S
C1299 C1295 1.400 . S
C1299 C1298 1.385 . S
C1300 C1298 1.478 . S
C1300 C1302 1.381 . S
C1300 C1306 1.383 . S
C1301 C1297 1.495 . S
C1301 H1307 0.959 . S
C1301 H1308 0.961 1_455 S
C1301 H1309 0.960 . S
C1302 C1300 1.381 . S
C1302 C1303 1.394 . S
C1302 H1310 0.930 . S
C1303 C1302 1.394 . S
C1303 C1304 1.383 . S
C1303 H1311 0.929 . S
C1304 C1303 1.383 . S
C1304 C1305 1.377 . S
C1305 H1289 0.930 . S
C1305 C1304 1.377 . S
C1305 C1306 1.379 . S
C1306 H1290 0.931 . S
C1306 C1300 1.383 . S
C1306 C1305 1.379 . S
H1307 C1301 0.959 . S
H1308 C1301 0.961 1_655 S
H1309 C1301 0.960 . S
H1310 C1302 0.930 . S
H1311 C1303 0.929 . S
H1312 C1320 0.929 . S
H1313 C1322 0.930 . S
H1314 C1324 0.930 . S
H1315 C1327 0.929 . S
H1316 C1330 0.930 . S
H1317 C1332 0.960 . S
H1318 C1332 0.960 . S
H1319 C1332 0.960 . S
C1320 H1312 0.929 . S
C1320 C1321 1.377 . S
C1320 C1322 1.384 . S
C1321 C1320 1.377 . S
C1321 C1327 1.390 . S
C1322 H1313 0.930 . S
C1322 C1320 1.384 . S
C1322 C1323 1.372 . S
C1323 C1322 1.372 . S
C1323 C1324 1.400 . S
C1323 C1328 1.490 . S
C1324 H1314 0.930 . S
C1324 C1323 1.400 . S
C1324 C1327 1.386 . S
H1325 C1341 0.930 . S
H1326 C1342 0.931 . S
C1327 H1315 0.929 . S
C1327 C1321 1.390 . S
C1327 C1324 1.386 . S
C1328 C1323 1.490 . S
C1328 C1330 1.395 . S
C1328 C1331 1.403 . S
H1329 C1335 0.930 . S
C1330 H1316 0.930 . S
C1330 C1328 1.395 . S
C1330 C1333 1.403 . S
C1331 C1328 1.403 . S
C1331 C1332 1.524 . S
C1331 C1335 1.400 . S
C1332 H1317 0.960 . S
C1332 H1318 0.960 . S
C1332 H1319 0.960 . S
C1332 C1331 1.524 . S
C1333 C1330 1.403 . S
C1333 C1334 1.392 . S
C1333 C1337 1.495 . S
C1334 C1333 1.392 . S
C1334 C1335 1.385 . S
C1334 C1336 1.478 . S
C1335 H1329 0.930 . S
C1335 C1331 1.400 . S
C1335 C1334 1.385 . S
C1336 C1334 1.478 . S
C1336 C1338 1.381 . S
C1336 C1342 1.383 . S
C1337 C1333 1.495 . S
C1337 H1343 0.959 . S
C1337 H1344 0.961 . S
C1337 H1345 0.960 . S
C1338 C1336 1.381 . S
C1338 C1339 1.394 . S
C1338 H1346 0.930 . S
C1339 C1338 1.394 . S
C1339 C1340 1.383 . S
C1339 H1347 0.929 . S
C1340 C1339 1.383 . S
C1340 C1341 1.377 . S
C1341 H1325 0.930 . S
C1341 C1340 1.377 . S
C1341 C1342 1.379 . S
C1342 H1326 0.931 . S
C1342 C1336 1.383 . S
C1342 C1341 1.379 . S
H1343 C1337 0.959 . S
H1344 C1337 0.961 . S
H1345 C1337 0.960 . S
H1346 C1338 0.930 . S
H1347 C1339 0.929 . S
H1348 C1356 0.929 . S
H1349 C1358 0.930 1_455 S
H1350 C1360 0.930 . S
H1351 C1363 0.929 . S
H1352 C1366 0.930 . S
H1353 C1368 0.960 . S
H1354 C1368 0.960 . S
H1355 C1368 0.960 . S
C1356 H1348 0.929 . S
C1356 C1357 1.377 . S
C1356 C1358 1.384 . S
C1357 C1356 1.377 . S
C1357 C1363 1.390 . S
C1358 H1349 0.930 1_655 S
C1358 C1356 1.384 . S
C1358 C1359 1.372 . S
C1359 C1358 1.372 . S
C1359 C1360 1.400 . S
C1359 C1364 1.490 . S
C1360 H1350 0.930 . S
C1360 C1359 1.400 . S
C1360 C1363 1.386 . S
H1361 C1377 0.930 . S
H1362 C1378 0.931 . S
C1363 H1351 0.929 . S
C1363 C1357 1.390 . S
C1363 C1360 1.386 . S
C1364 C1359 1.490 . S
C1364 C1366 1.395 . S
C1364 C1367 1.403 . S
H1365 C1371 0.930 . S
C1366 H1352 0.930 . S
C1366 C1364 1.395 . S
C1366 C1369 1.403 . S
C1367 C1364 1.403 . S
C1367 C1368 1.524 . S
C1367 C1371 1.400 . S
C1368 H1353 0.960 . S
C1368 H1354 0.960 . S
C1368 H1355 0.960 . S
C1368 C1367 1.524 . S
C1369 C1366 1.403 . S
C1369 C1370 1.392 . S
C1369 C1373 1.495 . S
C1370 C1369 1.392 . S
C1370 C1371 1.385 . S
C1370 C1372 1.478 . S
C1371 H1365 0.930 . S
C1371 C1367 1.400 . S
C1371 C1370 1.385 . S
C1372 C1370 1.478 . S
C1372 C1374 1.381 1_655 S
C1372 C1378 1.383 . S
C1373 C1369 1.495 . S
C1373 H1379 0.959 . S
C1373 H1380 0.961 . S
C1373 H1381 0.960 1_655 S
C1374 C1372 1.381 1_455 S
C1374 C1375 1.394 . S
C1374 H1382 0.930 . S
C1375 C1374 1.394 . S
C1375 C1376 1.383 1_455 S
C1375 H1383 0.929 . S
C1376 C1375 1.383 1_655 S
C1376 C1377 1.377 . S
C1377 H1361 0.930 . S
C1377 C1376 1.377 . S
C1377 C1378 1.379 . S
C1378 H1362 0.931 . S
C1378 C1372 1.383 . S
C1378 C1377 1.379 . S
H1379 C1373 0.959 . S
H1380 C1373 0.961 . S
H1381 C1373 0.960 1_455 S
H1382 C1374 0.930 . S
H1383 C1375 0.929 . S
H1384 C1392 0.929 . S
H1385 C1394 0.930 . S
H1386 C1396 0.930 . S
H1387 C1399 0.929 . S
H1388 C1402 0.930 . S
H1389 C1404 0.960 . S
H1390 C1404 0.960 . S
H1391 C1404 0.960 . S
C1392 H1384 0.929 . S
C1392 C1393 1.377 . S
C1392 C1394 1.384 . S
C1393 C1392 1.377 . S
C1393 C1399 1.390 . S
C1394 H1385 0.930 . S
C1394 C1392 1.384 . S
C1394 C1395 1.372 . S
C1395 C1394 1.372 . S
C1395 C1396 1.400 . S
C1395 C1400 1.490 . S
C1396 H1386 0.930 . S
C1396 C1395 1.400 . S
C1396 C1399 1.386 . S
H1397 C1413 0.930 . S
H1398 C1414 0.931 . S
C1399 H1387 0.929 . S
C1399 C1393 1.390 . S
C1399 C1396 1.386 . S
C1400 C1395 1.490 . S
C1400 C1402 1.395 . S
C1400 C1403 1.403 . S
H1401 C1407 0.930 . S
C1402 H1388 0.930 . S
C1402 C1400 1.395 . S
C1402 C1405 1.403 . S
C1403 C1400 1.403 . S
C1403 C1404 1.524 . S
C1403 C1407 1.400 . S
C1404 H1389 0.960 . S
C1404 H1390 0.960 . S
C1404 H1391 0.960 . S
C1404 C1403 1.524 . S
C1405 C1402 1.403 . S
C1405 C1406 1.392 . S
C1405 C1409 1.495 . S
C1406 C1405 1.392 . S
C1406 C1407 1.385 . S
C1406 C1408 1.478 . S
C1407 H1401 0.930 . S
C1407 C1403 1.400 . S
C1407 C1406 1.385 . S
C1408 C1406 1.478 . S
C1408 C1410 1.381 . S
C1408 C1414 1.383 . S
C1409 C1405 1.495 . S
C1409 H1415 0.959 . S
C1409 H1416 0.961 . S
C1409 H1417 0.960 . S
C1410 C1408 1.381 . S
C1410 C1411 1.394 . S
C1410 H1418 0.930 . S
C1411 C1410 1.394 . S
C1411 C1412 1.383 . S
C1411 H1419 0.929 . S
C1412 C1411 1.383 . S
C1412 C1413 1.377 . S
C1413 H1397 0.930 . S
C1413 C1412 1.377 . S
C1413 C1414 1.379 . S
C1414 H1398 0.931 . S
C1414 C1408 1.383 . S
C1414 C1413 1.379 . S
H1415 C1409 0.959 . S
H1416 C1409 0.961 . S
H1417 C1409 0.960 . S
H1418 C1410 0.930 . S
H1419 C1411 0.929 . S
H1420 C1428 0.929 . S
H1421 C1430 0.930 . S
H1422 C1432 0.930 . S
H1423 C1435 0.929 . S
H1424 C1438 0.930 . S
H1425 C1440 0.960 . S
H1426 C1440 0.960 . S
H1427 C1440 0.960 . S
C1428 H1420 0.929 . S
C1428 C1429 1.377 . S
C1428 C1430 1.384 . S
C1429 C1428 1.377 . S
C1429 C1435 1.390 . S
C1430 H1421 0.930 . S
C1430 C1428 1.384 . S
C1430 C1431 1.372 . S
C1431 C1430 1.372 . S
C1431 C1432 1.400 . S
C1431 C1436 1.490 . S
C1432 H1422 0.930 . S
C1432 C1431 1.400 . S
C1432 C1435 1.386 . S
H1433 C1449 0.930 . S
H1434 C1450 0.931 . S
C1435 H1423 0.929 . S
C1435 C1429 1.390 . S
C1435 C1432 1.386 . S
C1436 C1431 1.490 . S
C1436 C1438 1.395 . S
C1436 C1439 1.403 . S
H1437 C1443 0.930 . S
C1438 H1424 0.930 . S
C1438 C1436 1.395 . S
C1438 C1441 1.403 . S
C1439 C1436 1.403 . S
C1439 C1440 1.524 . S
C1439 C1443 1.400 . S
C1440 H1425 0.960 . S
C1440 H1426 0.960 . S
C1440 H1427 0.960 . S
C1440 C1439 1.524 . S
C1441 C1438 1.403 . S
C1441 C1442 1.392 . S
C1441 C1445 1.495 . S
C1442 C1441 1.392 . S
C1442 C1443 1.385 . S
C1442 C1444 1.478 . S
C1443 H1437 0.930 . S
C1443 C1439 1.400 . S
C1443 C1442 1.385 . S
C1444 C1442 1.478 . S
C1444 C1446 1.381 . S
C1444 C1450 1.383 . S
C1445 C1441 1.495 . S
C1445 H1451 0.959 . S
C1445 H1452 0.961 . S
C1445 H1453 0.960 . S
C1446 C1444 1.381 . S
C1446 C1447 1.394 . S
C1446 H1454 0.930 . S
C1447 C1446 1.394 . S
C1447 C1448 1.383 . S
C1447 H1455 0.929 . S
C1448 C1447 1.383 . S
C1448 C1449 1.377 . S
C1449 H1433 0.930 . S
C1449 C1448 1.377 . S
C1449 C1450 1.379 . S
C1450 H1434 0.931 . S
C1450 C1444 1.383 . S
C1450 C1449 1.379 . S
H1451 C1445 0.959 . S
H1452 C1445 0.961 . S
H1453 C1445 0.960 . S
H1454 C1446 0.930 . S
H1455 C1447 0.929 . S
H1456 C1464 0.929 . S
H1457 C1466 0.930 . S
H1458 C1468 0.930 . S
H1459 C1471 0.929 1_545 S
H1460 C1474 0.930 . S
H1461 C1476 0.960 . S
H1462 C1476 0.960 . S
H1463 C1476 0.960 . S
C1464 H1456 0.929 . S
C1464 C1465 1.377 . S
C1464 C1466 1.384 . S
C1465 C1464 1.377 . S
C1465 C1471 1.390 . S
C1466 H1457 0.930 . S
C1466 C1464 1.384 . S
C1466 C1467 1.372 . S
C1467 C1466 1.372 . S
C1467 C1468 1.400 . S
C1467 C1472 1.490 . S
C1468 H1458 0.930 . S
C1468 C1467 1.400 . S
C1468 C1471 1.386 . S
H1469 C1485 0.930 . S
H1470 C1486 0.933 1_554 S
C1471 H1459 0.929 1_565 S
C1471 C1465 1.390 . S
C1471 C1468 1.386 . S
C1472 C1467 1.490 . S
C1472 C1474 1.395 . S
C1472 C1475 1.403 . S
H1473 C1479 0.930 . S
C1474 H1460 0.930 . S
C1474 C1472 1.395 . S
C1474 C1477 1.403 . S
C1475 C1472 1.403 . S
C1475 C1476 1.524 . S
C1475 C1479 1.400 . S
C1476 H1461 0.960 . S
C1476 H1462 0.960 . S
C1476 H1463 0.960 . S
C1476 C1475 1.524 . S
C1477 C1474 1.403 . S
C1477 C1478 1.392 . S
C1477 C1481 1.495 . S
C1478 C1477 1.392 . S
C1478 C1479 1.385 . S
C1478 C1480 1.478 . S
C1479 H1473 0.930 . S
C1479 C1475 1.400 . S
C1479 C1478 1.385 . S
C1480 C1478 1.478 . S
C1480 C1482 1.381 . S
C1480 C1486 1.380 . S
C1481 C1477 1.495 . S
C1481 H1487 0.959 . S
C1481 H1488 0.961 . S
C1481 H1489 0.960 . S
C1482 C1480 1.381 . S
C1482 C1483 1.394 . S
C1482 H1490 0.930 . S
C1483 C1482 1.394 . S
C1483 C1484 1.383 . S
C1483 H1491 0.929 . S
C1484 C1483 1.383 . S
C1484 C1485 1.377 1_556 S
C1485 H1469 0.930 . S
C1485 C1484 1.377 1_554 S
C1485 C1486 1.380 1_554 S
C1486 H1470 0.933 1_556 S
C1486 C1480 1.380 . S
C1486 C1485 1.380 1_556 S
H1487 C1481 0.959 . S
H1488 C1481 0.961 . S
H1489 C1481 0.960 . S
H1490 C1482 0.930 . S
H1491 C1483 0.929 . S
H1492 C1500 0.929 . S
H1493 C1502 0.930 . S
H1494 C1504 0.930 . S
H1495 C1507 0.929 . S
H1496 C1510 0.930 . S
H1497 C1512 0.960 . S
H1498 C1512 0.960 . S
H1499 C1512 0.960 . S
C1500 H1492 0.929 . S
C1500 C1501 1.377 . S
C1500 C1502 1.384 . S
C1501 C1500 1.377 . S
C1501 C1507 1.390 . S
C1502 H1493 0.930 . S
C1502 C1500 1.384 . S
C1502 C1503 1.372 . S
C1503 C1502 1.372 . S
C1503 C1504 1.400 . S
C1503 C1508 1.490 . S
C1504 H1494 0.930 . S
C1504 C1503 1.400 . S
C1504 C1507 1.386 . S
H1505 C1521 0.930 . S
H1506 C1522 0.931 . S
C1507 H1495 0.929 . S
C1507 C1501 1.390 . S
C1507 C1504 1.386 . S
C1508 C1503 1.490 . S
C1508 C1510 1.395 . S
C1508 C1511 1.403 . S
H1509 C1515 0.930 . S
C1510 H1496 0.930 . S
C1510 C1508 1.395 . S
C1510 C1513 1.403 . S
C1511 C1508 1.403 . S
C1511 C1512 1.524 . S
C1511 C1515 1.400 . S
C1512 H1497 0.960 . S
C1512 H1498 0.960 . S
C1512 H1499 0.960 . S
C1512 C1511 1.524 . S
C1513 C1510 1.403 . S
C1513 C1514 1.392 . S
C1513 C1517 1.495 . S
C1514 C1513 1.392 . S
C1514 C1515 1.385 . S
C1514 C1516 1.478 . S
C1515 H1509 0.930 . S
C1515 C1511 1.400 . S
C1515 C1514 1.385 . S
C1516 C1514 1.478 . S
C1516 C1518 1.381 . S
C1516 C1522 1.383 . S
C1517 C1513 1.495 . S
C1517 H1523 0.959 . S
C1517 H1524 0.961 . S
C1517 H1525 0.960 . S
C1518 C1516 1.381 . S
C1518 C1519 1.394 . S
C1518 H1526 0.930 . S
C1519 C1518 1.394 . S
C1519 C1520 1.383 . S
C1519 H1527 0.929 . S
C1520 C1519 1.383 . S
C1520 C1521 1.377 . S
C1521 H1505 0.930 . S
C1521 C1520 1.377 . S
C1521 C1522 1.379 . S
C1522 H1506 0.931 . S
C1522 C1516 1.383 . S
C1522 C1521 1.379 . S
H1523 C1517 0.959 . S
H1524 C1517 0.961 . S
H1525 C1517 0.960 . S
H1526 C1518 0.930 . S
H1527 C1519 0.929 . S
H1528 C1536 0.903 1_565 S
H1529 C1538 0.930 . S
H1530 C1540 0.930 . S
H1531 C1543 0.929 . S
H1532 C1546 0.930 . S
H1533 C1548 0.960 . S
H1534 C1548 0.960 . S
H1535 C1548 0.960 . S
C1536 H1528 0.903 1_545 S
C1536 C1537 1.377 . S
C1536 C1538 1.384 . S
C1537 C1536 1.377 . S
C1537 C1543 1.390 . S
C1538 H1529 0.930 . S
C1538 C1536 1.384 . S
C1538 C1539 1.372 . S
C1539 C1538 1.372 . S
C1539 C1540 1.400 . S
C1539 C1544 1.490 . S
C1540 H1530 0.930 . S
C1540 C1539 1.400 . S
C1540 C1543 1.386 . S
H1541 C1557 0.930 . S
H1542 C1558 0.931 . S
C1543 H1531 0.929 . S
C1543 C1537 1.390 . S
C1543 C1540 1.386 . S
C1544 C1539 1.490 . S
C1544 C1546 1.395 . S
C1544 C1547 1.403 . S
H1545 C1551 0.930 . S
C1546 H1532 0.930 . S
C1546 C1544 1.395 . S
C1546 C1549 1.403 . S
C1547 C1544 1.403 . S
C1547 C1548 1.524 . S
C1547 C1551 1.400 . S
C1548 H1533 0.960 . S
C1548 H1534 0.960 . S
C1548 H1535 0.960 . S
C1548 C1547 1.524 . S
C1549 C1546 1.403 . S
C1549 C1550 1.392 . S
C1549 C1553 1.495 . S
C1550 C1549 1.392 . S
C1550 C1551 1.385 . S
C1550 C1552 1.478 . S
C1551 H1545 0.930 . S
C1551 C1547 1.400 . S
C1551 C1550 1.385 . S
C1552 C1550 1.478 . S
C1552 C1554 1.381 . S
C1552 C1558 1.383 . S
C1553 C1549 1.495 . S
C1553 H1559 0.959 . S
C1553 H1560 0.961 . S
C1553 H1561 0.960 . S
C1554 C1552 1.381 . S
C1554 C1555 1.394 . S
C1554 H1562 0.930 . S
C1555 C1554 1.394 . S
C1555 C1556 1.383 . S
C1555 H1563 0.929 . S
C1556 C1555 1.383 . S
C1556 C1557 1.377 . S
C1557 H1541 0.930 . S
C1557 C1556 1.377 . S
C1557 C1558 1.379 . S
C1558 H1542 0.931 . S
C1558 C1552 1.383 . S
C1558 C1557 1.379 . S
H1559 C1553 0.959 . S
H1560 C1553 0.961 . S
H1561 C1553 0.960 . S
H1562 C1554 0.930 . S
H1563 C1555 0.929 . S
H1564 C1572 0.929 . S
H1565 C1574 0.930 . S
H1566 C1576 0.930 . S
H1567 C1579 0.929 . S
H1568 C1582 0.930 . S
H1569 C1584 0.960 . S
H1570 C1584 0.960 . S
H1571 C1584 0.960 . S
C1572 H1564 0.929 . S
C1572 C1573 1.377 . S
C1572 C1574 1.384 . S
C1573 C1572 1.377 . S
C1573 C1579 1.390 . S
C1574 H1565 0.930 . S
C1574 C1572 1.384 . S
C1574 C1575 1.372 . S
C1575 C1574 1.372 . S
C1575 C1576 1.400 . S
C1575 C1580 1.490 . S
C1576 H1566 0.930 . S
C1576 C1575 1.400 . S
C1576 C1579 1.386 . S
H1577 C1593 0.930 . S
H1578 C1594 0.931 . S
C1579 H1567 0.929 . S
C1579 C1573 1.390 . S
C1579 C1576 1.386 . S
C1580 C1575 1.490 . S
C1580 C1582 1.395 . S
C1580 C1583 1.403 . S
H1581 C1587 0.930 . S
C1582 H1568 0.930 . S
C1582 C1580 1.395 . S
C1582 C1585 1.403 . S
C1583 C1580 1.403 . S
C1583 C1584 1.524 . S
C1583 C1587 1.400 . S
C1584 H1569 0.960 . S
C1584 H1570 0.960 . S
C1584 H1571 0.960 . S
C1584 C1583 1.524 . S
C1585 C1582 1.403 . S
C1585 C1586 1.392 . S
C1585 C1589 1.495 . S
C1586 C1585 1.392 . S
C1586 C1587 1.385 . S
C1586 C1588 1.478 . S
C1587 H1581 0.930 . S
C1587 C1583 1.400 . S
C1587 C1586 1.385 . S
C1588 C1586 1.478 . S
C1588 C1590 1.381 . S
C1588 C1594 1.383 . S
C1589 C1585 1.495 . S
C1589 H1595 0.959 . S
C1589 H1596 0.961 . S
C1589 H1597 0.960 . S
C1590 C1588 1.381 . S
C1590 C1591 1.394 . S
C1590 H1598 0.930 . S
C1591 C1590 1.394 . S
C1591 C1592 1.383 . S
C1591 H1599 0.929 . S
C1592 C1591 1.383 . S
C1592 C1593 1.377 . S
C1593 H1577 0.930 . S
C1593 C1592 1.377 . S
C1593 C1594 1.379 . S
C1594 H1578 0.931 . S
C1594 C1588 1.383 . S
C1594 C1593 1.379 . S
H1595 C1589 0.959 . S
H1596 C1589 0.961 . S
H1597 C1589 0.960 . S
H1598 C1590 0.930 . S
H1599 C1591 0.929 . S
H1600 C1608 0.929 . S
H1601 C1610 0.930 . S
H1602 C1612 0.930 . S
H1603 C1615 0.929 . S
H1604 C1618 0.930 . S
H1605 C1620 0.960 . S
H1606 C1620 0.960 . S
H1607 C1620 0.960 . S
C1608 H1600 0.929 . S
C1608 C1609 1.377 . S
C1608 C1610 1.384 . S
C1609 C1608 1.377 . S
C1609 C1615 1.390 . S
C1610 H1601 0.930 . S
C1610 C1608 1.384 . S
C1610 C1611 1.372 . S
C1611 C1610 1.372 . S
C1611 C1612 1.400 . S
C1611 C1616 1.490 . S
C1612 H1602 0.930 . S
C1612 C1611 1.400 . S
C1612 C1615 1.386 . S
H1613 C1629 0.930 . S
H1614 C1630 0.931 . S
C1615 H1603 0.929 . S
C1615 C1609 1.390 . S
C1615 C1612 1.386 . S
C1616 C1611 1.490 . S
C1616 C1618 1.395 . S
C1616 C1619 1.403 . S
H1617 C1623 0.930 . S
C1618 H1604 0.930 . S
C1618 C1616 1.395 . S
C1618 C1621 1.403 . S
C1619 C1616 1.403 . S
C1619 C1620 1.524 . S
C1619 C1623 1.400 . S
C1620 H1605 0.960 . S
C1620 H1606 0.960 . S
C1620 H1607 0.960 . S
C1620 C1619 1.524 . S
C1621 C1618 1.403 . S
C1621 C1622 1.392 . S
C1621 C1625 1.495 . S
C1622 C1621 1.392 . S
C1622 C1623 1.385 . S
C1622 C1624 1.478 . S
C1623 H1617 0.930 . S
C1623 C1619 1.400 . S
C1623 C1622 1.385 . S
C1624 C1622 1.478 . S
C1624 C1626 1.381 . S
C1624 C1630 1.383 . S
C1625 C1621 1.495 . S
C1625 H1631 0.959 . S
C1625 H1632 0.961 . S
C1625 H1633 0.960 . S
C1626 C1624 1.381 . S
C1626 C1627 1.394 . S
C1626 H1634 0.930 . S
C1627 C1626 1.394 . S
C1627 C1628 1.383 . S
C1627 H1635 0.929 . S
C1628 C1627 1.383 . S
C1628 C1629 1.377 . S
C1629 H1613 0.930 . S
C1629 C1628 1.377 . S
C1629 C1630 1.379 . S
C1630 H1614 0.931 . S
C1630 C1624 1.383 . S
C1630 C1629 1.379 . S
H1631 C1625 0.959 . S
H1632 C1625 0.961 . S
H1633 C1625 0.960 . S
H1634 C1626 0.930 . S
H1635 C1627 0.929 . S
H1636 C1644 0.929 . S
H1637 C1646 0.930 . S
H1638 C1648 0.930 . S
H1639 C1651 0.929 . S
H1640 C1654 0.930 . S
H1641 C1656 0.960 . S
H1642 C1656 0.960 . S
H1643 C1656 0.960 . S
C1644 H1636 0.929 . S
C1644 C1645 1.377 . S
C1644 C1646 1.384 . S
C1645 C1644 1.377 . S
C1645 C1651 1.390 . S
C1646 H1637 0.930 . S
C1646 C1644 1.384 . S
C1646 C1647 1.372 . S
C1647 C1646 1.372 . S
C1647 C1648 1.400 . S
C1647 C1652 1.490 . S
C1648 H1638 0.930 . S
C1648 C1647 1.400 . S
C1648 C1651 1.386 . S
H1649 C1665 0.930 . S
H1650 C1666 0.931 . S
C1651 H1639 0.929 . S
C1651 C1645 1.390 . S
C1651 C1648 1.386 . S
C1652 C1647 1.490 . S
C1652 C1654 1.395 . S
C1652 C1655 1.403 . S
H1653 C1659 0.930 . S
C1654 H1640 0.930 . S
C1654 C1652 1.395 . S
C1654 C1657 1.403 . S
C1655 C1652 1.403 . S
C1655 C1656 1.524 . S
C1655 C1659 1.400 . S
C1656 H1641 0.960 . S
C1656 H1642 0.960 . S
C1656 H1643 0.960 . S
C1656 C1655 1.524 . S
C1657 C1654 1.403 . S
C1657 C1658 1.392 . S
C1657 C1661 1.495 . S
C1658 C1657 1.392 . S
C1658 C1659 1.385 . S
C1658 C1660 1.478 . S
C1659 H1653 0.930 . S
C1659 C1655 1.400 . S
C1659 C1658 1.385 . S
C1660 C1658 1.478 . S
C1660 C1662 1.381 . S
C1660 C1666 1.383 . S
C1661 C1657 1.495 . S
C1661 H1667 0.959 . S
C1661 H1668 0.961 . S
C1661 H1669 0.960 . S
C1662 C1660 1.381 . S
C1662 C1663 1.394 . S
C1662 H1670 0.930 . S
C1663 C1662 1.394 . S
C1663 C1664 1.383 . S
C1663 H1671 0.929 . S
C1664 C1663 1.383 . S
C1664 C1665 1.377 . S
C1665 H1649 0.930 . S
C1665 C1664 1.377 . S
C1665 C1666 1.379 . S
C1666 H1650 0.931 . S
C1666 C1660 1.383 . S
C1666 C1665 1.379 . S
H1667 C1661 0.959 . S
H1668 C1661 0.961 . S
H1669 C1661 0.960 . S
H1670 C1662 0.930 . S
H1671 C1663 0.929 . S
H1672 C1680 0.929 . S
H1673 C1682 0.930 . S
H1674 C1684 0.930 . S
H1675 C1687 0.929 . S
H1676 C1690 0.930 . S
H1677 C1692 0.960 . S
H1678 C1692 0.960 . S
H1679 C1692 0.960 . S
C1680 H1672 0.929 . S
C1680 C1681 1.377 . S
C1680 C1682 1.384 . S
C1681 C1680 1.377 . S
C1681 C1687 1.390 . S
C1682 H1673 0.930 . S
C1682 C1680 1.384 . S
C1682 C1683 1.372 . S
C1683 C1682 1.372 . S
C1683 C1684 1.400 . S
C1683 C1688 1.490 . S
C1684 H1674 0.930 . S
C1684 C1683 1.400 . S
C1684 C1687 1.386 . S
H1685 C1701 0.930 . S
H1686 C1702 0.931 . S
C1687 H1675 0.929 . S
C1687 C1681 1.390 . S
C1687 C1684 1.386 . S
C1688 C1683 1.490 . S
C1688 C1690 1.395 . S
C1688 C1691 1.403 . S
H1689 C1695 0.930 . S
C1690 H1676 0.930 . S
C1690 C1688 1.395 . S
C1690 C1693 1.403 . S
C1691 C1688 1.403 . S
C1691 C1692 1.524 . S
C1691 C1695 1.400 . S
C1692 H1677 0.960 . S
C1692 H1678 0.960 . S
C1692 H1679 0.960 . S
C1692 C1691 1.524 . S
C1693 C1690 1.403 . S
C1693 C1694 1.392 . S
C1693 C1697 1.495 . S
C1694 C1693 1.392 . S
C1694 C1695 1.385 . S
C1694 C1696 1.478 . S
C1695 H1689 0.930 . S
C1695 C1691 1.400 . S
C1695 C1694 1.385 . S
C1696 C1694 1.478 . S
C1696 C1698 1.381 . S
C1696 C1702 1.383 . S
C1697 C1693 1.495 . S
C1697 H1703 0.959 . S
C1697 H1704 0.961 . S
C1697 H1705 0.960 . S
C1698 C1696 1.381 . S
C1698 C1699 1.394 . S
C1698 H1706 0.930 . S
C1699 C1698 1.394 . S
C1699 C1700 1.383 . S
C1699 H1707 0.929 . S
C1700 C1699 1.383 . S
C1700 C1701 1.377 . S
C1701 H1685 0.930 . S
C1701 C1700 1.377 . S
C1701 C1702 1.379 . S
C1702 H1686 0.931 . S
C1702 C1696 1.383 . S
C1702 C1701 1.379 . S
H1703 C1697 0.959 . S
H1704 C1697 0.961 . S
H1705 C1697 0.960 . S
H1706 C1698 0.930 . S
H1707 C1699 0.929 . S
H1708 C1716 0.929 . S
H1709 C1718 0.930 . S
H1710 C1720 0.930 . S
H1711 C1723 0.929 . S
H1712 C1726 0.930 . S
H1713 C1728 0.960 . S
H1714 C1728 0.960 . S
H1715 C1728 0.960 . S
C1716 H1708 0.929 . S
C1716 C1717 1.377 . S
C1716 C1718 1.384 . S
C1717 C1716 1.377 . S
C1717 C1723 1.390 . S
C1718 H1709 0.930 . S
C1718 C1716 1.384 . S
C1718 C1719 1.372 . S
C1719 C1718 1.372 . S
C1719 C1720 1.400 . S
C1719 C1724 1.490 . S
C1720 H1710 0.930 . S
C1720 C1719 1.400 . S
C1720 C1723 1.386 . S
H1721 C1737 0.930 . S
H1722 C1738 0.931 . S
C1723 H1711 0.929 . S
C1723 C1717 1.390 . S
C1723 C1720 1.386 . S
C1724 C1719 1.490 . S
C1724 C1726 1.395 . S
C1724 C1727 1.403 . S
H1725 C1731 0.930 . S
C1726 H1712 0.930 . S
C1726 C1724 1.395 . S
C1726 C1729 1.403 . S
C1727 C1724 1.403 . S
C1727 C1728 1.524 . S
C1727 C1731 1.400 . S
C1728 H1713 0.960 . S
C1728 H1714 0.960 . S
C1728 H1715 0.960 . S
C1728 C1727 1.524 . S
C1729 C1726 1.403 . S
C1729 C1730 1.392 . S
C1729 C1733 1.461 1_545 S
C1730 C1729 1.392 . S
C1730 C1731 1.385 . S
C1730 C1732 1.478 . S
C1731 H1725 0.930 . S
C1731 C1727 1.400 . S
C1731 C1730 1.385 . S
C1732 C1730 1.478 . S
C1732 C1734 1.381 . S
C1732 C1738 1.383 . S
C1733 C1729 1.461 1_565 S
C1733 H1739 0.977 . S
C1733 H1740 0.993 . S
C1733 H1741 0.947 1_565 S
C1734 C1732 1.381 . S
C1734 C1735 1.394 . S
C1734 H1742 0.930 . S
C1735 C1734 1.394 . S
C1735 C1736 1.383 . S
C1735 H1743 0.929 . S
C1736 C1735 1.383 . S
C1736 C1737 1.377 . S
C1737 H1721 0.930 . S
C1737 C1736 1.377 . S
C1737 C1738 1.379 . S
C1738 H1722 0.931 . S
C1738 C1732 1.383 . S
C1738 C1737 1.379 . S
H1739 C1733 0.977 . S
H1740 C1733 0.993 . S
H1741 C1733 0.947 1_545 S
H1742 C1734 0.930 . S
H1743 C1735 0.929 . S
H1744 C1752 0.929 . S
H1745 C1754 0.930 . S
H1746 C1756 0.930 . S
H1747 C1759 0.929 . S
H1748 C1762 0.930 . S
H1749 C1764 0.960 . S
H1750 C1764 0.960 . S
H1751 C1764 0.960 . S
C1752 H1744 0.929 . S
C1752 C1753 1.377 . S
C1752 C1754 1.384 . S
C1753 C1752 1.377 . S
C1753 C1759 1.390 . S
C1754 H1745 0.930 . S
C1754 C1752 1.384 . S
C1754 C1755 1.372 . S
C1755 C1754 1.372 . S
C1755 C1756 1.400 . S
C1755 C1760 1.490 . S
C1756 H1746 0.930 . S
C1756 C1755 1.400 . S
C1756 C1759 1.386 . S
H1757 C1773 0.930 . S
H1758 C1774 0.931 . S
C1759 H1747 0.929 . S
C1759 C1753 1.390 . S
C1759 C1756 1.386 . S
C1760 C1755 1.490 . S
C1760 C1762 1.395 . S
C1760 C1763 1.403 . S
H1761 C1767 0.930 . S
C1762 H1748 0.930 . S
C1762 C1760 1.395 . S
C1762 C1765 1.403 . S
C1763 C1760 1.403 . S
C1763 C1764 1.524 . S
C1763 C1767 1.400 . S
C1764 H1749 0.960 . S
C1764 H1750 0.960 . S
C1764 H1751 0.960 . S
C1764 C1763 1.524 . S
C1765 C1762 1.403 . S
C1765 C1766 1.392 . S
C1765 C1769 1.495 . S
C1766 C1765 1.392 . S
C1766 C1767 1.385 . S
C1766 C1768 1.478 . S
C1767 H1761 0.930 . S
C1767 C1763 1.400 . S
C1767 C1766 1.385 . S
C1768 C1766 1.478 . S
C1768 C1770 1.381 . S
C1768 C1774 1.383 . S
C1769 C1765 1.495 . S
C1769 H1775 0.959 . S
C1769 H1776 0.961 . S
C1769 H1777 0.960 . S
C1770 C1768 1.381 . S
C1770 C1771 1.394 . S
C1770 H1778 0.930 . S
C1771 C1770 1.394 . S
C1771 C1772 1.383 . S
C1771 H1779 0.929 . S
C1772 C1771 1.383 . S
C1772 C1773 1.377 . S
C1773 H1757 0.930 . S
C1773 C1772 1.377 . S
C1773 C1774 1.379 . S
C1774 H1758 0.931 . S
C1774 C1768 1.383 . S
C1774 C1773 1.379 . S
H1775 C1769 0.959 . S
H1776 C1769 0.961 . S
H1777 C1769 0.960 . S
H1778 C1770 0.930 . S
H1779 C1771 0.929 . S
H1780 C1788 0.929 . S
H1781 C1790 0.930 . S
H1782 C1792 0.930 . S
H1783 C1795 0.929 . S
H1784 C1798 0.930 . S
H1785 C1800 0.960 . S
H1786 C1800 0.960 . S
H1787 C1800 0.960 . S
C1788 H1780 0.929 . S
C1788 C1789 1.377 . S
C1788 C1790 1.384 . S
C1789 C1788 1.377 . S
C1789 C1795 1.390 . S
C1790 H1781 0.930 . S
C1790 C1788 1.384 . S
C1790 C1791 1.372 . S
C1791 C1790 1.372 . S
C1791 C1792 1.400 . S
C1791 C1796 1.490 . S
C1792 H1782 0.930 . S
C1792 C1791 1.400 . S
C1792 C1795 1.386 . S
H1793 C1809 0.930 . S
H1794 C1810 0.931 . S
C1795 H1783 0.929 . S
C1795 C1789 1.390 . S
C1795 C1792 1.386 . S
C1796 C1791 1.490 . S
C1796 C1798 1.395 . S
C1796 C1799 1.403 . S
H1797 C1803 0.930 . S
C1798 H1784 0.930 . S
C1798 C1796 1.395 . S
C1798 C1801 1.403 . S
C1799 C1796 1.403 . S
C1799 C1800 1.524 . S
C1799 C1803 1.400 . S
C1800 H1785 0.960 . S
C1800 H1786 0.960 . S
C1800 H1787 0.960 . S
C1800 C1799 1.524 . S
C1801 C1798 1.403 . S
C1801 C1802 1.392 . S
C1801 C1805 1.495 . S
C1802 C1801 1.392 . S
C1802 C1803 1.385 . S
C1802 C1804 1.478 . S
C1803 H1797 0.930 . S
C1803 C1799 1.400 . S
C1803 C1802 1.385 . S
C1804 C1802 1.478 . S
C1804 C1806 1.381 . S
C1804 C1810 1.383 . S
C1805 C1801 1.495 . S
C1805 H1811 0.959 . S
C1805 H1812 0.961 . S
C1805 H1813 0.960 . S
C1806 C1804 1.381 . S
C1806 C1807 1.394 . S
C1806 H1814 0.930 . S
C1807 C1806 1.394 . S
C1807 C1808 1.383 . S
C1807 H1815 0.929 . S
C1808 C1807 1.383 . S
C1808 C1809 1.377 . S
C1809 H1793 0.930 . S
C1809 C1808 1.377 . S
C1809 C1810 1.379 . S
C1810 H1794 0.931 . S
C1810 C1804 1.383 . S
C1810 C1809 1.379 . S
H1811 C1805 0.959 . S
H1812 C1805 0.961 . S
H1813 C1805 0.960 . S
H1814 C1806 0.930 . S
H1815 C1807 0.929 . S
H1816 C1824 0.929 . S
H1817 C1826 0.930 . S
H1818 C1828 0.930 . S
H1819 C1831 0.929 . S
H1820 C1834 0.930 . S
H1821 C1836 0.960 . S
H1822 C1836 0.960 . S
H1823 C1836 0.960 . S
C1824 H1816 0.929 . S
C1824 C1825 1.377 . S
C1824 C1826 1.384 . S
C1825 C1824 1.377 . S
C1825 C1831 1.390 . S
C1826 H1817 0.930 . S
C1826 C1824 1.384 . S
C1826 C1827 1.372 . S
C1827 C1826 1.372 . S
C1827 C1828 1.400 . S
C1827 C1832 1.490 . S
C1828 H1818 0.930 . S
C1828 C1827 1.400 . S
C1828 C1831 1.386 . S
H1829 C1845 0.930 . S
H1830 C1846 0.931 . S
C1831 H1819 0.929 . S
C1831 C1825 1.390 . S
C1831 C1828 1.386 . S
C1832 C1827 1.490 . S
C1832 C1834 1.395 . S
C1832 C1835 1.403 . S
H1833 C1839 0.930 . S
C1834 H1820 0.930 . S
C1834 C1832 1.395 . S
C1834 C1837 1.403 . S
C1835 C1832 1.403 . S
C1835 C1836 1.524 . S
C1835 C1839 1.400 . S
C1836 H1821 0.960 . S
C1836 H1822 0.960 . S
C1836 H1823 0.960 . S
C1836 C1835 1.524 . S
C1837 C1834 1.403 . S
C1837 C1838 1.392 . S
C1837 C1841 1.495 . S
C1838 C1837 1.392 . S
C1838 C1839 1.385 . S
C1838 C1840 1.478 . S
C1839 H1833 0.930 . S
C1839 C1835 1.400 . S
C1839 C1838 1.385 . S
C1840 C1838 1.478 . S
C1840 C1842 1.381 . S
C1840 C1846 1.383 . S
C1841 C1837 1.495 . S
C1841 H1847 0.959 . S
C1841 H1848 0.961 . S
C1841 H1849 0.960 . S
C1842 C1840 1.381 . S
C1842 C1843 1.394 . S
C1842 H1850 0.930 . S
C1843 C1842 1.394 . S
C1843 C1844 1.383 . S
C1843 H1851 0.929 . S
C1844 C1843 1.383 . S
C1844 C1845 1.377 . S
C1845 H1829 0.930 . S
C1845 C1844 1.377 . S
C1845 C1846 1.379 . S
C1846 H1830 0.931 . S
C1846 C1840 1.383 . S
C1846 C1845 1.379 . S
H1847 C1841 0.959 . S
H1848 C1841 0.961 . S
H1849 C1841 0.960 . S
H1850 C1842 0.930 . S
H1851 C1843 0.929 . S
H1852 C1860 0.929 . S
H1853 C1862 0.930 . S
H1854 C1864 0.930 . S
H1855 C1867 0.929 . S
H1856 C1870 0.930 . S
H1857 C1872 0.960 . S
H1858 C1872 0.960 . S
H1859 C1872 0.960 . S
C1860 H1852 0.929 . S
C1860 C1861 1.377 . S
C1860 C1862 1.384 . S
C1861 C1860 1.377 . S
C1861 C1867 1.390 . S
C1862 H1853 0.930 . S
C1862 C1860 1.384 . S
C1862 C1863 1.372 . S
C1863 C1862 1.372 . S
C1863 C1864 1.400 . S
C1863 C1868 1.490 . S
C1864 H1854 0.930 . S
C1864 C1863 1.400 . S
C1864 C1867 1.386 . S
H1865 C1881 0.942 . S
H1866 C1882 0.931 1_565 S
C1867 H1855 0.929 . S
C1867 C1861 1.390 . S
C1867 C1864 1.386 . S
C1868 C1863 1.490 . S
C1868 C1870 1.395 . S
C1868 C1871 1.403 . S
H1869 C1875 0.930 . S
C1870 H1856 0.930 . S
C1870 C1868 1.395 . S
C1870 C1873 1.403 . S
C1871 C1868 1.403 . S
C1871 C1872 1.524 . S
C1871 C1875 1.400 . S
C1872 H1857 0.960 . S
C1872 H1858 0.960 . S
C1872 H1859 0.960 . S
C1872 C1871 1.524 . S
C1873 C1870 1.403 . S
C1873 C1874 1.392 . S
C1873 C1877 1.495 . S
C1874 C1873 1.392 . S
C1874 C1875 1.385 . S
C1874 C1876 1.478 . S
C1875 H1869 0.930 . S
C1875 C1871 1.400 . S
C1875 C1874 1.385 . S
C1876 C1874 1.478 . S
C1876 C1878 1.381 . S
C1876 C1882 1.383 . S
C1877 C1873 1.495 . S
C1877 H1883 0.959 . S
C1877 H1884 0.961 . S
C1877 H1885 0.960 . S
C1878 C1876 1.381 . S
C1878 C1879 1.394 . S
C1878 H1886 0.930 . S
C1879 C1878 1.394 . S
C1879 C1880 1.383 . S
C1879 H1887 0.929 . S
C1880 C1879 1.383 . S
C1880 C1881 1.366 1_545 S
C1881 H1865 0.942 . S
C1881 C1880 1.366 1_565 S
C1881 C1882 1.378 1_565 S
C1882 H1866 0.931 1_545 S
C1882 C1876 1.383 . S
C1882 C1881 1.378 1_545 S
H1883 C1877 0.959 . S
H1884 C1877 0.961 . S
H1885 C1877 0.960 . S
H1886 C1878 0.930 . S
H1887 C1879 0.929 . S
H1888 C1896 0.929 . S
H1889 C1898 0.930 . S
H1890 C1900 0.930 . S
H1891 C1903 0.929 . S
H1892 C1906 0.930 . S
H1893 C1908 0.960 . S
H1894 C1908 0.960 . S
H1895 C1908 0.960 . S
C1896 H1888 0.929 . S
C1896 C1897 1.377 . S
C1896 C1898 1.384 . S
C1897 C1896 1.377 . S
C1897 C1903 1.390 . S
C1898 H1889 0.930 . S
C1898 C1896 1.384 . S
C1898 C1899 1.372 . S
C1899 C1898 1.372 . S
C1899 C1900 1.400 . S
C1899 C1904 1.490 . S
C1900 H1890 0.930 . S
C1900 C1899 1.400 . S
C1900 C1903 1.386 . S
H1901 C1917 0.930 . S
H1902 C1918 0.931 . S
C1903 H1891 0.929 . S
C1903 C1897 1.390 . S
C1903 C1900 1.386 . S
C1904 C1899 1.490 . S
C1904 C1906 1.395 . S
C1904 C1907 1.403 . S
H1905 C1911 0.930 . S
C1906 H1892 0.930 . S
C1906 C1904 1.395 . S
C1906 C1909 1.403 . S
C1907 C1904 1.403 . S
C1907 C1908 1.524 . S
C1907 C1911 1.400 . S
C1908 H1893 0.960 . S
C1908 H1894 0.960 . S
C1908 H1895 0.960 . S
C1908 C1907 1.524 . S
C1909 C1906 1.403 . S
C1909 C1910 1.392 . S
C1909 C1913 1.495 . S
C1910 C1909 1.392 . S
C1910 C1911 1.385 . S
C1910 C1912 1.478 . S
C1911 H1905 0.930 . S
C1911 C1907 1.400 . S
C1911 C1910 1.385 . S
C1912 C1910 1.478 . S
C1912 C1914 1.381 . S
C1912 C1918 1.383 . S
C1913 C1909 1.495 . S
C1913 H1919 0.959 . S
C1913 H1920 0.961 . S
C1913 H1921 0.960 . S
C1914 C1912 1.381 . S
C1914 C1915 1.394 . S
C1914 H1922 0.930 . S
C1915 C1914 1.394 . S
C1915 C1916 1.383 . S
C1915 H1923 0.929 . S
C1916 C1915 1.383 . S
C1916 C1917 1.377 . S
C1917 H1901 0.930 . S
C1917 C1916 1.377 . S
C1917 C1918 1.379 . S
C1918 H1902 0.931 . S
C1918 C1912 1.383 . S
C1918 C1917 1.379 . S
H1919 C1913 0.959 . S
H1920 C1913 0.961 . S
H1921 C1913 0.960 . S
H1922 C1914 0.930 . S
H1923 C1915 0.929 . S
H1924 C1932 0.929 1_655 S
H1925 C1934 0.930 . S
H1926 C1936 0.930 . S
H1927 C1939 0.929 . S
H1928 C1942 0.930 . S
H1929 C1944 0.960 . S
H1930 C1944 0.960 . S
H1931 C1944 0.960 . S
C1932 H1924 0.929 1_455 S
C1932 C1933 1.377 . S
C1932 C1934 1.384 . S
C1933 C1932 1.377 . S
C1933 C1939 1.390 . S
C1934 H1925 0.930 . S
C1934 C1932 1.384 . S
C1934 C1935 1.372 . S
C1935 C1934 1.372 . S
C1935 C1936 1.400 . S
C1935 C1940 1.490 . S
C1936 H1926 0.930 . S
C1936 C1935 1.400 . S
C1936 C1939 1.386 . S
H1937 C1953 0.930 . S
H1938 C1954 0.931 . S
C1939 H1927 0.929 . S
C1939 C1933 1.390 . S
C1939 C1936 1.386 . S
C1940 C1935 1.490 . S
C1940 C1942 1.395 . S
C1940 C1943 1.403 . S
H1941 C1947 0.930 . S
C1942 H1928 0.930 . S
C1942 C1940 1.395 . S
C1942 C1945 1.403 . S
C1943 C1940 1.403 . S
C1943 C1944 1.524 . S
C1943 C1947 1.400 . S
C1944 H1929 0.960 . S
C1944 H1930 0.960 . S
C1944 H1931 0.960 . S
C1944 C1943 1.524 . S
C1945 C1942 1.403 . S
C1945 C1946 1.392 . S
C1945 C1949 1.495 . S
C1946 C1945 1.392 . S
C1946 C1947 1.385 . S
C1946 C1948 1.478 . S
C1947 H1941 0.930 . S
C1947 C1943 1.400 . S
C1947 C1946 1.385 . S
C1948 C1946 1.478 . S
C1948 C1950 1.381 . S
C1948 C1954 1.383 . S
C1949 C1945 1.495 . S
C1949 H1955 0.959 . S
C1949 H1956 0.961 . S
C1949 H1957 0.960 . S
C1950 C1948 1.381 . S
C1950 C1951 1.394 . S
C1950 H1958 0.930 . S
C1951 C1950 1.394 . S
C1951 C1952 1.383 . S
C1951 H1959 0.929 . S
C1952 C1951 1.383 . S
C1952 C1953 1.377 . S
C1953 H1937 0.930 . S
C1953 C1952 1.377 . S
C1953 C1954 1.379 . S
C1954 H1938 0.931 . S
C1954 C1948 1.383 . S
C1954 C1953 1.379 . S
H1955 C1949 0.959 . S
H1956 C1949 0.961 . S
H1957 C1949 0.960 . S
H1958 C1950 0.930 . S
H1959 C1951 0.929 . S
H1960 C1968 0.929 . S
H1961 C1970 0.930 . S
H1962 C1972 0.930 . S
H1963 C1975 0.929 . S
H1964 C1978 0.930 . S
H1965 C1980 0.960 . S
H1966 C1980 0.960 . S
H1967 C1980 0.960 . S
C1968 H1960 0.929 . S
C1968 C1969 1.377 . S
C1968 C1970 1.384 . S
C1969 C1968 1.377 . S
C1969 C1975 1.390 . S
C1970 H1961 0.930 . S
C1970 C1968 1.384 . S
C1970 C1971 1.372 . S
C1971 C1970 1.372 . S
C1971 C1972 1.400 . S
C1971 C1976 1.490 . S
C1972 H1962 0.930 . S
C1972 C1971 1.400 . S
C1972 C1975 1.386 . S
H1973 C1989 0.930 . S
H1974 C1990 0.931 . S
C1975 H1963 0.929 . S
C1975 C1969 1.390 . S
C1975 C1972 1.386 . S
C1976 C1971 1.490 . S
C1976 C1978 1.395 . S
C1976 C1979 1.403 . S
H1977 C1983 0.930 . S
C1978 H1964 0.930 . S
C1978 C1976 1.395 . S
C1978 C1981 1.403 . S
C1979 C1976 1.403 . S
C1979 C1980 1.524 . S
C1979 C1983 1.400 . S
C1980 H1965 0.960 . S
C1980 H1966 0.960 . S
C1980 H1967 0.960 . S
C1980 C1979 1.524 . S
C1981 C1978 1.403 . S
C1981 C1982 1.392 . S
C1981 C1985 1.495 . S
C1982 C1981 1.392 . S
C1982 C1983 1.385 . S
C1982 C1984 1.478 . S
C1983 H1977 0.930 . S
C1983 C1979 1.400 . S
C1983 C1982 1.385 . S
C1984 C1982 1.478 . S
C1984 C1986 1.381 . S
C1984 C1990 1.383 . S
C1985 C1981 1.495 . S
C1985 H1991 0.959 . S
C1985 H1992 0.961 . S
C1985 H1993 0.960 . S
C1986 C1984 1.381 . S
C1986 C1987 1.394 . S
C1986 H1994 0.930 . S
C1987 C1986 1.394 . S
C1987 C1988 1.383 . S
C1987 H1995 0.929 . S
C1988 C1987 1.383 . S
C1988 C1989 1.377 . S
C1989 H1973 0.930 . S
C1989 C1988 1.377 . S
C1989 C1990 1.379 . S
C1990 H1974 0.931 . S
C1990 C1984 1.383 . S
C1990 C1989 1.379 . S
H1991 C1985 0.959 . S
H1992 C1985 0.961 . S
H1993 C1985 0.960 . S
H1994 C1986 0.930 . S
H1995 C1987 0.929 . S
H1996 C2004 0.929 1_554 S
H1997 C2006 0.930 . S
H1998 C2008 0.930 . S
H1999 C2011 0.929 . S
H2000 C2014 0.930 . S
H2001 C2016 0.960 . S
H2002 C2016 0.960 . S
H2003 C2016 0.960 . S
C2004 H1996 0.929 1_556 S
C2004 C2005 1.377 . S
C2004 C2006 1.384 . S
C2005 C2004 1.377 . S
C2005 C2011 1.390 . S
C2006 H1997 0.930 . S
C2006 C2004 1.384 . S
C2006 C2007 1.372 . S
C2007 C2006 1.372 . S
C2007 C2008 1.400 . S
C2007 C2012 1.490 . S
C2008 H1998 0.930 . S
C2008 C2007 1.400 . S
C2008 C2011 1.386 . S
H2009 C2025 0.930 . S
H2010 C2026 0.931 . S
C2011 H1999 0.929 . S
C2011 C2005 1.390 . S
C2011 C2008 1.386 . S
C2012 C2007 1.490 . S
C2012 C2014 1.395 . S
C2012 C2015 1.403 . S
H2013 C2019 0.930 . S
C2014 H2000 0.930 . S
C2014 C2012 1.395 . S
C2014 C2017 1.403 . S
C2015 C2012 1.403 . S
C2015 C2016 1.524 . S
C2015 C2019 1.400 . S
C2016 H2001 0.960 . S
C2016 H2002 0.960 . S
C2016 H2003 0.960 . S
C2016 C2015 1.524 . S
C2017 C2014 1.403 . S
C2017 C2018 1.392 . S
C2017 C2021 1.495 . S
C2018 C2017 1.392 . S
C2018 C2019 1.385 . S
C2018 C2020 1.478 . S
C2019 H2013 0.930 . S
C2019 C2015 1.400 . S
C2019 C2018 1.385 . S
C2020 C2018 1.478 . S
C2020 C2022 1.387 . S
C2020 C2026 1.383 . S
C2021 C2017 1.495 . S
C2021 H2027 0.959 . S
C2021 H2028 0.961 . S
C2021 H2029 0.960 . S
C2022 C2020 1.387 . S
C2022 C2023 1.393 1_655 S
C2022 H2030 0.926 1_655 S
C2023 C2022 1.393 1_455 S
C2023 C2024 1.383 1_455 S
C2023 H2031 0.929 . S
C2024 C2023 1.383 1_655 S
C2024 C2025 1.377 . S
C2025 H2009 0.930 . S
C2025 C2024 1.377 . S
C2025 C2026 1.379 . S
C2026 H2010 0.931 . S
C2026 C2020 1.383 . S
C2026 C2025 1.379 . S
H2027 C2021 0.959 . S
H2028 C2021 0.961 . S
H2029 C2021 0.960 . S
H2030 C2022 0.926 1_455 S
H2031 C2023 0.929 . S
H2032 C2040 0.929 . S
H2033 C2042 0.930 . S
H2034 C2044 0.930 . S
H2035 C2047 0.929 . S
H2036 C2050 0.930 . S
H2037 C2052 0.960 . S
H2038 C2052 0.960 . S
H2039 C2052 0.960 . S
C2040 H2032 0.929 . S
C2040 C2041 1.377 . S
C2040 C2042 1.384 . S
C2041 C2040 1.377 . S
C2041 C2047 1.390 . S
C2042 H2033 0.930 . S
C2042 C2040 1.384 . S
C2042 C2043 1.372 . S
C2043 C2042 1.372 . S
C2043 C2044 1.400 . S
C2043 C2048 1.490 . S
C2044 H2034 0.930 . S
C2044 C2043 1.400 . S
C2044 C2047 1.386 . S
H2045 C2061 0.930 . S
H2046 C2062 0.931 . S
C2047 H2035 0.929 . S
C2047 C2041 1.390 . S
C2047 C2044 1.386 . S
C2048 C2043 1.490 . S
C2048 C2050 1.395 . S
C2048 C2051 1.403 . S
H2049 C2055 0.930 . S
C2050 H2036 0.930 . S
C2050 C2048 1.395 . S
C2050 C2053 1.403 . S
C2051 C2048 1.403 . S
C2051 C2052 1.524 . S
C2051 C2055 1.400 . S
C2052 H2037 0.960 . S
C2052 H2038 0.960 . S
C2052 H2039 0.960 . S
C2052 C2051 1.524 . S
C2053 C2050 1.403 . S
C2053 C2054 1.392 . S
C2053 C2057 1.495 . S
C2054 C2053 1.392 . S
C2054 C2055 1.385 . S
C2054 C2056 1.478 . S
C2055 H2049 0.930 . S
C2055 C2051 1.400 . S
C2055 C2054 1.385 . S
C2056 C2054 1.478 . S
C2056 C2058 1.381 . S
C2056 C2062 1.383 . S
C2057 C2053 1.495 . S
C2057 H2063 0.959 . S
C2057 H2064 0.961 . S
C2057 H2065 0.960 . S
C2058 C2056 1.381 . S
C2058 C2059 1.394 . S
C2058 H2066 0.930 . S
C2059 C2058 1.394 . S
C2059 C2060 1.383 . S
C2059 H2067 0.929 . S
C2060 C2059 1.383 . S
C2060 C2061 1.377 . S
C2061 H2045 0.930 . S
C2061 C2060 1.377 . S
C2061 C2062 1.379 . S
C2062 H2046 0.931 . S
C2062 C2056 1.383 . S
C2062 C2061 1.379 . S
H2063 C2057 0.959 . S
H2064 C2057 0.961 . S
H2065 C2057 0.960 . S
H2066 C2058 0.930 . S
H2067 C2059 0.929 . S
H2068 C2076 0.929 . S
H2069 C2078 0.930 . S
H2070 C2080 0.930 . S
H2071 C2083 0.929 . S
H2072 C2086 0.930 . S
H2073 C2088 0.960 . S
H2074 C2088 0.960 . S
H2075 C2088 0.960 . S
C2076 H2068 0.929 . S
C2076 C2077 1.377 . S
C2076 C2078 1.384 . S
C2077 C2076 1.377 . S
C2077 C2083 1.390 . S
C2078 H2069 0.930 . S
C2078 C2076 1.384 . S
C2078 C2079 1.372 . S
C2079 C2078 1.372 . S
C2079 C2080 1.400 . S
C2079 C2084 1.490 . S
C2080 H2070 0.930 . S
C2080 C2079 1.400 . S
C2080 C2083 1.386 . S
H2081 C2097 0.930 1_655 S
H2082 C2098 0.931 1_655 S
C2083 H2071 0.929 . S
C2083 C2077 1.390 . S
C2083 C2080 1.386 . S
C2084 C2079 1.490 . S
C2084 C2086 1.395 . S
C2084 C2087 1.403 . S
H2085 C2091 0.930 . S
C2086 H2072 0.930 . S
C2086 C2084 1.395 . S
C2086 C2089 1.403 . S
C2087 C2084 1.403 . S
C2087 C2088 1.524 . S
C2087 C2091 1.400 . S
C2088 H2073 0.960 . S
C2088 H2074 0.960 . S
C2088 H2075 0.960 . S
C2088 C2087 1.524 . S
C2089 C2086 1.403 . S
C2089 C2090 1.392 . S
C2089 C2093 1.495 . S
C2090 C2089 1.392 . S
C2090 C2091 1.385 . S
C2090 C2092 1.478 . S
C2091 H2085 0.930 . S
C2091 C2087 1.400 . S
C2091 C2090 1.385 . S
C2092 C2090 1.478 . S
C2092 C2094 1.381 . S
C2092 C2098 1.383 . S
C2093 C2089 1.495 . S
C2093 H2099 0.959 . S
C2093 H2100 0.954 . S
C2093 H2101 0.960 . S
C2094 C2092 1.381 . S
C2094 C2095 1.394 . S
C2094 H2102 0.930 . S
C2095 C2094 1.394 . S
C2095 C2096 1.383 . S
C2095 H2103 0.929 . S
C2096 C2095 1.383 . S
C2096 C2097 1.377 . S
C2097 H2081 0.930 1_455 S
C2097 C2096 1.377 . S
C2097 C2098 1.379 . S
C2098 H2082 0.931 1_455 S
C2098 C2092 1.383 . S
C2098 C2097 1.379 . S
H2099 C2093 0.959 . S
H2100 C2093 0.954 . S
H2101 C2093 0.960 . S
H2102 C2094 0.930 . S
H2103 C2095 0.929 . S
H2104 C2112 0.929 . S
H2105 C2114 0.930 . S
H2106 C2116 0.930 . S
H2107 C2119 0.929 . S
H2108 C2122 0.930 . S
H2109 C2124 0.960 . S
H2110 C2124 0.960 . S
H2111 C2124 0.960 . S
C2112 H2104 0.929 . S
C2112 C2113 1.377 . S
C2112 C2114 1.384 . S
C2113 C2112 1.377 . S
C2113 C2119 1.390 . S
C2114 H2105 0.930 . S
C2114 C2112 1.384 . S
C2114 C2115 1.372 . S
C2115 C2114 1.372 . S
C2115 C2116 1.400 . S
C2115 C2120 1.490 . S
C2116 H2106 0.930 . S
C2116 C2115 1.400 . S
C2116 C2119 1.386 . S
H2117 C2133 0.930 . S
H2118 C2134 0.931 . S
C2119 H2107 0.929 . S
C2119 C2113 1.390 . S
C2119 C2116 1.386 . S
C2120 C2115 1.490 . S
C2120 C2122 1.395 . S
C2120 C2123 1.403 . S
H2121 C2127 0.930 . S
C2122 H2108 0.930 . S
C2122 C2120 1.395 . S
C2122 C2125 1.403 . S
C2123 C2120 1.403 . S
C2123 C2124 1.524 . S
C2123 C2127 1.400 . S
C2124 H2109 0.960 . S
C2124 H2110 0.960 . S
C2124 H2111 0.960 . S
C2124 C2123 1.524 . S
C2125 C2122 1.403 . S
C2125 C2126 1.392 . S
C2125 C2129 1.495 . S
C2126 C2125 1.392 . S
C2126 C2127 1.385 . S
C2126 C2128 1.478 . S
C2127 H2121 0.930 . S
C2127 C2123 1.400 . S
C2127 C2126 1.385 . S
C2128 C2126 1.478 . S
C2128 C2130 1.381 . S
C2128 C2134 1.383 . S
C2129 C2125 1.495 . S
C2129 H2135 0.959 . S
C2129 H2136 0.961 . S
C2129 H2137 0.960 . S
C2130 C2128 1.381 . S
C2130 C2131 1.394 . S
C2130 H2138 0.930 . S
C2131 C2130 1.394 . S
C2131 C2132 1.383 . S
C2131 H2139 0.929 . S
C2132 C2131 1.383 . S
C2132 C2133 1.377 . S
C2133 H2117 0.930 . S
C2133 C2132 1.377 . S
C2133 C2134 1.379 . S
C2134 H2118 0.931 . S
C2134 C2128 1.383 . S
C2134 C2133 1.379 . S
H2135 C2129 0.959 . S
H2136 C2129 0.961 . S
H2137 C2129 0.960 . S
H2138 C2130 0.930 . S
H2139 C2131 0.929 . S
H2140 C2148 0.929 . S
H2141 C2150 0.930 . S
H2142 C2152 0.930 . S
H2143 C2155 0.929 . S
H2144 C2158 0.930 . S
H2145 C2160 0.960 . S
H2146 C2160 0.960 . S
H2147 C2160 0.960 . S
C2148 H2140 0.929 . S
C2148 C2149 1.377 . S
C2148 C2150 1.384 . S
C2149 C2148 1.377 . S
C2149 C2155 1.390 . S
C2150 H2141 0.930 . S
C2150 C2148 1.384 . S
C2150 C2151 1.372 . S
C2151 C2150 1.372 . S
C2151 C2152 1.400 . S
C2151 C2156 1.490 . S
C2152 H2142 0.930 . S
C2152 C2151 1.400 . S
C2152 C2155 1.386 . S
H2153 C2169 0.930 . S
H2154 C2170 0.931 . S
C2155 H2143 0.929 . S
C2155 C2149 1.390 . S
C2155 C2152 1.386 . S
C2156 C2151 1.490 . S
C2156 C2158 1.395 . S
C2156 C2159 1.403 . S
H2157 C2163 0.930 . S
C2158 H2144 0.930 . S
C2158 C2156 1.395 . S
C2158 C2161 1.403 . S
C2159 C2156 1.403 . S
C2159 C2160 1.524 . S
C2159 C2163 1.400 . S
C2160 H2145 0.960 . S
C2160 H2146 0.960 . S
C2160 H2147 0.960 . S
C2160 C2159 1.524 . S
C2161 C2158 1.403 . S
C2161 C2162 1.392 . S
C2161 C2165 1.495 . S
C2162 C2161 1.392 . S
C2162 C2163 1.385 . S
C2162 C2164 1.478 . S
C2163 H2157 0.930 . S
C2163 C2159 1.400 . S
C2163 C2162 1.385 . S
C2164 C2162 1.478 . S
C2164 C2166 1.381 . S
C2164 C2170 1.383 . S
C2165 C2161 1.495 . S
C2165 H2171 0.959 . S
C2165 H2172 0.961 . S
C2165 H2173 0.960 . S
C2166 C2164 1.381 . S
C2166 C2167 1.394 . S
C2166 H2174 0.930 . S
C2167 C2166 1.394 . S
C2167 C2168 1.383 . S
C2167 H2175 0.929 . S
C2168 C2167 1.383 . S
C2168 C2169 1.377 . S
C2169 H2153 0.930 . S
C2169 C2168 1.377 . S
C2169 C2170 1.379 . S
C2170 H2154 0.931 . S
C2170 C2164 1.383 . S
C2170 C2169 1.379 . S
H2171 C2165 0.959 . S
H2172 C2165 0.961 . S
H2173 C2165 0.960 . S
H2174 C2166 0.930 . S
H2175 C2167 0.929 . S
H2176 C2184 0.929 . S
H2177 C2186 0.930 . S
H2178 C2188 0.930 . S
H2179 C2191 0.929 . S
H2180 C2194 0.930 . S
H2181 C2196 0.960 . S
H2182 C2196 0.960 . S
H2183 C2196 0.960 . S
C2184 H2176 0.929 . S
C2184 C2185 1.377 . S
C2184 C2186 1.384 . S
C2185 C2184 1.377 . S
C2185 C2191 1.390 . S
C2186 H2177 0.930 . S
C2186 C2184 1.384 . S
C2186 C2187 1.372 . S
C2187 C2186 1.372 . S
C2187 C2188 1.400 . S
C2187 C2192 1.490 . S
C2188 H2178 0.930 . S
C2188 C2187 1.400 . S
C2188 C2191 1.386 . S
H2189 C2205 0.930 . S
H2190 C2206 0.931 . S
C2191 H2179 0.929 . S
C2191 C2185 1.390 . S
C2191 C2188 1.386 . S
C2192 C2187 1.490 . S
C2192 C2194 1.395 . S
C2192 C2195 1.403 . S
H2193 C2199 0.930 . S
C2194 H2180 0.930 . S
C2194 C2192 1.395 . S
C2194 C2197 1.403 . S
C2195 C2192 1.403 . S
C2195 C2196 1.524 . S
C2195 C2199 1.400 . S
C2196 H2181 0.960 . S
C2196 H2182 0.960 . S
C2196 H2183 0.960 . S
C2196 C2195 1.524 . S
C2197 C2194 1.403 . S
C2197 C2198 1.392 . S
C2197 C2201 1.495 . S
C2198 C2197 1.392 . S
C2198 C2199 1.385 . S
C2198 C2200 1.478 . S
C2199 H2193 0.930 . S
C2199 C2195 1.400 . S
C2199 C2198 1.385 . S
C2200 C2198 1.478 . S
C2200 C2202 1.381 . S
C2200 C2206 1.383 . S
C2201 C2197 1.495 . S
C2201 H2207 0.959 . S
C2201 H2208 0.961 . S
C2201 H2209 0.960 . S
C2202 C2200 1.381 . S
C2202 C2203 1.394 . S
C2202 H2210 0.930 . S
C2203 C2202 1.394 . S
C2203 C2204 1.383 . S
C2203 H2211 0.929 . S
C2204 C2203 1.383 . S
C2204 C2205 1.377 . S
C2205 H2189 0.930 . S
C2205 C2204 1.377 . S
C2205 C2206 1.379 . S
C2206 H2190 0.931 . S
C2206 C2200 1.383 . S
C2206 C2205 1.379 . S
H2207 C2201 0.959 . S
H2208 C2201 0.961 . S
H2209 C2201 0.960 . S
H2210 C2202 0.930 . S
H2211 C2203 0.929 . S
H2212 C2220 0.929 . S
H2213 C2222 0.930 . S
H2214 C2224 0.930 . S
H2215 C2227 0.929 . S
H2216 C2230 0.930 . S
H2217 C2232 0.960 . S
H2218 C2232 0.960 . S
H2219 C2232 0.960 . S
C2220 H2212 0.929 . S
C2220 C2221 1.377 . S
C2220 C2222 1.384 . S
C2221 C2220 1.377 . S
C2221 C2227 1.390 . S
C2222 H2213 0.930 . S
C2222 C2220 1.384 . S
C2222 C2223 1.372 . S
C2223 C2222 1.372 . S
C2223 C2224 1.400 . S
C2223 C2228 1.490 . S
C2224 H2214 0.930 . S
C2224 C2223 1.400 . S
C2224 C2227 1.386 . S
H2225 C2241 0.930 . S
H2226 C2242 0.931 . S
C2227 H2215 0.929 . S
C2227 C2221 1.390 . S
C2227 C2224 1.386 . S
C2228 C2223 1.490 . S
C2228 C2230 1.395 . S
C2228 C2231 1.403 . S
H2229 C2235 0.930 . S
C2230 H2216 0.930 . S
C2230 C2228 1.395 . S
C2230 C2233 1.403 . S
C2231 C2228 1.403 . S
C2231 C2232 1.524 . S
C2231 C2235 1.400 . S
C2232 H2217 0.960 . S
C2232 H2218 0.960 . S
C2232 H2219 0.960 . S
C2232 C2231 1.524 . S
C2233 C2230 1.403 . S
C2233 C2234 1.392 . S
C2233 C2237 1.495 . S
C2234 C2233 1.392 . S
C2234 C2235 1.385 . S
C2234 C2236 1.478 . S
C2235 H2229 0.930 . S
C2235 C2231 1.400 . S
C2235 C2234 1.385 . S
C2236 C2234 1.478 . S
C2236 C2238 1.381 . S
C2236 C2242 1.383 . S
C2237 C2233 1.495 . S
C2237 H2243 0.959 . S
C2237 H2244 0.961 . S
C2237 H2245 0.960 . S
C2238 C2236 1.381 . S
C2238 C2239 1.394 . S
C2238 H2246 0.930 . S
C2239 C2238 1.394 . S
C2239 C2240 1.383 . S
C2239 H2247 0.929 . S
C2240 C2239 1.383 . S
C2240 C2241 1.377 . S
C2241 H2225 0.930 . S
C2241 C2240 1.377 . S
C2241 C2242 1.379 . S
C2242 H2226 0.931 . S
C2242 C2236 1.383 . S
C2242 C2241 1.379 . S
H2243 C2237 0.959 . S
H2244 C2237 0.961 . S
H2245 C2237 0.960 . S
H2246 C2238 0.930 . S
H2247 C2239 0.929 . S
H2248 C2256 0.929 . S
H2249 C2258 0.930 . S
H2250 C2260 0.930 . S
H2251 C2263 0.929 . S
H2252 C2266 0.930 . S
H2253 C2268 0.960 . S
H2254 C2268 0.960 . S
H2255 C2268 0.960 . S
C2256 H2248 0.929 . S
C2256 C2257 1.377 . S
C2256 C2258 1.384 . S
C2257 C2256 1.377 . S
C2257 C2263 1.390 . S
C2258 H2249 0.930 . S
C2258 C2256 1.384 . S
C2258 C2259 1.372 . S
C2259 C2258 1.372 . S
C2259 C2260 1.400 . S
C2259 C2264 1.490 . S
C2260 H2250 0.930 . S
C2260 C2259 1.400 . S
C2260 C2263 1.386 . S
H2261 C2277 0.930 . S
H2262 C2278 0.931 . S
C2263 H2251 0.929 . S
C2263 C2257 1.390 . S
C2263 C2260 1.386 . S
C2264 C2259 1.490 . S
C2264 C2266 1.395 . S
C2264 C2267 1.403 . S
H2265 C2271 0.930 . S
C2266 H2252 0.930 . S
C2266 C2264 1.395 . S
C2266 C2269 1.403 . S
C2267 C2264 1.403 . S
C2267 C2268 1.524 . S
C2267 C2271 1.400 . S
C2268 H2253 0.960 . S
C2268 H2254 0.960 . S
C2268 H2255 0.960 . S
C2268 C2267 1.524 . S
C2269 C2266 1.403 . S
C2269 C2270 1.392 . S
C2269 C2273 1.495 . S
C2270 C2269 1.392 . S
C2270 C2271 1.385 . S
C2270 C2272 1.478 . S
C2271 H2265 0.930 . S
C2271 C2267 1.400 . S
C2271 C2270 1.385 . S
C2272 C2270 1.478 . S
C2272 C2274 1.381 . S
C2272 C2278 1.383 . S
C2273 C2269 1.495 . S
C2273 H2279 0.959 . S
C2273 H2280 0.961 . S
C2273 H2281 0.960 . S
C2274 C2272 1.381 . S
C2274 C2275 1.394 . S
C2274 H2282 0.930 . S
C2275 C2274 1.394 . S
C2275 C2276 1.383 . S
C2275 H2283 0.929 . S
C2276 C2275 1.383 . S
C2276 C2277 1.377 . S
C2277 H2261 0.930 . S
C2277 C2276 1.377 . S
C2277 C2278 1.379 . S
C2278 H2262 0.931 . S
C2278 C2272 1.383 . S
C2278 C2277 1.379 . S
H2279 C2273 0.959 . S
H2280 C2273 0.961 . S
H2281 C2273 0.960 . S
H2282 C2274 0.930 . S
H2283 C2275 0.929 . S
H2284 C2292 0.929 . S
H2285 C2294 0.930 . S
H2286 C2296 0.930 . S
H2287 C2299 0.929 . S
H2288 C2302 0.930 . S
H2289 C2304 0.960 . S
H2290 C2304 0.960 . S
H2291 C2304 0.960 . S
C2292 H2284 0.929 . S
C2292 C2293 1.377 . S
C2292 C2294 1.384 . S
C2293 C2292 1.377 . S
C2293 C2299 1.390 . S
C2294 H2285 0.930 . S
C2294 C2292 1.384 . S
C2294 C2295 1.372 . S
C2295 C2294 1.372 . S
C2295 C2296 1.400 . S
C2295 C2300 1.490 . S
C2296 H2286 0.930 . S
C2296 C2295 1.400 . S
C2296 C2299 1.386 . S
H2297 C2313 0.930 . S
H2298 C2314 0.931 . S
C2299 H2287 0.929 . S
C2299 C2293 1.390 . S
C2299 C2296 1.386 . S
C2300 C2295 1.490 . S
C2300 C2302 1.395 . S
C2300 C2303 1.403 . S
H2301 C2307 0.930 . S
C2302 H2288 0.930 . S
C2302 C2300 1.395 . S
C2302 C2305 1.403 . S
C2303 C2300 1.403 . S
C2303 C2304 1.524 . S
C2303 C2307 1.400 . S
C2304 H2289 0.960 . S
C2304 H2290 0.960 . S
C2304 H2291 0.960 . S
C2304 C2303 1.524 . S
C2305 C2302 1.403 . S
C2305 C2306 1.392 . S
C2305 C2309 1.495 . S
C2306 C2305 1.392 . S
C2306 C2307 1.385 . S
C2306 C2308 1.478 . S
C2307 H2301 0.930 . S
C2307 C2303 1.400 . S
C2307 C2306 1.385 . S
C2308 C2306 1.478 . S
C2308 C2310 1.381 . S
C2308 C2314 1.383 . S
C2309 C2305 1.495 . S
C2309 H2315 0.959 . S
C2309 H2316 0.961 . S
C2309 H2317 0.960 . S
C2310 C2308 1.381 . S
C2310 C2311 1.394 . S
C2310 H2318 0.930 . S
C2311 C2310 1.394 . S
C2311 C2312 1.383 . S
C2311 H2319 0.929 . S
C2312 C2311 1.383 . S
C2312 C2313 1.377 . S
C2313 H2297 0.930 . S
C2313 C2312 1.377 . S
C2313 C2314 1.379 . S
C2314 H2298 0.931 . S
C2314 C2308 1.383 . S
C2314 C2313 1.379 . S
H2315 C2309 0.959 . S
H2316 C2309 0.961 . S
H2317 C2309 0.960 . S
H2318 C2310 0.930 . S
H2319 C2311 0.929 . S
H2320 C2328 0.929 . S
H2321 C2330 0.930 . S
H2322 C2332 0.930 . S
H2323 C2335 0.929 . S
H2324 C2338 0.930 . S
H2325 C2340 0.960 . S
H2326 C2340 0.960 . S
H2327 C2340 0.960 . S
C2328 H2320 0.929 . S
C2328 C2329 1.377 . S
C2328 C2330 1.384 . S
C2329 C2328 1.377 . S
C2329 C2335 1.390 . S
C2330 H2321 0.930 . S
C2330 C2328 1.384 . S
C2330 C2331 1.372 . S
C2331 C2330 1.372 . S
C2331 C2332 1.400 . S
C2331 C2336 1.490 . S
C2332 H2322 0.930 . S
C2332 C2331 1.400 . S
C2332 C2335 1.386 . S
H2333 C2349 0.930 . S
H2334 C2350 0.931 . S
C2335 H2323 0.929 . S
C2335 C2329 1.390 . S
C2335 C2332 1.386 . S
C2336 C2331 1.490 . S
C2336 C2338 1.395 . S
C2336 C2339 1.403 . S
H2337 C2343 0.930 . S
C2338 H2324 0.930 . S
C2338 C2336 1.395 . S
C2338 C2341 1.403 . S
C2339 C2336 1.403 . S
C2339 C2340 1.524 . S
C2339 C2343 1.400 . S
C2340 H2325 0.960 . S
C2340 H2326 0.960 . S
C2340 H2327 0.960 . S
C2340 C2339 1.524 . S
C2341 C2338 1.403 . S
C2341 C2342 1.392 . S
C2341 C2345 1.495 . S
C2342 C2341 1.392 . S
C2342 C2343 1.385 . S
C2342 C2344 1.478 . S
C2343 H2337 0.930 . S
C2343 C2339 1.400 . S
C2343 C2342 1.385 . S
C2344 C2342 1.478 . S
C2344 C2346 1.381 . S
C2344 C2350 1.383 . S
C2345 C2341 1.495 . S
C2345 H2351 0.959 . S
C2345 H2352 0.961 . S
C2345 H2353 0.960 . S
C2346 C2344 1.381 . S
C2346 C2347 1.394 . S
C2346 H2354 0.930 . S
C2347 C2346 1.394 . S
C2347 C2348 1.383 . S
C2347 H2355 0.929 . S
C2348 C2347 1.383 . S
C2348 C2349 1.377 . S
C2349 H2333 0.930 . S
C2349 C2348 1.377 . S
C2349 C2350 1.379 . S
C2350 H2334 0.931 . S
C2350 C2344 1.383 . S
C2350 C2349 1.379 . S
H2351 C2345 0.959 . S
H2352 C2345 0.961 . S
H2353 C2345 0.960 . S
H2354 C2346 0.930 . S
H2355 C2347 0.929 . S
H2356 C2364 0.929 . S
H2357 C2366 0.930 . S
H2358 C2368 0.930 . S
H2359 C2371 0.929 . S
H2360 C2374 0.930 . S
H2361 C2376 0.960 . S
H2362 C2376 0.960 . S
H2363 C2376 0.960 . S
C2364 H2356 0.929 . S
C2364 C2365 1.377 . S
C2364 C2366 1.384 . S
C2365 C2364 1.377 . S
C2365 C2371 1.390 . S
C2366 H2357 0.930 . S
C2366 C2364 1.384 . S
C2366 C2367 1.372 . S
C2367 C2366 1.372 . S
C2367 C2368 1.400 . S
C2367 C2372 1.490 . S
C2368 H2358 0.930 . S
C2368 C2367 1.400 . S
C2368 C2371 1.386 . S
H2369 C2385 0.930 . S
H2370 C2386 0.931 . S
C2371 H2359 0.929 . S
C2371 C2365 1.390 . S
C2371 C2368 1.386 . S
C2372 C2367 1.490 . S
C2372 C2374 1.395 . S
C2372 C2375 1.403 . S
H2373 C2379 0.930 . S
C2374 H2360 0.930 . S
C2374 C2372 1.395 . S
C2374 C2377 1.403 . S
C2375 C2372 1.403 . S
C2375 C2376 1.524 . S
C2375 C2379 1.400 . S
C2376 H2361 0.960 . S
C2376 H2362 0.960 . S
C2376 H2363 0.960 . S
C2376 C2375 1.524 . S
C2377 C2374 1.403 . S
C2377 C2378 1.392 . S
C2377 C2381 1.495 . S
C2378 C2377 1.392 . S
C2378 C2379 1.385 . S
C2378 C2380 1.478 . S
C2379 H2373 0.930 . S
C2379 C2375 1.400 . S
C2379 C2378 1.385 . S
C2380 C2378 1.478 . S
C2380 C2382 1.381 . S
C2380 C2386 1.383 . S
C2381 C2377 1.495 . S
C2381 H2387 0.959 . S
C2381 H2388 0.961 . S
C2381 H2389 0.960 . S
C2382 C2380 1.381 . S
C2382 C2383 1.394 . S
C2382 H2390 0.930 . S
C2383 C2382 1.394 . S
C2383 C2384 1.383 . S
C2383 H2391 0.929 . S
C2384 C2383 1.383 . S
C2384 C2385 1.377 . S
C2385 H2369 0.930 . S
C2385 C2384 1.377 . S
C2385 C2386 1.379 . S
C2386 H2370 0.931 . S
C2386 C2380 1.383 . S
C2386 C2385 1.379 . S
H2387 C2381 0.959 . S
H2388 C2381 0.961 . S
H2389 C2381 0.960 . S
H2390 C2382 0.930 . S
H2391 C2383 0.929 . S
H2392 C2400 0.929 . S
H2393 C2402 0.930 . S
H2394 C2404 0.930 . S
H2395 C2407 0.929 . S
H2396 C2410 0.930 . S
H2397 C2412 0.960 1_554 S
H2398 C2412 0.960 1_554 S
H2399 C2412 0.960 . S
C2400 H2392 0.929 . S
C2400 C2401 1.377 . S
C2400 C2402 1.384 . S
C2401 C2400 1.377 . S
C2401 C2407 1.390 . S
C2402 H2393 0.930 . S
C2402 C2400 1.384 . S
C2402 C2403 1.372 . S
C2403 C2402 1.372 . S
C2403 C2404 1.400 . S
C2403 C2408 1.490 . S
C2404 H2394 0.930 . S
C2404 C2403 1.400 . S
C2404 C2407 1.386 . S
H2405 C2421 0.930 . S
H2406 C2422 0.931 . S
C2407 H2395 0.929 . S
C2407 C2401 1.390 . S
C2407 C2404 1.386 . S
C2408 C2403 1.490 . S
C2408 C2410 1.395 . S
C2408 C2411 1.403 . S
H2409 C2415 0.930 . S
C2410 H2396 0.930 . S
C2410 C2408 1.395 . S
C2410 C2413 1.403 . S
C2411 C2408 1.403 . S
C2411 C2412 1.524 . S
C2411 C2415 1.400 . S
C2412 H2397 0.960 1_556 S
C2412 H2398 0.960 1_556 S
C2412 H2399 0.960 . S
C2412 C2411 1.524 . S
C2413 C2410 1.403 . S
C2413 C2414 1.392 . S
C2413 C2417 1.495 . S
C2414 C2413 1.392 . S
C2414 C2415 1.385 . S
C2414 C2416 1.478 . S
C2415 H2409 0.930 . S
C2415 C2411 1.400 . S
C2415 C2414 1.385 . S
C2416 C2414 1.478 . S
C2416 C2418 1.381 . S
C2416 C2422 1.383 . S
C2417 C2413 1.495 . S
C2417 H2423 0.959 . S
C2417 H2424 0.961 . S
C2417 H2425 0.960 . S
C2418 C2416 1.381 . S
C2418 C2419 1.394 . S
C2418 H2426 0.930 . S
C2419 C2418 1.394 . S
C2419 C2420 1.383 . S
C2419 H2427 0.929 1_556 S
C2420 C2419 1.383 . S
C2420 C2421 1.377 . S
C2421 H2405 0.930 . S
C2421 C2420 1.377 . S
C2421 C2422 1.379 . S
C2422 H2406 0.931 . S
C2422 C2416 1.383 . S
C2422 C2421 1.379 . S
H2423 C2417 0.959 . S
H2424 C2417 0.961 . S
H2425 C2417 0.960 . S
H2426 C2418 0.930 . S
H2427 C2419 0.929 1_554 S
H2428 C2436 0.929 . S
H2429 C2438 0.930 . S
H2430 C2440 0.930 . S
H2431 C2443 0.929 . S
H2432 C2446 0.930 . S
H2433 C2448 0.960 . S
H2434 C2448 0.960 . S
H2435 C2448 0.960 . S
C2436 H2428 0.929 . S
C2436 C2437 1.377 . S
C2436 C2438 1.384 . S
C2437 C2436 1.377 . S
C2437 C2443 1.390 . S
C2438 H2429 0.930 . S
C2438 C2436 1.384 . S
C2438 C2439 1.372 . S
C2439 C2438 1.372 . S
C2439 C2440 1.400 . S
C2439 C2444 1.490 . S
C2440 H2430 0.930 . S
C2440 C2439 1.400 . S
C2440 C2443 1.386 . S
H2441 C2457 0.930 . S
H2442 C2458 0.931 . S
C2443 H2431 0.929 . S
C2443 C2437 1.390 . S
C2443 C2440 1.386 . S
C2444 C2439 1.490 . S
C2444 C2446 1.395 . S
C2444 C2447 1.403 . S
H2445 C2451 0.930 . S
C2446 H2432 0.930 . S
C2446 C2444 1.395 . S
C2446 C2449 1.403 . S
C2447 C2444 1.403 . S
C2447 C2448 1.524 . S
C2447 C2451 1.400 . S
C2448 H2433 0.960 . S
C2448 H2434 0.960 . S
C2448 H2435 0.960 . S
C2448 C2447 1.524 . S
C2449 C2446 1.403 . S
C2449 C2450 1.392 . S
C2449 C2453 1.495 . S
C2450 C2449 1.392 . S
C2450 C2451 1.385 . S
C2450 C2452 1.478 . S
C2451 H2445 0.930 . S
C2451 C2447 1.400 . S
C2451 C2450 1.385 . S
C2452 C2450 1.478 . S
C2452 C2454 1.381 . S
C2452 C2458 1.383 . S
C2453 C2449 1.495 . S
C2453 H2459 0.959 . S
C2453 H2460 0.961 . S
C2453 H2461 0.960 . S
C2454 C2452 1.381 . S
C2454 C2455 1.394 . S
C2454 H2462 0.930 . S
C2455 C2454 1.394 . S
C2455 C2456 1.383 . S
C2455 H2463 0.929 . S
C2456 C2455 1.383 . S
C2456 C2457 1.377 . S
C2457 H2441 0.930 . S
C2457 C2456 1.377 . S
C2457 C2458 1.379 . S
C2458 H2442 0.931 . S
C2458 C2452 1.383 . S
C2458 C2457 1.379 . S
H2459 C2453 0.959 . S
H2460 C2453 0.961 . S
H2461 C2453 0.960 . S
H2462 C2454 0.930 . S
H2463 C2455 0.929 . S
H2464 C2472 0.929 . S
H2465 C2474 0.930 . S
H2466 C2476 0.930 . S
H2467 C2479 0.929 . S
H2468 C2482 0.930 . S
H2469 C2484 0.960 1_556 S
H2470 C2484 0.960 . S
H2471 C2484 0.960 1_556 S
C2472 H2464 0.929 . S
C2472 C2473 1.377 . S
C2472 C2474 1.384 . S
C2473 C2472 1.377 . S
C2473 C2479 1.390 . S
C2474 H2465 0.930 . S
C2474 C2472 1.384 . S
C2474 C2475 1.372 . S
C2475 C2474 1.372 . S
C2475 C2476 1.400 . S
C2475 C2480 1.490 . S
C2476 H2466 0.930 . S
C2476 C2475 1.400 . S
C2476 C2479 1.386 . S
H2477 C2493 0.930 1_556 S
H2478 C2494 0.931 . S
C2479 H2467 0.929 . S
C2479 C2473 1.390 . S
C2479 C2476 1.386 . S
C2480 C2475 1.490 . S
C2480 C2482 1.395 . S
C2480 C2483 1.403 . S
H2481 C2487 0.930 . S
C2482 H2468 0.930 . S
C2482 C2480 1.395 . S
C2482 C2485 1.403 . S
C2483 C2480 1.403 . S
C2483 C2484 1.524 . S
C2483 C2487 1.400 . S
C2484 H2469 0.960 1_554 S
C2484 H2470 0.960 . S
C2484 H2471 0.960 1_554 S
C2484 C2483 1.524 . S
C2485 C2482 1.403 . S
C2485 C2486 1.392 . S
C2485 C2489 1.495 . S
C2486 C2485 1.392 . S
C2486 C2487 1.385 . S
C2486 C2488 1.478 . S
C2487 H2481 0.930 . S
C2487 C2483 1.400 . S
C2487 C2486 1.385 . S
C2488 C2486 1.478 . S
C2488 C2490 1.381 . S
C2488 C2494 1.383 . S
C2489 C2485 1.495 . S
C2489 H2495 0.959 . S
C2489 H2496 0.961 . S
C2489 H2497 0.960 . S
C2490 C2488 1.381 . S
C2490 C2491 1.394 . S
C2490 H2498 0.930 . S
C2491 C2490 1.394 . S
C2491 C2492 1.383 . S
C2491 H2499 0.929 . S
C2492 C2491 1.383 . S
C2492 C2493 1.377 . S
C2493 H2477 0.930 1_554 S
C2493 C2492 1.377 . S
C2493 C2494 1.379 . S
C2494 H2478 0.931 . S
C2494 C2488 1.383 . S
C2494 C2493 1.379 . S
H2495 C2489 0.959 . S
H2496 C2489 0.961 . S
H2497 C2489 0.960 . S
H2498 C2490 0.930 . S
H2499 C2491 0.929 . S
H2500 C2508 0.929 . S
H2501 C2510 0.930 . S
H2502 C2512 0.930 . S
H2503 C2515 0.929 . S
H2504 C2518 0.930 . S
H2505 C2520 0.919 1_556 S
H2506 C2520 0.996 . S
H2507 C2520 0.927 1_556 S
C2508 H2500 0.929 . S
C2508 C2509 1.377 . S
C2508 C2510 1.384 . S
C2509 C2508 1.377 . S
C2509 C2515 1.390 . S
C2510 H2501 0.930 . S
C2510 C2508 1.384 . S
C2510 C2511 1.372 . S
C2511 C2510 1.372 . S
C2511 C2512 1.400 . S
C2511 C2516 1.490 . S
C2512 H2502 0.930 . S
C2512 C2511 1.400 . S
C2512 C2515 1.386 . S
H2513 C2529 0.930 1_556 S
H2514 C2530 0.931 1_556 S
C2515 H2503 0.929 . S
C2515 C2509 1.390 . S
C2515 C2512 1.386 . S
C2516 C2511 1.490 . S
C2516 C2518 1.395 . S
C2516 C2519 1.403 . S
H2517 C2523 0.930 . S
C2518 H2504 0.930 . S
C2518 C2516 1.395 . S
C2518 C2521 1.403 . S
C2519 C2516 1.403 . S
C2519 C2520 1.569 . S
C2519 C2523 1.400 . S
C2520 H2505 0.919 1_554 S
C2520 H2506 0.996 . S
C2520 H2507 0.927 1_554 S
C2520 C2519 1.569 . S
C2521 C2518 1.403 . S
C2521 C2522 1.392 . S
C2521 C2525 1.495 . S
C2522 C2521 1.392 . S
C2522 C2523 1.385 . S
C2522 C2524 1.478 . S
C2523 H2517 0.930 . S
C2523 C2519 1.400 . S
C2523 C2522 1.385 . S
C2524 C2522 1.478 . S
C2524 C2526 1.381 . S
C2524 C2530 1.383 . S
C2525 C2521 1.495 . S
C2525 H2531 0.959 . S
C2525 H2532 0.961 . S
C2525 H2533 0.960 . S
C2526 C2524 1.381 . S
C2526 C2527 1.394 . S
C2526 H2534 0.930 . S
C2527 C2526 1.394 . S
C2527 C2528 1.383 . S
C2527 H2535 0.929 . S
C2528 C2527 1.383 . S
C2528 C2529 1.377 . S
C2529 H2513 0.930 1_554 S
C2529 C2528 1.377 . S
C2529 C2530 1.379 . S
C2530 H2514 0.931 1_554 S
C2530 C2524 1.383 . S
C2530 C2529 1.379 . S
H2531 C2525 0.959 . S
H2532 C2525 0.961 . S
H2533 C2525 0.960 . S
H2534 C2526 0.930 . S
H2535 C2527 0.929 . S
C836 C648 1.490 . S
C817 C202 1.500 . S
C872 C661 1.475 . S
C853 C261 1.474 . S
C889 C282 1.698 . S
C908 C681 1.610 . S
C944 C695 1.317 . S
C925 C162 1.410 1_655 S
C980 C707 1.512 . S
C961 C402 1.500 . S
C1016 C721 1.398 . S
C997 C482 1.399 . S
C1033 C442 1.481 . S
C1052 C731 1.475 . S
C1088 C746 1.537 . S
C1069 C381 1.544 . S
C1105 C461 1.559 . S
C1124 C760 1.556 . S
C1160 C779 1.354 . S
C1141 C362 1.372 . S
C1177 C415 1.446 . S
C1196 C759 1.439 . S
C1232 C777 1.422 . S
C1213 C495 1.427 . S
C1249 C301 1.743 . S
C1268 C793 1.612 . S
C1285 C175 1.503 . S
C1304 C787 1.487 . S
C1321 C215 1.487 . S
C1340 C791 1.486 . S
C1357 C242 1.491 . S
C1376 C788 1.485 . S
C1393 C141 1.557 . S
C1412 C690 1.545 . S
C1429 C581 1.528 . S
C1448 C689 1.519 . S
C1484 C653 1.268 . S
C1465 C615 1.375 1_565 S
C1520 C667 1.527 . S
C1501 C335 1.676 . S
C1537 C181 1.572 1_545 S
C1556 C704 1.555 . S
C1592 C749 1.503 . S
C1573 C455 1.510 . S
C1628 C703 1.409 . S
C1609 C375 1.419 . S
C1664 C735 1.452 . S
C1645 C501 1.460 . S
C1700 C732 1.498 . S
C1681 C562 1.498 . S
C1717 C621 1.475 . S
C1736 C745 1.476 . S
C1753 C322 1.695 . S
C1772 C709 1.546 . S
C1808 C723 1.323 . S
C1789 C522 1.411 . S
C1825 C122 1.502 . S
C1844 C679 1.496 . S
C1880 C693 1.399 . S
C1861 C2 1.399 . S
C1916 C647 1.480 . S
C1897 C42 1.482 . S
C1952 C662 1.511 . S
C1933 C101 1.520 1_455 S
C1969 C61 1.559 . S
C1988 C774 1.556 . S
C2005 C82 1.373 1_556 S
C2024 C765 1.355 . S
C2041 C135 1.445 . S
C2060 C773 1.434 . S
C2077 C15 1.427 . S
C2096 C763 1.418 . S
C2132 C807 1.592 . S
C2113 C341 1.743 . S
C2168 C801 1.488 . S
C2149 C535 1.503 . S
C2204 C805 1.471 . S
C2185 C575 1.486 . S
C2221 C602 1.461 1_554 S
C2240 C802 1.495 . S
C2257 C421 1.555 . S
C2276 C718 1.526 . S
C2312 C717 1.512 . S
C2293 C221 1.530 . S
C2348 C737 1.334 . S
C2329 C255 1.372 . S
C2384 C751 1.534 . S
C2365 C295 1.675 . S
C2401 C541 1.590 . S
C2420 C676 1.560 . S
C2456 C665 1.494 . S
C2437 C55 1.510 . S
C2473 C95 1.421 . S
C2492 C675 1.422 . S
C2528 C651 1.452 . S
C2509 C21 1.460 . S
