# Generated by pormake.
# Topology zzz, (3,6)-cn, num edge types: 1
# Building blocks:
#     Node 0, Type 0, BuildingBlock: OLANEW_clean_sbu_2, # of connection points: 3
#     Node 1, Type 0, BuildingBlock: OLANEW_clean_sbu_2, # of connection points: 3
#     Node 2, Type 0, BuildingBlock: OLANEW_clean_sbu_2, # of connection points: 3
#     Node 3, Type 0, BuildingBlock: OLANEW_clean_sbu_2, # of connection points: 3
#     Node 4, Type 0, BuildingBlock: OLANEW_clean_sbu_2, # of connection points: 3
#     Node 5, Type 0, BuildingBlock: OLANEW_clean_sbu_2, # of connection points: 3
#     Node 6, Type 0, BuildingBlock: OLANEW_clean_sbu_2, # of connection points: 3
#     Node 7, Type 0, BuildingBlock: OLANEW_clean_sbu_2, # of connection points: 3
#     Node 8, Type 1, BuildingBlock: CUWYAW_clean_sbu_0, # of connection points: 6
#     Node 9, Type 1, BuildingBlock: CUWYAW_clean_sbu_0, # of connection points: 6
#     Node 10, Type 1, BuildingBlock: CUWYAW_clean_sbu_0, # of connection points: 6
#     Node 11, Type 1, BuildingBlock: CUWYAW_clean_sbu_0, # of connection points: 6
#     Edge 12, Type (0, 1), None
#     Edge 13, Type (0, 1), None
#     Edge 14, Type (0, 1), None
#     Edge 15, Type (0, 1), None
#     Edge 16, Type (0, 1), None
#     Edge 17, Type (0, 1), None
#     Edge 18, Type (0, 1), None
#     Edge 19, Type (0, 1), None
#     Edge 20, Type (0, 1), None
#     Edge 21, Type (0, 1), None
#     Edge 22, Type (0, 1), None
#     Edge 23, Type (0, 1), None
#     Edge 24, Type (0, 1), None
#     Edge 25, Type (0, 1), None
#     Edge 26, Type (0, 1), None
#     Edge 27, Type (0, 1), None
#     Edge 28, Type (0, 1), None
#     Edge 29, Type (0, 1), None
#     Edge 30, Type (0, 1), None
#     Edge 31, Type (0, 1), None
#     Edge 32, Type (0, 1), None
#     Edge 33, Type (0, 1), None
#     Edge 34, Type (0, 1), None
#     Edge 35, Type (0, 1), None
# Relax obj value: 0.461
# Max RMSD: 0.220
# Mean RMSD: 0.145
data_MOF--net-zzz--node1-OLANEW_clean_sbu_2--node2-CUWYAW_clean_sbu_0--edge1-none
_symmetry_space_group_name_H-M    P1
_symmetry_Int_Tables_number       1
_symmetry_cell_setting            triclinic
loop_
_symmetry_equiv_pos_as_xyz
'x, y, z'
_cell_length_a     27.212813
_cell_length_b     27.261032
_cell_length_c     8.8166402
_cell_angle_alpha  88.827436
_cell_angle_beta   89.395811
_cell_angle_gamma 89.80018
loop_
_atom_site_label
_atom_site_type_symbol
_atom_site_fract_x
_atom_site_fract_y
_atom_site_fract_z
_atom_type_partial_charge
O0 O 0.70581 0.45343 0.29727 0.0
Cd1 Cd 0.64221 0.49617 0.4361 0.0
O2 O 0.72158 0.42291 0.5188 0.0
Cd3 Cd 0.77533 0.43357 0.68771 0.0
O4 O 0.82803 0.49314 0.64467 0.0
C5 C 0.85668 0.49899 0.75355 0.0
O6 O 0.84596 0.47352 0.87844 0.0
C7 C 0.73433 0.42861 0.38066 0.0
C8 C 0.57835 0.48725 0.13983 0.0
O9 O 0.58921 0.52093 0.23056 0.0
O10 O 0.58913 0.52103 0.23036 0.0
O11 O 0.03008 0.70067 0.3068 0.0
Cd12 Cd 0.99549 0.62457 0.4061 0.0
O13 O 0.06469 0.71347 0.52241 0.0
Cd14 Cd 0.07015 0.76854 0.6878 0.0
O15 O 0.0198 0.83055 0.76202 0.0
C16 C 0.99084 0.85721 0.67919 0.0
O17 O 0.01988 0.83084 0.76594 0.0
C18 C 0.05652 0.72755 0.38716 0.0
C19 C 0.99486 0.57955 0.13314 0.0
O20 O 0.95778 0.60457 0.17774 0.0
O21 O 0.02987 0.57087 0.2254 0.0
O22 O 0.80598 0.02551 0.31804 0.0
Cd23 Cd 0.88414 0.99817 0.41557 0.0
O24 O 0.79152 0.06599 0.52301 0.0
Cd25 Cd 0.73499 0.07298 0.68919 0.0
O26 O 0.67851 0.01643 0.77102 0.0
C27 C 0.65314 0.9877 0.68751 0.0
O28 O 0.67818 0.01634 0.77568 0.0
C29 C 0.77802 0.05335 0.39239 0.0
C30 C 0.92921 0.99967 0.13709 0.0
O31 O 0.90758 0.96087 0.18671 0.0
O32 O 0.93424 0.03565 0.22529 0.0
O33 O 0.4581 0.79992 0.31179 0.0
Cd34 Cd 0.48719 0.86926 0.44841 0.0
O35 O 0.4203 0.78358 0.52251 0.0
Cd36 Cd 0.43595 0.73189 0.6977 0.0
O37 O 0.49891 0.6828 0.65796 0.0
C38 C 0.49982 0.65047 0.76136 0.0
O39 O 0.46957 0.65819 0.87642 0.0
C40 C 0.4315 0.77088 0.38885 0.0
C41 C 0.48254 0.93373 0.14609 0.0
O42 O 0.5155 0.9178 0.23487 0.0
O43 O 0.51561 0.91785 0.23464 0.0
O44 O 0.30846 0.5569 0.29383 0.0
Cd45 Cd 0.3703 0.49946 0.19951 0.0
O46 O 0.28079 0.50489 0.13767 0.0
Cd47 Cd 0.23868 0.46632 0.97577 0.0
O48 O 0.18692 0.497 0.8194 0.0
C49 C 0.15221 0.46712 0.8032 0.0
O50 O 0.15651 0.43338 0.69989 0.0
C51 C 0.27293 0.54276 0.21648 0.0
C52 C 0.42563 0.49994 0.45101 0.0
O53 O 0.40496 0.53884 0.4018 0.0
O54 O 0.42637 0.46191 0.36892 0.0
O55 O 0.97797 0.31162 0.31879 0.0
Cd56 Cd 0.02716 0.37532 0.19985 0.0
O57 O 0.02266 0.28495 0.13636 0.0
Cd58 Cd 0.0551 0.24456 0.95354 0.0
O59 O 0.02576 0.18467 0.83377 0.0
C60 C 0.05612 0.14994 0.81985 0.0
O61 O 0.09856 0.15792 0.7521 0.0
C62 C 0.98699 0.27772 0.22893 0.0
C63 C 0.01698 0.42743 0.45342 0.0
O64 O 0.9802 0.40675 0.39489 0.0
O65 O 0.05764 0.42966 0.37955 0.0
O66 O 0.19938 0.97608 0.30513 0.0
Cd67 Cd 0.13331 0.02203 0.18701 0.0
O68 O 0.22587 0.02387 0.12724 0.0
Cd69 Cd 0.26627 0.05822 0.9465 0.0
O70 O 0.32572 0.02889 0.82188 0.0
C71 C 0.35998 0.0599 0.81197 0.0
O72 O 0.3536 0.09964 0.7283 0.0
C73 C 0.23425 0.98818 0.21858 0.0
C74 C 0.0802 0.01066 0.44334 0.0
O75 O 0.09654 0.97373 0.37277 0.0
O76 O 0.08283 0.05336 0.38059 0.0
O77 O 0.55959 0.20156 0.28436 0.0
Cd78 Cd 0.50652 0.13757 0.18355 0.0
O79 O 0.50574 0.22845 0.12926 0.0
Cd80 Cd 0.46391 0.26869 0.96851 0.0
O81 O 0.49271 0.3217 0.81401 0.0
C82 C 0.46161 0.35592 0.80224 0.0
O83 O 0.43231 0.35541 0.68522 0.0
C84 C 0.54246 0.23765 0.21165 0.0
C85 C 0.50876 0.08215 0.44115 0.0
O86 O 0.5475 0.10071 0.3832 0.0
O87 O 0.4687 0.0845 0.36682 0.0
C88 C 0.93982 0.09101 0.47292 0.0
Eu89 Eu 0.96142 0.02786 0.69055 0.0
C90 C 0.94072 0.13938 0.38884 0.0
C91 C 0.90967 0.1798 0.41783 0.0
C92 C 0.91962 0.22563 0.34621 0.0
C93 C 0.96051 0.23068 0.24633 0.0
C94 C 0.98374 0.18857 0.19576 0.0
C95 C 0.97523 0.144 0.26945 0.0
C96 C 0.94091 0.00606 -0.02296 0.0
C97 C 0.0396 0.10033 0.84749 0.0
C98 C 0.06884 0.9245 0.12179 0.0
Eu99 Eu 0.05285 0.98694 0.89777 0.0
C100 C 0.06829 0.87308 0.18864 0.0
C101 C 0.10945 0.84136 0.18838 0.0
C102 C 0.10705 0.79463 0.26118 0.0
C103 C 0.06373 0.77914 0.33658 0.0
C104 C 0.02364 0.81118 0.34136 0.0
C105 C 0.0259 0.85733 0.26939 0.0
C106 C 0.07195 0.00554 0.60494 0.0
C107 C 0.99054 0.91029 0.70242 0.0
O108 O 0.98264 0.07007 0.49353 0.0
O109 O 0.90613 0.07641 0.57216 0.0
O110 O 0.90676 0.00683 0.87251 0.0
O111 O 0.98112 0.02411 0.92869 0.0
O112 O 0.99331 0.0914 0.81522 0.0
O113 O 0.06986 0.06706 0.90749 0.0
O114 O 0.02602 0.94327 0.08617 0.0
O115 O 0.10534 0.9427 0.0383 0.0
O116 O 0.10754 0.99837 0.70276 0.0
O117 O 0.03172 0.99272 0.66317 0.0
O118 O 0.03088 0.92309 0.77056 0.0
O119 O 0.95772 0.94327 0.64768 0.0
H120 H 0.88057 0.17699 0.50222 0.0
H121 H 0.89888 0.25765 0.38066 0.0
H122 H 0.01404 0.19066 0.11675 0.0
H123 H 0.9983 0.11332 0.23815 0.0
H124 H 0.14314 0.85238 0.13107 0.0
H125 H 0.1384 0.77012 0.25468 0.0
H126 H 0.98975 0.79989 0.39738 0.0
H127 H 0.99387 0.88087 0.2771 0.0
C128 C 0.41649 0.94292 0.48273 0.0
Eu129 Eu 0.4815 0.96255 0.69146 0.0
C130 C 0.37231 0.94345 0.38151 0.0
C131 C 0.33244 0.91095 0.40115 0.0
C132 C 0.28756 0.92121 0.32857 0.0
C133 C 0.28268 0.9638 0.23566 0.0
C134 C 0.32507 0.98904 0.19112 0.0
C135 C 0.36921 0.97957 0.26518 0.0
C136 C 0.49417 0.94486 -0.01223 0.0
C137 C 0.40928 0.04347 0.84219 0.0
C138 C 0.58479 0.06538 0.11726 0.0
Eu139 Eu 0.52249 0.05386 0.89611 0.0
C140 C 0.63529 0.06362 0.18612 0.0
C141 C 0.66646 0.10491 0.1877 0.0
C142 C 0.71185 0.10291 0.26392 0.0
C143 C 0.72683 0.05971 0.34055 0.0
C144 C 0.69536 0.01924 0.34321 0.0
C145 C 0.65014 0.02127 0.2686 0.0
C146 C 0.50783 0.07348 0.60295 0.0
C147 C 0.59939 0.98881 0.70347 0.0
O148 O 0.4435 0.98251 0.48594 0.0
O149 O 0.42464 0.91207 0.59672 0.0
O150 O 0.49514 0.90977 0.88728 0.0
O151 O 0.48123 0.98496 0.92641 0.0
O152 O 0.41808 0.9971 0.81334 0.0
O153 O 0.4421 0.07304 0.90357 0.0
O154 O 0.56384 0.02363 0.08507 0.0
O155 O 0.57 0.10227 0.02971 0.0
O156 O 0.51667 0.1086 0.6992 0.0
O157 O 0.5174 0.03259 0.66386 0.0
O158 O 0.58596 0.03032 0.76319 0.0
O159 O 0.56689 0.9556 0.65307 0.0
H160 H 0.33426 0.88091 0.48319 0.0
H161 H 0.25564 0.89926 0.35886 0.0
H162 H 0.32301 0.02091 0.11705 0.0
H163 H 0.39981 1.00381 0.2405 0.0
H164 H 0.65592 0.13863 0.12956 0.0
H165 H 0.73594 0.13448 0.25851 0.0
H166 H 0.70641 0.98538 0.39985 0.0
H167 H 0.62674 0.98924 0.27523 0.0
C168 C 0.57545 0.42733 0.46799 0.0
Eu169 Eu 0.54744 0.48585 0.69051 0.0
C170 C 0.57296 0.37895 0.38625 0.0
C171 C 0.60831 0.34107 0.40373 0.0
C172 C 0.60244 0.29587 0.32997 0.0
C173 C 0.56122 0.28803 0.23739 0.0
C174 C 0.53181 0.3284 0.1992 0.0
C175 C 0.53673 0.3726 0.27519 0.0
C176 C 0.56474 0.49895 -0.01607 0.0
C177 C 0.47575 0.40377 0.85419 0.0
C178 C 0.43682 0.57757 0.12105 0.0
Eu179 Eu 0.45236 0.51543 0.90142 0.0
C180 C 0.43451 0.62747 0.19143 0.0
C181 C 0.39027 0.65449 0.20014 0.0
C182 C 0.3882 0.69971 0.27492 0.0
C183 C 0.43039 0.71913 0.34136 0.0
C184 C 0.47429 0.69217 0.33444 0.0
C185 C 0.47609 0.6465 0.2641 0.0
C186 C 0.43494 0.49576 0.61116 0.0
C187 C 0.50484 0.59889 0.7179 0.0
O188 O 0.53648 0.45568 0.46629 0.0
O189 O 0.60134 0.43292 0.59156 0.0
O190 O 0.59921 0.50419 0.87861 0.0
O191 O 0.52592 0.48183 0.9279 0.0
O192 O 0.52044 0.41754 0.81306 0.0
O193 O 0.44253 0.43362 0.91584 0.0
O194 O 0.48003 0.55943 0.08514 0.0
O195 O 0.40135 0.56131 0.03487 0.0
O196 O 0.39897 0.49962 0.71199 0.0
O197 O 0.47366 0.51252 0.66639 0.0
O198 O 0.46319 0.57685 0.73954 0.0
O199 O 0.54581 0.57312 0.68199 0.0
H200 H 0.63902 0.34547 0.47931 0.0
H201 H 0.62774 0.26605 0.35524 0.0
H202 H 0.50123 0.32475 0.12372 0.0
H203 H 0.51059 0.40153 0.24993 0.0
H204 H 0.35729 0.64086 0.14822 0.0
H205 H 0.35416 0.72046 0.2751 0.0
H206 H 0.50781 0.70722 0.37934 0.0
H207 H 0.51055 0.62652 0.264 0.0
C208 C 0.09166 0.57207 0.49448 0.0
Eu209 Eu 0.02207 0.54844 0.68918 0.0
C210 C 0.13175 0.57991 0.37841 0.0
C211 C 0.17022 0.6137 0.39978 0.0
C212 C 0.21625 0.6066 0.32767 0.0
C213 C 0.22367 0.56581 0.23356 0.0
C214 C 0.18254 0.53964 0.1887 0.0
C215 C 0.13796 0.54493 0.26493 0.0
C216 C 1.00051 0.56781 0.97375 0.0
C217 C 0.10344 0.4795 0.85863 0.0
C218 C 0.93294 0.4341 0.13051 0.0
Eu219 Eu 0.99359 0.45366 0.90462 0.0
C220 C 0.88139 0.43076 0.19322 0.0
C221 C 0.85433 0.38665 0.19837 0.0
C222 C 0.80724 0.38473 0.26743 0.0
C223 C 0.78649 0.42681 0.33236 0.0
C224 C 0.81339 0.47046 0.32767 0.0
C225 C 0.86039 0.47222 0.26227 0.0
C226 C 0.01549 0.43658 0.61397 0.0
C227 C 0.90928 0.50322 0.71868 0.0
O228 O 0.07239 0.52831 0.51042 0.0
O229 O 0.06845 0.60621 0.5713 0.0
O230 O 0.99716 0.60159 0.86546 0.0
O231 O 0.02195 0.52931 0.92825 0.0
O232 O 0.08734 0.52461 0.832 0.0
O233 O 0.07492 0.44456 0.91751 0.0
O234 O 0.94863 0.47801 0.09153 0.0
O235 O 0.95304 0.39919 0.04864 0.0
O236 O 0.01333 0.40084 0.71683 0.0
O237 O 0.99634 0.47468 0.66649 0.0
O238 O 0.93079 0.46192 0.75318 0.0
O239 O 0.93523 0.54302 0.66996 0.0
H240 H 0.16674 0.64169 0.48469 0.0
H241 H 0.24702 0.62927 0.3593 0.0
H242 H 0.1858 0.50951 0.1131 0.0
H243 H 0.10965 0.51821 0.24395 0.0
H244 H 0.8694 0.3538 0.14874 0.0
H245 H 0.78653 0.35087 0.26611 0.0
H246 H 0.79744 0.50381 0.37179 0.0
H247 H 0.88011 0.50663 0.26438 0.0
loop_
_geom_bond_atom_site_label_1
_geom_bond_atom_site_label_2
_geom_bond_distance
_geom_bond_site_symmetry_2
_ccdc_geom_bond_type
O0 Cd1 2.300 . S
O0 C7 1.275 . S
Cd1 O0 2.300 . S
Cd1 O9 2.381 . S
Cd1 O10 2.378 . S
O2 Cd3 2.385 . S
O2 C7 1.255 . S
Cd3 O2 2.385 . S
Cd3 O4 2.317 . S
O4 Cd3 2.317 . S
O4 C5 1.232 . S
C5 O4 1.232 . S
C5 O6 1.218 . S
O6 C5 1.218 . S
C7 O0 1.275 . S
C7 O2 1.255 . S
C8 O9 1.258 . S
C8 O10 1.256 . S
O9 Cd1 2.381 . S
O9 C8 1.258 . S
O10 Cd1 2.378 . S
O10 C8 1.256 . S
O11 Cd12 2.300 1_655 S
O11 C18 1.275 1_655 S
Cd12 O11 2.300 1_455 S
Cd12 O20 2.381 1_455 S
Cd12 O21 2.378 . S
O13 Cd14 2.385 . S
O13 C18 1.255 . S
Cd14 O13 2.385 . S
Cd14 O15 2.317 . S
O15 Cd14 2.317 . S
O15 C16 1.232 . S
C16 O15 1.232 . S
C16 O17 1.218 . S
O17 C16 1.218 . S
C18 O11 1.275 1_455 S
C18 O13 1.255 . S
C19 O20 1.258 1_455 S
C19 O21 1.256 . S
O20 Cd12 2.381 1_655 S
O20 C19 1.258 1_655 S
O21 Cd12 2.378 . S
O21 C19 1.256 . S
O22 Cd23 2.300 1_565 S
O22 C29 1.275 1_565 S
Cd23 O22 2.300 1_545 S
Cd23 O31 2.381 1_545 S
Cd23 O32 2.378 . S
O24 Cd25 2.385 . S
O24 C29 1.255 . S
Cd25 O24 2.385 . S
Cd25 O26 2.317 . S
O26 Cd25 2.317 . S
O26 C27 1.232 . S
C27 O26 1.232 . S
C27 O28 1.218 . S
O28 C27 1.218 . S
C29 O22 1.275 1_545 S
C29 O24 1.255 . S
C30 O31 1.258 1_545 S
C30 O32 1.256 . S
O31 Cd23 2.381 1_565 S
O31 C30 1.258 1_565 S
O32 Cd23 2.378 . S
O32 C30 1.256 . S
O33 Cd34 2.300 . S
O33 C40 1.275 . S
Cd34 O33 2.300 . S
Cd34 O42 2.381 . S
Cd34 O43 2.378 . S
O35 Cd36 2.385 . S
O35 C40 1.255 . S
Cd36 O35 2.385 . S
Cd36 O37 2.317 . S
O37 Cd36 2.317 . S
O37 C38 1.232 . S
C38 O37 1.232 . S
C38 O39 1.218 . S
O39 C38 1.218 . S
C40 O33 1.275 . S
C40 O35 1.255 . S
C41 O42 1.258 . S
C41 O43 1.256 . S
O42 Cd34 2.381 . S
O42 C41 1.258 . S
O43 Cd34 2.378 . S
O43 C41 1.256 . S
O44 Cd45 2.300 . S
O44 C51 1.275 . S
Cd45 O44 2.300 . S
Cd45 O53 2.381 . S
Cd45 O54 2.378 . S
O46 Cd47 2.385 1_554 S
O46 C51 1.255 . S
Cd47 O46 2.385 1_556 S
Cd47 O48 2.317 . S
O48 Cd47 2.317 . S
O48 C49 1.232 . S
C49 O48 1.232 . S
C49 O50 1.218 . S
O50 C49 1.218 . S
C51 O44 1.275 . S
C51 O46 1.255 . S
C52 O53 1.258 . S
C52 O54 1.256 . S
O53 Cd45 2.381 . S
O53 C52 1.258 . S
O54 Cd45 2.378 . S
O54 C52 1.256 . S
O55 Cd56 2.300 1_655 S
O55 C62 1.275 1_655 S
Cd56 O55 2.300 1_455 S
Cd56 O64 2.381 1_455 S
Cd56 O65 2.378 . S
O57 Cd58 2.385 1_554 S
O57 C62 1.255 . S
Cd58 O57 2.385 1_556 S
Cd58 O59 2.317 . S
O59 Cd58 2.317 . S
O59 C60 1.232 . S
C60 O59 1.232 . S
C60 O61 1.218 . S
O61 C60 1.218 . S
C62 O55 1.275 1_455 S
C62 O57 1.255 . S
C63 O64 1.258 1_455 S
C63 O65 1.256 . S
O64 Cd56 2.381 1_655 S
O64 C63 1.258 1_655 S
O65 Cd56 2.378 . S
O65 C63 1.256 . S
O66 Cd67 2.300 1_565 S
O66 C73 1.275 1_565 S
Cd67 O66 2.300 1_545 S
Cd67 O75 2.381 1_545 S
Cd67 O76 2.378 . S
O68 Cd69 2.385 1_554 S
O68 C73 1.255 . S
Cd69 O68 2.385 1_556 S
Cd69 O70 2.317 . S
O70 Cd69 2.317 . S
O70 C71 1.232 . S
C71 O70 1.232 . S
C71 O72 1.218 . S
O72 C71 1.218 . S
C73 O66 1.275 1_545 S
C73 O68 1.255 . S
C74 O75 1.258 1_545 S
C74 O76 1.256 . S
O75 Cd67 2.381 1_565 S
O75 C74 1.258 1_565 S
O76 Cd67 2.378 . S
O76 C74 1.256 . S
O77 Cd78 2.300 . S
O77 C84 1.275 . S
Cd78 O77 2.300 . S
Cd78 O86 2.381 . S
Cd78 O87 2.378 . S
O79 Cd80 2.385 1_554 S
O79 C84 1.255 . S
Cd80 O79 2.385 1_556 S
Cd80 O81 2.317 . S
O81 Cd80 2.317 . S
O81 C82 1.232 . S
C82 O81 1.232 . S
C82 O83 1.218 . S
O83 C82 1.218 . S
C84 O77 1.275 . S
C84 O79 1.255 . S
C85 O86 1.258 . S
C85 O87 1.256 . S
O86 Cd78 2.381 . S
O86 C85 1.258 . S
O87 Cd78 2.378 . S
O87 C85 1.256 . S
C88 Eu89 2.835 . S
C88 C90 1.500 . S
C88 O108 1.257 . S
C88 O109 1.260 . S
Eu89 C88 2.835 . S
Eu89 O108 2.473 . S
Eu89 O109 2.480 . S
Eu89 O110 2.430 . S
Eu89 O111 2.670 1_545 S
Eu89 O112 2.394 . S
Eu89 O117 2.355 1_655 S
Eu89 O119 2.374 1_545 S
C90 C88 1.500 . S
C90 C91 1.377 . S
C90 C95 1.377 . S
C91 C90 1.377 . S
C91 C92 1.395 . S
C91 H120 0.931 . S
C92 C91 1.395 . S
C92 C93 1.383 . S
C92 H121 0.931 . S
C93 C92 1.383 . S
C93 C94 1.394 . S
C94 C93 1.394 . S
C94 C95 1.378 . S
C94 H122 0.931 . S
C95 C90 1.377 . S
C95 C94 1.378 . S
C95 H123 0.931 1_655 S
C96 O110 1.259 . S
C96 O111 1.270 1_545 S
C97 O112 1.251 1_455 S
C97 O113 1.251 . S
C98 Eu99 2.835 1_554 S
C98 C100 1.500 . S
C98 O114 1.257 . S
C98 O115 1.260 . S
Eu99 C98 2.835 1_556 S
Eu99 O111 2.355 1_455 S
Eu99 O113 2.374 1_565 S
Eu99 O114 2.473 1_556 S
Eu99 O115 2.480 1_556 S
Eu99 O116 2.430 . S
Eu99 O117 2.670 1_565 S
Eu99 O118 2.394 . S
C100 C98 1.500 . S
C100 C101 1.377 . S
C100 C105 1.377 . S
C101 C100 1.377 . S
C101 C102 1.395 . S
C101 H124 0.931 . S
C102 C101 1.395 . S
C102 C103 1.383 . S
C102 H125 0.931 . S
C103 C102 1.383 . S
C103 C104 1.394 . S
C104 C103 1.394 . S
C104 C105 1.378 . S
C104 H126 0.931 . S
C105 C100 1.377 . S
C105 C104 1.378 . S
C105 H127 0.931 1_455 S
C106 O116 1.259 . S
C106 O117 1.270 1_565 S
C107 O118 1.251 1_655 S
C107 O119 1.251 . S
O108 C88 1.257 . S
O108 Eu89 2.473 . S
O109 C88 1.260 . S
O109 Eu89 2.480 . S
O110 Eu89 2.430 . S
O110 C96 1.259 . S
O111 Eu89 2.670 1_565 S
O111 C96 1.270 1_565 S
O111 Eu99 2.355 1_655 S
O112 Eu89 2.394 . S
O112 C97 1.251 1_655 S
O113 C97 1.251 . S
O113 Eu99 2.374 1_545 S
O114 C98 1.257 . S
O114 Eu99 2.473 1_554 S
O115 C98 1.260 . S
O115 Eu99 2.480 1_554 S
O116 Eu99 2.430 . S
O116 C106 1.259 . S
O117 Eu89 2.355 1_455 S
O117 Eu99 2.670 1_545 S
O117 C106 1.270 1_545 S
O118 Eu99 2.394 . S
O118 C107 1.251 1_455 S
O119 Eu89 2.374 1_565 S
O119 C107 1.251 . S
H120 C91 0.931 . S
H121 C92 0.931 . S
H122 C94 0.931 . S
H123 C95 0.931 1_455 S
H124 C101 0.931 . S
H125 C102 0.931 . S
H126 C104 0.931 . S
H127 C105 0.931 1_655 S
C128 Eu129 2.835 . S
C128 C130 1.500 . S
C128 O148 1.257 . S
C128 O149 1.260 . S
Eu129 C128 2.835 . S
Eu129 O148 2.473 . S
Eu129 O149 2.480 . S
Eu129 O150 2.430 . S
Eu129 O151 2.670 . S
Eu129 O152 2.394 . S
Eu129 O157 2.355 1_565 S
Eu129 O159 2.374 . S
C130 C128 1.500 . S
C130 C131 1.377 . S
C130 C135 1.377 . S
C131 C130 1.377 . S
C131 C132 1.395 . S
C131 H160 0.931 . S
C132 C131 1.395 . S
C132 C133 1.383 . S
C132 H161 0.931 . S
C133 C132 1.383 . S
C133 C134 1.394 . S
C134 C133 1.394 . S
C134 C135 1.378 . S
C134 H162 0.931 . S
C135 C130 1.377 . S
C135 C134 1.378 . S
C135 H163 0.931 1_565 S
C136 O150 1.259 . S
C136 O151 1.270 . S
C137 O152 1.251 1_545 S
C137 O153 1.251 . S
C138 Eu139 2.835 1_554 S
C138 C140 1.500 . S
C138 O154 1.257 . S
C138 O155 1.260 . S
Eu139 C138 2.835 1_556 S
Eu139 O151 2.355 1_545 S
Eu139 O153 2.374 . S
Eu139 O154 2.473 1_556 S
Eu139 O155 2.480 1_556 S
Eu139 O156 2.430 . S
Eu139 O157 2.670 . S
Eu139 O158 2.394 . S
C140 C138 1.500 . S
C140 C141 1.377 . S
C140 C145 1.377 . S
C141 C140 1.377 . S
C141 C142 1.395 . S
C141 H164 0.931 . S
C142 C141 1.395 . S
C142 C143 1.383 . S
C142 H165 0.931 . S
C143 C142 1.383 . S
C143 C144 1.394 . S
C144 C143 1.394 . S
C144 C145 1.378 . S
C144 H166 0.931 . S
C145 C140 1.377 . S
C145 C144 1.378 . S
C145 H167 0.931 1_545 S
C146 O156 1.259 . S
C146 O157 1.270 . S
C147 O158 1.251 1_565 S
C147 O159 1.251 . S
O148 C128 1.257 . S
O148 Eu129 2.473 . S
O149 C128 1.260 . S
O149 Eu129 2.480 . S
O150 Eu129 2.430 . S
O150 C136 1.259 . S
O151 Eu129 2.670 . S
O151 C136 1.270 . S
O151 Eu139 2.355 1_565 S
O152 Eu129 2.394 . S
O152 C137 1.251 1_565 S
O153 C137 1.251 . S
O153 Eu139 2.374 . S
O154 C138 1.257 . S
O154 Eu139 2.473 1_554 S
O155 C138 1.260 . S
O155 Eu139 2.480 1_554 S
O156 Eu139 2.430 . S
O156 C146 1.259 . S
O157 Eu129 2.355 1_545 S
O157 Eu139 2.670 . S
O157 C146 1.270 . S
O158 Eu139 2.394 . S
O158 C147 1.251 1_545 S
O159 Eu129 2.374 . S
O159 C147 1.251 . S
H160 C131 0.931 . S
H161 C132 0.931 . S
H162 C134 0.931 . S
H163 C135 0.931 1_545 S
H164 C141 0.931 . S
H165 C142 0.931 . S
H166 C144 0.931 . S
H167 C145 0.931 1_565 S
C168 Eu169 2.835 . S
C168 C170 1.500 . S
C168 O188 1.257 . S
C168 O189 1.260 . S
Eu169 C168 2.835 . S
Eu169 O188 2.473 . S
Eu169 O189 2.480 . S
Eu169 O190 2.430 . S
Eu169 O191 2.670 . S
Eu169 O192 2.394 . S
Eu169 O197 2.355 . S
Eu169 O199 2.374 . S
C170 C168 1.500 . S
C170 C171 1.377 . S
C170 C175 1.377 . S
C171 C170 1.377 . S
C171 C172 1.395 . S
C171 H200 0.931 . S
C172 C171 1.395 . S
C172 C173 1.383 . S
C172 H201 0.931 . S
C173 C172 1.383 . S
C173 C174 1.394 . S
C174 C173 1.394 . S
C174 C175 1.378 . S
C174 H202 0.931 . S
C175 C170 1.377 . S
C175 C174 1.378 . S
C175 H203 0.931 . S
C176 O190 1.259 . S
C176 O191 1.270 . S
C177 O192 1.251 . S
C177 O193 1.251 . S
C178 Eu179 2.835 1_554 S
C178 C180 1.500 . S
C178 O194 1.257 . S
C178 O195 1.260 . S
Eu179 C178 2.835 1_556 S
Eu179 O191 2.355 . S
Eu179 O193 2.374 . S
Eu179 O194 2.473 1_556 S
Eu179 O195 2.480 1_556 S
Eu179 O196 2.430 . S
Eu179 O197 2.670 . S
Eu179 O198 2.394 . S
C180 C178 1.500 . S
C180 C181 1.377 . S
C180 C185 1.377 . S
C181 C180 1.377 . S
C181 C182 1.395 . S
C181 H204 0.931 . S
C182 C181 1.395 . S
C182 C183 1.383 . S
C182 H205 0.931 . S
C183 C182 1.383 . S
C183 C184 1.394 . S
C184 C183 1.394 . S
C184 C185 1.378 . S
C184 H206 0.931 . S
C185 C180 1.377 . S
C185 C184 1.378 . S
C185 H207 0.931 . S
C186 O196 1.259 . S
C186 O197 1.270 . S
C187 O198 1.251 . S
C187 O199 1.251 . S
O188 C168 1.257 . S
O188 Eu169 2.473 . S
O189 C168 1.260 . S
O189 Eu169 2.480 . S
O190 Eu169 2.430 . S
O190 C176 1.259 . S
O191 Eu169 2.670 . S
O191 C176 1.270 . S
O191 Eu179 2.355 . S
O192 Eu169 2.394 . S
O192 C177 1.251 . S
O193 C177 1.251 . S
O193 Eu179 2.374 . S
O194 C178 1.257 . S
O194 Eu179 2.473 1_554 S
O195 C178 1.260 . S
O195 Eu179 2.480 1_554 S
O196 Eu179 2.430 . S
O196 C186 1.259 . S
O197 Eu169 2.355 . S
O197 Eu179 2.670 . S
O197 C186 1.270 . S
O198 Eu179 2.394 . S
O198 C187 1.251 . S
O199 Eu169 2.374 . S
O199 C187 1.251 . S
H200 C171 0.931 . S
H201 C172 0.931 . S
H202 C174 0.931 . S
H203 C175 0.931 . S
H204 C181 0.931 . S
H205 C182 0.931 . S
H206 C184 0.931 . S
H207 C185 0.931 . S
C208 Eu209 2.835 . S
C208 C210 1.500 . S
C208 O228 1.257 . S
C208 O229 1.260 . S
Eu209 C208 2.835 . S
Eu209 O228 2.473 . S
Eu209 O229 2.480 . S
Eu209 O230 2.430 . S
Eu209 O231 2.670 1_455 S
Eu209 O232 2.394 . S
Eu209 O237 2.355 . S
Eu209 O239 2.374 1_455 S
C210 C208 1.500 . S
C210 C211 1.377 . S
C210 C215 1.377 . S
C211 C210 1.377 . S
C211 C212 1.395 . S
C211 H240 0.931 . S
C212 C211 1.395 . S
C212 C213 1.383 . S
C212 H241 0.931 . S
C213 C212 1.383 . S
C213 C214 1.394 . S
C214 C213 1.394 . S
C214 C215 1.378 . S
C214 H242 0.931 . S
C215 C210 1.377 . S
C215 C214 1.378 . S
C215 H243 0.931 . S
C216 O230 1.259 1_655 S
C216 O231 1.270 . S
C217 O232 1.251 . S
C217 O233 1.251 . S
C218 Eu219 2.835 1_554 S
C218 C220 1.500 . S
C218 O234 1.257 . S
C218 O235 1.260 . S
Eu219 C218 2.835 1_556 S
Eu219 O231 2.355 . S
Eu219 O233 2.374 1_655 S
Eu219 O234 2.473 1_556 S
Eu219 O235 2.480 1_556 S
Eu219 O236 2.430 . S
Eu219 O237 2.670 1_655 S
Eu219 O238 2.394 . S
C220 C218 1.500 . S
C220 C221 1.377 . S
C220 C225 1.377 . S
C221 C220 1.377 . S
C221 C222 1.395 . S
C221 H244 0.931 . S
C222 C221 1.395 . S
C222 C223 1.383 . S
C222 H245 0.931 . S
C223 C222 1.383 . S
C223 C224 1.394 . S
C224 C223 1.394 . S
C224 C225 1.378 . S
C224 H246 0.931 . S
C225 C220 1.377 . S
C225 C224 1.378 . S
C225 H247 0.931 . S
C226 O236 1.257 1_455 S
C226 O237 1.272 . S
C227 O238 1.251 . S
C227 O239 1.251 . S
O228 C208 1.257 . S
O228 Eu209 2.473 . S
O229 C208 1.260 . S
O229 Eu209 2.480 . S
O230 Eu209 2.430 . S
O230 C216 1.259 1_455 S
O231 Eu209 2.670 1_655 S
O231 C216 1.270 . S
O231 Eu219 2.355 . S
O232 Eu209 2.394 . S
O232 C217 1.251 . S
O233 C217 1.251 . S
O233 Eu219 2.374 1_455 S
O234 C218 1.257 . S
O234 Eu219 2.473 1_554 S
O235 C218 1.260 . S
O235 Eu219 2.480 1_554 S
O236 Eu219 2.430 . S
O236 C226 1.257 1_655 S
O237 Eu209 2.355 . S
O237 Eu219 2.670 1_455 S
O237 C226 1.272 . S
O238 Eu219 2.394 . S
O238 C227 1.251 . S
O239 Eu209 2.374 1_655 S
O239 C227 1.251 . S
H240 C211 0.931 . S
H241 C212 0.931 . S
H242 C214 0.931 . S
H243 C215 0.931 . S
H244 C221 0.931 . S
H245 C222 0.931 . S
H246 C224 0.931 . S
H247 C225 0.931 . S
C74 C106 3.745 1_545 S
C146 C85 3.757 . S
C186 C52 3.774 . S
C226 C63 3.751 . S
C96 C30 3.736 1_556 S
C41 C136 3.792 1_554 S
C8 C176 3.820 1_554 S
C19 C216 3.751 1_454 S
C93 C62 2.414 1_655 S
C133 C73 2.283 1_565 S
C173 C84 2.141 . S
C51 C213 2.252 . S
C18 C103 1.937 . S
C143 C29 1.807 . S
C183 C40 1.663 . S
C7 C223 1.771 . S
C60 C97 3.928 . S
C71 C137 3.860 . S
C177 C82 3.799 . S
C217 C49 3.866 . S
C16 C107 4.058 1_455 S
C147 C27 4.003 1_565 S
C187 C38 4.090 . S
C5 C227 4.141 . S
