# Generated by pormake.
# Topology gar, (4,6)-cn, num edge types: 1
# Building blocks:
#     Node 0, Type 0, BuildingBlock: TATPOV_clean_sbu_0, # of connection points: 4
#     Node 1, Type 0, BuildingBlock: TATPOV_clean_sbu_0, # of connection points: 4
#     Node 2, Type 0, BuildingBlock: TATPOV_clean_sbu_0, # of connection points: 4
#     Node 3, Type 0, BuildingBlock: TATPOV_clean_sbu_0, # of connection points: 4
#     Node 4, Type 0, BuildingBlock: TATPOV_clean_sbu_0, # of connection points: 4
#     Node 5, Type 0, BuildingBlock: TATPOV_clean_sbu_0, # of connection points: 4
#     Node 6, Type 0, BuildingBlock: TATPOV_clean_sbu_0, # of connection points: 4
#     Node 7, Type 0, BuildingBlock: TATPOV_clean_sbu_0, # of connection points: 4
#     Node 8, Type 0, BuildingBlock: TATPOV_clean_sbu_0, # of connection points: 4
#     Node 9, Type 0, BuildingBlock: TATPOV_clean_sbu_0, # of connection points: 4
#     Node 10, Type 0, BuildingBlock: TATPOV_clean_sbu_0, # of connection points: 4
#     Node 11, Type 0, BuildingBlock: TATPOV_clean_sbu_0, # of connection points: 4
#     Node 12, Type 0, BuildingBlock: TATPOV_clean_sbu_0, # of connection points: 4
#     Node 13, Type 0, BuildingBlock: TATPOV_clean_sbu_0, # of connection points: 4
#     Node 14, Type 0, BuildingBlock: TATPOV_clean_sbu_0, # of connection points: 4
#     Node 15, Type 0, BuildingBlock: TATPOV_clean_sbu_0, # of connection points: 4
#     Node 16, Type 0, BuildingBlock: TATPOV_clean_sbu_0, # of connection points: 4
#     Node 17, Type 0, BuildingBlock: TATPOV_clean_sbu_0, # of connection points: 4
#     Node 18, Type 0, BuildingBlock: TATPOV_clean_sbu_0, # of connection points: 4
#     Node 19, Type 0, BuildingBlock: TATPOV_clean_sbu_0, # of connection points: 4
#     Node 20, Type 0, BuildingBlock: TATPOV_clean_sbu_0, # of connection points: 4
#     Node 21, Type 0, BuildingBlock: TATPOV_clean_sbu_0, # of connection points: 4
#     Node 22, Type 0, BuildingBlock: TATPOV_clean_sbu_0, # of connection points: 4
#     Node 23, Type 0, BuildingBlock: TATPOV_clean_sbu_0, # of connection points: 4
#     Node 24, Type 1, BuildingBlock: KUMBOL_clean_sbu_0, # of connection points: 6
#     Node 25, Type 1, BuildingBlock: KUMBOL_clean_sbu_0, # of connection points: 6
#     Node 26, Type 1, BuildingBlock: KUMBOL_clean_sbu_0, # of connection points: 6
#     Node 27, Type 1, BuildingBlock: KUMBOL_clean_sbu_0, # of connection points: 6
#     Node 28, Type 1, BuildingBlock: KUMBOL_clean_sbu_0, # of connection points: 6
#     Node 29, Type 1, BuildingBlock: KUMBOL_clean_sbu_0, # of connection points: 6
#     Node 30, Type 1, BuildingBlock: KUMBOL_clean_sbu_0, # of connection points: 6
#     Node 31, Type 1, BuildingBlock: KUMBOL_clean_sbu_0, # of connection points: 6
#     Node 32, Type 1, BuildingBlock: KUMBOL_clean_sbu_0, # of connection points: 6
#     Node 33, Type 1, BuildingBlock: KUMBOL_clean_sbu_0, # of connection points: 6
#     Node 34, Type 1, BuildingBlock: KUMBOL_clean_sbu_0, # of connection points: 6
#     Node 35, Type 1, BuildingBlock: KUMBOL_clean_sbu_0, # of connection points: 6
#     Node 36, Type 1, BuildingBlock: KUMBOL_clean_sbu_0, # of connection points: 6
#     Node 37, Type 1, BuildingBlock: KUMBOL_clean_sbu_0, # of connection points: 6
#     Node 38, Type 1, BuildingBlock: KUMBOL_clean_sbu_0, # of connection points: 6
#     Node 39, Type 1, BuildingBlock: KUMBOL_clean_sbu_0, # of connection points: 6
#     Edge 40, Type (0, 1), BuildingBlock: ZUJKAS_clean_linker_0, # of connection points: 2
#     Edge 41, Type (0, 1), BuildingBlock: ZUJKAS_clean_linker_0, # of connection points: 2
#     Edge 42, Type (0, 1), BuildingBlock: ZUJKAS_clean_linker_0, # of connection points: 2
#     Edge 43, Type (0, 1), BuildingBlock: ZUJKAS_clean_linker_0, # of connection points: 2
#     Edge 44, Type (0, 1), BuildingBlock: ZUJKAS_clean_linker_0, # of connection points: 2
#     Edge 45, Type (0, 1), BuildingBlock: ZUJKAS_clean_linker_0, # of connection points: 2
#     Edge 46, Type (0, 1), BuildingBlock: ZUJKAS_clean_linker_0, # of connection points: 2
#     Edge 47, Type (0, 1), BuildingBlock: ZUJKAS_clean_linker_0, # of connection points: 2
#     Edge 48, Type (0, 1), BuildingBlock: ZUJKAS_clean_linker_0, # of connection points: 2
#     Edge 49, Type (0, 1), BuildingBlock: ZUJKAS_clean_linker_0, # of connection points: 2
#     Edge 50, Type (0, 1), BuildingBlock: ZUJKAS_clean_linker_0, # of connection points: 2
#     Edge 51, Type (0, 1), BuildingBlock: ZUJKAS_clean_linker_0, # of connection points: 2
#     Edge 52, Type (0, 1), BuildingBlock: ZUJKAS_clean_linker_0, # of connection points: 2
#     Edge 53, Type (0, 1), BuildingBlock: ZUJKAS_clean_linker_0, # of connection points: 2
#     Edge 54, Type (0, 1), BuildingBlock: ZUJKAS_clean_linker_0, # of connection points: 2
#     Edge 55, Type (0, 1), BuildingBlock: ZUJKAS_clean_linker_0, # of connection points: 2
#     Edge 56, Type (0, 1), BuildingBlock: ZUJKAS_clean_linker_0, # of connection points: 2
#     Edge 57, Type (0, 1), BuildingBlock: ZUJKAS_clean_linker_0, # of connection points: 2
#     Edge 58, Type (0, 1), BuildingBlock: ZUJKAS_clean_linker_0, # of connection points: 2
#     Edge 59, Type (0, 1), BuildingBlock: ZUJKAS_clean_linker_0, # of connection points: 2
#     Edge 60, Type (0, 1), BuildingBlock: ZUJKAS_clean_linker_0, # of connection points: 2
#     Edge 61, Type (0, 1), BuildingBlock: ZUJKAS_clean_linker_0, # of connection points: 2
#     Edge 62, Type (0, 1), BuildingBlock: ZUJKAS_clean_linker_0, # of connection points: 2
#     Edge 63, Type (0, 1), BuildingBlock: ZUJKAS_clean_linker_0, # of connection points: 2
#     Edge 64, Type (0, 1), BuildingBlock: ZUJKAS_clean_linker_0, # of connection points: 2
#     Edge 65, Type (0, 1), BuildingBlock: ZUJKAS_clean_linker_0, # of connection points: 2
#     Edge 66, Type (0, 1), BuildingBlock: ZUJKAS_clean_linker_0, # of connection points: 2
#     Edge 67, Type (0, 1), BuildingBlock: ZUJKAS_clean_linker_0, # of connection points: 2
#     Edge 68, Type (0, 1), BuildingBlock: ZUJKAS_clean_linker_0, # of connection points: 2
#     Edge 69, Type (0, 1), BuildingBlock: ZUJKAS_clean_linker_0, # of connection points: 2
#     Edge 70, Type (0, 1), BuildingBlock: ZUJKAS_clean_linker_0, # of connection points: 2
#     Edge 71, Type (0, 1), BuildingBlock: ZUJKAS_clean_linker_0, # of connection points: 2
#     Edge 72, Type (0, 1), BuildingBlock: ZUJKAS_clean_linker_0, # of connection points: 2
#     Edge 73, Type (0, 1), BuildingBlock: ZUJKAS_clean_linker_0, # of connection points: 2
#     Edge 74, Type (0, 1), BuildingBlock: ZUJKAS_clean_linker_0, # of connection points: 2
#     Edge 75, Type (0, 1), BuildingBlock: ZUJKAS_clean_linker_0, # of connection points: 2
#     Edge 76, Type (0, 1), BuildingBlock: ZUJKAS_clean_linker_0, # of connection points: 2
#     Edge 77, Type (0, 1), BuildingBlock: ZUJKAS_clean_linker_0, # of connection points: 2
#     Edge 78, Type (0, 1), BuildingBlock: ZUJKAS_clean_linker_0, # of connection points: 2
#     Edge 79, Type (0, 1), BuildingBlock: ZUJKAS_clean_linker_0, # of connection points: 2
#     Edge 80, Type (0, 1), BuildingBlock: ZUJKAS_clean_linker_0, # of connection points: 2
#     Edge 81, Type (0, 1), BuildingBlock: ZUJKAS_clean_linker_0, # of connection points: 2
#     Edge 82, Type (0, 1), BuildingBlock: ZUJKAS_clean_linker_0, # of connection points: 2
#     Edge 83, Type (0, 1), BuildingBlock: ZUJKAS_clean_linker_0, # of connection points: 2
#     Edge 84, Type (0, 1), BuildingBlock: ZUJKAS_clean_linker_0, # of connection points: 2
#     Edge 85, Type (0, 1), BuildingBlock: ZUJKAS_clean_linker_0, # of connection points: 2
#     Edge 86, Type (0, 1), BuildingBlock: ZUJKAS_clean_linker_0, # of connection points: 2
#     Edge 87, Type (0, 1), BuildingBlock: ZUJKAS_clean_linker_0, # of connection points: 2
#     Edge 88, Type (0, 1), BuildingBlock: ZUJKAS_clean_linker_0, # of connection points: 2
#     Edge 89, Type (0, 1), BuildingBlock: ZUJKAS_clean_linker_0, # of connection points: 2
#     Edge 90, Type (0, 1), BuildingBlock: ZUJKAS_clean_linker_0, # of connection points: 2
#     Edge 91, Type (0, 1), BuildingBlock: ZUJKAS_clean_linker_0, # of connection points: 2
#     Edge 92, Type (0, 1), BuildingBlock: ZUJKAS_clean_linker_0, # of connection points: 2
#     Edge 93, Type (0, 1), BuildingBlock: ZUJKAS_clean_linker_0, # of connection points: 2
#     Edge 94, Type (0, 1), BuildingBlock: ZUJKAS_clean_linker_0, # of connection points: 2
#     Edge 95, Type (0, 1), BuildingBlock: ZUJKAS_clean_linker_0, # of connection points: 2
#     Edge 96, Type (0, 1), BuildingBlock: ZUJKAS_clean_linker_0, # of connection points: 2
#     Edge 97, Type (0, 1), BuildingBlock: ZUJKAS_clean_linker_0, # of connection points: 2
#     Edge 98, Type (0, 1), BuildingBlock: ZUJKAS_clean_linker_0, # of connection points: 2
#     Edge 99, Type (0, 1), BuildingBlock: ZUJKAS_clean_linker_0, # of connection points: 2
#     Edge 100, Type (0, 1), BuildingBlock: ZUJKAS_clean_linker_0, # of connection points: 2
#     Edge 101, Type (0, 1), BuildingBlock: ZUJKAS_clean_linker_0, # of connection points: 2
#     Edge 102, Type (0, 1), BuildingBlock: ZUJKAS_clean_linker_0, # of connection points: 2
#     Edge 103, Type (0, 1), BuildingBlock: ZUJKAS_clean_linker_0, # of connection points: 2
#     Edge 104, Type (0, 1), BuildingBlock: ZUJKAS_clean_linker_0, # of connection points: 2
#     Edge 105, Type (0, 1), BuildingBlock: ZUJKAS_clean_linker_0, # of connection points: 2
#     Edge 106, Type (0, 1), BuildingBlock: ZUJKAS_clean_linker_0, # of connection points: 2
#     Edge 107, Type (0, 1), BuildingBlock: ZUJKAS_clean_linker_0, # of connection points: 2
#     Edge 108, Type (0, 1), BuildingBlock: ZUJKAS_clean_linker_0, # of connection points: 2
#     Edge 109, Type (0, 1), BuildingBlock: ZUJKAS_clean_linker_0, # of connection points: 2
#     Edge 110, Type (0, 1), BuildingBlock: ZUJKAS_clean_linker_0, # of connection points: 2
#     Edge 111, Type (0, 1), BuildingBlock: ZUJKAS_clean_linker_0, # of connection points: 2
#     Edge 112, Type (0, 1), BuildingBlock: ZUJKAS_clean_linker_0, # of connection points: 2
#     Edge 113, Type (0, 1), BuildingBlock: ZUJKAS_clean_linker_0, # of connection points: 2
#     Edge 114, Type (0, 1), BuildingBlock: ZUJKAS_clean_linker_0, # of connection points: 2
#     Edge 115, Type (0, 1), BuildingBlock: ZUJKAS_clean_linker_0, # of connection points: 2
#     Edge 116, Type (0, 1), BuildingBlock: ZUJKAS_clean_linker_0, # of connection points: 2
#     Edge 117, Type (0, 1), BuildingBlock: ZUJKAS_clean_linker_0, # of connection points: 2
#     Edge 118, Type (0, 1), BuildingBlock: ZUJKAS_clean_linker_0, # of connection points: 2
#     Edge 119, Type (0, 1), BuildingBlock: ZUJKAS_clean_linker_0, # of connection points: 2
#     Edge 120, Type (0, 1), BuildingBlock: ZUJKAS_clean_linker_0, # of connection points: 2
#     Edge 121, Type (0, 1), BuildingBlock: ZUJKAS_clean_linker_0, # of connection points: 2
#     Edge 122, Type (0, 1), BuildingBlock: ZUJKAS_clean_linker_0, # of connection points: 2
#     Edge 123, Type (0, 1), BuildingBlock: ZUJKAS_clean_linker_0, # of connection points: 2
#     Edge 124, Type (0, 1), BuildingBlock: ZUJKAS_clean_linker_0, # of connection points: 2
#     Edge 125, Type (0, 1), BuildingBlock: ZUJKAS_clean_linker_0, # of connection points: 2
#     Edge 126, Type (0, 1), BuildingBlock: ZUJKAS_clean_linker_0, # of connection points: 2
#     Edge 127, Type (0, 1), BuildingBlock: ZUJKAS_clean_linker_0, # of connection points: 2
#     Edge 128, Type (0, 1), BuildingBlock: ZUJKAS_clean_linker_0, # of connection points: 2
#     Edge 129, Type (0, 1), BuildingBlock: ZUJKAS_clean_linker_0, # of connection points: 2
#     Edge 130, Type (0, 1), BuildingBlock: ZUJKAS_clean_linker_0, # of connection points: 2
#     Edge 131, Type (0, 1), BuildingBlock: ZUJKAS_clean_linker_0, # of connection points: 2
#     Edge 132, Type (0, 1), BuildingBlock: ZUJKAS_clean_linker_0, # of connection points: 2
#     Edge 133, Type (0, 1), BuildingBlock: ZUJKAS_clean_linker_0, # of connection points: 2
#     Edge 134, Type (0, 1), BuildingBlock: ZUJKAS_clean_linker_0, # of connection points: 2
#     Edge 135, Type (0, 1), BuildingBlock: ZUJKAS_clean_linker_0, # of connection points: 2
# Relax obj value: 0.125
# Max RMSD: 0.314
# Mean RMSD: 0.168
data_MOF--net-gar--node1-TATPOV_clean_sbu_0--node2-KUMBOL_clean_sbu_0--edge1-ZUJKAS_clean_linker_0
_symmetry_space_group_name_H-M    P1
_symmetry_Int_Tables_number       1
_symmetry_cell_setting            triclinic
loop_
_symmetry_equiv_pos_as_xyz
'x, y, z'
_cell_length_a     76.402903
_cell_length_b     72.097208
_cell_length_c     72.247401
_cell_angle_alpha  100.38155
_cell_angle_beta   93.467004
_cell_angle_gamma 103.9158
loop_
_atom_site_label
_atom_site_type_symbol
_atom_site_fract_x
_atom_site_fract_y
_atom_site_fract_z
_atom_type_partial_charge
Zn0 Zn 0.08209 0.33085 0.42627 0.0
Zn1 Zn 0.10222 0.32534 0.39759 0.0
O2 O 0.11481 0.35309 0.41112 0.0
O3 O 0.09863 0.35774 0.43493 0.0
O4 O 0.11733 0.32046 0.3768 0.0
O5 O 0.08797 0.3088 0.4361 0.0
O6 O 0.10292 0.30309 0.41146 0.0
C7 C 0.11173 0.36393 0.42583 0.0
C8 C 0.06253 0.32366 0.38915 0.0
O9 O 0.07797 0.32357 0.38359 0.0
O10 O 0.06046 0.32583 0.40661 0.0
C11 C 0.12215 0.33253 0.36612 0.0
O12 O 0.11701 0.34886 0.36874 0.0
C13 C 0.09701 0.29869 0.42661 0.0
Zn14 Zn 1.00271 0.74213 0.67552 0.0
Zn15 Zn 0.00783 0.7728 0.66094 0.0
O16 O 0.98757 0.77563 0.67843 0.0
O17 O 0.98522 0.74994 0.69157 0.0
O18 O 0.0122 0.79631 0.64906 0.0
O19 O 0.02836 0.74814 0.68588 0.0
O20 O 0.03321 0.77465 0.6738 0.0
C21 C 0.98025 0.76501 0.68966 0.0
C22 C 0.99348 0.73221 0.63616 0.0
O23 O 0.99966 0.7505 0.63759 0.0
O24 O 0.99306 0.72472 0.65069 0.0
C25 C 1.00049 0.79739 0.63632 0.0
O26 O 0.9852 0.78368 0.63218 0.0
C27 C 0.03897 0.76355 0.68317 0.0
Zn28 Zn 0.57477 0.81614 0.91622 0.0
Zn29 Zn 0.59884 0.81948 0.89077 0.0
O30 O 0.6078 0.84601 0.90858 0.0
O31 O 0.58837 0.84305 0.92983 0.0
O32 O 0.61546 0.8198 0.87061 0.0
O33 O 0.58145 0.79271 0.92176 0.0
O34 O 0.60181 0.79566 0.90134 0.0
C35 C 0.60188 0.8531 0.92363 0.0
C36 C 0.55836 0.81389 0.87944 0.0
O37 O 0.57471 0.81666 0.87563 0.0
O38 O 0.55452 0.81269 0.89604 0.0
C39 C 0.62292 0.83441 0.86375 0.0
O40 O 0.62049 0.85166 0.87054 0.0
C41 C 0.5937 0.78681 0.91334 0.0
Zn42 Zn 0.50378 0.24812 0.18717 0.0
Zn43 Zn 0.50493 0.27142 0.16202 0.0
O44 O 0.48722 0.27894 0.18047 0.0
O45 O 0.48791 0.26131 0.20232 0.0
O46 O 0.50609 0.29017 0.14453 0.0
O47 O 0.53053 0.25779 0.19344 0.0
O48 O 0.53171 0.27592 0.17178 0.0
C49 C 0.48212 0.27408 0.19577 0.0
C50 C 0.49071 0.22777 0.14867 0.0
O51 O 0.49489 0.24481 0.14504 0.0
O52 O 0.49297 0.22536 0.16551 0.0
C53 C 0.51293 0.28712 0.12903 0.0
O54 O 0.51882 0.27138 0.12453 0.0
C55 C 0.53956 0.26961 0.18443 0.0
Zn56 Zn 0.10719 0.81459 0.09206 0.0
Zn57 Zn 0.08258 0.81166 0.11636 0.0
O58 O 0.07976 0.83451 0.10259 0.0
O59 O 0.10178 0.83829 0.08426 0.0
O60 O 0.06174 0.80875 0.13345 0.0
O61 O 0.09602 0.78713 0.07759 0.0
O62 O 0.07735 0.78379 0.09948 0.0
C63 C 0.0884 0.84356 0.09089 0.0
C64 C 0.12293 0.8176 0.13025 0.0
O65 O 0.10672 0.81665 0.1344 0.0
O66 O 0.12641 0.81725 0.11329 0.0
C67 C 0.05088 0.81977 0.1353 0.0
O68 O 0.05328 0.83446 0.12648 0.0
C69 C 0.08374 0.77639 0.08478 0.0
Zn70 Zn 0.49598 0.76436 0.44857 0.0
Zn71 Zn 0.52083 0.76829 0.42456 0.0
O72 O 0.52625 0.79609 0.44158 0.0
O73 O 0.50534 0.79272 0.46124 0.0
O74 O 0.54127 0.76948 0.407 0.0
O75 O 0.50416 0.74343 0.4589 0.0
O76 O 0.52359 0.74496 0.43766 0.0
C77 C 0.51849 0.80347 0.45517 0.0
C78 C 0.48006 0.76006 0.41051 0.0
O79 O 0.49668 0.76426 0.40721 0.0
O80 O 0.47609 0.75777 0.42687 0.0
C81 C 0.55622 0.78267 0.41063 0.0
O82 O 0.55847 0.7966 0.4257 0.0
C83 C 0.51652 0.73721 0.45096 0.0
Zn84 Zn 0.60655 0.31471 0.59101 0.0
Zn85 Zn 0.58374 0.31369 0.61714 0.0
O86 O 0.58117 0.33702 0.60395 0.0
O87 O 0.60057 0.33792 0.5827 0.0
O88 O 0.56372 0.31185 0.63509 0.0
O89 O 0.59452 0.28711 0.57743 0.0
O90 O 0.57737 0.28544 0.60077 0.0
C91 C 0.58867 0.34482 0.59088 0.0
C92 C 0.62419 0.31903 0.62905 0.0
O93 O 0.6083 0.31839 0.63405 0.0
O94 O 0.62675 0.31807 0.61176 0.0
C95 C 0.54904 0.31648 0.63111 0.0
O96 O 0.54698 0.32298 0.61547 0.0
C97 C 0.58262 0.27718 0.5857 0.0
Zn98 Zn 0.99631 0.26434 0.94964 0.0
Zn99 Zn 0.01898 0.26623 0.92355 0.0
O100 O 0.02495 0.2945 0.93983 0.0
O101 O 0.00707 0.29228 0.96254 0.0
O102 O 0.03894 0.26754 0.90543 0.0
O103 O 0.00394 0.24281 0.95925 0.0
O104 O 0.02234 0.24325 0.93699 0.0
C105 C 0.0191 0.30248 0.95463 0.0
C106 C 0.97807 0.25917 0.91194 0.0
O107 O 0.99415 0.26149 0.90701 0.0
O108 O 0.97553 0.25894 0.92908 0.0
C109 C 0.05515 0.27738 0.91155 0.0
O110 O 0.05856 0.28682 0.92925 0.0
C111 C 0.01574 0.23602 0.95079 0.0
Zn112 Zn 0.42438 0.01703 0.28276 0.0
Zn113 Zn 0.41153 0.04815 0.29019 0.0
O114 O 0.42944 0.05146 0.31315 0.0
O115 O 0.44325 0.02821 0.30504 0.0
O116 O 0.40256 0.07201 0.29607 0.0
O117 O 0.42927 0.02282 0.25713 0.0
O118 O 0.42332 0.05132 0.266 0.0
C119 C 0.44166 0.04295 0.31665 0.0
C120 C 0.38683 0.00775 0.28758 0.0
O121 O 0.38856 0.02572 0.28754 0.0
O122 O 0.40043 1.00063 0.2868 0.0
C123 C 0.38907 0.0729 0.30531 0.0
O124 O 0.38038 0.05755 0.31148 0.0
C125 C 0.42883 0.03942 0.25401 0.0
Zn126 Zn 0.2774 0.21653 0.50688 0.0
Zn127 Zn 0.30118 0.19641 0.5088 0.0
O128 O 0.30618 0.20853 0.48499 0.0
O129 O 0.28594 0.22552 0.48383 0.0
O130 O 0.32151 0.18306 0.51101 0.0
O131 O 0.28553 0.23302 0.53238 0.0
O132 O 0.30497 0.2153 0.5351 0.0
C133 C 0.29891 0.21963 0.47694 0.0
C134 C 0.26079 0.17594 0.50442 0.0
O135 O 0.27712 0.17444 0.50525 0.0
O136 O 0.2575 0.19238 0.50492 0.0
C137 C 0.3205 0.16576 0.50242 0.0
O138 O 0.30556 0.15574 0.49164 0.0
C139 C 0.29768 0.22877 0.5422 0.0
Zn140 Zn 0.15104 0.03032 0.77136 0.0
Zn141 Zn 0.1723 0.00874 0.76905 0.0
O142 O 0.15792 0.00724 0.79588 0.0
O143 O 0.13922 0.02592 0.79449 0.0
O144 O 0.18808 0.98572 0.76641 0.0
O145 O 0.13622 0.02208 0.74638 0.0
O146 O 0.15643 0.00537 0.74013 0.0
C147 C 0.14557 0.01497 0.80332 0.0
C148 C 0.18784 0.05387 0.77344 0.0
O149 O 0.19174 0.03731 0.77266 0.0
O150 O 0.17139 0.05436 0.77332 0.0
C151 C 0.18999 0.97454 0.77821 0.0
O152 O 0.18183 0.97667 0.79365 0.0
C153 C 0.14296 0.01176 0.73423 0.0
Zn154 Zn 0.3452 0.92513 0.04079 0.0
Zn155 Zn 0.31391 0.93264 0.03033 0.0
O156 O 0.31535 0.91226 0.00768 0.0
O157 O 0.34148 0.90626 0.01544 0.0
O158 O 0.29046 0.93897 0.02526 0.0
O159 O 0.33587 0.91661 0.0638 0.0
O160 O 0.31014 0.92284 0.05496 0.0
C161 C 0.32756 0.90335 0.00375 0.0
C162 C 0.34924 0.96459 0.03697 0.0
O163 O 0.33247 0.95851 0.031 0.0
O164 O 0.35767 0.95331 0.04284 0.0
C165 C 0.28789 0.94909 0.01319 0.0
O166 O 0.30079 0.95469 0.00264 0.0
C167 C 0.31983 0.9172 0.0666 0.0
Zn168 Zn 0.32256 0.36473 0.03552 0.0
Zn169 Zn 0.30195 0.3892 0.0349 0.0
O170 O 0.29748 0.3726 0.00757 0.0
O171 O 0.3143 0.35185 0.00871 0.0
O172 O 0.28451 0.40644 0.03468 0.0
O173 O 0.30995 0.35293 0.05531 0.0
O174 O 0.29374 0.37453 0.0565 0.0
C175 C 0.30328 0.3583 0.99955 0.0
C176 C 0.3432 0.40487 0.04286 0.0
O177 O 0.32764 0.40817 0.04031 0.0
O178 O 0.34449 0.38756 0.04206 0.0
C179 C 0.26827 0.39905 0.02706 0.0
O180 O 0.26327 0.38042 0.01916 0.0
C181 C 0.29785 0.3603 0.06238 0.0
Zn182 Zn 0.76113 0.16047 0.01956 0.0
Zn183 Zn 0.78865 0.14618 0.02018 0.0
O184 O 0.78816 0.15568 0.99501 0.0
O185 O 0.76171 0.16253 0.99259 0.0
O186 O 0.81073 0.13615 0.0197 0.0
O187 O 0.7737 0.18349 0.03946 0.0
O188 O 0.79451 0.16786 0.04409 0.0
C189 C 0.77617 0.16087 0.98563 0.0
C190 C 0.75215 0.12168 0.02571 0.0
O191 O 0.76823 0.12213 0.02181 0.0
O192 O 0.74619 0.1367 0.02676 0.0
C193 C 0.81452 0.12638 0.03162 0.0
O194 O 0.8037 0.12287 0.04474 0.0
C195 C 0.78772 0.18228 0.04888 0.0
Zn196 Zn 0.17225 0.56759 0.23547 0.0
Zn197 Zn 0.18993 0.5398 0.23465 0.0
O198 O 0.18102 0.54126 0.26031 0.0
O199 O 0.16923 0.56647 0.26284 0.0
O200 O 0.20331 0.51969 0.23452 0.0
O201 O 0.15366 0.54909 0.21534 0.0
O202 O 0.17027 0.52788 0.21301 0.0
C203 C 0.17363 0.55319 0.26994 0.0
C204 C 0.20953 0.58056 0.23016 0.0
O205 O 0.20959 0.56362 0.23271 0.0
O206 O 0.19478 0.5856 0.22917 0.0
C207 C 0.21652 0.52377 0.2473 0.0
O208 O 0.22061 0.54082 0.25894 0.0
C209 C 0.15624 0.53287 0.2077 0.0
Zn210 Zn 0.82143 0.86483 0.53797 0.0
Zn211 Zn 0.80181 0.89035 0.53576 0.0
O212 O 0.79787 0.87282 0.5088 0.0
O213 O 0.81325 0.85101 0.51116 0.0
O214 O 0.78437 0.90758 0.53447 0.0
O215 O 0.80845 0.85469 0.5587 0.0
O216 O 0.79366 0.87741 0.5585 0.0
C217 C 0.80315 0.85795 0.50132 0.0
C218 C 0.84288 0.90523 0.54356 0.0
O219 O 0.82756 0.909 0.54075 0.0
O220 O 0.84361 0.88784 0.54355 0.0
C221 C 0.76919 0.90109 0.52421 0.0
O222 O 0.76517 0.88333 0.51395 0.0
C223 C 0.79707 0.86344 0.56545 0.0
Zn224 Zn 0.95438 0.05229 0.27276 0.0
Zn225 Zn 0.93388 0.07461 0.27451 0.0
O226 O 0.94938 0.07784 0.30365 0.0
O227 O 0.96996 0.06156 0.29738 0.0
O228 O 0.91735 0.09689 0.27533 0.0
O229 O 0.96499 0.05495 0.24863 0.0
O230 O 0.94865 0.07605 0.24794 0.0
C231 C 0.963 0.07164 0.30954 0.0
C232 C 0.91772 0.02948 0.27109 0.0
O233 O 0.91425 0.04609 0.27073 0.0
O234 O 0.93407 0.02861 0.27223 0.0
C235 C 0.92262 0.11582 0.27899 0.0
O236 O 0.94008 0.12376 0.28341 0.0
C237 C 0.95979 0.06678 0.24003 0.0
Zn238 Zn 0.25515 0.65178 0.51639 0.0
Zn239 Zn 0.28547 0.64156 0.51863 0.0
O240 O 0.28601 0.65358 0.49487 0.0
O241 O 0.26083 0.66328 0.49402 0.0
O242 O 0.30876 0.63391 0.51904 0.0
O243 O 0.2616 0.66791 0.54253 0.0
O244 O 0.28822 0.66118 0.5436 0.0
C245 C 0.2753 0.66167 0.48708 0.0
C246 C 0.24921 0.61121 0.51409 0.0
O247 O 0.26639 0.6154 0.51751 0.0
O248 O 0.24118 0.62429 0.51233 0.0
C249 C 0.31402 0.62668 0.53245 0.0
O250 O 0.30398 0.62445 0.54643 0.0
C251 C 0.27706 0.66997 0.55117 0.0
Zn252 Zn 0.4533 0.55146 0.77245 0.0
Zn253 Zn 0.43445 0.57662 0.77448 0.0
O254 O 0.4496 0.57962 0.80362 0.0
O255 O 0.46695 0.55922 0.79834 0.0
O256 O 0.42004 0.60074 0.77374 0.0
O257 O 0.46618 0.55573 0.74984 0.0
O258 O 0.44977 0.57663 0.74818 0.0
C259 C 0.46158 0.57142 0.80996 0.0
C260 C 0.4156 0.53143 0.76886 0.0
O261 O 0.41371 0.549 0.77094 0.0
O262 O 0.43131 0.52866 0.76857 0.0
C263 C 0.41406 0.61191 0.7867 0.0
O264 O 0.41642 0.6095 0.80419 0.0
C265 C 0.46134 0.56755 0.74095 0.0
Zn266 Zn 0.67325 0.06498 0.74996 0.0
Zn267 Zn 0.6912 0.03681 0.74183 0.0
O268 O 0.68248 0.03143 0.76653 0.0
O269 O 0.66792 0.05435 0.77356 0.0
O270 O 0.70257 0.01525 0.73414 0.0
O271 O 0.65598 0.05326 0.72661 0.0
O272 O 0.67147 0.03124 0.72019 0.0
C273 C 0.67317 0.03996 0.77739 0.0
C274 C 0.71134 0.07935 0.74677 0.0
O275 O 0.71139 0.06151 0.74456 0.0
O276 O 0.69677 0.08458 0.74873 0.0
C277 C 0.71951 0.01706 0.73627 0.0
O278 O 0.73053 0.03421 0.74354 0.0
C279 C 0.65844 0.03836 0.71596 0.0
Zn280 Zn 0.78004 0.7193 0.00811 0.0
Zn281 Zn 0.801 0.69554 0.00951 0.0
O282 O 0.80681 0.70704 0.98553 0.0
O283 O 0.78952 0.72732 0.98486 0.0
O284 O 0.82037 0.68099 0.0118 0.0
O285 O 0.78978 0.73566 0.03365 0.0
O286 O 0.8054 0.71408 0.03589 0.0
C287 C 0.80119 0.71931 0.97763 0.0
C288 C 0.76037 0.67857 0.005 0.0
O289 O 0.77608 0.67532 0.00575 0.0
O290 O 0.75882 0.69581 0.00591 0.0
C291 C 0.81944 0.66392 0.00268 0.0
O292 O 0.80478 0.65438 0.9912 0.0
C293 C 0.80041 0.72917 0.04331 0.0
Zn294 Zn 0.93304 0.52479 0.79344 0.0
Zn295 Zn 0.91354 0.55073 0.79624 0.0
O296 O 0.92856 0.55727 0.82195 0.0
O297 O 0.94178 0.53319 0.82088 0.0
O298 O 0.89995 0.5712 0.79898 0.0
O299 O 0.94692 0.53776 0.77461 0.0
O300 O 0.92764 0.55601 0.77388 0.0
C301 C 0.93851 0.5485 0.82988 0.0
C302 C 0.89495 0.50742 0.78546 0.0
O303 O 0.89399 0.52496 0.79036 0.0
O304 O 0.91024 0.50357 0.78485 0.0
C305 C 0.88344 0.56839 0.80208 0.0
O306 O 0.87414 0.55096 0.80356 0.0
C307 C 0.94107 0.55031 0.76768 0.0
Zn308 Zn 0.83878 0.41832 0.53566 0.0
Zn309 Zn 0.81243 0.43093 0.52808 0.0
O310 O 0.81402 0.41435 0.50245 0.0
O311 O 0.84157 0.41106 0.50829 0.0
O312 O 0.79082 0.44096 0.52444 0.0
O313 O 0.82466 0.39804 0.54811 0.0
O314 O 0.80508 0.41593 0.54904 0.0
C315 C 0.82781 0.40898 0.49674 0.0
C316 C 0.84855 0.45856 0.54506 0.0
O317 O 0.83355 0.45548 0.53488 0.0
O318 O 0.85297 0.44444 0.55052 0.0
C319 C 0.78824 0.4511 0.51242 0.0
O320 O 0.80044 0.45536 0.50074 0.0
C321 C 0.81045 0.40197 0.55387 0.0
Zn322 Zn 0.65348 0.53193 0.27172 0.0
Zn323 Zn 0.67258 0.50696 0.26839 0.0
O324 O 0.65808 0.50574 0.29501 0.0
O325 O 0.64349 0.52873 0.29634 0.0
O326 O 0.68768 0.48326 0.26559 0.0
O327 O 0.63783 0.52314 0.24683 0.0
O328 O 0.65657 0.50465 0.23991 0.0
C329 C 0.64786 0.51569 0.3038 0.0
C330 C 0.69096 0.55204 0.27283 0.0
O331 O 0.69316 0.53473 0.27216 0.0
O332 O 0.67511 0.55447 0.27245 0.0
C333 C 0.68999 0.47245 0.27766 0.0
O334 O 0.68252 0.47524 0.29349 0.0
C335 C 0.64362 0.51203 0.23443 0.0
Gd336 Gd 0.07622 0.05521 0.03386 0.0
Gd337 Gd 0.03149 0.02884 0.0113 0.0
C338 C 0.01518 0.96343 0.01249 0.0
C339 C 0.01567 0.94858 0.97971 0.0
C340 C 0.02261 0.98398 0.9895 0.0
C341 C 0.0202 0.98219 0.00801 0.0
C342 C 0.01967 0.96709 0.97506 0.0
C343 C 0.01346 0.94675 0.99839 0.0
C344 C 0.0117 0.96185 0.03096 0.0
C345 C 0.01258 0.97862 0.04432 0.0
N346 N 0.022 0.99861 0.02146 0.0
C347 C 0.01747 0.99685 0.03929 0.0
H348 H 0.01788 0.00918 0.05018 0.0
C349 C 0.0246 0.00381 0.9667 0.0
N350 N 0.02629 1.00203 0.98529 0.0
C351 C 0.02199 0.98761 0.952 0.0
C352 C 0.01995 0.96918 0.95622 0.0
H353 H 0.0254 0.01786 0.96305 0.0
H354 H 0.00987 0.93232 0.0017 0.0
H355 H 0.08406 0.07677 0.99691 0.0
H356 H 0.00793 0.94775 0.03494 0.0
H357 H 0.00953 0.97756 0.05858 0.0
H358 H 0.01363 0.93553 0.96884 0.0
H359 H 0.0865 0.06091 0.08038 0.0
H360 H 0.0957 0.1386 0.01628 0.0
H361 H 0.09155 0.10998 0.99018 0.0
H362 H 0.09896 0.14568 0.08377 0.0
H363 H 0.0213 0.98935 0.93742 0.0
H364 H 0.0177 0.95658 0.94478 0.0
H365 H 0.09804 0.15181 0.05132 0.0
H366 H 0.09496 0.08755 0.10871 0.0
N367 N 0.08352 0.08643 0.02641 0.0
C368 C 0.09241 0.12405 0.0193 0.0
C369 C 0.09016 0.10794 0.00455 0.0
C370 C 0.09113 0.12119 0.03788 0.0
C371 C 0.08675 0.10194 0.041 0.0
C372 C 0.08592 0.08913 0.00842 0.0
N373 N 0.08424 0.07981 0.06141 0.0
C374 C 0.08712 0.09851 0.05916 0.0
C375 C 0.09262 0.09083 0.09488 0.0
C376 C 0.09441 0.11011 0.09292 0.0
C377 C 0.08782 0.0758 0.07884 0.0
C378 C 0.09206 0.1142 0.07485 0.0
H379 H 0.09825 0.12175 0.10534 0.0
O380 O 0.09704 0.04339 0.04568 0.0
O381 O 0.05735 0.02533 0.02443 0.0
O382 O 0.02944 0.03847 0.04314 0.0
O383 O 0.05642 0.06169 0.05585 0.0
O384 O 0.06981 0.03322 0.05216 0.0
O385 O 0.10319 0.0613 0.02484 0.0
O386 O 0.01454 0.03697 0.9906 0.0
O387 O 0.05321 0.05658 0.01445 0.0
O388 O 0.07969 0.04289 0.00312 0.0
O389 O 0.05058 0.03111 0.98754 0.0
O390 O 0.02796 0.05897 0.02129 0.0
O391 O 1.00262 0.0238 0.01346 0.0
C392 C 0.05946 0.01924 0.03968 0.0
C393 C 0.09536 0.13342 0.0719 0.0
C394 C 0.09485 0.13691 0.05342 0.0
C395 C 0.10939 0.05171 0.03614 0.0
C396 C 0.12737 0.06089 0.04632 0.0
C397 C 0.13179 0.07983 0.05738 0.0
C398 C 0.14058 0.05048 0.04421 0.0
C399 C 0.15831 0.05898 0.05271 0.0
C400 C 0.14948 0.08827 0.06612 0.0
C401 C 0.1628 0.07795 0.06366 0.0
C402 C 0.03948 0.05195 0.05741 0.0
C403 C 0.04387 0.06865 0.01916 0.0
C404 C 0.99999 0.03157 0.99889 0.0
C405 C 0.98237 0.02471 0.98749 0.0
C406 C 0.97878 0.01001 0.97116 0.0
C407 C 0.96891 0.03392 0.99322 0.0
C408 C 0.95179 0.02869 0.9828 0.0
C409 C 0.96178 0.0048 0.96055 0.0
C410 C 0.94833 0.01411 0.96627 0.0
C411 C 0.06852 0.03529 0.98735 0.0
H412 H 0.12174 0.08812 0.05904 0.0
H413 H 0.13719 0.03589 0.03552 0.0
H414 H 0.15292 0.10289 0.07461 0.0
H415 H 0.17652 0.0847 0.07026 0.0
H416 H 0.98897 1.00264 0.96659 0.0
H417 H 0.97195 0.04552 0.00572 0.0
H418 H 0.959 0.9935 0.94788 0.0
H419 H 0.93521 0.00973 0.95795 0.0
Gd420 Gd 0.29237 0.80927 0.29946 0.0
Gd421 Gd 0.30721 0.78274 0.25764 0.0
C422 C 0.27444 0.7212 0.22799 0.0
C423 C 0.29815 0.70414 0.22446 0.0
C424 C 0.30482 0.73734 0.24277 0.0
C425 C 0.28727 0.73802 0.23826 0.0
C426 C 0.31044 0.72028 0.2361 0.0
C427 C 0.28008 0.70445 0.22069 0.0
C428 C 0.25623 0.72146 0.22585 0.0
C429 C 0.2511 0.73781 0.23474 0.0
N430 N 0.28245 0.75466 0.24514 0.0
C431 C 0.26433 0.75409 0.24469 0.0
H432 H 0.25962 0.76564 0.25265 0.0
C433 C 0.33399 0.75316 0.25833 0.0
N434 N 0.31636 0.7533 0.25387 0.0
C435 C 0.34005 0.73644 0.25257 0.0
C436 C 0.32824 0.71993 0.24131 0.0
H437 H 0.34381 0.7662 0.26573 0.0
H438 H 0.2705 0.69155 0.21248 0.0
H439 H 0.33998 0.82464 0.30514 0.0
H440 H 0.24596 0.70881 0.21821 0.0
H441 H 0.23691 0.73778 0.23424 0.0
H442 H 0.30233 0.69108 0.21891 0.0
H443 H 0.25658 0.82708 0.29117 0.0
H444 H 0.35517 0.88214 0.33807 0.0
H445 H 0.3632 0.85206 0.32341 0.0
H446 H 0.30059 0.90304 0.33373 0.0
H447 H 0.35401 0.73653 0.25633 0.0
H448 H 0.33304 0.70707 0.23658 0.0
H449 H 0.33173 0.90108 0.3417 0.0
H450 H 0.24782 0.85782 0.29816 0.0
N451 N 0.31764 0.83681 0.31191 0.0
C452 C 0.34461 0.86962 0.33068 0.0
C453 C 0.34916 0.85266 0.32255 0.0
C454 C 0.32667 0.8707 0.32793 0.0
C455 C 0.31342 0.85396 0.3181 0.0
C456 C 0.3356 0.83662 0.31273 0.0
N457 N 0.28426 0.83931 0.30243 0.0
C458 C 0.29621 0.8553 0.31298 0.0
C459 C 0.26159 0.85745 0.30219 0.0
C460 C 0.27392 0.87409 0.31256 0.0
C461 C 0.26686 0.84007 0.29769 0.0
C462 C 0.2914 0.87311 0.31833 0.0
H463 H 0.26975 0.8875 0.31629 0.0
O464 O 0.26416 0.80097 0.30406 0.0
O465 O 0.28876 0.78107 0.27962 0.0
O466 O 0.28321 0.791 0.24495 0.0
O467 O 0.27431 0.80837 0.27213 0.0
O468 O 0.2891 0.78002 0.30813 0.0
O469 O 0.28482 0.8139 0.3281 0.0
O470 O 0.3354 0.79295 0.25331 0.0
O471 O 0.31058 0.81118 0.27724 0.0
O472 O 0.31585 0.79984 0.31214 0.0
O473 O 0.3244 0.78235 0.28484 0.0
O474 O 0.30918 0.81156 0.24859 0.0
O475 O 0.31519 0.77781 0.2293 0.0
C476 C 0.28698 0.76981 0.29122 0.0
C477 C 0.30413 0.88936 0.32927 0.0
C478 C 0.32181 0.88821 0.33392 0.0
C479 C 0.26759 0.80584 0.32244 0.0
C480 C 0.25767 0.79152 0.33264 0.0
C481 C 0.23874 0.78801 0.33182 0.0
C482 C 0.26658 0.78058 0.3422 0.0
C483 C 0.25666 0.76601 0.35075 0.0
C484 C 0.22881 0.77363 0.34038 0.0
C485 C 0.23767 0.76263 0.34978 0.0
C486 C 0.27233 0.80092 0.25351 0.0
C487 C 0.31162 0.82217 0.26536 0.0
C488 C 0.33215 0.78718 0.23495 0.0
C489 C 0.34106 0.80117 0.2239 0.0
C490 C 0.3599 0.80511 0.22357 0.0
C491 C 0.33106 0.81088 0.21398 0.0
C492 C 0.33972 0.82443 0.20362 0.0
C493 C 0.36865 0.81858 0.21331 0.0
C494 C 0.35866 0.82817 0.20333 0.0
C495 C 0.32631 0.7894 0.30347 0.0
H496 H 0.23165 0.79629 0.32438 0.0
H497 H 0.28119 0.78316 0.34274 0.0
H498 H 0.2142 0.77099 0.33973 0.0
H499 H 0.2297 0.75174 0.35658 0.0
H500 H 0.36783 0.79776 0.23125 0.0
H501 H 0.31654 0.80797 0.21445 0.0
H502 H 0.3832 0.82151 0.213 0.0
H503 H 0.36573 0.83824 0.19515 0.0
Gd504 Gd 0.52521 0.03507 0.5279 0.0
Gd505 Gd 0.57162 0.0444 0.51302 0.0
C506 C 0.60825 0.10614 0.52174 0.0
C507 C 0.61222 0.10991 0.48937 0.0
C508 C 0.59386 0.07961 0.49566 0.0
C509 C 0.59709 0.08717 0.51487 0.0
C510 C 0.60182 0.09065 0.4827 0.0
C511 C 0.6154 0.11766 0.50887 0.0
C512 C 0.61241 0.1127 0.54131 0.0
C513 C 0.60593 0.1002 0.55345 0.0
N514 N 0.59022 0.07551 0.52687 0.0
C515 C 0.59505 0.08143 0.54593 0.0
H516 H 0.59018 0.07191 0.55547 0.0
C517 C 0.5828 0.05173 0.47127 0.0
N518 N 0.584 0.06088 0.48975 0.0
C519 C 0.59036 0.0621 0.45783 0.0
C520 C 0.59967 0.08175 0.46352 0.0
H521 H 0.57562 0.03654 0.46683 0.0
H522 H 0.62384 0.13235 0.51387 0.0
H523 H 0.50616 0.00801 0.48537 0.0
H524 H 0.62103 0.12713 0.54715 0.0
H525 H 0.60936 0.10499 0.5686 0.0
H526 H 0.61829 0.11872 0.47962 0.0
H527 H 0.52252 0.04218 0.57438 0.0
H528 H 0.47513 0.95278 0.49341 0.0
H529 H 0.4867 0.97512 0.47213 0.0
H530 H 0.47872 0.96039 0.56093 0.0
H531 H 0.58901 0.05492 0.44312 0.0
H532 H 0.60561 0.08971 0.4531 0.0
H533 H 0.47259 0.94721 0.52662 0.0
H534 H 0.50937 0.0235 0.59798 0.0
N535 N 0.50634 0.00414 0.51391 0.0
C536 C 0.48386 0.96714 0.49932 0.0
C537 C 0.49028 0.97975 0.48727 0.0
C538 C 0.48824 0.97348 0.51889 0.0
C539 C 0.49957 0.99236 0.52584 0.0
C540 C 0.50133 0.99842 0.49487 0.0
N541 N 0.51318 0.01829 0.55113 0.0
C542 C 0.50308 0.99968 0.54509 0.0
C543 C 0.50759 0.01658 0.58316 0.0
C544 C 0.49792 0.99707 0.57729 0.0
C545 C 0.515 0.02712 0.56978 0.0
C546 C 0.49531 0.98846 0.55801 0.0
H547 H 0.49214 0.98895 0.58767 0.0
O548 O 0.51079 0.05524 0.54181 0.0
O549 O 0.5506 0.05722 0.5264 0.0
O550 O 0.57027 0.03925 0.543 0.0
O551 O 0.5411 0.02096 0.54553 0.0
O552 O 0.53882 0.06096 0.55115 0.0
O553 O 0.5018 0.0399 0.51286 0.0
O554 O 0.58541 0.02309 0.50012 0.0
O555 O 0.54613 0.0225 0.51429 0.0
O556 O 0.52608 0.04034 0.49799 0.0
O557 O 0.55555 0.05712 0.49405 0.0
O558 O 0.55821 0.01821 0.48986 0.0
O559 O 0.59575 0.04078 0.5279 0.0
C560 C 0.55181 0.06865 0.54213 0.0
C561 C 0.48468 0.96932 0.55122 0.0
C562 C 0.48118 0.96182 0.53169 0.0
C563 C 0.4986 0.0518 0.52735 0.0
C564 C 0.47966 0.04858 0.53145 0.0
C565 C 0.47148 0.03269 0.53936 0.0
C566 C 0.46956 0.06144 0.52715 0.0
C567 C 0.45126 0.05839 0.53062 0.0
C568 C 0.4534 0.02967 0.54298 0.0
C569 C 0.44331 0.0424 0.53862 0.0
C570 C 0.55881 0.02631 0.5503 0.0
C571 C 0.54489 0.01088 0.4987 0.0
C572 C 0.59826 0.02765 0.51409 0.0
C573 C 0.61683 0.03009 0.50889 0.0
C574 C 0.62481 0.0456 0.5004 0.0
C575 C 0.62661 0.01656 0.51217 0.0
C576 C 0.64426 0.0184 0.50677 0.0
C577 C 0.64229 0.04755 0.49508 0.0
C578 C 0.65197 0.03408 0.49821 0.0
C579 C 0.53779 0.05179 0.48946 0.0
H580 H 0.47903 0.02263 0.54272 0.0
H581 H 0.47586 0.07359 0.52082 0.0
H582 H 0.44716 0.01742 0.54915 0.0
H583 H 0.42933 0.03982 0.54169 0.0
H584 H 0.61756 0.05619 0.49788 0.0
H585 H 0.62037 0.00449 0.51862 0.0
H586 H 0.64837 0.05958 0.48854 0.0
H587 H 0.66561 0.03609 0.49414 0.0
Gd588 Gd 0.32603 0.28792 0.77597 0.0
Gd589 Gd 0.28086 0.29736 0.76846 0.0
C590 C 0.25586 0.29305 0.70822 0.0
C591 C 0.25523 0.3266 0.7083 0.0
C592 C 0.26642 0.31766 0.73676 0.0
C593 C 0.26353 0.29865 0.72727 0.0
C594 C 0.26174 0.33176 0.72761 0.0
C595 C 0.25233 0.30726 0.69859 0.0
C596 C 0.25115 0.27323 0.69974 0.0
C597 C 0.25324 0.25955 0.71055 0.0
N598 N 0.26674 0.28532 0.73718 0.0
C599 C 0.26087 0.26586 0.72942 0.0
H600 H 0.26255 0.25508 0.73746 0.0
C601 C 0.27267 0.3397 0.76623 0.0
N602 N 0.27243 0.32198 0.75543 0.0
C603 C 0.2682 0.35422 0.75783 0.0
C604 C 0.26303 0.35035 0.73835 0.0
H605 H 0.27685 0.34282 0.78126 0.0
H606 H 0.24668 0.30329 0.68387 0.0
H607 H 0.34418 0.33014 0.80705 0.0
H608 H 0.24524 0.26831 0.68513 0.0
H609 H 0.24914 0.24413 0.70432 0.0
H610 H 0.25179 0.33728 0.70092 0.0
H611 H 0.32923 0.24216 0.76304 0.0
H612 H 0.36289 0.31684 0.85881 0.0
H613 H 0.35809 0.34104 0.84003 0.0
H614 H 0.3559 0.24784 0.84293 0.0
H615 H 0.26884 0.36839 0.76635 0.0
H616 H 0.25952 0.36159 0.73187 0.0
H617 H 0.36149 0.28188 0.85995 0.0
H618 H 0.33731 0.21651 0.77778 0.0
N619 N 0.34033 0.2999 0.80715 0.0
C620 C 0.35661 0.31194 0.84434 0.0
C621 C 0.35403 0.32563 0.83375 0.0
C622 C 0.35182 0.29213 0.83583 0.0
C623 C 0.34377 0.28654 0.81691 0.0
C624 C 0.34613 0.31935 0.81497 0.0
N625 N 0.33417 0.26308 0.78886 0.0
C626 C 0.34059 0.26745 0.80743 0.0
C627 C 0.33819 0.23074 0.78632 0.0
C628 C 0.34376 0.23467 0.80571 0.0
C629 C 0.33367 0.24529 0.77801 0.0
C630 C 0.34539 0.25333 0.81646 0.0
H631 H 0.34733 0.2234 0.81211 0.0
O632 O 0.34276 0.27892 0.75445 0.0
O633 O 0.30432 0.28992 0.75523 0.0
O634 O 0.27856 0.2649 0.76869 0.0
O635 O 0.30569 0.26227 0.7835 0.0
O636 O 0.31525 0.26624 0.74886 0.0
O637 O 0.35246 0.30667 0.77368 0.0
O638 O 0.26398 0.30642 0.78981 0.0
O639 O 0.30268 0.29564 0.78924 0.0
O640 O 0.32852 0.32039 0.77556 0.0
O641 O 0.30122 0.32324 0.76125 0.0
O642 O 0.29164 0.31931 0.7953 0.0
O643 O 0.25485 0.27818 0.77137 0.0
C644 C 0.3039 0.27501 0.74286 0.0
C645 C 0.35235 0.25853 0.83565 0.0
C646 C 0.35554 0.27791 0.84533 0.0
C647 C 0.35629 0.29422 0.76008 0.0
C648 C 0.37437 0.29046 0.76228 0.0
C649 C 0.37993 0.28444 0.77856 0.0
C650 C 0.38606 0.29247 0.74794 0.0
C651 C 0.40319 0.28834 0.74984 0.0
C652 C 0.39679 0.28039 0.78056 0.0
C653 C 0.40834 0.28232 0.76639 0.0
C654 C 0.2883 0.25487 0.77684 0.0
C655 C 0.30308 0.31071 0.80141 0.0
C656 C 0.25082 0.29068 0.78476 0.0
C657 C 0.23235 0.29351 0.78269 0.0
C658 C 0.22634 0.29953 0.76658 0.0
C659 C 0.22052 0.29006 0.79672 0.0
C660 C 0.20268 0.29219 0.79433 0.0
C661 C 0.20881 0.30191 0.76432 0.0
C662 C 0.19701 0.29815 0.778 0.0
C663 C 0.3187 0.33052 0.76768 0.0
H664 H 0.37124 0.28291 0.78975 0.0
H665 H 0.3817 0.29697 0.73528 0.0
H666 H 0.40098 0.27579 0.79321 0.0
H667 H 0.42148 0.27938 0.76858 0.0
H668 H 0.23518 0.30227 0.75569 0.0
H669 H 0.22505 0.28538 0.80921 0.0
H670 H 0.20429 0.30656 0.75185 0.0
H671 H 0.18342 0.29999 0.77588 0.0
Gd672 Gd 0.05487 0.01692 0.50814 0.0
Gd673 Gd 0.05193 0.063 0.53391 0.0
C674 C 0.05823 0.07785 0.59835 0.0
C675 C 0.0286 0.08236 0.60508 0.0
C676 C 0.03518 0.07438 0.57248 0.0
C677 C 0.05238 0.07336 0.57879 0.0
C678 C 0.02332 0.07945 0.5856 0.0
C679 C 0.04604 0.08162 0.61144 0.0
C680 C 0.07643 0.07956 0.60418 0.0
C681 C 0.08849 0.07759 0.59065 0.0
N682 N 0.064 0.06999 0.56582 0.0
C683 C 0.08207 0.07315 0.57142 0.0
H684 H 0.09158 0.07192 0.56112 0.0
C685 C 0.01524 0.07647 0.54701 0.0
N686 N 0.03063 0.07206 0.55356 0.0
C687 C 0.00299 0.0813 0.55947 0.0
C688 C 0.00686 0.08241 0.57882 0.0
H689 H 0.01215 0.07604 0.53216 0.0
H690 H 0.05022 0.08478 0.62652 0.0
H691 H 0.01295 0.00634 0.48495 0.0
H692 H 0.08146 0.08326 0.61907 0.0
H693 H 0.10272 0.07953 0.595 0.0
H694 H 0.01958 0.08602 0.61535 0.0
H695 H 0.09693 0.01128 0.50576 0.0
H696 H 0.01712 0.99334 0.42557 0.0
H697 H 0.99855 0.9975 0.45214 0.0
H698 H 0.07973 0.9939 0.4226 0.0
H699 H 0.99061 0.08427 0.55415 0.0
H700 H 0.99741 0.08633 0.58845 0.0
H701 H 0.04753 0.99224 0.41466 0.0
H702 H 0.11694 0.00409 0.48137 0.0
N703 N 0.03968 0.00788 0.47725 0.0
C704 C 0.02357 0.99728 0.43999 0.0
C705 C 0.01304 0.99955 0.45495 0.0
C706 C 0.0422 0.99949 0.44386 0.0
C707 C 0.04993 0.00471 0.4629 0.0
C708 C 0.02131 0.00459 0.47359 0.0
N709 N 0.07466 0.00968 0.48584 0.0
C710 C 0.068 0.00561 0.46734 0.0
C711 C 0.10323 0.00454 0.47722 0.0
C712 C 0.09682 1.00117 0.45808 0.0
C713 C 0.09183 0.00857 0.491 0.0
C714 C 0.07892 1.00139 0.45292 0.0
H715 H 0.10565 0.998 0.44743 0.0
O716 O 0.06321 0.9931 0.51738 0.0
O717 O 0.05783 0.03471 0.53789 0.0
O718 O 0.08057 0.06247 0.52769 0.0
O719 O 0.07671 0.03992 0.49972 0.0
O720 O 0.07799 0.02109 0.53088 0.0
O721 O 0.03537 0.98898 0.50552 0.0
O722 O 0.0561 0.08492 0.51634 0.0
O723 O 0.04829 0.04479 0.50453 0.0
O724 O 0.02671 0.0147 0.51724 0.0
O725 O 0.02648 0.04247 0.53944 0.0
O726 O 0.0287 0.05928 0.51134 0.0
O727 O 0.06601 0.09307 0.54598 0.0
C728 C 0.07231 0.03118 0.54471 0.0
C729 C 0.07151 0.99702 0.4339 0.0
C730 C 0.05318 0.99609 0.42938 0.0
C731 C 0.04722 0.98111 0.5126 0.0
C732 C 0.0467 0.96105 0.504 0.0
C733 C 0.04835 0.95525 0.48474 0.0
C734 C 0.04459 0.94746 0.51575 0.0
C735 C 0.04398 0.92791 0.5085 0.0
C736 C 0.0477 0.93574 0.47736 0.0
C737 C 0.04543 0.92207 0.48913 0.0
C738 C 0.08639 0.05563 0.51163 0.0
C739 C 0.03366 0.04806 0.49775 0.0
C740 C 0.06344 0.09912 0.53044 0.0
C741 C 0.05663 0.11658 0.53185 0.0
C742 C 0.04582 0.1217 0.54597 0.0
C743 C 0.06139 0.12852 0.51877 0.0
C744 C 0.05555 0.14562 0.51969 0.0
C745 C 0.03976 0.1386 0.54682 0.0
C746 C 0.04463 0.15058 0.53379 0.0
C747 C 0.0189 0.02452 0.53007 0.0
H748 H 0.05008 0.9657 0.47553 0.0
H749 H 0.04313 0.9521 0.53059 0.0
H750 H 0.04893 0.93119 0.46248 0.0
H751 H 0.04499 0.90703 0.48319 0.0
H752 H 0.0422 0.11281 0.55641 0.0
H753 H 0.07009 0.12471 0.50817 0.0
H754 H 0.03142 0.1425 0.5577 0.0
H755 H 0.0399 0.16369 0.53473 0.0
Gd756 Gd 0.28686 0.77876 0.77811 0.0
Gd757 Gd 0.32615 0.81296 0.76939 0.0
C758 C 0.32482 0.86926 0.74933 0.0
C759 C 0.33594 0.86396 0.71851 0.0
C760 C 0.33322 0.83926 0.73784 0.0
C761 C 0.32641 0.85067 0.75159 0.0
C762 C 0.33843 0.84596 0.72131 0.0
C763 C 0.32914 0.8756 0.7325 0.0
C764 C 0.31967 0.88124 0.76435 0.0
C765 C 0.31699 0.87492 0.78136 0.0
N766 N 0.32273 0.84427 0.76782 0.0
C767 C 0.31886 0.85642 0.78294 0.0
H768 H 0.3168 0.85178 0.79619 0.0
C769 C 0.34441 0.81147 0.729 0.0
N770 N 0.33568 0.82208 0.74113 0.0
C771 C 0.34979 0.81748 0.7124 0.0
C772 C 0.34655 0.83466 0.7084 0.0
H773 H 0.34706 0.79818 0.73183 0.0
H774 H 0.32782 0.88974 0.73043 0.0
H775 H 0.29341 0.74069 0.74697 0.0
H776 H 0.31832 0.89561 0.76318 0.0
H777 H 0.31343 0.88424 0.79324 0.0
H778 H 0.33971 0.86927 0.70583 0.0
H779 H 0.2709 0.79238 0.81915 0.0
H780 H 0.29405 0.69423 0.77596 0.0
H781 H 0.29654 0.7076 0.74675 0.0
H782 H 0.27908 0.71813 0.83767 0.0
H783 H 0.35638 0.80883 0.70269 0.0
H784 H 0.35077 0.83931 0.69555 0.0
H785 H 0.28775 0.6984 0.80997 0.0
H786 H 0.26487 0.78028 0.8486 0.0
N787 N 0.28961 0.74661 0.77625 0.0
C788 C 0.29266 0.70887 0.77618 0.0
C789 C 0.29402 0.71634 0.75966 0.0
C790 C 0.289 0.72018 0.79263 0.0
C791 C 0.28738 0.73918 0.79216 0.0
C792 C 0.29222 0.73522 0.75988 0.0
N793 N 0.28007 0.76797 0.80632 0.0
C794 C 0.28246 0.75022 0.8077 0.0
C795 C 0.26986 0.7717 0.83723 0.0
C796 C 0.27299 0.75382 0.83918 0.0
C797 C 0.27325 0.77848 0.82051 0.0
C798 C 0.27909 0.74268 0.82421 0.0
H799 H 0.27028 0.74855 0.85212 0.0
O800 O 0.25869 0.77902 0.77942 0.0
O801 O 0.29588 0.80823 0.76992 0.0
O802 O 0.31946 0.8193 0.79955 0.0
O803 O 0.30533 0.7891 0.80523 0.0
O804 O 0.27839 0.80617 0.79032 0.0
O805 O 0.26637 0.75988 0.75625 0.0
O806 O 0.3543 0.81199 0.77265 0.0
O807 O 0.31682 0.78348 0.77748 0.0
O808 O 0.29244 0.77353 0.74745 0.0
O809 O 0.30909 0.80284 0.74151 0.0
O810 O 0.33481 0.7853 0.75777 0.0
O811 O 0.34542 0.8348 0.79043 0.0
C812 C 0.28656 0.81782 0.78018 0.0
C813 C 0.28146 0.72412 0.82506 0.0
C814 C 0.2864 0.71288 0.80929 0.0
C815 C 0.25316 0.76553 0.7642 0.0
C816 C 0.23672 0.75047 0.7648 0.0
C817 C 0.23633 0.7361 0.7756 0.0
C818 C 0.22087 0.75108 0.75457 0.0
C819 C 0.20445 0.73742 0.75492 0.0
C820 C 0.22 0.72242 0.77609 0.0
C821 C 0.20409 0.72308 0.76586 0.0
C822 C 0.31458 0.80737 0.81124 0.0
C823 C 0.32597 0.77357 0.76742 0.0
C824 C 0.35914 0.82818 0.78519 0.0
C825 C 0.37535 0.84238 0.782 0.0
C826 C 0.3743 0.8585 0.77402 0.0
C827 C 0.39228 0.83931 0.78669 0.0
C828 C 0.40825 0.85214 0.78345 0.0
C829 C 0.39014 0.87137 0.77079 0.0
C830 C 0.40708 0.86827 0.7755 0.0
C831 C 0.29843 0.78514 0.73571 0.0
H832 H 0.24851 0.73552 0.78366 0.0
H833 H 0.22129 0.7626 0.74665 0.0
H834 H 0.21967 0.71135 0.78448 0.0
H835 H 0.19157 0.71236 0.76639 0.0
H836 H 0.36134 0.86117 0.77034 0.0
H837 H 0.39298 0.82698 0.79311 0.0
H838 H 0.38929 0.88378 0.76461 0.0
H839 H 0.4192 0.87835 0.77282 0.0
Gd840 Gd 0.54119 0.05788 0.98474 0.0
Gd841 Gd 0.54987 0.03781 0.02765 0.0
C842 C 0.60414 0.05525 0.06444 0.0
C843 C 0.61493 0.02598 0.05688 0.0
C844 C 0.58607 0.02725 0.04171 0.0
C845 C 0.58858 0.04626 0.05143 0.0
C846 C 0.59908 0.0168 0.04453 0.0
C847 C 0.61748 0.04519 0.06678 0.0
C848 C 0.60548 0.07378 0.07529 0.0
C849 C 0.59128 0.0826 0.07346 0.0
N850 N 0.57528 0.05547 0.04911 0.0
C851 C 0.57615 0.07315 0.06032 0.0
H852 H 0.56534 0.08024 0.05916 0.0
C853 C 0.56627 0.99916 0.02226 0.0
N854 N 0.57036 0.01857 0.03035 0.0
C855 C 0.57895 0.98835 0.02424 0.0
C856 C 0.59551 0.99725 0.03528 0.0
H857 H 0.55341 0.99228 0.01379 0.0
H858 H 0.62959 0.05195 0.07657 0.0
H859 H 0.52479 0.0122 0.95856 0.0
H860 H 0.61719 0.08116 0.08547 0.0
H861 H 0.59201 0.09676 0.08207 0.0
H862 H 0.62515 0.01825 0.05914 0.0
H863 H 0.53835 0.10366 0.98881 0.0
H864 H 0.47093 0.00663 0.93456 0.0
H865 H 0.49676 0.99231 0.93948 0.0
H866 H 0.46349 0.07145 0.95131 0.0
H867 H 0.57591 0.97313 0.01736 0.0
H868 H 0.60523 0.98878 0.03697 0.0
H869 H 0.45864 0.03627 0.93904 0.0
H870 H 0.51546 0.12165 0.98272 0.0
N871 N 0.51509 0.03776 0.96521 0.0
C872 C 0.48326 0.01551 0.94308 0.0
C873 C 0.49782 0.0074 0.94578 0.0
C874 C 0.48502 0.03515 0.9509 0.0
C875 C 0.50132 0.04602 0.96199 0.0
C876 C 0.51379 0.01885 0.95669 0.0
N877 N 0.52029 0.07576 0.97841 0.0
C878 C 0.50399 0.06569 0.96891 0.0
C879 C 0.51197 0.10588 0.97893 0.0
C880 C 0.49463 0.09559 0.97038 0.0
C881 C 0.52484 0.09569 0.98242 0.0
C882 C 0.4906 0.07527 0.96479 0.0
H883 H 0.48472 0.1035 0.9675 0.0
O884 O 0.55758 0.07991 0.97193 0.0
O885 O 0.55978 0.0579 0.00898 0.0
O886 O 0.54041 0.06545 0.03554 0.0
O887 O 0.52874 0.07341 0.00788 0.0
O888 O 0.56425 0.08347 1.00014 0.0
O889 O 0.55143 0.04927 0.95813 0.0
O890 O 0.53547 0.01449 0.0405 0.0
O891 O 0.53051 0.03912 0.00451 0.0
O892 O 0.55116 0.03013 0.97851 0.0
O893 O 0.56834 0.03051 0.00636 0.0
O894 O 0.52764 0.01221 0.01088 0.0
O895 O 0.53873 0.04493 0.05399 0.0
C896 C 0.57033 0.07467 0.01216 0.0
C897 C 0.47402 0.0644 0.95448 0.0
C898 C 0.47127 0.04438 0.94747 0.0
C899 C 0.55879 0.06728 0.95705 0.0
C900 C 0.55579 0.07257 0.93885 0.0
C901 C 0.53981 0.07713 0.93286 0.0
C902 C 0.56956 0.07282 0.92718 0.0
C903 C 0.56772 0.07755 0.90936 0.0
C904 C 0.53781 0.08186 0.91502 0.0
C905 C 0.55168 0.08196 0.90319 0.0
C906 C 0.53154 0.07548 0.02647 0.0
C907 C 0.52064 0.02208 1.00066 0.0
C908 C 0.53366 0.0267 0.05556 0.0
C909 C 0.53925 0.0229 0.07394 0.0
C910 C 0.55441 0.01554 0.07685 0.0
C911 C 0.52995 0.02823 0.08922 0.0
C912 C 0.53587 0.02669 0.10746 0.0
C913 C 0.56036 0.01398 0.09504 0.0
C914 C 0.55123 0.01971 0.11039 0.0
C915 C 0.56404 0.02494 0.98793 0.0
H916 H 0.52895 0.07692 0.9418 0.0
H917 H 0.58163 0.06875 0.93185 0.0
H918 H 0.52546 0.0853 0.91031 0.0
H919 H 0.54991 0.0854 0.88932 0.0
H920 H 0.56171 0.01118 0.06519 0.0
H921 H 0.51834 0.03409 0.087 0.0
H922 H 0.57213 0.00845 0.09726 0.0
H923 H 0.55597 0.01846 0.12443 0.0
Gd924 Gd 0.27113 0.24688 0.25132 0.0
Gd925 Gd 0.29983 0.29529 0.27387 0.0
C926 C 0.36124 0.31507 0.2737 0.0
C927 C 0.37195 0.32099 0.3071 0.0
C928 C 0.33969 0.30903 0.29648 0.0
C929 C 0.34327 0.30865 0.27794 0.0
C930 C 0.35396 0.31554 0.31133 0.0
C931 C 0.37558 0.32083 0.28832 0.0
C932 C 0.36422 0.31612 0.25499 0.0
C933 C 0.34951 0.31061 0.241 0.0
N934 N 0.32911 0.30297 0.26414 0.0
C935 C 0.33198 0.30401 0.24583 0.0
H936 H 0.32084 0.29978 0.23479 0.0
C937 C 0.31785 0.30701 0.31834 0.0
N938 N 0.32214 0.30424 0.30009 0.0
C939 C 0.33151 0.31306 0.33353 0.0
C940 C 0.34967 0.31713 0.33001 0.0
H941 H 0.30382 0.30413 0.32114 0.0
H942 H 0.38949 0.32559 0.28528 0.0
H943 H 0.26831 0.21235 0.27769 0.0
H944 H 0.37779 0.32141 0.25127 0.0
H945 H 0.35165 0.31144 0.22647 0.0
H946 H 0.3831 0.32591 0.3183 0.0
H947 H 0.2458 0.26754 0.22402 0.0
H948 H 0.2162 0.20134 0.29809 0.0
H949 H 0.24672 0.19548 0.29699 0.0
H950 H 0.18394 0.23524 0.2633 0.0
H951 H 0.32803 0.31476 0.34793 0.0
H952 H 0.36024 0.32207 0.34181 0.0
H953 H 0.19288 0.21617 0.28537 0.0
H954 H 0.21499 0.27037 0.21977 0.0
N955 N 0.25101 0.22943 0.2696 0.0
C956 C 0.2258 0.20919 0.28997 0.0
C957 C 0.24299 0.20583 0.28938 0.0
C958 C 0.22084 0.22172 0.27915 0.0
C959 C 0.23388 0.23169 0.26886 0.0
C960 C 0.25526 0.21564 0.27862 0.0
N961 N 0.24161 0.25164 0.24646 0.0
C962 C 0.22894 0.2428 0.2567 0.0
C963 C 0.21875 0.26273 0.23034 0.0
C964 C 0.20582 0.25426 0.24115 0.0
C965 C 0.23653 0.26113 0.23303 0.0
C966 C 0.21077 0.24408 0.25445 0.0
H967 H 0.19199 0.2553 0.23881 0.0
O968 O 0.27055 0.23523 0.22123 0.0
O969 O 0.29806 0.26755 0.25394 0.0
O970 O 0.2909 0.29618 0.24396 0.0
O971 O 0.27477 0.26483 0.22867 0.0
O972 O 0.29773 0.23867 0.25454 0.0
O973 O 0.26182 0.21579 0.24016 0.0
O974 O 0.29101 0.31905 0.29019 0.0
O975 O 0.27149 0.27665 0.26556 0.0
O976 O 0.28235 0.24723 0.28174 0.0
O977 O 0.30693 0.27478 0.29103 0.0
O978 O 0.27843 0.29041 0.29367 0.0
O979 O 0.30369 0.32277 0.2646 0.0
C980 C 0.30785 0.2559 0.25494 0.0
C981 C 0.19796 0.23465 0.26506 0.0
C982 C 0.20303 0.2237 0.27757 0.0
C983 C 0.26618 0.21723 0.22329 0.0
C984 C 0.27785 0.20498 0.21533 0.0
C985 C 0.27906 0.20131 0.19579 0.0
C986 C 0.28823 0.19733 0.22723 0.0
C987 C 0.29983 0.18621 0.21978 0.0
C988 C 0.29052 0.19012 0.18825 0.0
C989 C 0.30087 0.18259 0.20016 0.0
C990 C 0.28196 0.28349 0.2289 0.0
C991 C 0.26541 0.2797 0.28133 0.0
C992 C 0.29698 0.3309 0.27907 0.0
C993 C 0.30673 0.35079 0.28803 0.0
C994 C 0.32231 0.35516 0.30095 0.0
C995 C 0.30004 0.36578 0.28317 0.0
C996 C 0.30875 0.38527 0.29099 0.0
C997 C 0.33098 0.37461 0.30903 0.0
C998 C 0.32421 0.38968 0.30413 0.0
C999 C 0.29669 0.25808 0.29358 0.0
H1000 H 0.27121 0.20716 0.1864 0.0
H1001 H 0.28718 0.19985 0.24232 0.0
H1002 H 0.29144 0.18735 0.17316 0.0
H1003 H 0.30981 0.17412 0.19405 0.0
H1004 H 0.32772 0.3437 0.3048 0.0
H1005 H 0.28783 0.36219 0.27335 0.0
H1006 H 0.34297 0.37801 0.31905 0.0
H1007 H 0.33112 0.40468 0.3104 0.0
Gd1008 Gd 0.55514 0.51601 0.00772 0.0
Gd1009 Gd 0.55095 0.56185 0.03299 0.0
C1010 C 0.55703 0.579 0.09749 0.0
C1011 C 0.52707 0.5828 0.10375 0.0
C1012 C 0.53388 0.57403 0.07135 0.0
C1013 C 0.55125 0.574 0.0779 0.0
C1014 C 0.52172 0.5789 0.0842 0.0
C1015 C 0.5447 0.58286 0.11038 0.0
C1016 C 0.57522 0.58076 0.10349 0.0
C1017 C 0.58729 0.5784 0.09007 0.0
N1018 N 0.5629 0.57049 0.06507 0.0
C1019 C 0.58093 0.57356 0.07081 0.0
H1020 H 0.59044 0.57186 0.0606 0.0
C1021 C 0.51312 0.573 0.04532 0.0
N1022 N 0.52924 0.57049 0.05236 0.0
C1023 C 0.5006 0.5777 0.05751 0.0
C1024 C 0.5048 0.58036 0.07703 0.0
H1025 H 0.50966 0.57122 0.03033 0.0
H1026 H 0.54883 0.58651 0.12548 0.0
H1027 H 0.51441 0.50445 0.98201 0.0
H1028 H 0.58018 0.58457 0.11841 0.0
H1029 H 0.6015 0.58025 0.09452 0.0
H1030 H 0.51786 0.58637 0.11383 0.0
H1031 H 0.5978 0.51096 0.00811 0.0
H1032 H 0.52229 0.49302 0.92339 0.0
H1033 H 0.50192 0.496 0.94849 0.0
H1034 H 0.58554 0.49525 0.92461 0.0
H1035 H 0.48773 0.5793 0.05183 0.0
H1036 H 0.4951 0.58408 0.08643 0.0
H1037 H 0.55359 0.49295 0.91461 0.0
H1038 H 0.61944 0.50499 0.98524 0.0
N1039 N 0.54177 0.507 0.97611 0.0
C1040 C 0.52788 0.49681 0.93812 0.0
C1041 C 0.51634 0.49842 0.95224 0.0
C1042 C 0.54641 0.49944 0.9432 0.0
C1043 C 0.55301 0.50444 0.96258 0.0
C1044 C 0.52351 0.50326 0.97127 0.0
N1045 N 0.57653 0.50947 0.98699 0.0
C1046 C 0.57094 0.50566 0.96819 0.0
C1047 C 0.60586 0.50522 0.98025 0.0
C1048 C 0.60057 0.50216 0.96088 0.0
C1049 C 0.59353 0.50859 0.99318 0.0
C1050 C 0.58285 0.50204 0.9546 0.0
H1051 H 0.61014 0.49947 0.95089 0.0
O1052 O 0.56157 0.49307 0.02023 0.0
O1053 O 0.55746 0.534 0.03723 0.0
O1054 O 0.57986 0.56228 0.02679 0.0
O1055 O 0.5771 0.53899 0.9995 0.0
O1056 O 0.578 0.52078 0.03097 0.0
O1057 O 0.53662 0.487 0.00173 0.0
O1058 O 0.54852 0.58419 0.01729 0.0
O1059 O 0.54826 0.54357 0.00366 0.0
O1060 O 0.52643 0.51441 0.0154 0.0
O1061 O 0.52767 0.53999 0.0406 0.0
O1062 O 0.52781 0.5568 0.0099 0.0
O1063 O 0.56914 0.59092 0.04104 0.0
C1064 C 0.57205 0.53103 0.04448 0.0
C1065 C 0.57656 0.49792 0.93526 0.0
C1066 C 0.55837 0.49662 0.92957 0.0
C1067 C 0.54704 0.48003 0.01201 0.0
C1068 C 0.54961 0.46079 0.00452 0.0
C1069 C 0.5586 0.4572 0.98845 0.0
C1070 C 0.54448 0.44632 0.01507 0.0
C1071 C 0.54889 0.42836 0.01027 0.0
C1072 C 0.56262 0.43919 0.9832 0.0
C1073 C 0.55797 0.42489 0.9941 0.0
C1074 C 0.58627 0.55507 0.01126 0.0
C1075 C 0.53347 0.54614 0.99648 0.0
C1076 C 0.56147 0.59749 0.02798 0.0
C1077 C 0.558 0.61665 0.03319 0.0
C1078 C 0.54837 0.6215 0.04847 0.0
C1079 C 0.56377 0.63001 0.02168 0.0
C1080 C 0.56009 0.64834 0.02521 0.0
C1081 C 0.54453 0.63975 0.05205 0.0
C1082 C 0.5503 0.65313 0.04044 0.0
C1083 C 0.51933 0.52291 0.02985 0.0
H1084 H 0.56275 0.46833 0.98024 0.0
H1085 H 0.53728 0.44931 0.02729 0.0
H1086 H 0.56972 0.43646 0.97088 0.0
H1087 H 0.56186 0.41136 0.99008 0.0
H1088 H 0.54376 0.61123 0.05746 0.0
H1089 H 0.57084 0.62589 0.00963 0.0
H1090 H 0.53704 0.64351 0.06379 0.0
H1091 H 0.54728 0.66723 0.04347 0.0
Gd1092 Gd 0.78508 0.27548 0.27755 0.0
Gd1093 Gd 0.82466 0.3087 0.26814 0.0
C1094 C 0.82363 0.3672 0.25294 0.0
C1095 C 0.83179 0.36294 0.22074 0.0
C1096 C 0.82991 0.33686 0.23827 0.0
C1097 C 0.82489 0.34813 0.25362 0.0
C1098 C 0.83377 0.34428 0.22179 0.0
C1099 C 0.82672 0.37438 0.23628 0.0
C1100 C 0.81986 0.3787 0.26922 0.0
C1101 C 0.81809 0.37136 0.2858 0.0
N1102 N 0.82229 0.34087 0.26959 0.0
C1103 C 0.81961 0.35242 0.28581 0.0
H1104 H 0.81823 0.34701 0.29876 0.0
C1105 C 0.83867 0.30819 0.22585 0.0
N1106 N 0.83186 0.31898 0.23982 0.0
C1107 C 0.8426 0.31489 0.20919 0.0
C1108 C 0.83994 0.33291 0.20705 0.0
H1109 H 0.8407 0.29421 0.22732 0.0
H1110 H 0.82567 0.38893 0.23545 0.0
H1111 H 0.79206 0.23698 0.24774 0.0
H1112 H 0.81873 0.39341 0.26926 0.0
H1113 H 0.81553 0.38027 0.29858 0.0
H1114 H 0.83455 0.36884 0.20813 0.0
H1115 H 0.76722 0.28981 0.31732 0.0
H1116 H 0.78931 0.1903 0.27728 0.0
H1117 H 0.79404 0.20356 0.24818 0.0
H1118 H 0.77143 0.21498 0.33729 0.0
H1119 H 0.84763 0.30611 0.198 0.0
H1120 H 0.84304 0.33808 0.19415 0.0
H1121 H 0.78121 0.19483 0.31067 0.0
H1122 H 0.75865 0.27779 0.34613 0.0
N1123 N 0.787 0.24318 0.27659 0.0
C1124 C 0.78858 0.20511 0.27723 0.0
C1125 C 0.79117 0.21251 0.26076 0.0
C1126 C 0.78441 0.21668 0.29322 0.0
C1127 C 0.78356 0.23585 0.29238 0.0
C1128 C 0.79005 0.23155 0.2606 0.0
N1129 N 0.77636 0.26501 0.30545 0.0
C1130 C 0.77801 0.2471 0.30729 0.0
C1131 C 0.76415 0.26904 0.33535 0.0
C1132 C 0.76648 0.25098 0.33779 0.0
C1133 C 0.76904 0.2758 0.31895 0.0
C1134 C 0.77325 0.23964 0.32356 0.0
H1135 H 0.76266 0.24576 0.3505 0.0
O1136 O 0.75699 0.27673 0.27725 0.0
O1137 O 0.79478 0.30511 0.26988 0.0
O1138 O 0.81986 0.31395 0.29884 0.0
O1139 O 0.80346 0.28458 0.30481 0.0
O1140 O 0.77786 0.30345 0.29065 0.0
O1141 O 0.76513 0.25686 0.25511 0.0
O1142 O 0.85249 0.3067 0.26754 0.0
O1143 O 0.81501 0.27925 0.27611 0.0
O1144 O 0.79067 0.26993 0.24686 0.0
O1145 O 0.80565 0.30003 0.24161 0.0
O1146 O 0.83185 0.28061 0.25519 0.0
O1147 O 0.84581 0.32865 0.28868 0.0
C1148 C 0.78619 0.31513 0.28065 0.0
C1149 C 0.77488 0.22091 0.32485 0.0
C1150 C 0.78046 0.20945 0.3097 0.0
C1151 C 0.75182 0.26315 0.26206 0.0
C1152 C 0.73476 0.24865 0.26181 0.0
C1153 C 0.73359 0.23243 0.27029 0.0
C1154 C 0.71929 0.25124 0.25246 0.0
C1155 C 0.7025 0.23773 0.25136 0.0
C1156 C 0.71687 0.21881 0.26918 0.0
C1157 C 0.70136 0.22136 0.25967 0.0
C1158 C 0.81485 0.30194 0.31045 0.0
C1159 C 0.82356 0.26913 0.26542 0.0
C1160 C 0.85863 0.32162 0.28142 0.0
C1161 C 0.87522 0.33562 0.27886 0.0
C1162 C 0.87485 0.35115 0.26975 0.0
C1163 C 0.89183 0.33304 0.28555 0.0
C1164 C 0.9082 0.34585 0.28327 0.0
C1165 C 0.89109 0.364 0.26744 0.0
C1166 C 0.90772 0.36144 0.27419 0.0
C1167 C 0.79549 0.28219 0.23542 0.0
H1168 H 0.7455 0.23028 0.2776 0.0
H1169 H 0.7204 0.26374 0.24577 0.0
H1170 H 0.71593 0.20626 0.2757 0.0
H1171 H 0.6885 0.21075 0.25904 0.0
H1172 H 0.86213 0.35337 0.26451 0.0
H1173 H 0.89196 0.32115 0.29282 0.0
H1174 H 0.89079 0.37599 0.2604 0.0
H1175 H 0.92015 0.3715 0.2722 0.0
Gd1176 Gd 0.04184 0.55665 0.48851 0.0
Gd1177 Gd 0.05161 0.53796 0.53174 0.0
C1178 C 0.10686 0.55493 0.56688 0.0
C1179 C 0.11653 0.5249 0.56008 0.0
C1180 C 0.08737 0.52649 0.5459 0.0
C1181 C 0.09074 0.54585 0.55473 0.0
C1182 C 0.10004 0.51566 0.54877 0.0
C1183 C 0.11994 0.54453 0.56909 0.0
C1184 C 0.10902 0.57393 0.57704 0.0
C1185 C 0.09506 0.58314 0.57538 0.0
N1186 N 0.07772 0.5554 0.55242 0.0
C1187 C 0.0794 0.57359 0.563 0.0
H1188 H 0.06885 0.58101 0.56187 0.0
C1189 C 0.06634 0.49832 0.52813 0.0
N1190 N 0.07124 0.51796 0.53528 0.0
C1191 C 0.07852 0.48699 0.53044 0.0
C1192 C 0.09555 0.49575 0.5406 0.0
H1193 H 0.05321 0.49155 0.5202 0.0
H1194 H 0.13251 0.55135 0.57816 0.0
H1195 H 0.02518 0.50993 0.46456 0.0
H1196 H 0.12117 0.5814 0.58656 0.0
H1197 H 0.09642 0.59768 0.58348 0.0
H1198 H 0.12654 0.5169 0.56227 0.0
H1199 H 0.03738 0.60206 0.49593 0.0
H1200 H 0.97341 0.50501 0.43572 0.0
H1201 H 0.998 0.49013 0.44408 0.0
H1202 H 0.96607 0.57004 0.45016 0.0
H1203 H 0.07478 0.47154 0.52437 0.0
H1204 H 0.10494 0.48694 0.54243 0.0
H1205 H 0.9616 0.53486 0.4381 0.0
H1206 H 0.0148 0.61982 0.48816 0.0
N1207 N 0.01637 0.53619 0.46832 0.0
C1208 C 0.98543 0.51391 0.44476 0.0
C1209 C 0.99927 0.50547 0.44945 0.0
C1210 C 0.98734 0.53378 0.45164 0.0
C1211 C 0.00322 0.5447 0.46342 0.0
C1212 C 0.01478 0.51689 0.46113 0.0
N1213 N 0.02102 0.57436 0.48165 0.0
C1214 C 0.00562 0.56439 0.47034 0.0
C1215 C 0.012 0.60421 0.48313 0.0
C1216 C 0.99567 0.594 0.47221 0.0
C1217 C 0.02472 0.59415 0.48749 0.0
C1218 C 0.99238 0.57387 0.46549 0.0
H1219 H 0.98583 0.60181 0.46882 0.0
O1220 O 0.05698 0.57903 0.47524 0.0
O1221 O 0.06094 0.55744 0.51247 0.0
O1222 O 0.04327 0.56652 0.53884 0.0
O1223 O 0.02752 0.56972 0.5112 0.0
O1224 O 0.06464 0.5828 0.50356 0.0
O1225 O 0.05353 0.54812 0.46293 0.0
O1226 O 0.03463 0.51583 0.544 0.0
O1227 O 0.03144 0.53834 0.50875 0.0
O1228 O 0.05208 0.52924 0.48246 0.0
O1229 O 0.06929 0.52901 0.51014 0.0
O1230 O 0.03013 0.51172 0.51519 0.0
O1231 O 0.04214 0.54621 0.55891 0.0
C1232 C 0.07146 0.57418 0.51525 0.0
C1233 C 0.97645 0.56304 0.45396 0.0
C1234 C 0.97391 0.54303 0.44707 0.0
C1235 C 0.05972 0.56621 0.46126 0.0
C1236 C 0.0581 0.57017 0.44226 0.0
C1237 C 0.04936 0.58393 0.43745 0.0
C1238 C 0.06774 0.56128 0.42928 0.0
C1239 C 0.07059 0.56737 0.41218 0.0
C1240 C 0.05097 0.58912 0.41977 0.0
C1241 C 0.06183 0.58118 0.40728 0.0
C1242 C 0.03188 0.57395 0.52967 0.0
C1243 C 0.02209 0.521 0.5052 0.0
C1244 C 0.03424 0.52817 0.55947 0.0
C1245 C 0.03756 0.52204 0.57723 0.0
C1246 C 0.05115 0.51252 0.58027 0.0
C1247 C 0.02662 0.52587 0.59141 0.0
C1248 C 0.02881 0.51999 0.60866 0.0
C1249 C 0.05356 0.50674 0.5975 0.0
C1250 C 0.04243 0.51041 0.61167 0.0
C1251 C 0.06515 0.52408 0.4916 0.0
H1252 H 0.04171 0.59092 0.44741 0.0
H1253 H 0.07388 0.55021 0.4331 0.0
H1254 H 0.04441 0.59988 0.41605 0.0
H1255 H 0.06381 0.58635 0.3942 0.0
H1256 H 0.05979 0.5095 0.56941 0.0
H1257 H 0.01649 0.53371 0.58901 0.0
H1258 H 0.06401 0.49935 0.59984 0.0
H1259 H 0.04438 0.50564 0.62485 0.0
Gd1260 Gd 0.82595 0.78695 0.27731 0.0
Gd1261 Gd 0.78052 0.79509 0.26808 0.0
C1262 C 0.75581 0.79131 0.20786 0.0
C1263 C 0.75446 0.82475 0.20844 0.0
C1264 C 0.76598 0.81567 0.23669 0.0
C1265 C 0.76335 0.79674 0.22696 0.0
C1266 C 0.76107 0.82978 0.22772 0.0
C1267 C 0.75186 0.80553 0.19851 0.0
C1268 C 0.75189 0.77165 0.19896 0.0
C1269 C 0.75476 0.75789 0.20933 0.0
N1270 N 0.76707 0.78337 0.23655 0.0
C1271 C 0.7621 0.764 0.2283 0.0
H1272 H 0.76433 0.75318 0.23602 0.0
C1273 C 0.7723 0.83756 0.26626 0.0
N1274 N 0.77213 0.81991 0.25533 0.0
C1275 C 0.76769 0.8521 0.25802 0.0
C1276 C 0.76233 0.8483 0.23859 0.0
H1277 H 0.77649 0.84061 0.28128 0.0
H1278 H 0.74625 0.80169 0.18378 0.0
H1279 H 0.84295 0.82979 0.3079 0.0
H1280 H 0.74616 0.76689 0.18428 0.0
H1281 H 0.75139 0.74258 0.20272 0.0
H1282 H 0.75081 0.83544 0.20123 0.0
H1283 H 0.82879 0.74087 0.26589 0.0
H1284 H 0.86248 0.81815 0.36011 0.0
H1285 H 0.85694 0.84159 0.34075 0.0
H1286 H 0.85564 0.74912 0.34618 0.0
H1287 H 0.7683 0.86622 0.26664 0.0
H1288 H 0.75868 0.85956 0.23224 0.0
H1289 H 0.86128 0.7835 0.36225 0.0
H1290 H 0.83648 0.71574 0.28171 0.0
N1291 N 0.83986 0.79976 0.30855 0.0
C1292 C 0.85612 0.81284 0.34569 0.0
C1293 C 0.85314 0.82611 0.33477 0.0
C1294 C 0.85154 0.79292 0.33763 0.0
C1295 C 0.84352 0.7868 0.31872 0.0
C1296 C 0.8452 0.81931 0.31605 0.0
N1297 N 0.83397 0.7626 0.29115 0.0
C1298 C 0.84041 0.76755 0.30972 0.0
C1299 C 0.83757 0.73023 0.28979 0.0
C1300 C 0.84326 0.7348 0.30918 0.0
C1301 C 0.83327 0.74449 0.28087 0.0
C1302 C 0.84512 0.75377 0.31932 0.0
H1303 H 0.8467 0.72377 0.31604 0.0
O1304 O 0.84333 0.77783 0.25661 0.0
O1305 O 0.80463 0.78824 0.25571 0.0
O1306 O 0.77893 0.76271 0.26793 0.0
O1307 O 0.80548 0.76143 0.28492 0.0
O1308 O 0.8164 0.76507 0.25012 0.0
O1309 O 0.85228 0.80605 0.27523 0.0
O1310 O 0.7633 0.80246 0.28972 0.0
O1311 O 0.80197 0.79398 0.2897 0.0
O1312 O 0.82773 0.81919 0.27647 0.0
O1313 O 0.80066 0.82107 0.26082 0.0
O1314 O 0.79017 0.81711 0.29517 0.0
O1315 O 0.75386 0.77588 0.26882 0.0
C1316 C 0.80502 0.77347 0.2435 0.0
C1317 C 0.85213 0.75954 0.33849 0.0
C1318 C 0.85534 0.7791 0.34763 0.0
C1319 C 0.85652 0.7935 0.26204 0.0
C1320 C 0.87483 0.79037 0.26458 0.0
C1321 C 0.88051 0.78475 0.28105 0.0
C1322 C 0.88652 0.79237 0.25025 0.0
C1323 C 0.90376 0.78852 0.25231 0.0
C1324 C 0.89752 0.78106 0.28323 0.0
C1325 C 0.90905 0.78289 0.26903 0.0
C1326 C 0.78851 0.75328 0.2771 0.0
C1327 C 0.80176 0.80895 0.30175 0.0
C1328 C 0.74982 0.78738 0.28309 0.0
C1329 C 0.73179 0.79137 0.28127 0.0
C1330 C 0.72664 0.79903 0.2659 0.0
C1331 C 0.71993 0.7884 0.29535 0.0
C1332 C 0.70323 0.79353 0.29421 0.0
C1333 C 0.71013 0.80399 0.26466 0.0
C1334 C 0.69855 0.80138 0.27872 0.0
C1335 C 0.81792 0.82886 0.26788 0.0
H1336 H 0.87177 0.78318 0.2922 0.0
H1337 H 0.88208 0.79653 0.23743 0.0
H1338 H 0.90181 0.77676 0.29601 0.0
H1339 H 0.92226 0.78013 0.27126 0.0
H1340 H 0.73544 0.80129 0.25491 0.0
H1341 H 0.72386 0.78258 0.30732 0.0
H1342 H 0.70631 0.80997 0.25278 0.0
H1343 H 0.68577 0.80531 0.27736 0.0
Gd1344 Gd 0.79126 0.30772 0.79907 0.0
Gd1345 Gd 0.80765 0.28249 0.75739 0.0
C1346 C 0.77641 0.22087 0.72615 0.0
C1347 C 0.79995 0.20355 0.72565 0.0
C1348 C 0.80588 0.23699 0.74327 0.0
C1349 C 0.78872 0.23771 0.73712 0.0
C1350 C 0.8116 0.21974 0.73788 0.0
C1351 C 0.78229 0.20402 0.71998 0.0
C1352 C 0.75835 0.22112 0.72243 0.0
C1353 C 0.75271 0.23735 0.73068 0.0
N1354 N 0.78354 0.25428 0.74339 0.0
C1355 C 0.76538 0.25356 0.74155 0.0
H1356 H 0.76012 0.26486 0.74909 0.0
C1357 C 0.83385 0.25247 0.76161 0.0
N1358 N 0.81676 0.25293 0.75506 0.0
C1359 C 0.83993 0.2356 0.75706 0.0
C1360 C 0.82881 0.21917 0.74504 0.0
H1361 H 0.84337 0.26527 0.76975 0.0
H1362 H 0.77312 0.1911 0.7113 0.0
H1363 H 0.83876 0.32523 0.80701 0.0
H1364 H 0.74847 0.20848 0.71418 0.0
H1365 H 0.73851 0.23726 0.72905 0.0
H1366 H 0.80423 0.19032 0.72113 0.0
H1367 H 0.75364 0.32231 0.79098 0.0
H1368 H 0.85098 0.3839 0.83655 0.0
H1369 H 0.86064 0.35412 0.82443 0.0
H1370 H 0.79486 0.40119 0.82918 0.0
H1371 H 0.85344 0.23548 0.76242 0.0
H1372 H 0.83364 0.20617 0.74133 0.0
H1373 H 0.82642 0.40131 0.83812 0.0
H1374 H 0.74313 0.35212 0.79652 0.0
N1375 N 0.81543 0.33637 0.81145 0.0
C1376 C 0.84096 0.37075 0.82947 0.0
C1377 C 0.84643 0.35397 0.82279 0.0
C1378 C 0.82281 0.37072 0.82586 0.0
C1379 C 0.81028 0.35322 0.81645 0.0
C1380 C 0.83358 0.33708 0.81341 0.0
N1381 N 0.78126 0.33655 0.80115 0.0
C1382 C 0.79272 0.35334 0.81093 0.0
C1383 C 0.75721 0.3528 0.80039 0.0
C1384 C 0.76907 0.37032 0.80963 0.0
C1385 C 0.76343 0.33595 0.79677 0.0
C1386 C 0.78696 0.3707 0.81535 0.0
H1387 H 0.76417 0.38334 0.8127 0.0
O1388 O 0.76342 0.29758 0.80453 0.0
O1389 O 0.78866 0.27988 0.77884 0.0
O1390 O 0.78409 0.29121 0.74432 0.0
O1391 O 0.77356 0.30676 0.77144 0.0
O1392 O 0.78872 0.27838 0.80726 0.0
O1393 O 0.78426 0.31343 0.82778 0.0
O1394 O 0.83623 0.29158 0.75443 0.0
O1395 O 0.81009 0.31042 0.77745 0.0
O1396 O 0.81488 0.29906 0.81233 0.0
O1397 O 0.82494 0.28388 0.78485 0.0
O1398 O 0.80986 0.31161 0.74892 0.0
O1399 O 0.8167 0.27928 0.72937 0.0
C1400 C 0.78718 0.26846 0.79027 0.0
C1401 C 0.79911 0.38781 0.82555 0.0
C1402 C 0.81702 0.38784 0.83075 0.0
C1403 C 0.76717 0.30423 0.82275 0.0
C1404 C 0.75817 0.29139 0.83477 0.0
C1405 C 0.73965 0.28951 0.83637 0.0
C1406 C 0.76761 0.28106 0.8446 0.0
C1407 C 0.75858 0.26912 0.8562 0.0
C1408 C 0.73063 0.27755 0.84782 0.0
C1409 C 0.74004 0.26743 0.85777 0.0
C1410 C 0.77257 0.30036 0.75269 0.0
C1411 C 0.81146 0.32172 0.76585 0.0
C1412 C 0.83362 0.28791 0.73599 0.0
C1413 C 0.84335 0.30363 0.72717 0.0
C1414 C 0.86232 0.31004 0.7306 0.0
C1415 C 0.83391 0.31295 0.71617 0.0
C1416 C 0.84326 0.32854 0.70853 0.0
C1417 C 0.87171 0.32566 0.72315 0.0
C1418 C 0.86226 0.33491 0.71216 0.0
C1419 C 0.8262 0.29 0.80351 0.0
H1420 H 0.73219 0.29735 0.82877 0.0
H1421 H 0.78195 0.28254 0.84352 0.0
H1422 H 0.71633 0.27613 0.84901 0.0
H1423 H 0.73282 0.25815 0.86657 0.0
H1424 H 0.86983 0.30308 0.73918 0.0
H1425 H 0.81924 0.30821 0.71367 0.0
H1426 H 0.88634 0.33055 0.72583 0.0
H1427 H 0.86985 0.34669 0.70616 0.0
Gd1428 Gd 0.77384 0.757 0.756 0.0
Gd1429 Gd 0.81081 0.80098 0.77573 0.0
C1430 C 0.86825 0.81243 0.75817 0.0
C1431 C 0.88665 0.81762 0.78816 0.0
C1432 C 0.8537 0.80856 0.78654 0.0
C1433 C 0.85242 0.80801 0.76734 0.0
C1434 C 0.87083 0.81336 0.79721 0.0
C1435 C 0.88536 0.81726 0.76868 0.0
C1436 C 0.86642 0.81164 0.73868 0.0
C1437 C 0.8492 0.80523 0.72862 0.0
N1438 N 0.83569 0.80259 0.75756 0.0
C1439 C 0.83395 0.80055 0.73828 0.0
H1440 H 0.82088 0.79519 0.73005 0.0
C1441 C 0.83887 0.8063 0.81404 0.0
N1442 N 0.83814 0.80445 0.79478 0.0
C1443 C 0.85548 0.81063 0.82519 0.0
C1444 C 0.87156 0.81406 0.81672 0.0
H1445 H 0.82657 0.80478 0.82092 0.0
H1446 H 0.89765 0.82057 0.76184 0.0
H1447 H 0.76883 0.76358 0.80506 0.0
H1448 H 0.87822 0.81537 0.73119 0.0
H1449 H 0.84767 0.80385 0.71341 0.0
H1450 H 0.89992 0.82132 0.79611 0.0
H1451 H 0.75072 0.75557 0.71471 0.0
H1452 H 0.71401 0.73816 0.81109 0.0
H1453 H 0.74556 0.75367 0.82498 0.0
H1454 H 0.68397 0.72658 0.74875 0.0
H1455 H 0.85587 0.81174 0.84036 0.0
H1456 H 0.88445 0.81766 0.82541 0.0
H1457 H 0.69123 0.72804 0.78265 0.0
H1458 H 0.71948 0.74513 0.69962 0.0
N1459 N 0.75195 0.75174 0.77864 0.0
C1460 C 0.72445 0.74197 0.80192 0.0
C1461 C 0.74222 0.75061 0.80978 0.0
C1462 C 0.72018 0.73944 0.78245 0.0
C1463 C 0.73429 0.74482 0.7711 0.0
C1464 C 0.75569 0.75572 0.79804 0.0
N1465 N 0.74371 0.75128 0.74207 0.0
C1466 C 0.73008 0.74459 0.75223 0.0
C1467 C 0.7222 0.74508 0.71448 0.0
C1468 C 0.70805 0.73841 0.72484 0.0
C1469 C 0.73997 0.75131 0.72329 0.0
C1470 C 0.71186 0.73815 0.74393 0.0
H1471 H 0.69427 0.73349 0.71796 0.0
O1472 O 0.7772 0.74651 0.72672 0.0
O1473 O 0.80256 0.77292 0.75561 0.0
O1474 O 0.79899 0.80473 0.7478 0.0
O1475 O 0.77151 0.78093 0.73983 0.0
O1476 O 0.7975 0.74358 0.75774 0.0
O1477 O 0.76358 0.72624 0.74345 0.0
O1478 O 0.81518 0.8268 0.79803 0.0
O1479 O 0.78097 0.78789 0.77065 0.0
O1480 O 0.78596 0.75093 0.78308 0.0
O1481 O 0.81064 0.77862 0.79409 0.0
O1482 O 0.79165 0.80264 0.79782 0.0
O1483 O 0.81295 0.82923 0.76817 0.0
C1484 C 0.80966 0.75892 0.75623 0.0
C1485 C 0.69799 0.73173 0.75492 0.0
C1486 C 0.70213 0.73246 0.77418 0.0
C1487 C 0.7703 0.72829 0.72748 0.0
C1488 C 0.78087 0.71469 0.71971 0.0
C1489 C 0.78414 0.71286 0.70066 0.0
C1490 C 0.78854 0.70435 0.73125 0.0
C1491 C 0.79985 0.69273 0.72401 0.0
C1492 C 0.79514 0.70107 0.69329 0.0
C1493 C 0.80306 0.69112 0.7049 0.0
C1494 C 0.78359 0.79645 0.73684 0.0
C1495 C 0.77698 0.79401 0.78683 0.0
C1496 C 0.81538 0.83802 0.78587 0.0
C1497 C 0.81801 0.859 0.79166 0.0
C1498 C 0.82945 0.86963 0.80797 0.0
C1499 C 0.80781 0.8682 0.78152 0.0
C1500 C 0.80853 0.88789 0.78777 0.0
C1501 C 0.8307 0.8895 0.81393 0.0
C1502 C 0.82023 0.89865 0.80391 0.0
C1503 C 0.80007 0.76147 0.79541 0.0
H1504 H 0.77837 0.72077 0.69155 0.0
H1505 H 0.78583 0.70543 0.74591 0.0
H1506 H 0.79773 0.69983 0.67862 0.0
H1507 H 0.81188 0.68241 0.699 0.0
H1508 H 0.83731 0.86258 0.81607 0.0
H1509 H 0.79888 0.85984 0.769 0.0
H1510 H 0.83953 0.89773 0.8265 0.0
H1511 H 0.82096 0.91392 0.809 0.0
Gd1512 Gd 0.57592 0.55527 0.5319 0.0
Gd1513 Gd 0.5314 0.52839 0.51146 0.0
C1514 C 0.51736 0.46196 0.49787 0.0
C1515 C 0.51504 0.45492 0.46351 0.0
C1516 C 0.52226 0.48853 0.48082 0.0
C1517 C 0.52164 0.48212 0.49783 0.0
C1518 C 0.51826 0.47492 0.46348 0.0
C1519 C 0.51467 0.44845 0.48067 0.0
C1520 C 0.51515 0.45589 0.51511 0.0
C1521 C 0.51631 0.46974 0.53163 0.0
N1522 N 0.52381 0.49547 0.51423 0.0
C1523 C 0.52033 0.48953 0.53088 0.0
H1524 H 0.52111 0.49994 0.54382 0.0
C1525 C 0.52239 0.51454 0.46489 0.0
N1526 N 0.52533 0.50796 0.48118 0.0
C1527 C 0.51849 0.5016 0.44739 0.0
C1528 C 0.51678 0.48175 0.44665 0.0
H1529 H 0.52385 0.52994 0.46544 0.0
H1530 H 0.51157 0.43293 0.48045 0.0
H1531 H 0.58714 0.58266 0.49874 0.0
H1532 H 0.51194 0.44055 0.51573 0.0
H1533 H 0.51413 0.46518 0.54497 0.0
H1534 H 0.5122 0.44428 0.45033 0.0
H1535 H 0.58336 0.5554 0.57843 0.0
H1536 H 0.59532 0.64242 0.52498 0.0
H1537 H 0.59402 0.6171 0.49653 0.0
H1538 H 0.59384 0.64081 0.59071 0.0
H1539 H 0.51681 0.50694 0.43449 0.0
H1540 H 0.51367 0.47174 0.43307 0.0
H1541 H 0.59484 0.65108 0.56006 0.0
H1542 H 0.58995 0.57928 0.6088 0.0
N1543 N 0.58365 0.58791 0.52814 0.0
C1544 C 0.59216 0.62721 0.52607 0.0
C1545 C 0.59151 0.61298 0.51 0.0
C1546 C 0.58957 0.62171 0.54351 0.0
C1547 C 0.58539 0.60168 0.54417 0.0
C1548 C 0.58753 0.59333 0.51135 0.0
N1549 N 0.58163 0.57658 0.56174 0.0
C1550 C 0.58452 0.59587 0.56147 0.0
C1551 C 0.58827 0.58411 0.59561 0.0
C1552 C 0.58967 0.60378 0.59567 0.0
C1553 C 0.58462 0.57067 0.57842 0.0
C1554 C 0.58822 0.60996 0.57848 0.0
H1555 H 0.59257 0.61418 0.60901 0.0
O1556 O 0.59612 0.54521 0.54683 0.0
O1557 O 0.55426 0.52768 0.5312 0.0
O1558 O 0.53048 0.53357 0.54361 0.0
O1559 O 0.5556 0.55958 0.55433 0.0
O1560 O 0.57937 0.5247 0.52493 0.0
O1561 O 0.60396 0.56378 0.52634 0.0
O1562 O 0.51091 0.53886 0.49755 0.0
O1563 O 0.5531 0.55593 0.5121 0.0
O1564 O 0.57707 0.54951 0.49977 0.0
O1565 O 0.55152 0.52402 0.48882 0.0
O1566 O 0.52803 0.55896 0.51845 0.0
O1567 O 0.50352 0.51962 0.51754 0.0
C1568 C 0.56343 0.51538 0.52714 0.0
C1569 C 0.59126 0.62981 0.57779 0.0
C1570 C 0.59185 0.63566 0.56034 0.0
C1571 C 0.60922 0.55414 0.53834 0.0
C1572 C 0.62685 0.56262 0.5494 0.0
C1573 C 0.63066 0.57987 0.56314 0.0
C1574 C 0.64022 0.55269 0.54583 0.0
C1575 C 0.65764 0.55987 0.55557 0.0
C1576 C 0.64791 0.58696 0.57328 0.0
C1577 C 0.66138 0.57703 0.56956 0.0
C1578 C 0.5396 0.5485 0.55705 0.0
C1579 C 0.54397 0.56824 0.5162 0.0
C1580 C 0.49802 0.52971 0.50614 0.0
C1581 C 0.4802 0.52161 0.49538 0.0
C1582 C 0.47628 0.505 0.48086 0.0
C1583 C 0.46688 0.53143 0.49984 0.0
C1584 C 0.44943 0.52478 0.49009 0.0
C1585 C 0.45897 0.4984 0.47082 0.0
C1586 C 0.44557 0.50823 0.47536 0.0
C1587 C 0.56769 0.53486 0.48621 0.0
H1588 H 0.62043 0.58778 0.56598 0.0
H1589 H 0.63696 0.53916 0.53537 0.0
H1590 H 0.65089 0.60025 0.58394 0.0
H1591 H 0.67474 0.58291 0.57732 0.0
H1592 H 0.48647 0.49723 0.4773 0.0
H1593 H 0.47024 0.5445 0.51088 0.0
H1594 H 0.4559 0.4856 0.45955 0.0
H1595 H 0.43219 0.50275 0.46759 0.0
Gd1596 Gd 0.02536 0.53398 0.027 0.0
Gd1597 Gd 0.07243 0.54402 0.01398 0.0
C1598 C 0.10905 0.6057 0.02275 0.0
C1599 C 0.11264 0.60973 0.99039 0.0
C1600 C 0.09437 0.57934 0.9966 0.0
C1601 C 0.09784 0.58676 0.01585 0.0
C1602 C 0.10202 0.59058 0.98364 0.0
C1603 C 0.11614 0.61728 0.00991 0.0
C1604 C 0.11319 0.61222 0.04233 0.0
C1605 C 0.10655 0.59978 0.05446 0.0
N1606 N 0.09094 0.5751 0.02784 0.0
C1607 C 0.09559 0.58105 0.04692 0.0
H1608 H 0.09055 0.57155 0.05643 0.0
C1609 C 0.08214 0.55199 0.97188 0.0
N1610 N 0.08427 0.56072 0.99059 0.0
C1611 C 0.08934 0.56258 0.95846 0.0
C1612 C 0.09918 0.58203 0.96434 0.0
H1613 H 0.07455 0.53695 0.96727 0.0
H1614 H 0.12467 0.63193 0.01494 0.0
H1615 H 0.0071 0.50476 0.98519 0.0
H1616 H 0.12183 0.62664 0.04818 0.0
H1617 H 0.10987 0.60459 0.06962 0.0
H1618 H 0.11854 0.61865 0.98065 0.0
H1619 H 0.02236 0.54314 0.07357 0.0
H1620 H 0.97677 0.4502 0.99547 0.0
H1621 H 0.98837 0.47132 0.97312 0.0
H1622 H 0.97902 0.46145 0.06314 0.0
H1623 H 0.08735 0.55573 0.94361 0.0
H1624 H 0.10484 0.59017 0.95393 0.0
H1625 H 0.97344 0.44661 0.02915 0.0
H1626 H 0.00927 0.5257 0.09794 0.0
N1627 N 0.00677 0.50256 0.01416 0.0
C1628 C 0.98507 0.46489 1.00087 0.0
C1629 C 0.99155 0.47678 0.98822 0.0
C1630 C 0.98894 0.47232 0.02036 0.0
C1631 C 0.99991 0.49148 0.02663 0.0
C1632 C 1.00219 0.49578 0.99515 0.0
N1633 N 0.01309 0.51849 0.05102 0.0
C1634 C 0.00314 0.49973 0.04569 0.0
C1635 C 0.00752 0.51819 0.08331 0.0
C1636 C 0.9979 0.4986 0.07816 0.0
C1637 C 0.0149 0.52803 0.06945 0.0
C1638 C 0.99538 0.48919 0.05911 0.0
H1639 H 0.99213 0.49103 0.08891 0.0
O1640 O 0.01062 0.55478 0.03877 0.0
O1641 O 0.05084 0.55631 0.02636 0.0
O1642 O 0.07028 0.53874 0.04393 0.0
O1643 O 0.04083 0.52027 0.04535 0.0
O1644 O 0.03789 0.56048 0.05017 0.0
O1645 O 1.0023 0.53776 0.01035 0.0
O1646 O 0.0871 0.52364 1.00112 0.0
O1647 O 0.04705 0.52165 0.01459 0.0
O1648 O 0.02758 0.53694 0.99652 0.0
O1649 O 0.0562 0.5572 0.99561 0.0
O1650 O 0.06019 0.51758 0.99079 0.0
O1651 O 0.09617 0.54037 0.0296 0.0
C1652 C 0.0515 0.56794 0.04181 0.0
C1653 C 0.98498 0.46985 0.05304 0.0
C1654 C 0.9818 0.46141 0.03369 0.0
C1655 C 0.99869 0.55034 0.02397 0.0
C1656 C 0.97965 0.5471 0.02777 0.0
C1657 C 0.97133 0.53101 0.03532 0.0
C1658 C 0.96973 0.5603 0.02394 0.0
C1659 C 0.95146 0.55736 0.02754 0.0
C1660 C 0.9533 0.52811 0.03908 0.0
C1661 C 0.94339 0.54116 0.03522 0.0
C1662 C 0.05838 0.52592 0.05097 0.0
C1663 C 0.04663 0.51 0.99917 0.0
C1664 C 0.09939 0.52788 0.01561 0.0
C1665 C 0.11824 0.53088 0.01122 0.0
C1666 C 0.12639 0.54676 0.0033 0.0
C1667 C 0.12799 0.51729 0.01436 0.0
C1668 C 0.14575 0.51939 0.00928 0.0
C1669 C 0.14404 0.549 0.99837 0.0
C1670 C 0.15366 0.53539 1.00126 0.0
C1671 C 0.03894 0.54978 0.98904 0.0
H1672 H 0.97875 0.52072 0.03834 0.0
H1673 H 0.97615 0.57264 0.01794 0.0
H1674 H 0.94697 0.51571 0.04501 0.0
H1675 H 0.92946 0.53867 0.03844 0.0
H1676 H 0.1191 0.55734 1.00081 0.0
H1677 H 0.12162 0.50491 0.02035 0.0
H1678 H 0.15026 0.56128 0.99223 0.0
H1679 H 0.16738 0.5375 0.9974 0.0
H1680 H 0.01243 0.22572 0.98506 0.0
H1681 H 0.02026 0.19834 0.9958 0.0
H1682 H 0.03907 0.18105 0.94182 0.0
H1683 H 0.03194 0.20919 0.93124 0.0
H1684 H 0.00677 0.16147 0.9839 0.0
H1685 H 0.08015 0.17624 0.97543 0.0
H1686 H 0.06735 0.19391 0.97339 0.0
H1687 H 0.06632 0.17414 0.95383 0.0
C1688 C 0.01844 0.21626 0.97549 0.0
C1689 C 0.02158 0.21973 0.95727 0.0
C1690 C 0.02291 0.20052 0.98167 0.0
C1691 C 0.0305 0.1876 0.96979 0.0
C1692 C 0.03371 0.19102 0.95154 0.0
H1693 H 0.04769 0.07473 0.98334 0.0
H1694 H 0.04558 0.10399 0.97124 0.0
C1695 C 0.02951 0.20706 0.94542 0.0
C1696 C 0.034 0.17014 0.9764 0.0
H1697 H 0.06642 0.14562 0.98303 0.0
C1698 C 0.01987 0.15815 0.98376 0.0
C1699 C 0.05107 0.16558 0.97624 0.0
C1700 C 0.06714 0.17824 0.96947 0.0
C1701 C 0.02228 0.14192 0.99089 0.0
C1702 C 0.03931 0.13743 0.99076 0.0
C1703 C 0.05338 0.14912 0.98315 0.0
C1704 C 0.04256 0.12055 0.99844 0.0
C1705 C 0.00649 0.12956 0.99838 0.0
C1706 C 0.042 0.12029 0.01781 0.0
C1707 C 0.0433 0.10365 0.02471 0.0
C1708 C 0.04555 0.08713 0.01246 0.0
C1709 C 0.04646 0.08751 0.99315 0.0
C1710 C 0.04519 0.10417 0.98624 0.0
H1711 H 0.99339 0.13241 0.99384 0.0
H1712 H 0.00558 0.1138 0.99356 0.0
H1713 H 0.00851 0.13292 0.01408 0.0
H1714 H 0.04008 0.13279 0.0275 0.0
H1715 H 0.04219 0.10352 0.03957 0.0
H1716 H 0.12811 0.83153 0.16912 0.0
H1717 H 0.1537 0.83076 0.19125 0.0
H1718 H 0.17553 0.79985 0.14519 0.0
H1719 H 0.15095 0.80158 0.12322 0.0
H1720 H 0.16543 0.80305 0.20259 0.0
H1721 H 0.21987 0.84098 0.16556 0.0
H1722 H 0.19635 0.83966 0.15929 0.0
H1723 H 0.20593 0.81984 0.14981 0.0
C1724 C 0.13851 0.82478 0.16378 0.0
C1725 C 0.1377 0.81701 0.14436 0.0
C1726 C 0.15313 0.82432 0.1764 0.0
C1727 C 0.16701 0.81584 0.16984 0.0
C1728 C 0.1656 0.80731 0.15058 0.0
H1729 H 0.2579 0.78069 0.21772 0.0
H1730 H 0.23225 0.78462 0.19814 0.0
C1731 C 0.15137 0.80817 0.13801 0.0
C1732 C 0.1827 0.81523 0.18296 0.0
H1733 H 0.22889 0.82255 0.18734 0.0
C1734 C 0.1793 0.80758 0.19936 0.0
C1735 C 0.20095 0.82119 0.17891 0.0
C1736 C 0.20598 0.83107 0.16254 0.0
C1737 C 0.19347 0.80511 0.21133 0.0
C1738 C 0.21151 0.81031 0.20677 0.0
C1739 C 0.215 0.81828 0.19064 0.0
C1740 C 0.22702 0.80786 0.21872 0.0
C1741 C 0.18906 0.79657 0.22858 0.0
C1742 C 0.23286 0.81988 0.23662 0.0
C1743 C 0.24764 0.81783 0.24775 0.0
C1744 C 0.25687 0.80357 0.24142 0.0
C1745 C 0.25113 0.79175 0.22325 0.0
C1746 C 0.23641 0.79393 0.21202 0.0
H1747 H 0.17425 0.79044 0.22855 0.0
H1748 H 0.1961 0.7849 0.22945 0.0
H1749 H 0.19395 0.80814 0.24147 0.0
H1750 H 0.22613 0.83108 0.24188 0.0
H1751 H 0.25206 0.82783 0.26107 0.0
H1752 H 0.54279 0.83234 0.44281 0.0
H1753 H 0.54683 0.86767 0.45211 0.0
H1754 H 0.50835 0.85846 0.4929 0.0
H1755 H 0.50416 0.82331 0.48372 0.0
H1756 H 0.50073 0.88248 0.46899 0.0
H1757 H 0.57271 0.90696 0.50017 0.0
H1758 H 0.56895 0.89187 0.47688 0.0
H1759 H 0.55977 0.88182 0.49631 0.0
C1760 C 0.53546 0.83785 0.45403 0.0
C1761 C 0.52316 0.82492 0.4625 0.0
C1762 C 0.5378 0.85806 0.45934 0.0
C1763 C 0.52795 0.86573 0.47328 0.0
C1764 C 0.51609 0.8529 0.48212 0.0
H1765 H 0.53997 0.98784 0.52542 0.0
H1766 H 0.534 0.95227 0.51982 0.0
C1767 C 0.51378 0.83276 0.47687 0.0
C1768 C 0.52912 0.88699 0.47792 0.0
H1769 H 0.55834 0.93173 0.49509 0.0
C1770 C 0.51332 0.89324 0.47473 0.0
C1771 C 0.54549 0.90101 0.48565 0.0
C1772 C 0.56268 0.89514 0.49014 0.0
C1773 C 0.51359 0.91313 0.47864 0.0
C1774 C 0.53004 0.92713 0.48589 0.0
C1775 C 0.54575 0.92092 0.48945 0.0
C1776 C 0.53138 0.94837 0.48931 0.0
C1777 C 0.49628 0.91916 0.4753 0.0
C1778 C 0.53152 0.95792 0.47401 0.0
C1779 C 0.53494 0.97826 0.47718 0.0
C1780 C 0.53805 0.9894 0.49569 0.0
C1781 C 0.53723 0.97972 0.511 0.0
C1782 C 0.53397 0.95938 0.50783 0.0
H1783 H 0.48426 0.90644 0.47136 0.0
H1784 H 0.49413 0.92885 0.48828 0.0
H1785 H 0.49738 0.92754 0.46377 0.0
H1786 H 0.52969 0.94969 0.45961 0.0
H1787 H 0.53572 0.98537 0.46514 0.0
H1788 H 0.51987 0.33215 0.63064 0.0
H1789 H 0.49481 0.32793 0.65023 0.0
H1790 H 0.51851 0.29045 0.67839 0.0
H1791 H 0.54404 0.29527 0.6593 0.0
H1792 H 0.46941 0.29721 0.65313 0.0
H1793 H 0.50926 0.32612 0.72338 0.0
H1794 H 0.51919 0.3286 0.70165 0.0
H1795 H 0.51637 0.30619 0.7102 0.0
C1796 C 0.51987 0.32314 0.64113 0.0
C1797 C 0.53409 0.31418 0.64349 0.0
C1798 C 0.50546 0.3207 0.65232 0.0
C1799 C 0.50481 0.30914 0.6661 0.0
C1800 C 0.51888 0.29993 0.6683 0.0
H1801 H 0.4245 0.26418 0.73703 0.0
H1802 H 0.4482 0.26957 0.71589 0.0
C1803 C 0.53346 0.3026 0.65728 0.0
C1804 C 0.48918 0.30639 0.67774 0.0
H1805 H 0.47826 0.30926 0.72325 0.0
C1806 C 0.47139 0.30003 0.66847 0.0
C1807 C 0.49162 0.31016 0.69781 0.0
C1808 C 0.51013 0.31834 0.70885 0.0
C1809 C 0.45615 0.29694 0.67865 0.0
C1810 C 0.45869 0.30017 0.6986 0.0
C1811 C 0.47637 0.30668 0.70791 0.0
C1812 C 0.44322 0.29634 0.71014 0.0
C1813 C 0.43739 0.28985 0.66808 0.0
C1814 C 0.43232 0.30948 0.71371 0.0
C1815 C 0.4188 0.30656 0.72601 0.0
C1816 C 0.41599 0.29045 0.73501 0.0
C1817 C 0.42651 0.27696 0.73071 0.0
C1818 C 0.44002 0.27994 0.71854 0.0
H1819 H 0.43771 0.28661 0.65249 0.0
H1820 H 0.42981 0.27649 0.67254 0.0
H1821 H 0.42984 0.30116 0.67163 0.0
H1822 H 0.43463 0.3223 0.70743 0.0
H1823 H 0.41108 0.31732 0.72906 0.0
H1824 H 0.97983 0.80178 0.606 0.0
H1825 H 0.98843 0.8249 0.58518 0.0
H1826 H 0.03951 0.85058 0.61984 0.0
H1827 H 0.0312 0.82729 0.64059 0.0
H1828 H 0.99786 0.86535 0.59227 0.0
H1829 H 0.05504 0.83588 0.56723 0.0
H1830 H 0.03829 0.82325 0.58032 0.0
H1831 H 0.05635 0.84354 0.59245 0.0
C1832 C 0.99286 0.81241 0.60928 0.0
C1833 C 0.0049 0.81258 0.62485 0.0
C1834 C 0.99774 0.8256 0.59737 0.0
C1835 C 0.01474 0.83916 0.60078 0.0
C1836 C 0.0265 0.83992 0.61673 0.0
H1837 H 0.06157 0.9324 0.54363 0.0
H1838 H 0.05475 0.91081 0.56629 0.0
C1839 C 0.02166 0.82669 0.62864 0.0
C1840 C 0.02017 0.85229 0.58745 0.0
H1841 H 0.05121 0.86402 0.55657 0.0
C1842 C 0.0095 0.86505 0.58445 0.0
C1843 C 0.03536 0.85178 0.57725 0.0
C1844 C 0.04685 0.83777 0.5793 0.0
C1845 C 0.01368 0.8774 0.57153 0.0
C1846 C 0.02882 0.87685 0.56138 0.0
C1847 C 0.0396 0.86428 0.56446 0.0
C1848 C 0.03354 0.88921 0.54737 0.0
C1849 C 1.002 0.89105 0.56878 0.0
C1850 C 0.02405 0.88387 0.5292 0.0
C1851 C 0.02794 0.89609 0.5162 0.0
C1852 C 0.0413 0.91385 0.52131 0.0
C1853 C 0.05111 0.91884 0.53939 0.0
C1854 C 0.04728 0.90657 0.55231 0.0
H1855 H 0.99165 0.89091 0.57895 0.0
H1856 H 0.0106 0.90617 0.57046 0.0
H1857 H 0.99495 0.88672 0.55418 0.0
H1858 H 0.01342 0.87043 0.52523 0.0
H1859 H 0.02007 0.89201 0.50245 0.0
H1860 H 0.56221 0.83131 0.84897 0.0
H1861 H 0.53787 0.83729 0.82912 0.0
H1862 H 0.49802 0.80286 0.85759 0.0
H1863 H 0.52226 0.79742 0.87794 0.0
H1864 H 0.50819 0.81488 0.80492 0.0
H1865 H 0.48735 0.85602 0.86867 0.0
H1866 H 0.50812 0.8483 0.8691 0.0
H1867 H 0.48684 0.83136 0.87026 0.0
C1868 C 0.54825 0.82473 0.85074 0.0
C1869 C 0.54403 0.81419 0.86515 0.0
C1870 C 0.5344 0.82818 0.83944 0.0
C1871 C 0.51625 0.82096 0.84232 0.0
C1872 C 0.51201 0.80902 0.85559 0.0
H1873 H 0.41772 0.81758 0.77755 0.0
H1874 H 0.44544 0.81118 0.79046 0.0
C1875 C 0.52582 0.80584 0.8671 0.0
C1876 C 0.5018 0.82697 0.8324 0.0
H1877 H 0.46771 0.84944 0.84015 0.0
C1878 C 0.49938 0.82254 0.81256 0.0
C1879 C 0.49068 0.83736 0.84249 0.0
C1880 C 0.49347 0.84373 0.86379 0.0
C1881 C 0.48564 0.82769 0.8025 0.0
C1882 C 0.47392 0.83717 0.81263 0.0
C1883 C 0.4767 0.84208 0.83245 0.0
C1884 C 0.45814 0.8414 0.80312 0.0
C1885 C 0.48385 0.82305 0.78115 0.0
C1886 C 0.45609 0.86051 0.80614 0.0
C1887 C 0.44014 0.86417 0.79904 0.0
C1888 C 0.42599 0.84874 0.78894 0.0
C1889 C 0.42836 0.82972 0.78542 0.0
C1890 C 0.44426 0.82607 0.79257 0.0
H1891 H 0.49683 0.82145 0.77576 0.0
H1892 H 0.47349 0.80903 0.77595 0.0
H1893 H 0.47949 0.83457 0.77516 0.0
H1894 H 0.46663 0.87248 0.81443 0.0
H1895 H 0.43857 0.87891 0.80217 0.0
H1896 H 0.47948 0.18955 0.15132 0.0
H1897 H 0.47961 0.16148 0.12681 0.0
H1898 H 0.49095 0.19885 0.08634 0.0
H1899 H 0.49096 0.22712 0.11074 0.0
H1900 H 0.46397 0.14494 0.08463 0.0
H1901 H 0.53819 0.17963 0.10105 0.0
H1902 H 0.52188 0.18585 0.11649 0.0
H1903 H 0.52413 0.19483 0.09492 0.0
C1904 C 0.48143 0.19174 0.13707 0.0
C1905 C 0.4857 0.21059 0.13306 0.0
C1906 C 0.48136 0.17566 0.12308 0.0
C1907 C 0.48551 0.17829 0.10498 0.0
C1908 C 0.48775 0.1967 0.10034 0.0
H1909 H 0.53176 0.11143 0.02044 0.0
H1910 H 0.51818 0.13526 0.03846 0.0
C1911 C 0.48782 0.21281 0.11432 0.0
C1912 C 0.49123 0.16293 0.09252 0.0
H1913 H 0.52932 0.1505 0.0784 0.0
C1914 C 0.47821 0.1461 0.08313 0.0
C1915 C 0.50987 0.16457 0.09098 0.0
C1916 C 0.5244 0.1821 0.10147 0.0
C1917 C 0.48346 0.13083 0.07182 0.0
C1918 C 0.50209 0.13257 0.07028 0.0
C1919 C 0.51504 0.14937 0.07971 0.0
C1920 C 0.50864 0.11734 0.05865 0.0
C1921 C 0.46918 0.1131 0.06141 0.0
C1922 C 0.50791 0.09959 0.0643 0.0
C1923 C 0.51563 0.08592 0.05395 0.0
C1924 C 0.52403 0.08994 0.03786 0.0
C1925 C 0.52484 0.10778 0.0324 0.0
C1926 C 0.5172 0.12141 0.04272 0.0
H1927 H 0.45532 0.11539 0.06164 0.0
H1928 H 0.4719 0.10925 0.04646 0.0
H1929 H 0.46961 0.10051 0.06813 0.0
H1930 H 0.50166 0.09649 0.07685 0.0
H1931 H 0.51489 0.07218 0.05836 0.0
H1932 H 0.13184 0.2987 0.35512 0.0
H1933 H 0.15393 0.29264 0.33346 0.0
H1934 H 0.162 0.35082 0.32255 0.0
H1935 H 0.13983 0.35719 0.3445 0.0
H1936 H 0.15569 0.29605 0.29395 0.0
H1937 H 0.21282 0.3467 0.34413 0.0
H1938 H 0.19074 0.33799 0.35162 0.0
H1939 H 0.19407 0.35577 0.33685 0.0
C1940 C 0.13817 0.3102 0.34804 0.0
C1941 C 0.13426 0.32851 0.35166 0.0
C1942 C 0.1507 0.30666 0.33559 0.0
C1943 C 0.15959 0.32133 0.32659 0.0
C1944 C 0.15529 0.3394 0.32954 0.0
H1945 H 0.24759 0.29825 0.2604 0.0
H1946 H 0.21999 0.30862 0.26749 0.0
C1947 C 0.14264 0.34297 0.34202 0.0
C1948 C 0.17425 0.31776 0.31529 0.0
H1949 H 0.22023 0.3255 0.31907 0.0
C1950 C 0.16984 0.30283 0.29909 0.0
C1951 C 0.19262 0.3266 0.32223 0.0
C1952 C 0.19799 0.34262 0.33969 0.0
C1953 C 0.18338 0.29572 0.29023 0.0
C1954 C 0.2016 0.30365 0.29796 0.0
C1955 C 0.20612 0.31941 0.31339 0.0
C1956 C 0.21607 0.29468 0.29156 0.0
C1957 C 0.17814 0.27891 0.27357 0.0
C1958 C 0.22261 0.28315 0.3026 0.0
C1959 C 0.23824 0.27716 0.29855 0.0
C1960 C 0.24728 0.28246 0.28328 0.0
C1961 C 0.24039 0.29347 0.27186 0.0
C1962 C 0.22477 0.29949 0.27593 0.0
H1963 H 0.16357 0.27557 0.26815 0.0
H1964 H 0.1865 0.28219 0.26197 0.0
H1965 H 0.18085 0.26585 0.27799 0.0
H1966 H 0.21607 0.27954 0.31485 0.0
H1967 H 0.24365 0.26903 0.3077 0.0
H1968 H 0.9749 0.041 0.21841 0.0
H1969 H 0.98761 0.04181 0.18857 0.0
H1970 H 0.97363 0.09574 0.18619 0.0
H1971 H 0.96047 0.095 0.21672 0.0
H1972 H 0.96668 0.06869 0.14964 0.0
H1973 H 0.03651 0.07594 0.18066 0.0
H1974 H 0.02 0.05649 0.18704 0.0
H1975 H 0.01902 0.08132 0.19487 0.0
C1976 C 0.97447 0.05327 0.21183 0.0
C1977 C 0.96663 0.06808 0.22062 0.0
C1978 C 0.98195 0.05369 0.1945 0.0
C1979 C 0.98219 0.06901 0.18486 0.0
C1980 C 0.97391 0.0837 0.19314 0.0
H1981 H 0.05326 0.07974 0.09078 0.0
H1982 H 0.03966 0.08504 0.1206 0.0
C1983 C 0.96629 0.08328 0.21074 0.0
C1984 C 0.99108 0.06919 0.16635 0.0
H1985 H 0.03081 0.06623 0.14715 0.0
C1986 C 0.98076 0.06835 0.14921 0.0
C1987 C 0.00958 0.06891 0.16527 0.0
C1988 C 0.02202 0.0709 0.18293 0.0
C1989 C 0.98807 0.06666 0.13143 0.0
C1990 C 0.00635 0.06535 0.13021 0.0
C1991 C 0.01681 0.06691 0.1475 0.0
C1992 C 0.01481 0.06228 0.1114 0.0
C1993 C 0.97599 0.06668 0.11414 0.0
C1994 C 0.00594 0.04757 0.09571 0.0
C1995 C 0.01373 0.04463 0.07845 0.0
C1996 C 0.03107 0.05588 0.07604 0.0
C1997 C 0.04007 0.07051 0.09177 0.0
C1998 C 0.03216 0.07358 0.10905 0.0
H1999 H 0.96543 0.0745 0.11796 0.0
H2000 H 0.98388 0.07364 0.10369 0.0
H2001 H 0.9689 0.05142 0.10737 0.0
H2002 H 0.99292 0.038 0.09679 0.0
H2003 H 0.00602 0.03329 0.06697 0.0
H2004 H 0.25129 0.66595 0.46034 0.0
H2005 H 0.25775 0.68352 0.43476 0.0
H2006 H 0.3152 0.69364 0.45011 0.0
H2007 H 0.3088 0.67563 0.47589 0.0
H2008 H 0.28203 0.72517 0.44666 0.0
H2009 H 0.30235 0.67542 0.38827 0.0
H2010 H 0.28751 0.66566 0.40467 0.0
H2011 H 0.31085 0.67749 0.41266 0.0
C2012 C 0.26531 0.6716 0.45809 0.0
C2013 C 0.27958 0.66968 0.47015 0.0
C2014 C 0.26896 0.68153 0.44346 0.0
C2015 C 0.2869 0.68981 0.44071 0.0
C2016 C 0.30128 0.68715 0.45206 0.0
H2017 H 0.28825 0.77978 0.3744 0.0
H2018 H 0.30172 0.76214 0.39477 0.0
C2019 C 0.29761 0.67693 0.4667 0.0
C2020 C 0.29001 0.70306 0.42738 0.0
H2021 H 0.29481 0.70339 0.38088 0.0
C2022 C 0.28535 0.72079 0.4324 0.0
C2023 C 0.29414 0.69695 0.40889 0.0
C2024 C 0.29903 0.67784 0.40313 0.0
C2025 C 0.28334 0.73199 0.41893 0.0
C2026 C 0.28667 0.72548 0.40012 0.0
C2027 C 0.29248 0.70834 0.39539 0.0
C2028 C 0.28151 0.7348 0.38489 0.0
C2029 C 0.27619 0.74978 0.42458 0.0
C2030 C 0.26631 0.72486 0.37194 0.0
C2031 C 0.25869 0.7348 0.36014 0.0
C2032 C 0.26614 0.75482 0.36123 0.0
C2033 C 0.28219 0.76435 0.37324 0.0
C2034 C 0.28988 0.75435 0.38492 0.0
H2035 H 0.27157 0.75091 0.43894 0.0
H2036 H 0.28706 0.76312 0.42458 0.0
H2037 H 0.26464 0.74947 0.41433 0.0
H2038 H 0.25972 0.70972 0.37174 0.0
H2039 H 0.2466 0.72698 0.35066 0.0
H2040 H 0.66121 0.00789 0.68869 0.0
H2041 H 0.64314 0.99576 0.6578 0.0
H2042 H 0.61084 0.03662 0.67257 0.0
H2043 H 0.62873 0.04894 0.70337 0.0
H2044 H 0.59852 0.98443 0.64779 0.0
H2045 H 0.64265 0.04779 0.62466 0.0
H2046 H 0.6501 0.03746 0.64377 0.0
H2047 H 0.63461 0.0526 0.6475 0.0
C2048 C 0.65008 0.01408 0.68548 0.0
C2049 C 0.64652 0.02956 0.6983 0.0
C2050 C 0.63976 0.00704 0.66794 0.0
C2051 C 0.62581 0.01536 0.66318 0.0
C2052 C 0.62159 0.03005 0.67625 0.0
H2053 H 0.54591 0.01838 0.58313 0.0
H2054 H 0.56204 0.00836 0.60825 0.0
C2055 C 0.63189 0.03714 0.69372 0.0
C2056 C 0.61708 0.01072 0.64381 0.0
H2057 H 0.6154 0.03119 0.60519 0.0
C2058 C 0.60234 0.99433 0.63821 0.0
C2059 C 0.62239 0.02368 0.63152 0.0
C2060 C 0.63838 0.04133 0.63704 0.0
C2061 C 0.59198 0.99118 0.62072 0.0
C2062 C 0.59658 0.0049 0.609 0.0
C2063 C 0.612 0.02063 0.61423 0.0
C2064 C 0.58464 0.00496 0.59238 0.0
C2065 C 0.57598 0.97363 0.61517 0.0
C2066 C 0.59185 0.00591 0.57513 0.0
C2067 C 0.58286 0.01204 0.56105 0.0
C2068 C 0.56655 0.0172 0.56406 0.0
C2069 C 0.55849 0.01453 0.5806 0.0
C2070 C 0.5676 0.00859 0.59483 0.0
H2071 H 0.57762 0.96171 0.62241 0.0
H2072 H 0.56352 0.97783 0.61938 0.0
H2073 H 0.57408 0.96806 0.59962 0.0
H2074 H 0.60503 1.00323 0.57308 0.0
H2075 H 0.58901 0.01341 0.54811 0.0
H2076 H 0.29393 0.37634 0.97166 0.0
H2077 H 0.29254 0.36448 0.9375 0.0
H2078 H 0.30096 0.30985 0.94742 0.0
H2079 H 0.30292 0.32183 0.98149 0.0
H2080 H 0.32487 0.32574 0.92557 0.0
H2081 H 0.25578 0.32609 0.89785 0.0
H2082 H 0.26789 0.34916 0.91217 0.0
H2083 H 0.26221 0.32797 0.92272 0.0
C2084 C 0.29499 0.36162 0.9665 0.0
C2085 C 0.29864 0.35004 0.97917 0.0
C2086 C 0.29415 0.35483 0.94699 0.0
C2087 C 0.29656 0.33622 0.93993 0.0
C2088 C 0.29912 0.32425 0.95258 0.0
H2089 H 0.30277 0.28232 0.82215 0.0
H2090 H 0.30284 0.28674 0.85675 0.0
C2091 C 0.30019 0.3311 0.97202 0.0
C2092 C 0.29825 0.32998 0.9196 0.0
H2093 H 0.27747 0.32492 0.87521 0.0
C2094 C 0.31437 0.32522 0.91455 0.0
C2095 C 0.28454 0.32932 0.90528 0.0
C2096 C 0.26656 0.33322 0.90977 0.0
C2097 C 0.3174 0.32055 0.89552 0.0
C2098 C 0.30402 0.32072 0.88132 0.0
C2099 C 0.28771 0.3249 0.88628 0.0
C2100 C 0.30711 0.31807 0.86122 0.0
C2101 C 0.33517 0.31639 0.89063 0.0
C2102 C 0.31006 0.3343 0.85262 0.0
C2103 C 0.31009 0.33183 0.83309 0.0
C2104 C 0.30726 0.31312 0.8219 0.0
C2105 C 0.3053 0.29692 0.83059 0.0
C2106 C 0.30524 0.29941 0.85024 0.0
H2107 H 0.34424 0.31682 0.9034 0.0
H2108 H 0.33262 0.30178 0.88127 0.0
H2109 H 0.34222 0.32731 0.88273 0.0
H2110 H 0.31151 0.34878 0.86095 0.0
H2111 H 0.3115 0.34447 0.8266 0.0
H2112 H 0.99739 0.07268 0.32345 0.0
H2113 H 0.00869 0.06873 0.35439 0.0
H2114 H 0.95695 0.06998 0.37439 0.0
H2115 H 0.94536 0.07355 0.34291 0.0
H2116 H 0.01549 0.08775 0.38924 0.0
H2117 H 0.9617 0.02142 0.39073 0.0
H2118 H 0.9641 0.03202 0.36996 0.0
H2119 H 0.95302 0.04215 0.38913 0.0
C2120 C 0.98834 0.07244 0.33443 0.0
C2121 C 0.97032 0.07366 0.33026 0.0
C2122 C 0.99491 0.07006 0.35237 0.0
C2123 C 0.98381 0.06847 0.3672 0.0
C2124 C 0.96596 0.07053 0.36341 0.0
H2125 H 1.00005 0.04895 0.48405 0.0
H2126 H 0.989 0.05342 0.45315 0.0
C2127 C 0.95934 0.07302 0.34532 0.0
C2128 C 0.9911 0.0646 0.38617 0.0
H2129 H 0.9824 0.03436 0.41837 0.0
C2130 C 0.00816 0.07599 0.39547 0.0
C2131 C 0.982 0.04922 0.39481 0.0
C2132 C 0.96429 0.03536 0.38559 0.0
C2133 C 0.01589 0.07292 0.41282 0.0
C2134 C 0.00675 0.05757 0.42148 0.0
C2135 C 0.98973 0.04614 0.41215 0.0
C2136 C 0.01398 0.05376 0.44051 0.0
C2137 C 0.03362 0.08674 0.42201 0.0
C2138 C 0.03184 0.05177 0.4444 0.0
C2139 C 0.03831 0.04914 0.46247 0.0
C2140 C 0.0271 0.04812 0.47731 0.0
C2141 C 0.0092 0.04952 0.47316 0.0
C2142 C 1.00278 0.05213 0.45526 0.0
H2143 H 0.03626 0.10066 0.41682 0.0
H2144 H 0.03382 0.09013 0.43764 0.0
H2145 H 0.04486 0.07989 0.41849 0.0
H2146 H 0.04091 0.05231 0.43348 0.0
H2147 H 0.05221 0.04834 0.46492 0.0
H2148 H 0.311 0.68793 0.56965 0.0
H2149 H 0.31828 0.71081 0.60039 0.0
H2150 H 0.26116 0.70311 0.60568 0.0
H2151 H 0.25381 0.68068 0.57516 0.0
H2152 H 0.28281 0.74312 0.61154 0.0
H2153 H 0.31038 0.69687 0.65376 0.0
H2154 H 0.31886 0.69961 0.63142 0.0
H2155 H 0.29581 0.68649 0.63188 0.0
C2156 C 0.30005 0.69105 0.57749 0.0
C2157 C 0.28186 0.68269 0.57003 0.0
C2158 C 0.30422 0.70407 0.59496 0.0
C2159 C 0.29021 0.70858 0.60513 0.0
C2160 C 0.27211 0.69989 0.59788 0.0
H2161 H 0.27783 0.74902 0.71858 0.0
H2162 H 0.2767 0.73291 0.68582 0.0
C2163 C 0.26795 0.68709 0.58047 0.0
C2164 C 0.29403 0.72254 0.6233 0.0
H2165 H 0.30663 0.72656 0.67012 0.0
C2166 C 0.28826 0.73973 0.62438 0.0
C2167 C 0.30101 0.71782 0.63985 0.0
C2168 C 0.30683 0.69918 0.63936 0.0
C2169 C 0.28848 0.75197 0.64184 0.0
C2170 C 0.29499 0.74697 0.65849 0.0
C2171 C 0.30158 0.73025 0.65726 0.0
C2172 C 0.29392 0.75791 0.67749 0.0
C2173 C 0.28087 0.76952 0.64238 0.0
C2174 C 0.30329 0.77759 0.6834 0.0
C2175 C 0.30362 0.78703 0.70211 0.0
C2176 C 0.29518 0.77668 0.71528 0.0
C2177 C 0.28488 0.75732 0.70896 0.0
C2178 C 0.28425 0.74805 0.69023 0.0
H2179 H 0.27262 0.76869 0.62891 0.0
H2180 H 0.27231 0.77101 0.65417 0.0
H2181 H 0.29222 0.78288 0.64466 0.0
H2182 H 0.31088 0.78544 0.67379 0.0
H2183 H 0.31105 0.80216 0.70637 0.0
H2184 H 0.69422 0.04544 0.81036 0.0
H2185 H 0.68259 0.04476 0.84122 0.0
H2186 H 0.62835 0.01959 0.813 0.0
H2187 H 0.63996 0.0203 0.78248 0.0
H2188 H 0.66089 0.06921 0.84582 0.0
H2189 H 0.62383 0.99924 0.86134 0.0
H2190 H 0.64143 1.00085 0.84559 0.0
H2191 H 0.61844 0.99963 0.83696 0.0
C2192 C 0.68 0.03876 0.81089 0.0
C2193 C 0.66784 0.03303 0.79438 0.0
C2194 C 0.67339 0.03829 0.82843 0.0
C2195 C 0.65463 0.0321 0.82938 0.0
C2196 C 0.64289 0.02404 0.81264 0.0
H2197 H 0.56395 0.05793 0.87293 0.0
H2198 H 0.58808 0.04818 0.85588 0.0
C2199 C 0.64947 0.02463 0.79519 0.0
C2200 C 0.64672 0.03959 0.84632 0.0
H2201 H 0.60993 0.02682 0.86996 0.0
C2202 C 0.65016 0.05996 0.85168 0.0
C2203 C 0.6327 0.0275 0.85377 0.0
C2204 C 0.62904 0.00558 0.84921 0.0
C2205 C 0.63862 0.06856 0.86257 0.0
C2206 C 0.62365 0.05637 0.86866 0.0
C2207 C 0.62125 0.03607 0.86487 0.0
C2208 C 0.60965 0.06425 0.87793 0.0
C2209 C 0.64172 0.09047 0.86613 0.0
C2210 C 0.61403 0.07718 0.89545 0.0
C2211 C 0.6004 0.0832 0.90486 0.0
C2212 C 0.58217 0.07594 0.8971 0.0
C2213 C 0.57792 0.0639 0.87906 0.0
C2214 C 0.59162 0.05809 0.86951 0.0
H2215 H 0.65136 0.09723 0.85686 0.0
H2216 H 0.62876 0.09456 0.86381 0.0
H2217 H 0.6475 0.09674 0.88104 0.0
H2218 H 0.62784 0.08192 0.90222 0.0
H2219 H 0.60396 0.09254 0.91879 0.0
H2220 H 0.2863 0.32236 0.06392 0.0
H2221 H 0.27809 0.30878 0.09172 0.0
H2222 H 0.28335 0.36676 0.12399 0.0
H2223 H 0.29083 0.38033 0.09577 0.0
H2224 H 0.30209 0.31705 0.12205 0.0
H2225 H 0.23916 0.33641 0.14338 0.0
H2226 H 0.24664 0.33798 0.12034 0.0
H2227 H 0.25675 0.35693 0.14057 0.0
C2228 C 0.2851 0.33212 0.0768 0.0
C2229 C 0.28917 0.35234 0.07782 0.0
C2230 C 0.28046 0.32437 0.09265 0.0
C2231 C 0.28009 0.33673 0.10991 0.0
C2232 C 0.28318 0.35691 0.11072 0.0
H2233 H 0.28847 0.32139 0.22507 0.0
H2234 H 0.28674 0.33364 0.19586 0.0
C2235 C 0.28749 0.36466 0.09465 0.0
C2236 C 0.27893 0.32864 0.12735 0.0
H2237 H 0.2556 0.32457 0.16586 0.0
C2238 C 0.29178 0.31852 0.1315 0.0
C2239 C 0.26561 0.33077 0.13975 0.0
C2240 C 0.25115 0.34096 0.13573 0.0
C2241 C 0.29175 0.31055 0.14778 0.0
C2242 C 0.27845 0.31269 0.16015 0.0
C2243 C 0.26567 0.32289 0.15616 0.0
C2244 C 0.27819 0.30504 0.17772 0.0
C2245 C 0.30615 0.30027 0.15187 0.0
C2246 C 0.27371 0.28487 0.17707 0.0
C2247 C 0.27467 0.27776 0.19374 0.0
C2248 C 0.28022 0.29076 0.21125 0.0
C2249 C 0.28432 0.31097 0.2118 0.0
C2250 C 0.28324 0.31803 0.19517 0.0
H2251 H 0.31729 0.30291 0.14271 0.0
H2252 H 0.31203 0.30512 0.16692 0.0
H2253 H 0.29994 0.28432 0.14934 0.0
H2254 H 0.26969 0.27468 0.16364 0.0
H2255 H 0.27139 0.26213 0.19286 0.0
H2256 H 0.25946 0.94065 0.03392 0.0
H2257 H 0.23547 0.9575 0.03842 0.0
H2258 H 0.25606 0.99258 0.9982 0.0
H2259 H 0.28016 0.97571 0.99348 0.0
H2260 H 0.24426 0.99833 0.05216 0.0
H2261 H 0.20037 0.97605 0.98357 0.0
H2262 H 0.21548 0.96213 0.99057 0.0
H2263 H 0.22431 0.98397 0.98189 0.0
C2264 C 0.2587 0.95167 0.02571 0.0
C2265 C 0.27179 0.95698 0.01344 0.0
C2266 C 0.24498 0.96126 0.02832 0.0
C2267 C 0.24402 0.97617 0.01859 0.0
C2268 C 0.25648 0.98088 0.00562 0.0
H2269 H 0.18546 0.06564 0.03048 0.0
H2270 H 0.20646 0.04519 0.02208 0.0
C2271 C 0.27026 0.97129 0.003 0.0
C2272 C 0.23125 0.98817 0.02359 0.0
H2273 H 0.19523 1.00225 0.0059 0.0
C2274 C 0.23346 0.99911 0.0421 0.0
C2275 C 0.21729 0.98913 0.01035 0.0
C2276 C 0.21405 0.97709 0.99051 0.0
C2277 C 0.22217 0.01129 0.04769 0.0
C2278 C 0.20826 0.01232 0.03445 0.0
C2279 C 0.206 1.00138 0.01594 0.0
C2280 C 0.19587 0.02469 0.03968 0.0
C2281 C 0.22534 0.02321 0.0676 0.0
C2282 C 0.18309 0.01977 0.05229 0.0
C2283 C 0.17115 0.03133 0.05701 0.0
C2284 C 0.17205 0.04802 0.04932 0.0
C2285 C 0.18491 0.05302 0.03683 0.0
C2286 C 0.19671 0.04132 0.03193 0.0
H2287 H 0.23875 0.02371 0.07482 0.0
H2288 H 0.2245 0.03836 0.06755 0.0
H2289 H 0.21465 0.01664 0.07595 0.0
H2290 H 0.1822 0.00685 0.05822 0.0
H2291 H 0.16107 0.02715 0.06643 0.0
H2292 H 0.75595 0.63879 0.99439 0.0
H2293 H 0.72737 0.61313 0.99079 0.0
H2294 H 0.69886 0.6569 0.00902 0.0
H2295 H 0.72686 0.68232 0.01223 0.0
H2296 H 0.70358 0.60322 0.01709 0.0
H2297 H 0.66837 0.62711 0.96018 0.0
H2298 H 0.69259 0.63564 0.96659 0.0
H2299 H 0.67734 0.6468 0.97998 0.0
C2300 C 0.74354 0.64288 0.99756 0.0
C2301 C 0.74364 0.66261 0.00335 0.0
C2302 C 0.72725 0.62824 0.99546 0.0
C2303 C 0.71089 0.63316 0.99913 0.0
C2304 C 0.71116 0.65279 0.00548 0.0
H2305 H 0.61173 0.58316 0.03591 0.0
H2306 H 0.64251 0.59894 0.03068 0.0
C2307 C 0.72727 0.66732 0.00742 0.0
C2308 C 0.69347 0.61803 0.99711 0.0
H2309 H 0.64913 0.6075 0.97866 0.0
C2310 C 0.69176 0.60388 0.00839 0.0
C2311 C 0.67806 0.61871 0.98556 0.0
C2312 C 0.67922 0.63276 0.97224 0.0
C2313 C 0.6748 0.59133 0.00941 0.0
C2314 C 0.65921 0.59311 0.99902 0.0
C2315 C 0.66109 0.60632 0.98677 0.0
C2316 C 0.6407 0.58275 0.00206 0.0
C2317 C 0.67354 0.5766 0.02199 0.0
C2318 C 0.62936 0.5686 0.98755 0.0
C2319 C 0.61167 0.55944 0.9905 0.0
C2320 C 0.60498 0.56451 0.00793 0.0
C2321 C 0.61639 0.57884 0.02232 0.0
C2322 C 0.63406 0.58782 0.01942 0.0
H2323 H 0.68693 0.57374 0.0253 0.0
H2324 H 0.6687 0.58227 0.03551 0.0
H2325 H 0.66371 0.56261 0.01522 0.0
H2326 H 0.6342 0.56465 0.97398 0.0
H2327 H 0.60318 0.54859 0.97907 0.0
H2328 H 0.69448 0.44768 0.30141 0.0
H2329 H 0.71136 0.42294 0.29909 0.0
H2330 H 0.72728 0.43499 0.24546 0.0
H2331 H 0.71047 0.46047 0.24798 0.0
H2332 H 0.70908 0.38984 0.2788 0.0
H2333 H 0.77578 0.43322 0.26598 0.0
H2334 H 0.75761 0.44431 0.27227 0.0
H2335 H 0.75787 0.43212 0.24826 0.0
C2336 C 0.70158 0.44536 0.28903 0.0
C2337 C 0.70083 0.45669 0.27496 0.0
C2338 C 0.71139 0.43085 0.28769 0.0
C2339 C 0.72127 0.42666 0.27225 0.0
C2340 C 0.72046 0.43779 0.25795 0.0
H2341 H 0.78407 0.3335 0.24893 0.0
H2342 H 0.76919 0.35997 0.24584 0.0
C2343 C 0.71053 0.45247 0.25929 0.0
C2344 C 0.73164 0.41042 0.27135 0.0
H2345 H 0.7729 0.39953 0.2646 0.0
C2346 C 0.72306 0.39223 0.2757 0.0
C2347 C 0.75004 0.41267 0.26724 0.0
C2348 C 0.76097 0.43167 0.26335 0.0
C2349 C 0.73189 0.3769 0.27607 0.0
C2350 C 0.75033 0.37926 0.27228 0.0
C2351 C 0.75887 0.39723 0.26753 0.0
C2352 C 0.76088 0.36367 0.27414 0.0
C2353 C 0.72104 0.35799 0.28029 0.0
C2354 C 0.76212 0.35679 0.29115 0.0
C2355 C 0.77086 0.34185 0.29299 0.0
C2356 C 0.77904 0.33286 0.27801 0.0
C2357 C 0.77828 0.33997 0.261 0.0
C2358 C 0.76957 0.3552 0.2592 0.0
H2359 H 0.70625 0.35597 0.27686 0.0
H2360 H 0.72499 0.34528 0.27221 0.0
H2361 H 0.72355 0.35817 0.29562 0.0
H2362 H 0.75616 0.36295 0.30323 0.0
H2363 H 0.77096 0.33706 0.30636 0.0
H2364 H 0.85029 0.48498 0.52202 0.0
H2365 H 0.87871 0.50409 0.51389 0.0
H2366 H 0.90797 0.49096 0.56071 0.0
H2367 H 0.87968 0.47212 0.56911 0.0
H2368 H 0.92488 0.52673 0.55063 0.0
H2369 H 0.90563 0.4636 0.48968 0.0
H2370 H 0.8902 0.47892 0.49275 0.0
H2371 H 0.89337 0.46484 0.51022 0.0
C2372 C 0.86264 0.48701 0.5312 0.0
C2373 C 0.86292 0.47651 0.5458 0.0
C2374 C 0.87888 0.4978 0.52641 0.0
C2375 C 0.89539 0.49821 0.53627 0.0
C2376 C 0.89533 0.49051 0.55276 0.0
H2377 H 0.9984 0.48599 0.50526 0.0
H2378 H 0.96628 0.48087 0.51035 0.0
C2379 C 0.87914 0.47975 0.55755 0.0
C2380 C 0.9125 0.50282 0.52763 0.0
H2381 H 0.93473 0.48438 0.49199 0.0
C2382 C 0.92701 0.51775 0.53764 0.0
C2383 C 0.91525 0.49057 0.51098 0.0
C2384 C 0.90038 0.47347 0.50031 0.0
C2385 C 0.94438 0.52059 0.53161 0.0
C2386 C 0.94708 0.50842 0.51486 0.0
C2387 C 0.93249 0.49373 0.50468 0.0
C2388 C 0.9652 0.51019 0.50832 0.0
C2389 C 0.95983 0.53594 0.54376 0.0
C2390 C 0.97478 0.52788 0.5044 0.0
C2391 C 0.99307 0.53092 0.502 0.0
C2392 C 1.00204 0.51613 0.50264 0.0
C2393 C 0.99189 0.49769 0.50462 0.0
C2394 C 0.97358 0.49476 0.50755 0.0
H2395 H 0.95636 0.54043 0.55832 0.0
H2396 H 0.97225 0.53058 0.54473 0.0
H2397 H 0.96295 0.54908 0.53735 0.0
H2398 H 0.96842 0.53979 0.50441 0.0
H2399 H 1.00025 0.54529 0.50082 0.0
H2400 H 0.40772 0.11009 0.30561 0.0
H2401 H 0.39492 0.13673 0.29985 0.0
H2402 H 0.34099 0.10029 0.29955 0.0
H2403 H 0.35379 0.074 0.30623 0.0
H2404 H 0.37626 0.13253 0.26782 0.0
H2405 H 0.33354 0.15167 0.32337 0.0
H2406 H 0.35004 0.13803 0.32674 0.0
H2407 H 0.3277 0.1258 0.31491 0.0
C2408 C 0.39317 0.10806 0.305 0.0
C2409 C 0.38169 0.09001 0.30618 0.0
C2410 C 0.38587 0.12328 0.30175 0.0
C2411 C 0.367 0.12056 0.29933 0.0
C2412 C 0.35559 0.10295 0.30184 0.0
H2413 H 0.30453 0.14945 0.21459 0.0
H2414 H 0.32202 0.13607 0.23582 0.0
C2415 C 0.36291 0.08785 0.3055 0.0
C2416 C 0.3593 0.1343 0.2906 0.0
H2417 H 0.32486 0.15695 0.29192 0.0
C2418 C 0.36533 0.13826 0.27339 0.0
C2419 C 0.3451 0.14188 0.29784 0.0
C2420 C 0.33888 0.13928 0.31684 0.0
C2421 C 0.35686 0.14861 0.26271 0.0
C2422 C 0.3417 0.15472 0.26916 0.0
C2423 C 0.33633 0.1519 0.2869 0.0
C2424 C 0.33061 0.16279 0.25696 0.0
C2425 C 0.3639 0.15244 0.24431 0.0
C2426 C 0.32941 0.18209 0.2621 0.0
C2427 C 0.3195 0.18979 0.24996 0.0
C2428 C 0.31057 0.17822 0.23257 0.0
C2429 C 0.31157 0.15879 0.22768 0.0
C2430 C 0.32146 0.15113 0.23982 0.0
H2431 H 0.3783 0.15193 0.24409 0.0
H2432 H 0.35577 0.14105 0.23244 0.0
H2433 H 0.36273 0.16688 0.24185 0.0
H2434 H 0.3364 0.19125 0.27532 0.0
H2435 H 0.31901 0.20486 0.25404 0.0
H2436 H 0.32108 0.12778 0.49033 0.0
H2437 H 0.34629 0.11304 0.49457 0.0
H2438 H 0.38032 0.16901 0.52312 0.0
H2439 H 0.35497 0.18379 0.51943 0.0
H2440 H 0.37941 0.12014 0.48203 0.0
H2441 H 0.38708 0.13563 0.56072 0.0
H2442 H 0.36789 0.13886 0.54705 0.0
H2443 H 0.38932 0.15682 0.5504 0.0
C2444 C 0.3339 0.13697 0.49757 0.0
C2445 C 0.33595 0.15694 0.50468 0.0
C2446 C 0.34832 0.12852 0.49996 0.0
C2447 C 0.36512 0.13984 0.50944 0.0
C2448 C 0.36736 0.15988 0.51618 0.0
H2449 H 0.46095 0.09841 0.53764 0.0
H2450 H 0.44197 0.12011 0.53124 0.0
C2451 C 0.35287 0.16833 0.51396 0.0
C2452 C 0.3802 0.1305 0.51205 0.0
H2453 H 0.40777 0.12011 0.54563 0.0
C2454 C 0.38566 0.12022 0.49594 0.0
C2455 C 0.38847 0.13073 0.53021 0.0
C2456 C 0.38282 0.14095 0.5481 0.0
C2457 C 0.39883 0.10981 0.49751 0.0
C2458 C 0.40663 0.10953 0.51567 0.0
C2459 C 0.40174 0.12041 0.53173 0.0
C2460 C 0.41865 0.09667 0.51838 0.0
C2461 C 0.40416 0.09901 0.47974 0.0
C2462 C 0.4118 0.07636 0.51327 0.0
C2463 C 0.42253 0.064 0.51692 0.0
C2464 C 0.44034 0.07169 0.52582 0.0
C2465 C 0.44732 0.09207 0.53063 0.0
C2466 C 0.4365 0.10446 0.52707 0.0
H2467 H 0.40104 0.10507 0.4672 0.0
H2468 H 0.41885 0.0996 0.48121 0.0
H2469 H 0.39641 0.08348 0.47708 0.0
H2470 H 0.39797 0.07005 0.50682 0.0
H2471 H 0.41684 0.04838 0.51287 0.0
H2472 H 0.71923 0.5726 0.3005 0.0
H2473 H 0.73799 0.60612 0.30228 0.0
H2474 H 0.71403 0.60578 0.24666 0.0
H2475 H 0.69536 0.57265 0.24497 0.0
H2476 H 0.76347 0.62548 0.27761 0.0
H2477 H 0.70134 0.65236 0.28067 0.0
H2478 H 0.70184 0.62858 0.28497 0.0
H2479 H 0.70041 0.63266 0.26117 0.0
C2480 C 0.71847 0.57942 0.28839 0.0
C2481 C 0.70601 0.56968 0.2724 0.0
C2482 C 0.72908 0.59873 0.28949 0.0
C2483 C 0.72732 0.60883 0.27472 0.0
C2484 C 0.71557 0.59864 0.2584 0.0
H2485 H 0.759 0.72782 0.25457 0.0
H2486 H 0.74561 0.69351 0.2546 0.0
C2487 C 0.70503 0.5795 0.25734 0.0
C2488 C 0.73676 0.63022 0.27656 0.0
H2489 H 0.72833 0.67495 0.27704 0.0
C2490 C 0.7558 0.63632 0.27762 0.0
C2491 C 0.7269 0.64457 0.27648 0.0
C2492 C 0.70651 0.63933 0.27592 0.0
C2493 C 0.76508 0.656 0.27793 0.0
C2494 C 0.75519 0.67042 0.27781 0.0
C2495 C 0.73615 0.66424 0.27708 0.0
C2496 C 0.76404 0.69174 0.27783 0.0
C2497 C 0.78537 0.66083 0.27751 0.0
C2498 C 0.77895 0.70288 0.29095 0.0
C2499 C 0.78694 0.72266 0.2907 0.0
C2500 C 0.78002 0.73219 0.27764 0.0
C2501 C 0.76484 0.7212 0.26487 0.0
C2502 C 0.75708 0.70139 0.2649 0.0
H2503 H 0.78998 0.64771 0.27157 0.0
H2504 H 0.78993 0.67209 0.26896 0.0
H2505 H 0.7921 0.66645 0.29218 0.0
H2506 H 0.78436 0.6964 0.30164 0.0
H2507 H 0.79841 0.73058 0.30098 0.0
H2508 H 0.85951 0.50918 0.78758 0.0
H2509 H 0.83253 0.48138 0.78247 0.0
H2510 H 0.86628 0.44186 0.76841 0.0
H2511 H 0.89296 0.46909 0.77331 0.0
H2512 H 0.83096 0.43473 0.74373 0.0
H2513 H 0.82672 0.44257 0.82144 0.0
H2514 H 0.82823 0.46304 0.80991 0.0
H2515 H 0.84774 0.45376 0.81317 0.0
C2516 C 0.86109 0.49455 0.78318 0.0
C2517 C 0.87837 0.49129 0.78101 0.0
C2518 C 0.8457 0.47878 0.78025 0.0
C2519 C 0.84754 0.45972 0.77505 0.0
C2520 C 0.86465 0.45655 0.77226 0.0
H2521 H 0.84009 0.35173 0.78068 0.0
H2522 H 0.84192 0.38658 0.78419 0.0
C2523 C 0.8799 0.47214 0.77519 0.0
C2524 C 0.83238 0.4425 0.77406 0.0
H2525 H 0.81736 0.41091 0.80273 0.0
C2526 C 0.82708 0.42964 0.7565 0.0
C2527 C 0.82751 0.43609 0.79082 0.0
C2528 C 0.83275 0.44952 0.80997 0.0
C2529 C 0.81913 0.4098 0.7555 0.0
C2530 C 0.81634 0.40299 0.77251 0.0
C2531 C 0.81956 0.41627 0.78981 0.0
C2532 C 0.81402 0.38225 0.77286 0.0
C2533 C 0.81577 0.39593 0.73655 0.0
C2534 C 0.79774 0.36849 0.76543 0.0
C2535 C 0.79672 0.34867 0.76359 0.0
C2536 C 0.81172 0.34242 0.76974 0.0
C2537 C 0.82803 0.35626 0.77699 0.0
C2538 C 0.8291 0.37607 0.77883 0.0
H2539 H 0.81901 0.40363 0.7247 0.0
H2540 H 0.82415 0.38529 0.73657 0.0
H2541 H 0.80132 0.38757 0.73394 0.0
H2542 H 0.78609 0.37305 0.76048 0.0
H2543 H 0.78431 0.3384 0.75697 0.0
H2544 H 0.11091 0.87605 0.08332 0.0
H2545 H 0.103 0.90369 0.07305 0.0
H2546 H 0.04618 0.87589 0.07271 0.0
H2547 H 0.05429 0.84898 0.08467 0.0
H2548 H 0.08791 0.90887 0.04419 0.0
H2549 H 0.04433 0.92688 0.09942 0.0
H2550 H 0.057 0.90901 0.10051 0.0
H2551 H 0.03535 0.9025 0.08628 0.0
C2552 C 0.09673 0.87599 0.08134 0.0
C2553 C 0.08323 0.86045 0.08504 0.0
C2554 C 0.09217 0.8918 0.07532 0.0
C2555 C 0.07393 0.89232 0.07232 0.0
C2556 C 0.06038 0.87645 0.07556 0.0
H2557 H 0.05836 0.98628 0.01231 0.0
H2558 H 0.05882 0.95375 0.01788 0.0
C2559 C 0.065 0.86092 0.08226 0.0
C2560 C 0.06938 0.90931 0.0655 0.0
H2561 H 0.04403 0.94254 0.07336 0.0
C2562 C 0.07845 0.91635 0.05077 0.0
C2563 C 0.05708 0.91931 0.07395 0.0
C2564 C 0.04805 0.91416 0.09103 0.0
C2565 C 0.07617 0.93329 0.04481 0.0
C2566 C 0.06343 0.94294 0.05288 0.0
C2567 C 0.05379 0.93535 0.06703 0.0
C2568 C 0.06116 0.96194 0.04854 0.0
C2569 C 0.08826 0.94109 0.03071 0.0
C2570 C 0.06094 0.97723 0.0636 0.0
C2571 C 0.05936 0.99526 0.06029 0.0
C2572 C 0.05834 0.99888 0.04184 0.0
C2573 C 0.05862 0.98378 0.02665 0.0
C2574 C 0.0594 0.96529 0.02992 0.0
H2575 H 0.10063 0.93553 0.0304 0.0
H2576 H 0.08079 0.93621 0.01632 0.0
H2577 H 0.09262 0.95727 0.03403 0.0
H2578 H 0.06242 0.97544 0.07813 0.0
H2579 H 0.05945 0.00667 0.07235 0.0
H2580 H 0.97806 0.2681 0.87627 0.0
H2581 H 0.95227 0.27259 0.85706 0.0
H2582 H 0.91682 0.25477 0.89834 0.0
H2583 H 0.94226 0.25033 0.91752 0.0
H2584 H 0.91729 0.24677 0.84139 0.0
H2585 H 0.91055 0.30935 0.89525 0.0
H2586 H 0.93043 0.29996 0.89555 0.0
H2587 H 0.91018 0.28759 0.90419 0.0
C2588 C 0.96473 0.26483 0.8811 0.0
C2589 C 0.96234 0.25898 0.89855 0.0
C2590 C 0.95 0.2675 0.87015 0.0
C2591 C 0.93268 0.26447 0.87648 0.0
C2592 C 0.93012 0.25766 0.89336 0.0
H2593 H 0.82769 0.28179 0.83917 0.0
H2594 H 0.85341 0.27514 0.85664 0.0
C2595 C 0.94472 0.25499 0.90426 0.0
C2596 C 0.91728 0.26877 0.86582 0.0
H2597 H 0.88715 0.29717 0.86979 0.0
C2598 C 0.91077 0.25787 0.84753 0.0
C2599 C 0.90866 0.28317 0.87389 0.0
C2600 C 0.91538 0.29583 0.89323 0.0
C2601 C 0.89565 0.26065 0.83728 0.0
C2602 C 0.88705 0.27512 0.84533 0.0
C2603 C 0.89364 0.28605 0.86361 0.0
C2604 C 0.87146 0.27939 0.8349 0.0
C2605 C 0.88873 0.24763 0.81813 0.0
C2606 C 0.87313 0.28455 0.81714 0.0
C2607 C 0.85847 0.28821 0.80717 0.0
C2608 C 0.84183 0.28706 0.81481 0.0
C2609 C 0.84033 0.28271 0.83292 0.0
C2610 C 0.855 0.27885 0.84286 0.0
H2611 H 0.8929 0.23374 0.81671 0.0
H2612 H 0.87371 0.24415 0.81558 0.0
H2613 H 0.89454 0.2552 0.80696 0.0
H2614 H 0.88582 0.28583 0.81096 0.0
H2615 H 0.86025 0.29217 0.79351 0.0
H2616 H 0.5872 0.2558 0.55184 0.0
H2617 H 0.58149 0.22039 0.54269 0.0
H2618 H 0.56055 0.21429 0.596 0.0
H2619 H 0.56565 0.24967 0.60497 0.0
H2620 H 0.59646 0.19687 0.55833 0.0
H2621 H 0.52239 0.17328 0.5612 0.0
H2622 H 0.53403 0.19841 0.56209 0.0
H2623 H 0.53389 0.18828 0.58314 0.0
C2624 C 0.58099 0.24691 0.56147 0.0
C2625 C 0.57675 0.25563 0.5791 0.0
C2626 C 0.57783 0.22662 0.55624 0.0
C2627 C 0.57039 0.21452 0.56852 0.0
C2628 C 0.56584 0.22317 0.58601 0.0
H2629 H 0.55785 0.09397 0.57574 0.0
H2630 H 0.56364 0.12958 0.58133 0.0
C2631 C 0.56881 0.24347 0.59116 0.0
C2632 C 0.56843 0.19304 0.56348 0.0
H2633 H 0.53855 0.14856 0.56041 0.0
C2634 C 0.58372 0.18634 0.55856 0.0
C2635 C 0.55182 0.17917 0.56373 0.0
C2636 C 0.53457 0.18514 0.56763 0.0
C2637 C 0.58295 0.1663 0.5544 0.0
C2638 C 0.56652 0.15257 0.55526 0.0
C2639 C 0.55119 0.15917 0.55991 0.0
C2640 C 0.565 0.13127 0.55187 0.0
C2641 C 0.5998 0.15984 0.54975 0.0
C2642 C 0.56411 0.12044 0.53345 0.0
C2643 C 0.56067 0.10005 0.53021 0.0
C2644 C 0.55833 0.0902 0.54538 0.0
C2645 C 0.55981 0.10119 0.56383 0.0
C2646 C 0.56307 0.1215 0.56703 0.0
H2647 H 0.61181 0.17236 0.55067 0.0
H2648 H 0.60274 0.15058 0.55964 0.0
H2649 H 0.59754 0.15088 0.5352 0.0
H2650 H 0.56538 0.12769 0.52152 0.0
H2651 H 0.55917 0.09201 0.5158 0.0
H2652 H 0.56038 0.75223 0.38358 0.0
H2653 H 0.58643 0.75117 0.36548 0.0
H2654 H 0.61208 0.81092 0.39211 0.0
H2655 H 0.58654 0.81184 0.41061 0.0
H2656 H 0.60066 0.77054 0.34002 0.0
H2657 H 0.65307 0.78734 0.40097 0.0
H2658 H 0.62917 0.78152 0.40368 0.0
H2659 H 0.64107 0.80596 0.40221 0.0
C2660 C 0.5716 0.76512 0.38559 0.0
C2661 C 0.5714 0.78206 0.39869 0.0
C2662 C 0.58653 0.76449 0.37526 0.0
C2663 C 0.60156 0.78079 0.37775 0.0
C2664 C 0.60105 0.79789 0.39037 0.0
H2665 H 0.68755 0.82056 0.31288 0.0
H2666 H 0.66358 0.81556 0.33389 0.0
C2667 C 0.58629 0.79846 0.40084 0.0
C2668 C 0.61747 0.78028 0.36672 0.0
H2669 H 0.66395 0.79169 0.371 0.0
C2670 C 0.61446 0.77488 0.34687 0.0
C2671 C 0.63559 0.78574 0.37554 0.0
C2672 C 0.63991 0.79025 0.39678 0.0
C2673 C 0.62898 0.77568 0.33567 0.0
C2674 C 0.64701 0.78212 0.34447 0.0
C2675 C 0.65009 0.78688 0.36428 0.0
C2676 C 0.6627 0.78526 0.33315 0.0
C2677 C 0.62508 0.77018 0.31441 0.0
C2678 C 0.67049 0.76997 0.32615 0.0
C2679 C 0.68435 0.77284 0.31421 0.0
C2680 C 0.69046 0.79098 0.30894 0.0
C2681 C 0.68303 0.80638 0.31656 0.0
C2682 C 0.66935 0.80357 0.32858 0.0
H2683 H 0.61031 0.76509 0.30968 0.0
H2684 H 0.63099 0.78295 0.30813 0.0
H2685 H 0.63163 0.75843 0.30889 0.0
H2686 H 0.66553 0.75572 0.32952 0.0
H2687 H 0.68973 0.76067 0.30846 0.0
H2688 H 0.10167 0.26548 0.40464 0.0
H2689 H 0.10003 0.23422 0.41445 0.0
H2690 H 0.09575 0.26103 0.47183 0.0
H2691 H 0.09729 0.29203 0.46223 0.0
H2692 H 0.11954 0.23332 0.46616 0.0
H2693 H 0.04894 0.20571 0.42981 0.0
H2694 H 0.06717 0.21579 0.41692 0.0
H2695 H 0.05999 0.23146 0.43545 0.0
C2696 C 0.10083 0.26475 0.41941 0.0
C2697 C 0.0994 0.28102 0.43268 0.0
C2698 C 0.09983 0.24694 0.42494 0.0
C2699 C 0.09763 0.24545 0.44378 0.0
C2700 C 0.09745 0.26201 0.45722 0.0
H2701 H 0.06892 0.18503 0.52817 0.0
H2702 H 0.08092 0.20638 0.50671 0.0
C2703 C 0.09826 0.27964 0.45171 0.0
C2704 C 0.09361 0.22651 0.44959 0.0
H2705 H 0.05751 0.18912 0.45242 0.0
C2706 C 0.10618 0.22328 0.46278 0.0
C2707 C 0.07615 0.21357 0.44508 0.0
C2708 C 0.06218 0.21669 0.43108 0.0
C2709 C 0.10129 0.20809 0.47259 0.0
C2710 C 0.08332 0.19619 0.46927 0.0
C2711 C 0.07124 0.19842 0.45496 0.0
C2712 C 0.07619 0.18307 0.48201 0.0
C2713 C 0.11513 0.20546 0.48702 0.0
C2714 C 0.06892 0.16307 0.47498 0.0
C2715 C 0.06181 0.1509 0.48716 0.0
C2716 C 0.06175 0.15863 0.50648 0.0
C2717 C 0.06865 0.17874 0.51333 0.0
C2718 C 0.07577 0.19087 0.50117 0.0
H2719 H 0.12915 0.21103 0.48355 0.0
H2720 H 0.11387 0.21385 0.50113 0.0
H2721 H 0.11299 0.18988 0.48795 0.0
H2722 H 0.06888 0.15691 0.46014 0.0
H2723 H 0.05639 0.13544 0.48149 0.0
H2724 H 0.56272 0.26617 0.1577 0.0
H2725 H 0.59358 0.26237 0.16363 0.0
H2726 H 0.59122 0.2781 0.22375 0.0
H2727 H 0.56034 0.28128 0.21792 0.0
H2728 H 0.62863 0.28566 0.18843 0.0
H2729 H 0.59139 0.21834 0.21024 0.0
H2730 H 0.58047 0.23156 0.19619 0.0
H2731 H 0.58543 0.24 0.22138 0.0
C2732 C 0.56916 0.26961 0.17211 0.0
C2733 C 0.55933 0.27391 0.18742 0.0
C2734 C 0.58668 0.26736 0.17546 0.0
C2735 C 0.59439 0.26964 0.19411 0.0
C2736 C 0.58531 0.2761 0.20929 0.0
H2737 H 0.69179 0.27139 0.2555 0.0
H2738 H 0.66637 0.27777 0.23787 0.0
C2739 C 0.56778 0.278 0.20597 0.0
C2740 C 0.61041 0.26249 0.19806 0.0
H2741 H 0.62323 0.22894 0.21977 0.0
C2742 C 0.62753 0.2731 0.19502 0.0
C2743 C 0.60876 0.24575 0.2061 0.0
C2744 C 0.59051 0.23311 0.20851 0.0
C2745 C 0.64327 0.26812 0.2011 0.0
C2746 C 0.64167 0.25246 0.21077 0.0
C2747 C 0.62445 0.24108 0.21256 0.0
C2748 C 0.65753 0.24864 0.22064 0.0
C2749 C 0.66142 0.27986 0.19736 0.0
C2750 C 0.66049 0.22989 0.21741 0.0
C2751 C 0.67485 0.22611 0.22773 0.0
C2752 C 0.68643 0.24106 0.24139 0.0
C2753 C 0.68321 0.2597 0.24482 0.0
C2754 C 0.66883 0.26341 0.23462 0.0
H2755 H 0.66014 0.28599 0.18444 0.0
H2756 H 0.66677 0.29228 0.20946 0.0
H2757 H 0.67139 0.27088 0.19565 0.0
H2758 H 0.65171 0.21821 0.20687 0.0
H2759 H 0.67715 0.21166 0.22476 0.0
H2760 H 0.62565 0.88163 0.91049 0.0
H2761 H 0.63082 0.91689 0.92145 0.0
H2762 H 0.59735 0.90653 0.96648 0.0
H2763 H 0.59297 0.87178 0.95635 0.0
H2764 H 0.60573 0.93473 0.91985 0.0
H2765 H 0.63397 0.9526 0.99426 0.0
H2766 H 0.63428 0.92989 0.97908 0.0
H2767 H 0.61492 0.93196 0.99174 0.0
C2768 C 0.62003 0.88695 0.92319 0.0
C2769 C 0.60875 0.87393 0.93246 0.0
C2770 C 0.62293 0.90708 0.92938 0.0
C2771 C 0.61463 0.91441 0.94491 0.0
C2772 C 0.60438 0.90138 0.95484 0.0
H2773 H 0.55182 0.99473 0.95778 0.0
H2774 H 0.56803 0.97066 0.94518 0.0
C2775 C 0.60168 0.88139 0.94885 0.0
C2776 C 0.61397 0.93507 0.94906 0.0
H2777 H 0.61121 0.97014 0.98627 0.0
C2778 C 0.60752 0.94283 0.93432 0.0
C2779 C 0.61671 0.94594 0.9678 0.0
C2780 C 0.62557 0.93967 0.98401 0.0
C2781 C 0.60214 0.96028 0.93807 0.0
C2782 C 0.60249 0.96967 0.95709 0.0
C2783 C 0.61049 0.96281 0.97164 0.0
C2784 C 0.59346 0.98556 0.96254 0.0
C2785 C 0.59583 0.96813 0.92158 0.0
C2786 C 0.60212 1.00174 0.97674 0.0
C2787 C 0.59258 0.01482 0.98455 0.0
C2788 C 0.5744 0.01247 0.97782 0.0
C2789 C 0.56595 0.99701 0.96289 0.0
C2790 C 0.5753 0.98339 0.95557 0.0
H2791 H 0.60339 0.96479 0.90927 0.0
H2792 H 0.58126 0.9609 0.91707 0.0
H2793 H 0.59762 0.98415 0.92527 0.0
H2794 H 0.61605 1.00374 0.98244 0.0
H2795 H 0.5993 0.02644 0.99631 0.0
H2796 H 0.95277 0.73716 0.69644 0.0
H2797 H 0.92637 0.7408 0.71202 0.0
H2798 H 0.94518 0.80347 0.71991 0.0
H2799 H 0.97186 0.79979 0.70333 0.0
H2800 H 0.92426 0.75832 0.74759 0.0
H2801 H 0.89377 0.79218 0.69457 0.0
H2802 H 0.9127 0.78177 0.69006 0.0
H2803 H 0.91609 0.80486 0.70596 0.0
C2804 C 0.9514 0.75178 0.70151 0.0
C2805 C 0.96439 0.76824 0.69886 0.0
C2806 C 0.93631 0.75382 0.71048 0.0
C2807 C 0.9339 0.77237 0.71723 0.0
C2808 C 0.9468 0.78901 0.71465 0.0
H2809 H 0.83943 0.76566 0.78148 0.0
H2810 H 0.87073 0.77008 0.77394 0.0
C2811 C 0.96195 0.78693 0.70524 0.0
C2812 C 0.91732 0.77347 0.72626 0.0
H2813 H 0.87581 0.781 0.71704 0.0
C2814 C 0.9137 0.76371 0.74131 0.0
C2815 C 0.90361 0.78016 0.71768 0.0
C2816 C 0.90658 0.79023 0.7011 0.0
C2817 C 0.89632 0.75922 0.7472 0.0
C2818 C 0.88245 0.76571 0.73847 0.0
C2819 C 0.88643 0.7763 0.72401 0.0
C2820 C 0.86358 0.76135 0.74351 0.0
C2821 C 0.89287 0.74625 0.76153 0.0
C2822 C 0.84904 0.75512 0.72905 0.0
C2823 C 0.83136 0.75391 0.73338 0.0
C2824 C 0.82797 0.75849 0.75221 0.0
C2825 C 0.84205 0.76275 0.76682 0.0
C2826 C 0.85988 0.76481 0.76249 0.0
H2827 H 0.9026 0.73698 0.76131 0.0
H2828 H 0.89479 0.75546 0.77594 0.0
H2829 H 0.87892 0.73651 0.75892 0.0
H2830 H 0.85141 0.75191 0.71432 0.0
H2831 H 0.82041 0.74998 0.72199 0.0
H2832 H 0.16224 0.00926 0.83728 0.0
H2833 H 0.1502 0.01074 0.86846 0.0
H2834 H 0.10028 0.0181 0.84367 0.0
H2835 H 0.11196 0.01641 0.81303 0.0
H2836 H 0.13891 0.04017 0.89158 0.0
H2837 H 0.07937 0.97684 0.87228 0.0
H2838 H 0.09735 0.98103 0.85726 0.0
H2839 H 0.07977 0.99376 0.85684 0.0
C2840 C 0.14853 0.01065 0.83835 0.0
C2841 C 0.13813 0.0124 0.82218 0.0
C2842 C 0.14163 0.01174 0.85637 0.0
C2843 C 0.12399 0.01428 0.85885 0.0
C2844 C 0.11365 0.01566 0.84259 0.0
H2845 H 0.05275 0.03015 0.95017 0.0
H2846 H 0.06643 0.02518 0.92043 0.0
C2847 C 0.1205 0.01474 0.82481 0.0
C2848 C 0.11647 0.01632 0.8782 0.0
H2849 H 0.07927 0.99921 0.90093 0.0
C2850 C 0.12596 0.031 0.8936 0.0
C2851 C 0.09938 0.00472 0.88132 0.0
C2852 C 0.08845 0.98809 0.86611 0.0
C2853 C 0.1188 0.03476 0.91131 0.0
C2854 C 0.10165 0.02317 0.91444 0.0
C2855 C 0.09229 0.00833 0.89905 0.0
C2856 C 0.09312 0.02621 0.93322 0.0
C2857 C 0.12951 0.05186 0.92617 0.0
C2858 C 0.103 0.02821 0.95099 0.0
C2859 C 0.0951 0.03121 0.96822 0.0
C2860 C 0.07677 0.03191 0.96859 0.0
C2861 C 0.06675 0.0295 0.95083 0.0
C2862 C 0.07472 0.0267 0.93358 0.0
H2863 H 0.13861 0.06286 0.91975 0.0
H2864 H 0.12046 0.05915 0.93456 0.0
H2865 H 0.13818 0.04665 0.93589 0.0
H2866 H 0.11691 0.02722 0.95167 0.0
H2867 H 0.10343 0.03276 0.98135 0.0
H2868 H 0.80505 0.36379 0.55477 0.0
H2869 H 0.80048 0.34972 0.58295 0.0
H2870 H 0.7938 0.40425 0.6138 0.0
H2871 H 0.79765 0.41812 0.58535 0.0
H2872 H 0.82819 0.36986 0.61099 0.0
H2873 H 0.76103 0.36328 0.63852 0.0
H2874 H 0.76413 0.36382 0.61399 0.0
H2875 H 0.77065 0.38598 0.63156 0.0
C2876 C 0.80171 0.37241 0.56733 0.0
C2877 C 0.80192 0.39202 0.56816 0.0
C2878 C 0.79905 0.36437 0.58335 0.0
C2879 C 0.79692 0.37602 0.6004 0.0
C2880 C 0.79513 0.39497 0.60067 0.0
H2881 H 0.84843 0.36722 0.70728 0.0
H2882 H 0.8346 0.38079 0.68312 0.0
C2883 C 0.79743 0.4029 0.58447 0.0
C2884 C 0.80129 0.37022 0.61824 0.0
H2885 H 0.78528 0.3604 0.6594 0.0
C2886 C 0.81877 0.3677 0.62153 0.0
C2887 C 0.78902 0.36775 0.63197 0.0
C2888 C 0.77009 0.37019 0.62885 0.0
C2889 C 0.82427 0.36242 0.63812 0.0
C2890 C 0.81206 0.35998 0.6519 0.0
C2891 C 0.79459 0.3626 0.64878 0.0
C2892 C 0.81704 0.35301 0.66878 0.0
C2893 C 0.84297 0.35906 0.64066 0.0
C2894 C 0.81128 0.33308 0.66877 0.0
C2895 C 0.81935 0.32526 0.68221 0.0
C2896 C 0.83322 0.33734 0.69591 0.0
C2897 C 0.83804 0.35755 0.69665 0.0
C2898 C 0.83 0.36535 0.68309 0.0
H2899 H 0.84994 0.35941 0.62762 0.0
H2900 H 0.85142 0.37054 0.65226 0.0
H2901 H 0.84211 0.34474 0.64469 0.0
H2902 H 0.80145 0.32339 0.6576 0.0
H2903 H 0.81545 0.30961 0.68116 0.0
H2904 H 0.44157 0.07345 0.3453 0.0
H2905 H 0.45912 0.08204 0.37655 0.0
H2906 H 0.48532 0.03584 0.36005 0.0
H2907 H 0.468 0.0271 0.32891 0.0
H2908 H 0.46429 0.0371 0.39499 0.0
H2909 H 0.51762 0.10422 0.3917 0.0
H2910 H 0.49452 0.10148 0.38223 0.0
H2911 H 0.50753 0.08614 0.37066 0.0
C2912 C 0.45127 0.06531 0.34824 0.0
C2913 C 0.45335 0.04952 0.33472 0.0
C2914 C 0.46127 0.07029 0.36601 0.0
C2915 C 0.47344 0.05958 0.37034 0.0
C2916 C 0.47599 0.04427 0.35674 0.0
H2917 H 0.55054 0.05362 0.45527 0.0
H2918 H 0.53473 0.0599 0.42754 0.0
C2919 C 0.46606 0.0393 0.33902 0.0
C2920 C 0.48239 0.06295 0.38956 0.0
H2921 H 0.51914 0.09122 0.4193 0.0
C2922 C 0.47613 0.04906 0.40051 0.0
C2923 C 0.4978 0.07853 0.39637 0.0
C2924 C 0.50491 0.09351 0.3847 0.0
C2925 C 0.48536 0.04995 0.41803 0.0
C2926 C 0.50102 0.06537 0.42476 0.0
C2927 C 0.50701 0.07958 0.41403 0.0
C2928 C 0.51212 0.06577 0.44215 0.0
C2929 C 0.47881 0.03388 0.42876 0.0
C2930 C 0.50488 0.0678 0.45951 0.0
C2931 C 0.51381 0.06407 0.47522 0.0
C2932 C 0.53016 0.05856 0.47374 0.0
C2933 C 0.53808 0.05803 0.45674 0.0
C2934 C 0.52905 0.06159 0.44095 0.0
H2935 H 0.46859 0.02126 0.41991 0.0
H2936 H 0.49033 0.02861 0.43399 0.0
H2937 H 0.47245 0.03962 0.44121 0.0
H2938 H 0.49189 0.07125 0.46063 0.0
H2939 H 0.50766 0.0649 0.48836 0.0
H2940 H 0.81425 0.71337 0.07082 0.0
H2941 H 0.81552 0.72435 0.10514 0.0
H2942 H 0.79734 0.77457 0.09646 0.0
H2943 H 0.79593 0.76377 0.0622 0.0
H2944 H 0.82973 0.77701 0.12942 0.0
H2945 H 0.76206 0.72506 0.12642 0.0
H2946 H 0.77904 0.71696 0.11321 0.0
H2947 H 0.76939 0.73533 0.10629 0.0
C2948 C 0.81096 0.727 0.0762 0.0
C2949 C 0.80482 0.7376 0.06378 0.0
C2950 C 0.81164 0.7332 0.09579 0.0
C2951 C 0.80636 0.75014 0.10318 0.0
C2952 C 0.80142 0.76144 0.09093 0.0
H2953 H 0.8034 0.80169 0.2229 0.0
H2954 H 0.80179 0.79764 0.18826 0.0
C2955 C 0.80062 0.75521 0.07138 0.0
C2956 C 0.80438 0.75508 0.12353 0.0
H2957 H 0.77611 0.74244 0.15649 0.0
C2958 C 0.81801 0.76959 0.13542 0.0
C2959 C 0.78899 0.74536 0.1311 0.0
C2960 C 0.77392 0.72984 0.11868 0.0
C2961 C 0.81697 0.77415 0.15501 0.0
C2962 C 0.80163 0.76424 0.16267 0.0
C2963 C 0.78779 0.75009 0.15058 0.0
C2964 C 0.80052 0.76678 0.18334 0.0
C2965 C 0.83264 0.7889 0.16737 0.0
C2966 C 0.79934 0.75061 0.19192 0.0
C2967 C 0.79984 0.75281 0.2115 0.0
C2968 C 0.80141 0.77119 0.22289 0.0
C2969 C 0.80193 0.78731 0.21435 0.0
C2970 C 0.80128 0.78506 0.19463 0.0
H2971 H 0.84495 0.79194 0.15983 0.0
H2972 H 0.82879 0.80281 0.1717 0.0
H2973 H 0.8361 0.78374 0.18037 0.0
H2974 H 0.79869 0.73636 0.1835 0.0
H2975 H 0.79954 0.74021 0.21782 0.0
H2976 H 0.10962 0.01452 0.72101 0.0
H2977 H 0.09819 0.01698 0.68966 0.0
H2978 H 0.1475 0.0079 0.66828 0.0
H2979 H 0.15911 0.00524 0.7001 0.0
H2980 H 0.10831 0.04263 0.66877 0.0
H2981 H 0.11264 0.97248 0.62585 0.0
H2982 H 0.11561 0.97737 0.65138 0.0
H2983 H 0.13398 0.98679 0.63839 0.0
C2984 C 0.11808 0.01263 0.70968 0.0
C2985 C 0.13541 0.00941 0.71354 0.0
C2986 C 0.11144 0.01421 0.6915 0.0
C2987 C 0.12166 0.01259 0.67598 0.0
C2988 C 0.13887 0.00887 0.67956 0.0
H2989 H 0.10548 0.02879 0.55809 0.0
H2990 H 0.11653 0.02462 0.58913 0.0
C2991 C 0.1456 0.00726 0.69795 0.0
C2992 C 0.11434 0.01562 0.65668 0.0
H2993 H 0.10534 0.99544 0.60894 0.0
C2994 C 0.1076 0.03212 0.65578 0.0
C2995 C 0.11321 1.00222 0.63928 0.0
C2996 C 0.11907 0.98362 0.6387 0.0
C2997 C 0.10028 0.03568 0.63851 0.0
C2998 C 0.09915 0.0223 0.62114 0.0
C2999 C 0.10594 0.00584 0.62199 0.0
C3000 C 0.09185 0.0255 0.60196 0.0
C3001 C 0.09451 0.05429 0.63888 0.0
C3002 C 0.07401 0.02746 0.59807 0.0
C3003 C 0.06747 0.02975 0.5799 0.0
C3004 C 0.07864 0.03046 0.565 0.0
C3005 C 0.0964 0.02856 0.56904 0.0
C3006 C 0.10281 0.02609 0.58698 0.0
H3007 H 0.09936 0.06485 0.65249 0.0
H3008 H 0.09983 0.06128 0.62717 0.0
H3009 H 0.07949 0.05095 0.6369 0.0
H3010 H 0.06489 0.02674 0.60896 0.0
H3011 H 0.05362 0.03069 0.57746 0.0
H3012 H 0.85679 0.40251 0.47916 0.0
H3013 H 0.85653 0.38378 0.44746 0.0
H3014 H 0.79848 0.3745 0.43818 0.0
H3015 H 0.7986 0.39355 0.46992 0.0
H3016 H 0.83769 0.34471 0.43463 0.0
H3017 H 0.81702 0.39343 0.39089 0.0
H3018 H 0.82524 0.40159 0.41569 0.0
H3019 H 0.80225 0.38746 0.40855 0.0
C3020 C 0.84397 0.39666 0.47032 0.0
C3021 C 0.82768 0.39936 0.477 0.0
C3022 C 0.84387 0.38596 0.45226 0.0
C3023 C 0.82751 0.37786 0.44062 0.0
C3024 C 0.81125 0.38091 0.44699 0.0
H3025 H 0.80257 0.28641 0.34079 0.0
H3026 H 0.80763 0.30366 0.37385 0.0
C3027 C 0.81134 0.39174 0.46507 0.0
C3028 C 0.82745 0.36551 0.42209 0.0
H3029 H 0.81746 0.36185 0.37487 0.0
C3030 C 0.83334 0.34843 0.42151 0.0
C3031 C 0.82197 0.37066 0.40515 0.0
C3032 C 0.81642 0.38937 0.40501 0.0
C3033 C 0.83369 0.33613 0.40425 0.0
C3034 C 0.82772 0.34102 0.38736 0.0
C3035 C 0.82196 0.35818 0.38797 0.0
C3036 C 0.82734 0.32879 0.36868 0.0
C3037 C 0.84066 0.31824 0.40416 0.0
C3038 C 0.83713 0.33703 0.35513 0.0
C3039 C 0.83384 0.32755 0.3363 0.0
C3040 C 0.8207 0.30965 0.33071 0.0
C3041 C 0.81225 0.30049 0.3446 0.0
C3042 C 0.81536 0.31017 0.36351 0.0
H3043 H 0.84861 0.31903 0.4178 0.0
H3044 H 0.829 0.30517 0.40181 0.0
H3045 H 0.84932 0.31628 0.39252 0.0
H3046 H 0.84656 0.35133 0.35898 0.0
H3047 H 0.84097 0.33481 0.32604 0.0
H3048 H 0.45005 0.07496 0.25185 0.0
H3049 H 0.46885 0.08218 0.22632 0.0
H3050 H 0.44401 0.02456 0.1935 0.0
H3051 H 0.42568 0.01706 0.21909 0.0
H3052 H 0.49031 0.04872 0.21399 0.0
H3053 H 0.45073 0.06947 0.15745 0.0
H3054 H 0.44773 0.07571 0.18227 0.0
H3055 H 0.43882 0.05114 0.16941 0.0
C3056 C 0.4482 0.06412 0.2389 0.0
C3057 C 0.43658 0.04543 0.23733 0.0
C3058 C 0.45891 0.06826 0.22441 0.0
C3059 C 0.45762 0.05391 0.20813 0.0
C3060 C 0.44495 0.03583 0.20595 0.0
H3061 H 0.50012 0.01322 0.11022 0.0
H3062 H 0.48296 0.02377 0.13578 0.0
C3063 C 0.43459 0.03155 0.22054 0.0
C3064 C 0.47149 0.05604 0.19496 0.0
H3065 H 0.47673 0.05855 0.14899 0.0
C3066 C 0.48767 0.05136 0.19989 0.0
C3067 C 0.46766 0.05923 0.17667 0.0
C3068 C 0.45034 0.06429 0.17104 0.0
C3069 C 0.49967 0.04833 0.18644 0.0
C3070 C 0.49553 0.05077 0.16782 0.0
C3071 C 0.47985 0.05671 0.16329 0.0
C3072 C 0.50612 0.04507 0.15235 0.0
C3073 C 0.51583 0.04108 0.19196 0.0
C3074 C 0.5248 0.05355 0.15324 0.0
C3075 C 0.53468 0.04716 0.13886 0.0
C3076 C 0.52587 0.0326 0.12327 0.0
C3077 C 0.50715 0.02442 0.12222 0.0
C3078 C 0.49736 0.03053 0.1367 0.0
H3079 H 0.51467 0.03578 0.20546 0.0
H3080 H 0.51743 0.02903 0.18077 0.0
H3081 H 0.52831 0.05319 0.19387 0.0
H3082 H 0.53172 0.06509 0.16499 0.0
H3083 H 0.54908 0.05388 0.13969 0.0
H3084 H 0.7951 0.74787 0.96011 0.0
H3085 H 0.80109 0.75224 0.92826 0.0
H3086 H 0.82633 0.70435 0.92135 0.0
H3087 H 0.82025 0.69969 0.95345 0.0
H3088 H 0.83537 0.75826 0.91096 0.0
H3089 H 0.78374 0.68953 0.87728 0.0
H3090 H 0.7841 0.70081 0.90179 0.0
H3091 H 0.80114 0.68851 0.89474 0.0
C3092 C 0.8021 0.73835 0.95196 0.0
C3093 C 0.80706 0.72331 0.95927 0.0
C3094 C 0.80554 0.74091 0.93376 0.0
C3095 C 0.81394 0.72848 0.92243 0.0
C3096 C 0.81964 0.71394 0.92987 0.0
H3097 H 0.80808 0.72735 0.79989 0.0
H3098 H 0.81502 0.71811 0.83024 0.0
C3099 C 0.81625 0.71139 0.94821 0.0
C3100 C 0.81579 0.73047 0.9026 0.0
H3101 H 0.79537 0.71099 0.85767 0.0
C3102 C 0.82692 0.74777 0.89921 0.0
C3103 C 0.80485 0.71666 0.88734 0.0
C3104 C 0.79269 0.69782 0.89032 0.0
C3105 C 0.82681 0.75205 0.88104 0.0
C3106 C 0.81476 0.73895 0.86602 0.0
C3107 C 0.80449 0.72108 0.8692 0.0
C3108 C 0.8112 0.74441 0.84758 0.0
C3109 C 0.83939 0.77078 0.87832 0.0
C3110 C 0.8063 0.76191 0.84726 0.0
C3111 C 0.80276 0.76726 0.83015 0.0
C3112 C 0.80342 0.75492 0.81299 0.0
C3113 C 0.80756 0.73703 0.81307 0.0
C3114 C 0.81155 0.73184 0.83033 0.0
H3115 H 0.85203 0.77473 0.8882 0.0
H3116 H 0.84309 0.76969 0.86361 0.0
H3117 H 0.83264 0.78283 0.88154 0.0
H3118 H 0.80507 0.77142 0.86027 0.0
H3119 H 0.79923 0.78097 0.83029 0.0
H3120 H 0.82402 0.10043 0.05108 0.0
H3121 H 0.8492 0.08513 0.04631 0.0
H3122 H 0.86575 0.11822 0.00338 0.0
H3123 H 0.8408 0.13364 0.00808 0.0
H3124 H 0.85344 0.06278 0.01118 0.0
H3125 H 0.91346 0.12528 0.03701 0.0
H3126 H 0.89096 0.12555 0.04325 0.0
H3127 H 0.89727 0.12999 0.02057 0.0
C3128 C 0.83318 0.10465 0.04083 0.0
C3129 C 0.83041 0.11819 0.02992 0.0
C3130 C 0.84753 0.09591 0.03813 0.0
C3131 C 0.8594 0.10077 0.02468 0.0
C3132 C 0.85692 0.11458 0.01409 0.0
H3133 H 0.92878 0.04234 0.96146 0.0
H3134 H 0.90638 0.05986 0.9727 0.0
C3135 C 0.84256 0.12326 0.0167 0.0
C3136 C 0.87344 0.09021 0.02046 0.0
H3137 H 0.91895 0.09668 0.0183 0.0
C3138 C 0.86778 0.07013 0.01292 0.0
C3139 C 0.8921 0.09991 0.02282 0.0
C3140 C 0.89887 0.12134 0.03152 0.0
C3141 C 0.88031 0.05956 0.00708 0.0
C3142 C 0.89885 0.06939 0.00881 0.0
C3143 C 0.90462 0.08933 0.01687 0.0
C3144 C 0.91238 0.05905 0.00213 0.0
C3145 C 0.87375 0.038 0.99889 0.0
C3146 C 0.92296 0.05288 0.01506 0.0
C3147 C 0.93554 0.04271 0.0087 0.0
C3148 C 0.9378 0.03869 0.98932 0.0
C3149 C 0.92713 0.04495 0.97641 0.0
C3150 C 0.91449 0.05507 0.9828 0.0
H3151 H 0.85911 0.03218 1.00014 0.0
H3152 H 0.87593 0.03525 0.9837 0.0
H3153 H 0.88169 0.02988 0.0062 0.0
H3154 H 0.92137 0.0558 0.03003 0.0
H3155 H 0.94344 0.03789 0.01896 0.0
H3156 H 0.34743 0.44265 0.03788 0.0
H3157 H 0.37617 0.46713 0.03847 0.0
H3158 H 0.40576 0.42713 0.0536 0.0
H3159 H 0.37738 0.40291 0.05337 0.0
H3160 H 0.42004 0.46497 0.07351 0.0
H3161 H 0.40921 0.46176 0.99603 0.0
H3162 H 0.39175 0.46804 0.00956 0.0
H3163 H 0.39551 0.44415 0.00758 0.0
C3164 C 0.36006 0.43921 0.04161 0.0
C3165 C 0.3601 0.42075 0.0454 0.0
C3166 C 0.37646 0.45315 0.0418 0.0
C3167 C 0.3931 0.44881 0.04576 0.0
C3168 C 0.39309 0.43077 0.05043 0.0
H3169 H 0.49822 0.48739 0.01132 0.0
H3170 H 0.46752 0.47135 0.01637 0.0
C3171 C 0.37681 0.4169 0.05023 0.0
C3172 C 0.41067 0.46244 0.04425 0.0
H3173 H 0.43665 0.48199 0.01225 0.0
C3174 C 0.42365 0.46891 0.06018 0.0
C3175 C 0.4154 0.46724 0.02675 0.0
C3176 C 0.40234 0.45985 0.00893 0.0
C3177 C 0.44137 0.47965 0.05901 0.0
C3178 C 0.44612 0.48445 0.0415 0.0
C3179 C 0.43298 0.47839 0.02569 0.0
C3180 C 0.46494 0.49451 0.03885 0.0
C3181 C 0.45504 0.48489 0.07632 0.0
C3182 C 0.47381 0.51292 0.04983 0.0
C3183 C 0.49159 0.52204 0.0472 0.0
C3184 C 0.50069 0.51315 0.03322 0.0
C3185 C 0.49168 0.49477 0.02218 0.0
C3186 C 0.47405 0.48557 0.02499 0.0
H3187 H 0.45054 0.47593 0.08699 0.0
H3188 H 0.46843 0.48293 0.0725 0.0
H3189 H 0.45679 0.50042 0.08304 0.0
H3190 H 0.46697 0.52031 0.06035 0.0
H3191 H 0.49813 0.53607 0.05608 0.0
H3192 H 0.40006 0.636 0.81257 0.0
H3193 H 0.38474 0.66118 0.80864 0.0
H3194 H 0.39068 0.65086 0.74907 0.0
H3195 H 0.40577 0.62492 0.75293 0.0
H3196 H 0.39216 0.6947 0.80106 0.0
H3197 H 0.34003 0.65309 0.74235 0.0
H3198 H 0.35445 0.6415 0.75431 0.0
H3199 H 0.36258 0.65445 0.7361 0.0
C3200 C 0.39811 0.63879 0.79846 0.0
C3201 C 0.40438 0.62778 0.78311 0.0
C3202 C 0.3892 0.65356 0.79622 0.0
C3203 C 0.38584 0.65838 0.77846 0.0
C3204 C 0.39227 0.64757 0.763 0.0
H3205 H 0.33871 0.74944 0.74113 0.0
H3206 H 0.3522 0.72249 0.74421 0.0
C3207 C 0.40121 0.63261 0.76525 0.0
C3208 C 0.37616 0.67484 0.77668 0.0
H3209 H 0.34232 0.68697 0.75096 0.0
C3210 C 0.38118 0.69272 0.79008 0.0
C3211 C 0.36163 0.67311 0.76252 0.0
C3212 C 0.3542 0.65446 0.74812 0.0
C3213 C 0.37272 0.70838 0.78959 0.0
C3214 C 0.35823 0.70664 0.77544 0.0
C3215 C 0.35324 0.68883 0.76198 0.0
C3216 C 0.34876 0.7232 0.77378 0.0
C3217 C 0.37997 0.72703 0.80404 0.0
C3218 C 0.34145 0.73311 0.78911 0.0
C3219 C 0.33344 0.74884 0.78729 0.0
C3220 C 0.33222 0.75529 0.77 0.0
C3221 C 0.33915 0.7451 0.7547 0.0
C3222 C 0.347 0.72944 0.75647 0.0
H3223 H 0.39395 0.72828 0.81033 0.0
H3224 H 0.38012 0.73998 0.79769 0.0
H3225 H 0.37115 0.72723 0.81568 0.0
H3226 H 0.34191 0.72872 0.80264 0.0
H3227 H 0.32856 0.75618 0.79957 0.0
H3228 H 0.22832 0.58511 0.48492 0.0
H3229 H 0.19741 0.56861 0.48896 0.0
H3230 H 0.21166 0.57988 0.54928 0.0
H3231 H 0.24271 0.59614 0.54521 0.0
H3232 H 0.17387 0.54265 0.51806 0.0
H3233 H 0.18637 0.62365 0.52865 0.0
H3234 H 0.20002 0.61096 0.51431 0.0
H3235 H 0.20254 0.61327 0.53951 0.0
C3236 C 0.22525 0.58258 0.49885 0.0
C3237 C 0.23768 0.59206 0.51479 0.0
C3238 C 0.20752 0.57328 0.50117 0.0
C3239 C 0.20226 0.5735 0.51945 0.0
C3240 C 0.21554 0.5796 0.53508 0.0
H3241 H 0.09797 0.59854 0.54232 0.0
H3242 H 0.1298 0.59699 0.54655 0.0
C3243 C 0.23335 0.58876 0.53271 0.0
C3244 C 0.18341 0.57384 0.52225 0.0
H3245 H 0.15649 0.60552 0.527 0.0
C3246 C 0.17002 0.55635 0.52033 0.0
C3247 C 0.17856 0.59182 0.52517 0.0
C3248 C 0.19254 0.61106 0.52702 0.0
C3249 C 0.15168 0.55634 0.52088 0.0
C3250 C 0.14673 0.57431 0.52294 0.0
C3251 C 0.16028 0.59181 0.52553 0.0
C3252 C 0.1276 0.57529 0.52087 0.0
C3253 C 0.13786 0.53704 0.51899 0.0
C3254 C 0.11621 0.56463 0.50458 0.0
C3255 C 0.09816 0.56518 0.50258 0.0
C3256 C 0.0911 0.57625 0.51683 0.0
C3257 C 0.10287 0.58868 0.53202 0.0
C3258 C 0.121 0.58793 0.53427 0.0
H3259 H 0.14363 0.52672 0.52557 0.0
H3260 H 0.12546 0.53871 0.52559 0.0
H3261 H 0.13399 0.53041 0.50375 0.0
H3262 H 0.12126 0.55586 0.49339 0.0
H3263 H 0.08966 0.55687 0.48984 0.0
H3264 H 0.69972 0.97951 0.7234 0.0
H3265 H 0.71009 0.95002 0.72359 0.0
H3266 H 0.76453 0.98521 0.74259 0.0
H3267 H 0.75439 0.01483 0.74247 0.0
H3268 H 0.75941 0.94785 0.71312 0.0
H3269 H 0.72483 0.94141 0.77851 0.0
H3270 H 0.71219 0.94377 0.75759 0.0
H3271 H 0.73 0.96399 0.77008 0.0
C3272 C 0.71399 0.98098 0.72725 0.0
C3273 C 0.72625 0.99947 0.73321 0.0
C3274 C 0.71982 0.96414 0.72731 0.0
C3275 C 0.73795 0.96564 0.73323 0.0
C3276 C 0.75046 0.98394 0.73793 0.0
H3277 H 0.81754 0.92277 0.7767 0.0
H3278 H 0.79753 0.93721 0.7594 0.0
C3279 C 0.74465 1.0008 0.73792 0.0
C3280 C 0.74368 0.94857 0.73686 0.0
H3281 H 0.74569 0.92285 0.7717 0.0
C3282 C 0.75611 0.94195 0.72563 0.0
C3283 C 0.73912 0.94096 0.75313 0.0
C3284 C 0.72585 0.94785 0.76563 0.0
C3285 C 0.76513 0.92874 0.73105 0.0
C3286 C 0.76177 0.92251 0.74823 0.0
C3287 C 0.74822 0.92784 0.75858 0.0
C3288 C 0.77389 0.91294 0.75717 0.0
C3289 C 0.77874 0.92225 0.71885 0.0
C3290 C 0.76694 0.89489 0.76207 0.0
C3291 C 0.77823 0.88682 0.77217 0.0
C3292 C 0.79657 0.89678 0.77757 0.0
C3293 C 0.80344 0.91491 0.77275 0.0
C3294 C 0.79214 0.92296 0.76263 0.0
H3295 H 0.77544 0.92286 0.70381 0.0
H3296 H 0.79239 0.93217 0.72381 0.0
H3297 H 0.77929 0.90717 0.71969 0.0
H3298 H 0.75278 0.88721 0.75826 0.0
H3299 H 0.77258 0.8729 0.77598 0.0
H3300 H 0.76877 0.93424 0.54953 0.0
H3301 H 0.74593 0.95302 0.54996 0.0
H3302 H 0.71702 0.91404 0.49907 0.0
H3303 H 0.73937 0.89488 0.49892 0.0
H3304 H 0.73656 0.97293 0.52547 0.0
H3305 H 0.67608 0.9148 0.53093 0.0
H3306 H 0.69883 0.91201 0.53444 0.0
H3307 H 0.68747 0.90775 0.51089 0.0
C3308 C 0.7575 0.92964 0.53848 0.0
C3309 C 0.75583 0.91299 0.52426 0.0
C3310 C 0.74442 0.94034 0.53877 0.0
C3311 C 0.72947 0.93468 0.52482 0.0
C3312 C 0.72804 0.91833 0.51037 0.0
H3313 H 0.66474 1.00188 0.48239 0.0
H3314 H 0.68472 0.98138 0.4887 0.0
C3315 C 0.74096 0.90749 0.5102 0.0
C3316 C 0.71592 0.94643 0.52472 0.0
H3317 H 0.67035 0.94308 0.52082 0.0
C3318 C 0.72211 0.96641 0.52471 0.0
C3319 C 0.69702 0.93805 0.524 0.0
C3320 C 0.68947 0.91702 0.52527 0.0
C3321 C 0.70994 0.97799 0.5231 0.0
C3322 C 0.69109 0.96932 0.52118 0.0
C3323 C 0.68484 0.94959 0.52205 0.0
C3324 C 0.67781 0.9804 0.51715 0.0
C3325 C 0.71729 0.9994 0.52321 0.0
C3326 C 0.66687 0.98608 0.53088 0.0
C3327 C 0.65546 0.99794 0.52735 0.0
C3328 C 0.65484 0.00423 0.51002 0.0
C3329 C 0.66522 0.99768 0.49603 0.0
C3330 C 0.67659 0.98591 0.49958 0.0
H3331 H 0.73189 0.00467 0.52871 0.0
H3332 H 0.71577 1.00188 0.50854 0.0
H3333 H 0.70957 0.00821 0.53198 0.0
H3334 H 0.66759 0.98187 0.5445 0.0
H3335 H 0.64766 1.00277 0.53842 0.0
H3336 H 0.40257 0.5023 0.73803 0.0
H3337 H 0.38403 0.46927 0.73732 0.0
H3338 H 0.37801 0.48563 0.79653 0.0
H3339 H 0.396 0.51891 0.79694 0.0
H3340 H 0.39122 0.44286 0.75387 0.0
H3341 H 0.32743 0.45483 0.77981 0.0
H3342 H 0.34414 0.47397 0.77296 0.0
H3343 H 0.34692 0.46822 0.79604 0.0
C3344 C 0.39657 0.49911 0.75068 0.0
C3345 C 0.4002 0.51361 0.76733 0.0
C3346 C 0.38615 0.48002 0.75037 0.0
C3347 C 0.3792 0.47457 0.7668 0.0
C3348 C 0.38253 0.48923 0.78341 0.0
H3349 H 0.35288 0.35277 0.78332 0.0
H3350 H 0.36713 0.38691 0.78303 0.0
C3351 C 0.39281 0.50844 0.78364 0.0
C3352 C 0.36982 0.45339 0.76673 0.0
H3353 H 0.33205 0.42312 0.77889 0.0
C3354 C 0.37823 0.43867 0.75929 0.0
C3355 C 0.35272 0.44742 0.77361 0.0
C3356 C 0.34218 0.46191 0.78088 0.0
C3357 C 0.37033 0.41864 0.75873 0.0
C3358 C 0.35354 0.41276 0.76615 0.0
C3359 C 0.34497 0.42738 0.77335 0.0
C3360 C 0.34465 0.3916 0.7664 0.0
C3361 C 0.37993 0.40389 0.74974 0.0
C3362 C 0.32698 0.38246 0.75746 0.0
C3363 C 0.31872 0.36272 0.75758 0.0
C3364 C 0.3277 0.35147 0.76692 0.0
C3365 C 0.34539 0.3607 0.7759 0.0
C3366 C 0.35367 0.38038 0.77569 0.0
H3367 H 0.38955 0.40992 0.74008 0.0
H3368 H 0.38782 0.3997 0.76099 0.0
H3369 H 0.3701 0.39051 0.74161 0.0
H3370 H 0.31959 0.39055 0.75013 0.0
H3371 H 0.30529 0.35627 0.75021 0.0
H3372 H 0.21639 0.6138 0.21605 0.0
H3373 H 0.24111 0.64289 0.22829 0.0
H3374 H 0.26536 0.61106 0.26308 0.0
H3375 H 0.24103 0.58167 0.25045 0.0
H3376 H 0.24738 0.64522 0.27988 0.0
H3377 H 0.30214 0.66145 0.23371 0.0
H3378 H 0.2796 0.65286 0.22139 0.0
H3379 H 0.28877 0.63696 0.23339 0.0
C3380 C 0.22744 0.61276 0.22562 0.0
C3381 C 0.22674 0.59562 0.23246 0.0
C3382 C 0.24156 0.62933 0.23254 0.0
C3383 C 0.25493 0.62897 0.24654 0.0
C3384 C 0.25521 0.61143 0.2521 0.0
H3385 H 0.31249 0.75017 0.29717 0.0
H3386 H 0.30871 0.71488 0.29022 0.0
C3387 C 0.2413 0.5947 0.24486 0.0
C3388 C 0.26548 0.64761 0.25816 0.0
H3389 H 0.29707 0.68888 0.25539 0.0
C3390 C 0.25847 0.65471 0.27471 0.0
C3391 C 0.28011 0.65967 0.25155 0.0
C3392 C 0.28825 0.65233 0.2341 0.0
C3393 C 0.2644 0.67436 0.2836 0.0
C3394 C 0.27757 0.68698 0.27564 0.0
C3395 C 0.28629 0.67927 0.26071 0.0
C3396 C 0.28016 0.70825 0.28043 0.0
C3397 C 0.25583 0.68167 0.30078 0.0
C3398 C 0.26543 0.71611 0.27705 0.0
C3399 C 0.26775 0.73623 0.28067 0.0
C3400 C 0.28492 0.74873 0.28705 0.0
C3401 C 0.29945 0.74087 0.29115 0.0
C3402 C 0.29722 0.72072 0.28746 0.0
H3403 H 0.25133 0.66999 0.3089 0.0
H3404 H 0.26539 0.69437 0.31029 0.0
H3405 H 0.24369 0.68626 0.29616 0.0
H3406 H 0.25217 0.70668 0.27144 0.0
H3407 H 0.25614 0.74203 0.27844 0.0
H3408 H 0.51078 0.72464 0.48398 0.0
H3409 H 0.51875 0.69708 0.49424 0.0
H3410 H 0.54252 0.68416 0.44233 0.0
H3411 H 0.53518 0.71243 0.43228 0.0
H3412 H 0.5072 0.66023 0.48006 0.0
H3413 H 0.58179 0.67972 0.47871 0.0
H3414 H 0.56833 0.69673 0.47627 0.0
H3415 H 0.56957 0.6783 0.4563 0.0
C3416 C 0.5179 0.7161 0.47478 0.0
C3417 C 0.52237 0.72084 0.45729 0.0
C3418 C 0.52245 0.70026 0.48069 0.0
C3419 C 0.53148 0.68852 0.46924 0.0
C3420 C 0.53602 0.69321 0.45173 0.0
H3421 H 0.55122 0.57593 0.48134 0.0
H3422 H 0.54947 0.60556 0.46964 0.0
C3423 C 0.5317 0.70933 0.44591 0.0
C3424 C 0.53512 0.67091 0.47542 0.0
H3425 H 0.56835 0.64797 0.48394 0.0
C3426 C 0.52062 0.65767 0.48094 0.0
C3427 C 0.5526 0.66737 0.47658 0.0
C3428 C 0.569 0.68137 0.47183 0.0
C3429 C 0.52307 0.64119 0.48757 0.0
C3430 C 0.54051 0.63772 0.48879 0.0
C3431 C 0.55498 0.65067 0.48298 0.0
C3432 C 0.54383 0.62081 0.49635 0.0
C3433 C 0.50689 0.62752 0.49314 0.0
C3434 C 0.54176 0.61976 0.51536 0.0
C3435 C 0.54284 0.60296 0.52203 0.0
C3436 C 0.54634 0.58702 0.50994 0.0
C3437 C 0.54896 0.58825 0.49105 0.0
C3438 C 0.54788 0.6051 0.48436 0.0
H3439 H 0.49387 0.62981 0.48754 0.0
H3440 H 0.50697 0.61208 0.48795 0.0
H3441 H 0.50751 0.63012 0.50881 0.0
H3442 H 0.53875 0.63173 0.52489 0.0
H3443 H 0.54045 0.60219 0.53653 0.0
H3444 H 0.62753 0.32765 0.66826 0.0
H3445 H 0.65317 0.32665 0.69005 0.0
H3446 H 0.68057 0.30807 0.64237 0.0
H3447 H 0.65576 0.30997 0.62082 0.0
H3448 H 0.66681 0.29823 0.69637 0.0
H3449 H 0.72132 0.34978 0.67092 0.0
H3450 H 0.6977 0.34691 0.66352 0.0
H3451 H 0.7098 0.33033 0.65185 0.0
C3452 C 0.63917 0.32367 0.66248 0.0
C3453 C 0.63965 0.31921 0.64277 0.0
C3454 C 0.65382 0.32304 0.67493 0.0
C3455 C 0.66916 0.31779 0.66793 0.0
C3456 C 0.66937 0.31294 0.64826 0.0
H3457 H 0.7612 0.28321 0.71529 0.0
H3458 H 0.73616 0.28752 0.69503 0.0
C3459 C 0.65499 0.31391 0.63589 0.0
C3460 C 0.68456 0.31639 0.68098 0.0
H3461 H 0.73095 0.32866 0.68931 0.0
C3462 C 0.6808 0.3051 0.69493 0.0
C3463 C 0.70295 0.32536 0.67926 0.0
C3464 C 0.70816 0.33893 0.66571 0.0
C3465 C 0.6948 0.30212 0.70673 0.0
C3466 C 0.71307 0.3105 0.70448 0.0
C3467 C 0.71691 0.32199 0.69079 0.0
C3468 C 0.72837 0.30796 0.71666 0.0
C3469 C 0.69005 0.28979 0.72138 0.0
C3470 C 0.73253 0.31829 0.73541 0.0
C3471 C 0.74694 0.31603 0.74694 0.0
C3472 C 0.75748 0.30324 0.74018 0.0
C3473 C 0.75341 0.29313 0.72118 0.0
C3474 C 0.73905 0.29552 0.70955 0.0
H3475 H 0.67536 0.28233 0.71983 0.0
H3476 H 0.69796 0.27864 0.72036 0.0
H3477 H 0.69374 0.29919 0.73572 0.0
H3478 H 0.72469 0.32825 0.74109 0.0
H3479 H 0.74993 0.32469 0.761 0.0
H3480 H 0.01482 0.32307 0.98893 0.0
H3481 H 0.01905 0.35827 0.99828 0.0
H3482 H 0.03848 0.3658 0.94461 0.0
H3483 H 0.03485 0.33057 0.9354 0.0
H3484 H 0.05774 0.39404 0.97273 0.0
H3485 H 0.98463 0.38672 0.97983 0.0
H3486 H 0.99484 0.37417 0.99497 0.0
H3487 H 0.9932 0.36637 0.96967 0.0
C3488 C 0.02023 0.33223 0.9792 0.0
C3489 C 0.02438 0.32397 0.96135 0.0
C3490 C 0.02243 0.35236 0.98449 0.0
C3491 C 0.0285 0.36466 0.97192 0.0
C3492 C 0.03356 0.35659 0.95448 0.0
H3493 H 0.0403 0.48521 0.96538 0.0
H3494 H 0.03467 0.44963 0.95941 0.0
C3495 C 0.03157 0.33645 0.94926 0.0
C3496 C 0.02944 0.38589 0.97684 0.0
H3497 H 0.00421 0.41857 0.98961 0.0
C3498 C 0.04601 0.39935 0.97637 0.0
C3499 C 0.01412 0.3929 0.9816 0.0
C3500 C 0.99566 0.3793 0.98138 0.0
C3501 C 0.04769 0.41954 0.98059 0.0
C3502 C 0.03241 0.42649 0.98531 0.0
C3503 C 0.0159 0.41314 0.98604 0.0
C3504 C 0.03334 0.44762 0.98881 0.0
C3505 C 0.06584 0.43338 0.98 0.0
C3506 C 0.03377 0.45815 0.00725 0.0
C3507 C 0.03704 0.47851 0.0107 0.0
C3508 C 0.03961 0.48856 0.99569 0.0
C3509 C 0.03823 0.47782 0.97717 0.0
C3510 C 0.03508 0.45753 0.97375 0.0
H3511 H 0.07701 0.42593 0.97955 0.0
H3512 H 0.06537 0.43976 0.96716 0.0
H3513 H 0.06898 0.44555 0.99253 0.0
H3514 H 0.03244 0.45072 0.01905 0.0
H3515 H 0.0384 0.48636 0.02515 0.0
H3516 H 0.0268 0.84191 0.14344 0.0
H3517 H 1.00107 0.83578 0.16196 0.0
H3518 H 0.01327 0.78258 0.17115 0.0
H3519 H 0.03935 0.78882 0.15291 0.0
H3520 H 0.9705 0.80591 0.15674 0.0
H3521 H 0.0102 0.80923 0.22463 0.0
H3522 H 0.02074 0.81703 0.2047 0.0
H3523 H 0.01394 0.79151 0.20545 0.0
C3524 C 0.02412 0.82894 0.14948 0.0
C3525 C 0.03532 0.81596 0.14679 0.0
C3526 C 0.00932 0.82543 0.16004 0.0
C3527 C 0.00531 0.80887 0.16825 0.0
C3528 C 0.01629 0.7957 0.16536 0.0
H3529 H 0.92421 0.76365 0.23907 0.0
H3530 H 0.94762 0.76835 0.21756 0.0
C3531 C 0.03118 0.79925 0.15485 0.0
C3532 C 0.98962 0.80544 0.1797 0.0
H3533 H 0.97821 0.79878 0.22352 0.0
C3534 C 0.9722 0.80441 0.17137 0.0
C3535 C 0.99178 0.80357 0.19883 0.0
C3536 C 0.01018 0.80557 0.20902 0.0
C3537 C 0.9569 0.80116 0.18148 0.0
C3538 C 0.95907 0.79914 0.20055 0.0
C3539 C 0.97649 0.80024 0.20888 0.0
C3540 C 0.94355 0.79565 0.21221 0.0
C3541 C 0.93849 0.79948 0.17151 0.0
C3542 C 0.93316 0.80929 0.21623 0.0
C3543 C 0.91968 0.80663 0.2286 0.0
C3544 C 0.91646 0.79039 0.23739 0.0
C3545 C 0.9265 0.77649 0.23282 0.0
C3546 C 0.93988 0.77912 0.22046 0.0
H3547 H 0.93842 0.79631 0.15587 0.0
H3548 H 0.92796 0.78784 0.1756 0.0
H3549 H 0.93476 0.8135 0.1756 0.0
H3550 H 0.9359 0.82235 0.21033 0.0
H3551 H 0.91233 0.8177 0.23193 0.0
H3552 H 0.52533 0.28424 0.09421 0.0
H3553 H 0.52987 0.30881 0.07436 0.0
H3554 H 0.50988 0.34714 0.11591 0.0
H3555 H 0.50518 0.32268 0.13588 0.0
H3556 H 0.49872 0.33159 0.06417 0.0
H3557 H 0.56569 0.37425 0.10308 0.0
H3558 H 0.55789 0.34826 0.10174 0.0
H3559 H 0.54725 0.36451 0.11591 0.0
C3560 C 0.52181 0.29784 0.0991 0.0
C3561 C 0.51495 0.30154 0.11664 0.0
C3562 C 0.52438 0.31181 0.08774 0.0
C3563 C 0.52023 0.32967 0.09379 0.0
C3564 C 0.51315 0.33337 0.11111 0.0
H3565 H 0.54942 0.43509 0.04896 0.0
H3566 H 0.5406 0.41136 0.06886 0.0
C3567 C 0.51049 0.31938 0.12245 0.0
C3568 C 0.52376 0.34465 0.08214 0.0
H3569 H 0.55547 0.38482 0.07653 0.0
C3570 C 0.51107 0.34331 0.06682 0.0
C3571 C 0.53976 0.35994 0.08594 0.0
C3572 C 0.55354 0.36198 0.10253 0.0
C3573 C 0.51403 0.35697 0.05502 0.0
C3574 C 0.53044 0.37189 0.05832 0.0
C3575 C 0.54297 0.37332 0.0739 0.0
C3576 C 0.53497 0.38621 0.04587 0.0
C3577 C 0.49937 0.35547 0.03945 0.0
C3578 C 0.5349 0.38 0.02628 0.0
C3579 C 0.53934 0.39361 0.01468 0.0
C3580 C 0.54441 0.41371 0.02251 0.0
C3581 C 0.54504 0.4198 0.04226 0.0
C3582 C 0.54021 0.40622 0.05375 0.0
H3583 H 0.48584 0.34778 0.04274 0.0
H3584 H 0.49874 0.37009 0.03705 0.0
H3585 H 0.50224 0.34693 0.02611 0.0
H3586 H 0.53148 0.36461 0.01994 0.0
H3587 H 0.53861 0.38835 0.99957 0.0
H3588 H 0.02693 0.30665 0.39037 0.0
H3589 H 1.00121 0.30746 0.36892 0.0
H3590 H 0.03806 0.34058 0.33659 0.0
H3591 H 0.06379 0.33868 0.35729 0.0
H3592 H 0.99112 0.33809 0.36481 0.0
H3593 H 0.0052 0.3036 0.29436 0.0
H3594 H 0.01758 0.30235 0.31597 0.0
H3595 H 0.02373 0.32365 0.30562 0.0
C3596 C 0.02948 0.31372 0.37842 0.0
C3597 C 0.04723 0.32256 0.37537 0.0
C3598 C 0.01484 0.3142 0.3662 0.0
C3599 C 0.0177 0.32387 0.35099 0.0
C3600 C 0.0355 0.33249 0.34782 0.0
H3601 H 0.93722 0.37363 0.30338 0.0
H3602 H 0.96457 0.36838 0.31877 0.0
C3603 C 0.05019 0.33154 0.35974 0.0
C3604 C 1.00202 0.32655 0.33969 0.0
H3605 H 0.98296 0.32211 0.29462 0.0
C3606 C 0.98928 0.33441 0.34947 0.0
C3607 C 0.99958 0.32169 0.31966 0.0
C3608 C 0.01217 0.31217 0.30832 0.0
C3609 C 0.97425 0.33768 0.3398 0.0
C3610 C 0.97224 0.3336 0.31981 0.0
C3611 C 0.98478 0.32551 0.30997 0.0
C3612 C 0.95678 0.33705 0.30896 0.0
C3613 C 0.96046 0.34513 0.35108 0.0
C3614 C 0.94381 0.32124 0.29778 0.0
C3615 C 0.92831 0.32421 0.28884 0.0
C3616 C 0.92558 0.34306 0.29093 0.0
C3617 C 0.93902 0.35898 0.30145 0.0
C3618 C 0.95453 0.35599 0.31038 0.0
H3619 H 0.96172 0.34308 0.36593 0.0
H3620 H 0.96256 0.36096 0.35137 0.0
H3621 H 0.94644 0.33758 0.3445 0.0
H3622 H 0.94541 0.30655 0.29646 0.0
H3623 H 0.9183 0.31171 0.28058 0.0
H3624 H 0.01173 0.73367 0.60514 0.0
H3625 H 0.01077 0.70527 0.58045 0.0
H3626 H 0.96374 0.67251 0.60134 0.0
H3627 H 0.96505 0.70063 0.62637 0.0
H3628 H 0.99448 0.66023 0.60711 0.0
H3629 H 0.98346 0.66723 0.53235 0.0
H3630 H 0.99865 0.68834 0.54724 0.0
H3631 H 0.97526 0.68146 0.55154 0.0
C3632 C 1.00064 0.72073 0.60379 0.0
C3633 C 0.98866 0.71904 0.6177 0.0
C3634 C 1.00004 0.70454 0.58964 0.0
C3635 C 0.98725 0.68681 0.58923 0.0
C3636 C 0.9737 0.6861 0.6015 0.0
H3637 H 0.99841 0.57858 0.52205 0.0
H3638 H 0.98598 0.60499 0.53711 0.0
C3639 C 0.97448 0.70212 0.61577 0.0
C3640 C 0.99099 0.66845 0.58009 0.0
H3641 H 0.99922 0.64346 0.5383 0.0
C3642 C 0.99516 0.65635 0.59199 0.0
C3643 C 0.99196 0.66356 0.56047 0.0
C3644 C 0.98694 0.67573 0.54711 0.0
C3645 C 1.00074 0.63966 0.58484 0.0
C3646 C 1.00261 0.6353 0.56535 0.0
C3647 C 0.9979 0.64703 0.55331 0.0
C3648 C 0.00973 0.61879 0.55721 0.0
C3649 C 0.00463 0.62696 0.59826 0.0
C3650 C 0.0271 0.6178 0.56377 0.0
C3651 C 0.03408 0.60253 0.55546 0.0
C3652 C 0.02391 0.58846 0.54023 0.0
C3653 C 0.00647 0.58936 0.53383 0.0
C3654 C 0.9994 0.60441 0.54232 0.0
H3655 H 0.99726 0.6288 0.61098 0.0
H3656 H 1.00078 0.6113 0.59126 0.0
H3657 H 0.01936 0.63123 0.60312 0.0
H3658 H 0.03542 0.62908 0.57498 0.0
H3659 H 0.04768 0.60225 0.56033 0.0
H3660 H 0.64996 0.8623 0.85382 0.0
H3661 H 0.67373 0.85634 0.83384 0.0
H3662 H 0.64729 0.79483 0.82094 0.0
H3663 H 0.62376 0.80053 0.84087 0.0
H3664 H 0.6833 0.80748 0.84197 0.0
H3665 H 0.67898 0.83544 0.77527 0.0
H3666 H 0.67443 0.84981 0.79673 0.0
H3667 H 0.65919 0.82655 0.78681 0.0
C3668 C 0.64897 0.8476 0.84627 0.0
C3669 C 0.63525 0.83182 0.84915 0.0
C3670 C 0.66244 0.84426 0.83477 0.0
C3671 C 0.66211 0.82517 0.82591 0.0
C3672 C 0.64764 0.80966 0.82759 0.0
H3673 H 0.74518 0.78547 0.76327 0.0
H3674 H 0.71638 0.79229 0.77174 0.0
C3675 C 0.63432 0.81294 0.83912 0.0
C3676 C 0.67842 0.82071 0.81839 0.0
H3677 H 0.70507 0.82457 0.78238 0.0
C3678 C 0.68803 0.81112 0.82889 0.0
C3679 C 0.68428 0.82529 0.80124 0.0
C3680 C 0.6737 0.83476 0.7892 0.0
C3681 C 0.70352 0.80601 0.82279 0.0
C3682 C 0.71 0.81139 0.80607 0.0
C3683 C 0.70017 0.82068 0.7953 0.0
C3684 C 0.72732 0.80801 0.80016 0.0
C3685 C 0.71257 0.79465 0.83428 0.0
C3686 C 0.74299 0.81493 0.81307 0.0
C3687 C 0.75884 0.80978 0.80875 0.0
C3688 C 0.75968 0.79849 0.79101 0.0
C3689 C 0.74451 0.7931 0.77739 0.0
C3690 C 0.72824 0.79742 0.78208 0.0
H3691 H 0.70277 0.78615 0.84233 0.0
H3692 H 0.71876 0.7844 0.82518 0.0
H3693 H 0.72335 0.80497 0.84476 0.0
H3694 H 0.74283 0.82396 0.82675 0.0
H3695 H 0.77053 0.81483 0.81932 0.0
H3696 H 0.453 0.5868 0.7116 0.0
H3697 H 0.46563 0.58646 0.68085 0.0
H3698 H 0.4997 0.5507 0.69612 0.0
H3699 H 0.48783 0.55151 0.72645 0.0
H3700 H 0.51917 0.57461 0.6793 0.0
H3701 H 0.45424 0.54688 0.63298 0.0
H3702 H 0.45597 0.56966 0.64878 0.0
H3703 H 0.45542 0.54806 0.65818 0.0
C3704 C 0.46327 0.57898 0.70849 0.0
C3705 C 0.46916 0.56919 0.72201 0.0
C3706 C 0.47042 0.57854 0.6906 0.0
C3707 C 0.48365 0.56819 0.68544 0.0
C3708 C 0.48964 0.55883 0.69916 0.0
H3709 H 0.5109 0.52498 0.57055 0.0
H3710 H 0.49811 0.53065 0.6007 0.0
C3711 C 0.48264 0.55931 0.71682 0.0
C3712 C 0.49164 0.56695 0.66626 0.0
H3713 H 0.4808 0.55452 0.61778 0.0
C3714 C 0.51063 0.57027 0.66592 0.0
C3715 C 0.48093 0.561 0.64834 0.0
C3716 C 0.46051 0.55599 0.64697 0.0
C3717 C 0.51897 0.5678 0.64882 0.0
C3718 C 0.50831 0.56222 0.63088 0.0
C3719 C 0.48931 0.55894 0.63118 0.0
C3720 C 0.51643 0.55901 0.61187 0.0
C3721 C 0.53924 0.57045 0.65036 0.0
C3722 C 0.53109 0.57297 0.60718 0.0
C3723 C 0.5386 0.56964 0.58971 0.0
C3724 C 0.53176 0.55226 0.57601 0.0
C3725 C 0.51685 0.53852 0.58053 0.0
C3726 C 0.50938 0.54181 0.59798 0.0
H3727 H 0.54455 0.56865 0.66441 0.0
H3728 H 0.54311 0.55985 0.63925 0.0
H3729 H 0.54594 0.58542 0.64869 0.0
H3730 H 0.53667 0.58672 0.61693 0.0
H3731 H 0.54963 0.58095 0.58683 0.0
H3732 H 0.75167 0.1673 0.96042 0.0
H3733 H 0.75775 0.182 0.93304 0.0
H3734 H 0.81431 0.18289 0.94213 0.0
H3735 H 0.80836 0.16833 0.97006 0.0
H3736 H 0.80874 0.21864 0.93951 0.0
H3737 H 0.7682 0.163 0.87988 0.0
H3738 H 0.75496 0.16636 0.89926 0.0
H3739 H 0.77464 0.15706 0.90215 0.0
C3740 C 0.76535 0.17021 0.95641 0.0
C3741 C 0.77955 0.16672 0.96741 0.0
C3742 C 0.76878 0.17844 0.94062 0.0
C3743 C 0.78641 0.18315 0.93535 0.0
C3744 C 0.80057 0.17907 0.94586 0.0
H3745 H 0.77933 0.2449 0.84246 0.0
H3746 H 0.79285 0.22452 0.85987 0.0
C3747 C 0.79714 0.17075 0.96175 0.0
C3748 C 0.79004 0.19462 0.92042 0.0
H3749 H 0.77127 0.1971 0.87729 0.0
C3750 C 0.80107 0.21375 0.92562 0.0
C3751 C 0.78023 0.18815 0.90225 0.0
C3752 C 0.769 0.16743 0.89551 0.0
C3753 C 0.80095 0.22719 0.91386 0.0
C3754 C 0.78943 0.22128 0.89668 0.0
C3755 C 0.77999 0.20163 0.89058 0.0
C3756 C 0.78425 0.23559 0.88673 0.0
C3757 C 0.81223 0.2479 0.92046 0.0
C3758 C 0.77503 0.24849 0.89615 0.0
C3759 C 0.76717 0.25983 0.88628 0.0
C3760 C 0.76843 0.25848 0.86683 0.0
C3761 C 0.7783 0.24619 0.85751 0.0
C3762 C 0.78602 0.23463 0.86739 0.0
H3763 H 0.82457 0.24848 0.92974 0.0
H3764 H 0.81637 0.25479 0.9083 0.0
H3765 H 0.80415 0.25656 0.92883 0.0
H3766 H 0.77314 0.24908 0.91097 0.0
H3767 H 0.75972 0.26933 0.89373 0.0
H3768 H 0.16112 0.50178 0.18266 0.0
H3769 H 0.1418 0.4849 0.15328 0.0
H3770 H 0.103 0.51819 0.16827 0.0
H3771 H 0.12212 0.53516 0.19754 0.0
H3772 H 0.0891 0.4752 0.14525 0.0
H3773 H 0.14325 0.52773 0.11849 0.0
H3774 H 0.14955 0.51155 0.13243 0.0
H3775 H 0.14021 0.53086 0.14331 0.0
C3776 C 0.14823 0.5051 0.17993 0.0
C3777 C 0.14331 0.52016 0.19203 0.0
C3778 C 0.13718 0.49531 0.16328 0.0
C3779 C 0.12113 0.50044 0.15876 0.0
C3780 C 0.11534 0.51403 0.17171 0.0
H3781 H 0.04721 0.52095 0.08512 0.0
H3782 H 0.06139 0.50661 0.10823 0.0
C3783 C 0.1264 0.5239 0.18825 0.0
C3784 C 0.11265 0.49556 0.13921 0.0
H3785 H 0.11596 0.51455 0.09946 0.0
C3786 C 0.09508 0.48326 0.13489 0.0
C3787 C 0.12065 0.50616 0.1259 0.0
C3788 C 0.13943 0.51988 0.13014 0.0
C3789 C 0.08478 0.48225 0.11785 0.0
C3790 C 0.0922 0.49426 0.10533 0.0
C3791 C 0.11031 0.50529 0.10906 0.0
C3792 C 0.081 0.49834 0.09004 0.0
C3793 C 0.06587 0.46897 0.1138 0.0
C3794 C 0.08732 0.4985 0.07224 0.0
C3795 C 0.0797 0.50737 0.05945 0.0
C3796 C 0.06548 0.51586 0.06418 0.0
C3797 C 0.05823 0.51449 0.08134 0.0
C3798 C 0.06613 0.50601 0.09436 0.0
H3799 H 0.0651 0.45564 0.11973 0.0
H3800 H 0.0563 0.47664 0.12073 0.0
H3801 H 0.06144 0.46457 0.09837 0.0
H3802 H 0.09883 0.49276 0.06868 0.0
H3803 H 0.08509 0.50786 0.04597 0.0
H3804 H 0.79337 0.87559 0.47321 0.0
H3805 H 0.79232 0.864 0.43907 0.0
H3806 H 0.80316 0.81034 0.44888 0.0
H3807 H 0.80478 0.82206 0.48297 0.0
H3808 H 0.8258 0.82637 0.42613 0.0
H3809 H 0.75571 0.82486 0.40013 0.0
H3810 H 0.76762 0.84819 0.41407 0.0
H3811 H 0.76282 0.82714 0.4249 0.0
C3812 C 0.79511 0.86114 0.46806 0.0
C3813 C 0.79922 0.84977 0.48077 0.0
C3814 C 0.79445 0.8545 0.44853 0.0
C3815 C 0.79752 0.83621 0.44138 0.0
C3816 C 0.80078 0.82449 0.45405 0.0
H3817 H 0.80258 0.78131 0.32328 0.0
H3818 H 0.8031 0.78635 0.35796 0.0
C3819 C 0.80165 0.8312 0.47354 0.0
C3820 C 0.79883 0.82996 0.42089 0.0
H3821 H 0.7768 0.82404 0.37686 0.0
C3822 C 0.81495 0.82553 0.41537 0.0
C3823 C 0.78469 0.82887 0.40684 0.0
C3824 C 0.76667 0.83232 0.41178 0.0
C3825 C 0.81753 0.82075 0.39619 0.0
C3826 C 0.80369 0.82046 0.38224 0.0
C3827 C 0.78741 0.82436 0.38769 0.0
C3828 C 0.80621 0.8175 0.36191 0.0
C3829 C 0.83534 0.81704 0.39086 0.0
C3830 C 0.80827 0.8334 0.35288 0.0
C3831 C 0.80807 0.83058 0.33328 0.0
C3832 C 0.80587 0.81183 0.32237 0.0
C3833 C 0.80464 0.79596 0.33145 0.0
C3834 C 0.80484 0.79881 0.35118 0.0
H3835 H 0.84473 0.81764 0.40343 0.0
H3836 H 0.83295 0.80251 0.38142 0.0
H3837 H 0.84195 0.82816 0.38293 0.0
H3838 H 0.80931 0.84791 0.36095 0.0
H3839 H 0.8089 0.84298 0.32653 0.0
H3840 H 0.49692 0.57842 0.8248 0.0
H3841 H 0.50895 0.57436 0.8556 0.0
H3842 H 0.45516 0.56377 0.87304 0.0
H3843 H 0.44307 0.56791 0.84202 0.0
H3844 H 0.51137 0.59112 0.89254 0.0
H3845 H 0.46866 0.51577 0.88404 0.0
H3846 H 0.47027 0.52893 0.86495 0.0
H3847 H 0.45574 0.53339 0.88303 0.0
C3848 C 0.48762 0.5758 0.83534 0.0
C3849 C 0.46894 0.57406 0.8307 0.0
C3850 C 0.49458 0.57325 0.85311 0.0
C3851 C 0.48317 0.56826 0.86706 0.0
C3852 C 0.46452 0.56718 0.86275 0.0
H3853 H 0.49915 0.54269 0.98139 0.0
H3854 H 0.48803 0.54736 0.95053 0.0
C3855 C 0.45756 0.57001 0.84497 0.0
C3856 C 0.49084 0.56393 0.88563 0.0
H3857 H 0.48623 0.52937 0.91371 0.0
C3858 C 0.50582 0.57753 0.89701 0.0
C3859 C 0.48405 0.54619 0.89196 0.0
C3860 C 0.46893 0.53012 0.88031 0.0
C3861 C 0.5136 0.57425 0.91425 0.0
C3862 C 0.50671 0.55658 0.92063 0.0
C3863 C 0.4918 0.54294 0.90922 0.0
C3864 C 0.51402 0.55244 0.93944 0.0
C3865 C 0.52884 0.5902 0.92587 0.0
C3866 C 0.53251 0.55294 0.94405 0.0
C3867 C 0.53897 0.5499 0.96195 0.0
C3868 C 0.52719 0.54628 0.97599 0.0
C3869 C 0.50874 0.5453 0.97111 0.0
C3870 C 0.50229 0.54806 0.95327 0.0
H3871 H 0.52966 0.60447 0.92172 0.0
H3872 H 0.52714 0.59182 0.94119 0.0
H3873 H 0.5419 0.5864 0.92368 0.0
H3874 H 0.54207 0.55582 0.93382 0.0
H3875 H 0.55328 0.551 0.965 0.0
H3876 H 0.78671 0.2201 0.05592 0.0
H3877 H 0.79143 0.24184 0.08688 0.0
H3878 H 0.80781 0.1982 0.11256 0.0
H3879 H 0.80361 0.17657 0.08146 0.0
H3880 H 0.77028 0.23058 0.11376 0.0
H3881 H 0.84298 0.24824 0.14129 0.0
H3882 H 0.83502 0.2387 0.11654 0.0
H3883 H 0.8331 0.22259 0.13307 0.0
C3884 C 0.79189 0.21542 0.06811 0.0
C3885 C 0.79469 0.19668 0.06644 0.0
C3886 C 0.79456 0.22782 0.08573 0.0
C3887 C 0.79996 0.2216 0.10193 0.0
C3888 C 0.80397 0.20339 0.10015 0.0
H3889 H 0.78149 0.24444 0.21702 0.0
H3890 H 0.78112 0.23143 0.18336 0.0
C3891 C 0.80153 0.19104 0.08241 0.0
C3892 C 0.79869 0.23283 0.12073 0.0
H3893 H 0.82219 0.25378 0.16404 0.0
C3894 C 0.7817 0.23592 0.12466 0.0
C3895 C 0.81361 0.23968 0.13488 0.0
C3896 C 0.83225 0.2373 0.1312 0.0
C3897 C 0.77913 0.24522 0.14263 0.0
C3898 C 0.79387 0.25145 0.15686 0.0
C3899 C 0.81096 0.24887 0.15289 0.0
C3900 C 0.79161 0.25964 0.17634 0.0
C3901 C 0.76066 0.24802 0.14652 0.0
C3902 C 0.79702 0.27981 0.18311 0.0
C3903 C 0.79706 0.28734 0.20227 0.0
C3904 C 0.79214 0.27469 0.21488 0.0
C3905 C 0.78563 0.25455 0.20773 0.0
C3906 C 0.78541 0.24707 0.18855 0.0
H3907 H 0.75102 0.24402 0.13344 0.0
H3908 H 0.755 0.23885 0.15663 0.0
H3909 H 0.76184 0.26346 0.15323 0.0
H3910 H 0.80173 0.28963 0.17369 0.0
H3911 H 0.80164 0.30297 0.2073 0.0
H3912 H 0.17727 0.52377 0.28795 0.0
H3913 H 0.16679 0.51854 0.31846 0.0
H3914 H 0.1499 0.57213 0.32523 0.0
H3915 H 0.16046 0.57763 0.29517 0.0
H3916 H 0.16695 0.56542 0.35874 0.0
H3917 H 0.11119 0.50213 0.32099 0.0
H3918 H 0.13445 0.50201 0.31832 0.0
H3919 H 0.12461 0.5186 0.30814 0.0
C3920 C 0.17157 0.53458 0.29612 0.0
C3921 C 0.16938 0.55097 0.28908 0.0
C3922 C 0.16562 0.53153 0.31348 0.0
C3923 C 0.15747 0.54486 0.32386 0.0
C3924 C 0.15622 0.56172 0.31735 0.0
H3925 H 0.06989 0.55984 0.37346 0.0
H3926 H 0.09304 0.54993 0.35504 0.0
C3927 C 0.16214 0.56477 0.30011 0.0
C3928 C 0.14836 0.54083 0.34052 0.0
H3929 H 0.10655 0.51829 0.35057 0.0
C3930 C 0.15398 0.55475 0.35735 0.0
C3931 C 0.13156 0.52676 0.33842 0.0
C3932 C 0.12496 0.51149 0.32053 0.0
C3933 C 0.14215 0.55674 0.37115 0.0
C3934 C 0.12461 0.54379 0.36821 0.0
C3935 C 0.11994 0.52828 0.35253 0.0
C3936 C 0.11006 0.54799 0.37937 0.0
C3937 C 0.14791 0.57389 0.38763 0.0
C3938 C 0.11196 0.54999 0.39902 0.0
C3939 C 0.0993 0.55659 0.40958 0.0
C3940 C 0.08393 0.56033 0.40063 0.0
C3941 C 0.08164 0.55741 0.38082 0.0
C3942 C 0.0947 0.55143 0.37028 0.0
H3943 H 0.16058 0.58445 0.38573 0.0
H3944 H 0.13713 0.58178 0.3896 0.0
H3945 H 0.15044 0.56858 0.40078 0.0
H3946 H 0.12353 0.54705 0.40624 0.0
H3947 H 0.10189 0.55915 0.42484 0.0
H3948 H 0.77739 0.82765 0.56813 0.0
H3949 H 0.76819 0.81659 0.597 0.0
H3950 H 0.7911 0.87495 0.62935 0.0
H3951 H 0.79908 0.8862 0.6002 0.0
H3952 H 0.78995 0.81495 0.62408 0.0
H3953 H 0.74752 0.86187 0.65561 0.0
H3954 H 0.7532 0.86106 0.63165 0.0
H3955 H 0.76885 0.87634 0.65129 0.0
C3956 C 0.7798 0.8382 0.58135 0.0
C3957 C 0.78866 0.85778 0.58203 0.0
C3958 C 0.77466 0.83188 0.59786 0.0
C3959 C 0.77873 0.84493 0.61544 0.0
C3960 C 0.7872 0.86468 0.61599 0.0
H3961 H 0.80712 0.82491 0.72389 0.0
H3962 H 0.8034 0.83622 0.6945 0.0
C3963 C 0.79186 0.87112 0.59935 0.0
C3964 C 0.77623 0.83737 0.63323 0.0
H3965 H 0.76145 0.84593 0.67697 0.0
C3966 C 0.78337 0.82154 0.63543 0.0
C3967 C 0.76768 0.84589 0.64819 0.0
C3968 C 0.75872 0.86209 0.64647 0.0
C3969 C 0.78273 0.81448 0.65229 0.0
C3970 C 0.77502 0.82363 0.66746 0.0
C3971 C 0.76741 0.83904 0.66523 0.0
C3972 C 0.77611 0.81817 0.68613 0.0
C3973 C 0.79067 0.79754 0.65403 0.0
C3974 C 0.76175 0.80461 0.6913 0.0
C3975 C 0.76377 0.79809 0.70824 0.0
C3976 C 0.78024 0.80489 0.7201 0.0
C3977 C 0.79426 0.81917 0.71513 0.0
C3978 C 0.7922 0.8257 0.69831 0.0
H3979 H 0.79453 0.79078 0.64034 0.0
H3980 H 0.80293 0.80265 0.6645 0.0
H3981 H 0.78076 0.78624 0.65932 0.0
H3982 H 0.7492 0.79871 0.68201 0.0
H3983 H 0.75253 0.78755 0.71183 0.0
H3984 H 0.7807 0.47811 0.49302 0.0
H3985 H 0.75703 0.49558 0.49838 0.0
H3986 H 0.73736 0.46156 0.53971 0.0
H3987 H 0.76061 0.44387 0.5343 0.0
H3988 H 0.70971 0.46786 0.5156 0.0
H3989 H 0.76204 0.53606 0.54831 0.0
H3990 H 0.76503 0.52507 0.52472 0.0
H3991 H 0.76693 0.51247 0.54376 0.0
C3992 C 0.77116 0.47416 0.50302 0.0
C3993 C 0.77269 0.45985 0.51345 0.0
C3994 C 0.75774 0.4842 0.50613 0.0
C3995 C 0.74578 0.48006 0.5197 0.0
C3996 C 0.74659 0.46501 0.52927 0.0
H3997 H 0.68229 0.55139 0.57976 0.0
H3998 H 0.70365 0.53147 0.57128 0.0
C3999 C 0.75993 0.45497 0.52618 0.0
C4000 C 0.73311 0.49213 0.5249 0.0
H4001 H 0.73163 0.53807 0.54555 0.0
C4002 C 0.71444 0.48323 0.52208 0.0
C4003 C 0.73948 0.51203 0.53375 0.0
C4004 C 0.75946 0.522 0.538 0.0
C4005 C 0.70187 0.49387 0.52762 0.0
C4006 C 0.70824 0.51389 0.53597 0.0
C4007 C 0.7269 0.52272 0.53905 0.0
C4008 C 0.69571 0.5261 0.54114 0.0
C4009 C 0.68192 0.48363 0.52472 0.0
C4010 C 0.6847 0.52999 0.52692 0.0
C4011 C 0.67278 0.54151 0.53166 0.0
C4012 C 0.67159 0.54924 0.55074 0.0
C4013 C 0.68302 0.54574 0.56496 0.0
C4014 C 0.69507 0.53427 0.56017 0.0
H4015 H 0.67957 0.46752 0.52217 0.0
H4016 H 0.67511 0.4884 0.53721 0.0
H4017 H 0.67548 0.48742 0.51223 0.0
H4018 H 0.68534 0.52412 0.51215 0.0
H4019 H 0.66439 0.54428 0.52037 0.0
H4020 H 0.23283 0.17564 0.5251 0.0
H4021 H 0.20462 0.15037 0.52196 0.0
H4022 H 0.22471 0.11343 0.47904 0.0
H4023 H 0.25357 0.1388 0.48269 0.0
H4024 H 0.1817 0.13773 0.48907 0.0
H4025 H 0.20197 0.07554 0.5123 0.0
H4026 H 0.21664 0.09997 0.51759 0.0
H4027 H 0.21377 0.08555 0.4941 0.0
C4028 C 0.23139 0.16197 0.51525 0.0
C4029 C 0.24529 0.15913 0.5041 0.0
C4030 C 0.21525 0.14757 0.51343 0.0
C4031 C 0.21249 0.13003 0.50023 0.0
C4032 C 0.22663 0.12675 0.4895 0.0
H4033 H 0.10374 0.04666 0.48019 0.0
H4034 H 0.13456 0.06256 0.47442 0.0
C4035 C 0.24307 0.1412 0.49156 0.0
C4036 C 0.19424 0.11619 0.49717 0.0
H4037 H 0.17074 0.07206 0.50494 0.0
C4038 C 0.17934 0.12324 0.49225 0.0
C4039 C 0.19118 0.09726 0.50121 0.0
C4040 C 0.20667 0.08906 0.50671 0.0
C4041 C 0.1615 0.11235 0.4923 0.0
C4042 C 0.15845 0.09391 0.49733 0.0
C4043 C 0.17323 0.08626 0.50112 0.0
C4044 C 0.14016 0.08357 0.50086 0.0
C4045 C 0.14597 0.12096 0.48783 0.0
C4046 C 0.13325 0.09014 0.51763 0.0
C4047 C 0.11582 0.08102 0.52107 0.0
C4048 C 0.1049 0.06514 0.50776 0.0
C4049 C 0.11187 0.05863 0.49087 0.0
C4050 C 0.12944 0.0677 0.48751 0.0
H4051 H 0.1503 0.13359 0.48084 0.0
H4052 H 0.13483 0.10978 0.47851 0.0
H4053 H 0.14051 0.12601 0.50117 0.0
H4054 H 0.14136 0.10243 0.52804 0.0
H4055 H 0.11092 0.08652 0.53418 0.0
H4056 H 0.21023 0.96243 0.74833 0.0
H4057 H 0.22698 0.93675 0.74573 0.0
H4058 H 0.21218 0.92581 0.80001 0.0
H4059 H 0.19544 0.95064 0.80247 0.0
H4060 H 0.25585 0.92927 0.76461 0.0
H4061 H 0.19693 0.87104 0.77245 0.0
H4062 H 0.19456 0.89447 0.76895 0.0
H4063 H 0.20095 0.89098 0.79228 0.0
C4064 C 0.21041 0.9545 0.75969 0.0
C4065 C 0.201 0.95896 0.77556 0.0
C4066 C 0.22015 0.93965 0.75822 0.0
C4067 C 0.22079 0.92842 0.77243 0.0
C4068 C 0.21174 0.9333 0.78836 0.0
H4069 H 0.27006 0.83892 0.80523 0.0
H4070 H 0.25516 0.86467 0.80174 0.0
C4071 C 0.2021 0.94795 0.78982 0.0
C4072 C 0.23075 0.91188 0.77107 0.0
H4073 H 0.22595 0.86468 0.77778 0.0
C4074 C 0.2491 0.9151 0.76725 0.0
C4075 C 0.22247 0.89293 0.77438 0.0
C4076 C 0.2026 0.88705 0.77703 0.0
C4077 C 0.25922 0.90072 0.76747 0.0
C4078 C 0.25105 0.88207 0.77143 0.0
C4079 C 0.23264 0.87874 0.77483 0.0
C4080 C 0.26133 0.86628 0.77321 0.0
C4081 C 0.27895 0.90594 0.76426 0.0
C4082 C 0.27017 0.8578 0.7584 0.0
C4083 C 0.27874 0.8425 0.76032 0.0
C4084 C 0.27914 0.83529 0.77729 0.0
C4085 C 0.27041 0.84395 0.79197 0.0
C4086 C 0.26171 0.85887 0.78997 0.0
H4087 H 0.28433 0.92186 0.76514 0.0
H4088 H 0.28721 0.90123 0.77481 0.0
H4089 H 0.2806 0.89825 0.74998 0.0
H4090 H 0.27005 0.8626 0.74505 0.0
H4091 H 0.28481 0.83616 0.74842 0.0
H4092 H 0.34854 0.9753 0.00317 0.0
H4093 H 0.37618 0.99153 0.99135 0.0
H4094 H 0.40279 0.01011 0.04839 0.0
H4095 H 0.37549 0.99281 0.06012 0.0
H4096 H 0.40592 0.02412 0.99528 0.0
H4097 H 0.42233 0.96375 0.02489 0.0
H4098 H 0.39988 0.96759 0.02367 0.0
H4099 H 0.41691 0.98178 0.04257 0.0
C4100 C 0.35993 0.98385 0.0133 0.0
C4101 C 0.3602 0.98246 0.03244 0.0
C4102 C 0.37576 0.99303 0.0065 0.0
C4103 C 0.39165 1.00121 0.01896 0.0
C4104 C 0.39072 1.00334 0.03855 0.0
H4105 H 0.50024 0.04806 0.00717 0.0
H4106 H 0.46778 0.04152 0.00584 0.0
C4107 C 0.37509 0.99365 0.04528 0.0
C4108 C 0.40939 1.00276 0.01155 0.0
H4109 H 0.44648 0.98451 0.01367 0.0
C4110 C 0.41482 0.01547 0.99921 0.0
C4111 C 0.42047 0.99058 0.01584 0.0
C4112 C 0.41454 0.97499 0.02727 0.0
C4113 C 0.43167 0.0172 0.99201 0.0
C4114 C 0.44348 0.00639 0.99781 0.0
C4115 C 0.43752 0.99291 0.00927 0.0
C4116 C 0.46283 0.01057 0.9945 0.0
C4117 C 0.43656 0.03041 0.97813 0.0
C4118 C 0.47113 0.99533 0.98876 0.0
C4119 C 0.49005 0.99906 0.99 0.0
C4120 C 0.50083 0.01811 0.99662 0.0
C4121 C 0.49241 0.03334 1.00153 0.0
C4122 C 0.47368 0.02962 1.00055 0.0
H4123 H 0.42424 0.03135 0.96974 0.0
H4124 H 0.44353 0.04536 0.98592 0.0
H4125 H 0.44567 0.02509 0.96827 0.0
H4126 H 0.463 0.98044 0.98426 0.0
H4127 H 0.49626 0.98707 0.98632 0.0
H4128 H 0.8994 0.60728 0.80976 0.0
H4129 H 0.88545 0.63336 0.8048 0.0
H4130 H 0.83376 0.59119 0.78784 0.0
H4131 H 0.84749 0.56519 0.79354 0.0
H4132 H 0.87238 0.63505 0.77125 0.0
H4133 H 0.81768 0.63509 0.81782 0.0
H4134 H 0.83521 0.62275 0.82132 0.0
H4135 H 0.81558 0.61105 0.80442 0.0
C4136 C 0.88495 0.60368 0.80546 0.0
C4137 C 0.8745 0.58426 0.80192 0.0
C4138 C 0.877 0.61857 0.80269 0.0
C4139 C 0.85853 0.61426 0.79615 0.0
C4140 C 0.84791 0.59496 0.79342 0.0
H4141 H 0.8031 0.65541 0.71578 0.0
H4142 H 0.81821 0.63881 0.73595 0.0
C4143 C 0.8558 0.58007 0.79652 0.0
C4144 C 0.85109 0.62921 0.78935 0.0
H4145 H 0.81413 0.64798 0.7892 0.0
C4146 C 0.85987 0.63822 0.77554 0.0
C4147 C 0.83482 0.63343 0.795 0.0
C4148 C 0.82541 0.6252 0.81061 0.0
C4149 C 0.85227 0.65041 0.76643 0.0
C4150 C 0.83536 0.65338 0.77106 0.0
C4151 C 0.82704 0.64539 0.78561 0.0
C4152 C 0.8255 0.66328 0.75964 0.0
C4153 C 0.86198 0.65947 0.7514 0.0
C4154 C 0.82454 0.6824 0.76654 0.0
C4155 C 0.8161 0.692 0.75499 0.0
C4156 C 0.80844 0.6825 0.73647 0.0
C4157 C 0.80914 0.66318 0.72985 0.0
C4158 C 0.81762 0.65365 0.74136 0.0
H4159 H 0.87643 0.65898 0.75217 0.0
H4160 H 0.85522 0.65139 0.73722 0.0
H4161 H 0.86135 0.67489 0.75279 0.0
H4162 H 0.83066 0.68998 0.78064 0.0
H4163 H 0.81592 0.70698 0.76039 0.0
H4164 H 0.85343 0.68149 0.0211 0.0
H4165 H 0.87907 0.66698 0.02389 0.0
H4166 H 0.84602 0.61185 0.99224 0.0
H4167 H 0.82052 0.62635 0.98892 0.0
H4168 H 0.8829 0.63765 0.04039 0.0
H4169 H 0.89021 0.61767 0.96427 0.0
H4170 H 0.87636 0.63368 0.97305 0.0
H4171 H 0.86758 0.60759 0.96924 0.0
C4172 C 0.85164 0.6663 0.01463 0.0
C4173 C 0.83493 0.6551 0.00467 0.0
C4174 C 0.86633 0.65803 0.01623 0.0
C4175 C 0.86462 0.63844 0.00792 0.0
C4176 C 0.84786 0.62716 0.99828 0.0
H4177 H 0.91688 0.548 0.01036 0.0
H4178 H 0.89806 0.57006 0.00552 0.0
C4179 C 0.83322 0.63543 0.99652 0.0
C4180 C 0.88005 0.62948 0.00997 0.0
H4181 H 0.90423 0.60139 0.98492 0.0
C4182 C 0.88779 0.62999 0.02826 0.0
C4183 C 0.88658 0.61968 0.99412 0.0
C4184 C 0.87988 0.6198 0.97407 0.0
C4185 C 0.90108 0.62 0.03115 0.0
C4186 C 0.90683 0.60932 0.01532 0.0
C4187 C 0.89968 0.6095 0.99703 0.0
C4188 C 0.91891 0.5964 0.01749 0.0
C4189 C 0.90825 0.62015 0.05112 0.0
C4190 C 0.93702 0.60394 0.02547 0.0
C4191 C 0.94783 0.59131 0.02833 0.0
C4192 C 0.94065 0.57097 0.02329 0.0
C4193 C 0.92269 0.56357 0.01472 0.0
C4194 C 0.91196 0.57616 0.01183 0.0
H4195 H 0.90043 0.62669 0.0618 0.0
H4196 H 0.90783 0.60509 0.05297 0.0
H4197 H 0.9226 0.6288 0.05396 0.0
H4198 H 0.9427 0.61955 0.02968 0.0
H4199 H 0.96162 0.59744 0.03496 0.0
H4200 H 0.18157 0.08385 0.75868 0.0
H4201 H 0.20089 0.11629 0.76049 0.0
H4202 H 0.24428 0.10103 0.79028 0.0
H4203 H 0.22474 0.06776 0.78806 0.0
H4204 H 0.21406 0.14386 0.79007 0.0
H4205 H 0.27262 0.12884 0.75384 0.0
H4206 H 0.25186 0.11021 0.753 0.0
H4207 H 0.26811 0.11729 0.7737 0.0
C4208 C 0.1953 0.08715 0.7655 0.0
C4209 C 0.20143 0.07292 0.77327 0.0
C4210 C 0.20641 0.10594 0.76655 0.0
C4211 C 0.22425 0.11154 0.77549 0.0
C4212 C 0.23074 0.09726 0.78296 0.0
H4213 H 0.30131 0.22943 0.79522 0.0
H4214 H 0.28681 0.19522 0.79558 0.0
C4215 C 0.21952 0.07814 0.78174 0.0
C4216 C 0.23518 0.13255 0.77751 0.0
H4217 H 0.27432 0.16186 0.76683 0.0
C4218 C 0.22725 0.14766 0.78497 0.0
C4219 C 0.25254 0.13795 0.77104 0.0
C4220 C 0.26177 0.12277 0.76229 0.0
C4221 C 0.23585 0.16757 0.78592 0.0
C4222 C 0.25296 0.17296 0.77901 0.0
C4223 C 0.2612 0.15795 0.77207 0.0
C4224 C 0.26216 0.19396 0.77847 0.0
C4225 C 0.22649 0.18271 0.79457 0.0
C4226 C 0.25345 0.20498 0.76858 0.0
C4227 C 0.26181 0.22459 0.76823 0.0
C4228 C 0.27929 0.23394 0.77766 0.0
C4229 C 0.28802 0.22286 0.78752 0.0
C4230 C 0.27966 0.20318 0.7878 0.0
H4231 H 0.21663 0.17698 0.80416 0.0
H4232 H 0.23643 0.19601 0.80269 0.0
H4233 H 0.21888 0.18692 0.78313 0.0
H4234 H 0.24013 0.19836 0.76093 0.0
H4235 H 0.25453 0.23237 0.7604 0.0
H4236 H 0.35515 1.00319 0.26564 0.0
H4237 H 0.3284 0.97525 0.2618 0.0
H4238 H 0.35278 0.95507 0.30721 0.0
H4239 H 0.37928 0.98251 0.31081 0.0
H4240 H 0.33496 0.9392 0.25113 0.0
H4241 H 0.29971 0.93956 0.31539 0.0
H4242 H 0.31297 0.96173 0.30953 0.0
H4243 H 0.32374 0.94703 0.3218 0.0
C4244 C 0.35432 0.99316 0.27525 0.0
C4245 C 0.36913 0.99473 0.28842 0.0
C4246 C 0.3391 0.97729 0.27308 0.0
C4247 C 0.33851 0.96326 0.28439 0.0
C4248 C 0.3527 0.96595 0.29867 0.0
H4249 H 0.33894 0.85318 0.28217 0.0
H4250 H 0.3394 0.88776 0.2861 0.0
C4251 C 0.36793 0.98151 0.30059 0.0
C4252 C 0.32581 0.94376 0.27886 0.0
H4253 H 0.30343 0.90749 0.29959 0.0
C4254 C 0.32742 0.93235 0.26143 0.0
C4255 C 0.31592 0.93486 0.29225 0.0
C4256 C 0.31284 0.94655 0.31071 0.0
C4257 C 0.3215 0.91199 0.25814 0.0
C4258 C 0.31371 0.90308 0.27257 0.0
C4259 C 0.30998 0.9145 0.28891 0.0
C4260 C 0.31227 0.88235 0.27215 0.0
C4261 C 0.32508 0.90001 0.24005 0.0
C4262 C 0.29693 0.86811 0.26297 0.0
C4263 C 0.29664 0.84845 0.26101 0.0
C4264 C 0.31133 0.84278 0.26885 0.0
C4265 C 0.32687 0.85714 0.2775 0.0
C4266 C 0.32723 0.87682 0.27946 0.0
H4267 H 0.32951 0.90907 0.22944 0.0
H4268 H 0.33584 0.89272 0.24323 0.0
H4269 H 0.31267 0.88843 0.23378 0.0
H4270 H 0.28553 0.87221 0.25675 0.0
H4271 H 0.28511 0.83785 0.25291 0.0
H4272 H 0.5615 0.36229 0.60224 0.0
H4273 H 0.55421 0.39076 0.59244 0.0
H4274 H 0.5977 0.3948 0.55685 0.0
H4275 H 0.60506 0.36662 0.56649 0.0
H4276 H 0.59754 0.43069 0.57988 0.0
H4277 H 0.52975 0.39345 0.54045 0.0
H4278 H 0.53306 0.38982 0.56427 0.0
H4279 H 0.54585 0.38026 0.54657 0.0
C4280 C 0.56947 0.36921 0.59229 0.0
C4281 C 0.58385 0.36204 0.58515 0.0
C4282 C 0.56522 0.38543 0.58661 0.0
C4283 C 0.57528 0.39485 0.57373 0.0
C4284 C 0.58968 0.38779 0.56674 0.0
H4285 H 0.56509 0.48052 0.50681 0.0
H4286 H 0.56625 0.45094 0.51877 0.0
C4287 C 0.59385 0.37159 0.57228 0.0
C4288 C 0.57129 0.41234 0.56776 0.0
H4289 H 0.53974 0.42756 0.54274 0.0
C4290 C 0.58484 0.43002 0.5719 0.0
C4291 C 0.5548 0.41145 0.55712 0.0
C4292 C 0.54003 0.39273 0.55166 0.0
C4293 C 0.58235 0.44674 0.56573 0.0
C4294 C 0.56587 0.44587 0.55517 0.0
C4295 C 0.55229 0.42824 0.551 0.0
C4296 C 0.563 0.46297 0.54764 0.0
C4297 C 0.59756 0.46517 0.57012 0.0
C4298 C 0.56036 0.47939 0.5598 0.0
C4299 C 0.55945 0.49618 0.55292 0.0
C4300 C 0.56112 0.49678 0.53376 0.0
C4301 C 0.56344 0.48024 0.52156 0.0
C4302 C 0.56413 0.46339 0.52838 0.0
H4303 H 0.61028 0.46281 0.57641 0.0
H4304 H 0.60032 0.47094 0.55704 0.0
H4305 H 0.59347 0.47646 0.58026 0.0
H4306 H 0.55951 0.4794 0.57471 0.0
H4307 H 0.55807 0.50893 0.56268 0.0
H4308 H 0.4449 0.73868 0.40586 0.0
H4309 H 0.41936 0.74313 0.38662 0.0
H4310 H 0.4558 0.78876 0.36608 0.0
H4311 H 0.48149 0.78343 0.38443 0.0
H4312 H 0.40544 0.77196 0.38942 0.0
H4313 H 0.42739 0.76153 0.31757 0.0
H4314 H 0.43922 0.75578 0.33724 0.0
H4315 H 0.44361 0.78054 0.33371 0.0
C4316 C 0.44752 0.74924 0.39676 0.0
C4317 C 0.46526 0.76046 0.3964 0.0
C4318 C 0.43287 0.75192 0.38588 0.0
C4319 C 0.43551 0.76616 0.37462 0.0
C4320 C 0.45331 0.77724 0.37408 0.0
H4321 H 0.34403 0.8109 0.33778 0.0
H4322 H 0.37057 0.8064 0.35542 0.0
C4323 C 0.46806 0.7742 0.38462 0.0
C4324 C 0.4195 0.77005 0.36443 0.0
H4325 H 0.40238 0.77565 0.32153 0.0
C4326 C 0.40477 0.77262 0.37452 0.0
C4327 C 0.41838 0.77081 0.34493 0.0
C4328 C 0.43292 0.76681 0.3327 0.0
C4329 C 0.38906 0.77576 0.36575 0.0
C4330 C 0.38824 0.77721 0.34644 0.0
C4331 C 0.40299 0.77476 0.33637 0.0
C4332 C 0.37192 0.7802 0.33605 0.0
C4333 C 0.37329 0.77677 0.37717 0.0
C4334 C 0.36394 0.76733 0.31904 0.0
C4335 C 0.34906 0.77016 0.30874 0.0
C4336 C 0.34155 0.78586 0.31514 0.0
C4337 C 0.34932 0.79858 0.33239 0.0
C4338 C 0.36448 0.79593 0.34259 0.0
H4339 H 0.3739 0.76959 0.38949 0.0
H4340 H 0.37372 0.79228 0.38271 0.0
H4341 H 0.36012 0.76972 0.36839 0.0
H4342 H 0.36923 0.75499 0.31366 0.0
H4343 H 0.34337 0.75978 0.29586 0.0
H4344 H 0.09905 0.75585 0.05764 0.0
H4345 H 0.09409 0.72053 0.04877 0.0
H4346 H 0.05272 0.71259 0.08667 0.0
H4347 H 0.05773 0.74811 0.09594 0.0
H4348 H 0.09683 0.69558 0.07859 0.0
H4349 H 0.0315 0.67491 0.0321 0.0
H4350 H 0.04692 0.69889 0.03557 0.0
H4351 H 0.03353 0.69221 0.05401 0.0
C4352 C 0.08866 0.74667 0.06392 0.0
C4353 C 0.07876 0.75491 0.07753 0.0
C4354 C 0.08592 0.72645 0.05886 0.0
C4355 C 0.07305 0.71397 0.06704 0.0
C4356 C 0.06267 0.72201 0.08012 0.0
H4357 H 0.05898 0.59323 0.07553 0.0
H4358 H 0.06587 0.6289 0.08124 0.0
C4359 C 0.06552 0.74231 0.08537 0.0
C4360 C 0.07126 0.69262 0.06262 0.0
H4361 H 0.04342 0.64925 0.0389 0.0
C4362 C 0.08517 0.68543 0.0699 0.0
C4363 C 0.05616 0.67948 0.05111 0.0
C4364 C 0.04115 0.68663 0.04259 0.0
C4365 C 0.0842 0.66535 0.06625 0.0
C4366 C 0.06888 0.65211 0.05509 0.0
C4367 C 0.05515 0.65938 0.04748 0.0
C4368 C 0.06649 0.63061 0.05168 0.0
C4369 C 0.09965 0.6585 0.07428 0.0
C4370 C 0.06458 0.61965 0.03317 0.0
C4371 C 0.06064 0.59925 0.0299 0.0
C4372 C 0.05856 0.58942 0.04509 0.0
C4373 C 0.06081 0.60044 0.0636 0.0
C4374 C 0.06479 0.62082 0.06687 0.0
H4375 H 0.11232 0.67045 0.07789 0.0
H4376 H 0.09602 0.65327 0.08742 0.0
H4377 H 0.1023 0.64625 0.06413 0.0
H4378 H 0.06572 0.62687 0.02122 0.0
H4379 H 0.05855 0.59121 0.01546 0.0
H4380 H 0.08913 0.30207 0.91862 0.0
H4381 H 0.11429 0.30312 0.89923 0.0
H4382 H 0.08116 0.25472 0.85785 0.0
H4383 H 0.05564 0.25402 0.87697 0.0
H4384 H 0.13316 0.2772 0.8882 0.0
H4385 H 0.09953 0.29183 0.82419 0.0
H4386 H 0.08985 0.29329 0.84639 0.0
H4387 H 0.08749 0.26999 0.83106 0.0
C4388 C 0.08709 0.29171 0.90532 0.0
C4389 C 0.07025 0.27805 0.89931 0.0
C4390 C 0.10157 0.2923 0.89424 0.0
C4391 C 0.09967 0.27922 0.87686 0.0
C4392 C 0.08292 0.26536 0.87092 0.0
H4393 H 0.17082 0.26432 0.78867 0.0
H4394 H 0.14689 0.26009 0.80977 0.0
C4395 C 0.06832 0.26489 0.88193 0.0
C4396 C 0.11532 0.28004 0.86522 0.0
H4397 H 0.12817 0.28508 0.8215 0.0
C4398 C 0.13206 0.27896 0.87361 0.0
C4399 C 0.11402 0.28238 0.84618 0.0
C4400 C 0.09682 0.28463 0.83646 0.0
C4401 C 0.14734 0.27979 0.86346 0.0
C4402 C 0.14601 0.2821 0.84439 0.0
C4403 C 0.12927 0.2832 0.83604 0.0
C4404 C 0.16163 0.28337 0.83267 0.0
C4405 C 0.16461 0.27773 0.87319 0.0
C4406 C 0.1782 0.2976 0.83853 0.0
C4407 C 0.19208 0.29975 0.82655 0.0
C4408 C 0.18952 0.28798 0.80834 0.0
C4409 C 0.17317 0.27352 0.80267 0.0
C4410 C 0.15945 0.27117 0.81471 0.0
H4411 H 0.16188 0.27018 0.88523 0.0
H4412 H 0.17187 0.26952 0.8632 0.0
H4413 H 0.17365 0.29246 0.87894 0.0
H4414 H 0.18015 0.30759 0.85204 0.0
H4415 H 0.20443 0.31124 0.83112 0.0
H4416 H 0.57273 0.75042 0.9021 0.0
H4417 H 0.57297 0.72363 0.91848 0.0
H4418 H 0.62312 0.75738 0.95154 0.0
H4419 H 0.6228 0.78433 0.93513 0.0
H4420 H 0.59696 0.70086 0.92971 0.0
H4421 H 0.58249 0.75529 0.988 0.0
H4422 H 0.58238 0.75861 0.96385 0.0
H4423 H 0.60352 0.76271 0.97818 0.0
C4424 C 0.58426 0.75165 0.91218 0.0
C4425 C 0.59778 0.76919 0.91743 0.0
C4426 C 0.58438 0.73642 0.92153 0.0
C4427 C 0.59791 0.73876 0.93636 0.0
C4428 C 0.61255 0.75545 0.94015 0.0
H4429 H 0.59321 0.65696 0.01216 0.0
H4430 H 0.60306 0.67809 0.98983 0.0
C4431 C 0.61244 0.77072 0.93073 0.0
C4432 C 0.59458 0.72571 0.94996 0.0
H4433 H 0.5812 0.72415 0.99394 0.0
C4434 C 0.59377 0.70591 0.94386 0.0
C4435 C 0.58988 0.73242 0.96815 0.0
C4436 C 0.58943 0.75337 0.97497 0.0
C4437 C 0.58829 0.69252 0.95558 0.0
C4438 C 0.5838 0.69931 0.97383 0.0
C4439 C 0.58476 0.71912 0.97994 0.0
C4440 C 0.57767 0.6861 0.98681 0.0
C4441 C 0.58674 0.67119 0.94813 0.0
C4442 C 0.5603 0.68408 0.99279 0.0
C4443 C 0.55465 0.67211 0.00561 0.0
C4444 C 0.56634 0.66206 0.01263 0.0
C4445 C 0.58383 0.66436 0.00678 0.0
C4446 C 0.58946 0.67632 0.99398 0.0
H4447 H 0.58665 0.66785 0.93249 0.0
H4448 H 0.59852 0.66715 0.9545 0.0
H4449 H 0.57421 0.66197 0.95203 0.0
H4450 H 0.55109 0.69168 0.98743 0.0
H4451 H 0.54103 0.67039 0.0097 0.0
H4452 H 0.05215 0.75767 0.71632 0.0
H4453 H 0.08314 0.7567 0.72524 0.0
H4454 H 0.09981 0.77624 0.67448 0.0
H4455 H 0.0686 0.77767 0.66563 0.0
H4456 H 0.09783 0.73074 0.69884 0.0
H4457 H 0.14164 0.80691 0.71788 0.0
H4458 H 0.11745 0.8015 0.71922 0.0
H4459 H 0.12603 0.79982 0.6966 0.0
C4460 C 0.06255 0.76234 0.70736 0.0
C4461 C 0.05812 0.76764 0.69028 0.0
C4462 C 0.08018 0.76176 0.71245 0.0
C4463 C 0.09362 0.76629 0.70045 0.0
C4464 C 0.08958 0.77289 0.68397 0.0
H4465 H 0.20061 0.74444 0.71919 0.0
H4466 H 0.17416 0.75098 0.70334 0.0
C4467 C 0.07184 0.77373 0.67897 0.0
C4468 C 0.11096 0.7615 0.70425 0.0
H4469 H 0.15522 0.78154 0.72183 0.0
C4470 C 0.11046 0.74181 0.70364 0.0
C4471 C 0.12732 0.77601 0.71029 0.0
C4472 C 0.1283 0.7973 0.71116 0.0
C4473 C 0.12576 0.73631 0.70986 0.0
C4474 C 0.14185 0.75089 0.71689 0.0
C4475 C 0.14271 0.77048 0.7165 0.0
C4476 C 0.15748 0.74616 0.72599 0.0
C4477 C 0.12453 0.71503 0.70943 0.0
C4478 C 0.1566 0.74113 0.74384 0.0
C4479 C 0.17168 0.73754 0.753 0.0
C4480 C 0.18781 0.73895 0.7444 0.0
C4481 C 0.18841 0.74347 0.72625 0.0
C4482 C 0.17337 0.74718 0.71716 0.0
H4483 H 0.11246 0.70537 0.70013 0.0
H4484 H 0.13691 0.71118 0.70445 0.0
H4485 H 0.12348 0.71218 0.72397 0.0
H4486 H 0.14438 0.74044 0.75084 0.0
H4487 H 0.17091 0.73438 0.76708 0.0
H4488 H 0.11864 0.3879 0.4604 0.0
H4489 H 0.12191 0.42301 0.46587 0.0
H4490 H 0.12711 0.4222 0.40668 0.0
H4491 H 0.12423 0.38706 0.40113 0.0
H4492 H 0.14481 0.46166 0.44965 0.0
H4493 H 0.07224 0.42436 0.42373 0.0
H4494 H 0.08629 0.41179 0.43488 0.0
H4495 H 0.0902 0.41682 0.41186 0.0
C4496 C 0.12147 0.39538 0.44877 0.0
C4497 C 0.12083 0.38483 0.43031 0.0
C4498 C 0.12344 0.41544 0.45192 0.0
C4499 C 0.12454 0.42499 0.43661 0.0
C4500 C 0.1264 0.41498 0.41863 0.0
H4501 H 0.06149 0.51056 0.45324 0.0
H4502 H 0.07944 0.49117 0.43553 0.0
C4503 C 0.12471 0.39491 0.4155 0.0
C4504 C 0.11842 0.44297 0.43858 0.0
H4505 H 0.07895 0.45688 0.43906 0.0
C4506 C 0.1305 0.46087 0.44689 0.0
C4507 C 0.09977 0.44174 0.43479 0.0
C4508 C 0.08627 0.4227 0.42583 0.0
C4509 C 0.12416 0.47752 0.45251 0.0
C4510 C 0.10526 0.47585 0.4503 0.0
C4511 C 0.09343 0.45821 0.44074 0.0
C4512 C 0.09701 0.4909 0.46013 0.0
C4513 C 0.13773 0.49653 0.46121 0.0
C4514 C 0.10111 0.49747 0.47975 0.0
C4515 C 0.09113 0.50881 0.4898 0.0
C4516 C 0.07636 0.51318 0.48057 0.0
C4517 C 0.07261 0.50718 0.46082 0.0
C4518 C 0.08293 0.4962 0.45067 0.0
H4519 H 0.15059 0.49772 0.45456 0.0
H4520 H 0.13246 0.50931 0.45967 0.0
H4521 H 0.14101 0.49701 0.47649 0.0
H4522 H 0.11149 0.49311 0.48752 0.0
H4523 H 0.09477 0.51368 0.5049 0.0
H4524 H 0.45343 0.28188 0.17771 0.0
H4525 H 0.42481 0.28303 0.19044 0.0
H4526 H 0.4485 0.28186 0.2459 0.0
H4527 H 0.47689 0.27963 0.23291 0.0
H4528 H 0.41919 0.25375 0.23582 0.0
H4529 H 0.40343 0.321 0.22159 0.0
H4530 H 0.40795 0.30678 0.20028 0.0
H4531 H 0.42567 0.31685 0.21968 0.0
C4532 C 0.45272 0.28263 0.19275 0.0
C4533 C 0.46725 0.28066 0.20438 0.0
C4534 C 0.43636 0.28333 0.20004 0.0
C4535 C 0.43456 0.28269 0.21917 0.0
C4536 C 0.44961 0.28236 0.23111 0.0
H4537 H 0.3382 0.26193 0.27917 0.0
H4538 H 0.36963 0.26838 0.27114 0.0
C4539 C 0.46582 0.28121 0.22373 0.0
C4540 C 0.41647 0.27958 0.226 0.0
H4541 H 0.37786 0.29508 0.2252 0.0
C4542 C 0.41032 0.26315 0.23406 0.0
C4543 C 0.40481 0.29162 0.22336 0.0
C4544 C 0.41091 0.31014 0.21593 0.0
C4545 C 0.39268 0.25823 0.23922 0.0
C4546 C 0.38095 0.27007 0.23621 0.0
C4547 C 0.38703 0.28635 0.228 0.0
C4548 C 0.36217 0.26567 0.24116 0.0
C4549 C 0.38651 0.23995 0.24704 0.0
C4550 C 0.34773 0.26235 0.22702 0.0
C4551 C 0.32998 0.25909 0.23167 0.0
C4552 C 0.32652 0.25923 0.25049 0.0
C4553 C 0.34079 0.26197 0.2646 0.0
C4554 C 0.35862 0.26547 0.26 0.0
H4555 H 0.39539 0.2299 0.2438 0.0
H4556 H 0.38696 0.24398 0.26265 0.0
H4557 H 0.37235 0.23202 0.24124 0.0
H4558 H 0.35023 0.26245 0.21243 0.0
H4559 H 0.31896 0.2567 0.22062 0.0
H4560 H 0.65218 0.54534 0.33418 0.0
H4561 H 0.63896 0.54601 0.36409 0.0
H4562 H 0.61432 0.48426 0.34765 0.0
H4563 H 0.62848 0.48352 0.31784 0.0
H4564 H 0.60783 0.54231 0.37319 0.0
H4565 H 0.62812 0.48262 0.40003 0.0
H4566 H 0.63735 0.49138 0.37992 0.0
H4567 H 0.61535 0.47433 0.37714 0.0
C4568 C 0.6444 0.5317 0.33709 0.0
C4569 C 0.64197 0.51429 0.32346 0.0
C4570 C 0.63654 0.53213 0.35435 0.0
C4571 C 0.6255 0.51521 0.35894 0.0
C4572 C 0.62311 0.49763 0.34533 0.0
H4573 H 0.55759 0.50259 0.45604 0.0
H4574 H 0.57059 0.49733 0.42571 0.0
C4575 C 0.6313 0.49715 0.32804 0.0
C4576 C 0.61605 0.51663 0.3773 0.0
H4577 H 0.60667 0.49615 0.41651 0.0
C4578 C 0.60782 0.53215 0.38258 0.0
C4579 C 0.61549 0.50357 0.39009 0.0
C4580 C 0.62469 0.48716 0.38665 0.0
C4581 C 0.5994 0.53494 0.39958 0.0
C4582 C 0.59894 0.52197 0.41235 0.0
C4583 C 0.60681 0.50622 0.40702 0.0
C4584 C 0.59087 0.52496 0.43134 0.0
C4585 C 0.59075 0.55176 0.40359 0.0
C4586 C 0.59773 0.54213 0.44528 0.0
C4587 C 0.59028 0.54516 0.46275 0.0
C4588 C 0.57547 0.53124 0.46718 0.0
C4589 C 0.56869 0.51393 0.45332 0.0
C4590 C 0.57629 0.51081 0.43585 0.0
H4591 H 0.58781 0.5571 0.39054 0.0
H4592 H 0.57792 0.54755 0.41004 0.0
H4593 H 0.60017 0.56402 0.41371 0.0
H4594 H 0.6091 0.55329 0.44274 0.0
H4595 H 0.5962 0.55863 0.47282 0.0
H4596 H 0.28532 0.89687 0.06915 0.0
H4597 H 0.27486 0.88136 0.09557 0.0
H4598 H 0.32729 0.90774 0.12748 0.0
H4599 H 0.33786 0.92271 0.10116 0.0
H4600 H 0.29667 0.85583 0.1072 0.0
H4601 H 0.28969 0.91244 0.16703 0.0
H4602 H 0.2862 0.91441 0.14252 0.0
H4603 H 0.30879 0.92023 0.15442 0.0
C4604 C 0.29436 0.89974 0.08206 0.0
C4605 C 0.31239 0.91078 0.08323 0.0
C4606 C 0.28837 0.89098 0.09707 0.0
C4607 C 0.30023 0.89376 0.11349 0.0
C4608 C 0.31784 0.90583 0.11506 0.0
H4609 H 0.34904 0.86213 0.19861 0.0
H4610 H 0.33278 0.87698 0.17788 0.0
C4611 C 0.32393 0.91418 0.09998 0.0
C4612 C 0.29602 0.88136 0.12749 0.0
H4613 H 0.30014 0.88537 0.17528 0.0
C4614 C 0.29668 0.86191 0.12208 0.0
C4615 C 0.29615 0.88956 0.14675 0.0
C4616 C 0.295 0.91029 0.15304 0.0
C4617 C 0.29988 0.85116 0.13565 0.0
C4618 C 0.30167 0.86001 0.15507 0.0
C4619 C 0.29885 0.87869 0.16038 0.0
C4620 C 0.30977 0.85177 0.16967 0.0
C4621 C 0.30331 0.83136 0.12899 0.0
C4622 C 0.30198 0.8329 0.17231 0.0
C4623 C 0.31159 0.82409 0.18357 0.0
C4624 C 0.32892 0.83425 0.19281 0.0
C4625 C 0.33602 0.85369 0.19124 0.0
C4626 C 0.32658 0.86232 0.17965 0.0
H4627 H 0.30435 0.8282 0.11352 0.0
H4628 H 0.31605 0.83032 0.13649 0.0
H4629 H 0.29195 0.81989 0.13206 0.0
H4630 H 0.28884 0.8247 0.16504 0.0
H4631 H 0.30569 0.80906 0.18439 0.0
H4632 H 0.94692 0.58648 0.84892 0.0
H4633 H 0.96524 0.59986 0.87981 0.0
H4634 H 0.96753 0.54181 0.88504 0.0
H4635 H 0.94959 0.52843 0.85441 0.0
H4636 H 0.95899 0.57644 0.91974 0.0
H4637 H 0.02211 0.58807 0.88388 0.0
H4638 H 1.00149 0.59281 0.87446 0.0
H4639 H 0.0032 0.56817 0.8726 0.0
C4640 C 0.95108 0.57661 0.85689 0.0
C4641 C 0.94708 0.55648 0.8493 0.0
C4642 C 0.9615 0.58425 0.8744 0.0
C4643 C 0.96768 0.57174 0.8844 0.0
C4644 C 0.96283 0.5516 0.87733 0.0
H4645 H 0.00955 0.53012 0.96448 0.0
H4646 H 0.99407 0.5427 0.94111 0.0
C4647 C 0.95267 0.54401 0.85987 0.0
C4648 C 0.98041 0.57918 0.90159 0.0
H4649 H 0.02449 0.58169 0.91506 0.0
C4650 C 0.97346 0.57851 0.919 0.0
C4651 C 0.9992 0.5819 0.90041 0.0
C4652 C 0.00707 0.58291 0.88186 0.0
C4653 C 0.98465 0.57831 0.93495 0.0
C4654 C 0.00299 0.57841 0.9331 0.0
C4655 C 0.01038 0.5815 0.91631 0.0
C4656 C 0.0133 0.57108 0.94666 0.0
C4657 C 0.97641 0.57624 0.95317 0.0
C4658 C 0.02989 0.58247 0.95646 0.0
C4659 C 0.03899 0.57516 0.96969 0.0
C4660 C 0.03145 0.55645 0.97311 0.0
C4661 C 0.01544 0.54473 0.96238 0.0
C4662 C 0.00651 0.55196 0.94917 0.0
H4663 H 0.96505 0.58337 0.95454 0.0
H4664 H 0.97081 0.56052 0.95314 0.0
H4665 H 0.98666 0.58264 0.96568 0.0
H4666 H 0.03548 0.59711 0.95427 0.0
H4667 H 0.0514 0.5844 0.97778 0.0
H4668 H 0.32917 0.23668 0.56626 0.0
H4669 H 0.33313 0.24968 0.60056 0.0
H4670 H 0.27689 0.25131 0.59817 0.0
H4671 H 0.27344 0.24008 0.56417 0.0
H4672 H 0.29423 0.28073 0.62141 0.0
H4673 H 0.31849 0.21862 0.63878 0.0
H4674 H 0.33355 0.23282 0.62553 0.0
H4675 H 0.31105 0.21942 0.61491 0.0
C4676 C 0.3178 0.24009 0.57315 0.0
C4677 C 0.30103 0.23742 0.5626 0.0
C4678 C 0.31999 0.24731 0.59275 0.0
C4679 C 0.30518 0.25108 0.60214 0.0
C4680 C 0.28858 0.24865 0.5914 0.0
H4681 H 0.29083 0.24208 0.7168 0.0
H4682 H 0.29022 0.23825 0.6825 0.0
C4683 C 0.2866 0.24216 0.57189 0.0
C4684 C 0.30636 0.25691 0.6231 0.0
H4685 H 0.31664 0.24309 0.66427 0.0
C4686 C 0.29906 0.27241 0.63078 0.0
C4687 C 0.31253 0.24603 0.63539 0.0
C4688 C 0.31917 0.2282 0.62825 0.0
C4689 C 0.29686 0.27667 0.65011 0.0
C4690 C 0.30333 0.266 0.66241 0.0
C4691 C 0.31153 0.25121 0.65488 0.0
C4692 C 0.30109 0.26906 0.68297 0.0
C4693 C 0.28672 0.29178 0.65678 0.0
C4694 C 0.3066 0.28772 0.69473 0.0
C4695 C 0.30592 0.28997 0.7143 0.0
C4696 C 0.30044 0.27351 0.72241 0.0
C4697 C 0.29483 0.25496 0.71073 0.0
C4698 C 0.29469 0.25279 0.69118 0.0
H4699 H 0.27765 0.29364 0.64502 0.0
H4700 H 0.27837 0.28784 0.66822 0.0
H4701 H 0.2966 0.30608 0.66224 0.0
H4702 H 0.3122 0.30046 0.68897 0.0
H4703 H 0.31085 0.30437 0.72317 0.0
H4704 H 0.65941 0.50603 0.2001 0.0
H4705 H 0.64746 0.50875 0.16842 0.0
H4706 H 0.59827 0.51743 0.19035 0.0
H4707 H 0.60998 0.51462 0.22162 0.0
H4708 H 0.58971 0.4945 0.15536 0.0
H4709 H 0.64521 0.55821 0.15025 0.0
H4710 H 0.65264 0.53716 0.15372 0.0
H4711 H 0.64212 0.54948 0.17202 0.0
C4712 C 0.6459 0.5081 0.19815 0.0
C4713 C 0.63577 0.50989 0.21384 0.0
C4714 C 0.63909 0.51003 0.1799 0.0
C4715 C 0.62186 0.51378 0.17655 0.0
C4716 C 0.61155 0.5147 0.19206 0.0
H4717 H 0.55302 0.53037 0.07707 0.0
H4718 H 0.56426 0.52713 0.10881 0.0
C4719 C 0.61836 0.51298 0.21017 0.0
C4720 C 0.61446 0.51691 0.1573 0.0
H4721 H 0.62341 0.54534 0.12363 0.0
C4722 C 0.59718 0.50567 0.14851 0.0
C4723 C 0.62377 0.53148 0.14789 0.0
C4724 C 0.64188 0.54493 0.15647 0.0
C4725 C 0.58941 0.5081 0.13088 0.0
C4726 C 0.59868 0.52277 0.12148 0.0
C4727 C 0.61594 0.53407 0.13037 0.0
C4728 C 0.59138 0.52599 0.10218 0.0
C4729 C 0.57151 0.49425 0.12221 0.0
C4730 C 0.60268 0.52758 0.08749 0.0
C4731 C 0.59631 0.52987 0.06945 0.0
C4732 C 0.57832 0.53089 0.06499 0.0
C4733 C 0.56696 0.52978 0.07971 0.0
C4734 C 0.57342 0.52758 0.09797 0.0
H4735 H 0.56892 0.48059 0.12783 0.0
H4736 H 0.5604 0.5013 0.12573 0.0
H4737 H 0.57103 0.49036 0.10657 0.0
H4738 H 0.61653 0.52657 0.08979 0.0
H4739 H 0.6056 0.53056 0.05869 0.0
H4740 H 0.30149 0.89678 0.97404 0.0
H4741 H 0.30043 0.87757 0.94233 0.0
H4742 H 0.34911 0.86181 0.95931 0.0
H4743 H 0.35053 0.88132 0.991 0.0
H4744 H 0.35082 0.87478 0.92631 0.0
H4745 H 0.28626 0.81889 0.92384 0.0
H4746 H 0.28378 0.8433 0.93004 0.0
H4747 H 0.29787 0.83468 0.94562 0.0
C4748 C 0.31185 0.88902 0.97113 0.0
C4749 C 0.32605 0.89049 0.98506 0.0
C4750 C 0.31116 0.87798 0.95302 0.0
C4751 C 0.32452 0.86803 0.94862 0.0
C4752 C 0.3386 0.86929 0.96252 0.0
H4753 H 0.31324 0.78741 0.84014 0.0
H4754 H 0.3174 0.80122 0.87415 0.0
C4755 C 0.33936 0.88041 0.98061 0.0
C4756 C 0.32436 0.85725 0.92919 0.0
H4757 H 0.29775 0.82192 0.89409 0.0
C4758 C 0.33933 0.86304 0.91931 0.0
C4759 C 0.30946 0.84179 0.92024 0.0
C4760 C 0.29352 0.83415 0.93055 0.0
C4761 C 0.33953 0.85421 0.90043 0.0
C4762 C 0.32414 0.83955 0.89113 0.0
C4763 C 0.30946 0.83328 0.90123 0.0
C4764 C 0.32259 0.83121 0.87071 0.0
C4765 C 0.35621 0.86071 0.89069 0.0
C4766 C 0.32397 0.84351 0.85759 0.0
C4767 C 0.3218 0.83572 0.83828 0.0
C4768 C 0.3178 0.81544 0.8317 0.0
C4769 C 0.31629 0.8031 0.84483 0.0
C4770 C 0.31868 0.81095 0.86422 0.0
H4771 H 0.36852 0.86669 0.90106 0.0
H4772 H 0.35846 0.84851 0.88012 0.0
H4773 H 0.3545 0.87248 0.88329 0.0
H4774 H 0.32639 0.85914 0.86228 0.0
H4775 H 0.32281 0.84561 0.82852 0.0
H4776 H 0.97597 0.55554 0.76032 0.0
H4777 H 0.98734 0.55804 0.72979 0.0
H4778 H 0.93464 0.56008 0.70655 0.0
H4779 H 0.92323 0.55803 0.73737 0.0
H4780 H 0.94967 0.52678 0.69055 0.0
H4781 H 0.99726 0.59912 0.69426 0.0
H4782 H 0.99895 0.58905 0.71513 0.0
H4783 H 0.97846 0.59542 0.70844 0.0
C4784 C 0.96701 0.55724 0.74889 0.0
C4785 C 0.94876 0.5565 0.75104 0.0
C4786 C 0.97352 0.55879 0.73154 0.0
C4787 C 0.96182 0.55939 0.71609 0.0
C4788 C 0.94386 0.5599 0.71848 0.0
H4789 H 0.99248 0.51742 0.60409 0.0
H4790 H 0.97398 0.52855 0.62793 0.0
C4791 C 0.93741 0.55875 0.73602 0.0
C4792 C 0.96764 0.55565 0.6971 0.0
H4793 H 1.00212 0.57233 0.67183 0.0
C4794 C 0.9608 0.53686 0.68605 0.0
C4795 C 0.98219 0.56886 0.69159 0.0
C4796 C 0.98958 0.58933 0.70288 0.0
C4797 C 0.96922 0.53031 0.67039 0.0
C4798 C 0.98452 0.54319 0.66552 0.0
C4799 C 0.99047 0.56247 0.67577 0.0
C4800 C 0.99554 0.53652 0.65096 0.0
C4801 C 0.96252 0.5093 0.66015 0.0
C4802 C 0.01383 0.5376 0.65604 0.0
C4803 C 0.02456 0.53167 0.6424 0.0
C4804 C 0.01712 0.52453 0.62348 0.0
C4805 C 0.99865 0.52308 0.61854 0.0
C4806 C 0.98801 0.52925 0.63214 0.0
H4807 H 0.95321 0.50033 0.66828 0.0
H4808 H 0.955 0.50865 0.64633 0.0
H4809 H 0.97405 0.50267 0.65739 0.0
H4810 H 0.01983 0.54318 0.67056 0.0
H4811 H 0.03878 0.53323 0.64657 0.0
H4812 H 0.32508 0.20857 0.45608 0.0
H4813 H 0.33222 0.21563 0.42495 0.0
H4814 H 0.29204 0.24871 0.42588 0.0
H4815 H 0.28522 0.24228 0.45679 0.0
H4816 H 0.30923 0.20507 0.39245 0.0
H4817 H 0.33395 0.28533 0.40964 0.0
H4818 H 0.33204 0.27078 0.42767 0.0
H4819 H 0.31256 0.27761 0.41849 0.0
C4820 C 0.31803 0.21764 0.44977 0.0
C4821 C 0.30462 0.2249 0.45895 0.0
C4822 C 0.3221 0.22163 0.43201 0.0
C4823 C 0.31291 0.23302 0.42329 0.0
C4824 C 0.2997 0.2404 0.43257 0.0
H4825 H 0.27445 0.23445 0.31276 0.0
H4826 H 0.28185 0.22676 0.34331 0.0
C4827 C 0.29571 0.23653 0.45023 0.0
C4828 C 0.31575 0.23598 0.40385 0.0
H4829 H 0.32081 0.27106 0.37719 0.0
C4830 C 0.31219 0.21951 0.38912 0.0
C4831 C 0.31985 0.25483 0.39951 0.0
C4832 C 0.325 0.27312 0.41472 0.0
C4833 C 0.31134 0.22137 0.37011 0.0
C4834 C 0.31381 0.24013 0.36583 0.0
C4835 C 0.31865 0.25665 0.38053 0.0
C4836 C 0.31004 0.24293 0.34637 0.0
C4837 C 0.30737 0.20323 0.35478 0.0
C4838 C 0.32339 0.25465 0.33801 0.0
C4839 C 0.31922 0.25886 0.32041 0.0
C4840 C 0.30154 0.2516 0.31098 0.0
C4841 C 0.28829 0.23965 0.31928 0.0
C4842 C 0.2925 0.23535 0.33682 0.0
H4843 H 0.31149 0.19113 0.35994 0.0
H4844 H 0.29257 0.19838 0.35029 0.0
H4845 H 0.31448 0.20606 0.34222 0.0
H4846 H 0.33695 0.26082 0.34526 0.0
H4847 H 0.32975 0.26817 0.31441 0.0
H4848 H 0.32644 0.60533 0.55548 0.0
H4849 H 0.35182 0.59028 0.55129 0.0
H4850 H 0.36371 0.61606 0.50257 0.0
H4851 H 0.33853 0.63124 0.50667 0.0
H4852 H 0.35307 0.56373 0.51769 0.0
H4853 H 0.41394 0.62662 0.53282 0.0
H4854 H 0.39226 0.62823 0.54072 0.0
H4855 H 0.39628 0.62915 0.51661 0.0
C4856 C 0.33466 0.60808 0.54409 0.0
C4857 C 0.33043 0.61935 0.53134 0.0
C4858 C 0.34912 0.59949 0.54173 0.0
C4859 C 0.35967 0.60225 0.52674 0.0
C4860 C 0.3559 0.61406 0.51442 0.0
H4861 H 0.42491 0.53448 0.46679 0.0
H4862 H 0.40308 0.55349 0.47625 0.0
C4863 C 0.34142 0.62259 0.51671 0.0
C4864 C 0.37334 0.59117 0.52273 0.0
H4865 H 0.41815 0.59606 0.51722 0.0
C4866 C 0.36733 0.57077 0.51775 0.0
C4867 C 0.39188 0.60048 0.52284 0.0
C4868 C 0.39906 0.62232 0.52869 0.0
C4869 C 0.37936 0.55941 0.5124 0.0
C4870 C 0.39776 0.56874 0.51199 0.0
C4871 C 0.40392 0.58908 0.51739 0.0
C4872 C 0.41082 0.55741 0.50627 0.0
C4873 C 0.37244 0.53751 0.50713 0.0
C4874 C 0.42212 0.55333 0.5201 0.0
C4875 C 0.43432 0.5423 0.5148 0.0
C4876 C 0.43556 0.53536 0.49554 0.0
C4877 C 0.42409 0.53941 0.48171 0.0
C4878 C 0.41178 0.55038 0.48706 0.0
H4879 H 0.35804 0.53242 0.50969 0.0
H4880 H 0.37363 0.53251 0.49191 0.0
H4881 H 0.38083 0.53057 0.51539 0.0
H4882 H 0.42139 0.55858 0.535 0.0
H4883 H 0.44281 0.53919 0.5258 0.0
H4884 H 0.84791 0.94346 0.53957 0.0
H4885 H 0.87696 0.96713 0.53903 0.0
H4886 H 0.90575 0.92527 0.5508 0.0
H4887 H 0.8771 0.9017 0.55147 0.0
H4888 H 0.91341 0.97838 0.57037 0.0
H4889 H 0.91726 0.94248 0.49626 0.0
H4890 H 0.89589 0.9414 0.50604 0.0
H4891 H 0.91039 0.92707 0.51295 0.0
C4892 C 0.86043 0.93942 0.54235 0.0
C4893 C 0.86014 0.92061 0.54543 0.0
C4894 C 0.87699 0.95295 0.54203 0.0
C4895 C 0.89342 0.94783 0.54477 0.0
C4896 C 0.89318 0.92943 0.54861 0.0
H4897 H 0.00536 0.98576 0.52826 0.0
H4898 H 0.9746 0.96864 0.53241 0.0
C4899 C 0.87675 0.91598 0.54896 0.0
C4900 C 0.9109 0.96098 0.54239 0.0
H4901 H 0.94331 0.96631 0.51188 0.0
C4902 C 0.9199 0.976 0.55752 0.0
C4903 C 0.91936 0.95752 0.52571 0.0
C4904 C 0.91027 0.94132 0.50921 0.0
C4905 C 0.93749 0.98736 0.5566 0.0
C4906 C 0.946 0.98388 0.53989 0.0
C4907 C 0.93676 0.96906 0.52464 0.0
C4908 C 0.96484 0.99469 0.53819 0.0
C4909 C 0.94716 1.00227 0.57384 0.0
C4910 C 0.96965 0.01507 0.54005 0.0
C4911 C 0.98737 0.02494 0.53792 0.0
C4912 C 1.00046 0.01456 0.53355 0.0
C4913 C 0.99556 0.99417 0.53159 0.0
C4914 C 0.97798 0.98436 0.53396 0.0
H4915 H 0.94047 1.00002 0.58678 0.0
H4916 H 0.96149 1.0017 0.57628 0.0
H4917 H 0.9471 0.01708 0.57161 0.0
H4918 H 0.95964 0.02331 0.54277 0.0
H4919 H 0.99059 0.04055 0.53903 0.0
H4920 H 0.88503 0.10838 0.26598 0.0
H4921 H 0.86678 0.13224 0.26419 0.0
H4922 H 0.91315 0.17901 0.28942 0.0
H4923 H 0.93124 0.15572 0.29078 0.0
H4924 H 0.85483 0.15951 0.28766 0.0
H4925 H 0.90129 0.20132 0.2457 0.0
H4926 H 0.90357 0.17818 0.25016 0.0
H4927 H 0.91303 0.20028 0.26756 0.0
C4928 C 0.89141 0.12373 0.27113 0.0
C4929 C 0.91001 0.12968 0.27835 0.0
C4930 C 0.88084 0.13758 0.27012 0.0
C4931 C 0.88836 0.15803 0.27616 0.0
C4932 C 0.90672 0.16374 0.28392 0.0
H4933 H 0.82607 0.25143 0.29741 0.0
H4934 H 0.84044 0.22474 0.30058 0.0
C4935 C 0.9172 0.15007 0.28485 0.0
C4936 C 0.87751 0.17343 0.27444 0.0
H4937 H 0.8799 0.21696 0.2598 0.0
C4938 C 0.8604 0.17199 0.28146 0.0
C4939 C 0.88409 0.18999 0.26615 0.0
C4940 C 0.90139 0.19247 0.25679 0.0
C4941 C 0.8503 0.18633 0.28083 0.0
C4942 C 0.85729 0.20328 0.27323 0.0
C4943 C 0.87421 0.20446 0.26592 0.0
C4944 C 0.84721 0.21937 0.27167 0.0
C4945 C 0.83184 0.18275 0.28783 0.0
C4946 C 0.84593 0.22615 0.25459 0.0
C4947 C 0.83774 0.24153 0.25284 0.0
C4948 C 0.83025 0.25115 0.26801 0.0
C4949 C 0.83126 0.24439 0.28518 0.0
C4950 C 0.83955 0.22886 0.28696 0.0
H4951 H 0.82612 0.16706 0.28787 0.0
H4952 H 0.83301 0.19099 0.30258 0.0
H4953 H 0.82221 0.18768 0.27894 0.0
H4954 H 0.85143 0.21957 0.24236 0.0
H4955 H 0.83751 0.24613 0.23938 0.0
H4956 H 0.73385 0.09256 0.99738 0.0
H4957 H 0.7024 0.07523 0.99871 0.0
H4958 H 0.70911 0.09453 0.05934 0.0
H4959 H 0.74045 0.11213 0.05797 0.0
H4960 H 0.67644 0.05129 0.02466 0.0
H4961 H 0.68331 0.13101 0.03066 0.0
H4962 H 0.70063 0.11959 0.02215 0.0
H4963 H 0.69791 0.12382 0.04692 0.0
C4964 C 0.72899 0.09187 0.01109 0.0
C4965 C 0.73935 0.10368 0.02757 0.0
C4966 C 0.711 0.08204 0.01184 0.0
C4967 C 0.70346 0.08399 0.02909 0.0
C4968 C 0.71478 0.09291 0.04593 0.0
H4969 H 0.59455 0.09972 0.04076 0.0
H4970 H 0.62676 0.10047 0.04718 0.0
C4971 C 0.73269 0.10288 0.04515 0.0
C4972 C 0.6839 0.08258 0.02874 0.0
H4973 H 0.65412 0.11103 0.02907 0.0
C4974 C 0.67148 0.06429 0.02584 0.0
C4975 C 0.6776 0.09965 0.03008 0.0
C4976 C 0.69048 0.11966 0.0325 0.0
C4977 C 0.65272 0.06262 0.02423 0.0
C4978 C 0.64641 0.07973 0.02528 0.0
C4979 C 0.65895 0.09799 0.02849 0.0
C4980 C 0.62696 0.0791 0.02191 0.0
C4981 C 0.64001 0.04252 0.02128 0.0
C4982 C 0.61672 0.06777 0.00519 0.0
C4983 C 0.59837 0.06685 0.00205 0.0
C4984 C 0.58996 0.07729 0.01547 0.0
C4985 C 0.60053 0.09035 0.03109 0.0
C4986 C 0.6189 0.09093 0.03457 0.0
H4987 H 0.64591 0.03292 0.02882 0.0
H4988 H 0.62663 0.04292 0.02619 0.0
H4989 H 0.63792 0.03584 0.00597 0.0
H4990 H 0.62289 0.0596 0.99457 0.0
H4991 H 0.59075 0.05801 0.98902 0.0
H4992 H 0.24693 0.52872 0.27122 0.0
H4993 H 0.26255 0.50384 0.2762 0.0
H4994 H 0.22392 0.46097 0.2343 0.0
H4995 H 0.2082 0.48571 0.22904 0.0
H4996 H 0.23317 0.45454 0.27654 0.0
H4997 H 0.28933 0.47309 0.23191 0.0
H4998 H 0.28245 0.49286 0.24605 0.0
H4999 H 0.26717 0.47691 0.22673 0.0
C5000 C 0.24182 0.51404 0.26298 0.0
C5001 C 0.22639 0.50912 0.24974 0.0
C5002 C 0.25074 0.49992 0.26583 0.0
C5003 C 0.24429 0.48079 0.25554 0.0
C5004 C 0.22899 0.47578 0.24226 0.0
H5005 H 0.29763 0.38793 0.25538 0.0
H5006 H 0.28098 0.41046 0.24633 0.0
C5007 C 0.22011 0.48991 0.23929 0.0
C5008 C 0.25337 0.46595 0.25915 0.0
H5009 H 0.29161 0.45072 0.2516 0.0
C5010 C 0.24588 0.45352 0.27104 0.0
C5011 C 0.26973 0.46473 0.25165 0.0
C5012 C 0.2777 0.4775 0.23827 0.0
C5013 C 0.25479 0.44008 0.27615 0.0
C5014 C 0.27167 0.43951 0.26939 0.0
C5015 C 0.27878 0.4515 0.25694 0.0
C5016 C 0.28214 0.42644 0.27495 0.0
C5017 C 0.24606 0.4266 0.28862 0.0
C5018 C 0.28866 0.42845 0.29397 0.0
C5019 C 0.29809 0.41555 0.2992 0.0
C5020 C 0.30114 0.4006 0.28542 0.0
C5021 C 0.29526 0.39922 0.26629 0.0
C5022 C 0.28579 0.41203 0.2611 0.0
H5023 H 0.23128 0.42541 0.28845 0.0
H5024 H 0.24809 0.41177 0.2841 0.0
H5025 H 0.25238 0.43241 0.30343 0.0
H5026 H 0.28623 0.43981 0.30475 0.0
H5027 H 0.3024 0.4168 0.31404 0.0
H5028 H 0.2718 0.43604 0.04723 0.0
H5029 H 0.24971 0.45566 0.04741 0.0
H5030 H 0.21307 0.40925 0.00677 0.0
H5031 H 0.23477 0.38936 0.00702 0.0
H5032 H 0.23688 0.46968 0.02009 0.0
H5033 H 0.17889 0.42123 0.04417 0.0
H5034 H 0.20132 0.41723 0.04532 0.0
H5035 H 0.18639 0.40886 0.02356 0.0
C5036 C 0.25898 0.42996 0.03844 0.0
C5037 C 0.25502 0.4111 0.02718 0.0
C5038 C 0.24634 0.44118 0.03858 0.0
C5039 C 0.22952 0.4338 0.02741 0.0
C5040 C 0.22566 0.41506 0.01598 0.0
H5041 H 0.16487 0.502 0.98403 0.0
H5042 H 0.18447 0.48086 0.98953 0.0
C5043 C 0.23819 0.40376 0.016 0.0
C5044 C 0.21654 0.44616 0.02676 0.0
H5045 H 0.17204 0.4464 0.02937 0.0
C5046 C 0.22276 0.46463 0.02233 0.0
C5047 C 0.19814 0.43979 0.03 0.0
C5048 C 0.19084 0.42078 0.03623 0.0
C5049 C 0.21101 0.47658 0.02037 0.0
C5050 C 0.19238 0.46965 0.02233 0.0
C5051 C 0.18626 0.45153 0.02752 0.0
C5052 C 0.1791 0.48093 0.01861 0.0
C5053 C 0.21874 0.49658 0.01629 0.0
C5054 C 0.16877 0.4871 0.0328 0.0
C5055 C 0.15736 0.49905 0.0296 0.0
C5056 C 0.15619 0.50504 0.01218 0.0
C5057 C 0.16585 0.498 0.99773 0.0
C5058 C 0.17708 0.48596 1.00088 0.0
H5059 H 0.23351 0.50191 0.02097 0.0
H5060 H 0.21682 0.49586 1.00081 0.0
H5061 H 0.21182 0.50735 0.02343 0.0
H5062 H 0.16998 0.4832 0.04653 0.0
H5063 H 0.15003 0.50422 0.04097 0.0
H5064 H 0.92104 1.00206 0.2911 0.0
H5065 H 0.90147 0.96959 0.28929 0.0
H5066 H 0.86289 0.981 0.24963 0.0
H5067 H 0.88283 0.01401 0.25136 0.0
H5068 H 0.86741 0.956 0.2977 0.0
H5069 H 0.87022 0.92954 0.22113 0.0
H5070 H 0.88506 0.9521 0.23426 0.0
H5071 H 0.86189 0.95094 0.22685 0.0
C5072 C 0.90831 0.99785 0.28206 0.0
C5073 C 0.90364 0.01087 0.27138 0.0
C5074 C 0.89706 0.9791 0.28103 0.0
C5075 C 0.88069 0.97236 0.26907 0.0
C5076 C 0.87557 0.9855 0.25873 0.0
H5077 H 0.80545 0.85328 0.24764 0.0
H5078 H 0.81933 0.88777 0.24763 0.0
C5079 C 0.88687 0.00456 0.25992 0.0
C5080 C 0.86945 0.95162 0.26773 0.0
H5081 H 0.85317 0.90715 0.23749 0.0
C5082 C 0.86424 0.94542 0.28446 0.0
C5083 C 0.8652 0.93748 0.25056 0.0
C5084 C 0.87098 0.9427 0.23217 0.0
C5085 C 0.85517 0.92585 0.28455 0.0
C5086 C 0.8513 0.91161 0.26747 0.0
C5087 C 0.85607 0.91786 0.25064 0.0
C5088 C 0.84286 0.89021 0.26702 0.0
C5089 C 0.84967 0.92063 0.30304 0.0
C5090 C 0.85144 0.87962 0.27756 0.0
C5091 C 0.84352 0.85983 0.27758 0.0
C5092 C 0.82664 0.84986 0.26709 0.0
C5093 C 0.81824 0.86037 0.25618 0.0
C5094 C 0.82626 0.88018 0.25608 0.0
H5095 H 0.84877 0.93366 0.31344 0.0
H5096 H 0.83637 0.90964 0.30089 0.0
H5097 H 0.86 0.91433 0.30923 0.0
H5098 H 0.86441 0.88666 0.28582 0.0
H5099 H 0.85064 0.85243 0.28603 0.0
H5100 H 0.71802 0.11033 0.72981 0.0
H5101 H 0.74381 0.13903 0.73822 0.0
H5102 H 0.76806 0.11142 0.77748 0.0
H5103 H 0.74249 0.08221 0.76845 0.0
H5104 H 0.75519 0.14762 0.79178 0.0
H5105 H 0.80134 0.15566 0.73572 0.0
H5106 H 0.77775 0.1457 0.72706 0.0
H5107 H 0.78927 0.13215 0.73991 0.0
C5108 C 0.72922 0.11014 0.73966 0.0
C5109 C 0.7284 0.09431 0.7486 0.0
C5110 C 0.74396 0.1264 0.74435 0.0
C5111 C 0.75782 0.12715 0.75832 0.0
C5112 C 0.75759 0.11085 0.76642 0.0
H5113 H 0.81379 0.25129 0.79965 0.0
H5114 H 0.81187 0.21633 0.79433 0.0
C5115 C 0.74303 0.0943 0.76132 0.0
C5116 C 0.76971 0.14634 0.76711 0.0
H5117 H 0.79798 0.18542 0.75502 0.0
C5118 C 0.76502 0.1558 0.78408 0.0
C5119 C 0.78248 0.15683 0.75701 0.0
C5120 C 0.78817 0.14704 0.73897 0.0
C5121 C 0.77114 0.17604 0.78997 0.0
C5122 C 0.78232 0.18678 0.77869 0.0
C5123 C 0.78889 0.17706 0.76315 0.0
C5124 C 0.78435 0.20781 0.78081 0.0
C5125 C 0.7644 0.18602 0.80727 0.0
C5126 C 0.76952 0.21436 0.7748 0.0
C5127 C 0.77065 0.23423 0.77765 0.0
C5128 C 0.78678 0.24777 0.78601 0.0
C5129 C 0.8015 0.24118 0.79235 0.0
C5130 C 0.80042 0.22125 0.78944 0.0
H5131 H 0.75967 0.17583 0.81684 0.0
H5132 H 0.77521 0.19865 0.81525 0.0
H5133 H 0.75283 0.1916 0.80277 0.0
H5134 H 0.75693 0.20404 0.76829 0.0
H5135 H 0.7588 0.239 0.77375 0.0
loop_
_geom_bond_atom_site_label_1
_geom_bond_atom_site_label_2
_geom_bond_distance
_geom_bond_site_symmetry_2
_ccdc_geom_bond_type
Zn0 O3 2.031 . S
Zn0 O5 2.049 . S
Zn0 O10 2.067 . S
Zn1 O2 1.962 . S
Zn1 O4 1.986 . S
Zn1 O6 1.996 . S
Zn1 O9 1.943 . S
O2 Zn1 1.962 . S
O2 C7 1.254 . S
O3 Zn0 2.031 . S
O3 C7 1.269 . S
O4 Zn1 1.986 . S
O4 C11 1.262 . S
O5 Zn0 2.049 . S
O5 C13 1.260 . S
O6 Zn1 1.996 . S
O6 C13 1.257 . S
C7 O2 1.254 . S
C7 O3 1.269 . S
C8 O9 1.249 . S
C8 O10 1.270 . S
O9 Zn1 1.943 . S
O9 C8 1.249 . S
O10 Zn0 2.067 . S
O10 C8 1.270 . S
C11 O4 1.262 . S
C11 O12 1.232 . S
O12 C11 1.232 . S
C13 O5 1.260 . S
C13 O6 1.257 . S
Zn14 O17 1.973 1_455 S
Zn14 O19 2.108 . S
Zn14 O24 2.082 . S
Zn15 O16 1.949 1_455 S
Zn15 O18 1.991 . S
Zn15 O20 2.007 . S
Zn15 O23 1.946 1_455 S
O16 Zn15 1.949 1_655 S
O16 C21 1.254 . S
O17 Zn14 1.973 1_655 S
O17 C21 1.269 . S
O18 Zn15 1.991 . S
O18 C25 1.262 . S
O19 Zn14 2.108 . S
O19 C27 1.260 . S
O20 Zn15 2.007 . S
O20 C27 1.257 . S
C21 O16 1.254 . S
C21 O17 1.269 . S
C22 O23 1.249 . S
C22 O24 1.270 1_655 S
O23 Zn15 1.946 1_655 S
O23 C22 1.249 . S
O24 Zn14 2.082 . S
O24 C22 1.270 1_455 S
C25 O18 1.262 . S
C25 O26 1.232 1_455 S
O26 C25 1.232 1_655 S
C27 O19 1.260 . S
C27 O20 1.257 . S
Zn28 O31 2.031 . S
Zn28 O33 2.049 . S
Zn28 O38 2.067 . S
Zn29 O30 1.962 . S
Zn29 O32 1.986 . S
Zn29 O34 1.996 . S
Zn29 O37 1.943 . S
O30 Zn29 1.962 . S
O30 C35 1.254 . S
O31 Zn28 2.031 . S
O31 C35 1.269 . S
O32 Zn29 1.986 . S
O32 C39 1.262 . S
O33 Zn28 2.049 . S
O33 C41 1.260 . S
O34 Zn29 1.996 . S
O34 C41 1.257 . S
C35 O30 1.254 . S
C35 O31 1.269 . S
C36 O37 1.249 . S
C36 O38 1.270 . S
O37 Zn29 1.943 . S
O37 C36 1.249 . S
O38 Zn28 2.067 . S
O38 C36 1.270 . S
C39 O32 1.262 . S
C39 O40 1.232 . S
O40 C39 1.232 . S
C41 O33 1.260 . S
C41 O34 1.257 . S
Zn42 O45 2.031 . S
Zn42 O47 2.049 . S
Zn42 O52 2.067 . S
Zn43 O44 1.962 . S
Zn43 O46 1.986 . S
Zn43 O48 1.996 . S
Zn43 O51 1.943 . S
O44 Zn43 1.962 . S
O44 C49 1.254 . S
O45 Zn42 2.031 . S
O45 C49 1.269 . S
O46 Zn43 1.986 . S
O46 C53 1.262 . S
O47 Zn42 2.049 . S
O47 C55 1.260 . S
O48 Zn43 1.996 . S
O48 C55 1.257 . S
C49 O44 1.254 . S
C49 O45 1.269 . S
C50 O51 1.249 . S
C50 O52 1.270 . S
O51 Zn43 1.943 . S
O51 C50 1.249 . S
O52 Zn42 2.067 . S
O52 C50 1.270 . S
C53 O46 1.262 . S
C53 O54 1.232 . S
O54 C53 1.232 . S
C55 O47 1.260 . S
C55 O48 1.257 . S
Zn56 O59 2.031 . S
Zn56 O61 2.049 . S
Zn56 O66 2.067 . S
Zn57 O58 1.962 . S
Zn57 O60 1.986 . S
Zn57 O62 1.996 . S
Zn57 O65 1.943 . S
O58 Zn57 1.962 . S
O58 C63 1.254 . S
O59 Zn56 2.031 . S
O59 C63 1.269 . S
O60 Zn57 1.986 . S
O60 C67 1.262 . S
O61 Zn56 2.049 . S
O61 C69 1.260 . S
O62 Zn57 1.996 . S
O62 C69 1.257 . S
C63 O58 1.254 . S
C63 O59 1.269 . S
C64 O65 1.249 . S
C64 O66 1.270 . S
O65 Zn57 1.943 . S
O65 C64 1.249 . S
O66 Zn56 2.067 . S
O66 C64 1.270 . S
C67 O60 1.262 . S
C67 O68 1.232 . S
O68 C67 1.232 . S
C69 O61 1.260 . S
C69 O62 1.257 . S
Zn70 O73 2.031 . S
Zn70 O75 2.049 . S
Zn70 O80 2.067 . S
Zn71 O72 1.962 . S
Zn71 O74 1.986 . S
Zn71 O76 1.996 . S
Zn71 O79 1.943 . S
O72 Zn71 1.962 . S
O72 C77 1.254 . S
O73 Zn70 2.031 . S
O73 C77 1.269 . S
O74 Zn71 1.986 . S
O74 C81 1.262 . S
O75 Zn70 2.049 . S
O75 C83 1.260 . S
O76 Zn71 1.996 . S
O76 C83 1.257 . S
C77 O72 1.254 . S
C77 O73 1.269 . S
C78 O79 1.249 . S
C78 O80 1.270 . S
O79 Zn71 1.943 . S
O79 C78 1.249 . S
O80 Zn70 2.067 . S
O80 C78 1.270 . S
C81 O74 1.262 . S
C81 O82 1.232 . S
O82 C81 1.232 . S
C83 O75 1.260 . S
C83 O76 1.257 . S
Zn84 O87 2.031 . S
Zn84 O89 2.049 . S
Zn84 O94 2.067 . S
Zn85 O86 1.962 . S
Zn85 O88 1.986 . S
Zn85 O90 1.996 . S
Zn85 O93 1.943 . S
O86 Zn85 1.962 . S
O86 C91 1.254 . S
O87 Zn84 2.031 . S
O87 C91 1.269 . S
O88 Zn85 1.986 . S
O88 C95 1.262 . S
O89 Zn84 2.049 . S
O89 C97 1.260 . S
O90 Zn85 1.996 . S
O90 C97 1.257 . S
C91 O86 1.254 . S
C91 O87 1.269 . S
C92 O93 1.249 . S
C92 O94 1.270 . S
O93 Zn85 1.943 . S
O93 C92 1.249 . S
O94 Zn84 2.067 . S
O94 C92 1.270 . S
C95 O88 1.262 . S
C95 O96 1.232 . S
O96 C95 1.232 . S
C97 O89 1.260 . S
C97 O90 1.257 . S
Zn98 O101 2.031 1_655 S
Zn98 O103 2.049 . S
Zn98 O108 2.067 . S
Zn99 O100 1.962 . S
Zn99 O102 1.986 . S
Zn99 O104 1.996 . S
Zn99 O107 1.943 . S
O100 Zn99 1.962 . S
O100 C105 1.254 . S
O101 Zn98 2.031 1_455 S
O101 C105 1.269 . S
O102 Zn99 1.986 . S
O102 C109 1.262 . S
O103 Zn98 2.049 . S
O103 C111 1.260 1_655 S
O104 Zn99 1.996 . S
O104 C111 1.257 . S
C105 O100 1.254 . S
C105 O101 1.269 . S
C106 O107 1.249 1_655 S
C106 O108 1.270 . S
O107 Zn99 1.943 . S
O107 C106 1.249 1_455 S
O108 Zn98 2.067 . S
O108 C106 1.270 . S
C109 O102 1.262 . S
C109 O110 1.232 . S
O110 C109 1.232 . S
C111 O103 1.260 1_455 S
C111 O104 1.257 . S
Zn112 O115 2.031 . S
Zn112 O117 2.049 . S
Zn112 O122 2.067 1_545 S
Zn113 O114 1.962 . S
Zn113 O116 1.986 . S
Zn113 O118 1.996 . S
Zn113 O121 1.943 . S
O114 Zn113 1.962 . S
O114 C119 1.254 . S
O115 Zn112 2.031 . S
O115 C119 1.269 . S
O116 Zn113 1.986 . S
O116 C123 1.262 . S
O117 Zn112 2.049 . S
O117 C125 1.260 . S
O118 Zn113 1.996 . S
O118 C125 1.257 . S
C119 O114 1.254 . S
C119 O115 1.269 . S
C120 O121 1.249 1_565 S
C120 O122 1.270 . S
O121 Zn113 1.943 . S
O121 C120 1.249 1_545 S
O122 Zn112 2.067 1_565 S
O122 C120 1.270 . S
C123 O116 1.262 . S
C123 O124 1.232 . S
O124 C123 1.232 . S
C125 O117 1.260 . S
C125 O118 1.257 . S
Zn126 O129 2.031 . S
Zn126 O131 2.049 . S
Zn126 O136 2.067 . S
Zn127 O128 1.962 . S
Zn127 O130 1.986 . S
Zn127 O132 1.996 . S
Zn127 O135 1.943 . S
O128 Zn127 1.962 . S
O128 C133 1.254 . S
O129 Zn126 2.031 . S
O129 C133 1.269 . S
O130 Zn127 1.986 . S
O130 C137 1.262 . S
O131 Zn126 2.049 . S
O131 C139 1.260 . S
O132 Zn127 1.996 . S
O132 C139 1.257 . S
C133 O128 1.254 . S
C133 O129 1.269 . S
C134 O135 1.249 . S
C134 O136 1.270 . S
O135 Zn127 1.943 . S
O135 C134 1.249 . S
O136 Zn126 2.067 . S
O136 C134 1.270 . S
C137 O130 1.262 . S
C137 O138 1.232 . S
O138 C137 1.232 . S
C139 O131 1.260 . S
C139 O132 1.257 . S
Zn140 O143 2.031 . S
Zn140 O145 2.049 . S
Zn140 O150 2.067 . S
Zn141 O142 1.962 . S
Zn141 O144 1.986 . S
Zn141 O146 1.996 . S
Zn141 O149 1.943 1_565 S
O142 Zn141 1.962 . S
O142 C147 1.254 1_565 S
O143 Zn140 2.031 . S
O143 C147 1.269 . S
O144 Zn141 1.986 . S
O144 C151 1.262 . S
O145 Zn140 2.049 . S
O145 C153 1.260 1_545 S
O146 Zn141 1.996 . S
O146 C153 1.257 . S
C147 O142 1.254 1_545 S
C147 O143 1.269 . S
C148 O149 1.249 . S
C148 O150 1.270 . S
O149 Zn141 1.943 1_545 S
O149 C148 1.249 . S
O150 Zn140 2.067 . S
O150 C148 1.270 . S
C151 O144 1.262 . S
C151 O152 1.232 . S
O152 C151 1.232 . S
C153 O145 1.260 1_565 S
C153 O146 1.257 . S
Zn154 O157 2.031 1_554 S
Zn154 O159 2.049 . S
Zn154 O164 2.067 . S
Zn155 O156 1.962 1_554 S
Zn155 O158 1.986 . S
Zn155 O160 1.996 . S
Zn155 O163 1.943 . S
O156 Zn155 1.962 1_556 S
O156 C161 1.254 . S
O157 Zn154 2.031 1_556 S
O157 C161 1.269 . S
O158 Zn155 1.986 . S
O158 C165 1.262 . S
O159 Zn154 2.049 . S
O159 C167 1.260 . S
O160 Zn155 1.996 . S
O160 C167 1.257 . S
C161 O156 1.254 . S
C161 O157 1.269 . S
C162 O163 1.249 . S
C162 O164 1.270 . S
O163 Zn155 1.943 . S
O163 C162 1.249 . S
O164 Zn154 2.067 . S
O164 C162 1.270 . S
C165 O158 1.262 . S
C165 O166 1.232 . S
O166 C165 1.232 . S
C167 O159 1.260 . S
C167 O160 1.257 . S
Zn168 O171 2.031 . S
Zn168 O173 2.049 . S
Zn168 O178 2.067 . S
Zn169 O170 1.962 . S
Zn169 O172 1.986 . S
Zn169 O174 1.996 . S
Zn169 O177 1.943 . S
O170 Zn169 1.962 . S
O170 C175 1.254 . S
O171 Zn168 2.031 . S
O171 C175 1.269 . S
O172 Zn169 1.986 . S
O172 C179 1.262 . S
O173 Zn168 2.049 . S
O173 C181 1.260 . S
O174 Zn169 1.996 . S
O174 C181 1.257 . S
C175 O170 1.254 . S
C175 O171 1.269 . S
C176 O177 1.249 . S
C176 O178 1.270 . S
O177 Zn169 1.943 . S
O177 C176 1.249 . S
O178 Zn168 2.067 . S
O178 C176 1.270 . S
C179 O172 1.262 . S
C179 O180 1.232 . S
O180 C179 1.232 . S
C181 O173 1.260 . S
C181 O174 1.257 . S
Zn182 O185 2.031 . S
Zn182 O187 2.049 . S
Zn182 O192 2.067 . S
Zn183 O184 1.962 . S
Zn183 O186 1.986 . S
Zn183 O188 1.996 . S
Zn183 O191 1.943 . S
O184 Zn183 1.962 . S
O184 C189 1.254 1_554 S
O185 Zn182 2.031 . S
O185 C189 1.269 1_554 S
O186 Zn183 1.986 . S
O186 C193 1.262 . S
O187 Zn182 2.049 . S
O187 C195 1.260 . S
O188 Zn183 1.996 . S
O188 C195 1.257 . S
C189 O184 1.254 1_556 S
C189 O185 1.269 1_556 S
C190 O191 1.249 . S
C190 O192 1.270 . S
O191 Zn183 1.943 . S
O191 C190 1.249 . S
O192 Zn182 2.067 . S
O192 C190 1.270 . S
C193 O186 1.262 . S
C193 O194 1.232 . S
O194 C193 1.232 . S
C195 O187 1.260 . S
C195 O188 1.257 . S
Zn196 O199 2.031 . S
Zn196 O201 2.049 . S
Zn196 O206 2.067 . S
Zn197 O198 1.962 . S
Zn197 O200 1.986 . S
Zn197 O202 1.996 . S
Zn197 O205 1.943 . S
O198 Zn197 1.962 . S
O198 C203 1.254 . S
O199 Zn196 2.031 . S
O199 C203 1.269 . S
O200 Zn197 1.986 . S
O200 C207 1.262 . S
O201 Zn196 2.049 . S
O201 C209 1.260 . S
O202 Zn197 1.996 . S
O202 C209 1.257 . S
C203 O198 1.254 . S
C203 O199 1.269 . S
C204 O205 1.249 . S
C204 O206 1.270 . S
O205 Zn197 1.943 . S
O205 C204 1.249 . S
O206 Zn196 2.067 . S
O206 C204 1.270 . S
C207 O200 1.262 . S
C207 O208 1.232 . S
O208 C207 1.232 . S
C209 O201 1.260 . S
C209 O202 1.257 . S
Zn210 O213 2.031 . S
Zn210 O215 2.049 . S
Zn210 O220 2.067 . S
Zn211 O212 1.962 . S
Zn211 O214 1.986 . S
Zn211 O216 1.996 . S
Zn211 O219 1.943 . S
O212 Zn211 1.962 . S
O212 C217 1.254 . S
O213 Zn210 2.031 . S
O213 C217 1.269 . S
O214 Zn211 1.986 . S
O214 C221 1.262 . S
O215 Zn210 2.049 . S
O215 C223 1.260 . S
O216 Zn211 1.996 . S
O216 C223 1.257 . S
C217 O212 1.254 . S
C217 O213 1.269 . S
C218 O219 1.249 . S
C218 O220 1.270 . S
O219 Zn211 1.943 . S
O219 C218 1.249 . S
O220 Zn210 2.067 . S
O220 C218 1.270 . S
C221 O214 1.262 . S
C221 O222 1.232 . S
O222 C221 1.232 . S
C223 O215 1.260 . S
C223 O216 1.257 . S
Zn224 O227 2.031 . S
Zn224 O229 2.049 . S
Zn224 O234 2.067 . S
Zn225 O226 1.962 . S
Zn225 O228 1.986 . S
Zn225 O230 1.996 . S
Zn225 O233 1.943 . S
O226 Zn225 1.962 . S
O226 C231 1.254 . S
O227 Zn224 2.031 . S
O227 C231 1.269 . S
O228 Zn225 1.986 . S
O228 C235 1.262 . S
O229 Zn224 2.049 . S
O229 C237 1.260 . S
O230 Zn225 1.996 . S
O230 C237 1.257 . S
C231 O226 1.254 . S
C231 O227 1.269 . S
C232 O233 1.249 . S
C232 O234 1.270 . S
O233 Zn225 1.943 . S
O233 C232 1.249 . S
O234 Zn224 2.067 . S
O234 C232 1.270 . S
C235 O228 1.262 . S
C235 O236 1.232 . S
O236 C235 1.232 . S
C237 O229 1.260 . S
C237 O230 1.257 . S
Zn238 O241 2.031 . S
Zn238 O243 2.049 . S
Zn238 O248 2.067 . S
Zn239 O240 1.962 . S
Zn239 O242 1.986 . S
Zn239 O244 1.996 . S
Zn239 O247 1.943 . S
O240 Zn239 1.962 . S
O240 C245 1.254 . S
O241 Zn238 2.031 . S
O241 C245 1.269 . S
O242 Zn239 1.986 . S
O242 C249 1.262 . S
O243 Zn238 2.049 . S
O243 C251 1.260 . S
O244 Zn239 1.996 . S
O244 C251 1.257 . S
C245 O240 1.254 . S
C245 O241 1.269 . S
C246 O247 1.249 . S
C246 O248 1.270 . S
O247 Zn239 1.943 . S
O247 C246 1.249 . S
O248 Zn238 2.067 . S
O248 C246 1.270 . S
C249 O242 1.262 . S
C249 O250 1.232 . S
O250 C249 1.232 . S
C251 O243 1.260 . S
C251 O244 1.257 . S
Zn252 O255 2.031 . S
Zn252 O257 2.049 . S
Zn252 O262 2.067 . S
Zn253 O254 1.962 . S
Zn253 O256 1.986 . S
Zn253 O258 1.996 . S
Zn253 O261 1.943 . S
O254 Zn253 1.962 . S
O254 C259 1.254 . S
O255 Zn252 2.031 . S
O255 C259 1.269 . S
O256 Zn253 1.986 . S
O256 C263 1.262 . S
O257 Zn252 2.049 . S
O257 C265 1.260 . S
O258 Zn253 1.996 . S
O258 C265 1.257 . S
C259 O254 1.254 . S
C259 O255 1.269 . S
C260 O261 1.249 . S
C260 O262 1.270 . S
O261 Zn253 1.943 . S
O261 C260 1.249 . S
O262 Zn252 2.067 . S
O262 C260 1.270 . S
C263 O256 1.262 . S
C263 O264 1.232 . S
O264 C263 1.232 . S
C265 O257 1.260 . S
C265 O258 1.257 . S
Zn266 O269 2.031 . S
Zn266 O271 2.049 . S
Zn266 O276 2.067 . S
Zn267 O268 1.962 . S
Zn267 O270 1.986 . S
Zn267 O272 1.996 . S
Zn267 O275 1.943 . S
O268 Zn267 1.962 . S
O268 C273 1.254 . S
O269 Zn266 2.031 . S
O269 C273 1.269 . S
O270 Zn267 1.986 . S
O270 C277 1.262 . S
O271 Zn266 2.049 . S
O271 C279 1.260 . S
O272 Zn267 1.996 . S
O272 C279 1.257 . S
C273 O268 1.254 . S
C273 O269 1.269 . S
C274 O275 1.249 . S
C274 O276 1.270 . S
O275 Zn267 1.943 . S
O275 C274 1.249 . S
O276 Zn266 2.067 . S
O276 C274 1.270 . S
C277 O270 1.262 . S
C277 O278 1.232 . S
O278 C277 1.232 . S
C279 O271 1.260 . S
C279 O272 1.257 . S
Zn280 O283 2.031 1_554 S
Zn280 O285 2.049 . S
Zn280 O290 2.067 . S
Zn281 O282 1.989 . S
Zn281 O284 1.972 1_556 S
Zn281 O286 1.976 1_556 S
Zn281 O289 1.940 . S
O282 Zn281 1.989 . S
O282 C287 1.254 . S
O283 Zn280 2.031 1_556 S
O283 C287 1.269 . S
O284 Zn281 1.972 1_554 S
O284 C291 1.262 1_554 S
O285 Zn280 2.049 . S
O285 C293 1.260 . S
O286 Zn281 1.976 1_554 S
O286 C293 1.257 . S
C287 O282 1.254 . S
C287 O283 1.269 . S
C288 O289 1.249 . S
C288 O290 1.270 1_556 S
O289 Zn281 1.940 . S
O289 C288 1.249 . S
O290 Zn280 2.067 . S
O290 C288 1.270 1_554 S
C291 O284 1.262 1_556 S
C291 O292 1.232 . S
O292 C291 1.232 . S
C293 O285 1.260 . S
C293 O286 1.257 . S
Zn294 O297 2.031 . S
Zn294 O299 2.049 . S
Zn294 O304 2.067 . S
Zn295 O296 1.962 . S
Zn295 O298 1.986 . S
Zn295 O300 1.996 . S
Zn295 O303 1.943 . S
O296 Zn295 1.962 . S
O296 C301 1.254 . S
O297 Zn294 2.031 . S
O297 C301 1.269 . S
O298 Zn295 1.986 . S
O298 C305 1.262 . S
O299 Zn294 2.049 . S
O299 C307 1.260 . S
O300 Zn295 1.996 . S
O300 C307 1.257 . S
C301 O296 1.254 . S
C301 O297 1.269 . S
C302 O303 1.249 . S
C302 O304 1.270 . S
O303 Zn295 1.943 . S
O303 C302 1.249 . S
O304 Zn294 2.067 . S
O304 C302 1.270 . S
C305 O298 1.262 . S
C305 O306 1.232 . S
O306 C305 1.232 . S
C307 O299 1.260 . S
C307 O300 1.257 . S
Zn308 O311 2.031 . S
Zn308 O313 2.049 . S
Zn308 O318 2.067 . S
Zn309 O310 1.962 . S
Zn309 O312 1.986 . S
Zn309 O314 1.996 . S
Zn309 O317 1.943 . S
O310 Zn309 1.962 . S
O310 C315 1.254 . S
O311 Zn308 2.031 . S
O311 C315 1.269 . S
O312 Zn309 1.986 . S
O312 C319 1.262 . S
O313 Zn308 2.049 . S
O313 C321 1.260 . S
O314 Zn309 1.996 . S
O314 C321 1.257 . S
C315 O310 1.254 . S
C315 O311 1.269 . S
C316 O317 1.249 . S
C316 O318 1.270 . S
O317 Zn309 1.943 . S
O317 C316 1.249 . S
O318 Zn308 2.067 . S
O318 C316 1.270 . S
C319 O312 1.262 . S
C319 O320 1.232 . S
O320 C319 1.232 . S
C321 O313 1.260 . S
C321 O314 1.257 . S
Zn322 O325 2.031 . S
Zn322 O327 2.049 . S
Zn322 O332 2.067 . S
Zn323 O324 1.962 . S
Zn323 O326 1.986 . S
Zn323 O328 1.996 . S
Zn323 O331 1.943 . S
O324 Zn323 1.962 . S
O324 C329 1.254 . S
O325 Zn322 2.031 . S
O325 C329 1.269 . S
O326 Zn323 1.986 . S
O326 C333 1.262 . S
O327 Zn322 2.049 . S
O327 C335 1.260 . S
O328 Zn323 1.996 . S
O328 C335 1.257 . S
C329 O324 1.254 . S
C329 O325 1.269 . S
C330 O331 1.249 . S
C330 O332 1.270 . S
O331 Zn323 1.943 . S
O331 C330 1.249 . S
O332 Zn322 2.067 . S
O332 C330 1.270 . S
C333 O326 1.262 . S
C333 O334 1.232 . S
O334 C333 1.232 . S
C335 O327 1.260 . S
C335 O328 1.257 . S
Gd336 N367 2.661 . S
Gd336 N373 2.601 . S
Gd336 O380 2.545 . S
Gd336 O381 2.606 . S
Gd336 O383 2.429 . S
Gd336 O384 2.545 . S
Gd336 O385 2.412 . S
Gd336 O387 2.362 . S
Gd336 O388 2.324 . S
Gd336 C395 2.828 . S
Gd337 N346 2.627 1_545 S
Gd337 N350 2.601 1_544 S
Gd337 O381 2.362 . S
Gd337 O382 2.324 . S
Gd337 O386 2.565 1_554 S
Gd337 O387 2.606 . S
Gd337 O389 2.429 1_554 S
Gd337 O390 2.545 . S
Gd337 O391 2.412 1_455 S
Gd337 C404 2.821 1_454 S
C338 C341 1.417 1_655 S
C338 C343 1.431 . S
C338 C344 1.412 . S
C339 C342 1.437 . S
C339 C343 1.317 1_556 S
C339 H358 0.929 . S
C340 C341 1.426 1_556 S
C340 C342 1.413 1_455 S
C340 N350 1.359 . S
C341 C338 1.417 1_455 S
C341 C340 1.426 1_554 S
C341 N346 1.380 . S
C342 C339 1.437 . S
C342 C340 1.413 1_655 S
C342 C352 1.391 . S
C343 C338 1.431 . S
C343 C339 1.317 1_554 S
C343 H354 0.930 . S
C344 C338 1.412 . S
C344 C345 1.355 1_655 S
C344 H356 0.930 . S
C345 C344 1.355 1_455 S
C345 C347 1.408 . S
C345 H357 0.930 . S
N346 Gd337 2.627 1_565 S
N346 C341 1.380 . S
N346 C347 1.314 . S
C347 C345 1.408 . S
C347 N346 1.314 . S
C347 H348 0.925 1_565 S
H348 C347 0.925 1_545 S
C349 N350 1.334 . S
C349 C351 1.394 . S
C349 H353 0.930 1_565 S
N350 Gd337 2.601 1_566 S
N350 C340 1.359 . S
N350 C349 1.334 . S
C351 C349 1.394 . S
C351 C352 1.359 1_455 S
C351 H363 0.930 . S
C352 C342 1.391 . S
C352 C351 1.359 1_655 S
C352 H364 0.929 . S
H353 C349 0.930 1_545 S
H354 C343 0.930 . S
H355 C372 0.907 1_556 S
H356 C344 0.930 . S
H357 C345 0.930 . S
H358 C339 0.929 . S
H359 C377 0.930 . S
H360 C368 0.907 1_556 S
H361 C369 0.930 . S
H362 C393 0.929 . S
H363 C351 0.930 . S
H364 C352 0.929 . S
H365 C394 0.930 . S
H366 C375 0.930 . S
N367 Gd336 2.661 . S
N367 C371 1.350 . S
N367 C372 1.362 . S
C368 H360 0.907 1_554 S
C368 C369 1.355 1_554 S
C368 C370 1.412 . S
C369 H361 0.930 . S
C369 C368 1.355 1_556 S
C369 C372 1.371 1_556 S
C370 C368 1.412 . S
C370 C371 1.417 . S
C370 C394 1.431 . S
C371 N367 1.350 . S
C371 C370 1.417 . S
C371 C374 1.426 . S
C372 H355 0.907 1_554 S
C372 N367 1.362 . S
C372 C369 1.371 1_554 S
N373 Gd336 2.601 . S
N373 C374 1.359 . S
N373 C377 1.334 . S
C374 C371 1.426 . S
C374 N373 1.359 . S
C374 C378 1.413 . S
C375 H366 0.930 . S
C375 C376 1.359 . S
C375 C377 1.394 . S
C376 C375 1.359 . S
C376 C378 1.391 . S
C376 H379 0.929 . S
C377 H359 0.930 . S
C377 N373 1.334 . S
C377 C375 1.394 . S
C378 C374 1.413 . S
C378 C376 1.391 . S
C378 C393 1.437 . S
H379 C376 0.929 . S
O380 Gd336 2.545 . S
O380 C395 1.258 . S
O381 Gd336 2.606 . S
O381 Gd337 2.362 . S
O381 C392 1.284 . S
O382 Gd337 2.324 . S
O382 C402 1.254 . S
O383 Gd336 2.429 . S
O383 C402 1.268 . S
O384 Gd336 2.545 . S
O384 C392 1.250 . S
O385 Gd336 2.412 . S
O385 C395 1.252 . S
O386 Gd337 2.565 1_556 S
O386 C404 1.265 1_455 S
O387 Gd336 2.362 . S
O387 Gd337 2.606 . S
O387 C403 1.284 . S
O388 Gd336 2.324 . S
O388 C411 1.254 1_554 S
O389 Gd337 2.429 1_556 S
O389 C411 1.268 . S
O390 Gd337 2.545 . S
O390 C403 1.250 . S
O391 Gd337 2.412 1_655 S
O391 C404 1.222 1_554 S
C392 O381 1.284 . S
C392 O384 1.250 . S
C393 H362 0.929 . S
C393 C378 1.437 . S
C393 C394 1.317 . S
C394 H365 0.930 . S
C394 C370 1.431 . S
C394 C393 1.317 . S
C395 Gd336 2.828 . S
C395 O380 1.258 . S
C395 O385 1.252 . S
C395 C396 1.497 . S
C396 C395 1.497 . S
C396 C397 1.395 . S
C396 C398 1.380 . S
C397 C396 1.395 . S
C397 C400 1.398 . S
C397 H412 0.930 . S
C398 C396 1.380 . S
C398 C399 1.391 . S
C398 H413 0.930 . S
C399 C398 1.391 . S
C399 C401 1.387 . S
C400 C397 1.398 . S
C400 C401 1.380 . S
C400 H414 0.930 . S
C401 C399 1.387 . S
C401 C400 1.380 . S
C401 H415 0.930 . S
C402 O382 1.254 . S
C402 O383 1.268 . S
C403 O387 1.284 . S
C403 O390 1.250 . S
C404 Gd337 2.821 1_656 S
C404 O386 1.265 1_655 S
C404 O391 1.222 1_556 S
C404 C405 1.503 . S
C405 C404 1.503 . S
C405 C406 1.395 . S
C405 C407 1.380 1_556 S
C406 C405 1.395 . S
C406 C409 1.398 . S
C406 H416 0.930 . S
C407 C405 1.380 1_554 S
C407 C408 1.391 . S
C407 H417 0.930 . S
C408 C407 1.391 . S
C408 C410 1.387 1_554 S
C409 C406 1.398 . S
C409 C410 1.380 . S
C409 H418 0.930 . S
C410 C408 1.387 1_556 S
C410 C409 1.380 . S
C410 H419 0.930 . S
C411 O388 1.254 1_556 S
C411 O389 1.268 . S
H412 C397 0.930 . S
H413 C398 0.930 . S
H414 C400 0.930 . S
H415 C401 0.930 . S
H416 C406 0.930 . S
H417 C407 0.930 . S
H418 C409 0.930 . S
H419 C410 0.930 . S
Gd420 N451 2.661 . S
Gd420 N457 2.601 . S
Gd420 O464 2.545 . S
Gd420 O465 2.606 . S
Gd420 O467 2.429 . S
Gd420 O468 2.545 . S
Gd420 O469 2.412 . S
Gd420 O471 2.362 . S
Gd420 O472 2.324 . S
Gd420 C479 2.828 . S
Gd421 N430 2.661 . S
Gd421 N434 2.601 . S
Gd421 O465 2.362 . S
Gd421 O466 2.324 . S
Gd421 O470 2.545 . S
Gd421 O471 2.606 . S
Gd421 O473 2.429 . S
Gd421 O474 2.545 . S
Gd421 O475 2.412 . S
Gd421 C488 2.828 . S
C422 C425 1.417 . S
C422 C427 1.431 . S
C422 C428 1.412 . S
C423 C426 1.437 . S
C423 C427 1.317 . S
C423 H442 0.929 . S
C424 C425 1.426 . S
C424 C426 1.413 . S
C424 N434 1.359 . S
C425 C422 1.417 . S
C425 C424 1.426 . S
C425 N430 1.350 . S
C426 C423 1.437 . S
C426 C424 1.413 . S
C426 C436 1.391 . S
C427 C422 1.431 . S
C427 C423 1.317 . S
C427 H438 0.930 . S
C428 C422 1.412 . S
C428 C429 1.355 . S
C428 H440 0.930 . S
C429 C428 1.355 . S
C429 C431 1.402 . S
C429 H441 0.930 . S
N430 Gd421 2.661 . S
N430 C425 1.350 . S
N430 C431 1.307 . S
C431 C429 1.402 . S
C431 N430 1.307 . S
C431 H432 0.930 . S
H432 C431 0.930 . S
C433 N434 1.334 . S
C433 C435 1.394 . S
C433 H437 0.930 . S
N434 Gd421 2.601 . S
N434 C424 1.359 . S
N434 C433 1.334 . S
C435 C433 1.394 . S
C435 C436 1.359 . S
C435 H447 0.930 . S
C436 C426 1.391 . S
C436 C435 1.359 . S
C436 H448 0.929 . S
H437 C433 0.930 . S
H438 C427 0.930 . S
H439 C456 0.930 . S
H440 C428 0.930 . S
H441 C429 0.930 . S
H442 C423 0.929 . S
H443 C461 0.930 . S
H444 C452 0.930 . S
H445 C453 0.930 . S
H446 C477 0.929 . S
H447 C435 0.930 . S
H448 C436 0.929 . S
H449 C478 0.930 . S
H450 C459 0.930 . S
N451 Gd420 2.661 . S
N451 C455 1.350 . S
N451 C456 1.307 . S
C452 H444 0.930 . S
C452 C453 1.355 . S
C452 C454 1.412 . S
C453 H445 0.930 . S
C453 C452 1.355 . S
C453 C456 1.402 . S
C454 C452 1.412 . S
C454 C455 1.417 . S
C454 C478 1.431 . S
C455 N451 1.350 . S
C455 C454 1.417 . S
C455 C458 1.426 . S
C456 H439 0.930 . S
C456 N451 1.307 . S
C456 C453 1.402 . S
N457 Gd420 2.601 . S
N457 C458 1.359 . S
N457 C461 1.334 . S
C458 C455 1.426 . S
C458 N457 1.359 . S
C458 C462 1.413 . S
C459 H450 0.930 . S
C459 C460 1.359 . S
C459 C461 1.394 . S
C460 C459 1.359 . S
C460 C462 1.391 . S
C460 H463 0.929 . S
C461 H443 0.930 . S
C461 N457 1.334 . S
C461 C459 1.394 . S
C462 C458 1.413 . S
C462 C460 1.391 . S
C462 C477 1.437 . S
H463 C460 0.929 . S
O464 Gd420 2.545 . S
O464 C479 1.258 . S
O465 Gd420 2.606 . S
O465 Gd421 2.362 . S
O465 C476 1.284 . S
O466 Gd421 2.324 . S
O466 C486 1.254 . S
O467 Gd420 2.429 . S
O467 C486 1.268 . S
O468 Gd420 2.545 . S
O468 C476 1.250 . S
O469 Gd420 2.412 . S
O469 C479 1.252 . S
O470 Gd421 2.545 . S
O470 C488 1.258 . S
O471 Gd420 2.362 . S
O471 Gd421 2.606 . S
O471 C487 1.284 . S
O472 Gd420 2.324 . S
O472 C495 1.254 . S
O473 Gd421 2.429 . S
O473 C495 1.268 . S
O474 Gd421 2.545 . S
O474 C487 1.250 . S
O475 Gd421 2.412 . S
O475 C488 1.252 . S
C476 O465 1.284 . S
C476 O468 1.250 . S
C477 H446 0.929 . S
C477 C462 1.437 . S
C477 C478 1.317 . S
C478 H449 0.930 . S
C478 C454 1.431 . S
C478 C477 1.317 . S
C479 Gd420 2.828 . S
C479 O464 1.258 . S
C479 O469 1.252 . S
C479 C480 1.497 . S
C480 C479 1.497 . S
C480 C481 1.395 . S
C480 C482 1.380 . S
C481 C480 1.395 . S
C481 C484 1.398 . S
C481 H496 0.930 . S
C482 C480 1.380 . S
C482 C483 1.391 . S
C482 H497 0.930 . S
C483 C482 1.391 . S
C483 C485 1.387 . S
C484 C481 1.398 . S
C484 C485 1.380 . S
C484 H498 0.930 . S
C485 C483 1.387 . S
C485 C484 1.380 . S
C485 H499 0.930 . S
C486 O466 1.254 . S
C486 O467 1.268 . S
C487 O471 1.284 . S
C487 O474 1.250 . S
C488 Gd421 2.828 . S
C488 O470 1.258 . S
C488 O475 1.252 . S
C488 C489 1.497 . S
C489 C488 1.497 . S
C489 C490 1.395 . S
C489 C491 1.380 . S
C490 C489 1.395 . S
C490 C493 1.398 . S
C490 H500 0.930 . S
C491 C489 1.380 . S
C491 C492 1.391 . S
C491 H501 0.930 . S
C492 C491 1.391 . S
C492 C494 1.387 . S
C493 C490 1.398 . S
C493 C494 1.380 . S
C493 H502 0.930 . S
C494 C492 1.387 . S
C494 C493 1.380 . S
C494 H503 0.930 . S
C495 O472 1.254 . S
C495 O473 1.268 . S
H496 C481 0.930 . S
H497 C482 0.930 . S
H498 C484 0.930 . S
H499 C485 0.930 . S
H500 C490 0.930 . S
H501 C491 0.930 . S
H502 C493 0.930 . S
H503 C494 0.930 . S
Gd504 N535 2.661 1_545 S
Gd504 N541 2.601 . S
Gd504 O548 2.545 . S
Gd504 O549 2.606 . S
Gd504 O551 2.429 . S
Gd504 O552 2.545 . S
Gd504 O553 2.412 . S
Gd504 O555 2.362 . S
Gd504 O556 2.324 . S
Gd504 C563 2.828 . S
Gd505 N514 2.661 . S
Gd505 N518 2.601 . S
Gd505 O549 2.362 . S
Gd505 O550 2.324 . S
Gd505 O554 2.545 . S
Gd505 O555 2.606 . S
Gd505 O557 2.429 . S
Gd505 O558 2.545 1_545 S
Gd505 O559 2.412 . S
Gd505 C572 2.828 . S
C506 C509 1.417 . S
C506 C511 1.431 . S
C506 C512 1.412 . S
C507 C510 1.437 . S
C507 C511 1.317 . S
C507 H526 0.929 . S
C508 C509 1.426 . S
C508 C510 1.413 . S
C508 N518 1.359 . S
C509 C506 1.417 . S
C509 C508 1.426 . S
C509 N514 1.350 . S
C510 C507 1.437 . S
C510 C508 1.413 . S
C510 C520 1.391 . S
C511 C506 1.431 . S
C511 C507 1.317 . S
C511 H522 0.930 . S
C512 C506 1.412 . S
C512 C513 1.355 . S
C512 H524 0.930 . S
C513 C512 1.355 . S
C513 C515 1.402 . S
C513 H525 0.930 . S
N514 Gd505 2.661 . S
N514 C509 1.350 . S
N514 C515 1.307 . S
C515 C513 1.402 . S
C515 N514 1.307 . S
C515 H516 0.930 . S
H516 C515 0.930 . S
C517 N518 1.334 . S
C517 C519 1.394 . S
C517 H521 0.930 . S
N518 Gd505 2.601 . S
N518 C508 1.359 . S
N518 C517 1.334 . S
C519 C517 1.394 . S
C519 C520 1.359 . S
C519 H531 0.930 . S
C520 C510 1.391 . S
C520 C519 1.359 . S
C520 H532 0.929 . S
H521 C517 0.930 . S
H522 C511 0.930 . S
H523 C540 0.903 1_545 S
H524 C512 0.930 . S
H525 C513 0.930 . S
H526 C507 0.929 . S
H527 C545 0.930 . S
H528 C536 0.930 . S
H529 C537 0.930 . S
H530 C561 0.929 . S
H531 C519 0.930 . S
H532 C520 0.929 . S
H533 C562 0.930 . S
H534 C543 0.930 . S
N535 Gd504 2.661 1_565 S
N535 C539 1.350 . S
N535 C540 1.307 . S
C536 H528 0.930 . S
C536 C537 1.355 . S
C536 C538 1.412 . S
C537 H529 0.930 . S
C537 C536 1.355 . S
C537 C540 1.402 . S
C538 C536 1.412 . S
C538 C539 1.417 . S
C538 C562 1.431 . S
C539 N535 1.350 . S
C539 C538 1.417 . S
C539 C542 1.426 . S
C540 H523 0.903 1_565 S
C540 N535 1.307 . S
C540 C537 1.402 . S
N541 Gd504 2.601 . S
N541 C542 1.359 1_545 S
N541 C545 1.334 . S
C542 C539 1.426 . S
C542 N541 1.359 1_565 S
C542 C546 1.413 . S
C543 H534 0.930 . S
C543 C544 1.359 1_545 S
C543 C545 1.394 . S
C544 C543 1.359 1_565 S
C544 C546 1.391 . S
C544 H547 0.929 . S
C545 H527 0.930 . S
C545 N541 1.334 . S
C545 C543 1.394 . S
C546 C542 1.413 . S
C546 C544 1.391 . S
C546 C561 1.437 . S
H547 C544 0.929 . S
O548 Gd504 2.545 . S
O548 C563 1.258 . S
O549 Gd504 2.606 . S
O549 Gd505 2.362 . S
O549 C560 1.284 . S
O550 Gd505 2.324 . S
O550 C570 1.254 . S
O551 Gd504 2.429 . S
O551 C570 1.268 . S
O552 Gd504 2.545 . S
O552 C560 1.250 . S
O553 Gd504 2.412 . S
O553 C563 1.252 . S
O554 Gd505 2.545 . S
O554 C572 1.258 . S
O555 Gd504 2.362 . S
O555 Gd505 2.606 . S
O555 C571 1.284 1_545 S
O556 Gd504 2.324 . S
O556 C579 1.254 . S
O557 Gd505 2.429 . S
O557 C579 1.268 . S
O558 Gd505 2.545 1_565 S
O558 C571 1.250 . S
O559 Gd505 2.412 . S
O559 C572 1.252 . S
C560 O549 1.284 . S
C560 O552 1.250 . S
C561 H530 0.929 . S
C561 C546 1.437 . S
C561 C562 1.317 . S
C562 H533 0.930 . S
C562 C538 1.431 . S
C562 C561 1.317 . S
C563 Gd504 2.828 . S
C563 O548 1.258 . S
C563 O553 1.252 . S
C563 C564 1.497 . S
C564 C563 1.497 . S
C564 C565 1.395 . S
C564 C566 1.380 . S
C565 C564 1.395 . S
C565 C568 1.398 . S
C565 H580 0.930 . S
C566 C564 1.380 . S
C566 C567 1.391 . S
C566 H581 0.930 . S
C567 C566 1.391 . S
C567 C569 1.387 . S
C568 C565 1.398 . S
C568 C569 1.380 . S
C568 H582 0.930 . S
C569 C567 1.387 . S
C569 C568 1.380 . S
C569 H583 0.930 . S
C570 O550 1.254 . S
C570 O551 1.268 . S
C571 O555 1.284 1_565 S
C571 O558 1.250 . S
C572 Gd505 2.828 . S
C572 O554 1.258 . S
C572 O559 1.252 . S
C572 C573 1.497 . S
C573 C572 1.497 . S
C573 C574 1.395 . S
C573 C575 1.380 . S
C574 C573 1.395 . S
C574 C577 1.398 . S
C574 H584 0.930 . S
C575 C573 1.380 . S
C575 C576 1.391 1_545 S
C575 H585 0.930 . S
C576 C575 1.391 1_565 S
C576 C578 1.387 . S
C577 C574 1.398 . S
C577 C578 1.380 1_545 S
C577 H586 0.930 . S
C578 C576 1.387 . S
C578 C577 1.380 1_565 S
C578 H587 0.930 . S
C579 O556 1.254 . S
C579 O557 1.268 . S
H580 C565 0.930 . S
H581 C566 0.930 . S
H582 C568 0.930 . S
H583 C569 0.930 . S
H584 C574 0.930 . S
H585 C575 0.930 . S
H586 C577 0.930 . S
H587 C578 0.930 . S
Gd588 N619 2.661 . S
Gd588 N625 2.601 . S
Gd588 O632 2.545 . S
Gd588 O633 2.606 . S
Gd588 O635 2.429 . S
Gd588 O636 2.545 . S
Gd588 O637 2.412 . S
Gd588 O639 2.362 . S
Gd588 O640 2.324 . S
Gd588 C647 2.828 . S
Gd589 N598 2.661 . S
Gd589 N602 2.601 . S
Gd589 O633 2.362 . S
Gd589 O634 2.324 . S
Gd589 O638 2.545 . S
Gd589 O639 2.606 . S
Gd589 O641 2.429 . S
Gd589 O642 2.545 . S
Gd589 O643 2.412 . S
Gd589 C656 2.828 . S
C590 C593 1.417 . S
C590 C595 1.431 . S
C590 C596 1.412 . S
C591 C594 1.437 . S
C591 C595 1.317 . S
C591 H610 0.929 . S
C592 C593 1.426 . S
C592 C594 1.413 . S
C592 N602 1.359 . S
C593 C590 1.417 . S
C593 C592 1.426 . S
C593 N598 1.350 . S
C594 C591 1.437 . S
C594 C592 1.413 . S
C594 C604 1.391 . S
C595 C590 1.431 . S
C595 C591 1.317 . S
C595 H606 0.930 . S
C596 C590 1.412 . S
C596 C597 1.355 . S
C596 H608 0.930 . S
C597 C596 1.355 . S
C597 C599 1.402 . S
C597 H609 0.930 . S
N598 Gd589 2.661 . S
N598 C593 1.350 . S
N598 C599 1.307 . S
C599 C597 1.402 . S
C599 N598 1.307 . S
C599 H600 0.930 . S
H600 C599 0.930 . S
C601 N602 1.334 . S
C601 C603 1.394 . S
C601 H605 0.930 . S
N602 Gd589 2.601 . S
N602 C592 1.359 . S
N602 C601 1.334 . S
C603 C601 1.394 . S
C603 C604 1.359 . S
C603 H615 0.930 . S
C604 C594 1.391 . S
C604 C603 1.359 . S
C604 H616 0.929 . S
H605 C601 0.930 . S
H606 C595 0.930 . S
H607 C624 0.930 . S
H608 C596 0.930 . S
H609 C597 0.930 . S
H610 C591 0.929 . S
H611 C629 0.930 . S
H612 C620 0.930 . S
H613 C621 0.930 . S
H614 C645 0.929 . S
H615 C603 0.930 . S
H616 C604 0.929 . S
H617 C646 0.930 . S
H618 C627 0.930 . S
N619 Gd588 2.661 . S
N619 C623 1.350 . S
N619 C624 1.307 . S
C620 H612 0.930 . S
C620 C621 1.355 . S
C620 C622 1.412 . S
C621 H613 0.930 . S
C621 C620 1.355 . S
C621 C624 1.402 . S
C622 C620 1.412 . S
C622 C623 1.417 . S
C622 C646 1.431 . S
C623 N619 1.350 . S
C623 C622 1.417 . S
C623 C626 1.426 . S
C624 H607 0.930 . S
C624 N619 1.307 . S
C624 C621 1.402 . S
N625 Gd588 2.601 . S
N625 C626 1.359 . S
N625 C629 1.334 . S
C626 C623 1.426 . S
C626 N625 1.359 . S
C626 C630 1.413 . S
C627 H618 0.930 . S
C627 C628 1.359 . S
C627 C629 1.394 . S
C628 C627 1.359 . S
C628 C630 1.391 . S
C628 H631 0.929 . S
C629 H611 0.930 . S
C629 N625 1.334 . S
C629 C627 1.394 . S
C630 C626 1.413 . S
C630 C628 1.391 . S
C630 C645 1.437 . S
H631 C628 0.929 . S
O632 Gd588 2.545 . S
O632 C647 1.258 . S
O633 Gd588 2.606 . S
O633 Gd589 2.362 . S
O633 C644 1.284 . S
O634 Gd589 2.324 . S
O634 C654 1.254 . S
O635 Gd588 2.429 . S
O635 C654 1.268 . S
O636 Gd588 2.545 . S
O636 C644 1.250 . S
O637 Gd588 2.412 . S
O637 C647 1.252 . S
O638 Gd589 2.545 . S
O638 C656 1.258 . S
O639 Gd588 2.362 . S
O639 Gd589 2.606 . S
O639 C655 1.284 . S
O640 Gd588 2.324 . S
O640 C663 1.254 . S
O641 Gd589 2.429 . S
O641 C663 1.268 . S
O642 Gd589 2.545 . S
O642 C655 1.250 . S
O643 Gd589 2.412 . S
O643 C656 1.252 . S
C644 O633 1.284 . S
C644 O636 1.250 . S
C645 H614 0.929 . S
C645 C630 1.437 . S
C645 C646 1.317 . S
C646 H617 0.930 . S
C646 C622 1.431 . S
C646 C645 1.317 . S
C647 Gd588 2.828 . S
C647 O632 1.258 . S
C647 O637 1.252 . S
C647 C648 1.497 . S
C648 C647 1.497 . S
C648 C649 1.395 . S
C648 C650 1.380 . S
C649 C648 1.395 . S
C649 C652 1.398 . S
C649 H664 0.930 . S
C650 C648 1.380 . S
C650 C651 1.391 . S
C650 H665 0.930 . S
C651 C650 1.391 . S
C651 C653 1.387 . S
C652 C649 1.398 . S
C652 C653 1.380 . S
C652 H666 0.930 . S
C653 C651 1.387 . S
C653 C652 1.380 . S
C653 H667 0.930 . S
C654 O634 1.254 . S
C654 O635 1.268 . S
C655 O639 1.284 . S
C655 O642 1.250 . S
C656 Gd589 2.828 . S
C656 O638 1.258 . S
C656 O643 1.252 . S
C656 C657 1.497 . S
C657 C656 1.497 . S
C657 C658 1.395 . S
C657 C659 1.380 . S
C658 C657 1.395 . S
C658 C661 1.398 . S
C658 H668 0.930 . S
C659 C657 1.380 . S
C659 C660 1.391 . S
C659 H669 0.930 . S
C660 C659 1.391 . S
C660 C662 1.387 . S
C661 C658 1.398 . S
C661 C662 1.380 . S
C661 H670 0.930 . S
C662 C660 1.387 . S
C662 C661 1.380 . S
C662 H671 0.930 . S
C663 O640 1.254 . S
C663 O641 1.268 . S
H664 C649 0.930 . S
H665 C650 0.930 . S
H666 C652 0.930 . S
H667 C653 0.930 . S
H668 C658 0.930 . S
H669 C659 0.930 . S
H670 C661 0.930 . S
H671 C662 0.930 . S
Gd672 N703 2.661 1_545 S
Gd672 N709 2.588 1_545 S
Gd672 O716 2.545 1_545 S
Gd672 O717 2.606 . S
Gd672 O719 2.429 . S
Gd672 O720 2.545 . S
Gd672 O721 2.412 1_545 S
Gd672 O723 2.362 . S
Gd672 O724 2.324 . S
Gd672 C731 2.828 1_545 S
Gd673 N682 2.661 . S
Gd673 N686 2.601 . S
Gd673 O717 2.362 . S
Gd673 O718 2.324 . S
Gd673 O722 2.545 . S
Gd673 O723 2.606 . S
Gd673 O725 2.429 . S
Gd673 O726 2.545 . S
Gd673 O727 2.412 . S
Gd673 C740 2.828 . S
C674 C677 1.417 . S
C674 C679 1.431 . S
C674 C680 1.412 . S
C675 C678 1.437 . S
C675 C679 1.317 . S
C675 H694 0.929 . S
C676 C677 1.426 . S
C676 C678 1.413 . S
C676 N686 1.359 . S
C677 C674 1.417 . S
C677 C676 1.426 . S
C677 N682 1.350 . S
C678 C675 1.437 . S
C678 C676 1.413 . S
C678 C688 1.391 . S
C679 C674 1.431 . S
C679 C675 1.317 . S
C679 H690 0.930 . S
C680 C674 1.412 . S
C680 C681 1.355 . S
C680 H692 0.930 . S
C681 C680 1.355 . S
C681 C683 1.402 . S
C681 H693 0.930 . S
N682 Gd673 2.661 . S
N682 C677 1.350 . S
N682 C683 1.307 . S
C683 C681 1.402 . S
C683 N682 1.307 . S
C683 H684 0.930 . S
H684 C683 0.930 . S
C685 N686 1.334 . S
C685 C687 1.394 . S
C685 H689 0.930 . S
N686 Gd673 2.601 . S
N686 C676 1.359 . S
N686 C685 1.334 . S
C687 C685 1.394 . S
C687 C688 1.359 . S
C687 H699 0.930 1_455 S
C688 C678 1.391 . S
C688 C687 1.359 . S
C688 H700 0.929 . S
H689 C685 0.930 . S
H690 C679 0.930 . S
H691 C708 0.930 . S
H692 C680 0.930 . S
H693 C681 0.930 . S
H694 C675 0.929 . S
H695 C713 0.930 . S
H696 C704 0.930 . S
H697 C705 0.930 1_655 S
H698 C729 0.929 . S
H699 C687 0.930 1_655 S
H700 C688 0.929 . S
H701 C730 0.930 . S
H702 C711 0.930 . S
N703 Gd672 2.661 1_565 S
N703 C707 1.350 . S
N703 C708 1.307 . S
C704 H696 0.930 . S
C704 C705 1.355 . S
C704 C706 1.412 . S
C705 H697 0.930 1_455 S
C705 C704 1.355 . S
C705 C708 1.402 . S
C706 C704 1.412 . S
C706 C707 1.417 . S
C706 C730 1.431 . S
C707 N703 1.350 . S
C707 C706 1.417 . S
C707 C710 1.426 . S
C708 H691 0.930 . S
C708 N703 1.307 . S
C708 C705 1.402 . S
N709 Gd672 2.588 1_565 S
N709 C710 1.372 . S
N709 C713 1.343 1_565 S
C710 C707 1.426 . S
C710 N709 1.372 . S
C710 C714 1.413 . S
C711 H702 0.930 . S
C711 C712 1.359 . S
C711 C713 1.394 1_565 S
C712 C711 1.359 . S
C712 C714 1.391 . S
C712 H715 0.929 . S
C713 H695 0.930 . S
C713 N709 1.343 1_545 S
C713 C711 1.394 1_545 S
C714 C710 1.413 . S
C714 C712 1.391 . S
C714 C729 1.437 . S
H715 C712 0.929 . S
O716 Gd672 2.545 1_565 S
O716 C731 1.258 . S
O717 Gd672 2.606 . S
O717 Gd673 2.362 . S
O717 C728 1.284 . S
O718 Gd673 2.324 . S
O718 C738 1.254 . S
O719 Gd672 2.429 . S
O719 C738 1.268 . S
O720 Gd672 2.545 . S
O720 C728 1.250 . S
O721 Gd672 2.412 1_565 S
O721 C731 1.252 . S
O722 Gd673 2.545 . S
O722 C740 1.258 . S
O723 Gd672 2.362 . S
O723 Gd673 2.606 . S
O723 C739 1.284 . S
O724 Gd672 2.324 . S
O724 C747 1.254 . S
O725 Gd673 2.429 . S
O725 C747 1.268 . S
O726 Gd673 2.545 . S
O726 C739 1.250 . S
O727 Gd673 2.412 . S
O727 C740 1.252 . S
C728 O717 1.284 . S
C728 O720 1.250 . S
C729 H698 0.929 . S
C729 C714 1.437 . S
C729 C730 1.317 . S
C730 H701 0.930 . S
C730 C706 1.431 . S
C730 C729 1.317 . S
C731 Gd672 2.828 1_565 S
C731 O716 1.258 . S
C731 O721 1.252 . S
C731 C732 1.497 . S
C732 C731 1.497 . S
C732 C733 1.395 . S
C732 C734 1.380 . S
C733 C732 1.395 . S
C733 C736 1.398 . S
C733 H748 0.930 . S
C734 C732 1.380 . S
C734 C735 1.391 . S
C734 H749 0.930 . S
C735 C734 1.391 . S
C735 C737 1.387 . S
C736 C733 1.398 . S
C736 C737 1.380 . S
C736 H750 0.930 . S
C737 C735 1.387 . S
C737 C736 1.380 . S
C737 H751 0.930 . S
C738 O718 1.254 . S
C738 O719 1.268 . S
C739 O723 1.284 . S
C739 O726 1.250 . S
C740 Gd673 2.828 . S
C740 O722 1.258 . S
C740 O727 1.252 . S
C740 C741 1.497 . S
C741 C740 1.497 . S
C741 C742 1.395 . S
C741 C743 1.380 . S
C742 C741 1.395 . S
C742 C745 1.398 . S
C742 H752 0.930 . S
C743 C741 1.380 . S
C743 C744 1.391 . S
C743 H753 0.930 . S
C744 C743 1.391 . S
C744 C746 1.387 . S
C745 C742 1.398 . S
C745 C746 1.380 . S
C745 H754 0.930 . S
C746 C744 1.387 . S
C746 C745 1.380 . S
C746 H755 0.930 . S
C747 O724 1.254 . S
C747 O725 1.268 . S
H748 C733 0.930 . S
H749 C734 0.930 . S
H750 C736 0.930 . S
H751 C737 0.930 . S
H752 C742 0.930 . S
H753 C743 0.930 . S
H754 C745 0.930 . S
H755 C746 0.930 . S
Gd756 N787 2.661 . S
Gd756 N793 2.601 . S
Gd756 O800 2.545 . S
Gd756 O801 2.606 . S
Gd756 O803 2.429 . S
Gd756 O804 2.545 . S
Gd756 O805 2.412 . S
Gd756 O807 2.362 . S
Gd756 O808 2.324 . S
Gd756 C815 2.828 . S
Gd757 N766 2.661 . S
Gd757 N770 2.601 . S
Gd757 O801 2.362 . S
Gd757 O802 2.324 . S
Gd757 O806 2.545 . S
Gd757 O807 2.606 . S
Gd757 O809 2.429 . S
Gd757 O810 2.545 . S
Gd757 O811 2.412 . S
Gd757 C824 2.828 . S
C758 C761 1.417 . S
C758 C763 1.431 . S
C758 C764 1.412 . S
C759 C762 1.437 . S
C759 C763 1.317 . S
C759 H778 0.929 . S
C760 C761 1.426 . S
C760 C762 1.413 . S
C760 N770 1.359 . S
C761 C758 1.417 . S
C761 C760 1.426 . S
C761 N766 1.350 . S
C762 C759 1.437 . S
C762 C760 1.413 . S
C762 C772 1.391 . S
C763 C758 1.431 . S
C763 C759 1.317 . S
C763 H774 0.930 . S
C764 C758 1.412 . S
C764 C765 1.355 . S
C764 H776 0.930 . S
C765 C764 1.355 . S
C765 C767 1.402 . S
C765 H777 0.930 . S
N766 Gd757 2.661 . S
N766 C761 1.350 . S
N766 C767 1.307 . S
C767 C765 1.402 . S
C767 N766 1.307 . S
C767 H768 0.930 . S
H768 C767 0.930 . S
C769 N770 1.334 . S
C769 C771 1.394 . S
C769 H773 0.930 . S
N770 Gd757 2.601 . S
N770 C760 1.359 . S
N770 C769 1.334 . S
C771 C769 1.394 . S
C771 C772 1.359 . S
C771 H783 0.930 . S
C772 C762 1.391 . S
C772 C771 1.359 . S
C772 H784 0.929 . S
H773 C769 0.930 . S
H774 C763 0.930 . S
H775 C792 0.930 . S
H776 C764 0.930 . S
H777 C765 0.930 . S
H778 C759 0.929 . S
H779 C797 0.930 . S
H780 C788 0.930 . S
H781 C789 0.930 . S
H782 C813 0.929 . S
H783 C771 0.930 . S
H784 C772 0.929 . S
H785 C814 0.930 . S
H786 C795 0.930 . S
N787 Gd756 2.661 . S
N787 C791 1.350 . S
N787 C792 1.307 . S
C788 H780 0.930 . S
C788 C789 1.355 . S
C788 C790 1.412 . S
C789 H781 0.930 . S
C789 C788 1.355 . S
C789 C792 1.402 . S
C790 C788 1.412 . S
C790 C791 1.417 . S
C790 C814 1.431 . S
C791 N787 1.350 . S
C791 C790 1.417 . S
C791 C794 1.426 . S
C792 H775 0.930 . S
C792 N787 1.307 . S
C792 C789 1.402 . S
N793 Gd756 2.601 . S
N793 C794 1.359 . S
N793 C797 1.334 . S
C794 C791 1.426 . S
C794 N793 1.359 . S
C794 C798 1.413 . S
C795 H786 0.930 . S
C795 C796 1.359 . S
C795 C797 1.394 . S
C796 C795 1.359 . S
C796 C798 1.391 . S
C796 H799 0.929 . S
C797 H779 0.930 . S
C797 N793 1.334 . S
C797 C795 1.394 . S
C798 C794 1.413 . S
C798 C796 1.391 . S
C798 C813 1.437 . S
H799 C796 0.929 . S
O800 Gd756 2.545 . S
O800 C815 1.258 . S
O801 Gd756 2.606 . S
O801 Gd757 2.362 . S
O801 C812 1.284 . S
O802 Gd757 2.324 . S
O802 C822 1.254 . S
O803 Gd756 2.429 . S
O803 C822 1.268 . S
O804 Gd756 2.545 . S
O804 C812 1.250 . S
O805 Gd756 2.412 . S
O805 C815 1.252 . S
O806 Gd757 2.545 . S
O806 C824 1.258 . S
O807 Gd756 2.362 . S
O807 Gd757 2.606 . S
O807 C823 1.284 . S
O808 Gd756 2.324 . S
O808 C831 1.254 . S
O809 Gd757 2.429 . S
O809 C831 1.268 . S
O810 Gd757 2.545 . S
O810 C823 1.250 . S
O811 Gd757 2.412 . S
O811 C824 1.252 . S
C812 O801 1.284 . S
C812 O804 1.250 . S
C813 H782 0.929 . S
C813 C798 1.437 . S
C813 C814 1.317 . S
C814 H785 0.930 . S
C814 C790 1.431 . S
C814 C813 1.317 . S
C815 Gd756 2.828 . S
C815 O800 1.258 . S
C815 O805 1.252 . S
C815 C816 1.497 . S
C816 C815 1.497 . S
C816 C817 1.395 . S
C816 C818 1.380 . S
C817 C816 1.395 . S
C817 C820 1.398 . S
C817 H832 0.930 . S
C818 C816 1.380 . S
C818 C819 1.391 . S
C818 H833 0.930 . S
C819 C818 1.391 . S
C819 C821 1.387 . S
C820 C817 1.398 . S
C820 C821 1.380 . S
C820 H834 0.930 . S
C821 C819 1.387 . S
C821 C820 1.380 . S
C821 H835 0.930 . S
C822 O802 1.254 . S
C822 O803 1.268 . S
C823 O807 1.284 . S
C823 O810 1.250 . S
C824 Gd757 2.828 . S
C824 O806 1.258 . S
C824 O811 1.252 . S
C824 C825 1.497 . S
C825 C824 1.497 . S
C825 C826 1.395 . S
C825 C827 1.380 . S
C826 C825 1.395 . S
C826 C829 1.398 . S
C826 H836 0.930 . S
C827 C825 1.380 . S
C827 C828 1.391 . S
C827 H837 0.930 . S
C828 C827 1.391 . S
C828 C830 1.387 . S
C829 C826 1.398 . S
C829 C830 1.380 . S
C829 H838 0.930 . S
C830 C828 1.387 . S
C830 C829 1.380 . S
C830 H839 0.930 . S
C831 O808 1.254 . S
C831 O809 1.268 . S
H832 C817 0.930 . S
H833 C818 0.930 . S
H834 C820 0.930 . S
H835 C821 0.930 . S
H836 C826 0.930 . S
H837 C827 0.930 . S
H838 C829 0.930 . S
H839 C830 0.930 . S
Gd840 N871 2.661 . S
Gd840 N877 2.601 . S
Gd840 O884 2.545 . S
Gd840 O885 2.606 1_556 S
Gd840 O887 2.429 1_556 S
Gd840 O888 2.545 . S
Gd840 O889 2.412 . S
Gd840 O891 2.362 1_556 S
Gd840 O892 2.324 . S
Gd840 C899 2.828 . S
Gd841 N850 2.661 . S
Gd841 N854 2.601 . S
Gd841 O885 2.362 . S
Gd841 O886 2.324 . S
Gd841 O890 2.545 . S
Gd841 O891 2.606 . S
Gd841 O893 2.429 . S
Gd841 O894 2.545 . S
Gd841 O895 2.412 . S
Gd841 C908 2.828 . S
C842 C845 1.417 . S
C842 C847 1.431 . S
C842 C848 1.412 . S
C843 C846 1.437 . S
C843 C847 1.317 . S
C843 H862 0.929 . S
C844 C845 1.426 . S
C844 C846 1.413 . S
C844 N854 1.359 . S
C845 C842 1.417 . S
C845 C844 1.426 . S
C845 N850 1.350 . S
C846 C843 1.437 . S
C846 C844 1.413 . S
C846 C856 1.391 . S
C847 C842 1.431 . S
C847 C843 1.317 . S
C847 H858 0.930 . S
C848 C842 1.412 . S
C848 C849 1.355 . S
C848 H860 0.930 . S
C849 C848 1.355 . S
C849 C851 1.402 . S
C849 H861 0.930 . S
N850 Gd841 2.661 . S
N850 C845 1.350 . S
N850 C851 1.307 . S
C851 C849 1.402 . S
C851 N850 1.307 . S
C851 H852 0.930 . S
H852 C851 0.930 . S
C853 N854 1.334 . S
C853 C855 1.394 1_545 S
C853 H857 0.930 1_545 S
N854 Gd841 2.601 . S
N854 C844 1.359 . S
N854 C853 1.334 . S
C855 C853 1.394 1_565 S
C855 C856 1.359 1_565 S
C855 H867 0.930 . S
C856 C846 1.391 . S
C856 C855 1.359 1_545 S
C856 H868 0.929 . S
H857 C853 0.930 1_565 S
H858 C847 0.930 . S
H859 C876 0.930 . S
H860 C848 0.930 . S
H861 C849 0.930 . S
H862 C843 0.929 . S
H863 C881 0.930 . S
H864 C872 0.930 . S
H865 C873 0.930 . S
H866 C897 0.929 . S
H867 C855 0.930 . S
H868 C856 0.929 . S
H869 C898 0.930 . S
H870 C879 0.930 . S
N871 Gd840 2.661 . S
N871 C875 1.350 . S
N871 C876 1.307 . S
C872 H864 0.930 . S
C872 C873 1.355 . S
C872 C874 1.412 1_565 S
C873 H865 0.930 . S
C873 C872 1.355 . S
C873 C876 1.402 1_565 S
C874 C872 1.412 1_545 S
C874 C875 1.417 . S
C874 C898 1.431 . S
C875 N871 1.350 . S
C875 C874 1.417 . S
C875 C878 1.426 . S
C876 H859 0.930 . S
C876 N871 1.307 . S
C876 C873 1.402 1_545 S
N877 Gd840 2.601 . S
N877 C878 1.359 . S
N877 C881 1.334 . S
C878 C875 1.426 . S
C878 N877 1.359 . S
C878 C882 1.413 . S
C879 H870 0.930 . S
C879 C880 1.359 . S
C879 C881 1.394 . S
C880 C879 1.359 . S
C880 C882 1.391 . S
C880 H883 0.929 . S
C881 H863 0.930 . S
C881 N877 1.334 . S
C881 C879 1.394 . S
C882 C878 1.413 . S
C882 C880 1.391 . S
C882 C897 1.437 . S
H883 C880 0.929 . S
O884 Gd840 2.545 . S
O884 C899 1.258 . S
O885 Gd840 2.606 1_554 S
O885 Gd841 2.362 . S
O885 C896 1.284 . S
O886 Gd841 2.324 . S
O886 C906 1.254 . S
O887 Gd840 2.429 1_554 S
O887 C906 1.268 . S
O888 Gd840 2.545 . S
O888 C896 1.250 1_556 S
O889 Gd840 2.412 . S
O889 C899 1.252 . S
O890 Gd841 2.545 . S
O890 C908 1.258 . S
O891 Gd840 2.362 1_554 S
O891 Gd841 2.606 . S
O891 C907 1.284 . S
O892 Gd840 2.324 . S
O892 C915 1.254 . S
O893 Gd841 2.429 . S
O893 C915 1.268 1_554 S
O894 Gd841 2.545 . S
O894 C907 1.250 . S
O895 Gd841 2.412 . S
O895 C908 1.252 . S
C896 O885 1.284 . S
C896 O888 1.250 1_554 S
C897 H866 0.929 . S
C897 C882 1.437 . S
C897 C898 1.317 . S
C898 H869 0.930 . S
C898 C874 1.431 . S
C898 C897 1.317 . S
C899 Gd840 2.828 . S
C899 O884 1.258 . S
C899 O889 1.252 . S
C899 C900 1.497 . S
C900 C899 1.497 . S
C900 C901 1.395 . S
C900 C902 1.380 . S
C901 C900 1.395 . S
C901 C904 1.398 . S
C901 H916 0.930 . S
C902 C900 1.380 . S
C902 C903 1.391 . S
C902 H917 0.930 . S
C903 C902 1.391 . S
C903 C905 1.387 . S
C904 C901 1.398 . S
C904 C905 1.380 . S
C904 H918 0.930 . S
C905 C903 1.387 . S
C905 C904 1.380 . S
C905 H919 0.930 . S
C906 O886 1.254 . S
C906 O887 1.268 . S
C907 O891 1.284 . S
C907 O894 1.250 . S
C908 Gd841 2.828 . S
C908 O890 1.258 . S
C908 O895 1.252 . S
C908 C909 1.497 . S
C909 C908 1.497 . S
C909 C910 1.395 . S
C909 C911 1.380 . S
C910 C909 1.395 . S
C910 C913 1.398 . S
C910 H920 0.930 1_545 S
C911 C909 1.380 . S
C911 C912 1.391 . S
C911 H921 0.930 . S
C912 C911 1.391 . S
C912 C914 1.387 . S
C913 C910 1.398 . S
C913 C914 1.380 . S
C913 H922 0.930 1_545 S
C914 C912 1.387 . S
C914 C913 1.380 . S
C914 H923 0.930 . S
C915 O892 1.254 . S
C915 O893 1.268 1_556 S
H916 C901 0.930 . S
H917 C902 0.930 . S
H918 C904 0.930 . S
H919 C905 0.930 . S
H920 C910 0.930 1_565 S
H921 C911 0.930 . S
H922 C913 0.930 1_565 S
H923 C914 0.930 . S
Gd924 N955 2.661 . S
Gd924 N961 2.601 . S
Gd924 O968 2.545 . S
Gd924 O969 2.606 . S
Gd924 O971 2.429 . S
Gd924 O972 2.545 . S
Gd924 O973 2.412 . S
Gd924 O975 2.362 . S
Gd924 O976 2.324 . S
Gd924 C983 2.828 . S
Gd925 N934 2.661 . S
Gd925 N938 2.601 . S
Gd925 O969 2.362 . S
Gd925 O970 2.324 . S
Gd925 O974 2.545 . S
Gd925 O975 2.606 . S
Gd925 O977 2.429 . S
Gd925 O978 2.545 . S
Gd925 O979 2.412 . S
Gd925 C992 2.828 . S
C926 C929 1.417 . S
C926 C931 1.431 . S
C926 C932 1.412 . S
C927 C930 1.437 . S
C927 C931 1.317 . S
C927 H946 0.929 . S
C928 C929 1.426 . S
C928 C930 1.413 . S
C928 N938 1.359 . S
C929 C926 1.417 . S
C929 C928 1.426 . S
C929 N934 1.350 . S
C930 C927 1.437 . S
C930 C928 1.413 . S
C930 C940 1.391 . S
C931 C926 1.431 . S
C931 C927 1.317 . S
C931 H942 0.930 . S
C932 C926 1.412 . S
C932 C933 1.355 . S
C932 H944 0.930 . S
C933 C932 1.355 . S
C933 C935 1.402 . S
C933 H945 0.930 . S
N934 Gd925 2.661 . S
N934 C929 1.350 . S
N934 C935 1.307 . S
C935 C933 1.402 . S
C935 N934 1.307 . S
C935 H936 0.930 . S
H936 C935 0.930 . S
C937 N938 1.334 . S
C937 C939 1.394 . S
C937 H941 0.930 . S
N938 Gd925 2.601 . S
N938 C928 1.359 . S
N938 C937 1.334 . S
C939 C937 1.394 . S
C939 C940 1.359 . S
C939 H951 0.930 . S
C940 C930 1.391 . S
C940 C939 1.359 . S
C940 H952 0.929 . S
H941 C937 0.930 . S
H942 C931 0.930 . S
H943 C960 0.930 . S
H944 C932 0.930 . S
H945 C933 0.930 . S
H946 C927 0.929 . S
H947 C965 0.930 . S
H948 C956 0.930 . S
H949 C957 0.930 . S
H950 C981 0.929 . S
H951 C939 0.930 . S
H952 C940 0.929 . S
H953 C982 0.930 . S
H954 C963 0.930 . S
N955 Gd924 2.661 . S
N955 C959 1.350 . S
N955 C960 1.307 . S
C956 H948 0.930 . S
C956 C957 1.355 . S
C956 C958 1.412 . S
C957 H949 0.930 . S
C957 C956 1.355 . S
C957 C960 1.402 . S
C958 C956 1.412 . S
C958 C959 1.417 . S
C958 C982 1.431 . S
C959 N955 1.350 . S
C959 C958 1.417 . S
C959 C962 1.426 . S
C960 H943 0.930 . S
C960 N955 1.307 . S
C960 C957 1.402 . S
N961 Gd924 2.601 . S
N961 C962 1.359 . S
N961 C965 1.334 . S
C962 C959 1.426 . S
C962 N961 1.359 . S
C962 C966 1.413 . S
C963 H954 0.930 . S
C963 C964 1.359 . S
C963 C965 1.394 . S
C964 C963 1.359 . S
C964 C966 1.391 . S
C964 H967 0.929 . S
C965 H947 0.930 . S
C965 N961 1.334 . S
C965 C963 1.394 . S
C966 C962 1.413 . S
C966 C964 1.391 . S
C966 C981 1.437 . S
H967 C964 0.929 . S
O968 Gd924 2.545 . S
O968 C983 1.258 . S
O969 Gd924 2.606 . S
O969 Gd925 2.362 . S
O969 C980 1.284 . S
O970 Gd925 2.324 . S
O970 C990 1.254 . S
O971 Gd924 2.429 . S
O971 C990 1.268 . S
O972 Gd924 2.545 . S
O972 C980 1.250 . S
O973 Gd924 2.412 . S
O973 C983 1.252 . S
O974 Gd925 2.545 . S
O974 C992 1.258 . S
O975 Gd924 2.362 . S
O975 Gd925 2.606 . S
O975 C991 1.284 . S
O976 Gd924 2.324 . S
O976 C999 1.254 . S
O977 Gd925 2.429 . S
O977 C999 1.268 . S
O978 Gd925 2.545 . S
O978 C991 1.250 . S
O979 Gd925 2.412 . S
O979 C992 1.252 . S
C980 O969 1.284 . S
C980 O972 1.250 . S
C981 H950 0.929 . S
C981 C966 1.437 . S
C981 C982 1.317 . S
C982 H953 0.930 . S
C982 C958 1.431 . S
C982 C981 1.317 . S
C983 Gd924 2.828 . S
C983 O968 1.258 . S
C983 O973 1.252 . S
C983 C984 1.497 . S
C984 C983 1.497 . S
C984 C985 1.395 . S
C984 C986 1.380 . S
C985 C984 1.395 . S
C985 C988 1.398 . S
C985 H1000 0.930 . S
C986 C984 1.380 . S
C986 C987 1.391 . S
C986 H1001 0.930 . S
C987 C986 1.391 . S
C987 C989 1.387 . S
C988 C985 1.398 . S
C988 C989 1.380 . S
C988 H1002 0.930 . S
C989 C987 1.387 . S
C989 C988 1.380 . S
C989 H1003 0.930 . S
C990 O970 1.254 . S
C990 O971 1.268 . S
C991 O975 1.284 . S
C991 O978 1.250 . S
C992 Gd925 2.828 . S
C992 O974 1.258 . S
C992 O979 1.252 . S
C992 C993 1.497 . S
C993 C992 1.497 . S
C993 C994 1.395 . S
C993 C995 1.380 . S
C994 C993 1.395 . S
C994 C997 1.398 . S
C994 H1004 0.930 . S
C995 C993 1.380 . S
C995 C996 1.391 . S
C995 H1005 0.930 . S
C996 C995 1.391 . S
C996 C998 1.387 . S
C997 C994 1.398 . S
C997 C998 1.380 . S
C997 H1006 0.930 . S
C998 C996 1.387 . S
C998 C997 1.380 . S
C998 H1007 0.930 . S
C999 O976 1.254 . S
C999 O977 1.268 . S
H1000 C985 0.930 . S
H1001 C986 0.930 . S
H1002 C988 0.930 . S
H1003 C989 0.930 . S
H1004 C994 0.930 . S
H1005 C995 0.930 . S
H1006 C997 0.930 . S
H1007 C998 0.930 . S
Gd1008 N1039 2.661 1_554 S
Gd1008 N1045 2.601 1_554 S
Gd1008 O1052 2.545 . S
Gd1008 O1053 2.606 . S
Gd1008 O1055 2.429 . S
Gd1008 O1056 2.545 . S
Gd1008 O1057 2.412 . S
Gd1008 O1059 2.362 1_554 S
Gd1008 O1060 2.324 . S
Gd1008 C1067 2.828 . S
Gd1009 N1018 2.661 . S
Gd1009 N1022 2.601 . S
Gd1009 O1053 2.362 . S
Gd1009 O1054 2.324 . S
Gd1009 O1058 2.545 . S
Gd1009 O1059 2.606 1_554 S
Gd1009 O1061 2.429 . S
Gd1009 O1062 2.545 1_554 S
Gd1009 O1063 2.412 . S
Gd1009 C1076 2.828 . S
C1010 C1013 1.417 . S
C1010 C1015 1.431 . S
C1010 C1016 1.412 . S
C1011 C1014 1.437 . S
C1011 C1015 1.317 . S
C1011 H1030 0.929 . S
C1012 C1013 1.426 . S
C1012 C1014 1.413 . S
C1012 N1022 1.359 . S
C1013 C1010 1.417 . S
C1013 C1012 1.426 . S
C1013 N1018 1.350 . S
C1014 C1011 1.437 . S
C1014 C1012 1.413 . S
C1014 C1024 1.391 . S
C1015 C1010 1.431 . S
C1015 C1011 1.317 . S
C1015 H1026 0.930 . S
C1016 C1010 1.412 . S
C1016 C1017 1.355 . S
C1016 H1028 0.930 . S
C1017 C1016 1.355 . S
C1017 C1019 1.402 . S
C1017 H1029 0.930 . S
N1018 Gd1009 2.661 . S
N1018 C1013 1.350 . S
N1018 C1019 1.307 . S
C1019 C1017 1.402 . S
C1019 N1018 1.307 . S
C1019 H1020 0.930 . S
H1020 C1019 0.930 . S
C1021 N1022 1.334 . S
C1021 C1023 1.394 . S
C1021 H1025 0.930 . S
N1022 Gd1009 2.601 . S
N1022 C1012 1.359 . S
N1022 C1021 1.334 . S
C1023 C1021 1.394 . S
C1023 C1024 1.359 . S
C1023 H1035 0.930 . S
C1024 C1014 1.391 . S
C1024 C1023 1.359 . S
C1024 H1036 0.929 . S
H1025 C1021 0.930 . S
H1026 C1015 0.930 . S
H1027 C1044 0.930 . S
H1028 C1016 0.930 . S
H1029 C1017 0.930 . S
H1030 C1011 0.929 . S
H1031 C1049 0.930 . S
H1032 C1040 0.930 . S
H1033 C1041 0.930 . S
H1034 C1065 0.929 . S
H1035 C1023 0.930 . S
H1036 C1024 0.929 . S
H1037 C1066 0.930 . S
H1038 C1047 0.930 . S
N1039 Gd1008 2.661 1_556 S
N1039 C1043 1.350 . S
N1039 C1044 1.307 . S
C1040 H1032 0.930 . S
C1040 C1041 1.355 . S
C1040 C1042 1.412 . S
C1041 H1033 0.930 . S
C1041 C1040 1.355 . S
C1041 C1044 1.402 . S
C1042 C1040 1.412 . S
C1042 C1043 1.417 . S
C1042 C1066 1.431 . S
C1043 N1039 1.350 . S
C1043 C1042 1.417 . S
C1043 C1046 1.426 . S
C1044 H1027 0.930 . S
C1044 N1039 1.307 . S
C1044 C1041 1.402 . S
N1045 Gd1008 2.601 1_556 S
N1045 C1046 1.359 . S
N1045 C1049 1.334 . S
C1046 C1043 1.426 . S
C1046 N1045 1.359 . S
C1046 C1050 1.413 . S
C1047 H1038 0.930 . S
C1047 C1048 1.359 . S
C1047 C1049 1.394 . S
C1048 C1047 1.359 . S
C1048 C1050 1.391 . S
C1048 H1051 0.929 . S
C1049 H1031 0.930 . S
C1049 N1045 1.334 . S
C1049 C1047 1.394 . S
C1050 C1046 1.413 . S
C1050 C1048 1.391 . S
C1050 C1065 1.437 . S
H1051 C1048 0.929 . S
O1052 Gd1008 2.545 . S
O1052 C1067 1.258 . S
O1053 Gd1008 2.606 . S
O1053 Gd1009 2.362 . S
O1053 C1064 1.284 . S
O1054 Gd1009 2.324 . S
O1054 C1074 1.254 . S
O1055 Gd1008 2.429 . S
O1055 C1074 1.268 . S
O1056 Gd1008 2.545 . S
O1056 C1064 1.250 . S
O1057 Gd1008 2.412 . S
O1057 C1067 1.252 . S
O1058 Gd1009 2.545 . S
O1058 C1076 1.258 . S
O1059 Gd1008 2.362 1_556 S
O1059 Gd1009 2.606 1_556 S
O1059 C1075 1.284 . S
O1060 Gd1008 2.324 . S
O1060 C1083 1.254 . S
O1061 Gd1009 2.429 . S
O1061 C1083 1.268 . S
O1062 Gd1009 2.545 1_556 S
O1062 C1075 1.250 . S
O1063 Gd1009 2.412 . S
O1063 C1076 1.252 . S
C1064 O1053 1.284 . S
C1064 O1056 1.250 . S
C1065 H1034 0.929 . S
C1065 C1050 1.437 . S
C1065 C1066 1.317 . S
C1066 H1037 0.930 . S
C1066 C1042 1.431 . S
C1066 C1065 1.317 . S
C1067 Gd1008 2.828 . S
C1067 O1052 1.258 . S
C1067 O1057 1.252 . S
C1067 C1068 1.497 . S
C1068 C1067 1.497 . S
C1068 C1069 1.395 . S
C1068 C1070 1.380 . S
C1069 C1068 1.395 . S
C1069 C1072 1.398 . S
C1069 H1084 0.930 . S
C1070 C1068 1.380 . S
C1070 C1071 1.391 . S
C1070 H1085 0.930 . S
C1071 C1070 1.391 . S
C1071 C1073 1.387 . S
C1072 C1069 1.398 . S
C1072 C1073 1.380 . S
C1072 H1086 0.930 . S
C1073 C1071 1.387 . S
C1073 C1072 1.380 . S
C1073 H1087 0.930 . S
C1074 O1054 1.254 . S
C1074 O1055 1.268 . S
C1075 O1059 1.284 . S
C1075 O1062 1.250 . S
C1076 Gd1009 2.828 . S
C1076 O1058 1.258 . S
C1076 O1063 1.252 . S
C1076 C1077 1.497 . S
C1077 C1076 1.497 . S
C1077 C1078 1.395 . S
C1077 C1079 1.380 . S
C1078 C1077 1.395 . S
C1078 C1081 1.398 . S
C1078 H1088 0.930 . S
C1079 C1077 1.380 . S
C1079 C1080 1.391 1_554 S
C1079 H1089 0.918 1_554 S
C1080 C1079 1.391 1_556 S
C1080 C1082 1.387 1_556 S
C1081 C1078 1.398 . S
C1081 C1082 1.380 . S
C1081 H1090 0.930 . S
C1082 C1080 1.387 1_554 S
C1082 C1081 1.380 . S
C1082 H1091 0.941 . S
C1083 O1060 1.254 . S
C1083 O1061 1.268 . S
H1084 C1069 0.930 . S
H1085 C1070 0.930 . S
H1086 C1072 0.930 . S
H1087 C1073 0.930 . S
H1088 C1078 0.930 . S
H1089 C1079 0.918 1_556 S
H1090 C1081 0.930 . S
H1091 C1082 0.941 . S
Gd1092 N1123 2.661 . S
Gd1092 N1129 2.601 . S
Gd1092 O1136 2.545 . S
Gd1092 O1137 2.606 . S
Gd1092 O1139 2.429 . S
Gd1092 O1140 2.545 . S
Gd1092 O1141 2.412 . S
Gd1092 O1143 2.362 . S
Gd1092 O1144 2.324 . S
Gd1092 C1151 2.828 . S
Gd1093 N1102 2.661 . S
Gd1093 N1106 2.601 . S
Gd1093 O1137 2.362 . S
Gd1093 O1138 2.324 . S
Gd1093 O1142 2.545 . S
Gd1093 O1143 2.606 . S
Gd1093 O1145 2.429 . S
Gd1093 O1146 2.545 . S
Gd1093 O1147 2.412 . S
Gd1093 C1160 2.828 . S
C1094 C1097 1.417 . S
C1094 C1099 1.431 . S
C1094 C1100 1.412 . S
C1095 C1098 1.437 . S
C1095 C1099 1.317 . S
C1095 H1114 0.929 . S
C1096 C1097 1.426 . S
C1096 C1098 1.413 . S
C1096 N1106 1.359 . S
C1097 C1094 1.417 . S
C1097 C1096 1.426 . S
C1097 N1102 1.350 . S
C1098 C1095 1.437 . S
C1098 C1096 1.413 . S
C1098 C1108 1.391 . S
C1099 C1094 1.431 . S
C1099 C1095 1.317 . S
C1099 H1110 0.930 . S
C1100 C1094 1.412 . S
C1100 C1101 1.355 . S
C1100 H1112 0.930 . S
C1101 C1100 1.355 . S
C1101 C1103 1.402 . S
C1101 H1113 0.930 . S
N1102 Gd1093 2.661 . S
N1102 C1097 1.350 . S
N1102 C1103 1.307 . S
C1103 C1101 1.402 . S
C1103 N1102 1.307 . S
C1103 H1104 0.930 . S
H1104 C1103 0.930 . S
C1105 N1106 1.334 . S
C1105 C1107 1.394 . S
C1105 H1109 0.930 . S
N1106 Gd1093 2.601 . S
N1106 C1096 1.359 . S
N1106 C1105 1.334 . S
C1107 C1105 1.394 . S
C1107 C1108 1.359 . S
C1107 H1119 0.930 . S
C1108 C1098 1.391 . S
C1108 C1107 1.359 . S
C1108 H1120 0.929 . S
H1109 C1105 0.930 . S
H1110 C1099 0.930 . S
H1111 C1128 0.930 . S
H1112 C1100 0.930 . S
H1113 C1101 0.930 . S
H1114 C1095 0.929 . S
H1115 C1133 0.930 . S
H1116 C1124 0.930 . S
H1117 C1125 0.930 . S
H1118 C1149 0.929 . S
H1119 C1107 0.930 . S
H1120 C1108 0.929 . S
H1121 C1150 0.930 . S
H1122 C1131 0.930 . S
N1123 Gd1092 2.661 . S
N1123 C1127 1.350 . S
N1123 C1128 1.307 . S
C1124 H1116 0.930 . S
C1124 C1125 1.355 . S
C1124 C1126 1.412 . S
C1125 H1117 0.930 . S
C1125 C1124 1.355 . S
C1125 C1128 1.402 . S
C1126 C1124 1.412 . S
C1126 C1127 1.417 . S
C1126 C1150 1.431 . S
C1127 N1123 1.350 . S
C1127 C1126 1.417 . S
C1127 C1130 1.426 . S
C1128 H1111 0.930 . S
C1128 N1123 1.307 . S
C1128 C1125 1.402 . S
N1129 Gd1092 2.601 . S
N1129 C1130 1.359 . S
N1129 C1133 1.334 . S
C1130 C1127 1.426 . S
C1130 N1129 1.359 . S
C1130 C1134 1.413 . S
C1131 H1122 0.930 . S
C1131 C1132 1.359 . S
C1131 C1133 1.394 . S
C1132 C1131 1.359 . S
C1132 C1134 1.391 . S
C1132 H1135 0.929 . S
C1133 H1115 0.930 . S
C1133 N1129 1.334 . S
C1133 C1131 1.394 . S
C1134 C1130 1.413 . S
C1134 C1132 1.391 . S
C1134 C1149 1.437 . S
H1135 C1132 0.929 . S
O1136 Gd1092 2.545 . S
O1136 C1151 1.258 . S
O1137 Gd1092 2.606 . S
O1137 Gd1093 2.362 . S
O1137 C1148 1.284 . S
O1138 Gd1093 2.324 . S
O1138 C1158 1.254 . S
O1139 Gd1092 2.429 . S
O1139 C1158 1.268 . S
O1140 Gd1092 2.545 . S
O1140 C1148 1.250 . S
O1141 Gd1092 2.412 . S
O1141 C1151 1.252 . S
O1142 Gd1093 2.545 . S
O1142 C1160 1.258 . S
O1143 Gd1092 2.362 . S
O1143 Gd1093 2.606 . S
O1143 C1159 1.284 . S
O1144 Gd1092 2.324 . S
O1144 C1167 1.254 . S
O1145 Gd1093 2.429 . S
O1145 C1167 1.268 . S
O1146 Gd1093 2.545 . S
O1146 C1159 1.250 . S
O1147 Gd1093 2.412 . S
O1147 C1160 1.252 . S
C1148 O1137 1.284 . S
C1148 O1140 1.250 . S
C1149 H1118 0.929 . S
C1149 C1134 1.437 . S
C1149 C1150 1.317 . S
C1150 H1121 0.930 . S
C1150 C1126 1.431 . S
C1150 C1149 1.317 . S
C1151 Gd1092 2.828 . S
C1151 O1136 1.258 . S
C1151 O1141 1.252 . S
C1151 C1152 1.497 . S
C1152 C1151 1.497 . S
C1152 C1153 1.395 . S
C1152 C1154 1.380 . S
C1153 C1152 1.395 . S
C1153 C1156 1.398 . S
C1153 H1168 0.930 . S
C1154 C1152 1.380 . S
C1154 C1155 1.391 . S
C1154 H1169 0.930 . S
C1155 C1154 1.391 . S
C1155 C1157 1.387 . S
C1156 C1153 1.398 . S
C1156 C1157 1.380 . S
C1156 H1170 0.930 . S
C1157 C1155 1.387 . S
C1157 C1156 1.380 . S
C1157 H1171 0.930 . S
C1158 O1138 1.254 . S
C1158 O1139 1.268 . S
C1159 O1143 1.284 . S
C1159 O1146 1.250 . S
C1160 Gd1093 2.828 . S
C1160 O1142 1.258 . S
C1160 O1147 1.252 . S
C1160 C1161 1.497 . S
C1161 C1160 1.497 . S
C1161 C1162 1.395 . S
C1161 C1163 1.380 . S
C1162 C1161 1.395 . S
C1162 C1165 1.398 . S
C1162 H1172 0.930 . S
C1163 C1161 1.380 . S
C1163 C1164 1.391 . S
C1163 H1173 0.930 . S
C1164 C1163 1.391 . S
C1164 C1166 1.387 . S
C1165 C1162 1.398 . S
C1165 C1166 1.380 . S
C1165 H1174 0.930 . S
C1166 C1164 1.387 . S
C1166 C1165 1.380 . S
C1166 H1175 0.930 . S
C1167 O1144 1.254 . S
C1167 O1145 1.268 . S
H1168 C1153 0.930 . S
H1169 C1154 0.930 . S
H1170 C1156 0.930 . S
H1171 C1157 0.930 . S
H1172 C1162 0.930 . S
H1173 C1163 0.930 . S
H1174 C1165 0.930 . S
H1175 C1166 0.930 . S
Gd1176 N1207 2.661 . S
Gd1176 N1213 2.601 . S
Gd1176 O1220 2.545 . S
Gd1176 O1221 2.606 . S
Gd1176 O1223 2.429 . S
Gd1176 O1224 2.545 . S
Gd1176 O1225 2.412 . S
Gd1176 O1227 2.362 . S
Gd1176 O1228 2.324 . S
Gd1176 C1235 2.828 . S
Gd1177 N1186 2.661 . S
Gd1177 N1190 2.601 . S
Gd1177 O1221 2.362 . S
Gd1177 O1222 2.324 . S
Gd1177 O1226 2.545 . S
Gd1177 O1227 2.606 . S
Gd1177 O1229 2.429 . S
Gd1177 O1230 2.545 . S
Gd1177 O1231 2.412 . S
Gd1177 C1244 2.828 . S
C1178 C1181 1.417 . S
C1178 C1183 1.431 . S
C1178 C1184 1.412 . S
C1179 C1182 1.437 . S
C1179 C1183 1.317 . S
C1179 H1198 0.929 . S
C1180 C1181 1.426 . S
C1180 C1182 1.413 . S
C1180 N1190 1.359 . S
C1181 C1178 1.417 . S
C1181 C1180 1.426 . S
C1181 N1186 1.350 . S
C1182 C1179 1.437 . S
C1182 C1180 1.413 . S
C1182 C1192 1.391 . S
C1183 C1178 1.431 . S
C1183 C1179 1.317 . S
C1183 H1194 0.930 . S
C1184 C1178 1.412 . S
C1184 C1185 1.355 . S
C1184 H1196 0.930 . S
C1185 C1184 1.355 . S
C1185 C1187 1.402 . S
C1185 H1197 0.930 . S
N1186 Gd1177 2.661 . S
N1186 C1181 1.350 . S
N1186 C1187 1.307 . S
C1187 C1185 1.402 . S
C1187 N1186 1.307 . S
C1187 H1188 0.930 . S
H1188 C1187 0.930 . S
C1189 N1190 1.334 . S
C1189 C1191 1.394 . S
C1189 H1193 0.930 . S
N1190 Gd1177 2.601 . S
N1190 C1180 1.359 . S
N1190 C1189 1.334 . S
C1191 C1189 1.394 . S
C1191 C1192 1.359 . S
C1191 H1203 0.930 . S
C1192 C1182 1.391 . S
C1192 C1191 1.359 . S
C1192 H1204 0.929 . S
H1193 C1189 0.930 . S
H1194 C1183 0.930 . S
H1195 C1212 0.930 . S
H1196 C1184 0.930 . S
H1197 C1185 0.930 . S
H1198 C1179 0.929 . S
H1199 C1217 0.930 . S
H1200 C1208 0.930 . S
H1201 C1209 0.930 . S
H1202 C1233 0.929 . S
H1203 C1191 0.930 . S
H1204 C1192 0.929 . S
H1205 C1234 0.930 . S
H1206 C1215 0.930 . S
N1207 Gd1176 2.661 . S
N1207 C1211 1.350 1_455 S
N1207 C1212 1.307 . S
C1208 H1200 0.930 . S
C1208 C1209 1.355 . S
C1208 C1210 1.412 . S
C1209 H1201 0.930 . S
C1209 C1208 1.355 . S
C1209 C1212 1.402 1_655 S
C1210 C1208 1.412 . S
C1210 C1211 1.417 . S
C1210 C1234 1.431 . S
C1211 N1207 1.350 1_655 S
C1211 C1210 1.417 . S
C1211 C1214 1.430 1_655 S
C1212 H1195 0.930 . S
C1212 N1207 1.307 . S
C1212 C1209 1.402 1_455 S
N1213 Gd1176 2.601 . S
N1213 C1214 1.375 . S
N1213 C1217 1.334 . S
C1214 C1211 1.430 1_455 S
C1214 N1213 1.375 . S
C1214 C1218 1.395 1_455 S
C1215 H1206 0.930 . S
C1215 C1216 1.359 1_455 S
C1215 C1217 1.394 . S
C1216 C1215 1.359 1_655 S
C1216 C1218 1.391 . S
C1216 H1219 0.929 . S
C1217 H1199 0.930 . S
C1217 N1213 1.334 . S
C1217 C1215 1.394 . S
C1218 C1214 1.395 1_655 S
C1218 C1216 1.391 . S
C1218 C1233 1.437 . S
H1219 C1216 0.929 . S
O1220 Gd1176 2.545 . S
O1220 C1235 1.258 . S
O1221 Gd1176 2.606 . S
O1221 Gd1177 2.362 . S
O1221 C1232 1.284 . S
O1222 Gd1177 2.324 . S
O1222 C1242 1.254 . S
O1223 Gd1176 2.429 . S
O1223 C1242 1.268 . S
O1224 Gd1176 2.545 . S
O1224 C1232 1.250 . S
O1225 Gd1176 2.412 . S
O1225 C1235 1.252 . S
O1226 Gd1177 2.545 . S
O1226 C1244 1.258 . S
O1227 Gd1176 2.362 . S
O1227 Gd1177 2.606 . S
O1227 C1243 1.284 . S
O1228 Gd1176 2.324 . S
O1228 C1251 1.254 . S
O1229 Gd1177 2.429 . S
O1229 C1251 1.268 . S
O1230 Gd1177 2.545 . S
O1230 C1243 1.250 . S
O1231 Gd1177 2.412 . S
O1231 C1244 1.252 . S
C1232 O1221 1.284 . S
C1232 O1224 1.250 . S
C1233 H1202 0.929 . S
C1233 C1218 1.437 . S
C1233 C1234 1.317 . S
C1234 H1205 0.930 . S
C1234 C1210 1.431 . S
C1234 C1233 1.317 . S
C1235 Gd1176 2.828 . S
C1235 O1220 1.258 . S
C1235 O1225 1.252 . S
C1235 C1236 1.497 . S
C1236 C1235 1.497 . S
C1236 C1237 1.395 . S
C1236 C1238 1.380 . S
C1237 C1236 1.395 . S
C1237 C1240 1.398 . S
C1237 H1252 0.930 . S
C1238 C1236 1.380 . S
C1238 C1239 1.391 . S
C1238 H1253 0.930 . S
C1239 C1238 1.391 . S
C1239 C1241 1.387 . S
C1240 C1237 1.398 . S
C1240 C1241 1.380 . S
C1240 H1254 0.930 . S
C1241 C1239 1.387 . S
C1241 C1240 1.380 . S
C1241 H1255 0.930 . S
C1242 O1222 1.254 . S
C1242 O1223 1.268 . S
C1243 O1227 1.284 . S
C1243 O1230 1.250 . S
C1244 Gd1177 2.828 . S
C1244 O1226 1.258 . S
C1244 O1231 1.252 . S
C1244 C1245 1.497 . S
C1245 C1244 1.497 . S
C1245 C1246 1.395 . S
C1245 C1247 1.380 . S
C1246 C1245 1.395 . S
C1246 C1249 1.398 . S
C1246 H1256 0.930 . S
C1247 C1245 1.380 . S
C1247 C1248 1.391 . S
C1247 H1257 0.930 . S
C1248 C1247 1.391 . S
C1248 C1250 1.387 . S
C1249 C1246 1.398 . S
C1249 C1250 1.380 . S
C1249 H1258 0.930 . S
C1250 C1248 1.387 . S
C1250 C1249 1.380 . S
C1250 H1259 0.930 . S
C1251 O1228 1.254 . S
C1251 O1229 1.268 . S
H1252 C1237 0.930 . S
H1253 C1238 0.930 . S
H1254 C1240 0.930 . S
H1255 C1241 0.930 . S
H1256 C1246 0.930 . S
H1257 C1247 0.930 . S
H1258 C1249 0.930 . S
H1259 C1250 0.930 . S
Gd1260 N1291 2.661 . S
Gd1260 N1297 2.601 . S
Gd1260 O1304 2.545 . S
Gd1260 O1305 2.606 . S
Gd1260 O1307 2.429 . S
Gd1260 O1308 2.545 . S
Gd1260 O1309 2.412 . S
Gd1260 O1311 2.362 . S
Gd1260 O1312 2.324 . S
Gd1260 C1319 2.828 . S
Gd1261 N1270 2.661 . S
Gd1261 N1274 2.601 . S
Gd1261 O1305 2.362 . S
Gd1261 O1306 2.324 . S
Gd1261 O1310 2.545 . S
Gd1261 O1311 2.606 . S
Gd1261 O1313 2.429 . S
Gd1261 O1314 2.545 . S
Gd1261 O1315 2.412 . S
Gd1261 C1328 2.828 . S
C1262 C1265 1.417 . S
C1262 C1267 1.431 . S
C1262 C1268 1.412 . S
C1263 C1266 1.437 . S
C1263 C1267 1.317 . S
C1263 H1282 0.929 . S
C1264 C1265 1.426 . S
C1264 C1266 1.413 . S
C1264 N1274 1.359 . S
C1265 C1262 1.417 . S
C1265 C1264 1.426 . S
C1265 N1270 1.350 . S
C1266 C1263 1.437 . S
C1266 C1264 1.413 . S
C1266 C1276 1.391 . S
C1267 C1262 1.431 . S
C1267 C1263 1.317 . S
C1267 H1278 0.930 . S
C1268 C1262 1.412 . S
C1268 C1269 1.355 . S
C1268 H1280 0.930 . S
C1269 C1268 1.355 . S
C1269 C1271 1.402 . S
C1269 H1281 0.930 . S
N1270 Gd1261 2.661 . S
N1270 C1265 1.350 . S
N1270 C1271 1.307 . S
C1271 C1269 1.402 . S
C1271 N1270 1.307 . S
C1271 H1272 0.930 . S
H1272 C1271 0.930 . S
C1273 N1274 1.334 . S
C1273 C1275 1.394 . S
C1273 H1277 0.930 . S
N1274 Gd1261 2.601 . S
N1274 C1264 1.359 . S
N1274 C1273 1.334 . S
C1275 C1273 1.394 . S
C1275 C1276 1.359 . S
C1275 H1287 0.930 . S
C1276 C1266 1.391 . S
C1276 C1275 1.359 . S
C1276 H1288 0.929 . S
H1277 C1273 0.930 . S
H1278 C1267 0.930 . S
H1279 C1296 0.930 . S
H1280 C1268 0.930 . S
H1281 C1269 0.930 . S
H1282 C1263 0.929 . S
H1283 C1301 0.930 . S
H1284 C1292 0.930 . S
H1285 C1293 0.930 . S
H1286 C1317 0.929 . S
H1287 C1275 0.930 . S
H1288 C1276 0.929 . S
H1289 C1318 0.930 . S
H1290 C1299 0.930 . S
N1291 Gd1260 2.661 . S
N1291 C1295 1.350 . S
N1291 C1296 1.307 . S
C1292 H1284 0.930 . S
C1292 C1293 1.355 . S
C1292 C1294 1.412 . S
C1293 H1285 0.930 . S
C1293 C1292 1.355 . S
C1293 C1296 1.402 . S
C1294 C1292 1.412 . S
C1294 C1295 1.417 . S
C1294 C1318 1.431 . S
C1295 N1291 1.350 . S
C1295 C1294 1.417 . S
C1295 C1298 1.426 . S
C1296 H1279 0.930 . S
C1296 N1291 1.307 . S
C1296 C1293 1.402 . S
N1297 Gd1260 2.601 . S
N1297 C1298 1.359 . S
N1297 C1301 1.334 . S
C1298 C1295 1.426 . S
C1298 N1297 1.359 . S
C1298 C1302 1.413 . S
C1299 H1290 0.930 . S
C1299 C1300 1.359 . S
C1299 C1301 1.394 . S
C1300 C1299 1.359 . S
C1300 C1302 1.391 . S
C1300 H1303 0.929 . S
C1301 H1283 0.930 . S
C1301 N1297 1.334 . S
C1301 C1299 1.394 . S
C1302 C1298 1.413 . S
C1302 C1300 1.391 . S
C1302 C1317 1.437 . S
H1303 C1300 0.929 . S
O1304 Gd1260 2.545 . S
O1304 C1319 1.258 . S
O1305 Gd1260 2.606 . S
O1305 Gd1261 2.362 . S
O1305 C1316 1.284 . S
O1306 Gd1261 2.324 . S
O1306 C1326 1.254 . S
O1307 Gd1260 2.429 . S
O1307 C1326 1.268 . S
O1308 Gd1260 2.545 . S
O1308 C1316 1.250 . S
O1309 Gd1260 2.412 . S
O1309 C1319 1.252 . S
O1310 Gd1261 2.545 . S
O1310 C1328 1.258 . S
O1311 Gd1260 2.362 . S
O1311 Gd1261 2.606 . S
O1311 C1327 1.284 . S
O1312 Gd1260 2.324 . S
O1312 C1335 1.254 . S
O1313 Gd1261 2.429 . S
O1313 C1335 1.268 . S
O1314 Gd1261 2.545 . S
O1314 C1327 1.250 . S
O1315 Gd1261 2.412 . S
O1315 C1328 1.252 . S
C1316 O1305 1.284 . S
C1316 O1308 1.250 . S
C1317 H1286 0.929 . S
C1317 C1302 1.437 . S
C1317 C1318 1.317 . S
C1318 H1289 0.930 . S
C1318 C1294 1.431 . S
C1318 C1317 1.317 . S
C1319 Gd1260 2.828 . S
C1319 O1304 1.258 . S
C1319 O1309 1.252 . S
C1319 C1320 1.497 . S
C1320 C1319 1.497 . S
C1320 C1321 1.395 . S
C1320 C1322 1.380 . S
C1321 C1320 1.395 . S
C1321 C1324 1.398 . S
C1321 H1336 0.930 . S
C1322 C1320 1.380 . S
C1322 C1323 1.391 . S
C1322 H1337 0.930 . S
C1323 C1322 1.391 . S
C1323 C1325 1.387 . S
C1324 C1321 1.398 . S
C1324 C1325 1.380 . S
C1324 H1338 0.930 . S
C1325 C1323 1.387 . S
C1325 C1324 1.380 . S
C1325 H1339 0.930 . S
C1326 O1306 1.254 . S
C1326 O1307 1.268 . S
C1327 O1311 1.284 . S
C1327 O1314 1.250 . S
C1328 Gd1261 2.828 . S
C1328 O1310 1.258 . S
C1328 O1315 1.252 . S
C1328 C1329 1.497 . S
C1329 C1328 1.497 . S
C1329 C1330 1.395 . S
C1329 C1331 1.380 . S
C1330 C1329 1.395 . S
C1330 C1333 1.398 . S
C1330 H1340 0.930 . S
C1331 C1329 1.380 . S
C1331 C1332 1.391 . S
C1331 H1341 0.930 . S
C1332 C1331 1.391 . S
C1332 C1334 1.387 . S
C1333 C1330 1.398 . S
C1333 C1334 1.380 . S
C1333 H1342 0.930 . S
C1334 C1332 1.387 . S
C1334 C1333 1.380 . S
C1334 H1343 0.930 . S
C1335 O1312 1.254 . S
C1335 O1313 1.268 . S
H1336 C1321 0.930 . S
H1337 C1322 0.930 . S
H1338 C1324 0.930 . S
H1339 C1325 0.930 . S
H1340 C1330 0.930 . S
H1341 C1331 0.930 . S
H1342 C1333 0.930 . S
H1343 C1334 0.930 . S
Gd1344 N1375 2.661 . S
Gd1344 N1381 2.601 . S
Gd1344 O1388 2.545 . S
Gd1344 O1389 2.606 . S
Gd1344 O1391 2.429 . S
Gd1344 O1392 2.545 . S
Gd1344 O1393 2.412 . S
Gd1344 O1395 2.362 . S
Gd1344 O1396 2.324 . S
Gd1344 C1403 2.828 . S
Gd1345 N1354 2.661 . S
Gd1345 N1358 2.601 . S
Gd1345 O1389 2.362 . S
Gd1345 O1390 2.324 . S
Gd1345 O1394 2.545 . S
Gd1345 O1395 2.606 . S
Gd1345 O1397 2.429 . S
Gd1345 O1398 2.545 . S
Gd1345 O1399 2.412 . S
Gd1345 C1412 2.828 . S
C1346 C1349 1.417 . S
C1346 C1351 1.431 . S
C1346 C1352 1.412 . S
C1347 C1350 1.437 . S
C1347 C1351 1.317 . S
C1347 H1366 0.929 . S
C1348 C1349 1.426 . S
C1348 C1350 1.413 . S
C1348 N1358 1.359 . S
C1349 C1346 1.417 . S
C1349 C1348 1.426 . S
C1349 N1354 1.350 . S
C1350 C1347 1.437 . S
C1350 C1348 1.413 . S
C1350 C1360 1.391 . S
C1351 C1346 1.431 . S
C1351 C1347 1.317 . S
C1351 H1362 0.930 . S
C1352 C1346 1.412 . S
C1352 C1353 1.355 . S
C1352 H1364 0.930 . S
C1353 C1352 1.355 . S
C1353 C1355 1.402 . S
C1353 H1365 0.930 . S
N1354 Gd1345 2.661 . S
N1354 C1349 1.350 . S
N1354 C1355 1.307 . S
C1355 C1353 1.402 . S
C1355 N1354 1.307 . S
C1355 H1356 0.930 . S
H1356 C1355 0.930 . S
C1357 N1358 1.334 . S
C1357 C1359 1.394 . S
C1357 H1361 0.930 . S
N1358 Gd1345 2.601 . S
N1358 C1348 1.359 . S
N1358 C1357 1.334 . S
C1359 C1357 1.394 . S
C1359 C1360 1.359 . S
C1359 H1371 0.930 . S
C1360 C1350 1.391 . S
C1360 C1359 1.359 . S
C1360 H1372 0.929 . S
H1361 C1357 0.930 . S
H1362 C1351 0.930 . S
H1363 C1380 0.930 . S
H1364 C1352 0.930 . S
H1365 C1353 0.930 . S
H1366 C1347 0.929 . S
H1367 C1385 0.930 . S
H1368 C1376 0.930 . S
H1369 C1377 0.930 . S
H1370 C1401 0.929 . S
H1371 C1359 0.930 . S
H1372 C1360 0.929 . S
H1373 C1402 0.930 . S
H1374 C1383 0.930 . S
N1375 Gd1344 2.661 . S
N1375 C1379 1.350 . S
N1375 C1380 1.307 . S
C1376 H1368 0.930 . S
C1376 C1377 1.355 . S
C1376 C1378 1.412 . S
C1377 H1369 0.930 . S
C1377 C1376 1.355 . S
C1377 C1380 1.402 . S
C1378 C1376 1.412 . S
C1378 C1379 1.417 . S
C1378 C1402 1.431 . S
C1379 N1375 1.350 . S
C1379 C1378 1.417 . S
C1379 C1382 1.426 . S
C1380 H1363 0.930 . S
C1380 N1375 1.307 . S
C1380 C1377 1.402 . S
N1381 Gd1344 2.601 . S
N1381 C1382 1.359 . S
N1381 C1385 1.334 . S
C1382 C1379 1.426 . S
C1382 N1381 1.359 . S
C1382 C1386 1.413 . S
C1383 H1374 0.930 . S
C1383 C1384 1.359 . S
C1383 C1385 1.394 . S
C1384 C1383 1.359 . S
C1384 C1386 1.391 . S
C1384 H1387 0.929 . S
C1385 H1367 0.930 . S
C1385 N1381 1.334 . S
C1385 C1383 1.394 . S
C1386 C1382 1.413 . S
C1386 C1384 1.391 . S
C1386 C1401 1.437 . S
H1387 C1384 0.929 . S
O1388 Gd1344 2.545 . S
O1388 C1403 1.258 . S
O1389 Gd1344 2.606 . S
O1389 Gd1345 2.362 . S
O1389 C1400 1.284 . S
O1390 Gd1345 2.324 . S
O1390 C1410 1.254 . S
O1391 Gd1344 2.429 . S
O1391 C1410 1.268 . S
O1392 Gd1344 2.545 . S
O1392 C1400 1.250 . S
O1393 Gd1344 2.412 . S
O1393 C1403 1.252 . S
O1394 Gd1345 2.545 . S
O1394 C1412 1.258 . S
O1395 Gd1344 2.362 . S
O1395 Gd1345 2.606 . S
O1395 C1411 1.284 . S
O1396 Gd1344 2.324 . S
O1396 C1419 1.254 . S
O1397 Gd1345 2.429 . S
O1397 C1419 1.268 . S
O1398 Gd1345 2.545 . S
O1398 C1411 1.250 . S
O1399 Gd1345 2.412 . S
O1399 C1412 1.252 . S
C1400 O1389 1.284 . S
C1400 O1392 1.250 . S
C1401 H1370 0.929 . S
C1401 C1386 1.437 . S
C1401 C1402 1.317 . S
C1402 H1373 0.930 . S
C1402 C1378 1.431 . S
C1402 C1401 1.317 . S
C1403 Gd1344 2.828 . S
C1403 O1388 1.258 . S
C1403 O1393 1.252 . S
C1403 C1404 1.497 . S
C1404 C1403 1.497 . S
C1404 C1405 1.395 . S
C1404 C1406 1.380 . S
C1405 C1404 1.395 . S
C1405 C1408 1.398 . S
C1405 H1420 0.930 . S
C1406 C1404 1.380 . S
C1406 C1407 1.391 . S
C1406 H1421 0.930 . S
C1407 C1406 1.391 . S
C1407 C1409 1.387 . S
C1408 C1405 1.398 . S
C1408 C1409 1.380 . S
C1408 H1422 0.930 . S
C1409 C1407 1.387 . S
C1409 C1408 1.380 . S
C1409 H1423 0.930 . S
C1410 O1390 1.254 . S
C1410 O1391 1.268 . S
C1411 O1395 1.284 . S
C1411 O1398 1.250 . S
C1412 Gd1345 2.828 . S
C1412 O1394 1.258 . S
C1412 O1399 1.252 . S
C1412 C1413 1.497 . S
C1413 C1412 1.497 . S
C1413 C1414 1.395 . S
C1413 C1415 1.380 . S
C1414 C1413 1.395 . S
C1414 C1417 1.398 . S
C1414 H1424 0.930 . S
C1415 C1413 1.380 . S
C1415 C1416 1.391 . S
C1415 H1425 0.930 . S
C1416 C1415 1.391 . S
C1416 C1418 1.387 . S
C1417 C1414 1.398 . S
C1417 C1418 1.380 . S
C1417 H1426 0.930 . S
C1418 C1416 1.387 . S
C1418 C1417 1.380 . S
C1418 H1427 0.930 . S
C1419 O1396 1.254 . S
C1419 O1397 1.268 . S
H1420 C1405 0.930 . S
H1421 C1406 0.930 . S
H1422 C1408 0.930 . S
H1423 C1409 0.930 . S
H1424 C1414 0.930 . S
H1425 C1415 0.930 . S
H1426 C1417 0.930 . S
H1427 C1418 0.930 . S
Gd1428 N1459 2.661 . S
Gd1428 N1465 2.601 . S
Gd1428 O1472 2.545 . S
Gd1428 O1473 2.606 . S
Gd1428 O1475 2.429 . S
Gd1428 O1476 2.545 . S
Gd1428 O1477 2.412 . S
Gd1428 O1479 2.362 . S
Gd1428 O1480 2.324 . S
Gd1428 C1487 2.828 . S
Gd1429 N1438 2.661 . S
Gd1429 N1442 2.601 . S
Gd1429 O1473 2.362 . S
Gd1429 O1474 2.324 . S
Gd1429 O1478 2.545 . S
Gd1429 O1479 2.606 . S
Gd1429 O1481 2.429 . S
Gd1429 O1482 2.545 . S
Gd1429 O1483 2.412 . S
Gd1429 C1496 2.828 . S
C1430 C1433 1.417 . S
C1430 C1435 1.431 . S
C1430 C1436 1.412 . S
C1431 C1434 1.437 . S
C1431 C1435 1.317 . S
C1431 H1450 0.929 . S
C1432 C1433 1.426 . S
C1432 C1434 1.413 . S
C1432 N1442 1.359 . S
C1433 C1430 1.417 . S
C1433 C1432 1.426 . S
C1433 N1438 1.350 . S
C1434 C1431 1.437 . S
C1434 C1432 1.413 . S
C1434 C1444 1.391 . S
C1435 C1430 1.431 . S
C1435 C1431 1.317 . S
C1435 H1446 0.930 . S
C1436 C1430 1.412 . S
C1436 C1437 1.355 . S
C1436 H1448 0.930 . S
C1437 C1436 1.355 . S
C1437 C1439 1.402 . S
C1437 H1449 0.930 . S
N1438 Gd1429 2.661 . S
N1438 C1433 1.350 . S
N1438 C1439 1.307 . S
C1439 C1437 1.402 . S
C1439 N1438 1.307 . S
C1439 H1440 0.930 . S
H1440 C1439 0.930 . S
C1441 N1442 1.334 . S
C1441 C1443 1.394 . S
C1441 H1445 0.930 . S
N1442 Gd1429 2.601 . S
N1442 C1432 1.359 . S
N1442 C1441 1.334 . S
C1443 C1441 1.394 . S
C1443 C1444 1.359 . S
C1443 H1455 0.930 . S
C1444 C1434 1.391 . S
C1444 C1443 1.359 . S
C1444 H1456 0.929 . S
H1445 C1441 0.930 . S
H1446 C1435 0.930 . S
H1447 C1464 0.930 . S
H1448 C1436 0.930 . S
H1449 C1437 0.930 . S
H1450 C1431 0.929 . S
H1451 C1469 0.930 . S
H1452 C1460 0.930 . S
H1453 C1461 0.930 . S
H1454 C1485 0.929 . S
H1455 C1443 0.930 . S
H1456 C1444 0.929 . S
H1457 C1486 0.930 . S
H1458 C1467 0.930 . S
N1459 Gd1428 2.661 . S
N1459 C1463 1.350 . S
N1459 C1464 1.307 . S
C1460 H1452 0.930 . S
C1460 C1461 1.355 . S
C1460 C1462 1.412 . S
C1461 H1453 0.930 . S
C1461 C1460 1.355 . S
C1461 C1464 1.402 . S
C1462 C1460 1.412 . S
C1462 C1463 1.417 . S
C1462 C1486 1.431 . S
C1463 N1459 1.350 . S
C1463 C1462 1.417 . S
C1463 C1466 1.426 . S
C1464 H1447 0.930 . S
C1464 N1459 1.307 . S
C1464 C1461 1.402 . S
N1465 Gd1428 2.601 . S
N1465 C1466 1.359 . S
N1465 C1469 1.334 . S
C1466 C1463 1.426 . S
C1466 N1465 1.359 . S
C1466 C1470 1.413 . S
C1467 H1458 0.930 . S
C1467 C1468 1.359 . S
C1467 C1469 1.394 . S
C1468 C1467 1.359 . S
C1468 C1470 1.391 . S
C1468 H1471 0.929 . S
C1469 H1451 0.930 . S
C1469 N1465 1.334 . S
C1469 C1467 1.394 . S
C1470 C1466 1.413 . S
C1470 C1468 1.391 . S
C1470 C1485 1.437 . S
H1471 C1468 0.929 . S
O1472 Gd1428 2.545 . S
O1472 C1487 1.258 . S
O1473 Gd1428 2.606 . S
O1473 Gd1429 2.362 . S
O1473 C1484 1.284 . S
O1474 Gd1429 2.324 . S
O1474 C1494 1.254 . S
O1475 Gd1428 2.429 . S
O1475 C1494 1.268 . S
O1476 Gd1428 2.545 . S
O1476 C1484 1.250 . S
O1477 Gd1428 2.412 . S
O1477 C1487 1.252 . S
O1478 Gd1429 2.545 . S
O1478 C1496 1.258 . S
O1479 Gd1428 2.362 . S
O1479 Gd1429 2.606 . S
O1479 C1495 1.284 . S
O1480 Gd1428 2.324 . S
O1480 C1503 1.254 . S
O1481 Gd1429 2.429 . S
O1481 C1503 1.268 . S
O1482 Gd1429 2.545 . S
O1482 C1495 1.250 . S
O1483 Gd1429 2.412 . S
O1483 C1496 1.252 . S
C1484 O1473 1.284 . S
C1484 O1476 1.250 . S
C1485 H1454 0.929 . S
C1485 C1470 1.437 . S
C1485 C1486 1.317 . S
C1486 H1457 0.930 . S
C1486 C1462 1.431 . S
C1486 C1485 1.317 . S
C1487 Gd1428 2.828 . S
C1487 O1472 1.258 . S
C1487 O1477 1.252 . S
C1487 C1488 1.497 . S
C1488 C1487 1.497 . S
C1488 C1489 1.395 . S
C1488 C1490 1.380 . S
C1489 C1488 1.395 . S
C1489 C1492 1.398 . S
C1489 H1504 0.930 . S
C1490 C1488 1.380 . S
C1490 C1491 1.391 . S
C1490 H1505 0.930 . S
C1491 C1490 1.391 . S
C1491 C1493 1.387 . S
C1492 C1489 1.398 . S
C1492 C1493 1.380 . S
C1492 H1506 0.930 . S
C1493 C1491 1.387 . S
C1493 C1492 1.380 . S
C1493 H1507 0.930 . S
C1494 O1474 1.254 . S
C1494 O1475 1.268 . S
C1495 O1479 1.284 . S
C1495 O1482 1.250 . S
C1496 Gd1429 2.828 . S
C1496 O1478 1.258 . S
C1496 O1483 1.252 . S
C1496 C1497 1.497 . S
C1497 C1496 1.497 . S
C1497 C1498 1.395 . S
C1497 C1499 1.380 . S
C1498 C1497 1.395 . S
C1498 C1501 1.398 . S
C1498 H1508 0.930 . S
C1499 C1497 1.380 . S
C1499 C1500 1.391 . S
C1499 H1509 0.930 . S
C1500 C1499 1.391 . S
C1500 C1502 1.387 . S
C1501 C1498 1.398 . S
C1501 C1502 1.380 . S
C1501 H1510 0.930 . S
C1502 C1500 1.387 . S
C1502 C1501 1.380 . S
C1502 H1511 0.930 . S
C1503 O1480 1.254 . S
C1503 O1481 1.268 . S
H1504 C1489 0.930 . S
H1505 C1490 0.930 . S
H1506 C1492 0.930 . S
H1507 C1493 0.930 . S
H1508 C1498 0.930 . S
H1509 C1499 0.930 . S
H1510 C1501 0.930 . S
H1511 C1502 0.930 . S
Gd1512 N1543 2.661 . S
Gd1512 N1549 2.601 . S
Gd1512 O1556 2.545 . S
Gd1512 O1557 2.606 . S
Gd1512 O1559 2.429 . S
Gd1512 O1560 2.545 . S
Gd1512 O1561 2.412 . S
Gd1512 O1563 2.362 . S
Gd1512 O1564 2.324 . S
Gd1512 C1571 2.828 . S
Gd1513 N1522 2.661 . S
Gd1513 N1526 2.601 . S
Gd1513 O1557 2.362 . S
Gd1513 O1558 2.324 . S
Gd1513 O1562 2.545 . S
Gd1513 O1563 2.606 . S
Gd1513 O1565 2.429 . S
Gd1513 O1566 2.545 . S
Gd1513 O1567 2.412 . S
Gd1513 C1580 2.828 . S
C1514 C1517 1.417 . S
C1514 C1519 1.431 . S
C1514 C1520 1.412 . S
C1515 C1518 1.437 . S
C1515 C1519 1.317 . S
C1515 H1534 0.929 . S
C1516 C1517 1.426 . S
C1516 C1518 1.413 . S
C1516 N1526 1.359 . S
C1517 C1514 1.417 . S
C1517 C1516 1.426 . S
C1517 N1522 1.350 . S
C1518 C1515 1.437 . S
C1518 C1516 1.413 . S
C1518 C1528 1.391 . S
C1519 C1514 1.431 . S
C1519 C1515 1.317 . S
C1519 H1530 0.930 . S
C1520 C1514 1.412 . S
C1520 C1521 1.355 . S
C1520 H1532 0.930 . S
C1521 C1520 1.355 . S
C1521 C1523 1.402 . S
C1521 H1533 0.930 . S
N1522 Gd1513 2.661 . S
N1522 C1517 1.350 . S
N1522 C1523 1.307 . S
C1523 C1521 1.402 . S
C1523 N1522 1.307 . S
C1523 H1524 0.930 . S
H1524 C1523 0.930 . S
C1525 N1526 1.334 . S
C1525 C1527 1.394 . S
C1525 H1529 0.930 . S
N1526 Gd1513 2.601 . S
N1526 C1516 1.359 . S
N1526 C1525 1.334 . S
C1527 C1525 1.394 . S
C1527 C1528 1.359 . S
C1527 H1539 0.930 . S
C1528 C1518 1.391 . S
C1528 C1527 1.359 . S
C1528 H1540 0.929 . S
H1529 C1525 0.930 . S
H1530 C1519 0.930 . S
H1531 C1548 0.930 . S
H1532 C1520 0.930 . S
H1533 C1521 0.930 . S
H1534 C1515 0.929 . S
H1535 C1553 0.930 . S
H1536 C1544 0.930 . S
H1537 C1545 0.930 . S
H1538 C1569 0.929 . S
H1539 C1527 0.930 . S
H1540 C1528 0.929 . S
H1541 C1570 0.930 . S
H1542 C1551 0.930 . S
N1543 Gd1512 2.661 . S
N1543 C1547 1.350 . S
N1543 C1548 1.307 . S
C1544 H1536 0.930 . S
C1544 C1545 1.355 . S
C1544 C1546 1.412 . S
C1545 H1537 0.930 . S
C1545 C1544 1.355 . S
C1545 C1548 1.402 . S
C1546 C1544 1.412 . S
C1546 C1547 1.417 . S
C1546 C1570 1.431 . S
C1547 N1543 1.350 . S
C1547 C1546 1.417 . S
C1547 C1550 1.426 . S
C1548 H1531 0.930 . S
C1548 N1543 1.307 . S
C1548 C1545 1.402 . S
N1549 Gd1512 2.601 . S
N1549 C1550 1.359 . S
N1549 C1553 1.334 . S
C1550 C1547 1.426 . S
C1550 N1549 1.359 . S
C1550 C1554 1.413 . S
C1551 H1542 0.930 . S
C1551 C1552 1.359 . S
C1551 C1553 1.394 . S
C1552 C1551 1.359 . S
C1552 C1554 1.391 . S
C1552 H1555 0.929 . S
C1553 H1535 0.930 . S
C1553 N1549 1.334 . S
C1553 C1551 1.394 . S
C1554 C1550 1.413 . S
C1554 C1552 1.391 . S
C1554 C1569 1.437 . S
H1555 C1552 0.929 . S
O1556 Gd1512 2.545 . S
O1556 C1571 1.258 . S
O1557 Gd1512 2.606 . S
O1557 Gd1513 2.362 . S
O1557 C1568 1.284 . S
O1558 Gd1513 2.324 . S
O1558 C1578 1.254 . S
O1559 Gd1512 2.429 . S
O1559 C1578 1.268 . S
O1560 Gd1512 2.545 . S
O1560 C1568 1.250 . S
O1561 Gd1512 2.412 . S
O1561 C1571 1.252 . S
O1562 Gd1513 2.545 . S
O1562 C1580 1.258 . S
O1563 Gd1512 2.362 . S
O1563 Gd1513 2.606 . S
O1563 C1579 1.284 . S
O1564 Gd1512 2.324 . S
O1564 C1587 1.254 . S
O1565 Gd1513 2.429 . S
O1565 C1587 1.268 . S
O1566 Gd1513 2.545 . S
O1566 C1579 1.250 . S
O1567 Gd1513 2.412 . S
O1567 C1580 1.252 . S
C1568 O1557 1.284 . S
C1568 O1560 1.250 . S
C1569 H1538 0.929 . S
C1569 C1554 1.437 . S
C1569 C1570 1.317 . S
C1570 H1541 0.930 . S
C1570 C1546 1.431 . S
C1570 C1569 1.317 . S
C1571 Gd1512 2.828 . S
C1571 O1556 1.258 . S
C1571 O1561 1.252 . S
C1571 C1572 1.497 . S
C1572 C1571 1.497 . S
C1572 C1573 1.395 . S
C1572 C1574 1.380 . S
C1573 C1572 1.395 . S
C1573 C1576 1.398 . S
C1573 H1588 0.930 . S
C1574 C1572 1.380 . S
C1574 C1575 1.391 . S
C1574 H1589 0.930 . S
C1575 C1574 1.391 . S
C1575 C1577 1.387 . S
C1576 C1573 1.398 . S
C1576 C1577 1.380 . S
C1576 H1590 0.930 . S
C1577 C1575 1.387 . S
C1577 C1576 1.380 . S
C1577 H1591 0.930 . S
C1578 O1558 1.254 . S
C1578 O1559 1.268 . S
C1579 O1563 1.284 . S
C1579 O1566 1.250 . S
C1580 Gd1513 2.828 . S
C1580 O1562 1.258 . S
C1580 O1567 1.252 . S
C1580 C1581 1.497 . S
C1581 C1580 1.497 . S
C1581 C1582 1.395 . S
C1581 C1583 1.380 . S
C1582 C1581 1.395 . S
C1582 C1585 1.398 . S
C1582 H1592 0.930 . S
C1583 C1581 1.380 . S
C1583 C1584 1.391 . S
C1583 H1593 0.930 . S
C1584 C1583 1.391 . S
C1584 C1586 1.387 . S
C1585 C1582 1.398 . S
C1585 C1586 1.380 . S
C1585 H1594 0.930 . S
C1586 C1584 1.387 . S
C1586 C1585 1.380 . S
C1586 H1595 0.930 . S
C1587 O1564 1.254 . S
C1587 O1565 1.268 . S
H1588 C1573 0.930 . S
H1589 C1574 0.930 . S
H1590 C1576 0.930 . S
H1591 C1577 0.930 . S
H1592 C1582 0.930 . S
H1593 C1583 0.930 . S
H1594 C1585 0.930 . S
H1595 C1586 0.930 . S
Gd1596 N1627 2.644 1_455 S
Gd1596 N1633 2.601 . S
Gd1596 O1640 2.545 . S
Gd1596 O1641 2.606 . S
Gd1596 O1643 2.429 . S
Gd1596 O1644 2.545 . S
Gd1596 O1645 2.412 1_455 S
Gd1596 O1647 2.362 . S
Gd1596 O1648 2.324 1_554 S
Gd1596 C1655 2.828 1_455 S
Gd1597 N1606 2.661 . S
Gd1597 N1610 2.601 1_554 S
Gd1597 O1641 2.362 . S
Gd1597 O1642 2.324 . S
Gd1597 O1646 2.545 1_554 S
Gd1597 O1647 2.606 . S
Gd1597 O1649 2.429 1_554 S
Gd1597 O1650 2.545 . S
Gd1597 O1651 2.412 . S
Gd1597 C1664 2.828 1_554 S
C1598 C1601 1.417 . S
C1598 C1603 1.431 . S
C1598 C1604 1.412 . S
C1599 C1602 1.437 . S
C1599 C1603 1.317 1_556 S
C1599 H1618 0.929 . S
C1600 C1601 1.426 1_556 S
C1600 C1602 1.413 . S
C1600 N1610 1.359 . S
C1601 C1598 1.417 . S
C1601 C1600 1.426 1_554 S
C1601 N1606 1.350 . S
C1602 C1599 1.437 . S
C1602 C1600 1.413 . S
C1602 C1612 1.391 . S
C1603 C1598 1.431 . S
C1603 C1599 1.317 1_554 S
C1603 H1614 0.930 . S
C1604 C1598 1.412 . S
C1604 C1605 1.355 . S
C1604 H1616 0.930 . S
C1605 C1604 1.355 . S
C1605 C1607 1.402 . S
C1605 H1617 0.930 . S
N1606 Gd1597 2.661 . S
N1606 C1601 1.350 . S
N1606 C1607 1.307 . S
C1607 C1605 1.402 . S
C1607 N1606 1.307 . S
C1607 H1608 0.930 . S
H1608 C1607 0.930 . S
C1609 N1610 1.334 . S
C1609 C1611 1.394 . S
C1609 H1613 0.930 . S
N1610 Gd1597 2.601 1_556 S
N1610 C1600 1.359 . S
N1610 C1609 1.334 . S
C1611 C1609 1.394 . S
C1611 C1612 1.359 . S
C1611 H1623 0.930 . S
C1612 C1602 1.391 . S
C1612 C1611 1.359 . S
C1612 H1624 0.929 . S
H1613 C1609 0.930 . S
H1614 C1603 0.930 . S
H1615 C1632 0.930 1_455 S
H1616 C1604 0.930 . S
H1617 C1605 0.930 . S
H1618 C1599 0.929 . S
H1619 C1637 0.930 . S
H1620 C1628 0.930 . S
H1621 C1629 0.930 . S
H1622 C1653 0.929 . S
H1623 C1611 0.930 . S
H1624 C1612 0.929 . S
H1625 C1654 0.930 . S
H1626 C1635 0.930 . S
N1627 Gd1596 2.644 1_655 S
N1627 C1631 1.366 . S
N1627 C1632 1.309 1_554 S
C1628 H1620 0.930 . S
C1628 C1629 1.355 . S
C1628 C1630 1.412 1_556 S
C1629 H1621 0.930 . S
C1629 C1628 1.355 . S
C1629 C1632 1.402 . S
C1630 C1628 1.412 1_554 S
C1630 C1631 1.417 . S
C1630 C1654 1.431 . S
C1631 N1627 1.366 . S
C1631 C1630 1.417 . S
C1631 C1634 1.426 . S
C1632 H1615 0.930 1_655 S
C1632 N1627 1.309 1_556 S
C1632 C1629 1.402 . S
N1633 Gd1596 2.601 . S
N1633 C1634 1.359 1_455 S
N1633 C1637 1.334 . S
C1634 C1631 1.426 . S
C1634 N1633 1.359 1_655 S
C1634 C1638 1.413 . S
C1635 H1626 0.930 . S
C1635 C1636 1.350 1_455 S
C1635 C1637 1.404 . S
C1636 C1635 1.350 1_655 S
C1636 C1638 1.391 . S
C1636 H1639 0.929 . S
C1637 H1619 0.930 . S
C1637 N1633 1.334 . S
C1637 C1635 1.404 . S
C1638 C1634 1.413 . S
C1638 C1636 1.391 . S
C1638 C1653 1.437 . S
H1639 C1636 0.929 . S
O1640 Gd1596 2.545 . S
O1640 C1655 1.258 1_455 S
O1641 Gd1596 2.606 . S
O1641 Gd1597 2.362 . S
O1641 C1652 1.284 . S
O1642 Gd1597 2.324 . S
O1642 C1662 1.254 . S
O1643 Gd1596 2.429 . S
O1643 C1662 1.268 . S
O1644 Gd1596 2.545 . S
O1644 C1652 1.250 . S
O1645 Gd1596 2.412 1_655 S
O1645 C1655 1.252 . S
O1646 Gd1597 2.545 1_556 S
O1646 C1664 1.258 . S
O1647 Gd1596 2.362 . S
O1647 Gd1597 2.606 . S
O1647 C1663 1.284 . S
O1648 Gd1596 2.324 1_556 S
O1648 C1671 1.254 . S
O1649 Gd1597 2.429 1_556 S
O1649 C1671 1.268 . S
O1650 Gd1597 2.545 . S
O1650 C1663 1.250 . S
O1651 Gd1597 2.412 . S
O1651 C1664 1.252 1_554 S
C1652 O1641 1.284 . S
C1652 O1644 1.250 . S
C1653 H1622 0.929 . S
C1653 C1638 1.437 . S
C1653 C1654 1.317 . S
C1654 H1625 0.930 . S
C1654 C1630 1.431 . S
C1654 C1653 1.317 . S
C1655 Gd1596 2.828 1_655 S
C1655 O1640 1.258 1_655 S
C1655 O1645 1.252 . S
C1655 C1656 1.497 . S
C1656 C1655 1.497 . S
C1656 C1657 1.395 . S
C1656 C1658 1.380 . S
C1657 C1656 1.395 . S
C1657 C1660 1.398 . S
C1657 H1672 0.930 . S
C1658 C1656 1.380 . S
C1658 C1659 1.391 . S
C1658 H1673 0.930 . S
C1659 C1658 1.391 . S
C1659 C1661 1.387 . S
C1660 C1657 1.398 . S
C1660 C1661 1.380 . S
C1660 H1674 0.930 . S
C1661 C1659 1.387 . S
C1661 C1660 1.380 . S
C1661 H1675 0.930 . S
C1662 O1642 1.254 . S
C1662 O1643 1.268 . S
C1663 O1647 1.284 . S
C1663 O1650 1.250 . S
C1664 Gd1597 2.828 1_556 S
C1664 O1646 1.258 . S
C1664 O1651 1.252 1_556 S
C1664 C1665 1.497 . S
C1665 C1664 1.497 . S
C1665 C1666 1.395 . S
C1665 C1667 1.380 1_556 S
C1666 C1665 1.395 . S
C1666 C1669 1.398 . S
C1666 H1676 0.930 . S
C1667 C1665 1.380 1_554 S
C1667 C1668 1.391 . S
C1667 H1677 0.930 . S
C1668 C1667 1.391 . S
C1668 C1670 1.387 1_554 S
C1669 C1666 1.398 . S
C1669 C1670 1.380 . S
C1669 H1678 0.930 . S
C1670 C1668 1.387 1_556 S
C1670 C1669 1.380 . S
C1670 H1679 0.930 . S
C1671 O1648 1.254 . S
C1671 O1649 1.268 . S
H1672 C1657 0.930 . S
H1673 C1658 0.930 . S
H1674 C1660 0.930 . S
H1675 C1661 0.930 . S
H1676 C1666 0.930 . S
H1677 C1667 0.930 . S
H1678 C1669 0.930 . S
H1679 C1670 0.930 . S
H1680 C1688 0.929 . S
H1681 C1690 0.900 1_554 S
H1682 C1692 0.930 . S
H1683 C1695 0.929 . S
H1684 C1698 0.930 1_554 S
H1685 C1700 0.960 . S
H1686 C1700 0.960 . S
H1687 C1700 0.960 . S
C1688 H1680 0.929 . S
C1688 C1689 1.377 . S
C1688 C1690 1.384 . S
C1689 C1688 1.377 . S
C1689 C1695 1.390 . S
C1690 H1681 0.900 1_556 S
C1690 C1688 1.384 . S
C1690 C1691 1.372 . S
C1691 C1690 1.372 . S
C1691 C1692 1.400 . S
C1691 C1696 1.490 . S
C1692 H1682 0.930 . S
C1692 C1691 1.400 . S
C1692 C1695 1.386 . S
H1693 C1709 0.930 . S
H1694 C1710 0.931 . S
C1695 H1683 0.929 . S
C1695 C1689 1.390 . S
C1695 C1692 1.386 . S
C1696 C1691 1.490 . S
C1696 C1698 1.395 . S
C1696 C1699 1.403 . S
H1697 C1703 0.930 . S
C1698 H1684 0.930 1_556 S
C1698 C1696 1.395 . S
C1698 C1701 1.403 1_556 S
C1699 C1696 1.403 . S
C1699 C1700 1.524 . S
C1699 C1703 1.400 . S
C1700 H1685 0.960 . S
C1700 H1686 0.960 . S
C1700 H1687 0.960 . S
C1700 C1699 1.524 . S
C1701 C1698 1.403 1_554 S
C1701 C1702 1.392 1_554 S
C1701 C1705 1.495 . S
C1702 C1701 1.392 1_556 S
C1702 C1703 1.385 . S
C1702 C1704 1.478 1_556 S
C1703 H1697 0.930 . S
C1703 C1699 1.400 . S
C1703 C1702 1.385 . S
C1704 C1702 1.478 1_554 S
C1704 C1706 1.381 . S
C1704 C1710 1.383 1_554 S
C1705 C1701 1.495 . S
C1705 H1711 0.959 1_455 S
C1705 H1712 0.964 . S
C1705 H1713 0.960 . S
C1706 C1704 1.381 . S
C1706 C1707 1.394 . S
C1706 H1714 0.930 . S
C1707 C1706 1.394 . S
C1707 C1708 1.383 . S
C1707 H1715 0.929 . S
C1708 C1707 1.383 . S
C1708 C1709 1.377 1_554 S
C1709 H1693 0.930 . S
C1709 C1708 1.377 1_556 S
C1709 C1710 1.379 . S
C1710 H1694 0.931 . S
C1710 C1704 1.383 1_556 S
C1710 C1709 1.379 . S
H1711 C1705 0.959 1_655 S
H1712 C1705 0.964 . S
H1713 C1705 0.960 . S
H1714 C1706 0.930 . S
H1715 C1707 0.929 . S
H1716 C1724 0.929 . S
H1717 C1726 0.930 . S
H1718 C1728 0.930 . S
H1719 C1731 0.929 . S
H1720 C1734 0.930 . S
H1721 C1736 0.960 . S
H1722 C1736 0.960 . S
H1723 C1736 0.960 . S
C1724 H1716 0.929 . S
C1724 C1725 1.377 . S
C1724 C1726 1.384 . S
C1725 C1724 1.377 . S
C1725 C1731 1.390 . S
C1726 H1717 0.930 . S
C1726 C1724 1.384 . S
C1726 C1727 1.372 . S
C1727 C1726 1.372 . S
C1727 C1728 1.400 . S
C1727 C1732 1.490 . S
C1728 H1718 0.930 . S
C1728 C1727 1.400 . S
C1728 C1731 1.386 . S
H1729 C1745 0.930 . S
H1730 C1746 0.931 . S
C1731 H1719 0.929 . S
C1731 C1725 1.390 . S
C1731 C1728 1.386 . S
C1732 C1727 1.490 . S
C1732 C1734 1.395 . S
C1732 C1735 1.403 . S
H1733 C1739 0.930 . S
C1734 H1720 0.930 . S
C1734 C1732 1.395 . S
C1734 C1737 1.403 . S
C1735 C1732 1.403 . S
C1735 C1736 1.524 . S
C1735 C1739 1.400 . S
C1736 H1721 0.960 . S
C1736 H1722 0.960 . S
C1736 H1723 0.960 . S
C1736 C1735 1.524 . S
C1737 C1734 1.403 . S
C1737 C1738 1.392 . S
C1737 C1741 1.495 . S
C1738 C1737 1.392 . S
C1738 C1739 1.385 . S
C1738 C1740 1.478 . S
C1739 H1733 0.930 . S
C1739 C1735 1.400 . S
C1739 C1738 1.385 . S
C1740 C1738 1.478 . S
C1740 C1742 1.381 . S
C1740 C1746 1.383 . S
C1741 C1737 1.495 . S
C1741 H1747 0.959 . S
C1741 H1748 0.961 . S
C1741 H1749 0.960 . S
C1742 C1740 1.381 . S
C1742 C1743 1.394 . S
C1742 H1750 0.930 . S
C1743 C1742 1.394 . S
C1743 C1744 1.383 . S
C1743 H1751 0.929 . S
C1744 C1743 1.383 . S
C1744 C1745 1.377 . S
C1745 H1729 0.930 . S
C1745 C1744 1.377 . S
C1745 C1746 1.379 . S
C1746 H1730 0.931 . S
C1746 C1740 1.383 . S
C1746 C1745 1.379 . S
H1747 C1741 0.959 . S
H1748 C1741 0.961 . S
H1749 C1741 0.960 . S
H1750 C1742 0.930 . S
H1751 C1743 0.929 . S
H1752 C1760 0.929 . S
H1753 C1762 0.930 . S
H1754 C1764 0.930 . S
H1755 C1767 0.929 . S
H1756 C1770 0.930 . S
H1757 C1772 0.960 . S
H1758 C1772 0.960 . S
H1759 C1772 0.960 . S
C1760 H1752 0.929 . S
C1760 C1761 1.377 . S
C1760 C1762 1.384 . S
C1761 C1760 1.377 . S
C1761 C1767 1.390 . S
C1762 H1753 0.930 . S
C1762 C1760 1.384 . S
C1762 C1763 1.372 . S
C1763 C1762 1.372 . S
C1763 C1764 1.400 . S
C1763 C1768 1.490 . S
C1764 H1754 0.930 . S
C1764 C1763 1.400 . S
C1764 C1767 1.386 . S
H1765 C1781 0.930 . S
H1766 C1782 0.931 . S
C1767 H1755 0.929 . S
C1767 C1761 1.390 . S
C1767 C1764 1.386 . S
C1768 C1763 1.490 . S
C1768 C1770 1.395 . S
C1768 C1771 1.403 . S
H1769 C1775 0.930 . S
C1770 H1756 0.930 . S
C1770 C1768 1.395 . S
C1770 C1773 1.403 . S
C1771 C1768 1.403 . S
C1771 C1772 1.524 . S
C1771 C1775 1.400 . S
C1772 H1757 0.960 . S
C1772 H1758 0.960 . S
C1772 H1759 0.960 . S
C1772 C1771 1.524 . S
C1773 C1770 1.403 . S
C1773 C1774 1.392 . S
C1773 C1777 1.495 . S
C1774 C1773 1.392 . S
C1774 C1775 1.385 . S
C1774 C1776 1.478 . S
C1775 H1769 0.930 . S
C1775 C1771 1.400 . S
C1775 C1774 1.385 . S
C1776 C1774 1.478 . S
C1776 C1778 1.381 . S
C1776 C1782 1.383 . S
C1777 C1773 1.495 . S
C1777 H1783 0.959 . S
C1777 H1784 0.961 . S
C1777 H1785 0.960 . S
C1778 C1776 1.381 . S
C1778 C1779 1.394 . S
C1778 H1786 0.930 . S
C1779 C1778 1.394 . S
C1779 C1780 1.383 . S
C1779 H1787 0.929 . S
C1780 C1779 1.383 . S
C1780 C1781 1.377 . S
C1781 H1765 0.930 . S
C1781 C1780 1.377 . S
C1781 C1782 1.379 . S
C1782 H1766 0.931 . S
C1782 C1776 1.383 . S
C1782 C1781 1.379 . S
H1783 C1777 0.959 . S
H1784 C1777 0.961 . S
H1785 C1777 0.960 . S
H1786 C1778 0.930 . S
H1787 C1779 0.929 . S
H1788 C1796 0.929 . S
H1789 C1798 0.930 . S
H1790 C1800 0.930 . S
H1791 C1803 0.929 . S
H1792 C1806 0.930 . S
H1793 C1808 0.960 . S
H1794 C1808 0.960 . S
H1795 C1808 0.960 . S
C1796 H1788 0.929 . S
C1796 C1797 1.377 . S
C1796 C1798 1.384 . S
C1797 C1796 1.377 . S
C1797 C1803 1.390 . S
C1798 H1789 0.930 . S
C1798 C1796 1.384 . S
C1798 C1799 1.372 . S
C1799 C1798 1.372 . S
C1799 C1800 1.400 . S
C1799 C1804 1.490 . S
C1800 H1790 0.930 . S
C1800 C1799 1.400 . S
C1800 C1803 1.386 . S
H1801 C1817 0.930 . S
H1802 C1818 0.931 . S
C1803 H1791 0.929 . S
C1803 C1797 1.390 . S
C1803 C1800 1.386 . S
C1804 C1799 1.490 . S
C1804 C1806 1.395 . S
C1804 C1807 1.403 . S
H1805 C1811 0.930 . S
C1806 H1792 0.930 . S
C1806 C1804 1.395 . S
C1806 C1809 1.403 . S
C1807 C1804 1.403 . S
C1807 C1808 1.524 . S
C1807 C1811 1.400 . S
C1808 H1793 0.960 . S
C1808 H1794 0.960 . S
C1808 H1795 0.960 . S
C1808 C1807 1.524 . S
C1809 C1806 1.403 . S
C1809 C1810 1.392 . S
C1809 C1813 1.495 . S
C1810 C1809 1.392 . S
C1810 C1811 1.385 . S
C1810 C1812 1.478 . S
C1811 H1805 0.930 . S
C1811 C1807 1.400 . S
C1811 C1810 1.385 . S
C1812 C1810 1.478 . S
C1812 C1814 1.381 . S
C1812 C1818 1.383 . S
C1813 C1809 1.495 . S
C1813 H1819 0.959 . S
C1813 H1820 0.961 . S
C1813 H1821 0.960 . S
C1814 C1812 1.381 . S
C1814 C1815 1.394 . S
C1814 H1822 0.930 . S
C1815 C1814 1.394 . S
C1815 C1816 1.383 . S
C1815 H1823 0.929 . S
C1816 C1815 1.383 . S
C1816 C1817 1.377 . S
C1817 H1801 0.930 . S
C1817 C1816 1.377 . S
C1817 C1818 1.379 . S
C1818 H1802 0.931 . S
C1818 C1812 1.383 . S
C1818 C1817 1.379 . S
H1819 C1813 0.959 . S
H1820 C1813 0.961 . S
H1821 C1813 0.960 . S
H1822 C1814 0.930 . S
H1823 C1815 0.929 . S
H1824 C1832 0.929 . S
H1825 C1834 0.930 . S
H1826 C1836 0.930 . S
H1827 C1839 0.929 . S
H1828 C1842 0.930 1_655 S
H1829 C1844 0.960 . S
H1830 C1844 0.960 . S
H1831 C1844 0.960 . S
C1832 H1824 0.929 . S
C1832 C1833 1.377 1_655 S
C1832 C1834 1.384 . S
C1833 C1832 1.377 1_455 S
C1833 C1839 1.390 . S
C1834 H1825 0.930 . S
C1834 C1832 1.384 . S
C1834 C1835 1.372 1_655 S
C1835 C1834 1.372 1_455 S
C1835 C1836 1.400 . S
C1835 C1840 1.490 . S
C1836 H1826 0.930 . S
C1836 C1835 1.400 . S
C1836 C1839 1.386 . S
H1837 C1853 0.930 . S
H1838 C1854 0.931 . S
C1839 H1827 0.929 . S
C1839 C1833 1.390 . S
C1839 C1836 1.386 . S
C1840 C1835 1.490 . S
C1840 C1842 1.395 . S
C1840 C1843 1.403 . S
H1841 C1847 0.930 . S
C1842 H1828 0.930 1_455 S
C1842 C1840 1.395 . S
C1842 C1845 1.403 . S
C1843 C1840 1.403 . S
C1843 C1844 1.524 . S
C1843 C1847 1.400 . S
C1844 H1829 0.960 . S
C1844 H1830 0.960 . S
C1844 H1831 0.960 . S
C1844 C1843 1.524 . S
C1845 C1842 1.403 . S
C1845 C1846 1.392 . S
C1845 C1849 1.495 1_455 S
C1846 C1845 1.392 . S
C1846 C1847 1.385 . S
C1846 C1848 1.478 . S
C1847 H1841 0.930 . S
C1847 C1843 1.400 . S
C1847 C1846 1.385 . S
C1848 C1846 1.478 . S
C1848 C1850 1.381 . S
C1848 C1854 1.383 . S
C1849 C1845 1.495 1_655 S
C1849 H1855 0.959 . S
C1849 H1856 0.961 1_655 S
C1849 H1857 0.960 . S
C1850 C1848 1.381 . S
C1850 C1851 1.394 . S
C1850 H1858 0.930 . S
C1851 C1850 1.394 . S
C1851 C1852 1.383 . S
C1851 H1859 0.929 . S
C1852 C1851 1.383 . S
C1852 C1853 1.377 . S
C1853 H1837 0.930 . S
C1853 C1852 1.377 . S
C1853 C1854 1.379 . S
C1854 H1838 0.931 . S
C1854 C1848 1.383 . S
C1854 C1853 1.379 . S
H1855 C1849 0.959 . S
H1856 C1849 0.961 1_455 S
H1857 C1849 0.960 . S
H1858 C1850 0.930 . S
H1859 C1851 0.929 . S
H1860 C1868 0.929 . S
H1861 C1870 0.930 . S
H1862 C1872 0.930 . S
H1863 C1875 0.929 . S
H1864 C1878 0.930 . S
H1865 C1880 0.960 . S
H1866 C1880 0.960 . S
H1867 C1880 0.960 . S
C1868 H1860 0.929 . S
C1868 C1869 1.377 . S
C1868 C1870 1.384 . S
C1869 C1868 1.377 . S
C1869 C1875 1.390 . S
C1870 H1861 0.930 . S
C1870 C1868 1.384 . S
C1870 C1871 1.372 . S
C1871 C1870 1.372 . S
C1871 C1872 1.400 . S
C1871 C1876 1.490 . S
C1872 H1862 0.930 . S
C1872 C1871 1.400 . S
C1872 C1875 1.386 . S
H1873 C1889 0.930 . S
H1874 C1890 0.931 . S
C1875 H1863 0.929 . S
C1875 C1869 1.390 . S
C1875 C1872 1.386 . S
C1876 C1871 1.490 . S
C1876 C1878 1.395 . S
C1876 C1879 1.403 . S
H1877 C1883 0.930 . S
C1878 H1864 0.930 . S
C1878 C1876 1.395 . S
C1878 C1881 1.403 . S
C1879 C1876 1.403 . S
C1879 C1880 1.524 . S
C1879 C1883 1.400 . S
C1880 H1865 0.960 . S
C1880 H1866 0.960 . S
C1880 H1867 0.960 . S
C1880 C1879 1.524 . S
C1881 C1878 1.403 . S
C1881 C1882 1.392 . S
C1881 C1885 1.495 . S
C1882 C1881 1.392 . S
C1882 C1883 1.385 . S
C1882 C1884 1.478 . S
C1883 H1877 0.930 . S
C1883 C1879 1.400 . S
C1883 C1882 1.385 . S
C1884 C1882 1.478 . S
C1884 C1886 1.381 . S
C1884 C1890 1.383 . S
C1885 C1881 1.495 . S
C1885 H1891 0.959 . S
C1885 H1892 0.961 . S
C1885 H1893 0.960 . S
C1886 C1884 1.381 . S
C1886 C1887 1.394 . S
C1886 H1894 0.930 . S
C1887 C1886 1.394 . S
C1887 C1888 1.383 . S
C1887 H1895 0.929 . S
C1888 C1887 1.383 . S
C1888 C1889 1.377 . S
C1889 H1873 0.930 . S
C1889 C1888 1.377 . S
C1889 C1890 1.379 . S
C1890 H1874 0.931 . S
C1890 C1884 1.383 . S
C1890 C1889 1.379 . S
H1891 C1885 0.959 . S
H1892 C1885 0.961 . S
H1893 C1885 0.960 . S
H1894 C1886 0.930 . S
H1895 C1887 0.929 . S
H1896 C1904 0.929 . S
H1897 C1906 0.930 . S
H1898 C1908 0.930 . S
H1899 C1911 0.929 . S
H1900 C1914 0.930 . S
H1901 C1916 0.960 . S
H1902 C1916 0.960 . S
H1903 C1916 0.960 . S
C1904 H1896 0.929 . S
C1904 C1905 1.377 . S
C1904 C1906 1.384 . S
C1905 C1904 1.377 . S
C1905 C1911 1.390 . S
C1906 H1897 0.930 . S
C1906 C1904 1.384 . S
C1906 C1907 1.372 . S
C1907 C1906 1.372 . S
C1907 C1908 1.400 . S
C1907 C1912 1.490 . S
C1908 H1898 0.930 . S
C1908 C1907 1.400 . S
C1908 C1911 1.386 . S
H1909 C1925 0.930 . S
H1910 C1926 0.931 . S
C1911 H1899 0.929 . S
C1911 C1905 1.390 . S
C1911 C1908 1.386 . S
C1912 C1907 1.490 . S
C1912 C1914 1.395 . S
C1912 C1915 1.403 . S
H1913 C1919 0.930 . S
C1914 H1900 0.930 . S
C1914 C1912 1.395 . S
C1914 C1917 1.403 . S
C1915 C1912 1.403 . S
C1915 C1916 1.524 . S
C1915 C1919 1.400 . S
C1916 H1901 0.960 . S
C1916 H1902 0.960 . S
C1916 H1903 0.960 . S
C1916 C1915 1.524 . S
C1917 C1914 1.403 . S
C1917 C1918 1.392 . S
C1917 C1921 1.495 . S
C1918 C1917 1.392 . S
C1918 C1919 1.385 . S
C1918 C1920 1.478 . S
C1919 H1913 0.930 . S
C1919 C1915 1.400 . S
C1919 C1918 1.385 . S
C1920 C1918 1.478 . S
C1920 C1922 1.381 . S
C1920 C1926 1.383 . S
C1921 C1917 1.495 . S
C1921 H1927 0.959 . S
C1921 H1928 0.961 . S
C1921 H1929 0.960 . S
C1922 C1920 1.381 . S
C1922 C1923 1.394 . S
C1922 H1930 0.930 . S
C1923 C1922 1.394 . S
C1923 C1924 1.383 . S
C1923 H1931 0.929 . S
C1924 C1923 1.383 . S
C1924 C1925 1.377 . S
C1925 H1909 0.930 . S
C1925 C1924 1.377 . S
C1925 C1926 1.379 . S
C1926 H1910 0.931 . S
C1926 C1920 1.383 . S
C1926 C1925 1.379 . S
H1927 C1921 0.959 . S
H1928 C1921 0.961 . S
H1929 C1921 0.960 . S
H1930 C1922 0.930 . S
H1931 C1923 0.929 . S
H1932 C1940 0.929 . S
H1933 C1942 0.930 . S
H1934 C1944 0.930 . S
H1935 C1947 0.929 . S
H1936 C1950 0.930 . S
H1937 C1952 0.960 . S
H1938 C1952 0.960 . S
H1939 C1952 0.960 . S
C1940 H1932 0.929 . S
C1940 C1941 1.377 . S
C1940 C1942 1.384 . S
C1941 C1940 1.377 . S
C1941 C1947 1.390 . S
C1942 H1933 0.930 . S
C1942 C1940 1.384 . S
C1942 C1943 1.372 . S
C1943 C1942 1.372 . S
C1943 C1944 1.400 . S
C1943 C1948 1.490 . S
C1944 H1934 0.930 . S
C1944 C1943 1.400 . S
C1944 C1947 1.386 . S
H1945 C1961 0.930 . S
H1946 C1962 0.931 . S
C1947 H1935 0.929 . S
C1947 C1941 1.390 . S
C1947 C1944 1.386 . S
C1948 C1943 1.490 . S
C1948 C1950 1.395 . S
C1948 C1951 1.403 . S
H1949 C1955 0.930 . S
C1950 H1936 0.930 . S
C1950 C1948 1.395 . S
C1950 C1953 1.403 . S
C1951 C1948 1.403 . S
C1951 C1952 1.524 . S
C1951 C1955 1.400 . S
C1952 H1937 0.960 . S
C1952 H1938 0.960 . S
C1952 H1939 0.960 . S
C1952 C1951 1.524 . S
C1953 C1950 1.403 . S
C1953 C1954 1.392 . S
C1953 C1957 1.495 . S
C1954 C1953 1.392 . S
C1954 C1955 1.385 . S
C1954 C1956 1.478 . S
C1955 H1949 0.930 . S
C1955 C1951 1.400 . S
C1955 C1954 1.385 . S
C1956 C1954 1.478 . S
C1956 C1958 1.381 . S
C1956 C1962 1.383 . S
C1957 C1953 1.495 . S
C1957 H1963 0.959 . S
C1957 H1964 0.961 . S
C1957 H1965 0.960 . S
C1958 C1956 1.381 . S
C1958 C1959 1.394 . S
C1958 H1966 0.930 . S
C1959 C1958 1.394 . S
C1959 C1960 1.383 . S
C1959 H1967 0.929 . S
C1960 C1959 1.383 . S
C1960 C1961 1.377 . S
C1961 H1945 0.930 . S
C1961 C1960 1.377 . S
C1961 C1962 1.379 . S
C1962 H1946 0.931 . S
C1962 C1956 1.383 . S
C1962 C1961 1.379 . S
H1963 C1957 0.959 . S
H1964 C1957 0.961 . S
H1965 C1957 0.960 . S
H1966 C1958 0.930 . S
H1967 C1959 0.929 . S
H1968 C1976 0.929 . S
H1969 C1978 0.930 . S
H1970 C1980 0.930 . S
H1971 C1983 0.929 . S
H1972 C1986 0.930 . S
H1973 C1988 0.960 . S
H1974 C1988 0.960 . S
H1975 C1988 0.960 . S
C1976 H1968 0.929 . S
C1976 C1977 1.377 . S
C1976 C1978 1.384 . S
C1977 C1976 1.377 . S
C1977 C1983 1.390 . S
C1978 H1969 0.930 . S
C1978 C1976 1.384 . S
C1978 C1979 1.372 . S
C1979 C1978 1.372 . S
C1979 C1980 1.400 . S
C1979 C1984 1.490 . S
C1980 H1970 0.930 . S
C1980 C1979 1.400 . S
C1980 C1983 1.386 . S
H1981 C1997 0.930 . S
H1982 C1998 0.931 . S
C1983 H1971 0.929 . S
C1983 C1977 1.390 . S
C1983 C1980 1.386 . S
C1984 C1979 1.490 . S
C1984 C1986 1.395 . S
C1984 C1987 1.403 1_655 S
H1985 C1991 0.930 . S
C1986 H1972 0.930 . S
C1986 C1984 1.395 . S
C1986 C1989 1.403 . S
C1987 C1984 1.403 1_455 S
C1987 C1988 1.524 . S
C1987 C1991 1.400 . S
C1988 H1973 0.960 . S
C1988 H1974 0.960 . S
C1988 H1975 0.960 . S
C1988 C1987 1.524 . S
C1989 C1986 1.403 . S
C1989 C1990 1.392 1_655 S
C1989 C1993 1.495 . S
C1990 C1989 1.392 1_455 S
C1990 C1991 1.385 . S
C1990 C1992 1.478 . S
C1991 H1985 0.930 . S
C1991 C1987 1.400 . S
C1991 C1990 1.385 . S
C1992 C1990 1.478 . S
C1992 C1994 1.381 . S
C1992 C1998 1.383 . S
C1993 C1989 1.495 . S
C1993 H1999 0.959 . S
C1993 H2000 0.961 . S
C1993 H2001 0.960 . S
C1994 C1992 1.381 . S
C1994 C1995 1.394 . S
C1994 H2002 0.930 . S
C1995 C1994 1.394 . S
C1995 C1996 1.383 . S
C1995 H2003 0.929 . S
C1996 C1995 1.383 . S
C1996 C1997 1.377 . S
C1997 H1981 0.930 . S
C1997 C1996 1.377 . S
C1997 C1998 1.379 . S
C1998 H1982 0.931 . S
C1998 C1992 1.383 . S
C1998 C1997 1.379 . S
H1999 C1993 0.959 . S
H2000 C1993 0.961 . S
H2001 C1993 0.960 . S
H2002 C1994 0.930 . S
H2003 C1995 0.929 . S
H2004 C2012 0.929 . S
H2005 C2014 0.930 . S
H2006 C2016 0.930 . S
H2007 C2019 0.929 . S
H2008 C2022 0.930 . S
H2009 C2024 0.960 . S
H2010 C2024 0.960 . S
H2011 C2024 0.960 . S
C2012 H2004 0.929 . S
C2012 C2013 1.377 . S
C2012 C2014 1.384 . S
C2013 C2012 1.377 . S
C2013 C2019 1.390 . S
C2014 H2005 0.930 . S
C2014 C2012 1.384 . S
C2014 C2015 1.372 . S
C2015 C2014 1.372 . S
C2015 C2016 1.400 . S
C2015 C2020 1.490 . S
C2016 H2006 0.930 . S
C2016 C2015 1.400 . S
C2016 C2019 1.386 . S
H2017 C2033 0.930 . S
H2018 C2034 0.931 . S
C2019 H2007 0.929 . S
C2019 C2013 1.390 . S
C2019 C2016 1.386 . S
C2020 C2015 1.490 . S
C2020 C2022 1.395 . S
C2020 C2023 1.403 . S
H2021 C2027 0.930 . S
C2022 H2008 0.930 . S
C2022 C2020 1.395 . S
C2022 C2025 1.403 . S
C2023 C2020 1.403 . S
C2023 C2024 1.524 . S
C2023 C2027 1.400 . S
C2024 H2009 0.960 . S
C2024 H2010 0.960 . S
C2024 H2011 0.960 . S
C2024 C2023 1.524 . S
C2025 C2022 1.403 . S
C2025 C2026 1.392 . S
C2025 C2029 1.495 . S
C2026 C2025 1.392 . S
C2026 C2027 1.385 . S
C2026 C2028 1.478 . S
C2027 H2021 0.930 . S
C2027 C2023 1.400 . S
C2027 C2026 1.385 . S
C2028 C2026 1.478 . S
C2028 C2030 1.381 . S
C2028 C2034 1.383 . S
C2029 C2025 1.495 . S
C2029 H2035 0.959 . S
C2029 H2036 0.961 . S
C2029 H2037 0.960 . S
C2030 C2028 1.381 . S
C2030 C2031 1.394 . S
C2030 H2038 0.930 . S
C2031 C2030 1.394 . S
C2031 C2032 1.383 . S
C2031 H2039 0.929 . S
C2032 C2031 1.383 . S
C2032 C2033 1.377 . S
C2033 H2017 0.930 . S
C2033 C2032 1.377 . S
C2033 C2034 1.379 . S
C2034 H2018 0.931 . S
C2034 C2028 1.383 . S
C2034 C2033 1.379 . S
H2035 C2029 0.959 . S
H2036 C2029 0.961 . S
H2037 C2029 0.960 . S
H2038 C2030 0.930 . S
H2039 C2031 0.929 . S
H2040 C2048 0.929 . S
H2041 C2050 0.930 . S
H2042 C2052 0.930 . S
H2043 C2055 0.929 . S
H2044 C2058 0.930 . S
H2045 C2060 0.960 . S
H2046 C2060 0.960 . S
H2047 C2060 0.960 . S
C2048 H2040 0.929 . S
C2048 C2049 1.377 . S
C2048 C2050 1.384 . S
C2049 C2048 1.377 . S
C2049 C2055 1.390 . S
C2050 H2041 0.930 . S
C2050 C2048 1.384 . S
C2050 C2051 1.372 . S
C2051 C2050 1.372 . S
C2051 C2052 1.400 . S
C2051 C2056 1.490 . S
C2052 H2042 0.930 . S
C2052 C2051 1.400 . S
C2052 C2055 1.386 . S
H2053 C2069 0.930 . S
H2054 C2070 0.931 . S
C2055 H2043 0.929 . S
C2055 C2049 1.390 . S
C2055 C2052 1.386 . S
C2056 C2051 1.490 . S
C2056 C2058 1.395 . S
C2056 C2059 1.403 . S
H2057 C2063 0.930 . S
C2058 H2044 0.930 . S
C2058 C2056 1.395 . S
C2058 C2061 1.403 . S
C2059 C2056 1.403 . S
C2059 C2060 1.524 . S
C2059 C2063 1.400 . S
C2060 H2045 0.960 . S
C2060 H2046 0.960 . S
C2060 H2047 0.960 . S
C2060 C2059 1.524 . S
C2061 C2058 1.403 . S
C2061 C2062 1.392 . S
C2061 C2065 1.495 1_545 S
C2062 C2061 1.392 . S
C2062 C2063 1.385 . S
C2062 C2064 1.478 . S
C2063 H2057 0.930 . S
C2063 C2059 1.400 . S
C2063 C2062 1.385 . S
C2064 C2062 1.478 . S
C2064 C2066 1.381 . S
C2064 C2070 1.383 . S
C2065 C2061 1.495 1_565 S
C2065 H2071 0.959 . S
C2065 H2072 0.961 . S
C2065 H2073 0.960 . S
C2066 C2064 1.381 . S
C2066 C2067 1.394 . S
C2066 H2074 0.930 . S
C2067 C2066 1.394 . S
C2067 C2068 1.383 . S
C2067 H2075 0.929 . S
C2068 C2067 1.383 . S
C2068 C2069 1.377 . S
C2069 H2053 0.930 . S
C2069 C2068 1.377 . S
C2069 C2070 1.379 . S
C2070 H2054 0.931 . S
C2070 C2064 1.383 . S
C2070 C2069 1.379 . S
H2071 C2065 0.959 . S
H2072 C2065 0.961 . S
H2073 C2065 0.960 . S
H2074 C2066 0.930 . S
H2075 C2067 0.929 . S
H2076 C2084 0.929 . S
H2077 C2086 0.930 . S
H2078 C2088 0.930 . S
H2079 C2091 0.929 . S
H2080 C2094 0.930 . S
H2081 C2096 0.960 . S
H2082 C2096 0.960 . S
H2083 C2096 0.960 . S
C2084 H2076 0.929 . S
C2084 C2085 1.377 . S
C2084 C2086 1.384 . S
C2085 C2084 1.377 . S
C2085 C2091 1.390 . S
C2086 H2077 0.930 . S
C2086 C2084 1.384 . S
C2086 C2087 1.372 . S
C2087 C2086 1.372 . S
C2087 C2088 1.400 . S
C2087 C2092 1.490 . S
C2088 H2078 0.930 . S
C2088 C2087 1.400 . S
C2088 C2091 1.386 . S
H2089 C2105 0.930 . S
H2090 C2106 0.931 . S
C2091 H2079 0.929 . S
C2091 C2085 1.390 . S
C2091 C2088 1.386 . S
C2092 C2087 1.490 . S
C2092 C2094 1.395 . S
C2092 C2095 1.403 . S
H2093 C2099 0.930 . S
C2094 H2080 0.930 . S
C2094 C2092 1.395 . S
C2094 C2097 1.403 . S
C2095 C2092 1.403 . S
C2095 C2096 1.524 . S
C2095 C2099 1.400 . S
C2096 H2081 0.960 . S
C2096 H2082 0.960 . S
C2096 H2083 0.960 . S
C2096 C2095 1.524 . S
C2097 C2094 1.403 . S
C2097 C2098 1.392 . S
C2097 C2101 1.495 . S
C2098 C2097 1.392 . S
C2098 C2099 1.385 . S
C2098 C2100 1.478 . S
C2099 H2093 0.930 . S
C2099 C2095 1.400 . S
C2099 C2098 1.385 . S
C2100 C2098 1.478 . S
C2100 C2102 1.381 . S
C2100 C2106 1.383 . S
C2101 C2097 1.495 . S
C2101 H2107 0.959 . S
C2101 H2108 0.961 . S
C2101 H2109 0.960 . S
C2102 C2100 1.381 . S
C2102 C2103 1.394 . S
C2102 H2110 0.930 . S
C2103 C2102 1.394 . S
C2103 C2104 1.383 . S
C2103 H2111 0.929 . S
C2104 C2103 1.383 . S
C2104 C2105 1.377 . S
C2105 H2089 0.930 . S
C2105 C2104 1.377 . S
C2105 C2106 1.379 . S
C2106 H2090 0.931 . S
C2106 C2100 1.383 . S
C2106 C2105 1.379 . S
H2107 C2101 0.959 . S
H2108 C2101 0.961 . S
H2109 C2101 0.960 . S
H2110 C2102 0.930 . S
H2111 C2103 0.929 . S
H2112 C2120 0.929 . S
H2113 C2122 0.930 1_455 S
H2114 C2124 0.930 . S
H2115 C2127 0.929 . S
H2116 C2130 0.930 . S
H2117 C2132 0.960 . S
H2118 C2132 0.960 . S
H2119 C2132 0.960 . S
C2120 H2112 0.929 . S
C2120 C2121 1.377 . S
C2120 C2122 1.384 . S
C2121 C2120 1.377 . S
C2121 C2127 1.390 . S
C2122 H2113 0.930 1_655 S
C2122 C2120 1.384 . S
C2122 C2123 1.372 . S
C2123 C2122 1.372 . S
C2123 C2124 1.400 . S
C2123 C2128 1.490 . S
C2124 H2114 0.930 . S
C2124 C2123 1.400 . S
C2124 C2127 1.386 . S
H2125 C2141 0.930 . S
H2126 C2142 0.972 . S
C2127 H2115 0.929 . S
C2127 C2121 1.390 . S
C2127 C2124 1.386 . S
C2128 C2123 1.490 . S
C2128 C2130 1.395 1_655 S
C2128 C2131 1.403 . S
H2129 C2135 0.936 . S
C2130 H2116 0.930 . S
C2130 C2128 1.395 1_455 S
C2130 C2133 1.403 . S
C2131 C2128 1.403 . S
C2131 C2132 1.524 . S
C2131 C2135 1.416 . S
C2132 H2117 0.960 . S
C2132 H2118 0.960 . S
C2132 H2119 0.960 . S
C2132 C2131 1.524 . S
C2133 C2130 1.403 . S
C2133 C2134 1.392 . S
C2133 C2137 1.495 . S
C2134 C2133 1.392 . S
C2134 C2135 1.364 1_455 S
C2134 C2136 1.478 . S
C2135 H2129 0.936 . S
C2135 C2131 1.416 . S
C2135 C2134 1.364 1_655 S
C2136 C2134 1.478 . S
C2136 C2138 1.381 . S
C2136 C2142 1.383 . S
C2137 C2133 1.495 . S
C2137 H2143 0.959 . S
C2137 H2144 0.961 . S
C2137 H2145 0.960 . S
C2138 C2136 1.381 . S
C2138 C2139 1.394 . S
C2138 H2146 0.930 . S
C2139 C2138 1.394 . S
C2139 C2140 1.383 . S
C2139 H2147 0.929 . S
C2140 C2139 1.383 . S
C2140 C2141 1.377 . S
C2141 H2125 0.930 . S
C2141 C2140 1.377 . S
C2141 C2142 1.379 . S
C2142 H2126 0.972 . S
C2142 C2136 1.383 . S
C2142 C2141 1.379 . S
H2143 C2137 0.959 . S
H2144 C2137 0.961 . S
H2145 C2137 0.960 . S
H2146 C2138 0.930 . S
H2147 C2139 0.929 . S
H2148 C2156 0.929 . S
H2149 C2158 0.930 . S
H2150 C2160 0.930 . S
H2151 C2163 0.929 . S
H2152 C2166 0.930 . S
H2153 C2168 0.960 . S
H2154 C2168 0.960 . S
H2155 C2168 0.960 . S
C2156 H2148 0.929 . S
C2156 C2157 1.377 . S
C2156 C2158 1.384 . S
C2157 C2156 1.377 . S
C2157 C2163 1.390 . S
C2158 H2149 0.930 . S
C2158 C2156 1.384 . S
C2158 C2159 1.372 . S
C2159 C2158 1.372 . S
C2159 C2160 1.400 . S
C2159 C2164 1.490 . S
C2160 H2150 0.930 . S
C2160 C2159 1.400 . S
C2160 C2163 1.386 . S
H2161 C2177 0.930 . S
H2162 C2178 0.931 . S
C2163 H2151 0.929 . S
C2163 C2157 1.390 . S
C2163 C2160 1.386 . S
C2164 C2159 1.490 . S
C2164 C2166 1.395 . S
C2164 C2167 1.403 . S
H2165 C2171 0.930 . S
C2166 H2152 0.930 . S
C2166 C2164 1.395 . S
C2166 C2169 1.403 . S
C2167 C2164 1.403 . S
C2167 C2168 1.524 . S
C2167 C2171 1.400 . S
C2168 H2153 0.960 . S
C2168 H2154 0.960 . S
C2168 H2155 0.960 . S
C2168 C2167 1.524 . S
C2169 C2166 1.403 . S
C2169 C2170 1.392 . S
C2169 C2173 1.495 . S
C2170 C2169 1.392 . S
C2170 C2171 1.385 . S
C2170 C2172 1.478 . S
C2171 H2165 0.930 . S
C2171 C2167 1.400 . S
C2171 C2170 1.385 . S
C2172 C2170 1.478 . S
C2172 C2174 1.381 . S
C2172 C2178 1.383 . S
C2173 C2169 1.495 . S
C2173 H2179 0.959 . S
C2173 H2180 0.961 . S
C2173 H2181 0.960 . S
C2174 C2172 1.381 . S
C2174 C2175 1.394 . S
C2174 H2182 0.930 . S
C2175 C2174 1.394 . S
C2175 C2176 1.383 . S
C2175 H2183 0.929 . S
C2176 C2175 1.383 . S
C2176 C2177 1.377 . S
C2177 H2161 0.930 . S
C2177 C2176 1.377 . S
C2177 C2178 1.379 . S
C2178 H2162 0.931 . S
C2178 C2172 1.383 . S
C2178 C2177 1.379 . S
H2179 C2173 0.959 . S
H2180 C2173 0.961 . S
H2181 C2173 0.960 . S
H2182 C2174 0.930 . S
H2183 C2175 0.929 . S
H2184 C2192 0.929 . S
H2185 C2194 0.930 . S
H2186 C2196 0.930 . S
H2187 C2199 0.929 . S
H2188 C2202 0.930 . S
H2189 C2204 0.960 . S
H2190 C2204 0.960 . S
H2191 C2204 0.960 . S
C2192 H2184 0.929 . S
C2192 C2193 1.377 . S
C2192 C2194 1.384 . S
C2193 C2192 1.377 . S
C2193 C2199 1.390 . S
C2194 H2185 0.930 . S
C2194 C2192 1.384 . S
C2194 C2195 1.372 . S
C2195 C2194 1.372 . S
C2195 C2196 1.400 . S
C2195 C2200 1.490 . S
C2196 H2186 0.930 . S
C2196 C2195 1.400 . S
C2196 C2199 1.386 . S
H2197 C2213 0.930 . S
H2198 C2214 0.931 . S
C2199 H2187 0.929 . S
C2199 C2193 1.390 . S
C2199 C2196 1.386 . S
C2200 C2195 1.490 . S
C2200 C2202 1.395 . S
C2200 C2203 1.403 . S
H2201 C2207 0.930 . S
C2202 H2188 0.930 . S
C2202 C2200 1.395 . S
C2202 C2205 1.403 . S
C2203 C2200 1.403 . S
C2203 C2204 1.524 . S
C2203 C2207 1.400 . S
C2204 H2189 0.960 . S
C2204 H2190 0.960 . S
C2204 H2191 0.960 . S
C2204 C2203 1.524 . S
C2205 C2202 1.403 . S
C2205 C2206 1.392 . S
C2205 C2209 1.495 . S
C2206 C2205 1.392 . S
C2206 C2207 1.385 . S
C2206 C2208 1.478 . S
C2207 H2201 0.930 . S
C2207 C2203 1.400 . S
C2207 C2206 1.385 . S
C2208 C2206 1.478 . S
C2208 C2210 1.381 . S
C2208 C2214 1.383 . S
C2209 C2205 1.495 . S
C2209 H2215 0.959 . S
C2209 H2216 0.961 . S
C2209 H2217 0.960 . S
C2210 C2208 1.381 . S
C2210 C2211 1.394 . S
C2210 H2218 0.930 . S
C2211 C2210 1.394 . S
C2211 C2212 1.383 . S
C2211 H2219 0.929 . S
C2212 C2211 1.383 . S
C2212 C2213 1.377 . S
C2213 H2197 0.930 . S
C2213 C2212 1.377 . S
C2213 C2214 1.379 . S
C2214 H2198 0.931 . S
C2214 C2208 1.383 . S
C2214 C2213 1.379 . S
H2215 C2209 0.959 . S
H2216 C2209 0.961 . S
H2217 C2209 0.960 . S
H2218 C2210 0.930 . S
H2219 C2211 0.929 . S
H2220 C2228 0.929 . S
H2221 C2230 0.930 . S
H2222 C2232 0.930 . S
H2223 C2235 0.929 . S
H2224 C2238 0.930 . S
H2225 C2240 0.960 . S
H2226 C2240 0.960 . S
H2227 C2240 0.960 . S
C2228 H2220 0.929 . S
C2228 C2229 1.377 . S
C2228 C2230 1.384 . S
C2229 C2228 1.377 . S
C2229 C2235 1.390 . S
C2230 H2221 0.930 . S
C2230 C2228 1.384 . S
C2230 C2231 1.372 . S
C2231 C2230 1.372 . S
C2231 C2232 1.400 . S
C2231 C2236 1.490 . S
C2232 H2222 0.930 . S
C2232 C2231 1.400 . S
C2232 C2235 1.386 . S
H2233 C2249 0.930 . S
H2234 C2250 0.931 . S
C2235 H2223 0.929 . S
C2235 C2229 1.390 . S
C2235 C2232 1.386 . S
C2236 C2231 1.490 . S
C2236 C2238 1.395 . S
C2236 C2239 1.403 . S
H2237 C2243 0.930 . S
C2238 H2224 0.930 . S
C2238 C2236 1.395 . S
C2238 C2241 1.403 . S
C2239 C2236 1.403 . S
C2239 C2240 1.524 . S
C2239 C2243 1.400 . S
C2240 H2225 0.960 . S
C2240 H2226 0.960 . S
C2240 H2227 0.960 . S
C2240 C2239 1.524 . S
C2241 C2238 1.403 . S
C2241 C2242 1.392 . S
C2241 C2245 1.495 . S
C2242 C2241 1.392 . S
C2242 C2243 1.385 . S
C2242 C2244 1.478 . S
C2243 H2237 0.930 . S
C2243 C2239 1.400 . S
C2243 C2242 1.385 . S
C2244 C2242 1.478 . S
C2244 C2246 1.381 . S
C2244 C2250 1.383 . S
C2245 C2241 1.495 . S
C2245 H2251 0.959 . S
C2245 H2252 0.961 . S
C2245 H2253 0.960 . S
C2246 C2244 1.381 . S
C2246 C2247 1.394 . S
C2246 H2254 0.930 . S
C2247 C2246 1.394 . S
C2247 C2248 1.383 . S
C2247 H2255 0.929 . S
C2248 C2247 1.383 . S
C2248 C2249 1.377 . S
C2249 H2233 0.930 . S
C2249 C2248 1.377 . S
C2249 C2250 1.379 . S
C2250 H2234 0.931 . S
C2250 C2244 1.383 . S
C2250 C2249 1.379 . S
H2251 C2245 0.959 . S
H2252 C2245 0.961 . S
H2253 C2245 0.960 . S
H2254 C2246 0.930 . S
H2255 C2247 0.929 . S
H2256 C2264 0.929 . S
H2257 C2266 0.930 . S
H2258 C2268 0.930 . S
H2259 C2271 0.929 1_556 S
H2260 C2274 0.930 . S
H2261 C2276 0.960 . S
H2262 C2276 0.960 . S
H2263 C2276 0.960 . S
C2264 H2256 0.929 . S
C2264 C2265 1.377 . S
C2264 C2266 1.384 . S
C2265 C2264 1.377 . S
C2265 C2271 1.390 . S
C2266 H2257 0.930 . S
C2266 C2264 1.384 . S
C2266 C2267 1.372 . S
C2267 C2266 1.372 . S
C2267 C2268 1.400 . S
C2267 C2272 1.490 . S
C2268 H2258 0.930 . S
C2268 C2267 1.400 . S
C2268 C2271 1.386 . S
H2269 C2285 0.930 . S
H2270 C2286 0.931 . S
C2271 H2259 0.929 1_554 S
C2271 C2265 1.390 . S
C2271 C2268 1.386 . S
C2272 C2267 1.490 . S
C2272 C2274 1.395 . S
C2272 C2275 1.403 . S
H2273 C2279 0.930 . S
C2274 H2260 0.930 . S
C2274 C2272 1.395 . S
C2274 C2277 1.403 1_565 S
C2275 C2272 1.403 . S
C2275 C2276 1.524 1_554 S
C2275 C2279 1.400 . S
C2276 H2261 0.960 . S
C2276 H2262 0.960 . S
C2276 H2263 0.960 . S
C2276 C2275 1.524 1_556 S
C2277 C2274 1.403 1_545 S
C2277 C2278 1.392 1_545 S
C2277 C2281 1.495 . S
C2278 C2277 1.392 1_565 S
C2278 C2279 1.385 . S
C2278 C2280 1.478 1_565 S
C2279 H2273 0.930 . S
C2279 C2275 1.400 . S
C2279 C2278 1.385 . S
C2280 C2278 1.478 1_545 S
C2280 C2282 1.377 1_545 S
C2280 C2286 1.383 . S
C2281 C2277 1.495 . S
C2281 H2287 0.959 . S
C2281 H2288 0.961 . S
C2281 H2289 0.960 . S
C2282 C2280 1.377 1_565 S
C2282 C2283 1.384 1_565 S
C2282 H2290 0.945 . S
C2283 C2282 1.384 1_545 S
C2283 C2284 1.383 . S
C2283 H2291 0.929 . S
C2284 C2283 1.383 . S
C2284 C2285 1.377 . S
C2285 H2269 0.930 . S
C2285 C2284 1.377 . S
C2285 C2286 1.379 . S
C2286 H2270 0.931 . S
C2286 C2280 1.383 . S
C2286 C2285 1.379 . S
H2287 C2281 0.959 . S
H2288 C2281 0.961 . S
H2289 C2281 0.960 . S
H2290 C2282 0.945 . S
H2291 C2283 0.929 . S
H2292 C2300 0.929 . S
H2293 C2302 0.930 . S
H2294 C2304 0.930 . S
H2295 C2307 0.929 . S
H2296 C2310 0.930 . S
H2297 C2312 0.960 . S
H2298 C2312 0.960 . S
H2299 C2312 0.960 . S
C2300 H2292 0.929 . S
C2300 C2301 1.377 . S
C2300 C2302 1.384 . S
C2301 C2300 1.377 . S
C2301 C2307 1.390 1_556 S
C2302 H2293 0.930 . S
C2302 C2300 1.384 . S
C2302 C2303 1.372 . S
C2303 C2302 1.372 . S
C2303 C2304 1.400 1_556 S
C2303 C2308 1.490 . S
C2304 H2294 0.930 . S
C2304 C2303 1.400 1_554 S
C2304 C2307 1.386 . S
H2305 C2321 0.930 . S
H2306 C2322 0.931 . S
C2307 H2295 0.929 . S
C2307 C2301 1.390 1_554 S
C2307 C2304 1.386 . S
C2308 C2303 1.490 . S
C2308 C2310 1.395 1_556 S
C2308 C2311 1.403 . S
H2309 C2315 0.930 . S
C2310 H2296 0.930 . S
C2310 C2308 1.395 1_554 S
C2310 C2313 1.403 . S
C2311 C2308 1.403 . S
C2311 C2312 1.524 . S
C2311 C2315 1.400 . S
C2312 H2297 0.960 . S
C2312 H2298 0.960 . S
C2312 H2299 0.960 . S
C2312 C2311 1.524 . S
C2313 C2310 1.403 . S
C2313 C2314 1.386 1_554 S
C2313 C2317 1.495 . S
C2314 C2313 1.386 1_556 S
C2314 C2315 1.397 . S
C2314 C2316 1.461 1_556 S
C2315 H2309 0.930 . S
C2315 C2311 1.400 . S
C2315 C2314 1.397 . S
C2316 C2314 1.461 1_554 S
C2316 C2318 1.358 1_554 S
C2316 C2322 1.419 . S
C2317 C2313 1.495 . S
C2317 H2323 0.959 . S
C2317 H2324 0.961 . S
C2317 H2325 0.960 . S
C2318 C2316 1.358 1_556 S
C2318 C2319 1.394 . S
C2318 H2326 0.930 . S
C2319 C2318 1.394 . S
C2319 C2320 1.383 1_556 S
C2319 H2327 0.929 . S
C2320 C2319 1.383 1_554 S
C2320 C2321 1.377 . S
C2321 H2305 0.930 . S
C2321 C2320 1.377 . S
C2321 C2322 1.379 . S
C2322 H2306 0.931 . S
C2322 C2316 1.419 . S
C2322 C2321 1.379 . S
H2323 C2317 0.959 . S
H2324 C2317 0.961 . S
H2325 C2317 0.960 . S
H2326 C2318 0.930 . S
H2327 C2319 0.929 . S
H2328 C2336 0.929 . S
H2329 C2338 0.930 . S
H2330 C2340 0.930 . S
H2331 C2343 0.929 . S
H2332 C2346 0.930 . S
H2333 C2348 0.960 . S
H2334 C2348 0.960 . S
H2335 C2348 0.960 . S
C2336 H2328 0.929 . S
C2336 C2337 1.377 . S
C2336 C2338 1.384 . S
C2337 C2336 1.377 . S
C2337 C2343 1.390 . S
C2338 H2329 0.930 . S
C2338 C2336 1.384 . S
C2338 C2339 1.372 . S
C2339 C2338 1.372 . S
C2339 C2340 1.400 . S
C2339 C2344 1.490 . S
C2340 H2330 0.930 . S
C2340 C2339 1.400 . S
C2340 C2343 1.386 . S
H2341 C2357 0.930 . S
H2342 C2358 0.931 . S
C2343 H2331 0.929 . S
C2343 C2337 1.390 . S
C2343 C2340 1.386 . S
C2344 C2339 1.490 . S
C2344 C2346 1.395 . S
C2344 C2347 1.403 . S
H2345 C2351 0.930 . S
C2346 H2332 0.930 . S
C2346 C2344 1.395 . S
C2346 C2349 1.403 . S
C2347 C2344 1.403 . S
C2347 C2348 1.524 . S
C2347 C2351 1.400 . S
C2348 H2333 0.960 . S
C2348 H2334 0.960 . S
C2348 H2335 0.960 . S
C2348 C2347 1.524 . S
C2349 C2346 1.403 . S
C2349 C2350 1.392 . S
C2349 C2353 1.495 . S
C2350 C2349 1.392 . S
C2350 C2351 1.385 . S
C2350 C2352 1.478 . S
C2351 H2345 0.930 . S
C2351 C2347 1.400 . S
C2351 C2350 1.385 . S
C2352 C2350 1.478 . S
C2352 C2354 1.381 . S
C2352 C2358 1.383 . S
C2353 C2349 1.495 . S
C2353 H2359 0.959 . S
C2353 H2360 0.961 . S
C2353 H2361 0.960 . S
C2354 C2352 1.381 . S
C2354 C2355 1.394 . S
C2354 H2362 0.930 . S
C2355 C2354 1.394 . S
C2355 C2356 1.383 . S
C2355 H2363 0.929 . S
C2356 C2355 1.383 . S
C2356 C2357 1.377 . S
C2357 H2341 0.930 . S
C2357 C2356 1.377 . S
C2357 C2358 1.379 . S
C2358 H2342 0.931 . S
C2358 C2352 1.383 . S
C2358 C2357 1.379 . S
H2359 C2353 0.959 . S
H2360 C2353 0.961 . S
H2361 C2353 0.960 . S
H2362 C2354 0.930 . S
H2363 C2355 0.929 . S
H2364 C2372 0.929 . S
H2365 C2374 0.930 . S
H2366 C2376 0.930 . S
H2367 C2379 0.929 . S
H2368 C2382 0.930 . S
H2369 C2384 0.960 . S
H2370 C2384 0.960 . S
H2371 C2384 0.960 . S
C2372 H2364 0.929 . S
C2372 C2373 1.377 . S
C2372 C2374 1.384 . S
C2373 C2372 1.377 . S
C2373 C2379 1.390 . S
C2374 H2365 0.930 . S
C2374 C2372 1.384 . S
C2374 C2375 1.372 . S
C2375 C2374 1.372 . S
C2375 C2376 1.400 . S
C2375 C2380 1.490 . S
C2376 H2366 0.930 . S
C2376 C2375 1.400 . S
C2376 C2379 1.386 . S
H2377 C2393 0.930 . S
H2378 C2394 0.931 . S
C2379 H2367 0.929 . S
C2379 C2373 1.390 . S
C2379 C2376 1.386 . S
C2380 C2375 1.490 . S
C2380 C2382 1.395 . S
C2380 C2383 1.403 . S
H2381 C2387 0.930 . S
C2382 H2368 0.930 . S
C2382 C2380 1.395 . S
C2382 C2385 1.403 . S
C2383 C2380 1.403 . S
C2383 C2384 1.524 . S
C2383 C2387 1.400 . S
C2384 H2369 0.960 . S
C2384 H2370 0.960 . S
C2384 H2371 0.960 . S
C2384 C2383 1.524 . S
C2385 C2382 1.403 . S
C2385 C2386 1.392 . S
C2385 C2389 1.495 . S
C2386 C2385 1.392 . S
C2386 C2387 1.385 . S
C2386 C2388 1.478 . S
C2387 H2381 0.930 . S
C2387 C2383 1.400 . S
C2387 C2386 1.385 . S
C2388 C2386 1.478 . S
C2388 C2390 1.381 . S
C2388 C2394 1.383 . S
C2389 C2385 1.495 . S
C2389 H2395 0.959 . S
C2389 H2396 0.961 . S
C2389 H2397 0.960 . S
C2390 C2388 1.381 . S
C2390 C2391 1.394 . S
C2390 H2398 0.930 . S
C2391 C2390 1.394 . S
C2391 C2392 1.383 1_655 S
C2391 H2399 0.928 . S
C2392 C2391 1.383 1_455 S
C2392 C2393 1.377 . S
C2393 H2377 0.930 . S
C2393 C2392 1.377 . S
C2393 C2394 1.379 1_455 S
C2394 H2378 0.931 . S
C2394 C2388 1.383 . S
C2394 C2393 1.379 1_655 S
H2395 C2389 0.959 . S
H2396 C2389 0.961 . S
H2397 C2389 0.960 . S
H2398 C2390 0.930 . S
H2399 C2391 0.928 . S
H2400 C2408 0.929 . S
H2401 C2410 0.930 . S
H2402 C2412 0.930 . S
H2403 C2415 0.929 . S
H2404 C2418 0.930 . S
H2405 C2420 0.960 . S
H2406 C2420 0.960 . S
H2407 C2420 0.960 . S
C2408 H2400 0.929 . S
C2408 C2409 1.377 . S
C2408 C2410 1.384 . S
C2409 C2408 1.377 . S
C2409 C2415 1.390 . S
C2410 H2401 0.930 . S
C2410 C2408 1.384 . S
C2410 C2411 1.372 . S
C2411 C2410 1.372 . S
C2411 C2412 1.400 . S
C2411 C2416 1.490 . S
C2412 H2402 0.930 . S
C2412 C2411 1.400 . S
C2412 C2415 1.386 . S
H2413 C2429 0.930 . S
H2414 C2430 0.931 . S
C2415 H2403 0.929 . S
C2415 C2409 1.390 . S
C2415 C2412 1.386 . S
C2416 C2411 1.490 . S
C2416 C2418 1.395 . S
C2416 C2419 1.403 . S
H2417 C2423 0.930 . S
C2418 H2404 0.930 . S
C2418 C2416 1.395 . S
C2418 C2421 1.403 . S
C2419 C2416 1.403 . S
C2419 C2420 1.524 . S
C2419 C2423 1.400 . S
C2420 H2405 0.960 . S
C2420 H2406 0.960 . S
C2420 H2407 0.960 . S
C2420 C2419 1.524 . S
C2421 C2418 1.403 . S
C2421 C2422 1.392 . S
C2421 C2425 1.495 . S
C2422 C2421 1.392 . S
C2422 C2423 1.385 . S
C2422 C2424 1.478 . S
C2423 H2417 0.930 . S
C2423 C2419 1.400 . S
C2423 C2422 1.385 . S
C2424 C2422 1.478 . S
C2424 C2426 1.381 . S
C2424 C2430 1.383 . S
C2425 C2421 1.495 . S
C2425 H2431 0.959 . S
C2425 H2432 0.961 . S
C2425 H2433 0.960 . S
C2426 C2424 1.381 . S
C2426 C2427 1.394 . S
C2426 H2434 0.930 . S
C2427 C2426 1.394 . S
C2427 C2428 1.383 . S
C2427 H2435 0.929 . S
C2428 C2427 1.383 . S
C2428 C2429 1.377 . S
C2429 H2413 0.930 . S
C2429 C2428 1.377 . S
C2429 C2430 1.379 . S
C2430 H2414 0.931 . S
C2430 C2424 1.383 . S
C2430 C2429 1.379 . S
H2431 C2425 0.959 . S
H2432 C2425 0.961 . S
H2433 C2425 0.960 . S
H2434 C2426 0.930 . S
H2435 C2427 0.929 . S
H2436 C2444 0.929 . S
H2437 C2446 0.930 . S
H2438 C2448 0.930 . S
H2439 C2451 0.929 . S
H2440 C2454 0.930 . S
H2441 C2456 0.960 . S
H2442 C2456 0.960 . S
H2443 C2456 0.960 . S
C2444 H2436 0.929 . S
C2444 C2445 1.377 . S
C2444 C2446 1.384 . S
C2445 C2444 1.377 . S
C2445 C2451 1.390 . S
C2446 H2437 0.930 . S
C2446 C2444 1.384 . S
C2446 C2447 1.372 . S
C2447 C2446 1.372 . S
C2447 C2448 1.400 . S
C2447 C2452 1.490 . S
C2448 H2438 0.930 . S
C2448 C2447 1.400 . S
C2448 C2451 1.386 . S
H2449 C2465 0.930 . S
H2450 C2466 0.931 . S
C2451 H2439 0.929 . S
C2451 C2445 1.390 . S
C2451 C2448 1.386 . S
C2452 C2447 1.490 . S
C2452 C2454 1.395 . S
C2452 C2455 1.403 . S
H2453 C2459 0.930 . S
C2454 H2440 0.930 . S
C2454 C2452 1.395 . S
C2454 C2457 1.403 . S
C2455 C2452 1.403 . S
C2455 C2456 1.524 . S
C2455 C2459 1.400 . S
C2456 H2441 0.960 . S
C2456 H2442 0.960 . S
C2456 H2443 0.960 . S
C2456 C2455 1.524 . S
C2457 C2454 1.403 . S
C2457 C2458 1.392 . S
C2457 C2461 1.495 . S
C2458 C2457 1.392 . S
C2458 C2459 1.385 . S
C2458 C2460 1.478 . S
C2459 H2453 0.930 . S
C2459 C2455 1.400 . S
C2459 C2458 1.385 . S
C2460 C2458 1.478 . S
C2460 C2462 1.381 . S
C2460 C2466 1.383 . S
C2461 C2457 1.495 . S
C2461 H2467 0.959 . S
C2461 H2468 0.961 . S
C2461 H2469 0.960 . S
C2462 C2460 1.381 . S
C2462 C2463 1.394 . S
C2462 H2470 0.930 . S
C2463 C2462 1.394 . S
C2463 C2464 1.383 . S
C2463 H2471 0.929 . S
C2464 C2463 1.383 . S
C2464 C2465 1.377 . S
C2465 H2449 0.930 . S
C2465 C2464 1.377 . S
C2465 C2466 1.379 . S
C2466 H2450 0.931 . S
C2466 C2460 1.383 . S
C2466 C2465 1.379 . S
H2467 C2461 0.959 . S
H2468 C2461 0.961 . S
H2469 C2461 0.960 . S
H2470 C2462 0.930 . S
H2471 C2463 0.929 . S
H2472 C2480 0.929 . S
H2473 C2482 0.930 . S
H2474 C2484 0.930 . S
H2475 C2487 0.929 . S
H2476 C2490 0.930 . S
H2477 C2492 0.960 . S
H2478 C2492 0.960 . S
H2479 C2492 0.960 . S
C2480 H2472 0.929 . S
C2480 C2481 1.377 . S
C2480 C2482 1.384 . S
C2481 C2480 1.377 . S
C2481 C2487 1.390 . S
C2482 H2473 0.930 . S
C2482 C2480 1.384 . S
C2482 C2483 1.372 . S
C2483 C2482 1.372 . S
C2483 C2484 1.400 . S
C2483 C2488 1.490 . S
C2484 H2474 0.930 . S
C2484 C2483 1.400 . S
C2484 C2487 1.386 . S
H2485 C2501 0.930 . S
H2486 C2502 0.931 . S
C2487 H2475 0.929 . S
C2487 C2481 1.390 . S
C2487 C2484 1.386 . S
C2488 C2483 1.490 . S
C2488 C2490 1.395 . S
C2488 C2491 1.403 . S
H2489 C2495 0.930 . S
C2490 H2476 0.930 . S
C2490 C2488 1.395 . S
C2490 C2493 1.403 . S
C2491 C2488 1.403 . S
C2491 C2492 1.524 . S
C2491 C2495 1.400 . S
C2492 H2477 0.960 . S
C2492 H2478 0.960 . S
C2492 H2479 0.960 . S
C2492 C2491 1.524 . S
C2493 C2490 1.403 . S
C2493 C2494 1.392 . S
C2493 C2497 1.495 . S
C2494 C2493 1.392 . S
C2494 C2495 1.385 . S
C2494 C2496 1.478 . S
C2495 H2489 0.930 . S
C2495 C2491 1.400 . S
C2495 C2494 1.385 . S
C2496 C2494 1.478 . S
C2496 C2498 1.381 . S
C2496 C2502 1.383 . S
C2497 C2493 1.495 . S
C2497 H2503 0.959 . S
C2497 H2504 0.961 . S
C2497 H2505 0.960 . S
C2498 C2496 1.381 . S
C2498 C2499 1.394 . S
C2498 H2506 0.930 . S
C2499 C2498 1.394 . S
C2499 C2500 1.383 . S
C2499 H2507 0.929 . S
C2500 C2499 1.383 . S
C2500 C2501 1.377 . S
C2501 H2485 0.930 . S
C2501 C2500 1.377 . S
C2501 C2502 1.379 . S
C2502 H2486 0.931 . S
C2502 C2496 1.383 . S
C2502 C2501 1.379 . S
H2503 C2497 0.959 . S
H2504 C2497 0.961 . S
H2505 C2497 0.960 . S
H2506 C2498 0.930 . S
H2507 C2499 0.929 . S
H2508 C2516 0.929 . S
H2509 C2518 0.930 . S
H2510 C2520 0.930 . S
H2511 C2523 0.929 . S
H2512 C2526 0.930 . S
H2513 C2528 0.960 . S
H2514 C2528 0.960 . S
H2515 C2528 0.960 . S
C2516 H2508 0.929 . S
C2516 C2517 1.377 . S
C2516 C2518 1.384 . S
C2517 C2516 1.377 . S
C2517 C2523 1.390 . S
C2518 H2509 0.930 . S
C2518 C2516 1.384 . S
C2518 C2519 1.372 . S
C2519 C2518 1.372 . S
C2519 C2520 1.400 . S
C2519 C2524 1.490 . S
C2520 H2510 0.930 . S
C2520 C2519 1.400 . S
C2520 C2523 1.386 . S
H2521 C2537 0.930 . S
H2522 C2538 0.931 . S
C2523 H2511 0.929 . S
C2523 C2517 1.390 . S
C2523 C2520 1.386 . S
C2524 C2519 1.490 . S
C2524 C2526 1.395 . S
C2524 C2527 1.403 . S
H2525 C2531 0.930 . S
C2526 H2512 0.930 . S
C2526 C2524 1.395 . S
C2526 C2529 1.403 . S
C2527 C2524 1.403 . S
C2527 C2528 1.524 . S
C2527 C2531 1.400 . S
C2528 H2513 0.960 . S
C2528 H2514 0.960 . S
C2528 H2515 0.960 . S
C2528 C2527 1.524 . S
C2529 C2526 1.403 . S
C2529 C2530 1.392 . S
C2529 C2533 1.495 . S
C2530 C2529 1.392 . S
C2530 C2531 1.385 . S
C2530 C2532 1.478 . S
C2531 H2525 0.930 . S
C2531 C2527 1.400 . S
C2531 C2530 1.385 . S
C2532 C2530 1.478 . S
C2532 C2534 1.381 . S
C2532 C2538 1.383 . S
C2533 C2529 1.495 . S
C2533 H2539 0.959 . S
C2533 H2540 0.961 . S
C2533 H2541 0.960 . S
C2534 C2532 1.381 . S
C2534 C2535 1.394 . S
C2534 H2542 0.930 . S
C2535 C2534 1.394 . S
C2535 C2536 1.383 . S
C2535 H2543 0.929 . S
C2536 C2535 1.383 . S
C2536 C2537 1.377 . S
C2537 H2521 0.930 . S
C2537 C2536 1.377 . S
C2537 C2538 1.379 . S
C2538 H2522 0.931 . S
C2538 C2532 1.383 . S
C2538 C2537 1.379 . S
H2539 C2533 0.959 . S
H2540 C2533 0.961 . S
H2541 C2533 0.960 . S
H2542 C2534 0.930 . S
H2543 C2535 0.929 . S
H2544 C2552 0.929 . S
H2545 C2554 0.930 . S
H2546 C2556 0.930 . S
H2547 C2559 0.929 . S
H2548 C2562 0.930 . S
H2549 C2564 0.960 . S
H2550 C2564 0.960 . S
H2551 C2564 0.960 . S
C2552 H2544 0.929 . S
C2552 C2553 1.377 . S
C2552 C2554 1.384 . S
C2553 C2552 1.377 . S
C2553 C2559 1.390 . S
C2554 H2545 0.930 . S
C2554 C2552 1.384 . S
C2554 C2555 1.372 . S
C2555 C2554 1.372 . S
C2555 C2556 1.400 . S
C2555 C2560 1.490 . S
C2556 H2546 0.930 . S
C2556 C2555 1.400 . S
C2556 C2559 1.386 . S
H2557 C2573 0.930 . S
H2558 C2574 0.931 . S
C2559 H2547 0.929 . S
C2559 C2553 1.390 . S
C2559 C2556 1.386 . S
C2560 C2555 1.490 . S
C2560 C2562 1.395 . S
C2560 C2563 1.403 . S
H2561 C2567 0.930 . S
C2562 H2548 0.930 . S
C2562 C2560 1.395 . S
C2562 C2565 1.403 . S
C2563 C2560 1.403 . S
C2563 C2564 1.524 . S
C2563 C2567 1.400 . S
C2564 H2549 0.960 . S
C2564 H2550 0.960 . S
C2564 H2551 0.960 . S
C2564 C2563 1.524 . S
C2565 C2562 1.403 . S
C2565 C2566 1.392 . S
C2565 C2569 1.495 . S
C2566 C2565 1.392 . S
C2566 C2567 1.385 . S
C2566 C2568 1.478 . S
C2567 H2561 0.930 . S
C2567 C2563 1.400 . S
C2567 C2566 1.385 . S
C2568 C2566 1.478 . S
C2568 C2570 1.381 . S
C2568 C2574 1.383 . S
C2569 C2565 1.495 . S
C2569 H2575 0.959 . S
C2569 H2576 0.961 . S
C2569 H2577 0.960 . S
C2570 C2568 1.381 . S
C2570 C2571 1.394 . S
C2570 H2578 0.930 . S
C2571 C2570 1.394 . S
C2571 C2572 1.383 . S
C2571 H2579 0.952 . S
C2572 C2571 1.383 . S
C2572 C2573 1.377 . S
C2573 H2557 0.930 . S
C2573 C2572 1.377 . S
C2573 C2574 1.379 . S
C2574 H2558 0.931 . S
C2574 C2568 1.383 . S
C2574 C2573 1.379 . S
H2575 C2569 0.959 . S
H2576 C2569 0.961 . S
H2577 C2569 0.960 . S
H2578 C2570 0.930 . S
H2579 C2571 0.952 . S
H2580 C2588 0.929 . S
H2581 C2590 0.930 . S
H2582 C2592 0.930 . S
H2583 C2595 0.929 . S
H2584 C2598 0.930 . S
H2585 C2600 0.960 . S
H2586 C2600 0.960 . S
H2587 C2600 0.960 . S
C2588 H2580 0.929 . S
C2588 C2589 1.377 . S
C2588 C2590 1.384 . S
C2589 C2588 1.377 . S
C2589 C2595 1.390 . S
C2590 H2581 0.930 . S
C2590 C2588 1.384 . S
C2590 C2591 1.372 . S
C2591 C2590 1.372 . S
C2591 C2592 1.400 . S
C2591 C2596 1.490 . S
C2592 H2582 0.930 . S
C2592 C2591 1.400 . S
C2592 C2595 1.386 . S
H2593 C2609 0.930 . S
H2594 C2610 0.931 . S
C2595 H2583 0.929 . S
C2595 C2589 1.390 . S
C2595 C2592 1.386 . S
C2596 C2591 1.490 . S
C2596 C2598 1.395 . S
C2596 C2599 1.403 . S
H2597 C2603 0.930 . S
C2598 H2584 0.930 . S
C2598 C2596 1.395 . S
C2598 C2601 1.403 . S
C2599 C2596 1.403 . S
C2599 C2600 1.524 . S
C2599 C2603 1.400 . S
C2600 H2585 0.960 . S
C2600 H2586 0.960 . S
C2600 H2587 0.960 . S
C2600 C2599 1.524 . S
C2601 C2598 1.403 . S
C2601 C2602 1.392 . S
C2601 C2605 1.495 . S
C2602 C2601 1.392 . S
C2602 C2603 1.385 . S
C2602 C2604 1.478 . S
C2603 H2597 0.930 . S
C2603 C2599 1.400 . S
C2603 C2602 1.385 . S
C2604 C2602 1.478 . S
C2604 C2606 1.381 . S
C2604 C2610 1.383 . S
C2605 C2601 1.495 . S
C2605 H2611 0.959 . S
C2605 H2612 0.961 . S
C2605 H2613 0.960 . S
C2606 C2604 1.381 . S
C2606 C2607 1.394 . S
C2606 H2614 0.930 . S
C2607 C2606 1.394 . S
C2607 C2608 1.383 . S
C2607 H2615 0.929 . S
C2608 C2607 1.383 . S
C2608 C2609 1.377 . S
C2609 H2593 0.930 . S
C2609 C2608 1.377 . S
C2609 C2610 1.379 . S
C2610 H2594 0.931 . S
C2610 C2604 1.383 . S
C2610 C2609 1.379 . S
H2611 C2605 0.959 . S
H2612 C2605 0.961 . S
H2613 C2605 0.960 . S
H2614 C2606 0.930 . S
H2615 C2607 0.929 . S
H2616 C2624 0.929 . S
H2617 C2626 0.930 . S
H2618 C2628 0.930 . S
H2619 C2631 0.929 . S
H2620 C2634 0.930 . S
H2621 C2636 0.960 . S
H2622 C2636 0.960 . S
H2623 C2636 0.960 . S
C2624 H2616 0.929 . S
C2624 C2625 1.377 . S
C2624 C2626 1.384 . S
C2625 C2624 1.377 . S
C2625 C2631 1.390 . S
C2626 H2617 0.930 . S
C2626 C2624 1.384 . S
C2626 C2627 1.372 . S
C2627 C2626 1.372 . S
C2627 C2628 1.400 . S
C2627 C2632 1.490 . S
C2628 H2618 0.930 . S
C2628 C2627 1.400 . S
C2628 C2631 1.386 . S
H2629 C2645 0.930 . S
H2630 C2646 0.931 . S
C2631 H2619 0.929 . S
C2631 C2625 1.390 . S
C2631 C2628 1.386 . S
C2632 C2627 1.490 . S
C2632 C2634 1.395 . S
C2632 C2635 1.403 . S
H2633 C2639 0.930 . S
C2634 H2620 0.930 . S
C2634 C2632 1.395 . S
C2634 C2637 1.403 . S
C2635 C2632 1.403 . S
C2635 C2636 1.524 . S
C2635 C2639 1.400 . S
C2636 H2621 0.960 . S
C2636 H2622 0.960 . S
C2636 H2623 0.960 . S
C2636 C2635 1.524 . S
C2637 C2634 1.403 . S
C2637 C2638 1.392 . S
C2637 C2641 1.495 . S
C2638 C2637 1.392 . S
C2638 C2639 1.385 . S
C2638 C2640 1.478 . S
C2639 H2633 0.930 . S
C2639 C2635 1.400 . S
C2639 C2638 1.385 . S
C2640 C2638 1.478 . S
C2640 C2642 1.381 . S
C2640 C2646 1.383 . S
C2641 C2637 1.495 . S
C2641 H2647 0.959 . S
C2641 H2648 0.961 . S
C2641 H2649 0.960 . S
C2642 C2640 1.381 . S
C2642 C2643 1.394 . S
C2642 H2650 0.930 . S
C2643 C2642 1.394 . S
C2643 C2644 1.383 . S
C2643 H2651 0.929 . S
C2644 C2643 1.383 . S
C2644 C2645 1.377 . S
C2645 H2629 0.930 . S
C2645 C2644 1.377 . S
C2645 C2646 1.379 . S
C2646 H2630 0.931 . S
C2646 C2640 1.383 . S
C2646 C2645 1.379 . S
H2647 C2641 0.959 . S
H2648 C2641 0.961 . S
H2649 C2641 0.960 . S
H2650 C2642 0.930 . S
H2651 C2643 0.929 . S
H2652 C2660 0.929 . S
H2653 C2662 0.930 . S
H2654 C2664 0.930 . S
H2655 C2667 0.929 . S
H2656 C2670 0.930 . S
H2657 C2672 0.960 . S
H2658 C2672 0.960 . S
H2659 C2672 0.960 . S
C2660 H2652 0.929 . S
C2660 C2661 1.377 . S
C2660 C2662 1.384 . S
C2661 C2660 1.377 . S
C2661 C2667 1.390 . S
C2662 H2653 0.930 . S
C2662 C2660 1.384 . S
C2662 C2663 1.372 . S
C2663 C2662 1.372 . S
C2663 C2664 1.400 . S
C2663 C2668 1.490 . S
C2664 H2654 0.930 . S
C2664 C2663 1.400 . S
C2664 C2667 1.386 . S
H2665 C2681 0.930 . S
H2666 C2682 0.931 . S
C2667 H2655 0.929 . S
C2667 C2661 1.390 . S
C2667 C2664 1.386 . S
C2668 C2663 1.490 . S
C2668 C2670 1.395 . S
C2668 C2671 1.403 . S
H2669 C2675 0.930 . S
C2670 H2656 0.930 . S
C2670 C2668 1.395 . S
C2670 C2673 1.403 . S
C2671 C2668 1.403 . S
C2671 C2672 1.524 . S
C2671 C2675 1.400 . S
C2672 H2657 0.960 . S
C2672 H2658 0.960 . S
C2672 H2659 0.960 . S
C2672 C2671 1.524 . S
C2673 C2670 1.403 . S
C2673 C2674 1.392 . S
C2673 C2677 1.495 . S
C2674 C2673 1.392 . S
C2674 C2675 1.385 . S
C2674 C2676 1.478 . S
C2675 H2669 0.930 . S
C2675 C2671 1.400 . S
C2675 C2674 1.385 . S
C2676 C2674 1.478 . S
C2676 C2678 1.381 . S
C2676 C2682 1.383 . S
C2677 C2673 1.495 . S
C2677 H2683 0.959 . S
C2677 H2684 0.961 . S
C2677 H2685 0.960 . S
C2678 C2676 1.381 . S
C2678 C2679 1.394 . S
C2678 H2686 0.930 . S
C2679 C2678 1.394 . S
C2679 C2680 1.383 . S
C2679 H2687 0.929 . S
C2680 C2679 1.383 . S
C2680 C2681 1.377 . S
C2681 H2665 0.930 . S
C2681 C2680 1.377 . S
C2681 C2682 1.379 . S
C2682 H2666 0.931 . S
C2682 C2676 1.383 . S
C2682 C2681 1.379 . S
H2683 C2677 0.959 . S
H2684 C2677 0.961 . S
H2685 C2677 0.960 . S
H2686 C2678 0.930 . S
H2687 C2679 0.929 . S
H2688 C2696 0.929 . S
H2689 C2698 0.930 . S
H2690 C2700 0.930 . S
H2691 C2703 0.929 . S
H2692 C2706 0.930 . S
H2693 C2708 0.960 . S
H2694 C2708 0.960 . S
H2695 C2708 0.960 . S
C2696 H2688 0.929 . S
C2696 C2697 1.377 . S
C2696 C2698 1.384 . S
C2697 C2696 1.377 . S
C2697 C2703 1.390 . S
C2698 H2689 0.930 . S
C2698 C2696 1.384 . S
C2698 C2699 1.372 . S
C2699 C2698 1.372 . S
C2699 C2700 1.400 . S
C2699 C2704 1.490 . S
C2700 H2690 0.930 . S
C2700 C2699 1.400 . S
C2700 C2703 1.386 . S
H2701 C2717 0.930 . S
H2702 C2718 0.931 . S
C2703 H2691 0.929 . S
C2703 C2697 1.390 . S
C2703 C2700 1.386 . S
C2704 C2699 1.490 . S
C2704 C2706 1.395 . S
C2704 C2707 1.403 . S
H2705 C2711 0.930 . S
C2706 H2692 0.930 . S
C2706 C2704 1.395 . S
C2706 C2709 1.403 . S
C2707 C2704 1.403 . S
C2707 C2708 1.524 . S
C2707 C2711 1.400 . S
C2708 H2693 0.960 . S
C2708 H2694 0.960 . S
C2708 H2695 0.960 . S
C2708 C2707 1.524 . S
C2709 C2706 1.403 . S
C2709 C2710 1.392 . S
C2709 C2713 1.495 . S
C2710 C2709 1.392 . S
C2710 C2711 1.385 . S
C2710 C2712 1.478 . S
C2711 H2705 0.930 . S
C2711 C2707 1.400 . S
C2711 C2710 1.385 . S
C2712 C2710 1.478 . S
C2712 C2714 1.381 . S
C2712 C2718 1.383 . S
C2713 C2709 1.495 . S
C2713 H2719 0.959 . S
C2713 H2720 0.961 . S
C2713 H2721 0.960 . S
C2714 C2712 1.381 . S
C2714 C2715 1.394 . S
C2714 H2722 0.930 . S
C2715 C2714 1.394 . S
C2715 C2716 1.383 . S
C2715 H2723 0.929 . S
C2716 C2715 1.383 . S
C2716 C2717 1.377 . S
C2717 H2701 0.930 . S
C2717 C2716 1.377 . S
C2717 C2718 1.379 . S
C2718 H2702 0.931 . S
C2718 C2712 1.383 . S
C2718 C2717 1.379 . S
H2719 C2713 0.959 . S
H2720 C2713 0.961 . S
H2721 C2713 0.960 . S
H2722 C2714 0.930 . S
H2723 C2715 0.929 . S
H2724 C2732 0.929 . S
H2725 C2734 0.930 . S
H2726 C2736 0.930 . S
H2727 C2739 0.929 . S
H2728 C2742 0.930 . S
H2729 C2744 0.960 . S
H2730 C2744 0.960 . S
H2731 C2744 0.960 . S
C2732 H2724 0.929 . S
C2732 C2733 1.377 . S
C2732 C2734 1.384 . S
C2733 C2732 1.377 . S
C2733 C2739 1.390 . S
C2734 H2725 0.930 . S
C2734 C2732 1.384 . S
C2734 C2735 1.372 . S
C2735 C2734 1.372 . S
C2735 C2736 1.400 . S
C2735 C2740 1.490 . S
C2736 H2726 0.930 . S
C2736 C2735 1.400 . S
C2736 C2739 1.386 . S
H2737 C2753 0.930 . S
H2738 C2754 0.931 . S
C2739 H2727 0.929 . S
C2739 C2733 1.390 . S
C2739 C2736 1.386 . S
C2740 C2735 1.490 . S
C2740 C2742 1.395 . S
C2740 C2743 1.403 . S
H2741 C2747 0.930 . S
C2742 H2728 0.930 . S
C2742 C2740 1.395 . S
C2742 C2745 1.403 . S
C2743 C2740 1.403 . S
C2743 C2744 1.524 . S
C2743 C2747 1.400 . S
C2744 H2729 0.960 . S
C2744 H2730 0.960 . S
C2744 H2731 0.960 . S
C2744 C2743 1.524 . S
C2745 C2742 1.403 . S
C2745 C2746 1.392 . S
C2745 C2749 1.495 . S
C2746 C2745 1.392 . S
C2746 C2747 1.385 . S
C2746 C2748 1.478 . S
C2747 H2741 0.930 . S
C2747 C2743 1.400 . S
C2747 C2746 1.385 . S
C2748 C2746 1.478 . S
C2748 C2750 1.381 . S
C2748 C2754 1.383 . S
C2749 C2745 1.495 . S
C2749 H2755 0.959 . S
C2749 H2756 0.961 . S
C2749 H2757 0.960 . S
C2750 C2748 1.381 . S
C2750 C2751 1.394 . S
C2750 H2758 0.930 . S
C2751 C2750 1.394 . S
C2751 C2752 1.383 . S
C2751 H2759 0.929 . S
C2752 C2751 1.383 . S
C2752 C2753 1.377 . S
C2753 H2737 0.930 . S
C2753 C2752 1.377 . S
C2753 C2754 1.379 . S
C2754 H2738 0.931 . S
C2754 C2748 1.383 . S
C2754 C2753 1.379 . S
H2755 C2749 0.959 . S
H2756 C2749 0.961 . S
H2757 C2749 0.960 . S
H2758 C2750 0.930 . S
H2759 C2751 0.929 . S
H2760 C2768 0.929 . S
H2761 C2770 0.930 . S
H2762 C2772 0.930 . S
H2763 C2775 0.929 . S
H2764 C2778 0.930 . S
H2765 C2780 0.960 . S
H2766 C2780 0.960 . S
H2767 C2780 0.960 . S
C2768 H2760 0.929 . S
C2768 C2769 1.377 . S
C2768 C2770 1.384 . S
C2769 C2768 1.377 . S
C2769 C2775 1.390 . S
C2770 H2761 0.930 . S
C2770 C2768 1.384 . S
C2770 C2771 1.372 . S
C2771 C2770 1.372 . S
C2771 C2772 1.400 . S
C2771 C2776 1.490 . S
C2772 H2762 0.930 . S
C2772 C2771 1.400 . S
C2772 C2775 1.386 . S
H2773 C2789 0.930 . S
H2774 C2790 0.931 . S
C2775 H2763 0.929 . S
C2775 C2769 1.390 . S
C2775 C2772 1.386 . S
C2776 C2771 1.490 . S
C2776 C2778 1.395 . S
C2776 C2779 1.403 . S
H2777 C2783 0.930 . S
C2778 H2764 0.930 . S
C2778 C2776 1.395 . S
C2778 C2781 1.403 . S
C2779 C2776 1.403 . S
C2779 C2780 1.524 . S
C2779 C2783 1.400 . S
C2780 H2765 0.960 . S
C2780 H2766 0.960 . S
C2780 H2767 0.960 . S
C2780 C2779 1.524 . S
C2781 C2778 1.403 . S
C2781 C2782 1.392 . S
C2781 C2785 1.495 . S
C2782 C2781 1.392 . S
C2782 C2783 1.385 . S
C2782 C2784 1.478 . S
C2783 H2777 0.930 . S
C2783 C2779 1.400 . S
C2783 C2782 1.385 . S
C2784 C2782 1.478 . S
C2784 C2786 1.381 . S
C2784 C2790 1.383 . S
C2785 C2781 1.495 . S
C2785 H2791 0.959 . S
C2785 H2792 0.961 . S
C2785 H2793 0.960 . S
C2786 C2784 1.381 . S
C2786 C2787 1.394 1_565 S
C2786 H2794 0.930 . S
C2787 C2786 1.394 1_545 S
C2787 C2788 1.383 . S
C2787 H2795 0.929 . S
C2788 C2787 1.383 . S
C2788 C2789 1.377 1_545 S
C2789 H2773 0.930 . S
C2789 C2788 1.377 1_565 S
C2789 C2790 1.379 . S
C2790 H2774 0.931 . S
C2790 C2784 1.383 . S
C2790 C2789 1.379 . S
H2791 C2785 0.959 . S
H2792 C2785 0.961 . S
H2793 C2785 0.960 . S
H2794 C2786 0.930 . S
H2795 C2787 0.929 . S
H2796 C2804 0.929 . S
H2797 C2806 0.930 . S
H2798 C2808 0.930 . S
H2799 C2811 0.929 . S
H2800 C2814 0.930 . S
H2801 C2816 0.960 . S
H2802 C2816 0.960 . S
H2803 C2816 0.960 . S
C2804 H2796 0.929 . S
C2804 C2805 1.377 . S
C2804 C2806 1.384 . S
C2805 C2804 1.377 . S
C2805 C2811 1.390 . S
C2806 H2797 0.930 . S
C2806 C2804 1.384 . S
C2806 C2807 1.372 . S
C2807 C2806 1.372 . S
C2807 C2808 1.400 . S
C2807 C2812 1.490 . S
C2808 H2798 0.930 . S
C2808 C2807 1.400 . S
C2808 C2811 1.386 . S
H2809 C2825 0.930 . S
H2810 C2826 0.931 . S
C2811 H2799 0.929 . S
C2811 C2805 1.390 . S
C2811 C2808 1.386 . S
C2812 C2807 1.490 . S
C2812 C2814 1.395 . S
C2812 C2815 1.403 . S
H2813 C2819 0.930 . S
C2814 H2800 0.930 . S
C2814 C2812 1.395 . S
C2814 C2817 1.403 . S
C2815 C2812 1.403 . S
C2815 C2816 1.524 . S
C2815 C2819 1.400 . S
C2816 H2801 0.960 . S
C2816 H2802 0.960 . S
C2816 H2803 0.960 . S
C2816 C2815 1.524 . S
C2817 C2814 1.403 . S
C2817 C2818 1.392 . S
C2817 C2821 1.495 . S
C2818 C2817 1.392 . S
C2818 C2819 1.385 . S
C2818 C2820 1.478 . S
C2819 H2813 0.930 . S
C2819 C2815 1.400 . S
C2819 C2818 1.385 . S
C2820 C2818 1.478 . S
C2820 C2822 1.381 . S
C2820 C2826 1.383 . S
C2821 C2817 1.495 . S
C2821 H2827 0.959 . S
C2821 H2828 0.961 . S
C2821 H2829 0.960 . S
C2822 C2820 1.381 . S
C2822 C2823 1.394 . S
C2822 H2830 0.930 . S
C2823 C2822 1.394 . S
C2823 C2824 1.383 . S
C2823 H2831 0.929 . S
C2824 C2823 1.383 . S
C2824 C2825 1.377 . S
C2825 H2809 0.930 . S
C2825 C2824 1.377 . S
C2825 C2826 1.379 . S
C2826 H2810 0.931 . S
C2826 C2820 1.383 . S
C2826 C2825 1.379 . S
H2827 C2821 0.959 . S
H2828 C2821 0.961 . S
H2829 C2821 0.960 . S
H2830 C2822 0.930 . S
H2831 C2823 0.929 . S
H2832 C2840 0.929 . S
H2833 C2842 0.924 1_565 S
H2834 C2844 0.930 . S
H2835 C2847 0.929 . S
H2836 C2850 0.930 . S
H2837 C2852 0.960 . S
H2838 C2852 0.960 . S
H2839 C2852 0.960 . S
C2840 H2832 0.929 . S
C2840 C2841 1.377 1_565 S
C2840 C2842 1.384 1_565 S
C2841 C2840 1.377 1_545 S
C2841 C2847 1.390 . S
C2842 H2833 0.924 1_545 S
C2842 C2840 1.384 1_545 S
C2842 C2843 1.378 . S
C2843 C2842 1.378 . S
C2843 C2844 1.400 . S
C2843 C2848 1.490 . S
C2844 H2834 0.930 . S
C2844 C2843 1.400 . S
C2844 C2847 1.386 . S
H2845 C2861 0.930 . S
H2846 C2862 0.931 . S
C2847 H2835 0.929 . S
C2847 C2841 1.390 . S
C2847 C2844 1.386 . S
C2848 C2843 1.490 . S
C2848 C2850 1.395 . S
C2848 C2851 1.403 . S
H2849 C2855 0.930 . S
C2850 H2836 0.930 . S
C2850 C2848 1.395 . S
C2850 C2853 1.403 . S
C2851 C2848 1.403 . S
C2851 C2852 1.524 1_545 S
C2851 C2855 1.400 . S
C2852 H2837 0.960 . S
C2852 H2838 0.960 . S
C2852 H2839 0.960 . S
C2852 C2851 1.524 1_565 S
C2853 C2850 1.403 . S
C2853 C2854 1.392 . S
C2853 C2857 1.495 . S
C2854 C2853 1.392 . S
C2854 C2855 1.385 . S
C2854 C2856 1.478 . S
C2855 H2849 0.930 . S
C2855 C2851 1.400 . S
C2855 C2854 1.385 . S
C2856 C2854 1.478 . S
C2856 C2858 1.381 . S
C2856 C2862 1.383 . S
C2857 C2853 1.495 . S
C2857 H2863 0.959 . S
C2857 H2864 0.961 . S
C2857 H2865 0.960 . S
C2858 C2856 1.381 . S
C2858 C2859 1.394 . S
C2858 H2866 0.930 . S
C2859 C2858 1.394 . S
C2859 C2860 1.383 . S
C2859 H2867 0.929 . S
C2860 C2859 1.383 . S
C2860 C2861 1.377 . S
C2861 H2845 0.930 . S
C2861 C2860 1.377 . S
C2861 C2862 1.379 . S
C2862 H2846 0.931 . S
C2862 C2856 1.383 . S
C2862 C2861 1.379 . S
H2863 C2857 0.959 . S
H2864 C2857 0.961 . S
H2865 C2857 0.960 . S
H2866 C2858 0.930 . S
H2867 C2859 0.929 . S
H2868 C2876 0.929 . S
H2869 C2878 0.930 . S
H2870 C2880 0.930 . S
H2871 C2883 0.929 . S
H2872 C2886 0.930 . S
H2873 C2888 0.960 . S
H2874 C2888 0.960 . S
H2875 C2888 0.960 . S
C2876 H2868 0.929 . S
C2876 C2877 1.377 . S
C2876 C2878 1.384 . S
C2877 C2876 1.377 . S
C2877 C2883 1.390 . S
C2878 H2869 0.930 . S
C2878 C2876 1.384 . S
C2878 C2879 1.372 . S
C2879 C2878 1.372 . S
C2879 C2880 1.400 . S
C2879 C2884 1.490 . S
C2880 H2870 0.930 . S
C2880 C2879 1.400 . S
C2880 C2883 1.386 . S
H2881 C2897 0.930 . S
H2882 C2898 0.931 . S
C2883 H2871 0.929 . S
C2883 C2877 1.390 . S
C2883 C2880 1.386 . S
C2884 C2879 1.490 . S
C2884 C2886 1.395 . S
C2884 C2887 1.403 . S
H2885 C2891 0.930 . S
C2886 H2872 0.930 . S
C2886 C2884 1.395 . S
C2886 C2889 1.403 . S
C2887 C2884 1.403 . S
C2887 C2888 1.524 . S
C2887 C2891 1.400 . S
C2888 H2873 0.960 . S
C2888 H2874 0.960 . S
C2888 H2875 0.960 . S
C2888 C2887 1.524 . S
C2889 C2886 1.403 . S
C2889 C2890 1.392 . S
C2889 C2893 1.495 . S
C2890 C2889 1.392 . S
C2890 C2891 1.385 . S
C2890 C2892 1.478 . S
C2891 H2885 0.930 . S
C2891 C2887 1.400 . S
C2891 C2890 1.385 . S
C2892 C2890 1.478 . S
C2892 C2894 1.381 . S
C2892 C2898 1.383 . S
C2893 C2889 1.495 . S
C2893 H2899 0.959 . S
C2893 H2900 0.961 . S
C2893 H2901 0.960 . S
C2894 C2892 1.381 . S
C2894 C2895 1.394 . S
C2894 H2902 0.930 . S
C2895 C2894 1.394 . S
C2895 C2896 1.383 . S
C2895 H2903 0.929 . S
C2896 C2895 1.383 . S
C2896 C2897 1.377 . S
C2897 H2881 0.930 . S
C2897 C2896 1.377 . S
C2897 C2898 1.379 . S
C2898 H2882 0.931 . S
C2898 C2892 1.383 . S
C2898 C2897 1.379 . S
H2899 C2893 0.959 . S
H2900 C2893 0.961 . S
H2901 C2893 0.960 . S
H2902 C2894 0.930 . S
H2903 C2895 0.929 . S
H2904 C2912 0.929 . S
H2905 C2914 0.930 . S
H2906 C2916 0.930 . S
H2907 C2919 0.929 . S
H2908 C2922 0.930 . S
H2909 C2924 0.960 . S
H2910 C2924 0.960 . S
H2911 C2924 0.960 . S
C2912 H2904 0.929 . S
C2912 C2913 1.377 . S
C2912 C2914 1.384 . S
C2913 C2912 1.377 . S
C2913 C2919 1.390 . S
C2914 H2905 0.930 . S
C2914 C2912 1.384 . S
C2914 C2915 1.372 . S
C2915 C2914 1.372 . S
C2915 C2916 1.400 . S
C2915 C2920 1.490 . S
C2916 H2906 0.930 . S
C2916 C2915 1.400 . S
C2916 C2919 1.386 . S
H2917 C2933 0.930 . S
H2918 C2934 0.931 . S
C2919 H2907 0.929 . S
C2919 C2913 1.390 . S
C2919 C2916 1.386 . S
C2920 C2915 1.490 . S
C2920 C2922 1.395 . S
C2920 C2923 1.403 . S
H2921 C2927 0.930 . S
C2922 H2908 0.930 . S
C2922 C2920 1.395 . S
C2922 C2925 1.403 . S
C2923 C2920 1.403 . S
C2923 C2924 1.524 . S
C2923 C2927 1.400 . S
C2924 H2909 0.960 . S
C2924 H2910 0.960 . S
C2924 H2911 0.960 . S
C2924 C2923 1.524 . S
C2925 C2922 1.403 . S
C2925 C2926 1.392 . S
C2925 C2929 1.495 . S
C2926 C2925 1.392 . S
C2926 C2927 1.385 . S
C2926 C2928 1.478 . S
C2927 H2921 0.930 . S
C2927 C2923 1.400 . S
C2927 C2926 1.385 . S
C2928 C2926 1.478 . S
C2928 C2930 1.381 . S
C2928 C2934 1.383 . S
C2929 C2925 1.495 . S
C2929 H2935 0.959 . S
C2929 H2936 0.983 . S
C2929 H2937 0.960 . S
C2930 C2928 1.381 . S
C2930 C2931 1.394 . S
C2930 H2938 0.930 . S
C2931 C2930 1.394 . S
C2931 C2932 1.383 . S
C2931 H2939 0.929 . S
C2932 C2931 1.383 . S
C2932 C2933 1.377 . S
C2933 H2917 0.930 . S
C2933 C2932 1.377 . S
C2933 C2934 1.379 . S
C2934 H2918 0.931 . S
C2934 C2928 1.383 . S
C2934 C2933 1.379 . S
H2935 C2929 0.959 . S
H2936 C2929 0.983 . S
H2937 C2929 0.960 . S
H2938 C2930 0.930 . S
H2939 C2931 0.929 . S
H2940 C2948 0.929 . S
H2941 C2950 0.930 . S
H2942 C2952 0.930 . S
H2943 C2955 0.929 . S
H2944 C2958 0.930 . S
H2945 C2960 0.960 . S
H2946 C2960 0.960 . S
H2947 C2960 0.960 . S
C2948 H2940 0.929 . S
C2948 C2949 1.377 . S
C2948 C2950 1.384 . S
C2949 C2948 1.377 . S
C2949 C2955 1.390 . S
C2950 H2941 0.930 . S
C2950 C2948 1.384 . S
C2950 C2951 1.372 . S
C2951 C2950 1.372 . S
C2951 C2952 1.400 . S
C2951 C2956 1.490 . S
C2952 H2942 0.930 . S
C2952 C2951 1.400 . S
C2952 C2955 1.386 . S
H2953 C2969 0.930 . S
H2954 C2970 0.931 . S
C2955 H2943 0.929 . S
C2955 C2949 1.390 . S
C2955 C2952 1.386 . S
C2956 C2951 1.490 . S
C2956 C2958 1.395 . S
C2956 C2959 1.403 . S
H2957 C2963 0.930 . S
C2958 H2944 0.930 . S
C2958 C2956 1.395 . S
C2958 C2961 1.403 . S
C2959 C2956 1.403 . S
C2959 C2960 1.524 . S
C2959 C2963 1.400 . S
C2960 H2945 0.960 . S
C2960 H2946 0.960 . S
C2960 H2947 0.960 . S
C2960 C2959 1.524 . S
C2961 C2958 1.403 . S
C2961 C2962 1.392 . S
C2961 C2965 1.495 . S
C2962 C2961 1.392 . S
C2962 C2963 1.385 . S
C2962 C2964 1.478 . S
C2963 H2957 0.930 . S
C2963 C2959 1.400 . S
C2963 C2962 1.385 . S
C2964 C2962 1.478 . S
C2964 C2966 1.381 . S
C2964 C2970 1.383 . S
C2965 C2961 1.495 . S
C2965 H2971 0.959 . S
C2965 H2972 0.961 . S
C2965 H2973 0.960 . S
C2966 C2964 1.381 . S
C2966 C2967 1.394 . S
C2966 H2974 0.930 . S
C2967 C2966 1.394 . S
C2967 C2968 1.383 . S
C2967 H2975 0.929 . S
C2968 C2967 1.383 . S
C2968 C2969 1.377 . S
C2969 H2953 0.930 . S
C2969 C2968 1.377 . S
C2969 C2970 1.379 . S
C2970 H2954 0.931 . S
C2970 C2964 1.383 . S
C2970 C2969 1.379 . S
H2971 C2965 0.959 . S
H2972 C2965 0.961 . S
H2973 C2965 0.960 . S
H2974 C2966 0.930 . S
H2975 C2967 0.929 . S
H2976 C2984 0.929 . S
H2977 C2986 0.930 . S
H2978 C2988 0.930 . S
H2979 C2991 0.929 . S
H2980 C2994 0.930 . S
H2981 C2996 0.960 . S
H2982 C2996 0.960 . S
H2983 C2996 0.960 . S
C2984 H2976 0.929 . S
C2984 C2985 1.377 1_545 S
C2984 C2986 1.384 . S
C2985 C2984 1.377 1_565 S
C2985 C2991 1.390 . S
C2986 H2977 0.930 . S
C2986 C2984 1.384 . S
C2986 C2987 1.372 . S
C2987 C2986 1.372 . S
C2987 C2988 1.400 1_545 S
C2987 C2992 1.490 . S
C2988 H2978 0.930 . S
C2988 C2987 1.400 1_565 S
C2988 C2991 1.386 . S
H2989 C3005 0.930 . S
H2990 C3006 0.931 . S
C2991 H2979 0.929 . S
C2991 C2985 1.390 . S
C2991 C2988 1.386 . S
C2992 C2987 1.490 . S
C2992 C2994 1.395 . S
C2992 C2995 1.403 1_545 S
H2993 C2999 0.930 1_565 S
C2994 H2980 0.930 . S
C2994 C2992 1.395 . S
C2994 C2997 1.403 . S
C2995 C2992 1.403 1_565 S
C2995 C2996 1.524 . S
C2995 C2999 1.400 1_565 S
C2996 H2981 0.960 . S
C2996 H2982 0.960 . S
C2996 H2983 0.960 . S
C2996 C2995 1.524 . S
C2997 C2994 1.403 . S
C2997 C2998 1.392 . S
C2997 C3001 1.495 . S
C2998 C2997 1.392 . S
C2998 C2999 1.385 . S
C2998 C3000 1.478 . S
C2999 H2993 0.930 1_545 S
C2999 C2995 1.400 1_545 S
C2999 C2998 1.385 . S
C3000 C2998 1.478 . S
C3000 C3002 1.381 . S
C3000 C3006 1.383 . S
C3001 C2997 1.495 . S
C3001 H3007 0.959 . S
C3001 H3008 0.961 . S
C3001 H3009 0.960 . S
C3002 C3000 1.381 . S
C3002 C3003 1.394 . S
C3002 H3010 0.930 . S
C3003 C3002 1.394 . S
C3003 C3004 1.383 . S
C3003 H3011 0.929 . S
C3004 C3003 1.383 . S
C3004 C3005 1.377 . S
C3005 H2989 0.930 . S
C3005 C3004 1.377 . S
C3005 C3006 1.379 . S
C3006 H2990 0.931 . S
C3006 C3000 1.383 . S
C3006 C3005 1.379 . S
H3007 C3001 0.959 . S
H3008 C3001 0.961 . S
H3009 C3001 0.960 . S
H3010 C3002 0.930 . S
H3011 C3003 0.929 . S
H3012 C3020 0.929 . S
H3013 C3022 0.930 . S
H3014 C3024 0.930 . S
H3015 C3027 0.929 . S
H3016 C3030 0.930 . S
H3017 C3032 0.960 . S
H3018 C3032 0.960 . S
H3019 C3032 0.960 . S
C3020 H3012 0.929 . S
C3020 C3021 1.377 . S
C3020 C3022 1.384 . S
C3021 C3020 1.377 . S
C3021 C3027 1.390 . S
C3022 H3013 0.930 . S
C3022 C3020 1.384 . S
C3022 C3023 1.372 . S
C3023 C3022 1.372 . S
C3023 C3024 1.400 . S
C3023 C3028 1.490 . S
C3024 H3014 0.930 . S
C3024 C3023 1.400 . S
C3024 C3027 1.386 . S
H3025 C3041 0.930 . S
H3026 C3042 0.931 . S
C3027 H3015 0.929 . S
C3027 C3021 1.390 . S
C3027 C3024 1.386 . S
C3028 C3023 1.490 . S
C3028 C3030 1.395 . S
C3028 C3031 1.403 . S
H3029 C3035 0.930 . S
C3030 H3016 0.930 . S
C3030 C3028 1.395 . S
C3030 C3033 1.403 . S
C3031 C3028 1.403 . S
C3031 C3032 1.524 . S
C3031 C3035 1.400 . S
C3032 H3017 0.960 . S
C3032 H3018 0.960 . S
C3032 H3019 0.960 . S
C3032 C3031 1.524 . S
C3033 C3030 1.403 . S
C3033 C3034 1.392 . S
C3033 C3037 1.495 . S
C3034 C3033 1.392 . S
C3034 C3035 1.385 . S
C3034 C3036 1.478 . S
C3035 H3029 0.930 . S
C3035 C3031 1.400 . S
C3035 C3034 1.385 . S
C3036 C3034 1.478 . S
C3036 C3038 1.381 . S
C3036 C3042 1.383 . S
C3037 C3033 1.495 . S
C3037 H3043 0.959 . S
C3037 H3044 0.961 . S
C3037 H3045 0.960 . S
C3038 C3036 1.381 . S
C3038 C3039 1.394 . S
C3038 H3046 0.930 . S
C3039 C3038 1.394 . S
C3039 C3040 1.383 . S
C3039 H3047 0.929 . S
C3040 C3039 1.383 . S
C3040 C3041 1.377 . S
C3041 H3025 0.930 . S
C3041 C3040 1.377 . S
C3041 C3042 1.379 . S
C3042 H3026 0.931 . S
C3042 C3036 1.383 . S
C3042 C3041 1.379 . S
H3043 C3037 0.959 . S
H3044 C3037 0.961 . S
H3045 C3037 0.960 . S
H3046 C3038 0.930 . S
H3047 C3039 0.929 . S
H3048 C3056 0.929 . S
H3049 C3058 0.930 . S
H3050 C3060 0.930 . S
H3051 C3063 0.929 . S
H3052 C3066 0.930 . S
H3053 C3068 0.960 . S
H3054 C3068 0.960 . S
H3055 C3068 0.960 . S
C3056 H3048 0.929 . S
C3056 C3057 1.377 . S
C3056 C3058 1.384 . S
C3057 C3056 1.377 . S
C3057 C3063 1.390 . S
C3058 H3049 0.930 . S
C3058 C3056 1.384 . S
C3058 C3059 1.372 . S
C3059 C3058 1.372 . S
C3059 C3060 1.400 . S
C3059 C3064 1.490 . S
C3060 H3050 0.930 . S
C3060 C3059 1.400 . S
C3060 C3063 1.386 . S
H3061 C3077 0.930 . S
H3062 C3078 0.931 . S
C3063 H3051 0.929 . S
C3063 C3057 1.390 . S
C3063 C3060 1.386 . S
C3064 C3059 1.490 . S
C3064 C3066 1.395 . S
C3064 C3067 1.403 . S
H3065 C3071 0.930 . S
C3066 H3052 0.930 . S
C3066 C3064 1.395 . S
C3066 C3069 1.403 . S
C3067 C3064 1.403 . S
C3067 C3068 1.524 . S
C3067 C3071 1.400 . S
C3068 H3053 0.960 . S
C3068 H3054 0.960 . S
C3068 H3055 0.960 . S
C3068 C3067 1.524 . S
C3069 C3066 1.403 . S
C3069 C3070 1.392 . S
C3069 C3073 1.495 . S
C3070 C3069 1.392 . S
C3070 C3071 1.385 . S
C3070 C3072 1.478 . S
C3071 H3065 0.930 . S
C3071 C3067 1.400 . S
C3071 C3070 1.385 . S
C3072 C3070 1.478 . S
C3072 C3074 1.381 . S
C3072 C3078 1.383 . S
C3073 C3069 1.495 . S
C3073 H3079 0.959 . S
C3073 H3080 0.961 . S
C3073 H3081 0.960 . S
C3074 C3072 1.381 . S
C3074 C3075 1.394 . S
C3074 H3082 0.930 . S
C3075 C3074 1.394 . S
C3075 C3076 1.383 . S
C3075 H3083 0.929 . S
C3076 C3075 1.383 . S
C3076 C3077 1.377 . S
C3077 H3061 0.930 . S
C3077 C3076 1.377 . S
C3077 C3078 1.379 . S
C3078 H3062 0.931 . S
C3078 C3072 1.383 . S
C3078 C3077 1.379 . S
H3079 C3073 0.959 . S
H3080 C3073 0.961 . S
H3081 C3073 0.960 . S
H3082 C3074 0.930 . S
H3083 C3075 0.929 . S
H3084 C3092 0.929 . S
H3085 C3094 0.930 . S
H3086 C3096 0.930 . S
H3087 C3099 0.929 . S
H3088 C3102 0.930 . S
H3089 C3104 0.960 . S
H3090 C3104 0.960 . S
H3091 C3104 0.960 . S
C3092 H3084 0.929 . S
C3092 C3093 1.377 . S
C3092 C3094 1.384 . S
C3093 C3092 1.377 . S
C3093 C3099 1.390 . S
C3094 H3085 0.930 . S
C3094 C3092 1.384 . S
C3094 C3095 1.372 . S
C3095 C3094 1.372 . S
C3095 C3096 1.400 . S
C3095 C3100 1.490 . S
C3096 H3086 0.930 . S
C3096 C3095 1.400 . S
C3096 C3099 1.386 . S
H3097 C3113 0.930 . S
H3098 C3114 0.931 . S
C3099 H3087 0.929 . S
C3099 C3093 1.390 . S
C3099 C3096 1.386 . S
C3100 C3095 1.490 . S
C3100 C3102 1.395 . S
C3100 C3103 1.403 . S
H3101 C3107 0.930 . S
C3102 H3088 0.930 . S
C3102 C3100 1.395 . S
C3102 C3105 1.403 . S
C3103 C3100 1.403 . S
C3103 C3104 1.524 . S
C3103 C3107 1.400 . S
C3104 H3089 0.960 . S
C3104 H3090 0.960 . S
C3104 H3091 0.960 . S
C3104 C3103 1.524 . S
C3105 C3102 1.403 . S
C3105 C3106 1.392 . S
C3105 C3109 1.495 . S
C3106 C3105 1.392 . S
C3106 C3107 1.385 . S
C3106 C3108 1.478 . S
C3107 H3101 0.930 . S
C3107 C3103 1.400 . S
C3107 C3106 1.385 . S
C3108 C3106 1.478 . S
C3108 C3110 1.381 . S
C3108 C3114 1.383 . S
C3109 C3105 1.495 . S
C3109 H3115 0.959 . S
C3109 H3116 0.961 . S
C3109 H3117 0.960 . S
C3110 C3108 1.381 . S
C3110 C3111 1.394 . S
C3110 H3118 0.930 . S
C3111 C3110 1.394 . S
C3111 C3112 1.383 . S
C3111 H3119 0.929 . S
C3112 C3111 1.383 . S
C3112 C3113 1.377 . S
C3113 H3097 0.930 . S
C3113 C3112 1.377 . S
C3113 C3114 1.379 . S
C3114 H3098 0.931 . S
C3114 C3108 1.383 . S
C3114 C3113 1.379 . S
H3115 C3109 0.959 . S
H3116 C3109 0.961 . S
H3117 C3109 0.960 . S
H3118 C3110 0.930 . S
H3119 C3111 0.929 . S
H3120 C3128 0.929 . S
H3121 C3130 0.930 . S
H3122 C3132 0.930 . S
H3123 C3135 0.929 . S
H3124 C3138 0.930 . S
H3125 C3140 0.960 . S
H3126 C3140 0.960 . S
H3127 C3140 0.960 . S
C3128 H3120 0.929 . S
C3128 C3129 1.377 . S
C3128 C3130 1.384 . S
C3129 C3128 1.377 . S
C3129 C3135 1.390 . S
C3130 H3121 0.930 . S
C3130 C3128 1.384 . S
C3130 C3131 1.372 . S
C3131 C3130 1.372 . S
C3131 C3132 1.400 . S
C3131 C3136 1.490 . S
C3132 H3122 0.930 . S
C3132 C3131 1.400 . S
C3132 C3135 1.386 . S
H3133 C3149 0.930 1_556 S
H3134 C3150 0.931 1_556 S
C3135 H3123 0.929 . S
C3135 C3129 1.390 . S
C3135 C3132 1.386 . S
C3136 C3131 1.490 . S
C3136 C3138 1.395 . S
C3136 C3139 1.403 . S
H3137 C3143 0.930 . S
C3138 H3124 0.930 . S
C3138 C3136 1.395 . S
C3138 C3141 1.403 . S
C3139 C3136 1.403 . S
C3139 C3140 1.524 . S
C3139 C3143 1.400 . S
C3140 H3125 0.960 . S
C3140 H3126 0.960 . S
C3140 H3127 0.960 . S
C3140 C3139 1.524 . S
C3141 C3138 1.403 . S
C3141 C3142 1.392 . S
C3141 C3145 1.508 . S
C3142 C3141 1.392 . S
C3142 C3143 1.385 . S
C3142 C3144 1.478 . S
C3143 H3137 0.930 . S
C3143 C3139 1.400 . S
C3143 C3142 1.385 . S
C3144 C3142 1.478 . S
C3144 C3146 1.381 . S
C3144 C3150 1.383 . S
C3145 C3141 1.508 . S
C3145 H3151 0.956 1_554 S
C3145 H3152 0.914 1_554 S
C3145 H3153 1.001 . S
C3146 C3144 1.381 . S
C3146 C3147 1.394 . S
C3146 H3154 0.930 . S
C3147 C3146 1.394 . S
C3147 C3148 1.383 . S
C3147 H3155 0.929 . S
C3148 C3147 1.383 . S
C3148 C3149 1.377 . S
C3149 H3133 0.930 1_554 S
C3149 C3148 1.377 . S
C3149 C3150 1.379 . S
C3150 H3134 0.931 1_554 S
C3150 C3144 1.383 . S
C3150 C3149 1.379 . S
H3151 C3145 0.956 1_556 S
H3152 C3145 0.914 1_556 S
H3153 C3145 1.001 . S
H3154 C3146 0.930 . S
H3155 C3147 0.929 . S
H3156 C3164 0.929 . S
H3157 C3166 0.930 . S
H3158 C3168 0.930 . S
H3159 C3171 0.929 . S
H3160 C3174 0.930 . S
H3161 C3176 0.957 1_556 S
H3162 C3176 0.959 1_556 S
H3163 C3176 0.956 . S
C3164 H3156 0.929 . S
C3164 C3165 1.377 . S
C3164 C3166 1.384 . S
C3165 C3164 1.377 . S
C3165 C3171 1.390 . S
C3166 H3157 0.930 . S
C3166 C3164 1.384 . S
C3166 C3167 1.372 . S
C3167 C3166 1.372 . S
C3167 C3168 1.400 . S
C3167 C3172 1.490 . S
C3168 H3158 0.930 . S
C3168 C3167 1.400 . S
C3168 C3171 1.386 . S
H3169 C3185 0.930 . S
H3170 C3186 0.931 . S
C3171 H3159 0.929 . S
C3171 C3165 1.390 . S
C3171 C3168 1.386 . S
C3172 C3167 1.490 . S
C3172 C3174 1.395 . S
C3172 C3175 1.403 . S
H3173 C3179 0.930 . S
C3174 H3160 0.930 . S
C3174 C3172 1.395 . S
C3174 C3177 1.403 . S
C3175 C3172 1.403 . S
C3175 C3176 1.526 . S
C3175 C3179 1.400 . S
C3176 H3161 0.957 1_554 S
C3176 H3162 0.959 1_554 S
C3176 H3163 0.956 . S
C3176 C3175 1.526 . S
C3177 C3174 1.403 . S
C3177 C3178 1.392 . S
C3177 C3181 1.495 . S
C3178 C3177 1.392 . S
C3178 C3179 1.385 . S
C3178 C3180 1.478 . S
C3179 H3173 0.930 . S
C3179 C3175 1.400 . S
C3179 C3178 1.385 . S
C3180 C3178 1.478 . S
C3180 C3182 1.381 . S
C3180 C3186 1.383 . S
C3181 C3177 1.495 . S
C3181 H3187 0.959 . S
C3181 H3188 0.961 . S
C3181 H3189 0.960 . S
C3182 C3180 1.381 . S
C3182 C3183 1.394 . S
C3182 H3190 0.930 . S
C3183 C3182 1.394 . S
C3183 C3184 1.383 . S
C3183 H3191 0.929 . S
C3184 C3183 1.383 . S
C3184 C3185 1.377 . S
C3185 H3169 0.930 . S
C3185 C3184 1.377 . S
C3185 C3186 1.379 . S
C3186 H3170 0.931 . S
C3186 C3180 1.383 . S
C3186 C3185 1.379 . S
H3187 C3181 0.959 . S
H3188 C3181 0.961 . S
H3189 C3181 0.960 . S
H3190 C3182 0.930 . S
H3191 C3183 0.929 . S
H3192 C3200 0.929 . S
H3193 C3202 0.930 . S
H3194 C3204 0.930 . S
H3195 C3207 0.929 . S
H3196 C3210 0.930 . S
H3197 C3212 0.960 . S
H3198 C3212 0.960 . S
H3199 C3212 0.960 . S
C3200 H3192 0.929 . S
C3200 C3201 1.377 . S
C3200 C3202 1.384 . S
C3201 C3200 1.377 . S
C3201 C3207 1.390 . S
C3202 H3193 0.930 . S
C3202 C3200 1.384 . S
C3202 C3203 1.372 . S
C3203 C3202 1.372 . S
C3203 C3204 1.400 . S
C3203 C3208 1.490 . S
C3204 H3194 0.930 . S
C3204 C3203 1.400 . S
C3204 C3207 1.386 . S
H3205 C3221 0.930 . S
H3206 C3222 0.931 . S
C3207 H3195 0.929 . S
C3207 C3201 1.390 . S
C3207 C3204 1.386 . S
C3208 C3203 1.490 . S
C3208 C3210 1.395 . S
C3208 C3211 1.403 . S
H3209 C3215 0.930 . S
C3210 H3196 0.930 . S
C3210 C3208 1.395 . S
C3210 C3213 1.403 . S
C3211 C3208 1.403 . S
C3211 C3212 1.524 . S
C3211 C3215 1.400 . S
C3212 H3197 0.960 . S
C3212 H3198 0.960 . S
C3212 H3199 0.960 . S
C3212 C3211 1.524 . S
C3213 C3210 1.403 . S
C3213 C3214 1.392 . S
C3213 C3217 1.495 . S
C3214 C3213 1.392 . S
C3214 C3215 1.385 . S
C3214 C3216 1.478 . S
C3215 H3209 0.930 . S
C3215 C3211 1.400 . S
C3215 C3214 1.385 . S
C3216 C3214 1.478 . S
C3216 C3218 1.381 . S
C3216 C3222 1.383 . S
C3217 C3213 1.495 . S
C3217 H3223 0.959 . S
C3217 H3224 0.961 . S
C3217 H3225 0.960 . S
C3218 C3216 1.381 . S
C3218 C3219 1.394 . S
C3218 H3226 0.930 . S
C3219 C3218 1.394 . S
C3219 C3220 1.383 . S
C3219 H3227 0.929 . S
C3220 C3219 1.383 . S
C3220 C3221 1.377 . S
C3221 H3205 0.930 . S
C3221 C3220 1.377 . S
C3221 C3222 1.379 . S
C3222 H3206 0.931 . S
C3222 C3216 1.383 . S
C3222 C3221 1.379 . S
H3223 C3217 0.959 . S
H3224 C3217 0.961 . S
H3225 C3217 0.960 . S
H3226 C3218 0.930 . S
H3227 C3219 0.929 . S
H3228 C3236 0.929 . S
H3229 C3238 0.930 . S
H3230 C3240 0.930 . S
H3231 C3243 0.929 . S
H3232 C3246 0.930 . S
H3233 C3248 0.960 . S
H3234 C3248 0.960 . S
H3235 C3248 0.960 . S
C3236 H3228 0.929 . S
C3236 C3237 1.377 . S
C3236 C3238 1.384 . S
C3237 C3236 1.377 . S
C3237 C3243 1.390 . S
C3238 H3229 0.930 . S
C3238 C3236 1.384 . S
C3238 C3239 1.372 . S
C3239 C3238 1.372 . S
C3239 C3240 1.400 . S
C3239 C3244 1.490 . S
C3240 H3230 0.930 . S
C3240 C3239 1.400 . S
C3240 C3243 1.386 . S
H3241 C3257 0.930 . S
H3242 C3258 0.931 . S
C3243 H3231 0.929 . S
C3243 C3237 1.390 . S
C3243 C3240 1.386 . S
C3244 C3239 1.490 . S
C3244 C3246 1.395 . S
C3244 C3247 1.403 . S
H3245 C3251 0.930 . S
C3246 H3232 0.930 . S
C3246 C3244 1.395 . S
C3246 C3249 1.403 . S
C3247 C3244 1.403 . S
C3247 C3248 1.524 . S
C3247 C3251 1.400 . S
C3248 H3233 0.960 . S
C3248 H3234 0.960 . S
C3248 H3235 0.960 . S
C3248 C3247 1.524 . S
C3249 C3246 1.403 . S
C3249 C3250 1.392 . S
C3249 C3253 1.495 . S
C3250 C3249 1.392 . S
C3250 C3251 1.385 . S
C3250 C3252 1.478 . S
C3251 H3245 0.930 . S
C3251 C3247 1.400 . S
C3251 C3250 1.385 . S
C3252 C3250 1.478 . S
C3252 C3254 1.381 . S
C3252 C3258 1.383 . S
C3253 C3249 1.495 . S
C3253 H3259 0.959 . S
C3253 H3260 0.961 . S
C3253 H3261 0.960 . S
C3254 C3252 1.381 . S
C3254 C3255 1.394 . S
C3254 H3262 0.930 . S
C3255 C3254 1.394 . S
C3255 C3256 1.383 . S
C3255 H3263 0.929 . S
C3256 C3255 1.383 . S
C3256 C3257 1.377 . S
C3257 H3241 0.930 . S
C3257 C3256 1.377 . S
C3257 C3258 1.379 . S
C3258 H3242 0.931 . S
C3258 C3252 1.383 . S
C3258 C3257 1.379 . S
H3259 C3253 0.959 . S
H3260 C3253 0.961 . S
H3261 C3253 0.960 . S
H3262 C3254 0.930 . S
H3263 C3255 0.929 . S
H3264 C3272 0.929 . S
H3265 C3274 0.930 . S
H3266 C3276 0.930 . S
H3267 C3279 0.929 . S
H3268 C3282 0.930 . S
H3269 C3284 0.960 . S
H3270 C3284 0.960 . S
H3271 C3284 0.960 . S
C3272 H3264 0.929 . S
C3272 C3273 1.377 1_565 S
C3272 C3274 1.384 . S
C3273 C3272 1.377 1_545 S
C3273 C3279 1.390 . S
C3274 H3265 0.930 . S
C3274 C3272 1.384 . S
C3274 C3275 1.372 . S
C3275 C3274 1.372 . S
C3275 C3276 1.400 . S
C3275 C3280 1.490 . S
C3276 H3266 0.930 . S
C3276 C3275 1.400 . S
C3276 C3279 1.386 1_565 S
H3277 C3293 0.930 . S
H3278 C3294 0.931 . S
C3279 H3267 0.929 . S
C3279 C3273 1.390 . S
C3279 C3276 1.386 1_545 S
C3280 C3275 1.490 . S
C3280 C3282 1.395 . S
C3280 C3283 1.403 . S
H3281 C3287 0.930 . S
C3282 H3268 0.930 . S
C3282 C3280 1.395 . S
C3282 C3285 1.403 . S
C3283 C3280 1.403 . S
C3283 C3284 1.524 . S
C3283 C3287 1.400 . S
C3284 H3269 0.960 . S
C3284 H3270 0.960 . S
C3284 H3271 0.960 . S
C3284 C3283 1.524 . S
C3285 C3282 1.403 . S
C3285 C3286 1.392 . S
C3285 C3289 1.495 . S
C3286 C3285 1.392 . S
C3286 C3287 1.385 . S
C3286 C3288 1.478 . S
C3287 H3281 0.930 . S
C3287 C3283 1.400 . S
C3287 C3286 1.385 . S
C3288 C3286 1.478 . S
C3288 C3290 1.381 . S
C3288 C3294 1.383 . S
C3289 C3285 1.495 . S
C3289 H3295 0.959 . S
C3289 H3296 0.961 . S
C3289 H3297 0.960 . S
C3290 C3288 1.381 . S
C3290 C3291 1.394 . S
C3290 H3298 0.930 . S
C3291 C3290 1.394 . S
C3291 C3292 1.383 . S
C3291 H3299 0.929 . S
C3292 C3291 1.383 . S
C3292 C3293 1.377 . S
C3293 H3277 0.930 . S
C3293 C3292 1.377 . S
C3293 C3294 1.379 . S
C3294 H3278 0.931 . S
C3294 C3288 1.383 . S
C3294 C3293 1.379 . S
H3295 C3289 0.959 . S
H3296 C3289 0.961 . S
H3297 C3289 0.960 . S
H3298 C3290 0.930 . S
H3299 C3291 0.929 . S
H3300 C3308 0.929 . S
H3301 C3310 0.930 . S
H3302 C3312 0.930 . S
H3303 C3315 0.929 . S
H3304 C3318 0.930 . S
H3305 C3320 0.960 . S
H3306 C3320 0.960 . S
H3307 C3320 0.960 . S
C3308 H3300 0.929 . S
C3308 C3309 1.377 . S
C3308 C3310 1.384 . S
C3309 C3308 1.377 . S
C3309 C3315 1.390 . S
C3310 H3301 0.930 . S
C3310 C3308 1.384 . S
C3310 C3311 1.372 . S
C3311 C3310 1.372 . S
C3311 C3312 1.400 . S
C3311 C3316 1.490 . S
C3312 H3302 0.930 . S
C3312 C3311 1.400 . S
C3312 C3315 1.386 . S
H3313 C3329 0.930 . S
H3314 C3330 0.931 . S
C3315 H3303 0.929 . S
C3315 C3309 1.390 . S
C3315 C3312 1.386 . S
C3316 C3311 1.490 . S
C3316 C3318 1.395 . S
C3316 C3319 1.403 . S
H3317 C3323 0.930 . S
C3318 H3304 0.930 . S
C3318 C3316 1.395 . S
C3318 C3321 1.403 . S
C3319 C3316 1.403 . S
C3319 C3320 1.524 . S
C3319 C3323 1.400 . S
C3320 H3305 0.960 . S
C3320 H3306 0.960 . S
C3320 H3307 0.960 . S
C3320 C3319 1.524 . S
C3321 C3318 1.403 . S
C3321 C3322 1.392 . S
C3321 C3325 1.495 . S
C3322 C3321 1.392 . S
C3322 C3323 1.385 . S
C3322 C3324 1.478 . S
C3323 H3317 0.930 . S
C3323 C3319 1.400 . S
C3323 C3322 1.385 . S
C3324 C3322 1.478 . S
C3324 C3326 1.381 . S
C3324 C3330 1.383 . S
C3325 C3321 1.495 . S
C3325 H3331 0.959 . S
C3325 H3332 0.961 . S
C3325 H3333 0.960 . S
C3326 C3324 1.381 . S
C3326 C3327 1.394 . S
C3326 H3334 0.930 . S
C3327 C3326 1.394 . S
C3327 C3328 1.383 . S
C3327 H3335 0.929 . S
C3328 C3327 1.383 . S
C3328 C3329 1.377 . S
C3329 H3313 0.930 . S
C3329 C3328 1.377 . S
C3329 C3330 1.379 . S
C3330 H3314 0.931 . S
C3330 C3324 1.383 . S
C3330 C3329 1.379 . S
H3331 C3325 0.959 . S
H3332 C3325 0.961 . S
H3333 C3325 0.960 . S
H3334 C3326 0.930 . S
H3335 C3327 0.929 . S
H3336 C3344 0.929 . S
H3337 C3346 0.930 . S
H3338 C3348 0.930 . S
H3339 C3351 0.929 . S
H3340 C3354 0.930 . S
H3341 C3356 0.960 . S
H3342 C3356 0.960 . S
H3343 C3356 0.960 . S
C3344 H3336 0.929 . S
C3344 C3345 1.377 . S
C3344 C3346 1.384 . S
C3345 C3344 1.377 . S
C3345 C3351 1.390 . S
C3346 H3337 0.930 . S
C3346 C3344 1.384 . S
C3346 C3347 1.372 . S
C3347 C3346 1.372 . S
C3347 C3348 1.400 . S
C3347 C3352 1.490 . S
C3348 H3338 0.930 . S
C3348 C3347 1.400 . S
C3348 C3351 1.386 . S
H3349 C3365 0.930 . S
H3350 C3366 0.931 . S
C3351 H3339 0.929 . S
C3351 C3345 1.390 . S
C3351 C3348 1.386 . S
C3352 C3347 1.490 . S
C3352 C3354 1.395 . S
C3352 C3355 1.403 . S
H3353 C3359 0.930 . S
C3354 H3340 0.930 . S
C3354 C3352 1.395 . S
C3354 C3357 1.403 . S
C3355 C3352 1.403 . S
C3355 C3356 1.524 . S
C3355 C3359 1.400 . S
C3356 H3341 0.960 . S
C3356 H3342 0.960 . S
C3356 H3343 0.960 . S
C3356 C3355 1.524 . S
C3357 C3354 1.403 . S
C3357 C3358 1.392 . S
C3357 C3361 1.495 . S
C3358 C3357 1.392 . S
C3358 C3359 1.385 . S
C3358 C3360 1.478 . S
C3359 H3353 0.930 . S
C3359 C3355 1.400 . S
C3359 C3358 1.385 . S
C3360 C3358 1.478 . S
C3360 C3362 1.381 . S
C3360 C3366 1.383 . S
C3361 C3357 1.495 . S
C3361 H3367 0.959 . S
C3361 H3368 0.961 . S
C3361 H3369 0.960 . S
C3362 C3360 1.381 . S
C3362 C3363 1.394 . S
C3362 H3370 0.930 . S
C3363 C3362 1.394 . S
C3363 C3364 1.383 . S
C3363 H3371 0.929 . S
C3364 C3363 1.383 . S
C3364 C3365 1.377 . S
C3365 H3349 0.930 . S
C3365 C3364 1.377 . S
C3365 C3366 1.379 . S
C3366 H3350 0.931 . S
C3366 C3360 1.383 . S
C3366 C3365 1.379 . S
H3367 C3361 0.959 . S
H3368 C3361 0.961 . S
H3369 C3361 0.960 . S
H3370 C3362 0.930 . S
H3371 C3363 0.929 . S
H3372 C3380 0.929 . S
H3373 C3382 0.930 . S
H3374 C3384 0.930 . S
H3375 C3387 0.929 . S
H3376 C3390 0.930 . S
H3377 C3392 0.960 . S
H3378 C3392 0.960 . S
H3379 C3392 0.960 . S
C3380 H3372 0.929 . S
C3380 C3381 1.377 . S
C3380 C3382 1.384 . S
C3381 C3380 1.377 . S
C3381 C3387 1.390 . S
C3382 H3373 0.930 . S
C3382 C3380 1.384 . S
C3382 C3383 1.372 . S
C3383 C3382 1.372 . S
C3383 C3384 1.400 . S
C3383 C3388 1.490 . S
C3384 H3374 0.930 . S
C3384 C3383 1.400 . S
C3384 C3387 1.386 . S
H3385 C3401 0.930 . S
H3386 C3402 0.931 . S
C3387 H3375 0.929 . S
C3387 C3381 1.390 . S
C3387 C3384 1.386 . S
C3388 C3383 1.490 . S
C3388 C3390 1.395 . S
C3388 C3391 1.403 . S
H3389 C3395 0.930 . S
C3390 H3376 0.930 . S
C3390 C3388 1.395 . S
C3390 C3393 1.403 . S
C3391 C3388 1.403 . S
C3391 C3392 1.524 . S
C3391 C3395 1.400 . S
C3392 H3377 0.960 . S
C3392 H3378 0.960 . S
C3392 H3379 0.960 . S
C3392 C3391 1.524 . S
C3393 C3390 1.403 . S
C3393 C3394 1.392 . S
C3393 C3397 1.495 . S
C3394 C3393 1.392 . S
C3394 C3395 1.385 . S
C3394 C3396 1.478 . S
C3395 H3389 0.930 . S
C3395 C3391 1.400 . S
C3395 C3394 1.385 . S
C3396 C3394 1.478 . S
C3396 C3398 1.381 . S
C3396 C3402 1.383 . S
C3397 C3393 1.495 . S
C3397 H3403 0.959 . S
C3397 H3404 0.961 . S
C3397 H3405 0.960 . S
C3398 C3396 1.381 . S
C3398 C3399 1.394 . S
C3398 H3406 0.930 . S
C3399 C3398 1.394 . S
C3399 C3400 1.383 . S
C3399 H3407 0.929 . S
C3400 C3399 1.383 . S
C3400 C3401 1.377 . S
C3401 H3385 0.930 . S
C3401 C3400 1.377 . S
C3401 C3402 1.379 . S
C3402 H3386 0.931 . S
C3402 C3396 1.383 . S
C3402 C3401 1.379 . S
H3403 C3397 0.959 . S
H3404 C3397 0.961 . S
H3405 C3397 0.960 . S
H3406 C3398 0.930 . S
H3407 C3399 0.929 . S
H3408 C3416 0.929 . S
H3409 C3418 0.930 . S
H3410 C3420 0.930 . S
H3411 C3423 0.929 . S
H3412 C3426 0.930 . S
H3413 C3428 0.960 . S
H3414 C3428 0.960 . S
H3415 C3428 0.960 . S
C3416 H3408 0.929 . S
C3416 C3417 1.377 . S
C3416 C3418 1.384 . S
C3417 C3416 1.377 . S
C3417 C3423 1.390 . S
C3418 H3409 0.930 . S
C3418 C3416 1.384 . S
C3418 C3419 1.372 . S
C3419 C3418 1.372 . S
C3419 C3420 1.400 . S
C3419 C3424 1.490 . S
C3420 H3410 0.930 . S
C3420 C3419 1.400 . S
C3420 C3423 1.386 . S
H3421 C3437 0.930 . S
H3422 C3438 0.931 . S
C3423 H3411 0.929 . S
C3423 C3417 1.390 . S
C3423 C3420 1.386 . S
C3424 C3419 1.490 . S
C3424 C3426 1.395 . S
C3424 C3427 1.403 . S
H3425 C3431 0.930 . S
C3426 H3412 0.930 . S
C3426 C3424 1.395 . S
C3426 C3429 1.403 . S
C3427 C3424 1.403 . S
C3427 C3428 1.524 . S
C3427 C3431 1.400 . S
C3428 H3413 0.960 . S
C3428 H3414 0.960 . S
C3428 H3415 0.960 . S
C3428 C3427 1.524 . S
C3429 C3426 1.403 . S
C3429 C3430 1.392 . S
C3429 C3433 1.495 . S
C3430 C3429 1.392 . S
C3430 C3431 1.385 . S
C3430 C3432 1.478 . S
C3431 H3425 0.930 . S
C3431 C3427 1.400 . S
C3431 C3430 1.385 . S
C3432 C3430 1.478 . S
C3432 C3434 1.381 . S
C3432 C3438 1.383 . S
C3433 C3429 1.495 . S
C3433 H3439 0.959 . S
C3433 H3440 0.961 . S
C3433 H3441 0.960 . S
C3434 C3432 1.381 . S
C3434 C3435 1.394 . S
C3434 H3442 0.930 . S
C3435 C3434 1.394 . S
C3435 C3436 1.383 . S
C3435 H3443 0.929 . S
C3436 C3435 1.383 . S
C3436 C3437 1.377 . S
C3437 H3421 0.930 . S
C3437 C3436 1.377 . S
C3437 C3438 1.379 . S
C3438 H3422 0.931 . S
C3438 C3432 1.383 . S
C3438 C3437 1.379 . S
H3439 C3433 0.959 . S
H3440 C3433 0.961 . S
H3441 C3433 0.960 . S
H3442 C3434 0.930 . S
H3443 C3435 0.929 . S
H3444 C3452 0.929 . S
H3445 C3454 0.930 . S
H3446 C3456 0.930 . S
H3447 C3459 0.929 . S
H3448 C3462 0.930 . S
H3449 C3464 0.960 . S
H3450 C3464 0.960 . S
H3451 C3464 0.960 . S
C3452 H3444 0.929 . S
C3452 C3453 1.377 . S
C3452 C3454 1.384 . S
C3453 C3452 1.377 . S
C3453 C3459 1.390 . S
C3454 H3445 0.930 . S
C3454 C3452 1.384 . S
C3454 C3455 1.372 . S
C3455 C3454 1.372 . S
C3455 C3456 1.400 . S
C3455 C3460 1.490 . S
C3456 H3446 0.930 . S
C3456 C3455 1.400 . S
C3456 C3459 1.386 . S
H3457 C3473 0.930 . S
H3458 C3474 0.931 . S
C3459 H3447 0.929 . S
C3459 C3453 1.390 . S
C3459 C3456 1.386 . S
C3460 C3455 1.490 . S
C3460 C3462 1.395 . S
C3460 C3463 1.403 . S
H3461 C3467 0.930 . S
C3462 H3448 0.930 . S
C3462 C3460 1.395 . S
C3462 C3465 1.403 . S
C3463 C3460 1.403 . S
C3463 C3464 1.524 . S
C3463 C3467 1.400 . S
C3464 H3449 0.960 . S
C3464 H3450 0.960 . S
C3464 H3451 0.960 . S
C3464 C3463 1.524 . S
C3465 C3462 1.403 . S
C3465 C3466 1.392 . S
C3465 C3469 1.495 . S
C3466 C3465 1.392 . S
C3466 C3467 1.385 . S
C3466 C3468 1.478 . S
C3467 H3461 0.930 . S
C3467 C3463 1.400 . S
C3467 C3466 1.385 . S
C3468 C3466 1.478 . S
C3468 C3470 1.381 . S
C3468 C3474 1.383 . S
C3469 C3465 1.495 . S
C3469 H3475 0.959 . S
C3469 H3476 0.961 . S
C3469 H3477 0.960 . S
C3470 C3468 1.381 . S
C3470 C3471 1.394 . S
C3470 H3478 0.930 . S
C3471 C3470 1.394 . S
C3471 C3472 1.383 . S
C3471 H3479 0.929 . S
C3472 C3471 1.383 . S
C3472 C3473 1.377 . S
C3473 H3457 0.930 . S
C3473 C3472 1.377 . S
C3473 C3474 1.379 . S
C3474 H3458 0.931 . S
C3474 C3468 1.383 . S
C3474 C3473 1.379 . S
H3475 C3469 0.959 . S
H3476 C3469 0.961 . S
H3477 C3469 0.960 . S
H3478 C3470 0.930 . S
H3479 C3471 0.929 . S
H3480 C3488 0.929 . S
H3481 C3490 0.930 . S
H3482 C3492 0.930 . S
H3483 C3495 0.929 . S
H3484 C3498 0.930 . S
H3485 C3500 0.960 . S
H3486 C3500 0.960 1_554 S
H3487 C3500 0.960 . S
C3488 H3480 0.929 . S
C3488 C3489 1.377 . S
C3488 C3490 1.384 . S
C3489 C3488 1.377 . S
C3489 C3495 1.390 . S
C3490 H3481 0.930 . S
C3490 C3488 1.384 . S
C3490 C3491 1.372 . S
C3491 C3490 1.372 . S
C3491 C3492 1.400 . S
C3491 C3496 1.490 . S
C3492 H3482 0.930 . S
C3492 C3491 1.400 . S
C3492 C3495 1.386 . S
H3493 C3509 0.930 . S
H3494 C3510 0.931 . S
C3495 H3483 0.929 . S
C3495 C3489 1.390 . S
C3495 C3492 1.386 . S
C3496 C3491 1.490 . S
C3496 C3498 1.395 . S
C3496 C3499 1.403 . S
H3497 C3503 0.946 . S
C3498 H3484 0.930 . S
C3498 C3496 1.395 . S
C3498 C3501 1.403 . S
C3499 C3496 1.403 . S
C3499 C3500 1.524 1_455 S
C3499 C3503 1.400 . S
C3500 H3485 0.960 . S
C3500 H3486 0.960 1_556 S
C3500 H3487 0.960 . S
C3500 C3499 1.524 1_655 S
C3501 C3498 1.403 . S
C3501 C3502 1.392 . S
C3501 C3505 1.495 . S
C3502 C3501 1.392 . S
C3502 C3503 1.385 . S
C3502 C3504 1.483 . S
C3503 H3497 0.946 . S
C3503 C3499 1.400 . S
C3503 C3502 1.385 . S
C3504 C3502 1.483 . S
C3504 C3506 1.340 1_556 S
C3504 C3510 1.419 . S
C3505 C3501 1.495 . S
C3505 H3511 0.959 . S
C3505 H3512 0.961 . S
C3505 H3513 0.960 . S
C3506 C3504 1.340 1_554 S
C3506 C3507 1.394 . S
C3506 H3514 0.930 . S
C3507 C3506 1.394 . S
C3507 C3508 1.383 . S
C3507 H3515 0.929 . S
C3508 C3507 1.383 . S
C3508 C3509 1.377 1_554 S
C3509 H3493 0.930 . S
C3509 C3508 1.377 1_556 S
C3509 C3510 1.379 . S
C3510 H3494 0.931 . S
C3510 C3504 1.419 . S
C3510 C3509 1.379 . S
H3511 C3505 0.959 . S
H3512 C3505 0.961 . S
H3513 C3505 0.960 . S
H3514 C3506 0.930 . S
H3515 C3507 0.929 . S
H3516 C3524 0.929 . S
H3517 C3526 0.978 . S
H3518 C3528 0.930 . S
H3519 C3531 0.929 . S
H3520 C3534 0.930 . S
H3521 C3536 0.960 . S
H3522 C3536 0.960 . S
H3523 C3536 0.960 . S
C3524 H3516 0.929 . S
C3524 C3525 1.377 . S
C3524 C3526 1.384 . S
C3525 C3524 1.377 . S
C3525 C3531 1.390 . S
C3526 H3517 0.978 . S
C3526 C3524 1.384 . S
C3526 C3527 1.385 . S
C3527 C3526 1.385 . S
C3527 C3528 1.449 . S
C3527 C3532 1.432 1_455 S
C3528 H3518 0.930 . S
C3528 C3527 1.449 . S
C3528 C3531 1.386 . S
H3529 C3545 0.930 . S
H3530 C3546 0.931 . S
C3531 H3519 0.929 . S
C3531 C3525 1.390 . S
C3531 C3528 1.386 . S
C3532 C3527 1.432 1_655 S
C3532 C3534 1.395 . S
C3532 C3535 1.403 . S
H3533 C3539 0.930 . S
C3534 H3520 0.930 . S
C3534 C3532 1.395 . S
C3534 C3537 1.403 . S
C3535 C3532 1.403 . S
C3535 C3536 1.524 1_655 S
C3535 C3539 1.400 . S
C3536 H3521 0.960 . S
C3536 H3522 0.960 . S
C3536 H3523 0.960 . S
C3536 C3535 1.524 1_455 S
C3537 C3534 1.403 . S
C3537 C3538 1.392 . S
C3537 C3541 1.495 . S
C3538 C3537 1.392 . S
C3538 C3539 1.385 . S
C3538 C3540 1.478 . S
C3539 H3533 0.930 . S
C3539 C3535 1.400 . S
C3539 C3538 1.385 . S
C3540 C3538 1.478 . S
C3540 C3542 1.381 . S
C3540 C3546 1.383 . S
C3541 C3537 1.495 . S
C3541 H3547 0.959 . S
C3541 H3548 0.961 . S
C3541 H3549 0.960 . S
C3542 C3540 1.381 . S
C3542 C3543 1.394 . S
C3542 H3550 0.930 . S
C3543 C3542 1.394 . S
C3543 C3544 1.383 . S
C3543 H3551 0.929 . S
C3544 C3543 1.383 . S
C3544 C3545 1.377 . S
C3545 H3529 0.930 . S
C3545 C3544 1.377 . S
C3545 C3546 1.379 . S
C3546 H3530 0.931 . S
C3546 C3540 1.383 . S
C3546 C3545 1.379 . S
H3547 C3541 0.959 . S
H3548 C3541 0.961 . S
H3549 C3541 0.960 . S
H3550 C3542 0.930 . S
H3551 C3543 0.929 . S
H3552 C3560 0.929 . S
H3553 C3562 0.930 . S
H3554 C3564 0.930 . S
H3555 C3567 0.929 . S
H3556 C3570 0.930 . S
H3557 C3572 0.960 . S
H3558 C3572 0.960 . S
H3559 C3572 0.960 . S
C3560 H3552 0.929 . S
C3560 C3561 1.377 . S
C3560 C3562 1.384 . S
C3561 C3560 1.377 . S
C3561 C3567 1.390 . S
C3562 H3553 0.930 . S
C3562 C3560 1.384 . S
C3562 C3563 1.372 . S
C3563 C3562 1.372 . S
C3563 C3564 1.400 . S
C3563 C3568 1.490 . S
C3564 H3554 0.930 . S
C3564 C3563 1.400 . S
C3564 C3567 1.386 . S
H3565 C3581 0.930 . S
H3566 C3582 0.931 . S
C3567 H3555 0.929 . S
C3567 C3561 1.390 . S
C3567 C3564 1.386 . S
C3568 C3563 1.490 . S
C3568 C3570 1.395 . S
C3568 C3571 1.403 . S
H3569 C3575 0.930 . S
C3570 H3556 0.930 . S
C3570 C3568 1.395 . S
C3570 C3573 1.403 . S
C3571 C3568 1.403 . S
C3571 C3572 1.524 . S
C3571 C3575 1.400 . S
C3572 H3557 0.960 . S
C3572 H3558 0.960 . S
C3572 H3559 0.960 . S
C3572 C3571 1.524 . S
C3573 C3570 1.403 . S
C3573 C3574 1.392 . S
C3573 C3577 1.495 . S
C3574 C3573 1.392 . S
C3574 C3575 1.385 . S
C3574 C3576 1.478 . S
C3575 H3569 0.930 . S
C3575 C3571 1.400 . S
C3575 C3574 1.385 . S
C3576 C3574 1.478 . S
C3576 C3578 1.381 . S
C3576 C3582 1.383 . S
C3577 C3573 1.495 . S
C3577 H3583 0.959 . S
C3577 H3584 0.961 . S
C3577 H3585 0.960 . S
C3578 C3576 1.381 . S
C3578 C3579 1.394 . S
C3578 H3586 0.930 . S
C3579 C3578 1.394 . S
C3579 C3580 1.383 . S
C3579 H3587 0.929 . S
C3580 C3579 1.383 . S
C3580 C3581 1.377 . S
C3581 H3565 0.930 . S
C3581 C3580 1.377 . S
C3581 C3582 1.379 . S
C3582 H3566 0.931 . S
C3582 C3576 1.383 . S
C3582 C3581 1.379 . S
H3583 C3577 0.959 . S
H3584 C3577 0.961 . S
H3585 C3577 0.960 . S
H3586 C3578 0.930 . S
H3587 C3579 0.929 . S
H3588 C3596 0.929 . S
H3589 C3598 0.930 . S
H3590 C3600 0.930 . S
H3591 C3603 0.929 . S
H3592 C3606 0.930 . S
H3593 C3608 0.960 . S
H3594 C3608 0.960 . S
H3595 C3608 0.960 . S
C3596 H3588 0.929 . S
C3596 C3597 1.377 . S
C3596 C3598 1.384 . S
C3597 C3596 1.377 . S
C3597 C3603 1.390 . S
C3598 H3589 0.930 . S
C3598 C3596 1.384 . S
C3598 C3599 1.372 . S
C3599 C3598 1.372 . S
C3599 C3600 1.400 . S
C3599 C3604 1.490 . S
C3600 H3590 0.930 . S
C3600 C3599 1.400 . S
C3600 C3603 1.386 . S
H3601 C3617 0.930 . S
H3602 C3618 0.931 . S
C3603 H3591 0.929 . S
C3603 C3597 1.390 . S
C3603 C3600 1.386 . S
C3604 C3599 1.490 . S
C3604 C3606 1.395 1_455 S
C3604 C3607 1.403 . S
H3605 C3611 0.930 . S
C3606 H3592 0.930 . S
C3606 C3604 1.395 1_655 S
C3606 C3609 1.403 . S
C3607 C3604 1.403 . S
C3607 C3608 1.524 . S
C3607 C3611 1.400 1_455 S
C3608 H3593 0.960 . S
C3608 H3594 0.960 . S
C3608 H3595 0.960 . S
C3608 C3607 1.524 . S
C3609 C3606 1.403 . S
C3609 C3610 1.392 . S
C3609 C3613 1.495 . S
C3610 C3609 1.392 . S
C3610 C3611 1.385 . S
C3610 C3612 1.478 . S
C3611 H3605 0.930 . S
C3611 C3607 1.400 1_655 S
C3611 C3610 1.385 . S
C3612 C3610 1.478 . S
C3612 C3614 1.381 . S
C3612 C3618 1.383 . S
C3613 C3609 1.495 . S
C3613 H3619 0.959 . S
C3613 H3620 0.961 . S
C3613 H3621 0.960 . S
C3614 C3612 1.381 . S
C3614 C3615 1.394 . S
C3614 H3622 0.930 . S
C3615 C3614 1.394 . S
C3615 C3616 1.383 . S
C3615 H3623 0.929 . S
C3616 C3615 1.383 . S
C3616 C3617 1.377 . S
C3617 H3601 0.930 . S
C3617 C3616 1.377 . S
C3617 C3618 1.379 . S
C3618 H3602 0.931 . S
C3618 C3612 1.383 . S
C3618 C3617 1.379 . S
H3619 C3613 0.959 . S
H3620 C3613 0.961 . S
H3621 C3613 0.960 . S
H3622 C3614 0.930 . S
H3623 C3615 0.929 . S
H3624 C3632 0.929 . S
H3625 C3634 0.930 . S
H3626 C3636 0.930 . S
H3627 C3639 0.929 . S
H3628 C3642 0.930 . S
H3629 C3644 0.960 . S
H3630 C3644 0.960 . S
H3631 C3644 0.960 . S
C3632 H3624 0.929 . S
C3632 C3633 1.377 1_455 S
C3632 C3634 1.384 . S
C3633 C3632 1.377 1_655 S
C3633 C3639 1.390 . S
C3634 H3625 0.930 . S
C3634 C3632 1.384 . S
C3634 C3635 1.372 . S
C3635 C3634 1.372 . S
C3635 C3636 1.400 1_455 S
C3635 C3640 1.490 . S
C3636 H3626 0.930 . S
C3636 C3635 1.400 1_655 S
C3636 C3639 1.386 . S
H3637 C3653 0.930 . S
H3638 C3654 0.931 1_655 S
C3639 H3627 0.929 . S
C3639 C3633 1.390 . S
C3639 C3636 1.386 . S
C3640 C3635 1.490 . S
C3640 C3642 1.395 . S
C3640 C3643 1.409 . S
H3641 C3647 0.930 . S
C3642 H3628 0.930 . S
C3642 C3640 1.395 . S
C3642 C3645 1.403 . S
C3643 C3640 1.409 . S
C3643 C3644 1.507 1_455 S
C3643 C3647 1.413 . S
C3644 H3629 0.960 . S
C3644 H3630 0.960 . S
C3644 H3631 0.960 . S
C3644 C3643 1.507 1_655 S
C3645 C3642 1.403 . S
C3645 C3646 1.392 . S
C3645 C3649 1.495 . S
C3646 C3645 1.392 . S
C3646 C3647 1.385 . S
C3646 C3648 1.478 . S
C3647 H3641 0.930 . S
C3647 C3643 1.413 . S
C3647 C3646 1.385 . S
C3648 C3646 1.478 . S
C3648 C3650 1.381 . S
C3648 C3654 1.383 . S
C3649 C3645 1.495 . S
C3649 H3655 0.959 . S
C3649 H3656 0.961 . S
C3649 H3657 0.960 . S
C3650 C3648 1.381 . S
C3650 C3651 1.394 . S
C3650 H3658 0.930 . S
C3651 C3650 1.394 . S
C3651 C3652 1.383 . S
C3651 H3659 0.929 . S
C3652 C3651 1.383 . S
C3652 C3653 1.377 . S
C3653 H3637 0.930 . S
C3653 C3652 1.377 . S
C3653 C3654 1.379 . S
C3654 H3638 0.931 1_455 S
C3654 C3648 1.383 . S
C3654 C3653 1.379 . S
H3655 C3649 0.959 . S
H3656 C3649 0.961 . S
H3657 C3649 0.960 . S
H3658 C3650 0.930 . S
H3659 C3651 0.929 . S
H3660 C3668 0.929 . S
H3661 C3670 0.930 . S
H3662 C3672 0.930 . S
H3663 C3675 0.929 . S
H3664 C3678 0.930 . S
H3665 C3680 0.960 . S
H3666 C3680 0.960 . S
H3667 C3680 0.960 . S
C3668 H3660 0.929 . S
C3668 C3669 1.377 . S
C3668 C3670 1.384 . S
C3669 C3668 1.377 . S
C3669 C3675 1.390 . S
C3670 H3661 0.930 . S
C3670 C3668 1.384 . S
C3670 C3671 1.372 . S
C3671 C3670 1.372 . S
C3671 C3672 1.400 . S
C3671 C3676 1.490 . S
C3672 H3662 0.930 . S
C3672 C3671 1.400 . S
C3672 C3675 1.386 . S
H3673 C3689 0.930 . S
H3674 C3690 0.931 . S
C3675 H3663 0.929 . S
C3675 C3669 1.390 . S
C3675 C3672 1.386 . S
C3676 C3671 1.490 . S
C3676 C3678 1.395 . S
C3676 C3679 1.403 . S
H3677 C3683 0.930 . S
C3678 H3664 0.930 . S
C3678 C3676 1.395 . S
C3678 C3681 1.403 . S
C3679 C3676 1.403 . S
C3679 C3680 1.524 . S
C3679 C3683 1.400 . S
C3680 H3665 0.960 . S
C3680 H3666 0.960 . S
C3680 H3667 0.960 . S
C3680 C3679 1.524 . S
C3681 C3678 1.403 . S
C3681 C3682 1.392 . S
C3681 C3685 1.495 . S
C3682 C3681 1.392 . S
C3682 C3683 1.385 . S
C3682 C3684 1.478 . S
C3683 H3677 0.930 . S
C3683 C3679 1.400 . S
C3683 C3682 1.385 . S
C3684 C3682 1.478 . S
C3684 C3686 1.381 . S
C3684 C3690 1.383 . S
C3685 C3681 1.495 . S
C3685 H3691 0.959 . S
C3685 H3692 0.961 . S
C3685 H3693 0.960 . S
C3686 C3684 1.381 . S
C3686 C3687 1.394 . S
C3686 H3694 0.930 . S
C3687 C3686 1.394 . S
C3687 C3688 1.383 . S
C3687 H3695 0.929 . S
C3688 C3687 1.383 . S
C3688 C3689 1.377 . S
C3689 H3673 0.930 . S
C3689 C3688 1.377 . S
C3689 C3690 1.379 . S
C3690 H3674 0.931 . S
C3690 C3684 1.383 . S
C3690 C3689 1.379 . S
H3691 C3685 0.959 . S
H3692 C3685 0.961 . S
H3693 C3685 0.960 . S
H3694 C3686 0.930 . S
H3695 C3687 0.929 . S
H3696 C3704 0.929 . S
H3697 C3706 0.930 . S
H3698 C3708 0.930 . S
H3699 C3711 0.929 . S
H3700 C3714 0.930 . S
H3701 C3716 0.960 . S
H3702 C3716 0.960 . S
H3703 C3716 0.960 . S
C3704 H3696 0.929 . S
C3704 C3705 1.377 . S
C3704 C3706 1.384 . S
C3705 C3704 1.377 . S
C3705 C3711 1.390 . S
C3706 H3697 0.930 . S
C3706 C3704 1.384 . S
C3706 C3707 1.372 . S
C3707 C3706 1.372 . S
C3707 C3708 1.400 . S
C3707 C3712 1.490 . S
C3708 H3698 0.930 . S
C3708 C3707 1.400 . S
C3708 C3711 1.386 . S
H3709 C3725 0.930 . S
H3710 C3726 0.931 . S
C3711 H3699 0.929 . S
C3711 C3705 1.390 . S
C3711 C3708 1.386 . S
C3712 C3707 1.490 . S
C3712 C3714 1.395 . S
C3712 C3715 1.403 . S
H3713 C3719 0.930 . S
C3714 H3700 0.930 . S
C3714 C3712 1.395 . S
C3714 C3717 1.403 . S
C3715 C3712 1.403 . S
C3715 C3716 1.524 . S
C3715 C3719 1.400 . S
C3716 H3701 0.960 . S
C3716 H3702 0.960 . S
C3716 H3703 0.960 . S
C3716 C3715 1.524 . S
C3717 C3714 1.403 . S
C3717 C3718 1.392 . S
C3717 C3721 1.495 . S
C3718 C3717 1.392 . S
C3718 C3719 1.385 . S
C3718 C3720 1.478 . S
C3719 H3713 0.930 . S
C3719 C3715 1.400 . S
C3719 C3718 1.385 . S
C3720 C3718 1.478 . S
C3720 C3722 1.381 . S
C3720 C3726 1.383 . S
C3721 C3717 1.495 . S
C3721 H3727 0.959 . S
C3721 H3728 0.961 . S
C3721 H3729 0.960 . S
C3722 C3720 1.381 . S
C3722 C3723 1.394 . S
C3722 H3730 0.930 . S
C3723 C3722 1.394 . S
C3723 C3724 1.383 . S
C3723 H3731 0.929 . S
C3724 C3723 1.383 . S
C3724 C3725 1.377 . S
C3725 H3709 0.930 . S
C3725 C3724 1.377 . S
C3725 C3726 1.379 . S
C3726 H3710 0.931 . S
C3726 C3720 1.383 . S
C3726 C3725 1.379 . S
H3727 C3721 0.959 . S
H3728 C3721 0.961 . S
H3729 C3721 0.960 . S
H3730 C3722 0.930 . S
H3731 C3723 0.929 . S
H3732 C3740 0.929 1_554 S
H3733 C3742 0.930 . S
H3734 C3744 0.930 . S
H3735 C3747 0.929 . S
H3736 C3750 0.930 . S
H3737 C3752 0.960 . S
H3738 C3752 0.960 . S
H3739 C3752 0.960 . S
C3740 H3732 0.929 1_556 S
C3740 C3741 1.377 . S
C3740 C3742 1.384 . S
C3741 C3740 1.377 . S
C3741 C3747 1.390 . S
C3742 H3733 0.930 . S
C3742 C3740 1.384 . S
C3742 C3743 1.372 . S
C3743 C3742 1.372 . S
C3743 C3744 1.400 . S
C3743 C3748 1.490 . S
C3744 H3734 0.930 . S
C3744 C3743 1.400 . S
C3744 C3747 1.386 . S
H3745 C3761 0.930 . S
H3746 C3762 0.931 . S
C3747 H3735 0.929 . S
C3747 C3741 1.390 . S
C3747 C3744 1.386 . S
C3748 C3743 1.490 . S
C3748 C3750 1.395 . S
C3748 C3751 1.403 . S
H3749 C3755 0.930 . S
C3750 H3736 0.930 . S
C3750 C3748 1.395 . S
C3750 C3753 1.403 . S
C3751 C3748 1.403 . S
C3751 C3752 1.524 . S
C3751 C3755 1.400 . S
C3752 H3737 0.960 . S
C3752 H3738 0.960 . S
C3752 H3739 0.960 . S
C3752 C3751 1.524 . S
C3753 C3750 1.403 . S
C3753 C3754 1.392 . S
C3753 C3757 1.495 . S
C3754 C3753 1.392 . S
C3754 C3755 1.385 . S
C3754 C3756 1.478 . S
C3755 H3749 0.930 . S
C3755 C3751 1.400 . S
C3755 C3754 1.385 . S
C3756 C3754 1.478 . S
C3756 C3758 1.381 . S
C3756 C3762 1.383 . S
C3757 C3753 1.495 . S
C3757 H3763 0.959 . S
C3757 H3764 0.961 . S
C3757 H3765 0.960 . S
C3758 C3756 1.381 . S
C3758 C3759 1.394 . S
C3758 H3766 0.930 . S
C3759 C3758 1.394 . S
C3759 C3760 1.383 . S
C3759 H3767 0.929 . S
C3760 C3759 1.383 . S
C3760 C3761 1.377 . S
C3761 H3745 0.930 . S
C3761 C3760 1.377 . S
C3761 C3762 1.379 . S
C3762 H3746 0.931 . S
C3762 C3756 1.383 . S
C3762 C3761 1.379 . S
H3763 C3757 0.959 . S
H3764 C3757 0.961 . S
H3765 C3757 0.960 . S
H3766 C3758 0.930 . S
H3767 C3759 0.929 . S
H3768 C3776 0.929 . S
H3769 C3778 0.930 . S
H3770 C3780 0.930 . S
H3771 C3783 0.929 . S
H3772 C3786 0.930 . S
H3773 C3788 0.960 . S
H3774 C3788 0.960 . S
H3775 C3788 0.960 . S
C3776 H3768 0.929 . S
C3776 C3777 1.377 . S
C3776 C3778 1.384 . S
C3777 C3776 1.377 . S
C3777 C3783 1.390 . S
C3778 H3769 0.930 . S
C3778 C3776 1.384 . S
C3778 C3779 1.372 . S
C3779 C3778 1.372 . S
C3779 C3780 1.400 . S
C3779 C3784 1.490 . S
C3780 H3770 0.930 . S
C3780 C3779 1.400 . S
C3780 C3783 1.386 . S
H3781 C3797 0.930 . S
H3782 C3798 0.931 . S
C3783 H3771 0.929 . S
C3783 C3777 1.390 . S
C3783 C3780 1.386 . S
C3784 C3779 1.490 . S
C3784 C3786 1.395 . S
C3784 C3787 1.403 . S
H3785 C3791 0.930 . S
C3786 H3772 0.930 . S
C3786 C3784 1.395 . S
C3786 C3789 1.403 . S
C3787 C3784 1.403 . S
C3787 C3788 1.524 . S
C3787 C3791 1.400 . S
C3788 H3773 0.960 . S
C3788 H3774 0.960 . S
C3788 H3775 0.960 . S
C3788 C3787 1.524 . S
C3789 C3786 1.403 . S
C3789 C3790 1.392 . S
C3789 C3793 1.495 . S
C3790 C3789 1.392 . S
C3790 C3791 1.385 . S
C3790 C3792 1.478 . S
C3791 H3785 0.930 . S
C3791 C3787 1.400 . S
C3791 C3790 1.385 . S
C3792 C3790 1.478 . S
C3792 C3794 1.381 . S
C3792 C3798 1.383 . S
C3793 C3789 1.495 . S
C3793 H3799 0.959 . S
C3793 H3800 0.961 . S
C3793 H3801 0.960 . S
C3794 C3792 1.381 . S
C3794 C3795 1.394 . S
C3794 H3802 0.930 . S
C3795 C3794 1.394 . S
C3795 C3796 1.383 . S
C3795 H3803 0.929 . S
C3796 C3795 1.383 . S
C3796 C3797 1.377 . S
C3797 H3781 0.930 . S
C3797 C3796 1.377 . S
C3797 C3798 1.379 . S
C3798 H3782 0.931 . S
C3798 C3792 1.383 . S
C3798 C3797 1.379 . S
H3799 C3793 0.959 . S
H3800 C3793 0.961 . S
H3801 C3793 0.960 . S
H3802 C3794 0.930 . S
H3803 C3795 0.929 . S
H3804 C3812 0.929 . S
H3805 C3814 0.930 . S
H3806 C3816 0.930 . S
H3807 C3819 0.929 . S
H3808 C3822 0.930 . S
H3809 C3824 0.960 . S
H3810 C3824 0.960 . S
H3811 C3824 0.960 . S
C3812 H3804 0.929 . S
C3812 C3813 1.377 . S
C3812 C3814 1.384 . S
C3813 C3812 1.377 . S
C3813 C3819 1.390 . S
C3814 H3805 0.930 . S
C3814 C3812 1.384 . S
C3814 C3815 1.372 . S
C3815 C3814 1.372 . S
C3815 C3816 1.400 . S
C3815 C3820 1.490 . S
C3816 H3806 0.930 . S
C3816 C3815 1.400 . S
C3816 C3819 1.386 . S
H3817 C3833 0.930 . S
H3818 C3834 0.931 . S
C3819 H3807 0.929 . S
C3819 C3813 1.390 . S
C3819 C3816 1.386 . S
C3820 C3815 1.490 . S
C3820 C3822 1.395 . S
C3820 C3823 1.403 . S
H3821 C3827 0.930 . S
C3822 H3808 0.930 . S
C3822 C3820 1.395 . S
C3822 C3825 1.403 . S
C3823 C3820 1.403 . S
C3823 C3824 1.524 . S
C3823 C3827 1.400 . S
C3824 H3809 0.960 . S
C3824 H3810 0.960 . S
C3824 H3811 0.960 . S
C3824 C3823 1.524 . S
C3825 C3822 1.403 . S
C3825 C3826 1.392 . S
C3825 C3829 1.495 . S
C3826 C3825 1.392 . S
C3826 C3827 1.385 . S
C3826 C3828 1.478 . S
C3827 H3821 0.930 . S
C3827 C3823 1.400 . S
C3827 C3826 1.385 . S
C3828 C3826 1.478 . S
C3828 C3830 1.381 . S
C3828 C3834 1.383 . S
C3829 C3825 1.495 . S
C3829 H3835 0.959 . S
C3829 H3836 0.961 . S
C3829 H3837 0.960 . S
C3830 C3828 1.381 . S
C3830 C3831 1.394 . S
C3830 H3838 0.930 . S
C3831 C3830 1.394 . S
C3831 C3832 1.383 . S
C3831 H3839 0.929 . S
C3832 C3831 1.383 . S
C3832 C3833 1.377 . S
C3833 H3817 0.930 . S
C3833 C3832 1.377 . S
C3833 C3834 1.379 . S
C3834 H3818 0.931 . S
C3834 C3828 1.383 . S
C3834 C3833 1.379 . S
H3835 C3829 0.959 . S
H3836 C3829 0.961 . S
H3837 C3829 0.960 . S
H3838 C3830 0.930 . S
H3839 C3831 0.929 . S
H3840 C3848 0.929 . S
H3841 C3850 0.930 . S
H3842 C3852 0.930 . S
H3843 C3855 0.929 . S
H3844 C3858 0.930 . S
H3845 C3860 0.960 . S
H3846 C3860 0.960 . S
H3847 C3860 0.960 . S
C3848 H3840 0.929 . S
C3848 C3849 1.377 . S
C3848 C3850 1.384 . S
C3849 C3848 1.377 . S
C3849 C3855 1.390 . S
C3850 H3841 0.930 . S
C3850 C3848 1.384 . S
C3850 C3851 1.372 . S
C3851 C3850 1.372 . S
C3851 C3852 1.400 . S
C3851 C3856 1.490 . S
C3852 H3842 0.930 . S
C3852 C3851 1.400 . S
C3852 C3855 1.386 . S
H3853 C3869 0.930 . S
H3854 C3870 0.931 . S
C3855 H3843 0.929 . S
C3855 C3849 1.390 . S
C3855 C3852 1.386 . S
C3856 C3851 1.490 . S
C3856 C3858 1.395 . S
C3856 C3859 1.403 . S
H3857 C3863 0.930 . S
C3858 H3844 0.930 . S
C3858 C3856 1.395 . S
C3858 C3861 1.403 . S
C3859 C3856 1.403 . S
C3859 C3860 1.524 . S
C3859 C3863 1.400 . S
C3860 H3845 0.960 . S
C3860 H3846 0.960 . S
C3860 H3847 0.960 . S
C3860 C3859 1.524 . S
C3861 C3858 1.403 . S
C3861 C3862 1.392 . S
C3861 C3865 1.495 . S
C3862 C3861 1.392 . S
C3862 C3863 1.385 . S
C3862 C3864 1.478 . S
C3863 H3857 0.930 . S
C3863 C3859 1.400 . S
C3863 C3862 1.385 . S
C3864 C3862 1.478 . S
C3864 C3866 1.381 . S
C3864 C3870 1.383 . S
C3865 C3861 1.495 . S
C3865 H3871 0.959 . S
C3865 H3872 0.961 . S
C3865 H3873 0.960 . S
C3866 C3864 1.381 . S
C3866 C3867 1.394 . S
C3866 H3874 0.930 . S
C3867 C3866 1.394 . S
C3867 C3868 1.383 . S
C3867 H3875 0.929 . S
C3868 C3867 1.383 . S
C3868 C3869 1.377 . S
C3869 H3853 0.930 . S
C3869 C3868 1.377 . S
C3869 C3870 1.379 . S
C3870 H3854 0.931 . S
C3870 C3864 1.383 . S
C3870 C3869 1.379 . S
H3871 C3865 0.959 . S
H3872 C3865 0.961 . S
H3873 C3865 0.960 . S
H3874 C3866 0.930 . S
H3875 C3867 0.929 . S
H3876 C3884 0.929 . S
H3877 C3886 0.930 . S
H3878 C3888 0.930 . S
H3879 C3891 0.929 . S
H3880 C3894 0.930 . S
H3881 C3896 0.960 . S
H3882 C3896 0.960 . S
H3883 C3896 0.960 . S
C3884 H3876 0.929 . S
C3884 C3885 1.377 . S
C3884 C3886 1.384 . S
C3885 C3884 1.377 . S
C3885 C3891 1.390 . S
C3886 H3877 0.930 . S
C3886 C3884 1.384 . S
C3886 C3887 1.372 . S
C3887 C3886 1.372 . S
C3887 C3888 1.400 . S
C3887 C3892 1.490 . S
C3888 H3878 0.930 . S
C3888 C3887 1.400 . S
C3888 C3891 1.386 . S
H3889 C3905 0.930 . S
H3890 C3906 0.931 . S
C3891 H3879 0.929 . S
C3891 C3885 1.390 . S
C3891 C3888 1.386 . S
C3892 C3887 1.490 . S
C3892 C3894 1.395 . S
C3892 C3895 1.403 . S
H3893 C3899 0.930 . S
C3894 H3880 0.930 . S
C3894 C3892 1.395 . S
C3894 C3897 1.403 . S
C3895 C3892 1.403 . S
C3895 C3896 1.524 . S
C3895 C3899 1.400 . S
C3896 H3881 0.960 . S
C3896 H3882 0.960 . S
C3896 H3883 0.960 . S
C3896 C3895 1.524 . S
C3897 C3894 1.403 . S
C3897 C3898 1.392 . S
C3897 C3901 1.495 . S
C3898 C3897 1.392 . S
C3898 C3899 1.385 . S
C3898 C3900 1.478 . S
C3899 H3893 0.930 . S
C3899 C3895 1.400 . S
C3899 C3898 1.385 . S
C3900 C3898 1.478 . S
C3900 C3902 1.381 . S
C3900 C3906 1.383 . S
C3901 C3897 1.495 . S
C3901 H3907 0.959 . S
C3901 H3908 0.961 . S
C3901 H3909 0.960 . S
C3902 C3900 1.381 . S
C3902 C3903 1.394 . S
C3902 H3910 0.930 . S
C3903 C3902 1.394 . S
C3903 C3904 1.383 . S
C3903 H3911 0.929 . S
C3904 C3903 1.383 . S
C3904 C3905 1.377 . S
C3905 H3889 0.930 . S
C3905 C3904 1.377 . S
C3905 C3906 1.379 . S
C3906 H3890 0.931 . S
C3906 C3900 1.383 . S
C3906 C3905 1.379 . S
H3907 C3901 0.959 . S
H3908 C3901 0.961 . S
H3909 C3901 0.960 . S
H3910 C3902 0.930 . S
H3911 C3903 0.929 . S
H3912 C3920 0.929 . S
H3913 C3922 0.930 . S
H3914 C3924 0.930 . S
H3915 C3927 0.929 . S
H3916 C3930 0.930 . S
H3917 C3932 0.960 . S
H3918 C3932 0.960 . S
H3919 C3932 0.960 . S
C3920 H3912 0.929 . S
C3920 C3921 1.377 . S
C3920 C3922 1.384 . S
C3921 C3920 1.377 . S
C3921 C3927 1.390 . S
C3922 H3913 0.930 . S
C3922 C3920 1.384 . S
C3922 C3923 1.372 . S
C3923 C3922 1.372 . S
C3923 C3924 1.400 . S
C3923 C3928 1.490 . S
C3924 H3914 0.930 . S
C3924 C3923 1.400 . S
C3924 C3927 1.386 . S
H3925 C3941 0.930 . S
H3926 C3942 0.931 . S
C3927 H3915 0.929 . S
C3927 C3921 1.390 . S
C3927 C3924 1.386 . S
C3928 C3923 1.490 . S
C3928 C3930 1.395 . S
C3928 C3931 1.403 . S
H3929 C3935 0.930 . S
C3930 H3916 0.930 . S
C3930 C3928 1.395 . S
C3930 C3933 1.403 . S
C3931 C3928 1.403 . S
C3931 C3932 1.524 . S
C3931 C3935 1.400 . S
C3932 H3917 0.960 . S
C3932 H3918 0.960 . S
C3932 H3919 0.960 . S
C3932 C3931 1.524 . S
C3933 C3930 1.403 . S
C3933 C3934 1.392 . S
C3933 C3937 1.495 . S
C3934 C3933 1.392 . S
C3934 C3935 1.385 . S
C3934 C3936 1.478 . S
C3935 H3929 0.930 . S
C3935 C3931 1.400 . S
C3935 C3934 1.385 . S
C3936 C3934 1.478 . S
C3936 C3938 1.381 . S
C3936 C3942 1.383 . S
C3937 C3933 1.495 . S
C3937 H3943 0.959 . S
C3937 H3944 0.961 . S
C3937 H3945 0.960 . S
C3938 C3936 1.381 . S
C3938 C3939 1.394 . S
C3938 H3946 0.930 . S
C3939 C3938 1.394 . S
C3939 C3940 1.383 . S
C3939 H3947 0.929 . S
C3940 C3939 1.383 . S
C3940 C3941 1.377 . S
C3941 H3925 0.930 . S
C3941 C3940 1.377 . S
C3941 C3942 1.379 . S
C3942 H3926 0.931 . S
C3942 C3936 1.383 . S
C3942 C3941 1.379 . S
H3943 C3937 0.959 . S
H3944 C3937 0.961 . S
H3945 C3937 0.960 . S
H3946 C3938 0.930 . S
H3947 C3939 0.929 . S
H3948 C3956 0.929 . S
H3949 C3958 0.930 . S
H3950 C3960 0.930 . S
H3951 C3963 0.929 . S
H3952 C3966 0.930 . S
H3953 C3968 0.960 . S
H3954 C3968 0.960 . S
H3955 C3968 0.960 . S
C3956 H3948 0.929 . S
C3956 C3957 1.377 . S
C3956 C3958 1.384 . S
C3957 C3956 1.377 . S
C3957 C3963 1.390 . S
C3958 H3949 0.930 . S
C3958 C3956 1.384 . S
C3958 C3959 1.372 . S
C3959 C3958 1.372 . S
C3959 C3960 1.400 . S
C3959 C3964 1.490 . S
C3960 H3950 0.930 . S
C3960 C3959 1.400 . S
C3960 C3963 1.386 . S
H3961 C3977 0.930 . S
H3962 C3978 0.931 . S
C3963 H3951 0.929 . S
C3963 C3957 1.390 . S
C3963 C3960 1.386 . S
C3964 C3959 1.490 . S
C3964 C3966 1.395 . S
C3964 C3967 1.403 . S
H3965 C3971 0.930 . S
C3966 H3952 0.930 . S
C3966 C3964 1.395 . S
C3966 C3969 1.403 . S
C3967 C3964 1.403 . S
C3967 C3968 1.524 . S
C3967 C3971 1.400 . S
C3968 H3953 0.960 . S
C3968 H3954 0.960 . S
C3968 H3955 0.960 . S
C3968 C3967 1.524 . S
C3969 C3966 1.403 . S
C3969 C3970 1.392 . S
C3969 C3973 1.495 . S
C3970 C3969 1.392 . S
C3970 C3971 1.385 . S
C3970 C3972 1.478 . S
C3971 H3965 0.930 . S
C3971 C3967 1.400 . S
C3971 C3970 1.385 . S
C3972 C3970 1.478 . S
C3972 C3974 1.381 . S
C3972 C3978 1.383 . S
C3973 C3969 1.495 . S
C3973 H3979 0.959 . S
C3973 H3980 0.961 . S
C3973 H3981 0.960 . S
C3974 C3972 1.381 . S
C3974 C3975 1.394 . S
C3974 H3982 0.930 . S
C3975 C3974 1.394 . S
C3975 C3976 1.383 . S
C3975 H3983 0.929 . S
C3976 C3975 1.383 . S
C3976 C3977 1.377 . S
C3977 H3961 0.930 . S
C3977 C3976 1.377 . S
C3977 C3978 1.379 . S
C3978 H3962 0.931 . S
C3978 C3972 1.383 . S
C3978 C3977 1.379 . S
H3979 C3973 0.959 . S
H3980 C3973 0.961 . S
H3981 C3973 0.960 . S
H3982 C3974 0.930 . S
H3983 C3975 0.929 . S
H3984 C3992 0.929 . S
H3985 C3994 0.930 . S
H3986 C3996 0.930 . S
H3987 C3999 0.929 . S
H3988 C4002 0.930 . S
H3989 C4004 0.960 . S
H3990 C4004 0.960 . S
H3991 C4004 0.960 . S
C3992 H3984 0.929 . S
C3992 C3993 1.377 . S
C3992 C3994 1.384 . S
C3993 C3992 1.377 . S
C3993 C3999 1.390 . S
C3994 H3985 0.930 . S
C3994 C3992 1.384 . S
C3994 C3995 1.372 . S
C3995 C3994 1.372 . S
C3995 C3996 1.400 . S
C3995 C4000 1.490 . S
C3996 H3986 0.930 . S
C3996 C3995 1.400 . S
C3996 C3999 1.386 . S
H3997 C4013 0.930 . S
H3998 C4014 0.931 . S
C3999 H3987 0.929 . S
C3999 C3993 1.390 . S
C3999 C3996 1.386 . S
C4000 C3995 1.490 . S
C4000 C4002 1.395 . S
C4000 C4003 1.403 . S
H4001 C4007 0.930 . S
C4002 H3988 0.930 . S
C4002 C4000 1.395 . S
C4002 C4005 1.403 . S
C4003 C4000 1.403 . S
C4003 C4004 1.524 . S
C4003 C4007 1.400 . S
C4004 H3989 0.960 . S
C4004 H3990 0.960 . S
C4004 H3991 0.960 . S
C4004 C4003 1.524 . S
C4005 C4002 1.403 . S
C4005 C4006 1.392 . S
C4005 C4009 1.495 . S
C4006 C4005 1.392 . S
C4006 C4007 1.385 . S
C4006 C4008 1.478 . S
C4007 H4001 0.930 . S
C4007 C4003 1.400 . S
C4007 C4006 1.385 . S
C4008 C4006 1.478 . S
C4008 C4010 1.381 . S
C4008 C4014 1.383 . S
C4009 C4005 1.495 . S
C4009 H4015 0.959 . S
C4009 H4016 0.961 . S
C4009 H4017 0.960 . S
C4010 C4008 1.381 . S
C4010 C4011 1.394 . S
C4010 H4018 0.930 . S
C4011 C4010 1.394 . S
C4011 C4012 1.383 . S
C4011 H4019 0.929 . S
C4012 C4011 1.383 . S
C4012 C4013 1.377 . S
C4013 H3997 0.930 . S
C4013 C4012 1.377 . S
C4013 C4014 1.379 . S
C4014 H3998 0.931 . S
C4014 C4008 1.383 . S
C4014 C4013 1.379 . S
H4015 C4009 0.959 . S
H4016 C4009 0.961 . S
H4017 C4009 0.960 . S
H4018 C4010 0.930 . S
H4019 C4011 0.929 . S
H4020 C4028 0.929 . S
H4021 C4030 0.930 . S
H4022 C4032 0.930 . S
H4023 C4035 0.929 . S
H4024 C4038 0.930 . S
H4025 C4040 0.960 . S
H4026 C4040 0.960 . S
H4027 C4040 0.960 . S
C4028 H4020 0.929 . S
C4028 C4029 1.377 . S
C4028 C4030 1.384 . S
C4029 C4028 1.377 . S
C4029 C4035 1.390 . S
C4030 H4021 0.930 . S
C4030 C4028 1.384 . S
C4030 C4031 1.372 . S
C4031 C4030 1.372 . S
C4031 C4032 1.400 . S
C4031 C4036 1.490 . S
C4032 H4022 0.930 . S
C4032 C4031 1.400 . S
C4032 C4035 1.386 . S
H4033 C4049 0.930 . S
H4034 C4050 0.931 . S
C4035 H4023 0.929 . S
C4035 C4029 1.390 . S
C4035 C4032 1.386 . S
C4036 C4031 1.490 . S
C4036 C4038 1.395 . S
C4036 C4039 1.403 . S
H4037 C4043 0.930 . S
C4038 H4024 0.930 . S
C4038 C4036 1.395 . S
C4038 C4041 1.403 . S
C4039 C4036 1.403 . S
C4039 C4040 1.524 . S
C4039 C4043 1.400 . S
C4040 H4025 0.960 . S
C4040 H4026 0.960 . S
C4040 H4027 0.960 . S
C4040 C4039 1.524 . S
C4041 C4038 1.403 . S
C4041 C4042 1.392 . S
C4041 C4045 1.495 . S
C4042 C4041 1.392 . S
C4042 C4043 1.385 . S
C4042 C4044 1.478 . S
C4043 H4037 0.930 . S
C4043 C4039 1.400 . S
C4043 C4042 1.385 . S
C4044 C4042 1.478 . S
C4044 C4046 1.381 . S
C4044 C4050 1.383 . S
C4045 C4041 1.495 . S
C4045 H4051 0.959 . S
C4045 H4052 0.961 . S
C4045 H4053 0.960 . S
C4046 C4044 1.381 . S
C4046 C4047 1.394 . S
C4046 H4054 0.930 . S
C4047 C4046 1.394 . S
C4047 C4048 1.383 . S
C4047 H4055 0.929 . S
C4048 C4047 1.383 . S
C4048 C4049 1.377 . S
C4049 H4033 0.930 . S
C4049 C4048 1.377 . S
C4049 C4050 1.379 . S
C4050 H4034 0.931 . S
C4050 C4044 1.383 . S
C4050 C4049 1.379 . S
H4051 C4045 0.959 . S
H4052 C4045 0.961 . S
H4053 C4045 0.960 . S
H4054 C4046 0.930 . S
H4055 C4047 0.929 . S
H4056 C4064 0.929 . S
H4057 C4066 0.930 . S
H4058 C4068 0.930 . S
H4059 C4071 0.929 . S
H4060 C4074 0.930 . S
H4061 C4076 0.960 . S
H4062 C4076 0.960 . S
H4063 C4076 0.960 . S
C4064 H4056 0.929 . S
C4064 C4065 1.377 . S
C4064 C4066 1.384 . S
C4065 C4064 1.377 . S
C4065 C4071 1.390 . S
C4066 H4057 0.930 . S
C4066 C4064 1.384 . S
C4066 C4067 1.372 . S
C4067 C4066 1.372 . S
C4067 C4068 1.400 . S
C4067 C4072 1.490 . S
C4068 H4058 0.930 . S
C4068 C4067 1.400 . S
C4068 C4071 1.386 . S
H4069 C4085 0.930 . S
H4070 C4086 0.931 . S
C4071 H4059 0.929 . S
C4071 C4065 1.390 . S
C4071 C4068 1.386 . S
C4072 C4067 1.490 . S
C4072 C4074 1.395 . S
C4072 C4075 1.403 . S
H4073 C4079 0.930 . S
C4074 H4060 0.930 . S
C4074 C4072 1.395 . S
C4074 C4077 1.403 . S
C4075 C4072 1.403 . S
C4075 C4076 1.524 . S
C4075 C4079 1.400 . S
C4076 H4061 0.960 . S
C4076 H4062 0.960 . S
C4076 H4063 0.960 . S
C4076 C4075 1.524 . S
C4077 C4074 1.403 . S
C4077 C4078 1.392 . S
C4077 C4081 1.495 . S
C4078 C4077 1.392 . S
C4078 C4079 1.385 . S
C4078 C4080 1.478 . S
C4079 H4073 0.930 . S
C4079 C4075 1.400 . S
C4079 C4078 1.385 . S
C4080 C4078 1.478 . S
C4080 C4082 1.381 . S
C4080 C4086 1.383 . S
C4081 C4077 1.495 . S
C4081 H4087 0.959 . S
C4081 H4088 0.961 . S
C4081 H4089 0.960 . S
C4082 C4080 1.381 . S
C4082 C4083 1.394 . S
C4082 H4090 0.930 . S
C4083 C4082 1.394 . S
C4083 C4084 1.383 . S
C4083 H4091 0.929 . S
C4084 C4083 1.383 . S
C4084 C4085 1.377 . S
C4085 H4069 0.930 . S
C4085 C4084 1.377 . S
C4085 C4086 1.379 . S
C4086 H4070 0.931 . S
C4086 C4080 1.383 . S
C4086 C4085 1.379 . S
H4087 C4081 0.959 . S
H4088 C4081 0.961 . S
H4089 C4081 0.960 . S
H4090 C4082 0.930 . S
H4091 C4083 0.929 . S
H4092 C4100 0.929 1_556 S
H4093 C4102 0.930 1_556 S
H4094 C4104 0.930 . S
H4095 C4107 0.929 . S
H4096 C4110 0.930 1_556 S
H4097 C4112 0.960 . S
H4098 C4112 0.960 . S
H4099 C4112 0.960 . S
C4100 H4092 0.929 1_554 S
C4100 C4101 1.377 . S
C4100 C4102 1.384 . S
C4101 C4100 1.377 . S
C4101 C4107 1.390 . S
C4102 H4093 0.930 1_554 S
C4102 C4100 1.384 . S
C4102 C4103 1.372 . S
C4103 C4102 1.372 . S
C4103 C4104 1.400 . S
C4103 C4108 1.490 . S
C4104 H4094 0.930 . S
C4104 C4103 1.400 . S
C4104 C4107 1.386 . S
H4105 C4121 0.930 . S
H4106 C4122 0.931 . S
C4107 H4095 0.929 . S
C4107 C4101 1.390 . S
C4107 C4104 1.386 . S
C4108 C4103 1.490 . S
C4108 C4110 1.395 . S
C4108 C4111 1.403 . S
H4109 C4115 0.930 . S
C4110 H4096 0.930 1_554 S
C4110 C4108 1.395 . S
C4110 C4113 1.403 1_565 S
C4111 C4108 1.403 . S
C4111 C4112 1.524 . S
C4111 C4115 1.400 . S
C4112 H4097 0.960 . S
C4112 H4098 0.960 . S
C4112 H4099 0.960 . S
C4112 C4111 1.524 . S
C4113 C4110 1.403 1_545 S
C4113 C4114 1.392 . S
C4113 C4117 1.495 1_554 S
C4114 C4113 1.392 . S
C4114 C4115 1.385 1_545 S
C4114 C4116 1.478 . S
C4115 H4109 0.930 . S
C4115 C4111 1.400 . S
C4115 C4114 1.385 1_565 S
C4116 C4114 1.478 . S
C4116 C4118 1.381 1_554 S
C4116 C4122 1.383 . S
C4117 C4113 1.495 1_556 S
C4117 H4123 0.959 . S
C4117 H4124 0.961 . S
C4117 H4125 0.960 . S
C4118 C4116 1.381 1_556 S
C4118 C4119 1.394 . S
C4118 H4126 0.930 . S
C4119 C4118 1.394 . S
C4119 C4120 1.383 1_556 S
C4119 H4127 0.929 . S
C4120 C4119 1.383 1_554 S
C4120 C4121 1.377 . S
C4121 H4105 0.930 . S
C4121 C4120 1.377 . S
C4121 C4122 1.379 . S
C4122 H4106 0.931 . S
C4122 C4116 1.383 . S
C4122 C4121 1.379 . S
H4123 C4117 0.959 . S
H4124 C4117 0.961 . S
H4125 C4117 0.960 . S
H4126 C4118 0.930 . S
H4127 C4119 0.929 . S
H4128 C4136 0.929 . S
H4129 C4138 0.930 . S
H4130 C4140 0.930 . S
H4131 C4143 0.929 . S
H4132 C4146 0.930 . S
H4133 C4148 0.960 . S
H4134 C4148 0.960 . S
H4135 C4148 0.960 . S
C4136 H4128 0.929 . S
C4136 C4137 1.377 . S
C4136 C4138 1.384 . S
C4137 C4136 1.377 . S
C4137 C4143 1.390 . S
C4138 H4129 0.930 . S
C4138 C4136 1.384 . S
C4138 C4139 1.372 . S
C4139 C4138 1.372 . S
C4139 C4140 1.400 . S
C4139 C4144 1.490 . S
C4140 H4130 0.930 . S
C4140 C4139 1.400 . S
C4140 C4143 1.386 . S
H4141 C4157 0.930 . S
H4142 C4158 0.931 . S
C4143 H4131 0.929 . S
C4143 C4137 1.390 . S
C4143 C4140 1.386 . S
C4144 C4139 1.490 . S
C4144 C4146 1.395 . S
C4144 C4147 1.403 . S
H4145 C4151 0.930 . S
C4146 H4132 0.930 . S
C4146 C4144 1.395 . S
C4146 C4149 1.403 . S
C4147 C4144 1.403 . S
C4147 C4148 1.524 . S
C4147 C4151 1.400 . S
C4148 H4133 0.960 . S
C4148 H4134 0.960 . S
C4148 H4135 0.960 . S
C4148 C4147 1.524 . S
C4149 C4146 1.403 . S
C4149 C4150 1.392 . S
C4149 C4153 1.495 . S
C4150 C4149 1.392 . S
C4150 C4151 1.385 . S
C4150 C4152 1.478 . S
C4151 H4145 0.930 . S
C4151 C4147 1.400 . S
C4151 C4150 1.385 . S
C4152 C4150 1.478 . S
C4152 C4154 1.381 . S
C4152 C4158 1.383 . S
C4153 C4149 1.495 . S
C4153 H4159 0.959 . S
C4153 H4160 0.961 . S
C4153 H4161 0.960 . S
C4154 C4152 1.381 . S
C4154 C4155 1.394 . S
C4154 H4162 0.930 . S
C4155 C4154 1.394 . S
C4155 C4156 1.383 . S
C4155 H4163 0.929 . S
C4156 C4155 1.383 . S
C4156 C4157 1.377 . S
C4157 H4141 0.930 . S
C4157 C4156 1.377 . S
C4157 C4158 1.379 . S
C4158 H4142 0.931 . S
C4158 C4152 1.383 . S
C4158 C4157 1.379 . S
H4159 C4153 0.959 . S
H4160 C4153 0.961 . S
H4161 C4153 0.960 . S
H4162 C4154 0.930 . S
H4163 C4155 0.929 . S
H4164 C4172 0.929 . S
H4165 C4174 0.930 . S
H4166 C4176 0.930 . S
H4167 C4179 0.929 . S
H4168 C4182 0.930 . S
H4169 C4184 0.960 . S
H4170 C4184 0.960 . S
H4171 C4184 0.960 . S
C4172 H4164 0.929 . S
C4172 C4173 1.376 . S
C4172 C4174 1.384 . S
C4173 C4172 1.376 . S
C4173 C4179 1.390 1_554 S
C4174 H4165 0.930 . S
C4174 C4172 1.384 . S
C4174 C4175 1.372 . S
C4175 C4174 1.372 . S
C4175 C4176 1.394 1_554 S
C4175 C4180 1.490 . S
C4176 H4166 0.930 . S
C4176 C4175 1.394 1_556 S
C4176 C4179 1.392 . S
H4177 C4193 0.930 . S
H4178 C4194 0.931 . S
C4179 H4167 0.929 . S
C4179 C4173 1.390 1_556 S
C4179 C4176 1.392 . S
C4180 C4175 1.490 . S
C4180 C4182 1.395 . S
C4180 C4183 1.403 1_554 S
H4181 C4187 0.930 1_556 S
C4182 H4168 0.930 . S
C4182 C4180 1.395 . S
C4182 C4185 1.403 . S
C4183 C4180 1.403 1_556 S
C4183 C4184 1.524 . S
C4183 C4187 1.400 1_556 S
C4184 H4169 0.960 . S
C4184 H4170 0.960 . S
C4184 H4171 0.960 . S
C4184 C4183 1.524 . S
C4185 C4182 1.403 . S
C4185 C4186 1.392 . S
C4185 C4189 1.495 . S
C4186 C4185 1.392 . S
C4186 C4187 1.385 . S
C4186 C4188 1.478 . S
C4187 H4181 0.930 1_554 S
C4187 C4183 1.400 1_554 S
C4187 C4186 1.385 . S
C4188 C4186 1.478 . S
C4188 C4190 1.381 . S
C4188 C4194 1.383 . S
C4189 C4185 1.495 . S
C4189 H4195 0.959 . S
C4189 H4196 0.961 . S
C4189 H4197 0.960 . S
C4190 C4188 1.381 . S
C4190 C4191 1.394 . S
C4190 H4198 0.930 . S
C4191 C4190 1.394 . S
C4191 C4192 1.383 . S
C4191 H4199 0.929 . S
C4192 C4191 1.383 . S
C4192 C4193 1.377 . S
C4193 H4177 0.930 . S
C4193 C4192 1.377 . S
C4193 C4194 1.379 . S
C4194 H4178 0.931 . S
C4194 C4188 1.383 . S
C4194 C4193 1.379 . S
H4195 C4189 0.959 . S
H4196 C4189 0.961 . S
H4197 C4189 0.960 . S
H4198 C4190 0.930 . S
H4199 C4191 0.929 . S
H4200 C4208 0.929 . S
H4201 C4210 0.930 . S
H4202 C4212 0.930 . S
H4203 C4215 0.929 . S
H4204 C4218 0.930 . S
H4205 C4220 0.960 . S
H4206 C4220 0.960 . S
H4207 C4220 0.960 . S
C4208 H4200 0.929 . S
C4208 C4209 1.377 . S
C4208 C4210 1.384 . S
C4209 C4208 1.377 . S
C4209 C4215 1.390 . S
C4210 H4201 0.930 . S
C4210 C4208 1.384 . S
C4210 C4211 1.372 . S
C4211 C4210 1.372 . S
C4211 C4212 1.400 . S
C4211 C4216 1.490 . S
C4212 H4202 0.930 . S
C4212 C4211 1.400 . S
C4212 C4215 1.386 . S
H4213 C4229 0.930 . S
H4214 C4230 0.931 . S
C4215 H4203 0.929 . S
C4215 C4209 1.390 . S
C4215 C4212 1.386 . S
C4216 C4211 1.490 . S
C4216 C4218 1.395 . S
C4216 C4219 1.403 . S
H4217 C4223 0.930 . S
C4218 H4204 0.930 . S
C4218 C4216 1.395 . S
C4218 C4221 1.403 . S
C4219 C4216 1.403 . S
C4219 C4220 1.524 . S
C4219 C4223 1.400 . S
C4220 H4205 0.960 . S
C4220 H4206 0.960 . S
C4220 H4207 0.960 . S
C4220 C4219 1.524 . S
C4221 C4218 1.403 . S
C4221 C4222 1.392 . S
C4221 C4225 1.495 . S
C4222 C4221 1.392 . S
C4222 C4223 1.385 . S
C4222 C4224 1.478 . S
C4223 H4217 0.930 . S
C4223 C4219 1.400 . S
C4223 C4222 1.385 . S
C4224 C4222 1.478 . S
C4224 C4226 1.381 . S
C4224 C4230 1.383 . S
C4225 C4221 1.495 . S
C4225 H4231 0.959 . S
C4225 H4232 0.961 . S
C4225 H4233 0.960 . S
C4226 C4224 1.381 . S
C4226 C4227 1.394 . S
C4226 H4234 0.930 . S
C4227 C4226 1.394 . S
C4227 C4228 1.383 . S
C4227 H4235 0.929 . S
C4228 C4227 1.383 . S
C4228 C4229 1.377 . S
C4229 H4213 0.930 . S
C4229 C4228 1.377 . S
C4229 C4230 1.379 . S
C4230 H4214 0.931 . S
C4230 C4224 1.383 . S
C4230 C4229 1.379 . S
H4231 C4225 0.959 . S
H4232 C4225 0.961 . S
H4233 C4225 0.960 . S
H4234 C4226 0.930 . S
H4235 C4227 0.929 . S
H4236 C4244 0.929 . S
H4237 C4246 0.930 . S
H4238 C4248 0.930 . S
H4239 C4251 0.929 . S
H4240 C4254 0.930 . S
H4241 C4256 0.960 . S
H4242 C4256 0.960 . S
H4243 C4256 0.960 . S
C4244 H4236 0.929 . S
C4244 C4245 1.377 . S
C4244 C4246 1.384 . S
C4245 C4244 1.377 . S
C4245 C4251 1.390 . S
C4246 H4237 0.930 . S
C4246 C4244 1.384 . S
C4246 C4247 1.372 . S
C4247 C4246 1.372 . S
C4247 C4248 1.400 . S
C4247 C4252 1.490 . S
C4248 H4238 0.930 . S
C4248 C4247 1.400 . S
C4248 C4251 1.386 . S
H4249 C4265 0.930 . S
H4250 C4266 0.931 . S
C4251 H4239 0.929 . S
C4251 C4245 1.390 . S
C4251 C4248 1.386 . S
C4252 C4247 1.490 . S
C4252 C4254 1.395 . S
C4252 C4255 1.403 . S
H4253 C4259 0.930 . S
C4254 H4240 0.930 . S
C4254 C4252 1.395 . S
C4254 C4257 1.403 . S
C4255 C4252 1.403 . S
C4255 C4256 1.524 . S
C4255 C4259 1.400 . S
C4256 H4241 0.960 . S
C4256 H4242 0.960 . S
C4256 H4243 0.960 . S
C4256 C4255 1.524 . S
C4257 C4254 1.403 . S
C4257 C4258 1.392 . S
C4257 C4261 1.495 . S
C4258 C4257 1.392 . S
C4258 C4259 1.385 . S
C4258 C4260 1.478 . S
C4259 H4253 0.930 . S
C4259 C4255 1.400 . S
C4259 C4258 1.385 . S
C4260 C4258 1.478 . S
C4260 C4262 1.381 . S
C4260 C4266 1.383 . S
C4261 C4257 1.495 . S
C4261 H4267 0.959 . S
C4261 H4268 0.961 . S
C4261 H4269 0.960 . S
C4262 C4260 1.381 . S
C4262 C4263 1.394 . S
C4262 H4270 0.930 . S
C4263 C4262 1.394 . S
C4263 C4264 1.383 . S
C4263 H4271 0.929 . S
C4264 C4263 1.383 . S
C4264 C4265 1.377 . S
C4265 H4249 0.930 . S
C4265 C4264 1.377 . S
C4265 C4266 1.379 . S
C4266 H4250 0.931 . S
C4266 C4260 1.383 . S
C4266 C4265 1.379 . S
H4267 C4261 0.959 . S
H4268 C4261 0.961 . S
H4269 C4261 0.960 . S
H4270 C4262 0.930 . S
H4271 C4263 0.929 . S
H4272 C4280 0.929 . S
H4273 C4282 0.930 . S
H4274 C4284 0.930 . S
H4275 C4287 0.929 . S
H4276 C4290 0.930 . S
H4277 C4292 0.960 . S
H4278 C4292 0.960 . S
H4279 C4292 0.960 . S
C4280 H4272 0.929 . S
C4280 C4281 1.377 . S
C4280 C4282 1.384 . S
C4281 C4280 1.377 . S
C4281 C4287 1.390 . S
C4282 H4273 0.930 . S
C4282 C4280 1.384 . S
C4282 C4283 1.372 . S
C4283 C4282 1.372 . S
C4283 C4284 1.400 . S
C4283 C4288 1.490 . S
C4284 H4274 0.930 . S
C4284 C4283 1.400 . S
C4284 C4287 1.386 . S
H4285 C4301 0.930 . S
H4286 C4302 0.931 . S
C4287 H4275 0.929 . S
C4287 C4281 1.390 . S
C4287 C4284 1.386 . S
C4288 C4283 1.490 . S
C4288 C4290 1.395 . S
C4288 C4291 1.403 . S
H4289 C4295 0.930 . S
C4290 H4276 0.930 . S
C4290 C4288 1.395 . S
C4290 C4293 1.403 . S
C4291 C4288 1.403 . S
C4291 C4292 1.524 . S
C4291 C4295 1.400 . S
C4292 H4277 0.960 . S
C4292 H4278 0.960 . S
C4292 H4279 0.960 . S
C4292 C4291 1.524 . S
C4293 C4290 1.403 . S
C4293 C4294 1.392 . S
C4293 C4297 1.495 . S
C4294 C4293 1.392 . S
C4294 C4295 1.385 . S
C4294 C4296 1.478 . S
C4295 H4289 0.930 . S
C4295 C4291 1.400 . S
C4295 C4294 1.385 . S
C4296 C4294 1.478 . S
C4296 C4298 1.381 . S
C4296 C4302 1.383 . S
C4297 C4293 1.495 . S
C4297 H4303 0.959 . S
C4297 H4304 0.961 . S
C4297 H4305 0.960 . S
C4298 C4296 1.381 . S
C4298 C4299 1.394 . S
C4298 H4306 0.930 . S
C4299 C4298 1.394 . S
C4299 C4300 1.383 . S
C4299 H4307 0.929 . S
C4300 C4299 1.383 . S
C4300 C4301 1.377 . S
C4301 H4285 0.930 . S
C4301 C4300 1.377 . S
C4301 C4302 1.379 . S
C4302 H4286 0.931 . S
C4302 C4296 1.383 . S
C4302 C4301 1.379 . S
H4303 C4297 0.959 . S
H4304 C4297 0.961 . S
H4305 C4297 0.960 . S
H4306 C4298 0.930 . S
H4307 C4299 0.929 . S
H4308 C4316 0.929 . S
H4309 C4318 0.930 . S
H4310 C4320 0.930 . S
H4311 C4323 0.929 . S
H4312 C4326 0.930 . S
H4313 C4328 0.960 . S
H4314 C4328 0.960 . S
H4315 C4328 0.960 . S
C4316 H4308 0.929 . S
C4316 C4317 1.377 . S
C4316 C4318 1.384 . S
C4317 C4316 1.377 . S
C4317 C4323 1.390 . S
C4318 H4309 0.930 . S
C4318 C4316 1.384 . S
C4318 C4319 1.372 . S
C4319 C4318 1.372 . S
C4319 C4320 1.400 . S
C4319 C4324 1.490 . S
C4320 H4310 0.930 . S
C4320 C4319 1.400 . S
C4320 C4323 1.386 . S
H4321 C4337 0.930 . S
H4322 C4338 0.931 . S
C4323 H4311 0.929 . S
C4323 C4317 1.390 . S
C4323 C4320 1.386 . S
C4324 C4319 1.490 . S
C4324 C4326 1.395 . S
C4324 C4327 1.403 . S
H4325 C4331 0.930 . S
C4326 H4312 0.930 . S
C4326 C4324 1.395 . S
C4326 C4329 1.403 . S
C4327 C4324 1.403 . S
C4327 C4328 1.524 . S
C4327 C4331 1.400 . S
C4328 H4313 0.960 . S
C4328 H4314 0.960 . S
C4328 H4315 0.960 . S
C4328 C4327 1.524 . S
C4329 C4326 1.403 . S
C4329 C4330 1.392 . S
C4329 C4333 1.495 . S
C4330 C4329 1.392 . S
C4330 C4331 1.385 . S
C4330 C4332 1.478 . S
C4331 H4325 0.930 . S
C4331 C4327 1.400 . S
C4331 C4330 1.385 . S
C4332 C4330 1.478 . S
C4332 C4334 1.381 . S
C4332 C4338 1.383 . S
C4333 C4329 1.495 . S
C4333 H4339 0.959 . S
C4333 H4340 0.961 . S
C4333 H4341 0.960 . S
C4334 C4332 1.381 . S
C4334 C4335 1.394 . S
C4334 H4342 0.930 . S
C4335 C4334 1.394 . S
C4335 C4336 1.383 . S
C4335 H4343 0.929 . S
C4336 C4335 1.383 . S
C4336 C4337 1.377 . S
C4337 H4321 0.930 . S
C4337 C4336 1.377 . S
C4337 C4338 1.379 . S
C4338 H4322 0.931 . S
C4338 C4332 1.383 . S
C4338 C4337 1.379 . S
H4339 C4333 0.959 . S
H4340 C4333 0.961 . S
H4341 C4333 0.960 . S
H4342 C4334 0.930 . S
H4343 C4335 0.929 . S
H4344 C4352 0.929 . S
H4345 C4354 0.930 . S
H4346 C4356 0.930 . S
H4347 C4359 0.929 . S
H4348 C4362 0.930 . S
H4349 C4364 0.960 . S
H4350 C4364 0.960 . S
H4351 C4364 0.960 . S
C4352 H4344 0.929 . S
C4352 C4353 1.377 . S
C4352 C4354 1.384 . S
C4353 C4352 1.377 . S
C4353 C4359 1.390 . S
C4354 H4345 0.930 . S
C4354 C4352 1.384 . S
C4354 C4355 1.372 . S
C4355 C4354 1.372 . S
C4355 C4356 1.400 . S
C4355 C4360 1.490 . S
C4356 H4346 0.930 . S
C4356 C4355 1.400 . S
C4356 C4359 1.386 . S
H4357 C4373 0.930 . S
H4358 C4374 0.931 . S
C4359 H4347 0.929 . S
C4359 C4353 1.390 . S
C4359 C4356 1.386 . S
C4360 C4355 1.490 . S
C4360 C4362 1.395 . S
C4360 C4363 1.403 . S
H4361 C4367 0.930 . S
C4362 H4348 0.930 . S
C4362 C4360 1.395 . S
C4362 C4365 1.403 . S
C4363 C4360 1.403 . S
C4363 C4364 1.524 . S
C4363 C4367 1.400 . S
C4364 H4349 0.960 . S
C4364 H4350 0.960 . S
C4364 H4351 0.960 . S
C4364 C4363 1.524 . S
C4365 C4362 1.403 . S
C4365 C4366 1.392 . S
C4365 C4369 1.495 . S
C4366 C4365 1.392 . S
C4366 C4367 1.385 . S
C4366 C4368 1.478 . S
C4367 H4361 0.930 . S
C4367 C4363 1.400 . S
C4367 C4366 1.385 . S
C4368 C4366 1.478 . S
C4368 C4370 1.381 . S
C4368 C4374 1.383 . S
C4369 C4365 1.495 . S
C4369 H4375 0.959 . S
C4369 H4376 0.961 . S
C4369 H4377 0.960 . S
C4370 C4368 1.381 . S
C4370 C4371 1.394 . S
C4370 H4378 0.930 . S
C4371 C4370 1.394 . S
C4371 C4372 1.383 . S
C4371 H4379 0.929 . S
C4372 C4371 1.383 . S
C4372 C4373 1.377 . S
C4373 H4357 0.930 . S
C4373 C4372 1.377 . S
C4373 C4374 1.379 . S
C4374 H4358 0.931 . S
C4374 C4368 1.383 . S
C4374 C4373 1.379 . S
H4375 C4369 0.959 . S
H4376 C4369 0.961 . S
H4377 C4369 0.960 . S
H4378 C4370 0.930 . S
H4379 C4371 0.929 . S
H4380 C4388 0.929 . S
H4381 C4390 0.930 . S
H4382 C4392 0.930 . S
H4383 C4395 0.929 . S
H4384 C4398 0.930 . S
H4385 C4400 0.960 . S
H4386 C4400 0.960 . S
H4387 C4400 0.960 . S
C4388 H4380 0.929 . S
C4388 C4389 1.377 . S
C4388 C4390 1.384 . S
C4389 C4388 1.377 . S
C4389 C4395 1.390 . S
C4390 H4381 0.930 . S
C4390 C4388 1.384 . S
C4390 C4391 1.372 . S
C4391 C4390 1.372 . S
C4391 C4392 1.400 . S
C4391 C4396 1.490 . S
C4392 H4382 0.930 . S
C4392 C4391 1.400 . S
C4392 C4395 1.386 . S
H4393 C4409 0.930 . S
H4394 C4410 0.931 . S
C4395 H4383 0.929 . S
C4395 C4389 1.390 . S
C4395 C4392 1.386 . S
C4396 C4391 1.490 . S
C4396 C4398 1.395 . S
C4396 C4399 1.403 . S
H4397 C4403 0.930 . S
C4398 H4384 0.930 . S
C4398 C4396 1.395 . S
C4398 C4401 1.403 . S
C4399 C4396 1.403 . S
C4399 C4400 1.524 . S
C4399 C4403 1.400 . S
C4400 H4385 0.960 . S
C4400 H4386 0.960 . S
C4400 H4387 0.960 . S
C4400 C4399 1.524 . S
C4401 C4398 1.403 . S
C4401 C4402 1.392 . S
C4401 C4405 1.495 . S
C4402 C4401 1.392 . S
C4402 C4403 1.385 . S
C4402 C4404 1.478 . S
C4403 H4397 0.930 . S
C4403 C4399 1.400 . S
C4403 C4402 1.385 . S
C4404 C4402 1.478 . S
C4404 C4406 1.381 . S
C4404 C4410 1.383 . S
C4405 C4401 1.495 . S
C4405 H4411 0.959 . S
C4405 H4412 0.961 . S
C4405 H4413 0.960 . S
C4406 C4404 1.381 . S
C4406 C4407 1.394 . S
C4406 H4414 0.930 . S
C4407 C4406 1.394 . S
C4407 C4408 1.383 . S
C4407 H4415 0.929 . S
C4408 C4407 1.383 . S
C4408 C4409 1.377 . S
C4409 H4393 0.930 . S
C4409 C4408 1.377 . S
C4409 C4410 1.379 . S
C4410 H4394 0.931 . S
C4410 C4404 1.383 . S
C4410 C4409 1.379 . S
H4411 C4405 0.959 . S
H4412 C4405 0.961 . S
H4413 C4405 0.960 . S
H4414 C4406 0.930 . S
H4415 C4407 0.929 . S
H4416 C4424 0.929 . S
H4417 C4426 0.930 . S
H4418 C4428 0.930 . S
H4419 C4431 0.929 . S
H4420 C4434 0.930 . S
H4421 C4436 0.960 . S
H4422 C4436 0.960 . S
H4423 C4436 0.960 . S
C4424 H4416 0.929 . S
C4424 C4425 1.377 . S
C4424 C4426 1.384 . S
C4425 C4424 1.377 . S
C4425 C4431 1.390 . S
C4426 H4417 0.930 . S
C4426 C4424 1.384 . S
C4426 C4427 1.372 . S
C4427 C4426 1.372 . S
C4427 C4428 1.400 . S
C4427 C4432 1.490 . S
C4428 H4418 0.930 . S
C4428 C4427 1.400 . S
C4428 C4431 1.386 . S
H4429 C4445 0.930 . S
H4430 C4446 0.931 . S
C4431 H4419 0.929 . S
C4431 C4425 1.390 . S
C4431 C4428 1.386 . S
C4432 C4427 1.490 . S
C4432 C4434 1.395 . S
C4432 C4435 1.403 . S
H4433 C4439 0.930 . S
C4434 H4420 0.930 . S
C4434 C4432 1.395 . S
C4434 C4437 1.403 . S
C4435 C4432 1.403 . S
C4435 C4436 1.524 . S
C4435 C4439 1.400 . S
C4436 H4421 0.960 . S
C4436 H4422 0.960 . S
C4436 H4423 0.960 . S
C4436 C4435 1.524 . S
C4437 C4434 1.403 . S
C4437 C4438 1.392 . S
C4437 C4441 1.495 . S
C4438 C4437 1.392 . S
C4438 C4439 1.385 . S
C4438 C4440 1.478 . S
C4439 H4433 0.930 . S
C4439 C4435 1.400 . S
C4439 C4438 1.385 . S
C4440 C4438 1.478 . S
C4440 C4442 1.381 . S
C4440 C4446 1.383 . S
C4441 C4437 1.495 . S
C4441 H4447 0.959 . S
C4441 H4448 0.961 . S
C4441 H4449 0.960 . S
C4442 C4440 1.381 . S
C4442 C4443 1.394 . S
C4442 H4450 0.930 . S
C4443 C4442 1.394 . S
C4443 C4444 1.383 . S
C4443 H4451 0.929 . S
C4444 C4443 1.383 . S
C4444 C4445 1.377 . S
C4445 H4429 0.930 . S
C4445 C4444 1.377 . S
C4445 C4446 1.379 . S
C4446 H4430 0.931 . S
C4446 C4440 1.383 . S
C4446 C4445 1.379 . S
H4447 C4441 0.959 . S
H4448 C4441 0.961 . S
H4449 C4441 0.960 . S
H4450 C4442 0.930 . S
H4451 C4443 0.929 . S
H4452 C4460 0.929 . S
H4453 C4462 0.930 . S
H4454 C4464 0.930 . S
H4455 C4467 0.929 . S
H4456 C4470 0.930 . S
H4457 C4472 0.960 . S
H4458 C4472 0.960 . S
H4459 C4472 0.960 . S
C4460 H4452 0.929 . S
C4460 C4461 1.377 . S
C4460 C4462 1.384 . S
C4461 C4460 1.377 . S
C4461 C4467 1.390 . S
C4462 H4453 0.930 . S
C4462 C4460 1.384 . S
C4462 C4463 1.372 . S
C4463 C4462 1.372 . S
C4463 C4464 1.400 . S
C4463 C4468 1.490 . S
C4464 H4454 0.930 . S
C4464 C4463 1.400 . S
C4464 C4467 1.386 . S
H4465 C4481 0.930 . S
H4466 C4482 0.931 . S
C4467 H4455 0.929 . S
C4467 C4461 1.390 . S
C4467 C4464 1.386 . S
C4468 C4463 1.490 . S
C4468 C4470 1.395 . S
C4468 C4471 1.403 . S
H4469 C4475 0.930 . S
C4470 H4456 0.930 . S
C4470 C4468 1.395 . S
C4470 C4473 1.403 . S
C4471 C4468 1.403 . S
C4471 C4472 1.524 . S
C4471 C4475 1.400 . S
C4472 H4457 0.960 . S
C4472 H4458 0.960 . S
C4472 H4459 0.960 . S
C4472 C4471 1.524 . S
C4473 C4470 1.403 . S
C4473 C4474 1.392 . S
C4473 C4477 1.495 . S
C4474 C4473 1.392 . S
C4474 C4475 1.385 . S
C4474 C4476 1.478 . S
C4475 H4469 0.930 . S
C4475 C4471 1.400 . S
C4475 C4474 1.385 . S
C4476 C4474 1.478 . S
C4476 C4478 1.381 . S
C4476 C4482 1.383 . S
C4477 C4473 1.495 . S
C4477 H4483 0.959 . S
C4477 H4484 0.961 . S
C4477 H4485 0.960 . S
C4478 C4476 1.381 . S
C4478 C4479 1.394 . S
C4478 H4486 0.930 . S
C4479 C4478 1.394 . S
C4479 C4480 1.383 . S
C4479 H4487 0.929 . S
C4480 C4479 1.383 . S
C4480 C4481 1.377 . S
C4481 H4465 0.930 . S
C4481 C4480 1.377 . S
C4481 C4482 1.379 . S
C4482 H4466 0.931 . S
C4482 C4476 1.383 . S
C4482 C4481 1.379 . S
H4483 C4477 0.959 . S
H4484 C4477 0.961 . S
H4485 C4477 0.960 . S
H4486 C4478 0.930 . S
H4487 C4479 0.929 . S
H4488 C4496 0.929 . S
H4489 C4498 0.930 . S
H4490 C4500 0.930 . S
H4491 C4503 0.929 . S
H4492 C4506 0.930 . S
H4493 C4508 0.960 . S
H4494 C4508 0.960 . S
H4495 C4508 0.960 . S
C4496 H4488 0.929 . S
C4496 C4497 1.377 . S
C4496 C4498 1.384 . S
C4497 C4496 1.377 . S
C4497 C4503 1.390 . S
C4498 H4489 0.930 . S
C4498 C4496 1.384 . S
C4498 C4499 1.372 . S
C4499 C4498 1.372 . S
C4499 C4500 1.400 . S
C4499 C4504 1.490 . S
C4500 H4490 0.930 . S
C4500 C4499 1.400 . S
C4500 C4503 1.386 . S
H4501 C4517 0.930 . S
H4502 C4518 0.931 . S
C4503 H4491 0.929 . S
C4503 C4497 1.390 . S
C4503 C4500 1.386 . S
C4504 C4499 1.490 . S
C4504 C4506 1.395 . S
C4504 C4507 1.403 . S
H4505 C4511 0.930 . S
C4506 H4492 0.930 . S
C4506 C4504 1.395 . S
C4506 C4509 1.403 . S
C4507 C4504 1.403 . S
C4507 C4508 1.524 . S
C4507 C4511 1.400 . S
C4508 H4493 0.960 . S
C4508 H4494 0.960 . S
C4508 H4495 0.960 . S
C4508 C4507 1.524 . S
C4509 C4506 1.403 . S
C4509 C4510 1.392 . S
C4509 C4513 1.495 . S
C4510 C4509 1.392 . S
C4510 C4511 1.385 . S
C4510 C4512 1.478 . S
C4511 H4505 0.930 . S
C4511 C4507 1.400 . S
C4511 C4510 1.385 . S
C4512 C4510 1.478 . S
C4512 C4514 1.381 . S
C4512 C4518 1.383 . S
C4513 C4509 1.495 . S
C4513 H4519 0.959 . S
C4513 H4520 0.961 . S
C4513 H4521 0.960 . S
C4514 C4512 1.381 . S
C4514 C4515 1.394 . S
C4514 H4522 0.930 . S
C4515 C4514 1.394 . S
C4515 C4516 1.383 . S
C4515 H4523 0.929 . S
C4516 C4515 1.383 . S
C4516 C4517 1.377 . S
C4517 H4501 0.930 . S
C4517 C4516 1.377 . S
C4517 C4518 1.379 . S
C4518 H4502 0.931 . S
C4518 C4512 1.383 . S
C4518 C4517 1.379 . S
H4519 C4513 0.959 . S
H4520 C4513 0.961 . S
H4521 C4513 0.960 . S
H4522 C4514 0.930 . S
H4523 C4515 0.929 . S
H4524 C4532 0.929 . S
H4525 C4534 0.930 . S
H4526 C4536 0.930 . S
H4527 C4539 0.929 . S
H4528 C4542 0.930 . S
H4529 C4544 0.960 . S
H4530 C4544 0.960 . S
H4531 C4544 0.960 . S
C4532 H4524 0.929 . S
C4532 C4533 1.377 . S
C4532 C4534 1.384 . S
C4533 C4532 1.377 . S
C4533 C4539 1.390 . S
C4534 H4525 0.930 . S
C4534 C4532 1.384 . S
C4534 C4535 1.372 . S
C4535 C4534 1.372 . S
C4535 C4536 1.400 . S
C4535 C4540 1.490 . S
C4536 H4526 0.930 . S
C4536 C4535 1.400 . S
C4536 C4539 1.386 . S
H4537 C4553 0.930 . S
H4538 C4554 0.931 . S
C4539 H4527 0.929 . S
C4539 C4533 1.390 . S
C4539 C4536 1.386 . S
C4540 C4535 1.490 . S
C4540 C4542 1.395 . S
C4540 C4543 1.403 . S
H4541 C4547 0.930 . S
C4542 H4528 0.930 . S
C4542 C4540 1.395 . S
C4542 C4545 1.403 . S
C4543 C4540 1.403 . S
C4543 C4544 1.524 . S
C4543 C4547 1.400 . S
C4544 H4529 0.960 . S
C4544 H4530 0.960 . S
C4544 H4531 0.960 . S
C4544 C4543 1.524 . S
C4545 C4542 1.403 . S
C4545 C4546 1.392 . S
C4545 C4549 1.495 . S
C4546 C4545 1.392 . S
C4546 C4547 1.385 . S
C4546 C4548 1.478 . S
C4547 H4541 0.930 . S
C4547 C4543 1.400 . S
C4547 C4546 1.385 . S
C4548 C4546 1.478 . S
C4548 C4550 1.381 . S
C4548 C4554 1.383 . S
C4549 C4545 1.495 . S
C4549 H4555 0.959 . S
C4549 H4556 0.961 . S
C4549 H4557 0.960 . S
C4550 C4548 1.381 . S
C4550 C4551 1.394 . S
C4550 H4558 0.930 . S
C4551 C4550 1.394 . S
C4551 C4552 1.383 . S
C4551 H4559 0.929 . S
C4552 C4551 1.383 . S
C4552 C4553 1.377 . S
C4553 H4537 0.930 . S
C4553 C4552 1.377 . S
C4553 C4554 1.379 . S
C4554 H4538 0.931 . S
C4554 C4548 1.383 . S
C4554 C4553 1.379 . S
H4555 C4549 0.959 . S
H4556 C4549 0.961 . S
H4557 C4549 0.960 . S
H4558 C4550 0.930 . S
H4559 C4551 0.929 . S
H4560 C4568 0.929 . S
H4561 C4570 0.930 . S
H4562 C4572 0.930 . S
H4563 C4575 0.929 . S
H4564 C4578 0.930 . S
H4565 C4580 0.960 . S
H4566 C4580 0.960 . S
H4567 C4580 0.960 . S
C4568 H4560 0.929 . S
C4568 C4569 1.377 . S
C4568 C4570 1.384 . S
C4569 C4568 1.377 . S
C4569 C4575 1.390 . S
C4570 H4561 0.930 . S
C4570 C4568 1.384 . S
C4570 C4571 1.372 . S
C4571 C4570 1.372 . S
C4571 C4572 1.400 . S
C4571 C4576 1.490 . S
C4572 H4562 0.930 . S
C4572 C4571 1.400 . S
C4572 C4575 1.386 . S
H4573 C4589 0.930 . S
H4574 C4590 0.931 . S
C4575 H4563 0.929 . S
C4575 C4569 1.390 . S
C4575 C4572 1.386 . S
C4576 C4571 1.490 . S
C4576 C4578 1.395 . S
C4576 C4579 1.403 . S
H4577 C4583 0.930 . S
C4578 H4564 0.930 . S
C4578 C4576 1.395 . S
C4578 C4581 1.403 . S
C4579 C4576 1.403 . S
C4579 C4580 1.524 . S
C4579 C4583 1.400 . S
C4580 H4565 0.960 . S
C4580 H4566 0.960 . S
C4580 H4567 0.960 . S
C4580 C4579 1.524 . S
C4581 C4578 1.403 . S
C4581 C4582 1.392 . S
C4581 C4585 1.495 . S
C4582 C4581 1.392 . S
C4582 C4583 1.385 . S
C4582 C4584 1.478 . S
C4583 H4577 0.930 . S
C4583 C4579 1.400 . S
C4583 C4582 1.385 . S
C4584 C4582 1.478 . S
C4584 C4586 1.381 . S
C4584 C4590 1.383 . S
C4585 C4581 1.495 . S
C4585 H4591 0.959 . S
C4585 H4592 0.961 . S
C4585 H4593 0.960 . S
C4586 C4584 1.381 . S
C4586 C4587 1.394 . S
C4586 H4594 0.930 . S
C4587 C4586 1.394 . S
C4587 C4588 1.383 . S
C4587 H4595 0.929 . S
C4588 C4587 1.383 . S
C4588 C4589 1.377 . S
C4589 H4573 0.930 . S
C4589 C4588 1.377 . S
C4589 C4590 1.379 . S
C4590 H4574 0.931 . S
C4590 C4584 1.383 . S
C4590 C4589 1.379 . S
H4591 C4585 0.959 . S
H4592 C4585 0.961 . S
H4593 C4585 0.960 . S
H4594 C4586 0.930 . S
H4595 C4587 0.929 . S
H4596 C4604 0.929 . S
H4597 C4606 0.930 . S
H4598 C4608 0.930 . S
H4599 C4611 0.929 . S
H4600 C4614 0.930 . S
H4601 C4616 0.960 . S
H4602 C4616 0.960 . S
H4603 C4616 0.960 . S
C4604 H4596 0.929 . S
C4604 C4605 1.377 . S
C4604 C4606 1.384 . S
C4605 C4604 1.377 . S
C4605 C4611 1.390 . S
C4606 H4597 0.930 . S
C4606 C4604 1.384 . S
C4606 C4607 1.372 . S
C4607 C4606 1.372 . S
C4607 C4608 1.400 . S
C4607 C4612 1.490 . S
C4608 H4598 0.930 . S
C4608 C4607 1.400 . S
C4608 C4611 1.386 . S
H4609 C4625 0.930 . S
H4610 C4626 0.931 . S
C4611 H4599 0.929 . S
C4611 C4605 1.390 . S
C4611 C4608 1.386 . S
C4612 C4607 1.490 . S
C4612 C4614 1.395 . S
C4612 C4615 1.403 . S
H4613 C4619 0.930 . S
C4614 H4600 0.930 . S
C4614 C4612 1.395 . S
C4614 C4617 1.403 . S
C4615 C4612 1.403 . S
C4615 C4616 1.524 . S
C4615 C4619 1.400 . S
C4616 H4601 0.960 . S
C4616 H4602 0.960 . S
C4616 H4603 0.960 . S
C4616 C4615 1.524 . S
C4617 C4614 1.403 . S
C4617 C4618 1.392 . S
C4617 C4621 1.495 . S
C4618 C4617 1.392 . S
C4618 C4619 1.385 . S
C4618 C4620 1.478 . S
C4619 H4613 0.930 . S
C4619 C4615 1.400 . S
C4619 C4618 1.385 . S
C4620 C4618 1.478 . S
C4620 C4622 1.381 . S
C4620 C4626 1.383 . S
C4621 C4617 1.495 . S
C4621 H4627 0.959 . S
C4621 H4628 0.961 . S
C4621 H4629 0.960 . S
C4622 C4620 1.381 . S
C4622 C4623 1.394 . S
C4622 H4630 0.930 . S
C4623 C4622 1.394 . S
C4623 C4624 1.383 . S
C4623 H4631 0.929 . S
C4624 C4623 1.383 . S
C4624 C4625 1.377 . S
C4625 H4609 0.930 . S
C4625 C4624 1.377 . S
C4625 C4626 1.379 . S
C4626 H4610 0.931 . S
C4626 C4620 1.383 . S
C4626 C4625 1.379 . S
H4627 C4621 0.959 . S
H4628 C4621 0.961 . S
H4629 C4621 0.960 . S
H4630 C4622 0.930 . S
H4631 C4623 0.929 . S
H4632 C4640 0.929 . S
H4633 C4642 0.930 . S
H4634 C4644 0.930 . S
H4635 C4647 0.929 . S
H4636 C4650 0.930 . S
H4637 C4652 0.947 1_455 S
H4638 C4652 0.966 1_455 S
H4639 C4652 0.964 . S
C4640 H4632 0.929 . S
C4640 C4641 1.377 . S
C4640 C4642 1.384 . S
C4641 C4640 1.377 . S
C4641 C4647 1.390 . S
C4642 H4633 0.930 . S
C4642 C4640 1.384 . S
C4642 C4643 1.372 . S
C4643 C4642 1.372 . S
C4643 C4644 1.400 . S
C4643 C4648 1.490 . S
C4644 H4634 0.930 . S
C4644 C4643 1.400 . S
C4644 C4647 1.386 . S
H4645 C4661 0.930 . S
H4646 C4662 0.931 . S
C4647 H4635 0.929 . S
C4647 C4641 1.390 . S
C4647 C4644 1.386 . S
C4648 C4643 1.490 . S
C4648 C4650 1.395 . S
C4648 C4651 1.403 . S
H4649 C4655 0.930 1_455 S
C4650 H4636 0.930 . S
C4650 C4648 1.395 . S
C4650 C4653 1.403 . S
C4651 C4648 1.403 . S
C4651 C4652 1.532 . S
C4651 C4655 1.400 . S
C4652 H4637 0.947 1_655 S
C4652 H4638 0.966 1_655 S
C4652 H4639 0.964 . S
C4652 C4651 1.532 . S
C4653 C4650 1.403 . S
C4653 C4654 1.392 . S
C4653 C4657 1.495 . S
C4654 C4653 1.392 . S
C4654 C4655 1.385 . S
C4654 C4656 1.459 1_655 S
C4655 H4649 0.930 1_655 S
C4655 C4651 1.400 . S
C4655 C4654 1.385 . S
C4656 C4654 1.459 1_455 S
C4656 C4658 1.384 . S
C4656 C4662 1.402 . S
C4657 C4653 1.495 . S
C4657 H4663 0.959 . S
C4657 H4664 0.961 . S
C4657 H4665 0.960 . S
C4658 C4656 1.384 . S
C4658 C4659 1.394 . S
C4658 H4666 0.930 . S
C4659 C4658 1.394 . S
C4659 C4660 1.383 . S
C4659 H4667 0.929 . S
C4660 C4659 1.383 . S
C4660 C4661 1.377 . S
C4661 H4645 0.930 . S
C4661 C4660 1.377 . S
C4661 C4662 1.379 . S
C4662 H4646 0.931 . S
C4662 C4656 1.402 . S
C4662 C4661 1.379 . S
H4663 C4657 0.959 . S
H4664 C4657 0.961 . S
H4665 C4657 0.960 . S
H4666 C4658 0.930 . S
H4667 C4659 0.929 . S
H4668 C4676 0.929 . S
H4669 C4678 0.930 . S
H4670 C4680 0.930 . S
H4671 C4683 0.929 . S
H4672 C4686 0.930 . S
H4673 C4688 0.960 . S
H4674 C4688 0.960 . S
H4675 C4688 0.960 . S
C4676 H4668 0.929 . S
C4676 C4677 1.377 . S
C4676 C4678 1.384 . S
C4677 C4676 1.377 . S
C4677 C4683 1.390 . S
C4678 H4669 0.930 . S
C4678 C4676 1.384 . S
C4678 C4679 1.372 . S
C4679 C4678 1.372 . S
C4679 C4680 1.400 . S
C4679 C4684 1.490 . S
C4680 H4670 0.930 . S
C4680 C4679 1.400 . S
C4680 C4683 1.386 . S
H4681 C4697 0.930 . S
H4682 C4698 0.931 . S
C4683 H4671 0.929 . S
C4683 C4677 1.390 . S
C4683 C4680 1.386 . S
C4684 C4679 1.490 . S
C4684 C4686 1.395 . S
C4684 C4687 1.403 . S
H4685 C4691 0.930 . S
C4686 H4672 0.930 . S
C4686 C4684 1.395 . S
C4686 C4689 1.403 . S
C4687 C4684 1.403 . S
C4687 C4688 1.524 . S
C4687 C4691 1.400 . S
C4688 H4673 0.960 . S
C4688 H4674 0.960 . S
C4688 H4675 0.960 . S
C4688 C4687 1.524 . S
C4689 C4686 1.403 . S
C4689 C4690 1.392 . S
C4689 C4693 1.495 . S
C4690 C4689 1.392 . S
C4690 C4691 1.385 . S
C4690 C4692 1.478 . S
C4691 H4685 0.930 . S
C4691 C4687 1.400 . S
C4691 C4690 1.385 . S
C4692 C4690 1.478 . S
C4692 C4694 1.381 . S
C4692 C4698 1.383 . S
C4693 C4689 1.495 . S
C4693 H4699 0.959 . S
C4693 H4700 0.961 . S
C4693 H4701 0.960 . S
C4694 C4692 1.381 . S
C4694 C4695 1.394 . S
C4694 H4702 0.930 . S
C4695 C4694 1.394 . S
C4695 C4696 1.383 . S
C4695 H4703 0.929 . S
C4696 C4695 1.383 . S
C4696 C4697 1.377 . S
C4697 H4681 0.930 . S
C4697 C4696 1.377 . S
C4697 C4698 1.379 . S
C4698 H4682 0.931 . S
C4698 C4692 1.383 . S
C4698 C4697 1.379 . S
H4699 C4693 0.959 . S
H4700 C4693 0.961 . S
H4701 C4693 0.960 . S
H4702 C4694 0.930 . S
H4703 C4695 0.929 . S
H4704 C4712 0.929 . S
H4705 C4714 0.930 . S
H4706 C4716 0.930 . S
H4707 C4719 0.929 . S
H4708 C4722 0.930 . S
H4709 C4724 0.960 . S
H4710 C4724 0.960 . S
H4711 C4724 0.960 . S
C4712 H4704 0.929 . S
C4712 C4713 1.377 . S
C4712 C4714 1.384 . S
C4713 C4712 1.377 . S
C4713 C4719 1.390 . S
C4714 H4705 0.930 . S
C4714 C4712 1.384 . S
C4714 C4715 1.372 . S
C4715 C4714 1.372 . S
C4715 C4716 1.400 . S
C4715 C4720 1.490 . S
C4716 H4706 0.930 . S
C4716 C4715 1.400 . S
C4716 C4719 1.386 . S
H4717 C4733 0.930 . S
H4718 C4734 0.931 . S
C4719 H4707 0.929 . S
C4719 C4713 1.390 . S
C4719 C4716 1.386 . S
C4720 C4715 1.490 . S
C4720 C4722 1.395 . S
C4720 C4723 1.403 . S
H4721 C4727 0.930 . S
C4722 H4708 0.930 . S
C4722 C4720 1.395 . S
C4722 C4725 1.403 . S
C4723 C4720 1.403 . S
C4723 C4724 1.524 . S
C4723 C4727 1.400 . S
C4724 H4709 0.960 . S
C4724 H4710 0.960 . S
C4724 H4711 0.960 . S
C4724 C4723 1.524 . S
C4725 C4722 1.403 . S
C4725 C4726 1.392 . S
C4725 C4729 1.495 . S
C4726 C4725 1.392 . S
C4726 C4727 1.385 . S
C4726 C4728 1.478 . S
C4727 H4721 0.930 . S
C4727 C4723 1.400 . S
C4727 C4726 1.385 . S
C4728 C4726 1.478 . S
C4728 C4730 1.381 . S
C4728 C4734 1.383 . S
C4729 C4725 1.495 . S
C4729 H4735 0.959 . S
C4729 H4736 0.961 . S
C4729 H4737 0.960 . S
C4730 C4728 1.381 . S
C4730 C4731 1.394 . S
C4730 H4738 0.930 . S
C4731 C4730 1.394 . S
C4731 C4732 1.383 . S
C4731 H4739 0.929 . S
C4732 C4731 1.383 . S
C4732 C4733 1.377 . S
C4733 H4717 0.930 . S
C4733 C4732 1.377 . S
C4733 C4734 1.379 . S
C4734 H4718 0.931 . S
C4734 C4728 1.383 . S
C4734 C4733 1.379 . S
H4735 C4729 0.959 . S
H4736 C4729 0.961 . S
H4737 C4729 0.960 . S
H4738 C4730 0.930 . S
H4739 C4731 0.929 . S
H4740 C4748 0.929 . S
H4741 C4750 0.930 . S
H4742 C4752 0.930 . S
H4743 C4755 0.929 . S
H4744 C4758 0.930 . S
H4745 C4760 0.960 . S
H4746 C4760 0.960 . S
H4747 C4760 0.960 . S
C4748 H4740 0.929 . S
C4748 C4749 1.377 . S
C4748 C4750 1.384 . S
C4749 C4748 1.377 . S
C4749 C4755 1.390 . S
C4750 H4741 0.930 . S
C4750 C4748 1.384 . S
C4750 C4751 1.372 . S
C4751 C4750 1.372 . S
C4751 C4752 1.400 . S
C4751 C4756 1.490 . S
C4752 H4742 0.930 . S
C4752 C4751 1.400 . S
C4752 C4755 1.386 . S
H4753 C4769 0.930 . S
H4754 C4770 0.931 . S
C4755 H4743 0.929 . S
C4755 C4749 1.390 . S
C4755 C4752 1.386 . S
C4756 C4751 1.490 . S
C4756 C4758 1.395 . S
C4756 C4759 1.403 . S
H4757 C4763 0.930 . S
C4758 H4744 0.930 . S
C4758 C4756 1.395 . S
C4758 C4761 1.403 . S
C4759 C4756 1.403 . S
C4759 C4760 1.524 . S
C4759 C4763 1.400 . S
C4760 H4745 0.960 . S
C4760 H4746 0.960 . S
C4760 H4747 0.960 . S
C4760 C4759 1.524 . S
C4761 C4758 1.403 . S
C4761 C4762 1.392 . S
C4761 C4765 1.495 . S
C4762 C4761 1.392 . S
C4762 C4763 1.385 . S
C4762 C4764 1.478 . S
C4763 H4757 0.930 . S
C4763 C4759 1.400 . S
C4763 C4762 1.385 . S
C4764 C4762 1.478 . S
C4764 C4766 1.381 . S
C4764 C4770 1.383 . S
C4765 C4761 1.495 . S
C4765 H4771 0.959 . S
C4765 H4772 0.961 . S
C4765 H4773 0.960 . S
C4766 C4764 1.381 . S
C4766 C4767 1.394 . S
C4766 H4774 0.930 . S
C4767 C4766 1.394 . S
C4767 C4768 1.383 . S
C4767 H4775 0.929 . S
C4768 C4767 1.383 . S
C4768 C4769 1.377 . S
C4769 H4753 0.930 . S
C4769 C4768 1.377 . S
C4769 C4770 1.379 . S
C4770 H4754 0.931 . S
C4770 C4764 1.383 . S
C4770 C4769 1.379 . S
H4771 C4765 0.959 . S
H4772 C4765 0.961 . S
H4773 C4765 0.960 . S
H4774 C4766 0.930 . S
H4775 C4767 0.929 . S
H4776 C4784 0.929 . S
H4777 C4786 0.930 . S
H4778 C4788 0.930 . S
H4779 C4791 0.929 . S
H4780 C4794 0.930 . S
H4781 C4796 0.960 . S
H4782 C4796 0.960 . S
H4783 C4796 0.960 . S
C4784 H4776 0.929 . S
C4784 C4785 1.377 . S
C4784 C4786 1.384 . S
C4785 C4784 1.377 . S
C4785 C4791 1.390 . S
C4786 H4777 0.930 . S
C4786 C4784 1.384 . S
C4786 C4787 1.372 . S
C4787 C4786 1.372 . S
C4787 C4788 1.400 . S
C4787 C4792 1.490 . S
C4788 H4778 0.930 . S
C4788 C4787 1.400 . S
C4788 C4791 1.386 . S
H4789 C4805 0.930 . S
H4790 C4806 0.931 . S
C4791 H4779 0.929 . S
C4791 C4785 1.390 . S
C4791 C4788 1.386 . S
C4792 C4787 1.490 . S
C4792 C4794 1.395 . S
C4792 C4795 1.403 . S
H4793 C4799 0.930 . S
C4794 H4780 0.930 . S
C4794 C4792 1.395 . S
C4794 C4797 1.403 . S
C4795 C4792 1.403 . S
C4795 C4796 1.524 . S
C4795 C4799 1.400 . S
C4796 H4781 0.960 . S
C4796 H4782 0.960 . S
C4796 H4783 0.960 . S
C4796 C4795 1.524 . S
C4797 C4794 1.403 . S
C4797 C4798 1.392 . S
C4797 C4801 1.495 . S
C4798 C4797 1.392 . S
C4798 C4799 1.385 . S
C4798 C4800 1.478 . S
C4799 H4793 0.930 . S
C4799 C4795 1.400 . S
C4799 C4798 1.385 . S
C4800 C4798 1.478 . S
C4800 C4802 1.381 . S
C4800 C4806 1.383 . S
C4801 C4797 1.495 . S
C4801 H4807 0.959 . S
C4801 H4808 0.961 . S
C4801 H4809 0.960 . S
C4802 C4800 1.381 . S
C4802 C4803 1.394 1_655 S
C4802 H4810 0.930 1_655 S
C4803 C4802 1.394 1_455 S
C4803 C4804 1.364 1_455 S
C4803 H4811 0.929 . S
C4804 C4803 1.364 1_655 S
C4804 C4805 1.418 . S
C4805 H4789 0.930 . S
C4805 C4804 1.418 . S
C4805 C4806 1.379 . S
C4806 H4790 0.931 . S
C4806 C4800 1.383 . S
C4806 C4805 1.379 . S
H4807 C4801 0.959 . S
H4808 C4801 0.961 . S
H4809 C4801 0.960 . S
H4810 C4802 0.930 1_455 S
H4811 C4803 0.929 . S
H4812 C4820 0.929 . S
H4813 C4822 0.930 . S
H4814 C4824 0.930 . S
H4815 C4827 0.929 . S
H4816 C4830 0.930 . S
H4817 C4832 0.960 . S
H4818 C4832 0.960 . S
H4819 C4832 0.960 . S
C4820 H4812 0.929 . S
C4820 C4821 1.377 . S
C4820 C4822 1.384 . S
C4821 C4820 1.377 . S
C4821 C4827 1.390 . S
C4822 H4813 0.930 . S
C4822 C4820 1.384 . S
C4822 C4823 1.372 . S
C4823 C4822 1.372 . S
C4823 C4824 1.400 . S
C4823 C4828 1.490 . S
C4824 H4814 0.930 . S
C4824 C4823 1.400 . S
C4824 C4827 1.386 . S
H4825 C4841 0.930 . S
H4826 C4842 0.931 . S
C4827 H4815 0.929 . S
C4827 C4821 1.390 . S
C4827 C4824 1.386 . S
C4828 C4823 1.490 . S
C4828 C4830 1.395 . S
C4828 C4831 1.403 . S
H4829 C4835 0.930 . S
C4830 H4816 0.930 . S
C4830 C4828 1.395 . S
C4830 C4833 1.403 . S
C4831 C4828 1.403 . S
C4831 C4832 1.524 . S
C4831 C4835 1.400 . S
C4832 H4817 0.960 . S
C4832 H4818 0.960 . S
C4832 H4819 0.960 . S
C4832 C4831 1.524 . S
C4833 C4830 1.403 . S
C4833 C4834 1.392 . S
C4833 C4837 1.495 . S
C4834 C4833 1.392 . S
C4834 C4835 1.385 . S
C4834 C4836 1.478 . S
C4835 H4829 0.930 . S
C4835 C4831 1.400 . S
C4835 C4834 1.385 . S
C4836 C4834 1.478 . S
C4836 C4838 1.381 . S
C4836 C4842 1.383 . S
C4837 C4833 1.495 . S
C4837 H4843 0.959 . S
C4837 H4844 0.961 . S
C4837 H4845 0.960 . S
C4838 C4836 1.381 . S
C4838 C4839 1.394 . S
C4838 H4846 0.930 . S
C4839 C4838 1.394 . S
C4839 C4840 1.383 . S
C4839 H4847 0.929 . S
C4840 C4839 1.383 . S
C4840 C4841 1.377 . S
C4841 H4825 0.930 . S
C4841 C4840 1.377 . S
C4841 C4842 1.379 . S
C4842 H4826 0.931 . S
C4842 C4836 1.383 . S
C4842 C4841 1.379 . S
H4843 C4837 0.959 . S
H4844 C4837 0.961 . S
H4845 C4837 0.960 . S
H4846 C4838 0.930 . S
H4847 C4839 0.929 . S
H4848 C4856 0.929 . S
H4849 C4858 0.930 . S
H4850 C4860 0.930 . S
H4851 C4863 0.929 . S
H4852 C4866 0.930 . S
H4853 C4868 0.960 . S
H4854 C4868 0.960 . S
H4855 C4868 0.960 . S
C4856 H4848 0.929 . S
C4856 C4857 1.377 . S
C4856 C4858 1.384 . S
C4857 C4856 1.377 . S
C4857 C4863 1.390 . S
C4858 H4849 0.930 . S
C4858 C4856 1.384 . S
C4858 C4859 1.372 . S
C4859 C4858 1.372 . S
C4859 C4860 1.400 . S
C4859 C4864 1.490 . S
C4860 H4850 0.930 . S
C4860 C4859 1.400 . S
C4860 C4863 1.386 . S
H4861 C4877 0.930 . S
H4862 C4878 0.931 . S
C4863 H4851 0.929 . S
C4863 C4857 1.390 . S
C4863 C4860 1.386 . S
C4864 C4859 1.490 . S
C4864 C4866 1.395 . S
C4864 C4867 1.403 . S
H4865 C4871 0.930 . S
C4866 H4852 0.930 . S
C4866 C4864 1.395 . S
C4866 C4869 1.403 . S
C4867 C4864 1.403 . S
C4867 C4868 1.524 . S
C4867 C4871 1.400 . S
C4868 H4853 0.960 . S
C4868 H4854 0.960 . S
C4868 H4855 0.960 . S
C4868 C4867 1.524 . S
C4869 C4866 1.403 . S
C4869 C4870 1.392 . S
C4869 C4873 1.495 . S
C4870 C4869 1.392 . S
C4870 C4871 1.385 . S
C4870 C4872 1.478 . S
C4871 H4865 0.930 . S
C4871 C4867 1.400 . S
C4871 C4870 1.385 . S
C4872 C4870 1.478 . S
C4872 C4874 1.381 . S
C4872 C4878 1.383 . S
C4873 C4869 1.495 . S
C4873 H4879 0.959 . S
C4873 H4880 0.961 . S
C4873 H4881 0.960 . S
C4874 C4872 1.381 . S
C4874 C4875 1.394 . S
C4874 H4882 0.930 . S
C4875 C4874 1.394 . S
C4875 C4876 1.383 . S
C4875 H4883 0.929 . S
C4876 C4875 1.383 . S
C4876 C4877 1.377 . S
C4877 H4861 0.930 . S
C4877 C4876 1.377 . S
C4877 C4878 1.379 . S
C4878 H4862 0.931 . S
C4878 C4872 1.383 . S
C4878 C4877 1.379 . S
H4879 C4873 0.959 . S
H4880 C4873 0.961 . S
H4881 C4873 0.960 . S
H4882 C4874 0.930 . S
H4883 C4875 0.929 . S
H4884 C4892 0.929 . S
H4885 C4894 0.930 . S
H4886 C4896 0.930 . S
H4887 C4899 0.929 . S
H4888 C4902 0.930 . S
H4889 C4904 0.960 . S
H4890 C4904 0.960 . S
H4891 C4904 0.960 . S
C4892 H4884 0.929 . S
C4892 C4893 1.377 . S
C4892 C4894 1.384 . S
C4893 C4892 1.377 . S
C4893 C4899 1.390 . S
C4894 H4885 0.930 . S
C4894 C4892 1.384 . S
C4894 C4895 1.372 . S
C4895 C4894 1.372 . S
C4895 C4896 1.400 . S
C4895 C4900 1.490 . S
C4896 H4886 0.930 . S
C4896 C4895 1.400 . S
C4896 C4899 1.386 . S
H4897 C4913 0.930 . S
H4898 C4914 0.931 . S
C4899 H4887 0.929 . S
C4899 C4893 1.390 . S
C4899 C4896 1.386 . S
C4900 C4895 1.490 . S
C4900 C4902 1.395 . S
C4900 C4903 1.403 . S
H4901 C4907 0.930 . S
C4902 H4888 0.930 . S
C4902 C4900 1.395 . S
C4902 C4905 1.403 . S
C4903 C4900 1.403 . S
C4903 C4904 1.524 . S
C4903 C4907 1.400 . S
C4904 H4889 0.960 . S
C4904 H4890 0.960 . S
C4904 H4891 0.960 . S
C4904 C4903 1.524 . S
C4905 C4902 1.403 . S
C4905 C4906 1.392 . S
C4905 C4909 1.476 1_565 S
C4906 C4905 1.392 . S
C4906 C4907 1.385 . S
C4906 C4908 1.478 . S
C4907 H4901 0.930 . S
C4907 C4903 1.400 . S
C4907 C4906 1.385 . S
C4908 C4906 1.478 . S
C4908 C4910 1.381 1_565 S
C4908 C4914 1.383 . S
C4909 C4905 1.476 1_545 S
C4909 H4915 0.966 . S
C4909 H4916 0.971 . S
C4909 H4917 0.980 . S
C4910 C4908 1.381 1_545 S
C4910 C4911 1.394 . S
C4910 H4918 0.930 . S
C4911 C4910 1.394 . S
C4911 C4912 1.383 . S
C4911 H4919 0.929 . S
C4912 C4911 1.383 . S
C4912 C4913 1.377 1_545 S
C4913 H4897 0.930 . S
C4913 C4912 1.377 1_565 S
C4913 C4914 1.379 . S
C4914 H4898 0.931 . S
C4914 C4908 1.383 . S
C4914 C4913 1.379 . S
H4915 C4909 0.966 . S
H4916 C4909 0.971 . S
H4917 C4909 0.980 . S
H4918 C4910 0.930 . S
H4919 C4911 0.929 . S
H4920 C4928 0.929 . S
H4921 C4930 0.930 . S
H4922 C4932 0.930 . S
H4923 C4935 0.929 . S
H4924 C4938 0.930 . S
H4925 C4940 0.960 . S
H4926 C4940 0.960 . S
H4927 C4940 0.960 . S
C4928 H4920 0.929 . S
C4928 C4929 1.377 . S
C4928 C4930 1.384 . S
C4929 C4928 1.377 . S
C4929 C4935 1.390 . S
C4930 H4921 0.930 . S
C4930 C4928 1.384 . S
C4930 C4931 1.372 . S
C4931 C4930 1.372 . S
C4931 C4932 1.400 . S
C4931 C4936 1.490 . S
C4932 H4922 0.930 . S
C4932 C4931 1.400 . S
C4932 C4935 1.386 . S
H4933 C4949 0.930 . S
H4934 C4950 0.931 . S
C4935 H4923 0.929 . S
C4935 C4929 1.390 . S
C4935 C4932 1.386 . S
C4936 C4931 1.490 . S
C4936 C4938 1.395 . S
C4936 C4939 1.403 . S
H4937 C4943 0.930 . S
C4938 H4924 0.930 . S
C4938 C4936 1.395 . S
C4938 C4941 1.403 . S
C4939 C4936 1.403 . S
C4939 C4940 1.524 . S
C4939 C4943 1.400 . S
C4940 H4925 0.960 . S
C4940 H4926 0.960 . S
C4940 H4927 0.960 . S
C4940 C4939 1.524 . S
C4941 C4938 1.403 . S
C4941 C4942 1.392 . S
C4941 C4945 1.495 . S
C4942 C4941 1.392 . S
C4942 C4943 1.385 . S
C4942 C4944 1.478 . S
C4943 H4937 0.930 . S
C4943 C4939 1.400 . S
C4943 C4942 1.385 . S
C4944 C4942 1.478 . S
C4944 C4946 1.381 . S
C4944 C4950 1.383 . S
C4945 C4941 1.495 . S
C4945 H4951 0.959 . S
C4945 H4952 0.961 . S
C4945 H4953 0.960 . S
C4946 C4944 1.381 . S
C4946 C4947 1.394 . S
C4946 H4954 0.930 . S
C4947 C4946 1.394 . S
C4947 C4948 1.383 . S
C4947 H4955 0.929 . S
C4948 C4947 1.383 . S
C4948 C4949 1.377 . S
C4949 H4933 0.930 . S
C4949 C4948 1.377 . S
C4949 C4950 1.379 . S
C4950 H4934 0.931 . S
C4950 C4944 1.383 . S
C4950 C4949 1.379 . S
H4951 C4945 0.959 . S
H4952 C4945 0.961 . S
H4953 C4945 0.960 . S
H4954 C4946 0.930 . S
H4955 C4947 0.929 . S
H4956 C4964 0.929 1_556 S
H4957 C4966 0.927 1_556 S
H4958 C4968 0.930 . S
H4959 C4971 0.929 . S
H4960 C4974 0.930 . S
H4961 C4976 0.960 . S
H4962 C4976 0.960 . S
H4963 C4976 0.960 . S
C4964 H4956 0.929 1_554 S
C4964 C4965 1.377 . S
C4964 C4966 1.383 . S
C4965 C4964 1.377 . S
C4965 C4971 1.390 . S
C4966 H4957 0.927 1_554 S
C4966 C4964 1.383 . S
C4966 C4967 1.375 . S
C4967 C4966 1.375 . S
C4967 C4968 1.400 . S
C4967 C4972 1.490 . S
C4968 H4958 0.930 . S
C4968 C4967 1.400 . S
C4968 C4971 1.386 . S
H4969 C4985 0.930 . S
H4970 C4986 0.931 . S
C4971 H4959 0.929 . S
C4971 C4965 1.390 . S
C4971 C4968 1.386 . S
C4972 C4967 1.490 . S
C4972 C4974 1.395 . S
C4972 C4975 1.403 . S
H4973 C4979 0.930 . S
C4974 H4960 0.930 . S
C4974 C4972 1.395 . S
C4974 C4977 1.403 . S
C4975 C4972 1.403 . S
C4975 C4976 1.524 . S
C4975 C4979 1.400 . S
C4976 H4961 0.960 . S
C4976 H4962 0.960 . S
C4976 H4963 0.960 . S
C4976 C4975 1.524 . S
C4977 C4974 1.403 . S
C4977 C4978 1.392 . S
C4977 C4981 1.495 . S
C4978 C4977 1.392 . S
C4978 C4979 1.385 . S
C4978 C4980 1.478 . S
C4979 H4973 0.930 . S
C4979 C4975 1.400 . S
C4979 C4978 1.385 . S
C4980 C4978 1.478 . S
C4980 C4982 1.381 1_554 S
C4980 C4986 1.383 . S
C4981 C4977 1.495 . S
C4981 H4987 0.959 . S
C4981 H4988 0.961 . S
C4981 H4989 0.960 1_554 S
C4982 C4980 1.381 1_556 S
C4982 C4983 1.394 . S
C4982 H4990 0.930 . S
C4983 C4982 1.394 . S
C4983 C4984 1.383 1_556 S
C4983 H4991 0.929 . S
C4984 C4983 1.383 1_554 S
C4984 C4985 1.377 . S
C4985 H4969 0.930 . S
C4985 C4984 1.377 . S
C4985 C4986 1.379 . S
C4986 H4970 0.931 . S
C4986 C4980 1.383 . S
C4986 C4985 1.379 . S
H4987 C4981 0.959 . S
H4988 C4981 0.961 . S
H4989 C4981 0.960 1_556 S
H4990 C4982 0.930 . S
H4991 C4983 0.929 . S
H4992 C5000 0.929 . S
H4993 C5002 0.930 . S
H4994 C5004 0.930 . S
H4995 C5007 0.929 . S
H4996 C5010 0.930 . S
H4997 C5012 0.960 . S
H4998 C5012 0.960 . S
H4999 C5012 0.960 . S
C5000 H4992 0.929 . S
C5000 C5001 1.377 . S
C5000 C5002 1.384 . S
C5001 C5000 1.377 . S
C5001 C5007 1.390 . S
C5002 H4993 0.930 . S
C5002 C5000 1.384 . S
C5002 C5003 1.372 . S
C5003 C5002 1.372 . S
C5003 C5004 1.400 . S
C5003 C5008 1.490 . S
C5004 H4994 0.930 . S
C5004 C5003 1.400 . S
C5004 C5007 1.386 . S
H5005 C5021 0.930 . S
H5006 C5022 0.931 . S
C5007 H4995 0.929 . S
C5007 C5001 1.390 . S
C5007 C5004 1.386 . S
C5008 C5003 1.490 . S
C5008 C5010 1.395 . S
C5008 C5011 1.403 . S
H5009 C5015 0.930 . S
C5010 H4996 0.930 . S
C5010 C5008 1.395 . S
C5010 C5013 1.403 . S
C5011 C5008 1.403 . S
C5011 C5012 1.524 . S
C5011 C5015 1.400 . S
C5012 H4997 0.960 . S
C5012 H4998 0.960 . S
C5012 H4999 0.960 . S
C5012 C5011 1.524 . S
C5013 C5010 1.403 . S
C5013 C5014 1.392 . S
C5013 C5017 1.495 . S
C5014 C5013 1.392 . S
C5014 C5015 1.385 . S
C5014 C5016 1.478 . S
C5015 H5009 0.930 . S
C5015 C5011 1.400 . S
C5015 C5014 1.385 . S
C5016 C5014 1.478 . S
C5016 C5018 1.381 . S
C5016 C5022 1.383 . S
C5017 C5013 1.495 . S
C5017 H5023 0.959 . S
C5017 H5024 0.961 . S
C5017 H5025 0.960 . S
C5018 C5016 1.381 . S
C5018 C5019 1.394 . S
C5018 H5026 0.930 . S
C5019 C5018 1.394 . S
C5019 C5020 1.383 . S
C5019 H5027 0.929 . S
C5020 C5019 1.383 . S
C5020 C5021 1.377 . S
C5021 H5005 0.930 . S
C5021 C5020 1.377 . S
C5021 C5022 1.379 . S
C5022 H5006 0.931 . S
C5022 C5016 1.383 . S
C5022 C5021 1.379 . S
H5023 C5017 0.959 . S
H5024 C5017 0.961 . S
H5025 C5017 0.960 . S
H5026 C5018 0.930 . S
H5027 C5019 0.929 . S
H5028 C5036 0.929 . S
H5029 C5038 0.930 . S
H5030 C5040 0.930 . S
H5031 C5043 0.929 . S
H5032 C5046 0.930 . S
H5033 C5048 0.960 . S
H5034 C5048 0.960 . S
H5035 C5048 0.960 . S
C5036 H5028 0.929 . S
C5036 C5037 1.377 . S
C5036 C5038 1.384 . S
C5037 C5036 1.377 . S
C5037 C5043 1.390 . S
C5038 H5029 0.930 . S
C5038 C5036 1.384 . S
C5038 C5039 1.372 . S
C5039 C5038 1.372 . S
C5039 C5040 1.400 . S
C5039 C5044 1.490 . S
C5040 H5030 0.930 . S
C5040 C5039 1.400 . S
C5040 C5043 1.386 . S
H5041 C5057 0.930 . S
H5042 C5058 0.931 1_556 S
C5043 H5031 0.929 . S
C5043 C5037 1.390 . S
C5043 C5040 1.386 . S
C5044 C5039 1.490 . S
C5044 C5046 1.395 . S
C5044 C5047 1.403 . S
H5045 C5051 0.930 . S
C5046 H5032 0.930 . S
C5046 C5044 1.395 . S
C5046 C5049 1.403 . S
C5047 C5044 1.403 . S
C5047 C5048 1.524 . S
C5047 C5051 1.400 . S
C5048 H5033 0.960 . S
C5048 H5034 0.960 . S
C5048 H5035 0.960 . S
C5048 C5047 1.524 . S
C5049 C5046 1.403 . S
C5049 C5050 1.392 . S
C5049 C5053 1.495 . S
C5050 C5049 1.392 . S
C5050 C5051 1.385 . S
C5050 C5052 1.478 . S
C5051 H5045 0.930 . S
C5051 C5047 1.400 . S
C5051 C5050 1.385 . S
C5052 C5050 1.478 . S
C5052 C5054 1.381 . S
C5052 C5058 1.383 . S
C5053 C5049 1.495 . S
C5053 H5059 0.959 . S
C5053 H5060 0.961 . S
C5053 H5061 0.960 . S
C5054 C5052 1.381 . S
C5054 C5055 1.394 . S
C5054 H5062 0.930 . S
C5055 C5054 1.394 . S
C5055 C5056 1.383 . S
C5055 H5063 0.929 . S
C5056 C5055 1.383 . S
C5056 C5057 1.377 1_554 S
C5057 H5041 0.930 . S
C5057 C5056 1.377 1_556 S
C5057 C5058 1.379 1_556 S
C5058 H5042 0.931 1_554 S
C5058 C5052 1.383 . S
C5058 C5057 1.379 1_554 S
H5059 C5053 0.959 . S
H5060 C5053 0.961 . S
H5061 C5053 0.960 . S
H5062 C5054 0.930 . S
H5063 C5055 0.929 . S
H5064 C5072 0.929 . S
H5065 C5074 0.930 . S
H5066 C5076 0.930 . S
H5067 C5079 0.933 . S
H5068 C5082 0.930 . S
H5069 C5084 0.960 . S
H5070 C5084 0.960 . S
H5071 C5084 0.960 . S
C5072 H5064 0.929 . S
C5072 C5073 1.377 . S
C5072 C5074 1.384 1_545 S
C5073 C5072 1.377 . S
C5073 C5079 1.391 . S
C5074 H5065 0.930 . S
C5074 C5072 1.384 1_565 S
C5074 C5075 1.372 . S
C5075 C5074 1.372 . S
C5075 C5076 1.400 . S
C5075 C5080 1.490 . S
C5076 H5066 0.930 . S
C5076 C5075 1.400 . S
C5076 C5079 1.380 1_565 S
H5077 C5093 0.930 . S
H5078 C5094 0.931 . S
C5079 H5067 0.933 . S
C5079 C5073 1.391 . S
C5079 C5076 1.380 1_545 S
C5080 C5075 1.490 . S
C5080 C5082 1.395 . S
C5080 C5083 1.403 . S
H5081 C5087 0.930 . S
C5082 H5068 0.930 . S
C5082 C5080 1.395 . S
C5082 C5085 1.403 . S
C5083 C5080 1.403 . S
C5083 C5084 1.524 . S
C5083 C5087 1.400 . S
C5084 H5069 0.960 . S
C5084 H5070 0.960 . S
C5084 H5071 0.960 . S
C5084 C5083 1.524 . S
C5085 C5082 1.403 . S
C5085 C5086 1.392 . S
C5085 C5089 1.495 . S
C5086 C5085 1.392 . S
C5086 C5087 1.385 . S
C5086 C5088 1.478 . S
C5087 H5081 0.930 . S
C5087 C5083 1.400 . S
C5087 C5086 1.385 . S
C5088 C5086 1.478 . S
C5088 C5090 1.381 . S
C5088 C5094 1.383 . S
C5089 C5085 1.495 . S
C5089 H5095 0.959 . S
C5089 H5096 0.961 . S
C5089 H5097 0.960 . S
C5090 C5088 1.381 . S
C5090 C5091 1.394 . S
C5090 H5098 0.930 . S
C5091 C5090 1.394 . S
C5091 C5092 1.383 . S
C5091 H5099 0.929 . S
C5092 C5091 1.383 . S
C5092 C5093 1.377 . S
C5093 H5077 0.930 . S
C5093 C5092 1.377 . S
C5093 C5094 1.379 . S
C5094 H5078 0.931 . S
C5094 C5088 1.383 . S
C5094 C5093 1.379 . S
H5095 C5089 0.959 . S
H5096 C5089 0.961 . S
H5097 C5089 0.960 . S
H5098 C5090 0.930 . S
H5099 C5091 0.929 . S
H5100 C5108 0.929 . S
H5101 C5110 0.930 . S
H5102 C5112 0.930 . S
H5103 C5115 0.929 . S
H5104 C5118 0.930 . S
H5105 C5120 0.960 . S
H5106 C5120 0.960 . S
H5107 C5120 0.960 . S
C5108 H5100 0.929 . S
C5108 C5109 1.377 . S
C5108 C5110 1.384 . S
C5109 C5108 1.377 . S
C5109 C5115 1.390 . S
C5110 H5101 0.930 . S
C5110 C5108 1.384 . S
C5110 C5111 1.372 . S
C5111 C5110 1.372 . S
C5111 C5112 1.400 . S
C5111 C5116 1.490 . S
C5112 H5102 0.930 . S
C5112 C5111 1.400 . S
C5112 C5115 1.386 . S
H5113 C5129 0.930 . S
H5114 C5130 0.931 . S
C5115 H5103 0.929 . S
C5115 C5109 1.390 . S
C5115 C5112 1.386 . S
C5116 C5111 1.490 . S
C5116 C5118 1.395 . S
C5116 C5119 1.403 . S
H5117 C5123 0.930 . S
C5118 H5104 0.930 . S
C5118 C5116 1.395 . S
C5118 C5121 1.403 . S
C5119 C5116 1.403 . S
C5119 C5120 1.524 . S
C5119 C5123 1.400 . S
C5120 H5105 0.960 . S
C5120 H5106 0.960 . S
C5120 H5107 0.960 . S
C5120 C5119 1.524 . S
C5121 C5118 1.403 . S
C5121 C5122 1.392 . S
C5121 C5125 1.495 . S
C5122 C5121 1.392 . S
C5122 C5123 1.385 . S
C5122 C5124 1.478 . S
C5123 H5117 0.930 . S
C5123 C5119 1.400 . S
C5123 C5122 1.385 . S
C5124 C5122 1.478 . S
C5124 C5126 1.381 . S
C5124 C5130 1.383 . S
C5125 C5121 1.495 . S
C5125 H5131 0.959 . S
C5125 H5132 0.961 . S
C5125 H5133 0.960 . S
C5126 C5124 1.381 . S
C5126 C5127 1.394 . S
C5126 H5134 0.930 . S
C5127 C5126 1.394 . S
C5127 C5128 1.383 . S
C5127 H5135 0.929 . S
C5128 C5127 1.383 . S
C5128 C5129 1.377 . S
C5129 H5113 0.930 . S
C5129 C5128 1.377 . S
C5129 C5130 1.379 . S
C5130 H5114 0.931 . S
C5130 C5124 1.383 . S
C5130 C5129 1.379 . S
H5131 C5125 0.959 . S
H5132 C5125 0.961 . S
H5133 C5125 0.960 . S
H5134 C5126 0.930 . S
H5135 C5127 0.929 . S
C1689 C111 1.517 . S
C1708 C403 1.401 . S
C1725 C64 2.163 . S
C1744 C486 2.169 . S
C1761 C77 1.351 . S
C1780 C571 1.293 . S
C1816 C651 1.376 . S
C1797 C95 1.499 . S
C1833 C25 1.385 . S
C1852 C735 1.341 . S
C1888 C828 0.842 . S
C1869 C36 0.946 . S
C1924 C906 0.685 . S
C1905 C50 0.652 . S
C1941 C11 1.168 . S
C1960 C991 1.098 . S
C1996 C402 1.861 . S
C1977 C237 1.854 . S
C2013 C245 0.504 . S
C2032 C483 0.498 . S
C2068 C570 1.076 . S
C2049 C279 1.004 . S
C2104 C655 1.436 . S
C2085 C175 1.499 1_556 S
C2121 C231 1.861 . S
C2140 C739 1.721 . S
C2176 C831 1.024 . S
C2157 C251 0.992 . S
C2212 C903 0.661 . S
C2193 C273 0.689 . S
C2248 C990 1.216 . S
C2229 C181 1.305 . S
C2284 C399 1.269 . S
C2265 C165 1.404 . S
C2301 C288 1.950 . S
C2320 C1074 1.918 . S
C2356 C1148 2.048 . S
C2337 C333 2.244 . S
C2392 C1243 0.591 . S
C2373 C316 0.353 . S
C2409 C123 0.536 . S
C2428 C987 0.556 . S
C2445 C137 1.318 . S
C2464 C567 1.277 . S
C2481 C330 2.265 . S
C2500 C1326 2.258 . S
C2536 C1411 0.616 . S
C2517 C302 0.679 . S
C2572 C392 1.572 1_565 S
C2553 C63 1.694 . S
C2608 C1419 2.218 . S
C2589 C106 2.264 . S
C2625 C97 1.422 . S
C2644 C560 1.410 . S
C2661 C81 1.578 . S
C2680 C1332 1.422 . S
C2716 C744 1.441 . S
C2697 C13 1.406 . S
C2733 C55 0.912 . S
C2752 C1155 0.947 . S
C2788 C915 0.706 . S
C2769 C35 0.715 . S
C2824 C1484 1.261 . S
C2805 C21 1.388 . S
C2860 C411 1.999 . S
C2841 C147 2.111 . S
C2896 C1416 0.521 . S
C2877 C321 0.588 . S
C2913 C119 1.123 . S
C2932 C579 1.059 . S
C2949 C293 1.580 . S
C2968 C1316 1.551 . S
C2985 C153 1.895 . S
C3004 C728 1.941 . S
C3040 C1158 1.073 . S
C3021 C315 1.088 . S
C3057 C125 0.727 . S
C3076 C912 0.646 . S
C3093 C287 1.515 . S
C3112 C1503 1.406 . S
C3129 C193 1.467 . S
C3148 C408 1.336 . S
C3165 C176 2.026 . S
C3184 C1083 1.994 . S
C3201 C263 2.207 . S
C3220 C823 2.024 . S
C3237 C246 0.533 . S
C3256 C1232 0.558 . S
C3292 C1500 0.688 . S
C3273 C277 0.620 . S
C3309 C221 1.333 . S
C3328 C576 1.256 . S
C3364 C663 2.340 . S
C3345 C260 2.360 . S
C3400 C476 0.766 . S
C3381 C204 0.810 . S
C3417 C83 1.516 . S
C3436 C1579 1.391 . S
C3472 C1410 2.164 . S
C3453 C92 2.163 . S
C3489 C105 1.353 . S
C3508 C1663 1.234 . S
C3525 C67 1.499 . S
C3544 C1323 1.384 . S
C3561 C53 1.385 . S
C3580 C1071 1.303 . S
C3616 C1164 0.971 . S
C3597 C8 0.949 . S
C3652 C1242 0.611 . S
C3633 C22 0.661 . S
C3688 C1495 0.996 . S
C3669 C39 1.171 . S
C3724 C1578 1.861 . S
C3705 C265 1.865 . S
C3741 C189 0.494 . S
C3760 C1407 0.620 . S
C3796 C1662 1.074 . S
C3777 C209 1.006 . S
C3832 C1327 1.436 . S
C3813 C217 1.499 . S
C3868 C1075 1.702 . S
C3849 C259 1.863 . S
C3885 C195 0.983 . S
C3904 C1167 1.018 . S
C3940 C1239 0.728 . S
C3921 C203 0.685 . S
C3957 C223 1.307 . S
C3976 C1494 1.228 . S
C4012 C1575 1.334 . S
C3993 C319 1.406 . S
C4029 C134 1.944 . S
C4048 C738 1.942 . S
C4084 C812 2.088 . S
C4065 C151 2.252 . S
C4120 C907 0.609 . S
C4101 C162 0.343 . S
C4156 C1491 0.580 . S
C4137 C305 0.536 . S
C4173 C291 1.319 1_554 S
C4192 C1659 1.213 . S
C4228 C654 2.266 . S
C4209 C148 2.257 . S
C4264 C487 0.623 . S
C4245 C120 0.680 . S
C4281 C91 1.691 . S
C4300 C1568 1.534 . S
C4336 C495 2.213 . S
C4317 C78 2.265 . S
C4353 C69 1.415 . S
C4372 C1652 1.373 . S
C4389 C109 1.576 . S
C4408 C660 1.461 . S
C4425 C41 1.394 . S
C4444 C1080 1.446 . S
C4480 C819 0.863 . S
C4461 C27 0.926 . S
C4497 C7 0.700 . S
C4516 C1251 0.745 . S
C4533 C49 1.387 . S
C4552 C980 1.238 . S
C4588 C1587 1.982 . S
C4569 C329 2.111 . S
C4605 C167 0.596 . S
C4624 C492 0.531 . S
C4660 C1671 1.089 . S
C4641 C301 1.120 . S
C4677 C139 1.582 . S
C4696 C644 1.575 . S
C4713 C335 1.902 . S
C4732 C1064 1.928 . S
C4768 C822 1.022 . S
C4749 C161 1.088 . S
C4785 C307 0.713 . S
C4804 C1248 0.644 1_655 S
C4840 C999 1.419 . S
C4821 C133 1.515 . S
C4876 C1584 1.339 . S
C4857 C249 1.467 . S
C4912 C747 1.986 1_655 S
C4893 C218 2.025 . S
C4929 C235 2.209 . S
C4948 C1159 2.062 . S
C4984 C896 0.574 . S
C4965 C190 0.537 . S
C5001 C207 0.626 . S
C5020 C996 0.630 . S
C5037 C179 1.334 . S
C5056 C1668 1.248 . S
C5092 C1335 2.311 . S
C5073 C232 2.356 . S
C5128 C1400 0.757 . S
C5109 C274 0.814 . S
