# Generated by pormake.
# Topology ctn, (3,4)-cn, num edge types: 1
# Building blocks:
#     Node 0, Type 0, BuildingBlock: WUSLED_clean_sbu_0, # of connection points: 3
#     Node 1, Type 0, BuildingBlock: WUSLED_clean_sbu_0, # of connection points: 3
#     Node 2, Type 0, BuildingBlock: WUSLED_clean_sbu_0, # of connection points: 3
#     Node 3, Type 0, BuildingBlock: WUSLED_clean_sbu_0, # of connection points: 3
#     Node 4, Type 0, BuildingBlock: WUSLED_clean_sbu_0, # of connection points: 3
#     Node 5, Type 0, BuildingBlock: WUSLED_clean_sbu_0, # of connection points: 3
#     Node 6, Type 0, BuildingBlock: WUSLED_clean_sbu_0, # of connection points: 3
#     Node 7, Type 0, BuildingBlock: WUSLED_clean_sbu_0, # of connection points: 3
#     Node 8, Type 0, BuildingBlock: WUSLED_clean_sbu_0, # of connection points: 3
#     Node 9, Type 0, BuildingBlock: WUSLED_clean_sbu_0, # of connection points: 3
#     Node 10, Type 0, BuildingBlock: WUSLED_clean_sbu_0, # of connection points: 3
#     Node 11, Type 0, BuildingBlock: WUSLED_clean_sbu_0, # of connection points: 3
#     Node 12, Type 0, BuildingBlock: WUSLED_clean_sbu_0, # of connection points: 3
#     Node 13, Type 0, BuildingBlock: WUSLED_clean_sbu_0, # of connection points: 3
#     Node 14, Type 0, BuildingBlock: WUSLED_clean_sbu_0, # of connection points: 3
#     Node 15, Type 0, BuildingBlock: WUSLED_clean_sbu_0, # of connection points: 3
#     Node 16, Type 1, BuildingBlock: UXUYUI_clean_sbu_0, # of connection points: 4
#     Node 17, Type 1, BuildingBlock: UXUYUI_clean_sbu_0, # of connection points: 4
#     Node 18, Type 1, BuildingBlock: UXUYUI_clean_sbu_0, # of connection points: 4
#     Node 19, Type 1, BuildingBlock: UXUYUI_clean_sbu_0, # of connection points: 4
#     Node 20, Type 1, BuildingBlock: UXUYUI_clean_sbu_0, # of connection points: 4
#     Node 21, Type 1, BuildingBlock: UXUYUI_clean_sbu_0, # of connection points: 4
#     Node 22, Type 1, BuildingBlock: UXUYUI_clean_sbu_0, # of connection points: 4
#     Node 23, Type 1, BuildingBlock: UXUYUI_clean_sbu_0, # of connection points: 4
#     Node 24, Type 1, BuildingBlock: UXUYUI_clean_sbu_0, # of connection points: 4
#     Node 25, Type 1, BuildingBlock: UXUYUI_clean_sbu_0, # of connection points: 4
#     Node 26, Type 1, BuildingBlock: UXUYUI_clean_sbu_0, # of connection points: 4
#     Node 27, Type 1, BuildingBlock: UXUYUI_clean_sbu_0, # of connection points: 4
#     Edge 28, Type (0, 1), BuildingBlock: UVAHIK_clean_linker_0, # of connection points: 2
#     Edge 29, Type (0, 1), BuildingBlock: UVAHIK_clean_linker_0, # of connection points: 2
#     Edge 30, Type (0, 1), BuildingBlock: UVAHIK_clean_linker_0, # of connection points: 2
#     Edge 31, Type (0, 1), BuildingBlock: UVAHIK_clean_linker_0, # of connection points: 2
#     Edge 32, Type (0, 1), BuildingBlock: UVAHIK_clean_linker_0, # of connection points: 2
#     Edge 33, Type (0, 1), BuildingBlock: UVAHIK_clean_linker_0, # of connection points: 2
#     Edge 34, Type (0, 1), BuildingBlock: UVAHIK_clean_linker_0, # of connection points: 2
#     Edge 35, Type (0, 1), BuildingBlock: UVAHIK_clean_linker_0, # of connection points: 2
#     Edge 36, Type (0, 1), BuildingBlock: UVAHIK_clean_linker_0, # of connection points: 2
#     Edge 37, Type (0, 1), BuildingBlock: UVAHIK_clean_linker_0, # of connection points: 2
#     Edge 38, Type (0, 1), BuildingBlock: UVAHIK_clean_linker_0, # of connection points: 2
#     Edge 39, Type (0, 1), BuildingBlock: UVAHIK_clean_linker_0, # of connection points: 2
#     Edge 40, Type (0, 1), BuildingBlock: UVAHIK_clean_linker_0, # of connection points: 2
#     Edge 41, Type (0, 1), BuildingBlock: UVAHIK_clean_linker_0, # of connection points: 2
#     Edge 42, Type (0, 1), BuildingBlock: UVAHIK_clean_linker_0, # of connection points: 2
#     Edge 43, Type (0, 1), BuildingBlock: UVAHIK_clean_linker_0, # of connection points: 2
#     Edge 44, Type (0, 1), BuildingBlock: UVAHIK_clean_linker_0, # of connection points: 2
#     Edge 45, Type (0, 1), BuildingBlock: UVAHIK_clean_linker_0, # of connection points: 2
#     Edge 46, Type (0, 1), BuildingBlock: UVAHIK_clean_linker_0, # of connection points: 2
#     Edge 47, Type (0, 1), BuildingBlock: UVAHIK_clean_linker_0, # of connection points: 2
#     Edge 48, Type (0, 1), BuildingBlock: UVAHIK_clean_linker_0, # of connection points: 2
#     Edge 49, Type (0, 1), BuildingBlock: UVAHIK_clean_linker_0, # of connection points: 2
#     Edge 50, Type (0, 1), BuildingBlock: UVAHIK_clean_linker_0, # of connection points: 2
#     Edge 51, Type (0, 1), BuildingBlock: UVAHIK_clean_linker_0, # of connection points: 2
#     Edge 52, Type (0, 1), BuildingBlock: UVAHIK_clean_linker_0, # of connection points: 2
#     Edge 53, Type (0, 1), BuildingBlock: UVAHIK_clean_linker_0, # of connection points: 2
#     Edge 54, Type (0, 1), BuildingBlock: UVAHIK_clean_linker_0, # of connection points: 2
#     Edge 55, Type (0, 1), BuildingBlock: UVAHIK_clean_linker_0, # of connection points: 2
#     Edge 56, Type (0, 1), BuildingBlock: UVAHIK_clean_linker_0, # of connection points: 2
#     Edge 57, Type (0, 1), BuildingBlock: UVAHIK_clean_linker_0, # of connection points: 2
#     Edge 58, Type (0, 1), BuildingBlock: UVAHIK_clean_linker_0, # of connection points: 2
#     Edge 59, Type (0, 1), BuildingBlock: UVAHIK_clean_linker_0, # of connection points: 2
#     Edge 60, Type (0, 1), BuildingBlock: UVAHIK_clean_linker_0, # of connection points: 2
#     Edge 61, Type (0, 1), BuildingBlock: UVAHIK_clean_linker_0, # of connection points: 2
#     Edge 62, Type (0, 1), BuildingBlock: UVAHIK_clean_linker_0, # of connection points: 2
#     Edge 63, Type (0, 1), BuildingBlock: UVAHIK_clean_linker_0, # of connection points: 2
#     Edge 64, Type (0, 1), BuildingBlock: UVAHIK_clean_linker_0, # of connection points: 2
#     Edge 65, Type (0, 1), BuildingBlock: UVAHIK_clean_linker_0, # of connection points: 2
#     Edge 66, Type (0, 1), BuildingBlock: UVAHIK_clean_linker_0, # of connection points: 2
#     Edge 67, Type (0, 1), BuildingBlock: UVAHIK_clean_linker_0, # of connection points: 2
#     Edge 68, Type (0, 1), BuildingBlock: UVAHIK_clean_linker_0, # of connection points: 2
#     Edge 69, Type (0, 1), BuildingBlock: UVAHIK_clean_linker_0, # of connection points: 2
#     Edge 70, Type (0, 1), BuildingBlock: UVAHIK_clean_linker_0, # of connection points: 2
#     Edge 71, Type (0, 1), BuildingBlock: UVAHIK_clean_linker_0, # of connection points: 2
#     Edge 72, Type (0, 1), BuildingBlock: UVAHIK_clean_linker_0, # of connection points: 2
#     Edge 73, Type (0, 1), BuildingBlock: UVAHIK_clean_linker_0, # of connection points: 2
#     Edge 74, Type (0, 1), BuildingBlock: UVAHIK_clean_linker_0, # of connection points: 2
#     Edge 75, Type (0, 1), BuildingBlock: UVAHIK_clean_linker_0, # of connection points: 2
# Relax obj value: 0.001
# Max RMSD: 0.015
# Mean RMSD: 0.010
data_MOF--net-ctn--node1-WUSLED_clean_sbu_0--node2-UXUYUI_clean_sbu_0--edge1-UVAHIK_clean_linker_0
_symmetry_space_group_name_H-M    P1
_symmetry_Int_Tables_number       1
_symmetry_cell_setting            triclinic
loop_
_symmetry_equiv_pos_as_xyz
'x, y, z'
_cell_length_a     100.06058
_cell_length_b     100.54645
_cell_length_c     100.29342
_cell_angle_alpha  90.55198
_cell_angle_beta   89.977845
_cell_angle_gamma 90.016432
loop_
_atom_site_label
_atom_site_type_symbol
_atom_site_fract_x
_atom_site_fract_y
_atom_site_fract_z
_atom_type_partial_charge
C0 C 0.01972 0.05418 0.07571 0.0
C1 C 0.02494 0.0456 0.08536 0.0
C2 C 1.00439 0.04753 0.09837 0.0
C3 C 0.01735 0.04231 0.0966 0.0
C4 C 0.99919 0.05598 0.08853 0.0
C5 C 1.00679 0.05927 0.07734 0.0
U6 U 0.04864 0.04935 0.0509 0.0
O7 O 0.04873 0.052 0.02912 0.0
O8 O 0.06184 0.06421 0.0418 0.0
C9 C 0.05692 0.06221 0.02978 0.0
C10 C 0.02755 0.05806 0.06394 0.0
C11 C 0.05288 0.07416 0.02222 0.0
C12 C 0.05005 0.09816 0.0204 0.0
C13 C 0.05333 0.08699 0.02795 0.0
C14 C 0.04557 0.08393 1.00132 0.0
C15 C 0.04617 0.09677 1.00698 0.0
C16 C 0.04895 0.07278 1.00884 0.0
C17 C 0.07276 0.01989 0.05484 0.0
C18 C 0.09341 0.01707 0.04233 0.0
C19 C 0.08546 0.9994 0.05654 0.0
C20 C 0.0744 1.00714 0.06011 0.0
C21 C 0.09513 1.00426 0.04763 0.0
C22 C 0.08229 0.02481 0.04588 0.0
C23 C 0.06111 0.02788 0.05897 0.0
O24 O 0.03976 0.06233 0.06629 0.0
O25 O 0.0268 0.04995 0.05361 0.0
O26 O 0.05082 0.02755 0.05083 0.0
O27 O 0.06374 0.03987 0.0636 0.0
H28 H 0.03491 0.04154 0.08424 0.0
H29 H 0.02172 0.03588 0.10402 0.0
H30 H 0.98918 0.05998 0.08941 0.0
H31 H 1.00256 0.06584 0.06995 0.0
H32 H 0.05048 0.10789 0.0251 0.0
H33 H 0.05631 0.08844 0.03824 0.0
H34 H 0.04278 0.08253 0.99096 0.0
H35 H 0.04862 0.06304 1.00413 0.0
H36 H 0.10058 0.02106 0.03534 0.0
H37 H 0.08656 0.98967 0.06097 0.0
H38 H 0.06716 1.0032 0.06707 0.0
H39 H 0.08114 0.03462 0.04166 0.0
C40 C 0.28247 0.73811 0.19394 0.0
C41 C 0.29156 0.74874 0.19374 0.0
C42 C 0.28175 0.75672 0.17302 0.0
C43 C 0.29119 0.75799 0.18338 0.0
C44 C 0.27265 0.74605 0.17335 0.0
C45 C 0.27303 0.73685 0.1837 0.0
U46 U 0.29767 0.72241 0.22527 0.0
O47 O 0.28752 0.71427 0.24288 0.0
O48 O 0.29987 0.70127 0.23025 0.0
C49 C 0.29151 0.70206 0.24033 0.0
C50 C 0.28266 0.72818 0.20462 0.0
C51 C 0.28105 0.69178 0.24072 0.0
C52 C 0.2626 0.67968 0.23049 0.0
C53 C 0.27233 0.68969 0.22994 0.0
C54 C 0.27013 0.67388 0.25264 0.0
C55 C 0.26139 0.67164 0.24186 0.0
C56 C 0.27985 0.68385 0.25206 0.0
C57 C 0.3296 0.73676 0.24131 0.0
C58 C 0.34986 0.7274 0.25093 0.0
C59 C 0.34069 0.74784 0.25998 0.0
C60 C 0.33034 0.74727 0.25061 0.0
C61 C 0.35063 0.73796 0.26019 0.0
C62 C 0.33946 0.72678 0.24161 0.0
C63 C 0.3189 0.73671 0.23106 0.0
O64 O 0.29251 0.71956 0.2041 0.0
O65 O 0.28033 0.73274 0.21673 0.0
O66 O 0.30682 0.73978 0.23525 0.0
O67 O 0.31898 0.72685 0.22235 0.0
H68 H 0.29896 0.74983 0.20157 0.0
H69 H 0.29841 0.76601 0.18337 0.0
H70 H 0.26512 0.74487 0.16568 0.0
H71 H 0.2659 0.72873 0.18372 0.0
H72 H 0.25595 0.67832 0.22208 0.0
H73 H 0.27308 0.69577 0.22111 0.0
H74 H 0.26962 0.66778 0.26147 0.0
H75 H 0.28652 0.68531 0.26046 0.0
H76 H 0.35728 0.71956 0.25091 0.0
H77 H 0.34108 0.7562 0.26687 0.0
H78 H 0.32298 0.75517 0.25053 0.0
H79 H 0.33925 0.71854 0.23458 0.0
C80 C 0.96723 0.44859 0.02063 0.0
C81 C 0.97782 0.44037 0.02456 0.0
C82 C 0.97363 0.42553 1.00561 0.0
C83 C 0.98101 0.42894 0.01711 0.0
C84 C 0.96308 0.4339 1.00172 0.0
C85 C 0.95992 0.4453 1.00916 0.0
U86 U 0.97265 0.47318 0.04956 0.0
O87 O 0.97079 0.49499 0.04994 0.0
O88 O 0.95787 0.48288 0.06267 0.0
C89 C 0.96058 0.49482 0.05818 0.0
C90 C 0.96359 0.46056 0.02835 0.0
C91 C 0.94896 0.5028 0.05416 0.0
C92 C 0.92963 0.50652 0.03998 0.0
C93 C 0.94066 0.49876 0.04359 0.0
C94 C 0.93513 0.52242 0.05743 0.0
C95 C 0.92674 0.51847 0.04684 0.0
C96 C 0.94612 0.51466 0.06104 0.0
C97 C 1.00176 0.46797 0.07388 0.0
C98 C 1.00453 0.48014 0.09477 0.0
C99 C 0.02216 0.46562 0.08676 0.0
C100 C 0.01447 0.46241 0.07554 0.0
C101 C 0.01726 0.47445 0.09658 0.0
C102 C 0.99685 0.47693 0.08351 0.0
C103 C 0.99378 0.46415 0.06212 0.0
O104 O 0.9591 0.45844 0.04047 0.0
O105 O 0.9721 0.47049 0.02776 0.0
O106 O 0.99451 0.47224 0.05192 0.0
O107 O 0.98155 0.46005 0.06455 0.0
H108 H 0.98357 0.44277 0.03342 0.0
H109 H 0.9891 0.42267 0.02047 0.0
H110 H 0.95732 0.43172 0.99281 0.0
H111 H 0.95174 0.45156 1.00595 0.0
H112 H 0.92347 0.50325 0.0317 0.0
H113 H 0.94274 0.48963 0.03815 0.0
H114 H 0.93311 0.53143 0.06307 0.0
H115 H 0.9524 0.51791 0.06925 0.0
H116 H 1.00039 0.48688 0.10218 0.0
H117 H 0.032 0.46124 0.08767 0.0
H118 H 0.01846 0.45553 0.06816 0.0
H119 H 0.98705 0.48135 0.08237 0.0
C120 C 0.71817 0.76977 0.19896 0.0
C121 C 0.72781 0.77435 0.18993 0.0
C122 C 0.72481 0.75443 0.17615 0.0
C123 C 0.73112 0.76674 0.17862 0.0
C124 C 0.7153 0.74985 0.18538 0.0
C125 C 0.71201 0.75746 0.19665 0.0
U126 U 0.72248 0.7993 0.22317 0.0
O127 O 0.7071 0.81227 0.23211 0.0
O128 O 0.71988 0.80013 0.24494 0.0
C129 C 0.70946 0.80806 0.24424 0.0
C130 C 0.71419 0.77772 0.2107 0.0
C131 C 0.69761 0.80401 0.25192 0.0
C132 C 0.68174 0.78721 0.25915 0.0
C133 C 0.69296 0.79083 0.25164 0.0
C134 C 0.67959 0.80993 0.2671 0.0
C135 C 0.67492 0.79673 0.26697 0.0
C136 C 0.69083 0.81352 0.25966 0.0
C137 C 0.75114 0.82413 0.21838 0.0
C138 C 0.75577 0.84234 0.23385 0.0
C139 C 0.76859 0.84014 0.21345 0.0
C140 C 0.76126 0.82879 0.20998 0.0
C141 C 0.76595 0.84708 0.22542 0.0
C142 C 0.7484 0.83097 0.23034 0.0
C143 C 0.74359 0.81215 0.21449 0.0
O144 O 0.72247 0.77749 0.22087 0.0
O145 O 0.70956 0.78967 0.20821 0.0
O146 O 0.73145 0.81423 0.20998 0.0
O147 O 0.74428 0.80214 0.2228 0.0
H148 H 0.73268 0.78386 0.19158 0.0
H149 H 0.7384 0.77062 0.17168 0.0
H150 H 0.71042 0.74033 0.18394 0.0
H151 H 0.70459 0.75374 0.20354 0.0
H152 H 0.67832 0.777 0.25871 0.0
H153 H 0.69801 0.78335 0.24564 0.0
H154 H 0.67468 0.81748 0.27313 0.0
H155 H 0.69427 0.82374 0.26 0.0
H156 H 0.75337 0.84751 0.24306 0.0
H157 H 0.77648 0.84338 0.20683 0.0
H158 H 0.76353 0.8236 0.20073 0.0
H159 H 0.74058 0.82753 0.23693 0.0
C160 C 0.01994 0.96675 0.45063 0.0
C161 C 0.02397 0.97719 0.44236 0.0
C162 C 1.00436 0.97374 0.42827 0.0
C163 C 0.01626 0.98065 0.43125 0.0
C164 C 1.00042 0.96327 0.43662 0.0
C165 C 1.00814 0.95983 0.44768 0.0
U166 U 0.04917 0.97195 0.47478 0.0
O167 O 0.0497 0.97005 0.49663 0.0
O168 O 0.06238 0.95724 0.48411 0.0
C169 C 0.05795 0.95988 0.49619 0.0
C170 C 0.02782 0.96298 0.46238 0.0
C171 C 0.05401 0.9483 0.50416 0.0
C172 C 0.04164 0.92768 0.50689 0.0
C173 C 0.04511 0.93868 0.49915 0.0
C174 C 0.05577 0.93591 0.52476 0.0
C175 C 0.04692 0.92616 0.5198 0.0
C176 C 0.05927 0.94686 0.517 0.0
C177 C 0.07334 1.00109 0.4696 0.0
C178 C 0.09298 1.00502 0.48336 0.0
C179 C 0.08711 0.02064 0.46608 0.0
C180 C 0.07603 0.01283 0.4627 0.0
C181 C 0.09573 0.01686 0.47646 0.0
C182 C 0.08186 0.99722 0.47997 0.0
C183 C 0.06161 0.99308 0.46581 0.0
O184 O 0.03995 0.95857 0.45992 0.0
O185 O 0.02731 0.97133 0.47252 0.0
O186 O 0.05142 0.99371 0.47407 0.0
O187 O 0.06413 0.98094 0.46155 0.0
H188 H 0.03305 0.98268 0.44452 0.0
H189 H 0.01952 0.98884 0.42512 0.0
H190 H 0.99145 0.95761 0.43453 0.0
H191 H 1.0049 0.95171 0.45395 0.0
H192 H 0.03469 0.92043 0.50283 0.0
H193 H 0.04088 0.93968 0.48927 0.0
H194 H 0.06016 0.93498 0.53457 0.0
H195 H 0.06616 0.95418 0.52102 0.0
H196 H 0.09933 1.00188 0.49149 0.0
H197 H 0.08902 0.02956 0.46042 0.0
H198 H 0.06958 0.01595 0.45464 0.0
H199 H 0.07989 0.98819 0.48544 0.0
C200 C 0.21852 0.75208 0.82569 0.0
C201 C 0.22919 0.74815 0.83383 0.0
C202 C 0.22595 0.76774 0.84804 0.0
C203 C 0.23286 0.75591 0.84493 0.0
C204 C 0.21527 0.7716 0.83978 0.0
C205 C 0.21161 0.76384 0.82873 0.0
U206 U 0.22271 0.72247 0.80165 0.0
O207 O 0.20737 0.7093 0.79294 0.0
O208 O 0.21995 0.72146 0.77992 0.0
C209 C 0.20961 0.71343 0.78075 0.0
C210 C 0.21436 0.74406 0.81407 0.0
C211 C 0.19769 0.71736 0.77315 0.0
C212 C 0.18099 0.73374 0.76691 0.0
C213 C 0.19225 0.73019 0.77437 0.0
C214 C 0.18039 0.71164 0.7571 0.0
C215 C 0.17492 0.7245 0.75818 0.0
C216 C 0.19166 0.70812 0.7645 0.0
C217 C 0.25182 0.6981 0.80652 0.0
C218 C 0.25573 0.67876 0.79229 0.0
C219 C 0.27053 0.68339 0.81088 0.0
C220 C 0.26302 0.69469 0.81412 0.0
C221 C 0.26696 0.67523 0.79996 0.0
C222 C 0.24821 0.69009 0.79556 0.0
C223 C 0.24406 0.70999 0.81026 0.0
O224 O 0.22247 0.74429 0.80377 0.0
O225 O 0.20987 0.73209 0.81672 0.0
O226 O 0.23198 0.70777 0.81486 0.0
O227 O 0.24455 0.71989 0.80181 0.0
H228 H 0.23465 0.7391 0.8316 0.0
H229 H 0.2412 0.75271 0.85098 0.0
H230 H 0.20959 0.78052 0.84198 0.0
H231 H 0.20332 0.767 0.82259 0.0
H232 H 0.17694 0.74367 0.76809 0.0
H233 H 0.19673 0.73744 0.78107 0.0
H234 H 0.17608 0.70433 0.75035 0.0
H235 H 0.19573 0.69818 0.76343 0.0
H236 H 0.25264 0.67265 0.7839 0.0
H237 H 0.27922 0.68112 0.81687 0.0
H238 H 0.26599 0.70079 0.82258 0.0
H239 H 0.23956 0.69258 0.78959 0.0
C240 C 0.96719 0.57361 0.50415 0.0
C241 C 0.97929 0.58021 0.50165 0.0
C242 C 0.97392 0.59687 0.51869 0.0
C243 C 0.98264 0.59173 0.50889 0.0
C244 C 0.9618 0.59019 0.52108 0.0
C245 C 0.95849 0.57867 0.51388 0.0
U246 U 0.97264 0.54829 0.4759 0.0
O247 O 0.97087 0.52646 0.47609 0.0
O248 O 0.95797 0.53819 0.46301 0.0
C249 C 0.96069 0.52638 0.46782 0.0
C250 C 0.9635 0.56145 0.49675 0.0
C251 C 0.9491 0.51841 0.47196 0.0
C252 C 0.92846 0.51578 0.48448 0.0
C253 C 0.93949 0.52352 0.48083 0.0
C254 C 0.93663 0.49771 0.47057 0.0
C255 C 0.92689 0.50277 0.47938 0.0
C256 C 0.94761 0.50546 0.4669 0.0
C257 C 1.00182 0.55293 0.45156 0.0
C258 C 1.0051 0.53934 0.43164 0.0
C259 C 0.02186 0.55553 0.43817 0.0
C260 C 0.01411 0.55915 0.44922 0.0
C261 C 0.01746 0.54559 0.42922 0.0
C262 C 0.99736 0.54296 0.44274 0.0
C263 C 0.9938 0.55706 0.46318 0.0
O264 O 0.95904 0.56326 0.48457 0.0
O265 O 0.97196 0.5515 0.49761 0.0
O266 O 0.99451 0.54927 0.4736 0.0
O267 O 0.98156 0.56104 0.46059 0.0
H268 H 0.98611 0.57646 0.49412 0.0
H269 H 0.99198 0.5967 0.50669 0.0
H270 H 0.95494 0.59375 0.52867 0.0
H271 H 0.94912 0.57369 0.51596 0.0
H272 H 0.92122 0.51993 0.49139 0.0
H273 H 0.94052 0.53349 0.4849 0.0
H274 H 0.93566 0.48781 0.46632 0.0
H275 H 0.95492 0.50136 0.46002 0.0
H276 H 1.00148 0.53156 0.42503 0.0
H277 H 0.03121 0.56068 0.43652 0.0
H278 H 0.01768 0.56689 0.45591 0.0
H279 H 0.9879 0.538 0.44443 0.0
C280 C 0.78273 0.78363 0.8312 0.0
C281 C 0.79273 0.77392 0.8324 0.0
C282 C 0.78162 0.76494 0.85203 0.0
C283 C 0.79217 0.76465 0.84273 0.0
C284 C 0.77161 0.77468 0.85068 0.0
C285 C 0.77218 0.78392 0.84037 0.0
U286 U 0.79861 0.7989 0.80008 0.0
O287 O 0.78891 0.80685 0.78212 0.0
O288 O 0.80118 0.81991 0.79479 0.0
C289 C 0.79295 0.81906 0.78461 0.0
C290 C 0.78312 0.79353 0.82049 0.0
C291 C 0.78256 0.82942 0.78397 0.0
C292 C 0.76529 0.84298 0.79441 0.0
C293 C 0.77486 0.83285 0.79518 0.0
C294 C 0.77085 0.84616 0.77115 0.0
C295 C 0.76319 0.84979 0.78238 0.0
C296 C 0.78044 0.83609 0.77195 0.0
C297 C 0.83061 0.78383 0.78529 0.0
C298 C 0.84102 0.79183 0.76496 0.0
C299 C 0.8517 0.77448 0.77774 0.0
C300 C 0.84123 0.77494 0.78696 0.0
C301 C 0.85175 0.78293 0.76663 0.0
C302 C 0.83055 0.79229 0.77424 0.0
C303 C 0.81976 0.78415 0.79519 0.0
O304 O 0.79304 0.80209 0.82109 0.0
O305 O 0.78095 0.7889 0.80839 0.0
O306 O 0.80777 0.78128 0.79065 0.0
O307 O 0.81986 0.79437 0.80345 0.0
H308 H 0.80097 0.77357 0.82539 0.0
H309 H 0.8001 0.75737 0.84354 0.0
H310 H 0.76323 0.77507 0.8575 0.0
H311 H 0.76435 0.79131 0.83955 0.0
H312 H 0.75946 0.84542 0.8032 0.0
H313 H 0.7763 0.82775 0.80454 0.0
H314 H 0.76962 0.85129 0.76178 0.0
H315 H 0.7863 0.83358 0.76319 0.0
H316 H 0.84081 0.79856 0.7566 0.0
H317 H 0.85967 0.76737 0.77923 0.0
H318 H 0.84141 0.76831 0.79542 0.0
H319 H 0.82243 0.79927 0.77282 0.0
C320 C 0.28298 0.28412 0.33171 0.0
C321 C 0.29098 0.27266 0.33113 0.0
C322 C 0.28216 0.26545 0.35258 0.0
C323 C 0.29054 0.26338 0.34146 0.0
C324 C 0.27421 0.27699 0.35307 0.0
C325 C 0.27462 0.28621 0.34274 0.0
U326 U 0.29809 0.29907 0.30006 0.0
O327 O 0.28804 0.30717 0.28239 0.0
O328 O 0.30081 0.32008 0.29471 0.0
C329 C 0.29235 0.31932 0.28471 0.0
C330 C 0.28319 0.294 0.32098 0.0
C331 C 0.28214 0.32983 0.28427 0.0
C332 C 0.2624 0.34079 0.2933 0.0
C333 C 0.27204 0.33071 0.29396 0.0
C334 C 0.27288 0.34917 0.27328 0.0
C335 C 0.26268 0.35013 0.28292 0.0
C336 C 0.28249 0.33912 0.27397 0.0
C337 C 0.32924 0.28354 0.28411 0.0
C338 C 0.34125 0.29364 0.26571 0.0
C339 C 0.34763 0.2718 0.27345 0.0
C340 C 0.33753 0.27235 0.28307 0.0
C341 C 0.34965 0.28244 0.26466 0.0
C342 C 0.3311 0.29417 0.27534 0.0
C343 C 0.31879 0.28395 0.29444 0.0
O344 O 0.29327 0.30237 0.32125 0.0
O345 O 0.28052 0.28943 0.30895 0.0
O346 O 0.30661 0.28127 0.29033 0.0
O347 O 0.31932 0.29415 0.30273 0.0
H348 H 0.29755 0.27091 0.3227 0.0
H349 H 0.29689 0.25467 0.34083 0.0
H350 H 0.2675 0.27881 0.36137 0.0
H351 H 0.26836 0.29499 0.34334 0.0
H352 H 0.25462 0.34115 0.3008 0.0
H353 H 0.27161 0.32358 0.30199 0.0
H354 H 0.27354 0.3563 0.26528 0.0
H355 H 0.29025 0.33861 0.26643 0.0
H356 H 0.34243 0.30195 0.25902 0.0
H357 H 0.35402 0.26311 0.27305 0.0
H358 H 0.33624 0.26407 0.28978 0.0
H359 H 0.32474 0.30287 0.27596 0.0
C360 C 0.46806 0.94853 0.52117 0.0
C361 C 0.48071 0.94272 0.52271 0.0
C362 C 0.4749 0.92534 0.50659 0.0
C363 C 0.48412 0.93124 0.51545 0.0
C364 C 0.46221 0.93119 0.50518 0.0
C365 C 0.45885 0.94268 0.51239 0.0
U366 U 0.47307 0.97368 0.54967 0.0
O367 O 0.47133 0.99552 0.5496 0.0
O368 O 0.4582 0.98369 0.5624 0.0
C369 C 0.46099 0.99553 0.55769 0.0
C370 C 0.46429 0.96068 0.52858 0.0
C371 C 0.44945 1.0035 0.55338 0.0
C372 C 0.42859 1.00584 0.54118 0.0
C373 C 0.43962 0.99814 0.54491 0.0
C374 C 0.43724 0.02437 0.55415 0.0
C375 C 0.42726 0.01905 0.54577 0.0
C376 C 0.4482 0.01666 0.55792 0.0
C377 C 0.50171 0.96855 0.57456 0.0
C378 C 0.50627 0.98357 0.59317 0.0
C379 C 0.51967 0.96371 0.59005 0.0
C380 C 0.5122 0.96038 0.57872 0.0
C381 C 0.51678 0.97532 0.59746 0.0
C382 C 0.49878 0.98019 0.58182 0.0
C383 C 0.49391 0.96467 0.56272 0.0
O384 O 0.45957 0.95882 0.54065 0.0
O385 O 0.4728 0.97061 0.52793 0.0
O386 O 0.49487 0.97262 0.55243 0.0
O387 O 0.4816 0.96074 0.56504 0.0
H388 H 0.48794 0.94706 0.52952 0.0
H389 H 0.49392 0.9269 0.51688 0.0
H390 H 0.45493 0.92701 0.49833 0.0
H391 H 0.44904 0.94704 0.51107 0.0
H392 H 0.42117 1.00149 0.53459 0.0
H393 H 0.44045 0.988 0.54123 0.0
H394 H 0.43645 0.03444 0.55801 0.0
H395 H 0.45569 0.02095 0.56447 0.0
H396 H 0.5037 0.99251 0.5987 0.0
H397 H 0.52781 0.95725 0.59292 0.0
H398 H 0.51463 0.95138 0.57321 0.0
H399 H 0.49067 0.98661 0.57875 0.0
C400 C 0.21789 0.27037 0.69867 0.0
C401 C 0.22956 0.27322 0.69147 0.0
C402 C 0.2244 0.2554 0.67558 0.0
C403 C 0.23281 0.26577 0.68003 0.0
C404 C 0.21273 0.25263 0.68289 0.0
C405 C 0.20953 0.26004 0.69431 0.0
U406 U 0.22287 0.29928 0.72345 0.0
O407 O 0.20784 0.31195 0.7333 0.0
O408 O 0.22104 0.29945 0.74534 0.0
C409 C 0.21064 0.30742 0.74523 0.0
C410 C 0.21423 0.278 0.71071 0.0
C411 C 0.19909 0.3031 0.75319 0.0
C412 C 0.17904 0.28973 0.75597 0.0
C413 C 0.1901 0.29351 0.74831 0.0
C414 C 0.18596 0.30497 0.7735 0.0
C415 C 0.17683 0.29543 0.76867 0.0
C416 C 0.19697 0.30876 0.76583 0.0
C417 C 0.25121 0.3244 0.71835 0.0
C418 C 0.25682 0.34176 0.73445 0.0
C419 C 0.26774 0.34118 0.71289 0.0
C420 C 0.26039 0.32985 0.70938 0.0
C421 C 0.26606 0.34729 0.72546 0.0
C422 C 0.24942 0.33043 0.7309 0.0
C423 C 0.2436 0.31246 0.71439 0.0
O424 O 0.22282 0.27756 0.72061 0.0
O425 O 0.20948 0.28999 0.70866 0.0
O426 O 0.2313 0.3146 0.71036 0.0
O427 O 0.24463 0.30223 0.72238 0.0
H428 H 0.23612 0.2812 0.69469 0.0
H429 H 0.2418 0.26825 0.67458 0.0
H430 H 0.20614 0.2446 0.67988 0.0
H431 H 0.2005 0.25768 0.69977 0.0
H432 H 0.17229 0.28225 0.75201 0.0
H433 H 0.19162 0.28899 0.73858 0.0
H434 H 0.18448 0.30969 0.78314 0.0
H435 H 0.2038 0.3162 0.76974 0.0
H436 H 0.25517 0.3463 0.74415 0.0
H437 H 0.27489 0.34505 0.7058 0.0
H438 H 0.26191 0.32531 0.69966 0.0
H439 H 0.24231 0.32638 0.73793 0.0
C440 C 0.78309 0.23769 0.69407 0.0
C441 C 0.79173 0.24868 0.69426 0.0
C442 C 0.78248 0.25628 0.67315 0.0
C443 C 0.79141 0.25793 0.68389 0.0
C444 C 0.77386 0.24522 0.67307 0.0
C445 C 0.77417 0.23602 0.68343 0.0
U446 U 0.79774 0.22263 0.72594 0.0
O447 O 0.78725 0.21456 0.74341 0.0
O448 O 0.80021 0.20163 0.73131 0.0
C449 C 0.79147 0.20238 0.74108 0.0
C450 C 0.78317 0.22784 0.70483 0.0
C451 C 0.7811 0.19198 0.74117 0.0
C452 C 0.7646 0.17819 0.72981 0.0
C453 C 0.77421 0.18832 0.72951 0.0
C454 C 0.76848 0.17547 0.75346 0.0
C455 C 0.76164 0.17162 0.74179 0.0
C456 C 0.77813 0.18553 0.75314 0.0
C457 C 0.82885 0.2379 0.74235 0.0
C458 C 0.84255 0.22694 0.759 0.0
C459 C 0.8456 0.25042 0.75474 0.0
C460 C 0.83548 0.24988 0.74513 0.0
C461 C 0.84932 0.23893 0.76174 0.0
C462 C 0.83236 0.22644 0.74943 0.0
C463 C 0.81848 0.23755 0.73192 0.0
O464 O 0.79321 0.21942 0.70468 0.0
O465 O 0.78041 0.23246 0.71683 0.0
O466 O 0.80627 0.24032 0.7359 0.0
O467 O 0.81903 0.22742 0.72355 0.0
H468 H 0.79872 0.25009 0.7024 0.0
H469 H 0.79826 0.26626 0.6842 0.0
H470 H 0.76672 0.24374 0.66508 0.0
H471 H 0.7674 0.22761 0.68315 0.0
H472 H 0.7594 0.17557 0.72068 0.0
H473 H 0.77629 0.19326 0.72018 0.0
H474 H 0.76657 0.17052 0.76281 0.0
H475 H 0.78335 0.18822 0.76224 0.0
H476 H 0.84506 0.21796 0.76432 0.0
H477 H 0.8507 0.25977 0.75648 0.0
H478 H 0.83291 0.25883 0.73977 0.0
H479 H 0.82729 0.21709 0.74749 0.0
C480 C 0.51926 0.55376 0.57448 0.0
C481 C 0.52417 0.54445 0.5836 0.0
C482 C 0.50368 0.54634 0.59671 0.0
C483 C 0.51646 0.5408 0.59465 0.0
C484 C 0.49883 0.55559 0.58745 0.0
C485 C 0.50655 0.55926 0.57646 0.0
U486 U 0.549 0.54988 0.5506 0.0
O487 O 0.54986 0.55259 0.52885 0.0
O488 O 0.56206 0.5652 0.54204 0.0
C489 C 0.558 0.56281 0.52978 0.0
C490 C 0.52725 0.55796 0.56293 0.0
C491 C 0.55426 0.57456 0.52198 0.0
C492 C 0.54066 0.59426 0.51847 0.0
C493 C 0.54384 0.58303 0.52601 0.0
C494 C 0.55821 0.58855 0.50278 0.0
C495 C 0.54787 0.59721 0.50679 0.0
C496 C 0.56137 0.57737 0.51031 0.0
C497 C 0.57417 0.52123 0.55495 0.0
C498 C 0.59835 0.51825 0.55511 0.0
C499 C 0.58422 0.50126 0.54529 0.0
C500 C 0.57291 0.50884 0.54846 0.0
C501 C 0.59708 0.50583 0.54866 0.0
C502 C 0.58704 0.52586 0.55823 0.0
C503 C 0.56202 0.52882 0.55885 0.0
O504 O 0.53923 0.5626 0.56566 0.0
O505 O 0.52707 0.54985 0.55257 0.0
O506 O 0.55184 0.52816 0.55057 0.0
O507 O 0.56385 0.54082 0.56387 0.0
H508 H 0.53396 0.54006 0.58219 0.0
H509 H 0.52044 0.53354 0.6015 0.0
H510 H 0.48913 0.56019 0.58881 0.0
H511 H 0.50262 0.56648 0.56953 0.0
H512 H 0.53272 0.60076 0.5219 0.0
H513 H 0.53824 0.58099 0.53501 0.0
H514 H 0.56381 0.59035 0.49373 0.0
H515 H 0.5694 0.57089 0.50702 0.0
H516 H 0.60811 0.52213 0.55773 0.0
H517 H 0.58287 0.49166 0.54049 0.0
H518 H 0.56313 0.5049 0.54598 0.0
H519 H 0.58842 0.53531 0.56332 0.0
C520 C 0.51971 0.46718 0.95026 0.0
C521 C 0.52435 0.47684 0.94137 0.0
C522 C 0.50408 0.47444 0.92802 0.0
C523 C 0.51662 0.48042 0.93032 0.0
C524 C 0.49949 0.46482 0.93704 0.0
C525 C 0.50724 0.46123 0.94803 0.0
U526 U 0.54903 0.4719 0.97444 0.0
O527 O 0.54979 0.46909 0.99615 0.0
O528 O 0.56255 0.45699 0.98303 0.0
C529 C 0.55823 0.4591 0.99524 0.0
C530 C 0.52771 0.46312 0.96183 0.0
C531 C 0.55462 0.44714 1.00278 0.0
C532 C 0.53981 0.42849 1.00713 0.0
C533 C 0.54304 0.43983 0.99977 0.0
C534 C 0.55971 0.43169 0.02053 0.0
C535 C 0.54813 0.42426 0.01759 0.0
C536 C 0.5629 0.443 0.01319 0.0
C537 C 0.57282 0.50153 0.9703 0.0
C538 C 0.59411 0.50396 0.98178 0.0
C539 C 0.58496 0.52243 0.96943 0.0
C540 C 0.57387 0.51468 0.96593 0.0
C541 C 0.59524 0.51717 0.97736 0.0
C542 C 0.58296 0.49622 0.97832 0.0
C543 C 0.56112 0.49354 0.96628 0.0
O544 O 0.53989 0.45895 0.95917 0.0
O545 O 0.52714 0.47109 0.97228 0.0
O546 O 0.551 0.49372 0.97464 0.0
O547 O 0.5637 0.48162 0.96144 0.0
H548 H 0.53395 0.48159 0.94297 0.0
H549 H 0.52038 0.48796 0.92366 0.0
H550 H 0.48999 0.45988 0.93549 0.0
H551 H 0.50351 0.45374 0.95478 0.0
H552 H 0.5309 0.42294 1.00451 0.0
H553 H 0.53653 0.44288 0.99172 0.0
H554 H 0.56623 0.42886 0.02864 0.0
H555 H 0.57186 0.44856 0.01568 0.0
H556 H 0.60177 0.49965 0.98801 0.0
H557 H 0.58558 0.53249 0.96571 0.0
H558 H 0.56615 0.51894 0.95973 0.0
H559 H 0.58228 0.48609 0.98186 0.0
C560 C 0.71844 0.25145 0.32597 0.0
C561 C 0.72961 0.24794 0.33363 0.0
C562 C 0.72593 0.26713 0.34828 0.0
C563 C 0.73332 0.25571 0.3447 0.0
C564 C 0.71473 0.27053 0.34053 0.0
C565 C 0.71105 0.26277 0.32949 0.0
U566 U 0.72242 0.2218 0.3019 0.0
O567 O 0.70695 0.20886 0.29309 0.0
O568 O 0.71973 0.2209 0.28015 0.0
C569 C 0.7093 0.21298 0.28092 0.0
C570 C 0.71428 0.24346 0.31433 0.0
C571 C 0.69745 0.21705 0.27328 0.0
C572 C 0.6808 0.23353 0.26718 0.0
C573 C 0.69204 0.22987 0.27463 0.0
C574 C 0.6802 0.21154 0.25711 0.0
C575 C 0.67473 0.2244 0.25833 0.0
C576 C 0.69145 0.20793 0.2645 0.0
C577 C 0.75102 0.19688 0.30661 0.0
C578 C 0.75752 0.18013 0.29019 0.0
C579 C 0.76665 0.17942 0.31254 0.0
C580 C 0.7593 0.19076 0.31599 0.0
C581 C 0.76589 0.17397 0.29958 0.0
C582 C 0.7501 0.19146 0.29369 0.0
C583 C 0.74351 0.20891 0.3105 0.0
O584 O 0.72246 0.24361 0.30407 0.0
O585 O 0.70965 0.23154 0.31695 0.0
O586 O 0.73139 0.20687 0.3151 0.0
O587 O 0.7442 0.21893 0.3022 0.0
H588 H 0.73544 0.23922 0.33102 0.0
H589 H 0.74206 0.25287 0.35036 0.0
H590 H 0.70868 0.27911 0.3431 0.0
H591 H 0.70236 0.2656 0.32372 0.0
H592 H 0.67676 0.24345 0.26847 0.0
H593 H 0.69651 0.23704 0.28143 0.0
H594 H 0.6759 0.20432 0.25027 0.0
H595 H 0.6955 0.19799 0.26333 0.0
H596 H 0.75659 0.1761 0.28018 0.0
H597 H 0.77311 0.17504 0.31996 0.0
H598 H 0.76014 0.19482 0.32601 0.0
H599 H 0.74369 0.196 0.28632 0.0
C600 C 0.46874 0.07389 1.00357 0.0
C601 C 0.4656 0.08665 0.99886 0.0
C602 C 0.47537 0.0969 0.01871 0.0
C603 C 0.46888 0.09801 1.00634 0.0
C604 C 0.47858 0.08415 0.02339 0.0
C605 C 0.47524 0.07279 0.01594 0.0
U606 U 0.47304 0.04839 0.97499 0.0
O607 O 0.47108 0.02658 0.97516 0.0
O608 O 0.45798 0.03847 0.96242 0.0
C609 C 0.46074 0.02661 0.96709 0.0
C610 C 0.46474 0.0617 0.99609 0.0
C611 C 0.44918 0.01866 0.97137 0.0
C612 C 0.42905 0.01581 0.98463 0.0
C613 C 0.44007 0.02352 0.98088 0.0
C614 C 0.43624 0.99829 0.96951 0.0
C615 C 0.427 1.00309 0.97898 0.0
C616 C 0.44721 1.00601 0.96575 0.0
C617 C 0.5018 0.05293 0.95007 0.0
C618 C 0.50484 0.03936 0.9301 0.0
C619 C 0.52173 0.05546 0.93651 0.0
C620 C 0.51409 0.05911 0.94762 0.0
C621 C 0.51722 0.04554 0.9276 0.0
C622 C 0.49721 0.043 0.94127 0.0
C623 C 0.49398 0.05703 0.96184 0.0
O624 O 0.45976 0.06337 0.98408 0.0
O625 O 0.47297 0.05154 0.99675 0.0
O626 O 0.49485 0.04919 0.9722 0.0
O627 O 0.48172 0.06108 0.95948 0.0
H628 H 0.46051 0.0879 0.98942 0.0
H629 H 0.46638 0.10769 1.00239 0.0
H630 H 0.4834 0.08293 0.03296 0.0
H631 H 0.47762 0.06311 0.01995 0.0
H632 H 0.42221 0.01974 0.99205 0.0
H633 H 0.44148 0.03326 0.98537 0.0
H634 H 0.43488 0.98864 0.96481 0.0
H635 H 0.45413 1.00212 0.95837 0.0
H636 H 0.50114 0.03159 0.92351 0.0
H637 H 0.5311 0.06056 0.93479 0.0
H638 H 0.51777 0.06682 0.95429 0.0
H639 H 0.48775 0.03808 0.94306 0.0
Li640 Li 0.27377 0.89389 0.01265 0.0
Li641 Li 0.26313 0.8772 0.02715 0.0
Li642 Li 0.25903 0.87723 1.00209 0.0
Li643 Li 0.24871 0.89413 0.01688 0.0
C644 C 0.28907 0.87129 1.00976 0.0
N645 N 0.3157 0.86573 1.00497 0.0
C646 C 0.29737 0.86729 0.02018 0.0
C647 C 0.29425 0.87223 0.99687 0.0
C648 C 0.31082 0.86458 0.01757 0.0
C649 C 0.30776 0.86945 0.99466 0.0
C650 C 0.26557 0.89963 0.04291 0.0
C651 C 0.25702 0.90078 0.06538 0.0
N652 N 0.26922 0.90487 0.06977 0.0
C653 C 0.27798 0.904 0.04762 0.0
C654 C 0.25496 0.89814 0.05184 0.0
C655 C 0.27964 0.90655 0.06123 0.0
C656 C 0.28842 0.91526 1.00158 0.0
N657 N 0.28931 0.90484 1.01007 0.0
C658 C 0.31213 0.91024 0.01484 0.0
C659 C 0.30083 0.90231 0.01678 0.0
C660 C 0.31157 0.92099 1.00599 0.0
C661 C 0.29947 0.92346 0.99935 0.0
H662 H 0.2791 0.91725 0.99653 0.0
H663 H 0.30122 0.89423 0.02378 0.0
C664 C 0.25733 0.85519 0.04348 0.0
N665 N 0.26547 0.86595 0.04238 0.0
C666 C 0.25868 0.84652 0.05421 0.0
C667 C 0.27687 0.86006 0.06248 0.0
C668 C 0.27518 0.86846 0.05156 0.0
C669 C 0.26857 0.84888 0.0639 0.0
H670 H 0.24982 0.85327 0.03596 0.0
H671 H 0.28179 0.87684 0.05032 0.0
C672 C 0.25744 0.89955 0.98667 0.0
N673 N 0.25473 0.90455 0.95976 0.0
C674 C 0.24534 0.90432 0.98165 0.0
C675 C 0.26822 0.89754 0.97803 0.0
C676 C 0.24415 0.90673 0.96801 0.0
C677 C 0.26664 0.90006 0.96445 0.0
C678 C 0.23305 0.87197 0.01986 0.0
C679 C 0.22426 0.86805 1.00974 0.0
C680 C 0.22838 0.87325 0.03294 0.0
C681 C 0.21084 0.86576 0.01283 0.0
C682 C 0.21489 0.87087 0.03563 0.0
N683 N 0.20647 0.86723 0.0256 0.0
C684 C 0.26441 0.85558 0.98446 0.0
C685 C 0.24607 0.86894 0.97807 0.0
C686 C 0.26257 0.84729 0.97333 0.0
N687 N 0.25626 0.86621 0.98658 0.0
C688 C 0.24386 0.86093 0.96682 0.0
C689 C 0.25216 0.8499 0.96431 0.0
H690 H 0.27229 0.85344 0.9915 0.0
H691 H 0.23954 0.87727 0.98007 0.0
C692 C 0.23393 0.91549 0.02841 0.0
N693 N 0.23329 0.90526 0.01946 0.0
C694 C 0.22288 0.92375 0.03051 0.0
C695 C 0.21074 0.91097 0.01399 0.0
C696 C 0.22203 0.90297 0.0122 0.0
C697 C 0.21104 0.92154 0.02327 0.0
H698 H 0.24306 0.91727 0.03391 0.0
H699 H 0.22185 0.89502 1.00488 0.0
O700 O 0.27589 0.87407 0.01216 0.0
O701 O 0.26379 0.897 0.02961 0.0
O702 O 0.25874 0.89701 0.99999 0.0
O703 O 0.2462 0.87438 0.01699 0.0
H704 H 0.29352 0.86638 0.03019 0.0
H705 H 0.28792 0.87499 0.98863 0.0
H706 H 0.31739 0.86158 0.02556 0.0
H707 H 0.31191 0.87019 0.98473 0.0
H708 H 0.2489 0.89961 0.0724 0.0
H709 H 0.28626 0.90536 0.04085 0.0
H710 H 0.24522 0.89508 0.04834 0.0
H711 H 0.28922 0.90985 0.06502 0.0
H712 H 0.32114 0.9081 0.0204 0.0
H713 H 0.29857 0.93156 0.99236 0.0
H714 H 0.25198 0.8381 0.05494 0.0
H715 H 0.28478 0.86215 0.06955 0.0
H716 H 0.23693 0.90608 0.9882 0.0
H717 H 0.27773 0.89415 0.98178 0.0
H718 H 0.23482 0.91033 0.96398 0.0
H719 H 0.2749 0.89849 0.95765 0.0
H720 H 0.22772 0.86687 0.99959 0.0
H721 H 0.2351 0.87595 0.04094 0.0
H722 H 0.2039 0.86282 1.00507 0.0
H723 H 0.21113 0.87188 0.04571 0.0
H724 H 0.26907 0.83878 0.97196 0.0
H725 H 0.23579 0.86343 0.96011 0.0
H726 H 0.22356 0.9317 0.03784 0.0
H727 H 0.20195 0.90903 1.00799 0.0
Li728 Li 0.12652 0.51238 0.27525 0.0
Li729 Li 0.14334 0.49783 0.26452 0.0
Li730 Li 0.14341 0.52281 0.26066 0.0
Li731 Li 0.12653 0.50815 0.2502 0.0
C732 C 0.14957 0.51597 0.29032 0.0
N733 N 0.15593 0.52253 0.31639 0.0
C734 C 0.15414 0.5062 0.29902 0.0
C735 C 0.14848 0.52912 0.29482 0.0
C736 C 0.15724 0.50969 0.31218 0.0
C737 C 0.15168 0.53223 0.30804 0.0
C738 C 0.12138 0.48224 0.26729 0.0
C739 C 0.12125 0.45947 0.25949 0.0
N740 N 0.11735 0.45547 0.27181 0.0
C741 C 0.11722 0.47791 0.27983 0.0
C742 C 0.12328 0.47297 0.257 0.0
C743 C 0.11529 0.46433 0.28193 0.0
C744 C 0.10448 0.52285 0.28975 0.0
N745 N 0.1155 0.515 0.29075 0.0
C746 C 0.11067 0.51088 0.31372 0.0
C747 C 0.1186 0.50892 0.3024 0.0
C748 C 0.09933 0.5191 0.31306 0.0
C749 C 0.09626 0.52509 0.30082 0.0
H750 H 0.10207 0.5274 0.28033 0.0
H751 H 0.12714 0.50238 0.30288 0.0
C752 C 0.16438 0.48005 0.25793 0.0
N753 N 0.15446 0.48245 0.2669 0.0
C754 C 0.17272 0.469 0.25931 0.0
C755 C 0.16061 0.46311 0.27923 0.0
C756 C 0.15251 0.47429 0.27747 0.0
C757 C 0.1709 0.46032 0.27007 0.0
H758 H 0.16592 0.4868 0.24976 0.0
H759 H 0.14471 0.47648 0.2846 0.0
C760 C 0.12048 0.53827 0.25946 0.0
N761 N 0.11435 0.565 0.25768 0.0
C762 C 0.1159 0.54351 0.24744 0.0
C763 C 0.1217 0.54659 0.27064 0.0
C764 C 0.11292 0.55706 0.24672 0.0
C765 C 0.11862 0.56008 0.26952 0.0
C766 C 0.14845 0.50574 0.23441 0.0
C767 C 0.15258 0.51618 0.22628 0.0
C768 C 0.14654 0.49309 0.22885 0.0
C769 C 0.15447 0.51383 0.21265 0.0
C770 C 0.14852 0.49114 0.21518 0.0
N771 N 0.15239 0.50147 0.20743 0.0
C772 C 0.16561 0.53957 0.26598 0.0
C773 C 0.15152 0.54731 0.24876 0.0
C774 C 0.17403 0.55056 0.26452 0.0
N775 N 0.15454 0.5382 0.25823 0.0
C776 C 0.15967 0.55845 0.24695 0.0
C777 C 0.17111 0.56022 0.2549 0.0
H778 H 0.16795 0.53209 0.27329 0.0
H779 H 0.14293 0.54583 0.24242 0.0
C780 C 0.10555 0.49631 0.23518 0.0
N781 N 0.11544 0.50559 0.23476 0.0
C782 C 0.09735 0.49409 0.2241 0.0
C783 C 0.1095 0.51111 0.21236 0.0
C784 C 0.11744 0.51303 0.22368 0.0
C785 C 0.09929 0.50151 0.21245 0.0
H786 H 0.10402 0.49063 0.24415 0.0
H787 H 0.12516 0.52055 0.22364 0.0
O788 O 0.1464 0.5127 0.27743 0.0
O789 O 0.12344 0.4955 0.26509 0.0
O790 O 0.12355 0.52504 0.26032 0.0
O791 O 0.14642 0.50789 0.24775 0.0
H792 H 0.15521 0.496 0.29569 0.0
H793 H 0.14533 0.53688 0.28815 0.0
H794 H 0.16069 0.5022 0.31904 0.0
H795 H 0.15082 0.54236 0.31166 0.0
H796 H 0.12276 0.45219 0.25163 0.0
H797 H 0.11556 0.48494 0.28787 0.0
H798 H 0.12624 0.47615 0.24718 0.0
H799 H 0.11215 0.46084 0.29161 0.0
H800 H 0.11328 0.50582 0.32284 0.0
H801 H 0.08769 0.53158 0.29984 0.0
H802 H 0.18067 0.4674 0.25213 0.0
H803 H 0.15875 0.45668 0.28762 0.0
H804 H 0.11473 0.53721 0.23874 0.0
H805 H 0.12486 0.54266 0.28011 0.0
H806 H 0.10946 0.56125 0.23745 0.0
H807 H 0.11957 0.56664 0.27809 0.0
H808 H 0.15425 0.526 0.23041 0.0
H809 H 0.14359 0.48485 0.23503 0.0
H810 H 0.15758 0.52184 0.20623 0.0
H811 H 0.147 0.48141 0.21075 0.0
H812 H 0.18267 0.55153 0.27095 0.0
H813 H 0.15715 0.56546 0.23922 0.0
H814 H 0.08968 0.48651 0.22461 0.0
H815 H 0.11123 0.51722 0.20369 0.0
Li816 Li 0.7488 0.62739 1.00779 0.0
Li817 Li 0.75885 0.64435 0.02268 0.0
Li818 Li 0.76291 0.64425 0.99766 0.0
Li819 Li 0.7738 0.62762 0.01198 0.0
C820 C 0.73248 0.6484 1.00613 0.0
N821 N 0.70514 0.65059 1.00292 0.0
C822 C 0.7244 0.65209 0.01692 0.0
C823 C 0.72666 0.646 0.99366 0.0
C824 C 0.7106 0.65311 0.0151 0.0
C825 C 0.71282 0.64711 0.99226 0.0
C826 C 0.75896 0.62091 0.0378 0.0
C827 C 0.77063 0.61846 0.05867 0.0
N828 N 0.75934 0.61341 0.06424 0.0
C829 C 0.74753 0.61553 0.04368 0.0
C830 C 0.77064 0.62225 0.04531 0.0
C831 C 0.7479 0.61186 0.05707 0.0
C832 C 0.73339 0.60714 0.99513 0.0
N833 N 0.73345 0.61618 1.00531 0.0
C834 C 0.71155 0.60933 0.012 0.0
C835 C 0.72286 0.61732 0.01375 0.0
C836 C 0.71116 0.59995 1.00152 0.0
C837 C 0.72231 0.5989 0.99304 0.0
H838 H 0.74197 0.60631 0.98863 0.0
H839 H 0.72319 0.62444 0.02188 0.0
C840 C 0.76271 0.66714 0.03921 0.0
N841 N 0.75606 0.65538 0.03818 0.0
C842 C 0.76079 0.67547 0.0503 0.0
C843 C 0.745 0.65957 0.05896 0.0
C844 C 0.74725 0.65155 0.04774 0.0
C845 C 0.7518 0.67174 0.06038 0.0
H846 H 0.76945 0.67012 0.03136 0.0
H847 H 0.7418 0.64235 0.04656 0.0
C848 C 0.76678 0.62294 0.98178 0.0
N849 N 0.77289 0.6201 0.95503 0.0
C850 C 0.77963 0.61914 0.97784 0.0
C851 C 0.75698 0.62511 0.97211 0.0
C852 C 0.78254 0.6178 0.96427 0.0
C853 C 0.76028 0.62369 0.95864 0.0
C854 C 0.78824 0.65137 0.01642 0.0
C855 C 0.79732 0.65611 1.00699 0.0
C856 C 0.79193 0.65099 0.02985 0.0
C857 C 0.81006 0.66007 0.01111 0.0
C858 C 0.80475 0.65505 0.03358 0.0
N859 N 0.81349 0.65945 0.02421 0.0
C860 C 0.75576 0.66469 0.97977 0.0
C861 C 0.77631 0.6542 0.97454 0.0
C862 C 0.75707 0.67309 0.96882 0.0
N863 N 0.76528 0.65543 0.98239 0.0
C864 C 0.77802 0.66238 0.96347 0.0
C865 C 0.76832 0.67202 0.96047 0.0
H866 H 0.74718 0.66565 0.98626 0.0
H867 H 0.78382 0.64687 0.97688 0.0
C868 C 0.78787 0.60507 0.02123 0.0
N869 N 0.78934 0.61668 0.01454 0.0
C870 C 0.79889 0.59684 0.02348 0.0
C871 C 0.8127 0.61244 0.01158 0.0
C872 C 0.80142 0.62038 1.00958 0.0
C873 C 0.81156 0.6005 0.01868 0.0
H874 H 0.77813 0.60221 0.02487 0.0
H875 H 0.8023 0.62938 1.00389 0.0
O876 O 0.74599 0.64717 1.00776 0.0
O877 O 0.75874 0.62462 0.0247 0.0
O878 O 0.76379 0.62443 0.99502 0.0
O879 O 0.77573 0.64741 0.01253 0.0
H880 H 0.72873 0.65409 0.0266 0.0
H881 H 0.73277 0.64329 0.98518 0.0
H882 H 0.70422 0.65588 0.02339 0.0
H883 H 0.70819 0.6452 0.98269 0.0
H884 H 0.7796 0.61948 0.0646 0.0
H885 H 0.73844 0.61426 0.03799 0.0
H886 H 0.77969 0.62601 0.04084 0.0
H887 H 0.73909 0.60778 0.06177 0.0
H888 H 0.70329 0.61036 0.0189 0.0
H889 H 0.72242 0.5919 0.98477 0.0
H890 H 0.76608 0.68486 0.05083 0.0
H891 H 0.73803 0.65623 0.06649 0.0
H892 H 0.78731 0.61731 0.98518 0.0
H893 H 0.74695 0.62791 0.97498 0.0
H894 H 0.79247 0.61494 0.96108 0.0
H895 H 0.75282 0.62542 0.95106 0.0
H896 H 0.79461 0.65663 0.99658 0.0
H897 H 0.78493 0.64775 0.03734 0.0
H898 H 0.81722 0.66365 1.0039 0.0
H899 H 0.80774 0.65476 0.04394 0.0
H900 H 0.74945 0.68052 0.96707 0.0
H901 H 0.78679 0.66108 0.95728 0.0
H902 H 0.7975 0.58779 0.02909 0.0
H903 H 0.82218 0.61554 1.00742 0.0
Li904 Li 0.87791 0.02303 0.26521 0.0
Li905 Li 0.89472 1.00853 0.27576 0.0
Li906 Li 0.89473 0.01279 0.25085 0.0
Li907 Li 0.87777 0.9981 0.26088 0.0
C908 C 0.89942 0.03865 0.26893 0.0
N909 N 0.90241 0.06535 0.27504 0.0
C910 C 0.90336 0.04263 0.28173 0.0
C911 C 0.89718 0.04824 0.25919 0.0
C912 C 0.90478 0.05618 0.28463 0.0
C913 C 0.89868 0.06169 0.26249 0.0
C914 C 0.87115 1.00426 0.29036 0.0
C915 C 0.86814 0.98708 0.30671 0.0
N916 N 0.86362 0.99635 0.31559 0.0
C917 C 0.86629 0.01359 0.29958 0.0
C918 C 0.87193 0.99088 0.29389 0.0
C919 C 0.86261 1.0094 0.31231 0.0
C920 C 0.85732 0.04123 0.25863 0.0
N921 N 0.86676 0.03837 0.26792 0.0
C922 C 0.86012 0.05721 0.28112 0.0
C923 C 0.86822 0.04605 0.27906 0.0
C924 C 0.85029 0.06045 0.27167 0.0
C925 C 0.84895 0.05226 0.26031 0.0
H926 H 0.85623 0.03491 0.24992 0.0
H927 H 0.87563 0.04347 0.28643 0.0
C928 C 0.91734 0.99889 0.28966 0.0
N929 N 0.90579 1.00587 0.29117 0.0
C930 C 0.92564 0.99658 0.30061 0.0
C931 C 0.91021 1.00899 0.31445 0.0
C932 C 0.90221 0.01105 0.30323 0.0
C933 C 0.92209 1.0016 0.31326 0.0
H934 H 0.9201 0.99506 0.27993 0.0
H935 H 0.89325 0.01695 0.30413 0.0
C936 C 0.87333 0.0147 0.23481 0.0
N937 N 0.87055 0.01797 0.20762 0.0
C938 C 0.86944 1.00399 0.22671 0.0
C939 C 0.87562 0.02712 0.2291 0.0
C940 C 0.86813 1.00583 0.21298 0.0
C941 C 0.87422 0.02856 0.21533 0.0
C942 C 0.90121 0.98274 0.26014 0.0
C943 C 0.90612 0.9771 0.24832 0.0
C944 C 0.90025 0.97493 0.27155 0.0
C945 C 0.90968 0.96367 0.24804 0.0
C946 C 0.90392 0.96154 0.27088 0.0
N947 N 0.9085 0.95623 0.25923 0.0
C948 C 0.91529 0.02515 0.23592 0.0
C949 C 0.9045 1.00741 0.22455 0.0
C950 C 0.92356 0.0274 0.22493 0.0
N951 N 0.90593 0.01534 0.23552 0.0
C952 C 0.91251 1.00934 0.21331 0.0
C953 C 0.9222 0.01947 0.21338 0.0
H954 H 0.91635 0.03124 0.24479 0.0
H955 H 0.89715 0.99953 0.22452 0.0
C956 C 0.85491 0.98202 0.26508 0.0
N957 N 0.86657 0.98278 0.25815 0.0
C958 C 0.84638 0.97112 0.26335 0.0
C959 C 0.86185 0.96205 0.24717 0.0
C960 C 0.87008 0.97313 0.24922 0.0
C961 C 0.8498 0.96092 0.25429 0.0
H962 H 0.8522 0.98992 0.27195 0.0
H963 H 0.87914 0.97412 0.24348 0.0
O964 O 0.89783 0.02544 0.26595 0.0
O965 O 0.87486 1.00821 0.27787 0.0
O966 O 0.87483 0.01303 0.24825 0.0
O967 O 0.89762 0.99587 0.26056 0.0
H968 H 0.90525 0.03535 0.28936 0.0
H969 H 0.89428 0.04534 0.2492 0.0
H970 H 0.90775 0.0594 0.29451 0.0
H971 H 0.8969 0.06922 0.25506 0.0
H972 H 0.86874 0.97675 0.30958 0.0
H973 H 0.86546 0.02396 0.29699 0.0
H974 H 0.87526 0.98347 0.28678 0.0
H975 H 0.85894 0.01653 0.31958 0.0
H976 H 0.86138 0.06309 0.29013 0.0
H977 H 0.84159 0.05442 0.25272 0.0
H978 H 0.93464 0.99076 0.2992 0.0
H979 H 0.90721 0.01332 0.32391 0.0
H980 H 0.86753 0.99434 0.23096 0.0
H981 H 0.87846 0.03554 0.23523 0.0
H982 H 0.86521 0.99761 0.20659 0.0
H983 H 0.87604 0.0381 0.21078 0.0
H984 H 0.90709 0.98301 0.23943 0.0
H985 H 0.89686 0.9792 0.28088 0.0
H986 H 0.9134 0.95916 0.23893 0.0
H987 H 0.90318 0.95539 0.27964 0.0
H988 H 0.9308 0.03539 0.22541 0.0
H989 H 0.91124 1.00286 0.20472 0.0
H990 H 0.83725 0.97066 0.26913 0.0
H991 H 0.86478 0.95461 0.23986 0.0
Li992 Li 0.25929 0.14441 0.52299 0.0
Li993 Li 0.24877 0.12747 0.50843 0.0
Li994 Li 0.27377 0.12785 0.51266 0.0
Li995 Li 0.26337 0.1445 0.49803 0.0
C996 C 0.25602 0.12325 0.53862 0.0
N997 N 0.25025 0.12079 0.56543 0.0
C998 C 0.24332 0.11915 0.54268 0.0
C999 C 0.26584 0.12593 0.54818 0.0
C1000 C 0.24059 0.118 0.55628 0.0
C1001 C 0.26271 0.12468 0.56169 0.0
C1002 C 0.23399 0.15085 0.5038 0.0
C1003 C 0.21806 0.15373 0.48601 0.0
N1004 N 0.20894 0.15833 0.49499 0.0
C1005 C 0.22452 0.15578 0.51283 0.0
C1006 C 0.23079 0.14996 0.49026 0.0
C1007 C 0.21189 0.15944 0.50819 0.0
C1008 C 0.26574 0.16476 0.54185 0.0
N1009 N 0.25641 0.15551 0.53841 0.0
C1010 C 0.2426 0.16218 0.55678 0.0
C1011 C 0.24497 0.15412 0.5456 0.0
C1012 C 0.25204 0.17186 0.56059 0.0
C1013 C 0.26376 0.17305 0.55296 0.0
H1014 H 0.27467 0.1658 0.53589 0.0
H1015 H 0.23766 0.14677 0.54263 0.0
C1016 C 0.23483 0.10465 0.499 0.0
N1017 N 0.23339 0.11629 0.50587 0.0
C1018 C 0.22385 0.09629 0.49686 0.0
C1019 C 0.21013 0.11184 0.50924 0.0
C1020 C 0.22137 0.1199 0.51111 0.0
C1021 C 0.21125 0.09986 0.50197 0.0
H1022 H 0.24453 0.10186 0.49513 0.0
H1023 H 0.22053 0.12894 0.51694 0.0
C1024 C 0.28967 0.14925 0.51434 0.0
N1025 N 0.31701 0.15213 0.51695 0.0
C1026 C 0.29741 0.15296 0.50339 0.0
C1027 C 0.29581 0.14718 0.52666 0.0
C1028 C 0.31123 0.15433 0.5049 0.0
C1029 C 0.30965 0.14863 0.52776 0.0
C1030 C 0.26405 0.1209 0.48255 0.0
C1031 C 0.27583 0.1161 0.47676 0.0
C1032 C 0.25238 0.12147 0.47491 0.0
C1033 C 0.27582 0.11225 0.46334 0.0
C1034 C 0.25277 0.11752 0.46153 0.0
N1035 N 0.26439 0.11305 0.45606 0.0
C1036 C 0.28917 0.1078 0.52511 0.0
C1037 C 0.30008 0.11819 0.50703 0.0
C1038 C 0.30028 0.09967 0.52729 0.0
N1039 N 0.28929 0.11689 0.51516 0.0
C1040 C 0.31143 0.11031 0.50888 0.0
C1041 C 0.31164 0.10088 0.51914 0.0
H1042 H 0.28044 0.10683 0.53136 0.0
H1043 H 0.29989 0.12534 0.49905 0.0
C1044 C 0.25903 0.16749 0.48267 0.0
N1045 N 0.26573 0.15572 0.48278 0.0
C1046 C 0.26031 0.1761 0.47188 0.0
C1047 C 0.27565 0.16053 0.46164 0.0
C1048 C 0.27403 0.1522 0.47261 0.0
C1049 C 0.26869 0.17266 0.46114 0.0
H1050 H 0.25272 0.17023 0.491 0.0
H1051 H 0.27956 0.143 0.47305 0.0
O1052 O 0.25883 0.1246 0.52534 0.0
O1053 O 0.24639 0.14717 0.50819 0.0
O1054 O 0.27615 0.1477 0.51301 0.0
O1055 O 0.2639 0.12475 0.49568 0.0
H1056 H 0.23564 0.11694 0.53542 0.0
H1057 H 0.27574 0.12898 0.54521 0.0
H1058 H 0.23078 0.11491 0.55957 0.0
H1059 H 0.27019 0.1268 0.56919 0.0
H1060 H 0.21545 0.15306 0.47556 0.0
H1061 H 0.22685 0.1567 0.52331 0.0
H1062 H 0.2381 0.14657 0.48308 0.0
H1063 H 0.20444 0.16317 0.51509 0.0
H1064 H 0.2335 0.16075 0.56243 0.0
H1065 H 0.27123 0.18049 0.55538 0.0
H1066 H 0.2252 0.08722 0.49112 0.0
H1067 H 0.20071 0.11487 0.51363 0.0
H1068 H 0.29283 0.15469 0.49381 0.0
H1069 H 0.28996 0.14445 0.53527 0.0
H1070 H 0.31735 0.15712 0.49649 0.0
H1071 H 0.31454 0.14698 0.53722 0.0
H1072 H 0.28491 0.11542 0.48254 0.0
H1073 H 0.24309 0.12476 0.4793 0.0
H1074 H 0.2849 0.10861 0.45872 0.0
H1075 H 0.24382 0.11795 0.45551 0.0
H1076 H 0.30003 0.09264 0.5354 0.0
H1077 H 0.31986 0.11146 0.50222 0.0
H1078 H 0.25495 0.18546 0.47207 0.0
H1079 H 0.28219 0.15744 0.45358 0.0
Li1080 Li 0.39482 0.50867 0.77509 0.0
Li1081 Li 0.37799 0.52342 0.7649 0.0
Li1082 Li 0.3778 0.49845 0.76044 0.0
Li1083 Li 0.39469 0.51304 0.75013 0.0
C1084 C 0.3722 0.50548 0.79046 0.0
N1085 N 0.36676 0.49948 0.81675 0.0
C1086 C 0.36789 0.51543 0.79929 0.0
C1087 C 0.37351 0.49243 0.79496 0.0
C1088 C 0.36525 0.51221 0.81255 0.0
C1089 C 0.37078 0.48961 0.8083 0.0
C1090 C 0.40045 0.53882 0.76738 0.0
C1091 C 0.4013 0.56135 0.75937 0.0
N1092 N 0.4055 0.56556 0.77159 0.0
C1093 C 0.40493 0.54335 0.77982 0.0
C1094 C 0.39876 0.54787 0.75703 0.0
C1095 C 0.40737 0.55691 0.78177 0.0
C1096 C 0.41651 0.4975 0.78941 0.0
N1097 N 0.40593 0.50593 0.79046 0.0
C1098 C 0.41121 0.51041 0.81335 0.0
C1099 C 0.40327 0.51247 0.8021 0.0
C1100 C 0.42211 0.50161 0.81263 0.0
C1101 C 0.42474 0.49516 0.80041 0.0
H1102 H 0.41859 0.49258 0.78001 0.0
H1103 H 0.39505 0.51941 0.80263 0.0
C1104 C 0.35657 0.54114 0.75945 0.0
N1105 N 0.367 0.53886 0.76782 0.0
C1106 C 0.34827 0.55218 0.76143 0.0
C1107 C 0.36149 0.55828 0.78067 0.0
C1108 C 0.36952 0.54713 0.77833 0.0
C1109 C 0.35065 0.56093 0.77219 0.0
H1110 H 0.35458 0.5343 0.75132 0.0
H1111 H 0.37769 0.545 0.78501 0.0
C1112 C 0.40036 0.48283 0.75814 0.0
N1113 N 0.4057 0.45605 0.75465 0.0
C1114 C 0.40469 0.47799 0.74577 0.0
C1115 C 0.39899 0.47409 0.7688 0.0
C1116 C 0.40727 0.46441 0.74418 0.0
C1117 C 0.40167 0.46058 0.76683 0.0
C1118 C 0.37229 0.51605 0.73478 0.0
C1119 C 0.368 0.50587 0.72621 0.0
C1120 C 0.37386 0.52892 0.72988 0.0
C1121 C 0.36563 0.50868 0.71281 0.0
C1122 C 0.3714 0.53134 0.71641 0.0
N1123 N 0.36738 0.52125 0.70822 0.0
C1124 C 0.35587 0.48142 0.7659 0.0
C1125 C 0.36921 0.47437 0.74766 0.0
C1126 C 0.34743 0.47045 0.76421 0.0
N1127 N 0.36658 0.48313 0.75773 0.0
C1128 C 0.36104 0.46325 0.74562 0.0
C1129 C 0.34996 0.46114 0.75397 0.0
H1130 H 0.35383 0.48862 0.7737 0.0
H1131 H 0.37752 0.4761 0.74104 0.0
C1132 C 0.41605 0.52442 0.73547 0.0
N1133 N 0.40571 0.51567 0.73466 0.0
C1134 C 0.42424 0.52667 0.72442 0.0
C1135 C 0.41115 0.5107 0.7119 0.0
C1136 C 0.40323 0.50875 0.7232 0.0
C1137 C 0.42182 0.51979 0.71238 0.0
H1138 H 0.41797 0.52966 0.74473 0.0
H1139 H 0.39519 0.50159 0.72285 0.0
O1140 O 0.37495 0.50848 0.77746 0.0
O1141 O 0.3979 0.52559 0.76533 0.0
O1142 O 0.39767 0.49609 0.75984 0.0
O1143 O 0.37478 0.51345 0.74792 0.0
H1144 H 0.36666 0.52554 0.79597 0.0
H1145 H 0.3765 0.48455 0.78821 0.0
H1146 H 0.36201 0.51984 0.81951 0.0
H1147 H 0.37181 0.47956 0.81191 0.0
H1148 H 0.39997 0.56846 0.75145 0.0
H1149 H 0.40645 0.53649 0.7879 0.0
H1150 H 0.39559 0.54451 0.74727 0.0
H1151 H 0.41076 0.56056 0.79137 0.0
H1152 H 0.40895 0.51582 0.82246 0.0
H1153 H 0.43297 0.48823 0.79938 0.0
H1154 H 0.33991 0.55368 0.75475 0.0
H1155 H 0.36381 0.56478 0.78903 0.0
H1156 H 0.40596 0.48461 0.73745 0.0
H1157 H 0.39599 0.4777 0.77852 0.0
H1158 H 0.41053 0.46051 0.73463 0.0
H1159 H 0.40058 0.4537 0.77498 0.0
H1160 H 0.36658 0.49589 0.72985 0.0
H1161 H 0.37688 0.53697 0.73642 0.0
H1162 H 0.36239 0.50088 0.70605 0.0
H1163 H 0.37264 0.54124 0.71248 0.0
H1164 H 0.33907 0.46921 0.77095 0.0
H1165 H 0.36324 0.45651 0.73742 0.0
H1166 H 0.43227 0.53384 0.72526 0.0
H1167 H 0.40905 0.50498 0.70294 0.0
Li1168 Li 0.77393 0.39318 0.5126 0.0
Li1169 Li 0.76354 0.37649 0.5272 0.0
Li1170 Li 0.75937 0.3766 0.50222 0.0
Li1171 Li 0.74892 0.39352 0.51693 0.0
C1172 C 0.78969 0.3716 0.51029 0.0
N1173 N 0.81686 0.36829 0.50656 0.0
C1174 C 0.7978 0.36768 0.52089 0.0
C1175 C 0.79537 0.37364 0.49774 0.0
C1176 C 0.81152 0.3661 0.51882 0.0
C1177 C 0.80913 0.37198 0.49607 0.0
C1178 C 0.76455 0.39974 0.54282 0.0
C1179 C 0.75372 0.40274 0.56412 0.0
N1180 N 0.76551 0.40686 0.56948 0.0
C1181 C 0.77652 0.40418 0.54849 0.0
C1182 C 0.75302 0.39916 0.55065 0.0
C1183 C 0.77682 0.40767 0.56201 0.0
C1184 C 0.78904 0.41361 0.50045 0.0
N1185 N 0.78941 0.40416 0.51006 0.0
C1186 C 0.81173 0.41049 0.51594 0.0
C1187 C 0.80042 0.40256 0.51783 0.0
C1188 C 0.81168 0.42029 0.50603 0.0
C1189 C 0.8001 0.4218 0.49826 0.0
H1190 H 0.78014 0.41482 0.4945 0.0
H1191 H 0.80042 0.39515 0.52556 0.0
C1192 C 0.75856 0.354 0.54319 0.0
N1193 N 0.76596 0.36532 0.54246 0.0
C1194 C 0.75988 0.34552 0.55407 0.0
C1195 C 0.7767 0.36027 0.56313 0.0
C1196 C 0.77501 0.36849 0.55209 0.0
C1197 C 0.76904 0.34861 0.56427 0.0
H1198 H 0.75166 0.3515 0.53526 0.0
H1199 H 0.78107 0.37732 0.55115 0.0
C1200 C 0.75608 0.3982 0.48679 0.0
N1201 N 0.75027 0.40165 0.46012 0.0
C1202 C 0.74336 0.40241 0.48292 0.0
C1203 C 0.76589 0.39592 0.47712 0.0
C1204 C 0.74061 0.40406 0.46938 0.0
C1205 C 0.76274 0.39767 0.46368 0.0
C1206 C 0.73394 0.37022 0.52096 0.0
C1207 C 0.72486 0.36523 0.51157 0.0
C1208 C 0.73012 0.37132 0.53433 0.0
C1209 C 0.71201 0.3617 0.51568 0.0
C1210 C 0.71718 0.36767 0.53804 0.0
N1211 N 0.70846 0.363 0.52872 0.0
C1212 C 0.76558 0.35585 0.48377 0.0
C1213 C 0.74548 0.36733 0.4791 0.0
C1214 C 0.76372 0.34757 0.47263 0.0
N1215 N 0.75654 0.36553 0.48675 0.0
C1216 C 0.74326 0.35933 0.46785 0.0
C1217 C 0.75243 0.34924 0.46447 0.0
H1218 H 0.77418 0.35446 0.49012 0.0
H1219 H 0.73834 0.37496 0.48175 0.0
C1220 C 0.7353 0.41638 0.52651 0.0
N1221 N 0.73361 0.40475 0.51968 0.0
C1222 C 0.72447 0.42489 0.52877 0.0
C1223 C 0.71036 0.40947 0.51669 0.0
C1224 C 0.72146 0.40127 0.51466 0.0
C1225 C 0.71174 0.42147 0.52387 0.0
H1226 H 0.74511 0.41909 0.53016 0.0
H1227 H 0.7204 0.39219 0.50893 0.0
O1228 O 0.77626 0.37333 0.51217 0.0
O1229 O 0.76409 0.39624 0.5296 0.0
O1230 O 0.75892 0.39641 0.5 0.0
O1231 O 0.74655 0.3738 0.51709 0.0
H1232 H 0.79356 0.36595 0.53064 0.0
H1233 H 0.78923 0.3765 0.48939 0.0
H1234 H 0.81792 0.36315 0.52696 0.0
H1235 H 0.81367 0.37361 0.48643 0.0
H1236 H 0.74487 0.4023 0.5703 0.0
H1237 H 0.78551 0.40484 0.54256 0.0
H1238 H 0.74359 0.39613 0.54636 0.0
H1239 H 0.78605 0.41102 0.56655 0.0
H1240 H 0.82034 0.4091 0.52231 0.0
H1241 H 0.79964 0.42914 0.49044 0.0
H1242 H 0.75396 0.33652 0.55436 0.0
H1243 H 0.78386 0.36308 0.57075 0.0
H1244 H 0.73568 0.40432 0.49026 0.0
H1245 H 0.77582 0.39283 0.47995 0.0
H1246 H 0.73078 0.40724 0.46623 0.0
H1247 H 0.77022 0.39586 0.45609 0.0
H1248 H 0.72768 0.36416 0.50122 0.0
H1249 H 0.73711 0.37478 0.54179 0.0
H1250 H 0.70486 0.35791 0.5085 0.0
H1251 H 0.71409 0.36851 0.54836 0.0
H1252 H 0.77095 0.3398 0.47059 0.0
H1253 H 0.73449 0.36112 0.46181 0.0
H1254 H 0.72611 0.43415 0.53412 0.0
H1255 H 0.70076 0.40635 0.51278 0.0
Li1256 Li 0.64463 0.99812 0.76414 0.0
Li1257 Li 0.62779 0.01206 0.77479 0.0
Li1258 Li 0.62721 1.00886 0.75013 0.0
Li1259 Li 0.64435 0.02265 0.76108 0.0
C1260 C 0.62034 0.98532 0.77247 0.0
N1261 N 0.61101 0.96548 0.78895 0.0
C1262 C 0.62802 0.98109 0.78326 0.0
C1263 C 0.60793 0.9794 0.77002 0.0
C1264 C 0.62313 0.97107 0.79148 0.0
C1265 C 0.60338 0.9694 0.77848 0.0
C1266 C 0.6494 0.01481 0.79085 0.0
C1267 C 0.64746 0.02927 0.81008 0.0
N1268 N 0.65278 0.01959 0.81782 0.0
C1269 C 0.65496 1.00504 0.79897 0.0
C1270 C 0.64572 0.02706 0.79642 0.0
C1271 C 0.65655 1.00763 0.81259 0.0
C1272 C 0.66873 0.98485 0.77006 0.0
N1273 N 0.65607 0.9829 0.76555 0.0
C1274 C 0.65995 0.95948 0.76352 0.0
C1275 C 0.6516 0.97054 0.76219 0.0
C1276 C 0.67303 0.96115 0.76836 0.0
C1277 C 0.6774 0.97408 0.7716 0.0
H1278 H 0.67207 0.99481 0.77253 0.0
H1279 H 0.64149 0.96923 0.75859 0.0
C1280 C 0.60579 0.02259 0.78909 0.0
N1281 N 0.61641 0.01423 0.7902 0.0
C1282 C 0.59726 0.02481 0.79994 0.0
C1283 C 0.61062 1.00966 0.81287 0.0
C1284 C 0.61885 1.0077 0.80177 0.0
C1285 C 0.59967 0.01836 0.81208 0.0
H1286 H 0.60397 0.0276 0.77978 0.0
H1287 H 0.62724 1.00102 0.80249 0.0
C1288 C 0.65059 1.00002 0.73715 0.0
N1289 N 0.65811 0.98281 0.71687 0.0
C1290 C 0.66174 1.00288 0.72929 0.0
C1291 C 0.64326 0.98841 0.73471 0.0
C1292 C 0.66538 0.99405 0.71908 0.0
C1293 C 0.64723 0.97984 0.72441 0.0
C1294 C 0.62322 0.03851 0.75775 0.0
C1295 C 0.62137 0.0424 0.74454 0.0
C1296 C 0.62367 0.04814 0.76787 0.0
C1297 C 0.62025 0.05592 0.74164 0.0
C1298 C 0.62252 0.06156 0.76457 0.0
N1299 N 0.62086 0.06514 0.75164 0.0
C1300 C 0.60337 1.00244 0.73633 0.0
C1301 C 0.62084 1.01007 0.72242 0.0
C1302 C 0.59501 1.00059 0.72529 0.0
N1303 N 0.61605 1.00696 0.7347 0.0
C1304 C 0.61283 1.00839 0.71111 0.0
C1305 C 0.59973 1.0035 0.71243 0.0
H1306 H 0.59975 1.00022 0.74621 0.0
H1307 H 0.6309 0.01388 0.72141 0.0
C1308 C 0.66372 0.04211 0.76857 0.0
N1309 N 0.6555 0.03797 0.75856 0.0
C1310 C 0.67205 0.05312 0.76684 0.0
C1311 C 0.66342 0.05539 0.74449 0.0
C1312 C 0.65534 0.04425 0.74661 0.0
C1313 C 0.67196 0.05994 0.75468 0.0
H1314 H 0.66395 0.0368 0.77786 0.0
H1315 H 0.64901 0.04054 0.73868 0.0
O1316 O 0.62496 0.99511 0.76427 0.0
O1317 O 0.64767 0.01242 0.7775 0.0
O1318 O 0.64696 1.00856 0.74721 0.0
O1319 O 0.62448 0.02533 0.76075 0.0
H1320 H 0.63762 0.98556 0.78532 0.0
H1321 H 0.60187 0.98247 0.76168 0.0
H1322 H 0.62897 0.96775 0.79989 0.0
H1323 H 0.59379 0.96475 0.7767 0.0
H1324 H 0.64457 0.03869 0.81453 0.0
H1325 H 0.65795 0.99552 0.79485 0.0
H1326 H 0.64151 0.03476 0.79027 0.0
H1327 H 0.66078 1.00014 0.819 0.0
H1328 H 0.6561 0.9497 0.76101 0.0
H1329 H 0.68746 0.97587 0.77517 0.0
H1330 H 0.58901 0.03169 0.79889 0.0
H1331 H 0.61276 1.00432 0.82195 0.0
H1332 H 0.66751 0.01183 0.73107 0.0
H1333 H 0.6346 0.98604 0.74068 0.0
H1334 H 0.67399 0.99613 0.71291 0.0
H1335 H 0.64165 0.97082 0.72241 0.0
H1336 H 0.62094 0.03509 0.73658 0.0
H1337 H 0.62484 0.0453 0.77817 0.0
H1338 H 0.61892 0.05908 0.73145 0.0
H1339 H 0.62291 0.06913 0.77231 0.0
H1340 H 0.58504 0.99669 0.72682 0.0
H1341 H 0.61683 0.011 0.70146 0.0
H1342 H 0.67843 0.05631 0.77498 0.0
H1343 H 0.6632 0.0602 0.73488 0.0
Li1344 Li 0.02427 0.26236 0.87912 0.0
Li1345 Li 1.00924 0.27224 0.89603 0.0
Li1346 Li 0.01371 0.24744 0.89577 0.0
Li1347 Li 0.99931 0.25811 0.87895 0.0
C1348 C 0.03927 0.26229 0.9032 0.0
N1349 N 0.06544 0.26176 0.91201 0.0
C1350 C 0.04519 0.27379 0.90845 0.0
C1351 C 0.04659 0.25046 0.90266 0.0
C1352 C 0.05846 0.27334 0.91278 0.0
C1353 C 0.05982 0.25041 0.9071 0.0
C1354 C 1.00775 0.28851 0.87528 0.0
C1355 C 0.99415 0.30824 0.87709 0.0
N1356 N 1.00489 0.31578 0.87367 0.0
C1357 C 0.01863 0.29643 0.87168 0.0
C1358 C 0.99538 0.29443 0.8779 0.0
C1359 C 0.01698 0.31021 0.87095 0.0
C1360 C 0.04013 0.25894 0.85597 0.0
N1361 N 0.03971 0.26511 0.86809 0.0
C1362 C 0.06096 0.27527 0.86407 0.0
C1363 C 0.04978 0.27328 0.87218 0.0
C1364 C 0.06177 0.26888 0.85156 0.0
C1365 C 0.05113 0.26064 0.84755 0.0
H1366 H 0.03191 0.25267 0.85284 0.0
H1367 H 0.04905 0.27844 0.88163 0.0
C1368 C 0.99604 0.2873 0.91613 0.0
N1369 N 1.00644 0.28746 0.90741 0.0
C1370 C 0.99351 0.29827 0.92442 0.0
C1371 C 0.01255 0.30937 0.91474 0.0
C1372 C 0.01473 0.29816 0.90667 0.0
C1373 C 1.00178 0.30956 0.92376 0.0
H1374 H 0.9897 0.27862 0.91668 0.0
H1375 H 0.02299 0.29804 0.89973 0.0
C1376 C 0.01905 0.23343 0.8715 0.0
N1377 N 0.02866 0.20921 0.86242 0.0
C1378 C 0.01037 0.22416 0.86568 0.0
C1379 C 0.03265 0.23046 0.8725 0.0
C1380 C 0.01541 0.21195 0.86121 0.0
C1381 C 0.03731 0.21815 0.8679 0.0
C1382 C 0.98344 0.25371 0.89978 0.0
C1383 C 0.97994 0.2407 0.9031 0.0
C1384 C 0.97342 0.2631 0.8975 0.0
C1385 C 0.96644 0.23724 0.9039 0.0
C1386 C 0.96003 0.25925 0.89837 0.0
N1387 N 0.95685 0.24651 0.90152 0.0
C1388 C 0.02141 0.23419 0.91921 0.0
C1389 C 0.01307 0.21971 0.90242 0.0
C1390 C 0.0236 0.22347 0.92772 0.0
N1391 N 0.01636 0.23214 0.90678 0.0
C1392 C 0.01513 0.2087 0.91057 0.0
C1393 C 0.0205 0.21047 0.92343 0.0
H1394 H 0.02373 0.24419 0.92254 0.0
H1395 H 1.00874 0.21832 0.89266 0.0
C1396 C 0.98067 0.26524 0.85896 0.0
N1397 N 0.98405 0.25548 0.86762 0.0
C1398 C 0.96961 0.26371 0.85057 0.0
C1399 C 0.96569 0.24209 0.8601 0.0
C1400 C 0.97687 0.24401 0.86826 0.0
C1401 C 0.96193 0.25202 0.85107 0.0
H1402 H 0.98658 0.27422 0.85853 0.0
H1403 H 0.97985 0.23631 0.87509 0.0
O1404 O 0.02628 0.26257 0.89893 0.0
O1405 O 1.00922 0.27502 0.87621 0.0
O1406 O 0.01426 0.24543 0.87596 0.0
O1407 O 0.9966 0.25723 0.89879 0.0
H1408 H 0.03965 0.283 0.90911 0.0
H1409 H 0.04208 0.24137 0.89902 0.0
H1410 H 0.06319 0.2822 0.91677 0.0
H1411 H 0.0656 0.24132 0.9067 0.0
H1412 H 0.98466 0.31297 0.87919 0.0
H1413 H 0.02825 0.29201 0.86954 0.0
H1414 H 0.98686 0.28844 0.88063 0.0
H1415 H 0.02533 0.31647 0.86824 0.0
H1416 H 0.06876 0.28196 0.86747 0.0
H1417 H 0.05133 0.25543 0.83805 0.0
H1418 H 0.98524 0.29784 0.93136 0.0
H1419 H 0.01912 0.31786 0.91376 0.0
H1420 H 0.99984 0.22633 0.86468 0.0
H1421 H 0.03958 0.23764 0.87661 0.0
H1422 H 1.00878 0.20465 0.85677 0.0
H1423 H 0.04781 0.21572 0.86864 0.0
H1424 H 0.98756 0.23332 0.90496 0.0
H1425 H 0.97595 0.27322 0.895 0.0
H1426 H 0.96358 0.22719 0.9064 0.0
H1427 H 0.95218 0.26639 0.89654 0.0
H1428 H 0.02752 0.22539 0.93761 0.0
H1429 H 0.01266 0.19889 0.90677 0.0
H1430 H 0.96702 0.27168 0.84385 0.0
H1431 H 0.96019 0.23284 0.86071 0.0
Li1432 Li 0.52424 0.76197 0.37919 0.0
Li1433 Li 0.50986 0.77279 0.39607 0.0
Li1434 Li 0.51425 0.74799 0.39606 0.0
Li1435 Li 0.49928 0.75779 0.37921 0.0
C1436 C 0.54017 0.76621 0.39998 0.0
N1437 N 0.56692 0.77284 0.40155 0.0
C1438 C 0.54398 0.77911 0.40362 0.0
C1439 C 0.54995 0.75664 0.39729 0.0
C1440 C 0.55756 0.78228 0.40433 0.0
C1441 C 0.56343 0.7602 0.39808 0.0
C1442 C 0.5044 0.78661 0.37204 0.0
C1443 C 0.48588 0.80144 0.3682 0.0
N1444 N 0.49448 0.81064 0.36326 0.0
C1445 C 0.51303 0.79614 0.36676 0.0
C1446 C 0.49069 0.78922 0.37263 0.0
C1447 C 0.50783 0.80826 0.36244 0.0
C1448 C 0.54312 0.75483 0.35916 0.0
N1449 N 0.53952 0.7646 0.36792 0.0
C1450 C 0.55764 0.77827 0.36063 0.0
C1451 C 0.54648 0.7762 0.36873 0.0
C1452 C 0.56163 0.76836 0.35148 0.0
C1453 C 0.55418 0.75651 0.35081 0.0
H1454 H 0.53737 0.74574 0.35862 0.0
H1455 H 0.54335 0.78388 0.37566 0.0
C1456 C 0.50145 0.78646 0.41934 0.0
N1457 N 0.50725 0.7882 0.40722 0.0
C1458 C 0.49918 0.79734 0.42783 0.0
C1459 C 0.5093 0.8116 0.41141 0.0
C1460 C 0.51132 0.80044 0.40322 0.0
C1461 C 0.50308 0.81015 0.42389 0.0
H1462 H 0.49857 0.77659 0.42242 0.0
H1463 H 0.51624 0.80157 0.39372 0.0
C1464 C 0.51533 0.73153 0.37514 0.0
N1465 N 0.5173 0.70416 0.37329 0.0
C1466 C 0.50414 0.72391 0.37174 0.0
C1467 C 0.52756 0.72525 0.37745 0.0
C1468 C 0.50533 0.71008 0.37089 0.0
C1469 C 0.52834 0.7114 0.37652 0.0
C1470 C 0.48428 0.75819 0.40345 0.0
C1471 C 0.47843 0.74693 0.40908 0.0
C1472 C 0.47693 0.76998 0.40268 0.0
C1473 C 0.46522 0.74757 0.41357 0.0
C1474 C 0.46376 0.77023 0.40729 0.0
N1475 N 0.45822 0.75911 0.41258 0.0
C1476 C 0.52739 0.733 0.41596 0.0
C1477 C 0.50844 0.7223 0.40663 0.0
C1478 C 0.52975 0.72215 0.42424 0.0
N1479 N 0.51693 0.73286 0.40731 0.0
C1480 C 0.51044 0.71122 0.41471 0.0
C1481 C 0.52125 0.71102 0.42367 0.0
H1482 H 0.53388 0.74158 0.41648 0.0
H1483 H 0.50013 0.72244 0.39975 0.0
C1484 C 0.48446 0.76019 0.35549 0.0
N1485 N 0.48395 0.75509 0.36799 0.0
C1486 C 0.47366 0.75864 0.34678 0.0
C1487 C 0.46203 0.74643 0.36386 0.0
C1488 C 0.47308 0.74818 0.37223 0.0
C1489 C 0.46221 0.75171 0.35093 0.0
H1490 H 0.49326 0.76553 0.35231 0.0
H1491 H 0.47302 0.74386 0.38203 0.0
O1492 O 0.52692 0.76298 0.39904 0.0
O1493 O 0.50934 0.77468 0.3763 0.0
O1494 O 0.51432 0.74506 0.37619 0.0
O1495 O 0.4972 0.75771 0.399 0.0
H1496 H 0.53654 0.78663 0.40579 0.0
H1497 H 0.54717 0.7466 0.39452 0.0
H1498 H 0.56066 0.79224 0.40706 0.0
H1499 H 0.5711 0.75291 0.39593 0.0
H1500 H 0.47529 0.80359 0.36863 0.0
H1501 H 0.52364 0.79425 0.36606 0.0
H1502 H 0.48381 0.78184 0.37629 0.0
H1503 H 0.51442 0.81575 0.35842 0.0
H1504 H 0.56295 0.78763 0.36136 0.0
H1505 H 0.55694 0.74855 0.344 0.0
H1506 H 0.49459 0.79569 0.43745 0.0
H1507 H 0.51243 0.82127 0.40794 0.0
H1508 H 0.49461 0.72861 0.36988 0.0
H1509 H 0.53634 0.731 0.38002 0.0
H1510 H 0.49673 0.70405 0.36834 0.0
H1511 H 0.53772 0.7064 0.37837 0.0
H1512 H 0.48399 0.73777 0.40991 0.0
H1513 H 0.48139 0.7789 0.39874 0.0
H1514 H 0.46055 0.7389 0.41785 0.0
H1515 H 0.45796 0.77929 0.40673 0.0
H1516 H 0.53806 0.72257 0.43115 0.0
H1517 H 0.5037 0.70284 0.4138 0.0
H1518 H 0.47421 0.76296 0.33694 0.0
H1519 H 0.45353 0.74081 0.3674 0.0
Li1520 Li 0.01422 0.77436 0.62937 0.0
Li1521 Li 0.99941 0.76411 0.64609 0.0
Li1522 Li 0.02445 0.75991 0.64591 0.0
Li1523 Li 1.00982 0.74947 0.62894 0.0
C1524 C 0.01628 0.79013 0.65116 0.0
N1525 N 0.01987 0.81718 0.65478 0.0
C1526 C 1.00558 0.79815 0.65518 0.0
C1527 C 0.02885 0.79584 0.64917 0.0
C1528 C 1.00758 0.81181 0.65692 0.0
C1529 C 0.03045 0.80954 0.65099 0.0
C1530 C 0.98394 0.76526 0.62291 0.0
C1531 C 0.96233 0.75492 0.62028 0.0
N1532 N 0.95723 0.76668 0.61606 0.0
C1533 C 0.97852 0.7772 0.61837 0.0
C1534 C 0.97582 0.75399 0.62373 0.0
C1535 C 0.96498 0.77774 0.61502 0.0
C1536 C 0.02648 0.78925 0.60883 0.0
N1537 N 0.01688 0.78972 0.61842 0.0
C1538 C 0.01111 0.81194 0.61226 0.0
C1539 C 1.00917 0.80074 0.62019 0.0
C1540 C 0.02101 0.81178 0.60231 0.0
C1541 C 0.02873 0.8002 0.60064 0.0
H1542 H 0.03238 0.78034 0.60749 0.0
H1543 H 1.00143 0.80082 0.6277 0.0
C1544 C 0.98322 0.75922 0.66862 0.0
N1545 N 0.98402 0.76656 0.65733 0.0
C1546 C 0.97224 0.76053 0.67715 0.0
C1547 C 0.96321 0.77719 0.6625 0.0
C1548 C 0.97436 0.77553 0.65423 0.0
C1549 C 0.96201 0.76959 0.67413 0.0
H1550 H 0.99116 0.75238 0.67106 0.0
H1551 H 0.97535 0.78153 0.64542 0.0
C1552 C 0.04014 0.75666 0.62427 0.0
N1553 N 0.06699 0.75112 0.62091 0.0
C1554 C 0.04422 0.74401 0.62004 0.0
C1555 C 0.0497 0.76654 0.62661 0.0
C1556 C 0.05784 0.7414 0.61844 0.0
C1557 C 0.06323 0.76353 0.62491 0.0
C1558 C 1.00568 0.73457 0.65199 0.0
C1559 C 0.01515 0.72547 0.65657 0.0
C1560 C 0.99228 0.73075 0.65104 0.0
C1561 C 0.01111 0.7126 0.65982 0.0
C1562 C 0.98863 0.71779 0.65439 0.0
N1563 N 0.99804 0.70906 0.65865 0.0
C1564 C 0.04254 0.76622 0.66684 0.0
C1565 C 0.04767 0.74626 0.6552 0.0
C1566 C 0.05355 0.76449 0.67524 0.0
N1567 N 0.03984 0.75718 0.65703 0.0
C1568 C 0.0588 0.74416 0.66333 0.0
C1569 C 0.06187 0.75333 0.67354 0.0
H1570 H 0.0361 0.77475 0.66821 0.0
H1571 H 0.0452 0.73907 0.64752 0.0
C1572 C 0.99968 0.73568 0.60636 0.0
N1573 N 1.00705 0.73418 0.61764 0.0
C1574 C 0.99725 0.72483 0.59789 0.0
C1575 C 0.01036 0.71109 0.61255 0.0
C1576 C 0.0125 0.72221 0.62076 0.0
C1577 C 1.00257 0.71228 0.60096 0.0
H1578 H 0.99571 0.74535 0.6039 0.0
H1579 H 0.01863 0.7213 0.62955 0.0
O1580 O 0.01447 0.77676 0.64927 0.0
O1581 O 0.99717 0.76459 0.6263 0.0
O1582 O 0.02685 0.75936 0.62603 0.0
O1583 O 1.00949 0.7472 0.6487 0.0
H1584 H 0.99581 0.79389 0.65687 0.0
H1585 H 0.03728 0.78976 0.64625 0.0
H1586 H 0.99937 0.81814 0.65995 0.0
H1587 H 0.04011 0.8141 0.64941 0.0
H1588 H 0.95594 0.74627 0.62091 0.0
H1589 H 0.98467 0.78599 0.61751 0.0
H1590 H 0.97991 0.74458 0.62684 0.0
H1591 H 0.96064 0.78694 0.61159 0.0
H1592 H 1.00478 0.82055 0.61377 0.0
H1593 H 0.03654 0.79965 0.59318 0.0
H1594 H 0.97189 0.75466 0.68614 0.0
H1595 H 0.95557 0.78428 0.65974 0.0
H1596 H 0.03696 0.73628 0.61807 0.0
H1597 H 0.04672 0.77642 0.6297 0.0
H1598 H 0.06114 0.73163 0.61524 0.0
H1599 H 0.07074 0.77107 0.62676 0.0
H1600 H 0.02553 0.72828 0.65753 0.0
H1601 H 0.98476 0.73774 0.6479 0.0
H1602 H 0.01835 0.70544 0.66327 0.0
H1603 H 0.97829 0.7147 0.65365 0.0
H1604 H 0.05557 0.77187 0.68291 0.0
H1605 H 0.06479 0.73531 0.66179 0.0
H1606 H 0.99141 0.72629 0.58894 0.0
H1607 H 0.01463 0.70163 0.61536 0.0
Li1608 Li 0.51402 0.27453 0.12959 0.0
Li1609 Li 0.4992 0.26451 0.14645 0.0
Li1610 Li 0.52423 0.26022 0.14636 0.0
Li1611 Li 0.50953 0.24964 0.12951 0.0
C1612 C 0.51652 0.29046 0.1514 0.0
N1613 N 0.52096 0.31735 0.15521 0.0
C1614 C 0.50611 0.29875 0.15561 0.0
C1615 C 0.52923 0.29581 0.14931 0.0
C1616 C 0.50854 0.31233 0.15744 0.0
C1617 C 0.53126 0.30944 0.15123 0.0
C1618 C 0.48372 0.26584 0.1234 0.0
C1619 C 0.46185 0.2561 0.12071 0.0
N1620 N 0.457 0.26809 0.11684 0.0
C1621 C 0.47857 0.27802 0.11922 0.0
C1622 C 0.47534 0.25475 0.12401 0.0
C1623 C 0.46502 0.27898 0.11601 0.0
C1624 C 0.5259 0.2886 0.10835 0.0
N1625 N 0.51679 0.28968 0.11837 0.0
C1626 C 0.51175 0.31202 0.11203 0.0
C1627 C 0.50967 0.30106 0.12026 0.0
C1628 C 0.52117 0.31125 0.10165 0.0
C1629 C 0.52827 0.29929 0.09986 0.0
H1630 H 0.53126 0.27938 0.10686 0.0
H1631 H 0.50233 0.30164 0.12814 0.0
C1632 C 0.48261 0.25956 0.16872 0.0
N1633 N 0.48381 0.26716 0.15764 0.0
C1634 C 0.47161 0.26106 0.17719 0.0
C1635 C 0.46335 0.27841 0.1629 0.0
C1636 C 0.47452 0.27656 0.1547 0.0
C1637 C 0.46175 0.27058 0.17433 0.0
H1638 H 0.49024 0.25233 0.17102 0.0
H1639 H 0.47586 0.2828 0.14611 0.0
C1640 C 0.53983 0.25671 0.12452 0.0
N1641 N 0.56661 0.25118 0.12067 0.0
C1642 C 0.54387 0.24396 0.12061 0.0
C1643 C 0.5494 0.26671 0.12628 0.0
C1644 C 0.55746 0.24134 0.11876 0.0
C1645 C 0.56289 0.2637 0.12434 0.0
C1646 C 0.50547 0.23498 0.15266 0.0
C1647 C 0.5149 0.22611 0.15773 0.0
C1648 C 0.49218 0.23093 0.15122 0.0
C1649 C 0.51092 0.21322 0.161 0.0
C1650 C 0.4886 0.21797 0.15461 0.0
N1651 N 0.49797 0.20945 0.15937 0.0
C1652 C 0.54231 0.26658 0.16729 0.0
C1653 C 0.54745 0.24663 0.15564 0.0
C1654 C 0.55333 0.26486 0.17568 0.0
N1655 N 0.53962 0.25756 0.15747 0.0
C1656 C 0.5586 0.24455 0.16375 0.0
C1657 C 0.56166 0.25372 0.17397 0.0
H1658 H 0.53586 0.27509 0.16868 0.0
H1659 H 0.54496 0.23942 0.14799 0.0
C1660 C 0.49959 0.23574 0.10694 0.0
N1661 N 0.50671 0.23424 0.11837 0.0
C1662 C 0.4972 0.22485 0.09851 0.0
C1663 C 0.50973 0.21106 0.11361 0.0
C1664 C 0.5119 0.22223 0.12173 0.0
C1665 C 0.50225 0.21225 0.10181 0.0
H1666 H 0.4958 0.24545 0.10433 0.0
H1667 H 0.51785 0.22131 0.13065 0.0
O1668 O 0.5143 0.27715 0.14946 0.0
O1669 O 0.49696 0.26475 0.12664 0.0
O1670 O 0.52658 0.25943 0.1265 0.0
O1671 O 0.50922 0.24761 0.1493 0.0
H1672 H 0.49624 0.29477 0.15739 0.0
H1673 H 0.53744 0.28951 0.14625 0.0
H1674 H 0.50055 0.31888 0.16062 0.0
H1675 H 0.54104 0.31372 0.14958 0.0
H1676 H 0.45524 0.2476 0.12119 0.0
H1677 H 0.48493 0.28668 0.11854 0.0
H1678 H 0.47922 0.24517 0.12686 0.0
H1679 H 0.46087 0.28838 0.11286 0.0
H1680 H 0.50611 0.32104 0.11389 0.0
H1681 H 0.53544 0.29811 0.09185 0.0
H1682 H 0.47078 0.25473 0.18582 0.0
H1683 H 0.45617 0.28606 0.16043 0.0
H1684 H 0.5366 0.23613 0.1191 0.0
H1685 H 0.54644 0.27668 0.12909 0.0
H1686 H 0.56073 0.23149 0.11582 0.0
H1687 H 0.57041 0.27132 0.12574 0.0
H1688 H 0.52519 0.2291 0.15906 0.0
H1689 H 0.4847 0.23776 0.14766 0.0
H1690 H 0.51814 0.20623 0.16484 0.0
H1691 H 0.47835 0.2147 0.1535 0.0
H1692 H 0.55535 0.27224 0.18336 0.0
H1693 H 0.56459 0.2357 0.16221 0.0
H1694 H 0.49161 0.22634 0.0894 0.0
H1695 H 0.51377 0.20157 0.11664 0.0
C1696 C 0.23308 0.7701 0.87206 0.0
C1697 C 0.2297 0.77603 0.85987 0.0
C1698 C 0.23603 0.77794 0.88329 0.0
C1699 C 0.23044 0.81164 0.89731 0.0
H1700 H 0.25873 0.80209 0.92182 0.0
C1701 C 0.23679 0.83793 0.94835 0.0
C1702 C 0.24985 0.84112 0.95246 0.0
C1703 C 0.23459 0.82983 0.93714 0.0
C1704 C 0.25085 0.80494 0.91503 0.0
H1705 H 0.22731 0.79491 0.84986 0.0
H1706 H 0.23243 0.80854 0.8694 0.0
H1707 H 0.25479 0.78843 0.90193 0.0
H1708 H 0.27086 0.83826 0.94789 0.0
H1709 H 0.26701 0.82411 0.92836 0.0
H1710 H 0.22661 0.82824 0.91026 0.0
C1711 C 0.23255 0.79782 0.87036 0.0
C1712 C 0.2485 0.79703 0.9037 0.0
C1713 C 0.22961 0.79 0.85914 0.0
C1714 C 0.26066 0.83588 0.94513 0.0
C1715 C 0.25846 0.82776 0.93392 0.0
C1716 C 0.23276 0.81951 0.90864 0.0
C1717 C 0.23567 0.79191 0.88262 0.0
C1718 C 0.23827 0.8003 0.89468 0.0
C1719 C 0.24539 0.82469 0.92975 0.0
C1720 C 0.24299 0.81627 0.91766 0.0
H1721 H 0.2331 0.75938 0.87302 0.0
H1722 H 0.23825 0.77305 0.89261 0.0
H1723 H 0.22238 0.81437 0.89068 0.0
H1724 H 0.22822 0.84155 0.95389 0.0
H1725 H 0.22439 0.82748 0.93436 0.0
C1726 C 0.01973 0.53969 0.40484 0.0
C1727 C 0.0257 0.54192 0.41736 0.0
C1728 C 0.02757 0.53679 0.39362 0.0
C1729 C 0.06211 0.54026 0.38081 0.0
H1730 H 0.05068 0.51426 0.35439 0.0
C1731 C 0.09657 0.52311 0.33773 0.0
C1732 C 0.09078 0.52141 0.32504 0.0
C1733 C 0.08857 0.52535 0.34897 0.0
C1734 C 0.05395 0.52166 0.3616 0.0
H1735 H 0.0446 0.54235 0.42794 0.0
H1736 H 0.05824 0.53727 0.40842 0.0
H1737 H 0.03684 0.51848 0.37402 0.0
H1738 H 0.07196 0.52055 0.31433 0.0
H1739 H 0.05804 0.52471 0.3339 0.0
H1740 H 0.07919 0.54347 0.3684 0.0
C1741 C 0.04751 0.53803 0.40721 0.0
C1742 C 0.04601 0.52407 0.37286 0.0
C1743 C 0.03969 0.54094 0.41841 0.0
C1744 C 0.07678 0.52196 0.32391 0.0
C1745 C 0.06877 0.52419 0.33516 0.0
C1746 C 0.07004 0.53784 0.36956 0.0
C1747 C 0.04158 0.53603 0.39464 0.0
C1748 C 0.05 0.5334 0.38263 0.0
C1749 C 0.07457 0.52595 0.34784 0.0
C1750 C 0.06608 0.5285 0.35981 0.0
H1751 H 1.00901 0.54052 0.40364 0.0
H1752 H 0.02267 0.53547 0.38407 0.0
H1753 H 0.06538 0.54769 0.38799 0.0
H1754 H 0.10731 0.52288 0.33896 0.0
H1755 H 0.09337 0.52651 0.35858 0.0
C1756 C 0.77677 0.7592 0.87592 0.0
C1757 C 0.78096 0.75517 0.86311 0.0
C1758 C 0.77571 0.75002 0.88624 0.0
C1759 C 0.78692 0.71669 0.89695 0.0
H1760 H 0.75628 0.71912 0.92054 0.0
C1761 C 0.78259 0.68626 0.94559 0.0
C1762 C 0.76998 0.68101 0.94884 0.0
C1763 C 0.78407 0.69496 0.93488 0.0
C1764 C 0.76485 0.71822 0.91399 0.0
H1765 H 0.7874 0.73823 0.8512 0.0
H1766 H 0.78559 0.72219 0.86924 0.0
H1767 H 0.75862 0.73483 0.90235 0.0
H1768 H 0.7491 0.68054 0.94303 0.0
H1769 H 0.75168 0.69573 0.92442 0.0
H1770 H 0.79305 0.69995 0.90852 0.0
C1771 C 0.78324 0.73252 0.87131 0.0
C1772 C 0.76627 0.72734 0.90364 0.0
C1773 C 0.78429 0.74172 0.86097 0.0
C1774 C 0.75892 0.68457 0.94099 0.0
C1775 C 0.7604 0.69329 0.9303 0.0
C1776 C 0.78552 0.70758 0.90734 0.0
C1777 C 0.77884 0.73653 0.88406 0.0
C1778 C 0.77734 0.72672 0.895 0.0
C1779 C 0.77298 0.69865 0.92715 0.0
C1780 C 0.77446 0.70824 0.91599 0.0
H1781 H 0.77439 0.76952 0.87801 0.0
H1782 H 0.77255 0.75351 0.89599 0.0
H1783 H 0.79562 0.71598 0.89055 0.0
H1784 H 0.7913 0.68389 0.95152 0.0
H1785 H 0.79388 0.69904 0.93285 0.0
C1786 C 1.00204 0.98054 0.40425 0.0
C1787 C 0.99606 0.97737 0.41651 0.0
C1788 C 0.99418 0.98351 0.39312 0.0
C1789 C 0.96006 0.97873 0.37957 0.0
H1790 H 0.97014 1.00684 0.35536 0.0
C1791 C 0.92494 0.99633 0.33758 0.0
C1792 C 0.93069 0.99915 0.32512 0.0
C1793 C 0.93299 0.99389 0.34869 0.0
C1794 C 0.96725 0.99886 0.36194 0.0
H1795 H 0.97708 0.9753 0.42675 0.0
H1796 H 0.96341 0.98049 0.4074 0.0
H1797 H 0.98404 1.0023 0.37478 0.0
H1798 H 0.94949 1.00182 0.3147 0.0
H1799 H 0.96352 0.99732 0.33402 0.0
H1800 H 0.9433 0.97526 0.36675 0.0
C1801 C 0.97418 0.98042 0.40629 0.0
C1802 C 0.97523 0.99626 0.37308 0.0
C1803 C 0.98203 0.97745 0.41741 0.0
C1804 C 0.94471 0.99953 0.32409 0.0
C1805 C 0.95277 0.99711 0.33522 0.0
C1806 C 0.95209 0.98133 0.36844 0.0
C1807 C 0.98014 0.98339 0.39398 0.0
C1808 C 0.97172 0.98618 0.38206 0.0
C1809 C 0.94701 0.99422 0.34766 0.0
C1810 C 0.95556 0.99145 0.35949 0.0
H1811 H 0.01281 0.98041 0.40316 0.0
H1812 H 0.99911 0.9856 0.38375 0.0
H1813 H 0.95717 0.97074 0.38613 0.0
H1814 H 0.91419 0.99581 0.33872 0.0
H1815 H 0.9282 0.99186 0.35814 0.0
C1816 C 0.21762 0.24373 0.65435 0.0
C1817 C 0.22772 0.24745 0.6634 0.0
C1818 C 0.22056 0.23584 0.64318 0.0
C1819 C 0.2484 0.22434 0.62152 0.0
H1820 H 0.22333 0.19648 0.61178 0.0
C1821 C 0.26001 0.1843 0.58105 0.0
C1822 C 0.24956 0.18073 0.57234 0.0
C1823 C 0.25761 0.19255 0.59212 0.0
C1824 C 0.23038 0.2043 0.61426 0.0
H1825 H 0.24889 0.24581 0.6677 0.0
H1826 H 0.25403 0.232 0.6482 0.0
H1827 H 0.21874 0.21069 0.63103 0.0
H1828 H 0.22843 0.18341 0.56832 0.0
H1829 H 0.22426 0.19771 0.5876 0.0
H1830 H 0.26006 0.21788 0.60473 0.0
C1831 C 0.24384 0.23533 0.64967 0.0
C1832 C 0.22773 0.21247 0.62531 0.0
C1833 C 0.24089 0.24325 0.66086 0.0
C1834 C 0.23667 0.18572 0.57494 0.0
C1835 C 0.23428 0.19394 0.58601 0.0
C1836 C 0.25106 0.21614 0.61046 0.0
C1837 C 0.23369 0.23143 0.64075 0.0
C1838 C 0.23667 0.22264 0.62905 0.0
C1839 C 0.2447 0.19744 0.59477 0.0
C1840 C 0.24204 0.20606 0.60665 0.0
H1841 H 0.20741 0.247 0.65585 0.0
H1842 H 0.21254 0.23328 0.63638 0.0
H1843 H 0.25543 0.23217 0.62401 0.0
H1844 H 0.27002 0.18051 0.57947 0.0
H1845 H 0.26584 0.19491 0.59875 0.0
C1846 C 0.50134 0.54135 0.62118 0.0
C1847 C 0.49547 0.54265 0.60852 0.0
C1848 C 0.4935 0.53843 0.63234 0.0
C1849 C 0.45856 0.54013 0.64451 0.0
H1850 H 0.4713 0.51625 0.67183 0.0
C1851 C 0.42467 0.52269 0.68764 0.0
C1852 C 0.43036 0.52207 0.70044 0.0
C1853 C 0.43266 0.52493 0.67643 0.0
C1854 C 0.46765 0.52305 0.66436 0.0
H1855 H 0.47678 0.54141 0.59763 0.0
H1856 H 0.46314 0.53628 0.61705 0.0
H1857 H 0.48514 0.52048 0.65229 0.0
H1858 H 0.44902 0.52311 0.7114 0.0
H1859 H 0.46292 0.52723 0.69189 0.0
H1860 H 0.44108 0.54272 0.65657 0.0
C1861 C 0.47377 0.53779 0.61842 0.0
C1862 C 0.47559 0.52548 0.65315 0.0
C1863 C 0.4816 0.54072 0.60727 0.0
C1864 C 0.44427 0.52368 0.70172 0.0
C1865 C 0.45227 0.52588 0.69051 0.0
C1866 C 0.45062 0.53769 0.6557 0.0
C1867 C 0.47959 0.53672 0.63113 0.0
C1868 C 0.47115 0.53405 0.64307 0.0
C1869 C 0.44657 0.52658 0.67772 0.0
C1870 C 0.45505 0.52912 0.66578 0.0
H1871 H 0.51196 0.54293 0.62253 0.0
H1872 H 0.49831 0.53784 0.64199 0.0
H1873 H 0.45491 0.54697 0.63708 0.0
H1874 H 0.41399 0.52163 0.68628 0.0
H1875 H 0.42794 0.52525 0.66672 0.0
C1876 C 0.78049 0.26166 0.64879 0.0
C1877 C 0.78203 0.26605 0.66206 0.0
C1878 C 0.7795 0.27079 0.63841 0.0
C1879 C 0.78619 0.30588 0.62949 0.0
H1880 H 0.76035 0.29866 0.60154 0.0
C1881 C 0.7834 0.33687 0.58109 0.0
C1882 C 0.77066 0.33965 0.5759 0.0
C1883 C 0.78492 0.32819 0.59182 0.0
C1884 C 0.76754 0.30091 0.60931 0.0
H1885 H 0.78382 0.28353 0.67477 0.0
H1886 H 0.78206 0.29947 0.65664 0.0
H1887 H 0.76277 0.28312 0.61983 0.0
H1888 H 0.74947 0.33574 0.57823 0.0
H1889 H 0.7521 0.32067 0.59693 0.0
H1890 H 0.79077 0.32382 0.61907 0.0
C1891 C 0.78178 0.28894 0.65425 0.0
C1892 C 0.76906 0.29189 0.61973 0.0
C1893 C 0.78279 0.2798 0.66465 0.0
C1894 C 0.75946 0.33365 0.58182 0.0
C1895 C 0.76097 0.32499 0.59255 0.0
C1896 C 0.78469 0.31491 0.61905 0.0
C1897 C 0.78 0.28455 0.641 0.0
C1898 C 0.77842 0.29424 0.62994 0.0
C1899 C 0.77372 0.32208 0.59764 0.0
C1900 C 0.77533 0.31254 0.60882 0.0
H1901 H 0.78013 0.25114 0.6464 0.0
H1902 H 0.77841 0.26703 0.62831 0.0
H1903 H 0.79358 0.30796 0.63713 0.0
H1904 H 0.79226 0.34117 0.57667 0.0
H1905 H 0.79491 0.32604 0.59535 0.0
C1906 C 0.52877 0.99188 0.61223 0.0
C1907 C 0.52472 0.97872 0.60959 0.0
C1908 C 0.53664 0.99491 0.62339 0.0
C1909 C 0.55974 0.97923 0.64746 0.0
H1910 H 0.55395 0.01147 0.66817 0.0
C1911 C 0.59656 0.99612 0.68858 0.0
C1912 C 0.59111 1.00129 0.70048 0.0
C1913 C 0.58845 0.99376 0.67745 0.0
C1914 C 0.55565 1.00237 0.66255 0.0
H1915 H 0.52538 0.95852 0.61696 0.0
H1916 H 0.53904 0.96379 0.63639 0.0
H1917 H 0.53952 1.00647 0.64915 0.0
H1918 H 0.57283 1.00827 0.70984 0.0
H1919 H 0.55865 1.00388 0.69053 0.0
H1920 H 0.57566 0.97496 0.66098 0.0
C1921 C 0.53639 0.97175 0.62968 0.0
C1922 C 0.54746 0.99958 0.65154 0.0
C1923 C 0.52854 0.96872 0.61853 0.0
C1924 C 0.57735 1.00414 0.7009 0.0
C1925 C 0.56923 1.00177 0.68976 0.0
C1926 C 0.56791 0.98202 0.65844 0.0
C1927 C 0.54065 0.98486 0.6322 0.0
C1928 C 0.54938 0.98795 0.64388 0.0
C1929 C 0.57466 0.99649 0.67791 0.0
C1930 C 0.56598 0.99362 0.66614 0.0
H1931 H 0.52613 0.9998 0.60548 0.0
H1932 H 0.53986 1.0051 0.62494 0.0
H1933 H 0.56163 0.97026 0.64169 0.0
H1934 H 0.60708 0.99367 0.68791 0.0
H1935 H 0.59302 0.98984 0.66844 0.0
C1936 C 0.87007 0.22935 0.77207 0.0
C1937 C 0.86039 0.23947 0.77166 0.0
C1938 C 0.8808 0.23015 0.78099 0.0
C1939 C 0.89204 0.24662 0.81222 0.0
H1940 H 0.92749 0.23782 0.79925 0.0
C1941 C 0.93828 0.24445 0.84697 0.0
C1942 C 0.95016 0.25015 0.84216 0.0
C1943 C 0.92721 0.24277 0.83859 0.0
C1944 C 0.91767 0.24037 0.80301 0.0
H1945 H 0.85422 0.25821 0.78061 0.0
H1946 H 0.87298 0.25966 0.7961 0.0
H1947 H 0.90833 0.23563 0.78436 0.0
H1948 H 0.95975 0.25836 0.82467 0.0
H1949 H 0.94042 0.25555 0.81011 0.0
H1950 H 0.90142 0.25158 0.83081 0.0
C1951 C 0.87225 0.25107 0.78954 0.0
C1952 C 0.90666 0.23898 0.79452 0.0
C1953 C 0.86157 0.2503 0.78057 0.0
C1954 C 0.95071 0.25406 0.82874 0.0
C1955 C 0.93968 0.25232 0.82035 0.0
C1956 C 0.90304 0.24795 0.82074 0.0
C1957 C 0.88206 0.24106 0.78979 0.0
C1958 C 0.89371 0.24216 0.79899 0.0
C1959 C 0.92778 0.24667 0.82516 0.0
C1960 C 0.91601 0.24492 0.81622 0.0
H1961 H 0.86953 0.22093 0.76527 0.0
H1962 H 0.8881 0.2222 0.78102 0.0
H1963 H 0.88219 0.24904 0.81602 0.0
H1964 H 0.93747 0.24144 0.85728 0.0
H1965 H 0.91824 0.23829 0.84259 0.0
C1966 C 0.49109 0.91191 0.49273 0.0
C1967 C 0.47846 0.91317 0.49877 0.0
C1968 C 0.49425 0.90066 0.48502 0.0
C1969 C 0.48418 0.86569 0.47875 0.0
H1970 H 0.50242 0.87034 0.445 0.0
C1971 C 0.48862 0.82314 0.43988 0.0
C1972 C 0.50066 0.82189 0.43274 0.0
C1973 C 0.48631 0.83417 0.44817 0.0
C1974 C 0.49749 0.86883 0.45447 0.0
H1975 H 0.45938 0.9034 0.5017 0.0
H1976 H 0.46482 0.88387 0.48817 0.0
H1977 H 0.49783 0.88966 0.45916 0.0
H1978 H 0.51982 0.83122 0.42894 0.0
H1979 H 0.51581 0.85042 0.44343 0.0
H1980 H 0.48382 0.84488 0.47409 0.0
C1981 C 0.47232 0.89155 0.48943 0.0
C1982 C 0.49485 0.87992 0.46259 0.0
C1983 C 0.46915 0.90282 0.49707 0.0
C1984 C 0.51035 0.83195 0.43413 0.0
C1985 C 0.50805 0.84298 0.44244 0.0
C1986 C 0.48685 0.8546 0.47065 0.0
C1987 C 0.48488 0.89036 0.48324 0.0
C1988 C 0.48809 0.8785 0.4748 0.0
C1989 C 0.49599 0.84424 0.44957 0.0
C1990 C 0.49346 0.85603 0.45836 0.0
H1991 H 0.49846 0.91974 0.49374 0.0
H1992 H 0.50406 0.9 0.4805 0.0
H1993 H 0.47915 0.86421 0.48818 0.0
H1994 H 0.48085 0.81569 0.43888 0.0
H1995 H 0.47681 0.83491 0.4533 0.0
C1996 C 0.15236 0.28996 0.77087 0.0
C1997 C 0.16499 0.2916 0.77681 0.0
C1998 C 0.14116 0.28686 0.77862 0.0
C1999 C 0.13111 0.27328 0.81138 0.0
H2000 H 0.09786 0.29181 0.8046 0.0
C2001 C 0.08654 0.27168 0.84808 0.0
C2002 C 0.07357 0.27092 0.84272 0.0
C2003 C 0.09761 0.27372 0.83981 0.0
C2004 C 0.10701 0.2864 0.80653 0.0
H2005 H 0.17578 0.2909 0.79554 0.0
H2006 H 0.15625 0.28569 0.80906 0.0
H2007 H 0.11725 0.29604 0.79055 0.0
H2008 H 0.06213 0.2718 0.82438 0.0
H2009 H 0.08143 0.27508 0.80994 0.0
H2010 H 0.12089 0.26368 0.82739 0.0
C2011 C 0.155 0.28672 0.79839 0.0
C2012 C 0.11814 0.28884 0.79846 0.0
C2013 C 0.16618 0.28986 0.79066 0.0
C2014 C 0.07197 0.2722 0.82885 0.0
C2015 C 0.08304 0.27424 0.82058 0.0
C2016 C 0.11997 0.27084 0.81944 0.0
C2017 C 0.14233 0.28527 0.79249 0.0
C2018 C 0.13036 0.28236 0.80083 0.0
C2019 C 0.09601 0.27505 0.82595 0.0
C2020 C 0.10779 0.27742 0.81717 0.0
H2021 H 0.15106 0.29133 0.76025 0.0
H2022 H 0.13158 0.28568 0.77372 0.0
H2023 H 0.1403 0.26796 0.81336 0.0
H2024 H 0.08818 0.2706 0.85868 0.0
H2025 H 0.10742 0.27443 0.84432 0.0
C2026 C 0.53144 0.61317 0.49653 0.0
C2027 C 0.54474 0.60924 0.49878 0.0
C2028 C 0.52859 0.62421 0.4886 0.0
C2029 C 0.5434 0.64507 0.46222 0.0
H2030 H 0.51567 0.67021 0.47212 0.0
C2031 C 0.53674 0.69484 0.43483 0.0
C2032 C 0.52366 0.69929 0.43235 0.0
C2033 C 0.53904 0.68386 0.44296 0.0
C2034 C 0.52334 0.6632 0.46912 0.0
H2035 H 0.56546 0.61422 0.49486 0.0
H2036 H 0.56049 0.63338 0.48106 0.0
H2037 H 0.52011 0.65113 0.48633 0.0
H2038 H 0.50273 0.69567 0.43667 0.0
H2039 H 0.50673 0.67634 0.45061 0.0
H2040 H 0.54663 0.65706 0.44501 0.0
C2041 C 0.55225 0.62778 0.48519 0.0
C2042 C 0.52589 0.65226 0.47728 0.0
C2043 C 0.5551 0.61677 0.49311 0.0
C2044 C 0.51293 0.69245 0.43823 0.0
C2045 C 0.51524 0.68145 0.44637 0.0
C2046 C 0.54084 0.65597 0.45406 0.0
C2047 C 0.53896 0.63158 0.48274 0.0
C2048 C 0.53601 0.6431 0.47397 0.0
C2049 C 0.52833 0.67699 0.44883 0.0
C2050 C 0.53083 0.66523 0.45743 0.0
H2051 H 0.52322 0.60752 0.50061 0.0
H2052 H 0.51824 0.62679 0.48682 0.0
H2053 H 0.5511 0.63808 0.45923 0.0
H2054 H 0.54524 0.69976 0.43036 0.0
H2055 H 0.54927 0.68083 0.44475 0.0
C2056 C 0.86054 0.78303 0.74307 0.0
C2057 C 0.86298 0.78238 0.75686 0.0
C2058 C 0.87108 0.782 0.73392 0.0
C2059 C 0.9058 0.76952 0.73096 0.0
H2060 H 0.9067 0.79099 0.69907 0.0
C2061 C 0.94433 0.76002 0.68909 0.0
C2062 C 0.95025 0.77118 0.68314 0.0
C2063 C 0.93347 0.7615 0.69777 0.0
C2064 C 0.90665 0.78498 0.70797 0.0
H2065 H 0.8785 0.78062 0.77182 0.0
H2066 H 0.89683 0.77887 0.75592 0.0
H2067 H 0.88839 0.79374 0.71495 0.0
H2068 H 0.94937 0.79267 0.68174 0.0
H2069 H 0.93047 0.79525 0.69691 0.0
H2070 H 0.92416 0.76094 0.72415 0.0
C2071 C 0.88675 0.77989 0.75214 0.0
C2072 C 0.89607 0.78645 0.71701 0.0
C2073 C 0.87623 0.7809 0.76127 0.0
C2074 C 0.94495 0.78384 0.686 0.0
C2075 C 0.93409 0.78532 0.6947 0.0
C2076 C 0.91635 0.76804 0.72193 0.0
C2077 C 0.88431 0.78031 0.73834 0.0
C2078 C 0.89552 0.77876 0.72864 0.0
C2079 C 0.92826 0.77417 0.70076 0.0
C2080 C 0.91693 0.77575 0.71031 0.0
H2081 H 0.85045 0.78401 0.73932 0.0
H2082 H 0.86881 0.78221 0.72336 0.0
H2083 H 0.90563 0.7633 0.73972 0.0
H2084 H 0.948 0.7501 0.68693 0.0
H2085 H 0.92908 0.75266 0.70205 0.0
C2086 C 0.04089 0.91597 0.54181 0.0
C2087 C 0.04337 0.91444 0.52808 0.0
C2088 C 0.03802 0.90493 0.5497 0.0
C2089 C 0.02697 0.86968 0.54797 0.0
H2090 H 0.0427 0.86806 0.58324 0.0
C2091 C 0.02574 0.82201 0.57998 0.0
C2092 C 0.02324 0.82358 0.59371 0.0
C2093 C 0.02788 0.8331 0.57191 0.0
C2094 C 0.0381 0.86841 0.57348 0.0
H2095 H 0.04474 0.90007 0.51189 0.0
H2096 H 0.03982 0.8808 0.52566 0.0
H2097 H 0.04691 0.88731 0.56929 0.0
H2098 H 0.02114 0.83808 0.60971 0.0
H2099 H 0.02472 0.85741 0.59563 0.0
H2100 H 0.01824 0.85071 0.55217 0.0
C2101 C 0.03989 0.89056 0.5303 0.0
C2102 C 0.0405 0.87947 0.56547 0.0
C2103 C 0.04272 0.90162 0.5224 0.0
C2104 C 0.02292 0.83651 0.59916 0.0
C2105 C 0.02511 0.84759 0.59111 0.0
C2106 C 0.02459 0.85859 0.55598 0.0
C2107 C 0.03759 0.89206 0.54408 0.0
C2108 C 0.03496 0.88027 0.55261 0.0
C2109 C 0.02764 0.84603 0.57739 0.0
C2110 C 0.03012 0.85783 0.56885 0.0
H2111 H 0.04107 0.92573 0.54647 0.0
H2112 H 0.03604 0.90651 0.56021 0.0
H2113 H 0.02237 0.87002 0.53821 0.0
H2114 H 0.02592 0.81221 0.57541 0.0
H2115 H 0.02992 0.83152 0.56141 0.0
C2116 C 0.1623 0.74064 0.74383 0.0
C2117 C 0.16299 0.72822 0.75013 0.0
C2118 C 0.15129 0.74393 0.7359 0.0
C2119 C 0.11598 0.73493 0.72927 0.0
H2120 H 0.1221 0.75215 0.69538 0.0
C2121 C 0.07255 0.75368 0.69627 0.0
C2122 C 0.07355 0.75116 0.68248 0.0
C2123 C 0.08344 0.75138 0.70471 0.0
C2124 C 0.12022 0.74728 0.70478 0.0
H2125 H 0.15246 0.70967 0.75328 0.0
H2126 H 0.13336 0.71533 0.73936 0.0
H2127 H 0.14102 0.7471 0.70982 0.0
H2128 H 0.08689 0.74448 0.66675 0.0
H2129 H 0.10581 0.74033 0.68147 0.0
H2130 H 0.09521 0.73488 0.72413 0.0
C2131 C 0.14129 0.72257 0.74059 0.0
C2132 C 0.13106 0.74452 0.71313 0.0
C2133 C 0.15232 0.71926 0.74846 0.0
C2134 C 0.08573 0.7464 0.67733 0.0
C2135 C 0.09663 0.74416 0.68576 0.0
C2136 C 0.10514 0.73774 0.72095 0.0
C2137 C 0.14067 0.73491 0.73414 0.0
C2138 C 0.12908 0.73824 0.72545 0.0
C2139 C 0.09561 0.74656 0.69956 0.0
C2140 C 0.10713 0.74388 0.70857 0.0
H2141 H 0.17039 0.74774 0.74482 0.0
H2142 H 0.15107 0.75357 0.73119 0.0
H2143 H 0.11409 0.7302 0.73874 0.0
H2144 H 0.06328 0.75722 0.7006 0.0
H2145 H 0.08233 0.75346 0.71527 0.0
C2146 C 0.96763 0.61874 0.52934 0.0
C2147 C 0.97742 0.60909 0.52646 0.0
C2148 C 0.97078 0.63005 0.53693 0.0
C2149 C 0.99517 0.64279 0.56159 0.0
H2150 H 0.9804 0.67712 0.5523 0.0
C2151 C 0.01023 0.69129 0.58936 0.0
C2152 C 1.00004 0.70055 0.59212 0.0
C2153 C 1.00782 0.68027 0.58107 0.0
C2154 C 0.9845 0.66758 0.55513 0.0
H2155 H 0.99823 0.60384 0.5293 0.0
H2156 H 1.00378 0.62368 0.5424 0.0
H2157 H 0.97565 0.65776 0.53828 0.0
H2158 H 0.97923 0.70531 0.58845 0.0
H2159 H 0.97501 0.68611 0.57406 0.0
H2160 H 1.00393 0.65259 0.5785 0.0
C2161 C 0.99362 0.62242 0.53888 0.0
C2162 C 0.98178 0.65648 0.54707 0.0
C2163 C 0.99048 0.61112 0.53125 0.0
C2164 C 0.98737 0.69851 0.58637 0.0
C2165 C 0.98496 0.68748 0.5781 0.0
C2166 C 0.99788 0.6539 0.56966 0.0
C2167 C 0.9838 0.63201 0.54186 0.0
C2168 C 0.98703 0.64392 0.55023 0.0
C2169 C 0.99515 0.67822 0.57534 0.0
C2170 C 0.99252 0.66643 0.56658 0.0
H2171 H 0.95751 0.61758 0.52569 0.0
H2172 H 0.96294 0.63716 0.53914 0.0
H2173 H 0.99922 0.63324 0.56443 0.0
H2174 H 0.02016 0.69266 0.59344 0.0
H2175 H 0.01596 0.67346 0.579 0.0
C2176 C 0.77821 0.86134 0.24223 0.0
C2177 C 0.77383 0.85916 0.22906 0.0
C2178 C 0.78597 0.87249 0.24551 0.0
C2179 C 0.79539 0.90601 0.23349 0.0
H2180 H 0.82566 0.90183 0.2572 0.0
C2181 C 0.82684 0.95092 0.25172 0.0
C2182 C 0.8408 0.94927 0.25212 0.0
C2183 C 0.8184 0.94003 0.24945 0.0
C2184 C 0.81729 0.90316 0.2505 0.0
H2185 H 0.77394 0.86725 0.20909 0.0
H2186 H 0.78762 0.88653 0.21474 0.0
H2187 H 0.81145 0.88274 0.25207 0.0
H2188 H 0.85676 0.93474 0.25069 0.0
H2189 H 0.84208 0.91581 0.24646 0.0
H2190 H 0.80141 0.92634 0.23165 0.0
C2191 C 0.78499 0.87967 0.22257 0.0
C2192 C 0.80904 0.89224 0.24768 0.0
C2193 C 0.77726 0.86852 0.2193 0.0
C2194 C 0.84608 0.93642 0.25029 0.0
C2195 C 0.83764 0.92553 0.24803 0.0
C2196 C 0.80362 0.91693 0.23632 0.0
C2197 C 0.78951 0.88178 0.23571 0.0
C2198 C 0.79803 0.89351 0.23907 0.0
C2199 C 0.82369 0.9272 0.24753 0.0
C2200 C 0.81473 0.91563 0.2448 0.0
H2201 H 0.77585 0.85428 0.24997 0.0
H2202 H 0.78916 0.87386 0.25574 0.0
H2203 H 0.78691 0.90739 0.22693 0.0
H2204 H 0.82241 0.96069 0.25295 0.0
H2205 H 0.80771 0.94168 0.24927 0.0
C2206 C 0.77511 0.15135 0.30482 0.0
C2207 C 0.7739 0.162 0.29591 0.0
C2208 C 0.78297 0.14027 0.30159 0.0
C2209 C 0.81118 0.12977 0.28025 0.0
H2210 H 0.79932 0.09422 0.28914 0.0
C2211 C 0.84653 0.08421 0.27887 0.0
C2212 C 0.8414 0.07217 0.27377 0.0
C2213 C 0.83814 0.09516 0.28101 0.0
C2214 C 0.80274 0.10407 0.28649 0.0
H2215 H 0.78002 0.1693 0.27658 0.0
H2216 H 0.79365 0.14991 0.27088 0.0
H2217 H 0.78474 0.11319 0.29364 0.0
H2218 H 0.82337 0.06222 0.26699 0.0
H2219 H 0.80877 0.08136 0.27059 0.0
H2220 H 0.82915 0.12064 0.27302 0.0
C2221 C 0.78857 0.15018 0.28042 0.0
C2222 C 0.79444 0.11496 0.2892 0.0
C2223 C 0.78065 0.16123 0.28362 0.0
C2224 C 0.82768 0.07137 0.27081 0.0
C2225 C 0.81928 0.0823 0.27301 0.0
C2226 C 0.81951 0.11889 0.2776 0.0
C2227 C 0.78988 0.13958 0.28939 0.0
C2228 C 0.79857 0.12795 0.28616 0.0
C2229 C 0.8244 0.09433 0.27817 0.0
C2230 C 0.81542 0.1059 0.28073 0.0
H2231 H 0.76994 0.15155 0.31431 0.0
H2232 H 0.78384 0.13236 0.30878 0.0
H2233 H 0.81472 0.13965 0.27788 0.0
H2234 H 0.85707 0.08521 0.28113 0.0
H2235 H 0.84239 0.10422 0.2851 0.0
C2236 C 0.40252 1.00064 0.98435 0.0
C2237 C 0.41523 0.99486 0.98278 0.0
C2238 C 0.39138 0.99278 0.98735 0.0
C2239 C 0.37935 0.95798 0.98531 0.0
H2240 H 0.35205 0.97037 1.00989 0.0
C2241 C 0.33635 0.92394 1.0028 0.0
C2242 C 0.32351 0.92956 1.00373 0.0
C2243 C 0.34754 0.93196 1.00056 0.0
C2244 C 0.35951 0.96681 1.00289 0.0
H2245 H 0.42623 0.97631 0.98365 0.0
H2246 H 0.40686 0.96263 0.98891 0.0
H2247 H 0.37154 0.98427 1.00557 0.0
H2248 H 0.31245 0.9481 1.00324 0.0
H2249 H 0.33193 0.96204 0.99908 0.0
H2250 H 0.36733 0.94055 0.9826 0.0
C2251 C 0.40544 0.97321 0.98754 0.0
C2252 C 0.3707 0.97479 1.00042 0.0
C2253 C 0.41656 0.98106 0.98454 0.0
C2254 C 0.32216 0.94341 1.00243 0.0
C2255 C 0.33336 0.95143 1.00021 0.0
C2256 C 0.36818 0.95001 0.98779 0.0
C2257 C 0.39268 0.97894 0.98887 0.0
C2258 C 0.38077 0.97047 0.9916 0.0
C2259 C 0.3462 0.94581 0.9992 0.0
C2260 C 0.35811 0.95431 0.99662 0.0
H2261 H 0.4011 0.01121 0.98291 0.0
H2262 H 0.38169 0.99751 0.98814 0.0
H2263 H 0.38678 0.95443 0.97827 0.0
H2264 H 0.33776 0.9133 1.00363 0.0
H2265 H 0.35729 0.9273 0.99999 0.0
C2266 C 0.24812 0.36769 0.29361 0.0
C2267 C 0.25244 0.36086 0.28209 0.0
C2268 C 0.23881 0.37805 0.29273 0.0
C2269 C 0.21303 0.39232 0.27042 0.0
H2270 H 0.21872 0.4244 0.29143 0.0
C2271 C 0.18388 0.44091 0.2607 0.0
C2272 C 0.17976 0.44854 0.2718 0.0
C2273 C 0.19233 0.42996 0.26229 0.0
C2274 C 0.21687 0.41545 0.28561 0.0
H2275 H 0.25005 0.35939 0.26063 0.0
H2276 H 0.23406 0.37756 0.25907 0.0
H2277 H 0.23406 0.40573 0.29367 0.0
H2278 H 0.18142 0.45059 0.29328 0.0
H2279 H 0.19595 0.43135 0.29607 0.0
H2280 H 0.19589 0.40208 0.2623 0.0
C2281 C 0.23777 0.37486 0.26882 0.0
C2282 C 0.22568 0.40473 0.28691 0.0
C2283 C 0.24708 0.36453 0.26969 0.0
C2284 C 0.18427 0.44487 0.28453 0.0
C2285 C 0.19274 0.43392 0.28611 0.0
C2286 C 0.20423 0.40304 0.26913 0.0
C2287 C 0.23357 0.38181 0.28031 0.0
C2288 C 0.22392 0.39305 0.27927 0.0
C2289 C 0.1969 0.42634 0.27501 0.0
C2290 C 0.20607 0.41478 0.27665 0.0
H2291 H 0.25211 0.3652 0.30331 0.0
H2292 H 0.23569 0.38308 0.3018 0.0
H2293 H 0.21124 0.38341 0.26455 0.0
H2294 H 0.18049 0.44335 0.25077 0.0
H2295 H 0.19543 0.42444 0.2535 0.0
C2296 C 0.10655 0.03919 0.48007 0.0
C2297 C 0.10754 0.02523 0.47996 0.0
C2298 C 0.11772 0.04711 0.48284 0.0
C2299 C 0.15147 0.0465 0.49803 0.0
H2300 H 0.15703 0.07795 0.47665 0.0
C2301 C 0.20047 0.07724 0.50023 0.0
C2302 C 0.19935 0.09118 0.49973 0.0
C2303 C 0.1893 0.06911 0.49806 0.0
C2304 C 0.15556 0.0693 0.48283 0.0
H2305 H 0.12111 1.00869 0.48279 0.0
H2306 H 0.14061 0.02251 0.48763 0.0
H2307 H 0.13755 0.06397 0.4726 0.0
H2308 H 0.18554 0.10745 0.49643 0.0
H2309 H 0.16606 0.09332 0.49292 0.0
H2310 H 0.16951 0.05186 0.50826 0.0
C2311 C 0.13114 0.02733 0.48571 0.0
C2312 C 0.14437 0.06127 0.4805 0.0
C2313 C 0.11995 0.0194 0.48293 0.0
C2314 C 0.18676 0.09677 0.49703 0.0
C2315 C 0.17561 0.08865 0.49485 0.0
C2316 C 0.16267 0.05455 0.50037 0.0
C2317 C 0.13019 0.04129 0.48558 0.0
C2318 C 0.14216 0.04978 0.48809 0.0
C2319 C 0.17673 0.07471 0.4953 0.0
C2320 C 0.16485 0.06607 0.49281 0.0
H2321 H 0.0971 0.04402 0.47808 0.0
H2322 H 0.11655 0.05782 0.48291 0.0
H2323 H 0.15 0.03783 0.50417 0.0
H2324 H 0.20996 0.07259 0.50244 0.0
H2325 H 0.19057 0.05843 0.49836 0.0
C2326 C 0.75137 0.15085 0.73204 0.0
C2327 C 0.75164 0.16065 0.74213 0.0
C2328 C 0.74237 0.14021 0.73269 0.0
C2329 C 0.71075 0.12938 0.74838 0.0
H2330 H 0.72399 0.09388 0.74068 0.0
C2331 C 0.67617 0.08307 0.74622 0.0
C2332 C 0.68089 0.07159 0.75259 0.0
C2333 C 0.68455 0.09406 0.74442 0.0
C2334 C 0.72015 0.10372 0.7429 0.0
H2335 H 0.74236 0.16716 0.76061 0.0
H2336 H 0.72672 0.14857 0.76178 0.0
H2337 H 0.73893 0.11293 0.73853 0.0
H2338 H 0.69821 0.0626 0.76185 0.0
H2339 H 0.71279 0.08177 0.75878 0.0
H2340 H 0.69203 0.12013 0.75296 0.0
C2341 C 0.73345 0.14912 0.75335 0.0
C2342 C 0.72867 0.11466 0.74154 0.0
C2343 C 0.74251 0.1597 0.75275 0.0
C2344 C 0.69421 0.07133 0.75702 0.0
C2345 C 0.70262 0.08227 0.75514 0.0
C2346 C 0.7022 0.11844 0.74966 0.0
C2347 C 0.73335 0.13918 0.74339 0.0
C2348 C 0.72411 0.12761 0.74436 0.0
C2349 C 0.69789 0.09378 0.74885 0.0
C2350 C 0.70683 0.10547 0.74704 0.0
H2351 H 0.75834 0.15123 0.72378 0.0
H2352 H 0.74247 0.1328 0.72478 0.0
H2353 H 0.70689 0.13923 0.75052 0.0
H2354 H 0.66592 0.08363 0.74278 0.0
H2355 H 0.68063 0.10274 0.73945 0.0
C2356 C 0.40253 0.02173 0.54198 0.0
C2357 C 0.41545 0.02724 0.54203 0.0
C2358 C 0.3914 0.02959 0.53899 0.0
C2359 C 0.38037 0.06477 0.53806 0.0
H2360 H 0.35087 0.05051 0.51735 0.0
C2361 C 0.33656 0.09769 0.52032 0.0
C2362 C 0.32361 0.09235 0.52131 0.0
C2363 C 0.3478 0.08971 0.52249 0.0
C2364 C 0.35897 0.0546 0.52325 0.0
H2365 H 0.42681 0.04524 0.53853 0.0
H2366 H 0.40744 0.05889 0.53322 0.0
H2367 H 0.37039 0.03665 0.5216 0.0
H2368 H 0.31236 0.07435 0.52516 0.0
H2369 H 0.33194 0.0605 0.52914 0.0
H2370 H 0.36895 0.08272 0.5397 0.0
C2371 C 0.40586 0.04857 0.53578 0.0
C2372 C 0.37017 0.04665 0.52571 0.0
C2373 C 0.41698 0.04073 0.5388 0.0
C2374 C 0.32218 0.07882 0.52445 0.0
C2375 C 0.33342 0.07084 0.52658 0.0
C2376 C 0.36919 0.07273 0.53558 0.0
C2377 C 0.3929 0.04314 0.53594 0.0
C2378 C 0.38102 0.05163 0.53316 0.0
C2379 C 0.34637 0.07619 0.52568 0.0
C2380 C 0.35834 0.06774 0.52817 0.0
H2381 H 0.40098 0.01142 0.54459 0.0
H2382 H 0.38157 0.0251 0.53939 0.0
H2383 H 0.38842 0.06887 0.54404 0.0
H2384 H 0.33803 0.10809 0.51804 0.0
H2385 H 0.35763 0.09413 0.52158 0.0
C2386 C 0.61937 0.49633 0.55519 0.0
C2387 C 0.60909 0.49755 0.54572 0.0
C2388 C 0.63053 0.48834 0.55257 0.0
C2389 C 0.64209 0.46046 0.53097 0.0
H2390 H 0.67722 0.47172 0.54286 0.0
C2391 C 0.69037 0.4322 0.51615 0.0
C2392 C 0.70003 0.43039 0.52616 0.0
C2393 C 0.67935 0.44051 0.51833 0.0
C2394 C 0.66746 0.46837 0.53958 0.0
H2395 H 0.60265 0.4915 0.52594 0.0
H2396 H 0.62216 0.47765 0.5213 0.0
H2397 H 0.65797 0.48606 0.5469 0.0
H2398 H 0.7055 0.43584 0.54642 0.0
H2399 H 0.68636 0.45039 0.55018 0.0
H2400 H 0.65162 0.44278 0.52361 0.0
C2401 C 0.62148 0.48268 0.53088 0.0
C2402 C 0.65641 0.47659 0.54191 0.0
C2403 C 0.6103 0.49063 0.53352 0.0
C2404 C 0.6984 0.43715 0.5384 0.0
C2405 C 0.6874 0.4455 0.54057 0.0
C2406 C 0.65316 0.45226 0.5286 0.0
C2407 C 0.63173 0.48138 0.54039 0.0
C2408 C 0.64356 0.47273 0.53768 0.0
C2409 C 0.67773 0.44727 0.53057 0.0
C2410 C 0.66598 0.45609 0.53292 0.0
H2411 H 0.61866 0.50134 0.56477 0.0
H2412 H 0.63809 0.48741 0.56022 0.0
H2413 H 0.63234 0.45704 0.52776 0.0
H2414 H 0.6914 0.42734 0.50652 0.0
H2415 H 0.6722 0.4418 0.51035 0.0
C2416 C 0.73405 0.26957 0.37198 0.0
C2417 C 0.72975 0.27546 0.36006 0.0
C2418 C 0.73705 0.27742 0.3832 0.0
C2419 C 0.72996 0.31042 0.39807 0.0
H2420 H 0.76018 0.30261 0.42088 0.0
C2421 C 0.73716 0.33618 0.44927 0.0
C2422 C 0.75013 0.34046 0.45261 0.0
C2423 C 0.73495 0.3281 0.43805 0.0
C2424 C 0.75175 0.30497 0.41457 0.0
H2425 H 0.7258 0.29431 0.35048 0.0
H2426 H 0.73097 0.30795 0.37001 0.0
H2427 H 0.75614 0.28896 0.40099 0.0
H2428 H 0.77096 0.33955 0.44664 0.0
H2429 H 0.7671 0.32537 0.42714 0.0
H2430 H 0.72562 0.32649 0.41154 0.0
C2431 C 0.73178 0.29724 0.37077 0.0
C2432 C 0.74936 0.29706 0.40324 0.0
C2433 C 0.7288 0.28941 0.35957 0.0
C2434 C 0.76086 0.33631 0.44449 0.0
C2435 C 0.75865 0.32818 0.43329 0.0
C2436 C 0.73231 0.31827 0.40942 0.0
C2437 C 0.73582 0.29135 0.38277 0.0
C2438 C 0.73844 0.29971 0.39484 0.0
C2439 C 0.74566 0.32404 0.42989 0.0
C2440 C 0.74323 0.31565 0.41781 0.0
H2441 H 0.73474 0.25886 0.37278 0.0
H2442 H 0.74 0.27255 0.39232 0.0
H2443 H 0.72138 0.31265 0.39191 0.0
H2444 H 0.72868 0.33893 0.45541 0.0
H2445 H 0.72485 0.32491 0.43585 0.0
C2446 C 0.53937 0.04067 0.91678 0.0
C2447 C 0.5254 0.04179 0.91573 0.0
C2448 C 0.54717 0.03773 0.90556 0.0
C2449 C 0.54558 0.02405 0.8711 0.0
H2450 H 0.57906 0.043 0.86702 0.0
C2451 C 0.57699 0.02177 0.82248 0.0
C2452 C 0.59094 0.0208 0.82389 0.0
C2453 C 0.56883 0.0241 0.83361 0.0
C2454 C 0.56982 0.03751 0.86806 0.0
H2455 H 0.50869 0.04058 0.90202 0.0
H2456 H 0.5223 0.03549 0.88242 0.0
H2457 H 0.56515 0.04732 0.8865 0.0
H2458 H 0.60724 0.02165 0.83812 0.0
H2459 H 0.59303 0.02553 0.85751 0.0
H2460 H 0.55026 0.01429 0.85259 0.0
C2461 C 0.52722 0.03673 0.89197 0.0
C2462 C 0.56183 0.03997 0.87926 0.0
C2463 C 0.5194 0.03965 0.90321 0.0
C2464 C 0.59653 0.02221 0.83669 0.0
C2465 C 0.58838 0.02458 0.84779 0.0
C2466 C 0.55357 0.02159 0.85988 0.0
C2467 C 0.54122 0.03586 0.89298 0.0
C2468 C 0.54963 0.03324 0.88096 0.0
C2469 C 0.57443 0.02559 0.8464 0.0
C2470 C 0.56582 0.02826 0.85825 0.0
H2471 H 0.5443 0.042 0.92631 0.0
H2472 H 0.55788 0.03686 0.90678 0.0
H2473 H 0.53633 0.01856 0.87216 0.0
H2474 H 0.57234 0.02061 0.81279 0.0
H2475 H 0.55814 0.02493 0.83216 0.0
C2476 C 0.28094 0.25998 0.37697 0.0
C2477 C 0.2816 0.25564 0.36361 0.0
C2478 C 0.27991 0.25084 0.38733 0.0
C2479 C 0.285 0.2153 0.39563 0.0
H2480 H 0.26117 0.22372 0.42502 0.0
C2481 C 0.28285 0.18382 0.44373 0.0
C2482 C 0.27025 0.18175 0.44958 0.0
C2483 C 0.28434 0.19258 0.43306 0.0
C2484 C 0.26779 0.22114 0.41684 0.0
H2485 H 0.28178 0.2382 0.35073 0.0
H2486 H 0.27993 0.22223 0.36882 0.0
H2487 H 0.26355 0.23931 0.40676 0.0
H2488 H 0.24927 0.18702 0.44851 0.0
H2489 H 0.25184 0.20223 0.42991 0.0
H2490 H 0.28901 0.19699 0.40562 0.0
C2491 C 0.28038 0.23272 0.37129 0.0
C2492 C 0.26929 0.23018 0.40644 0.0
C2493 C 0.28144 0.24189 0.36091 0.0
C2494 C 0.25916 0.18855 0.4444 0.0
C2495 C 0.26064 0.19729 0.43373 0.0
C2496 C 0.2835 0.20625 0.40606 0.0
C2497 C 0.27949 0.23709 0.38464 0.0
C2498 C 0.27793 0.2274 0.3957 0.0
C2499 C 0.27326 0.19948 0.42796 0.0
C2500 C 0.27486 0.20906 0.4168 0.0
H2501 H 0.28129 0.27049 0.37944 0.0
H2502 H 0.27952 0.25456 0.3975 0.0
H2503 H 0.29183 0.21288 0.38759 0.0
H2504 H 0.29164 0.17889 0.44758 0.0
H2505 H 0.29424 0.19416 0.429 0.0
C2506 C 0.48189 0.47951 0.91742 0.0
C2507 C 0.49583 0.47809 0.91624 0.0
C2508 C 0.47406 0.48245 0.90628 0.0
C2509 C 0.47575 0.49573 0.87191 0.0
H2510 H 0.44179 0.47757 0.86781 0.0
C2511 C 0.44463 0.49801 0.82325 0.0
C2512 C 0.43067 0.49921 0.82453 0.0
C2513 C 0.45264 0.49569 0.83443 0.0
C2514 C 0.45117 0.48285 0.86887 0.0
H2515 H 0.51243 0.47871 0.90236 0.0
H2516 H 0.49876 0.48381 0.88292 0.0
H2517 H 0.45562 0.47319 0.88726 0.0
H2518 H 0.41424 0.49879 0.83862 0.0
H2519 H 0.42821 0.49497 0.85812 0.0
H2520 H 0.47129 0.50534 0.85347 0.0
C2521 C 0.49391 0.48282 0.89251 0.0
C2522 C 0.45911 0.48034 0.88004 0.0
C2523 C 0.50175 0.47989 0.90366 0.0
C2524 C 0.42495 0.49806 0.83728 0.0
C2525 C 0.43296 0.49571 0.84845 0.0
C2526 C 0.46781 0.49823 0.86072 0.0
C2527 C 0.47994 0.48404 0.89366 0.0
C2528 C 0.4715 0.48676 0.88173 0.0
C2529 C 0.4469 0.49447 0.84717 0.0
C2530 C 0.4554 0.49183 0.85907 0.0
H2531 H 0.47703 0.47842 0.92699 0.0
H2532 H 0.46338 0.48358 0.90761 0.0
H2533 H 0.48514 0.50099 0.87297 0.0
H2534 H 0.4494 0.49898 0.81362 0.0
H2535 H 0.46333 0.49467 0.83306 0.0
C2536 C 0.74119 0.7452 0.15929 0.0
C2537 C 0.72798 0.7464 0.16397 0.0
C2538 C 0.7441 0.73734 0.14804 0.0
C2539 C 0.73043 0.70954 0.12776 0.0
H2540 H 0.75582 0.72128 0.10114 0.0
C2541 C 0.73639 0.68217 0.07733 0.0
C2542 C 0.74937 0.68054 0.07218 0.0
C2543 C 0.73409 0.6903 0.08847 0.0
C2544 C 0.74882 0.71778 0.10856 0.0
H2545 H 0.70743 0.74063 0.16013 0.0
H2546 H 0.71251 0.72697 0.14062 0.0
H2547 H 0.75131 0.73531 0.12064 0.0
H2548 H 0.77012 0.68621 0.07483 0.0
H2549 H 0.7661 0.70039 0.09431 0.0
H2550 H 0.72793 0.69203 0.11575 0.0
C2551 C 0.72066 0.73187 0.14579 0.0
C2552 C 0.74623 0.72583 0.11974 0.0
C2553 C 0.71775 0.73971 0.15699 0.0
C2554 C 0.75998 0.68736 0.07843 0.0
C2555 C 0.75767 0.6955 0.0896 0.0
C2556 C 0.73302 0.7015 0.11661 0.0
C2557 C 0.73388 0.7305 0.14121 0.0
C2558 C 0.73693 0.72185 0.12944 0.0
C2559 C 0.74469 0.69703 0.0948 0.0
C2560 C 0.74219 0.70554 0.10682 0.0
H2561 H 0.74933 0.75009 0.16449 0.0
H2562 H 0.75441 0.7364 0.14487 0.0
H2563 H 0.7234 0.70604 0.13516 0.0
H2564 H 0.72795 0.67728 0.07262 0.0
H2565 H 0.72393 0.69145 0.09203 0.0
C2566 C 0.98835 0.05412 0.1166 0.0
C2567 C 0.99632 0.04431 0.11043 0.0
C2568 C 0.9805 0.0511 0.12771 0.0
C2569 C 0.97672 0.02702 0.15506 0.0
H2570 H 0.94077 0.04133 0.15707 0.0
C2571 C 0.94449 0.02468 0.203 0.0
C2572 C 0.93082 0.02176 0.20151 0.0
C2573 C 0.95255 0.02699 0.19185 0.0
C2574 C 0.95074 0.03716 0.15663 0.0
H2575 H 1.00225 0.02359 0.11122 0.0
H2576 H 0.98861 0.01834 0.13067 0.0
H2577 H 0.95466 0.04604 0.13771 0.0
H2578 H 0.91492 0.01905 0.18705 0.0
H2579 H 0.92899 0.02293 0.1676 0.0
H2580 H 0.97273 0.01804 0.17394 0.0
C2581 C 0.98854 0.02842 0.12695 0.0
C2582 C 0.95877 0.03999 0.14559 0.0
C2583 C 0.99637 0.03143 0.1158 0.0
C2584 C 0.92543 0.02116 0.18857 0.0
C2585 C 0.93347 0.02352 0.17742 0.0
C2586 C 0.9687 0.02424 0.16614 0.0
C2587 C 0.98043 0.0382 0.13298 0.0
C2588 C 0.97187 0.03499 0.14468 0.0
C2589 C 0.94712 0.0265 0.17892 0.0
C2590 C 0.95562 0.02929 0.16707 0.0
H2591 H 0.98826 0.06422 0.11294 0.0
H2592 H 0.97458 0.05894 0.13225 0.0
H2593 H 0.98679 0.02309 0.15472 0.0
H2594 H 0.94901 0.02509 0.21281 0.0
H2595 H 0.96299 0.02938 0.19338 0.0
C2596 C 0.28286 0.78015 0.1643 0.0
C2597 C 0.28131 0.76643 0.16188 0.0
C2598 C 0.28187 0.78925 0.15386 0.0
C2599 C 0.26785 0.79255 0.11988 0.0
H2600 H 0.29152 0.82298 0.11756 0.0
C2601 C 0.26921 0.82579 0.07334 0.0
C2602 C 0.27034 0.83962 0.07529 0.0
C2603 C 0.27076 0.81707 0.084 0.0
C2604 C 0.28473 0.81462 0.11814 0.0
H2605 H 0.27803 0.75153 0.14645 0.0
H2606 H 0.27632 0.76734 0.1283 0.0
H2607 H 0.29397 0.80743 0.13595 0.0
H2608 H 0.27394 0.85507 0.09009 0.0
H2609 H 0.27661 0.83985 0.10871 0.0
H2610 H 0.25859 0.79971 0.10212 0.0
C2611 C 0.27802 0.77112 0.13831 0.0
C2612 C 0.28614 0.80569 0.12869 0.0
C2613 C 0.279 0.76204 0.14873 0.0
C2614 C 0.27316 0.84448 0.08819 0.0
C2615 C 0.2747 0.83575 0.09887 0.0
C2616 C 0.26644 0.80146 0.10935 0.0
C2617 C 0.2793 0.78485 0.14074 0.0
C2618 C 0.27775 0.79451 0.12965 0.0
C2619 C 0.27347 0.82192 0.09692 0.0
C2620 C 0.27489 0.81258 0.1083 0.0
H2621 H 0.2845 0.78389 0.17433 0.0
H2622 H 0.28278 0.79977 0.15612 0.0
H2623 H 0.26104 0.7842 0.12044 0.0
H2624 H 0.2673 0.82167 0.06351 0.0
H2625 H 0.26999 0.80648 0.08207 0.0
C2626 C 0.02584 0.49054 0.11405 0.0
C2627 C 0.0254 0.47757 0.10868 0.0
C2628 C 0.03369 0.49344 0.12527 0.0
C2629 C 0.06271 0.48094 0.14427 0.0
H2630 H 0.0494 0.50414 0.17238 0.0
C2631 C 0.09633 0.49921 0.18761 0.0
C2632 C 0.09074 0.49924 0.20048 0.0
C2633 C 0.08834 0.49692 0.17638 0.0
C2634 C 0.05324 0.49758 0.16465 0.0
H2635 H 0.0326 0.4574 0.11123 0.0
H2636 H 0.0463 0.46247 0.13068 0.0
H2637 H 0.03537 0.49929 0.15301 0.0
H2638 H 0.07225 0.49713 0.21156 0.0
H2639 H 0.05834 0.49295 0.19198 0.0
H2640 H 0.08047 0.47905 0.15598 0.0
C2641 C 0.04076 0.47046 0.12608 0.0
C2642 C 0.04525 0.49492 0.15348 0.0
C2643 C 0.0329 0.46756 0.1149 0.0
C2644 C 0.07692 0.49703 0.20181 0.0
C2645 C 0.06891 0.49478 0.19057 0.0
C2646 C 0.07071 0.48365 0.1554 0.0
C2647 C 0.04131 0.48345 0.13138 0.0
C2648 C 0.04987 0.48651 0.14317 0.0
C2649 C 0.07453 0.49465 0.17771 0.0
C2650 C 0.06606 0.49196 0.16576 0.0
H2651 H 0.02033 0.49854 0.10943 0.0
H2652 H 0.034 0.50358 0.129 0.0
H2653 H 0.06664 0.47455 0.13645 0.0
H2654 H 0.10695 0.50075 0.18621 0.0
H2655 H 0.09297 0.49701 0.16662 0.0
C2656 C 0.35967 0.7426 0.2832 0.0
C2657 C 0.36192 0.73884 0.26985 0.0
C2658 C 0.37033 0.74362 0.29219 0.0
C2659 C 0.40572 0.73335 0.29705 0.0
H2660 H 0.40599 0.7622 0.32298 0.0
C2661 C 0.45251 0.74684 0.32826 0.0
C2662 C 0.45057 0.74995 0.34183 0.0
C2663 C 0.44159 0.7452 0.3197 0.0
C2664 C 0.406 0.75401 0.3159 0.0
H2665 H 0.37717 0.73338 0.25545 0.0
H2666 H 0.39575 0.73532 0.27104 0.0
H2667 H 0.3872 0.75987 0.30768 0.0
H2668 H 0.43558 0.7539 0.35698 0.0
H2669 H 0.41652 0.75096 0.34204 0.0
H2670 H 0.42464 0.72762 0.30518 0.0
C2671 C 0.38573 0.7372 0.27468 0.0
C2672 C 0.39521 0.75264 0.30712 0.0
C2673 C 0.37507 0.7361 0.26571 0.0
C2674 C 0.43743 0.75139 0.34661 0.0
C2675 C 0.42651 0.74984 0.33802 0.0
C2676 C 0.41655 0.73476 0.30578 0.0
C2677 C 0.38352 0.74099 0.28804 0.0
C2678 C 0.39493 0.74231 0.29755 0.0
C2679 C 0.42845 0.74672 0.32446 0.0
C2680 C 0.41684 0.74512 0.31529 0.0
H2681 H 0.34964 0.7446 0.28675 0.0
H2682 H 0.3682 0.74635 0.30245 0.0
H2683 H 0.40577 0.72513 0.28999 0.0
H2684 H 0.46249 0.74553 0.32428 0.0
H2685 H 0.44345 0.74292 0.30928 0.0
C2686 C 0.96653 0.40541 0.99229 0.0
C2687 C 0.97683 0.41331 0.99769 0.0
C2688 C 0.96947 0.39418 0.98451 0.0
C2689 C 0.99619 0.36989 0.97668 0.0
H2690 H 0.9752 0.36348 0.94477 0.0
C2691 C 1.00974 0.32873 0.9381 0.0
C2692 C 0.99915 0.32146 0.93237 0.0
C2693 C 1.00723 0.33992 0.94613 0.0
C2694 C 0.98107 0.36501 0.95373 0.0
H2695 H 0.99835 0.41548 0.99913 0.0
H2696 H 1.00348 0.39583 0.98559 0.0
H2697 H 0.97047 0.38286 0.95873 0.0
H2698 H 0.97756 0.32042 0.93056 0.0
H2699 H 0.97319 0.33968 0.94479 0.0
H2700 H 1.00676 0.35199 0.9717 0.0
C2701 C 0.99311 0.39828 0.98749 0.0
C2702 C 0.97835 0.37615 0.96174 0.0
C2703 C 0.99017 0.40955 0.99527 0.0
C2704 C 0.98597 0.32567 0.93491 0.0
C2705 C 0.98346 0.33683 0.94295 0.0
C2706 C 0.99889 0.35872 0.96868 0.0
C2707 C 0.98279 0.39051 0.98193 0.0
C2708 C 0.98584 0.37871 0.97335 0.0
C2709 C 0.99405 0.34413 0.94864 0.0
C2710 C 0.99133 0.35611 0.95712 0.0
H2711 H 0.95615 0.40784 0.99416 0.0
H2712 H 0.96127 0.38828 0.9806 0.0
H2713 H 1.00206 0.37147 0.98564 0.0
H2714 H 0.02001 0.32571 0.93649 0.0
H2715 H 0.01564 0.34536 0.95024 0.0
C2716 C 0.65177 0.8013 0.27567 0.0
C2717 C 0.66303 0.79295 0.27505 0.0
C2718 C 0.64076 0.79798 0.28356 0.0
C2719 C 0.63119 0.77801 0.31272 0.0
H2720 H 0.59511 0.78406 0.30003 0.0
C2721 C 0.58507 0.77653 0.34754 0.0
C2722 C 0.57339 0.77044 0.34262 0.0
C2723 C 0.59603 0.77868 0.33916 0.0
C2724 C 0.60512 0.78221 0.30369 0.0
H2725 H 0.6715 0.77452 0.28226 0.0
H2726 H 0.65222 0.76867 0.29596 0.0
H2727 H 0.61406 0.78864 0.28545 0.0
H2728 H 0.5641 0.76188 0.32498 0.0
H2729 H 0.58328 0.76551 0.31042 0.0
H2730 H 0.62224 0.77152 0.33094 0.0
C2731 C 0.65196 0.77784 0.29039 0.0
C2732 C 0.61598 0.78497 0.29538 0.0
C2733 C 0.66295 0.78113 0.28243 0.0
C2734 C 0.57298 0.76649 0.32913 0.0
C2735 C 0.58392 0.7687 0.32074 0.0
C2736 C 0.62032 0.77532 0.32106 0.0
C2737 C 0.64074 0.78625 0.29109 0.0
C2738 C 0.62916 0.78295 0.2998 0.0
C2739 C 0.59558 0.77485 0.32565 0.0
C2740 C 0.60715 0.77743 0.31667 0.0
H2741 H 0.65144 0.81041 0.27001 0.0
H2742 H 0.63234 0.80475 0.28396 0.0
H2743 H 0.6412 0.77646 0.31649 0.0
H2744 H 0.58578 0.77957 0.3579 0.0
H2745 H 0.6048 0.78355 0.34324 0.0
C2746 C 0.05112 0.12008 0.99956 0.0
C2747 C 0.04302 0.10867 0.99883 0.0
C2748 C 0.04838 0.13114 0.99164 0.0
C2749 C 0.03012 0.14108 0.96105 0.0
H2750 H 0.03573 0.17673 0.97504 0.0
C2751 C 0.01377 0.18814 0.93251 0.0
C2752 C 0.02282 0.19886 0.9323 0.0
C2753 C 0.016 0.17721 0.94075 0.0
C2754 C 0.03422 0.16684 0.97094 0.0
H2755 H 0.0255 0.10007 0.98942 0.0
H2756 H 0.02059 0.1194 0.97576 0.0
H2757 H 0.03986 0.15763 0.98925 0.0
H2758 H 0.04144 0.2063 0.94058 0.0
H2759 H 0.04523 0.18733 0.95504 0.0
H2760 H 0.02439 0.15033 0.94277 0.0
C2761 C 0.02925 0.11972 0.98223 0.0
C2762 C 0.03661 0.15587 0.97909 0.0
C2763 C 0.03204 0.10863 0.99009 0.0
C2764 C 0.03413 0.19836 0.94062 0.0
C2765 C 0.03632 0.18746 0.94891 0.0
C2766 C 0.02767 0.15205 0.95294 0.0
C2767 C 0.03743 0.13111 0.98284 0.0
C2768 C 0.03464 0.14283 0.97424 0.0
C2769 C 0.02731 0.17674 0.94905 0.0
C2770 C 0.02973 0.16507 0.95776 0.0
H2771 H 0.05977 0.12036 1.00604 0.0
H2772 H 0.05504 0.13961 0.99224 0.0
H2773 H 0.02871 0.13121 0.95688 0.0
H2774 H 1.00483 0.18826 0.92643 0.0
H2775 H 1.00876 0.1692 0.94075 0.0
C2776 C 0.36333 0.27001 0.24756 0.0
C2777 C 0.36059 0.28188 0.25458 0.0
C2778 C 0.3739 0.26932 0.23844 0.0
C2779 C 0.40584 0.28562 0.22993 0.0
H2780 H 0.40231 0.26555 0.19691 0.0
C2781 C 0.45142 0.27176 0.19721 0.0
C2782 C 0.44997 0.2724 0.18328 0.0
C2783 C 0.44036 0.27337 0.20561 0.0
C2784 C 0.40344 0.2713 0.20603 0.0
H2785 H 0.36683 0.30237 0.25741 0.0
H2786 H 0.38513 0.30123 0.24134 0.0
H2787 H 0.38314 0.2678 0.21178 0.0
H2788 H 0.43567 0.27518 0.1673 0.0
H2789 H 0.41643 0.27821 0.18197 0.0
H2790 H 0.4261 0.28924 0.22412 0.0
C2791 C 0.37918 0.2924 0.243 0.0
C2792 C 0.39248 0.27246 0.21464 0.0
C2793 C 0.36859 0.2931 0.2521 0.0
C2794 C 0.43718 0.27474 0.17798 0.0
C2795 C 0.42611 0.27634 0.18639 0.0
C2796 C 0.41681 0.28443 0.22134 0.0
C2797 C 0.38202 0.28048 0.23611 0.0
C2798 C 0.39356 0.27958 0.22673 0.0
C2799 C 0.42756 0.27565 0.20032 0.0
C2800 C 0.41578 0.2772 0.20931 0.0
H2801 H 0.35729 0.26122 0.2491 0.0
H2802 H 0.37586 0.25994 0.23341 0.0
H2803 H 0.40708 0.29107 0.23922 0.0
H2804 H 0.46113 0.27012 0.20166 0.0
H2805 H 0.44184 0.27263 0.21628 0.0
C2806 C 0.55492 0.40334 0.02937 0.0
C2807 C 0.54481 0.4122 0.02548 0.0
C2808 C 0.55193 0.39223 0.03711 0.0
C2809 C 0.52644 0.37907 0.06027 0.0
H2810 H 0.54467 0.34559 0.05382 0.0
C2811 C 0.51287 0.33082 0.08846 0.0
C2812 C 0.52354 0.32278 0.09269 0.0
C2813 C 0.51511 0.34159 0.08 0.0
C2814 C 0.53958 0.3549 0.05584 0.0
H2815 H 0.52354 0.41622 0.02666 0.0
H2816 H 0.51827 0.3967 0.03997 0.0
H2817 H 0.54908 0.36445 0.03937 0.0
H2818 H 0.54501 0.32001 0.09146 0.0
H2819 H 0.54889 0.33871 0.07669 0.0
H2820 H 0.51697 0.3695 0.07677 0.0
C2821 C 0.52857 0.39844 0.03715 0.0
C2822 C 0.54211 0.36573 0.04755 0.0
C2823 C 0.53157 0.40956 0.02939 0.0
C2824 C 0.53651 0.32582 0.08824 0.0
C2825 C 0.53875 0.33656 0.07976 0.0
C2826 C 0.5239 0.36823 0.06856 0.0
C2827 C 0.53873 0.38966 0.04117 0.0
C2828 C 0.53565 0.37799 0.04971 0.0
C2829 C 0.52808 0.34458 0.07552 0.0
C2830 C 0.53051 0.35603 0.0665 0.0
H2831 H 0.5652 0.40496 0.02641 0.0
H2832 H 0.56003 0.38579 0.04012 0.0
H2833 H 0.52143 0.3884 0.06236 0.0
H2834 H 0.50272 0.32867 0.0915 0.0
H2835 H 0.50664 0.34744 0.07679 0.0
C2836 C 0.66211 0.2407 0.24417 0.0
C2837 C 0.66281 0.22821 0.25033 0.0
C2838 C 0.6511 0.24407 0.23628 0.0
C2839 C 0.61579 0.23513 0.22958 0.0
H2840 H 0.62189 0.2526 0.19582 0.0
C2841 C 0.57235 0.25402 0.19669 0.0
C2842 C 0.57335 0.25155 0.1829 0.0
C2843 C 0.58324 0.25171 0.20512 0.0
C2844 C 0.62002 0.24767 0.20519 0.0
H2845 H 0.65227 0.20962 0.2533 0.0
H2846 H 0.63317 0.21543 0.23945 0.0
H2847 H 0.64082 0.24747 0.21022 0.0
H2848 H 0.5867 0.24496 0.16714 0.0
H2849 H 0.60563 0.2408 0.18184 0.0
H2850 H 0.59502 0.2351 0.22444 0.0
C2851 C 0.6411 0.22265 0.24075 0.0
C2852 C 0.63086 0.24486 0.21352 0.0
C2853 C 0.65213 0.21926 0.24858 0.0
C2854 C 0.58555 0.24684 0.17772 0.0
C2855 C 0.59645 0.24459 0.18614 0.0
C2856 C 0.60495 0.23799 0.22128 0.0
C2857 C 0.64048 0.23506 0.23443 0.0
C2858 C 0.62889 0.23847 0.22578 0.0
C2859 C 0.59542 0.24694 0.19995 0.0
C2860 C 0.60693 0.24423 0.20894 0.0
H2861 H 0.6702 0.24778 0.24523 0.0
H2862 H 0.65088 0.25376 0.23167 0.0
H2863 H 0.6139 0.23032 0.23901 0.0
H2864 H 0.56307 0.25753 0.20103 0.0
H2865 H 0.58213 0.25374 0.21568 0.0
C2866 C 0.49084 0.11014 0.03354 0.0
C2867 C 0.47854 0.10897 0.02685 0.0
C2868 C 0.4937 0.12139 0.04136 0.0
C2869 C 0.48311 0.1564 0.04735 0.0
H2870 H 0.5018 0.15207 0.08089 0.0
C2871 C 0.48737 0.19876 0.08658 0.0
C2872 C 0.49976 0.20046 0.093 0.0
C2873 C 0.48503 0.1877 0.07833 0.0
C2874 C 0.49669 0.15347 0.07148 0.0
H2875 H 0.45955 0.11868 0.02328 0.0
H2876 H 0.46447 0.13821 0.03698 0.0
H2877 H 0.49727 0.13266 0.06685 0.0
H2878 H 0.51948 0.19186 0.09554 0.0
H2879 H 0.51533 0.17253 0.08128 0.0
H2880 H 0.4824 0.17721 0.05209 0.0
C2881 C 0.47204 0.13057 0.03599 0.0
C2882 C 0.49411 0.14234 0.06341 0.0
C2883 C 0.4692 0.11935 0.02813 0.0
C2884 C 0.50974 0.19079 0.09096 0.0
C2885 C 0.50737 0.1797 0.08275 0.0
C2886 C 0.48564 0.16753 0.05545 0.0
C2887 C 0.48432 0.13174 0.04273 0.0
C2888 C 0.48726 0.14364 0.05124 0.0
C2889 C 0.49499 0.17802 0.07633 0.0
C2890 C 0.49244 0.1662 0.06763 0.0
H2891 H 0.49833 0.10241 0.03262 0.0
H2892 H 0.50335 0.12203 0.04621 0.0
H2893 H 0.47801 0.15784 0.03795 0.0
H2894 H 0.47937 0.20586 0.08808 0.0
H2895 H 0.47531 0.18661 0.07369 0.0
C2896 C 0.27623 0.36941 0.71977 0.0
C2897 C 0.27399 0.35933 0.72914 0.0
C2898 C 0.28399 0.38054 0.72305 0.0
C2899 C 0.3102 0.39201 0.74642 0.0
H2900 H 0.30019 0.42697 0.73387 0.0
C2901 C 0.34635 0.43693 0.74841 0.0
C2902 C 0.34103 0.44944 0.75185 0.0
C2903 C 0.33795 0.42599 0.74622 0.0
C2904 C 0.30308 0.4173 0.73756 0.0
H2905 H 0.27815 0.35313 0.74936 0.0
H2906 H 0.29156 0.37264 0.75516 0.0
H2907 H 0.28569 0.40799 0.72925 0.0
H2908 H 0.32261 0.46023 0.75562 0.0
H2909 H 0.308 0.44112 0.752 0.0
H2910 H 0.32753 0.40135 0.75485 0.0
C2911 C 0.2874 0.37187 0.74521 0.0
C2912 C 0.29484 0.40638 0.73478 0.0
C2913 C 0.27959 0.36075 0.74194 0.0
C2914 C 0.32708 0.45072 0.75312 0.0
C2915 C 0.31868 0.43979 0.75089 0.0
C2916 C 0.31847 0.40292 0.74918 0.0
C2917 C 0.28974 0.38188 0.73579 0.0
C2918 C 0.29832 0.39358 0.73912 0.0
C2919 C 0.324 0.42729 0.74737 0.0
C2920 C 0.31505 0.41571 0.74473 0.0
H2921 H 0.27194 0.36873 0.70988 0.0
H2922 H 0.28568 0.38799 0.71551 0.0
H2923 H 0.31326 0.38228 0.74982 0.0
H2924 H 0.35705 0.43554 0.74749 0.0
H2925 H 0.3424 0.41656 0.74339 0.0
C2926 C 0.27801 0.65974 0.78338 0.0
C2927 C 0.27497 0.66313 0.79668 0.0
C2928 C 0.28595 0.64862 0.78041 0.0
C2929 C 0.31102 0.62633 0.79567 0.0
H2930 H 0.30288 0.60303 0.76574 0.0
C2931 C 0.33817 0.57626 0.78777 0.0
C2932 C 0.34179 0.57262 0.77469 0.0
C2933 C 0.32993 0.58727 0.79018 0.0
C2934 C 0.30538 0.60953 0.77405 0.0
H2935 H 0.27752 0.65715 0.81724 0.0
H2936 H 0.29131 0.63783 0.81208 0.0
H2937 H 0.28859 0.62221 0.7704 0.0
H2938 H 0.33961 0.57782 0.75387 0.0
H2939 H 0.32523 0.59703 0.75806 0.0
H2940 H 0.32779 0.6137 0.79935 0.0
C2941 C 0.2878 0.64391 0.80394 0.0
C2942 C 0.29718 0.62052 0.77672 0.0
C2943 C 0.27988 0.655 0.8069 0.0
C2944 C 0.33688 0.58023 0.76406 0.0
C2945 C 0.32864 0.59125 0.76646 0.0
C2946 C 0.3192 0.61536 0.79301 0.0
C2947 C 0.29105 0.64063 0.79067 0.0
C2948 C 0.29986 0.62903 0.78762 0.0
C2949 C 0.3251 0.59494 0.77956 0.0
C2950 C 0.31646 0.60676 0.7822 0.0
H2951 H 0.27452 0.66585 0.77526 0.0
H2952 H 0.28836 0.64648 0.77008 0.0
H2953 H 0.31354 0.63281 0.80399 0.0
H2954 H 0.34153 0.57049 0.79619 0.0
H2955 H 0.32722 0.58966 0.80037 0.0
C2956 C 0.90225 0.50008 0.48374 0.0
C2957 C 0.91513 0.4945 0.4831 0.0
C2958 C 0.89114 0.49217 0.48671 0.0
C2959 C 0.87991 0.45701 0.48646 0.0
H2960 H 0.85111 0.47051 0.50864 0.0
C2961 C 0.83656 0.4235 0.50422 0.0
C2962 C 0.8236 0.42888 0.50384 0.0
C2963 C 0.84775 0.43154 0.50201 0.0
C2964 C 0.85901 0.46663 0.50232 0.0
H2965 H 0.92644 0.4763 0.48554 0.0
H2966 H 0.90712 0.46254 0.49079 0.0
H2967 H 0.87057 0.48447 0.50437 0.0
H2968 H 0.81229 0.44705 0.50106 0.0
H2969 H 0.83178 0.46103 0.49704 0.0
H2970 H 0.86836 0.43919 0.48442 0.0
C2971 C 0.90555 0.47297 0.48872 0.0
C2972 C 0.87017 0.47465 0.49986 0.0
C2973 C 0.91664 0.48087 0.48572 0.0
C2974 C 0.82211 0.44254 0.50128 0.0
C2975 C 0.8333 0.45059 0.49913 0.0
C2976 C 0.86877 0.449 0.48894 0.0
C2977 C 0.89263 0.47849 0.48914 0.0
C2978 C 0.88077 0.46994 0.49189 0.0
C2979 C 0.84626 0.44518 0.49942 0.0
C2980 C 0.85817 0.45371 0.49689 0.0
H2981 H 0.9007 0.51051 0.48161 0.0
H2982 H 0.88134 0.49673 0.48677 0.0
H2983 H 0.88775 0.45314 0.48007 0.0
H2984 H 0.83807 0.413 0.50604 0.0
H2985 H 0.85758 0.42707 0.50244 0.0
C2986 C 0.75217 0.87031 0.79183 0.0
C2987 C 0.75324 0.86077 0.78155 0.0
C2988 C 0.7432 0.88093 0.79079 0.0
C2989 C 0.71279 0.89196 0.77298 0.0
H2990 H 0.72483 0.92728 0.78315 0.0
C2991 C 0.68243 0.9392 0.76052 0.0
C2992 C 0.68203 0.9495 0.77011 0.0
C2993 C 0.69091 0.92827 0.76217 0.0
C2994 C 0.72122 0.91746 0.78043 0.0
H2995 H 0.74542 0.85473 0.76226 0.0
H2996 H 0.72987 0.8733 0.76038 0.0
H2997 H 0.73979 0.90836 0.78575 0.0
H2998 H 0.69007 0.95619 0.78909 0.0
H2999 H 0.70478 0.93713 0.79201 0.0
H3000 H 0.69422 0.90104 0.76767 0.0
C3001 C 0.73594 0.87255 0.76929 0.0
C3002 C 0.72982 0.90661 0.78192 0.0
C3003 C 0.74495 0.86198 0.7703 0.0
C3004 C 0.69029 0.94855 0.78141 0.0
C3005 C 0.69873 0.93761 0.78308 0.0
C3006 C 0.70417 0.90281 0.77153 0.0
C3007 C 0.73502 0.88222 0.77947 0.0
C3008 C 0.72573 0.89372 0.77817 0.0
C3009 C 0.69918 0.92733 0.77347 0.0
C3010 C 0.70829 0.91572 0.77519 0.0
H3011 H 0.75848 0.86974 0.80058 0.0
H3012 H 0.74264 0.88812 0.79888 0.0
H3013 H 0.70925 0.88214 0.77018 0.0
H3014 H 0.67635 0.93969 0.75161 0.0
H3015 H 0.69114 0.92067 0.75446 0.0
C3016 C 0.62008 0.51998 0.98031 0.0
C3017 C 0.60714 0.52542 0.98081 0.0
C3018 C 0.63129 0.5279 0.98301 0.0
C3019 C 0.64216 0.56317 0.98405 0.0
H3020 H 0.67249 0.5492 1.00347 0.0
C3021 C 0.68624 0.59651 1.00094 0.0
C3022 C 0.69921 0.59131 0.99947 0.0
C3023 C 0.67502 0.58843 0.99894 0.0
C3024 C 0.66415 0.55321 0.99792 0.0
H3025 H 0.59585 0.54338 0.98501 0.0
H3026 H 0.61534 0.55715 0.98981 0.0
H3027 H 0.65292 0.53518 0.99968 0.0
H3028 H 0.7105 0.57342 0.99492 0.0
H3029 H 0.69094 0.55937 0.99125 0.0
H3030 H 0.65338 0.5812 0.9823 0.0
C3031 C 0.61687 0.54683 0.98704 0.0
C3032 C 0.65293 0.54517 0.99574 0.0
C3033 C 0.60568 0.53892 0.98431 0.0
C3034 C 0.70067 0.5778 0.996 0.0
C3035 C 0.68945 0.5697 0.99405 0.0
C3036 C 0.65337 0.57122 0.98626 0.0
C3037 C 0.62984 0.54146 0.98631 0.0
C3038 C 0.64178 0.55004 0.98877 0.0
C3039 C 0.67648 0.57492 0.99546 0.0
C3040 C 0.66451 0.56634 0.9932 0.0
H3041 H 0.62158 0.50966 0.97749 0.0
H3042 H 0.64112 0.52346 0.98218 0.0
H3043 H 0.63388 0.56719 0.97843 0.0
H3044 H 0.68474 0.6069 1.00348 0.0
H3045 H 0.66519 0.59275 1.00025 0.0
C3046 C 0.24875 0.65257 0.23135 0.0
C3047 C 0.25121 0.66083 0.24248 0.0
C3048 C 0.23962 0.64205 0.23215 0.0
C3049 C 0.21121 0.6293 0.25215 0.0
H3050 H 0.22082 0.59541 0.23606 0.0
C3051 C 0.17466 0.5846 0.2505 0.0
C3052 C 0.18003 0.57195 0.25305 0.0
C3053 C 0.18304 0.59561 0.24879 0.0
C3054 C 0.21801 0.60478 0.24068 0.0
H3055 H 0.24564 0.66473 0.26305 0.0
H3056 H 0.22991 0.6463 0.2645 0.0
H3057 H 0.23587 0.61434 0.23396 0.0
H3058 H 0.1985 0.56098 0.25561 0.0
H3059 H 0.21307 0.58017 0.25291 0.0
H3060 H 0.19351 0.61964 0.25916 0.0
C3061 C 0.23497 0.64798 0.25512 0.0
C3062 C 0.22657 0.61569 0.23933 0.0
C3063 C 0.24412 0.65847 0.25433 0.0
C3064 C 0.194 0.57059 0.25382 0.0
C3065 C 0.20237 0.58158 0.25209 0.0
C3066 C 0.20264 0.61839 0.25349 0.0
C3067 C 0.23268 0.63957 0.24407 0.0
C3068 C 0.22332 0.62808 0.24511 0.0
C3069 C 0.19701 0.59424 0.24956 0.0
C3070 C 0.20596 0.60596 0.24784 0.0
H3071 H 0.25411 0.65403 0.2221 0.0
H3072 H 0.23799 0.63587 0.2234 0.0
H3073 H 0.20831 0.63872 0.25661 0.0
H3074 H 0.16395 0.58605 0.24997 0.0
H3075 H 0.17856 0.60517 0.24673 0.0
C3076 C 0.91599 0.54074 0.04306 0.0
C3077 C 0.91502 0.52678 0.04309 0.0
C3078 C 0.9049 0.54859 0.04001 0.0
C3079 C 0.8716 0.54765 0.02384 0.0
H3080 H 0.86532 0.57943 0.04514 0.0
C3081 C 0.8225 0.57801 0.02045 0.0
C3082 C 0.82348 0.59196 0.02109 0.0
C3083 C 0.83368 0.57001 0.02286 0.0
C3084 C 0.867 0.57068 0.03897 0.0
H3085 H 0.90153 0.51017 0.03986 0.0
H3086 H 0.88217 0.52388 0.03452 0.0
H3087 H 0.88473 0.56561 0.04969 0.0
H3088 H 0.83707 0.60839 0.02483 0.0
H3089 H 0.85658 0.59448 0.02873 0.0
H3090 H 0.85384 0.55275 0.01312 0.0
C3091 C 0.89158 0.52874 0.03672 0.0
C3092 C 0.87815 0.56275 0.04159 0.0
C3093 C 0.90269 0.52088 0.03978 0.0
C3094 C 0.83596 0.5977 0.02412 0.0
C3095 C 0.84712 0.5897 0.02652 0.0
C3096 C 0.86044 0.55561 0.0212 0.0
C3097 C 0.89252 0.54271 0.0369 0.0
C3098 C 0.88061 0.55113 0.03405 0.0
C3099 C 0.84613 0.57575 0.02596 0.0
C3100 C 0.858 0.56724 0.02873 0.0
H3101 H 0.92538 0.54562 0.04531 0.0
H3102 H 0.90606 0.5593 0.03999 0.0
H3103 H 0.87328 0.53888 0.01772 0.0
H3104 H 0.81311 0.57323 0.01799 0.0
H3105 H 0.8325 0.5593 0.02246 0.0
C3106 C 0.10567 0.98224 0.04181 0.0
C3107 C 0.10701 0.996 0.04408 0.0
C3108 C 0.11687 0.97435 0.03908 0.0
C3109 C 0.15223 0.97582 0.02798 0.0
H3110 H 0.15443 0.94133 0.0448 0.0
C3111 C 0.20052 0.94401 0.02722 0.0
C3112 C 0.1991 0.93019 0.02535 0.0
C3113 C 0.18931 0.95211 0.02921 0.0
C3114 C 0.15391 0.95086 0.03989 0.0
H3115 H 0.12123 0.01225 0.04513 0.0
H3116 H 0.14078 0.99849 0.04039 0.0
H3117 H 0.1349 0.95531 0.04863 0.0
H3118 H 0.1847 0.91409 0.02423 0.0
H3119 H 0.16516 0.92823 0.02747 0.0
H3120 H 0.17129 0.97136 0.01929 0.0
C3121 C 0.13103 0.99381 0.04057 0.0
C3122 C 0.1427 0.95889 0.04208 0.0
C3123 C 0.11981 1.00172 0.04329 0.0
C3124 C 0.18617 0.9247 0.0255 0.0
C3125 C 0.17497 0.93279 0.02751 0.0
C3126 C 0.16346 0.96779 0.02579 0.0
C3127 C 0.12972 0.98 0.03855 0.0
C3128 C 0.14169 0.97147 0.03614 0.0
C3129 C 0.17639 0.9466 0.02942 0.0
C3130 C 0.16444 0.95519 0.03171 0.0
H3131 H 0.09593 0.97754 0.0421 0.0
H3132 H 0.11544 0.9638 0.03731 0.0
H3133 H 0.15171 0.98537 0.0231 0.0
H3134 H 0.21031 0.9486 0.02701 0.0
H3135 H 0.19079 0.96268 0.03076 0.0
loop_
_geom_bond_atom_site_label_1
_geom_bond_atom_site_label_2
_geom_bond_distance
_geom_bond_site_symmetry_2
_ccdc_geom_bond_type
C0 C1 1.264 . S
C0 C5 1.479 1_455 S
C0 C10 1.465 . S
C1 C0 1.264 . S
C1 C3 1.339 1_455 S
C1 H28 0.931 . S
C2 C3 1.395 . S
C2 C4 1.320 . S
C3 C1 1.339 1_655 S
C3 C2 1.395 . S
C3 H29 0.925 1_655 S
C4 C2 1.320 . S
C4 C5 1.405 . S
C4 H30 0.930 . S
C5 C0 1.479 1_655 S
C5 C4 1.405 . S
C5 H31 0.931 . S
U6 O7 2.454 . S
U6 O8 2.458 . S
U6 C9 2.984 . S
U6 C10 2.847 . S
U6 C23 2.882 . S
U6 O24 2.441 . S
U6 O25 2.420 . S
U6 O26 2.455 . S
U6 O27 2.449 . S
O7 U6 2.454 . S
O7 C9 1.353 . S
O8 U6 2.458 . S
O8 C9 1.286 . S
C9 U6 2.984 . S
C9 O7 1.353 . S
C9 O8 1.286 . S
C9 C11 1.363 . S
C10 C0 1.465 . S
C10 U6 2.847 . S
C10 O24 1.249 . S
C10 O25 1.202 . S
C11 C9 1.363 . S
C11 C13 1.408 . S
C11 C16 1.342 1_554 S
C12 C13 1.359 . S
C12 C15 1.404 1_554 S
C12 H32 0.946 . S
C13 C11 1.408 . S
C13 C12 1.359 . S
C13 H33 0.930 . S
C14 C15 1.474 . S
C14 C16 1.285 . S
C14 H34 0.929 . S
C15 C12 1.404 1_556 S
C15 C14 1.474 . S
C16 C11 1.342 1_556 S
C16 C14 1.285 . S
C16 H35 0.930 . S
C17 C20 1.424 1_545 S
C17 C22 1.245 . S
C17 C23 1.428 . S
C18 C21 1.260 . S
C18 C22 1.477 1_565 S
C18 H36 0.932 . S
C19 C20 1.384 . S
C19 C21 1.479 . S
C19 H37 0.929 . S
C20 C17 1.424 1_565 S
C20 C19 1.384 . S
C20 H38 0.928 . S
C21 C18 1.260 . S
C21 C19 1.479 . S
C22 C17 1.245 . S
C22 C18 1.477 1_545 S
C22 H39 0.932 . S
C23 U6 2.882 . S
C23 C17 1.428 . S
C23 O26 1.301 . S
C23 O27 1.282 . S
O24 U6 2.441 . S
O24 C10 1.249 . S
O25 U6 2.420 . S
O25 C10 1.202 . S
O26 U6 2.455 . S
O26 C23 1.301 . S
O27 U6 2.449 . S
O27 C23 1.282 . S
H28 C1 0.931 . S
H29 C3 0.925 1_455 S
H30 C4 0.930 . S
H31 C5 0.931 . S
H32 C12 0.946 . S
H33 C13 0.930 . S
H34 C14 0.929 . S
H35 C16 0.930 . S
H36 C18 0.932 . S
H37 C19 0.929 . S
H38 C20 0.928 . S
H39 C22 0.932 . S
C40 C41 1.264 . S
C40 C45 1.479 . S
C40 C50 1.465 . S
C41 C40 1.264 . S
C41 C43 1.339 . S
C41 H68 0.931 . S
C42 C43 1.395 . S
C42 C44 1.320 . S
C43 C41 1.339 . S
C43 C42 1.395 . S
C43 H69 0.929 . S
C44 C42 1.320 . S
C44 C45 1.405 . S
C44 H70 0.930 . S
C45 C40 1.479 . S
C45 C44 1.405 . S
C45 H71 0.931 . S
U46 O47 2.454 . S
U46 O48 2.458 . S
U46 C49 2.984 . S
U46 C50 2.847 . S
U46 C63 2.882 . S
U46 O64 2.441 . S
U46 O65 2.420 . S
U46 O66 2.455 . S
U46 O67 2.449 . S
O47 U46 2.454 . S
O47 C49 1.353 . S
O48 U46 2.458 . S
O48 C49 1.286 . S
C49 U46 2.984 . S
C49 O47 1.353 . S
C49 O48 1.286 . S
C49 C51 1.363 . S
C50 C40 1.465 . S
C50 U46 2.847 . S
C50 O64 1.249 . S
C50 O65 1.202 . S
C51 C49 1.363 . S
C51 C53 1.408 . S
C51 C56 1.342 . S
C52 C53 1.310 . S
C52 C55 1.461 . S
C52 H72 0.932 . S
C53 C51 1.408 . S
C53 C52 1.310 . S
C53 H73 0.930 . S
C54 C55 1.474 . S
C54 C56 1.285 . S
C54 H74 0.929 . S
C55 C52 1.461 . S
C55 C54 1.474 . S
C56 C51 1.342 . S
C56 C54 1.285 . S
C56 H75 0.930 . S
C57 C60 1.424 . S
C57 C62 1.245 . S
C57 C63 1.428 . S
C58 C61 1.260 . S
C58 C62 1.477 . S
C58 H76 0.932 . S
C59 C60 1.384 . S
C59 C61 1.479 . S
C59 H77 0.929 . S
C60 C57 1.424 . S
C60 C59 1.384 . S
C60 H78 0.928 . S
C61 C58 1.260 . S
C61 C59 1.479 . S
C62 C57 1.245 . S
C62 C58 1.477 . S
C62 H79 0.932 . S
C63 U46 2.882 . S
C63 C57 1.428 . S
C63 O66 1.301 . S
C63 O67 1.282 . S
O64 U46 2.441 . S
O64 C50 1.249 . S
O65 U46 2.420 . S
O65 C50 1.202 . S
O66 U46 2.455 . S
O66 C63 1.301 . S
O67 U46 2.449 . S
O67 C63 1.282 . S
H68 C41 0.931 . S
H69 C43 0.929 . S
H70 C44 0.930 . S
H71 C45 0.931 . S
H72 C52 0.932 . S
H73 C53 0.930 . S
H74 C54 0.929 . S
H75 C56 0.930 . S
H76 C58 0.932 . S
H77 C59 0.929 . S
H78 C60 0.928 . S
H79 C62 0.932 . S
C80 C81 1.264 . S
C80 C85 1.479 1_554 S
C80 C90 1.465 . S
C81 C80 1.264 . S
C81 C83 1.299 1_554 S
C81 H108 0.931 . S
C82 C83 1.453 . S
C82 C84 1.320 . S
C83 C81 1.299 1_556 S
C83 C82 1.453 . S
C83 H109 0.914 1_556 S
C84 C82 1.320 . S
C84 C85 1.405 . S
C84 H110 0.930 . S
C85 C80 1.479 1_556 S
C85 C84 1.405 . S
C85 H111 0.931 . S
U86 O87 2.454 . S
U86 O88 2.458 . S
U86 C89 2.984 . S
U86 C90 2.847 . S
U86 C103 2.882 . S
U86 O104 2.441 . S
U86 O105 2.420 . S
U86 O106 2.455 . S
U86 O107 2.449 . S
O87 U86 2.454 . S
O87 C89 1.353 . S
O88 U86 2.458 . S
O88 C89 1.286 . S
C89 U86 2.984 . S
C89 O87 1.353 . S
C89 O88 1.286 . S
C89 C91 1.363 . S
C90 C80 1.465 . S
C90 U86 2.847 . S
C90 O104 1.249 . S
C90 O105 1.202 . S
C91 C89 1.363 . S
C91 C93 1.408 . S
C91 C96 1.342 . S
C92 C93 1.310 . S
C92 C95 1.461 . S
C92 H112 0.932 . S
C93 C91 1.408 . S
C93 C92 1.310 . S
C93 H113 0.930 . S
C94 C95 1.474 . S
C94 C96 1.285 . S
C94 H114 0.929 . S
C95 C92 1.461 . S
C95 C94 1.474 . S
C96 C91 1.342 . S
C96 C94 1.285 . S
C96 H115 0.930 . S
C97 C100 1.424 1_655 S
C97 C102 1.245 . S
C97 C103 1.428 . S
C98 C101 1.260 . S
C98 C102 1.477 1_455 S
C98 H116 0.932 . S
C99 C100 1.384 . S
C99 C101 1.479 . S
C99 H117 0.929 . S
C100 C97 1.424 1_455 S
C100 C99 1.384 . S
C100 H118 0.928 . S
C101 C98 1.260 . S
C101 C99 1.479 . S
C102 C97 1.245 . S
C102 C98 1.477 1_655 S
C102 H119 0.932 . S
C103 U86 2.882 . S
C103 C97 1.428 . S
C103 O106 1.301 . S
C103 O107 1.282 . S
O104 U86 2.441 . S
O104 C90 1.249 . S
O105 U86 2.420 . S
O105 C90 1.202 . S
O106 U86 2.455 . S
O106 C103 1.301 . S
O107 U86 2.449 . S
O107 C103 1.282 . S
H108 C81 0.931 . S
H109 C83 0.914 1_554 S
H110 C84 0.930 . S
H111 C85 0.931 . S
H112 C92 0.932 . S
H113 C93 0.930 . S
H114 C94 0.929 . S
H115 C96 0.930 . S
H116 C98 0.932 . S
H117 C99 0.929 . S
H118 C100 0.928 . S
H119 C102 0.932 . S
C120 C121 1.264 . S
C120 C125 1.479 . S
C120 C130 1.465 . S
C121 C120 1.264 . S
C121 C123 1.339 . S
C121 H148 0.931 . S
C122 C123 1.395 . S
C122 C124 1.320 . S
C123 C121 1.339 . S
C123 C122 1.395 . S
C123 H149 0.929 . S
C124 C122 1.320 . S
C124 C125 1.405 . S
C124 H150 0.930 . S
C125 C120 1.479 . S
C125 C124 1.405 . S
C125 H151 0.931 . S
U126 O127 2.454 . S
U126 O128 2.458 . S
U126 C129 2.984 . S
U126 C130 2.847 . S
U126 C143 2.882 . S
U126 O144 2.441 . S
U126 O145 2.420 . S
U126 O146 2.455 . S
U126 O147 2.449 . S
O127 U126 2.454 . S
O127 C129 1.353 . S
O128 U126 2.458 . S
O128 C129 1.286 . S
C129 U126 2.984 . S
C129 O127 1.353 . S
C129 O128 1.286 . S
C129 C131 1.363 . S
C130 C120 1.465 . S
C130 U126 2.847 . S
C130 O144 1.249 . S
C130 O145 1.202 . S
C131 C129 1.363 . S
C131 C133 1.408 . S
C131 C136 1.342 . S
C132 C133 1.310 . S
C132 C135 1.461 . S
C132 H152 0.932 . S
C133 C131 1.408 . S
C133 C132 1.310 . S
C133 H153 0.930 . S
C134 C135 1.474 . S
C134 C136 1.285 . S
C134 H154 0.929 . S
C135 C132 1.461 . S
C135 C134 1.474 . S
C136 C131 1.342 . S
C136 C134 1.285 . S
C136 H155 0.930 . S
C137 C140 1.424 . S
C137 C142 1.245 . S
C137 C143 1.428 . S
C138 C141 1.260 . S
C138 C142 1.477 . S
C138 H156 0.932 . S
C139 C140 1.384 . S
C139 C141 1.479 . S
C139 H157 0.929 . S
C140 C137 1.424 . S
C140 C139 1.384 . S
C140 H158 0.928 . S
C141 C138 1.260 . S
C141 C139 1.479 . S
C142 C137 1.245 . S
C142 C138 1.477 . S
C142 H159 0.932 . S
C143 U126 2.882 . S
C143 C137 1.428 . S
C143 O146 1.301 . S
C143 O147 1.282 . S
O144 U126 2.441 . S
O144 C130 1.249 . S
O145 U126 2.420 . S
O145 C130 1.202 . S
O146 U126 2.455 . S
O146 C143 1.301 . S
O147 U126 2.449 . S
O147 C143 1.282 . S
H148 C121 0.931 . S
H149 C123 0.929 . S
H150 C124 0.930 . S
H151 C125 0.931 . S
H152 C132 0.932 . S
H153 C133 0.930 . S
H154 C134 0.929 . S
H155 C136 0.930 . S
H156 C138 0.932 . S
H157 C139 0.929 . S
H158 C140 0.928 . S
H159 C142 0.932 . S
C160 C161 1.264 . S
C160 C165 1.479 1_455 S
C160 C170 1.465 . S
C161 C160 1.264 . S
C161 C163 1.339 1_455 S
C161 H188 0.931 . S
C162 C163 1.395 . S
C162 C164 1.320 . S
C163 C161 1.339 1_655 S
C163 C162 1.395 . S
C163 H189 0.925 1_655 S
C164 C162 1.320 . S
C164 C165 1.405 . S
C164 H190 0.930 . S
C165 C160 1.479 1_655 S
C165 C164 1.405 . S
C165 H191 0.931 . S
U166 O167 2.454 . S
U166 O168 2.458 . S
U166 C169 2.984 . S
U166 C170 2.847 . S
U166 C183 2.882 . S
U166 O184 2.441 . S
U166 O185 2.420 . S
U166 O186 2.455 . S
U166 O187 2.449 . S
O167 U166 2.454 . S
O167 C169 1.353 . S
O168 U166 2.458 . S
O168 C169 1.286 . S
C169 U166 2.984 . S
C169 O167 1.353 . S
C169 O168 1.286 . S
C169 C171 1.363 . S
C170 C160 1.465 . S
C170 U166 2.847 . S
C170 O184 1.249 . S
C170 O185 1.202 . S
C171 C169 1.363 . S
C171 C173 1.408 . S
C171 C176 1.342 . S
C172 C173 1.310 . S
C172 C175 1.461 . S
C172 H192 0.932 . S
C173 C171 1.408 . S
C173 C172 1.310 . S
C173 H193 0.930 . S
C174 C175 1.474 . S
C174 C176 1.285 . S
C174 H194 0.929 . S
C175 C172 1.461 . S
C175 C174 1.474 . S
C176 C171 1.342 . S
C176 C174 1.285 . S
C176 H195 0.930 . S
C177 C180 1.424 1_565 S
C177 C182 1.245 . S
C177 C183 1.428 . S
C178 C181 1.260 . S
C178 C182 1.477 1_545 S
C178 H196 0.932 . S
C179 C180 1.384 . S
C179 C181 1.479 . S
C179 H197 0.929 . S
C180 C177 1.424 1_545 S
C180 C179 1.384 . S
C180 H198 0.928 . S
C181 C178 1.260 . S
C181 C179 1.479 . S
C182 C177 1.245 . S
C182 C178 1.477 1_565 S
C182 H199 0.932 . S
C183 U166 2.882 . S
C183 C177 1.428 . S
C183 O186 1.301 . S
C183 O187 1.282 . S
O184 U166 2.441 . S
O184 C170 1.249 . S
O185 U166 2.420 . S
O185 C170 1.202 . S
O186 U166 2.455 . S
O186 C183 1.301 . S
O187 U166 2.449 . S
O187 C183 1.282 . S
H188 C161 0.931 . S
H189 C163 0.925 1_455 S
H190 C164 0.930 . S
H191 C165 0.931 . S
H192 C172 0.932 . S
H193 C173 0.930 . S
H194 C174 0.929 . S
H195 C176 0.930 . S
H196 C178 0.932 . S
H197 C179 0.929 . S
H198 C180 0.928 . S
H199 C182 0.932 . S
C200 C201 1.264 . S
C200 C205 1.479 . S
C200 C210 1.465 . S
C201 C200 1.264 . S
C201 C203 1.339 . S
C201 H228 0.931 . S
C202 C203 1.395 . S
C202 C204 1.320 . S
C203 C201 1.339 . S
C203 C202 1.395 . S
C203 H229 0.929 . S
C204 C202 1.320 . S
C204 C205 1.405 . S
C204 H230 0.930 . S
C205 C200 1.479 . S
C205 C204 1.405 . S
C205 H231 0.931 . S
U206 O207 2.454 . S
U206 O208 2.458 . S
U206 C209 2.984 . S
U206 C210 2.847 . S
U206 C223 2.882 . S
U206 O224 2.441 . S
U206 O225 2.420 . S
U206 O226 2.455 . S
U206 O227 2.449 . S
O207 U206 2.454 . S
O207 C209 1.353 . S
O208 U206 2.458 . S
O208 C209 1.286 . S
C209 U206 2.984 . S
C209 O207 1.353 . S
C209 O208 1.286 . S
C209 C211 1.363 . S
C210 C200 1.465 . S
C210 U206 2.847 . S
C210 O224 1.249 . S
C210 O225 1.202 . S
C211 C209 1.363 . S
C211 C213 1.408 . S
C211 C216 1.342 . S
C212 C213 1.310 . S
C212 C215 1.461 . S
C212 H232 0.932 . S
C213 C211 1.408 . S
C213 C212 1.310 . S
C213 H233 0.930 . S
C214 C215 1.474 . S
C214 C216 1.285 . S
C214 H234 0.929 . S
C215 C212 1.461 . S
C215 C214 1.474 . S
C216 C211 1.342 . S
C216 C214 1.285 . S
C216 H235 0.930 . S
C217 C220 1.424 . S
C217 C222 1.245 . S
C217 C223 1.428 . S
C218 C221 1.260 . S
C218 C222 1.477 . S
C218 H236 0.932 . S
C219 C220 1.384 . S
C219 C221 1.479 . S
C219 H237 0.929 . S
C220 C217 1.424 . S
C220 C219 1.384 . S
C220 H238 0.928 . S
C221 C218 1.260 . S
C221 C219 1.479 . S
C222 C217 1.245 . S
C222 C218 1.477 . S
C222 H239 0.932 . S
C223 U206 2.882 . S
C223 C217 1.428 . S
C223 O226 1.301 . S
C223 O227 1.282 . S
O224 U206 2.441 . S
O224 C210 1.249 . S
O225 U206 2.420 . S
O225 C210 1.202 . S
O226 U206 2.455 . S
O226 C223 1.301 . S
O227 U206 2.449 . S
O227 C223 1.282 . S
H228 C201 0.931 . S
H229 C203 0.929 . S
H230 C204 0.930 . S
H231 C205 0.931 . S
H232 C212 0.932 . S
H233 C213 0.930 . S
H234 C214 0.929 . S
H235 C216 0.930 . S
H236 C218 0.932 . S
H237 C219 0.929 . S
H238 C220 0.928 . S
H239 C222 0.932 . S
C240 C241 1.264 . S
C240 C245 1.479 . S
C240 C250 1.465 . S
C241 C240 1.264 . S
C241 C243 1.339 . S
C241 H268 0.931 . S
C242 C243 1.395 . S
C242 C244 1.320 . S
C243 C241 1.339 . S
C243 C242 1.395 . S
C243 H269 0.929 . S
C244 C242 1.320 . S
C244 C245 1.405 . S
C244 H270 0.930 . S
C245 C240 1.479 . S
C245 C244 1.405 . S
C245 H271 0.931 . S
U246 O247 2.454 . S
U246 O248 2.458 . S
U246 C249 2.984 . S
U246 C250 2.847 . S
U246 C263 2.882 . S
U246 O264 2.441 . S
U246 O265 2.420 . S
U246 O266 2.455 . S
U246 O267 2.449 . S
O247 U246 2.454 . S
O247 C249 1.353 . S
O248 U246 2.458 . S
O248 C249 1.286 . S
C249 U246 2.984 . S
C249 O247 1.353 . S
C249 O248 1.286 . S
C249 C251 1.363 . S
C250 C240 1.465 . S
C250 U246 2.847 . S
C250 O264 1.249 . S
C250 O265 1.202 . S
C251 C249 1.363 . S
C251 C253 1.408 . S
C251 C256 1.342 . S
C252 C253 1.310 . S
C252 C255 1.461 . S
C252 H272 0.932 . S
C253 C251 1.408 . S
C253 C252 1.310 . S
C253 H273 0.930 . S
C254 C255 1.474 . S
C254 C256 1.285 . S
C254 H274 0.929 . S
C255 C252 1.461 . S
C255 C254 1.474 . S
C256 C251 1.342 . S
C256 C254 1.285 . S
C256 H275 0.930 . S
C257 C260 1.424 1_655 S
C257 C262 1.245 . S
C257 C263 1.428 . S
C258 C261 1.260 . S
C258 C262 1.477 1_455 S
C258 H276 0.932 . S
C259 C260 1.384 . S
C259 C261 1.479 . S
C259 H277 0.929 . S
C260 C257 1.424 1_455 S
C260 C259 1.384 . S
C260 H278 0.928 . S
C261 C258 1.260 . S
C261 C259 1.479 . S
C262 C257 1.245 . S
C262 C258 1.477 1_655 S
C262 H279 0.932 . S
C263 U246 2.882 . S
C263 C257 1.428 . S
C263 O266 1.301 . S
C263 O267 1.282 . S
O264 U246 2.441 . S
O264 C250 1.249 . S
O265 U246 2.420 . S
O265 C250 1.202 . S
O266 U246 2.455 . S
O266 C263 1.301 . S
O267 U246 2.449 . S
O267 C263 1.282 . S
H268 C241 0.931 . S
H269 C243 0.929 . S
H270 C244 0.930 . S
H271 C245 0.931 . S
H272 C252 0.932 . S
H273 C253 0.930 . S
H274 C254 0.929 . S
H275 C256 0.930 . S
H276 C258 0.932 . S
H277 C259 0.929 . S
H278 C260 0.928 . S
H279 C262 0.932 . S
C280 C281 1.264 . S
C280 C285 1.479 . S
C280 C290 1.465 . S
C281 C280 1.264 . S
C281 C283 1.339 . S
C281 H308 0.931 . S
C282 C283 1.395 . S
C282 C284 1.320 . S
C283 C281 1.339 . S
C283 C282 1.395 . S
C283 H309 0.929 . S
C284 C282 1.320 . S
C284 C285 1.405 . S
C284 H310 0.930 . S
C285 C280 1.479 . S
C285 C284 1.405 . S
C285 H311 0.931 . S
U286 O287 2.454 . S
U286 O288 2.458 . S
U286 C289 2.984 . S
U286 C290 2.847 . S
U286 C303 2.882 . S
U286 O304 2.441 . S
U286 O305 2.420 . S
U286 O306 2.455 . S
U286 O307 2.449 . S
O287 U286 2.454 . S
O287 C289 1.353 . S
O288 U286 2.458 . S
O288 C289 1.286 . S
C289 U286 2.984 . S
C289 O287 1.353 . S
C289 O288 1.286 . S
C289 C291 1.363 . S
C290 C280 1.465 . S
C290 U286 2.847 . S
C290 O304 1.249 . S
C290 O305 1.202 . S
C291 C289 1.363 . S
C291 C293 1.408 . S
C291 C296 1.342 . S
C292 C293 1.310 . S
C292 C295 1.461 . S
C292 H312 0.932 . S
C293 C291 1.408 . S
C293 C292 1.310 . S
C293 H313 0.930 . S
C294 C295 1.474 . S
C294 C296 1.285 . S
C294 H314 0.929 . S
C295 C292 1.461 . S
C295 C294 1.474 . S
C296 C291 1.342 . S
C296 C294 1.285 . S
C296 H315 0.930 . S
C297 C300 1.424 . S
C297 C302 1.245 . S
C297 C303 1.428 . S
C298 C301 1.260 . S
C298 C302 1.477 . S
C298 H316 0.932 . S
C299 C300 1.384 . S
C299 C301 1.479 . S
C299 H317 0.929 . S
C300 C297 1.424 . S
C300 C299 1.384 . S
C300 H318 0.928 . S
C301 C298 1.260 . S
C301 C299 1.479 . S
C302 C297 1.245 . S
C302 C298 1.477 . S
C302 H319 0.932 . S
C303 U286 2.882 . S
C303 C297 1.428 . S
C303 O306 1.301 . S
C303 O307 1.282 . S
O304 U286 2.441 . S
O304 C290 1.249 . S
O305 U286 2.420 . S
O305 C290 1.202 . S
O306 U286 2.455 . S
O306 C303 1.301 . S
O307 U286 2.449 . S
O307 C303 1.282 . S
H308 C281 0.931 . S
H309 C283 0.929 . S
H310 C284 0.930 . S
H311 C285 0.931 . S
H312 C292 0.932 . S
H313 C293 0.930 . S
H314 C294 0.929 . S
H315 C296 0.930 . S
H316 C298 0.932 . S
H317 C299 0.929 . S
H318 C300 0.928 . S
H319 C302 0.932 . S
C320 C321 1.264 . S
C320 C325 1.479 . S
C320 C330 1.465 . S
C321 C320 1.264 . S
C321 C323 1.339 . S
C321 H348 0.931 . S
C322 C323 1.395 . S
C322 C324 1.320 . S
C323 C321 1.339 . S
C323 C322 1.395 . S
C323 H349 0.929 . S
C324 C322 1.320 . S
C324 C325 1.405 . S
C324 H350 0.930 . S
C325 C320 1.479 . S
C325 C324 1.405 . S
C325 H351 0.931 . S
U326 O327 2.454 . S
U326 O328 2.458 . S
U326 C329 2.984 . S
U326 C330 2.847 . S
U326 C343 2.882 . S
U326 O344 2.441 . S
U326 O345 2.420 . S
U326 O346 2.455 . S
U326 O347 2.449 . S
O327 U326 2.454 . S
O327 C329 1.353 . S
O328 U326 2.458 . S
O328 C329 1.286 . S
C329 U326 2.984 . S
C329 O327 1.353 . S
C329 O328 1.286 . S
C329 C331 1.363 . S
C330 C320 1.465 . S
C330 U326 2.847 . S
C330 O344 1.249 . S
C330 O345 1.202 . S
C331 C329 1.363 . S
C331 C333 1.408 . S
C331 C336 1.342 . S
C332 C333 1.310 . S
C332 C335 1.461 . S
C332 H352 0.932 . S
C333 C331 1.408 . S
C333 C332 1.310 . S
C333 H353 0.930 . S
C334 C335 1.474 . S
C334 C336 1.285 . S
C334 H354 0.929 . S
C335 C332 1.461 . S
C335 C334 1.474 . S
C336 C331 1.342 . S
C336 C334 1.285 . S
C336 H355 0.930 . S
C337 C340 1.424 . S
C337 C342 1.245 . S
C337 C343 1.428 . S
C338 C341 1.260 . S
C338 C342 1.477 . S
C338 H356 0.932 . S
C339 C340 1.384 . S
C339 C341 1.479 . S
C339 H357 0.929 . S
C340 C337 1.424 . S
C340 C339 1.384 . S
C340 H358 0.928 . S
C341 C338 1.260 . S
C341 C339 1.479 . S
C342 C337 1.245 . S
C342 C338 1.477 . S
C342 H359 0.932 . S
C343 U326 2.882 . S
C343 C337 1.428 . S
C343 O346 1.301 . S
C343 O347 1.282 . S
O344 U326 2.441 . S
O344 C330 1.249 . S
O345 U326 2.420 . S
O345 C330 1.202 . S
O346 U326 2.455 . S
O346 C343 1.301 . S
O347 U326 2.449 . S
O347 C343 1.282 . S
H348 C321 0.931 . S
H349 C323 0.929 . S
H350 C324 0.930 . S
H351 C325 0.931 . S
H352 C332 0.932 . S
H353 C333 0.930 . S
H354 C334 0.929 . S
H355 C336 0.930 . S
H356 C338 0.932 . S
H357 C339 0.929 . S
H358 C340 0.928 . S
H359 C342 0.932 . S
C360 C361 1.264 . S
C360 C365 1.479 . S
C360 C370 1.465 . S
C361 C360 1.264 . S
C361 C363 1.339 . S
C361 H388 0.931 . S
C362 C363 1.395 . S
C362 C364 1.320 . S
C363 C361 1.339 . S
C363 C362 1.395 . S
C363 H389 0.929 . S
C364 C362 1.320 . S
C364 C365 1.405 . S
C364 H390 0.930 . S
C365 C360 1.479 . S
C365 C364 1.405 . S
C365 H391 0.931 . S
U366 O367 2.454 . S
U366 O368 2.458 . S
U366 C369 2.984 . S
U366 C370 2.847 . S
U366 C383 2.882 . S
U366 O384 2.441 . S
U366 O385 2.420 . S
U366 O386 2.455 . S
U366 O387 2.449 . S
O367 U366 2.454 . S
O367 C369 1.353 . S
O368 U366 2.458 . S
O368 C369 1.286 . S
C369 U366 2.984 . S
C369 O367 1.353 . S
C369 O368 1.286 . S
C369 C371 1.363 . S
C370 C360 1.465 . S
C370 U366 2.847 . S
C370 O384 1.249 . S
C370 O385 1.202 . S
C371 C369 1.363 . S
C371 C373 1.408 . S
C371 C376 1.342 1_565 S
C372 C373 1.310 1_545 S
C372 C375 1.461 . S
C372 H392 0.932 . S
C373 C371 1.408 . S
C373 C372 1.310 1_565 S
C373 H393 0.930 . S
C374 C375 1.474 . S
C374 C376 1.285 . S
C374 H394 0.929 . S
C375 C372 1.461 . S
C375 C374 1.474 . S
C376 C371 1.342 1_545 S
C376 C374 1.285 . S
C376 H395 0.930 . S
C377 C380 1.424 . S
C377 C382 1.245 . S
C377 C383 1.428 . S
C378 C381 1.260 . S
C378 C382 1.477 . S
C378 H396 0.932 . S
C379 C380 1.384 . S
C379 C381 1.479 . S
C379 H397 0.929 . S
C380 C377 1.424 . S
C380 C379 1.384 . S
C380 H398 0.928 . S
C381 C378 1.260 . S
C381 C379 1.479 . S
C382 C377 1.245 . S
C382 C378 1.477 . S
C382 H399 0.932 . S
C383 U366 2.882 . S
C383 C377 1.428 . S
C383 O386 1.301 . S
C383 O387 1.282 . S
O384 U366 2.441 . S
O384 C370 1.249 . S
O385 U366 2.420 . S
O385 C370 1.202 . S
O386 U366 2.455 . S
O386 C383 1.301 . S
O387 U366 2.449 . S
O387 C383 1.282 . S
H388 C361 0.931 . S
H389 C363 0.929 . S
H390 C364 0.930 . S
H391 C365 0.931 . S
H392 C372 0.932 . S
H393 C373 0.930 . S
H394 C374 0.929 . S
H395 C376 0.930 . S
H396 C378 0.932 . S
H397 C379 0.929 . S
H398 C380 0.928 . S
H399 C382 0.932 . S
C400 C401 1.264 . S
C400 C405 1.479 . S
C400 C410 1.465 . S
C401 C400 1.264 . S
C401 C403 1.339 . S
C401 H428 0.931 . S
C402 C403 1.395 . S
C402 C404 1.320 . S
C403 C401 1.339 . S
C403 C402 1.395 . S
C403 H429 0.929 . S
C404 C402 1.320 . S
C404 C405 1.405 . S
C404 H430 0.930 . S
C405 C400 1.479 . S
C405 C404 1.405 . S
C405 H431 0.931 . S
U406 O407 2.454 . S
U406 O408 2.458 . S
U406 C409 2.984 . S
U406 C410 2.847 . S
U406 C423 2.882 . S
U406 O424 2.441 . S
U406 O425 2.420 . S
U406 O426 2.455 . S
U406 O427 2.449 . S
O407 U406 2.454 . S
O407 C409 1.353 . S
O408 U406 2.458 . S
O408 C409 1.286 . S
C409 U406 2.984 . S
C409 O407 1.353 . S
C409 O408 1.286 . S
C409 C411 1.363 . S
C410 C400 1.465 . S
C410 U406 2.847 . S
C410 O424 1.249 . S
C410 O425 1.202 . S
C411 C409 1.363 . S
C411 C413 1.408 . S
C411 C416 1.342 . S
C412 C413 1.310 . S
C412 C415 1.461 . S
C412 H432 0.932 . S
C413 C411 1.408 . S
C413 C412 1.310 . S
C413 H433 0.930 . S
C414 C415 1.474 . S
C414 C416 1.285 . S
C414 H434 0.929 . S
C415 C412 1.461 . S
C415 C414 1.474 . S
C416 C411 1.342 . S
C416 C414 1.285 . S
C416 H435 0.930 . S
C417 C420 1.424 . S
C417 C422 1.245 . S
C417 C423 1.428 . S
C418 C421 1.260 . S
C418 C422 1.477 . S
C418 H436 0.932 . S
C419 C420 1.384 . S
C419 C421 1.479 . S
C419 H437 0.929 . S
C420 C417 1.424 . S
C420 C419 1.384 . S
C420 H438 0.928 . S
C421 C418 1.260 . S
C421 C419 1.479 . S
C422 C417 1.245 . S
C422 C418 1.477 . S
C422 H439 0.932 . S
C423 U406 2.882 . S
C423 C417 1.428 . S
C423 O426 1.301 . S
C423 O427 1.282 . S
O424 U406 2.441 . S
O424 C410 1.249 . S
O425 U406 2.420 . S
O425 C410 1.202 . S
O426 U406 2.455 . S
O426 C423 1.301 . S
O427 U406 2.449 . S
O427 C423 1.282 . S
H428 C401 0.931 . S
H429 C403 0.929 . S
H430 C404 0.930 . S
H431 C405 0.931 . S
H432 C412 0.932 . S
H433 C413 0.930 . S
H434 C414 0.929 . S
H435 C416 0.930 . S
H436 C418 0.932 . S
H437 C419 0.929 . S
H438 C420 0.928 . S
H439 C422 0.932 . S
C440 C441 1.264 . S
C440 C445 1.479 . S
C440 C450 1.465 . S
C441 C440 1.264 . S
C441 C443 1.339 . S
C441 H468 0.931 . S
C442 C443 1.395 . S
C442 C444 1.320 . S
C443 C441 1.339 . S
C443 C442 1.395 . S
C443 H469 0.929 . S
C444 C442 1.320 . S
C444 C445 1.405 . S
C444 H470 0.930 . S
C445 C440 1.479 . S
C445 C444 1.405 . S
C445 H471 0.931 . S
U446 O447 2.454 . S
U446 O448 2.458 . S
U446 C449 2.984 . S
U446 C450 2.847 . S
U446 C463 2.882 . S
U446 O464 2.441 . S
U446 O465 2.420 . S
U446 O466 2.455 . S
U446 O467 2.449 . S
O447 U446 2.454 . S
O447 C449 1.353 . S
O448 U446 2.458 . S
O448 C449 1.286 . S
C449 U446 2.984 . S
C449 O447 1.353 . S
C449 O448 1.286 . S
C449 C451 1.363 . S
C450 C440 1.465 . S
C450 U446 2.847 . S
C450 O464 1.249 . S
C450 O465 1.202 . S
C451 C449 1.363 . S
C451 C453 1.408 . S
C451 C456 1.342 . S
C452 C453 1.310 . S
C452 C455 1.461 . S
C452 H472 0.932 . S
C453 C451 1.408 . S
C453 C452 1.310 . S
C453 H473 0.930 . S
C454 C455 1.474 . S
C454 C456 1.285 . S
C454 H474 0.929 . S
C455 C452 1.461 . S
C455 C454 1.474 . S
C456 C451 1.342 . S
C456 C454 1.285 . S
C456 H475 0.930 . S
C457 C460 1.424 . S
C457 C462 1.245 . S
C457 C463 1.428 . S
C458 C461 1.260 . S
C458 C462 1.477 . S
C458 H476 0.932 . S
C459 C460 1.384 . S
C459 C461 1.479 . S
C459 H477 0.929 . S
C460 C457 1.424 . S
C460 C459 1.384 . S
C460 H478 0.928 . S
C461 C458 1.260 . S
C461 C459 1.479 . S
C462 C457 1.245 . S
C462 C458 1.477 . S
C462 H479 0.932 . S
C463 U446 2.882 . S
C463 C457 1.428 . S
C463 O466 1.301 . S
C463 O467 1.282 . S
O464 U446 2.441 . S
O464 C450 1.249 . S
O465 U446 2.420 . S
O465 C450 1.202 . S
O466 U446 2.455 . S
O466 C463 1.301 . S
O467 U446 2.449 . S
O467 C463 1.282 . S
H468 C441 0.931 . S
H469 C443 0.929 . S
H470 C444 0.930 . S
H471 C445 0.931 . S
H472 C452 0.932 . S
H473 C453 0.930 . S
H474 C454 0.929 . S
H475 C456 0.930 . S
H476 C458 0.932 . S
H477 C459 0.929 . S
H478 C460 0.928 . S
H479 C462 0.932 . S
C480 C481 1.264 . S
C480 C485 1.479 . S
C480 C490 1.465 . S
C481 C480 1.264 . S
C481 C483 1.339 . S
C481 H508 0.931 . S
C482 C483 1.395 . S
C482 C484 1.320 . S
C483 C481 1.339 . S
C483 C482 1.395 . S
C483 H509 0.929 . S
C484 C482 1.320 . S
C484 C485 1.405 . S
C484 H510 0.930 . S
C485 C480 1.479 . S
C485 C484 1.405 . S
C485 H511 0.931 . S
U486 O487 2.454 . S
U486 O488 2.458 . S
U486 C489 2.984 . S
U486 C490 2.847 . S
U486 C503 2.882 . S
U486 O504 2.441 . S
U486 O505 2.420 . S
U486 O506 2.455 . S
U486 O507 2.449 . S
O487 U486 2.454 . S
O487 C489 1.353 . S
O488 U486 2.458 . S
O488 C489 1.286 . S
C489 U486 2.984 . S
C489 O487 1.353 . S
C489 O488 1.286 . S
C489 C491 1.363 . S
C490 C480 1.465 . S
C490 U486 2.847 . S
C490 O504 1.249 . S
C490 O505 1.202 . S
C491 C489 1.363 . S
C491 C493 1.408 . S
C491 C496 1.342 . S
C492 C493 1.310 . S
C492 C495 1.461 . S
C492 H512 0.932 . S
C493 C491 1.408 . S
C493 C492 1.310 . S
C493 H513 0.930 . S
C494 C495 1.474 . S
C494 C496 1.285 . S
C494 H514 0.929 . S
C495 C492 1.461 . S
C495 C494 1.474 . S
C496 C491 1.342 . S
C496 C494 1.285 . S
C496 H515 0.930 . S
C497 C500 1.424 . S
C497 C502 1.245 . S
C497 C503 1.428 . S
C498 C501 1.260 . S
C498 C502 1.477 . S
C498 H516 0.932 . S
C499 C500 1.384 . S
C499 C501 1.479 . S
C499 H517 0.929 . S
C500 C497 1.424 . S
C500 C499 1.384 . S
C500 H518 0.928 . S
C501 C498 1.260 . S
C501 C499 1.479 . S
C502 C497 1.245 . S
C502 C498 1.477 . S
C502 H519 0.932 . S
C503 U486 2.882 . S
C503 C497 1.428 . S
C503 O506 1.301 . S
C503 O507 1.282 . S
O504 U486 2.441 . S
O504 C490 1.249 . S
O505 U486 2.420 . S
O505 C490 1.202 . S
O506 U486 2.455 . S
O506 C503 1.301 . S
O507 U486 2.449 . S
O507 C503 1.282 . S
H508 C481 0.931 . S
H509 C483 0.929 . S
H510 C484 0.930 . S
H511 C485 0.931 . S
H512 C492 0.932 . S
H513 C493 0.930 . S
H514 C494 0.929 . S
H515 C496 0.930 . S
H516 C498 0.932 . S
H517 C499 0.929 . S
H518 C500 0.928 . S
H519 C502 0.932 . S
C520 C521 1.264 . S
C520 C525 1.479 . S
C520 C530 1.465 . S
C521 C520 1.264 . S
C521 C523 1.339 . S
C521 H548 0.931 . S
C522 C523 1.395 . S
C522 C524 1.320 . S
C523 C521 1.339 . S
C523 C522 1.395 . S
C523 H549 0.929 . S
C524 C522 1.320 . S
C524 C525 1.405 . S
C524 H550 0.930 . S
C525 C520 1.479 . S
C525 C524 1.405 . S
C525 H551 0.931 . S
U526 O527 2.454 . S
U526 O528 2.458 . S
U526 C529 2.984 . S
U526 C530 2.847 . S
U526 C543 2.882 . S
U526 O544 2.441 . S
U526 O545 2.420 . S
U526 O546 2.455 . S
U526 O547 2.449 . S
O527 U526 2.454 . S
O527 C529 1.353 . S
O528 U526 2.458 . S
O528 C529 1.286 . S
C529 U526 2.984 . S
C529 O527 1.353 . S
C529 O528 1.286 . S
C529 C531 1.363 . S
C530 C520 1.465 . S
C530 U526 2.847 . S
C530 O544 1.249 . S
C530 O545 1.202 . S
C531 C529 1.363 . S
C531 C533 1.408 . S
C531 C536 1.342 1_556 S
C532 C533 1.310 1_554 S
C532 C535 1.461 . S
C532 H552 0.932 . S
C533 C531 1.408 . S
C533 C532 1.310 1_556 S
C533 H553 0.930 . S
C534 C535 1.474 . S
C534 C536 1.285 . S
C534 H554 0.929 . S
C535 C532 1.461 . S
C535 C534 1.474 . S
C536 C531 1.342 1_554 S
C536 C534 1.285 . S
C536 H555 0.930 . S
C537 C540 1.424 . S
C537 C542 1.245 . S
C537 C543 1.428 . S
C538 C541 1.260 . S
C538 C542 1.477 . S
C538 H556 0.932 . S
C539 C540 1.384 . S
C539 C541 1.479 . S
C539 H557 0.929 . S
C540 C537 1.424 . S
C540 C539 1.384 . S
C540 H558 0.928 . S
C541 C538 1.260 . S
C541 C539 1.479 . S
C542 C537 1.245 . S
C542 C538 1.477 . S
C542 H559 0.932 . S
C543 U526 2.882 . S
C543 C537 1.428 . S
C543 O546 1.301 . S
C543 O547 1.282 . S
O544 U526 2.441 . S
O544 C530 1.249 . S
O545 U526 2.420 . S
O545 C530 1.202 . S
O546 U526 2.455 . S
O546 C543 1.301 . S
O547 U526 2.449 . S
O547 C543 1.282 . S
H548 C521 0.931 . S
H549 C523 0.929 . S
H550 C524 0.930 . S
H551 C525 0.931 . S
H552 C532 0.932 . S
H553 C533 0.930 . S
H554 C534 0.929 . S
H555 C536 0.930 . S
H556 C538 0.932 . S
H557 C539 0.929 . S
H558 C540 0.928 . S
H559 C542 0.932 . S
C560 C561 1.264 . S
C560 C565 1.479 . S
C560 C570 1.465 . S
C561 C560 1.264 . S
C561 C563 1.339 . S
C561 H588 0.931 . S
C562 C563 1.395 . S
C562 C564 1.320 . S
C563 C561 1.339 . S
C563 C562 1.395 . S
C563 H589 0.929 . S
C564 C562 1.320 . S
C564 C565 1.405 . S
C564 H590 0.930 . S
C565 C560 1.479 . S
C565 C564 1.405 . S
C565 H591 0.931 . S
U566 O567 2.454 . S
U566 O568 2.458 . S
U566 C569 2.984 . S
U566 C570 2.847 . S
U566 C583 2.882 . S
U566 O584 2.441 . S
U566 O585 2.420 . S
U566 O586 2.455 . S
U566 O587 2.449 . S
O567 U566 2.454 . S
O567 C569 1.353 . S
O568 U566 2.458 . S
O568 C569 1.286 . S
C569 U566 2.984 . S
C569 O567 1.353 . S
C569 O568 1.286 . S
C569 C571 1.363 . S
C570 C560 1.465 . S
C570 U566 2.847 . S
C570 O584 1.249 . S
C570 O585 1.202 . S
C571 C569 1.363 . S
C571 C573 1.408 . S
C571 C576 1.342 . S
C572 C573 1.310 . S
C572 C575 1.461 . S
C572 H592 0.932 . S
C573 C571 1.408 . S
C573 C572 1.310 . S
C573 H593 0.930 . S
C574 C575 1.474 . S
C574 C576 1.285 . S
C574 H594 0.929 . S
C575 C572 1.461 . S
C575 C574 1.474 . S
C576 C571 1.342 . S
C576 C574 1.285 . S
C576 H595 0.930 . S
C577 C580 1.424 . S
C577 C582 1.245 . S
C577 C583 1.428 . S
C578 C581 1.260 . S
C578 C582 1.477 . S
C578 H596 0.932 . S
C579 C580 1.384 . S
C579 C581 1.479 . S
C579 H597 0.929 . S
C580 C577 1.424 . S
C580 C579 1.384 . S
C580 H598 0.928 . S
C581 C578 1.260 . S
C581 C579 1.479 . S
C582 C577 1.245 . S
C582 C578 1.477 . S
C582 H599 0.932 . S
C583 U566 2.882 . S
C583 C577 1.428 . S
C583 O586 1.301 . S
C583 O587 1.282 . S
O584 U566 2.441 . S
O584 C570 1.249 . S
O585 U566 2.420 . S
O585 C570 1.202 . S
O586 U566 2.455 . S
O586 C583 1.301 . S
O587 U566 2.449 . S
O587 C583 1.282 . S
H588 C561 0.931 . S
H589 C563 0.929 . S
H590 C564 0.930 . S
H591 C565 0.931 . S
H592 C572 0.932 . S
H593 C573 0.930 . S
H594 C574 0.929 . S
H595 C576 0.930 . S
H596 C578 0.932 . S
H597 C579 0.929 . S
H598 C580 0.928 . S
H599 C582 0.932 . S
C600 C601 1.264 1_554 S
C600 C605 1.479 . S
C600 C610 1.465 1_554 S
C601 C600 1.264 1_556 S
C601 C603 1.339 1_556 S
C601 H628 0.931 . S
C602 C603 1.395 . S
C602 C604 1.320 . S
C603 C601 1.339 1_554 S
C603 C602 1.395 . S
C603 H629 0.929 . S
C604 C602 1.320 . S
C604 C605 1.405 . S
C604 H630 0.930 . S
C605 C600 1.479 . S
C605 C604 1.405 . S
C605 H631 0.931 . S
U606 O607 2.454 . S
U606 O608 2.458 . S
U606 C609 2.984 . S
U606 C610 2.847 . S
U606 C623 2.882 . S
U606 O624 2.441 . S
U606 O625 2.420 . S
U606 O626 2.455 . S
U606 O627 2.449 . S
O607 U606 2.454 . S
O607 C609 1.353 . S
O608 U606 2.458 . S
O608 C609 1.286 . S
C609 U606 2.984 . S
C609 O607 1.353 . S
C609 O608 1.286 . S
C609 C611 1.363 . S
C610 C600 1.465 1_556 S
C610 U606 2.847 . S
C610 O624 1.249 . S
C610 O625 1.202 . S
C611 C609 1.363 . S
C611 C613 1.408 . S
C611 C616 1.342 1_545 S
C612 C613 1.310 1_565 S
C612 C615 1.461 . S
C612 H632 0.943 . S
C613 C611 1.408 . S
C613 C612 1.310 1_545 S
C613 H633 0.930 . S
C614 C615 1.474 . S
C614 C616 1.285 . S
C614 H634 0.929 . S
C615 C612 1.461 . S
C615 C614 1.474 . S
C616 C611 1.342 1_565 S
C616 C614 1.285 . S
C616 H635 0.930 . S
C617 C620 1.424 . S
C617 C622 1.245 . S
C617 C623 1.428 . S
C618 C621 1.260 . S
C618 C622 1.477 . S
C618 H636 0.932 . S
C619 C620 1.384 . S
C619 C621 1.479 . S
C619 H637 0.929 . S
C620 C617 1.424 . S
C620 C619 1.384 . S
C620 H638 0.928 . S
C621 C618 1.260 . S
C621 C619 1.479 . S
C622 C617 1.245 . S
C622 C618 1.477 . S
C622 H639 0.932 . S
C623 U606 2.882 . S
C623 C617 1.428 . S
C623 O626 1.301 . S
C623 O627 1.282 . S
O624 U606 2.441 . S
O624 C610 1.249 . S
O625 U606 2.420 . S
O625 C610 1.202 . S
O626 U606 2.455 . S
O626 C623 1.301 . S
O627 U606 2.449 . S
O627 C623 1.282 . S
H628 C601 0.931 . S
H629 C603 0.929 . S
H630 C604 0.930 . S
H631 C605 0.931 . S
H632 C612 0.943 . S
H633 C613 0.930 . S
H634 C614 0.929 . S
H635 C616 0.930 . S
H636 C618 0.932 . S
H637 C619 0.929 . S
H638 C620 0.928 . S
H639 C622 0.932 . S
Li640 N657 1.981 1_554 S
Li640 O700 1.956 . S
Li640 O701 1.970 . S
Li640 O702 1.961 1_554 S
Li641 N665 1.990 . S
Li641 O700 1.970 . S
Li641 O701 1.956 . S
Li641 O703 1.961 . S
Li642 N687 1.990 . S
Li642 O700 1.961 1_556 S
Li642 O702 1.956 . S
Li642 O703 1.970 1_556 S
Li643 N693 1.990 . S
Li643 O701 1.961 . S
Li643 O702 1.970 1_554 S
Li643 O703 1.956 . S
C644 C646 1.408 . S
C644 C647 1.288 1_554 S
C644 O700 1.337 . S
N645 C648 1.314 1_556 S
N645 C649 1.279 . S
C646 C644 1.408 . S
C646 C648 1.353 . S
C646 H704 0.929 . S
C647 C644 1.288 1_556 S
C647 C649 1.358 . S
C647 H705 0.930 . S
C648 N645 1.314 1_554 S
C648 C646 1.353 . S
C648 H706 0.930 . S
C649 N645 1.279 . S
C649 C647 1.358 . S
C649 H707 0.930 . S
C650 C653 1.348 . S
C650 C654 1.356 . S
C650 O701 1.325 . S
C651 N652 1.279 . S
C651 C654 1.358 . S
C651 H708 0.930 . S
N652 C651 1.279 . S
N652 C655 1.314 . S
C653 C650 1.348 . S
C653 C655 1.353 . S
C653 H709 0.929 . S
C654 C650 1.356 . S
C654 C651 1.358 . S
C654 H710 0.930 . S
C655 N652 1.314 . S
C655 C653 1.353 . S
C655 H711 0.930 . S
C656 N657 1.329 . S
C656 C661 1.353 . S
C656 H662 0.930 . S
N657 Li640 1.981 1_556 S
N657 C656 1.329 . S
N657 C659 1.272 1_556 S
C658 C659 1.352 1_556 S
C658 C660 1.366 . S
C658 H712 0.927 1_556 S
C659 N657 1.272 1_554 S
C659 C658 1.352 1_554 S
C659 H663 0.942 . S
C660 C658 1.366 . S
C660 C661 1.348 . S
C661 C656 1.353 . S
C661 C660 1.348 . S
C661 H713 0.929 . S
H662 C656 0.930 . S
H663 C659 0.942 . S
C664 N665 1.314 . S
C664 C666 1.353 . S
C664 H670 0.930 . S
N665 Li641 1.990 . S
N665 C664 1.314 . S
N665 C668 1.279 . S
C666 C664 1.353 . S
C666 C669 1.348 . S
C666 H714 0.929 . S
C667 C668 1.358 . S
C667 C669 1.356 . S
C667 H715 0.930 . S
C668 N665 1.279 . S
C668 C667 1.358 . S
C668 H671 0.930 . S
C669 C666 1.348 . S
C669 C667 1.356 . S
H670 C664 0.930 . S
H671 C668 0.930 . S
C672 C674 1.348 . S
C672 C675 1.356 . S
C672 O702 1.325 . S
N673 C676 1.314 . S
N673 C677 1.279 . S
C674 C672 1.348 . S
C674 C676 1.353 . S
C674 H716 0.929 . S
C675 C672 1.356 . S
C675 C677 1.358 . S
C675 H717 0.930 . S
C676 N673 1.314 . S
C676 C674 1.353 . S
C676 H718 0.930 . S
C677 N673 1.279 . S
C677 C675 1.358 . S
C677 H719 0.930 . S
C678 C679 1.348 1_554 S
C678 C680 1.356 . S
C678 O703 1.325 . S
C679 C678 1.348 1_556 S
C679 C681 1.345 1_556 S
C679 H720 0.929 . S
C680 C678 1.356 . S
C680 C682 1.358 . S
C680 H721 0.930 . S
C681 C679 1.345 1_554 S
C681 N683 1.354 . S
C681 H722 0.895 1_554 S
C682 C680 1.358 . S
C682 N683 1.279 . S
C682 H723 0.930 . S
N683 C681 1.354 . S
N683 C682 1.279 . S
C684 C686 1.353 . S
C684 N687 1.314 . S
C684 H690 0.930 . S
C685 N687 1.279 . S
C685 C688 1.358 . S
C685 H691 0.930 . S
C686 C684 1.353 . S
C686 C689 1.348 . S
C686 H724 0.929 . S
N687 Li642 1.990 . S
N687 C684 1.314 . S
N687 C685 1.279 . S
C688 C685 1.358 . S
C688 C689 1.356 . S
C688 H725 0.930 . S
C689 C686 1.348 . S
C689 C688 1.356 . S
H690 C684 0.930 . S
H691 C685 0.930 . S
C692 N693 1.314 . S
C692 C694 1.353 . S
C692 H698 0.930 . S
N693 Li643 1.990 . S
N693 C692 1.314 . S
N693 C696 1.279 . S
C694 C692 1.353 . S
C694 C697 1.348 . S
C694 H726 0.929 . S
C695 C696 1.358 . S
C695 C697 1.356 . S
C695 H727 0.930 . S
C696 N693 1.279 . S
C696 C695 1.358 . S
C696 H699 0.930 . S
C697 C694 1.348 . S
C697 C695 1.356 . S
H698 C692 0.930 . S
H699 C696 0.930 . S
O700 Li640 1.956 . S
O700 Li641 1.970 . S
O700 Li642 1.961 1_554 S
O700 C644 1.337 . S
O701 Li640 1.970 . S
O701 Li641 1.956 . S
O701 Li643 1.961 . S
O701 C650 1.325 . S
O702 Li640 1.961 1_556 S
O702 Li642 1.956 . S
O702 Li643 1.970 1_556 S
O702 C672 1.325 . S
O703 Li641 1.961 . S
O703 Li642 1.970 1_554 S
O703 Li643 1.956 . S
O703 C678 1.325 . S
H704 C646 0.929 . S
H705 C647 0.930 . S
H706 C648 0.930 . S
H707 C649 0.930 . S
H708 C651 0.930 . S
H709 C653 0.929 . S
H710 C654 0.930 . S
H711 C655 0.930 . S
H712 C658 0.927 1_554 S
H713 C661 0.929 . S
H714 C666 0.929 . S
H715 C667 0.930 . S
H716 C674 0.929 . S
H717 C675 0.930 . S
H718 C676 0.930 . S
H719 C677 0.930 . S
H720 C679 0.929 . S
H721 C680 0.930 . S
H722 C681 0.895 1_556 S
H723 C682 0.930 . S
H724 C686 0.929 . S
H725 C688 0.930 . S
H726 C694 0.929 . S
H727 C695 0.930 . S
Li728 N745 1.990 . S
Li728 O788 1.956 . S
Li728 O789 1.970 . S
Li728 O790 1.961 . S
Li729 N753 1.990 . S
Li729 O788 1.970 . S
Li729 O789 1.956 . S
Li729 O791 1.961 . S
Li730 N775 1.990 . S
Li730 O788 1.961 . S
Li730 O790 1.956 . S
Li730 O791 1.970 . S
Li731 N781 1.990 . S
Li731 O789 1.961 . S
Li731 O790 1.970 . S
Li731 O791 1.956 . S
C732 C734 1.348 . S
C732 C735 1.356 . S
C732 O788 1.325 . S
N733 C736 1.314 . S
N733 C737 1.279 . S
C734 C732 1.348 . S
C734 C736 1.353 . S
C734 H792 0.929 . S
C735 C732 1.356 . S
C735 C737 1.358 . S
C735 H793 0.930 . S
C736 N733 1.314 . S
C736 C734 1.353 . S
C736 H794 0.930 . S
C737 N733 1.279 . S
C737 C735 1.358 . S
C737 H795 0.930 . S
C738 C741 1.348 . S
C738 C742 1.356 . S
C738 O789 1.325 . S
C739 N740 1.279 . S
C739 C742 1.358 . S
C739 H796 0.930 . S
N740 C739 1.279 . S
N740 C743 1.314 . S
C741 C738 1.348 . S
C741 C743 1.353 . S
C741 H797 0.929 . S
C742 C738 1.356 . S
C742 C739 1.358 . S
C742 H798 0.930 . S
C743 N740 1.314 . S
C743 C741 1.353 . S
C743 H799 0.930 . S
C744 N745 1.314 . S
C744 C749 1.353 . S
C744 H750 0.930 . S
N745 Li728 1.990 . S
N745 C744 1.314 . S
N745 C747 1.279 . S
C746 C747 1.358 . S
C746 C748 1.356 . S
C746 H800 0.930 . S
C747 N745 1.279 . S
C747 C746 1.358 . S
C747 H751 0.930 . S
C748 C746 1.356 . S
C748 C749 1.348 . S
C749 C744 1.353 . S
C749 C748 1.348 . S
C749 H801 0.929 . S
H750 C744 0.930 . S
H751 C747 0.930 . S
C752 N753 1.314 . S
C752 C754 1.353 . S
C752 H758 0.930 . S
N753 Li729 1.990 . S
N753 C752 1.314 . S
N753 C756 1.279 . S
C754 C752 1.353 . S
C754 C757 1.348 . S
C754 H802 0.929 . S
C755 C756 1.358 . S
C755 C757 1.356 . S
C755 H803 0.930 . S
C756 N753 1.279 . S
C756 C755 1.358 . S
C756 H759 0.930 . S
C757 C754 1.348 . S
C757 C755 1.356 . S
H758 C752 0.930 . S
H759 C756 0.930 . S
C760 C762 1.348 . S
C760 C763 1.356 . S
C760 O790 1.325 . S
N761 C764 1.314 . S
N761 C765 1.279 . S
C762 C760 1.348 . S
C762 C764 1.353 . S
C762 H804 0.929 . S
C763 C760 1.356 . S
C763 C765 1.358 . S
C763 H805 0.930 . S
C764 N761 1.314 . S
C764 C762 1.353 . S
C764 H806 0.930 . S
C765 N761 1.279 . S
C765 C763 1.358 . S
C765 H807 0.930 . S
C766 C767 1.348 . S
C766 C768 1.356 . S
C766 O791 1.325 . S
C767 C766 1.348 . S
C767 C769 1.353 . S
C767 H808 0.929 . S
C768 C766 1.356 . S
C768 C770 1.358 . S
C768 H809 0.930 . S
C769 C767 1.353 . S
C769 N771 1.314 . S
C769 H810 0.930 . S
C770 C768 1.358 . S
C770 N771 1.279 . S
C770 H811 0.930 . S
N771 C769 1.314 . S
N771 C770 1.279 . S
C772 C774 1.353 . S
C772 N775 1.314 . S
C772 H778 0.930 . S
C773 N775 1.279 . S
C773 C776 1.358 . S
C773 H779 0.930 . S
C774 C772 1.353 . S
C774 C777 1.348 . S
C774 H812 0.929 . S
N775 Li730 1.990 . S
N775 C772 1.314 . S
N775 C773 1.279 . S
C776 C773 1.358 . S
C776 C777 1.356 . S
C776 H813 0.930 . S
C777 C774 1.348 . S
C777 C776 1.356 . S
H778 C772 0.930 . S
H779 C773 0.930 . S
C780 N781 1.314 . S
C780 C782 1.353 . S
C780 H786 0.930 . S
N781 Li731 1.990 . S
N781 C780 1.314 . S
N781 C784 1.279 . S
C782 C780 1.353 . S
C782 C785 1.348 . S
C782 H814 0.929 . S
C783 C784 1.358 . S
C783 C785 1.356 . S
C783 H815 0.930 . S
C784 N781 1.279 . S
C784 C783 1.358 . S
C784 H787 0.930 . S
C785 C782 1.348 . S
C785 C783 1.356 . S
H786 C780 0.930 . S
H787 C784 0.930 . S
O788 Li728 1.956 . S
O788 Li729 1.970 . S
O788 Li730 1.961 . S
O788 C732 1.325 . S
O789 Li728 1.970 . S
O789 Li729 1.956 . S
O789 Li731 1.961 . S
O789 C738 1.325 . S
O790 Li728 1.961 . S
O790 Li730 1.956 . S
O790 Li731 1.970 . S
O790 C760 1.325 . S
O791 Li729 1.961 . S
O791 Li730 1.970 . S
O791 Li731 1.956 . S
O791 C766 1.325 . S
H792 C734 0.929 . S
H793 C735 0.930 . S
H794 C736 0.930 . S
H795 C737 0.930 . S
H796 C739 0.930 . S
H797 C741 0.929 . S
H798 C742 0.930 . S
H799 C743 0.930 . S
H800 C746 0.930 . S
H801 C749 0.929 . S
H802 C754 0.929 . S
H803 C755 0.930 . S
H804 C762 0.929 . S
H805 C763 0.930 . S
H806 C764 0.930 . S
H807 C765 0.930 . S
H808 C767 0.929 . S
H809 C768 0.930 . S
H810 C769 0.930 . S
H811 C770 0.930 . S
H812 C774 0.929 . S
H813 C776 0.930 . S
H814 C782 0.929 . S
H815 C783 0.930 . S
Li816 N833 1.990 . S
Li816 O876 1.956 . S
Li816 O877 1.970 1_556 S
Li816 O878 1.961 . S
Li817 N841 1.990 . S
Li817 O876 1.970 1_554 S
Li817 O877 1.956 . S
Li817 O879 1.961 . S
Li818 N863 1.990 . S
Li818 O876 1.961 . S
Li818 O878 1.956 . S
Li818 O879 1.970 1_556 S
Li819 N869 1.990 . S
Li819 O877 1.961 . S
Li819 O878 1.970 1_554 S
Li819 O879 1.956 . S
C820 C822 1.348 1_556 S
C820 C823 1.356 . S
C820 O876 1.325 . S
N821 C824 1.314 1_556 S
N821 C825 1.279 . S
C822 C820 1.348 1_554 S
C822 C824 1.353 . S
C822 H880 0.929 . S
C823 C820 1.356 . S
C823 C825 1.358 . S
C823 H881 0.930 . S
C824 N821 1.314 1_554 S
C824 C822 1.353 . S
C824 H882 0.930 . S
C825 N821 1.279 . S
C825 C823 1.358 . S
C825 H883 0.930 . S
C826 C829 1.348 . S
C826 C830 1.356 . S
C826 O877 1.325 . S
C827 N828 1.279 . S
C827 C830 1.358 . S
C827 H884 0.930 . S
N828 C827 1.279 . S
N828 C831 1.314 . S
C829 C826 1.348 . S
C829 C831 1.353 . S
C829 H885 0.929 . S
C830 C826 1.356 . S
C830 C827 1.358 . S
C830 H886 0.930 . S
C831 N828 1.314 . S
C831 C829 1.353 . S
C831 H887 0.930 . S
C832 N833 1.314 . S
C832 C837 1.353 . S
C832 H838 0.930 . S
N833 Li816 1.990 . S
N833 C832 1.314 . S
N833 C835 1.279 . S
C834 C835 1.358 . S
C834 C836 1.356 . S
C834 H888 0.930 . S
C835 N833 1.279 . S
C835 C834 1.358 . S
C835 H839 0.930 . S
C836 C834 1.356 . S
C836 C837 1.348 . S
C837 C832 1.353 . S
C837 C836 1.348 . S
C837 H889 0.929 . S
H838 C832 0.930 . S
H839 C835 0.930 . S
C840 N841 1.314 . S
C840 C842 1.353 . S
C840 H846 0.930 . S
N841 Li817 1.990 . S
N841 C840 1.314 . S
N841 C844 1.279 . S
C842 C840 1.353 . S
C842 C845 1.348 . S
C842 H890 0.929 . S
C843 C844 1.358 . S
C843 C845 1.356 . S
C843 H891 0.930 . S
C844 N841 1.279 . S
C844 C843 1.358 . S
C844 H847 0.930 . S
C845 C842 1.348 . S
C845 C843 1.356 . S
H846 C840 0.930 . S
H847 C844 0.930 . S
C848 C850 1.348 . S
C848 C851 1.356 . S
C848 O878 1.325 . S
N849 C852 1.314 . S
N849 C853 1.279 . S
C850 C848 1.348 . S
C850 C852 1.353 . S
C850 H892 0.929 . S
C851 C848 1.356 . S
C851 C853 1.358 . S
C851 H893 0.930 . S
C852 N849 1.314 . S
C852 C850 1.353 . S
C852 H894 0.930 . S
C853 N849 1.279 . S
C853 C851 1.358 . S
C853 H895 0.930 . S
C854 C855 1.348 1_554 S
C854 C856 1.356 . S
C854 O879 1.325 . S
C855 C854 1.348 1_556 S
C855 C857 1.353 . S
C855 H896 0.929 . S
C856 C854 1.356 . S
C856 C858 1.358 . S
C856 H897 0.930 . S
C857 C855 1.353 . S
C857 N859 1.314 1_556 S
C857 H898 0.930 . S
C858 C856 1.358 . S
C858 N859 1.279 . S
C858 H899 0.930 . S
N859 C857 1.314 1_554 S
N859 C858 1.279 . S
C860 C862 1.353 . S
C860 N863 1.314 . S
C860 H866 0.930 . S
C861 N863 1.279 . S
C861 C864 1.358 . S
C861 H867 0.930 . S
C862 C860 1.353 . S
C862 C865 1.348 . S
C862 H900 0.929 . S
N863 Li818 1.990 . S
N863 C860 1.314 . S
N863 C861 1.279 . S
C864 C861 1.358 . S
C864 C865 1.356 . S
C864 H901 0.930 . S
C865 C862 1.348 . S
C865 C864 1.356 . S
H866 C860 0.930 . S
H867 C861 0.930 . S
C868 N869 1.314 . S
C868 C870 1.353 . S
C868 H874 0.930 . S
N869 Li819 1.990 . S
N869 C868 1.314 . S
N869 C872 1.279 . S
C870 C868 1.353 . S
C870 C873 1.348 . S
C870 H902 0.929 . S
C871 C872 1.358 . S
C871 C873 1.356 . S
C871 H903 0.930 . S
C872 N869 1.279 . S
C872 C871 1.358 . S
C872 H875 0.930 . S
C873 C870 1.348 . S
C873 C871 1.356 . S
H874 C868 0.930 . S
H875 C872 0.930 . S
O876 Li816 1.956 . S
O876 Li817 1.970 1_556 S
O876 Li818 1.961 . S
O876 C820 1.325 . S
O877 Li816 1.970 1_554 S
O877 Li817 1.956 . S
O877 Li819 1.961 . S
O877 C826 1.325 . S
O878 Li816 1.961 . S
O878 Li818 1.956 . S
O878 Li819 1.970 1_556 S
O878 C848 1.325 . S
O879 Li817 1.961 . S
O879 Li818 1.970 1_554 S
O879 Li819 1.956 . S
O879 C854 1.325 . S
H880 C822 0.929 . S
H881 C823 0.930 . S
H882 C824 0.930 . S
H883 C825 0.930 . S
H884 C827 0.930 . S
H885 C829 0.929 . S
H886 C830 0.930 . S
H887 C831 0.930 . S
H888 C834 0.930 . S
H889 C837 0.929 . S
H890 C842 0.929 . S
H891 C843 0.930 . S
H892 C850 0.929 . S
H893 C851 0.930 . S
H894 C852 0.930 . S
H895 C853 0.930 . S
H896 C855 0.929 . S
H897 C856 0.930 . S
H898 C857 0.930 . S
H899 C858 0.930 . S
H900 C862 0.929 . S
H901 C864 0.930 . S
H902 C870 0.929 . S
H903 C871 0.930 . S
Li904 N921 1.990 . S
Li904 O964 1.956 . S
Li904 O965 1.970 1_545 S
Li904 O966 1.961 . S
Li905 N929 1.990 . S
Li905 O964 1.970 1_565 S
Li905 O965 1.956 . S
Li905 O967 1.961 . S
Li906 N951 1.990 . S
Li906 O964 1.961 . S
Li906 O966 1.956 . S
Li906 O967 1.970 1_545 S
Li907 N957 1.990 . S
Li907 O965 1.961 . S
Li907 O966 1.970 1_565 S
Li907 O967 1.956 . S
C908 C910 1.348 . S
C908 C911 1.356 . S
C908 O964 1.325 . S
N909 C912 1.314 . S
N909 C913 1.279 . S
C910 C908 1.348 . S
C910 C912 1.353 . S
C910 H968 0.929 . S
C911 C908 1.356 . S
C911 C913 1.358 . S
C911 H969 0.930 . S
C912 N909 1.314 . S
C912 C910 1.353 . S
C912 H970 0.930 . S
C913 N909 1.279 . S
C913 C911 1.358 . S
C913 H971 0.930 . S
C914 C917 1.348 1_565 S
C914 C918 1.356 . S
C914 O965 1.325 . S
C915 N916 1.279 . S
C915 C918 1.358 . S
C915 H972 0.930 . S
N916 C915 1.279 . S
N916 C919 1.314 1_565 S
C917 C914 1.348 1_545 S
C917 C919 1.353 . S
C917 H973 0.929 . S
C918 C914 1.356 . S
C918 C915 1.358 . S
C918 H974 0.930 . S
C919 N916 1.314 1_545 S
C919 C917 1.353 . S
C919 H975 0.930 . S
C920 N921 1.314 . S
C920 C925 1.353 . S
C920 H926 0.930 . S
N921 Li904 1.990 . S
N921 C920 1.314 . S
N921 C923 1.279 . S
C922 C923 1.358 . S
C922 C924 1.356 . S
C922 H976 0.930 . S
C923 N921 1.279 . S
C923 C922 1.358 . S
C923 H927 0.930 . S
C924 C922 1.356 . S
C924 C925 1.348 . S
C925 C920 1.353 . S
C925 C924 1.348 . S
C925 H977 0.929 . S
H926 C920 0.930 . S
H927 C923 0.930 . S
C928 N929 1.314 . S
C928 C930 1.353 . S
C928 H934 0.930 . S
N929 Li905 1.990 . S
N929 C928 1.314 . S
N929 C932 1.279 . S
C930 C928 1.353 . S
C930 C933 1.348 . S
C930 H978 0.929 . S
C931 C932 1.358 . S
C931 C933 1.356 . S
C931 H979 0.930 . S
C932 N929 1.279 . S
C932 C931 1.358 . S
C932 H935 0.930 . S
C933 C930 1.348 . S
C933 C931 1.356 . S
H934 C928 0.930 . S
H935 C932 0.930 . S
C936 C938 1.348 1_545 S
C936 C939 1.356 . S
C936 O966 1.325 . S
N937 C940 1.314 1_545 S
N937 C941 1.279 . S
C938 C936 1.348 1_565 S
C938 C940 1.353 . S
C938 H980 0.929 . S
C939 C936 1.356 . S
C939 C941 1.358 . S
C939 H981 0.930 . S
C940 N937 1.314 1_565 S
C940 C938 1.353 . S
C940 H982 0.930 . S
C941 N937 1.279 . S
C941 C939 1.358 . S
C941 H983 0.930 . S
C942 C943 1.348 . S
C942 C944 1.356 . S
C942 O967 1.325 . S
C943 C942 1.348 . S
C943 C945 1.353 . S
C943 H984 0.929 . S
C944 C942 1.356 . S
C944 C946 1.358 . S
C944 H985 0.930 . S
C945 C943 1.353 . S
C945 N947 1.314 . S
C945 H986 0.930 . S
C946 C944 1.358 . S
C946 N947 1.279 . S
C946 H987 0.930 . S
N947 C945 1.314 . S
N947 C946 1.279 . S
C948 C950 1.353 . S
C948 N951 1.314 . S
C948 H954 0.930 . S
C949 N951 1.279 . S
C949 C952 1.358 . S
C949 H955 0.930 . S
C950 C948 1.353 . S
C950 C953 1.348 . S
C950 H988 0.929 . S
N951 Li906 1.990 . S
N951 C948 1.314 . S
N951 C949 1.279 . S
C952 C949 1.358 . S
C952 C953 1.356 . S
C952 H989 0.930 . S
C953 C950 1.348 . S
C953 C952 1.356 . S
H954 C948 0.930 . S
H955 C949 0.930 . S
C956 N957 1.314 . S
C956 C958 1.353 . S
C956 H962 0.930 . S
N957 Li907 1.990 . S
N957 C956 1.314 . S
N957 C960 1.279 . S
C958 C956 1.353 . S
C958 C961 1.348 . S
C958 H990 0.929 . S
C959 C960 1.358 . S
C959 C961 1.356 . S
C959 H991 0.930 . S
C960 N957 1.279 . S
C960 C959 1.358 . S
C960 H963 0.930 . S
C961 C958 1.348 . S
C961 C959 1.356 . S
H962 C956 0.930 . S
H963 C960 0.930 . S
O964 Li904 1.956 . S
O964 Li905 1.970 1_545 S
O964 Li906 1.961 . S
O964 C908 1.325 . S
O965 Li904 1.970 1_565 S
O965 Li905 1.956 . S
O965 Li907 1.961 . S
O965 C914 1.325 . S
O966 Li904 1.961 . S
O966 Li906 1.956 . S
O966 Li907 1.970 1_545 S
O966 C936 1.325 . S
O967 Li905 1.961 . S
O967 Li906 1.970 1_565 S
O967 Li907 1.956 . S
O967 C942 1.325 . S
H968 C910 0.929 . S
H969 C911 0.930 . S
H970 C912 0.930 . S
H971 C913 0.930 . S
H972 C915 0.930 . S
H973 C917 0.929 . S
H974 C918 0.930 . S
H975 C919 0.930 . S
H976 C922 0.930 . S
H977 C925 0.929 . S
H978 C930 0.929 . S
H979 C931 0.930 . S
H980 C938 0.929 . S
H981 C939 0.930 . S
H982 C940 0.930 . S
H983 C941 0.930 . S
H984 C943 0.929 . S
H985 C944 0.930 . S
H986 C945 0.930 . S
H987 C946 0.930 . S
H988 C950 0.929 . S
H989 C952 0.930 . S
H990 C958 0.929 . S
H991 C959 0.930 . S
Li992 N1009 1.990 . S
Li992 O1052 1.956 . S
Li992 O1053 1.970 . S
Li992 O1054 1.961 . S
Li993 N1017 1.990 . S
Li993 O1052 1.970 . S
Li993 O1053 1.956 . S
Li993 O1055 1.961 . S
Li994 N1039 1.990 . S
Li994 O1052 1.961 . S
Li994 O1054 1.956 . S
Li994 O1055 1.970 . S
Li995 N1045 1.990 . S
Li995 O1053 1.961 . S
Li995 O1054 1.970 . S
Li995 O1055 1.956 . S
C996 C998 1.348 . S
C996 C999 1.356 . S
C996 O1052 1.325 . S
N997 C1000 1.314 . S
N997 C1001 1.279 . S
C998 C996 1.348 . S
C998 C1000 1.353 . S
C998 H1056 0.929 . S
C999 C996 1.356 . S
C999 C1001 1.358 . S
C999 H1057 0.930 . S
C1000 N997 1.314 . S
C1000 C998 1.353 . S
C1000 H1058 0.930 . S
C1001 N997 1.279 . S
C1001 C999 1.358 . S
C1001 H1059 0.930 . S
C1002 C1005 1.348 . S
C1002 C1006 1.356 . S
C1002 O1053 1.325 . S
C1003 N1004 1.279 . S
C1003 C1006 1.358 . S
C1003 H1060 0.930 . S
N1004 C1003 1.279 . S
N1004 C1007 1.314 . S
C1005 C1002 1.348 . S
C1005 C1007 1.353 . S
C1005 H1061 0.929 . S
C1006 C1002 1.356 . S
C1006 C1003 1.358 . S
C1006 H1062 0.930 . S
C1007 N1004 1.314 . S
C1007 C1005 1.353 . S
C1007 H1063 0.930 . S
C1008 N1009 1.314 . S
C1008 C1013 1.353 . S
C1008 H1014 0.930 . S
N1009 Li992 1.990 . S
N1009 C1008 1.314 . S
N1009 C1011 1.279 . S
C1010 C1011 1.358 . S
C1010 C1012 1.356 . S
C1010 H1064 0.930 . S
C1011 N1009 1.279 . S
C1011 C1010 1.358 . S
C1011 H1015 0.930 . S
C1012 C1010 1.356 . S
C1012 C1013 1.348 . S
C1013 C1008 1.353 . S
C1013 C1012 1.348 . S
C1013 H1065 0.929 . S
H1014 C1008 0.930 . S
H1015 C1011 0.930 . S
C1016 N1017 1.314 . S
C1016 C1018 1.353 . S
C1016 H1022 0.930 . S
N1017 Li993 1.990 . S
N1017 C1016 1.314 . S
N1017 C1020 1.279 . S
C1018 C1016 1.353 . S
C1018 C1021 1.348 . S
C1018 H1066 0.929 . S
C1019 C1020 1.358 . S
C1019 C1021 1.356 . S
C1019 H1067 0.930 . S
C1020 N1017 1.279 . S
C1020 C1019 1.358 . S
C1020 H1023 0.930 . S
C1021 C1018 1.348 . S
C1021 C1019 1.356 . S
H1022 C1016 0.930 . S
H1023 C1020 0.930 . S
C1024 C1026 1.348 . S
C1024 C1027 1.356 . S
C1024 O1054 1.325 . S
N1025 C1028 1.314 . S
N1025 C1029 1.279 . S
C1026 C1024 1.348 . S
C1026 C1028 1.353 . S
C1026 H1068 0.929 . S
C1027 C1024 1.356 . S
C1027 C1029 1.358 . S
C1027 H1069 0.930 . S
C1028 N1025 1.314 . S
C1028 C1026 1.353 . S
C1028 H1070 0.930 . S
C1029 N1025 1.279 . S
C1029 C1027 1.358 . S
C1029 H1071 0.930 . S
C1030 C1031 1.348 . S
C1030 C1032 1.356 . S
C1030 O1055 1.325 . S
C1031 C1030 1.348 . S
C1031 C1033 1.353 . S
C1031 H1072 0.929 . S
C1032 C1030 1.356 . S
C1032 C1034 1.358 . S
C1032 H1073 0.930 . S
C1033 C1031 1.353 . S
C1033 N1035 1.314 . S
C1033 H1074 0.930 . S
C1034 C1032 1.358 . S
C1034 N1035 1.279 . S
C1034 H1075 0.930 . S
N1035 C1033 1.314 . S
N1035 C1034 1.279 . S
C1036 C1038 1.353 . S
C1036 N1039 1.314 . S
C1036 H1042 0.930 . S
C1037 N1039 1.279 . S
C1037 C1040 1.358 . S
C1037 H1043 0.930 . S
C1038 C1036 1.353 . S
C1038 C1041 1.348 . S
C1038 H1076 0.929 . S
N1039 Li994 1.990 . S
N1039 C1036 1.314 . S
N1039 C1037 1.279 . S
C1040 C1037 1.358 . S
C1040 C1041 1.356 . S
C1040 H1077 0.930 . S
C1041 C1038 1.348 . S
C1041 C1040 1.356 . S
H1042 C1036 0.930 . S
H1043 C1037 0.930 . S
C1044 N1045 1.314 . S
C1044 C1046 1.353 . S
C1044 H1050 0.930 . S
N1045 Li995 1.990 . S
N1045 C1044 1.314 . S
N1045 C1048 1.279 . S
C1046 C1044 1.353 . S
C1046 C1049 1.348 . S
C1046 H1078 0.929 . S
C1047 C1048 1.358 . S
C1047 C1049 1.356 . S
C1047 H1079 0.930 . S
C1048 N1045 1.279 . S
C1048 C1047 1.358 . S
C1048 H1051 0.930 . S
C1049 C1046 1.348 . S
C1049 C1047 1.356 . S
H1050 C1044 0.930 . S
H1051 C1048 0.930 . S
O1052 Li992 1.956 . S
O1052 Li993 1.970 . S
O1052 Li994 1.961 . S
O1052 C996 1.325 . S
O1053 Li992 1.970 . S
O1053 Li993 1.956 . S
O1053 Li995 1.961 . S
O1053 C1002 1.325 . S
O1054 Li992 1.961 . S
O1054 Li994 1.956 . S
O1054 Li995 1.970 . S
O1054 C1024 1.325 . S
O1055 Li993 1.961 . S
O1055 Li994 1.970 . S
O1055 Li995 1.956 . S
O1055 C1030 1.325 . S
H1056 C998 0.929 . S
H1057 C999 0.930 . S
H1058 C1000 0.930 . S
H1059 C1001 0.930 . S
H1060 C1003 0.930 . S
H1061 C1005 0.929 . S
H1062 C1006 0.930 . S
H1063 C1007 0.930 . S
H1064 C1010 0.930 . S
H1065 C1013 0.929 . S
H1066 C1018 0.929 . S
H1067 C1019 0.930 . S
H1068 C1026 0.929 . S
H1069 C1027 0.930 . S
H1070 C1028 0.930 . S
H1071 C1029 0.930 . S
H1072 C1031 0.929 . S
H1073 C1032 0.930 . S
H1074 C1033 0.930 . S
H1075 C1034 0.930 . S
H1076 C1038 0.929 . S
H1077 C1040 0.930 . S
H1078 C1046 0.929 . S
H1079 C1047 0.930 . S
Li1080 N1097 1.990 . S
Li1080 O1140 1.956 . S
Li1080 O1141 1.970 . S
Li1080 O1142 1.961 . S
Li1081 N1105 1.990 . S
Li1081 O1140 1.970 . S
Li1081 O1141 1.956 . S
Li1081 O1143 1.961 . S
Li1082 N1127 1.990 . S
Li1082 O1140 1.961 . S
Li1082 O1142 1.956 . S
Li1082 O1143 1.970 . S
Li1083 N1133 1.990 . S
Li1083 O1141 1.961 . S
Li1083 O1142 1.970 . S
Li1083 O1143 1.956 . S
C1084 C1086 1.348 . S
C1084 C1087 1.356 . S
C1084 O1140 1.325 . S
N1085 C1088 1.314 . S
N1085 C1089 1.279 . S
C1086 C1084 1.348 . S
C1086 C1088 1.353 . S
C1086 H1144 0.929 . S
C1087 C1084 1.356 . S
C1087 C1089 1.358 . S
C1087 H1145 0.930 . S
C1088 N1085 1.314 . S
C1088 C1086 1.353 . S
C1088 H1146 0.930 . S
C1089 N1085 1.279 . S
C1089 C1087 1.358 . S
C1089 H1147 0.930 . S
C1090 C1093 1.348 . S
C1090 C1094 1.356 . S
C1090 O1141 1.325 . S
C1091 N1092 1.279 . S
C1091 C1094 1.358 . S
C1091 H1148 0.930 . S
N1092 C1091 1.279 . S
N1092 C1095 1.314 . S
C1093 C1090 1.348 . S
C1093 C1095 1.353 . S
C1093 H1149 0.929 . S
C1094 C1090 1.356 . S
C1094 C1091 1.358 . S
C1094 H1150 0.930 . S
C1095 N1092 1.314 . S
C1095 C1093 1.353 . S
C1095 H1151 0.930 . S
C1096 N1097 1.314 . S
C1096 C1101 1.353 . S
C1096 H1102 0.930 . S
N1097 Li1080 1.990 . S
N1097 C1096 1.314 . S
N1097 C1099 1.279 . S
C1098 C1099 1.358 . S
C1098 C1100 1.356 . S
C1098 H1152 0.930 . S
C1099 N1097 1.279 . S
C1099 C1098 1.358 . S
C1099 H1103 0.930 . S
C1100 C1098 1.356 . S
C1100 C1101 1.348 . S
C1101 C1096 1.353 . S
C1101 C1100 1.348 . S
C1101 H1153 0.929 . S
H1102 C1096 0.930 . S
H1103 C1099 0.930 . S
C1104 N1105 1.314 . S
C1104 C1106 1.353 . S
C1104 H1110 0.930 . S
N1105 Li1081 1.990 . S
N1105 C1104 1.314 . S
N1105 C1108 1.279 . S
C1106 C1104 1.353 . S
C1106 C1109 1.348 . S
C1106 H1154 0.929 . S
C1107 C1108 1.358 . S
C1107 C1109 1.356 . S
C1107 H1155 0.930 . S
C1108 N1105 1.279 . S
C1108 C1107 1.358 . S
C1108 H1111 0.930 . S
C1109 C1106 1.348 . S
C1109 C1107 1.356 . S
H1110 C1104 0.930 . S
H1111 C1108 0.930 . S
C1112 C1114 1.348 . S
C1112 C1115 1.356 . S
C1112 O1142 1.325 . S
N1113 C1116 1.314 . S
N1113 C1117 1.279 . S
C1114 C1112 1.348 . S
C1114 C1116 1.353 . S
C1114 H1156 0.929 . S
C1115 C1112 1.356 . S
C1115 C1117 1.358 . S
C1115 H1157 0.930 . S
C1116 N1113 1.314 . S
C1116 C1114 1.353 . S
C1116 H1158 0.930 . S
C1117 N1113 1.279 . S
C1117 C1115 1.358 . S
C1117 H1159 0.930 . S
C1118 C1119 1.348 . S
C1118 C1120 1.356 . S
C1118 O1143 1.325 . S
C1119 C1118 1.348 . S
C1119 C1121 1.353 . S
C1119 H1160 0.929 . S
C1120 C1118 1.356 . S
C1120 C1122 1.358 . S
C1120 H1161 0.930 . S
C1121 C1119 1.353 . S
C1121 N1123 1.314 . S
C1121 H1162 0.930 . S
C1122 C1120 1.358 . S
C1122 N1123 1.279 . S
C1122 H1163 0.930 . S
N1123 C1121 1.314 . S
N1123 C1122 1.279 . S
C1124 C1126 1.353 . S
C1124 N1127 1.314 . S
C1124 H1130 0.930 . S
C1125 N1127 1.279 . S
C1125 C1128 1.358 . S
C1125 H1131 0.930 . S
C1126 C1124 1.353 . S
C1126 C1129 1.348 . S
C1126 H1164 0.929 . S
N1127 Li1082 1.990 . S
N1127 C1124 1.314 . S
N1127 C1125 1.279 . S
C1128 C1125 1.358 . S
C1128 C1129 1.356 . S
C1128 H1165 0.930 . S
C1129 C1126 1.348 . S
C1129 C1128 1.356 . S
H1130 C1124 0.930 . S
H1131 C1125 0.930 . S
C1132 N1133 1.314 . S
C1132 C1134 1.353 . S
C1132 H1138 0.930 . S
N1133 Li1083 1.990 . S
N1133 C1132 1.314 . S
N1133 C1136 1.279 . S
C1134 C1132 1.353 . S
C1134 C1137 1.348 . S
C1134 H1166 0.929 . S
C1135 C1136 1.358 . S
C1135 C1137 1.356 . S
C1135 H1167 0.930 . S
C1136 N1133 1.279 . S
C1136 C1135 1.358 . S
C1136 H1139 0.930 . S
C1137 C1134 1.348 . S
C1137 C1135 1.356 . S
H1138 C1132 0.930 . S
H1139 C1136 0.930 . S
O1140 Li1080 1.956 . S
O1140 Li1081 1.970 . S
O1140 Li1082 1.961 . S
O1140 C1084 1.325 . S
O1141 Li1080 1.970 . S
O1141 Li1081 1.956 . S
O1141 Li1083 1.961 . S
O1141 C1090 1.325 . S
O1142 Li1080 1.961 . S
O1142 Li1082 1.956 . S
O1142 Li1083 1.970 . S
O1142 C1112 1.325 . S
O1143 Li1081 1.961 . S
O1143 Li1082 1.970 . S
O1143 Li1083 1.956 . S
O1143 C1118 1.325 . S
H1144 C1086 0.929 . S
H1145 C1087 0.930 . S
H1146 C1088 0.930 . S
H1147 C1089 0.930 . S
H1148 C1091 0.930 . S
H1149 C1093 0.929 . S
H1150 C1094 0.930 . S
H1151 C1095 0.930 . S
H1152 C1098 0.930 . S
H1153 C1101 0.929 . S
H1154 C1106 0.929 . S
H1155 C1107 0.930 . S
H1156 C1114 0.929 . S
H1157 C1115 0.930 . S
H1158 C1116 0.930 . S
H1159 C1117 0.930 . S
H1160 C1119 0.929 . S
H1161 C1120 0.930 . S
H1162 C1121 0.930 . S
H1163 C1122 0.930 . S
H1164 C1126 0.929 . S
H1165 C1128 0.930 . S
H1166 C1134 0.929 . S
H1167 C1135 0.930 . S
Li1168 N1185 1.990 . S
Li1168 O1228 1.956 . S
Li1168 O1229 1.970 . S
Li1168 O1230 1.961 . S
Li1169 N1193 1.990 . S
Li1169 O1228 1.970 . S
Li1169 O1229 1.956 . S
Li1169 O1231 1.961 . S
Li1170 N1215 1.990 . S
Li1170 O1228 1.961 . S
Li1170 O1230 1.956 . S
Li1170 O1231 1.970 . S
Li1171 N1221 1.990 . S
Li1171 O1229 1.961 . S
Li1171 O1230 1.970 . S
Li1171 O1231 1.956 . S
C1172 C1174 1.348 . S
C1172 C1175 1.356 . S
C1172 O1228 1.325 . S
N1173 C1176 1.314 . S
N1173 C1177 1.279 . S
C1174 C1172 1.348 . S
C1174 C1176 1.353 . S
C1174 H1232 0.929 . S
C1175 C1172 1.356 . S
C1175 C1177 1.358 . S
C1175 H1233 0.930 . S
C1176 N1173 1.314 . S
C1176 C1174 1.353 . S
C1176 H1234 0.930 . S
C1177 N1173 1.279 . S
C1177 C1175 1.358 . S
C1177 H1235 0.930 . S
C1178 C1181 1.348 . S
C1178 C1182 1.356 . S
C1178 O1229 1.325 . S
C1179 N1180 1.279 . S
C1179 C1182 1.358 . S
C1179 H1236 0.930 . S
N1180 C1179 1.279 . S
N1180 C1183 1.314 . S
C1181 C1178 1.348 . S
C1181 C1183 1.353 . S
C1181 H1237 0.929 . S
C1182 C1178 1.356 . S
C1182 C1179 1.358 . S
C1182 H1238 0.930 . S
C1183 N1180 1.314 . S
C1183 C1181 1.353 . S
C1183 H1239 0.930 . S
C1184 N1185 1.314 . S
C1184 C1189 1.353 . S
C1184 H1190 0.930 . S
N1185 Li1168 1.990 . S
N1185 C1184 1.314 . S
N1185 C1187 1.279 . S
C1186 C1187 1.358 . S
C1186 C1188 1.356 . S
C1186 H1240 0.930 . S
C1187 N1185 1.279 . S
C1187 C1186 1.358 . S
C1187 H1191 0.930 . S
C1188 C1186 1.356 . S
C1188 C1189 1.348 . S
C1189 C1184 1.353 . S
C1189 C1188 1.348 . S
C1189 H1241 0.929 . S
H1190 C1184 0.930 . S
H1191 C1187 0.930 . S
C1192 N1193 1.314 . S
C1192 C1194 1.353 . S
C1192 H1198 0.930 . S
N1193 Li1169 1.990 . S
N1193 C1192 1.314 . S
N1193 C1196 1.279 . S
C1194 C1192 1.353 . S
C1194 C1197 1.348 . S
C1194 H1242 0.929 . S
C1195 C1196 1.358 . S
C1195 C1197 1.356 . S
C1195 H1243 0.930 . S
C1196 N1193 1.279 . S
C1196 C1195 1.358 . S
C1196 H1199 0.930 . S
C1197 C1194 1.348 . S
C1197 C1195 1.356 . S
H1198 C1192 0.930 . S
H1199 C1196 0.930 . S
C1200 C1202 1.348 . S
C1200 C1203 1.356 . S
C1200 O1230 1.325 . S
N1201 C1204 1.314 . S
N1201 C1205 1.279 . S
C1202 C1200 1.348 . S
C1202 C1204 1.353 . S
C1202 H1244 0.929 . S
C1203 C1200 1.356 . S
C1203 C1205 1.358 . S
C1203 H1245 0.930 . S
C1204 N1201 1.314 . S
C1204 C1202 1.353 . S
C1204 H1246 0.930 . S
C1205 N1201 1.279 . S
C1205 C1203 1.358 . S
C1205 H1247 0.930 . S
C1206 C1207 1.348 . S
C1206 C1208 1.356 . S
C1206 O1231 1.325 . S
C1207 C1206 1.348 . S
C1207 C1209 1.353 . S
C1207 H1248 0.929 . S
C1208 C1206 1.356 . S
C1208 C1210 1.358 . S
C1208 H1249 0.930 . S
C1209 C1207 1.353 . S
C1209 N1211 1.314 . S
C1209 H1250 0.930 . S
C1210 C1208 1.358 . S
C1210 N1211 1.279 . S
C1210 H1251 0.930 . S
N1211 C1209 1.314 . S
N1211 C1210 1.279 . S
C1212 C1214 1.353 . S
C1212 N1215 1.314 . S
C1212 H1218 0.930 . S
C1213 N1215 1.279 . S
C1213 C1216 1.358 . S
C1213 H1219 0.930 . S
C1214 C1212 1.353 . S
C1214 C1217 1.348 . S
C1214 H1252 0.929 . S
N1215 Li1170 1.990 . S
N1215 C1212 1.314 . S
N1215 C1213 1.279 . S
C1216 C1213 1.358 . S
C1216 C1217 1.356 . S
C1216 H1253 0.930 . S
C1217 C1214 1.348 . S
C1217 C1216 1.356 . S
H1218 C1212 0.930 . S
H1219 C1213 0.930 . S
C1220 N1221 1.314 . S
C1220 C1222 1.353 . S
C1220 H1226 0.930 . S
N1221 Li1171 1.990 . S
N1221 C1220 1.314 . S
N1221 C1224 1.279 . S
C1222 C1220 1.353 . S
C1222 C1225 1.348 . S
C1222 H1254 0.929 . S
C1223 C1224 1.358 . S
C1223 C1225 1.356 . S
C1223 H1255 0.930 . S
C1224 N1221 1.279 . S
C1224 C1223 1.358 . S
C1224 H1227 0.930 . S
C1225 C1222 1.348 . S
C1225 C1223 1.356 . S
H1226 C1220 0.930 . S
H1227 C1224 0.930 . S
O1228 Li1168 1.956 . S
O1228 Li1169 1.970 . S
O1228 Li1170 1.961 . S
O1228 C1172 1.325 . S
O1229 Li1168 1.970 . S
O1229 Li1169 1.956 . S
O1229 Li1171 1.961 . S
O1229 C1178 1.325 . S
O1230 Li1168 1.961 . S
O1230 Li1170 1.956 . S
O1230 Li1171 1.970 . S
O1230 C1200 1.325 . S
O1231 Li1169 1.961 . S
O1231 Li1170 1.970 . S
O1231 Li1171 1.956 . S
O1231 C1206 1.325 . S
H1232 C1174 0.929 . S
H1233 C1175 0.930 . S
H1234 C1176 0.930 . S
H1235 C1177 0.930 . S
H1236 C1179 0.930 . S
H1237 C1181 0.929 . S
H1238 C1182 0.930 . S
H1239 C1183 0.930 . S
H1240 C1186 0.930 . S
H1241 C1189 0.929 . S
H1242 C1194 0.929 . S
H1243 C1195 0.930 . S
H1244 C1202 0.929 . S
H1245 C1203 0.930 . S
H1246 C1204 0.930 . S
H1247 C1205 0.930 . S
H1248 C1207 0.929 . S
H1249 C1208 0.930 . S
H1250 C1209 0.930 . S
H1251 C1210 0.930 . S
H1252 C1214 0.929 . S
H1253 C1216 0.930 . S
H1254 C1222 0.929 . S
H1255 C1223 0.930 . S
Li1256 N1273 1.990 . S
Li1256 O1316 1.956 . S
Li1256 O1317 1.970 1_565 S
Li1256 O1318 1.961 . S
Li1257 N1281 1.990 . S
Li1257 O1316 1.970 1_545 S
Li1257 O1317 1.956 . S
Li1257 O1319 1.961 . S
Li1258 N1303 1.990 . S
Li1258 O1316 1.961 . S
Li1258 O1318 1.956 . S
Li1258 O1319 1.970 1_565 S
Li1259 N1309 1.990 . S
Li1259 O1317 1.961 . S
Li1259 O1318 1.970 1_545 S
Li1259 O1319 1.956 . S
C1260 C1262 1.348 . S
C1260 C1263 1.356 . S
C1260 O1316 1.325 . S
N1261 C1264 1.314 . S
N1261 C1265 1.279 . S
C1262 C1260 1.348 . S
C1262 C1264 1.353 . S
C1262 H1320 0.929 . S
C1263 C1260 1.356 . S
C1263 C1265 1.358 . S
C1263 H1321 0.930 . S
C1264 N1261 1.314 . S
C1264 C1262 1.353 . S
C1264 H1322 0.930 . S
C1265 N1261 1.279 . S
C1265 C1263 1.358 . S
C1265 H1323 0.930 . S
C1266 C1269 1.348 1_545 S
C1266 C1270 1.356 . S
C1266 O1317 1.325 . S
C1267 N1268 1.279 . S
C1267 C1270 1.358 . S
C1267 H1324 0.930 . S
N1268 C1267 1.279 . S
N1268 C1271 1.314 1_545 S
C1269 C1266 1.348 1_565 S
C1269 C1271 1.353 . S
C1269 H1325 0.929 . S
C1270 C1266 1.356 . S
C1270 C1267 1.358 . S
C1270 H1326 0.930 . S
C1271 N1268 1.314 1_565 S
C1271 C1269 1.353 . S
C1271 H1327 0.930 . S
C1272 N1273 1.314 . S
C1272 C1277 1.353 . S
C1272 H1278 0.930 . S
N1273 Li1256 1.990 . S
N1273 C1272 1.314 . S
N1273 C1275 1.279 . S
C1274 C1275 1.358 . S
C1274 C1276 1.356 . S
C1274 H1328 0.930 . S
C1275 N1273 1.279 . S
C1275 C1274 1.358 . S
C1275 H1279 0.930 . S
C1276 C1274 1.356 . S
C1276 C1277 1.348 . S
C1277 C1272 1.353 . S
C1277 C1276 1.348 . S
C1277 H1329 0.929 . S
H1278 C1272 0.930 . S
H1279 C1275 0.930 . S
C1280 N1281 1.314 . S
C1280 C1282 1.353 . S
C1280 H1286 0.930 . S
N1281 Li1257 1.990 . S
N1281 C1280 1.314 . S
N1281 C1284 1.279 . S
C1282 C1280 1.353 . S
C1282 C1285 1.348 . S
C1282 H1330 0.929 . S
C1283 C1284 1.358 . S
C1283 C1285 1.356 . S
C1283 H1331 0.930 . S
C1284 N1281 1.279 . S
C1284 C1283 1.358 . S
C1284 H1287 0.930 . S
C1285 C1282 1.348 . S
C1285 C1283 1.356 . S
H1286 C1280 0.930 . S
H1287 C1284 0.930 . S
C1288 C1290 1.348 1_565 S
C1288 C1291 1.356 . S
C1288 O1318 1.325 . S
N1289 C1292 1.314 1_565 S
N1289 C1293 1.279 . S
C1290 C1288 1.348 1_545 S
C1290 C1292 1.353 . S
C1290 H1332 0.929 . S
C1291 C1288 1.356 . S
C1291 C1293 1.358 . S
C1291 H1333 0.930 . S
C1292 N1289 1.314 1_545 S
C1292 C1290 1.353 . S
C1292 H1334 0.930 . S
C1293 N1289 1.279 . S
C1293 C1291 1.358 . S
C1293 H1335 0.930 . S
C1294 C1295 1.348 . S
C1294 C1296 1.356 . S
C1294 O1319 1.325 . S
C1295 C1294 1.348 . S
C1295 C1297 1.353 . S
C1295 H1336 0.929 . S
C1296 C1294 1.356 . S
C1296 C1298 1.358 . S
C1296 H1337 0.930 . S
C1297 C1295 1.353 . S
C1297 N1299 1.314 . S
C1297 H1338 0.930 . S
C1298 C1296 1.358 . S
C1298 N1299 1.279 . S
C1298 H1339 0.930 . S
N1299 C1297 1.314 . S
N1299 C1298 1.279 . S
C1300 C1302 1.353 . S
C1300 N1303 1.314 . S
C1300 H1306 0.930 . S
C1301 N1303 1.279 . S
C1301 C1304 1.358 . S
C1301 H1307 0.930 . S
C1302 C1300 1.353 . S
C1302 C1305 1.348 . S
C1302 H1340 0.929 . S
N1303 Li1258 1.990 . S
N1303 C1300 1.314 . S
N1303 C1301 1.279 . S
C1304 C1301 1.358 . S
C1304 C1305 1.356 . S
C1304 H1341 0.930 . S
C1305 C1302 1.348 . S
C1305 C1304 1.356 . S
H1306 C1300 0.930 . S
H1307 C1301 0.930 . S
C1308 N1309 1.314 . S
C1308 C1310 1.353 . S
C1308 H1314 0.930 . S
N1309 Li1259 1.990 . S
N1309 C1308 1.314 . S
N1309 C1312 1.279 . S
C1310 C1308 1.353 . S
C1310 C1313 1.348 . S
C1310 H1342 0.929 . S
C1311 C1312 1.358 . S
C1311 C1313 1.356 . S
C1311 H1343 0.930 . S
C1312 N1309 1.279 . S
C1312 C1311 1.358 . S
C1312 H1315 0.930 . S
C1313 C1310 1.348 . S
C1313 C1311 1.356 . S
H1314 C1308 0.930 . S
H1315 C1312 0.930 . S
O1316 Li1256 1.956 . S
O1316 Li1257 1.970 1_565 S
O1316 Li1258 1.961 . S
O1316 C1260 1.325 . S
O1317 Li1256 1.970 1_545 S
O1317 Li1257 1.956 . S
O1317 Li1259 1.961 . S
O1317 C1266 1.325 . S
O1318 Li1256 1.961 . S
O1318 Li1258 1.956 . S
O1318 Li1259 1.970 1_565 S
O1318 C1288 1.325 . S
O1319 Li1257 1.961 . S
O1319 Li1258 1.970 1_545 S
O1319 Li1259 1.956 . S
O1319 C1294 1.325 . S
H1320 C1262 0.929 . S
H1321 C1263 0.930 . S
H1322 C1264 0.930 . S
H1323 C1265 0.930 . S
H1324 C1267 0.930 . S
H1325 C1269 0.929 . S
H1326 C1270 0.930 . S
H1327 C1271 0.930 . S
H1328 C1274 0.930 . S
H1329 C1277 0.929 . S
H1330 C1282 0.929 . S
H1331 C1283 0.930 . S
H1332 C1290 0.929 . S
H1333 C1291 0.930 . S
H1334 C1292 0.930 . S
H1335 C1293 0.930 . S
H1336 C1295 0.929 . S
H1337 C1296 0.930 . S
H1338 C1297 0.930 . S
H1339 C1298 0.930 . S
H1340 C1302 0.929 . S
H1341 C1304 0.930 . S
H1342 C1310 0.929 . S
H1343 C1311 0.930 . S
Li1344 N1361 1.990 . S
Li1344 O1404 1.956 . S
Li1344 O1405 1.976 1_455 S
Li1344 O1406 1.961 . S
Li1345 N1369 1.993 . S
Li1345 O1404 1.957 1_655 S
Li1345 O1405 1.956 . S
Li1345 O1407 1.971 . S
Li1346 N1391 1.990 . S
Li1346 O1404 1.961 . S
Li1346 O1406 1.956 . S
Li1346 O1407 1.970 1_455 S
Li1347 N1397 1.990 . S
Li1347 O1405 1.957 . S
Li1347 O1406 1.970 1_655 S
Li1347 O1407 1.956 . S
C1348 C1350 1.348 . S
C1348 C1351 1.356 . S
C1348 O1404 1.325 . S
N1349 C1352 1.314 . S
N1349 C1353 1.279 . S
C1350 C1348 1.348 . S
C1350 C1352 1.353 . S
C1350 H1408 0.929 . S
C1351 C1348 1.356 . S
C1351 C1353 1.358 . S
C1351 H1409 0.930 . S
C1352 N1349 1.314 . S
C1352 C1350 1.353 . S
C1352 H1410 0.930 . S
C1353 N1349 1.279 . S
C1353 C1351 1.358 . S
C1353 H1411 0.930 . S
C1354 C1357 1.348 1_655 S
C1354 C1358 1.356 . S
C1354 O1405 1.324 . S
C1355 N1356 1.279 . S
C1355 C1358 1.358 . S
C1355 H1412 0.930 . S
N1356 C1355 1.279 . S
N1356 C1359 1.314 1_655 S
C1357 C1354 1.348 1_455 S
C1357 C1359 1.353 . S
C1357 H1413 0.929 . S
C1358 C1354 1.356 . S
C1358 C1355 1.358 . S
C1358 H1414 0.930 . S
C1359 N1356 1.314 1_455 S
C1359 C1357 1.353 . S
C1359 H1415 0.930 . S
C1360 N1361 1.314 . S
C1360 C1365 1.353 . S
C1360 H1366 0.930 . S
N1361 Li1344 1.990 . S
N1361 C1360 1.314 . S
N1361 C1363 1.279 . S
C1362 C1363 1.358 . S
C1362 C1364 1.356 . S
C1362 H1416 0.930 . S
C1363 N1361 1.279 . S
C1363 C1362 1.358 . S
C1363 H1367 0.930 . S
C1364 C1362 1.356 . S
C1364 C1365 1.348 . S
C1365 C1360 1.353 . S
C1365 C1364 1.348 . S
C1365 H1417 0.929 . S
H1366 C1360 0.930 . S
H1367 C1363 0.930 . S
C1368 N1369 1.314 . S
C1368 C1370 1.353 . S
C1368 H1374 0.930 . S
N1369 Li1345 1.993 . S
N1369 C1368 1.314 . S
N1369 C1372 1.279 . S
C1370 C1368 1.353 . S
C1370 C1373 1.348 . S
C1370 H1418 0.929 . S
C1371 C1372 1.358 . S
C1371 C1373 1.356 . S
C1371 H1419 0.930 . S
C1372 N1369 1.279 . S
C1372 C1371 1.358 . S
C1372 H1375 0.932 . S
C1373 C1370 1.348 . S
C1373 C1371 1.356 . S
H1374 C1368 0.930 . S
H1375 C1372 0.932 . S
C1376 C1378 1.348 1_455 S
C1376 C1379 1.356 . S
C1376 O1406 1.325 . S
N1377 C1380 1.314 1_455 S
N1377 C1381 1.279 . S
C1378 C1376 1.348 1_655 S
C1378 C1380 1.353 . S
C1378 H1420 0.929 . S
C1379 C1376 1.356 . S
C1379 C1381 1.358 . S
C1379 H1421 0.930 . S
C1380 N1377 1.314 1_655 S
C1380 C1378 1.353 . S
C1380 H1422 0.930 . S
C1381 N1377 1.279 . S
C1381 C1379 1.358 . S
C1381 H1423 0.930 . S
C1382 C1383 1.348 . S
C1382 C1384 1.356 . S
C1382 O1407 1.325 . S
C1383 C1382 1.348 . S
C1383 C1385 1.353 . S
C1383 H1424 0.929 . S
C1384 C1382 1.356 . S
C1384 C1386 1.358 . S
C1384 H1425 0.930 . S
C1385 C1383 1.353 . S
C1385 N1387 1.314 . S
C1385 H1426 0.930 . S
C1386 C1384 1.358 . S
C1386 N1387 1.279 . S
C1386 H1427 0.930 . S
N1387 C1385 1.314 . S
N1387 C1386 1.279 . S
C1388 C1390 1.353 . S
C1388 N1391 1.314 . S
C1388 H1394 0.930 . S
C1389 N1391 1.279 . S
C1389 C1392 1.358 . S
C1389 H1395 0.930 . S
C1390 C1388 1.353 . S
C1390 C1393 1.348 . S
C1390 H1428 0.929 . S
N1391 Li1346 1.990 . S
N1391 C1388 1.314 . S
N1391 C1389 1.279 . S
C1392 C1389 1.358 . S
C1392 C1393 1.356 . S
C1392 H1429 0.930 . S
C1393 C1390 1.348 . S
C1393 C1392 1.356 . S
H1394 C1388 0.930 . S
H1395 C1389 0.930 . S
C1396 N1397 1.314 . S
C1396 C1398 1.353 . S
C1396 H1402 0.930 . S
N1397 Li1347 1.990 . S
N1397 C1396 1.314 . S
N1397 C1400 1.279 . S
C1398 C1396 1.353 . S
C1398 C1401 1.348 . S
C1398 H1430 0.929 . S
C1399 C1400 1.358 . S
C1399 C1401 1.356 . S
C1399 H1431 0.930 . S
C1400 N1397 1.279 . S
C1400 C1399 1.358 . S
C1400 H1403 0.930 . S
C1401 C1398 1.348 . S
C1401 C1399 1.356 . S
H1402 C1396 0.930 . S
H1403 C1400 0.930 . S
O1404 Li1344 1.956 . S
O1404 Li1345 1.957 1_455 S
O1404 Li1346 1.961 . S
O1404 C1348 1.325 . S
O1405 Li1344 1.976 1_655 S
O1405 Li1345 1.956 . S
O1405 Li1347 1.957 . S
O1405 C1354 1.324 . S
O1406 Li1344 1.961 . S
O1406 Li1346 1.956 . S
O1406 Li1347 1.970 1_455 S
O1406 C1376 1.325 . S
O1407 Li1345 1.971 . S
O1407 Li1346 1.970 1_655 S
O1407 Li1347 1.956 . S
O1407 C1382 1.325 . S
H1408 C1350 0.929 . S
H1409 C1351 0.930 . S
H1410 C1352 0.930 . S
H1411 C1353 0.930 . S
H1412 C1355 0.930 . S
H1413 C1357 0.929 . S
H1414 C1358 0.930 . S
H1415 C1359 0.930 . S
H1416 C1362 0.930 . S
H1417 C1365 0.929 . S
H1418 C1370 0.929 . S
H1419 C1371 0.930 . S
H1420 C1378 0.929 . S
H1421 C1379 0.930 . S
H1422 C1380 0.930 . S
H1423 C1381 0.930 . S
H1424 C1383 0.929 . S
H1425 C1384 0.930 . S
H1426 C1385 0.930 . S
H1427 C1386 0.930 . S
H1428 C1390 0.929 . S
H1429 C1392 0.930 . S
H1430 C1398 0.929 . S
H1431 C1399 0.930 . S
Li1432 N1449 1.990 . S
Li1432 O1492 1.956 . S
Li1432 O1493 1.970 . S
Li1432 O1494 1.961 . S
Li1433 N1457 1.990 . S
Li1433 O1492 1.970 . S
Li1433 O1493 1.956 . S
Li1433 O1495 1.961 . S
Li1434 N1479 1.990 . S
Li1434 O1492 1.961 . S
Li1434 O1494 1.956 . S
Li1434 O1495 1.970 . S
Li1435 N1485 1.990 . S
Li1435 O1493 1.961 . S
Li1435 O1494 1.970 . S
Li1435 O1495 1.956 . S
C1436 C1438 1.348 . S
C1436 C1439 1.356 . S
C1436 O1492 1.325 . S
N1437 C1440 1.314 . S
N1437 C1441 1.279 . S
C1438 C1436 1.348 . S
C1438 C1440 1.353 . S
C1438 H1496 0.929 . S
C1439 C1436 1.356 . S
C1439 C1441 1.358 . S
C1439 H1497 0.930 . S
C1440 N1437 1.314 . S
C1440 C1438 1.353 . S
C1440 H1498 0.930 . S
C1441 N1437 1.279 . S
C1441 C1439 1.358 . S
C1441 H1499 0.930 . S
C1442 C1445 1.348 . S
C1442 C1446 1.356 . S
C1442 O1493 1.325 . S
C1443 N1444 1.279 . S
C1443 C1446 1.358 . S
C1443 H1500 0.930 . S
N1444 C1443 1.279 . S
N1444 C1447 1.314 . S
C1445 C1442 1.348 . S
C1445 C1447 1.353 . S
C1445 H1501 0.929 . S
C1446 C1442 1.356 . S
C1446 C1443 1.358 . S
C1446 H1502 0.930 . S
C1447 N1444 1.314 . S
C1447 C1445 1.353 . S
C1447 H1503 0.930 . S
C1448 N1449 1.314 . S
C1448 C1453 1.353 . S
C1448 H1454 0.930 . S
N1449 Li1432 1.990 . S
N1449 C1448 1.314 . S
N1449 C1451 1.279 . S
C1450 C1451 1.358 . S
C1450 C1452 1.356 . S
C1450 H1504 0.930 . S
C1451 N1449 1.279 . S
C1451 C1450 1.358 . S
C1451 H1455 0.930 . S
C1452 C1450 1.356 . S
C1452 C1453 1.348 . S
C1453 C1448 1.353 . S
C1453 C1452 1.348 . S
C1453 H1505 0.929 . S
H1454 C1448 0.930 . S
H1455 C1451 0.930 . S
C1456 N1457 1.314 . S
C1456 C1458 1.353 . S
C1456 H1462 0.930 . S
N1457 Li1433 1.990 . S
N1457 C1456 1.314 . S
N1457 C1460 1.279 . S
C1458 C1456 1.353 . S
C1458 C1461 1.348 . S
C1458 H1506 0.929 . S
C1459 C1460 1.358 . S
C1459 C1461 1.356 . S
C1459 H1507 0.930 . S
C1460 N1457 1.279 . S
C1460 C1459 1.358 . S
C1460 H1463 0.930 . S
C1461 C1458 1.348 . S
C1461 C1459 1.356 . S
H1462 C1456 0.930 . S
H1463 C1460 0.930 . S
C1464 C1466 1.348 . S
C1464 C1467 1.356 . S
C1464 O1494 1.325 . S
N1465 C1468 1.314 . S
N1465 C1469 1.279 . S
C1466 C1464 1.348 . S
C1466 C1468 1.353 . S
C1466 H1508 0.929 . S
C1467 C1464 1.356 . S
C1467 C1469 1.358 . S
C1467 H1509 0.930 . S
C1468 N1465 1.314 . S
C1468 C1466 1.353 . S
C1468 H1510 0.930 . S
C1469 N1465 1.279 . S
C1469 C1467 1.358 . S
C1469 H1511 0.930 . S
C1470 C1471 1.348 . S
C1470 C1472 1.356 . S
C1470 O1495 1.325 . S
C1471 C1470 1.348 . S
C1471 C1473 1.353 . S
C1471 H1512 0.929 . S
C1472 C1470 1.356 . S
C1472 C1474 1.358 . S
C1472 H1513 0.930 . S
C1473 C1471 1.353 . S
C1473 N1475 1.314 . S
C1473 H1514 0.930 . S
C1474 C1472 1.358 . S
C1474 N1475 1.279 . S
C1474 H1515 0.930 . S
N1475 C1473 1.314 . S
N1475 C1474 1.279 . S
C1476 C1478 1.353 . S
C1476 N1479 1.314 . S
C1476 H1482 0.930 . S
C1477 N1479 1.279 . S
C1477 C1480 1.358 . S
C1477 H1483 0.930 . S
C1478 C1476 1.353 . S
C1478 C1481 1.348 . S
C1478 H1516 0.929 . S
N1479 Li1434 1.990 . S
N1479 C1476 1.314 . S
N1479 C1477 1.279 . S
C1480 C1477 1.358 . S
C1480 C1481 1.356 . S
C1480 H1517 0.930 . S
C1481 C1478 1.348 . S
C1481 C1480 1.356 . S
H1482 C1476 0.930 . S
H1483 C1477 0.930 . S
C1484 N1485 1.314 . S
C1484 C1486 1.353 . S
C1484 H1490 0.930 . S
N1485 Li1435 1.990 . S
N1485 C1484 1.314 . S
N1485 C1488 1.279 . S
C1486 C1484 1.353 . S
C1486 C1489 1.348 . S
C1486 H1518 0.929 . S
C1487 C1488 1.358 . S
C1487 C1489 1.356 . S
C1487 H1519 0.930 . S
C1488 N1485 1.279 . S
C1488 C1487 1.358 . S
C1488 H1491 0.930 . S
C1489 C1486 1.348 . S
C1489 C1487 1.356 . S
H1490 C1484 0.930 . S
H1491 C1488 0.930 . S
O1492 Li1432 1.956 . S
O1492 Li1433 1.970 . S
O1492 Li1434 1.961 . S
O1492 C1436 1.325 . S
O1493 Li1432 1.970 . S
O1493 Li1433 1.956 . S
O1493 Li1435 1.961 . S
O1493 C1442 1.325 . S
O1494 Li1432 1.961 . S
O1494 Li1434 1.956 . S
O1494 Li1435 1.970 . S
O1494 C1464 1.325 . S
O1495 Li1433 1.961 . S
O1495 Li1434 1.970 . S
O1495 Li1435 1.956 . S
O1495 C1470 1.325 . S
H1496 C1438 0.929 . S
H1497 C1439 0.930 . S
H1498 C1440 0.930 . S
H1499 C1441 0.930 . S
H1500 C1443 0.930 . S
H1501 C1445 0.929 . S
H1502 C1446 0.930 . S
H1503 C1447 0.930 . S
H1504 C1450 0.930 . S
H1505 C1453 0.929 . S
H1506 C1458 0.929 . S
H1507 C1459 0.930 . S
H1508 C1466 0.929 . S
H1509 C1467 0.930 . S
H1510 C1468 0.930 . S
H1511 C1469 0.930 . S
H1512 C1471 0.929 . S
H1513 C1472 0.930 . S
H1514 C1473 0.930 . S
H1515 C1474 0.930 . S
H1516 C1478 0.929 . S
H1517 C1480 0.930 . S
H1518 C1486 0.929 . S
H1519 C1487 0.930 . S
Li1520 N1537 1.990 . S
Li1520 O1580 1.956 . S
Li1520 O1581 1.970 1_455 S
Li1520 O1582 1.961 . S
Li1521 N1545 1.990 . S
Li1521 O1580 1.970 1_655 S
Li1521 O1581 1.956 . S
Li1521 O1583 1.957 . S
Li1522 N1567 1.990 . S
Li1522 O1580 1.961 . S
Li1522 O1582 1.956 . S
Li1522 O1583 1.976 1_455 S
Li1523 N1573 1.993 . S
Li1523 O1581 1.971 . S
Li1523 O1582 1.957 1_655 S
Li1523 O1583 1.956 . S
C1524 C1526 1.348 1_455 S
C1524 C1527 1.356 . S
C1524 O1580 1.325 . S
N1525 C1528 1.314 1_455 S
N1525 C1529 1.279 . S
C1526 C1524 1.348 1_655 S
C1526 C1528 1.353 . S
C1526 H1584 0.929 . S
C1527 C1524 1.356 . S
C1527 C1529 1.358 . S
C1527 H1585 0.930 . S
C1528 N1525 1.314 1_655 S
C1528 C1526 1.353 . S
C1528 H1586 0.930 . S
C1529 N1525 1.279 . S
C1529 C1527 1.358 . S
C1529 H1587 0.930 . S
C1530 C1533 1.348 . S
C1530 C1534 1.356 . S
C1530 O1581 1.325 . S
C1531 N1532 1.279 . S
C1531 C1534 1.358 . S
C1531 H1588 0.930 . S
N1532 C1531 1.279 . S
N1532 C1535 1.314 . S
C1533 C1530 1.348 . S
C1533 C1535 1.353 . S
C1533 H1589 0.929 . S
C1534 C1530 1.356 . S
C1534 C1531 1.358 . S
C1534 H1590 0.930 . S
C1535 N1532 1.314 . S
C1535 C1533 1.353 . S
C1535 H1591 0.930 . S
C1536 N1537 1.314 . S
C1536 C1541 1.353 . S
C1536 H1542 0.930 . S
N1537 Li1520 1.990 . S
N1537 C1536 1.314 . S
N1537 C1539 1.279 . S
C1538 C1539 1.358 . S
C1538 C1540 1.356 . S
C1538 H1592 0.930 . S
C1539 N1537 1.279 . S
C1539 C1538 1.358 . S
C1539 H1543 0.930 . S
C1540 C1538 1.356 . S
C1540 C1541 1.348 . S
C1541 C1536 1.353 . S
C1541 C1540 1.348 . S
C1541 H1593 0.929 . S
H1542 C1536 0.930 . S
H1543 C1539 0.930 . S
C1544 N1545 1.314 . S
C1544 C1546 1.353 . S
C1544 H1550 0.930 . S
N1545 Li1521 1.990 . S
N1545 C1544 1.314 . S
N1545 C1548 1.279 . S
C1546 C1544 1.353 . S
C1546 C1549 1.348 . S
C1546 H1594 0.929 . S
C1547 C1548 1.358 . S
C1547 C1549 1.356 . S
C1547 H1595 0.930 . S
C1548 N1545 1.279 . S
C1548 C1547 1.358 . S
C1548 H1551 0.930 . S
C1549 C1546 1.348 . S
C1549 C1547 1.356 . S
H1550 C1544 0.930 . S
H1551 C1548 0.930 . S
C1552 C1554 1.348 . S
C1552 C1555 1.356 . S
C1552 O1582 1.325 . S
N1553 C1556 1.314 . S
N1553 C1557 1.279 . S
C1554 C1552 1.348 . S
C1554 C1556 1.353 . S
C1554 H1596 0.929 . S
C1555 C1552 1.356 . S
C1555 C1557 1.358 . S
C1555 H1597 0.930 . S
C1556 N1553 1.314 . S
C1556 C1554 1.353 . S
C1556 H1598 0.930 . S
C1557 N1553 1.279 . S
C1557 C1555 1.358 . S
C1557 H1599 0.930 . S
C1558 C1559 1.348 1_655 S
C1558 C1560 1.356 . S
C1558 O1583 1.324 . S
C1559 C1558 1.348 1_455 S
C1559 C1561 1.353 . S
C1559 H1600 0.929 . S
C1560 C1558 1.356 . S
C1560 C1562 1.358 . S
C1560 H1601 0.930 . S
C1561 C1559 1.353 . S
C1561 N1563 1.314 1_455 S
C1561 H1602 0.930 . S
C1562 C1560 1.358 . S
C1562 N1563 1.279 . S
C1562 H1603 0.930 . S
N1563 C1561 1.314 1_655 S
N1563 C1562 1.279 . S
C1564 C1566 1.353 . S
C1564 N1567 1.314 . S
C1564 H1570 0.930 . S
C1565 N1567 1.279 . S
C1565 C1568 1.358 . S
C1565 H1571 0.930 . S
C1566 C1564 1.353 . S
C1566 C1569 1.348 . S
C1566 H1604 0.929 . S
N1567 Li1522 1.990 . S
N1567 C1564 1.314 . S
N1567 C1565 1.279 . S
C1568 C1565 1.358 . S
C1568 C1569 1.356 . S
C1568 H1605 0.930 . S
C1569 C1566 1.348 . S
C1569 C1568 1.356 . S
H1570 C1564 0.930 . S
H1571 C1565 0.930 . S
C1572 N1573 1.314 . S
C1572 C1574 1.353 . S
C1572 H1578 0.930 . S
N1573 Li1523 1.993 . S
N1573 C1572 1.314 . S
N1573 C1576 1.279 . S
C1574 C1572 1.353 . S
C1574 C1577 1.348 . S
C1574 H1606 0.929 . S
C1575 C1576 1.358 . S
C1575 C1577 1.356 . S
C1575 H1607 0.930 . S
C1576 N1573 1.279 . S
C1576 C1575 1.358 . S
C1576 H1579 0.932 . S
C1577 C1574 1.348 . S
C1577 C1575 1.356 . S
H1578 C1572 0.930 . S
H1579 C1576 0.932 . S
O1580 Li1520 1.956 . S
O1580 Li1521 1.970 1_455 S
O1580 Li1522 1.961 . S
O1580 C1524 1.325 . S
O1581 Li1520 1.970 1_655 S
O1581 Li1521 1.956 . S
O1581 Li1523 1.971 . S
O1581 C1530 1.325 . S
O1582 Li1520 1.961 . S
O1582 Li1522 1.956 . S
O1582 Li1523 1.957 1_455 S
O1582 C1552 1.325 . S
O1583 Li1521 1.957 . S
O1583 Li1522 1.976 1_655 S
O1583 Li1523 1.956 . S
O1583 C1558 1.324 . S
H1584 C1526 0.929 . S
H1585 C1527 0.930 . S
H1586 C1528 0.930 . S
H1587 C1529 0.930 . S
H1588 C1531 0.930 . S
H1589 C1533 0.929 . S
H1590 C1534 0.930 . S
H1591 C1535 0.930 . S
H1592 C1538 0.930 . S
H1593 C1541 0.929 . S
H1594 C1546 0.929 . S
H1595 C1547 0.930 . S
H1596 C1554 0.929 . S
H1597 C1555 0.930 . S
H1598 C1556 0.930 . S
H1599 C1557 0.930 . S
H1600 C1559 0.929 . S
H1601 C1560 0.930 . S
H1602 C1561 0.930 . S
H1603 C1562 0.930 . S
H1604 C1566 0.929 . S
H1605 C1568 0.930 . S
H1606 C1574 0.929 . S
H1607 C1575 0.930 . S
Li1608 N1625 1.990 . S
Li1608 O1668 1.956 . S
Li1608 O1669 1.970 . S
Li1608 O1670 1.961 . S
Li1609 N1633 1.990 . S
Li1609 O1668 1.970 . S
Li1609 O1669 1.956 . S
Li1609 O1671 1.961 . S
Li1610 N1655 1.990 . S
Li1610 O1668 1.961 . S
Li1610 O1670 1.956 . S
Li1610 O1671 1.970 . S
Li1611 N1661 1.990 . S
Li1611 O1669 1.961 . S
Li1611 O1670 1.970 . S
Li1611 O1671 1.956 . S
C1612 C1614 1.348 . S
C1612 C1615 1.356 . S
C1612 O1668 1.325 . S
N1613 C1616 1.314 . S
N1613 C1617 1.279 . S
C1614 C1612 1.348 . S
C1614 C1616 1.353 . S
C1614 H1672 0.929 . S
C1615 C1612 1.356 . S
C1615 C1617 1.358 . S
C1615 H1673 0.930 . S
C1616 N1613 1.314 . S
C1616 C1614 1.353 . S
C1616 H1674 0.930 . S
C1617 N1613 1.279 . S
C1617 C1615 1.358 . S
C1617 H1675 0.930 . S
C1618 C1621 1.348 . S
C1618 C1622 1.356 . S
C1618 O1669 1.325 . S
C1619 N1620 1.279 . S
C1619 C1622 1.358 . S
C1619 H1676 0.930 . S
N1620 C1619 1.279 . S
N1620 C1623 1.314 . S
C1621 C1618 1.348 . S
C1621 C1623 1.353 . S
C1621 H1677 0.929 . S
C1622 C1618 1.356 . S
C1622 C1619 1.358 . S
C1622 H1678 0.930 . S
C1623 N1620 1.314 . S
C1623 C1621 1.353 . S
C1623 H1679 0.930 . S
C1624 N1625 1.314 . S
C1624 C1629 1.353 . S
C1624 H1630 0.930 . S
N1625 Li1608 1.990 . S
N1625 C1624 1.314 . S
N1625 C1627 1.279 . S
C1626 C1627 1.358 . S
C1626 C1628 1.356 . S
C1626 H1680 0.930 . S
C1627 N1625 1.279 . S
C1627 C1626 1.358 . S
C1627 H1631 0.930 . S
C1628 C1626 1.356 . S
C1628 C1629 1.348 . S
C1629 C1624 1.353 . S
C1629 C1628 1.348 . S
C1629 H1681 0.929 . S
H1630 C1624 0.930 . S
H1631 C1627 0.930 . S
C1632 N1633 1.314 . S
C1632 C1634 1.353 . S
C1632 H1638 0.930 . S
N1633 Li1609 1.990 . S
N1633 C1632 1.314 . S
N1633 C1636 1.279 . S
C1634 C1632 1.353 . S
C1634 C1637 1.348 . S
C1634 H1682 0.929 . S
C1635 C1636 1.358 . S
C1635 C1637 1.356 . S
C1635 H1683 0.930 . S
C1636 N1633 1.279 . S
C1636 C1635 1.358 . S
C1636 H1639 0.930 . S
C1637 C1634 1.348 . S
C1637 C1635 1.356 . S
H1638 C1632 0.930 . S
H1639 C1636 0.930 . S
C1640 C1642 1.348 . S
C1640 C1643 1.356 . S
C1640 O1670 1.325 . S
N1641 C1644 1.314 . S
N1641 C1645 1.279 . S
C1642 C1640 1.348 . S
C1642 C1644 1.353 . S
C1642 H1684 0.929 . S
C1643 C1640 1.356 . S
C1643 C1645 1.358 . S
C1643 H1685 0.930 . S
C1644 N1641 1.314 . S
C1644 C1642 1.353 . S
C1644 H1686 0.930 . S
C1645 N1641 1.279 . S
C1645 C1643 1.358 . S
C1645 H1687 0.930 . S
C1646 C1647 1.348 . S
C1646 C1648 1.356 . S
C1646 O1671 1.325 . S
C1647 C1646 1.348 . S
C1647 C1649 1.353 . S
C1647 H1688 0.929 . S
C1648 C1646 1.356 . S
C1648 C1650 1.358 . S
C1648 H1689 0.930 . S
C1649 C1647 1.353 . S
C1649 N1651 1.314 . S
C1649 H1690 0.930 . S
C1650 C1648 1.358 . S
C1650 N1651 1.279 . S
C1650 H1691 0.930 . S
N1651 C1649 1.314 . S
N1651 C1650 1.279 . S
C1652 C1654 1.353 . S
C1652 N1655 1.314 . S
C1652 H1658 0.930 . S
C1653 N1655 1.279 . S
C1653 C1656 1.358 . S
C1653 H1659 0.930 . S
C1654 C1652 1.353 . S
C1654 C1657 1.348 . S
C1654 H1692 0.929 . S
N1655 Li1610 1.990 . S
N1655 C1652 1.314 . S
N1655 C1653 1.279 . S
C1656 C1653 1.358 . S
C1656 C1657 1.356 . S
C1656 H1693 0.930 . S
C1657 C1654 1.348 . S
C1657 C1656 1.356 . S
H1658 C1652 0.930 . S
H1659 C1653 0.930 . S
C1660 N1661 1.314 . S
C1660 C1662 1.353 . S
C1660 H1666 0.930 . S
N1661 Li1611 1.990 . S
N1661 C1660 1.314 . S
N1661 C1664 1.279 . S
C1662 C1660 1.353 . S
C1662 C1665 1.348 . S
C1662 H1694 0.929 . S
C1663 C1664 1.358 . S
C1663 C1665 1.356 . S
C1663 H1695 0.930 . S
C1664 N1661 1.279 . S
C1664 C1663 1.358 . S
C1664 H1667 0.930 . S
C1665 C1662 1.348 . S
C1665 C1663 1.356 . S
H1666 C1660 0.930 . S
H1667 C1664 0.930 . S
O1668 Li1608 1.956 . S
O1668 Li1609 1.970 . S
O1668 Li1610 1.961 . S
O1668 C1612 1.325 . S
O1669 Li1608 1.970 . S
O1669 Li1609 1.956 . S
O1669 Li1611 1.961 . S
O1669 C1618 1.325 . S
O1670 Li1608 1.961 . S
O1670 Li1610 1.956 . S
O1670 Li1611 1.970 . S
O1670 C1640 1.325 . S
O1671 Li1609 1.961 . S
O1671 Li1610 1.970 . S
O1671 Li1611 1.956 . S
O1671 C1646 1.325 . S
H1672 C1614 0.929 . S
H1673 C1615 0.930 . S
H1674 C1616 0.930 . S
H1675 C1617 0.930 . S
H1676 C1619 0.930 . S
H1677 C1621 0.929 . S
H1678 C1622 0.930 . S
H1679 C1623 0.930 . S
H1680 C1626 0.930 . S
H1681 C1629 0.929 . S
H1682 C1634 0.929 . S
H1683 C1635 0.930 . S
H1684 C1642 0.929 . S
H1685 C1643 0.930 . S
H1686 C1644 0.930 . S
H1687 C1645 0.930 . S
H1688 C1647 0.929 . S
H1689 C1648 0.930 . S
H1690 C1649 0.930 . S
H1691 C1650 0.930 . S
H1692 C1654 0.929 . S
H1693 C1656 0.930 . S
H1694 C1662 0.929 . S
H1695 C1663 0.930 . S
C1696 C1697 1.349 . S
C1696 C1698 1.327 . S
C1696 H1721 0.950 . S
C1697 C1696 1.349 . S
C1697 C1713 1.349 . S
C1698 C1696 1.327 . S
C1698 C1717 1.429 . S
C1698 H1722 0.950 . S
C1699 C1716 1.574 . S
C1699 C1718 1.368 . S
C1699 H1723 0.949 . S
H1700 C1704 0.949 . S
C1701 C1702 1.349 . S
C1701 C1703 1.327 . S
C1701 H1724 0.950 . S
C1702 C1701 1.349 . S
C1702 C1714 1.349 . S
C1703 C1701 1.327 . S
C1703 C1719 1.429 . S
C1703 H1725 0.950 . S
C1704 H1700 0.949 . S
C1704 C1712 1.574 . S
C1704 C1720 1.368 . S
H1705 C1713 0.950 . S
H1706 C1711 0.950 . S
H1707 C1712 0.949 . S
H1708 C1714 0.950 . S
H1709 C1715 0.950 . S
H1710 C1716 0.949 . S
C1711 H1706 0.950 . S
C1711 C1713 1.327 . S
C1711 C1717 1.429 . S
C1712 C1704 1.574 . S
C1712 H1707 0.949 . S
C1712 C1718 1.368 . S
C1713 C1697 1.349 . S
C1713 H1705 0.950 . S
C1713 C1711 1.327 . S
C1714 C1702 1.349 . S
C1714 H1708 0.950 . S
C1714 C1715 1.327 . S
C1715 H1709 0.950 . S
C1715 C1714 1.327 . S
C1715 C1719 1.429 . S
C1716 C1699 1.574 . S
C1716 H1710 0.949 . S
C1716 C1720 1.368 . S
C1717 C1698 1.429 . S
C1717 C1711 1.429 . S
C1717 C1718 1.523 . S
C1718 C1699 1.368 . S
C1718 C1712 1.368 . S
C1718 C1717 1.523 . S
C1719 C1703 1.429 . S
C1719 C1715 1.429 . S
C1719 C1720 1.523 . S
C1720 C1704 1.368 . S
C1720 C1716 1.368 . S
C1720 C1719 1.523 . S
H1721 C1696 0.950 . S
H1722 C1698 0.950 . S
H1723 C1699 0.949 . S
H1724 C1701 0.950 . S
H1725 C1703 0.950 . S
C1726 C1727 1.349 . S
C1726 C1728 1.327 . S
C1726 H1751 0.950 . S
C1727 C1726 1.349 . S
C1727 C1743 1.349 . S
C1728 C1726 1.327 . S
C1728 C1747 1.429 . S
C1728 H1752 0.950 . S
C1729 C1746 1.574 . S
C1729 C1748 1.368 . S
C1729 H1753 0.949 . S
H1730 C1734 0.949 . S
C1731 C1732 1.349 . S
C1731 C1733 1.327 . S
C1731 H1754 0.950 . S
C1732 C1731 1.349 . S
C1732 C1744 1.349 . S
C1733 C1731 1.327 . S
C1733 C1749 1.429 . S
C1733 H1755 0.950 . S
C1734 H1730 0.949 . S
C1734 C1742 1.574 . S
C1734 C1750 1.368 . S
H1735 C1743 0.950 . S
H1736 C1741 0.950 . S
H1737 C1742 0.949 . S
H1738 C1744 0.950 . S
H1739 C1745 0.950 . S
H1740 C1746 0.949 . S
C1741 H1736 0.950 . S
C1741 C1743 1.327 . S
C1741 C1747 1.429 . S
C1742 C1734 1.574 . S
C1742 H1737 0.949 . S
C1742 C1748 1.368 . S
C1743 C1727 1.349 . S
C1743 H1735 0.950 . S
C1743 C1741 1.327 . S
C1744 C1732 1.349 . S
C1744 H1738 0.950 . S
C1744 C1745 1.327 . S
C1745 H1739 0.950 . S
C1745 C1744 1.327 . S
C1745 C1749 1.429 . S
C1746 C1729 1.574 . S
C1746 H1740 0.949 . S
C1746 C1750 1.368 . S
C1747 C1728 1.429 . S
C1747 C1741 1.429 . S
C1747 C1748 1.523 . S
C1748 C1729 1.368 . S
C1748 C1742 1.368 . S
C1748 C1747 1.523 . S
C1749 C1733 1.429 . S
C1749 C1745 1.429 . S
C1749 C1750 1.523 . S
C1750 C1734 1.368 . S
C1750 C1746 1.368 . S
C1750 C1749 1.523 . S
H1751 C1726 0.950 . S
H1752 C1728 0.950 . S
H1753 C1729 0.949 . S
H1754 C1731 0.950 . S
H1755 C1733 0.950 . S
C1756 C1757 1.349 . S
C1756 C1758 1.327 . S
C1756 H1781 0.950 . S
C1757 C1756 1.349 . S
C1757 C1773 1.349 . S
C1758 C1756 1.327 . S
C1758 C1777 1.429 . S
C1758 H1782 0.950 . S
C1759 C1776 1.574 . S
C1759 C1778 1.368 . S
C1759 H1783 0.949 . S
H1760 C1764 0.949 . S
C1761 C1762 1.349 . S
C1761 C1763 1.327 . S
C1761 H1784 0.950 . S
C1762 C1761 1.349 . S
C1762 C1774 1.349 . S
C1763 C1761 1.327 . S
C1763 C1779 1.429 . S
C1763 H1785 0.950 . S
C1764 H1760 0.949 . S
C1764 C1772 1.574 . S
C1764 C1780 1.368 . S
H1765 C1773 0.950 . S
H1766 C1771 0.950 . S
H1767 C1772 0.949 . S
H1768 C1774 0.950 . S
H1769 C1775 0.950 . S
H1770 C1776 0.949 . S
C1771 H1766 0.950 . S
C1771 C1773 1.327 . S
C1771 C1777 1.429 . S
C1772 C1764 1.574 . S
C1772 H1767 0.949 . S
C1772 C1778 1.368 . S
C1773 C1757 1.349 . S
C1773 H1765 0.950 . S
C1773 C1771 1.327 . S
C1774 C1762 1.349 . S
C1774 H1768 0.950 . S
C1774 C1775 1.327 . S
C1775 H1769 0.950 . S
C1775 C1774 1.327 . S
C1775 C1779 1.429 . S
C1776 C1759 1.574 . S
C1776 H1770 0.949 . S
C1776 C1780 1.368 . S
C1777 C1758 1.429 . S
C1777 C1771 1.429 . S
C1777 C1778 1.523 . S
C1778 C1759 1.368 . S
C1778 C1772 1.368 . S
C1778 C1777 1.523 . S
C1779 C1763 1.429 . S
C1779 C1775 1.429 . S
C1779 C1780 1.523 . S
C1780 C1764 1.368 . S
C1780 C1776 1.368 . S
C1780 C1779 1.523 . S
H1781 C1756 0.950 . S
H1782 C1758 0.950 . S
H1783 C1759 0.949 . S
H1784 C1761 0.950 . S
H1785 C1763 0.950 . S
C1786 C1787 1.349 . S
C1786 C1788 1.327 . S
C1786 H1811 0.950 . S
C1787 C1786 1.349 . S
C1787 C1803 1.349 . S
C1788 C1786 1.327 . S
C1788 C1807 1.429 . S
C1788 H1812 0.934 1_565 S
C1789 C1806 1.574 . S
C1789 C1808 1.368 . S
C1789 H1813 0.949 . S
H1790 C1794 0.949 1_545 S
C1791 C1792 1.349 . S
C1791 C1793 1.327 . S
C1791 H1814 0.950 . S
C1792 C1791 1.349 . S
C1792 C1804 1.327 1_565 S
C1793 C1791 1.327 . S
C1793 C1809 1.429 . S
C1793 H1815 0.950 . S
C1794 H1790 0.949 1_565 S
C1794 C1802 1.574 . S
C1794 C1810 1.368 . S
H1795 C1803 0.950 . S
H1796 C1801 0.950 . S
H1797 C1802 0.949 1_545 S
H1798 C1804 0.975 . S
H1799 C1805 0.922 1_545 S
H1800 C1806 0.949 . S
C1801 H1796 0.950 . S
C1801 C1803 1.327 . S
C1801 C1807 1.429 . S
C1802 C1794 1.574 . S
C1802 H1797 0.949 1_565 S
C1802 C1808 1.368 . S
C1803 C1787 1.349 . S
C1803 H1795 0.950 . S
C1803 C1801 1.327 . S
C1804 C1792 1.327 1_545 S
C1804 H1798 0.975 . S
C1804 C1805 1.323 1_545 S
C1805 H1799 0.922 1_565 S
C1805 C1804 1.323 1_565 S
C1805 C1809 1.459 . S
C1806 C1789 1.574 . S
C1806 H1800 0.949 . S
C1806 C1810 1.368 . S
C1807 C1788 1.429 . S
C1807 C1801 1.429 . S
C1807 C1808 1.523 . S
C1808 C1789 1.368 . S
C1808 C1802 1.368 . S
C1808 C1807 1.523 . S
C1809 C1793 1.429 . S
C1809 C1805 1.459 . S
C1809 C1810 1.523 . S
C1810 C1794 1.368 . S
C1810 C1806 1.368 . S
C1810 C1809 1.523 . S
H1811 C1786 0.950 . S
H1812 C1788 0.934 1_545 S
H1813 C1789 0.949 . S
H1814 C1791 0.950 . S
H1815 C1793 0.950 . S
C1816 C1817 1.349 . S
C1816 C1818 1.327 . S
C1816 H1841 0.950 . S
C1817 C1816 1.349 . S
C1817 C1833 1.349 . S
C1818 C1816 1.327 . S
C1818 C1837 1.429 . S
C1818 H1842 0.950 . S
C1819 C1836 1.574 . S
C1819 C1838 1.368 . S
C1819 H1843 0.949 . S
H1820 C1824 0.949 . S
C1821 C1822 1.349 . S
C1821 C1823 1.327 . S
C1821 H1844 0.950 . S
C1822 C1821 1.349 . S
C1822 C1834 1.349 . S
C1823 C1821 1.327 . S
C1823 C1839 1.429 . S
C1823 H1845 0.950 . S
C1824 H1820 0.949 . S
C1824 C1832 1.574 . S
C1824 C1840 1.368 . S
H1825 C1833 0.950 . S
H1826 C1831 0.950 . S
H1827 C1832 0.949 . S
H1828 C1834 0.950 . S
H1829 C1835 0.950 . S
H1830 C1836 0.949 . S
C1831 H1826 0.950 . S
C1831 C1833 1.327 . S
C1831 C1837 1.429 . S
C1832 C1824 1.574 . S
C1832 H1827 0.949 . S
C1832 C1838 1.368 . S
C1833 C1817 1.349 . S
C1833 H1825 0.950 . S
C1833 C1831 1.327 . S
C1834 C1822 1.349 . S
C1834 H1828 0.950 . S
C1834 C1835 1.327 . S
C1835 H1829 0.950 . S
C1835 C1834 1.327 . S
C1835 C1839 1.429 . S
C1836 C1819 1.574 . S
C1836 H1830 0.949 . S
C1836 C1840 1.368 . S
C1837 C1818 1.429 . S
C1837 C1831 1.429 . S
C1837 C1838 1.523 . S
C1838 C1819 1.368 . S
C1838 C1832 1.368 . S
C1838 C1837 1.523 . S
C1839 C1823 1.429 . S
C1839 C1835 1.429 . S
C1839 C1840 1.523 . S
C1840 C1824 1.368 . S
C1840 C1836 1.368 . S
C1840 C1839 1.523 . S
H1841 C1816 0.950 . S
H1842 C1818 0.950 . S
H1843 C1819 0.949 . S
H1844 C1821 0.950 . S
H1845 C1823 0.950 . S
C1846 C1847 1.349 . S
C1846 C1848 1.327 . S
C1846 H1871 0.950 . S
C1847 C1846 1.349 . S
C1847 C1863 1.349 . S
C1848 C1846 1.327 . S
C1848 C1867 1.429 . S
C1848 H1872 0.950 . S
C1849 C1866 1.574 . S
C1849 C1868 1.368 . S
C1849 H1873 0.949 . S
H1850 C1854 0.949 . S
C1851 C1852 1.349 . S
C1851 C1853 1.327 . S
C1851 H1874 0.950 . S
C1852 C1851 1.349 . S
C1852 C1864 1.349 . S
C1853 C1851 1.327 . S
C1853 C1869 1.429 . S
C1853 H1875 0.950 . S
C1854 H1850 0.949 . S
C1854 C1862 1.574 . S
C1854 C1870 1.368 . S
H1855 C1863 0.950 . S
H1856 C1861 0.950 . S
H1857 C1862 0.949 . S
H1858 C1864 0.950 . S
H1859 C1865 0.950 . S
H1860 C1866 0.949 . S
C1861 H1856 0.950 . S
C1861 C1863 1.327 . S
C1861 C1867 1.429 . S
C1862 C1854 1.574 . S
C1862 H1857 0.949 . S
C1862 C1868 1.368 . S
C1863 C1847 1.349 . S
C1863 H1855 0.950 . S
C1863 C1861 1.327 . S
C1864 C1852 1.349 . S
C1864 H1858 0.950 . S
C1864 C1865 1.327 . S
C1865 H1859 0.950 . S
C1865 C1864 1.327 . S
C1865 C1869 1.429 . S
C1866 C1849 1.574 . S
C1866 H1860 0.949 . S
C1866 C1870 1.368 . S
C1867 C1848 1.429 . S
C1867 C1861 1.429 . S
C1867 C1868 1.523 . S
C1868 C1849 1.368 . S
C1868 C1862 1.368 . S
C1868 C1867 1.523 . S
C1869 C1853 1.429 . S
C1869 C1865 1.429 . S
C1869 C1870 1.523 . S
C1870 C1854 1.368 . S
C1870 C1866 1.368 . S
C1870 C1869 1.523 . S
H1871 C1846 0.950 . S
H1872 C1848 0.950 . S
H1873 C1849 0.949 . S
H1874 C1851 0.950 . S
H1875 C1853 0.950 . S
C1876 C1877 1.349 . S
C1876 C1878 1.327 . S
C1876 H1901 0.950 . S
C1877 C1876 1.349 . S
C1877 C1893 1.349 . S
C1878 C1876 1.327 . S
C1878 C1897 1.429 . S
C1878 H1902 0.950 . S
C1879 C1896 1.574 . S
C1879 C1898 1.368 . S
C1879 H1903 0.949 . S
H1880 C1884 0.949 . S
C1881 C1882 1.349 . S
C1881 C1883 1.327 . S
C1881 H1904 0.950 . S
C1882 C1881 1.349 . S
C1882 C1894 1.349 . S
C1883 C1881 1.327 . S
C1883 C1899 1.429 . S
C1883 H1905 0.950 . S
C1884 H1880 0.949 . S
C1884 C1892 1.574 . S
C1884 C1900 1.368 . S
H1885 C1893 0.950 . S
H1886 C1891 0.950 . S
H1887 C1892 0.949 . S
H1888 C1894 0.950 . S
H1889 C1895 0.950 . S
H1890 C1896 0.949 . S
C1891 H1886 0.950 . S
C1891 C1893 1.327 . S
C1891 C1897 1.429 . S
C1892 C1884 1.574 . S
C1892 H1887 0.949 . S
C1892 C1898 1.368 . S
C1893 C1877 1.349 . S
C1893 H1885 0.950 . S
C1893 C1891 1.327 . S
C1894 C1882 1.349 . S
C1894 H1888 0.950 . S
C1894 C1895 1.327 . S
C1895 H1889 0.950 . S
C1895 C1894 1.327 . S
C1895 C1899 1.429 . S
C1896 C1879 1.574 . S
C1896 H1890 0.949 . S
C1896 C1900 1.368 . S
C1897 C1878 1.429 . S
C1897 C1891 1.429 . S
C1897 C1898 1.523 . S
C1898 C1879 1.368 . S
C1898 C1892 1.368 . S
C1898 C1897 1.523 . S
C1899 C1883 1.429 . S
C1899 C1895 1.429 . S
C1899 C1900 1.523 . S
C1900 C1884 1.368 . S
C1900 C1896 1.368 . S
C1900 C1899 1.523 . S
H1901 C1876 0.950 . S
H1902 C1878 0.950 . S
H1903 C1879 0.949 . S
H1904 C1881 0.950 . S
H1905 C1883 0.950 . S
C1906 C1907 1.349 . S
C1906 C1908 1.327 . S
C1906 H1931 0.950 . S
C1907 C1906 1.349 . S
C1907 C1923 1.349 . S
C1908 C1906 1.327 . S
C1908 C1927 1.429 . S
C1908 H1932 0.910 1_565 S
C1909 C1926 1.574 . S
C1909 C1928 1.368 . S
C1909 H1933 0.949 . S
H1910 C1914 0.949 1_545 S
C1911 C1912 1.349 . S
C1911 C1913 1.327 . S
C1911 H1934 0.950 . S
C1912 C1911 1.349 . S
C1912 C1924 1.303 1_565 S
C1913 C1911 1.327 . S
C1913 C1929 1.429 . S
C1913 H1935 0.950 . S
C1914 H1910 0.949 1_565 S
C1914 C1922 1.574 . S
C1914 C1930 1.368 . S
H1915 C1923 0.950 . S
H1916 C1921 0.950 . S
H1917 C1922 0.949 1_545 S
H1918 C1924 1.002 . S
H1919 C1925 0.939 1_545 S
H1920 C1926 0.949 . S
C1921 H1916 0.950 . S
C1921 C1923 1.327 . S
C1921 C1927 1.429 . S
C1922 C1914 1.574 . S
C1922 H1917 0.949 1_565 S
C1922 C1928 1.368 . S
C1923 C1907 1.349 . S
C1923 H1915 0.950 . S
C1923 C1921 1.327 . S
C1924 C1912 1.303 1_545 S
C1924 H1918 1.002 . S
C1924 C1925 1.324 1_545 S
C1925 H1919 0.939 1_565 S
C1925 C1924 1.324 1_565 S
C1925 C1929 1.440 . S
C1926 C1909 1.574 . S
C1926 H1920 0.949 . S
C1926 C1930 1.368 . S
C1927 C1908 1.429 . S
C1927 C1921 1.429 . S
C1927 C1928 1.523 . S
C1928 C1909 1.368 . S
C1928 C1922 1.368 . S
C1928 C1927 1.523 . S
C1929 C1913 1.429 . S
C1929 C1925 1.440 . S
C1929 C1930 1.523 . S
C1930 C1914 1.368 . S
C1930 C1926 1.368 . S
C1930 C1929 1.523 . S
H1931 C1906 0.950 . S
H1932 C1908 0.910 1_545 S
H1933 C1909 0.949 . S
H1934 C1911 0.950 . S
H1935 C1913 0.950 . S
C1936 C1937 1.349 . S
C1936 C1938 1.327 . S
C1936 H1961 0.950 . S
C1937 C1936 1.349 . S
C1937 C1953 1.349 . S
C1938 C1936 1.327 . S
C1938 C1957 1.429 . S
C1938 H1962 0.950 . S
C1939 C1956 1.574 . S
C1939 C1958 1.368 . S
C1939 H1963 0.949 . S
H1940 C1944 0.949 . S
C1941 C1942 1.349 . S
C1941 C1943 1.327 . S
C1941 H1964 0.950 . S
C1942 C1941 1.349 . S
C1942 C1954 1.349 . S
C1943 C1941 1.327 . S
C1943 C1959 1.429 . S
C1943 H1965 0.950 . S
C1944 H1940 0.949 . S
C1944 C1952 1.574 . S
C1944 C1960 1.368 . S
H1945 C1953 0.950 . S
H1946 C1951 0.950 . S
H1947 C1952 0.949 . S
H1948 C1954 0.950 . S
H1949 C1955 0.950 . S
H1950 C1956 0.949 . S
C1951 H1946 0.950 . S
C1951 C1953 1.327 . S
C1951 C1957 1.429 . S
C1952 C1944 1.574 . S
C1952 H1947 0.949 . S
C1952 C1958 1.368 . S
C1953 C1937 1.349 . S
C1953 H1945 0.950 . S
C1953 C1951 1.327 . S
C1954 C1942 1.349 . S
C1954 H1948 0.950 . S
C1954 C1955 1.327 . S
C1955 H1949 0.950 . S
C1955 C1954 1.327 . S
C1955 C1959 1.429 . S
C1956 C1939 1.574 . S
C1956 H1950 0.949 . S
C1956 C1960 1.368 . S
C1957 C1938 1.429 . S
C1957 C1951 1.429 . S
C1957 C1958 1.523 . S
C1958 C1939 1.368 . S
C1958 C1952 1.368 . S
C1958 C1957 1.523 . S
C1959 C1943 1.429 . S
C1959 C1955 1.429 . S
C1959 C1960 1.523 . S
C1960 C1944 1.368 . S
C1960 C1956 1.368 . S
C1960 C1959 1.523 . S
H1961 C1936 0.950 . S
H1962 C1938 0.950 . S
H1963 C1939 0.949 . S
H1964 C1941 0.950 . S
H1965 C1943 0.950 . S
C1966 C1967 1.349 . S
C1966 C1968 1.327 . S
C1966 H1991 0.950 . S
C1967 C1966 1.349 . S
C1967 C1983 1.349 . S
C1968 C1966 1.327 . S
C1968 C1987 1.429 . S
C1968 H1992 0.950 . S
C1969 C1986 1.574 . S
C1969 C1988 1.368 . S
C1969 H1993 0.949 . S
H1970 C1974 0.949 . S
C1971 C1972 1.349 . S
C1971 C1973 1.327 . S
C1971 H1994 0.950 . S
C1972 C1971 1.349 . S
C1972 C1984 1.349 . S
C1973 C1971 1.327 . S
C1973 C1989 1.429 . S
C1973 H1995 0.950 . S
C1974 H1970 0.949 . S
C1974 C1982 1.574 . S
C1974 C1990 1.368 . S
H1975 C1983 0.950 . S
H1976 C1981 0.950 . S
H1977 C1982 0.949 . S
H1978 C1984 0.950 . S
H1979 C1985 0.950 . S
H1980 C1986 0.949 . S
C1981 H1976 0.950 . S
C1981 C1983 1.327 . S
C1981 C1987 1.429 . S
C1982 C1974 1.574 . S
C1982 H1977 0.949 . S
C1982 C1988 1.368 . S
C1983 C1967 1.349 . S
C1983 H1975 0.950 . S
C1983 C1981 1.327 . S
C1984 C1972 1.349 . S
C1984 H1978 0.950 . S
C1984 C1985 1.327 . S
C1985 H1979 0.950 . S
C1985 C1984 1.327 . S
C1985 C1989 1.429 . S
C1986 C1969 1.574 . S
C1986 H1980 0.949 . S
C1986 C1990 1.368 . S
C1987 C1968 1.429 . S
C1987 C1981 1.429 . S
C1987 C1988 1.523 . S
C1988 C1969 1.368 . S
C1988 C1982 1.368 . S
C1988 C1987 1.523 . S
C1989 C1973 1.429 . S
C1989 C1985 1.429 . S
C1989 C1990 1.523 . S
C1990 C1974 1.368 . S
C1990 C1986 1.368 . S
C1990 C1989 1.523 . S
H1991 C1966 0.950 . S
H1992 C1968 0.950 . S
H1993 C1969 0.949 . S
H1994 C1971 0.950 . S
H1995 C1973 0.950 . S
C1996 C1997 1.349 . S
C1996 C1998 1.327 . S
C1996 H2021 0.950 . S
C1997 C1996 1.349 . S
C1997 C2013 1.349 . S
C1998 C1996 1.327 . S
C1998 C2017 1.429 . S
C1998 H2022 0.950 . S
C1999 C2016 1.574 . S
C1999 C2018 1.368 . S
C1999 H2023 0.949 . S
H2000 C2004 0.949 . S
C2001 C2002 1.349 . S
C2001 C2003 1.327 . S
C2001 H2024 0.950 . S
C2002 C2001 1.349 . S
C2002 C2014 1.349 . S
C2003 C2001 1.327 . S
C2003 C2019 1.429 . S
C2003 H2025 0.950 . S
C2004 H2000 0.949 . S
C2004 C2012 1.574 . S
C2004 C2020 1.368 . S
H2005 C2013 0.950 . S
H2006 C2011 0.950 . S
H2007 C2012 0.949 . S
H2008 C2014 0.950 . S
H2009 C2015 0.950 . S
H2010 C2016 0.949 . S
C2011 H2006 0.950 . S
C2011 C2013 1.327 . S
C2011 C2017 1.429 . S
C2012 C2004 1.574 . S
C2012 H2007 0.949 . S
C2012 C2018 1.368 . S
C2013 C1997 1.349 . S
C2013 H2005 0.950 . S
C2013 C2011 1.327 . S
C2014 C2002 1.349 . S
C2014 H2008 0.950 . S
C2014 C2015 1.327 . S
C2015 H2009 0.950 . S
C2015 C2014 1.327 . S
C2015 C2019 1.429 . S
C2016 C1999 1.574 . S
C2016 H2010 0.949 . S
C2016 C2020 1.368 . S
C2017 C1998 1.429 . S
C2017 C2011 1.429 . S
C2017 C2018 1.523 . S
C2018 C1999 1.368 . S
C2018 C2012 1.368 . S
C2018 C2017 1.523 . S
C2019 C2003 1.429 . S
C2019 C2015 1.429 . S
C2019 C2020 1.523 . S
C2020 C2004 1.368 . S
C2020 C2016 1.368 . S
C2020 C2019 1.523 . S
H2021 C1996 0.950 . S
H2022 C1998 0.950 . S
H2023 C1999 0.949 . S
H2024 C2001 0.950 . S
H2025 C2003 0.950 . S
C2026 C2027 1.349 . S
C2026 C2028 1.327 . S
C2026 H2051 0.950 . S
C2027 C2026 1.349 . S
C2027 C2043 1.349 . S
C2028 C2026 1.327 . S
C2028 C2047 1.429 . S
C2028 H2052 0.950 . S
C2029 C2046 1.574 . S
C2029 C2048 1.368 . S
C2029 H2053 0.949 . S
H2030 C2034 0.949 . S
C2031 C2032 1.349 . S
C2031 C2033 1.327 . S
C2031 H2054 0.950 . S
C2032 C2031 1.349 . S
C2032 C2044 1.349 . S
C2033 C2031 1.327 . S
C2033 C2049 1.429 . S
C2033 H2055 0.950 . S
C2034 H2030 0.949 . S
C2034 C2042 1.574 . S
C2034 C2050 1.368 . S
H2035 C2043 0.950 . S
H2036 C2041 0.950 . S
H2037 C2042 0.949 . S
H2038 C2044 0.950 . S
H2039 C2045 0.950 . S
H2040 C2046 0.949 . S
C2041 H2036 0.950 . S
C2041 C2043 1.327 . S
C2041 C2047 1.429 . S
C2042 C2034 1.574 . S
C2042 H2037 0.949 . S
C2042 C2048 1.368 . S
C2043 C2027 1.349 . S
C2043 H2035 0.950 . S
C2043 C2041 1.327 . S
C2044 C2032 1.349 . S
C2044 H2038 0.950 . S
C2044 C2045 1.327 . S
C2045 H2039 0.950 . S
C2045 C2044 1.327 . S
C2045 C2049 1.429 . S
C2046 C2029 1.574 . S
C2046 H2040 0.949 . S
C2046 C2050 1.368 . S
C2047 C2028 1.429 . S
C2047 C2041 1.429 . S
C2047 C2048 1.523 . S
C2048 C2029 1.368 . S
C2048 C2042 1.368 . S
C2048 C2047 1.523 . S
C2049 C2033 1.429 . S
C2049 C2045 1.429 . S
C2049 C2050 1.523 . S
C2050 C2034 1.368 . S
C2050 C2046 1.368 . S
C2050 C2049 1.523 . S
H2051 C2026 0.950 . S
H2052 C2028 0.950 . S
H2053 C2029 0.949 . S
H2054 C2031 0.950 . S
H2055 C2033 0.950 . S
C2056 C2057 1.349 . S
C2056 C2058 1.327 . S
C2056 H2081 0.950 . S
C2057 C2056 1.349 . S
C2057 C2073 1.349 . S
C2058 C2056 1.327 . S
C2058 C2077 1.429 . S
C2058 H2082 0.950 . S
C2059 C2076 1.574 . S
C2059 C2078 1.368 . S
C2059 H2083 0.949 . S
H2060 C2064 0.949 . S
C2061 C2062 1.349 . S
C2061 C2063 1.327 . S
C2061 H2084 0.950 . S
C2062 C2061 1.349 . S
C2062 C2074 1.349 . S
C2063 C2061 1.327 . S
C2063 C2079 1.429 . S
C2063 H2085 0.950 . S
C2064 H2060 0.949 . S
C2064 C2072 1.574 . S
C2064 C2080 1.368 . S
H2065 C2073 0.950 . S
H2066 C2071 0.950 . S
H2067 C2072 0.949 . S
H2068 C2074 0.950 . S
H2069 C2075 0.950 . S
H2070 C2076 0.949 . S
C2071 H2066 0.950 . S
C2071 C2073 1.327 . S
C2071 C2077 1.429 . S
C2072 C2064 1.574 . S
C2072 H2067 0.949 . S
C2072 C2078 1.368 . S
C2073 C2057 1.349 . S
C2073 H2065 0.950 . S
C2073 C2071 1.327 . S
C2074 C2062 1.349 . S
C2074 H2068 0.950 . S
C2074 C2075 1.327 . S
C2075 H2069 0.950 . S
C2075 C2074 1.327 . S
C2075 C2079 1.429 . S
C2076 C2059 1.574 . S
C2076 H2070 0.949 . S
C2076 C2080 1.368 . S
C2077 C2058 1.429 . S
C2077 C2071 1.429 . S
C2077 C2078 1.523 . S
C2078 C2059 1.368 . S
C2078 C2072 1.368 . S
C2078 C2077 1.523 . S
C2079 C2063 1.429 . S
C2079 C2075 1.429 . S
C2079 C2080 1.523 . S
C2080 C2064 1.368 . S
C2080 C2076 1.368 . S
C2080 C2079 1.523 . S
H2081 C2056 0.950 . S
H2082 C2058 0.950 . S
H2083 C2059 0.949 . S
H2084 C2061 0.950 . S
H2085 C2063 0.950 . S
C2086 C2087 1.349 . S
C2086 C2088 1.327 . S
C2086 H2111 0.950 . S
C2087 C2086 1.349 . S
C2087 C2103 1.349 . S
C2088 C2086 1.327 . S
C2088 C2107 1.429 . S
C2088 H2112 0.950 . S
C2089 C2106 1.574 . S
C2089 C2108 1.368 . S
C2089 H2113 0.949 . S
H2090 C2094 0.949 . S
C2091 C2092 1.349 . S
C2091 C2093 1.327 . S
C2091 H2114 0.950 1_455 S
C2092 C2091 1.349 . S
C2092 C2104 1.349 . S
C2093 C2091 1.327 . S
C2093 C2109 1.429 . S
C2093 H2115 0.982 . S
C2094 H2090 0.949 . S
C2094 C2102 1.574 . S
C2094 C2110 1.368 . S
H2095 C2103 0.950 . S
H2096 C2101 0.950 . S
H2097 C2102 0.949 . S
H2098 C2104 0.950 . S
H2099 C2105 0.950 . S
H2100 C2106 0.949 . S
C2101 H2096 0.950 . S
C2101 C2103 1.327 . S
C2101 C2107 1.429 . S
C2102 C2094 1.574 . S
C2102 H2097 0.949 . S
C2102 C2108 1.368 . S
C2103 C2087 1.349 . S
C2103 H2095 0.950 . S
C2103 C2101 1.327 . S
C2104 C2092 1.349 . S
C2104 H2098 0.950 . S
C2104 C2105 1.327 . S
C2105 H2099 0.950 . S
C2105 C2104 1.327 . S
C2105 C2109 1.429 . S
C2106 C2089 1.574 . S
C2106 H2100 0.949 . S
C2106 C2110 1.368 . S
C2107 C2088 1.429 . S
C2107 C2101 1.429 . S
C2107 C2108 1.523 . S
C2108 C2089 1.368 . S
C2108 C2102 1.368 . S
C2108 C2107 1.523 . S
C2109 C2093 1.429 . S
C2109 C2105 1.429 . S
C2109 C2110 1.523 . S
C2110 C2094 1.368 . S
C2110 C2106 1.368 . S
C2110 C2109 1.523 . S
H2111 C2086 0.950 . S
H2112 C2088 0.950 . S
H2113 C2089 0.949 . S
H2114 C2091 0.950 1_655 S
H2115 C2093 0.982 . S
C2116 C2117 1.349 . S
C2116 C2118 1.327 . S
C2116 H2141 0.950 . S
C2117 C2116 1.349 . S
C2117 C2133 1.349 . S
C2118 C2116 1.327 . S
C2118 C2137 1.429 . S
C2118 H2142 0.950 . S
C2119 C2136 1.574 . S
C2119 C2138 1.368 . S
C2119 H2143 0.949 . S
H2120 C2124 0.949 . S
C2121 C2122 1.349 . S
C2121 C2123 1.327 . S
C2121 H2144 0.950 . S
C2122 C2121 1.349 . S
C2122 C2134 1.349 . S
C2123 C2121 1.327 . S
C2123 C2139 1.429 . S
C2123 H2145 0.950 . S
C2124 H2120 0.949 . S
C2124 C2132 1.574 . S
C2124 C2140 1.368 . S
H2125 C2133 0.950 . S
H2126 C2131 0.950 . S
H2127 C2132 0.949 . S
H2128 C2134 0.950 . S
H2129 C2135 0.950 . S
H2130 C2136 0.949 . S
C2131 H2126 0.950 . S
C2131 C2133 1.327 . S
C2131 C2137 1.429 . S
C2132 C2124 1.574 . S
C2132 H2127 0.949 . S
C2132 C2138 1.368 . S
C2133 C2117 1.349 . S
C2133 H2125 0.950 . S
C2133 C2131 1.327 . S
C2134 C2122 1.349 . S
C2134 H2128 0.950 . S
C2134 C2135 1.327 . S
C2135 H2129 0.950 . S
C2135 C2134 1.327 . S
C2135 C2139 1.429 . S
C2136 C2119 1.574 . S
C2136 H2130 0.949 . S
C2136 C2140 1.368 . S
C2137 C2118 1.429 . S
C2137 C2131 1.429 . S
C2137 C2138 1.523 . S
C2138 C2119 1.368 . S
C2138 C2132 1.368 . S
C2138 C2137 1.523 . S
C2139 C2123 1.429 . S
C2139 C2135 1.429 . S
C2139 C2140 1.523 . S
C2140 C2124 1.368 . S
C2140 C2136 1.368 . S
C2140 C2139 1.523 . S
H2141 C2116 0.950 . S
H2142 C2118 0.950 . S
H2143 C2119 0.949 . S
H2144 C2121 0.950 . S
H2145 C2123 0.950 . S
C2146 C2147 1.349 . S
C2146 C2148 1.327 . S
C2146 H2171 0.950 . S
C2147 C2146 1.349 . S
C2147 C2163 1.349 . S
C2148 C2146 1.327 . S
C2148 C2167 1.429 . S
C2148 H2172 0.950 . S
C2149 C2166 1.574 . S
C2149 C2168 1.368 . S
C2149 H2173 0.970 . S
H2150 C2154 0.949 . S
C2151 C2152 1.365 . S
C2151 C2153 1.330 . S
C2151 H2174 0.932 1_655 S
C2152 C2151 1.365 . S
C2152 C2164 1.349 . S
C2153 C2151 1.330 . S
C2153 C2169 1.429 . S
C2153 H2175 0.950 1_655 S
C2154 H2150 0.949 . S
C2154 C2162 1.574 . S
C2154 C2170 1.368 . S
H2155 C2163 0.950 . S
H2156 C2161 0.950 . S
H2157 C2162 0.949 . S
H2158 C2164 0.950 . S
H2159 C2165 0.950 . S
H2160 C2166 0.949 1_455 S
C2161 H2156 0.950 . S
C2161 C2163 1.327 . S
C2161 C2167 1.429 . S
C2162 C2154 1.574 . S
C2162 H2157 0.949 . S
C2162 C2168 1.368 . S
C2163 C2147 1.349 . S
C2163 H2155 0.950 . S
C2163 C2161 1.327 . S
C2164 C2152 1.349 . S
C2164 H2158 0.950 . S
C2164 C2165 1.327 . S
C2165 H2159 0.950 . S
C2165 C2164 1.327 . S
C2165 C2169 1.429 . S
C2166 C2149 1.574 . S
C2166 H2160 0.949 1_655 S
C2166 C2170 1.368 . S
C2167 C2148 1.429 . S
C2167 C2161 1.429 . S
C2167 C2168 1.523 . S
C2168 C2149 1.368 . S
C2168 C2162 1.368 . S
C2168 C2167 1.523 . S
C2169 C2153 1.429 . S
C2169 C2165 1.429 . S
C2169 C2170 1.523 . S
C2170 C2154 1.368 . S
C2170 C2166 1.368 . S
C2170 C2169 1.523 . S
H2171 C2146 0.950 . S
H2172 C2148 0.950 . S
H2173 C2149 0.970 . S
H2174 C2151 0.932 1_455 S
H2175 C2153 0.950 1_455 S
C2176 C2177 1.349 . S
C2176 C2178 1.327 . S
C2176 H2201 0.950 . S
C2177 C2176 1.349 . S
C2177 C2193 1.349 . S
C2178 C2176 1.327 . S
C2178 C2197 1.429 . S
C2178 H2202 0.950 . S
C2179 C2196 1.574 . S
C2179 C2198 1.368 . S
C2179 H2203 0.949 . S
H2180 C2184 0.949 . S
C2181 C2182 1.349 . S
C2181 C2183 1.327 . S
C2181 H2204 0.950 . S
C2182 C2181 1.349 . S
C2182 C2194 1.349 . S
C2183 C2181 1.327 . S
C2183 C2199 1.429 . S
C2183 H2205 0.950 . S
C2184 H2180 0.949 . S
C2184 C2192 1.574 . S
C2184 C2200 1.368 . S
H2185 C2193 0.950 . S
H2186 C2191 0.950 . S
H2187 C2192 0.949 . S
H2188 C2194 0.950 . S
H2189 C2195 0.950 . S
H2190 C2196 0.949 . S
C2191 H2186 0.950 . S
C2191 C2193 1.327 . S
C2191 C2197 1.429 . S
C2192 C2184 1.574 . S
C2192 H2187 0.949 . S
C2192 C2198 1.368 . S
C2193 C2177 1.349 . S
C2193 H2185 0.950 . S
C2193 C2191 1.327 . S
C2194 C2182 1.349 . S
C2194 H2188 0.950 . S
C2194 C2195 1.327 . S
C2195 H2189 0.950 . S
C2195 C2194 1.327 . S
C2195 C2199 1.429 . S
C2196 C2179 1.574 . S
C2196 H2190 0.949 . S
C2196 C2200 1.368 . S
C2197 C2178 1.429 . S
C2197 C2191 1.429 . S
C2197 C2198 1.523 . S
C2198 C2179 1.368 . S
C2198 C2192 1.368 . S
C2198 C2197 1.523 . S
C2199 C2183 1.429 . S
C2199 C2195 1.429 . S
C2199 C2200 1.523 . S
C2200 C2184 1.368 . S
C2200 C2196 1.368 . S
C2200 C2199 1.523 . S
H2201 C2176 0.950 . S
H2202 C2178 0.950 . S
H2203 C2179 0.949 . S
H2204 C2181 0.950 . S
H2205 C2183 0.950 . S
C2206 C2207 1.349 . S
C2206 C2208 1.327 . S
C2206 H2231 0.950 . S
C2207 C2206 1.349 . S
C2207 C2223 1.349 . S
C2208 C2206 1.327 . S
C2208 C2227 1.429 . S
C2208 H2232 0.950 . S
C2209 C2226 1.574 . S
C2209 C2228 1.368 . S
C2209 H2233 0.949 . S
H2210 C2214 0.949 . S
C2211 C2212 1.349 . S
C2211 C2213 1.327 . S
C2211 H2234 0.950 . S
C2212 C2211 1.349 . S
C2212 C2224 1.349 . S
C2213 C2211 1.327 . S
C2213 C2229 1.429 . S
C2213 H2235 0.950 . S
C2214 H2210 0.949 . S
C2214 C2222 1.574 . S
C2214 C2230 1.368 . S
H2215 C2223 0.950 . S
H2216 C2221 0.950 . S
H2217 C2222 0.949 . S
H2218 C2224 0.950 . S
H2219 C2225 0.950 . S
H2220 C2226 0.949 . S
C2221 H2216 0.950 . S
C2221 C2223 1.327 . S
C2221 C2227 1.429 . S
C2222 C2214 1.574 . S
C2222 H2217 0.949 . S
C2222 C2228 1.368 . S
C2223 C2207 1.349 . S
C2223 H2215 0.950 . S
C2223 C2221 1.327 . S
C2224 C2212 1.349 . S
C2224 H2218 0.950 . S
C2224 C2225 1.327 . S
C2225 H2219 0.950 . S
C2225 C2224 1.327 . S
C2225 C2229 1.429 . S
C2226 C2209 1.574 . S
C2226 H2220 0.949 . S
C2226 C2230 1.368 . S
C2227 C2208 1.429 . S
C2227 C2221 1.429 . S
C2227 C2228 1.523 . S
C2228 C2209 1.368 . S
C2228 C2222 1.368 . S
C2228 C2227 1.523 . S
C2229 C2213 1.429 . S
C2229 C2225 1.429 . S
C2229 C2230 1.523 . S
C2230 C2214 1.368 . S
C2230 C2226 1.368 . S
C2230 C2229 1.523 . S
H2231 C2206 0.950 . S
H2232 C2208 0.950 . S
H2233 C2209 0.949 . S
H2234 C2211 0.950 . S
H2235 C2213 0.950 . S
C2236 C2237 1.349 . S
C2236 C2238 1.327 . S
C2236 H2261 1.004 . S
C2237 C2236 1.349 . S
C2237 C2253 1.349 . S
C2238 C2236 1.327 . S
C2238 C2257 1.429 . S
C2238 H2262 0.950 1_556 S
C2239 C2256 1.574 . S
C2239 C2258 1.368 . S
C2239 H2263 0.949 . S
H2240 C2244 0.963 . S
C2241 C2242 1.349 . S
C2241 C2243 1.327 . S
C2241 H2264 0.950 . S
C2242 C2241 1.349 . S
C2242 C2254 1.349 1_556 S
C2243 C2241 1.327 . S
C2243 C2259 1.429 . S
C2243 H2265 0.950 . S
C2244 H2240 0.963 . S
C2244 C2252 1.571 1_554 S
C2244 C2260 1.355 1_554 S
H2245 C2253 0.950 . S
H2246 C2251 0.950 . S
H2247 C2252 0.949 1_554 S
H2248 C2254 0.950 . S
H2249 C2255 0.950 . S
H2250 C2256 0.949 . S
C2251 H2246 0.950 . S
C2251 C2253 1.327 . S
C2251 C2257 1.429 . S
C2252 C2244 1.571 1_556 S
C2252 H2247 0.949 1_556 S
C2252 C2258 1.368 . S
C2253 C2237 1.349 . S
C2253 H2245 0.950 . S
C2253 C2251 1.327 . S
C2254 C2242 1.349 1_554 S
C2254 H2248 0.950 . S
C2254 C2255 1.327 . S
C2255 H2249 0.950 . S
C2255 C2254 1.327 . S
C2255 C2259 1.429 1_554 S
C2256 C2239 1.574 . S
C2256 H2250 0.949 . S
C2256 C2260 1.368 . S
C2257 C2238 1.429 . S
C2257 C2251 1.429 . S
C2257 C2258 1.523 . S
C2258 C2239 1.368 . S
C2258 C2252 1.368 . S
C2258 C2257 1.523 . S
C2259 C2243 1.429 . S
C2259 C2255 1.429 1_556 S
C2259 C2260 1.523 . S
C2260 C2244 1.355 1_556 S
C2260 C2256 1.368 . S
C2260 C2259 1.523 . S
H2261 C2236 1.004 . S
H2262 C2238 0.950 1_554 S
H2263 C2239 0.949 . S
H2264 C2241 0.950 . S
H2265 C2243 0.950 . S
C2266 C2267 1.349 . S
C2266 C2268 1.327 . S
C2266 H2291 0.950 . S
C2267 C2266 1.349 . S
C2267 C2283 1.349 . S
C2268 C2266 1.327 . S
C2268 C2287 1.429 . S
C2268 H2292 0.950 . S
C2269 C2286 1.574 . S
C2269 C2288 1.368 . S
C2269 H2293 0.949 . S
H2270 C2274 0.949 . S
C2271 C2272 1.349 . S
C2271 C2273 1.327 . S
C2271 H2294 0.950 . S
C2272 C2271 1.349 . S
C2272 C2284 1.349 . S
C2273 C2271 1.327 . S
C2273 C2289 1.429 . S
C2273 H2295 0.950 . S
C2274 H2270 0.949 . S
C2274 C2282 1.574 . S
C2274 C2290 1.368 . S
H2275 C2283 0.950 . S
H2276 C2281 0.950 . S
H2277 C2282 0.949 . S
H2278 C2284 0.950 . S
H2279 C2285 0.950 . S
H2280 C2286 0.949 . S
C2281 H2276 0.950 . S
C2281 C2283 1.327 . S
C2281 C2287 1.429 . S
C2282 C2274 1.574 . S
C2282 H2277 0.949 . S
C2282 C2288 1.368 . S
C2283 C2267 1.349 . S
C2283 H2275 0.950 . S
C2283 C2281 1.327 . S
C2284 C2272 1.349 . S
C2284 H2278 0.950 . S
C2284 C2285 1.327 . S
C2285 H2279 0.950 . S
C2285 C2284 1.327 . S
C2285 C2289 1.429 . S
C2286 C2269 1.574 . S
C2286 H2280 0.949 . S
C2286 C2290 1.368 . S
C2287 C2268 1.429 . S
C2287 C2281 1.429 . S
C2287 C2288 1.523 . S
C2288 C2269 1.368 . S
C2288 C2282 1.368 . S
C2288 C2287 1.523 . S
C2289 C2273 1.429 . S
C2289 C2285 1.429 . S
C2289 C2290 1.523 . S
C2290 C2274 1.368 . S
C2290 C2286 1.368 . S
C2290 C2289 1.523 . S
H2291 C2266 0.950 . S
H2292 C2268 0.950 . S
H2293 C2269 0.949 . S
H2294 C2271 0.950 . S
H2295 C2273 0.950 . S
C2296 C2297 1.349 . S
C2296 C2298 1.327 . S
C2296 H2321 0.950 . S
C2297 C2296 1.349 . S
C2297 C2313 1.349 . S
C2298 C2296 1.327 . S
C2298 C2317 1.429 . S
C2298 H2322 0.950 . S
C2299 C2316 1.574 . S
C2299 C2318 1.368 . S
C2299 H2323 0.949 . S
H2300 C2304 0.949 . S
C2301 C2302 1.349 . S
C2301 C2303 1.327 . S
C2301 H2324 0.950 . S
C2302 C2301 1.349 . S
C2302 C2314 1.349 . S
C2303 C2301 1.327 . S
C2303 C2319 1.429 . S
C2303 H2325 0.950 . S
C2304 H2300 0.949 . S
C2304 C2312 1.574 . S
C2304 C2320 1.368 . S
H2305 C2313 0.950 . S
H2306 C2311 0.950 . S
H2307 C2312 0.949 . S
H2308 C2314 0.950 . S
H2309 C2315 0.950 . S
H2310 C2316 0.949 . S
C2311 H2306 0.950 . S
C2311 C2313 1.327 . S
C2311 C2317 1.429 . S
C2312 C2304 1.574 . S
C2312 H2307 0.949 . S
C2312 C2318 1.368 . S
C2313 C2297 1.349 . S
C2313 H2305 0.950 . S
C2313 C2311 1.327 . S
C2314 C2302 1.349 . S
C2314 H2308 0.950 . S
C2314 C2315 1.327 . S
C2315 H2309 0.950 . S
C2315 C2314 1.327 . S
C2315 C2319 1.429 . S
C2316 C2299 1.574 . S
C2316 H2310 0.949 . S
C2316 C2320 1.368 . S
C2317 C2298 1.429 . S
C2317 C2311 1.429 . S
C2317 C2318 1.523 . S
C2318 C2299 1.368 . S
C2318 C2312 1.368 . S
C2318 C2317 1.523 . S
C2319 C2303 1.429 . S
C2319 C2315 1.429 . S
C2319 C2320 1.523 . S
C2320 C2304 1.368 . S
C2320 C2316 1.368 . S
C2320 C2319 1.523 . S
H2321 C2296 0.950 . S
H2322 C2298 0.950 . S
H2323 C2299 0.949 . S
H2324 C2301 0.950 . S
H2325 C2303 0.950 . S
C2326 C2327 1.349 . S
C2326 C2328 1.327 . S
C2326 H2351 0.950 . S
C2327 C2326 1.349 . S
C2327 C2343 1.349 . S
C2328 C2326 1.327 . S
C2328 C2347 1.429 . S
C2328 H2352 0.950 . S
C2329 C2346 1.574 . S
C2329 C2348 1.368 . S
C2329 H2353 0.949 . S
H2330 C2334 0.949 . S
C2331 C2332 1.349 . S
C2331 C2333 1.327 . S
C2331 H2354 0.950 . S
C2332 C2331 1.349 . S
C2332 C2344 1.349 . S
C2333 C2331 1.327 . S
C2333 C2349 1.429 . S
C2333 H2355 0.950 . S
C2334 H2330 0.949 . S
C2334 C2342 1.574 . S
C2334 C2350 1.368 . S
H2335 C2343 0.950 . S
H2336 C2341 0.950 . S
H2337 C2342 0.949 . S
H2338 C2344 0.950 . S
H2339 C2345 0.950 . S
H2340 C2346 0.949 . S
C2341 H2336 0.950 . S
C2341 C2343 1.327 . S
C2341 C2347 1.429 . S
C2342 C2334 1.574 . S
C2342 H2337 0.949 . S
C2342 C2348 1.368 . S
C2343 C2327 1.349 . S
C2343 H2335 0.950 . S
C2343 C2341 1.327 . S
C2344 C2332 1.349 . S
C2344 H2338 0.950 . S
C2344 C2345 1.327 . S
C2345 H2339 0.950 . S
C2345 C2344 1.327 . S
C2345 C2349 1.429 . S
C2346 C2329 1.574 . S
C2346 H2340 0.949 . S
C2346 C2350 1.368 . S
C2347 C2328 1.429 . S
C2347 C2341 1.429 . S
C2347 C2348 1.523 . S
C2348 C2329 1.368 . S
C2348 C2342 1.368 . S
C2348 C2347 1.523 . S
C2349 C2333 1.429 . S
C2349 C2345 1.429 . S
C2349 C2350 1.523 . S
C2350 C2334 1.368 . S
C2350 C2346 1.368 . S
C2350 C2349 1.523 . S
H2351 C2326 0.950 . S
H2352 C2328 0.950 . S
H2353 C2329 0.949 . S
H2354 C2331 0.950 . S
H2355 C2333 0.950 . S
C2356 C2357 1.349 . S
C2356 C2358 1.327 . S
C2356 H2381 0.950 . S
C2357 C2356 1.349 . S
C2357 C2373 1.349 . S
C2358 C2356 1.327 . S
C2358 C2377 1.429 . S
C2358 H2382 0.950 . S
C2359 C2376 1.574 . S
C2359 C2378 1.368 . S
C2359 H2383 0.949 . S
H2360 C2364 0.949 . S
C2361 C2362 1.349 . S
C2361 C2363 1.327 . S
C2361 H2384 0.950 . S
C2362 C2361 1.349 . S
C2362 C2374 1.349 . S
C2363 C2361 1.327 . S
C2363 C2379 1.429 . S
C2363 H2385 0.950 . S
C2364 H2360 0.949 . S
C2364 C2372 1.574 . S
C2364 C2380 1.368 . S
H2365 C2373 0.950 . S
H2366 C2371 0.950 . S
H2367 C2372 0.949 . S
H2368 C2374 0.950 . S
H2369 C2375 0.950 . S
H2370 C2376 0.949 . S
C2371 H2366 0.950 . S
C2371 C2373 1.327 . S
C2371 C2377 1.429 . S
C2372 C2364 1.574 . S
C2372 H2367 0.949 . S
C2372 C2378 1.368 . S
C2373 C2357 1.349 . S
C2373 H2365 0.950 . S
C2373 C2371 1.327 . S
C2374 C2362 1.349 . S
C2374 H2368 0.950 . S
C2374 C2375 1.327 . S
C2375 H2369 0.950 . S
C2375 C2374 1.327 . S
C2375 C2379 1.429 . S
C2376 C2359 1.574 . S
C2376 H2370 0.949 . S
C2376 C2380 1.368 . S
C2377 C2358 1.429 . S
C2377 C2371 1.429 . S
C2377 C2378 1.523 . S
C2378 C2359 1.368 . S
C2378 C2372 1.368 . S
C2378 C2377 1.523 . S
C2379 C2363 1.429 . S
C2379 C2375 1.429 . S
C2379 C2380 1.523 . S
C2380 C2364 1.368 . S
C2380 C2376 1.368 . S
C2380 C2379 1.523 . S
H2381 C2356 0.950 . S
H2382 C2358 0.950 . S
H2383 C2359 0.949 . S
H2384 C2361 0.950 . S
H2385 C2363 0.950 . S
C2386 C2387 1.349 . S
C2386 C2388 1.327 . S
C2386 H2411 0.950 . S
C2387 C2386 1.349 . S
C2387 C2403 1.349 . S
C2388 C2386 1.327 . S
C2388 C2407 1.429 . S
C2388 H2412 0.950 . S
C2389 C2406 1.574 . S
C2389 C2408 1.368 . S
C2389 H2413 0.949 . S
H2390 C2394 0.949 . S
C2391 C2392 1.349 . S
C2391 C2393 1.327 . S
C2391 H2414 0.950 . S
C2392 C2391 1.349 . S
C2392 C2404 1.349 . S
C2393 C2391 1.327 . S
C2393 C2409 1.429 . S
C2393 H2415 0.950 . S
C2394 H2390 0.949 . S
C2394 C2402 1.574 . S
C2394 C2410 1.368 . S
H2395 C2403 0.950 . S
H2396 C2401 0.950 . S
H2397 C2402 0.949 . S
H2398 C2404 0.950 . S
H2399 C2405 0.950 . S
H2400 C2406 0.949 . S
C2401 H2396 0.950 . S
C2401 C2403 1.327 . S
C2401 C2407 1.429 . S
C2402 C2394 1.574 . S
C2402 H2397 0.949 . S
C2402 C2408 1.368 . S
C2403 C2387 1.349 . S
C2403 H2395 0.950 . S
C2403 C2401 1.327 . S
C2404 C2392 1.349 . S
C2404 H2398 0.950 . S
C2404 C2405 1.327 . S
C2405 H2399 0.950 . S
C2405 C2404 1.327 . S
C2405 C2409 1.429 . S
C2406 C2389 1.574 . S
C2406 H2400 0.949 . S
C2406 C2410 1.368 . S
C2407 C2388 1.429 . S
C2407 C2401 1.429 . S
C2407 C2408 1.523 . S
C2408 C2389 1.368 . S
C2408 C2402 1.368 . S
C2408 C2407 1.523 . S
C2409 C2393 1.429 . S
C2409 C2405 1.429 . S
C2409 C2410 1.523 . S
C2410 C2394 1.368 . S
C2410 C2406 1.368 . S
C2410 C2409 1.523 . S
H2411 C2386 0.950 . S
H2412 C2388 0.950 . S
H2413 C2389 0.949 . S
H2414 C2391 0.950 . S
H2415 C2393 0.950 . S
C2416 C2417 1.349 . S
C2416 C2418 1.327 . S
C2416 H2441 0.950 . S
C2417 C2416 1.349 . S
C2417 C2433 1.349 . S
C2418 C2416 1.327 . S
C2418 C2437 1.429 . S
C2418 H2442 0.950 . S
C2419 C2436 1.574 . S
C2419 C2438 1.368 . S
C2419 H2443 0.949 . S
H2420 C2424 0.949 . S
C2421 C2422 1.349 . S
C2421 C2423 1.327 . S
C2421 H2444 0.950 . S
C2422 C2421 1.349 . S
C2422 C2434 1.349 . S
C2423 C2421 1.327 . S
C2423 C2439 1.429 . S
C2423 H2445 0.950 . S
C2424 H2420 0.949 . S
C2424 C2432 1.574 . S
C2424 C2440 1.368 . S
H2425 C2433 0.950 . S
H2426 C2431 0.950 . S
H2427 C2432 0.949 . S
H2428 C2434 0.950 . S
H2429 C2435 0.950 . S
H2430 C2436 0.949 . S
C2431 H2426 0.950 . S
C2431 C2433 1.327 . S
C2431 C2437 1.429 . S
C2432 C2424 1.574 . S
C2432 H2427 0.949 . S
C2432 C2438 1.368 . S
C2433 C2417 1.349 . S
C2433 H2425 0.950 . S
C2433 C2431 1.327 . S
C2434 C2422 1.349 . S
C2434 H2428 0.950 . S
C2434 C2435 1.327 . S
C2435 H2429 0.950 . S
C2435 C2434 1.327 . S
C2435 C2439 1.429 . S
C2436 C2419 1.574 . S
C2436 H2430 0.949 . S
C2436 C2440 1.368 . S
C2437 C2418 1.429 . S
C2437 C2431 1.429 . S
C2437 C2438 1.523 . S
C2438 C2419 1.368 . S
C2438 C2432 1.368 . S
C2438 C2437 1.523 . S
C2439 C2423 1.429 . S
C2439 C2435 1.429 . S
C2439 C2440 1.523 . S
C2440 C2424 1.368 . S
C2440 C2436 1.368 . S
C2440 C2439 1.523 . S
H2441 C2416 0.950 . S
H2442 C2418 0.950 . S
H2443 C2419 0.949 . S
H2444 C2421 0.950 . S
H2445 C2423 0.950 . S
C2446 C2447 1.349 . S
C2446 C2448 1.327 . S
C2446 H2471 0.950 . S
C2447 C2446 1.349 . S
C2447 C2463 1.349 . S
C2448 C2446 1.327 . S
C2448 C2467 1.429 . S
C2448 H2472 0.950 . S
C2449 C2466 1.574 . S
C2449 C2468 1.368 . S
C2449 H2473 0.928 1_545 S
H2450 C2454 0.949 . S
C2451 C2452 1.385 . S
C2451 C2453 1.332 . S
C2451 H2474 0.911 1_545 S
C2452 C2451 1.385 . S
C2452 C2464 1.349 . S
C2453 C2451 1.332 . S
C2453 C2469 1.429 . S
C2453 H2475 0.950 1_545 S
C2454 H2450 0.949 . S
C2454 C2462 1.574 . S
C2454 C2470 1.368 . S
H2455 C2463 0.950 . S
H2456 C2461 0.950 . S
H2457 C2462 0.949 . S
H2458 C2464 0.950 . S
H2459 C2465 0.950 . S
H2460 C2466 0.949 1_565 S
C2461 H2456 0.950 . S
C2461 C2463 1.327 . S
C2461 C2467 1.429 . S
C2462 C2454 1.574 . S
C2462 H2457 0.949 . S
C2462 C2468 1.368 . S
C2463 C2447 1.349 . S
C2463 H2455 0.950 . S
C2463 C2461 1.327 . S
C2464 C2452 1.349 . S
C2464 H2458 0.950 . S
C2464 C2465 1.327 . S
C2465 H2459 0.950 . S
C2465 C2464 1.327 . S
C2465 C2469 1.429 . S
C2466 C2449 1.574 . S
C2466 H2460 0.949 1_545 S
C2466 C2470 1.368 . S
C2467 C2448 1.429 . S
C2467 C2461 1.429 . S
C2467 C2468 1.523 . S
C2468 C2449 1.368 . S
C2468 C2462 1.368 . S
C2468 C2467 1.523 . S
C2469 C2453 1.429 . S
C2469 C2465 1.429 . S
C2469 C2470 1.523 . S
C2470 C2454 1.368 . S
C2470 C2466 1.368 . S
C2470 C2469 1.523 . S
H2471 C2446 0.950 . S
H2472 C2448 0.950 . S
H2473 C2449 0.928 1_565 S
H2474 C2451 0.911 1_565 S
H2475 C2453 0.950 1_565 S
C2476 C2477 1.349 . S
C2476 C2478 1.327 . S
C2476 H2501 0.950 . S
C2477 C2476 1.349 . S
C2477 C2493 1.349 . S
C2478 C2476 1.327 . S
C2478 C2497 1.429 . S
C2478 H2502 0.950 . S
C2479 C2496 1.574 . S
C2479 C2498 1.368 . S
C2479 H2503 0.949 . S
H2480 C2484 0.949 . S
C2481 C2482 1.349 . S
C2481 C2483 1.327 . S
C2481 H2504 0.950 . S
C2482 C2481 1.349 . S
C2482 C2494 1.349 . S
C2483 C2481 1.327 . S
C2483 C2499 1.429 . S
C2483 H2505 0.950 . S
C2484 H2480 0.949 . S
C2484 C2492 1.574 . S
C2484 C2500 1.368 . S
H2485 C2493 0.950 . S
H2486 C2491 0.950 . S
H2487 C2492 0.949 . S
H2488 C2494 0.950 . S
H2489 C2495 0.950 . S
H2490 C2496 0.949 . S
C2491 H2486 0.950 . S
C2491 C2493 1.327 . S
C2491 C2497 1.429 . S
C2492 C2484 1.574 . S
C2492 H2487 0.949 . S
C2492 C2498 1.368 . S
C2493 C2477 1.349 . S
C2493 H2485 0.950 . S
C2493 C2491 1.327 . S
C2494 C2482 1.349 . S
C2494 H2488 0.950 . S
C2494 C2495 1.327 . S
C2495 H2489 0.950 . S
C2495 C2494 1.327 . S
C2495 C2499 1.429 . S
C2496 C2479 1.574 . S
C2496 H2490 0.949 . S
C2496 C2500 1.368 . S
C2497 C2478 1.429 . S
C2497 C2491 1.429 . S
C2497 C2498 1.523 . S
C2498 C2479 1.368 . S
C2498 C2492 1.368 . S
C2498 C2497 1.523 . S
C2499 C2483 1.429 . S
C2499 C2495 1.429 . S
C2499 C2500 1.523 . S
C2500 C2484 1.368 . S
C2500 C2496 1.368 . S
C2500 C2499 1.523 . S
H2501 C2476 0.950 . S
H2502 C2478 0.950 . S
H2503 C2479 0.949 . S
H2504 C2481 0.950 . S
H2505 C2483 0.950 . S
C2506 C2507 1.349 . S
C2506 C2508 1.327 . S
C2506 H2531 0.950 . S
C2507 C2506 1.349 . S
C2507 C2523 1.349 . S
C2508 C2506 1.327 . S
C2508 C2527 1.429 . S
C2508 H2532 0.950 . S
C2509 C2526 1.574 . S
C2509 C2528 1.368 . S
C2509 H2533 0.949 . S
H2510 C2514 0.949 . S
C2511 C2512 1.349 . S
C2511 C2513 1.327 . S
C2511 H2534 0.950 . S
C2512 C2511 1.349 . S
C2512 C2524 1.349 . S
C2513 C2511 1.327 . S
C2513 C2529 1.429 . S
C2513 H2535 0.950 . S
C2514 H2510 0.949 . S
C2514 C2522 1.574 . S
C2514 C2530 1.368 . S
H2515 C2523 0.950 . S
H2516 C2521 0.950 . S
H2517 C2522 0.949 . S
H2518 C2524 0.950 . S
H2519 C2525 0.950 . S
H2520 C2526 0.949 . S
C2521 H2516 0.950 . S
C2521 C2523 1.327 . S
C2521 C2527 1.429 . S
C2522 C2514 1.574 . S
C2522 H2517 0.949 . S
C2522 C2528 1.368 . S
C2523 C2507 1.349 . S
C2523 H2515 0.950 . S
C2523 C2521 1.327 . S
C2524 C2512 1.349 . S
C2524 H2518 0.950 . S
C2524 C2525 1.327 . S
C2525 H2519 0.950 . S
C2525 C2524 1.327 . S
C2525 C2529 1.429 . S
C2526 C2509 1.574 . S
C2526 H2520 0.949 . S
C2526 C2530 1.368 . S
C2527 C2508 1.429 . S
C2527 C2521 1.429 . S
C2527 C2528 1.523 . S
C2528 C2509 1.368 . S
C2528 C2522 1.368 . S
C2528 C2527 1.523 . S
C2529 C2513 1.429 . S
C2529 C2525 1.429 . S
C2529 C2530 1.523 . S
C2530 C2514 1.368 . S
C2530 C2526 1.368 . S
C2530 C2529 1.523 . S
H2531 C2506 0.950 . S
H2532 C2508 0.950 . S
H2533 C2509 0.949 . S
H2534 C2511 0.950 . S
H2535 C2513 0.950 . S
C2536 C2537 1.349 . S
C2536 C2538 1.327 . S
C2536 H2561 0.950 . S
C2537 C2536 1.349 . S
C2537 C2553 1.349 . S
C2538 C2536 1.327 . S
C2538 C2557 1.429 . S
C2538 H2562 0.950 . S
C2539 C2556 1.574 . S
C2539 C2558 1.368 . S
C2539 H2563 0.949 . S
H2540 C2544 0.949 . S
C2541 C2542 1.349 . S
C2541 C2543 1.327 . S
C2541 H2564 0.950 . S
C2542 C2541 1.349 . S
C2542 C2554 1.349 . S
C2543 C2541 1.327 . S
C2543 C2559 1.429 . S
C2543 H2565 0.950 . S
C2544 H2540 0.949 . S
C2544 C2552 1.574 . S
C2544 C2560 1.368 . S
H2545 C2553 0.950 . S
H2546 C2551 0.950 . S
H2547 C2552 0.949 . S
H2548 C2554 0.950 . S
H2549 C2555 0.950 . S
H2550 C2556 0.949 . S
C2551 H2546 0.950 . S
C2551 C2553 1.327 . S
C2551 C2557 1.429 . S
C2552 C2544 1.574 . S
C2552 H2547 0.949 . S
C2552 C2558 1.368 . S
C2553 C2537 1.349 . S
C2553 H2545 0.950 . S
C2553 C2551 1.327 . S
C2554 C2542 1.349 . S
C2554 H2548 0.950 . S
C2554 C2555 1.327 . S
C2555 H2549 0.950 . S
C2555 C2554 1.327 . S
C2555 C2559 1.429 . S
C2556 C2539 1.574 . S
C2556 H2550 0.949 . S
C2556 C2560 1.368 . S
C2557 C2538 1.429 . S
C2557 C2551 1.429 . S
C2557 C2558 1.523 . S
C2558 C2539 1.368 . S
C2558 C2552 1.368 . S
C2558 C2557 1.523 . S
C2559 C2543 1.429 . S
C2559 C2555 1.429 . S
C2559 C2560 1.523 . S
C2560 C2544 1.368 . S
C2560 C2556 1.368 . S
C2560 C2559 1.523 . S
H2561 C2536 0.950 . S
H2562 C2538 0.950 . S
H2563 C2539 0.949 . S
H2564 C2541 0.950 . S
H2565 C2543 0.950 . S
C2566 C2567 1.349 . S
C2566 C2568 1.327 . S
C2566 H2591 0.950 . S
C2567 C2566 1.349 . S
C2567 C2583 1.349 . S
C2568 C2566 1.327 . S
C2568 C2587 1.429 . S
C2568 H2592 0.950 . S
C2569 C2586 1.574 . S
C2569 C2588 1.368 . S
C2569 H2593 0.949 1_545 S
H2570 C2574 0.949 . S
C2571 C2572 1.339 1_565 S
C2571 C2573 1.323 1_565 S
C2571 H2594 0.961 . S
C2572 C2571 1.339 1_545 S
C2572 C2584 1.349 . S
C2573 C2571 1.323 1_545 S
C2573 C2589 1.474 . S
C2573 H2595 0.909 1_545 S
C2574 H2570 0.949 . S
C2574 C2582 1.574 . S
C2574 C2590 1.368 . S
H2575 C2583 0.950 . S
H2576 C2581 0.925 1_565 S
H2577 C2582 0.949 . S
H2578 C2584 0.950 . S
H2579 C2585 0.950 . S
H2580 C2586 0.949 1_565 S
C2581 H2576 0.925 1_545 S
C2581 C2583 1.327 . S
C2581 C2587 1.429 . S
C2582 C2574 1.574 . S
C2582 H2577 0.949 . S
C2582 C2588 1.368 . S
C2583 C2567 1.349 . S
C2583 H2575 0.950 . S
C2583 C2581 1.327 . S
C2584 C2572 1.349 . S
C2584 H2578 0.950 . S
C2584 C2585 1.327 . S
C2585 H2579 0.950 . S
C2585 C2584 1.327 . S
C2585 C2589 1.429 . S
C2586 C2569 1.574 . S
C2586 H2580 0.949 1_545 S
C2586 C2590 1.368 . S
C2587 C2568 1.429 . S
C2587 C2581 1.429 . S
C2587 C2588 1.523 . S
C2588 C2569 1.368 . S
C2588 C2582 1.368 . S
C2588 C2587 1.523 . S
C2589 C2573 1.474 . S
C2589 C2585 1.429 . S
C2589 C2590 1.523 . S
C2590 C2574 1.368 . S
C2590 C2586 1.368 . S
C2590 C2589 1.523 . S
H2591 C2566 0.950 . S
H2592 C2568 0.950 . S
H2593 C2569 0.949 1_565 S
H2594 C2571 0.961 . S
H2595 C2573 0.909 1_565 S
C2596 C2597 1.349 . S
C2596 C2598 1.327 . S
C2596 H2621 0.950 . S
C2597 C2596 1.349 . S
C2597 C2613 1.349 . S
C2598 C2596 1.327 . S
C2598 C2617 1.429 . S
C2598 H2622 0.950 . S
C2599 C2616 1.574 . S
C2599 C2618 1.368 . S
C2599 H2623 0.949 . S
H2600 C2604 0.949 . S
C2601 C2602 1.349 . S
C2601 C2603 1.327 . S
C2601 H2624 0.950 . S
C2602 C2601 1.349 . S
C2602 C2614 1.349 . S
C2603 C2601 1.327 . S
C2603 C2619 1.429 . S
C2603 H2625 0.950 . S
C2604 H2600 0.949 . S
C2604 C2612 1.574 . S
C2604 C2620 1.368 . S
H2605 C2613 0.950 . S
H2606 C2611 0.950 . S
H2607 C2612 0.949 . S
H2608 C2614 0.950 . S
H2609 C2615 0.950 . S
H2610 C2616 0.949 . S
C2611 H2606 0.950 . S
C2611 C2613 1.327 . S
C2611 C2617 1.429 . S
C2612 C2604 1.574 . S
C2612 H2607 0.949 . S
C2612 C2618 1.368 . S
C2613 C2597 1.349 . S
C2613 H2605 0.950 . S
C2613 C2611 1.327 . S
C2614 C2602 1.349 . S
C2614 H2608 0.950 . S
C2614 C2615 1.327 . S
C2615 H2609 0.950 . S
C2615 C2614 1.327 . S
C2615 C2619 1.429 . S
C2616 C2599 1.574 . S
C2616 H2610 0.949 . S
C2616 C2620 1.368 . S
C2617 C2598 1.429 . S
C2617 C2611 1.429 . S
C2617 C2618 1.523 . S
C2618 C2599 1.368 . S
C2618 C2612 1.368 . S
C2618 C2617 1.523 . S
C2619 C2603 1.429 . S
C2619 C2615 1.429 . S
C2619 C2620 1.523 . S
C2620 C2604 1.368 . S
C2620 C2616 1.368 . S
C2620 C2619 1.523 . S
H2621 C2596 0.950 . S
H2622 C2598 0.950 . S
H2623 C2599 0.949 . S
H2624 C2601 0.950 . S
H2625 C2603 0.950 . S
C2626 C2627 1.349 . S
C2626 C2628 1.327 . S
C2626 H2651 0.950 . S
C2627 C2626 1.349 . S
C2627 C2643 1.349 . S
C2628 C2626 1.327 . S
C2628 C2647 1.429 . S
C2628 H2652 0.950 . S
C2629 C2646 1.574 . S
C2629 C2648 1.368 . S
C2629 H2653 0.949 . S
H2630 C2634 0.949 . S
C2631 C2632 1.349 . S
C2631 C2633 1.327 . S
C2631 H2654 0.950 . S
C2632 C2631 1.349 . S
C2632 C2644 1.349 . S
C2633 C2631 1.327 . S
C2633 C2649 1.429 . S
C2633 H2655 0.950 . S
C2634 H2630 0.949 . S
C2634 C2642 1.574 . S
C2634 C2650 1.368 . S
H2635 C2643 0.950 . S
H2636 C2641 0.950 . S
H2637 C2642 0.949 . S
H2638 C2644 0.950 . S
H2639 C2645 0.950 . S
H2640 C2646 0.949 . S
C2641 H2636 0.950 . S
C2641 C2643 1.327 . S
C2641 C2647 1.429 . S
C2642 C2634 1.574 . S
C2642 H2637 0.949 . S
C2642 C2648 1.368 . S
C2643 C2627 1.349 . S
C2643 H2635 0.950 . S
C2643 C2641 1.327 . S
C2644 C2632 1.349 . S
C2644 H2638 0.950 . S
C2644 C2645 1.327 . S
C2645 H2639 0.950 . S
C2645 C2644 1.327 . S
C2645 C2649 1.429 . S
C2646 C2629 1.574 . S
C2646 H2640 0.949 . S
C2646 C2650 1.368 . S
C2647 C2628 1.429 . S
C2647 C2641 1.429 . S
C2647 C2648 1.523 . S
C2648 C2629 1.368 . S
C2648 C2642 1.368 . S
C2648 C2647 1.523 . S
C2649 C2633 1.429 . S
C2649 C2645 1.429 . S
C2649 C2650 1.523 . S
C2650 C2634 1.368 . S
C2650 C2646 1.368 . S
C2650 C2649 1.523 . S
H2651 C2626 0.950 . S
H2652 C2628 0.950 . S
H2653 C2629 0.949 . S
H2654 C2631 0.950 . S
H2655 C2633 0.950 . S
C2656 C2657 1.349 . S
C2656 C2658 1.327 . S
C2656 H2681 0.950 . S
C2657 C2656 1.349 . S
C2657 C2673 1.349 . S
C2658 C2656 1.327 . S
C2658 C2677 1.429 . S
C2658 H2682 0.950 . S
C2659 C2676 1.574 . S
C2659 C2678 1.368 . S
C2659 H2683 0.949 . S
H2660 C2664 0.949 . S
C2661 C2662 1.349 . S
C2661 C2663 1.327 . S
C2661 H2684 0.950 . S
C2662 C2661 1.349 . S
C2662 C2674 1.349 . S
C2663 C2661 1.327 . S
C2663 C2679 1.429 . S
C2663 H2685 0.950 . S
C2664 H2660 0.949 . S
C2664 C2672 1.574 . S
C2664 C2680 1.368 . S
H2665 C2673 0.950 . S
H2666 C2671 0.950 . S
H2667 C2672 0.949 . S
H2668 C2674 0.950 . S
H2669 C2675 0.950 . S
H2670 C2676 0.949 . S
C2671 H2666 0.950 . S
C2671 C2673 1.327 . S
C2671 C2677 1.429 . S
C2672 C2664 1.574 . S
C2672 H2667 0.949 . S
C2672 C2678 1.368 . S
C2673 C2657 1.349 . S
C2673 H2665 0.950 . S
C2673 C2671 1.327 . S
C2674 C2662 1.349 . S
C2674 H2668 0.950 . S
C2674 C2675 1.327 . S
C2675 H2669 0.950 . S
C2675 C2674 1.327 . S
C2675 C2679 1.429 . S
C2676 C2659 1.574 . S
C2676 H2670 0.949 . S
C2676 C2680 1.368 . S
C2677 C2658 1.429 . S
C2677 C2671 1.429 . S
C2677 C2678 1.523 . S
C2678 C2659 1.368 . S
C2678 C2672 1.368 . S
C2678 C2677 1.523 . S
C2679 C2663 1.429 . S
C2679 C2675 1.429 . S
C2679 C2680 1.523 . S
C2680 C2664 1.368 . S
C2680 C2676 1.368 . S
C2680 C2679 1.523 . S
H2681 C2656 0.950 . S
H2682 C2658 0.950 . S
H2683 C2659 0.949 . S
H2684 C2661 0.950 . S
H2685 C2663 0.950 . S
C2686 C2687 1.349 . S
C2686 C2688 1.327 . S
C2686 H2711 0.950 . S
C2687 C2686 1.349 . S
C2687 C2703 1.349 . S
C2688 C2686 1.327 . S
C2688 C2707 1.429 . S
C2688 H2712 0.950 . S
C2689 C2706 1.568 1_655 S
C2689 C2708 1.425 . S
C2689 H2713 0.904 1_655 S
H2690 C2694 0.949 . S
C2691 C2692 1.349 1_455 S
C2691 C2693 1.327 . S
C2691 H2714 0.950 . S
C2692 C2691 1.349 1_655 S
C2692 C2704 1.349 . S
C2693 C2691 1.327 . S
C2693 C2709 1.429 1_455 S
C2693 H2715 0.950 . S
C2694 H2690 0.949 . S
C2694 C2702 1.574 . S
C2694 C2710 1.368 . S
H2695 C2703 0.950 1_455 S
H2696 C2701 0.950 1_455 S
H2697 C2702 0.949 . S
H2698 C2704 0.950 . S
H2699 C2705 0.950 . S
H2700 C2706 0.995 . S
C2701 H2696 0.950 1_655 S
C2701 C2703 1.327 . S
C2701 C2707 1.429 . S
C2702 C2694 1.574 . S
C2702 H2697 0.949 . S
C2702 C2708 1.368 . S
C2703 C2687 1.349 . S
C2703 H2695 0.950 1_655 S
C2703 C2701 1.327 . S
C2704 C2692 1.349 . S
C2704 H2698 0.950 . S
C2704 C2705 1.327 . S
C2705 H2699 0.950 . S
C2705 C2704 1.327 . S
C2705 C2709 1.429 . S
C2706 C2689 1.568 1_455 S
C2706 H2700 0.995 . S
C2706 C2710 1.324 1_455 S
C2707 C2688 1.429 . S
C2707 C2701 1.429 . S
C2707 C2708 1.523 . S
C2708 C2689 1.425 . S
C2708 C2702 1.368 . S
C2708 C2707 1.523 . S
C2709 C2693 1.429 1_655 S
C2709 C2705 1.429 . S
C2709 C2710 1.523 . S
C2710 C2694 1.368 . S
C2710 C2706 1.324 1_655 S
C2710 C2709 1.523 . S
H2711 C2686 0.950 . S
H2712 C2688 0.950 . S
H2713 C2689 0.904 1_455 S
H2714 C2691 0.950 . S
H2715 C2693 0.950 . S
C2716 C2717 1.349 . S
C2716 C2718 1.327 . S
C2716 H2741 0.950 . S
C2717 C2716 1.349 . S
C2717 C2733 1.349 . S
C2718 C2716 1.327 . S
C2718 C2737 1.429 . S
C2718 H2742 0.950 . S
C2719 C2736 1.574 . S
C2719 C2738 1.368 . S
C2719 H2743 0.949 . S
H2720 C2724 0.949 . S
C2721 C2722 1.349 . S
C2721 C2723 1.327 . S
C2721 H2744 0.950 . S
C2722 C2721 1.349 . S
C2722 C2734 1.349 . S
C2723 C2721 1.327 . S
C2723 C2739 1.429 . S
C2723 H2745 0.950 . S
C2724 H2720 0.949 . S
C2724 C2732 1.574 . S
C2724 C2740 1.368 . S
H2725 C2733 0.950 . S
H2726 C2731 0.950 . S
H2727 C2732 0.949 . S
H2728 C2734 0.950 . S
H2729 C2735 0.950 . S
H2730 C2736 0.949 . S
C2731 H2726 0.950 . S
C2731 C2733 1.327 . S
C2731 C2737 1.429 . S
C2732 C2724 1.574 . S
C2732 H2727 0.949 . S
C2732 C2738 1.368 . S
C2733 C2717 1.349 . S
C2733 H2725 0.950 . S
C2733 C2731 1.327 . S
C2734 C2722 1.349 . S
C2734 H2728 0.950 . S
C2734 C2735 1.327 . S
C2735 H2729 0.950 . S
C2735 C2734 1.327 . S
C2735 C2739 1.429 . S
C2736 C2719 1.574 . S
C2736 H2730 0.949 . S
C2736 C2740 1.368 . S
C2737 C2718 1.429 . S
C2737 C2731 1.429 . S
C2737 C2738 1.523 . S
C2738 C2719 1.368 . S
C2738 C2732 1.368 . S
C2738 C2737 1.523 . S
C2739 C2723 1.429 . S
C2739 C2735 1.429 . S
C2739 C2740 1.523 . S
C2740 C2724 1.368 . S
C2740 C2736 1.368 . S
C2740 C2739 1.523 . S
H2741 C2716 0.950 . S
H2742 C2718 0.950 . S
H2743 C2719 0.949 . S
H2744 C2721 0.950 . S
H2745 C2723 0.950 . S
C2746 C2747 1.349 . S
C2746 C2748 1.327 . S
C2746 H2771 0.950 . S
C2747 C2746 1.349 . S
C2747 C2763 1.349 . S
C2748 C2746 1.327 . S
C2748 C2767 1.429 . S
C2748 H2772 0.950 . S
C2749 C2766 1.574 . S
C2749 C2768 1.368 . S
C2749 H2773 0.949 . S
H2750 C2754 0.949 . S
C2751 C2752 1.349 . S
C2751 C2753 1.327 . S
C2751 H2774 0.950 . S
C2752 C2751 1.349 . S
C2752 C2764 1.349 . S
C2753 C2751 1.327 . S
C2753 C2769 1.429 . S
C2753 H2775 0.950 . S
C2754 H2750 0.949 . S
C2754 C2762 1.574 . S
C2754 C2770 1.368 . S
H2755 C2763 0.950 . S
H2756 C2761 0.950 . S
H2757 C2762 0.949 . S
H2758 C2764 0.950 . S
H2759 C2765 0.950 . S
H2760 C2766 0.949 . S
C2761 H2756 0.950 . S
C2761 C2763 1.327 . S
C2761 C2767 1.429 . S
C2762 C2754 1.574 . S
C2762 H2757 0.949 . S
C2762 C2768 1.368 . S
C2763 C2747 1.349 . S
C2763 H2755 0.950 . S
C2763 C2761 1.327 . S
C2764 C2752 1.349 . S
C2764 H2758 0.950 . S
C2764 C2765 1.327 . S
C2765 H2759 0.950 . S
C2765 C2764 1.327 . S
C2765 C2769 1.429 . S
C2766 C2749 1.574 . S
C2766 H2760 0.949 . S
C2766 C2770 1.368 . S
C2767 C2748 1.429 . S
C2767 C2761 1.429 . S
C2767 C2768 1.523 . S
C2768 C2749 1.368 . S
C2768 C2762 1.368 . S
C2768 C2767 1.523 . S
C2769 C2753 1.429 . S
C2769 C2765 1.429 . S
C2769 C2770 1.523 . S
C2770 C2754 1.368 . S
C2770 C2766 1.368 . S
C2770 C2769 1.523 . S
H2771 C2746 0.950 . S
H2772 C2748 0.950 . S
H2773 C2749 0.949 . S
H2774 C2751 0.950 . S
H2775 C2753 0.950 . S
C2776 C2777 1.349 . S
C2776 C2778 1.327 . S
C2776 H2801 0.950 . S
C2777 C2776 1.349 . S
C2777 C2793 1.349 . S
C2778 C2776 1.327 . S
C2778 C2797 1.429 . S
C2778 H2802 0.950 . S
C2779 C2796 1.574 . S
C2779 C2798 1.368 . S
C2779 H2803 0.949 . S
H2780 C2784 0.949 . S
C2781 C2782 1.349 . S
C2781 C2783 1.327 . S
C2781 H2804 0.950 . S
C2782 C2781 1.349 . S
C2782 C2794 1.349 . S
C2783 C2781 1.327 . S
C2783 C2799 1.429 . S
C2783 H2805 0.950 . S
C2784 H2780 0.949 . S
C2784 C2792 1.574 . S
C2784 C2800 1.368 . S
H2785 C2793 0.950 . S
H2786 C2791 0.950 . S
H2787 C2792 0.949 . S
H2788 C2794 0.950 . S
H2789 C2795 0.950 . S
H2790 C2796 0.949 . S
C2791 H2786 0.950 . S
C2791 C2793 1.327 . S
C2791 C2797 1.429 . S
C2792 C2784 1.574 . S
C2792 H2787 0.949 . S
C2792 C2798 1.368 . S
C2793 C2777 1.349 . S
C2793 H2785 0.950 . S
C2793 C2791 1.327 . S
C2794 C2782 1.349 . S
C2794 H2788 0.950 . S
C2794 C2795 1.327 . S
C2795 H2789 0.950 . S
C2795 C2794 1.327 . S
C2795 C2799 1.429 . S
C2796 C2779 1.574 . S
C2796 H2790 0.949 . S
C2796 C2800 1.368 . S
C2797 C2778 1.429 . S
C2797 C2791 1.429 . S
C2797 C2798 1.523 . S
C2798 C2779 1.368 . S
C2798 C2792 1.368 . S
C2798 C2797 1.523 . S
C2799 C2783 1.429 . S
C2799 C2795 1.429 . S
C2799 C2800 1.523 . S
C2800 C2784 1.368 . S
C2800 C2796 1.368 . S
C2800 C2799 1.523 . S
H2801 C2776 0.950 . S
H2802 C2778 0.950 . S
H2803 C2779 0.949 . S
H2804 C2781 0.950 . S
H2805 C2783 0.950 . S
C2806 C2807 1.349 . S
C2806 C2808 1.327 . S
C2806 H2831 0.950 . S
C2807 C2806 1.349 . S
C2807 C2823 1.349 . S
C2808 C2806 1.327 . S
C2808 C2827 1.429 . S
C2808 H2832 0.950 . S
C2809 C2826 1.574 . S
C2809 C2828 1.368 . S
C2809 H2833 0.949 . S
H2810 C2814 0.949 . S
C2811 C2812 1.349 . S
C2811 C2813 1.327 . S
C2811 H2834 0.950 . S
C2812 C2811 1.349 . S
C2812 C2824 1.349 . S
C2813 C2811 1.327 . S
C2813 C2829 1.429 . S
C2813 H2835 0.950 . S
C2814 H2810 0.949 . S
C2814 C2822 1.574 . S
C2814 C2830 1.368 . S
H2815 C2823 0.950 . S
H2816 C2821 0.950 . S
H2817 C2822 0.949 . S
H2818 C2824 0.950 . S
H2819 C2825 0.950 . S
H2820 C2826 0.949 . S
C2821 H2816 0.950 . S
C2821 C2823 1.327 . S
C2821 C2827 1.429 . S
C2822 C2814 1.574 . S
C2822 H2817 0.949 . S
C2822 C2828 1.368 . S
C2823 C2807 1.349 . S
C2823 H2815 0.950 . S
C2823 C2821 1.327 . S
C2824 C2812 1.349 . S
C2824 H2818 0.950 . S
C2824 C2825 1.327 . S
C2825 H2819 0.950 . S
C2825 C2824 1.327 . S
C2825 C2829 1.429 . S
C2826 C2809 1.574 . S
C2826 H2820 0.949 . S
C2826 C2830 1.368 . S
C2827 C2808 1.429 . S
C2827 C2821 1.429 . S
C2827 C2828 1.523 . S
C2828 C2809 1.368 . S
C2828 C2822 1.368 . S
C2828 C2827 1.523 . S
C2829 C2813 1.429 . S
C2829 C2825 1.429 . S
C2829 C2830 1.523 . S
C2830 C2814 1.368 . S
C2830 C2826 1.368 . S
C2830 C2829 1.523 . S
H2831 C2806 0.950 . S
H2832 C2808 0.950 . S
H2833 C2809 0.949 . S
H2834 C2811 0.950 . S
H2835 C2813 0.950 . S
C2836 C2837 1.349 . S
C2836 C2838 1.327 . S
C2836 H2861 0.950 . S
C2837 C2836 1.349 . S
C2837 C2853 1.349 . S
C2838 C2836 1.327 . S
C2838 C2857 1.429 . S
C2838 H2862 0.950 . S
C2839 C2856 1.574 . S
C2839 C2858 1.368 . S
C2839 H2863 0.949 . S
H2840 C2844 0.949 . S
C2841 C2842 1.349 . S
C2841 C2843 1.327 . S
C2841 H2864 0.950 . S
C2842 C2841 1.349 . S
C2842 C2854 1.349 . S
C2843 C2841 1.327 . S
C2843 C2859 1.429 . S
C2843 H2865 0.950 . S
C2844 H2840 0.949 . S
C2844 C2852 1.574 . S
C2844 C2860 1.368 . S
H2845 C2853 0.950 . S
H2846 C2851 0.950 . S
H2847 C2852 0.949 . S
H2848 C2854 0.950 . S
H2849 C2855 0.950 . S
H2850 C2856 0.949 . S
C2851 H2846 0.950 . S
C2851 C2853 1.327 . S
C2851 C2857 1.429 . S
C2852 C2844 1.574 . S
C2852 H2847 0.949 . S
C2852 C2858 1.368 . S
C2853 C2837 1.349 . S
C2853 H2845 0.950 . S
C2853 C2851 1.327 . S
C2854 C2842 1.349 . S
C2854 H2848 0.950 . S
C2854 C2855 1.327 . S
C2855 H2849 0.950 . S
C2855 C2854 1.327 . S
C2855 C2859 1.429 . S
C2856 C2839 1.574 . S
C2856 H2850 0.949 . S
C2856 C2860 1.368 . S
C2857 C2838 1.429 . S
C2857 C2851 1.429 . S
C2857 C2858 1.523 . S
C2858 C2839 1.368 . S
C2858 C2852 1.368 . S
C2858 C2857 1.523 . S
C2859 C2843 1.429 . S
C2859 C2855 1.429 . S
C2859 C2860 1.523 . S
C2860 C2844 1.368 . S
C2860 C2856 1.368 . S
C2860 C2859 1.523 . S
H2861 C2836 0.950 . S
H2862 C2838 0.950 . S
H2863 C2839 0.949 . S
H2864 C2841 0.950 . S
H2865 C2843 0.950 . S
C2866 C2867 1.349 . S
C2866 C2868 1.327 . S
C2866 H2891 0.950 . S
C2867 C2866 1.349 . S
C2867 C2883 1.349 . S
C2868 C2866 1.327 . S
C2868 C2887 1.429 . S
C2868 H2892 0.950 . S
C2869 C2886 1.574 . S
C2869 C2888 1.368 . S
C2869 H2893 0.949 . S
H2870 C2874 0.949 . S
C2871 C2872 1.349 . S
C2871 C2873 1.327 . S
C2871 H2894 0.950 . S
C2872 C2871 1.349 . S
C2872 C2884 1.349 . S
C2873 C2871 1.327 . S
C2873 C2889 1.429 . S
C2873 H2895 0.950 . S
C2874 H2870 0.949 . S
C2874 C2882 1.574 . S
C2874 C2890 1.368 . S
H2875 C2883 0.950 . S
H2876 C2881 0.950 . S
H2877 C2882 0.949 . S
H2878 C2884 0.950 . S
H2879 C2885 0.950 . S
H2880 C2886 0.949 . S
C2881 H2876 0.950 . S
C2881 C2883 1.327 . S
C2881 C2887 1.429 . S
C2882 C2874 1.574 . S
C2882 H2877 0.949 . S
C2882 C2888 1.368 . S
C2883 C2867 1.349 . S
C2883 H2875 0.950 . S
C2883 C2881 1.327 . S
C2884 C2872 1.349 . S
C2884 H2878 0.950 . S
C2884 C2885 1.327 . S
C2885 H2879 0.950 . S
C2885 C2884 1.327 . S
C2885 C2889 1.429 . S
C2886 C2869 1.574 . S
C2886 H2880 0.949 . S
C2886 C2890 1.368 . S
C2887 C2868 1.429 . S
C2887 C2881 1.429 . S
C2887 C2888 1.523 . S
C2888 C2869 1.368 . S
C2888 C2882 1.368 . S
C2888 C2887 1.523 . S
C2889 C2873 1.429 . S
C2889 C2885 1.429 . S
C2889 C2890 1.523 . S
C2890 C2874 1.368 . S
C2890 C2886 1.368 . S
C2890 C2889 1.523 . S
H2891 C2866 0.950 . S
H2892 C2868 0.950 . S
H2893 C2869 0.949 . S
H2894 C2871 0.950 . S
H2895 C2873 0.950 . S
C2896 C2897 1.349 . S
C2896 C2898 1.327 . S
C2896 H2921 0.950 . S
C2897 C2896 1.349 . S
C2897 C2913 1.349 . S
C2898 C2896 1.327 . S
C2898 C2917 1.429 . S
C2898 H2922 0.950 . S
C2899 C2916 1.574 . S
C2899 C2918 1.368 . S
C2899 H2923 0.949 . S
H2900 C2904 0.949 . S
C2901 C2902 1.349 . S
C2901 C2903 1.327 . S
C2901 H2924 0.950 . S
C2902 C2901 1.349 . S
C2902 C2914 1.349 . S
C2903 C2901 1.327 . S
C2903 C2919 1.429 . S
C2903 H2925 0.950 . S
C2904 H2900 0.949 . S
C2904 C2912 1.574 . S
C2904 C2920 1.368 . S
H2905 C2913 0.950 . S
H2906 C2911 0.950 . S
H2907 C2912 0.949 . S
H2908 C2914 0.950 . S
H2909 C2915 0.950 . S
H2910 C2916 0.949 . S
C2911 H2906 0.950 . S
C2911 C2913 1.327 . S
C2911 C2917 1.429 . S
C2912 C2904 1.574 . S
C2912 H2907 0.949 . S
C2912 C2918 1.368 . S
C2913 C2897 1.349 . S
C2913 H2905 0.950 . S
C2913 C2911 1.327 . S
C2914 C2902 1.349 . S
C2914 H2908 0.950 . S
C2914 C2915 1.327 . S
C2915 H2909 0.950 . S
C2915 C2914 1.327 . S
C2915 C2919 1.429 . S
C2916 C2899 1.574 . S
C2916 H2910 0.949 . S
C2916 C2920 1.368 . S
C2917 C2898 1.429 . S
C2917 C2911 1.429 . S
C2917 C2918 1.523 . S
C2918 C2899 1.368 . S
C2918 C2912 1.368 . S
C2918 C2917 1.523 . S
C2919 C2903 1.429 . S
C2919 C2915 1.429 . S
C2919 C2920 1.523 . S
C2920 C2904 1.368 . S
C2920 C2916 1.368 . S
C2920 C2919 1.523 . S
H2921 C2896 0.950 . S
H2922 C2898 0.950 . S
H2923 C2899 0.949 . S
H2924 C2901 0.950 . S
H2925 C2903 0.950 . S
C2926 C2927 1.349 . S
C2926 C2928 1.327 . S
C2926 H2951 0.950 . S
C2927 C2926 1.349 . S
C2927 C2943 1.349 . S
C2928 C2926 1.327 . S
C2928 C2947 1.429 . S
C2928 H2952 0.950 . S
C2929 C2946 1.574 . S
C2929 C2948 1.368 . S
C2929 H2953 0.949 . S
H2930 C2934 0.949 . S
C2931 C2932 1.349 . S
C2931 C2933 1.327 . S
C2931 H2954 0.950 . S
C2932 C2931 1.349 . S
C2932 C2944 1.349 . S
C2933 C2931 1.327 . S
C2933 C2949 1.429 . S
C2933 H2955 0.950 . S
C2934 H2930 0.949 . S
C2934 C2942 1.574 . S
C2934 C2950 1.368 . S
H2935 C2943 0.950 . S
H2936 C2941 0.950 . S
H2937 C2942 0.949 . S
H2938 C2944 0.950 . S
H2939 C2945 0.950 . S
H2940 C2946 0.949 . S
C2941 H2936 0.950 . S
C2941 C2943 1.327 . S
C2941 C2947 1.429 . S
C2942 C2934 1.574 . S
C2942 H2937 0.949 . S
C2942 C2948 1.368 . S
C2943 C2927 1.349 . S
C2943 H2935 0.950 . S
C2943 C2941 1.327 . S
C2944 C2932 1.349 . S
C2944 H2938 0.950 . S
C2944 C2945 1.327 . S
C2945 H2939 0.950 . S
C2945 C2944 1.327 . S
C2945 C2949 1.429 . S
C2946 C2929 1.574 . S
C2946 H2940 0.949 . S
C2946 C2950 1.368 . S
C2947 C2928 1.429 . S
C2947 C2941 1.429 . S
C2947 C2948 1.523 . S
C2948 C2929 1.368 . S
C2948 C2942 1.368 . S
C2948 C2947 1.523 . S
C2949 C2933 1.429 . S
C2949 C2945 1.429 . S
C2949 C2950 1.523 . S
C2950 C2934 1.368 . S
C2950 C2946 1.368 . S
C2950 C2949 1.523 . S
H2951 C2926 0.950 . S
H2952 C2928 0.950 . S
H2953 C2929 0.949 . S
H2954 C2931 0.950 . S
H2955 C2933 0.950 . S
C2956 C2957 1.349 . S
C2956 C2958 1.327 . S
C2956 H2981 0.950 . S
C2957 C2956 1.349 . S
C2957 C2973 1.349 . S
C2958 C2956 1.327 . S
C2958 C2977 1.429 . S
C2958 H2982 0.950 . S
C2959 C2976 1.574 . S
C2959 C2978 1.368 . S
C2959 H2983 0.949 . S
H2960 C2964 0.949 . S
C2961 C2962 1.349 . S
C2961 C2963 1.327 . S
C2961 H2984 0.950 . S
C2962 C2961 1.349 . S
C2962 C2974 1.349 . S
C2963 C2961 1.327 . S
C2963 C2979 1.429 . S
C2963 H2985 0.950 . S
C2964 H2960 0.949 . S
C2964 C2972 1.574 . S
C2964 C2980 1.368 . S
H2965 C2973 0.950 . S
H2966 C2971 0.950 . S
H2967 C2972 0.949 . S
H2968 C2974 0.950 . S
H2969 C2975 0.950 . S
H2970 C2976 0.949 . S
C2971 H2966 0.950 . S
C2971 C2973 1.327 . S
C2971 C2977 1.429 . S
C2972 C2964 1.574 . S
C2972 H2967 0.949 . S
C2972 C2978 1.368 . S
C2973 C2957 1.349 . S
C2973 H2965 0.950 . S
C2973 C2971 1.327 . S
C2974 C2962 1.349 . S
C2974 H2968 0.950 . S
C2974 C2975 1.327 . S
C2975 H2969 0.950 . S
C2975 C2974 1.327 . S
C2975 C2979 1.429 . S
C2976 C2959 1.574 . S
C2976 H2970 0.949 . S
C2976 C2980 1.368 . S
C2977 C2958 1.429 . S
C2977 C2971 1.429 . S
C2977 C2978 1.523 . S
C2978 C2959 1.368 . S
C2978 C2972 1.368 . S
C2978 C2977 1.523 . S
C2979 C2963 1.429 . S
C2979 C2975 1.429 . S
C2979 C2980 1.523 . S
C2980 C2964 1.368 . S
C2980 C2976 1.368 . S
C2980 C2979 1.523 . S
H2981 C2956 0.950 . S
H2982 C2958 0.950 . S
H2983 C2959 0.949 . S
H2984 C2961 0.950 . S
H2985 C2963 0.950 . S
C2986 C2987 1.349 . S
C2986 C2988 1.327 . S
C2986 H3011 0.950 . S
C2987 C2986 1.349 . S
C2987 C3003 1.349 . S
C2988 C2986 1.327 . S
C2988 C3007 1.429 . S
C2988 H3012 0.950 . S
C2989 C3006 1.574 . S
C2989 C3008 1.368 . S
C2989 H3013 0.949 . S
H2990 C2994 0.949 . S
C2991 C2992 1.349 . S
C2991 C2993 1.327 . S
C2991 H3014 0.950 . S
C2992 C2991 1.349 . S
C2992 C3004 1.349 . S
C2993 C2991 1.327 . S
C2993 C3009 1.429 . S
C2993 H3015 0.950 . S
C2994 H2990 0.949 . S
C2994 C3002 1.574 . S
C2994 C3010 1.368 . S
H2995 C3003 0.950 . S
H2996 C3001 0.950 . S
H2997 C3002 0.949 . S
H2998 C3004 0.950 . S
H2999 C3005 0.950 . S
H3000 C3006 0.949 . S
C3001 H2996 0.950 . S
C3001 C3003 1.327 . S
C3001 C3007 1.429 . S
C3002 C2994 1.574 . S
C3002 H2997 0.949 . S
C3002 C3008 1.368 . S
C3003 C2987 1.349 . S
C3003 H2995 0.950 . S
C3003 C3001 1.327 . S
C3004 C2992 1.349 . S
C3004 H2998 0.950 . S
C3004 C3005 1.327 . S
C3005 H2999 0.950 . S
C3005 C3004 1.327 . S
C3005 C3009 1.429 . S
C3006 C2989 1.574 . S
C3006 H3000 0.949 . S
C3006 C3010 1.368 . S
C3007 C2988 1.429 . S
C3007 C3001 1.429 . S
C3007 C3008 1.523 . S
C3008 C2989 1.368 . S
C3008 C3002 1.368 . S
C3008 C3007 1.523 . S
C3009 C2993 1.429 . S
C3009 C3005 1.429 . S
C3009 C3010 1.523 . S
C3010 C2994 1.368 . S
C3010 C3006 1.368 . S
C3010 C3009 1.523 . S
H3011 C2986 0.950 . S
H3012 C2988 0.950 . S
H3013 C2989 0.949 . S
H3014 C2991 0.950 . S
H3015 C2993 0.950 . S
C3016 C3017 1.349 . S
C3016 C3018 1.327 . S
C3016 H3041 0.950 . S
C3017 C3016 1.349 . S
C3017 C3033 1.349 . S
C3018 C3016 1.327 . S
C3018 C3037 1.429 . S
C3018 H3042 0.950 . S
C3019 C3036 1.574 . S
C3019 C3038 1.368 . S
C3019 H3043 0.949 . S
H3020 C3024 0.949 1_554 S
C3021 C3022 1.349 . S
C3021 C3023 1.327 . S
C3021 H3044 0.950 . S
C3022 C3021 1.349 . S
C3022 C3034 1.349 . S
C3023 C3021 1.327 . S
C3023 C3039 1.429 . S
C3023 H3045 0.950 . S
C3024 H3020 0.949 1_556 S
C3024 C3032 1.574 . S
C3024 C3040 1.368 . S
H3025 C3033 0.950 . S
H3026 C3031 0.950 . S
H3027 C3032 0.975 . S
H3028 C3034 0.950 1_554 S
H3029 C3035 0.950 1_554 S
H3030 C3036 0.949 . S
C3031 H3026 0.950 . S
C3031 C3033 1.327 . S
C3031 C3037 1.429 . S
C3032 C3024 1.574 . S
C3032 H3027 0.975 . S
C3032 C3038 1.368 . S
C3033 C3017 1.349 . S
C3033 H3025 0.950 . S
C3033 C3031 1.327 . S
C3034 C3022 1.349 . S
C3034 H3028 0.950 1_556 S
C3034 C3035 1.327 . S
C3035 H3029 0.950 1_556 S
C3035 C3034 1.327 . S
C3035 C3039 1.429 . S
C3036 C3019 1.574 . S
C3036 H3030 0.949 . S
C3036 C3040 1.368 . S
C3037 C3018 1.429 . S
C3037 C3031 1.429 . S
C3037 C3038 1.523 . S
C3038 C3019 1.368 . S
C3038 C3032 1.368 . S
C3038 C3037 1.523 . S
C3039 C3023 1.429 . S
C3039 C3035 1.429 . S
C3039 C3040 1.523 . S
C3040 C3024 1.368 . S
C3040 C3036 1.368 . S
C3040 C3039 1.523 . S
H3041 C3016 0.950 . S
H3042 C3018 0.950 . S
H3043 C3019 0.949 . S
H3044 C3021 0.950 . S
H3045 C3023 0.950 . S
C3046 C3047 1.349 . S
C3046 C3048 1.327 . S
C3046 H3071 0.950 . S
C3047 C3046 1.349 . S
C3047 C3063 1.349 . S
C3048 C3046 1.327 . S
C3048 C3067 1.429 . S
C3048 H3072 0.950 . S
C3049 C3066 1.574 . S
C3049 C3068 1.368 . S
C3049 H3073 0.949 . S
H3050 C3054 0.949 . S
C3051 C3052 1.349 . S
C3051 C3053 1.327 . S
C3051 H3074 0.950 . S
C3052 C3051 1.349 . S
C3052 C3064 1.349 . S
C3053 C3051 1.327 . S
C3053 C3069 1.429 . S
C3053 H3075 0.950 . S
C3054 H3050 0.949 . S
C3054 C3062 1.574 . S
C3054 C3070 1.368 . S
H3055 C3063 0.950 . S
H3056 C3061 0.950 . S
H3057 C3062 0.949 . S
H3058 C3064 0.950 . S
H3059 C3065 0.950 . S
H3060 C3066 0.949 . S
C3061 H3056 0.950 . S
C3061 C3063 1.327 . S
C3061 C3067 1.429 . S
C3062 C3054 1.574 . S
C3062 H3057 0.949 . S
C3062 C3068 1.368 . S
C3063 C3047 1.349 . S
C3063 H3055 0.950 . S
C3063 C3061 1.327 . S
C3064 C3052 1.349 . S
C3064 H3058 0.950 . S
C3064 C3065 1.327 . S
C3065 H3059 0.950 . S
C3065 C3064 1.327 . S
C3065 C3069 1.429 . S
C3066 C3049 1.574 . S
C3066 H3060 0.949 . S
C3066 C3070 1.368 . S
C3067 C3048 1.429 . S
C3067 C3061 1.429 . S
C3067 C3068 1.523 . S
C3068 C3049 1.368 . S
C3068 C3062 1.368 . S
C3068 C3067 1.523 . S
C3069 C3053 1.429 . S
C3069 C3065 1.429 . S
C3069 C3070 1.523 . S
C3070 C3054 1.368 . S
C3070 C3066 1.368 . S
C3070 C3069 1.523 . S
H3071 C3046 0.950 . S
H3072 C3048 0.950 . S
H3073 C3049 0.949 . S
H3074 C3051 0.950 . S
H3075 C3053 0.950 . S
C3076 C3077 1.349 . S
C3076 C3078 1.327 . S
C3076 H3101 0.950 . S
C3077 C3076 1.349 . S
C3077 C3093 1.349 . S
C3078 C3076 1.327 . S
C3078 C3097 1.429 . S
C3078 H3102 0.950 . S
C3079 C3096 1.574 . S
C3079 C3098 1.368 . S
C3079 H3103 0.969 . S
H3080 C3084 0.949 . S
C3081 C3082 1.367 . S
C3081 C3083 1.330 . S
C3081 H3104 0.929 1_554 S
C3082 C3081 1.367 . S
C3082 C3094 1.349 . S
C3083 C3081 1.330 . S
C3083 C3099 1.429 . S
C3083 H3105 0.950 1_554 S
C3084 H3080 0.949 . S
C3084 C3092 1.574 . S
C3084 C3100 1.368 . S
H3085 C3093 0.950 . S
H3086 C3091 0.950 . S
H3087 C3092 0.949 . S
H3088 C3094 0.950 . S
H3089 C3095 0.950 . S
H3090 C3096 0.949 1_556 S
C3091 H3086 0.950 . S
C3091 C3093 1.327 . S
C3091 C3097 1.429 . S
C3092 C3084 1.574 . S
C3092 H3087 0.949 . S
C3092 C3098 1.368 . S
C3093 C3077 1.349 . S
C3093 H3085 0.950 . S
C3093 C3091 1.327 . S
C3094 C3082 1.349 . S
C3094 H3088 0.950 . S
C3094 C3095 1.327 . S
C3095 H3089 0.950 . S
C3095 C3094 1.327 . S
C3095 C3099 1.429 . S
C3096 C3079 1.574 . S
C3096 H3090 0.949 1_554 S
C3096 C3100 1.368 . S
C3097 C3078 1.429 . S
C3097 C3091 1.429 . S
C3097 C3098 1.523 . S
C3098 C3079 1.368 . S
C3098 C3092 1.368 . S
C3098 C3097 1.523 . S
C3099 C3083 1.429 . S
C3099 C3095 1.429 . S
C3099 C3100 1.523 . S
C3100 C3084 1.368 . S
C3100 C3096 1.368 . S
C3100 C3099 1.523 . S
H3101 C3076 0.950 . S
H3102 C3078 0.950 . S
H3103 C3079 0.969 . S
H3104 C3081 0.929 1_556 S
H3105 C3083 0.950 1_556 S
C3106 C3107 1.349 . S
C3106 C3108 1.327 . S
C3106 H3131 0.950 . S
C3107 C3106 1.349 . S
C3107 C3123 1.349 . S
C3108 C3106 1.327 . S
C3108 C3127 1.429 . S
C3108 H3132 0.950 . S
C3109 C3126 1.574 . S
C3109 C3128 1.368 . S
C3109 H3133 0.949 . S
H3110 C3114 0.949 . S
C3111 C3112 1.349 . S
C3111 C3113 1.327 . S
C3111 H3134 0.898 1_554 S
C3112 C3111 1.349 . S
C3112 C3124 1.349 . S
C3113 C3111 1.327 . S
C3113 C3129 1.429 . S
C3113 H3135 0.982 . S
C3114 H3110 0.949 . S
C3114 C3122 1.574 . S
C3114 C3130 1.368 . S
H3115 C3123 0.950 . S
H3116 C3121 0.950 . S
H3117 C3122 0.949 . S
H3118 C3124 0.950 . S
H3119 C3125 0.950 . S
H3120 C3126 0.949 . S
C3121 H3116 0.950 . S
C3121 C3123 1.327 . S
C3121 C3127 1.429 . S
C3122 C3114 1.574 . S
C3122 H3117 0.949 . S
C3122 C3128 1.368 . S
C3123 C3107 1.349 . S
C3123 H3115 0.950 . S
C3123 C3121 1.327 . S
C3124 C3112 1.349 . S
C3124 H3118 0.950 . S
C3124 C3125 1.327 . S
C3125 H3119 0.950 . S
C3125 C3124 1.327 . S
C3125 C3129 1.429 . S
C3126 C3109 1.574 . S
C3126 H3120 0.949 . S
C3126 C3130 1.368 . S
C3127 C3108 1.429 . S
C3127 C3121 1.429 . S
C3127 C3128 1.523 . S
C3128 C3109 1.368 . S
C3128 C3122 1.368 . S
C3128 C3127 1.523 . S
C3129 C3113 1.429 . S
C3129 C3125 1.429 . S
C3129 C3130 1.523 . S
C3130 C3114 1.368 . S
C3130 C3126 1.368 . S
C3130 C3129 1.523 . S
H3131 C3106 0.950 . S
H3132 C3108 0.950 . S
H3133 C3109 0.949 . S
H3134 C3111 0.898 1_556 S
H3135 C3113 0.982 . S
C1702 C689 1.489 . S
C1697 C202 1.465 . S
C1732 C748 1.545 . S
C1727 C261 1.543 . S
C1757 C282 1.514 . S
C1762 C865 1.529 . S
C1792 C933 1.524 . S
C1787 C162 1.517 . S
C1822 C1012 1.489 . S
C1817 C402 1.466 . S
C1852 C1137 1.524 . S
C1847 C482 1.517 . S
C1877 C442 1.514 . S
C1882 C1197 1.521 . S
C1912 C1305 1.545 . S
C1907 C381 1.542 . S
C1937 C461 1.563 . S
C1942 C1401 1.565 . S
C1972 C1461 1.492 . S
C1967 C362 1.485 . S
C1997 C415 1.454 . S
C2002 C1364 1.456 . S
C2032 C1481 1.547 . S
C2027 C495 1.547 . S
C2057 C301 1.563 . S
C2062 C1549 1.565 . S
C2087 C175 1.547 . S
C2092 C1540 1.548 . S
C2117 C215 1.454 . S
C2122 C1569 1.456 . S
C2147 C242 1.485 . S
C2152 C1577 1.492 . S
C2177 C141 1.537 . S
C2182 C961 1.558 . S
C2207 C581 1.537 . S
C2212 C924 1.558 . S
C2242 C660 1.459 . S
C2237 C615 1.458 . S
C2272 C757 1.493 . S
C2267 C335 1.493 . S
C2297 C181 1.590 . S
C2302 C1021 1.593 . S
C2332 C1313 1.493 . S
C2327 C455 1.493 . S
C2362 C1041 1.459 . S
C2357 C375 1.458 . S
C2392 C1225 1.593 . S
C2387 C501 1.590 . S
C2422 C1217 1.489 . S
C2417 C562 1.466 . S
C2447 C621 1.542 . S
C2452 C1285 1.545 . S
C2477 C322 1.514 . S
C2482 C1049 1.521 . S
C2512 C1100 1.524 . S
C2507 C522 1.517 . S
C2537 C122 1.465 . S
C2542 C845 1.480 . S
C2572 C953 1.524 . S
C2567 C2 1.517 . S
C2602 C669 1.521 . S
C2597 C42 1.514 . S
C2632 C785 1.545 . S
C2627 C101 1.542 . S
C2657 C61 1.562 . S
C2662 C1489 1.565 . S
C2687 C82 1.485 . S
C2692 C1373 1.492 . S
C2717 C135 1.454 . S
C2722 C1452 1.456 . S
C2747 C15 1.547 . S
C2752 C1393 1.547 . S
C2782 C1637 1.565 . S
C2777 C341 1.562 . S
C2812 C1628 1.547 . S
C2807 C535 1.547 . S
C2842 C1657 1.456 . S
C2837 C575 1.454 . S
C2867 C602 1.485 . S
C2872 C1665 1.492 . S
C2897 C421 1.537 . S
C2902 C1129 1.558 . S
C2932 C1109 1.558 . S
C2927 C221 1.537 . S
C2962 C1188 1.459 . S
C2957 C255 1.458 . S
C2992 C1276 1.493 . S
C2987 C295 1.493 . S
C3017 C541 1.589 . S
C3022 C836 1.594 . S
C3052 C777 1.493 . S
C3047 C55 1.493 . S
C3077 C95 1.458 . S
C3082 C873 1.458 . S
C3112 C697 1.593 . S
C3107 C21 1.590 . S
