# Generated by pormake.
# Topology gar, (4,6)-cn, num edge types: 1
# Building blocks:
#     Node 0, Type 0, BuildingBlock: CEKHIL_clean_sbu_0, # of connection points: 4
#     Node 1, Type 0, BuildingBlock: CEKHIL_clean_sbu_0, # of connection points: 4
#     Node 2, Type 0, BuildingBlock: CEKHIL_clean_sbu_0, # of connection points: 4
#     Node 3, Type 0, BuildingBlock: CEKHIL_clean_sbu_0, # of connection points: 4
#     Node 4, Type 0, BuildingBlock: CEKHIL_clean_sbu_0, # of connection points: 4
#     Node 5, Type 0, BuildingBlock: CEKHIL_clean_sbu_0, # of connection points: 4
#     Node 6, Type 0, BuildingBlock: CEKHIL_clean_sbu_0, # of connection points: 4
#     Node 7, Type 0, BuildingBlock: CEKHIL_clean_sbu_0, # of connection points: 4
#     Node 8, Type 0, BuildingBlock: CEKHIL_clean_sbu_0, # of connection points: 4
#     Node 9, Type 0, BuildingBlock: CEKHIL_clean_sbu_0, # of connection points: 4
#     Node 10, Type 0, BuildingBlock: CEKHIL_clean_sbu_0, # of connection points: 4
#     Node 11, Type 0, BuildingBlock: CEKHIL_clean_sbu_0, # of connection points: 4
#     Node 12, Type 0, BuildingBlock: CEKHIL_clean_sbu_0, # of connection points: 4
#     Node 13, Type 0, BuildingBlock: CEKHIL_clean_sbu_0, # of connection points: 4
#     Node 14, Type 0, BuildingBlock: CEKHIL_clean_sbu_0, # of connection points: 4
#     Node 15, Type 0, BuildingBlock: CEKHIL_clean_sbu_0, # of connection points: 4
#     Node 16, Type 0, BuildingBlock: CEKHIL_clean_sbu_0, # of connection points: 4
#     Node 17, Type 0, BuildingBlock: CEKHIL_clean_sbu_0, # of connection points: 4
#     Node 18, Type 0, BuildingBlock: CEKHIL_clean_sbu_0, # of connection points: 4
#     Node 19, Type 0, BuildingBlock: CEKHIL_clean_sbu_0, # of connection points: 4
#     Node 20, Type 0, BuildingBlock: CEKHIL_clean_sbu_0, # of connection points: 4
#     Node 21, Type 0, BuildingBlock: CEKHIL_clean_sbu_0, # of connection points: 4
#     Node 22, Type 0, BuildingBlock: CEKHIL_clean_sbu_0, # of connection points: 4
#     Node 23, Type 0, BuildingBlock: CEKHIL_clean_sbu_0, # of connection points: 4
#     Node 24, Type 1, BuildingBlock: BETDEL_clean_sbu_0, # of connection points: 6
#     Node 25, Type 1, BuildingBlock: BETDEL_clean_sbu_0, # of connection points: 6
#     Node 26, Type 1, BuildingBlock: BETDEL_clean_sbu_0, # of connection points: 6
#     Node 27, Type 1, BuildingBlock: BETDEL_clean_sbu_0, # of connection points: 6
#     Node 28, Type 1, BuildingBlock: BETDEL_clean_sbu_0, # of connection points: 6
#     Node 29, Type 1, BuildingBlock: BETDEL_clean_sbu_0, # of connection points: 6
#     Node 30, Type 1, BuildingBlock: BETDEL_clean_sbu_0, # of connection points: 6
#     Node 31, Type 1, BuildingBlock: BETDEL_clean_sbu_0, # of connection points: 6
#     Node 32, Type 1, BuildingBlock: BETDEL_clean_sbu_0, # of connection points: 6
#     Node 33, Type 1, BuildingBlock: BETDEL_clean_sbu_0, # of connection points: 6
#     Node 34, Type 1, BuildingBlock: BETDEL_clean_sbu_0, # of connection points: 6
#     Node 35, Type 1, BuildingBlock: BETDEL_clean_sbu_0, # of connection points: 6
#     Node 36, Type 1, BuildingBlock: BETDEL_clean_sbu_0, # of connection points: 6
#     Node 37, Type 1, BuildingBlock: BETDEL_clean_sbu_0, # of connection points: 6
#     Node 38, Type 1, BuildingBlock: BETDEL_clean_sbu_0, # of connection points: 6
#     Node 39, Type 1, BuildingBlock: BETDEL_clean_sbu_0, # of connection points: 6
#     Edge 40, Type (0, 1), BuildingBlock: KIFKEQ_clean_linker_1, # of connection points: 2
#     Edge 41, Type (0, 1), BuildingBlock: KIFKEQ_clean_linker_1, # of connection points: 2
#     Edge 42, Type (0, 1), BuildingBlock: KIFKEQ_clean_linker_1, # of connection points: 2
#     Edge 43, Type (0, 1), BuildingBlock: KIFKEQ_clean_linker_1, # of connection points: 2
#     Edge 44, Type (0, 1), BuildingBlock: KIFKEQ_clean_linker_1, # of connection points: 2
#     Edge 45, Type (0, 1), BuildingBlock: KIFKEQ_clean_linker_1, # of connection points: 2
#     Edge 46, Type (0, 1), BuildingBlock: KIFKEQ_clean_linker_1, # of connection points: 2
#     Edge 47, Type (0, 1), BuildingBlock: KIFKEQ_clean_linker_1, # of connection points: 2
#     Edge 48, Type (0, 1), BuildingBlock: KIFKEQ_clean_linker_1, # of connection points: 2
#     Edge 49, Type (0, 1), BuildingBlock: KIFKEQ_clean_linker_1, # of connection points: 2
#     Edge 50, Type (0, 1), BuildingBlock: KIFKEQ_clean_linker_1, # of connection points: 2
#     Edge 51, Type (0, 1), BuildingBlock: KIFKEQ_clean_linker_1, # of connection points: 2
#     Edge 52, Type (0, 1), BuildingBlock: KIFKEQ_clean_linker_1, # of connection points: 2
#     Edge 53, Type (0, 1), BuildingBlock: KIFKEQ_clean_linker_1, # of connection points: 2
#     Edge 54, Type (0, 1), BuildingBlock: KIFKEQ_clean_linker_1, # of connection points: 2
#     Edge 55, Type (0, 1), BuildingBlock: KIFKEQ_clean_linker_1, # of connection points: 2
#     Edge 56, Type (0, 1), BuildingBlock: KIFKEQ_clean_linker_1, # of connection points: 2
#     Edge 57, Type (0, 1), BuildingBlock: KIFKEQ_clean_linker_1, # of connection points: 2
#     Edge 58, Type (0, 1), BuildingBlock: KIFKEQ_clean_linker_1, # of connection points: 2
#     Edge 59, Type (0, 1), BuildingBlock: KIFKEQ_clean_linker_1, # of connection points: 2
#     Edge 60, Type (0, 1), BuildingBlock: KIFKEQ_clean_linker_1, # of connection points: 2
#     Edge 61, Type (0, 1), BuildingBlock: KIFKEQ_clean_linker_1, # of connection points: 2
#     Edge 62, Type (0, 1), BuildingBlock: KIFKEQ_clean_linker_1, # of connection points: 2
#     Edge 63, Type (0, 1), BuildingBlock: KIFKEQ_clean_linker_1, # of connection points: 2
#     Edge 64, Type (0, 1), BuildingBlock: KIFKEQ_clean_linker_1, # of connection points: 2
#     Edge 65, Type (0, 1), BuildingBlock: KIFKEQ_clean_linker_1, # of connection points: 2
#     Edge 66, Type (0, 1), BuildingBlock: KIFKEQ_clean_linker_1, # of connection points: 2
#     Edge 67, Type (0, 1), BuildingBlock: KIFKEQ_clean_linker_1, # of connection points: 2
#     Edge 68, Type (0, 1), BuildingBlock: KIFKEQ_clean_linker_1, # of connection points: 2
#     Edge 69, Type (0, 1), BuildingBlock: KIFKEQ_clean_linker_1, # of connection points: 2
#     Edge 70, Type (0, 1), BuildingBlock: KIFKEQ_clean_linker_1, # of connection points: 2
#     Edge 71, Type (0, 1), BuildingBlock: KIFKEQ_clean_linker_1, # of connection points: 2
#     Edge 72, Type (0, 1), BuildingBlock: KIFKEQ_clean_linker_1, # of connection points: 2
#     Edge 73, Type (0, 1), BuildingBlock: KIFKEQ_clean_linker_1, # of connection points: 2
#     Edge 74, Type (0, 1), BuildingBlock: KIFKEQ_clean_linker_1, # of connection points: 2
#     Edge 75, Type (0, 1), BuildingBlock: KIFKEQ_clean_linker_1, # of connection points: 2
#     Edge 76, Type (0, 1), BuildingBlock: KIFKEQ_clean_linker_1, # of connection points: 2
#     Edge 77, Type (0, 1), BuildingBlock: KIFKEQ_clean_linker_1, # of connection points: 2
#     Edge 78, Type (0, 1), BuildingBlock: KIFKEQ_clean_linker_1, # of connection points: 2
#     Edge 79, Type (0, 1), BuildingBlock: KIFKEQ_clean_linker_1, # of connection points: 2
#     Edge 80, Type (0, 1), BuildingBlock: KIFKEQ_clean_linker_1, # of connection points: 2
#     Edge 81, Type (0, 1), BuildingBlock: KIFKEQ_clean_linker_1, # of connection points: 2
#     Edge 82, Type (0, 1), BuildingBlock: KIFKEQ_clean_linker_1, # of connection points: 2
#     Edge 83, Type (0, 1), BuildingBlock: KIFKEQ_clean_linker_1, # of connection points: 2
#     Edge 84, Type (0, 1), BuildingBlock: KIFKEQ_clean_linker_1, # of connection points: 2
#     Edge 85, Type (0, 1), BuildingBlock: KIFKEQ_clean_linker_1, # of connection points: 2
#     Edge 86, Type (0, 1), BuildingBlock: KIFKEQ_clean_linker_1, # of connection points: 2
#     Edge 87, Type (0, 1), BuildingBlock: KIFKEQ_clean_linker_1, # of connection points: 2
#     Edge 88, Type (0, 1), BuildingBlock: KIFKEQ_clean_linker_1, # of connection points: 2
#     Edge 89, Type (0, 1), BuildingBlock: KIFKEQ_clean_linker_1, # of connection points: 2
#     Edge 90, Type (0, 1), BuildingBlock: KIFKEQ_clean_linker_1, # of connection points: 2
#     Edge 91, Type (0, 1), BuildingBlock: KIFKEQ_clean_linker_1, # of connection points: 2
#     Edge 92, Type (0, 1), BuildingBlock: KIFKEQ_clean_linker_1, # of connection points: 2
#     Edge 93, Type (0, 1), BuildingBlock: KIFKEQ_clean_linker_1, # of connection points: 2
#     Edge 94, Type (0, 1), BuildingBlock: KIFKEQ_clean_linker_1, # of connection points: 2
#     Edge 95, Type (0, 1), BuildingBlock: KIFKEQ_clean_linker_1, # of connection points: 2
#     Edge 96, Type (0, 1), BuildingBlock: KIFKEQ_clean_linker_1, # of connection points: 2
#     Edge 97, Type (0, 1), BuildingBlock: KIFKEQ_clean_linker_1, # of connection points: 2
#     Edge 98, Type (0, 1), BuildingBlock: KIFKEQ_clean_linker_1, # of connection points: 2
#     Edge 99, Type (0, 1), BuildingBlock: KIFKEQ_clean_linker_1, # of connection points: 2
#     Edge 100, Type (0, 1), BuildingBlock: KIFKEQ_clean_linker_1, # of connection points: 2
#     Edge 101, Type (0, 1), BuildingBlock: KIFKEQ_clean_linker_1, # of connection points: 2
#     Edge 102, Type (0, 1), BuildingBlock: KIFKEQ_clean_linker_1, # of connection points: 2
#     Edge 103, Type (0, 1), BuildingBlock: KIFKEQ_clean_linker_1, # of connection points: 2
#     Edge 104, Type (0, 1), BuildingBlock: KIFKEQ_clean_linker_1, # of connection points: 2
#     Edge 105, Type (0, 1), BuildingBlock: KIFKEQ_clean_linker_1, # of connection points: 2
#     Edge 106, Type (0, 1), BuildingBlock: KIFKEQ_clean_linker_1, # of connection points: 2
#     Edge 107, Type (0, 1), BuildingBlock: KIFKEQ_clean_linker_1, # of connection points: 2
#     Edge 108, Type (0, 1), BuildingBlock: KIFKEQ_clean_linker_1, # of connection points: 2
#     Edge 109, Type (0, 1), BuildingBlock: KIFKEQ_clean_linker_1, # of connection points: 2
#     Edge 110, Type (0, 1), BuildingBlock: KIFKEQ_clean_linker_1, # of connection points: 2
#     Edge 111, Type (0, 1), BuildingBlock: KIFKEQ_clean_linker_1, # of connection points: 2
#     Edge 112, Type (0, 1), BuildingBlock: KIFKEQ_clean_linker_1, # of connection points: 2
#     Edge 113, Type (0, 1), BuildingBlock: KIFKEQ_clean_linker_1, # of connection points: 2
#     Edge 114, Type (0, 1), BuildingBlock: KIFKEQ_clean_linker_1, # of connection points: 2
#     Edge 115, Type (0, 1), BuildingBlock: KIFKEQ_clean_linker_1, # of connection points: 2
#     Edge 116, Type (0, 1), BuildingBlock: KIFKEQ_clean_linker_1, # of connection points: 2
#     Edge 117, Type (0, 1), BuildingBlock: KIFKEQ_clean_linker_1, # of connection points: 2
#     Edge 118, Type (0, 1), BuildingBlock: KIFKEQ_clean_linker_1, # of connection points: 2
#     Edge 119, Type (0, 1), BuildingBlock: KIFKEQ_clean_linker_1, # of connection points: 2
#     Edge 120, Type (0, 1), BuildingBlock: KIFKEQ_clean_linker_1, # of connection points: 2
#     Edge 121, Type (0, 1), BuildingBlock: KIFKEQ_clean_linker_1, # of connection points: 2
#     Edge 122, Type (0, 1), BuildingBlock: KIFKEQ_clean_linker_1, # of connection points: 2
#     Edge 123, Type (0, 1), BuildingBlock: KIFKEQ_clean_linker_1, # of connection points: 2
#     Edge 124, Type (0, 1), BuildingBlock: KIFKEQ_clean_linker_1, # of connection points: 2
#     Edge 125, Type (0, 1), BuildingBlock: KIFKEQ_clean_linker_1, # of connection points: 2
#     Edge 126, Type (0, 1), BuildingBlock: KIFKEQ_clean_linker_1, # of connection points: 2
#     Edge 127, Type (0, 1), BuildingBlock: KIFKEQ_clean_linker_1, # of connection points: 2
#     Edge 128, Type (0, 1), BuildingBlock: KIFKEQ_clean_linker_1, # of connection points: 2
#     Edge 129, Type (0, 1), BuildingBlock: KIFKEQ_clean_linker_1, # of connection points: 2
#     Edge 130, Type (0, 1), BuildingBlock: KIFKEQ_clean_linker_1, # of connection points: 2
#     Edge 131, Type (0, 1), BuildingBlock: KIFKEQ_clean_linker_1, # of connection points: 2
#     Edge 132, Type (0, 1), BuildingBlock: KIFKEQ_clean_linker_1, # of connection points: 2
#     Edge 133, Type (0, 1), BuildingBlock: KIFKEQ_clean_linker_1, # of connection points: 2
#     Edge 134, Type (0, 1), BuildingBlock: KIFKEQ_clean_linker_1, # of connection points: 2
#     Edge 135, Type (0, 1), BuildingBlock: KIFKEQ_clean_linker_1, # of connection points: 2
# Relax obj value: 0.142
# Max RMSD: 0.266
# Mean RMSD: 0.142
data_MOF--net-gar--node1-CEKHIL_clean_sbu_0--node2-BETDEL_clean_sbu_0--edge1-KIFKEQ_clean_linker_1
_symmetry_space_group_name_H-M    P1
_symmetry_Int_Tables_number       1
_symmetry_cell_setting            triclinic
loop_
_symmetry_equiv_pos_as_xyz
'x, y, z'
_cell_length_a     56.926812
_cell_length_b     53.679929
_cell_length_c     54.56153
_cell_angle_alpha  95.028155
_cell_angle_beta   92.415944
_cell_angle_gamma 100.10493
loop_
_atom_site_label
_atom_site_type_symbol
_atom_site_fract_x
_atom_site_fract_y
_atom_site_fract_z
_atom_type_partial_charge
Co0 Co 0.04214 0.28065 0.38917 0.0
O1 O 0.07581 0.27842 0.38995 0.0
O2 O 0.05072 0.26761 0.35719 0.0
C3 C 0.04667 0.32035 0.40871 0.0
O4 O 0.00696 0.28155 0.37998 0.0
Co5 Co 0.01354 0.28827 0.43567 0.0
O6 O 0.99167 0.30068 0.41226 0.0
C7 C 0.02485 0.23744 0.42066 0.0
C8 C 0.07246 0.27044 0.36666 0.0
C9 C 0.99088 0.29301 0.38944 0.0
O10 O 0.03399 0.24515 0.40073 0.0
O11 O 0.01686 0.25194 0.43693 0.0
O12 O 0.05008 0.3172 0.38531 0.0
O13 O 0.04257 0.29979 0.41959 0.0
Co14 Co 0.99641 0.78036 0.63116 0.0
O15 O 0.9623 0.78014 0.6311 0.0
O16 O 0.98458 0.7743 0.66346 0.0
C17 C 1.00481 0.81617 0.61132 0.0
O18 O 0.03186 0.77949 0.63909 0.0
Co19 Co 0.0241 0.77756 0.58324 0.0
O20 O 0.05332 0.78472 0.60567 0.0
C21 C 0.9942 0.73118 0.59891 0.0
C22 C 0.96364 0.77639 0.65426 0.0
C23 C 0.05193 0.78214 0.62857 0.0
O24 O 0.99059 0.74274 0.61977 0.0
O25 O 1.00522 0.74217 0.58171 0.0
O26 O 1.00265 0.81777 0.63501 0.0
O27 O 1.00092 0.79343 0.60048 0.0
Co28 Co 0.54201 0.78572 0.89266 0.0
O29 O 0.57537 0.78214 0.89244 0.0
O30 O 0.54919 0.77098 0.86067 0.0
C31 C 0.54837 0.82601 0.91107 0.0
O32 O 0.50679 0.78779 0.88462 0.0
Co33 Co 0.51625 0.79653 0.94084 0.0
O34 O 0.48939 0.80106 0.91851 0.0
C35 C 0.52821 0.74562 0.92798 0.0
C36 C 0.57112 0.77324 0.86946 0.0
C37 C 0.48899 0.79499 0.89539 0.0
O38 O 0.53342 0.75102 0.90594 0.0
O39 O 0.52347 0.76206 0.94459 0.0
O40 O 0.55073 0.82202 0.88751 0.0
O41 O 0.54419 0.80593 0.92254 0.0
Co42 Co 0.49958 0.28307 0.13146 0.0
O43 O 0.46553 0.28216 0.13216 0.0
O44 O 0.48866 0.27651 0.16398 0.0
C45 C 0.50694 0.31912 0.11196 0.0
O46 O 0.53525 0.28293 0.1382 0.0
Co47 Co 0.52461 0.28034 0.08178 0.0
O48 O 0.55439 0.2837 0.10297 0.0
C49 C 0.49521 0.23444 0.09799 0.0
C50 C 0.46746 0.27828 0.15523 0.0
C51 C 0.55436 0.28302 0.12627 0.0
O52 O 0.49433 0.24553 0.1198 0.0
O53 O 0.50368 0.246 0.07987 0.0
O54 O 0.50527 0.32046 0.13571 0.0
O55 O 0.50286 0.29648 0.10092 0.0
Co56 Co 0.03171 0.79332 0.14721 0.0
O57 O 0.99735 0.78255 0.14243 0.0
O58 O 0.01858 0.78228 0.17726 0.0
C59 C 0.03208 0.8295 0.12857 0.0
O60 O 0.06634 0.80348 0.16099 0.0
Co61 Co 0.06713 0.80362 0.10643 0.0
O62 O 0.09194 0.81723 0.13302 0.0
C63 C 0.04809 0.75043 0.1166 0.0
C64 C 0.99771 0.77878 0.16565 0.0
C65 C 0.08748 0.81289 0.15505 0.0
O66 O 0.03717 0.75804 0.13534 0.0
O67 O 0.05948 0.76555 0.10247 0.0
O68 O 0.0271 0.82875 0.15156 0.0
O69 O 0.03628 0.80861 0.11757 0.0
Co70 Co 0.50806 0.76714 0.37645 0.0
O71 O 0.54254 0.77199 0.37984 0.0
O72 O 0.52069 0.75654 0.34563 0.0
C73 C 0.50504 0.80544 0.39553 0.0
O74 O 0.4726 0.76061 0.36481 0.0
Co75 Co 0.47568 0.76782 0.42089 0.0
O76 O 0.45181 0.77413 0.3958 0.0
C77 C 0.49839 0.72317 0.40824 0.0
C78 C 0.54178 0.76336 0.35675 0.0
C79 C 0.4535 0.76722 0.37311 0.0
O80 O 0.50597 0.73204 0.38822 0.0
O81 O 0.48717 0.73503 0.4239 0.0
O82 O 0.50977 0.80339 0.3724 0.0
O83 O 0.50379 0.78495 0.40644 0.0
Co84 Co 0.53462 0.29559 0.64825 0.0
O85 O 0.50007 0.28637 0.64397 0.0
O86 O 0.52127 0.28627 0.67883 0.0
C87 C 0.53677 0.33125 0.62837 0.0
O88 O 0.56957 0.30454 0.6615 0.0
Co89 Co 0.56942 0.30152 0.60644 0.0
O90 O 0.59477 0.31569 0.63231 0.0
C91 C 0.54851 0.24998 0.61933 0.0
C92 C 0.50038 0.28311 0.66732 0.0
C93 C 0.59071 0.31276 0.65472 0.0
O94 O 0.53812 0.25935 0.63763 0.0
O95 O 0.56064 0.26353 0.60446 0.0
O96 O 0.53182 0.33156 0.65143 0.0
O97 O 0.5396 0.30955 0.61791 0.0
Co98 Co 0.01081 0.26803 0.87799 0.0
O99 O 0.04536 0.27363 0.88106 0.0
O100 O 0.02338 0.2578 0.84703 0.0
C101 C 0.00678 0.30599 0.89711 0.0
O102 O 0.97532 0.26078 0.86664 0.0
Co103 Co 0.97904 0.26763 0.92313 0.0
O104 O 0.95292 0.26861 0.89839 0.0
C105 C 1.00286 0.22405 0.90992 0.0
C106 C 0.04451 0.26498 0.85797 0.0
C107 C 0.95515 0.26342 0.87547 0.0
O108 O 0.00954 0.23293 0.8896 0.0
O109 O 0.99201 0.23574 0.92605 0.0
O110 O 0.0116 0.30417 0.87399 0.0
O111 O 1.00633 0.28562 0.90805 0.0
Co112 Co 0.40455 0.04581 0.2893 0.0
O113 O 0.40572 0.07974 0.27928 0.0
O114 O 0.37393 0.04888 0.27531 0.0
C115 C 0.4244 0.05795 0.32616 0.0
O116 O 0.39423 0.00982 0.298 0.0
Co117 Co 0.44689 0.01943 0.30186 0.0
O118 O 0.42334 0.99176 0.31349 0.0
C119 C 0.434 0.02607 0.24993 0.0
C120 C 0.38323 0.07214 0.27231 0.0
C121 C 0.40136 0.99149 0.30796 0.0
O122 O 0.41478 0.03391 0.25612 0.0
O123 O 0.44949 0.02085 0.26546 0.0
O124 O 0.40167 0.05858 0.32354 0.0
O125 O 0.43438 0.05098 0.30655 0.0
Co126 Co 0.27363 0.1516 0.48958 0.0
O127 O 0.30816 0.15521 0.49362 0.0
O128 O 0.28265 0.12046 0.49919 0.0
C129 C 0.27382 0.16946 0.4531 0.0
O130 O 0.23743 0.13913 0.48654 0.0
Co131 Co 0.24627 0.19622 0.48587 0.0
O132 O 0.21743 0.16976 0.47695 0.0
C133 C 0.26768 0.18726 0.53414 0.0
C134 C 0.30476 0.13169 0.49874 0.0
C135 C 0.21788 0.14677 0.48076 0.0
O136 O 0.27189 0.16547 0.52525 0.0
O137 O 0.25984 0.20293 0.52087 0.0
O138 O 0.27534 0.14561 0.45358 0.0
O139 O 0.27308 0.18172 0.47436 0.0
Co140 Co 0.14932 0.00939 0.7906 0.0
O141 O 0.14648 0.97278 0.78345 0.0
O142 O 0.17961 1.00068 0.78128 0.0
C143 C 0.12978 0.00732 0.82634 0.0
O144 O 0.16078 0.04784 0.79687 0.0
Co145 Co 0.10683 0.03812 0.796 0.0
O146 O 0.1311 0.06942 0.80427 0.0
C147 C 0.11843 0.0176 0.74655 0.0
C148 C 0.16913 0.97703 0.77948 0.0
C149 C 0.15317 0.06881 0.80199 0.0
O150 O 0.13864 0.01304 0.75511 0.0
O151 O 0.10274 0.0248 0.76035 0.0
O152 O 0.15234 0.00585 0.82626 0.0
O153 O 0.11976 0.00902 0.8051 0.0
Co154 Co 0.25648 0.90253 0.9912 0.0
O155 O 0.22356 0.90104 0.99903 0.0
O156 O 0.25173 0.93548 0.00491 0.0
C157 C 0.24911 0.88101 0.95359 0.0
O158 O 0.29152 0.91261 0.98444 0.0
Co159 Co 0.28044 0.85519 0.98019 0.0
O160 O 0.30631 0.87947 0.96745 0.0
C161 C 0.27247 0.87297 0.0317 0.0
C162 C 0.22945 0.92521 0.00613 0.0
C163 C 0.30807 0.90319 0.9736 0.0
O164 O 0.26475 0.89262 0.02491 0.0
O165 O 0.27828 0.85567 0.0167 0.0
O166 O 0.24789 0.90505 0.95652 0.0
O167 O 0.25285 0.87058 0.97344 0.0
Co168 Co 0.26606 0.39831 0.02172 0.0
O169 O 0.23138 0.39338 0.01935 0.0
O170 O 0.25488 0.42887 0.03471 0.0
C171 C 0.26984 0.38168 0.98261 0.0
O172 O 0.30236 0.41196 0.02569 0.0
Co173 Co 0.29441 0.35393 0.01533 0.0
O174 O 0.32167 0.38129 0.01094 0.0
C175 C 0.27219 0.36375 0.06257 0.0
C176 C 0.2333 0.4169 0.02838 0.0
C177 C 0.32157 0.40436 0.01865 0.0
O178 O 0.26567 0.38402 0.05538 0.0
O179 O 0.2826 0.34897 0.04886 0.0
O180 O 0.26661 0.40499 0.98693 0.0
O181 O 0.26891 0.36878 0.00152 0.0
Co182 Co 0.78434 0.1444 0.01499 0.0
O183 O 0.8172 0.14396 0.00819 0.0
O184 O 0.79345 0.1135 0.02474 0.0
C185 C 0.77357 0.15708 0.97867 0.0
O186 O 0.74952 0.1374 0.02367 0.0
Co187 Co 0.76313 0.19434 0.0161 0.0
O188 O 0.73229 0.17162 0.0199 0.0
C189 C 0.79766 0.18714 0.0551 0.0
C190 C 0.81423 0.12175 0.01654 0.0
C191 C 0.7312 0.14849 0.02414 0.0
O192 O 0.7943 0.16305 0.0486 0.0
O193 O 0.78966 0.20301 0.04229 0.0
O194 O 0.77456 0.13324 0.9802 0.0
O195 O 0.78099 0.17221 0.99809 0.0
Co196 Co 0.13938 0.50438 0.24591 0.0
O197 O 0.14168 0.47003 0.25191 0.0
O198 O 0.17041 0.49783 0.23803 0.0
C199 C 0.12281 0.51343 0.28136 0.0
O200 O 0.14519 0.54114 0.23873 0.0
Co201 Co 0.09243 0.52571 0.24256 0.0
O202 O 0.11297 0.55965 0.24124 0.0
C203 C 0.1039 0.48948 0.20298 0.0
C204 C 0.16355 0.47545 0.24532 0.0
C205 C 0.13518 0.56072 0.2382 0.0
O206 O 0.12586 0.4931 0.21126 0.0
O207 O 0.08747 0.49809 0.21456 0.0
O208 O 0.14586 0.51516 0.28108 0.0
O209 O 0.11067 0.50546 0.26087 0.0
Co210 Co 0.7633 0.89886 0.52034 0.0
O211 O 0.72864 0.89417 0.51725 0.0
O212 O 0.75219 0.92972 0.53242 0.0
C213 C 0.76749 0.88095 0.4817 0.0
O214 O 0.79953 0.91253 0.52494 0.0
Co215 Co 0.7916 0.8545 0.51594 0.0
O216 O 0.81954 0.88154 0.51283 0.0
C217 C 0.76818 0.86519 0.56218 0.0
C218 C 0.73062 0.91778 0.52602 0.0
C219 C 0.8191 0.90478 0.51954 0.0
O220 O 0.76211 0.8854 0.55438 0.0
O221 O 0.77877 0.85006 0.54913 0.0
O222 O 0.76472 0.9045 0.48521 0.0
O223 O 0.76618 0.86877 0.50108 0.0
Co224 Co 0.8865 0.04183 0.24347 0.0
O225 O 0.89055 0.07841 0.25087 0.0
O226 O 0.85842 0.05453 0.23174 0.0
C227 C 0.89953 0.03336 0.28123 0.0
O228 O 0.87448 0.00354 0.23451 0.0
Co229 Co 0.92948 0.01302 0.24556 0.0
O230 O 0.90408 0.98237 0.24339 0.0
C231 C 0.92402 0.04451 0.20495 0.0
C232 C 0.86903 0.07694 0.24123 0.0
C233 C 0.88229 0.98268 0.23721 0.0
O234 O 0.90244 0.04608 0.21068 0.0
O235 O 0.9383 0.03458 0.21815 0.0
O236 O 0.87784 0.03733 0.2776 0.0
O237 O 0.91294 0.03698 0.26296 0.0
Co238 Co 0.28258 0.63642 0.51921 0.0
O239 O 0.31676 0.63878 0.5191 0.0
O240 O 0.29133 0.60481 0.52736 0.0
C241 C 0.27908 0.65371 0.48332 0.0
O242 O 0.24647 0.62585 0.52002 0.0
Co243 Co 0.25681 0.68324 0.51812 0.0
O244 O 0.22792 0.65716 0.50897 0.0
C245 C 0.27848 0.67075 0.56511 0.0
C246 C 0.31321 0.6152 0.52398 0.0
C247 C 0.22749 0.63436 0.51398 0.0
O248 O 0.28475 0.6505 0.55497 0.0
O249 O 0.26856 0.68618 0.55343 0.0
O250 O 0.28028 0.62974 0.48317 0.0
O251 O 0.28129 0.66641 0.50466 0.0
Co252 Co 0.38693 0.54445 0.74284 0.0
O253 O 0.39022 0.58115 0.74778 0.0
O254 O 0.35806 0.55544 0.73083 0.0
C255 C 0.40157 0.53943 0.78113 0.0
O256 O 0.37575 0.50577 0.7362 0.0
Co257 Co 0.43027 0.5164 0.7469 0.0
O258 O 0.40487 0.48685 0.75105 0.0
C259 C 0.42355 0.545 0.7039 0.0
C260 C 0.36845 0.57853 0.73849 0.0
C261 C 0.3833 0.48608 0.74327 0.0
O262 O 0.40203 0.54692 0.70957 0.0
O263 O 0.43793 0.5357 0.71763 0.0
O264 O 0.3794 0.54191 0.7776 0.0
O265 O 0.41418 0.54195 0.76218 0.0
Co266 Co 0.64021 0.01303 0.74255 0.0
O267 O 0.64058 0.97796 0.74733 0.0
O268 O 0.67022 0.0045 0.73325 0.0
C269 C 0.62564 0.02267 0.77914 0.0
O270 O 0.64769 0.05015 0.7362 0.0
Co271 Co 0.59447 0.03721 0.74216 0.0
O272 O 0.61678 0.07018 0.74282 0.0
C273 C 0.60256 0.99998 0.70156 0.0
C274 C 0.66229 0.98215 0.74012 0.0
C275 C 0.63853 0.07041 0.73808 0.0
O276 O 0.6249 0.00286 0.7083 0.0
O277 O 0.58735 0.00966 0.71417 0.0
O278 O 0.64834 0.0224 0.77775 0.0
O279 O 0.61259 0.01587 0.75901 0.0
Co280 Co 0.77566 0.65183 0.98808 0.0
O281 O 0.81026 0.65658 0.9939 0.0
O282 O 0.7852 0.62091 0.99737 0.0
C283 C 0.77666 0.67063 0.95194 0.0
O284 O 0.73975 0.6376 0.98308 0.0
Co285 Co 0.7462 0.69455 0.98347 0.0
O286 O 0.71811 0.66722 0.97482 0.0
C287 C 0.763 0.68362 0.03314 0.0
C288 C 0.80717 0.6328 0.99822 0.0
C289 C 0.71963 0.64427 0.97772 0.0
O290 O 0.77173 0.6644 0.02388 0.0
O291 O 0.75372 0.69837 0.01992 0.0
O292 O 0.77914 0.64704 0.95225 0.0
O293 O 0.77459 0.68226 0.97322 0.0
Co294 Co 0.90812 0.55574 0.79067 0.0
O295 O 0.90588 0.58911 0.78049 0.0
O296 O 0.87689 0.55532 0.77648 0.0
C297 C 0.92687 0.5691 0.82788 0.0
O298 O 0.90095 0.51953 0.79913 0.0
Co299 Co 0.95297 0.53383 0.80438 0.0
O300 O 0.93144 0.50323 0.81398 0.0
C301 C 0.94147 0.54275 0.75269 0.0
C302 C 0.88376 0.5791 0.77357 0.0
C303 C 0.90926 0.50152 0.80835 0.0
O304 O 0.92008 0.5454 0.75775 0.0
O305 O 0.95748 0.54048 0.76914 0.0
O306 O 0.90381 0.56755 0.82492 0.0
O307 O 0.93768 0.56362 0.80841 0.0
Co308 Co 0.74678 0.40191 0.49069 0.0
O309 O 0.71425 0.40432 0.49789 0.0
O310 O 0.74547 0.43565 0.50492 0.0
C311 C 0.73785 0.3813 0.45279 0.0
O312 O 0.78231 0.40816 0.48567 0.0
Co313 Co 0.76611 0.35188 0.47775 0.0
O314 O 0.79537 0.3741 0.46825 0.0
C315 C 0.75465 0.36727 0.52909 0.0
C316 C 0.72262 0.42796 0.5057 0.0
C317 C 0.7987 0.39759 0.47598 0.0
O318 O 0.75247 0.38975 0.5239 0.0
O319 O 0.75781 0.34955 0.5129 0.0
O320 O 0.73985 0.40593 0.4558 0.0
O321 O 0.74034 0.37028 0.47246 0.0
Co322 Co 0.65034 0.509 0.28933 0.0
O323 O 0.64754 0.47255 0.28097 0.0
O324 O 0.68062 0.50068 0.27947 0.0
C325 C 0.63088 0.50577 0.3251 0.0
O326 O 0.66174 0.54734 0.29674 0.0
Co327 Co 0.60775 0.53742 0.29599 0.0
O328 O 0.632 0.56854 0.3052 0.0
C329 C 0.61978 0.51939 0.24579 0.0
C330 C 0.67017 0.47701 0.27689 0.0
C331 C 0.65406 0.56812 0.30265 0.0
O332 O 0.6397 0.51392 0.25413 0.0
O333 O 0.60414 0.52629 0.25983 0.0
O334 O 0.65343 0.5043 0.32476 0.0
O335 O 0.6208 0.50807 0.30405 0.0
Dy336 Dy 0.99739 0.02216 0.00792 0.0
C337 C 0.09678 0.0245 0.02052 0.0
C338 C 0.95004 0.02557 0.00279 0.0
Dy339 Dy 0.05182 0.03478 0.0241 0.0
O340 O 0.96562 0.03081 0.98645 0.0
O341 O 0.96015 0.01738 0.02149 0.0
O342 O 1.00565 0.9975 0.97456 0.0
O343 O 0.03053 0.02904 0.98957 0.0
C344 C 0.02732 0.01015 0.97369 0.0
C345 C 0.02305 0.04894 0.05834 0.0
O346 O 0.04869 0.06887 0.00438 0.0
O347 O 0.00777 0.06488 0.00859 0.0
O348 O 0.09094 0.04073 0.03743 0.0
O349 O 0.07835 0.01476 0.0059 0.0
O350 O 0.04565 0.05921 0.05825 0.0
O351 O 0.0186 0.02969 0.04269 0.0
O352 O 0.99966 0.98636 0.02554 0.0
O353 O 0.04115 0.99407 0.03188 0.0
C354 C 0.02852 0.07799 0.00276 0.0
C355 C 0.01996 0.97928 0.03244 0.0
Dy356 Dy 0.26942 0.78518 0.24064 0.0
C357 C 0.25999 0.74809 0.33502 0.0
C358 C 0.26973 0.80634 0.19717 0.0
Dy359 Dy 0.25834 0.773 0.29392 0.0
O360 O 0.26052 0.81475 0.21691 0.0
O361 O 0.27875 0.78632 0.20113 0.0
O362 O 0.30206 0.76633 0.24209 0.0
O363 O 0.29036 0.78286 0.27417 0.0
C364 C 0.30469 0.76931 0.26602 0.0
C365 C 0.22373 0.78986 0.2687 0.0
O366 O 0.28077 0.81165 0.3024 0.0
O367 O 0.27801 0.82372 0.26257 0.0
O368 O 0.24799 0.7664 0.33265 0.0
O369 O 0.27105 0.74385 0.31525 0.0
O370 O 0.22628 0.79284 0.29269 0.0
O371 O 0.23753 0.77571 0.26049 0.0
O372 O 0.24612 0.74671 0.23257 0.0
O373 O 0.2497 0.73465 0.27216 0.0
C374 C 0.28382 0.82923 0.28657 0.0
C375 C 0.24356 0.72911 0.24835 0.0
Dy376 Dy 0.54355 0.0216 0.51315 0.0
C377 C 0.44548 0.03946 0.51134 0.0
C378 C 0.58775 0.00732 0.51524 0.0
Dy379 Dy 0.48729 0.02147 0.5182 0.0
O380 O 0.57292 0.00394 0.49595 0.0
O381 O 0.57877 0.01941 0.53324 0.0
O382 O 0.54337 0.04816 0.4829 0.0
O383 O 0.51254 0.02282 0.48964 0.0
C384 C 0.52045 0.04103 0.47769 0.0
C385 C 0.50855 0.99951 0.55253 0.0
O386 O 0.48627 0.98604 0.49288 0.0
O387 O 0.52497 0.98084 0.50447 0.0
O388 O 0.44777 0.02011 0.5236 0.0
O389 O 0.46584 0.04846 0.50273 0.0
O390 O 0.48536 0.99497 0.54825 0.0
O391 O 0.51785 0.0181 0.5415 0.0
O392 O 0.54606 0.05896 0.53594 0.0
O393 O 0.50498 0.05963 0.53687 0.0
C394 C 0.5034 0.97207 0.49352 0.0
C395 C 0.52778 0.07012 0.54224 0.0
Dy396 Dy 0.24591 0.274 0.76102 0.0
C397 C 0.3458 0.26809 0.75357 0.0
C398 C 0.19951 0.26572 0.77419 0.0
Dy399 Dy 0.29944 0.26919 0.76491 0.0
O400 O 0.20737 0.27942 0.75665 0.0
O401 O 0.21684 0.2564 0.78391 0.0
O402 O 0.25327 0.30846 0.73977 0.0
O403 O 0.27977 0.30059 0.76427 0.0
C404 C 0.27567 0.31455 0.7477 0.0
C405 C 0.26854 0.22995 0.77897 0.0
O406 O 0.29851 0.2898 0.80245 0.0
O407 O 0.25722 0.28798 0.80066 0.0
O408 O 0.33849 0.28743 0.76486 0.0
O409 O 0.32798 0.24929 0.74938 0.0
O410 O 0.29026 0.23684 0.78864 0.0
O411 O 0.26549 0.24283 0.76127 0.0
O412 O 0.24854 0.25193 0.72469 0.0
O413 O 0.28934 0.26605 0.72424 0.0
C414 C 0.27855 0.29387 0.81271 0.0
C415 C 0.26863 0.25479 0.71291 0.0
Dy416 Dy 0.01066 0.00843 0.4784 0.0
C417 C 0.05775 0.04282 0.57659 0.0
C418 C 0.979 0.99563 0.4385 0.0
Dy419 Dy 0.03013 0.03392 0.53322 0.0
O420 O 0.99976 0.98861 0.44048 0.0
O421 O 0.97527 0.00873 0.45872 0.0
O422 O 0.04591 0.0184 0.46017 0.0
O423 O 0.04323 0.02853 0.4971 0.0
C424 C 0.05744 0.0304 0.48008 0.0
C425 C 0.98234 0.01782 0.52506 0.0
O426 O 0.03274 0.06858 0.51254 0.0
O427 O 1.00555 0.04928 0.48023 0.0
O428 O 0.03697 0.04942 0.57327 0.0
O429 O 0.06372 0.03241 0.55595 0.0
O430 O 0.99165 0.03607 0.54187 0.0
O431 O 0.99898 0.00841 0.51573 0.0
O432 O 0.01444 0.97292 0.49651 0.0
O433 O 0.03373 0.99289 0.53381 0.0
C434 C 0.01895 0.06977 0.49249 0.0
C435 C 0.02548 0.9722 0.51849 0.0
Dy436 Dy 0.29507 0.79188 0.77112 0.0
C437 C 0.206 0.75113 0.71026 0.0
C438 C 0.33477 0.80883 0.80228 0.0
Dy439 Dy 0.24587 0.76618 0.74157 0.0
O440 O 0.33254 0.81362 0.77944 0.0
O441 O 0.31473 0.79594 0.80851 0.0
O442 O 0.3154 0.78193 0.73871 0.0
O443 O 0.28024 0.78737 0.73309 0.0
C444 C 0.29747 0.77969 0.72276 0.0
C445 C 0.24398 0.77753 0.79023 0.0
O446 O 0.2655 0.73305 0.74029 0.0
O447 O 0.29514 0.74987 0.77131 0.0
O448 O 0.20861 0.74409 0.73229 0.0
O449 O 0.22591 0.76486 0.70476 0.0
O450 O 0.22593 0.7759 0.77454 0.0
O451 O 0.26102 0.77014 0.77942 0.0
O452 O 0.27549 0.82519 0.77199 0.0
O453 O 0.24482 0.80777 0.74222 0.0
C454 C 0.28407 0.73088 0.7552 0.0
C455 C 0.25624 0.82685 0.75785 0.0
Dy456 Dy 0.51208 0.02653 0.03476 0.0
C457 C 0.53749 0.03007 0.93343 0.0
C458 C 0.49914 0.03184 0.08204 0.0
Dy459 Dy 0.52451 0.03395 0.98081 0.0
O460 O 0.51488 0.01847 0.07447 0.0
O461 O 0.49098 0.04261 0.06395 0.0
O462 O 0.50679 0.98417 0.02625 0.0
O463 O 0.53163 0.00797 0.00735 0.0
C464 C 0.52127 0.98539 0.00841 0.0
C465 C 0.5146 0.07448 0.00797 0.0
O466 O 0.48704 0.01169 0.97494 0.0
O467 O 0.47598 0.01548 0.01558 0.0
O468 O 0.52996 0.04955 0.94411 0.0
O469 O 0.53714 0.01254 0.94837 0.0
O470 O 0.53022 0.07639 0.99123 0.0
O471 O 0.50447 0.05179 0.00803 0.0
O472 O 0.54903 0.05075 0.03939 0.0
O473 O 0.56062 0.0411 0.99985 0.0
C474 C 0.47086 0.00851 0.99177 0.0
C475 C 0.56567 0.05075 0.02301 0.0
Dy476 Dy 0.27318 0.29847 0.26781 0.0
C477 C 0.27202 0.19306 0.25183 0.0
C478 C 0.26841 0.34806 0.26773 0.0
Dy479 Dy 0.26317 0.24107 0.25015 0.0
O480 O 0.27106 0.3367 0.28752 0.0
O481 O 0.26905 0.3325 0.24835 0.0
O482 O 0.2928 0.29108 0.30247 0.0
O483 O 0.26458 0.26371 0.28535 0.0
C484 C 0.28082 0.26795 0.30244 0.0
C485 C 0.25578 0.27206 0.21569 0.0
O486 O 0.22782 0.24278 0.26577 0.0
O487 O 0.23275 0.28699 0.26913 0.0
O488 O 0.26304 0.20131 0.23235 0.0
O489 O 0.27499 0.21065 0.27005 0.0
O490 O 0.24371 0.24891 0.21527 0.0
O491 O 0.27188 0.27582 0.23285 0.0
O492 O 0.30973 0.29639 0.25454 0.0
O493 O 0.30298 0.25231 0.24709 0.0
C494 C 0.21939 0.26414 0.27046 0.0
C495 C 0.31728 0.27482 0.24802 0.0
Dy496 Dy 0.51392 0.5113 0.97879 0.0
C497 C 0.56356 0.54734 0.07512 0.0
C498 C 0.48316 0.50263 0.93783 0.0
Dy499 Dy 0.53297 0.53685 0.03409 0.0
O500 O 0.50382 0.4953 0.93921 0.0
O501 O 0.47927 0.51385 0.95892 0.0
O502 O 0.55201 0.50867 0.96978 0.0
O503 O 0.54527 0.53603 0.99676 0.0
C504 C 0.56166 0.52638 0.98705 0.0
C505 C 0.48553 0.51646 0.03017 0.0
O506 O 0.5315 0.57244 0.01534 0.0
O507 O 0.51339 0.55312 0.97724 0.0
O508 O 0.54408 0.55673 0.07204 0.0
O509 O 0.56675 0.53335 0.05527 0.0
O510 O 0.49606 0.52904 0.05033 0.0
O511 O 0.50121 0.51663 0.01478 0.0
O512 O 0.51216 0.47654 0.99924 0.0
O513 O 0.53805 0.49619 0.03246 0.0
C514 C 0.52187 0.57364 0.99278 0.0
C515 C 0.52556 0.47558 0.01963 0.0
Dy516 Dy 0.79705 0.29369 0.26565 0.0
C517 C 0.70619 0.25413 0.21471 0.0
C518 C 0.83736 0.30475 0.29647 0.0
Dy519 Dy 0.74653 0.26441 0.2456 0.0
O520 O 0.83475 0.31467 0.27577 0.0
O521 O 0.81764 0.2899 0.30064 0.0
O522 O 0.80717 0.30085 0.22709 0.0
O523 O 0.78274 0.26872 0.2333 0.0
C524 C 0.79249 0.28098 0.21673 0.0
C525 C 0.75193 0.27666 0.29449 0.0
O526 O 0.76463 0.23026 0.24659 0.0
O527 O 0.79877 0.2521 0.26934 0.0
O528 O 0.70761 0.24696 0.23686 0.0
O529 O 0.72711 0.26545 0.20915 0.0
O530 O 0.73649 0.25723 0.28438 0.0
O531 O 0.76121 0.28903 0.27785 0.0
O532 O 0.77816 0.32746 0.26549 0.0
O533 O 0.74456 0.30578 0.24189 0.0
C534 C 0.78539 0.23052 0.25898 0.0
C535 C 0.75754 0.32722 0.25287 0.0
Dy536 Dy 0.00867 0.52095 0.53284 0.0
C537 C 0.03177 0.53844 0.43172 0.0
C538 C 0.99523 0.52809 0.57961 0.0
Dy539 Dy 0.01373 0.53143 0.4763 0.0
O540 O 0.01388 0.51846 0.57351 0.0
O541 O 0.98411 0.53388 0.56023 0.0
O542 O 0.01522 0.48025 0.52915 0.0
O543 O 0.01413 0.50071 0.49885 0.0
C544 C 0.01718 0.47963 0.50538 0.0
C545 C 0.99914 0.5673 0.50658 0.0
O546 O 0.9788 0.50501 0.47328 0.0
O547 O 0.97127 0.51048 0.51507 0.0
O548 O 0.04018 0.55145 0.45231 0.0
O549 O 0.01302 0.52169 0.43526 0.0
O550 O 0.99305 0.56354 0.48312 0.0
O551 O 0.01408 0.55364 0.51165 0.0
O552 O 0.04707 0.5401 0.53298 0.0
O553 O 0.05061 0.53014 0.49108 0.0
C554 C 0.9644 0.50228 0.4917 0.0
C555 C 0.06022 0.53831 0.51353 0.0
Dy556 Dy 0.7438 0.77323 0.26081 0.0
C557 C 0.84388 0.7692 0.25197 0.0
C558 C 0.69744 0.7652 0.27415 0.0
Dy559 Dy 0.79749 0.76921 0.26348 0.0
O560 O 0.70539 0.77915 0.25683 0.0
O561 O 0.71467 0.75555 0.2836 0.0
O562 O 0.75079 0.80746 0.23909 0.0
O563 O 0.77735 0.80018 0.26377 0.0
C564 C 0.77311 0.81395 0.24715 0.0
C565 C 0.76742 0.72988 0.27841 0.0
O566 O 0.79709 0.79026 0.30086 0.0
O567 O 0.75555 0.78551 0.30082 0.0
O568 O 0.82737 0.74921 0.25196 0.0
O569 O 0.83528 0.78937 0.25914 0.0
O570 O 0.78917 0.73734 0.28788 0.0
O571 O 0.76382 0.74242 0.26058 0.0
O572 O 0.74567 0.7506 0.22455 0.0
O573 O 0.78656 0.76352 0.22285 0.0
C574 C 0.77718 0.79244 0.31214 0.0
C575 C 0.76545 0.75246 0.21222 0.0
Dy576 Dy 0.77596 0.29199 0.74166 0.0
C577 C 0.76493 0.25986 0.8376 0.0
C578 C 0.77416 0.31238 0.69807 0.0
Dy579 Dy 0.76486 0.28314 0.79544 0.0
O580 O 0.78576 0.29422 0.70237 0.0
O581 O 0.76365 0.31928 0.71749 0.0
O582 O 0.8074 0.27152 0.74373 0.0
O583 O 0.7969 0.2908 0.77525 0.0
C584 C 0.81044 0.27604 0.76762 0.0
C585 C 0.73058 0.29898 0.76877 0.0
O586 O 0.78718 0.3218 0.80306 0.0
O587 O 0.78719 0.33118 0.76215 0.0
O588 O 0.74974 0.27424 0.83185 0.0
O589 O 0.78031 0.25911 0.82085 0.0
O590 O 0.73383 0.30429 0.79258 0.0
O591 O 0.74398 0.2839 0.76157 0.0
O592 O 0.75352 0.25301 0.73504 0.0
O593 O 0.75624 0.24384 0.77568 0.0
C594 C 0.79208 0.33799 0.78615 0.0
C595 C 0.75046 0.23666 0.75202 0.0
Dy596 Dy 0.76882 0.79847 0.76574 0.0
C597 C 0.76744 0.69231 0.74215 0.0
C598 C 0.75719 0.84436 0.75884 0.0
Dy599 Dy 0.75992 0.74121 0.74827 0.0
O600 O 0.77205 0.84082 0.77663 0.0
O601 O 0.74925 0.82319 0.74553 0.0
O602 O 0.78806 0.79307 0.80137 0.0
O603 O 0.7619 0.76374 0.78371 0.0
C604 C 0.77796 0.76915 0.80101 0.0
C605 C 0.75184 0.77229 0.71404 0.0
O606 O 0.72409 0.7416 0.76385 0.0
O607 O 0.7295 0.78567 0.77211 0.0
O608 O 0.76704 0.70717 0.72468 0.0
O609 O 0.76237 0.70378 0.76266 0.0
O610 O 0.73939 0.74944 0.71416 0.0
O611 O 0.7682 0.77596 0.73088 0.0
O612 O 0.80449 0.7966 0.7501 0.0
O613 O 0.80017 0.75281 0.7501 0.0
C614 C 0.716 0.76263 0.77127 0.0
C615 C 0.81335 0.77527 0.74722 0.0
Dy616 Dy 0.49721 0.51909 0.50549 0.0
C617 C 0.59812 0.53424 0.53161 0.0
C618 C 0.44937 0.52062 0.50284 0.0
Dy619 Dy 0.55063 0.53538 0.52359 0.0
O620 O 0.46327 0.5233 0.48458 0.0
O621 O 0.46144 0.51588 0.52202 0.0
O622 O 0.50694 0.49432 0.4731 0.0
O623 O 0.53091 0.52682 0.48799 0.0
C624 C 0.52855 0.50743 0.47268 0.0
C625 C 0.5188 0.54768 0.5554 0.0
O626 O 0.54691 0.56928 0.50387 0.0
O627 O 0.50538 0.5616 0.50353 0.0
O628 O 0.58229 0.53139 0.54805 0.0
O629 O 0.58814 0.53896 0.51111 0.0
O630 O 0.54004 0.56137 0.55456 0.0
O631 O 0.51697 0.52777 0.54092 0.0
O632 O 0.50164 0.48439 0.52362 0.0
O633 O 0.54313 0.49277 0.52446 0.0
C634 C 0.52601 0.57629 0.49975 0.0
C635 C 0.52266 0.47765 0.52781 0.0
Dy636 Dy 0.04625 0.52211 0.01129 0.0
C637 C 0.94741 0.54073 0.01552 0.0
C638 C 0.08802 0.50308 0.01641 0.0
Dy639 Dy 0.99039 0.5239 0.01711 0.0
O640 O 0.08675 0.52578 0.01017 0.0
O641 O 0.06666 0.49121 0.01964 0.0
O642 O 0.04661 0.54522 0.97828 0.0
O643 O 0.01507 0.52292 0.98792 0.0
C644 C 0.02343 0.53952 0.97435 0.0
C645 C 0.01354 0.50567 0.05329 0.0
O646 O 0.98638 0.48565 0.99581 0.0
O647 O 0.02688 0.48221 0.99947 0.0
O648 O 0.96196 0.54266 0.03488 0.0
O649 O 0.95596 0.52872 0.99716 0.0
O650 O 0.99048 0.49905 0.04874 0.0
O651 O 0.02171 0.52304 0.04041 0.0
O652 O 0.04783 0.55814 0.03613 0.0
O653 O 0.01006 0.56435 0.02296 0.0
C654 C 1.00404 0.47254 0.99311 0.0
C655 C 0.03129 0.5728 0.03467 0.0
H656 H 0.04668 0.212 0.9188 0.0
H657 H 0.97118 0.18225 0.91729 0.0
H658 H 0.05493 0.17689 0.94167 0.0
H659 H 0.97919 0.14653 0.93891 0.0
H660 H 0.99513 0.10859 0.0057 0.0
H661 H 0.99044 0.1425 0.98021 0.0
H662 H 0.05494 0.13263 0.94438 0.0
H663 H 0.0601 0.09925 0.97072 0.0
C664 C 0.03197 0.19728 0.92245 0.0
C665 C 0.00834 0.19957 0.91622 0.0
C666 C 0.03663 0.17726 0.93569 0.0
C667 C 0.01768 0.15919 0.94273 0.0
C668 C 0.99419 0.16052 0.93456 0.0
C669 C 0.98957 0.18068 0.92175 0.0
C670 C 0.00852 0.11394 0.99266 0.0
C671 C 0.02797 0.10124 0.99024 0.0
C672 C 1.00567 0.13316 0.97775 0.0
C673 C 0.02198 0.13992 0.95971 0.0
C674 C 0.04204 0.12797 0.95804 0.0
C675 C 0.04505 0.10889 0.97323 0.0
H676 H 0.13516 0.82937 0.14926 0.0
H677 H 0.08592 0.80262 0.20345 0.0
H678 H 0.16867 0.82785 0.178 0.0
H679 H 0.11953 0.80078 0.23202 0.0
H680 H 0.18736 0.81412 0.28362 0.0
H681 H 0.15483 0.82438 0.25755 0.0
H682 H 0.18465 0.79233 0.19313 0.0
H683 H 0.21682 0.78224 0.21897 0.0
C684 C 0.13142 0.8235 0.1674 0.0
C685 C 0.10775 0.81585 0.17386 0.0
C686 C 0.15068 0.82248 0.18384 0.0
C687 C 0.1468 0.81385 0.2072 0.0
C688 C 0.12317 0.80764 0.21423 0.0
C689 C 0.10387 0.8086 0.19776 0.0
C690 C 0.18698 0.8095 0.26386 0.0
C691 C 0.20463 0.79743 0.25332 0.0
C692 C 0.16834 0.81528 0.24895 0.0
C693 C 0.16719 0.8093 0.22322 0.0
C694 C 0.18517 0.79763 0.21278 0.0
C695 C 0.20358 0.79171 0.22764 0.0
H696 H 0.50423 0.85175 0.37776 0.0
H697 H 0.49639 0.8129 0.44385 0.0
H698 H 0.50022 0.89158 0.4017 0.0
H699 H 0.49245 0.85234 0.46744 0.0
H700 H 0.52573 0.93304 0.50312 0.0
H701 H 0.52311 0.8924 0.47865 0.0
H702 H 0.47038 0.91257 0.42849 0.0
H703 H 0.47288 0.95355 0.45325 0.0
C704 C 0.50143 0.85166 0.39727 0.0
C705 C 0.50088 0.82927 0.40896 0.0
C706 C 0.49899 0.87436 0.41091 0.0
C707 C 0.49619 0.87502 0.43644 0.0
C708 C 0.49484 0.85243 0.44785 0.0
C709 C 0.49708 0.82984 0.43428 0.0
C710 C 0.51334 0.92873 0.48705 0.0
C711 C 0.49946 0.94643 0.48013 0.0
C712 C 0.5118 0.90543 0.47308 0.0
C713 C 0.49657 0.89938 0.45166 0.0
C714 C 0.48236 0.91687 0.44486 0.0
C715 C 0.48362 0.94014 0.45914 0.0
H716 H 0.45436 0.26843 0.64782 0.0
H717 H 0.49598 0.28735 0.71708 0.0
H718 H 0.41758 0.26352 0.67001 0.0
H719 H 0.45921 0.28277 0.73916 0.0
H720 H 0.38594 0.30487 0.76234 0.0
H721 H 0.42385 0.30687 0.74217 0.0
H722 H 0.39652 0.23468 0.70059 0.0
H723 H 0.35888 0.23251 0.72095 0.0
C724 C 0.45567 0.27134 0.66776 0.0
C725 C 0.4781 0.27821 0.68067 0.0
C726 C 0.43462 0.26849 0.68047 0.0
C727 C 0.43552 0.27285 0.70633 0.0
C728 C 0.45795 0.27948 0.71924 0.0
C729 C 0.479 0.28192 0.70657 0.0
C730 C 0.3882 0.28929 0.74916 0.0
C731 C 0.36951 0.2685 0.74329 0.0
C732 C 0.40988 0.29041 0.73763 0.0
C733 C 0.4131 0.27097 0.71971 0.0
C734 C 0.39449 0.25003 0.71415 0.0
C735 C 0.37301 0.24872 0.72595 0.0
H736 H 0.00807 0.81625 0.56165 0.0
H737 H 0.01376 0.86673 0.6286 0.0
H738 H 0.01509 0.85269 0.53752 0.0
H739 H 0.02058 0.90331 0.60438 0.0
H740 H 0.9982 0.92523 0.50346 0.0
H741 H 0.99469 0.88697 0.52539 0.0
H742 H 0.05026 0.92541 0.57884 0.0
H743 H 0.05369 0.96342 0.55719 0.0
C744 C 0.01093 0.83516 0.57126 0.0
C745 C 0.01038 0.83859 0.59709 0.0
C746 C 0.01479 0.85605 0.55736 0.0
C747 C 0.01836 0.88094 0.56895 0.0
C748 C 0.01817 0.88439 0.59485 0.0
C749 C 0.01418 0.86345 0.60876 0.0
C750 C 0.01002 0.9253 0.51956 0.0
C751 C 0.0261 0.94748 0.5286 0.0
C752 C 0.00796 0.9034 0.5322 0.0
C753 C 0.02193 0.90326 0.55414 0.0
C754 C 0.03884 0.92503 0.56237 0.0
C755 C 0.04091 0.94679 0.54978 0.0
H756 H 0.48516 0.81591 0.85181 0.0
H757 H 0.44318 0.77838 0.90627 0.0
H758 H 0.44878 0.82276 0.83026 0.0
H759 H 0.40665 0.783 0.88391 0.0
H760 H 0.34307 0.80973 0.8521 0.0
H761 H 0.38069 0.8082 0.87442 0.0
H762 H 0.41579 0.80798 0.80552 0.0
H763 H 0.37866 0.81184 0.78396 0.0
C764 C 0.46803 0.80858 0.85879 0.0
C765 C 0.46695 0.79659 0.88065 0.0
C766 C 0.44702 0.81241 0.84641 0.0
C767 C 0.42432 0.80365 0.8552 0.0
C768 C 0.4235 0.79087 0.87675 0.0
C769 C 0.4445 0.7878 0.88948 0.0
C770 C 0.35904 0.80994 0.84194 0.0
C771 C 0.35798 0.81111 0.81636 0.0
C772 C 0.38066 0.80861 0.85464 0.0
C773 C 0.40165 0.80746 0.84195 0.0
C774 C 0.40046 0.80922 0.8163 0.0
C775 C 0.37902 0.81137 0.80378 0.0
H776 H 0.51954 0.20219 0.11889 0.0
H777 H 0.46234 0.20507 0.06543 0.0
H778 H 0.52287 0.15978 0.10025 0.0
H779 H 0.46502 0.1623 0.04739 0.0
H780 H 0.47384 0.07687 0.03154 0.0
H781 H 0.46514 0.11227 0.05923 0.0
H782 H 0.53592 0.15415 0.05129 0.0
H783 H 0.5444 0.11911 0.02306 0.0
C784 C 0.50678 0.19312 0.10408 0.0
C785 C 0.49045 0.2066 0.09375 0.0
C786 C 0.50889 0.16906 0.09326 0.0
C787 C 0.4943 0.158 0.07236 0.0
C788 C 0.47635 0.17042 0.0636 0.0
C789 C 0.47467 0.19474 0.07402 0.0
C790 C 0.48755 0.09363 0.03585 0.0
C791 C 0.50973 0.09547 0.02511 0.0
C792 C 0.48258 0.11374 0.05167 0.0
C793 C 0.49996 0.13569 0.0575 0.0
C794 C 0.52236 0.13723 0.04727 0.0
C795 C 0.52713 0.11737 0.03098 0.0
H796 H 0.07428 0.27125 0.31677 0.0
H797 H 0.1166 0.26189 0.38173 0.0
H798 H 0.10868 0.26865 0.29171 0.0
H799 H 0.15074 0.25851 0.35647 0.0
H800 H 0.19611 0.22648 0.29573 0.0
H801 H 0.15982 0.22653 0.31818 0.0
H802 H 0.15272 0.29872 0.29252 0.0
H803 H 0.1895 0.29913 0.27053 0.0
C804 C 0.09081 0.26827 0.32564 0.0
C805 C 0.09271 0.26672 0.35124 0.0
C806 C 0.11051 0.26693 0.3113 0.0
C807 C 0.13235 0.26338 0.32214 0.0
C808 C 0.13407 0.26113 0.34762 0.0
C809 C 0.11455 0.26309 0.36206 0.0
C810 C 0.18664 0.2422 0.29451 0.0
C811 C 0.19566 0.26276 0.2812 0.0
C812 C 0.16597 0.24229 0.30755 0.0
C813 C 0.1535 0.26263 0.30713 0.0
C814 C 0.16193 0.28273 0.29306 0.0
C815 C 0.18297 0.28296 0.28049 0.0
H816 H 0.90801 0.02611 0.15775 0.0
H817 H 0.96274 0.08039 0.20003 0.0
H818 H 0.93123 0.03057 0.12113 0.0
H819 H 0.98554 0.08591 0.16347 0.0
H820 H 0.03579 0.05898 0.1074 0.0
H821 H 0.00965 0.06218 0.14136 0.0
H822 H 0.94877 0.05338 0.08917 0.0
H823 H 0.97528 0.04996 0.05541 0.0
C824 C 0.92448 0.03989 0.15889 0.0
C825 C 0.93345 0.05311 0.18164 0.0
C826 C 0.93796 0.04238 0.13793 0.0
C827 C 0.96066 0.05825 0.13928 0.0
C828 C 0.96856 0.07296 0.16172 0.0
C829 C 0.95527 0.07018 0.18263 0.0
C830 C 0.01685 0.05798 0.10324 0.0
C831 C 0.00744 0.05353 0.07876 0.0
C832 C 1.00177 0.05995 0.12272 0.0
C833 C 0.97685 0.05791 0.11823 0.0
C834 C 0.96767 0.05444 0.09354 0.0
C835 C 0.9828 0.05228 0.07411 0.0
H836 H 0.27208 0.63241 0.43534 0.0
H837 H 0.27437 0.7028 0.48113 0.0
H838 H 0.26475 0.65404 0.39877 0.0
H839 H 0.26754 0.72427 0.44495 0.0
H840 H 0.23609 0.75199 0.37722 0.0
H841 H 0.23784 0.72703 0.41252 0.0
H842 H 0.2877 0.68635 0.376 0.0
H843 H 0.28553 0.71082 0.34075 0.0
C844 C 0.27093 0.65241 0.43759 0.0
C845 C 0.27384 0.66591 0.46104 0.0
C846 C 0.26682 0.6648 0.41671 0.0
C847 C 0.26552 0.69086 0.41902 0.0
C848 C 0.26803 0.70413 0.44256 0.0
C849 C 0.27214 0.69181 0.4633 0.0
C850 C 0.24732 0.73765 0.37681 0.0
C851 C 0.26075 0.73338 0.35642 0.0
C852 C 0.24837 0.72339 0.39696 0.0
C853 C 0.2629 0.70468 0.397 0.0
C854 C 0.27605 0.70029 0.37637 0.0
C855 C 0.27498 0.71449 0.3563 0.0
H856 H 0.62036 0.00937 0.6572 0.0
H857 H 0.56373 0.9631 0.69154 0.0
H858 H 0.5974 1.0 0.61771 0.0
H859 H 0.5411 0.95261 0.65194 0.0
H860 H 0.55111 0.98392 0.54894 0.0
H861 H 0.57654 0.97406 0.5827 0.0
H862 H 0.51987 0.98021 0.63209 0.0
H863 H 0.49485 0.98993 0.59821 0.0
C864 C 0.60354 0.99612 0.65596 0.0
C865 C 0.59359 0.98716 0.67727 0.0
C866 C 0.5903 0.99072 0.63335 0.0
C867 C 0.56707 0.97608 0.63181 0.0
C868 C 0.55861 0.96454 0.65265 0.0
C869 C 0.57164 0.9703 0.67525 0.0
C870 C 0.54431 0.98313 0.56708 0.0
C871 C 0.52156 0.98855 0.57137 0.0
C872 C 0.55869 0.97724 0.58633 0.0
C873 C 0.55044 0.97669 0.61023 0.0
C874 C 0.5268 0.98017 0.61392 0.0
C875 C 0.51244 0.98589 0.59458 0.0
H876 H 0.28572 0.33716 0.97084 0.0
H877 H 0.26434 0.40081 0.93832 0.0
H878 H 0.29057 0.31717 0.92977 0.0
H879 H 0.26896 0.38065 0.89724 0.0
H880 H 0.2447 0.31798 0.83275 0.0
H881 H 0.24544 0.34048 0.87339 0.0
H882 H 0.31518 0.3234 0.89083 0.0
H883 H 0.31465 0.30079 0.84953 0.0
C884 C 0.28225 0.34699 0.95494 0.0
C885 C 0.27448 0.37051 0.95782 0.0
C886 C 0.28518 0.33559 0.93144 0.0
C887 C 0.28006 0.34728 0.91029 0.0
C888 C 0.27288 0.3711 0.91321 0.0
C889 C 0.27029 0.38268 0.93672 0.0
C890 C 0.26028 0.31892 0.84512 0.0
C891 C 0.27962 0.30743 0.83782 0.0
C892 C 0.26074 0.33206 0.86841 0.0
C893 C 0.2804 0.33387 0.88526 0.0
C894 C 0.29976 0.32228 0.87818 0.0
C895 C 0.29948 0.3094 0.85456 0.0
H896 H 0.93115 1.00124 0.28535 0.0
H897 H 0.88757 0.04425 0.32847 0.0
H898 H 0.94698 0.98691 0.3224 0.0
H899 H 0.90508 0.03206 0.36617 0.0
H900 H 0.93197 0.99933 0.43232 0.0
H901 H 0.91017 0.00434 0.39414 0.0
H902 H 0.97361 0.99862 0.35442 0.0
H903 H 0.99425 0.99146 0.39215 0.0
C904 C 0.92508 0.00779 0.30288 0.0
C905 C 0.90816 0.02391 0.30401 0.0
C906 C 0.93441 0.99981 0.32434 0.0
C907 C 0.92784 0.00855 0.34774 0.0
C908 C 0.91048 0.02443 0.34872 0.0
C909 C 0.9005 0.03167 0.32708 0.0
C910 C 0.9409 0.99847 0.4152 0.0
C911 C 0.9647 0.9948 0.41512 0.0
C912 C 0.92855 1.00176 0.39327 0.0
C913 C 0.93998 1.00226 0.37082 0.0
C914 C 0.96372 0.99785 0.37091 0.0
C915 C 0.97576 0.99382 0.39268 0.0
H916 H 0.32058 0.68537 0.59225 0.0
H917 H 0.24406 0.67283 0.59683 0.0
H918 H 0.32542 0.71008 0.63264 0.0
H919 H 0.24868 0.69687 0.63734 0.0
H920 H 0.26536 0.77474 0.68325 0.0
H921 H 0.26059 0.74277 0.64772 0.0
H922 H 0.32006 0.71211 0.67703 0.0
H923 H 0.32478 0.74403 0.71226 0.0
C924 C 0.30492 0.68692 0.60249 0.0
C925 C 0.282 0.67721 0.59175 0.0
C926 C 0.3076 0.70119 0.62548 0.0
C927 C 0.28736 0.70587 0.63786 0.0
C928 C 0.26456 0.6941 0.62796 0.0
C929 C 0.26191 0.68002 0.60502 0.0
C930 C 0.27714 0.76096 0.68213 0.0
C931 C 0.2952 0.76167 0.70051 0.0
C932 C 0.27445 0.74263 0.6619 0.0
C933 C 0.28983 0.72473 0.65975 0.0
C934 C 0.30806 0.72571 0.67808 0.0
C935 C 0.31077 0.74405 0.6982 0.0
H936 H 0.64347 0.02091 0.8261 0.0
H937 H 0.58265 0.03699 0.78429 0.0
H938 H 0.62196 0.02423 0.86391 0.0
H939 H 0.56136 0.04044 0.82189 0.0
H940 H 0.54039 0.06556 0.90037 0.0
H941 H 0.56346 0.06697 0.86344 0.0
H942 H 0.58442 0.99573 0.87734 0.0
H943 H 0.56131 0.99423 0.91404 0.0
C944 C 0.62575 0.02566 0.82509 0.0
C945 C 0.61464 0.02855 0.80234 0.0
C946 C 0.6134 0.02735 0.84661 0.0
C947 C 0.58996 0.03236 0.84567 0.0
C948 C 0.57943 0.03665 0.8231 0.0
C949 C 0.5916 0.03459 0.8016 0.0
C950 C 0.54973 0.05011 0.89531 0.0
C951 C 0.54907 0.02976 0.90989 0.0
C952 C 0.56296 0.05096 0.87432 0.0
C953 C 0.57594 0.03164 0.86783 0.0
C954 C 0.57492 0.01109 0.88223 0.0
C955 C 0.56148 0.01009 0.90302 0.0
H956 H 0.23102 0.35831 0.08822 0.0
H957 H 0.30537 0.35157 0.09365 0.0
H958 H 0.22492 0.33834 0.12705 0.0
H959 H 0.29951 0.33196 0.13193 0.0
H960 H 0.28873 0.31372 0.2089 0.0
H961 H 0.29072 0.34012 0.17481 0.0
H962 H 0.2254 0.29441 0.14128 0.0
H963 H 0.22305 0.26815 0.17614 0.0
C964 C 0.24614 0.35322 0.09805 0.0
C965 C 0.26872 0.35672 0.08806 0.0
C966 C 0.24262 0.34149 0.12008 0.0
C967 C 0.26172 0.33348 0.13267 0.0
C968 C 0.28444 0.3381 0.12303 0.0
C969 C 0.28782 0.34937 0.10103 0.0
C970 C 0.27448 0.30952 0.19455 0.0
C971 C 0.25567 0.28882 0.19533 0.0
C972 C 0.27574 0.3246 0.17484 0.0
C973 C 0.25832 0.31936 0.15513 0.0
C974 C 0.23901 0.29915 0.15623 0.0
C975 C 0.23776 0.28397 0.17609 0.0
H976 H 0.18116 0.90986 0.00472 0.0
H977 H 0.23663 0.97579 0.02282 0.0
H978 H 0.1509 0.93651 0.01028 0.0
H979 H 0.2061 1.00249 0.02847 0.0
H980 H 0.1346 0.03175 0.05536 0.0
H981 H 0.16838 0.00856 0.05501 0.0
H982 H 0.14265 0.97151 0.98307 0.0
H983 H 0.10954 0.99451 0.98324 0.0
C984 C 0.1869 0.92996 0.01027 0.0
C985 C 0.21128 0.94075 0.01305 0.0
C986 C 0.16957 0.94523 0.01336 0.0
C987 C 0.17622 0.97159 0.01948 0.0
C988 C 0.20054 0.98222 0.02376 0.0
C989 C 0.21795 0.96694 0.02044 0.0
C990 C 0.13657 0.01904 0.03933 0.0
C991 C 0.1194 0.01473 0.01944 0.0
C992 C 0.15575 0.00574 0.03917 0.0
C993 C 0.15773 0.98786 0.01924 0.0
C994 C 0.14123 0.98473 0.9989 0.0
C995 C 0.12237 0.99805 0.99896 0.0
H996 H 0.71443 0.59227 0.97849 0.0
H997 H 0.67362 0.65284 0.97618 0.0
H998 H 0.67738 0.56179 0.98144 0.0
H999 H 0.63696 0.62252 0.97927 0.0
H1000 H 0.58118 0.56955 0.01585 0.0
H1001 H 0.6199 0.59653 0.01286 0.0
H1002 H 0.63764 0.54239 0.95657 0.0
H1003 H 0.5985 0.51527 0.95941 0.0
C1004 C 0.69761 0.59909 0.97839 0.0
C1005 C 0.69713 0.62511 0.97715 0.0
C1006 C 0.6764 0.58159 0.98005 0.0
C1007 C 0.65427 0.58979 0.98089 0.0
C1008 C 0.65375 0.61565 0.97906 0.0
C1009 C 0.67482 0.63302 0.97709 0.0
C1010 C 0.5934 0.56319 0.00301 0.0
C1011 C 0.58666 0.54036 0.9877 0.0
C1012 C 0.61555 0.57877 1.0012 0.0
C1013 C 0.63171 0.57182 0.9842 0.0
C1014 C 0.62557 0.54828 0.96982 0.0
C1015 C 0.60318 0.53275 0.97145 0.0
H1016 H 0.71733 0.47678 0.2882 0.0
H1017 H 0.65366 0.42996 0.25273 0.0
H1018 H 0.7389 0.44162 0.28199 0.0
H1019 H 0.67546 0.39537 0.24439 0.0
H1020 H 0.7102 0.32789 0.25428 0.0
H1021 H 0.69012 0.36378 0.25955 0.0
H1022 H 0.75807 0.41483 0.25958 0.0
H1023 H 0.77835 0.37817 0.25633 0.0
C1024 C 0.70807 0.45903 0.27859 0.0
C1025 C 0.68373 0.4561 0.27111 0.0
C1026 C 0.72053 0.43875 0.27481 0.0
C1027 C 0.70918 0.41506 0.26281 0.0
C1028 C 0.68494 0.41271 0.25447 0.0
C1029 C 0.67234 0.43273 0.25896 0.0
C1030 C 0.72091 0.34678 0.25525 0.0
C1031 C 0.74593 0.35009 0.25464 0.0
C1032 C 0.70927 0.36764 0.25809 0.0
C1033 C 0.72211 0.39276 0.2597 0.0
C1034 C 0.74729 0.39603 0.25882 0.0
C1035 C 0.75905 0.37498 0.2567 0.0
H1036 H 0.83142 0.39797 0.44044 0.0
H1037 H 0.82021 0.43179 0.51267 0.0
H1038 H 0.87085 0.42507 0.44152 0.0
H1039 H 0.85989 0.45718 0.51489 0.0
H1040 H 0.92397 0.51546 0.50903 0.0
H1041 H 0.88344 0.49155 0.50235 0.0
H1042 H 0.90965 0.43281 0.45746 0.0
H1043 H 0.9498 0.45818 0.46255 0.0
C1044 C 0.83758 0.41103 0.45663 0.0
C1045 C 0.82281 0.41303 0.47636 0.0
C1046 C 0.86022 0.42648 0.45739 0.0
C1047 C 0.86874 0.44368 0.47823 0.0
C1048 C 0.8539 0.44501 0.49813 0.0
C1049 C 0.83114 0.4302 0.49702 0.0
C1050 C 0.92086 0.49757 0.49748 0.0
C1051 C 0.93982 0.48854 0.48634 0.0
C1052 C 0.89767 0.48364 0.49383 0.0
C1053 C 0.89308 0.4598 0.47974 0.0
C1054 C 0.91221 0.45113 0.46815 0.0
C1055 C 0.9353 0.46555 0.47117 0.0
H1056 H 0.34062 0.05897 0.24583 0.0
H1057 H 0.39112 0.12396 0.27916 0.0
H1058 H 0.31186 0.0866 0.23756 0.0
H1059 H 0.36214 0.15145 0.27118 0.0
H1060 H 0.29158 0.17674 0.29181 0.0
H1061 H 0.31946 0.14727 0.29252 0.0
H1062 H 0.30785 0.12974 0.21377 0.0
H1063 H 0.28004 0.16008 0.21284 0.0
C1064 C 0.34573 0.07923 0.25096 0.0
C1065 C 0.36799 0.08936 0.26336 0.0
C1066 C 0.32931 0.09496 0.24613 0.0
C1067 C 0.33479 0.12096 0.25399 0.0
C1068 C 0.35754 0.13134 0.26512 0.0
C1069 C 0.37412 0.11568 0.26957 0.0
C1070 C 0.29459 0.16632 0.27464 0.0
C1071 C 0.28379 0.17078 0.25222 0.0
C1072 C 0.31072 0.14966 0.27507 0.0
C1073 C 0.31613 0.13683 0.25314 0.0
C1074 C 0.30405 0.13973 0.23086 0.0
C1075 C 0.28804 0.15682 0.23036 0.0
H1076 H 0.35271 0.15088 0.50035 0.0
H1077 H 0.30276 0.08118 0.50484 0.0
H1078 H 0.38588 0.12798 0.50377 0.0
H1079 H 0.33592 0.05803 0.50756 0.0
H1080 H 0.40339 0.02871 0.53445 0.0
H1081 H 0.36927 0.05081 0.53256 0.0
H1082 H 0.40466 0.09854 0.48039 0.0
H1083 H 0.43878 0.07697 0.4829 0.0
C1084 C 0.34879 0.13065 0.5021 0.0
C1085 C 0.32502 0.11792 0.50231 0.0
C1086 C 0.36785 0.1174 0.50385 0.0
C1087 C 0.36373 0.09098 0.50571 0.0
C1088 C 0.33992 0.07835 0.50639 0.0
C1089 C 0.32084 0.09164 0.50474 0.0
C1090 C 0.40374 0.04384 0.52251 0.0
C1091 C 0.42382 0.05118 0.50894 0.0
C1092 C 0.38415 0.0565 0.52134 0.0
C1093 C 0.38417 0.07676 0.50651 0.0
C1094 C 0.40411 0.08352 0.49248 0.0
C1095 C 0.42365 0.07098 0.49375 0.0
H1096 H 0.70306 0.57578 0.30217 0.0
H1097 H 0.64387 0.61634 0.30538 0.0
H1098 H 0.73039 0.61567 0.29875 0.0
H1099 H 0.67125 0.65609 0.30195 0.0
H1100 H 0.77489 0.69692 0.31224 0.0
H1101 H 0.74773 0.6585 0.32127 0.0
H1102 H 0.69517 0.67335 0.26769 0.0
H1103 H 0.72236 0.71138 0.25845 0.0
C1104 C 0.69588 0.5932 0.30252 0.0
C1105 C 0.67117 0.59271 0.30394 0.0
C1106 C 0.7116 0.61609 0.30063 0.0
C1107 C 0.70297 0.63903 0.29986 0.0
C1108 C 0.67842 0.6387 0.30217 0.0
C1109 C 0.66274 0.61588 0.30432 0.0
C1110 C 0.75748 0.692 0.3025 0.0
C1111 C 0.75072 0.70722 0.28472 0.0
C1112 C 0.74198 0.66997 0.3076 0.0
C1113 C 0.71925 0.66291 0.29527 0.0
C1114 C 0.7124 0.67842 0.27777 0.0
C1115 C 0.72801 0.70019 0.27243 0.0
H1116 H 0.91807 0.45379 0.81659 0.0
H1117 H 0.86091 0.496 0.80601 0.0
H1118 H 0.88835 0.41438 0.81476 0.0
H1119 H 0.83177 0.45703 0.80406 0.0
H1120 H 0.79636 0.38014 0.76122 0.0
H1121 H 0.82472 0.41985 0.77057 0.0
H1122 H 0.8509 0.39204 0.83645 0.0
H1123 H 0.82229 0.35217 0.82722 0.0
C1124 C 0.89927 0.45476 0.81431 0.0
C1125 C 0.89194 0.47798 0.81102 0.0
C1126 C 0.88229 0.43225 0.8133 0.0
C1127 C 0.85783 0.43272 0.8089 0.0
C1128 C 0.85052 0.4561 0.80704 0.0
C1129 C 0.86731 0.47842 0.80818 0.0
C1130 C 0.80789 0.38262 0.7779 0.0
C1131 C 0.80699 0.36313 0.79355 0.0
C1132 C 0.82412 0.40534 0.78326 0.0
C1133 C 0.84001 0.40893 0.80421 0.0
C1134 C 0.83891 0.38964 0.82012 0.0
C1135 C 0.82237 0.367 0.81496 0.0
H1136 H 0.01436 0.87255 0.14308 0.0
H1137 H 0.04609 0.83628 0.0823 0.0
H1138 H 0.00964 0.90753 0.1183 0.0
H1139 H 0.04121 0.87086 0.05767 0.0
H1140 H 0.0558 0.95214 0.0344 0.0
H1141 H 0.05834 0.91612 0.05779 0.0
H1142 H 0.98639 0.91581 0.08006 0.0
H1143 H 0.98388 0.95235 0.05659 0.0
C1144 C 0.02047 0.87214 0.12454 0.0
C1145 C 0.03072 0.85175 0.1147 0.0
C1146 C 0.01751 0.89199 0.11026 0.0
C1147 C 0.02496 0.89189 0.08598 0.0
C1148 C 0.03544 0.8716 0.07635 0.0
C1149 C 0.03824 0.85177 0.09049 0.0
C1150 C 0.04037 0.94423 0.04401 0.0
C1151 C 0.01962 0.95508 0.04363 0.0
C1152 C 0.04182 0.92353 0.05739 0.0
C1153 C 0.02263 0.9132 0.0709 0.0
C1154 C 1.00157 0.92357 0.07004 0.0
C1155 C 1.00002 0.94424 0.05636 0.0
H1156 H 0.90858 0.25655 0.88743 0.0
H1157 H 0.95279 0.26469 0.82514 0.0
H1158 H 0.87333 0.25624 0.8607 0.0
H1159 H 0.91734 0.26511 0.79835 0.0
H1160 H 0.84451 0.24791 0.75401 0.0
H1161 H 0.87926 0.24154 0.77932 0.0
H1162 H 0.8575 0.28766 0.84022 0.0
H1163 H 0.82296 0.29346 0.81532 0.0
C1164 C 0.9108 0.25825 0.86799 0.0
C1165 C 0.9336 0.26095 0.8585 0.0
C1166 C 0.89055 0.25818 0.85265 0.0
C1167 C 0.89249 0.26106 0.82742 0.0
C1168 C 0.91516 0.26271 0.81767 0.0
C1169 C 0.9355 0.26258 0.83305 0.0
C1170 C 0.84716 0.25645 0.77289 0.0
C1171 C 0.83096 0.27103 0.78274 0.0
C1172 C 0.8671 0.25294 0.78733 0.0
C1173 C 0.87114 0.26395 0.81189 0.0
C1174 C 0.85476 0.27842 0.8216 0.0
C1175 C 0.83495 0.28187 0.80725 0.0
H1176 H 0.58413 0.2235 0.61106 0.0
H1177 H 0.50769 0.21436 0.61494 0.0
H1178 H 0.58044 0.17885 0.59607 0.0
H1179 H 0.50349 0.1701 0.59812 0.0
H1180 H 0.50117 0.08708 0.57803 0.0
H1181 H 0.50723 0.12879 0.601 0.0
H1182 H 0.57017 0.15207 0.56093 0.0
H1183 H 0.56483 0.10959 0.53936 0.0
C1184 C 0.5665 0.21172 0.60884 0.0
C1185 C 0.54619 0.22221 0.61424 0.0
C1186 C 0.5643 0.18618 0.59988 0.0
C1187 C 0.54162 0.17064 0.59531 0.0
C1188 C 0.52132 0.18111 0.60163 0.0
C1189 C 0.52364 0.20655 0.61127 0.0
C1190 C 0.51644 0.10112 0.57436 0.0
C1191 C 0.53251 0.09516 0.55688 0.0
C1192 C 0.51984 0.12518 0.58741 0.0
C1193 C 0.53909 0.14422 0.58285 0.0
C1194 C 0.55537 0.13798 0.56549 0.0
C1195 C 0.55228 0.11363 0.5529 0.0
H1196 H 0.54625 0.7539 0.30713 0.0
H1197 H 0.58745 0.77024 0.37677 0.0
H1198 H 0.58309 0.75313 0.28566 0.0
H1199 H 0.62411 0.76943 0.35538 0.0
H1200 H 0.68161 0.73936 0.31247 0.0
H1201 H 0.64343 0.7377 0.33143 0.0
H1202 H 0.62057 0.78378 0.27722 0.0
H1203 H 0.65907 0.78546 0.25815 0.0
C1204 C 0.56314 0.75722 0.31786 0.0
C1205 C 0.56392 0.76208 0.34367 0.0
C1206 C 0.58423 0.75693 0.30554 0.0
C1207 C 0.60651 0.76116 0.31881 0.0
C1208 C 0.60722 0.76581 0.34463 0.0
C1209 C 0.58621 0.76638 0.35689 0.0
C1210 C 0.66839 0.74899 0.30445 0.0
C1211 C 0.67335 0.76265 0.28389 0.0
C1212 C 0.64656 0.74815 0.31541 0.0
C1213 C 0.62905 0.7608 0.30598 0.0
C1214 C 0.63367 0.77375 0.28485 0.0
C1215 C 0.65569 0.77477 0.27397 0.0
H1216 H 0.0596 0.20778 0.41759 0.0
H1217 H 0.98702 0.20746 0.43748 0.0
H1218 H 0.05865 0.16661 0.43462 0.0
H1219 H 0.98592 0.16662 0.45407 0.0
H1220 H 0.98551 0.0823 0.46087 0.0
H1221 H 0.98738 0.12113 0.44048 0.0
H1222 H 0.05572 0.1517 0.47856 0.0
H1223 H 0.05389 0.1126 0.49915 0.0
C1224 C 0.04329 0.19858 0.42498 0.0
C1225 C 0.02332 0.21067 0.42606 0.0
C1226 C 0.04284 0.17526 0.43502 0.0
C1227 C 0.02225 0.16345 0.44583 0.0
C1228 C 1.00199 0.17509 0.44577 0.0
C1229 C 1.00261 0.19847 0.43622 0.0
C1230 C 1.0009 0.09732 0.46507 0.0
C1231 C 0.01944 0.09441 0.48186 0.0
C1232 C 1.00197 0.11958 0.45333 0.0
C1233 C 0.02175 0.13945 0.45779 0.0
C1234 C 0.04037 0.1366 0.47454 0.0
C1235 C 0.03915 0.11437 0.48659 0.0
H1236 H 0.56406 0.28341 0.17634 0.0
H1237 H 0.59574 0.2744 0.10625 0.0
H1238 H 0.60032 0.2751 0.19725 0.0
H1239 H 0.63125 0.26514 0.12685 0.0
H1240 H 0.70159 0.27574 0.17207 0.0
H1241 H 0.66527 0.28353 0.15157 0.0
H1242 H 0.62324 0.24298 0.2046 0.0
H1243 H 0.66004 0.23613 0.22578 0.0
C1244 C 0.57873 0.27974 0.16537 0.0
C1245 C 0.57692 0.27982 0.13957 0.0
C1246 C 0.59947 0.27467 0.17735 0.0
C1247 C 0.61887 0.26937 0.16382 0.0
C1248 C 0.61699 0.26958 0.13805 0.0
C1249 C 0.59646 0.27486 0.12616 0.0
C1250 C 0.68458 0.26817 0.17918 0.0
C1251 C 0.68368 0.25519 0.20046 0.0
C1252 C 0.66364 0.2726 0.16736 0.0
C1253 C 0.64112 0.26396 0.17634 0.0
C1254 C 0.64021 0.25032 0.19733 0.0
C1255 C 0.66127 0.24606 0.2093 0.0
H1256 H 0.54336 0.8364 0.9597 0.0
H1257 H 0.5495 0.87212 0.89171 0.0
H1258 H 0.53703 0.87578 0.98138 0.0
H1259 H 0.54326 0.91221 0.91391 0.0
H1260 H 0.55662 0.98321 0.97617 0.0
H1261 H 0.5637 0.94584 0.95024 0.0
H1262 H 0.50292 0.90029 0.97933 0.0
H1263 H 0.4956 0.93756 0.00472 0.0
C1264 C 0.54344 0.85272 0.94933 0.0
C1265 C 0.54667 0.85104 0.92388 0.0
C1266 C 0.53971 0.87528 0.96181 0.0
C1267 C 0.53929 0.89691 0.94927 0.0
C1268 C 0.54346 0.89572 0.92398 0.0
C1269 C 0.54701 0.87286 0.91131 0.0
C1270 C 0.54454 0.96529 0.97661 0.0
C1271 C 0.5255 0.96325 0.99234 0.0
C1272 C 0.54861 0.94396 0.96182 0.0
C1273 C 0.53391 0.9202 0.96287 0.0
C1274 C 0.51467 0.91834 0.97834 0.0
C1275 C 0.51049 0.93964 0.99289 0.0
H1276 H 0.91655 0.76413 0.63851 0.0
H1277 H 0.96281 0.78727 0.70429 0.0
H1278 H 0.88152 0.76396 0.66313 0.0
H1279 H 0.92758 0.78794 0.72879 0.0
H1280 H 0.85045 0.81586 0.74575 0.0
H1281 H 0.88798 0.81598 0.72489 0.0
H1282 H 0.86714 0.73566 0.70342 0.0
H1283 H 0.83028 0.73516 0.72468 0.0
C1284 C 0.91924 0.76922 0.65822 0.0
C1285 C 0.94247 0.77557 0.66946 0.0
C1286 C 0.89919 0.76913 0.67228 0.0
C1287 C 0.90187 0.77605 0.69782 0.0
C1288 C 0.92505 0.78265 0.70911 0.0
C1289 C 0.94516 0.78209 0.69511 0.0
C1290 C 0.85407 0.79816 0.73695 0.0
C1291 C 0.8373 0.77552 0.73703 0.0
C1292 C 0.87554 0.79824 0.72504 0.0
C1293 C 0.88036 0.77583 0.71248 0.0
C1294 C 0.86384 0.7532 0.71291 0.0
C1295 C 0.84275 0.75297 0.72524 0.0
H1296 H 0.08152 1.00149 0.82836 0.0
H1297 H 0.1462 0.01128 0.87512 0.0
H1298 H 0.0578 1.00003 0.86448 0.0
H1299 H 0.12225 0.01002 0.91159 0.0
H1300 H 0.07012 0.04013 0.96729 0.0
H1301 H 0.09586 0.0376 0.93291 0.0
H1302 H 0.04644 0.97241 0.89855 0.0
H1303 H 0.02079 0.97461 0.93342 0.0
C1304 C 0.09072 0.00333 0.84639 0.0
C1305 C 0.11582 0.00658 0.84882 0.0
C1306 C 0.07705 1.00228 0.86711 0.0
C1307 C 0.08806 0.00477 0.89095 0.0
C1308 C 0.1132 0.00812 0.89347 0.0
C1309 C 0.12693 0.0088 0.87261 0.0
C1310 C 0.06492 0.02492 0.95266 0.0
C1311 C 0.04345 0.00742 0.95323 0.0
C1312 C 0.07974 0.02349 0.93293 0.0
C1313 C 0.07327 0.00482 0.91295 0.0
C1314 C 0.05189 0.98713 0.9136 0.0
C1315 C 0.03721 0.98833 0.93358 0.0
H1316 H 0.74633 0.32031 0.545 0.0
H1317 H 0.76267 0.40012 0.57148 0.0
H1318 H 0.75118 0.30905 0.58669 0.0
H1319 H 0.76762 0.38857 0.61371 0.0
H1320 H 0.75006 0.34987 0.68725 0.0
H1321 H 0.74419 0.36521 0.64688 0.0
H1322 H 0.7877 0.31373 0.61531 0.0
H1323 H 0.79341 0.29832 0.65551 0.0
C1324 C 0.75088 0.3355 0.55976 0.0
C1325 C 0.75453 0.36114 0.5549 0.0
C1326 C 0.75374 0.32899 0.58363 0.0
C1327 C 0.7603 0.34794 0.60325 0.0
C1328 C 0.76266 0.37363 0.59877 0.0
C1329 C 0.7598 0.38022 0.57469 0.0
C1330 C 0.75851 0.34204 0.67167 0.0
C1331 C 0.77205 0.32282 0.6743 0.0
C1332 C 0.75523 0.35089 0.64868 0.0
C1333 C 0.76532 0.34047 0.62805 0.0
C1334 C 0.77945 0.32179 0.63092 0.0
C1335 C 0.7828 0.31305 0.65387 0.0
H1336 H 0.40744 0.06142 0.3725 0.0
H1337 H 0.47246 0.06475 0.33387 0.0
H1338 H 0.43068 0.06372 0.41177 0.0
H1339 H 0.49543 0.06673 0.37272 0.0
H1340 H 0.53357 0.07946 0.44809 0.0
H1341 H 0.50958 0.0902 0.41332 0.0
H1342 H 0.45122 0.03132 0.42814 0.0
H1343 H 0.47495 0.02059 0.46214 0.0
C1344 C 0.42668 0.06304 0.37244 0.0
C1345 C 0.4381 0.06249 0.35017 0.0
C1346 C 0.43997 0.06432 0.39485 0.0
C1347 C 0.46488 0.06526 0.39529 0.0
C1348 C 0.47636 0.06629 0.37306 0.0
C1349 C 0.46311 0.06485 0.35076 0.0
C1350 C 0.51552 0.06912 0.44398 0.0
C1351 C 0.5061 0.0493 0.45785 0.0
C1352 C 0.5018 0.07524 0.42418 0.0
C1353 C 0.47843 0.06172 0.41814 0.0
C1354 C 0.46891 0.04248 0.43259 0.0
C1355 C 0.48263 0.03623 0.45204 0.0
H1356 H 0.73006 0.70515 0.05749 0.0
H1357 H 0.79486 0.6756 0.07023 0.0
H1358 H 0.73046 0.71957 0.10088 0.0
H1359 H 0.79518 0.69005 0.11435 0.0
H1360 H 0.80273 0.75128 0.18217 0.0
H1361 H 0.80176 0.73131 0.14021 0.0
H1362 H 0.72561 0.70585 0.14175 0.0
H1363 H 0.72646 0.72615 0.1837 0.0
C1364 C 0.74435 0.7015 0.06966 0.0
C1365 C 0.76257 0.68938 0.0603 0.0
C1366 C 0.74445 0.70963 0.09467 0.0
C1367 C 0.76286 0.70608 0.11121 0.0
C1368 C 0.78083 0.6933 0.10206 0.0
C1369 C 0.78057 0.68483 0.07686 0.0
C1370 C 0.78571 0.74147 0.17361 0.0
C1371 C 0.7646 0.7406 0.18636 0.0
C1372 C 0.78524 0.72974 0.14957 0.0
C1373 C 0.76364 0.71688 0.13753 0.0
C1374 C 0.74255 0.71581 0.15034 0.0
C1375 C 0.74302 0.72748 0.17443 0.0
H1376 H 0.07487 0.00272 0.72307 0.0
H1377 H 0.14845 0.03096 0.70948 0.0
H1378 H 0.06256 0.0099 0.68151 0.0
H1379 H 0.13598 0.03841 0.66738 0.0
H1380 H 0.09957 0.02597 0.58589 0.0
H1381 H 0.11654 0.01811 0.62592 0.0
H1382 H 0.06055 0.04923 0.66197 0.0
H1383 H 0.04356 0.05685 0.62208 0.0
C1384 C 0.08851 0.01009 0.71099 0.0
C1385 C 0.11263 0.01644 0.71964 0.0
C1386 C 0.0814 0.01448 0.68723 0.0
C1387 C 0.09817 0.02543 0.67134 0.0
C1388 C 0.12259 0.03011 0.67925 0.0
C1389 C 0.12977 0.02566 0.70327 0.0
C1390 C 0.09115 0.03152 0.60244 0.0
C1391 C 0.07016 0.04193 0.60086 0.0
C1392 C 0.10089 0.02701 0.62535 0.0
C1393 C 0.08969 0.03262 0.64712 0.0
C1394 C 0.06935 0.04418 0.64552 0.0
C1395 C 0.05972 0.04879 0.62268 0.0
H1396 H 0.74706 0.39828 0.40736 0.0
H1397 H 0.72636 0.33035 0.44406 0.0
H1398 H 0.7496 0.3718 0.36889 0.0
H1399 H 0.72946 0.30419 0.40627 0.0
H1400 H 0.71784 0.26486 0.32761 0.0
H1401 H 0.71195 0.29103 0.36507 0.0
H1402 H 0.77653 0.34358 0.354 0.0
H1403 H 0.78208 0.31777 0.31649 0.0
C1404 C 0.74278 0.37779 0.40711 0.0
C1405 C 0.73667 0.36638 0.42866 0.0
C1406 C 0.74445 0.36262 0.38524 0.0
C1407 C 0.73993 0.33588 0.38465 0.0
C1408 C 0.73286 0.32466 0.40602 0.0
C1409 C 0.73124 0.33972 0.42773 0.0
C1410 C 0.73095 0.28176 0.33348 0.0
C1411 C 0.7504 0.28931 0.31923 0.0
C1412 C 0.72753 0.29683 0.35481 0.0
C1413 C 0.74357 0.31963 0.36223 0.0
C1414 C 0.76353 0.32652 0.34843 0.0
C1415 C 0.7669 0.31152 0.32717 0.0
H1416 H 0.45614 0.99139 0.22554 0.0
H1417 H 0.42542 0.05816 0.21608 0.0
H1418 H 0.47066 0.99236 0.18427 0.0
H1419 H 0.44124 0.06032 0.17536 0.0
H1420 H 0.45805 0.04677 0.09527 0.0
H1421 H 0.43979 0.04348 0.13464 0.0
H1422 H 0.50088 0.01514 0.16373 0.0
H1423 H 0.51824 0.01695 0.12371 0.0
C1424 C 0.45245 0.00623 0.21449 0.0
C1425 C 0.43971 0.0247 0.22388 0.0
C1426 C 0.46103 0.00702 0.19096 0.0
C1427 C 0.4576 0.02672 0.17656 0.0
C1428 C 0.44406 0.0447 0.18573 0.0
C1429 C 0.43497 0.04352 0.20908 0.0
C1430 C 0.46756 0.03993 0.11018 0.0
C1431 C 0.48949 0.03205 0.10656 0.0
C1432 C 0.45715 0.03813 0.1328 0.0
C1433 C 0.46871 0.02886 0.15245 0.0
C1434 C 0.49109 0.02171 0.14889 0.0
C1435 C 0.50124 0.02303 0.12608 0.0
H1436 H 0.77784 0.72118 0.9486 0.0
H1437 H 0.77607 0.65058 0.90352 0.0
H1438 H 0.77925 0.74395 0.91183 0.0
H1439 H 0.77739 0.67352 0.86646 0.0
H1440 H 0.80668 0.78081 0.84351 0.0
H1441 H 0.80689 0.75627 0.87926 0.0
H1442 H 0.75208 0.69768 0.84217 0.0
H1443 H 0.75166 0.72237 0.80664 0.0
C1444 C 0.77771 0.71046 0.93081 0.0
C1445 C 0.77683 0.68399 0.92907 0.0
C1446 C 0.7787 0.7236 0.90969 0.0
C1447 C 0.7786 0.71067 0.88612 0.0
C1448 C 0.7774 0.6841 0.8843 0.0
C1449 C 0.7767 0.67094 0.90554 0.0
C1450 C 0.79479 0.76262 0.84293 0.0
C1451 C 0.77927 0.75352 0.82212 0.0
C1452 C 0.79482 0.74858 0.86347 0.0
C1453 C 0.77946 0.72496 0.86367 0.0
C1454 C 0.76433 0.71561 0.84259 0.0
C1455 C 0.76412 0.72978 0.82217 0.0
H1456 H 0.81332 0.07435 0.03205 0.0
H1457 H 0.85795 0.1336 0.99782 0.0
H1458 H 0.84397 0.04774 0.02748 0.0
H1459 H 0.88849 0.10725 0.9935 0.0
H1460 H 0.91942 0.02453 0.04 0.0
H1461 H 0.88518 0.04623 0.0433 0.0
H1462 H 0.89441 0.06825 0.96954 0.0
H1463 H 0.92877 0.04687 0.96642 0.0
C1464 C 0.82971 0.08176 0.02371 0.0
C1465 C 0.8332 0.10608 0.01527 0.0
C1466 C 0.84726 0.06653 0.02111 0.0
C1467 C 0.86854 0.07526 0.00986 0.0
C1468 C 0.87209 0.09973 0.00178 0.0
C1469 C 0.85466 0.11495 0.00447 0.0
C1470 C 0.91376 0.03351 0.0243 0.0
C1471 C 0.92677 0.03411 0.00298 0.0
C1472 C 0.89416 0.04596 0.0262 0.0
C1473 C 0.8873 0.0593 0.00682 0.0
C1474 C 0.89955 0.05859 0.98498 0.0
C1475 C 0.91908 0.04613 0.98308 0.0
H1476 H 0.33146 0.45553 0.03557 0.0
H1477 H 0.36466 0.39452 0.00426 0.0
H1478 H 0.37004 0.48453 0.03711 0.0
H1479 H 0.40278 0.42306 0.00623 0.0
H1480 H 0.46446 0.48298 0.99158 0.0
H1481 H 0.42402 0.45828 0.98765 0.0
H1482 H 0.40964 0.49308 0.05856 0.0
H1483 H 0.44999 0.51847 0.06196 0.0
C1484 C 0.34689 0.44826 0.02904 0.0
C1485 C 0.34477 0.42259 0.01979 0.0
C1486 C 0.36906 0.46487 0.03001 0.0
C1487 C 0.38961 0.45625 0.02164 0.0
C1488 C 0.38737 0.43062 0.0124 0.0
C1489 C 0.36538 0.41411 0.01147 0.0
C1490 C 0.45251 0.4858 0.00604 0.0
C1491 C 0.46037 0.50286 0.02694 0.0
C1492 C 0.42936 0.47137 0.00399 0.0
C1493 C 0.41348 0.47346 0.02289 0.0
C1494 C 0.4212 0.49109 0.04353 0.0
C1495 C 0.44439 0.50556 0.04555 0.0
H1496 H 0.32138 0.57856 0.72456 0.0
H1497 H 0.3865 0.62855 0.75282 0.0
H1498 H 0.29994 0.61434 0.72828 0.0
H1499 H 0.36535 0.66426 0.75606 0.0
H1500 H 0.31726 0.7167 0.78631 0.0
H1501 H 0.33677 0.67996 0.78106 0.0
H1502 H 0.2946 0.65432 0.71297 0.0
H1503 H 0.27462 0.69108 0.71851 0.0
C1504 C 0.3312 0.59723 0.73128 0.0
C1505 C 0.35568 0.60058 0.73849 0.0
C1506 C 0.3189 0.61781 0.73336 0.0
C1507 C 0.33075 0.64229 0.74277 0.0
C1508 C 0.3554 0.64567 0.74927 0.0
C1509 C 0.36765 0.62516 0.7472 0.0
C1510 C 0.31192 0.70318 0.77028 0.0
C1511 C 0.29423 0.70697 0.75289 0.0
C1512 C 0.32333 0.68212 0.76713 0.0
C1513 C 0.31757 0.66415 0.74641 0.0
C1514 C 0.29944 0.66757 0.72927 0.0
C1515 C 0.28793 0.68869 0.73246 0.0
H1516 H 0.18679 0.63653 0.487 0.0
H1517 H 0.21517 0.59476 0.54197 0.0
H1518 H 0.14743 0.61012 0.48862 0.0
H1519 H 0.1754 0.56863 0.54391 0.0
H1520 H 0.08859 0.5601 0.55483 0.0
H1521 H 0.1307 0.581 0.5559 0.0
H1522 H 0.13253 0.55913 0.47814 0.0
H1523 H 0.09117 0.538 0.47689 0.0
C1524 C 0.1846 0.6217 0.49941 0.0
C1525 C 0.20403 0.61761 0.51427 0.0
C1526 C 0.16213 0.60662 0.50031 0.0
C1527 C 0.15854 0.58748 0.51643 0.0
C1528 C 0.17784 0.58338 0.53143 0.0
C1529 C 0.20052 0.59816 0.53015 0.0
C1530 C 0.09814 0.5593 0.53811 0.0
C1531 C 0.08636 0.54764 0.51576 0.0
C1532 C 0.12218 0.57121 0.53875 0.0
C1533 C 0.13457 0.57181 0.51701 0.0
C1534 C 0.12321 0.55908 0.49505 0.0
C1535 C 0.09946 0.54697 0.49444 0.0
H1536 H 0.64886 0.93128 0.74272 0.0
H1537 H 0.71101 0.9903 0.74162 0.0
H1538 H 0.6749 0.90004 0.74711 0.0
H1539 H 0.73703 0.95896 0.74658 0.0
H1540 H 0.76399 0.88985 0.78837 0.0
H1541 H 0.74258 0.92542 0.78319 0.0
H1542 H 0.70745 0.88587 0.71562 0.0
H1543 H 0.72885 0.85107 0.7203 0.0
C1544 C 0.66805 0.93755 0.74339 0.0
C1545 C 0.67792 0.96312 0.74161 0.0
C1546 C 0.6829 0.91974 0.74596 0.0
C1547 C 0.70787 0.92727 0.74728 0.0
C1548 C 0.71782 0.95285 0.74576 0.0
C1549 C 0.70293 0.97062 0.74269 0.0
C1550 C 0.75208 0.88914 0.77221 0.0
C1551 C 0.74785 0.86767 0.75491 0.0
C1552 C 0.73987 0.90935 0.76927 0.0
C1553 C 0.72321 0.908 0.74919 0.0
C1554 C 0.71998 0.88711 0.73139 0.0
C1555 C 0.73228 0.86726 0.73412 0.0
H1556 H 0.7288 0.96656 0.54504 0.0
H1557 H 0.6847 0.89893 0.50813 0.0
H1558 H 0.69489 0.98893 0.54301 0.0
H1559 H 0.65091 0.9212 0.50615 0.0
H1560 H 0.60481 0.97683 0.48024 0.0
H1561 H 0.63913 0.95551 0.48405 0.0
H1562 H 0.65457 0.99016 0.55876 0.0
H1563 H 0.62007 0.01155 0.55486 0.0
C1564 C 0.71183 0.95637 0.5367 0.0
C1565 C 0.70956 0.93091 0.52672 0.0
C1566 C 0.69235 0.9692 0.53559 0.0
C1567 C 0.67014 0.957 0.52422 0.0
C1568 C 0.6678 0.93138 0.51469 0.0
C1569 C 0.68718 0.91851 0.51601 0.0
C1570 C 0.61563 0.98007 0.49743 0.0
C1571 C 0.60974 0.99598 0.51721 0.0
C1572 C 0.63522 0.96766 0.4997 0.0
C1573 C 0.64962 0.97091 0.52178 0.0
C1574 C 0.64402 0.9873 0.54143 0.0
C1575 C 0.62423 0.99956 0.53921 0.0
H1576 H 0.34441 0.46646 0.71116 0.0
H1577 H 0.38425 0.45011 0.77496 0.0
H1578 H 0.31868 0.42469 0.7101 0.0
H1579 H 0.35794 0.40949 0.77511 0.0
H1580 H 0.32318 0.32852 0.76002 0.0
H1581 H 0.34879 0.36912 0.75684 0.0
H1582 H 0.28839 0.39792 0.72684 0.0
H1583 H 0.26332 0.35628 0.72835 0.0
C1584 C 0.34747 0.45404 0.72511 0.0
C1585 C 0.36655 0.46145 0.74293 0.0
C1586 C 0.33264 0.43008 0.72464 0.0
C1587 C 0.33623 0.41319 0.74232 0.0
C1588 C 0.35492 0.42124 0.76058 0.0
C1589 C 0.36998 0.44479 0.76068 0.0
C1590 C 0.3155 0.34339 0.75238 0.0
C1591 C 0.29128 0.33911 0.74439 0.0
C1592 C 0.33012 0.36697 0.75087 0.0
C1593 C 0.32078 0.38736 0.742 0.0
C1594 C 0.29649 0.38285 0.73356 0.0
C1595 C 0.282 0.35894 0.73454 0.0
H1596 H 0.1232 0.60838 0.23838 0.0
H1597 H 0.18249 0.56847 0.22929 0.0
H1598 H 0.15042 0.64876 0.23574 0.0
H1599 H 0.20924 0.60848 0.22669 0.0
H1600 H 0.20649 0.71532 0.2135 0.0
H1601 H 0.17953 0.67393 0.20686 0.0
H1602 H 0.2228 0.64434 0.26024 0.0
H1603 H 0.24938 0.68543 0.26699 0.0
C1604 C 0.14187 0.60814 0.23553 0.0
C1605 C 0.15066 0.58519 0.23443 0.0
C1606 C 0.15739 0.63121 0.23385 0.0
C1607 C 0.18193 0.63167 0.23118 0.0
C1608 C 0.19046 0.60867 0.22901 0.0
C1609 C 0.17504 0.58574 0.23055 0.0
C1610 C 0.21049 0.69972 0.2233 0.0
C1611 C 0.23002 0.70344 0.24069 0.0
C1612 C 0.19496 0.67622 0.21972 0.0
C1613 C 0.19907 0.65603 0.2331 0.0
C1614 C 0.2193 0.65951 0.24953 0.0
C1615 C 0.2345 0.683 0.25341 0.0
H1616 H 0.54217 0.71098 0.41679 0.0
H1617 H 0.4667 0.68165 0.41679 0.0
H1618 H 0.55074 0.67592 0.43945 0.0
H1619 H 0.47499 0.64576 0.43795 0.0
H1620 H 0.49162 0.60552 0.50279 0.0
H1621 H 0.4863 0.63985 0.47811 0.0
H1622 H 0.55155 0.63255 0.44249 0.0
H1623 H 0.55739 0.59894 0.46831 0.0
C1624 C 0.52751 0.69637 0.42076 0.0
C1625 C 0.50382 0.69879 0.415 0.0
C1626 C 0.53235 0.67633 0.43386 0.0
C1627 C 0.51354 0.65823 0.44116 0.0
C1628 C 0.48993 0.65976 0.4335 0.0
C1629 C 0.48513 0.68002 0.42093 0.0
C1630 C 0.50502 0.61156 0.48997 0.0
C1631 C 0.52492 0.59959 0.48751 0.0
C1632 C 0.50182 0.63101 0.47549 0.0
C1633 C 0.51816 0.63866 0.45772 0.0
C1634 C 0.53861 0.6273 0.45596 0.0
C1635 C 0.54202 0.60807 0.47083 0.0
H1636 H 0.63823 0.32729 0.64701 0.0
H1637 H 0.59036 0.30593 0.70411 0.0
H1638 H 0.67235 0.3275 0.67548 0.0
H1639 H 0.62468 0.30595 0.73253 0.0
H1640 H 0.69467 0.32472 0.78216 0.0
H1641 H 0.66103 0.33202 0.75568 0.0
H1642 H 0.68839 0.2931 0.69346 0.0
H1643 H 0.72154 0.28577 0.71971 0.0
C1644 C 0.63491 0.32293 0.66571 0.0
C1645 C 0.61142 0.31634 0.67311 0.0
C1646 C 0.65454 0.32293 0.68201 0.0
C1647 C 0.65126 0.31643 0.7062 0.0
C1648 C 0.62785 0.31116 0.71406 0.0
C1649 C 0.60815 0.31106 0.6977 0.0
C1650 C 0.6935 0.31794 0.76278 0.0
C1651 C 0.71081 0.30481 0.753 0.0
C1652 C 0.67423 0.32201 0.74765 0.0
C1653 C 0.67209 0.31328 0.72241 0.0
C1654 C 0.68966 0.30049 0.71269 0.0
C1655 C 0.70867 0.2962 0.72779 0.0
H1656 H 0.99762 0.31297 0.94535 0.0
H1657 H 1.00436 0.35193 0.87927 0.0
H1658 H 0.9924 0.35201 0.96888 0.0
H1659 H 0.99905 0.39133 0.90314 0.0
H1660 H 0.0262 0.43378 0.0032 0.0
H1661 H 0.023 0.39265 0.97944 0.0
H1662 H 0.96858 0.41154 0.93047 0.0
H1663 H 0.97161 0.453 0.95468 0.0
C1664 C 0.99775 0.32983 0.93576 0.0
C1665 C 1.00169 0.32945 0.91047 0.0
C1666 C 0.99475 0.35218 0.94929 0.0
C1667 C 0.99544 0.37468 0.93786 0.0
C1668 C 0.99828 0.37415 0.91234 0.0
C1669 C 1.00148 0.35171 0.89875 0.0
C1670 C 0.01322 0.42898 0.98764 0.0
C1671 C 0.99907 0.44646 0.98081 0.0
C1672 C 0.01137 0.40544 0.97406 0.0
C1673 C 0.99559 0.39897 0.95309 0.0
C1674 C 0.98095 0.41617 0.94652 0.0
C1675 C 0.9825 0.43968 0.96048 0.0
H1676 H 0.95179 0.76241 0.14635 0.0
H1677 H 0.99339 0.7851 0.21525 0.0
H1678 H 0.91497 0.75879 0.16858 0.0
H1679 H 0.95661 0.78206 0.23725 0.0
H1680 H 0.8828 0.80766 0.25585 0.0
H1681 H 0.92061 0.808 0.23568 0.0
H1682 H 0.8951 0.73126 0.20324 0.0
H1683 H 0.85768 0.73065 0.22385 0.0
C1684 C 0.95308 0.76637 0.16622 0.0
C1685 C 0.97549 0.77393 0.17904 0.0
C1686 C 0.93204 0.76431 0.17892 0.0
C1687 C 0.933 0.77031 0.2046 0.0
C1688 C 0.95539 0.77751 0.21744 0.0
C1689 C 0.97642 0.77904 0.20484 0.0
C1690 C 0.88545 0.79079 0.24469 0.0
C1691 C 0.86741 0.7691 0.24152 0.0
C1692 C 0.90703 0.79096 0.23318 0.0
C1693 C 0.91069 0.76966 0.21786 0.0
C1694 C 0.89268 0.74795 0.21485 0.0
C1695 C 0.87136 0.74757 0.22677 0.0
H1696 H 0.50811 0.31975 0.06218 0.0
H1697 H 0.5163 0.36944 0.12985 0.0
H1698 H 0.51392 0.35655 0.03847 0.0
H1699 H 0.52196 0.40637 0.10604 0.0
H1700 H 0.55439 0.46626 0.05769 0.0
H1701 H 0.55102 0.42827 0.07929 0.0
H1702 H 0.4926 0.39125 0.02844 0.0
H1703 H 0.49596 0.4295 0.00654 0.0
C1704 C 0.51126 0.33856 0.07202 0.0
C1705 C 0.51179 0.34169 0.09794 0.0
C1706 C 0.51442 0.35964 0.05838 0.0
C1707 C 0.51835 0.38438 0.07032 0.0
C1708 C 0.51922 0.38754 0.09628 0.0
C1709 C 0.51591 0.36641 0.10994 0.0
C1710 C 0.54092 0.45 0.05086 0.0
C1711 C 0.52534 0.45105 0.03036 0.0
C1712 C 0.53891 0.42824 0.06342 0.0
C1713 C 0.52136 0.40685 0.05582 0.0
C1714 C 0.50639 0.40741 0.03471 0.0
C1715 C 0.50834 0.42931 0.02212 0.0
H1716 H 0.96838 0.26193 0.34968 0.0
H1717 H 0.96615 0.33203 0.39414 0.0
H1718 H 0.93161 0.26632 0.32648 0.0
H1719 H 0.92993 0.33671 0.37038 0.0
H1720 H 0.87929 0.33886 0.29539 0.0
H1721 H 0.918 0.33742 0.31672 0.0
H1722 H 0.88604 0.26994 0.34891 0.0
H1723 H 0.84741 0.2718 0.32853 0.0
C1724 C 0.96029 0.27845 0.3542 0.0
C1725 C 0.97002 0.29654 0.37381 0.0
C1726 C 0.9393 0.28092 0.34098 0.0
C1727 C 0.92811 0.30188 0.3467 0.0
C1728 C 0.93835 0.32048 0.3656 0.0
C1729 C 0.95895 0.31769 0.37922 0.0
C1730 C 0.88053 0.32396 0.30729 0.0
C1731 C 0.86034 0.30558 0.31048 0.0
C1732 C 0.90261 0.32309 0.31936 0.0
C1733 C 0.90489 0.30342 0.33419 0.0
C1734 C 0.88471 0.28515 0.3374 0.0
C1735 C 0.8626 0.28637 0.3259 0.0
H1736 H 0.02263 0.69841 0.60982 0.0
H1737 H 0.95371 0.70236 0.57628 0.0
H1738 H 0.01998 0.65552 0.59038 0.0
H1739 H 0.95007 0.65858 0.55763 0.0
H1740 H 0.97277 0.60347 0.49668 0.0
H1741 H 0.96691 0.63987 0.52414 0.0
H1742 H 1.00514 0.6126 0.58351 0.0
H1743 H 0.0126 0.57754 0.55537 0.0
C1744 C 1.00631 0.68944 0.59928 0.0
C1745 C 0.98823 0.70338 0.59479 0.0
C1746 C 1.00473 0.66479 0.588 0.0
C1747 C 0.98491 0.65346 0.57202 0.0
C1748 C 0.96585 0.66681 0.56931 0.0
C1749 C 0.96765 0.69169 0.58036 0.0
C1750 C 0.97973 0.60523 0.51566 0.0
C1751 C 0.99316 0.58771 0.52386 0.0
C1752 C 0.97614 0.62597 0.53158 0.0
C1753 C 0.98561 0.62943 0.5562 0.0
C1754 C 0.99796 0.61099 0.56463 0.0
C1755 C 1.002 0.59064 0.54856 0.0
H1756 H 0.61489 0.76319 0.88396 0.0
H1757 H 0.57179 0.77156 0.81924 0.0
H1758 H 0.64817 0.75756 0.85813 0.0
H1759 H 0.60534 0.76672 0.79357 0.0
H1760 H 0.68548 0.79658 0.7709 0.0
H1761 H 0.64896 0.79619 0.79317 0.0
H1762 H 0.65731 0.72495 0.82024 0.0
H1763 H 0.69351 0.7249 0.7973 0.0
C1764 C 0.61246 0.76364 0.86421 0.0
C1765 C 0.59066 0.76778 0.85366 0.0
C1766 C 0.63148 0.76034 0.84943 0.0
C1767 C 0.62936 0.76173 0.82383 0.0
C1768 C 0.6075 0.76559 0.81324 0.0
C1769 C 0.58827 0.76825 0.82794 0.0
C1770 C 0.67927 0.78058 0.7812 0.0
C1771 C 0.6923 0.76068 0.78217 0.0
C1772 C 0.65836 0.78036 0.79394 0.0
C1773 C 0.65032 0.76058 0.80851 0.0
C1774 C 0.66311 0.74045 0.80919 0.0
C1775 C 0.68371 0.74033 0.7959 0.0
H1776 H 0.40214 0.53456 0.65696 0.0
H1777 H 0.46697 0.57232 0.69784 0.0
H1778 H 0.42249 0.53915 0.61829 0.0
H1779 H 0.48724 0.57674 0.65978 0.0
H1780 H 0.51881 0.58988 0.58751 0.0
H1781 H 0.49211 0.59463 0.62098 0.0
H1782 H 0.45356 0.51847 0.6 0.0
H1783 H 0.48014 0.51386 0.56675 0.0
C1784 C 0.42045 0.54456 0.65761 0.0
C1785 C 0.43298 0.55309 0.68038 0.0
C1786 C 0.43223 0.54693 0.63553 0.0
C1787 C 0.45664 0.55812 0.63586 0.0
C1788 C 0.46846 0.56825 0.65863 0.0
C1789 C 0.45683 0.56565 0.68053 0.0
C1790 C 0.50444 0.57431 0.58992 0.0
C1791 C 0.50157 0.55154 0.57445 0.0
C1792 C 0.48913 0.57699 0.60909 0.0
C1793 C 0.47061 0.55692 0.61328 0.0
C1794 C 0.46728 0.5345 0.59715 0.0
C1795 C 0.48261 0.53182 0.57807 0.0
H1796 H 0.775 0.13835 0.93055 0.0
H1797 H 0.75356 0.19896 0.97675 0.0
H1798 H 0.76873 0.16084 0.89422 0.0
H1799 H 0.74768 0.22136 0.94103 0.0
H1800 H 0.72965 0.25252 0.86999 0.0
H1801 H 0.72593 0.22285 0.90185 0.0
H1802 H 0.79248 0.20048 0.88196 0.0
H1803 H 0.79592 0.22966 0.85007 0.0
C1804 C 0.76837 0.15609 0.93284 0.0
C1805 C 0.76511 0.16714 0.9564 0.0
C1806 C 0.76498 0.16905 0.91217 0.0
C1807 C 0.75803 0.19302 0.91488 0.0
C1808 C 0.75292 0.20291 0.93829 0.0
C1809 C 0.7565 0.19014 0.95882 0.0
C1810 C 0.74346 0.24128 0.87258 0.0
C1811 C 0.76316 0.24348 0.85784 0.0
C1812 C 0.74128 0.22423 0.89064 0.0
C1813 C 0.75879 0.20915 0.89419 0.0
C1814 C 0.77842 0.21138 0.87929 0.0
C1815 C 0.78058 0.22838 0.8613 0.0
H1816 H 0.06934 0.44997 0.18414 0.0
H1817 H 0.12318 0.51042 0.16414 0.0
H1818 H 0.0499 0.44582 0.14303 0.0
H1819 H 0.10289 0.50891 0.12454 0.0
H1820 H 0.06155 0.5154 0.05895 0.0
H1821 H 0.08708 0.49977 0.08769 0.0
H1822 H 0.02437 0.46384 0.12241 0.0
H1823 H 0.99913 0.47524 0.08974 0.0
C1824 C 0.07733 0.46186 0.17055 0.0
C1825 C 0.0977 0.48045 0.17706 0.0
C1826 C 0.06587 0.46003 0.14712 0.0
C1827 C 0.07387 0.47771 0.13026 0.0
C1828 C 0.09575 0.49464 0.13633 0.0
C1829 C 0.10769 0.49563 0.1593 0.0
C1830 C 0.05329 0.50288 0.07184 0.0
C1831 C 0.0284 0.49586 0.07158 0.0
C1832 C 0.06801 0.49456 0.08914 0.0
C1833 C 0.05823 0.48104 0.10839 0.0
C1834 C 0.03305 0.4738 0.10794 0.0
C1835 C 0.01835 0.48068 0.08939 0.0
H1836 H 0.77918 0.90299 0.43907 0.0
H1837 H 0.76506 0.83039 0.46909 0.0
H1838 H 0.78414 0.88127 0.39854 0.0
H1839 H 0.7696 0.80889 0.42875 0.0
H1840 H 0.74431 0.78306 0.34636 0.0
H1841 H 0.74414 0.80473 0.38755 0.0
H1842 H 0.81213 0.85147 0.37722 0.0
H1843 H 0.81256 0.82928 0.33584 0.0
C1844 C 0.77724 0.88246 0.43706 0.0
C1845 C 0.77161 0.86842 0.45727 0.0
C1846 C 0.78022 0.87006 0.41392 0.0
C1847 C 0.77719 0.84337 0.41048 0.0
C1848 C 0.7719 0.82944 0.4308 0.0
C1849 C 0.76935 0.84181 0.45392 0.0
C1850 C 0.75937 0.79777 0.35293 0.0
C1851 C 0.7785 0.80437 0.33788 0.0
C1852 C 0.75928 0.81015 0.37655 0.0
C1853 C 0.77809 0.82983 0.3856 0.0
C1854 C 0.79735 0.83644 0.37065 0.0
C1855 C 0.79769 0.82361 0.34711 0.0
H1856 H 0.37821 0.52473 0.82218 0.0
H1857 H 0.44783 0.53644 0.79214 0.0
H1858 H 0.39569 0.51149 0.85967 0.0
H1859 H 0.4653 0.52407 0.82946 0.0
H1860 H 0.49037 0.4839 0.89094 0.0
H1861 H 0.46852 0.48952 0.85285 0.0
H1862 H 0.42118 0.52864 0.89526 0.0
H1863 H 0.44249 0.52217 0.93313 0.0
C1864 C 0.39722 0.52457 0.82362 0.0
C1865 C 0.41161 0.53166 0.8042 0.0
C1866 C 0.40728 0.51703 0.8451 0.0
C1867 C 0.43195 0.51652 0.84763 0.0
C1868 C 0.44619 0.52362 0.82808 0.0
C1869 C 0.43617 0.53099 0.80669 0.0
C1870 C 0.47501 0.49324 0.89206 0.0
C1871 C 0.46822 0.50269 0.91497 0.0
C1872 C 0.46259 0.49671 0.87025 0.0
C1873 C 0.44322 0.50989 0.87087 0.0
C1874 C 0.43581 0.51824 0.89396 0.0
C1875 C 0.44814 0.51463 0.91572 0.0
H1876 H 0.78712 0.16592 0.09744 0.0
H1877 H 0.8276 0.23169 0.06891 0.0
H1878 H 0.78996 0.18908 0.13807 0.0
H1879 H 0.83162 0.2547 0.10987 0.0
H1880 H 0.79661 0.29813 0.17114 0.0
H1881 H 0.80428 0.27389 0.13307 0.0
H1882 H 0.81077 0.20966 0.17398 0.0
H1883 H 0.80194 0.23337 0.21122 0.0
C1884 C 0.7977 0.18491 0.10021 0.0
C1885 C 0.80701 0.19713 0.08016 0.0
C1886 C 0.79926 0.19833 0.12349 0.0
C1887 C 0.81054 0.22405 0.12713 0.0
C1888 C 0.82215 0.23522 0.10753 0.0
C1889 C 0.82022 0.22194 0.08419 0.0
C1890 C 0.79968 0.27883 0.17177 0.0
C1891 C 0.79811 0.26737 0.19383 0.0
C1892 C 0.80436 0.265 0.15012 0.0
C1893 C 0.80804 0.23968 0.15041 0.0
C1894 C 0.80748 0.22881 0.17288 0.0
C1895 C 0.80237 0.24241 0.19426 0.0
H1896 H 0.08107 0.48771 0.29391 0.0
H1897 H 0.13656 0.55172 0.31838 0.0
H1898 H 0.05906 0.49635 0.3297 0.0
H1899 H 0.11359 0.562 0.35363 0.0
H1900 H 0.07899 0.55451 0.42771 0.0
H1901 H 0.10148 0.55025 0.39123 0.0
H1902 H 0.03531 0.52183 0.34763 0.0
H1903 H 0.01321 0.52412 0.38481 0.0
C1904 C 0.08836 0.50391 0.30696 0.0
C1905 C 0.11044 0.51904 0.30361 0.0
C1906 C 0.07558 0.50914 0.32735 0.0
C1907 C 0.08422 0.53018 0.34454 0.0
C1908 C 0.10645 0.54543 0.34103 0.0
C1909 C 0.11962 0.53967 0.32087 0.0
C1910 C 0.06931 0.54758 0.41021 0.0
C1911 C 0.04447 0.53937 0.40893 0.0
C1912 C 0.08219 0.54527 0.38921 0.0
C1913 C 0.07037 0.53532 0.36637 0.0
C1914 C 0.0452 0.52873 0.36499 0.0
C1915 C 0.03242 0.53029 0.38617 0.0
H1916 H 0.80144 0.85805 0.596 0.0
H1917 H 0.72563 0.85554 0.58495 0.0
H1918 H 0.79527 0.83817 0.63412 0.0
H1919 H 0.71918 0.83535 0.62359 0.0
H1920 H 0.72073 0.76625 0.67286 0.0
H1921 H 0.72268 0.79296 0.63839 0.0
H1922 H 0.78328 0.8437 0.67591 0.0
H1923 H 0.78172 0.8169 0.70967 0.0
C1924 C 0.78345 0.85388 0.60219 0.0
C1925 C 0.76407 0.85871 0.58771 0.0
C1926 C 0.77986 0.84242 0.62408 0.0
C1927 C 0.7567 0.83505 0.63204 0.0
C1928 C 0.73725 0.84063 0.61795 0.0
C1929 C 0.74093 0.85252 0.59604 0.0
C1930 C 0.7343 0.78324 0.67377 0.0
C1931 C 0.75116 0.7893 0.69395 0.0
C1932 C 0.73532 0.79868 0.65412 0.0
C1933 C 0.75327 0.82044 0.65421 0.0
C1934 C 0.76945 0.82692 0.67494 0.0
C1935 C 0.76847 0.81155 0.69442 0.0
H1936 H 0.67658 0.4164 0.51913 0.0
H1937 H 0.73296 0.47973 0.51041 0.0
H1938 H 0.6497 0.44607 0.52982 0.0
H1939 H 0.70589 0.50931 0.52066 0.0
H1940 H 0.6335 0.5397 0.4994 0.0
H1941 H 0.66651 0.51605 0.49689 0.0
H1942 H 0.64631 0.48301 0.56394 0.0
H1943 H 0.61361 0.50703 0.56676 0.0
C1944 C 0.68327 0.43663 0.5197 0.0
C1945 C 0.70682 0.44575 0.51388 0.0
C1946 C 0.66796 0.4536 0.52596 0.0
C1947 C 0.6758 0.47994 0.52609 0.0
C1948 C 0.69945 0.48908 0.52067 0.0
C1949 C 0.7149 0.47215 0.51487 0.0
C1950 C 0.63663 0.52804 0.51402 0.0
C1951 C 0.62105 0.52516 0.53325 0.0
C1952 C 0.65545 0.51449 0.51256 0.0
C1953 C 0.65872 0.49754 0.53009 0.0
C1954 C 0.644 0.49582 0.55011 0.0
C1955 C 0.62546 0.50972 0.55181 0.0
H1956 H 0.20755 0.10416 0.50529 0.0
H1957 H 0.17592 0.14859 0.45513 0.0
H1958 H 0.16894 0.07568 0.50604 0.0
H1959 H 0.13755 0.11972 0.45547 0.0
H1960 H 0.08369 0.04264 0.44121 0.0
H1961 H 0.12261 0.07042 0.44138 0.0
H1962 H 0.12508 0.0817 0.52077 0.0
H1963 H 0.08557 0.05441 0.52055 0.0
C1964 C 0.19245 0.1077 0.49422 0.0
C1965 C 0.19485 0.12862 0.48007 0.0
C1966 C 0.17033 0.09151 0.49483 0.0
C1967 C 0.15028 0.09554 0.48086 0.0
C1968 C 0.15275 0.11614 0.46637 0.0
C1969 C 0.17471 0.13267 0.4662 0.0
C1970 C 0.09255 0.05095 0.45874 0.0
C1971 C 0.08163 0.04622 0.48091 0.0
C1972 C 0.11478 0.06693 0.4588 0.0
C1973 C 0.12686 0.07819 0.48107 0.0
C1974 C 0.1162 0.07311 0.50334 0.0
C1975 C 0.09364 0.0575 0.50324 0.0
H1976 H 0.21594 0.97687 0.79252 0.0
H1977 H 0.15299 0.92956 0.75613 0.0
H1978 H 0.23748 0.94152 0.78807 0.0
H1979 H 0.17481 0.89476 0.74948 0.0
H1980 H 0.20916 0.82746 0.75995 0.0
H1981 H 0.18903 0.8634 0.7655 0.0
H1982 H 0.25716 0.91442 0.76693 0.0
H1983 H 0.27737 0.8777 0.76358 0.0
C1984 C 0.20685 0.95895 0.78309 0.0
C1985 C 0.18271 0.95596 0.7748 0.0
C1986 C 0.21929 0.93856 0.78034 0.0
C1987 C 0.20814 0.91469 0.76856 0.0
C1988 C 0.18411 0.91224 0.75945 0.0
C1989 C 0.17151 0.93238 0.76295 0.0
C1990 C 0.21985 0.8464 0.76149 0.0
C1991 C 0.24485 0.84973 0.76113 0.0
C1992 C 0.20822 0.86725 0.76441 0.0
C1993 C 0.22111 0.89237 0.76622 0.0
C1994 C 0.24633 0.89563 0.76593 0.0
C1995 C 0.25806 0.87456 0.76382 0.0
H1996 H 0.31743 0.95505 0.98092 0.0
H1997 H 0.34992 0.89047 0.95782 0.0
H1998 H 0.35586 0.98306 0.98005 0.0
H1999 H 0.38848 0.91857 0.95742 0.0
H2000 H 0.45412 0.97833 0.9492 0.0
H2001 H 0.41338 0.95472 0.93947 0.0
H2002 H 0.39132 0.98745 0.00802 0.0
H2003 H 0.43148 0.01105 0.01751 0.0
C2004 C 0.3327 0.94682 0.97542 0.0
C2005 C 0.33068 0.92043 0.9699 0.0
C2006 C 0.35472 0.9629 0.97494 0.0
C2007 C 0.37522 0.95296 0.96899 0.0
C2008 C 0.37295 0.9268 0.96194 0.0
C2009 C 0.35088 0.91068 0.96236 0.0
C2010 C 0.44041 0.98077 0.96192 0.0
C2011 C 0.44601 0.99637 0.98419 0.0
C2012 C 0.41718 0.96717 0.95643 0.0
C2013 C 0.39918 0.96925 0.97299 0.0
C2014 C 0.40467 0.98569 0.99471 0.0
C2015 C 0.42779 0.99905 1.00026 0.0
H2016 H 0.89171 0.62848 0.76141 0.0
H2017 H 0.83606 0.56298 0.765 0.0
H2018 H 0.86127 0.65309 0.74936 0.0
H2019 H 0.80605 0.58758 0.75345 0.0
H2020 H 0.76595 0.65659 0.77457 0.0
H2021 H 0.79392 0.6272 0.77854 0.0
H2022 H 0.82724 0.6518 0.71305 0.0
H2023 H 0.79885 0.68076 0.70868 0.0
C2024 C 0.87311 0.6193 0.75939 0.0
C2025 C 0.86629 0.59389 0.76429 0.0
C2026 C 0.85576 0.63329 0.7524 0.0
C2027 C 0.83139 0.62213 0.75059 0.0
C2028 C 0.8247 0.59659 0.75484 0.0
C2029 C 0.84196 0.58256 0.76143 0.0
C2030 C 0.77874 0.65508 0.7606 0.0
C2031 C 0.78016 0.67071 0.74124 0.0
C2032 C 0.79479 0.63841 0.76293 0.0
C2033 C 0.8128 0.63752 0.74621 0.0
C2034 C 0.81358 0.65234 0.72623 0.0
C2035 C 0.79718 0.66862 0.72359 0.0
H2036 H 0.80616 0.58155 0.99466 0.0
H2037 H 0.8544 0.65333 0.01044 0.0
H2038 H 0.83965 0.559 0.99903 0.0
H2039 H 0.8879 0.63062 0.01534 0.0
H2040 H 0.93502 0.57677 0.04844 0.0
H2041 H 0.90131 0.59926 0.04482 0.0
H2042 H 0.87785 0.55532 0.97534 0.0
H2043 H 0.91194 0.53321 0.9787 0.0
C2044 C 0.82388 0.59254 0.99929 0.0
C2045 C 0.82756 0.61929 0.00225 0.0
C2046 C 0.84309 0.57958 0.00163 0.0
C2047 C 0.86645 0.59299 0.00749 0.0
C2048 C 0.8701 0.61973 0.01094 0.0
C2049 C 0.85092 0.63274 0.00809 0.0
C2050 C 0.92259 0.5718 0.03246 0.0
C2051 C 0.92606 0.5531 0.01392 0.0
C2052 C 0.90338 0.58482 0.03031 0.0
C2053 C 0.8869 0.5791 0.0098 0.0
C2054 C 0.89014 0.56006 0.99145 0.0
C2055 C 0.90965 0.5474 0.99336 0.0
H2056 H 0.14326 0.11711 0.80313 0.0
H2057 H 0.2022 0.07614 0.80224 0.0
H2058 H 0.171 0.15661 0.79967 0.0
H2059 H 0.22989 0.11575 0.79875 0.0
H2060 H 0.27485 0.19658 0.81274 0.0
H2061 H 0.24712 0.15832 0.82107 0.0
H2062 H 0.19596 0.17401 0.76644 0.0
H2063 H 0.22373 0.21196 0.75796 0.0
C2064 C 0.16214 0.11651 0.80253 0.0
C2065 C 0.17041 0.09329 0.80288 0.0
C2066 C 0.17803 0.13918 0.80035 0.0
C2067 C 0.20265 0.13933 0.79874 0.0
C2068 C 0.21106 0.11634 0.8001 0.0
C2069 C 0.19514 0.09359 0.80202 0.0
C2070 C 0.25764 0.19187 0.80261 0.0
C2071 C 0.25144 0.20733 0.78477 0.0
C2072 C 0.24179 0.16992 0.80731 0.0
C2073 C 0.21928 0.16312 0.79448 0.0
C2074 C 0.213 0.17886 0.7769 0.0
C2075 C 0.22895 0.20059 0.77199 0.0
H2076 H 0.35303 0.98792 0.30491 0.0
H2077 H 0.40819 0.94393 0.31854 0.0
H2078 H 0.32271 0.94991 0.3044 0.0
H2079 H 0.37754 0.90564 0.31784 0.0
H2080 H 0.31366 0.84338 0.32798 0.0
H2081 H 0.34122 0.88377 0.338 0.0
H2082 H 0.31346 0.91248 0.27334 0.0
H2083 H 0.28599 0.87237 0.26339 0.0
C2084 C 0.35872 0.97018 0.30805 0.0
C2085 C 0.38313 0.9689 0.31134 0.0
C2086 C 0.34129 0.9484 0.30773 0.0
C2087 C 0.34777 0.92478 0.31073 0.0
C2088 C 0.37202 0.92365 0.31557 0.0
C2089 C 0.38957 0.94555 0.31588 0.0
C2090 C 0.3131 0.85853 0.31622 0.0
C2091 C 0.29768 0.85471 0.29486 0.0
C2092 C 0.32903 0.88153 0.32185 0.0
C2093 C 0.32955 0.90121 0.30642 0.0
C2094 C 0.31333 0.89776 0.28573 0.0
C2095 C 0.29764 0.87473 0.27996 0.0
H2096 H 0.51952 0.37484 0.64121 0.0
H2097 H 0.55268 0.33712 0.58247 0.0
H2098 H 0.51552 0.40911 0.61537 0.0
H2099 H 0.54875 0.37133 0.55676 0.0
H2100 H 0.56067 0.453 0.53116 0.0
H2101 H 0.56468 0.41781 0.5555 0.0
H2102 H 0.49186 0.41392 0.57617 0.0
H2103 H 0.48775 0.44916 0.55178 0.0
C2104 C 0.52619 0.37401 0.62291 0.0
C2105 C 0.53643 0.3533 0.61389 0.0
C2106 C 0.52368 0.39348 0.60803 0.0
C2107 C 0.53165 0.3928 0.58395 0.0
C2108 C 0.54251 0.37244 0.57523 0.0
C2109 C 0.54474 0.35285 0.58998 0.0
C2110 C 0.54537 0.44442 0.54058 0.0
C2111 C 0.52385 0.4539 0.53946 0.0
C2112 C 0.54769 0.42424 0.55454 0.0
C2113 C 0.52867 0.41326 0.56797 0.0
C2114 C 0.50694 0.42223 0.5663 0.0
C2115 C 0.5045 0.44222 0.55207 0.0
H2116 H 0.43993 0.73685 0.32974 0.0
H2117 H 0.41955 0.79664 0.37784 0.0
H2118 H 0.40363 0.73488 0.30337 0.0
H2119 H 0.38433 0.79584 0.35113 0.0
H2120 H 0.31157 0.77533 0.31573 0.0
H2121 H 0.34696 0.77234 0.34064 0.0
H2122 H 0.38265 0.75452 0.27462 0.0
H2123 H 0.34609 0.7556 0.24974 0.0
C2124 C 0.42783 0.74975 0.33451 0.0
C2125 C 0.43242 0.76665 0.35604 0.0
C2126 C 0.40705 0.74873 0.31935 0.0
C2127 C 0.39065 0.7649 0.32522 0.0
C2128 C 0.39591 0.78241 0.34634 0.0
C2129 C 0.4163 0.78305 0.36164 0.0
C2130 C 0.32675 0.77017 0.30654 0.0
C2131 C 0.32596 0.76552 0.28079 0.0
C2132 C 0.34732 0.7689 0.32083 0.0
C2133 C 0.36806 0.76372 0.30975 0.0
C2134 C 0.36707 0.7584 0.28391 0.0
C2135 C 0.34615 0.75912 0.26959 0.0
H2136 H 0.0128 0.71023 0.12411 0.0
H2137 H 0.08183 0.72867 0.09368 0.0
H2138 H 0.00968 0.66589 0.10689 0.0
H2139 H 0.07869 0.68478 0.07652 0.0
H2140 H 0.0717 0.59854 0.06147 0.0
H2141 H 0.07663 0.63997 0.08564 0.0
H2142 H 1.00429 0.646 0.06349 0.0
H2143 H 0.99926 0.60495 0.03958 0.0
C2144 C 0.02747 0.70472 0.11421 0.0
C2145 C 0.04742 0.72295 0.11003 0.0
C2146 C 0.02563 0.67943 0.10419 0.0
C2147 C 0.04387 0.67191 0.09015 0.0
C2148 C 0.06441 0.68988 0.08733 0.0
C2149 C 0.06611 0.71509 0.09704 0.0
C2150 C 0.05689 0.60875 0.06171 0.0
C2151 C 0.03517 0.59842 0.04843 0.0
C2152 C 0.05969 0.63244 0.0756 0.0
C2153 C 0.04074 0.64613 0.07668 0.0
C2154 C 0.01906 0.63574 0.06345 0.0
C2155 C 0.01633 0.61227 0.04946 0.0
H2156 H 0.04863 0.25535 0.80831 0.0
H2157 H 0.09038 0.27227 0.8776 0.0
H2158 H 0.08526 0.25434 0.78654 0.0
H2159 H 0.12685 0.27122 0.8559 0.0
H2160 H 0.18379 0.24025 0.81279 0.0
H2161 H 0.14581 0.23905 0.83204 0.0
H2162 H 0.12277 0.28467 0.77751 0.0
H2163 H 0.16109 0.2859 0.75814 0.0
C2164 C 0.0656 0.25877 0.8189 0.0
C2165 C 0.06659 0.26383 0.8447 0.0
C2166 C 0.08658 0.25835 0.80641 0.0
C2167 C 0.10895 0.26263 0.81949 0.0
C2168 C 0.10988 0.26755 0.8453 0.0
C2169 C 0.08898 0.26827 0.85774 0.0
C2170 C 0.17057 0.24987 0.80476 0.0
C2171 C 0.17545 0.26328 0.78402 0.0
C2172 C 0.14885 0.2493 0.81589 0.0
C2173 C 0.13136 0.26198 0.80647 0.0
C2174 C 0.13587 0.27464 0.78515 0.0
C2175 C 0.15778 0.27539 0.77408 0.0
H2176 H 0.51175 0.72817 0.97045 0.0
H2177 H 0.54231 0.70363 0.90319 0.0
H2178 H 0.51135 0.6871 0.98511 0.0
H2179 H 0.54185 0.66169 0.91836 0.0
H2180 H 0.50935 0.58302 0.9459 0.0
H2181 H 0.51224 0.62386 0.92904 0.0
H2182 H 0.54044 0.66211 0.99981 0.0
H2183 H 0.53745 0.62121 0.01691 0.0
C2184 C 0.51854 0.71406 0.95869 0.0
C2185 C 0.5273 0.71949 0.93558 0.0
C2186 C 0.5184 0.69042 0.96731 0.0
C2187 C 0.52691 0.67124 0.95315 0.0
C2188 C 0.53518 0.67618 0.92973 0.0
C2189 C 0.53545 0.70016 0.92103 0.0
C2190 C 0.51612 0.6001 0.958 0.0
C2191 C 0.52294 0.59876 0.98295 0.0
C2192 C 0.51801 0.62351 0.94816 0.0
C2193 C 0.52658 0.64621 0.96303 0.0
C2194 C 0.53355 0.64493 0.98791 0.0
C2195 C 0.53181 0.62148 0.99774 0.0
H2196 H 0.09807 0.80388 0.62202 0.0
H2197 H 0.0557 0.75236 0.66619 0.0
H2198 H 0.13446 0.79498 0.64162 0.0
H2199 H 0.09196 0.74192 0.68471 0.0
H2200 H 0.16215 0.7439 0.72931 0.0
H2201 H 0.12504 0.7524 0.71103 0.0
H2202 H 0.15965 0.76643 0.64319 0.0
H2203 H 0.19717 0.75968 0.66241 0.0
C2204 C 0.09657 0.79063 0.636 0.0
C2205 C 0.07398 0.77898 0.64265 0.0
C2206 C 0.1175 0.78516 0.64704 0.0
C2207 C 0.11652 0.76728 0.66463 0.0
C2208 C 0.09377 0.75602 0.67158 0.0
C2209 C 0.07284 0.762 0.66094 0.0
C2210 C 0.16168 0.74839 0.71034 0.0
C2211 C 0.18257 0.75106 0.69727 0.0
C2212 C 0.14029 0.7533 0.69974 0.0
C2213 C 0.13905 0.76052 0.67554 0.0
C2214 C 0.15981 0.76176 0.66208 0.0
C2215 C 0.18133 0.75743 0.67291 0.0
H2216 H 0.03197 0.32844 0.45481 0.0
H2217 H 0.05447 0.36792 0.39179 0.0
H2218 H 0.02557 0.36766 0.47628 0.0
H2219 H 0.04925 0.40815 0.41411 0.0
H2220 H 0.01218 0.47003 0.45498 0.0
H2221 H 0.02044 0.4324 0.43026 0.0
H2222 H 0.04702 0.40517 0.49645 0.0
H2223 H 0.03752 0.44168 0.52085 0.0
C2224 C 0.03582 0.34561 0.44557 0.0
C2225 C 0.04379 0.34501 0.42157 0.0
C2226 C 0.03236 0.3683 0.45806 0.0
C2227 C 0.03726 0.39131 0.44718 0.0
C2228 C 0.04518 0.3908 0.42304 0.0
C2229 C 0.04834 0.36781 0.41031 0.0
C2230 C 0.01983 0.45591 0.46406 0.0
C2231 C 0.02388 0.45845 0.4898 0.0
C2232 C 0.02471 0.43446 0.44994 0.0
C2233 C 0.03401 0.41541 0.46137 0.0
C2234 C 0.03915 0.41891 0.48703 0.0
C2235 C 0.03387 0.43996 0.50106 0.0
H2236 H 0.42042 0.26615 0.13989 0.0
H2237 H 0.46716 0.28819 0.20548 0.0
H2238 H 0.38564 0.26564 0.16477 0.0
H2239 H 0.43209 0.2884 0.23036 0.0
H2240 H 0.35529 0.3151 0.24962 0.0
H2241 H 0.39308 0.31582 0.22911 0.0
H2242 H 0.37087 0.23679 0.20259 0.0
H2243 H 0.3338 0.23564 0.22329 0.0
C2244 C 0.42327 0.27089 0.15963 0.0
C2245 C 0.44654 0.27704 0.17074 0.0
C2246 C 0.40336 0.27062 0.17385 0.0
C2247 C 0.40621 0.27708 0.19944 0.0
C2248 C 0.42944 0.28348 0.21063 0.0
C2249 C 0.44945 0.28316 0.19644 0.0
C2250 C 0.35866 0.29779 0.23977 0.0
C2251 C 0.34138 0.27536 0.23815 0.0
C2252 C 0.38028 0.29821 0.22808 0.0
C2253 C 0.38476 0.27637 0.21418 0.0
C2254 C 0.36781 0.2539 0.21309 0.0
C2255 C 0.34656 0.25331 0.22509 0.0
H2256 H 0.58261 0.49895 0.32746 0.0
H2257 H 0.64766 0.51022 0.37383 0.0
H2258 H 0.55914 0.49729 0.36377 0.0
H2259 H 0.62395 0.50883 0.41049 0.0
H2260 H 0.57095 0.53817 0.4662 0.0
H2261 H 0.59688 0.53596 0.43188 0.0
H2262 H 0.54868 0.46957 0.39807 0.0
H2263 H 0.52296 0.47143 0.43288 0.0
C2264 C 0.59195 0.50107 0.34545 0.0
C2265 C 0.61707 0.50477 0.3477 0.0
C2266 C 0.57842 0.49991 0.36629 0.0
C2267 C 0.5896 0.50278 0.39007 0.0
C2268 C 0.61477 0.50661 0.39243 0.0
C2269 C 0.62836 0.50736 0.37145 0.0
C2270 C 0.56615 0.52272 0.45178 0.0
C2271 C 0.54497 0.50482 0.45245 0.0
C2272 C 0.58103 0.5215 0.43204 0.0
C2273 C 0.5749 0.50261 0.41218 0.0
C2274 C 0.55386 0.48447 0.413 0.0
C2275 C 0.53915 0.48547 0.43297 0.0
H2276 H 0.30742 0.85467 0.0553 0.0
H2277 H 0.24163 0.88229 0.06708 0.0
H2278 H 0.3078 0.84141 0.09675 0.0
H2279 H 0.24128 0.86789 0.10847 0.0
H2280 H 0.25681 0.85142 0.18834 0.0
H2281 H 0.25916 0.87155 0.14977 0.0
H2282 H 0.28544 0.80714 0.11494 0.0
H2283 H 0.28395 0.78773 0.15359 0.0
C2284 C 0.29312 0.85807 0.06694 0.0
C2285 C 0.27438 0.86924 0.05803 0.0
C2286 C 0.2932 0.85027 0.09059 0.0
C2287 C 0.27424 0.85296 0.10571 0.0
C2288 C 0.25617 0.86556 0.09731 0.0
C2289 C 0.25633 0.87381 0.07366 0.0
C2290 C 0.26314 0.8417 0.17237 0.0
C2291 C 0.27036 0.81815 0.17386 0.0
C2292 C 0.26439 0.85315 0.15029 0.0
C2293 C 0.27275 0.84113 0.12932 0.0
C2294 C 0.27952 0.81729 0.13088 0.0
C2295 C 0.27848 0.80601 0.15295 0.0
H2296 H 0.90888 0.56495 0.87368 0.0
H2297 H 0.97471 0.58052 0.83667 0.0
H2298 H 0.9319 0.56341 0.91235 0.0
H2299 H 0.99748 0.57834 0.87467 0.0
H2300 H 0.03552 0.58097 0.9485 0.0
H2301 H 0.01084 0.59486 0.91623 0.0
H2302 H 0.95414 0.53185 0.92524 0.0
H2303 H 0.97858 0.51834 0.95723 0.0
C2304 C 0.92821 0.56853 0.87393 0.0
C2305 C 0.94 0.57248 0.85216 0.0
C2306 C 0.94141 0.56748 0.89597 0.0
C2307 C 0.96654 0.57046 0.89652 0.0
C2308 C 0.97822 0.57618 0.87504 0.0
C2309 C 0.96511 0.57718 0.85315 0.0
C2310 C 0.0177 0.57032 0.9436 0.0
C2311 C 0.00887 0.5487 0.95536 0.0
C2312 C 1.00355 0.57825 0.92523 0.0
C2313 C 0.98042 0.56455 0.91826 0.0
C2314 C 0.97157 0.54323 0.93051 0.0
C2315 C 0.98566 0.53539 0.94878 0.0
H2316 H 0.25771 0.15798 0.57267 0.0
H2317 H 0.2844 0.23458 0.55601 0.0
H2318 H 0.25799 0.17329 0.6166 0.0
H2319 H 0.28493 0.2497 0.59945 0.0
H2320 H 0.30472 0.26379 0.68175 0.0
H2321 H 0.3062 0.24545 0.6396 0.0
H2322 H 0.23477 0.20296 0.64247 0.0
H2323 H 0.23318 0.2214 0.68502 0.0
C2324 C 0.26409 0.17793 0.57846 0.0
C2325 C 0.27111 0.19508 0.56096 0.0
C2326 C 0.26399 0.18674 0.60349 0.0
C2327 C 0.27139 0.21273 0.61145 0.0
C2328 C 0.27926 0.22957 0.59398 0.0
C2329 C 0.27894 0.2209 0.56908 0.0
C2330 C 0.28923 0.2506 0.67348 0.0
C2331 C 0.26873 0.24425 0.68679 0.0
C2332 C 0.29012 0.24008 0.64927 0.0
C2333 C 0.27064 0.22271 0.63771 0.0
C2334 C 0.25017 0.2161 0.65099 0.0
C2335 C 0.24916 0.22688 0.67525 0.0
H2336 H 0.57598 0.51166 0.22222 0.0
H2337 H 0.65103 0.52861 0.20863 0.0
H2338 H 0.56565 0.52043 0.18069 0.0
H2339 H 0.64047 0.5374 0.16636 0.0
H2340 H 0.60201 0.52474 0.08465 0.0
H2341 H 0.61825 0.51709 0.12509 0.0
H2342 H 0.57009 0.5608 0.16034 0.0
H2343 H 0.55386 0.56833 0.12006 0.0
C2344 C 0.59034 0.51699 0.21023 0.0
C2345 C 0.61438 0.51971 0.21891 0.0
C2346 C 0.58438 0.52224 0.18643 0.0
C2347 C 0.60223 0.53032 0.17043 0.0
C2348 C 0.62631 0.53142 0.17837 0.0
C2349 C 0.63236 0.52621 0.20248 0.0
C2350 C 0.59529 0.53318 0.10108 0.0
C2351 C 0.57655 0.54702 0.0992 0.0
C2352 C 0.60461 0.52878 0.12422 0.0
C2353 C 0.59519 0.53795 0.14591 0.0
C2354 C 0.57744 0.55307 0.14395 0.0
C2355 C 0.56826 0.55758 0.12088 0.0
H2356 H 0.25439 0.8319 0.94423 0.0
H2357 H 0.24474 0.89814 0.908 0.0
H2358 H 0.25499 0.80794 0.90448 0.0
H2359 H 0.24557 0.87401 0.8679 0.0
H2360 H 0.21635 0.81158 0.80472 0.0
H2361 H 0.21929 0.83799 0.84366 0.0
H2362 H 0.27929 0.80535 0.86836 0.0
H2363 H 0.27584 0.77827 0.82931 0.0
C2364 C 0.25253 0.84141 0.92775 0.0
C2365 C 0.24943 0.8669 0.92921 0.0
C2366 C 0.25308 0.8277 0.90496 0.0
C2367 C 0.25044 0.83911 0.8831 0.0
C2368 C 0.24748 0.86468 0.8845 0.0
C2369 C 0.24702 0.87849 0.90739 0.0
C2370 C 0.23019 0.81004 0.81846 0.0
C2371 C 0.24605 0.79307 0.81403 0.0
C2372 C 0.23202 0.82538 0.84065 0.0
C2373 C 0.24961 0.82389 0.85899 0.0
C2374 C 0.26551 0.80686 0.85455 0.0
C2375 C 0.26372 0.79155 0.83221 0.0
H2376 H 0.98658 0.55077 0.73713 0.0
H2377 H 0.91249 0.53428 0.71 0.0
H2378 H 0.99908 0.54849 0.69528 0.0
H2379 H 0.92518 0.53128 0.66767 0.0
H2380 H 0.95881 0.55123 0.59476 0.0
H2381 H 0.94509 0.55599 0.63648 0.0
H2382 H 0.99948 0.51596 0.66238 0.0
H2383 H 0.01351 0.5119 0.62089 0.0
C2384 C 0.9729 0.54648 0.7222 0.0
C2385 C 0.9485 0.54238 0.72692 0.0
C2386 C 0.98012 0.54507 0.69817 0.0
C2387 C 0.96316 0.53931 0.67816 0.0
C2388 C 0.93869 0.53587 0.68274 0.0
C2389 C 0.93142 0.53749 0.70694 0.0
C2390 C 0.96782 0.54354 0.60946 0.0
C2391 C 0.98724 0.53127 0.60475 0.0
C2392 C 0.95988 0.54611 0.63327 0.0
C2393 C 0.97121 0.5364 0.65274 0.0
C2394 C 0.99061 0.52404 0.64787 0.0
C2395 C 0.99861 0.5216 0.62412 0.0
H2396 H 0.27797 0.22027 0.44961 0.0
H2397 H 0.2714 0.14874 0.40475 0.0
H2398 H 0.28076 0.24285 0.41275 0.0
H2399 H 0.27404 0.17156 0.36755 0.0
H2400 H 0.25093 0.22345 0.3087 0.0
H2401 H 0.24992 0.19845 0.34408 0.0
H2402 H 0.30954 0.25212 0.37972 0.0
H2403 H 0.31087 0.2769 0.34402 0.0
C2404 C 0.27703 0.2093 0.43184 0.0
C2405 C 0.27445 0.18264 0.43017 0.0
C2406 C 0.27883 0.22232 0.41069 0.0
C2407 C 0.27783 0.20907 0.38719 0.0
C2408 C 0.27482 0.18233 0.38539 0.0
C2409 C 0.27334 0.16926 0.40668 0.0
C2410 C 0.26414 0.22967 0.32386 0.0
C2411 C 0.28115 0.25208 0.32342 0.0
C2412 C 0.26352 0.21533 0.34417 0.0
C2413 C 0.2796 0.22328 0.36477 0.0
C2414 C 0.29676 0.24557 0.36423 0.0
C2415 C 0.29759 0.25972 0.34375 0.0
H2416 H 0.3581 0.62976 0.50879 0.0
H2417 H 0.31217 0.56645 0.53591 0.0
H2418 H 0.38882 0.60379 0.50253 0.0
H2419 H 0.34315 0.54044 0.52972 0.0
H2420 H 0.4196 0.51757 0.54066 0.0
H2421 H 0.38546 0.53912 0.54628 0.0
H2422 H 0.39319 0.56533 0.47396 0.0
H2423 H 0.42725 0.54371 0.46831 0.0
C2424 C 0.35464 0.61037 0.51366 0.0
C2425 C 0.33268 0.60017 0.52285 0.0
C2426 C 0.37215 0.59542 0.50982 0.0
C2427 C 0.36824 0.56998 0.5153 0.0
C2428 C 0.34662 0.55998 0.52529 0.0
C2429 C 0.32893 0.57488 0.52887 0.0
C2430 C 0.4136 0.5274 0.52572 0.0
C2431 C 0.42605 0.52899 0.50404 0.0
C2432 C 0.3941 0.53977 0.52897 0.0
C2433 C 0.38689 0.5542 0.5107 0.0
C2434 C 0.3986 0.55466 0.4885 0.0
C2435 C 0.41792 0.54207 0.48516 0.0
H2436 H 0.86389 0.89381 0.51569 0.0
H2437 H 0.82715 0.95741 0.52729 0.0
H2438 H 0.90172 0.92272 0.51685 0.0
H2439 H 0.86551 0.98674 0.52789 0.0
H2440 H 0.94454 0.02813 0.55185 0.0
H2441 H 0.90429 1.0023 0.55083 0.0
H2442 H 0.92304 0.95174 0.49176 0.0
H2443 H 0.96305 0.97674 0.49352 0.0
C2444 C 0.86379 0.91402 0.51837 0.0
C2445 C 0.84225 0.92315 0.52121 0.0
C2446 C 0.88563 0.93071 0.51887 0.0
C2447 C 0.8868 0.9572 0.52203 0.0
C2448 C 0.86536 0.96647 0.52545 0.0
C2449 C 0.84333 0.94964 0.52503 0.0
C2450 C 0.93988 0.01163 0.53852 0.0
C2451 C 0.95703 0.00448 0.52281 0.0
C2452 C 0.91679 0.99685 0.53786 0.0
C2453 C 0.91041 0.97462 0.52147 0.0
C2454 C 0.92736 0.9683 0.50507 0.0
C2455 C 0.95032 0.98287 0.50585 0.0
H2456 H 0.88114 0.12051 0.27207 0.0
H2457 H 0.82834 0.08367 0.21532 0.0
H2458 H 0.85997 0.15581 0.27774 0.0
H2459 H 0.8077 0.11996 0.2197 0.0
H2460 H 0.76409 0.18031 0.24592 0.0
H2461 H 0.78354 0.14307 0.24189 0.0
H2462 H 0.85175 0.19148 0.26289 0.0
H2463 H 0.83223 0.22781 0.26835 0.0
C2464 C 0.8652 0.12019 0.2604 0.0
C2465 C 0.8566 0.09927 0.2431 0.0
C2466 C 0.85299 0.14066 0.26354 0.0
C2467 C 0.83199 0.14128 0.24906 0.0
C2468 C 0.8235 0.1203 0.23156 0.0
C2469 C 0.83551 0.09951 0.22879 0.0
C2470 C 0.78319 0.18284 0.25003 0.0
C2471 C 0.79643 0.20713 0.25781 0.0
C2472 C 0.79449 0.16146 0.24744 0.0
C2473 C 0.81944 0.16385 0.25212 0.0
C2474 C 0.83252 0.18831 0.25975 0.0
C2475 C 0.82122 0.20942 0.26279 0.0
H2476 H 0.72046 0.09794 0.03133 0.0
H2477 H 0.68878 0.16535 0.02921 0.0
H2478 H 0.68136 0.07301 0.03721 0.0
H2479 H 0.64972 0.14028 0.03477 0.0
H2480 H 0.58296 0.09096 0.05733 0.0
H2481 H 0.62433 0.11414 0.06288 0.0
H2482 H 0.64575 0.05998 0.00885 0.0
H2483 H 0.60488 0.03701 0.00353 0.0
C2484 C 0.70525 0.10752 0.03231 0.0
C2485 C 0.70777 0.13362 0.02948 0.0
C2486 C 0.68284 0.0932 0.03569 0.0
C2487 C 0.66246 0.10467 0.03639 0.0
C2488 C 0.66512 0.13095 0.03461 0.0
C2489 C 0.68751 0.14527 0.03116 0.0
C2490 C 0.5967 0.08375 0.04718 0.0
C2491 C 0.59076 0.06235 0.0299 0.0
C2492 C 0.62028 0.09709 0.05017 0.0
C2493 C 0.63825 0.08894 0.0362 0.0
C2494 C 0.63242 0.06663 0.02007 0.0
C2495 C 0.60895 0.05356 0.01689 0.0
H2496 H 0.20864 0.47992 0.22912 0.0
H2497 H 0.15713 0.43198 0.26846 0.0
H2498 H 0.23794 0.45276 0.23658 0.0
H2499 H 0.18641 0.40489 0.27587 0.0
H2500 H 0.24985 0.37461 0.30475 0.0
H2501 H 0.22608 0.4079 0.29993 0.0
H2502 H 0.24197 0.40767 0.2232 0.0
H2503 H 0.26563 0.37449 0.22802 0.0
C2504 C 0.20354 0.46351 0.23923 0.0
C2505 C 0.18058 0.45799 0.24813 0.0
C2506 C 0.22032 0.44805 0.24354 0.0
C2507 C 0.21452 0.42695 0.25706 0.0
C2508 C 0.1915 0.42133 0.26579 0.0
C2509 C 0.17465 0.43664 0.26128 0.0
C2510 C 0.24882 0.38225 0.28709 0.0
C2511 C 0.25942 0.37199 0.26673 0.0
C2512 C 0.23503 0.40105 0.28425 0.0
C2513 C 0.23193 0.41003 0.2611 0.0
C2514 C 0.2441 0.40113 0.24125 0.0
C2515 C 0.25765 0.38217 0.24402 0.0
H2516 H 0.23211 0.46725 0.04222 0.0
H2517 H 0.18652 0.39624 0.01553 0.0
H2518 H 0.1977 0.48887 0.04043 0.0
H2519 H 0.15237 0.41777 0.01327 0.0
H2520 H 0.09091 0.4574 0.03284 0.0
H2521 H 0.12585 0.43749 0.0376 0.0
H2522 H 0.16994 0.50285 0.01182 0.0
H2523 H 0.13468 0.5231 0.00759 0.0
C2524 C 0.21473 0.45619 0.03613 0.0
C2525 C 0.21214 0.42992 0.02916 0.0
C2526 C 0.19499 0.46866 0.03486 0.0
C2527 C 0.17208 0.45519 0.02667 0.0
C2528 C 0.16954 0.42884 0.02002 0.0
C2529 C 0.18923 0.41643 0.02125 0.0
C2530 C 0.10806 0.4676 0.0282 0.0
C2531 C 0.10995 0.4918 0.01966 0.0
C2532 C 0.12816 0.45607 0.03081 0.0
C2533 C 0.15087 0.46833 0.02489 0.0
C2534 C 0.15285 0.49283 0.01676 0.0
C2535 C 0.13262 0.50443 0.01418 0.0
H2536 H 0.83288 0.97356 0.2341 0.0
H2537 H 0.89356 0.93518 0.23402 0.0
H2538 H 0.80609 0.93254 0.23449 0.0
H2539 H 0.86698 0.89459 0.23405 0.0
H2540 H 0.81718 0.83314 0.26895 0.0
H2541 H 0.84266 0.87359 0.26405 0.0
H2542 H 0.7901 0.89057 0.21161 0.0
H2543 H 0.7644 0.84983 0.21673 0.0
C2544 C 0.8405 0.95642 0.23376 0.0
C2545 C 0.86545 0.95783 0.2343 0.0
C2546 C 0.82513 0.93288 0.23395 0.0
C2547 C 0.83438 0.91024 0.23468 0.0
C2548 C 0.85923 0.91163 0.23408 0.0
C2549 C 0.8745 0.93502 0.23392 0.0
C2550 C 0.81115 0.84534 0.25616 0.0
C2551 C 0.78885 0.83818 0.24309 0.0
C2552 C 0.82579 0.86857 0.25329 0.0
C2553 C 0.81855 0.88537 0.2373 0.0
C2554 C 0.79618 0.87821 0.2242 0.0
C2555 C 0.78153 0.85481 0.22701 0.0
H2556 H 0.63161 0.1184 0.75343 0.0
H2557 H 0.68142 0.07768 0.71672 0.0
H2558 H 0.66007 0.15824 0.75278 0.0
H2559 H 0.70957 0.11766 0.71604 0.0
H2560 H 0.72575 0.21644 0.7083 0.0
H2561 H 0.69803 0.17554 0.70096 0.0
H2562 H 0.71606 0.15784 0.77416 0.0
H2563 H 0.74381 0.1981 0.78163 0.0
C2564 C 0.64834 0.11799 0.74479 0.0
C2565 C 0.65433 0.09487 0.7353 0.0
C2566 C 0.66453 0.14074 0.7444 0.0
C2567 C 0.68673 0.14075 0.73419 0.0
C2568 C 0.69239 0.11794 0.72378 0.0
C2569 C 0.67634 0.09515 0.72436 0.0
C2570 C 0.72417 0.2036 0.72263 0.0
C2571 C 0.73685 0.21063 0.74561 0.0
C2572 C 0.70828 0.18036 0.71844 0.0
C2573 C 0.70495 0.164 0.73716 0.0
C2574 C 0.71837 0.1704 0.7596 0.0
C2575 C 0.73424 0.19343 0.76377 0.0
loop_
_geom_bond_atom_site_label_1
_geom_bond_atom_site_label_2
_geom_bond_distance
_geom_bond_site_symmetry_2
_ccdc_geom_bond_type
Co0 O1 2.216 . S
Co0 O2 2.091 . S
Co0 O4 2.004 1_455 S
Co0 O10 2.021 . S
Co0 O12 2.137 . S
Co0 O13 2.244 . S
O1 Co0 2.216 . S
O1 C8 1.247 . S
O2 Co0 2.091 . S
O2 C8 1.261 . S
C3 O12 1.247 . S
C3 O13 1.272 . S
O4 Co0 2.004 1_655 S
O4 C9 1.259 . S
Co5 O6 2.061 . S
Co5 O11 2.052 1_655 S
Co5 O13 2.135 1_655 S
O6 Co5 2.061 . S
O6 C9 1.235 . S
C7 O10 1.238 . S
C7 O11 1.241 . S
C8 O1 1.247 . S
C8 O2 1.261 . S
C9 O4 1.259 . S
C9 O6 1.235 . S
O10 Co0 2.021 . S
O10 C7 1.238 . S
O11 Co5 2.052 1_455 S
O11 C7 1.241 . S
O12 Co0 2.137 . S
O12 C3 1.247 . S
O13 Co0 2.244 . S
O13 C3 1.272 . S
O13 Co5 2.135 1_455 S
Co14 O15 2.216 1_455 S
Co14 O16 2.091 1_455 S
Co14 O18 2.004 . S
Co14 O24 2.015 . S
Co14 O26 2.137 . S
Co14 O27 2.244 . S
O15 Co14 2.216 1_655 S
O15 C22 1.247 . S
O16 Co14 2.091 1_655 S
O16 C22 1.261 . S
C17 O26 1.247 . S
C17 O27 1.272 . S
O18 Co14 2.004 . S
O18 C23 1.259 . S
Co19 O20 2.061 . S
Co19 O25 2.052 . S
Co19 O27 2.135 . S
O20 Co19 2.061 . S
O20 C23 1.235 . S
C21 O24 1.252 . S
C21 O25 1.241 . S
C22 O15 1.247 . S
C22 O16 1.261 . S
C23 O18 1.259 . S
C23 O20 1.235 . S
O24 Co14 2.015 . S
O24 C21 1.252 . S
O25 Co19 2.052 . S
O25 C21 1.241 . S
O26 Co14 2.137 . S
O26 C17 1.247 . S
O27 Co14 2.244 . S
O27 C17 1.272 . S
O27 Co19 2.135 . S
Co28 O29 2.216 . S
Co28 O30 2.091 . S
Co28 O32 2.004 . S
Co28 O38 2.021 . S
Co28 O40 2.137 . S
Co28 O41 2.244 . S
O29 Co28 2.216 . S
O29 C36 1.247 . S
O30 Co28 2.091 . S
O30 C36 1.261 . S
C31 O40 1.247 . S
C31 O41 1.272 . S
O32 Co28 2.004 . S
O32 C37 1.259 . S
Co33 O34 2.061 . S
Co33 O39 2.052 . S
Co33 O41 2.135 . S
O34 Co33 2.061 . S
O34 C37 1.235 . S
C35 O38 1.238 . S
C35 O39 1.241 . S
C36 O29 1.247 . S
C36 O30 1.261 . S
C37 O32 1.259 . S
C37 O34 1.235 . S
O38 Co28 2.021 . S
O38 C35 1.238 . S
O39 Co33 2.052 . S
O39 C35 1.241 . S
O40 Co28 2.137 . S
O40 C31 1.247 . S
O41 Co28 2.244 . S
O41 C31 1.272 . S
O41 Co33 2.135 . S
Co42 O43 2.216 . S
Co42 O44 2.091 . S
Co42 O46 2.004 . S
Co42 O52 2.021 . S
Co42 O54 2.137 . S
Co42 O55 2.244 . S
O43 Co42 2.216 . S
O43 C50 1.247 . S
O44 Co42 2.091 . S
O44 C50 1.261 . S
C45 O54 1.247 . S
C45 O55 1.272 . S
O46 Co42 2.004 . S
O46 C51 1.259 . S
Co47 O48 2.061 . S
Co47 O53 2.052 . S
Co47 O55 2.135 . S
O48 Co47 2.061 . S
O48 C51 1.235 . S
C49 O52 1.238 . S
C49 O53 1.241 . S
C50 O43 1.247 . S
C50 O44 1.261 . S
C51 O46 1.259 . S
C51 O48 1.235 . S
O52 Co42 2.021 . S
O52 C49 1.238 . S
O53 Co47 2.052 . S
O53 C49 1.241 . S
O54 Co42 2.137 . S
O54 C45 1.247 . S
O55 Co42 2.244 . S
O55 C45 1.272 . S
O55 Co47 2.135 . S
Co56 O57 2.216 1_455 S
Co56 O58 2.091 1_455 S
Co56 O60 2.004 . S
Co56 O66 2.021 . S
Co56 O68 2.137 . S
Co56 O69 2.244 . S
O57 Co56 2.216 1_655 S
O57 C64 1.247 . S
O58 Co56 2.091 1_655 S
O58 C64 1.261 . S
C59 O68 1.247 . S
C59 O69 1.272 . S
O60 Co56 2.004 . S
O60 C65 1.259 . S
Co61 O62 2.061 . S
Co61 O67 2.052 . S
Co61 O69 2.135 . S
O62 Co61 2.061 . S
O62 C65 1.235 . S
C63 O66 1.238 . S
C63 O67 1.241 . S
C64 O57 1.247 . S
C64 O58 1.261 . S
C65 O60 1.259 . S
C65 O62 1.235 . S
O66 Co56 2.021 . S
O66 C63 1.238 . S
O67 Co61 2.052 . S
O67 C63 1.241 . S
O68 Co56 2.137 . S
O68 C59 1.247 . S
O69 Co56 2.244 . S
O69 C59 1.272 . S
O69 Co61 2.135 . S
Co70 O71 2.216 . S
Co70 O72 2.091 . S
Co70 O74 2.004 . S
Co70 O80 2.021 . S
Co70 O82 2.137 . S
Co70 O83 2.244 . S
O71 Co70 2.216 . S
O71 C78 1.247 . S
O72 Co70 2.091 . S
O72 C78 1.261 . S
C73 O82 1.247 . S
C73 O83 1.272 . S
O74 Co70 2.004 . S
O74 C79 1.259 . S
Co75 O76 2.061 . S
Co75 O81 2.052 . S
Co75 O83 2.135 . S
O76 Co75 2.061 . S
O76 C79 1.235 . S
C77 O80 1.238 . S
C77 O81 1.241 . S
C78 O71 1.247 . S
C78 O72 1.261 . S
C79 O74 1.259 . S
C79 O76 1.235 . S
O80 Co70 2.021 . S
O80 C77 1.238 . S
O81 Co75 2.052 . S
O81 C77 1.241 . S
O82 Co70 2.137 . S
O82 C73 1.247 . S
O83 Co70 2.244 . S
O83 C73 1.272 . S
O83 Co75 2.135 . S
Co84 O85 2.216 . S
Co84 O86 2.091 . S
Co84 O88 2.004 . S
Co84 O94 2.021 . S
Co84 O96 2.137 . S
Co84 O97 2.244 . S
O85 Co84 2.216 . S
O85 C92 1.247 . S
O86 Co84 2.091 . S
O86 C92 1.261 . S
C87 O96 1.247 . S
C87 O97 1.272 . S
O88 Co84 2.004 . S
O88 C93 1.259 . S
Co89 O90 2.061 . S
Co89 O95 2.052 . S
Co89 O97 2.135 . S
O90 Co89 2.061 . S
O90 C93 1.235 . S
C91 O94 1.238 . S
C91 O95 1.241 . S
C92 O85 1.247 . S
C92 O86 1.261 . S
C93 O88 1.259 . S
C93 O90 1.235 . S
O94 Co84 2.021 . S
O94 C91 1.238 . S
O95 Co89 2.052 . S
O95 C91 1.241 . S
O96 Co84 2.137 . S
O96 C87 1.247 . S
O97 Co84 2.244 . S
O97 C87 1.272 . S
O97 Co89 2.135 . S
Co98 O99 2.216 . S
Co98 O100 2.091 . S
Co98 O102 2.004 1_455 S
Co98 O108 2.021 . S
Co98 O110 2.137 . S
Co98 O111 2.244 1_455 S
O99 Co98 2.216 . S
O99 C106 1.247 . S
O100 Co98 2.091 . S
O100 C106 1.261 . S
C101 O110 1.247 . S
C101 O111 1.272 1_455 S
O102 Co98 2.004 1_655 S
O102 C107 1.259 . S
Co103 O104 2.061 . S
Co103 O109 2.052 . S
Co103 O111 2.135 . S
O104 Co103 2.061 . S
O104 C107 1.235 . S
C105 O108 1.238 1_655 S
C105 O109 1.241 . S
C106 O99 1.247 . S
C106 O100 1.261 . S
C107 O102 1.259 . S
C107 O104 1.235 . S
O108 Co98 2.021 . S
O108 C105 1.238 1_455 S
O109 Co103 2.052 . S
O109 C105 1.241 . S
O110 Co98 2.137 . S
O110 C101 1.247 . S
O111 Co98 2.244 1_655 S
O111 C101 1.272 1_655 S
O111 Co103 2.135 . S
Co112 O113 2.216 . S
Co112 O114 2.091 . S
Co112 O116 2.004 1_545 S
Co112 O122 2.021 . S
Co112 O124 2.137 . S
Co112 O125 2.244 . S
O113 Co112 2.216 . S
O113 C120 1.247 . S
O114 Co112 2.091 . S
O114 C120 1.261 . S
C115 O124 1.247 . S
C115 O125 1.272 . S
O116 Co112 2.004 1_565 S
O116 C121 1.259 . S
Co117 O118 2.061 . S
Co117 O123 2.052 1_565 S
Co117 O125 2.135 1_565 S
O118 Co117 2.061 . S
O118 C121 1.235 . S
C119 O122 1.238 . S
C119 O123 1.241 . S
C120 O113 1.247 . S
C120 O114 1.261 . S
C121 O116 1.259 . S
C121 O118 1.235 . S
O122 Co112 2.021 . S
O122 C119 1.238 . S
O123 Co117 2.052 1_545 S
O123 C119 1.241 . S
O124 Co112 2.137 . S
O124 C115 1.247 . S
O125 Co112 2.244 . S
O125 C115 1.272 . S
O125 Co117 2.135 1_545 S
Co126 O127 2.216 . S
Co126 O128 2.091 . S
Co126 O130 2.004 . S
Co126 O136 2.021 . S
Co126 O138 2.137 . S
Co126 O139 2.244 . S
O127 Co126 2.216 . S
O127 C134 1.247 . S
O128 Co126 2.091 . S
O128 C134 1.261 . S
C129 O138 1.247 . S
C129 O139 1.272 . S
O130 Co126 2.004 . S
O130 C135 1.259 . S
Co131 O132 2.061 . S
Co131 O137 2.052 . S
Co131 O139 2.135 . S
O132 Co131 2.061 . S
O132 C135 1.235 . S
C133 O136 1.238 . S
C133 O137 1.241 . S
C134 O127 1.247 . S
C134 O128 1.261 . S
C135 O130 1.259 . S
C135 O132 1.235 . S
O136 Co126 2.021 . S
O136 C133 1.238 . S
O137 Co131 2.052 . S
O137 C133 1.241 . S
O138 Co126 2.137 . S
O138 C129 1.247 . S
O139 Co126 2.244 . S
O139 C129 1.272 . S
O139 Co131 2.135 . S
Co140 O141 2.216 . S
Co140 O142 2.091 . S
Co140 O144 2.004 1_565 S
Co140 O150 2.021 . S
Co140 O152 2.137 . S
Co140 O153 2.244 1_565 S
O141 Co140 2.216 . S
O141 C148 1.247 . S
O142 Co140 2.091 . S
O142 C148 1.261 . S
C143 O152 1.235 1_545 S
C143 O153 1.282 . S
O144 Co140 2.004 1_545 S
O144 C149 1.259 . S
Co145 O146 2.061 . S
Co145 O151 2.052 . S
Co145 O153 2.135 . S
O146 Co145 2.061 . S
O146 C149 1.235 . S
C147 O150 1.251 . S
C147 O151 1.223 1_565 S
C148 O141 1.247 . S
C148 O142 1.261 . S
C149 O144 1.259 . S
C149 O146 1.235 . S
O150 Co140 2.021 . S
O150 C147 1.251 . S
O151 Co145 2.052 . S
O151 C147 1.223 1_545 S
O152 Co140 2.137 . S
O152 C143 1.235 1_565 S
O153 Co140 2.244 1_545 S
O153 C143 1.282 . S
O153 Co145 2.135 . S
Co154 O155 2.216 . S
Co154 O156 2.091 . S
Co154 O158 2.004 . S
Co154 O164 2.021 . S
Co154 O166 2.137 1_554 S
Co154 O167 2.244 1_554 S
O155 Co154 2.216 . S
O155 C162 1.247 . S
O156 Co154 2.091 . S
O156 C162 1.261 . S
C157 O166 1.247 . S
C157 O167 1.272 . S
O158 Co154 2.004 . S
O158 C163 1.259 . S
Co159 O160 2.061 . S
Co159 O165 2.052 . S
Co159 O167 2.135 1_554 S
O160 Co159 2.061 . S
O160 C163 1.235 . S
C161 O164 1.238 . S
C161 O165 1.241 . S
C162 O155 1.247 . S
C162 O156 1.261 . S
C163 O158 1.259 . S
C163 O160 1.235 . S
O164 Co154 2.021 . S
O164 C161 1.238 . S
O165 Co159 2.052 . S
O165 C161 1.241 . S
O166 Co154 2.137 1_556 S
O166 C157 1.247 . S
O167 Co154 2.244 1_556 S
O167 C157 1.272 . S
O167 Co159 2.135 1_556 S
Co168 O169 2.216 . S
Co168 O170 2.091 . S
Co168 O172 2.004 . S
Co168 O178 2.021 . S
Co168 O180 2.137 1_554 S
Co168 O181 2.244 1_554 S
O169 Co168 2.216 . S
O169 C176 1.247 . S
O170 Co168 2.091 . S
O170 C176 1.261 . S
C171 O180 1.247 . S
C171 O181 1.272 . S
O172 Co168 2.004 . S
O172 C177 1.259 . S
Co173 O174 2.061 . S
Co173 O179 2.052 . S
Co173 O181 2.135 1_554 S
O174 Co173 2.061 . S
O174 C177 1.235 . S
C175 O178 1.238 . S
C175 O179 1.241 . S
C176 O169 1.247 . S
C176 O170 1.261 . S
C177 O172 1.259 . S
C177 O174 1.235 . S
O178 Co168 2.021 . S
O178 C175 1.238 . S
O179 Co173 2.052 . S
O179 C175 1.241 . S
O180 Co168 2.137 1_556 S
O180 C171 1.247 . S
O181 Co168 2.244 1_556 S
O181 C171 1.272 . S
O181 Co173 2.135 1_556 S
Co182 O183 2.217 . S
Co182 O184 2.091 . S
Co182 O186 2.004 . S
Co182 O192 2.021 1_556 S
Co182 O194 2.137 . S
Co182 O195 2.244 . S
O183 Co182 2.217 . S
O183 C190 1.243 . S
O184 Co182 2.091 . S
O184 C190 1.261 . S
C185 O194 1.247 . S
C185 O195 1.272 . S
O186 Co182 2.004 . S
O186 C191 1.259 . S
Co187 O188 2.060 . S
Co187 O193 2.052 . S
Co187 O195 2.135 1_554 S
O188 Co187 2.060 . S
O188 C191 1.234 1_554 S
C189 O192 1.238 . S
C189 O193 1.241 . S
C190 O183 1.243 . S
C190 O184 1.261 . S
C191 O186 1.259 . S
C191 O188 1.234 1_556 S
O192 Co182 2.021 1_554 S
O192 C189 1.238 . S
O193 Co187 2.052 . S
O193 C189 1.241 . S
O194 Co182 2.137 . S
O194 C185 1.247 . S
O195 Co182 2.244 . S
O195 C185 1.272 . S
O195 Co187 2.135 1_556 S
Co196 O197 2.216 . S
Co196 O198 2.091 . S
Co196 O200 2.004 . S
Co196 O206 2.021 . S
Co196 O208 2.137 . S
Co196 O209 2.244 . S
O197 Co196 2.216 . S
O197 C204 1.247 . S
O198 Co196 2.091 . S
O198 C204 1.261 . S
C199 O208 1.247 . S
C199 O209 1.272 . S
O200 Co196 2.004 . S
O200 C205 1.259 . S
Co201 O202 2.061 . S
Co201 O207 2.052 . S
Co201 O209 2.135 . S
O202 Co201 2.061 . S
O202 C205 1.235 . S
C203 O206 1.238 . S
C203 O207 1.241 . S
C204 O197 1.247 . S
C204 O198 1.261 . S
C205 O200 1.259 . S
C205 O202 1.235 . S
O206 Co196 2.021 . S
O206 C203 1.238 . S
O207 Co201 2.052 . S
O207 C203 1.241 . S
O208 Co196 2.137 . S
O208 C199 1.247 . S
O209 Co196 2.244 . S
O209 C199 1.272 . S
O209 Co201 2.135 . S
Co210 O211 2.216 . S
Co210 O212 2.091 . S
Co210 O214 2.004 . S
Co210 O220 2.021 . S
Co210 O222 2.137 . S
Co210 O223 2.244 . S
O211 Co210 2.216 . S
O211 C218 1.247 . S
O212 Co210 2.091 . S
O212 C218 1.261 . S
C213 O222 1.247 . S
C213 O223 1.272 . S
O214 Co210 2.004 . S
O214 C219 1.259 . S
Co215 O216 2.061 . S
Co215 O221 2.052 . S
Co215 O223 2.135 . S
O216 Co215 2.061 . S
O216 C219 1.235 . S
C217 O220 1.238 . S
C217 O221 1.241 . S
C218 O211 1.247 . S
C218 O212 1.261 . S
C219 O214 1.259 . S
C219 O216 1.235 . S
O220 Co210 2.021 . S
O220 C217 1.238 . S
O221 Co215 2.052 . S
O221 C217 1.241 . S
O222 Co210 2.137 . S
O222 C213 1.247 . S
O223 Co210 2.244 . S
O223 C213 1.272 . S
O223 Co215 2.135 . S
Co224 O225 2.216 . S
Co224 O226 2.091 . S
Co224 O228 2.004 . S
Co224 O234 2.021 . S
Co224 O236 2.137 . S
Co224 O237 2.244 . S
O225 Co224 2.216 . S
O225 C232 1.247 . S
O226 Co224 2.091 . S
O226 C232 1.261 . S
C227 O236 1.247 . S
C227 O237 1.272 . S
O228 Co224 2.004 . S
O228 C233 1.259 1_545 S
Co229 O230 2.061 1_545 S
Co229 O235 2.052 . S
Co229 O237 2.135 . S
O230 Co229 2.061 1_565 S
O230 C233 1.235 . S
C231 O234 1.238 . S
C231 O235 1.241 . S
C232 O225 1.247 . S
C232 O226 1.261 . S
C233 O228 1.259 1_565 S
C233 O230 1.235 . S
O234 Co224 2.021 . S
O234 C231 1.238 . S
O235 Co229 2.052 . S
O235 C231 1.241 . S
O236 Co224 2.137 . S
O236 C227 1.247 . S
O237 Co224 2.244 . S
O237 C227 1.272 . S
O237 Co229 2.135 . S
Co238 O239 2.216 . S
Co238 O240 2.091 . S
Co238 O242 2.004 . S
Co238 O248 2.021 . S
Co238 O250 2.137 . S
Co238 O251 2.244 . S
O239 Co238 2.216 . S
O239 C246 1.247 . S
O240 Co238 2.091 . S
O240 C246 1.261 . S
C241 O250 1.247 . S
C241 O251 1.272 . S
O242 Co238 2.004 . S
O242 C247 1.259 . S
Co243 O244 2.061 . S
Co243 O249 2.052 . S
Co243 O251 2.135 . S
O244 Co243 2.061 . S
O244 C247 1.235 . S
C245 O248 1.238 . S
C245 O249 1.241 . S
C246 O239 1.247 . S
C246 O240 1.261 . S
C247 O242 1.259 . S
C247 O244 1.235 . S
O248 Co238 2.021 . S
O248 C245 1.238 . S
O249 Co243 2.052 . S
O249 C245 1.241 . S
O250 Co238 2.137 . S
O250 C241 1.247 . S
O251 Co238 2.244 . S
O251 C241 1.272 . S
O251 Co243 2.135 . S
Co252 O253 2.216 . S
Co252 O254 2.091 . S
Co252 O256 2.004 . S
Co252 O262 2.021 . S
Co252 O264 2.137 . S
Co252 O265 2.244 . S
O253 Co252 2.216 . S
O253 C260 1.247 . S
O254 Co252 2.091 . S
O254 C260 1.261 . S
C255 O264 1.247 . S
C255 O265 1.272 . S
O256 Co252 2.004 . S
O256 C261 1.259 . S
Co257 O258 2.061 . S
Co257 O263 2.052 . S
Co257 O265 2.135 . S
O258 Co257 2.061 . S
O258 C261 1.235 . S
C259 O262 1.238 . S
C259 O263 1.241 . S
C260 O253 1.247 . S
C260 O254 1.261 . S
C261 O256 1.259 . S
C261 O258 1.235 . S
O262 Co252 2.021 . S
O262 C259 1.238 . S
O263 Co257 2.052 . S
O263 C259 1.241 . S
O264 Co252 2.137 . S
O264 C255 1.247 . S
O265 Co252 2.244 . S
O265 C255 1.272 . S
O265 Co257 2.135 . S
Co266 O267 2.216 1_545 S
Co266 O268 2.097 . S
Co266 O270 2.004 . S
Co266 O276 2.021 . S
Co266 O278 2.137 . S
Co266 O279 2.244 . S
O267 Co266 2.216 1_565 S
O267 C274 1.247 . S
O268 Co266 2.097 . S
O268 C274 1.255 1_545 S
C269 O278 1.247 . S
C269 O279 1.272 . S
O270 Co266 2.004 . S
O270 C275 1.259 . S
Co271 O272 2.061 . S
Co271 O277 2.052 . S
Co271 O279 2.135 . S
O272 Co271 2.061 . S
O272 C275 1.235 . S
C273 O276 1.238 . S
C273 O277 1.241 . S
C274 O267 1.247 . S
C274 O268 1.255 1_565 S
C275 O270 1.259 . S
C275 O272 1.235 . S
O276 Co266 2.021 . S
O276 C273 1.238 . S
O277 Co271 2.052 . S
O277 C273 1.241 . S
O278 Co266 2.137 . S
O278 C269 1.247 . S
O279 Co266 2.244 . S
O279 C269 1.272 . S
O279 Co271 2.135 . S
Co280 O281 2.216 . S
Co280 O282 2.091 . S
Co280 O284 2.004 . S
Co280 O290 2.021 . S
Co280 O292 2.137 1_554 S
Co280 O293 2.244 1_554 S
O281 Co280 2.216 . S
O281 C288 1.247 . S
O282 Co280 2.091 . S
O282 C288 1.261 . S
C283 O292 1.247 . S
C283 O293 1.272 . S
O284 Co280 2.004 . S
O284 C289 1.263 . S
Co285 O286 2.061 . S
Co285 O291 2.052 . S
Co285 O293 2.135 1_554 S
O286 Co285 2.061 . S
O286 C289 1.235 . S
C287 O290 1.238 . S
C287 O291 1.241 . S
C288 O281 1.247 . S
C288 O282 1.261 . S
C289 O284 1.263 . S
C289 O286 1.235 . S
O290 Co280 2.021 . S
O290 C287 1.238 . S
O291 Co285 2.052 . S
O291 C287 1.241 . S
O292 Co280 2.137 1_556 S
O292 C283 1.247 . S
O293 Co280 2.244 1_556 S
O293 C283 1.272 . S
O293 Co285 2.135 1_556 S
Co294 O295 2.216 . S
Co294 O296 2.091 . S
Co294 O298 2.004 . S
Co294 O304 2.021 . S
Co294 O306 2.137 . S
Co294 O307 2.244 . S
O295 Co294 2.216 . S
O295 C302 1.247 . S
O296 Co294 2.091 . S
O296 C302 1.261 . S
C297 O306 1.247 . S
C297 O307 1.272 . S
O298 Co294 2.004 . S
O298 C303 1.259 . S
Co299 O300 2.061 . S
Co299 O305 2.052 . S
Co299 O307 2.135 . S
O300 Co299 2.061 . S
O300 C303 1.235 . S
C301 O304 1.238 . S
C301 O305 1.241 . S
C302 O295 1.247 . S
C302 O296 1.261 . S
C303 O298 1.259 . S
C303 O300 1.235 . S
O304 Co294 2.021 . S
O304 C301 1.238 . S
O305 Co299 2.052 . S
O305 C301 1.241 . S
O306 Co294 2.137 . S
O306 C297 1.247 . S
O307 Co294 2.244 . S
O307 C297 1.272 . S
O307 Co299 2.135 . S
Co308 O309 2.216 . S
Co308 O310 2.091 . S
Co308 O312 2.004 . S
Co308 O318 2.021 . S
Co308 O320 2.137 . S
Co308 O321 2.244 . S
O309 Co308 2.216 . S
O309 C316 1.247 . S
O310 Co308 2.091 . S
O310 C316 1.261 . S
C311 O320 1.247 . S
C311 O321 1.272 . S
O312 Co308 2.004 . S
O312 C317 1.259 . S
Co313 O314 2.061 . S
Co313 O319 2.052 . S
Co313 O321 2.135 . S
O314 Co313 2.061 . S
O314 C317 1.235 . S
C315 O318 1.238 . S
C315 O319 1.241 . S
C316 O309 1.247 . S
C316 O310 1.261 . S
C317 O312 1.259 . S
C317 O314 1.235 . S
O318 Co308 2.021 . S
O318 C315 1.238 . S
O319 Co313 2.052 . S
O319 C315 1.241 . S
O320 Co308 2.137 . S
O320 C311 1.247 . S
O321 Co308 2.244 . S
O321 C311 1.272 . S
O321 Co313 2.135 . S
Co322 O323 2.216 . S
Co322 O324 2.091 . S
Co322 O326 2.004 . S
Co322 O332 2.021 . S
Co322 O334 2.137 . S
Co322 O335 2.244 . S
O323 Co322 2.216 . S
O323 C330 1.247 . S
O324 Co322 2.091 . S
O324 C330 1.261 . S
C325 O334 1.247 . S
C325 O335 1.272 . S
O326 Co322 2.004 . S
O326 C331 1.259 . S
Co327 O328 2.061 . S
Co327 O333 2.052 . S
Co327 O335 2.135 . S
O328 Co327 2.061 . S
O328 C331 1.235 . S
C329 O332 1.238 . S
C329 O333 1.241 . S
C330 O323 1.247 . S
C330 O324 1.261 . S
C331 O326 1.259 . S
C331 O328 1.235 . S
O332 Co322 2.021 . S
O332 C329 1.238 . S
O333 Co327 2.052 . S
O333 C329 1.241 . S
O334 Co322 2.137 . S
O334 C325 1.247 . S
O335 Co322 2.244 . S
O335 C325 1.272 . S
O335 Co327 2.135 . S
Dy336 O340 2.398 . S
Dy336 O341 2.491 1_556 S
Dy336 O342 2.403 . S
Dy336 O343 2.664 1_655 S
Dy336 O347 2.326 . S
Dy336 O351 2.310 1_656 S
Dy336 O352 2.351 1_546 S
C337 O348 1.185 . S
C337 O349 1.355 . S
C338 O340 1.185 . S
C338 O341 1.355 1_556 S
Dy339 O343 2.310 1_554 S
Dy339 O346 2.351 . S
Dy339 O348 2.398 . S
Dy339 O349 2.491 . S
Dy339 O350 2.403 . S
Dy339 O351 2.664 . S
Dy339 O353 2.326 1_545 S
O340 Dy336 2.398 . S
O340 C338 1.185 . S
O341 Dy336 2.491 1_554 S
O341 C338 1.355 1_554 S
O342 Dy336 2.403 . S
O342 C344 1.254 1_655 S
O343 Dy336 2.664 1_455 S
O343 Dy339 2.310 1_556 S
O343 C344 1.268 . S
C344 O342 1.254 1_455 S
C344 O343 1.268 . S
C345 O350 1.254 . S
C345 O351 1.268 . S
O346 Dy339 2.351 . S
O346 C354 1.268 . S
O347 Dy336 2.326 . S
O347 C354 1.252 1_656 S
O348 C337 1.185 . S
O348 Dy339 2.398 . S
O349 C337 1.355 . S
O349 Dy339 2.491 . S
O350 Dy339 2.403 . S
O350 C345 1.254 . S
O351 Dy336 2.310 1_454 S
O351 Dy339 2.664 . S
O351 C345 1.268 . S
O352 Dy336 2.351 1_564 S
O352 C355 1.249 1_655 S
O353 Dy339 2.326 1_565 S
O353 C355 1.267 . S
C354 O346 1.268 . S
C354 O347 1.252 1_454 S
C355 O352 1.249 1_455 S
C355 O353 1.267 . S
Dy356 O360 2.398 . S
Dy356 O361 2.491 . S
Dy356 O362 2.403 . S
Dy356 O363 2.664 . S
Dy356 O367 2.326 . S
Dy356 O371 2.310 . S
Dy356 O372 2.351 . S
C357 O368 1.185 . S
C357 O369 1.355 . S
C358 O360 1.185 . S
C358 O361 1.355 . S
Dy359 O363 2.310 . S
Dy359 O366 2.351 . S
Dy359 O368 2.398 . S
Dy359 O369 2.491 . S
Dy359 O370 2.403 . S
Dy359 O371 2.664 . S
Dy359 O373 2.326 . S
O360 Dy356 2.398 . S
O360 C358 1.185 . S
O361 Dy356 2.491 . S
O361 C358 1.355 . S
O362 Dy356 2.403 . S
O362 C364 1.254 . S
O363 Dy356 2.664 . S
O363 Dy359 2.310 . S
O363 C364 1.268 . S
C364 O362 1.254 . S
C364 O363 1.268 . S
C365 O370 1.254 . S
C365 O371 1.268 . S
O366 Dy359 2.351 . S
O366 C374 1.249 . S
O367 Dy356 2.326 . S
O367 C374 1.267 . S
O368 C357 1.185 . S
O368 Dy359 2.398 . S
O369 C357 1.355 . S
O369 Dy359 2.491 . S
O370 Dy359 2.403 . S
O370 C365 1.254 . S
O371 Dy356 2.310 . S
O371 Dy359 2.664 . S
O371 C365 1.268 . S
O372 Dy356 2.351 . S
O372 C375 1.249 . S
O373 Dy359 2.326 . S
O373 C375 1.267 . S
C374 O366 1.249 . S
C374 O367 1.267 . S
C375 O372 1.249 . S
C375 O373 1.267 . S
Dy376 O380 2.398 . S
Dy376 O381 2.491 1_545 S
Dy376 O382 2.403 . S
Dy376 O383 2.664 . S
Dy376 O387 2.326 1_545 S
Dy376 O391 2.310 . S
Dy376 O392 2.351 . S
C377 O388 1.185 . S
C377 O389 1.355 . S
C378 O380 1.185 1_565 S
C378 O381 1.355 . S
Dy379 O383 2.310 . S
Dy379 O386 2.351 1_545 S
Dy379 O388 2.398 . S
Dy379 O389 2.491 . S
Dy379 O390 2.403 . S
Dy379 O391 2.664 . S
Dy379 O393 2.326 . S
O380 Dy376 2.398 . S
O380 C378 1.185 1_545 S
O381 Dy376 2.491 1_565 S
O381 C378 1.355 . S
O382 Dy376 2.403 . S
O382 C384 1.254 . S
O383 Dy376 2.664 . S
O383 Dy379 2.310 . S
O383 C384 1.268 . S
C384 O382 1.254 . S
C384 O383 1.268 . S
C385 O390 1.254 . S
C385 O391 1.268 . S
O386 Dy379 2.351 1_565 S
O386 C394 1.249 . S
O387 Dy376 2.326 1_565 S
O387 C394 1.267 . S
O388 C377 1.185 . S
O388 Dy379 2.398 . S
O389 C377 1.355 . S
O389 Dy379 2.491 . S
O390 Dy379 2.403 . S
O390 C385 1.254 . S
O391 Dy376 2.310 . S
O391 Dy379 2.664 . S
O391 C385 1.268 . S
O392 Dy376 2.351 . S
O392 C395 1.249 . S
O393 Dy379 2.326 . S
O393 C395 1.267 . S
C394 O386 1.249 . S
C394 O387 1.267 . S
C395 O392 1.249 . S
C395 O393 1.267 . S
Dy396 O400 2.398 . S
Dy396 O401 2.491 . S
Dy396 O402 2.403 . S
Dy396 O403 2.664 . S
Dy396 O407 2.326 . S
Dy396 O411 2.310 . S
Dy396 O412 2.351 . S
C397 O408 1.185 . S
C397 O409 1.355 . S
C398 O400 1.185 . S
C398 O401 1.355 . S
Dy399 O403 2.310 . S
Dy399 O406 2.351 . S
Dy399 O408 2.398 . S
Dy399 O409 2.491 . S
Dy399 O410 2.403 . S
Dy399 O411 2.664 . S
Dy399 O413 2.326 . S
O400 Dy396 2.398 . S
O400 C398 1.185 . S
O401 Dy396 2.491 . S
O401 C398 1.355 . S
O402 Dy396 2.403 . S
O402 C404 1.254 . S
O403 Dy396 2.664 . S
O403 Dy399 2.310 . S
O403 C404 1.268 . S
C404 O402 1.254 . S
C404 O403 1.268 . S
C405 O410 1.254 . S
C405 O411 1.268 . S
O406 Dy399 2.351 . S
O406 C414 1.249 . S
O407 Dy396 2.326 . S
O407 C414 1.267 . S
O408 C397 1.185 . S
O408 Dy399 2.398 . S
O409 C397 1.355 . S
O409 Dy399 2.491 . S
O410 Dy399 2.403 . S
O410 C405 1.254 . S
O411 Dy396 2.310 . S
O411 Dy399 2.664 . S
O411 C405 1.268 . S
O412 Dy396 2.351 . S
O412 C415 1.249 . S
O413 Dy399 2.326 . S
O413 C415 1.267 . S
C414 O406 1.249 . S
C414 O407 1.267 . S
C415 O412 1.249 . S
C415 O413 1.267 . S
Dy416 O420 2.398 . S
Dy416 O421 2.491 1_455 S
Dy416 O422 2.403 . S
Dy416 O423 2.664 . S
Dy416 O427 2.326 . S
Dy416 O431 2.310 1_455 S
Dy416 O432 2.351 1_545 S
C417 O428 1.185 . S
C417 O429 1.355 . S
C418 O420 1.185 1_655 S
C418 O421 1.355 . S
Dy419 O423 2.310 . S
Dy419 O426 2.351 . S
Dy419 O428 2.398 . S
Dy419 O429 2.491 . S
Dy419 O430 2.403 1_455 S
Dy419 O431 2.664 1_455 S
Dy419 O433 2.326 1_545 S
O420 Dy416 2.398 . S
O420 C418 1.185 1_455 S
O421 Dy416 2.491 1_655 S
O421 C418 1.355 . S
O422 Dy416 2.403 . S
O422 C424 1.254 . S
O423 Dy416 2.664 . S
O423 Dy419 2.310 . S
O423 C424 1.268 . S
C424 O422 1.254 . S
C424 O423 1.268 . S
C425 O430 1.254 . S
C425 O431 1.268 . S
O426 Dy419 2.351 . S
O426 C434 1.249 . S
O427 Dy416 2.326 . S
O427 C434 1.267 . S
O428 C417 1.185 . S
O428 Dy419 2.398 . S
O429 C417 1.355 . S
O429 Dy419 2.491 . S
O430 Dy419 2.403 1_655 S
O430 C425 1.254 . S
O431 Dy416 2.310 1_655 S
O431 Dy419 2.664 1_655 S
O431 C425 1.268 . S
O432 Dy416 2.351 1_565 S
O432 C435 1.249 . S
O433 Dy419 2.326 1_565 S
O433 C435 1.267 . S
C434 O426 1.249 . S
C434 O427 1.267 . S
C435 O432 1.249 . S
C435 O433 1.267 . S
Dy436 O440 2.398 . S
Dy436 O441 2.491 . S
Dy436 O442 2.403 . S
Dy436 O443 2.664 . S
Dy436 O447 2.326 . S
Dy436 O451 2.310 . S
Dy436 O452 2.351 . S
C437 O448 1.185 . S
C437 O449 1.355 . S
C438 O440 1.185 . S
C438 O441 1.355 . S
Dy439 O443 2.310 . S
Dy439 O446 2.351 . S
Dy439 O448 2.398 . S
Dy439 O449 2.491 . S
Dy439 O450 2.403 . S
Dy439 O451 2.664 . S
Dy439 O453 2.326 . S
O440 Dy436 2.398 . S
O440 C438 1.185 . S
O441 Dy436 2.491 . S
O441 C438 1.355 . S
O442 Dy436 2.403 . S
O442 C444 1.254 . S
O443 Dy436 2.664 . S
O443 Dy439 2.310 . S
O443 C444 1.268 . S
C444 O442 1.254 . S
C444 O443 1.268 . S
C445 O450 1.254 . S
C445 O451 1.268 . S
O446 Dy439 2.351 . S
O446 C454 1.249 . S
O447 Dy436 2.326 . S
O447 C454 1.267 . S
O448 C437 1.185 . S
O448 Dy439 2.398 . S
O449 C437 1.355 . S
O449 Dy439 2.491 . S
O450 Dy439 2.403 . S
O450 C445 1.254 . S
O451 Dy436 2.310 . S
O451 Dy439 2.664 . S
O451 C445 1.268 . S
O452 Dy436 2.351 . S
O452 C455 1.249 . S
O453 Dy439 2.326 . S
O453 C455 1.267 . S
C454 O446 1.249 . S
C454 O447 1.267 . S
C455 O452 1.249 . S
C455 O453 1.267 . S
Dy456 O460 2.398 1_545 S
Dy456 O461 2.491 . S
Dy456 O462 2.403 1_545 S
Dy456 O463 2.670 1_554 S
Dy456 O467 2.328 . S
Dy456 O471 2.310 . S
Dy456 O472 2.351 . S
C457 O468 1.185 . S
C457 O469 1.355 . S
C458 O460 1.185 1_545 S
C458 O461 1.355 . S
Dy459 O463 2.332 . S
Dy459 O466 2.351 . S
Dy459 O468 2.398 . S
Dy459 O469 2.491 . S
Dy459 O470 2.403 . S
Dy459 O471 2.664 1_556 S
Dy459 O473 2.326 . S
O460 Dy456 2.398 1_565 S
O460 C458 1.185 1_565 S
O461 Dy456 2.491 . S
O461 C458 1.355 . S
O462 Dy456 2.403 1_565 S
O462 C464 1.254 . S
O463 Dy456 2.670 1_556 S
O463 Dy459 2.332 . S
O463 C464 1.242 1_546 S
C464 O462 1.254 . S
C464 O463 1.242 1_564 S
C465 O470 1.254 1_554 S
C465 O471 1.268 . S
O466 Dy459 2.351 . S
O466 C474 1.249 1_556 S
O467 Dy456 2.328 . S
O467 C474 1.272 . S
O468 C457 1.185 . S
O468 Dy459 2.398 . S
O469 C457 1.355 . S
O469 Dy459 2.491 . S
O470 Dy459 2.403 . S
O470 C465 1.254 1_556 S
O471 Dy456 2.310 . S
O471 Dy459 2.664 1_554 S
O471 C465 1.268 . S
O472 Dy456 2.351 . S
O472 C475 1.249 . S
O473 Dy459 2.326 . S
O473 C475 1.267 1_556 S
C474 O466 1.249 1_554 S
C474 O467 1.272 . S
C475 O472 1.249 . S
C475 O473 1.267 1_554 S
Dy476 O480 2.398 . S
Dy476 O481 2.491 . S
Dy476 O482 2.403 . S
Dy476 O483 2.664 . S
Dy476 O487 2.326 . S
Dy476 O491 2.310 . S
Dy476 O492 2.351 . S
C477 O488 1.185 . S
C477 O489 1.355 . S
C478 O480 1.185 . S
C478 O481 1.355 . S
Dy479 O483 2.310 . S
Dy479 O486 2.351 . S
Dy479 O488 2.398 . S
Dy479 O489 2.491 . S
Dy479 O490 2.403 . S
Dy479 O491 2.664 . S
Dy479 O493 2.326 . S
O480 Dy476 2.398 . S
O480 C478 1.185 . S
O481 Dy476 2.491 . S
O481 C478 1.355 . S
O482 Dy476 2.403 . S
O482 C484 1.254 . S
O483 Dy476 2.664 . S
O483 Dy479 2.310 . S
O483 C484 1.268 . S
C484 O482 1.254 . S
C484 O483 1.268 . S
C485 O490 1.254 . S
C485 O491 1.268 . S
O486 Dy479 2.351 . S
O486 C494 1.249 . S
O487 Dy476 2.326 . S
O487 C494 1.267 . S
O488 C477 1.185 . S
O488 Dy479 2.398 . S
O489 C477 1.355 . S
O489 Dy479 2.491 . S
O490 Dy479 2.403 . S
O490 C485 1.254 . S
O491 Dy476 2.310 . S
O491 Dy479 2.664 . S
O491 C485 1.268 . S
O492 Dy476 2.351 . S
O492 C495 1.249 . S
O493 Dy479 2.326 . S
O493 C495 1.267 . S
C494 O486 1.249 . S
C494 O487 1.267 . S
C495 O492 1.249 . S
C495 O493 1.267 . S
Dy496 O500 2.398 . S
Dy496 O501 2.491 . S
Dy496 O502 2.403 . S
Dy496 O503 2.664 1_556 S
Dy496 O507 2.326 . S
Dy496 O511 2.310 1_556 S
Dy496 O512 2.321 1_556 S
C497 O508 1.185 . S
C497 O509 1.355 . S
C498 O500 1.185 . S
C498 O501 1.355 . S
Dy499 O503 2.310 . S
Dy499 O506 2.351 . S
Dy499 O508 2.398 . S
Dy499 O509 2.491 . S
Dy499 O510 2.403 . S
Dy499 O511 2.664 . S
Dy499 O513 2.326 . S
O500 Dy496 2.398 . S
O500 C498 1.185 . S
O501 Dy496 2.491 . S
O501 C498 1.355 . S
O502 Dy496 2.403 . S
O502 C504 1.254 . S
O503 Dy496 2.664 1_554 S
O503 Dy499 2.310 . S
O503 C504 1.268 1_554 S
C504 O502 1.254 . S
C504 O503 1.268 1_556 S
C505 O510 1.254 . S
C505 O511 1.268 . S
O506 Dy499 2.351 . S
O506 C514 1.249 1_554 S
O507 Dy496 2.326 . S
O507 C514 1.267 . S
O508 C497 1.185 . S
O508 Dy499 2.398 . S
O509 C497 1.355 . S
O509 Dy499 2.491 . S
O510 Dy499 2.403 . S
O510 C505 1.254 . S
O511 Dy496 2.310 1_554 S
O511 Dy499 2.664 . S
O511 C505 1.268 . S
O512 Dy496 2.321 1_554 S
O512 C515 1.293 . S
O513 Dy499 2.326 . S
O513 C515 1.267 . S
C514 O506 1.249 1_556 S
C514 O507 1.267 . S
C515 O512 1.293 . S
C515 O513 1.267 . S
Dy516 O520 2.398 . S
Dy516 O521 2.491 . S
Dy516 O522 2.403 . S
Dy516 O523 2.664 . S
Dy516 O527 2.326 . S
Dy516 O531 2.310 . S
Dy516 O532 2.351 . S
C517 O528 1.185 . S
C517 O529 1.355 . S
C518 O520 1.185 . S
C518 O521 1.355 . S
Dy519 O523 2.310 . S
Dy519 O526 2.351 . S
Dy519 O528 2.398 . S
Dy519 O529 2.491 . S
Dy519 O530 2.403 . S
Dy519 O531 2.664 . S
Dy519 O533 2.326 . S
O520 Dy516 2.398 . S
O520 C518 1.185 . S
O521 Dy516 2.491 . S
O521 C518 1.355 . S
O522 Dy516 2.403 . S
O522 C524 1.254 . S
O523 Dy516 2.664 . S
O523 Dy519 2.310 . S
O523 C524 1.268 . S
C524 O522 1.254 . S
C524 O523 1.268 . S
C525 O530 1.254 . S
C525 O531 1.268 . S
O526 Dy519 2.351 . S
O526 C534 1.249 . S
O527 Dy516 2.326 . S
O527 C534 1.267 . S
O528 C517 1.185 . S
O528 Dy519 2.398 . S
O529 C517 1.355 . S
O529 Dy519 2.491 . S
O530 Dy519 2.403 . S
O530 C525 1.254 . S
O531 Dy516 2.310 . S
O531 Dy519 2.664 . S
O531 C525 1.268 . S
O532 Dy516 2.351 . S
O532 C535 1.249 . S
O533 Dy519 2.326 . S
O533 C535 1.267 . S
C534 O526 1.249 . S
C534 O527 1.267 . S
C535 O532 1.249 . S
C535 O533 1.267 . S
Dy536 O540 2.398 1_455 S
Dy536 O541 2.491 1_455 S
Dy536 O542 2.403 . S
Dy536 O543 2.664 . S
Dy536 O547 2.326 1_455 S
Dy536 O551 2.310 . S
Dy536 O552 2.351 . S
C537 O548 1.185 . S
C537 O549 1.355 . S
C538 O540 1.185 . S
C538 O541 1.355 . S
Dy539 O543 2.310 . S
Dy539 O546 2.351 1_455 S
Dy539 O548 2.398 . S
Dy539 O549 2.491 . S
Dy539 O550 2.403 . S
Dy539 O551 2.664 . S
Dy539 O553 2.326 . S
O540 Dy536 2.398 1_655 S
O540 C538 1.185 . S
O541 Dy536 2.491 1_655 S
O541 C538 1.355 . S
O542 Dy536 2.403 . S
O542 C544 1.254 . S
O543 Dy536 2.664 . S
O543 Dy539 2.310 . S
O543 C544 1.268 . S
C544 O542 1.254 . S
C544 O543 1.268 . S
C545 O550 1.254 . S
C545 O551 1.268 . S
O546 Dy539 2.351 1_655 S
O546 C554 1.249 . S
O547 Dy536 2.326 1_655 S
O547 C554 1.267 . S
O548 C537 1.185 . S
O548 Dy539 2.398 . S
O549 C537 1.355 . S
O549 Dy539 2.491 . S
O550 Dy539 2.403 . S
O550 C545 1.254 . S
O551 Dy536 2.310 . S
O551 Dy539 2.664 . S
O551 C545 1.268 . S
O552 Dy536 2.351 . S
O552 C555 1.249 . S
O553 Dy539 2.326 . S
O553 C555 1.267 . S
C554 O546 1.249 . S
C554 O547 1.267 . S
C555 O552 1.249 . S
C555 O553 1.267 . S
Dy556 O560 2.398 . S
Dy556 O561 2.491 . S
Dy556 O562 2.403 . S
Dy556 O563 2.664 . S
Dy556 O567 2.326 . S
Dy556 O571 2.310 . S
Dy556 O572 2.351 . S
C557 O568 1.185 . S
C557 O569 1.355 . S
C558 O560 1.185 . S
C558 O561 1.355 . S
Dy559 O563 2.310 . S
Dy559 O566 2.351 . S
Dy559 O568 2.398 . S
Dy559 O569 2.491 . S
Dy559 O570 2.403 . S
Dy559 O571 2.664 . S
Dy559 O573 2.326 . S
O560 Dy556 2.398 . S
O560 C558 1.185 . S
O561 Dy556 2.491 . S
O561 C558 1.355 . S
O562 Dy556 2.403 . S
O562 C564 1.254 . S
O563 Dy556 2.664 . S
O563 Dy559 2.310 . S
O563 C564 1.268 . S
C564 O562 1.254 . S
C564 O563 1.268 . S
C565 O570 1.254 . S
C565 O571 1.268 . S
O566 Dy559 2.351 . S
O566 C574 1.249 . S
O567 Dy556 2.326 . S
O567 C574 1.267 . S
O568 C557 1.185 . S
O568 Dy559 2.398 . S
O569 C557 1.355 . S
O569 Dy559 2.491 . S
O570 Dy559 2.403 . S
O570 C565 1.254 . S
O571 Dy556 2.310 . S
O571 Dy559 2.664 . S
O571 C565 1.268 . S
O572 Dy556 2.351 . S
O572 C575 1.249 . S
O573 Dy559 2.326 . S
O573 C575 1.267 . S
C574 O566 1.249 . S
C574 O567 1.267 . S
C575 O572 1.249 . S
C575 O573 1.267 . S
Dy576 O580 2.398 . S
Dy576 O581 2.491 . S
Dy576 O582 2.403 . S
Dy576 O583 2.664 . S
Dy576 O587 2.326 . S
Dy576 O591 2.310 . S
Dy576 O592 2.351 . S
C577 O588 1.185 . S
C577 O589 1.355 . S
C578 O580 1.185 . S
C578 O581 1.355 . S
Dy579 O583 2.310 . S
Dy579 O586 2.351 . S
Dy579 O588 2.398 . S
Dy579 O589 2.491 . S
Dy579 O590 2.403 . S
Dy579 O591 2.664 . S
Dy579 O593 2.326 . S
O580 Dy576 2.398 . S
O580 C578 1.185 . S
O581 Dy576 2.491 . S
O581 C578 1.355 . S
O582 Dy576 2.403 . S
O582 C584 1.254 . S
O583 Dy576 2.664 . S
O583 Dy579 2.310 . S
O583 C584 1.268 . S
C584 O582 1.254 . S
C584 O583 1.268 . S
C585 O590 1.254 . S
C585 O591 1.268 . S
O586 Dy579 2.351 . S
O586 C594 1.249 . S
O587 Dy576 2.326 . S
O587 C594 1.267 . S
O588 C577 1.185 . S
O588 Dy579 2.398 . S
O589 C577 1.355 . S
O589 Dy579 2.491 . S
O590 Dy579 2.403 . S
O590 C585 1.254 . S
O591 Dy576 2.310 . S
O591 Dy579 2.664 . S
O591 C585 1.268 . S
O592 Dy576 2.351 . S
O592 C595 1.249 . S
O593 Dy579 2.326 . S
O593 C595 1.267 . S
C594 O586 1.249 . S
C594 O587 1.267 . S
C595 O592 1.249 . S
C595 O593 1.267 . S
Dy596 O600 2.398 . S
Dy596 O601 2.491 . S
Dy596 O602 2.403 . S
Dy596 O603 2.664 . S
Dy596 O607 2.326 . S
Dy596 O611 2.310 . S
Dy596 O612 2.351 . S
C597 O608 1.185 . S
C597 O609 1.355 . S
C598 O600 1.185 . S
C598 O601 1.355 . S
Dy599 O603 2.310 . S
Dy599 O606 2.351 . S
Dy599 O608 2.398 . S
Dy599 O609 2.491 . S
Dy599 O610 2.403 . S
Dy599 O611 2.664 . S
Dy599 O613 2.326 . S
O600 Dy596 2.398 . S
O600 C598 1.185 . S
O601 Dy596 2.491 . S
O601 C598 1.355 . S
O602 Dy596 2.403 . S
O602 C604 1.254 . S
O603 Dy596 2.664 . S
O603 Dy599 2.310 . S
O603 C604 1.268 . S
C604 O602 1.254 . S
C604 O603 1.268 . S
C605 O610 1.254 . S
C605 O611 1.268 . S
O606 Dy599 2.351 . S
O606 C614 1.249 . S
O607 Dy596 2.326 . S
O607 C614 1.267 . S
O608 C597 1.185 . S
O608 Dy599 2.398 . S
O609 C597 1.355 . S
O609 Dy599 2.491 . S
O610 Dy599 2.403 . S
O610 C605 1.254 . S
O611 Dy596 2.310 . S
O611 Dy599 2.664 . S
O611 C605 1.268 . S
O612 Dy596 2.351 . S
O612 C615 1.249 . S
O613 Dy599 2.326 . S
O613 C615 1.267 . S
C614 O606 1.249 . S
C614 O607 1.267 . S
C615 O612 1.249 . S
C615 O613 1.267 . S
Dy616 O620 2.398 . S
Dy616 O621 2.491 . S
Dy616 O622 2.403 . S
Dy616 O623 2.664 . S
Dy616 O627 2.326 . S
Dy616 O631 2.310 . S
Dy616 O632 2.351 . S
C617 O628 1.185 . S
C617 O629 1.355 . S
C618 O620 1.185 . S
C618 O621 1.355 . S
Dy619 O623 2.310 . S
Dy619 O626 2.351 . S
Dy619 O628 2.398 . S
Dy619 O629 2.491 . S
Dy619 O630 2.403 . S
Dy619 O631 2.664 . S
Dy619 O633 2.326 . S
O620 Dy616 2.398 . S
O620 C618 1.185 . S
O621 Dy616 2.491 . S
O621 C618 1.355 . S
O622 Dy616 2.403 . S
O622 C624 1.254 . S
O623 Dy616 2.664 . S
O623 Dy619 2.310 . S
O623 C624 1.268 . S
C624 O622 1.254 . S
C624 O623 1.268 . S
C625 O630 1.254 . S
C625 O631 1.268 . S
O626 Dy619 2.351 . S
O626 C634 1.249 . S
O627 Dy616 2.326 . S
O627 C634 1.267 . S
O628 C617 1.185 . S
O628 Dy619 2.398 . S
O629 C617 1.355 . S
O629 Dy619 2.491 . S
O630 Dy619 2.403 . S
O630 C625 1.254 . S
O631 Dy616 2.310 . S
O631 Dy619 2.664 . S
O631 C625 1.268 . S
O632 Dy616 2.351 . S
O632 C635 1.249 . S
O633 Dy619 2.326 . S
O633 C635 1.267 . S
C634 O626 1.249 . S
C634 O627 1.267 . S
C635 O632 1.249 . S
C635 O633 1.267 . S
Dy636 O640 2.398 1_554 S
Dy636 O641 2.491 . S
Dy636 O642 2.403 1_554 S
Dy636 O643 2.673 1_554 S
Dy636 O647 2.326 1_554 S
Dy636 O651 2.310 . S
Dy636 O652 2.351 . S
C637 O648 1.185 . S
C637 O649 1.355 . S
C638 O640 1.185 . S
C638 O641 1.355 1_556 S
Dy639 O643 2.305 1_654 S
Dy639 O646 2.351 . S
Dy639 O648 2.398 . S
Dy639 O649 2.491 . S
Dy639 O650 2.403 . S
Dy639 O651 2.664 1_655 S
Dy639 O653 2.331 . S
O640 Dy636 2.398 1_556 S
O640 C638 1.185 . S
O641 Dy636 2.491 . S
O641 C638 1.355 1_554 S
O642 Dy636 2.403 1_556 S
O642 C644 1.254 . S
O643 Dy636 2.673 1_556 S
O643 Dy639 2.305 1_456 S
O643 C644 1.271 . S
C644 O642 1.254 . S
C644 O643 1.271 . S
C645 O650 1.254 1_455 S
C645 O651 1.268 . S
O646 Dy639 2.351 . S
O646 C654 1.249 1_654 S
O647 Dy636 2.326 1_556 S
O647 C654 1.267 . S
O648 C637 1.185 . S
O648 Dy639 2.398 . S
O649 C637 1.355 . S
O649 Dy639 2.491 . S
O650 Dy639 2.403 . S
O650 C645 1.254 1_655 S
O651 Dy636 2.310 . S
O651 Dy639 2.664 1_455 S
O651 C645 1.268 . S
O652 Dy636 2.351 . S
O652 C655 1.249 . S
O653 Dy639 2.331 . S
O653 C655 1.258 1_655 S
C654 O646 1.249 1_456 S
C654 O647 1.267 . S
C655 O652 1.249 . S
C655 O653 1.258 1_455 S
H656 C664 0.950 . S
H657 C669 0.950 . S
H658 C666 0.950 . S
H659 C668 0.950 . S
H660 C670 0.974 . S
H661 C672 0.950 . S
H662 C674 0.950 . S
H663 C675 0.950 . S
C664 H656 0.950 . S
C664 C665 1.389 1_455 S
C664 C666 1.391 . S
C665 C664 1.389 1_655 S
C665 C669 1.391 . S
C666 H658 0.950 . S
C666 C664 1.391 . S
C666 C667 1.400 . S
C667 C666 1.400 . S
C667 C668 1.398 1_455 S
C667 C673 1.491 . S
C668 H659 0.950 . S
C668 C667 1.398 1_655 S
C668 C669 1.391 . S
C669 H657 0.950 . S
C669 C665 1.391 . S
C669 C668 1.391 . S
C670 H660 0.974 . S
C670 C671 1.378 1_654 S
C670 C672 1.375 1_554 S
C671 C670 1.378 1_456 S
C671 C675 1.393 . S
C672 H661 0.950 . S
C672 C670 1.375 1_556 S
C672 C673 1.400 1_655 S
C673 C667 1.491 . S
C673 C672 1.400 1_455 S
C673 C674 1.398 . S
C674 H662 0.950 . S
C674 C673 1.398 . S
C674 C675 1.391 . S
C675 H663 0.950 . S
C675 C671 1.393 . S
C675 C674 1.391 . S
H676 C684 0.950 . S
H677 C689 0.950 . S
H678 C686 0.950 . S
H679 C688 0.950 . S
H680 C690 0.950 . S
H681 C692 0.950 . S
H682 C694 0.950 . S
H683 C695 0.950 . S
C684 H676 0.950 . S
C684 C685 1.386 . S
C684 C686 1.391 . S
C685 C684 1.386 . S
C685 C689 1.393 . S
C686 H678 0.950 . S
C686 C684 1.391 . S
C686 C687 1.400 . S
C687 C686 1.400 . S
C687 C688 1.398 . S
C687 C693 1.491 . S
C688 H679 0.950 . S
C688 C687 1.398 . S
C688 C689 1.391 . S
C689 H677 0.950 . S
C689 C685 1.393 . S
C689 C688 1.391 . S
C690 H680 0.950 . S
C690 C691 1.386 . S
C690 C692 1.391 . S
C691 C690 1.386 . S
C691 C695 1.393 . S
C692 H681 0.950 . S
C692 C690 1.391 . S
C692 C693 1.400 . S
C693 C687 1.491 . S
C693 C692 1.400 . S
C693 C694 1.398 . S
C694 H682 0.950 . S
C694 C693 1.398 . S
C694 C695 1.391 . S
C695 H683 0.950 . S
C695 C691 1.393 . S
C695 C694 1.391 . S
H696 C704 0.950 . S
H697 C709 0.950 . S
H698 C706 0.950 . S
H699 C708 0.950 . S
H700 C710 0.950 . S
H701 C712 0.950 . S
H702 C714 0.950 . S
H703 C715 0.950 . S
C704 H696 0.950 . S
C704 C705 1.386 . S
C704 C706 1.391 . S
C705 C704 1.386 . S
C705 C709 1.393 . S
C706 H698 0.950 . S
C706 C704 1.391 . S
C706 C707 1.400 . S
C707 C706 1.400 . S
C707 C708 1.398 . S
C707 C713 1.491 . S
C708 H699 0.950 . S
C708 C707 1.398 . S
C708 C709 1.391 . S
C709 H697 0.950 . S
C709 C705 1.393 . S
C709 C708 1.391 . S
C710 H700 0.950 . S
C710 C711 1.386 . S
C710 C712 1.391 . S
C711 C710 1.386 . S
C711 C715 1.393 . S
C712 H701 0.950 . S
C712 C710 1.391 . S
C712 C713 1.400 . S
C713 C707 1.491 . S
C713 C712 1.400 . S
C713 C714 1.398 . S
C714 H702 0.950 . S
C714 C713 1.398 . S
C714 C715 1.391 . S
C715 H703 0.950 . S
C715 C711 1.393 . S
C715 C714 1.391 . S
H716 C724 0.950 . S
H717 C729 0.950 . S
H718 C726 0.950 . S
H719 C728 0.950 . S
H720 C730 0.950 . S
H721 C732 0.950 . S
H722 C734 0.950 . S
H723 C735 0.950 . S
C724 H716 0.950 . S
C724 C725 1.386 . S
C724 C726 1.391 . S
C725 C724 1.386 . S
C725 C729 1.393 . S
C726 H718 0.950 . S
C726 C724 1.391 . S
C726 C727 1.400 . S
C727 C726 1.400 . S
C727 C728 1.398 . S
C727 C733 1.491 . S
C728 H719 0.950 . S
C728 C727 1.398 . S
C728 C729 1.391 . S
C729 H717 0.950 . S
C729 C725 1.393 . S
C729 C728 1.391 . S
C730 H720 0.950 . S
C730 C731 1.386 . S
C730 C732 1.391 . S
C731 C730 1.386 . S
C731 C735 1.393 . S
C732 H721 0.950 . S
C732 C730 1.391 . S
C732 C733 1.400 . S
C733 C727 1.491 . S
C733 C732 1.400 . S
C733 C734 1.398 . S
C734 H722 0.950 . S
C734 C733 1.398 . S
C734 C735 1.391 . S
C735 H723 0.950 . S
C735 C731 1.393 . S
C735 C734 1.391 . S
H736 C744 0.950 . S
H737 C749 0.950 . S
H738 C746 0.950 . S
H739 C748 0.950 . S
H740 C750 0.950 1_655 S
H741 C752 0.950 1_655 S
H742 C754 0.950 . S
H743 C755 0.950 . S
C744 H736 0.950 . S
C744 C745 1.386 . S
C744 C746 1.391 . S
C745 C744 1.386 . S
C745 C749 1.393 1_455 S
C746 H738 0.950 . S
C746 C744 1.391 . S
C746 C747 1.400 . S
C747 C746 1.400 . S
C747 C748 1.398 1_455 S
C747 C753 1.491 . S
C748 H739 0.950 . S
C748 C747 1.398 1_655 S
C748 C749 1.391 . S
C749 H737 0.950 . S
C749 C745 1.393 1_655 S
C749 C748 1.391 . S
C750 H740 0.950 1_455 S
C750 C751 1.386 . S
C750 C752 1.391 . S
C751 C750 1.386 . S
C751 C755 1.393 . S
C752 H741 0.950 1_455 S
C752 C750 1.391 . S
C752 C753 1.400 . S
C753 C747 1.491 . S
C753 C752 1.400 . S
C753 C754 1.398 . S
C754 H742 0.950 . S
C754 C753 1.398 . S
C754 C755 1.391 . S
C755 H743 0.950 . S
C755 C751 1.393 . S
C755 C754 1.391 . S
H756 C764 0.950 . S
H757 C769 0.950 . S
H758 C766 0.950 . S
H759 C768 0.950 . S
H760 C770 0.950 . S
H761 C772 0.950 . S
H762 C774 0.950 . S
H763 C775 0.950 . S
C764 H756 0.950 . S
C764 C765 1.386 . S
C764 C766 1.391 . S
C765 C764 1.386 . S
C765 C769 1.393 . S
C766 H758 0.950 . S
C766 C764 1.391 . S
C766 C767 1.400 . S
C767 C766 1.400 . S
C767 C768 1.398 . S
C767 C773 1.491 . S
C768 H759 0.950 . S
C768 C767 1.398 . S
C768 C769 1.391 . S
C769 H757 0.950 . S
C769 C765 1.393 . S
C769 C768 1.391 . S
C770 H760 0.950 . S
C770 C771 1.386 . S
C770 C772 1.391 . S
C771 C770 1.386 . S
C771 C775 1.393 . S
C772 H761 0.950 . S
C772 C770 1.391 . S
C772 C773 1.400 . S
C773 C767 1.491 . S
C773 C772 1.400 . S
C773 C774 1.398 . S
C774 H762 0.950 . S
C774 C773 1.398 . S
C774 C775 1.391 . S
C775 H763 0.950 . S
C775 C771 1.393 . S
C775 C774 1.391 . S
H776 C784 0.950 . S
H777 C789 0.950 . S
H778 C786 0.950 . S
H779 C788 0.950 . S
H780 C790 0.950 . S
H781 C792 0.950 . S
H782 C794 0.950 . S
H783 C795 0.950 . S
C784 H776 0.950 . S
C784 C785 1.386 . S
C784 C786 1.391 . S
C785 C784 1.386 . S
C785 C789 1.393 . S
C786 H778 0.950 . S
C786 C784 1.391 . S
C786 C787 1.400 . S
C787 C786 1.400 . S
C787 C788 1.398 . S
C787 C793 1.491 . S
C788 H779 0.950 . S
C788 C787 1.398 . S
C788 C789 1.391 . S
C789 H777 0.950 . S
C789 C785 1.393 . S
C789 C788 1.391 . S
C790 H780 0.950 . S
C790 C791 1.386 . S
C790 C792 1.391 . S
C791 C790 1.386 . S
C791 C795 1.393 . S
C792 H781 0.950 . S
C792 C790 1.391 . S
C792 C793 1.400 . S
C793 C787 1.491 . S
C793 C792 1.400 . S
C793 C794 1.398 . S
C794 H782 0.950 . S
C794 C793 1.398 . S
C794 C795 1.391 . S
C795 H783 0.950 . S
C795 C791 1.393 . S
C795 C794 1.391 . S
H796 C804 0.950 . S
H797 C809 0.950 . S
H798 C806 0.950 . S
H799 C808 0.950 . S
H800 C810 0.950 . S
H801 C812 0.950 . S
H802 C814 0.950 . S
H803 C815 0.950 . S
C804 H796 0.950 . S
C804 C805 1.386 . S
C804 C806 1.391 . S
C805 C804 1.386 . S
C805 C809 1.393 . S
C806 H798 0.950 . S
C806 C804 1.391 . S
C806 C807 1.400 . S
C807 C806 1.400 . S
C807 C808 1.398 . S
C807 C813 1.491 . S
C808 H799 0.950 . S
C808 C807 1.398 . S
C808 C809 1.391 . S
C809 H797 0.950 . S
C809 C805 1.393 . S
C809 C808 1.391 . S
C810 H800 0.950 . S
C810 C811 1.386 . S
C810 C812 1.391 . S
C811 C810 1.386 . S
C811 C815 1.393 . S
C812 H801 0.950 . S
C812 C810 1.391 . S
C812 C813 1.400 . S
C813 C807 1.491 . S
C813 C812 1.400 . S
C813 C814 1.398 . S
C814 H802 0.950 . S
C814 C813 1.398 . S
C814 C815 1.391 . S
C815 H803 0.950 . S
C815 C811 1.393 . S
C815 C814 1.391 . S
H816 C824 0.950 . S
H817 C829 0.950 . S
H818 C826 0.950 . S
H819 C828 0.950 . S
H820 C830 0.950 . S
H821 C832 0.950 . S
H822 C834 0.950 . S
H823 C835 0.950 . S
C824 H816 0.950 . S
C824 C825 1.386 . S
C824 C826 1.391 . S
C825 C824 1.386 . S
C825 C829 1.393 . S
C826 H818 0.950 . S
C826 C824 1.391 . S
C826 C827 1.400 . S
C827 C826 1.400 . S
C827 C828 1.398 . S
C827 C833 1.491 . S
C828 H819 0.950 . S
C828 C827 1.398 . S
C828 C829 1.391 . S
C829 H817 0.950 . S
C829 C825 1.393 . S
C829 C828 1.391 . S
C830 H820 0.950 . S
C830 C831 1.386 1_455 S
C830 C832 1.391 1_455 S
C831 C830 1.386 1_655 S
C831 C835 1.393 . S
C832 H821 0.950 . S
C832 C830 1.391 1_655 S
C832 C833 1.400 . S
C833 C827 1.491 . S
C833 C832 1.400 . S
C833 C834 1.398 . S
C834 H822 0.950 . S
C834 C833 1.398 . S
C834 C835 1.391 . S
C835 H823 0.950 . S
C835 C831 1.393 . S
C835 C834 1.391 . S
H836 C844 0.950 . S
H837 C849 0.950 . S
H838 C846 0.950 . S
H839 C848 0.950 . S
H840 C850 0.950 . S
H841 C852 0.950 . S
H842 C854 0.950 . S
H843 C855 0.950 . S
C844 H836 0.950 . S
C844 C845 1.386 . S
C844 C846 1.391 . S
C845 C844 1.386 . S
C845 C849 1.393 . S
C846 H838 0.950 . S
C846 C844 1.391 . S
C846 C847 1.400 . S
C847 C846 1.400 . S
C847 C848 1.398 . S
C847 C853 1.491 . S
C848 H839 0.950 . S
C848 C847 1.398 . S
C848 C849 1.391 . S
C849 H837 0.950 . S
C849 C845 1.393 . S
C849 C848 1.391 . S
C850 H840 0.950 . S
C850 C851 1.386 . S
C850 C852 1.391 . S
C851 C850 1.386 . S
C851 C855 1.393 . S
C852 H841 0.950 . S
C852 C850 1.391 . S
C852 C853 1.400 . S
C853 C847 1.491 . S
C853 C852 1.400 . S
C853 C854 1.398 . S
C854 H842 0.950 . S
C854 C853 1.398 . S
C854 C855 1.391 . S
C855 H843 0.950 . S
C855 C851 1.393 . S
C855 C854 1.391 . S
H856 C864 0.950 . S
H857 C869 0.950 1_565 S
H858 C866 0.950 . S
H859 C868 0.950 1_565 S
H860 C870 0.934 1_565 S
H861 C872 0.950 1_565 S
H862 C874 0.950 . S
H863 C875 0.950 . S
C864 H856 0.950 . S
C864 C865 1.386 . S
C864 C866 1.391 . S
C865 C864 1.386 . S
C865 C869 1.393 . S
C866 H858 0.950 . S
C866 C864 1.391 . S
C866 C867 1.400 . S
C867 C866 1.400 . S
C867 C868 1.398 . S
C867 C873 1.491 . S
C868 H859 0.950 1_545 S
C868 C867 1.398 . S
C868 C869 1.391 . S
C869 H857 0.950 1_545 S
C869 C865 1.393 . S
C869 C868 1.391 . S
C870 H860 0.934 1_545 S
C870 C871 1.405 . S
C870 C872 1.388 . S
C871 C870 1.405 . S
C871 C875 1.393 . S
C872 H861 0.950 1_545 S
C872 C870 1.388 . S
C872 C873 1.400 . S
C873 C867 1.491 . S
C873 C872 1.400 . S
C873 C874 1.398 . S
C874 H862 0.950 . S
C874 C873 1.398 . S
C874 C875 1.391 . S
C875 H863 0.950 . S
C875 C871 1.393 . S
C875 C874 1.391 . S
H876 C884 0.950 . S
H877 C889 0.950 . S
H878 C886 0.950 . S
H879 C888 0.950 . S
H880 C890 0.950 . S
H881 C892 0.950 . S
H882 C894 0.950 . S
H883 C895 0.950 . S
C884 H876 0.950 . S
C884 C885 1.386 . S
C884 C886 1.391 . S
C885 C884 1.386 . S
C885 C889 1.393 . S
C886 H878 0.950 . S
C886 C884 1.391 . S
C886 C887 1.400 . S
C887 C886 1.400 . S
C887 C888 1.398 . S
C887 C893 1.491 . S
C888 H879 0.950 . S
C888 C887 1.398 . S
C888 C889 1.391 . S
C889 H877 0.950 . S
C889 C885 1.393 . S
C889 C888 1.391 . S
C890 H880 0.950 . S
C890 C891 1.386 . S
C890 C892 1.391 . S
C891 C890 1.386 . S
C891 C895 1.393 . S
C892 H881 0.950 . S
C892 C890 1.391 . S
C892 C893 1.400 . S
C893 C887 1.491 . S
C893 C892 1.400 . S
C893 C894 1.398 . S
C894 H882 0.950 . S
C894 C893 1.398 . S
C894 C895 1.391 . S
C895 H883 0.950 . S
C895 C891 1.393 . S
C895 C894 1.391 . S
H896 C904 0.950 . S
H897 C909 0.950 . S
H898 C906 0.950 . S
H899 C908 0.950 . S
H900 C910 0.950 1_565 S
H901 C912 0.947 1_565 S
H902 C914 0.950 . S
H903 C915 0.950 1_455 S
C904 H896 0.950 . S
C904 C905 1.386 . S
C904 C906 1.391 . S
C905 C904 1.386 . S
C905 C909 1.393 . S
C906 H898 0.950 . S
C906 C904 1.391 . S
C906 C907 1.400 . S
C907 C906 1.400 . S
C907 C908 1.398 . S
C907 C913 1.491 . S
C908 H899 0.950 . S
C908 C907 1.398 . S
C908 C909 1.391 . S
C909 H897 0.950 . S
C909 C905 1.393 . S
C909 C908 1.391 . S
C910 H900 0.950 1_545 S
C910 C911 1.386 . S
C910 C912 1.391 . S
C911 C910 1.386 . S
C911 C915 1.393 . S
C912 H901 0.947 1_545 S
C912 C910 1.391 . S
C912 C913 1.400 . S
C913 C907 1.491 . S
C913 C912 1.400 . S
C913 C914 1.398 . S
C914 H902 0.950 . S
C914 C913 1.398 . S
C914 C915 1.391 . S
C915 H903 0.950 1_655 S
C915 C911 1.393 . S
C915 C914 1.391 . S
H916 C924 0.950 . S
H917 C929 0.950 . S
H918 C926 0.950 . S
H919 C928 0.950 . S
H920 C930 0.950 . S
H921 C932 0.950 . S
H922 C934 0.950 . S
H923 C935 0.950 . S
C924 H916 0.950 . S
C924 C925 1.386 . S
C924 C926 1.391 . S
C925 C924 1.386 . S
C925 C929 1.393 . S
C926 H918 0.950 . S
C926 C924 1.391 . S
C926 C927 1.400 . S
C927 C926 1.400 . S
C927 C928 1.398 . S
C927 C933 1.491 . S
C928 H919 0.950 . S
C928 C927 1.398 . S
C928 C929 1.391 . S
C929 H917 0.950 . S
C929 C925 1.393 . S
C929 C928 1.391 . S
C930 H920 0.950 . S
C930 C931 1.386 . S
C930 C932 1.391 . S
C931 C930 1.386 . S
C931 C935 1.393 . S
C932 H921 0.950 . S
C932 C930 1.391 . S
C932 C933 1.400 . S
C933 C927 1.491 . S
C933 C932 1.400 . S
C933 C934 1.398 . S
C934 H922 0.950 . S
C934 C933 1.398 . S
C934 C935 1.391 . S
C935 H923 0.950 . S
C935 C931 1.393 . S
C935 C934 1.391 . S
H936 C944 0.950 . S
H937 C949 0.950 . S
H938 C946 0.950 . S
H939 C948 0.950 . S
H940 C950 0.950 . S
H941 C952 0.950 . S
H942 C954 0.950 . S
H943 C955 0.950 . S
C944 H936 0.950 . S
C944 C945 1.386 . S
C944 C946 1.391 . S
C945 C944 1.386 . S
C945 C949 1.393 . S
C946 H938 0.950 . S
C946 C944 1.391 . S
C946 C947 1.400 . S
C947 C946 1.400 . S
C947 C948 1.398 . S
C947 C953 1.491 . S
C948 H939 0.950 . S
C948 C947 1.398 . S
C948 C949 1.391 . S
C949 H937 0.950 . S
C949 C945 1.393 . S
C949 C948 1.391 . S
C950 H940 0.950 . S
C950 C951 1.386 . S
C950 C952 1.391 . S
C951 C950 1.386 . S
C951 C955 1.393 . S
C952 H941 0.950 . S
C952 C950 1.391 . S
C952 C953 1.400 . S
C953 C947 1.491 . S
C953 C952 1.400 . S
C953 C954 1.398 . S
C954 H942 0.950 . S
C954 C953 1.398 . S
C954 C955 1.391 . S
C955 H943 0.950 . S
C955 C951 1.393 . S
C955 C954 1.391 . S
H956 C964 0.950 . S
H957 C969 0.950 . S
H958 C966 0.950 . S
H959 C968 0.950 . S
H960 C970 0.950 . S
H961 C972 0.950 . S
H962 C974 0.950 . S
H963 C975 0.950 . S
C964 H956 0.950 . S
C964 C965 1.386 . S
C964 C966 1.391 . S
C965 C964 1.386 . S
C965 C969 1.393 . S
C966 H958 0.950 . S
C966 C964 1.391 . S
C966 C967 1.400 . S
C967 C966 1.400 . S
C967 C968 1.398 . S
C967 C973 1.491 . S
C968 H959 0.950 . S
C968 C967 1.398 . S
C968 C969 1.391 . S
C969 H957 0.950 . S
C969 C965 1.393 . S
C969 C968 1.391 . S
C970 H960 0.950 . S
C970 C971 1.386 . S
C970 C972 1.391 . S
C971 C970 1.386 . S
C971 C975 1.393 . S
C972 H961 0.950 . S
C972 C970 1.391 . S
C972 C973 1.400 . S
C973 C967 1.491 . S
C973 C972 1.400 . S
C973 C974 1.398 . S
C974 H962 0.950 . S
C974 C973 1.398 . S
C974 C975 1.391 . S
C975 H963 0.950 . S
C975 C971 1.393 . S
C975 C974 1.391 . S
H976 C984 0.950 . S
H977 C989 0.950 . S
H978 C986 0.950 . S
H979 C988 0.950 . S
H980 C990 0.950 . S
H981 C992 0.950 1_545 S
H982 C994 0.950 . S
H983 C995 0.950 . S
C984 H976 0.950 . S
C984 C985 1.386 . S
C984 C986 1.391 . S
C985 C984 1.386 . S
C985 C989 1.393 . S
C986 H978 0.950 . S
C986 C984 1.391 . S
C986 C987 1.400 . S
C987 C986 1.400 . S
C987 C988 1.398 . S
C987 C993 1.491 . S
C988 H979 0.950 . S
C988 C987 1.398 . S
C988 C989 1.391 . S
C989 H977 0.950 . S
C989 C985 1.393 . S
C989 C988 1.391 . S
C990 H980 0.950 . S
C990 C991 1.386 1_545 S
C990 C992 1.391 1_545 S
C991 C990 1.386 1_565 S
C991 C995 1.393 . S
C992 H981 0.950 1_565 S
C992 C990 1.391 1_565 S
C992 C993 1.400 . S
C993 C987 1.491 . S
C993 C992 1.400 . S
C993 C994 1.398 . S
C994 H982 0.950 . S
C994 C993 1.398 . S
C994 C995 1.391 . S
C995 H983 0.950 . S
C995 C991 1.393 . S
C995 C994 1.391 . S
H996 C1004 0.950 . S
H997 C1009 0.950 . S
H998 C1006 0.950 . S
H999 C1008 0.950 . S
H1000 C1010 0.950 . S
H1001 C1012 0.950 . S
H1002 C1014 0.950 . S
H1003 C1015 0.950 . S
C1004 H996 0.950 . S
C1004 C1005 1.386 1_556 S
C1004 C1006 1.391 . S
C1005 C1004 1.386 1_554 S
C1005 C1009 1.393 . S
C1006 H998 0.950 . S
C1006 C1004 1.391 . S
C1006 C1007 1.400 1_556 S
C1007 C1006 1.400 1_554 S
C1007 C1008 1.398 . S
C1007 C1013 1.491 . S
C1008 H999 0.950 . S
C1008 C1007 1.398 . S
C1008 C1009 1.391 . S
C1009 H997 0.950 . S
C1009 C1005 1.393 . S
C1009 C1008 1.391 . S
C1010 H1000 0.950 . S
C1010 C1011 1.386 . S
C1010 C1012 1.391 . S
C1011 C1010 1.386 . S
C1011 C1015 1.393 1_554 S
C1012 H1001 0.950 . S
C1012 C1010 1.391 . S
C1012 C1013 1.400 . S
C1013 C1007 1.491 . S
C1013 C1012 1.400 . S
C1013 C1014 1.398 1_554 S
C1014 H1002 0.950 . S
C1014 C1013 1.398 1_556 S
C1014 C1015 1.391 . S
C1015 H1003 0.950 . S
C1015 C1011 1.393 1_556 S
C1015 C1014 1.391 . S
H1016 C1024 0.950 . S
H1017 C1029 0.950 . S
H1018 C1026 0.950 . S
H1019 C1028 0.950 . S
H1020 C1030 0.950 . S
H1021 C1032 0.950 . S
H1022 C1034 0.950 . S
H1023 C1035 0.950 . S
C1024 H1016 0.950 . S
C1024 C1025 1.386 . S
C1024 C1026 1.391 . S
C1025 C1024 1.386 . S
C1025 C1029 1.393 . S
C1026 H1018 0.950 . S
C1026 C1024 1.391 . S
C1026 C1027 1.400 . S
C1027 C1026 1.400 . S
C1027 C1028 1.398 . S
C1027 C1033 1.491 . S
C1028 H1019 0.950 . S
C1028 C1027 1.398 . S
C1028 C1029 1.391 . S
C1029 H1017 0.950 . S
C1029 C1025 1.393 . S
C1029 C1028 1.391 . S
C1030 H1020 0.950 . S
C1030 C1031 1.386 . S
C1030 C1032 1.391 . S
C1031 C1030 1.386 . S
C1031 C1035 1.393 . S
C1032 H1021 0.950 . S
C1032 C1030 1.391 . S
C1032 C1033 1.400 . S
C1033 C1027 1.491 . S
C1033 C1032 1.400 . S
C1033 C1034 1.398 . S
C1034 H1022 0.950 . S
C1034 C1033 1.398 . S
C1034 C1035 1.391 . S
C1035 H1023 0.950 . S
C1035 C1031 1.393 . S
C1035 C1034 1.391 . S
H1036 C1044 0.950 . S
H1037 C1049 0.950 . S
H1038 C1046 0.950 . S
H1039 C1048 0.950 . S
H1040 C1050 0.950 . S
H1041 C1052 0.950 . S
H1042 C1054 0.950 . S
H1043 C1055 0.950 . S
C1044 H1036 0.950 . S
C1044 C1045 1.386 . S
C1044 C1046 1.391 . S
C1045 C1044 1.386 . S
C1045 C1049 1.393 . S
C1046 H1038 0.950 . S
C1046 C1044 1.391 . S
C1046 C1047 1.400 . S
C1047 C1046 1.400 . S
C1047 C1048 1.398 . S
C1047 C1053 1.491 . S
C1048 H1039 0.950 . S
C1048 C1047 1.398 . S
C1048 C1049 1.391 . S
C1049 H1037 0.950 . S
C1049 C1045 1.393 . S
C1049 C1048 1.391 . S
C1050 H1040 0.950 . S
C1050 C1051 1.386 . S
C1050 C1052 1.391 . S
C1051 C1050 1.386 . S
C1051 C1055 1.393 . S
C1052 H1041 0.950 . S
C1052 C1050 1.391 . S
C1052 C1053 1.400 . S
C1053 C1047 1.491 . S
C1053 C1052 1.400 . S
C1053 C1054 1.398 . S
C1054 H1042 0.950 . S
C1054 C1053 1.398 . S
C1054 C1055 1.391 . S
C1055 H1043 0.950 . S
C1055 C1051 1.393 . S
C1055 C1054 1.391 . S
H1056 C1064 0.950 . S
H1057 C1069 0.950 . S
H1058 C1066 0.950 . S
H1059 C1068 0.950 . S
H1060 C1070 0.950 . S
H1061 C1072 0.950 . S
H1062 C1074 0.950 . S
H1063 C1075 0.950 . S
C1064 H1056 0.950 . S
C1064 C1065 1.386 . S
C1064 C1066 1.391 . S
C1065 C1064 1.386 . S
C1065 C1069 1.393 . S
C1066 H1058 0.950 . S
C1066 C1064 1.391 . S
C1066 C1067 1.400 . S
C1067 C1066 1.400 . S
C1067 C1068 1.398 . S
C1067 C1073 1.491 . S
C1068 H1059 0.950 . S
C1068 C1067 1.398 . S
C1068 C1069 1.391 . S
C1069 H1057 0.950 . S
C1069 C1065 1.393 . S
C1069 C1068 1.391 . S
C1070 H1060 0.950 . S
C1070 C1071 1.386 . S
C1070 C1072 1.391 . S
C1071 C1070 1.386 . S
C1071 C1075 1.393 . S
C1072 H1061 0.950 . S
C1072 C1070 1.391 . S
C1072 C1073 1.400 . S
C1073 C1067 1.491 . S
C1073 C1072 1.400 . S
C1073 C1074 1.398 . S
C1074 H1062 0.950 . S
C1074 C1073 1.398 . S
C1074 C1075 1.391 . S
C1075 H1063 0.950 . S
C1075 C1071 1.393 . S
C1075 C1074 1.391 . S
H1076 C1084 0.950 . S
H1077 C1089 0.950 . S
H1078 C1086 0.950 . S
H1079 C1088 0.950 . S
H1080 C1090 0.950 . S
H1081 C1092 0.950 . S
H1082 C1094 0.950 . S
H1083 C1095 0.950 . S
C1084 H1076 0.950 . S
C1084 C1085 1.386 . S
C1084 C1086 1.391 . S
C1085 C1084 1.386 . S
C1085 C1089 1.393 . S
C1086 H1078 0.950 . S
C1086 C1084 1.391 . S
C1086 C1087 1.400 . S
C1087 C1086 1.400 . S
C1087 C1088 1.398 . S
C1087 C1093 1.491 . S
C1088 H1079 0.950 . S
C1088 C1087 1.398 . S
C1088 C1089 1.391 . S
C1089 H1077 0.950 . S
C1089 C1085 1.393 . S
C1089 C1088 1.391 . S
C1090 H1080 0.950 . S
C1090 C1091 1.386 . S
C1090 C1092 1.391 . S
C1091 C1090 1.386 . S
C1091 C1095 1.393 . S
C1092 H1081 0.950 . S
C1092 C1090 1.391 . S
C1092 C1093 1.400 . S
C1093 C1087 1.491 . S
C1093 C1092 1.400 . S
C1093 C1094 1.398 . S
C1094 H1082 0.950 . S
C1094 C1093 1.398 . S
C1094 C1095 1.391 . S
C1095 H1083 0.950 . S
C1095 C1091 1.393 . S
C1095 C1094 1.391 . S
H1096 C1104 0.950 . S
H1097 C1109 0.950 . S
H1098 C1106 0.950 . S
H1099 C1108 0.950 . S
H1100 C1110 0.950 . S
H1101 C1112 0.950 . S
H1102 C1114 0.950 . S
H1103 C1115 0.950 . S
C1104 H1096 0.950 . S
C1104 C1105 1.386 . S
C1104 C1106 1.391 . S
C1105 C1104 1.386 . S
C1105 C1109 1.393 . S
C1106 H1098 0.950 . S
C1106 C1104 1.391 . S
C1106 C1107 1.400 . S
C1107 C1106 1.400 . S
C1107 C1108 1.398 . S
C1107 C1113 1.491 . S
C1108 H1099 0.950 . S
C1108 C1107 1.398 . S
C1108 C1109 1.391 . S
C1109 H1097 0.950 . S
C1109 C1105 1.393 . S
C1109 C1108 1.391 . S
C1110 H1100 0.950 . S
C1110 C1111 1.386 . S
C1110 C1112 1.391 . S
C1111 C1110 1.386 . S
C1111 C1115 1.393 . S
C1112 H1101 0.950 . S
C1112 C1110 1.391 . S
C1112 C1113 1.400 . S
C1113 C1107 1.491 . S
C1113 C1112 1.400 . S
C1113 C1114 1.398 . S
C1114 H1102 0.950 . S
C1114 C1113 1.398 . S
C1114 C1115 1.391 . S
C1115 H1103 0.950 . S
C1115 C1111 1.393 . S
C1115 C1114 1.391 . S
H1116 C1124 0.950 . S
H1117 C1129 0.950 . S
H1118 C1126 0.950 . S
H1119 C1128 0.950 . S
H1120 C1130 0.950 . S
H1121 C1132 0.950 . S
H1122 C1134 0.950 . S
H1123 C1135 0.950 . S
C1124 H1116 0.950 . S
C1124 C1125 1.386 . S
C1124 C1126 1.391 . S
C1125 C1124 1.386 . S
C1125 C1129 1.393 . S
C1126 H1118 0.950 . S
C1126 C1124 1.391 . S
C1126 C1127 1.400 . S
C1127 C1126 1.400 . S
C1127 C1128 1.398 . S
C1127 C1133 1.491 . S
C1128 H1119 0.950 . S
C1128 C1127 1.398 . S
C1128 C1129 1.391 . S
C1129 H1117 0.950 . S
C1129 C1125 1.393 . S
C1129 C1128 1.391 . S
C1130 H1120 0.950 . S
C1130 C1131 1.386 . S
C1130 C1132 1.391 . S
C1131 C1130 1.386 . S
C1131 C1135 1.393 . S
C1132 H1121 0.950 . S
C1132 C1130 1.391 . S
C1132 C1133 1.400 . S
C1133 C1127 1.491 . S
C1133 C1132 1.400 . S
C1133 C1134 1.398 . S
C1134 H1122 0.950 . S
C1134 C1133 1.398 . S
C1134 C1135 1.391 . S
C1135 H1123 0.950 . S
C1135 C1131 1.393 . S
C1135 C1134 1.391 . S
H1136 C1144 0.950 . S
H1137 C1149 0.950 . S
H1138 C1146 0.950 . S
H1139 C1148 0.950 . S
H1140 C1150 0.950 . S
H1141 C1152 0.950 . S
H1142 C1154 0.950 . S
H1143 C1155 0.950 1_655 S
C1144 H1136 0.950 . S
C1144 C1145 1.386 . S
C1144 C1146 1.391 . S
C1145 C1144 1.386 . S
C1145 C1149 1.393 . S
C1146 H1138 0.950 . S
C1146 C1144 1.391 . S
C1146 C1147 1.400 . S
C1147 C1146 1.400 . S
C1147 C1148 1.398 . S
C1147 C1153 1.491 . S
C1148 H1139 0.950 . S
C1148 C1147 1.398 . S
C1148 C1149 1.391 . S
C1149 H1137 0.950 . S
C1149 C1145 1.393 . S
C1149 C1148 1.391 . S
C1150 H1140 0.950 . S
C1150 C1151 1.386 . S
C1150 C1152 1.391 . S
C1151 C1150 1.386 . S
C1151 C1155 1.393 . S
C1152 H1141 0.950 . S
C1152 C1150 1.391 . S
C1152 C1153 1.400 . S
C1153 C1147 1.491 . S
C1153 C1152 1.400 . S
C1153 C1154 1.398 . S
C1154 H1142 0.950 . S
C1154 C1153 1.398 . S
C1154 C1155 1.391 . S
C1155 H1143 0.950 1_455 S
C1155 C1151 1.393 . S
C1155 C1154 1.391 . S
H1156 C1164 0.950 . S
H1157 C1169 0.950 . S
H1158 C1166 0.950 . S
H1159 C1168 0.950 . S
H1160 C1170 0.950 . S
H1161 C1172 0.950 . S
H1162 C1174 0.950 . S
H1163 C1175 0.950 . S
C1164 H1156 0.950 . S
C1164 C1165 1.386 . S
C1164 C1166 1.391 . S
C1165 C1164 1.386 . S
C1165 C1169 1.393 . S
C1166 H1158 0.950 . S
C1166 C1164 1.391 . S
C1166 C1167 1.400 . S
C1167 C1166 1.400 . S
C1167 C1168 1.398 . S
C1167 C1173 1.491 . S
C1168 H1159 0.950 . S
C1168 C1167 1.398 . S
C1168 C1169 1.391 . S
C1169 H1157 0.950 . S
C1169 C1165 1.393 . S
C1169 C1168 1.391 . S
C1170 H1160 0.950 . S
C1170 C1171 1.386 . S
C1170 C1172 1.391 . S
C1171 C1170 1.386 . S
C1171 C1175 1.393 . S
C1172 H1161 0.950 . S
C1172 C1170 1.391 . S
C1172 C1173 1.400 . S
C1173 C1167 1.491 . S
C1173 C1172 1.400 . S
C1173 C1174 1.398 . S
C1174 H1162 0.950 . S
C1174 C1173 1.398 . S
C1174 C1175 1.391 . S
C1175 H1163 0.950 . S
C1175 C1171 1.393 . S
C1175 C1174 1.391 . S
H1176 C1184 0.950 . S
H1177 C1189 0.950 . S
H1178 C1186 0.950 . S
H1179 C1188 0.950 . S
H1180 C1190 0.950 . S
H1181 C1192 0.950 . S
H1182 C1194 0.950 . S
H1183 C1195 0.950 . S
C1184 H1176 0.950 . S
C1184 C1185 1.386 . S
C1184 C1186 1.391 . S
C1185 C1184 1.386 . S
C1185 C1189 1.393 . S
C1186 H1178 0.950 . S
C1186 C1184 1.391 . S
C1186 C1187 1.400 . S
C1187 C1186 1.400 . S
C1187 C1188 1.398 . S
C1187 C1193 1.491 . S
C1188 H1179 0.950 . S
C1188 C1187 1.398 . S
C1188 C1189 1.391 . S
C1189 H1177 0.950 . S
C1189 C1185 1.393 . S
C1189 C1188 1.391 . S
C1190 H1180 0.950 . S
C1190 C1191 1.386 . S
C1190 C1192 1.391 . S
C1191 C1190 1.386 . S
C1191 C1195 1.393 . S
C1192 H1181 0.950 . S
C1192 C1190 1.391 . S
C1192 C1193 1.400 . S
C1193 C1187 1.491 . S
C1193 C1192 1.400 . S
C1193 C1194 1.398 . S
C1194 H1182 0.950 . S
C1194 C1193 1.398 . S
C1194 C1195 1.391 . S
C1195 H1183 0.950 . S
C1195 C1191 1.393 . S
C1195 C1194 1.391 . S
H1196 C1204 0.950 . S
H1197 C1209 0.950 . S
H1198 C1206 0.950 . S
H1199 C1208 0.950 . S
H1200 C1210 0.950 . S
H1201 C1212 0.950 . S
H1202 C1214 0.950 . S
H1203 C1215 0.950 . S
C1204 H1196 0.950 . S
C1204 C1205 1.386 . S
C1204 C1206 1.391 . S
C1205 C1204 1.386 . S
C1205 C1209 1.393 . S
C1206 H1198 0.950 . S
C1206 C1204 1.391 . S
C1206 C1207 1.400 . S
C1207 C1206 1.400 . S
C1207 C1208 1.398 . S
C1207 C1213 1.491 . S
C1208 H1199 0.950 . S
C1208 C1207 1.398 . S
C1208 C1209 1.391 . S
C1209 H1197 0.950 . S
C1209 C1205 1.393 . S
C1209 C1208 1.391 . S
C1210 H1200 0.950 . S
C1210 C1211 1.386 . S
C1210 C1212 1.391 . S
C1211 C1210 1.386 . S
C1211 C1215 1.393 . S
C1212 H1201 0.950 . S
C1212 C1210 1.391 . S
C1212 C1213 1.400 . S
C1213 C1207 1.491 . S
C1213 C1212 1.400 . S
C1213 C1214 1.398 . S
C1214 H1202 0.950 . S
C1214 C1213 1.398 . S
C1214 C1215 1.391 . S
C1215 H1203 0.950 . S
C1215 C1211 1.393 . S
C1215 C1214 1.391 . S
H1216 C1224 0.950 . S
H1217 C1229 0.950 . S
H1218 C1226 0.950 . S
H1219 C1228 0.950 . S
H1220 C1230 0.950 . S
H1221 C1232 0.950 . S
H1222 C1234 0.950 . S
H1223 C1235 0.950 . S
C1224 H1216 0.950 . S
C1224 C1225 1.386 . S
C1224 C1226 1.391 . S
C1225 C1224 1.386 . S
C1225 C1229 1.393 1_455 S
C1226 H1218 0.950 . S
C1226 C1224 1.391 . S
C1226 C1227 1.400 . S
C1227 C1226 1.400 . S
C1227 C1228 1.398 1_455 S
C1227 C1233 1.491 . S
C1228 H1219 0.950 . S
C1228 C1227 1.398 1_655 S
C1228 C1229 1.391 . S
C1229 H1217 0.950 . S
C1229 C1225 1.393 1_655 S
C1229 C1228 1.391 . S
C1230 H1220 0.950 . S
C1230 C1231 1.386 1_655 S
C1230 C1232 1.391 . S
C1231 C1230 1.386 1_455 S
C1231 C1235 1.393 . S
C1232 H1221 0.950 . S
C1232 C1230 1.391 . S
C1232 C1233 1.400 1_655 S
C1233 C1227 1.491 . S
C1233 C1232 1.400 1_455 S
C1233 C1234 1.398 . S
C1234 H1222 0.950 . S
C1234 C1233 1.398 . S
C1234 C1235 1.391 . S
C1235 H1223 0.950 . S
C1235 C1231 1.393 . S
C1235 C1234 1.391 . S
H1236 C1244 0.950 . S
H1237 C1249 0.950 . S
H1238 C1246 0.950 . S
H1239 C1248 0.950 . S
H1240 C1250 0.950 . S
H1241 C1252 0.950 . S
H1242 C1254 0.950 . S
H1243 C1255 0.950 . S
C1244 H1236 0.950 . S
C1244 C1245 1.386 . S
C1244 C1246 1.391 . S
C1245 C1244 1.386 . S
C1245 C1249 1.393 . S
C1246 H1238 0.950 . S
C1246 C1244 1.391 . S
C1246 C1247 1.400 . S
C1247 C1246 1.400 . S
C1247 C1248 1.398 . S
C1247 C1253 1.491 . S
C1248 H1239 0.950 . S
C1248 C1247 1.398 . S
C1248 C1249 1.391 . S
C1249 H1237 0.950 . S
C1249 C1245 1.393 . S
C1249 C1248 1.391 . S
C1250 H1240 0.950 . S
C1250 C1251 1.386 . S
C1250 C1252 1.391 . S
C1251 C1250 1.386 . S
C1251 C1255 1.393 . S
C1252 H1241 0.950 . S
C1252 C1250 1.391 . S
C1252 C1253 1.400 . S
C1253 C1247 1.491 . S
C1253 C1252 1.400 . S
C1253 C1254 1.398 . S
C1254 H1242 0.950 . S
C1254 C1253 1.398 . S
C1254 C1255 1.391 . S
C1255 H1243 0.950 . S
C1255 C1251 1.393 . S
C1255 C1254 1.391 . S
H1256 C1264 0.950 . S
H1257 C1269 0.950 . S
H1258 C1266 0.950 . S
H1259 C1268 0.950 . S
H1260 C1270 0.950 . S
H1261 C1272 0.950 . S
H1262 C1274 0.950 . S
H1263 C1275 0.933 1_554 S
C1264 H1256 0.950 . S
C1264 C1265 1.386 . S
C1264 C1266 1.391 . S
C1265 C1264 1.386 . S
C1265 C1269 1.393 . S
C1266 H1258 0.950 . S
C1266 C1264 1.391 . S
C1266 C1267 1.400 . S
C1267 C1266 1.400 . S
C1267 C1268 1.398 . S
C1267 C1273 1.491 . S
C1268 H1259 0.950 . S
C1268 C1267 1.398 . S
C1268 C1269 1.391 . S
C1269 H1257 0.950 . S
C1269 C1265 1.393 . S
C1269 C1268 1.391 . S
C1270 H1260 0.950 . S
C1270 C1271 1.386 . S
C1270 C1272 1.391 . S
C1271 C1270 1.386 . S
C1271 C1275 1.393 . S
C1272 H1261 0.950 . S
C1272 C1270 1.391 . S
C1272 C1273 1.400 . S
C1273 C1267 1.491 . S
C1273 C1272 1.400 . S
C1273 C1274 1.398 . S
C1274 H1262 0.950 . S
C1274 C1273 1.398 . S
C1274 C1275 1.391 . S
C1275 H1263 0.933 1_556 S
C1275 C1271 1.393 . S
C1275 C1274 1.391 . S
H1276 C1284 0.950 . S
H1277 C1289 0.950 . S
H1278 C1286 0.950 . S
H1279 C1288 0.950 . S
H1280 C1290 0.950 . S
H1281 C1292 0.950 . S
H1282 C1294 0.950 . S
H1283 C1295 0.950 . S
C1284 H1276 0.950 . S
C1284 C1285 1.386 . S
C1284 C1286 1.391 . S
C1285 C1284 1.386 . S
C1285 C1289 1.393 . S
C1286 H1278 0.950 . S
C1286 C1284 1.391 . S
C1286 C1287 1.400 . S
C1287 C1286 1.400 . S
C1287 C1288 1.398 . S
C1287 C1293 1.491 . S
C1288 H1279 0.950 . S
C1288 C1287 1.398 . S
C1288 C1289 1.391 . S
C1289 H1277 0.950 . S
C1289 C1285 1.393 . S
C1289 C1288 1.391 . S
C1290 H1280 0.950 . S
C1290 C1291 1.386 . S
C1290 C1292 1.391 . S
C1291 C1290 1.386 . S
C1291 C1295 1.393 . S
C1292 H1281 0.950 . S
C1292 C1290 1.391 . S
C1292 C1293 1.400 . S
C1293 C1287 1.491 . S
C1293 C1292 1.400 . S
C1293 C1294 1.398 . S
C1294 H1282 0.950 . S
C1294 C1293 1.398 . S
C1294 C1295 1.391 . S
C1295 H1283 0.950 . S
C1295 C1291 1.393 . S
C1295 C1294 1.391 . S
H1296 C1304 0.950 . S
H1297 C1309 0.950 . S
H1298 C1306 0.950 . S
H1299 C1308 0.950 . S
H1300 C1310 0.950 . S
H1301 C1312 0.950 . S
H1302 C1314 0.950 . S
H1303 C1315 0.950 1_565 S
C1304 H1296 0.950 . S
C1304 C1305 1.386 1_565 S
C1304 C1306 1.391 . S
C1305 C1304 1.386 1_545 S
C1305 C1309 1.393 . S
C1306 H1298 0.950 . S
C1306 C1304 1.391 . S
C1306 C1307 1.400 1_565 S
C1307 C1306 1.400 1_545 S
C1307 C1308 1.398 . S
C1307 C1313 1.491 . S
C1308 H1299 0.950 . S
C1308 C1307 1.398 . S
C1308 C1309 1.391 . S
C1309 H1297 0.950 . S
C1309 C1305 1.393 . S
C1309 C1308 1.391 . S
C1310 H1300 0.950 . S
C1310 C1311 1.386 . S
C1310 C1312 1.391 . S
C1311 C1310 1.386 . S
C1311 C1315 1.393 . S
C1312 H1301 0.950 . S
C1312 C1310 1.391 . S
C1312 C1313 1.400 . S
C1313 C1307 1.491 . S
C1313 C1312 1.400 . S
C1313 C1314 1.398 1_545 S
C1314 H1302 0.950 . S
C1314 C1313 1.398 1_565 S
C1314 C1315 1.391 1_565 S
C1315 H1303 0.950 1_545 S
C1315 C1311 1.393 . S
C1315 C1314 1.391 1_545 S
H1316 C1324 0.950 . S
H1317 C1329 0.950 . S
H1318 C1326 0.950 . S
H1319 C1328 0.950 . S
H1320 C1330 0.950 . S
H1321 C1332 0.950 . S
H1322 C1334 0.950 . S
H1323 C1335 0.950 . S
C1324 H1316 0.950 . S
C1324 C1325 1.386 . S
C1324 C1326 1.391 . S
C1325 C1324 1.386 . S
C1325 C1329 1.393 . S
C1326 H1318 0.950 . S
C1326 C1324 1.391 . S
C1326 C1327 1.400 . S
C1327 C1326 1.400 . S
C1327 C1328 1.398 . S
C1327 C1333 1.491 . S
C1328 H1319 0.950 . S
C1328 C1327 1.398 . S
C1328 C1329 1.391 . S
C1329 H1317 0.950 . S
C1329 C1325 1.393 . S
C1329 C1328 1.391 . S
C1330 H1320 0.950 . S
C1330 C1331 1.386 . S
C1330 C1332 1.391 . S
C1331 C1330 1.386 . S
C1331 C1335 1.393 . S
C1332 H1321 0.950 . S
C1332 C1330 1.391 . S
C1332 C1333 1.400 . S
C1333 C1327 1.491 . S
C1333 C1332 1.400 . S
C1333 C1334 1.398 . S
C1334 H1322 0.950 . S
C1334 C1333 1.398 . S
C1334 C1335 1.391 . S
C1335 H1323 0.950 . S
C1335 C1331 1.393 . S
C1335 C1334 1.391 . S
H1336 C1344 0.950 . S
H1337 C1349 0.950 . S
H1338 C1346 0.950 . S
H1339 C1348 0.950 . S
H1340 C1350 0.950 . S
H1341 C1352 0.950 . S
H1342 C1354 0.950 . S
H1343 C1355 0.950 . S
C1344 H1336 0.950 . S
C1344 C1345 1.386 . S
C1344 C1346 1.391 . S
C1345 C1344 1.386 . S
C1345 C1349 1.393 . S
C1346 H1338 0.950 . S
C1346 C1344 1.391 . S
C1346 C1347 1.400 . S
C1347 C1346 1.400 . S
C1347 C1348 1.398 . S
C1347 C1353 1.491 . S
C1348 H1339 0.950 . S
C1348 C1347 1.398 . S
C1348 C1349 1.391 . S
C1349 H1337 0.950 . S
C1349 C1345 1.393 . S
C1349 C1348 1.391 . S
C1350 H1340 0.950 . S
C1350 C1351 1.386 . S
C1350 C1352 1.391 . S
C1351 C1350 1.386 . S
C1351 C1355 1.393 . S
C1352 H1341 0.950 . S
C1352 C1350 1.391 . S
C1352 C1353 1.400 . S
C1353 C1347 1.491 . S
C1353 C1352 1.400 . S
C1353 C1354 1.398 . S
C1354 H1342 0.950 . S
C1354 C1353 1.398 . S
C1354 C1355 1.391 . S
C1355 H1343 0.950 . S
C1355 C1351 1.393 . S
C1355 C1354 1.391 . S
H1356 C1364 0.950 . S
H1357 C1369 0.950 . S
H1358 C1366 0.950 . S
H1359 C1368 0.950 . S
H1360 C1370 0.950 . S
H1361 C1372 0.950 . S
H1362 C1374 0.950 . S
H1363 C1375 0.950 . S
C1364 H1356 0.950 . S
C1364 C1365 1.386 . S
C1364 C1366 1.391 . S
C1365 C1364 1.386 . S
C1365 C1369 1.393 . S
C1366 H1358 0.950 . S
C1366 C1364 1.391 . S
C1366 C1367 1.400 . S
C1367 C1366 1.400 . S
C1367 C1368 1.398 . S
C1367 C1373 1.491 . S
C1368 H1359 0.950 . S
C1368 C1367 1.398 . S
C1368 C1369 1.391 . S
C1369 H1357 0.950 . S
C1369 C1365 1.393 . S
C1369 C1368 1.391 . S
C1370 H1360 0.950 . S
C1370 C1371 1.386 . S
C1370 C1372 1.391 . S
C1371 C1370 1.386 . S
C1371 C1375 1.393 . S
C1372 H1361 0.950 . S
C1372 C1370 1.391 . S
C1372 C1373 1.400 . S
C1373 C1367 1.491 . S
C1373 C1372 1.400 . S
C1373 C1374 1.398 . S
C1374 H1362 0.950 . S
C1374 C1373 1.398 . S
C1374 C1375 1.391 . S
C1375 H1363 0.950 . S
C1375 C1371 1.393 . S
C1375 C1374 1.391 . S
H1376 C1384 0.949 . S
H1377 C1389 0.950 . S
H1378 C1386 0.950 . S
H1379 C1388 0.950 . S
H1380 C1390 0.950 . S
H1381 C1392 0.950 . S
H1382 C1394 0.950 . S
H1383 C1395 0.950 . S
C1384 H1376 0.949 . S
C1384 C1385 1.378 1_545 S
C1384 C1386 1.399 . S
C1385 C1384 1.378 1_565 S
C1385 C1389 1.393 . S
C1386 H1378 0.950 . S
C1386 C1384 1.399 . S
C1386 C1387 1.400 . S
C1387 C1386 1.400 . S
C1387 C1388 1.398 . S
C1387 C1393 1.491 . S
C1388 H1379 0.950 . S
C1388 C1387 1.398 . S
C1388 C1389 1.391 1_545 S
C1389 H1377 0.950 . S
C1389 C1385 1.393 . S
C1389 C1388 1.391 1_565 S
C1390 H1380 0.950 . S
C1390 C1391 1.386 . S
C1390 C1392 1.391 . S
C1391 C1390 1.386 . S
C1391 C1395 1.393 . S
C1392 H1381 0.950 . S
C1392 C1390 1.391 . S
C1392 C1393 1.400 . S
C1393 C1387 1.491 . S
C1393 C1392 1.400 . S
C1393 C1394 1.398 . S
C1394 H1382 0.950 . S
C1394 C1393 1.398 . S
C1394 C1395 1.391 . S
C1395 H1383 0.950 . S
C1395 C1391 1.393 . S
C1395 C1394 1.391 . S
H1396 C1404 0.950 . S
H1397 C1409 0.950 . S
H1398 C1406 0.950 . S
H1399 C1408 0.950 . S
H1400 C1410 0.950 . S
H1401 C1412 0.950 . S
H1402 C1414 0.950 . S
H1403 C1415 0.950 . S
C1404 H1396 0.950 . S
C1404 C1405 1.386 . S
C1404 C1406 1.391 . S
C1405 C1404 1.386 . S
C1405 C1409 1.393 . S
C1406 H1398 0.950 . S
C1406 C1404 1.391 . S
C1406 C1407 1.400 . S
C1407 C1406 1.400 . S
C1407 C1408 1.398 . S
C1407 C1413 1.491 . S
C1408 H1399 0.950 . S
C1408 C1407 1.398 . S
C1408 C1409 1.391 . S
C1409 H1397 0.950 . S
C1409 C1405 1.393 . S
C1409 C1408 1.391 . S
C1410 H1400 0.950 . S
C1410 C1411 1.386 . S
C1410 C1412 1.391 . S
C1411 C1410 1.386 . S
C1411 C1415 1.393 . S
C1412 H1401 0.950 . S
C1412 C1410 1.391 . S
C1412 C1413 1.400 . S
C1413 C1407 1.491 . S
C1413 C1412 1.400 . S
C1413 C1414 1.398 . S
C1414 H1402 0.950 . S
C1414 C1413 1.398 . S
C1414 C1415 1.391 . S
C1415 H1403 0.950 . S
C1415 C1411 1.393 . S
C1415 C1414 1.391 . S
H1416 C1424 0.950 1_565 S
H1417 C1429 0.950 . S
H1418 C1426 0.950 1_565 S
H1419 C1428 0.950 . S
H1420 C1430 0.950 . S
H1421 C1432 0.950 . S
H1422 C1434 0.950 . S
H1423 C1435 0.950 . S
C1424 H1416 0.950 1_545 S
C1424 C1425 1.386 . S
C1424 C1426 1.391 . S
C1425 C1424 1.386 . S
C1425 C1429 1.393 . S
C1426 H1418 0.950 1_545 S
C1426 C1424 1.391 . S
C1426 C1427 1.400 . S
C1427 C1426 1.400 . S
C1427 C1428 1.398 . S
C1427 C1433 1.491 . S
C1428 H1419 0.950 . S
C1428 C1427 1.398 . S
C1428 C1429 1.391 . S
C1429 H1417 0.950 . S
C1429 C1425 1.393 . S
C1429 C1428 1.391 . S
C1430 H1420 0.950 . S
C1430 C1431 1.386 . S
C1430 C1432 1.391 . S
C1431 C1430 1.386 . S
C1431 C1435 1.393 1_545 S
C1432 H1421 0.950 . S
C1432 C1430 1.391 . S
C1432 C1433 1.400 . S
C1433 C1427 1.491 . S
C1433 C1432 1.400 . S
C1433 C1434 1.398 1_545 S
C1434 H1422 0.950 . S
C1434 C1433 1.398 1_565 S
C1434 C1435 1.391 . S
C1435 H1423 0.950 . S
C1435 C1431 1.393 1_565 S
C1435 C1434 1.391 . S
H1436 C1444 0.950 . S
H1437 C1449 0.950 . S
H1438 C1446 0.950 . S
H1439 C1448 0.950 . S
H1440 C1450 0.950 . S
H1441 C1452 0.950 . S
H1442 C1454 0.950 . S
H1443 C1455 0.950 . S
C1444 H1436 0.950 . S
C1444 C1445 1.386 . S
C1444 C1446 1.391 . S
C1445 C1444 1.386 . S
C1445 C1449 1.393 . S
C1446 H1438 0.950 . S
C1446 C1444 1.391 . S
C1446 C1447 1.400 . S
C1447 C1446 1.400 . S
C1447 C1448 1.398 . S
C1447 C1453 1.491 . S
C1448 H1439 0.950 . S
C1448 C1447 1.398 . S
C1448 C1449 1.391 . S
C1449 H1437 0.950 . S
C1449 C1445 1.393 . S
C1449 C1448 1.391 . S
C1450 H1440 0.950 . S
C1450 C1451 1.386 . S
C1450 C1452 1.391 . S
C1451 C1450 1.386 . S
C1451 C1455 1.393 . S
C1452 H1441 0.950 . S
C1452 C1450 1.391 . S
C1452 C1453 1.400 . S
C1453 C1447 1.491 . S
C1453 C1452 1.400 . S
C1453 C1454 1.398 . S
C1454 H1442 0.950 . S
C1454 C1453 1.398 . S
C1454 C1455 1.391 . S
C1455 H1443 0.950 . S
C1455 C1451 1.393 . S
C1455 C1454 1.391 . S
H1456 C1464 0.950 . S
H1457 C1469 0.950 . S
H1458 C1466 0.950 . S
H1459 C1468 0.950 . S
H1460 C1470 0.950 . S
H1461 C1472 0.950 . S
H1462 C1474 0.950 . S
H1463 C1475 0.950 . S
C1464 H1456 0.950 . S
C1464 C1465 1.386 . S
C1464 C1466 1.391 . S
C1465 C1464 1.386 . S
C1465 C1469 1.393 1_556 S
C1466 H1458 0.950 . S
C1466 C1464 1.391 . S
C1466 C1467 1.400 . S
C1467 C1466 1.400 . S
C1467 C1468 1.398 1_556 S
C1467 C1473 1.491 . S
C1468 H1459 0.950 . S
C1468 C1467 1.398 1_554 S
C1468 C1469 1.391 . S
C1469 H1457 0.950 . S
C1469 C1465 1.393 1_554 S
C1469 C1468 1.391 . S
C1470 H1460 0.950 . S
C1470 C1471 1.386 1_554 S
C1470 C1472 1.391 . S
C1471 C1470 1.386 1_556 S
C1471 C1475 1.393 . S
C1472 H1461 0.950 . S
C1472 C1470 1.391 . S
C1472 C1473 1.400 1_554 S
C1473 C1467 1.491 . S
C1473 C1472 1.400 1_556 S
C1473 C1474 1.398 . S
C1474 H1462 0.950 . S
C1474 C1473 1.398 . S
C1474 C1475 1.391 . S
C1475 H1463 0.950 . S
C1475 C1471 1.393 . S
C1475 C1474 1.391 . S
H1476 C1484 0.950 . S
H1477 C1489 0.950 . S
H1478 C1486 0.950 . S
H1479 C1488 0.950 . S
H1480 C1490 0.950 . S
H1481 C1492 0.950 . S
H1482 C1494 0.950 . S
H1483 C1495 0.950 . S
C1484 H1476 0.950 . S
C1484 C1485 1.386 . S
C1484 C1486 1.391 . S
C1485 C1484 1.386 . S
C1485 C1489 1.393 1_554 S
C1486 H1478 0.950 . S
C1486 C1484 1.391 . S
C1486 C1487 1.400 . S
C1487 C1486 1.400 . S
C1487 C1488 1.398 1_554 S
C1487 C1493 1.491 . S
C1488 H1479 0.950 . S
C1488 C1487 1.398 1_556 S
C1488 C1489 1.391 . S
C1489 H1477 0.950 . S
C1489 C1485 1.393 1_556 S
C1489 C1488 1.391 . S
C1490 H1480 0.950 . S
C1490 C1491 1.386 1_556 S
C1490 C1492 1.391 . S
C1491 C1490 1.386 1_554 S
C1491 C1495 1.393 . S
C1492 H1481 0.950 . S
C1492 C1490 1.391 . S
C1492 C1493 1.400 1_556 S
C1493 C1487 1.491 . S
C1493 C1492 1.400 1_554 S
C1493 C1494 1.398 . S
C1494 H1482 0.950 . S
C1494 C1493 1.398 . S
C1494 C1495 1.391 . S
C1495 H1483 0.950 . S
C1495 C1491 1.393 . S
C1495 C1494 1.391 . S
H1496 C1504 0.950 . S
H1497 C1509 0.950 . S
H1498 C1506 0.950 . S
H1499 C1508 0.950 . S
H1500 C1510 0.950 . S
H1501 C1512 0.950 . S
H1502 C1514 0.950 . S
H1503 C1515 0.950 . S
C1504 H1496 0.950 . S
C1504 C1505 1.386 . S
C1504 C1506 1.391 . S
C1505 C1504 1.386 . S
C1505 C1509 1.393 . S
C1506 H1498 0.950 . S
C1506 C1504 1.391 . S
C1506 C1507 1.400 . S
C1507 C1506 1.400 . S
C1507 C1508 1.398 . S
C1507 C1513 1.491 . S
C1508 H1499 0.950 . S
C1508 C1507 1.398 . S
C1508 C1509 1.391 . S
C1509 H1497 0.950 . S
C1509 C1505 1.393 . S
C1509 C1508 1.391 . S
C1510 H1500 0.950 . S
C1510 C1511 1.386 . S
C1510 C1512 1.391 . S
C1511 C1510 1.386 . S
C1511 C1515 1.393 . S
C1512 H1501 0.950 . S
C1512 C1510 1.391 . S
C1512 C1513 1.400 . S
C1513 C1507 1.491 . S
C1513 C1512 1.400 . S
C1513 C1514 1.398 . S
C1514 H1502 0.950 . S
C1514 C1513 1.398 . S
C1514 C1515 1.391 . S
C1515 H1503 0.950 . S
C1515 C1511 1.393 . S
C1515 C1514 1.391 . S
H1516 C1524 0.950 . S
H1517 C1529 0.950 . S
H1518 C1526 0.950 . S
H1519 C1528 0.950 . S
H1520 C1530 0.950 . S
H1521 C1532 0.950 . S
H1522 C1534 0.950 . S
H1523 C1535 0.950 . S
C1524 H1516 0.950 . S
C1524 C1525 1.386 . S
C1524 C1526 1.391 . S
C1525 C1524 1.386 . S
C1525 C1529 1.393 . S
C1526 H1518 0.950 . S
C1526 C1524 1.391 . S
C1526 C1527 1.400 . S
C1527 C1526 1.400 . S
C1527 C1528 1.398 . S
C1527 C1533 1.491 . S
C1528 H1519 0.950 . S
C1528 C1527 1.398 . S
C1528 C1529 1.391 . S
C1529 H1517 0.950 . S
C1529 C1525 1.393 . S
C1529 C1528 1.391 . S
C1530 H1520 0.950 . S
C1530 C1531 1.386 . S
C1530 C1532 1.391 . S
C1531 C1530 1.386 . S
C1531 C1535 1.393 . S
C1532 H1521 0.950 . S
C1532 C1530 1.391 . S
C1532 C1533 1.400 . S
C1533 C1527 1.491 . S
C1533 C1532 1.400 . S
C1533 C1534 1.398 . S
C1534 H1522 0.950 . S
C1534 C1533 1.398 . S
C1534 C1535 1.391 . S
C1535 H1523 0.950 . S
C1535 C1531 1.393 . S
C1535 C1534 1.391 . S
H1536 C1544 0.950 . S
H1537 C1549 0.950 . S
H1538 C1546 0.950 . S
H1539 C1548 0.950 . S
H1540 C1550 0.950 . S
H1541 C1552 0.950 . S
H1542 C1554 0.950 . S
H1543 C1555 0.950 . S
C1544 H1536 0.950 . S
C1544 C1545 1.386 . S
C1544 C1546 1.391 . S
C1545 C1544 1.386 . S
C1545 C1549 1.393 . S
C1546 H1538 0.950 . S
C1546 C1544 1.391 . S
C1546 C1547 1.400 . S
C1547 C1546 1.400 . S
C1547 C1548 1.398 . S
C1547 C1553 1.491 . S
C1548 H1539 0.950 . S
C1548 C1547 1.398 . S
C1548 C1549 1.391 . S
C1549 H1537 0.950 . S
C1549 C1545 1.393 . S
C1549 C1548 1.391 . S
C1550 H1540 0.950 . S
C1550 C1551 1.386 . S
C1550 C1552 1.391 . S
C1551 C1550 1.386 . S
C1551 C1555 1.393 . S
C1552 H1541 0.950 . S
C1552 C1550 1.391 . S
C1552 C1553 1.400 . S
C1553 C1547 1.491 . S
C1553 C1552 1.400 . S
C1553 C1554 1.398 . S
C1554 H1542 0.950 . S
C1554 C1553 1.398 . S
C1554 C1555 1.391 . S
C1555 H1543 0.950 . S
C1555 C1551 1.393 . S
C1555 C1554 1.391 . S
H1556 C1564 0.950 . S
H1557 C1569 0.950 . S
H1558 C1566 0.950 . S
H1559 C1568 0.950 . S
H1560 C1570 0.950 . S
H1561 C1572 0.950 . S
H1562 C1574 0.950 . S
H1563 C1575 0.950 . S
C1564 H1556 0.950 . S
C1564 C1565 1.386 . S
C1564 C1566 1.391 . S
C1565 C1564 1.386 . S
C1565 C1569 1.393 . S
C1566 H1558 0.950 . S
C1566 C1564 1.391 . S
C1566 C1567 1.400 . S
C1567 C1566 1.400 . S
C1567 C1568 1.398 . S
C1567 C1573 1.491 . S
C1568 H1559 0.950 . S
C1568 C1567 1.398 . S
C1568 C1569 1.391 . S
C1569 H1557 0.950 . S
C1569 C1565 1.393 . S
C1569 C1568 1.391 . S
C1570 H1560 0.950 . S
C1570 C1571 1.386 . S
C1570 C1572 1.391 . S
C1571 C1570 1.386 . S
C1571 C1575 1.393 . S
C1572 H1561 0.950 . S
C1572 C1570 1.391 . S
C1572 C1573 1.400 . S
C1573 C1567 1.491 . S
C1573 C1572 1.400 . S
C1573 C1574 1.398 . S
C1574 H1562 0.950 . S
C1574 C1573 1.398 . S
C1574 C1575 1.391 . S
C1575 H1563 0.950 . S
C1575 C1571 1.393 . S
C1575 C1574 1.391 . S
H1576 C1584 0.950 . S
H1577 C1589 0.950 . S
H1578 C1586 0.950 . S
H1579 C1588 0.950 . S
H1580 C1590 0.950 . S
H1581 C1592 0.950 . S
H1582 C1594 0.950 . S
H1583 C1595 0.950 . S
C1584 H1576 0.950 . S
C1584 C1585 1.386 . S
C1584 C1586 1.391 . S
C1585 C1584 1.386 . S
C1585 C1589 1.393 . S
C1586 H1578 0.950 . S
C1586 C1584 1.391 . S
C1586 C1587 1.400 . S
C1587 C1586 1.400 . S
C1587 C1588 1.398 . S
C1587 C1593 1.491 . S
C1588 H1579 0.950 . S
C1588 C1587 1.398 . S
C1588 C1589 1.391 . S
C1589 H1577 0.950 . S
C1589 C1585 1.393 . S
C1589 C1588 1.391 . S
C1590 H1580 0.950 . S
C1590 C1591 1.386 . S
C1590 C1592 1.391 . S
C1591 C1590 1.386 . S
C1591 C1595 1.393 . S
C1592 H1581 0.950 . S
C1592 C1590 1.391 . S
C1592 C1593 1.400 . S
C1593 C1587 1.491 . S
C1593 C1592 1.400 . S
C1593 C1594 1.398 . S
C1594 H1582 0.950 . S
C1594 C1593 1.398 . S
C1594 C1595 1.391 . S
C1595 H1583 0.950 . S
C1595 C1591 1.393 . S
C1595 C1594 1.391 . S
H1596 C1604 0.950 . S
H1597 C1609 0.950 . S
H1598 C1606 0.950 . S
H1599 C1608 0.950 . S
H1600 C1610 0.950 . S
H1601 C1612 0.950 . S
H1602 C1614 0.950 . S
H1603 C1615 0.950 . S
C1604 H1596 0.950 . S
C1604 C1605 1.386 . S
C1604 C1606 1.391 . S
C1605 C1604 1.386 . S
C1605 C1609 1.393 . S
C1606 H1598 0.950 . S
C1606 C1604 1.391 . S
C1606 C1607 1.400 . S
C1607 C1606 1.400 . S
C1607 C1608 1.398 . S
C1607 C1613 1.491 . S
C1608 H1599 0.950 . S
C1608 C1607 1.398 . S
C1608 C1609 1.391 . S
C1609 H1597 0.950 . S
C1609 C1605 1.393 . S
C1609 C1608 1.391 . S
C1610 H1600 0.950 . S
C1610 C1611 1.386 . S
C1610 C1612 1.391 . S
C1611 C1610 1.386 . S
C1611 C1615 1.393 . S
C1612 H1601 0.950 . S
C1612 C1610 1.391 . S
C1612 C1613 1.400 . S
C1613 C1607 1.491 . S
C1613 C1612 1.400 . S
C1613 C1614 1.398 . S
C1614 H1602 0.950 . S
C1614 C1613 1.398 . S
C1614 C1615 1.391 . S
C1615 H1603 0.950 . S
C1615 C1611 1.393 . S
C1615 C1614 1.391 . S
H1616 C1624 0.950 . S
H1617 C1629 0.950 . S
H1618 C1626 0.950 . S
H1619 C1628 0.950 . S
H1620 C1630 0.950 . S
H1621 C1632 0.950 . S
H1622 C1634 0.950 . S
H1623 C1635 0.950 . S
C1624 H1616 0.950 . S
C1624 C1625 1.386 . S
C1624 C1626 1.391 . S
C1625 C1624 1.386 . S
C1625 C1629 1.393 . S
C1626 H1618 0.950 . S
C1626 C1624 1.391 . S
C1626 C1627 1.400 . S
C1627 C1626 1.400 . S
C1627 C1628 1.398 . S
C1627 C1633 1.491 . S
C1628 H1619 0.950 . S
C1628 C1627 1.398 . S
C1628 C1629 1.391 . S
C1629 H1617 0.950 . S
C1629 C1625 1.393 . S
C1629 C1628 1.391 . S
C1630 H1620 0.950 . S
C1630 C1631 1.386 . S
C1630 C1632 1.391 . S
C1631 C1630 1.386 . S
C1631 C1635 1.393 . S
C1632 H1621 0.950 . S
C1632 C1630 1.391 . S
C1632 C1633 1.400 . S
C1633 C1627 1.491 . S
C1633 C1632 1.400 . S
C1633 C1634 1.398 . S
C1634 H1622 0.950 . S
C1634 C1633 1.398 . S
C1634 C1635 1.391 . S
C1635 H1623 0.950 . S
C1635 C1631 1.393 . S
C1635 C1634 1.391 . S
H1636 C1644 0.950 . S
H1637 C1649 0.950 . S
H1638 C1646 0.950 . S
H1639 C1648 0.950 . S
H1640 C1650 0.950 . S
H1641 C1652 0.950 . S
H1642 C1654 0.950 . S
H1643 C1655 0.950 . S
C1644 H1636 0.950 . S
C1644 C1645 1.386 . S
C1644 C1646 1.391 . S
C1645 C1644 1.386 . S
C1645 C1649 1.393 . S
C1646 H1638 0.950 . S
C1646 C1644 1.391 . S
C1646 C1647 1.400 . S
C1647 C1646 1.400 . S
C1647 C1648 1.398 . S
C1647 C1653 1.491 . S
C1648 H1639 0.950 . S
C1648 C1647 1.398 . S
C1648 C1649 1.391 . S
C1649 H1637 0.950 . S
C1649 C1645 1.393 . S
C1649 C1648 1.391 . S
C1650 H1640 0.950 . S
C1650 C1651 1.386 . S
C1650 C1652 1.391 . S
C1651 C1650 1.386 . S
C1651 C1655 1.393 . S
C1652 H1641 0.950 . S
C1652 C1650 1.391 . S
C1652 C1653 1.400 . S
C1653 C1647 1.491 . S
C1653 C1652 1.400 . S
C1653 C1654 1.398 . S
C1654 H1642 0.950 . S
C1654 C1653 1.398 . S
C1654 C1655 1.391 . S
C1655 H1643 0.950 . S
C1655 C1651 1.393 . S
C1655 C1654 1.391 . S
H1656 C1664 0.950 . S
H1657 C1669 0.950 . S
H1658 C1666 0.950 . S
H1659 C1668 0.950 . S
H1660 C1670 0.950 . S
H1661 C1672 0.950 . S
H1662 C1674 0.950 . S
H1663 C1675 0.950 . S
C1664 H1656 0.950 . S
C1664 C1665 1.386 1_655 S
C1664 C1666 1.391 . S
C1665 C1664 1.386 1_455 S
C1665 C1669 1.393 . S
C1666 H1658 0.950 . S
C1666 C1664 1.391 . S
C1666 C1667 1.400 1_655 S
C1667 C1666 1.400 1_455 S
C1667 C1668 1.398 . S
C1667 C1673 1.491 . S
C1668 H1659 0.950 . S
C1668 C1667 1.398 . S
C1668 C1669 1.391 . S
C1669 H1657 0.950 . S
C1669 C1665 1.393 . S
C1669 C1668 1.391 . S
C1670 H1660 0.950 . S
C1670 C1671 1.386 . S
C1670 C1672 1.391 . S
C1671 C1670 1.386 . S
C1671 C1675 1.393 1_455 S
C1672 H1661 0.950 . S
C1672 C1670 1.391 . S
C1672 C1673 1.400 . S
C1673 C1667 1.491 . S
C1673 C1672 1.400 . S
C1673 C1674 1.398 1_455 S
C1674 H1662 0.950 . S
C1674 C1673 1.398 1_655 S
C1674 C1675 1.391 . S
C1675 H1663 0.950 . S
C1675 C1671 1.393 1_655 S
C1675 C1674 1.391 . S
H1676 C1684 0.950 . S
H1677 C1689 0.950 . S
H1678 C1686 0.950 . S
H1679 C1688 0.950 . S
H1680 C1690 0.950 . S
H1681 C1692 0.950 . S
H1682 C1694 0.950 . S
H1683 C1695 0.950 . S
C1684 H1676 0.950 . S
C1684 C1685 1.386 . S
C1684 C1686 1.391 . S
C1685 C1684 1.386 . S
C1685 C1689 1.393 . S
C1686 H1678 0.950 . S
C1686 C1684 1.391 . S
C1686 C1687 1.400 . S
C1687 C1686 1.400 . S
C1687 C1688 1.398 . S
C1687 C1693 1.491 . S
C1688 H1679 0.950 . S
C1688 C1687 1.398 . S
C1688 C1689 1.391 . S
C1689 H1677 0.950 . S
C1689 C1685 1.393 . S
C1689 C1688 1.391 . S
C1690 H1680 0.950 . S
C1690 C1691 1.386 . S
C1690 C1692 1.391 . S
C1691 C1690 1.386 . S
C1691 C1695 1.393 . S
C1692 H1681 0.950 . S
C1692 C1690 1.391 . S
C1692 C1693 1.400 . S
C1693 C1687 1.491 . S
C1693 C1692 1.400 . S
C1693 C1694 1.398 . S
C1694 H1682 0.950 . S
C1694 C1693 1.398 . S
C1694 C1695 1.391 . S
C1695 H1683 0.950 . S
C1695 C1691 1.393 . S
C1695 C1694 1.391 . S
H1696 C1704 0.950 . S
H1697 C1709 0.950 . S
H1698 C1706 0.950 . S
H1699 C1708 0.950 . S
H1700 C1710 0.950 . S
H1701 C1712 0.950 . S
H1702 C1714 0.950 . S
H1703 C1715 0.950 . S
C1704 H1696 0.950 . S
C1704 C1705 1.386 . S
C1704 C1706 1.391 . S
C1705 C1704 1.386 . S
C1705 C1709 1.393 . S
C1706 H1698 0.950 . S
C1706 C1704 1.391 . S
C1706 C1707 1.400 . S
C1707 C1706 1.400 . S
C1707 C1708 1.398 . S
C1707 C1713 1.491 . S
C1708 H1699 0.950 . S
C1708 C1707 1.398 . S
C1708 C1709 1.391 . S
C1709 H1697 0.950 . S
C1709 C1705 1.393 . S
C1709 C1708 1.391 . S
C1710 H1700 0.950 . S
C1710 C1711 1.386 . S
C1710 C1712 1.391 . S
C1711 C1710 1.386 . S
C1711 C1715 1.393 . S
C1712 H1701 0.950 . S
C1712 C1710 1.391 . S
C1712 C1713 1.400 . S
C1713 C1707 1.491 . S
C1713 C1712 1.400 . S
C1713 C1714 1.398 . S
C1714 H1702 0.950 . S
C1714 C1713 1.398 . S
C1714 C1715 1.391 . S
C1715 H1703 0.950 . S
C1715 C1711 1.393 . S
C1715 C1714 1.391 . S
H1716 C1724 0.950 . S
H1717 C1729 0.950 . S
H1718 C1726 0.950 . S
H1719 C1728 0.950 . S
H1720 C1730 0.950 . S
H1721 C1732 0.950 . S
H1722 C1734 0.950 . S
H1723 C1735 0.950 . S
C1724 H1716 0.950 . S
C1724 C1725 1.386 . S
C1724 C1726 1.391 . S
C1725 C1724 1.386 . S
C1725 C1729 1.393 . S
C1726 H1718 0.950 . S
C1726 C1724 1.391 . S
C1726 C1727 1.400 . S
C1727 C1726 1.400 . S
C1727 C1728 1.398 . S
C1727 C1733 1.491 . S
C1728 H1719 0.950 . S
C1728 C1727 1.398 . S
C1728 C1729 1.391 . S
C1729 H1717 0.950 . S
C1729 C1725 1.393 . S
C1729 C1728 1.391 . S
C1730 H1720 0.950 . S
C1730 C1731 1.386 . S
C1730 C1732 1.391 . S
C1731 C1730 1.386 . S
C1731 C1735 1.393 . S
C1732 H1721 0.950 . S
C1732 C1730 1.391 . S
C1732 C1733 1.400 . S
C1733 C1727 1.491 . S
C1733 C1732 1.400 . S
C1733 C1734 1.398 . S
C1734 H1722 0.950 . S
C1734 C1733 1.398 . S
C1734 C1735 1.391 . S
C1735 H1723 0.950 . S
C1735 C1731 1.393 . S
C1735 C1734 1.391 . S
H1736 C1744 0.950 . S
H1737 C1749 0.950 . S
H1738 C1746 0.950 . S
H1739 C1748 0.950 . S
H1740 C1750 0.950 . S
H1741 C1752 0.950 . S
H1742 C1754 0.950 . S
H1743 C1755 0.950 . S
C1744 H1736 0.950 . S
C1744 C1745 1.397 . S
C1744 C1746 1.391 . S
C1745 C1744 1.397 . S
C1745 C1749 1.384 1_455 S
C1746 H1738 0.950 . S
C1746 C1744 1.391 . S
C1746 C1747 1.400 . S
C1747 C1746 1.400 . S
C1747 C1748 1.398 1_455 S
C1747 C1753 1.491 . S
C1748 H1739 0.950 . S
C1748 C1747 1.398 1_655 S
C1748 C1749 1.391 . S
C1749 H1737 0.950 . S
C1749 C1745 1.384 1_655 S
C1749 C1748 1.391 . S
C1750 H1740 0.950 . S
C1750 C1751 1.386 1_655 S
C1750 C1752 1.391 . S
C1751 C1750 1.386 1_455 S
C1751 C1755 1.393 . S
C1752 H1741 0.950 . S
C1752 C1750 1.391 . S
C1752 C1753 1.400 1_655 S
C1753 C1747 1.491 . S
C1753 C1752 1.400 1_455 S
C1753 C1754 1.398 . S
C1754 H1742 0.950 . S
C1754 C1753 1.398 . S
C1754 C1755 1.391 . S
C1755 H1743 0.950 . S
C1755 C1751 1.393 . S
C1755 C1754 1.391 . S
H1756 C1764 0.950 . S
H1757 C1769 0.950 . S
H1758 C1766 0.950 . S
H1759 C1768 0.950 . S
H1760 C1770 0.950 . S
H1761 C1772 0.950 . S
H1762 C1774 0.950 . S
H1763 C1775 0.950 . S
C1764 H1756 0.950 . S
C1764 C1765 1.386 . S
C1764 C1766 1.391 . S
C1765 C1764 1.386 . S
C1765 C1769 1.393 . S
C1766 H1758 0.950 . S
C1766 C1764 1.391 . S
C1766 C1767 1.400 . S
C1767 C1766 1.400 . S
C1767 C1768 1.398 . S
C1767 C1773 1.491 . S
C1768 H1759 0.950 . S
C1768 C1767 1.398 . S
C1768 C1769 1.391 . S
C1769 H1757 0.950 . S
C1769 C1765 1.393 . S
C1769 C1768 1.391 . S
C1770 H1760 0.950 . S
C1770 C1771 1.386 . S
C1770 C1772 1.391 . S
C1771 C1770 1.386 . S
C1771 C1775 1.393 . S
C1772 H1761 0.950 . S
C1772 C1770 1.391 . S
C1772 C1773 1.400 . S
C1773 C1767 1.491 . S
C1773 C1772 1.400 . S
C1773 C1774 1.398 . S
C1774 H1762 0.950 . S
C1774 C1773 1.398 . S
C1774 C1775 1.391 . S
C1775 H1763 0.950 . S
C1775 C1771 1.393 . S
C1775 C1774 1.391 . S
H1776 C1784 0.950 . S
H1777 C1789 0.950 . S
H1778 C1786 0.950 . S
H1779 C1788 0.950 . S
H1780 C1790 0.950 . S
H1781 C1792 0.950 . S
H1782 C1794 0.950 . S
H1783 C1795 0.950 . S
C1784 H1776 0.950 . S
C1784 C1785 1.386 . S
C1784 C1786 1.391 . S
C1785 C1784 1.386 . S
C1785 C1789 1.393 . S
C1786 H1778 0.950 . S
C1786 C1784 1.391 . S
C1786 C1787 1.400 . S
C1787 C1786 1.400 . S
C1787 C1788 1.398 . S
C1787 C1793 1.491 . S
C1788 H1779 0.950 . S
C1788 C1787 1.398 . S
C1788 C1789 1.391 . S
C1789 H1777 0.950 . S
C1789 C1785 1.393 . S
C1789 C1788 1.391 . S
C1790 H1780 0.950 . S
C1790 C1791 1.386 . S
C1790 C1792 1.391 . S
C1791 C1790 1.386 . S
C1791 C1795 1.393 . S
C1792 H1781 0.950 . S
C1792 C1790 1.391 . S
C1792 C1793 1.400 . S
C1793 C1787 1.491 . S
C1793 C1792 1.400 . S
C1793 C1794 1.398 . S
C1794 H1782 0.950 . S
C1794 C1793 1.398 . S
C1794 C1795 1.391 . S
C1795 H1783 0.950 . S
C1795 C1791 1.393 . S
C1795 C1794 1.391 . S
H1796 C1804 0.950 . S
H1797 C1809 0.950 . S
H1798 C1806 0.950 . S
H1799 C1808 0.950 . S
H1800 C1810 0.950 . S
H1801 C1812 0.950 . S
H1802 C1814 0.950 . S
H1803 C1815 0.950 . S
C1804 H1796 0.950 . S
C1804 C1805 1.386 . S
C1804 C1806 1.391 . S
C1805 C1804 1.386 . S
C1805 C1809 1.393 . S
C1806 H1798 0.950 . S
C1806 C1804 1.391 . S
C1806 C1807 1.400 . S
C1807 C1806 1.400 . S
C1807 C1808 1.398 . S
C1807 C1813 1.491 . S
C1808 H1799 0.950 . S
C1808 C1807 1.398 . S
C1808 C1809 1.391 . S
C1809 H1797 0.950 . S
C1809 C1805 1.393 . S
C1809 C1808 1.391 . S
C1810 H1800 0.950 . S
C1810 C1811 1.386 . S
C1810 C1812 1.391 . S
C1811 C1810 1.386 . S
C1811 C1815 1.393 . S
C1812 H1801 0.950 . S
C1812 C1810 1.391 . S
C1812 C1813 1.400 . S
C1813 C1807 1.491 . S
C1813 C1812 1.400 . S
C1813 C1814 1.398 . S
C1814 H1802 0.950 . S
C1814 C1813 1.398 . S
C1814 C1815 1.391 . S
C1815 H1803 0.950 . S
C1815 C1811 1.393 . S
C1815 C1814 1.391 . S
H1816 C1824 0.950 . S
H1817 C1829 0.950 . S
H1818 C1826 0.950 . S
H1819 C1828 0.950 . S
H1820 C1830 0.950 . S
H1821 C1832 0.950 . S
H1822 C1834 0.950 . S
H1823 C1835 0.950 . S
C1824 H1816 0.950 . S
C1824 C1825 1.386 . S
C1824 C1826 1.391 . S
C1825 C1824 1.386 . S
C1825 C1829 1.393 . S
C1826 H1818 0.950 . S
C1826 C1824 1.391 . S
C1826 C1827 1.400 . S
C1827 C1826 1.400 . S
C1827 C1828 1.398 . S
C1827 C1833 1.491 . S
C1828 H1819 0.950 . S
C1828 C1827 1.398 . S
C1828 C1829 1.391 . S
C1829 H1817 0.950 . S
C1829 C1825 1.393 . S
C1829 C1828 1.391 . S
C1830 H1820 0.950 . S
C1830 C1831 1.386 . S
C1830 C1832 1.391 . S
C1831 C1830 1.386 . S
C1831 C1835 1.393 . S
C1832 H1821 0.950 . S
C1832 C1830 1.391 . S
C1832 C1833 1.400 . S
C1833 C1827 1.491 . S
C1833 C1832 1.400 . S
C1833 C1834 1.398 . S
C1834 H1822 0.950 . S
C1834 C1833 1.398 . S
C1834 C1835 1.391 . S
C1835 H1823 0.950 . S
C1835 C1831 1.393 . S
C1835 C1834 1.391 . S
H1836 C1844 0.950 . S
H1837 C1849 0.950 . S
H1838 C1846 0.950 . S
H1839 C1848 0.950 . S
H1840 C1850 0.950 . S
H1841 C1852 0.950 . S
H1842 C1854 0.950 . S
H1843 C1855 0.950 . S
C1844 H1836 0.950 . S
C1844 C1845 1.386 . S
C1844 C1846 1.391 . S
C1845 C1844 1.386 . S
C1845 C1849 1.393 . S
C1846 H1838 0.950 . S
C1846 C1844 1.391 . S
C1846 C1847 1.400 . S
C1847 C1846 1.400 . S
C1847 C1848 1.398 . S
C1847 C1853 1.491 . S
C1848 H1839 0.950 . S
C1848 C1847 1.398 . S
C1848 C1849 1.391 . S
C1849 H1837 0.950 . S
C1849 C1845 1.393 . S
C1849 C1848 1.391 . S
C1850 H1840 0.950 . S
C1850 C1851 1.386 . S
C1850 C1852 1.391 . S
C1851 C1850 1.386 . S
C1851 C1855 1.393 . S
C1852 H1841 0.950 . S
C1852 C1850 1.391 . S
C1852 C1853 1.400 . S
C1853 C1847 1.491 . S
C1853 C1852 1.400 . S
C1853 C1854 1.398 . S
C1854 H1842 0.950 . S
C1854 C1853 1.398 . S
C1854 C1855 1.391 . S
C1855 H1843 0.950 . S
C1855 C1851 1.393 . S
C1855 C1854 1.391 . S
H1856 C1864 0.950 . S
H1857 C1869 0.950 . S
H1858 C1866 0.950 . S
H1859 C1868 0.950 . S
H1860 C1870 0.950 . S
H1861 C1872 0.950 . S
H1862 C1874 0.950 . S
H1863 C1875 0.950 . S
C1864 H1856 0.950 . S
C1864 C1865 1.386 . S
C1864 C1866 1.391 . S
C1865 C1864 1.386 . S
C1865 C1869 1.393 . S
C1866 H1858 0.950 . S
C1866 C1864 1.391 . S
C1866 C1867 1.400 . S
C1867 C1866 1.400 . S
C1867 C1868 1.398 . S
C1867 C1873 1.491 . S
C1868 H1859 0.950 . S
C1868 C1867 1.398 . S
C1868 C1869 1.391 . S
C1869 H1857 0.950 . S
C1869 C1865 1.393 . S
C1869 C1868 1.391 . S
C1870 H1860 0.950 . S
C1870 C1871 1.386 . S
C1870 C1872 1.391 . S
C1871 C1870 1.386 . S
C1871 C1875 1.393 . S
C1872 H1861 0.950 . S
C1872 C1870 1.391 . S
C1872 C1873 1.400 . S
C1873 C1867 1.491 . S
C1873 C1872 1.400 . S
C1873 C1874 1.398 . S
C1874 H1862 0.950 . S
C1874 C1873 1.398 . S
C1874 C1875 1.391 . S
C1875 H1863 0.950 . S
C1875 C1871 1.393 . S
C1875 C1874 1.391 . S
H1876 C1884 0.950 . S
H1877 C1889 0.950 . S
H1878 C1886 0.950 . S
H1879 C1888 0.950 . S
H1880 C1890 0.950 . S
H1881 C1892 0.950 . S
H1882 C1894 0.950 . S
H1883 C1895 0.950 . S
C1884 H1876 0.950 . S
C1884 C1885 1.386 . S
C1884 C1886 1.391 . S
C1885 C1884 1.386 . S
C1885 C1889 1.393 . S
C1886 H1878 0.950 . S
C1886 C1884 1.391 . S
C1886 C1887 1.400 . S
C1887 C1886 1.400 . S
C1887 C1888 1.398 . S
C1887 C1893 1.491 . S
C1888 H1879 0.950 . S
C1888 C1887 1.398 . S
C1888 C1889 1.391 . S
C1889 H1877 0.950 . S
C1889 C1885 1.393 . S
C1889 C1888 1.391 . S
C1890 H1880 0.950 . S
C1890 C1891 1.386 . S
C1890 C1892 1.391 . S
C1891 C1890 1.386 . S
C1891 C1895 1.393 . S
C1892 H1881 0.950 . S
C1892 C1890 1.391 . S
C1892 C1893 1.400 . S
C1893 C1887 1.491 . S
C1893 C1892 1.400 . S
C1893 C1894 1.398 . S
C1894 H1882 0.950 . S
C1894 C1893 1.398 . S
C1894 C1895 1.391 . S
C1895 H1883 0.950 . S
C1895 C1891 1.393 . S
C1895 C1894 1.391 . S
H1896 C1904 0.950 . S
H1897 C1909 0.950 . S
H1898 C1906 0.950 . S
H1899 C1908 0.950 . S
H1900 C1910 0.950 . S
H1901 C1912 0.950 . S
H1902 C1914 0.950 . S
H1903 C1915 0.950 . S
C1904 H1896 0.950 . S
C1904 C1905 1.386 . S
C1904 C1906 1.391 . S
C1905 C1904 1.386 . S
C1905 C1909 1.393 . S
C1906 H1898 0.950 . S
C1906 C1904 1.391 . S
C1906 C1907 1.400 . S
C1907 C1906 1.400 . S
C1907 C1908 1.398 . S
C1907 C1913 1.491 . S
C1908 H1899 0.950 . S
C1908 C1907 1.398 . S
C1908 C1909 1.391 . S
C1909 H1897 0.950 . S
C1909 C1905 1.393 . S
C1909 C1908 1.391 . S
C1910 H1900 0.950 . S
C1910 C1911 1.386 . S
C1910 C1912 1.391 . S
C1911 C1910 1.386 . S
C1911 C1915 1.393 . S
C1912 H1901 0.950 . S
C1912 C1910 1.391 . S
C1912 C1913 1.400 . S
C1913 C1907 1.491 . S
C1913 C1912 1.400 . S
C1913 C1914 1.398 . S
C1914 H1902 0.950 . S
C1914 C1913 1.398 . S
C1914 C1915 1.391 . S
C1915 H1903 0.950 . S
C1915 C1911 1.393 . S
C1915 C1914 1.391 . S
H1916 C1924 0.950 . S
H1917 C1929 0.950 . S
H1918 C1926 0.950 . S
H1919 C1928 0.950 . S
H1920 C1930 0.950 . S
H1921 C1932 0.950 . S
H1922 C1934 0.950 . S
H1923 C1935 0.950 . S
C1924 H1916 0.950 . S
C1924 C1925 1.386 . S
C1924 C1926 1.391 . S
C1925 C1924 1.386 . S
C1925 C1929 1.393 . S
C1926 H1918 0.950 . S
C1926 C1924 1.391 . S
C1926 C1927 1.400 . S
C1927 C1926 1.400 . S
C1927 C1928 1.398 . S
C1927 C1933 1.491 . S
C1928 H1919 0.950 . S
C1928 C1927 1.398 . S
C1928 C1929 1.391 . S
C1929 H1917 0.950 . S
C1929 C1925 1.393 . S
C1929 C1928 1.391 . S
C1930 H1920 0.950 . S
C1930 C1931 1.386 . S
C1930 C1932 1.391 . S
C1931 C1930 1.386 . S
C1931 C1935 1.393 . S
C1932 H1921 0.950 . S
C1932 C1930 1.391 . S
C1932 C1933 1.400 . S
C1933 C1927 1.491 . S
C1933 C1932 1.400 . S
C1933 C1934 1.398 . S
C1934 H1922 0.950 . S
C1934 C1933 1.398 . S
C1934 C1935 1.391 . S
C1935 H1923 0.950 . S
C1935 C1931 1.393 . S
C1935 C1934 1.391 . S
H1936 C1944 0.950 . S
H1937 C1949 0.950 . S
H1938 C1946 0.950 . S
H1939 C1948 0.950 . S
H1940 C1950 0.950 . S
H1941 C1952 0.950 . S
H1942 C1954 0.950 . S
H1943 C1955 0.950 . S
C1944 H1936 0.950 . S
C1944 C1945 1.386 . S
C1944 C1946 1.391 . S
C1945 C1944 1.386 . S
C1945 C1949 1.393 . S
C1946 H1938 0.950 . S
C1946 C1944 1.391 . S
C1946 C1947 1.400 . S
C1947 C1946 1.400 . S
C1947 C1948 1.398 . S
C1947 C1953 1.491 . S
C1948 H1939 0.950 . S
C1948 C1947 1.398 . S
C1948 C1949 1.391 . S
C1949 H1937 0.950 . S
C1949 C1945 1.393 . S
C1949 C1948 1.391 . S
C1950 H1940 0.950 . S
C1950 C1951 1.386 . S
C1950 C1952 1.391 . S
C1951 C1950 1.386 . S
C1951 C1955 1.393 . S
C1952 H1941 0.950 . S
C1952 C1950 1.391 . S
C1952 C1953 1.400 . S
C1953 C1947 1.491 . S
C1953 C1952 1.400 . S
C1953 C1954 1.398 . S
C1954 H1942 0.950 . S
C1954 C1953 1.398 . S
C1954 C1955 1.391 . S
C1955 H1943 0.950 . S
C1955 C1951 1.393 . S
C1955 C1954 1.391 . S
H1956 C1964 0.950 . S
H1957 C1969 0.950 . S
H1958 C1966 0.950 . S
H1959 C1968 0.950 . S
H1960 C1970 0.950 . S
H1961 C1972 0.950 . S
H1962 C1974 0.950 . S
H1963 C1975 0.950 . S
C1964 H1956 0.950 . S
C1964 C1965 1.386 . S
C1964 C1966 1.391 . S
C1965 C1964 1.386 . S
C1965 C1969 1.393 . S
C1966 H1958 0.950 . S
C1966 C1964 1.391 . S
C1966 C1967 1.400 . S
C1967 C1966 1.400 . S
C1967 C1968 1.398 . S
C1967 C1973 1.491 . S
C1968 H1959 0.950 . S
C1968 C1967 1.398 . S
C1968 C1969 1.391 . S
C1969 H1957 0.950 . S
C1969 C1965 1.393 . S
C1969 C1968 1.391 . S
C1970 H1960 0.950 . S
C1970 C1971 1.386 . S
C1970 C1972 1.391 . S
C1971 C1970 1.386 . S
C1971 C1975 1.393 . S
C1972 H1961 0.950 . S
C1972 C1970 1.391 . S
C1972 C1973 1.400 . S
C1973 C1967 1.491 . S
C1973 C1972 1.400 . S
C1973 C1974 1.398 . S
C1974 H1962 0.950 . S
C1974 C1973 1.398 . S
C1974 C1975 1.391 . S
C1975 H1963 0.950 . S
C1975 C1971 1.393 . S
C1975 C1974 1.391 . S
H1976 C1984 0.950 . S
H1977 C1989 0.950 . S
H1978 C1986 0.950 . S
H1979 C1988 0.950 . S
H1980 C1990 0.950 . S
H1981 C1992 0.950 . S
H1982 C1994 0.950 . S
H1983 C1995 0.950 . S
C1984 H1976 0.950 . S
C1984 C1985 1.386 . S
C1984 C1986 1.391 . S
C1985 C1984 1.386 . S
C1985 C1989 1.393 . S
C1986 H1978 0.950 . S
C1986 C1984 1.391 . S
C1986 C1987 1.400 . S
C1987 C1986 1.400 . S
C1987 C1988 1.398 . S
C1987 C1993 1.491 . S
C1988 H1979 0.950 . S
C1988 C1987 1.398 . S
C1988 C1989 1.391 . S
C1989 H1977 0.950 . S
C1989 C1985 1.393 . S
C1989 C1988 1.391 . S
C1990 H1980 0.950 . S
C1990 C1991 1.386 . S
C1990 C1992 1.391 . S
C1991 C1990 1.386 . S
C1991 C1995 1.393 . S
C1992 H1981 0.950 . S
C1992 C1990 1.391 . S
C1992 C1993 1.400 . S
C1993 C1987 1.491 . S
C1993 C1992 1.400 . S
C1993 C1994 1.398 . S
C1994 H1982 0.950 . S
C1994 C1993 1.398 . S
C1994 C1995 1.391 . S
C1995 H1983 0.950 . S
C1995 C1991 1.393 . S
C1995 C1994 1.391 . S
H1996 C2004 0.950 . S
H1997 C2009 0.950 . S
H1998 C2006 0.950 . S
H1999 C2008 0.950 . S
H2000 C2010 0.950 . S
H2001 C2012 0.950 . S
H2002 C2014 0.950 . S
H2003 C2015 0.950 . S
C2004 H1996 0.950 . S
C2004 C2005 1.386 . S
C2004 C2006 1.391 . S
C2005 C2004 1.386 . S
C2005 C2009 1.393 . S
C2006 H1998 0.950 . S
C2006 C2004 1.391 . S
C2006 C2007 1.400 . S
C2007 C2006 1.400 . S
C2007 C2008 1.398 . S
C2007 C2013 1.491 . S
C2008 H1999 0.950 . S
C2008 C2007 1.398 . S
C2008 C2009 1.391 . S
C2009 H1997 0.950 . S
C2009 C2005 1.393 . S
C2009 C2008 1.391 . S
C2010 H2000 0.950 . S
C2010 C2011 1.386 1_565 S
C2010 C2012 1.391 . S
C2011 C2010 1.386 1_545 S
C2011 C2015 1.393 . S
C2012 H2001 0.950 . S
C2012 C2010 1.391 . S
C2012 C2013 1.400 . S
C2013 C2007 1.491 . S
C2013 C2012 1.400 . S
C2013 C2014 1.398 1_565 S
C2014 H2002 0.950 . S
C2014 C2013 1.398 1_545 S
C2014 C2015 1.391 . S
C2015 H2003 0.950 . S
C2015 C2011 1.393 . S
C2015 C2014 1.391 . S
H2016 C2024 0.950 . S
H2017 C2029 0.950 . S
H2018 C2026 0.950 . S
H2019 C2028 0.950 . S
H2020 C2030 0.950 . S
H2021 C2032 0.950 . S
H2022 C2034 0.950 . S
H2023 C2035 0.950 . S
C2024 H2016 0.950 . S
C2024 C2025 1.386 . S
C2024 C2026 1.391 . S
C2025 C2024 1.386 . S
C2025 C2029 1.393 . S
C2026 H2018 0.950 . S
C2026 C2024 1.391 . S
C2026 C2027 1.400 . S
C2027 C2026 1.400 . S
C2027 C2028 1.398 . S
C2027 C2033 1.491 . S
C2028 H2019 0.950 . S
C2028 C2027 1.398 . S
C2028 C2029 1.391 . S
C2029 H2017 0.950 . S
C2029 C2025 1.393 . S
C2029 C2028 1.391 . S
C2030 H2020 0.950 . S
C2030 C2031 1.386 . S
C2030 C2032 1.391 . S
C2031 C2030 1.386 . S
C2031 C2035 1.393 . S
C2032 H2021 0.950 . S
C2032 C2030 1.391 . S
C2032 C2033 1.400 . S
C2033 C2027 1.491 . S
C2033 C2032 1.400 . S
C2033 C2034 1.398 . S
C2034 H2022 0.950 . S
C2034 C2033 1.398 . S
C2034 C2035 1.391 . S
C2035 H2023 0.950 . S
C2035 C2031 1.393 . S
C2035 C2034 1.391 . S
H2036 C2044 0.943 1_556 S
H2037 C2049 0.950 . S
H2038 C2046 0.950 1_556 S
H2039 C2048 0.950 . S
H2040 C2050 0.950 . S
H2041 C2052 0.950 . S
H2042 C2054 0.950 . S
H2043 C2055 0.950 . S
C2044 H2036 0.943 1_554 S
C2044 C2045 1.390 . S
C2044 C2046 1.394 . S
C2045 C2044 1.390 . S
C2045 C2049 1.393 . S
C2046 H2038 0.950 1_554 S
C2046 C2044 1.394 . S
C2046 C2047 1.400 . S
C2047 C2046 1.400 . S
C2047 C2048 1.398 . S
C2047 C2053 1.491 . S
C2048 H2039 0.950 . S
C2048 C2047 1.398 . S
C2048 C2049 1.391 . S
C2049 H2037 0.950 . S
C2049 C2045 1.393 . S
C2049 C2048 1.391 . S
C2050 H2040 0.950 . S
C2050 C2051 1.386 . S
C2050 C2052 1.391 . S
C2051 C2050 1.386 . S
C2051 C2055 1.393 . S
C2052 H2041 0.950 . S
C2052 C2050 1.391 . S
C2052 C2053 1.400 . S
C2053 C2047 1.491 . S
C2053 C2052 1.400 . S
C2053 C2054 1.398 . S
C2054 H2042 0.950 . S
C2054 C2053 1.398 . S
C2054 C2055 1.391 . S
C2055 H2043 0.950 . S
C2055 C2051 1.393 . S
C2055 C2054 1.391 . S
H2056 C2064 0.950 . S
H2057 C2069 0.950 . S
H2058 C2066 0.950 . S
H2059 C2068 0.950 . S
H2060 C2070 0.950 . S
H2061 C2072 0.950 . S
H2062 C2074 0.950 . S
H2063 C2075 0.950 . S
C2064 H2056 0.950 . S
C2064 C2065 1.386 . S
C2064 C2066 1.391 . S
C2065 C2064 1.386 . S
C2065 C2069 1.393 . S
C2066 H2058 0.950 . S
C2066 C2064 1.391 . S
C2066 C2067 1.400 . S
C2067 C2066 1.400 . S
C2067 C2068 1.398 . S
C2067 C2073 1.491 . S
C2068 H2059 0.950 . S
C2068 C2067 1.398 . S
C2068 C2069 1.391 . S
C2069 H2057 0.950 . S
C2069 C2065 1.393 . S
C2069 C2068 1.391 . S
C2070 H2060 0.950 . S
C2070 C2071 1.386 . S
C2070 C2072 1.391 . S
C2071 C2070 1.386 . S
C2071 C2075 1.393 . S
C2072 H2061 0.950 . S
C2072 C2070 1.391 . S
C2072 C2073 1.400 . S
C2073 C2067 1.491 . S
C2073 C2072 1.400 . S
C2073 C2074 1.398 . S
C2074 H2062 0.950 . S
C2074 C2073 1.398 . S
C2074 C2075 1.391 . S
C2075 H2063 0.950 . S
C2075 C2071 1.393 . S
C2075 C2074 1.391 . S
H2076 C2084 0.950 . S
H2077 C2089 0.950 . S
H2078 C2086 0.950 . S
H2079 C2088 0.950 . S
H2080 C2090 0.950 . S
H2081 C2092 0.950 . S
H2082 C2094 0.950 . S
H2083 C2095 0.950 . S
C2084 H2076 0.950 . S
C2084 C2085 1.386 . S
C2084 C2086 1.391 . S
C2085 C2084 1.386 . S
C2085 C2089 1.393 . S
C2086 H2078 0.950 . S
C2086 C2084 1.391 . S
C2086 C2087 1.400 . S
C2087 C2086 1.400 . S
C2087 C2088 1.398 . S
C2087 C2093 1.491 . S
C2088 H2079 0.950 . S
C2088 C2087 1.398 . S
C2088 C2089 1.391 . S
C2089 H2077 0.950 . S
C2089 C2085 1.393 . S
C2089 C2088 1.391 . S
C2090 H2080 0.950 . S
C2090 C2091 1.386 . S
C2090 C2092 1.391 . S
C2091 C2090 1.386 . S
C2091 C2095 1.393 . S
C2092 H2081 0.950 . S
C2092 C2090 1.391 . S
C2092 C2093 1.400 . S
C2093 C2087 1.491 . S
C2093 C2092 1.400 . S
C2093 C2094 1.398 . S
C2094 H2082 0.950 . S
C2094 C2093 1.398 . S
C2094 C2095 1.391 . S
C2095 H2083 0.950 . S
C2095 C2091 1.393 . S
C2095 C2094 1.391 . S
H2096 C2104 0.950 . S
H2097 C2109 0.950 . S
H2098 C2106 0.950 . S
H2099 C2108 0.950 . S
H2100 C2110 0.950 . S
H2101 C2112 0.950 . S
H2102 C2114 0.950 . S
H2103 C2115 0.950 . S
C2104 H2096 0.950 . S
C2104 C2105 1.386 . S
C2104 C2106 1.391 . S
C2105 C2104 1.386 . S
C2105 C2109 1.393 . S
C2106 H2098 0.950 . S
C2106 C2104 1.391 . S
C2106 C2107 1.400 . S
C2107 C2106 1.400 . S
C2107 C2108 1.398 . S
C2107 C2113 1.491 . S
C2108 H2099 0.950 . S
C2108 C2107 1.398 . S
C2108 C2109 1.391 . S
C2109 H2097 0.950 . S
C2109 C2105 1.393 . S
C2109 C2108 1.391 . S
C2110 H2100 0.950 . S
C2110 C2111 1.386 . S
C2110 C2112 1.391 . S
C2111 C2110 1.386 . S
C2111 C2115 1.393 . S
C2112 H2101 0.950 . S
C2112 C2110 1.391 . S
C2112 C2113 1.400 . S
C2113 C2107 1.491 . S
C2113 C2112 1.400 . S
C2113 C2114 1.398 . S
C2114 H2102 0.950 . S
C2114 C2113 1.398 . S
C2114 C2115 1.391 . S
C2115 H2103 0.950 . S
C2115 C2111 1.393 . S
C2115 C2114 1.391 . S
H2116 C2124 0.950 . S
H2117 C2129 0.950 . S
H2118 C2126 0.950 . S
H2119 C2128 0.950 . S
H2120 C2130 0.950 . S
H2121 C2132 0.950 . S
H2122 C2134 0.950 . S
H2123 C2135 0.950 . S
C2124 H2116 0.950 . S
C2124 C2125 1.386 . S
C2124 C2126 1.391 . S
C2125 C2124 1.386 . S
C2125 C2129 1.393 . S
C2126 H2118 0.950 . S
C2126 C2124 1.391 . S
C2126 C2127 1.400 . S
C2127 C2126 1.400 . S
C2127 C2128 1.398 . S
C2127 C2133 1.491 . S
C2128 H2119 0.950 . S
C2128 C2127 1.398 . S
C2128 C2129 1.391 . S
C2129 H2117 0.950 . S
C2129 C2125 1.393 . S
C2129 C2128 1.391 . S
C2130 H2120 0.950 . S
C2130 C2131 1.386 . S
C2130 C2132 1.391 . S
C2131 C2130 1.386 . S
C2131 C2135 1.393 . S
C2132 H2121 0.950 . S
C2132 C2130 1.391 . S
C2132 C2133 1.400 . S
C2133 C2127 1.491 . S
C2133 C2132 1.400 . S
C2133 C2134 1.398 . S
C2134 H2122 0.950 . S
C2134 C2133 1.398 . S
C2134 C2135 1.391 . S
C2135 H2123 0.950 . S
C2135 C2131 1.393 . S
C2135 C2134 1.391 . S
H2136 C2144 0.950 . S
H2137 C2149 0.950 . S
H2138 C2146 0.950 . S
H2139 C2148 0.950 . S
H2140 C2150 0.950 . S
H2141 C2152 0.950 . S
H2142 C2154 0.950 . S
H2143 C2155 0.950 . S
C2144 H2136 0.950 . S
C2144 C2145 1.386 1_655 S
C2144 C2146 1.391 . S
C2145 C2144 1.386 1_455 S
C2145 C2149 1.393 . S
C2146 H2138 0.950 . S
C2146 C2144 1.391 . S
C2146 C2147 1.400 1_655 S
C2147 C2146 1.400 1_455 S
C2147 C2148 1.398 . S
C2147 C2153 1.491 . S
C2148 H2139 0.950 . S
C2148 C2147 1.398 . S
C2148 C2149 1.391 . S
C2149 H2137 0.950 . S
C2149 C2145 1.393 . S
C2149 C2148 1.391 . S
C2150 H2140 0.950 . S
C2150 C2151 1.386 . S
C2150 C2152 1.391 . S
C2151 C2150 1.386 . S
C2151 C2155 1.393 1_455 S
C2152 H2141 0.950 . S
C2152 C2150 1.391 . S
C2152 C2153 1.400 . S
C2153 C2147 1.491 . S
C2153 C2152 1.400 . S
C2153 C2154 1.398 1_455 S
C2154 H2142 0.950 . S
C2154 C2153 1.398 1_655 S
C2154 C2155 1.391 . S
C2155 H2143 0.950 . S
C2155 C2151 1.393 1_655 S
C2155 C2154 1.391 . S
H2156 C2164 0.950 . S
H2157 C2169 0.950 . S
H2158 C2166 0.950 . S
H2159 C2168 0.950 . S
H2160 C2170 0.950 . S
H2161 C2172 0.950 . S
H2162 C2174 0.950 . S
H2163 C2175 0.950 . S
C2164 H2156 0.950 . S
C2164 C2165 1.386 . S
C2164 C2166 1.391 . S
C2165 C2164 1.386 . S
C2165 C2169 1.393 . S
C2166 H2158 0.950 . S
C2166 C2164 1.391 . S
C2166 C2167 1.400 . S
C2167 C2166 1.400 . S
C2167 C2168 1.398 . S
C2167 C2173 1.491 . S
C2168 H2159 0.950 . S
C2168 C2167 1.398 . S
C2168 C2169 1.391 . S
C2169 H2157 0.950 . S
C2169 C2165 1.393 . S
C2169 C2168 1.391 . S
C2170 H2160 0.950 . S
C2170 C2171 1.386 . S
C2170 C2172 1.391 . S
C2171 C2170 1.386 . S
C2171 C2175 1.393 . S
C2172 H2161 0.950 . S
C2172 C2170 1.391 . S
C2172 C2173 1.400 . S
C2173 C2167 1.491 . S
C2173 C2172 1.400 . S
C2173 C2174 1.398 . S
C2174 H2162 0.950 . S
C2174 C2173 1.398 . S
C2174 C2175 1.391 . S
C2175 H2163 0.950 . S
C2175 C2171 1.393 . S
C2175 C2174 1.391 . S
H2176 C2184 0.950 . S
H2177 C2189 0.950 . S
H2178 C2186 0.950 . S
H2179 C2188 0.950 . S
H2180 C2190 0.950 . S
H2181 C2192 0.950 . S
H2182 C2194 0.950 . S
H2183 C2195 0.950 . S
C2184 H2176 0.950 . S
C2184 C2185 1.386 . S
C2184 C2186 1.391 . S
C2185 C2184 1.386 . S
C2185 C2189 1.393 . S
C2186 H2178 0.950 . S
C2186 C2184 1.391 . S
C2186 C2187 1.400 . S
C2187 C2186 1.400 . S
C2187 C2188 1.398 . S
C2187 C2193 1.491 . S
C2188 H2179 0.950 . S
C2188 C2187 1.398 . S
C2188 C2189 1.391 . S
C2189 H2177 0.950 . S
C2189 C2185 1.393 . S
C2189 C2188 1.391 . S
C2190 H2180 0.950 . S
C2190 C2191 1.386 . S
C2190 C2192 1.391 . S
C2191 C2190 1.386 . S
C2191 C2195 1.393 . S
C2192 H2181 0.950 . S
C2192 C2190 1.391 . S
C2192 C2193 1.400 . S
C2193 C2187 1.491 . S
C2193 C2192 1.400 . S
C2193 C2194 1.398 . S
C2194 H2182 0.950 . S
C2194 C2193 1.398 . S
C2194 C2195 1.391 . S
C2195 H2183 0.950 . S
C2195 C2191 1.393 . S
C2195 C2194 1.391 . S
H2196 C2204 0.950 . S
H2197 C2209 0.950 . S
H2198 C2206 0.950 . S
H2199 C2208 0.950 . S
H2200 C2210 0.950 . S
H2201 C2212 0.950 . S
H2202 C2214 0.950 . S
H2203 C2215 0.950 . S
C2204 H2196 0.950 . S
C2204 C2205 1.386 . S
C2204 C2206 1.391 . S
C2205 C2204 1.386 . S
C2205 C2209 1.393 . S
C2206 H2198 0.950 . S
C2206 C2204 1.391 . S
C2206 C2207 1.400 . S
C2207 C2206 1.400 . S
C2207 C2208 1.398 . S
C2207 C2213 1.491 . S
C2208 H2199 0.950 . S
C2208 C2207 1.398 . S
C2208 C2209 1.391 . S
C2209 H2197 0.950 . S
C2209 C2205 1.393 . S
C2209 C2208 1.391 . S
C2210 H2200 0.950 . S
C2210 C2211 1.386 . S
C2210 C2212 1.391 . S
C2211 C2210 1.386 . S
C2211 C2215 1.393 . S
C2212 H2201 0.950 . S
C2212 C2210 1.391 . S
C2212 C2213 1.400 . S
C2213 C2207 1.491 . S
C2213 C2212 1.400 . S
C2213 C2214 1.398 . S
C2214 H2202 0.950 . S
C2214 C2213 1.398 . S
C2214 C2215 1.391 . S
C2215 H2203 0.950 . S
C2215 C2211 1.393 . S
C2215 C2214 1.391 . S
H2216 C2224 0.950 . S
H2217 C2229 0.950 1_655 S
H2218 C2226 0.950 . S
H2219 C2228 0.950 1_655 S
H2220 C2230 0.949 . S
H2221 C2232 0.950 1_655 S
H2222 C2234 0.950 . S
H2223 C2235 0.950 . S
C2224 H2216 0.950 . S
C2224 C2225 1.386 . S
C2224 C2226 1.391 . S
C2225 C2224 1.386 . S
C2225 C2229 1.393 . S
C2226 H2218 0.950 . S
C2226 C2224 1.391 . S
C2226 C2227 1.400 . S
C2227 C2226 1.400 . S
C2227 C2228 1.398 . S
C2227 C2233 1.491 . S
C2228 H2219 0.950 1_455 S
C2228 C2227 1.398 . S
C2228 C2229 1.391 . S
C2229 H2217 0.950 1_455 S
C2229 C2225 1.393 . S
C2229 C2228 1.391 . S
C2230 H2220 0.949 . S
C2230 C2231 1.386 1_655 S
C2230 C2232 1.391 1_655 S
C2231 C2230 1.386 1_455 S
C2231 C2235 1.393 . S
C2232 H2221 0.950 1_455 S
C2232 C2230 1.391 1_455 S
C2232 C2233 1.400 . S
C2233 C2227 1.491 . S
C2233 C2232 1.400 . S
C2233 C2234 1.398 . S
C2234 H2222 0.950 . S
C2234 C2233 1.398 . S
C2234 C2235 1.391 . S
C2235 H2223 0.950 . S
C2235 C2231 1.393 . S
C2235 C2234 1.391 . S
H2236 C2244 0.950 . S
H2237 C2249 0.950 . S
H2238 C2246 0.950 . S
H2239 C2248 0.950 . S
H2240 C2250 0.950 . S
H2241 C2252 0.950 . S
H2242 C2254 0.950 . S
H2243 C2255 0.950 . S
C2244 H2236 0.950 . S
C2244 C2245 1.386 . S
C2244 C2246 1.391 . S
C2245 C2244 1.386 . S
C2245 C2249 1.393 . S
C2246 H2238 0.950 . S
C2246 C2244 1.391 . S
C2246 C2247 1.400 . S
C2247 C2246 1.400 . S
C2247 C2248 1.398 . S
C2247 C2253 1.491 . S
C2248 H2239 0.950 . S
C2248 C2247 1.398 . S
C2248 C2249 1.391 . S
C2249 H2237 0.950 . S
C2249 C2245 1.393 . S
C2249 C2248 1.391 . S
C2250 H2240 0.950 . S
C2250 C2251 1.386 . S
C2250 C2252 1.391 . S
C2251 C2250 1.386 . S
C2251 C2255 1.393 . S
C2252 H2241 0.950 . S
C2252 C2250 1.391 . S
C2252 C2253 1.400 . S
C2253 C2247 1.491 . S
C2253 C2252 1.400 . S
C2253 C2254 1.398 . S
C2254 H2242 0.950 . S
C2254 C2253 1.398 . S
C2254 C2255 1.391 . S
C2255 H2243 0.950 . S
C2255 C2251 1.393 . S
C2255 C2254 1.391 . S
H2256 C2264 0.950 . S
H2257 C2269 0.950 . S
H2258 C2266 0.950 . S
H2259 C2268 0.950 . S
H2260 C2270 0.950 . S
H2261 C2272 0.950 . S
H2262 C2274 0.950 . S
H2263 C2275 0.950 . S
C2264 H2256 0.950 . S
C2264 C2265 1.386 . S
C2264 C2266 1.391 . S
C2265 C2264 1.386 . S
C2265 C2269 1.393 . S
C2266 H2258 0.950 . S
C2266 C2264 1.391 . S
C2266 C2267 1.400 . S
C2267 C2266 1.400 . S
C2267 C2268 1.398 . S
C2267 C2273 1.491 . S
C2268 H2259 0.950 . S
C2268 C2267 1.398 . S
C2268 C2269 1.391 . S
C2269 H2257 0.950 . S
C2269 C2265 1.393 . S
C2269 C2268 1.391 . S
C2270 H2260 0.950 . S
C2270 C2271 1.386 . S
C2270 C2272 1.391 . S
C2271 C2270 1.386 . S
C2271 C2275 1.393 . S
C2272 H2261 0.950 . S
C2272 C2270 1.391 . S
C2272 C2273 1.400 . S
C2273 C2267 1.491 . S
C2273 C2272 1.400 . S
C2273 C2274 1.398 . S
C2274 H2262 0.950 . S
C2274 C2273 1.398 . S
C2274 C2275 1.391 . S
C2275 H2263 0.950 . S
C2275 C2271 1.393 . S
C2275 C2274 1.391 . S
H2276 C2284 0.950 . S
H2277 C2289 0.950 . S
H2278 C2286 0.950 . S
H2279 C2288 0.950 . S
H2280 C2290 0.950 . S
H2281 C2292 0.950 . S
H2282 C2294 0.950 . S
H2283 C2295 0.950 . S
C2284 H2276 0.950 . S
C2284 C2285 1.386 . S
C2284 C2286 1.391 . S
C2285 C2284 1.386 . S
C2285 C2289 1.393 . S
C2286 H2278 0.950 . S
C2286 C2284 1.391 . S
C2286 C2287 1.400 . S
C2287 C2286 1.400 . S
C2287 C2288 1.398 . S
C2287 C2293 1.491 . S
C2288 H2279 0.950 . S
C2288 C2287 1.398 . S
C2288 C2289 1.391 . S
C2289 H2277 0.950 . S
C2289 C2285 1.393 . S
C2289 C2288 1.391 . S
C2290 H2280 0.950 . S
C2290 C2291 1.386 . S
C2290 C2292 1.391 . S
C2291 C2290 1.386 . S
C2291 C2295 1.393 . S
C2292 H2281 0.950 . S
C2292 C2290 1.391 . S
C2292 C2293 1.400 . S
C2293 C2287 1.491 . S
C2293 C2292 1.400 . S
C2293 C2294 1.398 . S
C2294 H2282 0.950 . S
C2294 C2293 1.398 . S
C2294 C2295 1.391 . S
C2295 H2283 0.950 . S
C2295 C2291 1.393 . S
C2295 C2294 1.391 . S
H2296 C2304 0.950 . S
H2297 C2309 0.950 . S
H2298 C2306 0.950 . S
H2299 C2308 0.950 . S
H2300 C2310 0.950 1_455 S
H2301 C2312 0.950 . S
H2302 C2314 0.950 . S
H2303 C2315 0.950 . S
C2304 H2296 0.950 . S
C2304 C2305 1.386 . S
C2304 C2306 1.391 . S
C2305 C2304 1.386 . S
C2305 C2309 1.393 . S
C2306 H2298 0.950 . S
C2306 C2304 1.391 . S
C2306 C2307 1.400 . S
C2307 C2306 1.400 . S
C2307 C2308 1.398 . S
C2307 C2313 1.491 . S
C2308 H2299 0.950 . S
C2308 C2307 1.398 . S
C2308 C2309 1.391 . S
C2309 H2297 0.950 . S
C2309 C2305 1.393 . S
C2309 C2308 1.391 . S
C2310 H2300 0.950 1_655 S
C2310 C2311 1.386 . S
C2310 C2312 1.391 . S
C2311 C2310 1.386 . S
C2311 C2315 1.393 . S
C2312 H2301 0.950 . S
C2312 C2310 1.391 . S
C2312 C2313 1.400 . S
C2313 C2307 1.491 . S
C2313 C2312 1.400 . S
C2313 C2314 1.398 . S
C2314 H2302 0.950 . S
C2314 C2313 1.398 . S
C2314 C2315 1.391 . S
C2315 H2303 0.950 . S
C2315 C2311 1.393 . S
C2315 C2314 1.391 . S
H2316 C2324 0.950 . S
H2317 C2329 0.950 . S
H2318 C2326 0.950 . S
H2319 C2328 0.950 . S
H2320 C2330 0.950 . S
H2321 C2332 0.950 . S
H2322 C2334 0.950 . S
H2323 C2335 0.950 . S
C2324 H2316 0.950 . S
C2324 C2325 1.386 . S
C2324 C2326 1.391 . S
C2325 C2324 1.386 . S
C2325 C2329 1.393 . S
C2326 H2318 0.950 . S
C2326 C2324 1.391 . S
C2326 C2327 1.400 . S
C2327 C2326 1.400 . S
C2327 C2328 1.398 . S
C2327 C2333 1.491 . S
C2328 H2319 0.950 . S
C2328 C2327 1.398 . S
C2328 C2329 1.391 . S
C2329 H2317 0.950 . S
C2329 C2325 1.393 . S
C2329 C2328 1.391 . S
C2330 H2320 0.950 . S
C2330 C2331 1.386 . S
C2330 C2332 1.391 . S
C2331 C2330 1.386 . S
C2331 C2335 1.393 . S
C2332 H2321 0.950 . S
C2332 C2330 1.391 . S
C2332 C2333 1.400 . S
C2333 C2327 1.491 . S
C2333 C2332 1.400 . S
C2333 C2334 1.398 . S
C2334 H2322 0.950 . S
C2334 C2333 1.398 . S
C2334 C2335 1.391 . S
C2335 H2323 0.950 . S
C2335 C2331 1.393 . S
C2335 C2334 1.391 . S
H2336 C2344 0.950 . S
H2337 C2349 0.950 . S
H2338 C2346 0.950 . S
H2339 C2348 0.950 . S
H2340 C2350 0.950 . S
H2341 C2352 0.950 . S
H2342 C2354 0.950 . S
H2343 C2355 0.950 . S
C2344 H2336 0.950 . S
C2344 C2345 1.386 . S
C2344 C2346 1.391 . S
C2345 C2344 1.386 . S
C2345 C2349 1.393 . S
C2346 H2338 0.950 . S
C2346 C2344 1.391 . S
C2346 C2347 1.400 . S
C2347 C2346 1.400 . S
C2347 C2348 1.398 . S
C2347 C2353 1.491 . S
C2348 H2339 0.950 . S
C2348 C2347 1.398 . S
C2348 C2349 1.391 . S
C2349 H2337 0.950 . S
C2349 C2345 1.393 . S
C2349 C2348 1.391 . S
C2350 H2340 0.950 . S
C2350 C2351 1.386 . S
C2350 C2352 1.391 . S
C2351 C2350 1.386 . S
C2351 C2355 1.393 . S
C2352 H2341 0.950 . S
C2352 C2350 1.391 . S
C2352 C2353 1.400 . S
C2353 C2347 1.491 . S
C2353 C2352 1.400 . S
C2353 C2354 1.398 . S
C2354 H2342 0.950 . S
C2354 C2353 1.398 . S
C2354 C2355 1.391 . S
C2355 H2343 0.950 . S
C2355 C2351 1.393 . S
C2355 C2354 1.391 . S
H2356 C2364 0.950 . S
H2357 C2369 0.950 . S
H2358 C2366 0.950 . S
H2359 C2368 0.950 . S
H2360 C2370 0.950 . S
H2361 C2372 0.950 . S
H2362 C2374 0.950 . S
H2363 C2375 0.950 . S
C2364 H2356 0.950 . S
C2364 C2365 1.386 . S
C2364 C2366 1.391 . S
C2365 C2364 1.386 . S
C2365 C2369 1.393 . S
C2366 H2358 0.950 . S
C2366 C2364 1.391 . S
C2366 C2367 1.400 . S
C2367 C2366 1.400 . S
C2367 C2368 1.398 . S
C2367 C2373 1.491 . S
C2368 H2359 0.950 . S
C2368 C2367 1.398 . S
C2368 C2369 1.391 . S
C2369 H2357 0.950 . S
C2369 C2365 1.393 . S
C2369 C2368 1.391 . S
C2370 H2360 0.950 . S
C2370 C2371 1.386 . S
C2370 C2372 1.391 . S
C2371 C2370 1.386 . S
C2371 C2375 1.393 . S
C2372 H2361 0.950 . S
C2372 C2370 1.391 . S
C2372 C2373 1.400 . S
C2373 C2367 1.491 . S
C2373 C2372 1.400 . S
C2373 C2374 1.398 . S
C2374 H2362 0.950 . S
C2374 C2373 1.398 . S
C2374 C2375 1.391 . S
C2375 H2363 0.950 . S
C2375 C2371 1.393 . S
C2375 C2374 1.391 . S
H2376 C2384 0.950 . S
H2377 C2389 0.950 . S
H2378 C2386 0.950 . S
H2379 C2388 0.950 . S
H2380 C2390 0.950 . S
H2381 C2392 0.950 . S
H2382 C2394 0.950 . S
H2383 C2395 0.950 1_455 S
C2384 H2376 0.950 . S
C2384 C2385 1.386 . S
C2384 C2386 1.391 . S
C2385 C2384 1.386 . S
C2385 C2389 1.393 . S
C2386 H2378 0.950 . S
C2386 C2384 1.391 . S
C2386 C2387 1.400 . S
C2387 C2386 1.400 . S
C2387 C2388 1.398 . S
C2387 C2393 1.491 . S
C2388 H2379 0.950 . S
C2388 C2387 1.398 . S
C2388 C2389 1.391 . S
C2389 H2377 0.950 . S
C2389 C2385 1.393 . S
C2389 C2388 1.391 . S
C2390 H2380 0.950 . S
C2390 C2391 1.386 . S
C2390 C2392 1.391 . S
C2391 C2390 1.386 . S
C2391 C2395 1.393 . S
C2392 H2381 0.950 . S
C2392 C2390 1.391 . S
C2392 C2393 1.400 . S
C2393 C2387 1.491 . S
C2393 C2392 1.400 . S
C2393 C2394 1.398 . S
C2394 H2382 0.950 . S
C2394 C2393 1.398 . S
C2394 C2395 1.391 . S
C2395 H2383 0.950 1_655 S
C2395 C2391 1.393 . S
C2395 C2394 1.391 . S
H2396 C2404 0.950 . S
H2397 C2409 0.950 . S
H2398 C2406 0.950 . S
H2399 C2408 0.950 . S
H2400 C2410 0.950 . S
H2401 C2412 0.950 . S
H2402 C2414 0.950 . S
H2403 C2415 0.950 . S
C2404 H2396 0.950 . S
C2404 C2405 1.386 . S
C2404 C2406 1.391 . S
C2405 C2404 1.386 . S
C2405 C2409 1.393 . S
C2406 H2398 0.950 . S
C2406 C2404 1.391 . S
C2406 C2407 1.400 . S
C2407 C2406 1.400 . S
C2407 C2408 1.398 . S
C2407 C2413 1.491 . S
C2408 H2399 0.950 . S
C2408 C2407 1.398 . S
C2408 C2409 1.391 . S
C2409 H2397 0.950 . S
C2409 C2405 1.393 . S
C2409 C2408 1.391 . S
C2410 H2400 0.950 . S
C2410 C2411 1.386 . S
C2410 C2412 1.391 . S
C2411 C2410 1.386 . S
C2411 C2415 1.393 . S
C2412 H2401 0.950 . S
C2412 C2410 1.391 . S
C2412 C2413 1.400 . S
C2413 C2407 1.491 . S
C2413 C2412 1.400 . S
C2413 C2414 1.398 . S
C2414 H2402 0.950 . S
C2414 C2413 1.398 . S
C2414 C2415 1.391 . S
C2415 H2403 0.950 . S
C2415 C2411 1.393 . S
C2415 C2414 1.391 . S
H2416 C2424 0.950 . S
H2417 C2429 0.950 . S
H2418 C2426 0.950 . S
H2419 C2428 0.950 . S
H2420 C2430 0.950 . S
H2421 C2432 0.950 . S
H2422 C2434 0.950 . S
H2423 C2435 0.950 . S
C2424 H2416 0.950 . S
C2424 C2425 1.386 . S
C2424 C2426 1.391 . S
C2425 C2424 1.386 . S
C2425 C2429 1.393 . S
C2426 H2418 0.950 . S
C2426 C2424 1.391 . S
C2426 C2427 1.400 . S
C2427 C2426 1.400 . S
C2427 C2428 1.398 . S
C2427 C2433 1.491 . S
C2428 H2419 0.950 . S
C2428 C2427 1.398 . S
C2428 C2429 1.391 . S
C2429 H2417 0.950 . S
C2429 C2425 1.393 . S
C2429 C2428 1.391 . S
C2430 H2420 0.950 . S
C2430 C2431 1.386 . S
C2430 C2432 1.391 . S
C2431 C2430 1.386 . S
C2431 C2435 1.393 . S
C2432 H2421 0.950 . S
C2432 C2430 1.391 . S
C2432 C2433 1.400 . S
C2433 C2427 1.491 . S
C2433 C2432 1.400 . S
C2433 C2434 1.398 . S
C2434 H2422 0.950 . S
C2434 C2433 1.398 . S
C2434 C2435 1.391 . S
C2435 H2423 0.950 . S
C2435 C2431 1.393 . S
C2435 C2434 1.391 . S
H2436 C2444 0.950 . S
H2437 C2449 0.950 . S
H2438 C2446 0.950 . S
H2439 C2448 0.950 . S
H2440 C2450 0.950 . S
H2441 C2452 0.950 . S
H2442 C2454 0.950 . S
H2443 C2455 0.950 . S
C2444 H2436 0.950 . S
C2444 C2445 1.386 . S
C2444 C2446 1.391 . S
C2445 C2444 1.386 . S
C2445 C2449 1.393 . S
C2446 H2438 0.950 . S
C2446 C2444 1.391 . S
C2446 C2447 1.400 . S
C2447 C2446 1.400 . S
C2447 C2448 1.398 . S
C2447 C2453 1.491 . S
C2448 H2439 0.950 . S
C2448 C2447 1.398 . S
C2448 C2449 1.391 . S
C2449 H2437 0.950 . S
C2449 C2445 1.393 . S
C2449 C2448 1.391 . S
C2450 H2440 0.950 . S
C2450 C2451 1.386 1_545 S
C2450 C2452 1.391 1_545 S
C2451 C2450 1.386 1_565 S
C2451 C2455 1.393 . S
C2452 H2441 0.950 . S
C2452 C2450 1.391 1_565 S
C2452 C2453 1.400 . S
C2453 C2447 1.491 . S
C2453 C2452 1.400 . S
C2453 C2454 1.398 . S
C2454 H2442 0.950 . S
C2454 C2453 1.398 . S
C2454 C2455 1.391 . S
C2455 H2443 0.950 . S
C2455 C2451 1.393 . S
C2455 C2454 1.391 . S
H2456 C2464 0.950 . S
H2457 C2469 0.950 . S
H2458 C2466 0.950 . S
H2459 C2468 0.950 . S
H2460 C2470 0.950 . S
H2461 C2472 0.950 . S
H2462 C2474 0.950 . S
H2463 C2475 0.950 . S
C2464 H2456 0.950 . S
C2464 C2465 1.386 . S
C2464 C2466 1.391 . S
C2465 C2464 1.386 . S
C2465 C2469 1.393 . S
C2466 H2458 0.950 . S
C2466 C2464 1.391 . S
C2466 C2467 1.400 . S
C2467 C2466 1.400 . S
C2467 C2468 1.398 . S
C2467 C2473 1.491 . S
C2468 H2459 0.950 . S
C2468 C2467 1.398 . S
C2468 C2469 1.391 . S
C2469 H2457 0.950 . S
C2469 C2465 1.393 . S
C2469 C2468 1.391 . S
C2470 H2460 0.950 . S
C2470 C2471 1.386 . S
C2470 C2472 1.391 . S
C2471 C2470 1.386 . S
C2471 C2475 1.393 . S
C2472 H2461 0.950 . S
C2472 C2470 1.391 . S
C2472 C2473 1.400 . S
C2473 C2467 1.491 . S
C2473 C2472 1.400 . S
C2473 C2474 1.398 . S
C2474 H2462 0.950 . S
C2474 C2473 1.398 . S
C2474 C2475 1.391 . S
C2475 H2463 0.950 . S
C2475 C2471 1.393 . S
C2475 C2474 1.391 . S
H2476 C2484 0.950 . S
H2477 C2489 0.950 . S
H2478 C2486 0.950 . S
H2479 C2488 0.950 . S
H2480 C2490 0.950 . S
H2481 C2492 0.950 . S
H2482 C2494 0.950 . S
H2483 C2495 0.950 . S
C2484 H2476 0.950 . S
C2484 C2485 1.386 1_554 S
C2484 C2486 1.391 . S
C2485 C2484 1.386 1_556 S
C2485 C2489 1.393 . S
C2486 H2478 0.950 . S
C2486 C2484 1.391 . S
C2486 C2487 1.405 . S
C2487 C2486 1.405 . S
C2487 C2488 1.392 1_554 S
C2487 C2493 1.492 . S
C2488 H2479 0.950 . S
C2488 C2487 1.392 1_556 S
C2488 C2489 1.391 . S
C2489 H2477 0.950 . S
C2489 C2485 1.393 . S
C2489 C2488 1.391 . S
C2490 H2480 0.950 . S
C2490 C2491 1.386 1_556 S
C2490 C2492 1.391 . S
C2491 C2490 1.386 1_554 S
C2491 C2495 1.393 . S
C2492 H2481 0.950 . S
C2492 C2490 1.391 . S
C2492 C2493 1.400 1_556 S
C2493 C2487 1.492 . S
C2493 C2492 1.400 1_554 S
C2493 C2494 1.398 . S
C2494 H2482 0.950 . S
C2494 C2493 1.398 . S
C2494 C2495 1.391 . S
C2495 H2483 0.950 . S
C2495 C2491 1.393 . S
C2495 C2494 1.391 . S
H2496 C2504 0.950 . S
H2497 C2509 0.950 . S
H2498 C2506 0.950 . S
H2499 C2508 0.950 . S
H2500 C2510 0.950 . S
H2501 C2512 0.950 . S
H2502 C2514 0.950 . S
H2503 C2515 0.950 . S
C2504 H2496 0.950 . S
C2504 C2505 1.386 . S
C2504 C2506 1.391 . S
C2505 C2504 1.386 . S
C2505 C2509 1.393 . S
C2506 H2498 0.950 . S
C2506 C2504 1.391 . S
C2506 C2507 1.400 . S
C2507 C2506 1.400 . S
C2507 C2508 1.398 . S
C2507 C2513 1.491 . S
C2508 H2499 0.950 . S
C2508 C2507 1.398 . S
C2508 C2509 1.391 . S
C2509 H2497 0.950 . S
C2509 C2505 1.393 . S
C2509 C2508 1.391 . S
C2510 H2500 0.950 . S
C2510 C2511 1.386 . S
C2510 C2512 1.391 . S
C2511 C2510 1.386 . S
C2511 C2515 1.393 . S
C2512 H2501 0.950 . S
C2512 C2510 1.391 . S
C2512 C2513 1.400 . S
C2513 C2507 1.491 . S
C2513 C2512 1.400 . S
C2513 C2514 1.398 . S
C2514 H2502 0.950 . S
C2514 C2513 1.398 . S
C2514 C2515 1.391 . S
C2515 H2503 0.950 . S
C2515 C2511 1.393 . S
C2515 C2514 1.391 . S
H2516 C2524 0.950 . S
H2517 C2529 0.950 . S
H2518 C2526 0.950 . S
H2519 C2528 0.950 . S
H2520 C2530 0.950 . S
H2521 C2532 0.950 . S
H2522 C2534 0.950 . S
H2523 C2535 0.950 . S
C2524 H2516 0.950 . S
C2524 C2525 1.386 1_556 S
C2524 C2526 1.391 . S
C2525 C2524 1.386 1_554 S
C2525 C2529 1.393 . S
C2526 H2518 0.950 . S
C2526 C2524 1.391 . S
C2526 C2527 1.400 1_556 S
C2527 C2526 1.400 1_554 S
C2527 C2528 1.398 . S
C2527 C2533 1.490 1_554 S
C2528 H2519 0.950 . S
C2528 C2527 1.398 . S
C2528 C2529 1.391 . S
C2529 H2517 0.950 . S
C2529 C2525 1.393 . S
C2529 C2528 1.391 . S
C2530 H2520 0.950 . S
C2530 C2531 1.386 1_554 S
C2530 C2532 1.391 . S
C2531 C2530 1.386 1_556 S
C2531 C2535 1.393 . S
C2532 H2521 0.950 . S
C2532 C2530 1.391 . S
C2532 C2533 1.398 1_554 S
C2533 C2527 1.490 1_556 S
C2533 C2532 1.398 1_556 S
C2533 C2534 1.401 . S
C2534 H2522 0.950 . S
C2534 C2533 1.401 . S
C2534 C2535 1.391 . S
C2535 H2523 0.950 . S
C2535 C2531 1.393 . S
C2535 C2534 1.391 . S
H2536 C2544 0.950 . S
H2537 C2549 0.950 . S
H2538 C2546 0.950 . S
H2539 C2548 0.950 . S
H2540 C2550 0.950 . S
H2541 C2552 0.950 . S
H2542 C2554 0.950 . S
H2543 C2555 0.950 . S
C2544 H2536 0.950 . S
C2544 C2545 1.386 . S
C2544 C2546 1.391 . S
C2545 C2544 1.386 . S
C2545 C2549 1.393 . S
C2546 H2538 0.950 . S
C2546 C2544 1.391 . S
C2546 C2547 1.400 . S
C2547 C2546 1.400 . S
C2547 C2548 1.398 . S
C2547 C2553 1.491 . S
C2548 H2539 0.950 . S
C2548 C2547 1.398 . S
C2548 C2549 1.391 . S
C2549 H2537 0.950 . S
C2549 C2545 1.393 . S
C2549 C2548 1.391 . S
C2550 H2540 0.950 . S
C2550 C2551 1.386 . S
C2550 C2552 1.391 . S
C2551 C2550 1.386 . S
C2551 C2555 1.393 . S
C2552 H2541 0.950 . S
C2552 C2550 1.391 . S
C2552 C2553 1.400 . S
C2553 C2547 1.491 . S
C2553 C2552 1.400 . S
C2553 C2554 1.398 . S
C2554 H2542 0.950 . S
C2554 C2553 1.398 . S
C2554 C2555 1.391 . S
C2555 H2543 0.950 . S
C2555 C2551 1.393 . S
C2555 C2554 1.391 . S
H2556 C2564 0.950 . S
H2557 C2569 0.950 . S
H2558 C2566 0.950 . S
H2559 C2568 0.950 . S
H2560 C2570 0.950 . S
H2561 C2572 0.950 . S
H2562 C2574 0.950 . S
H2563 C2575 0.950 . S
C2564 H2556 0.950 . S
C2564 C2565 1.386 . S
C2564 C2566 1.391 . S
C2565 C2564 1.386 . S
C2565 C2569 1.393 . S
C2566 H2558 0.950 . S
C2566 C2564 1.391 . S
C2566 C2567 1.400 . S
C2567 C2566 1.400 . S
C2567 C2568 1.398 . S
C2567 C2573 1.491 . S
C2568 H2559 0.950 . S
C2568 C2567 1.398 . S
C2568 C2569 1.391 . S
C2569 H2557 0.950 . S
C2569 C2565 1.393 . S
C2569 C2568 1.391 . S
C2570 H2560 0.950 . S
C2570 C2571 1.386 . S
C2570 C2572 1.391 . S
C2571 C2570 1.386 . S
C2571 C2575 1.393 . S
C2572 H2561 0.950 . S
C2572 C2570 1.391 . S
C2572 C2573 1.400 . S
C2573 C2567 1.491 . S
C2573 C2572 1.400 . S
C2573 C2574 1.398 . S
C2574 H2562 0.950 . S
C2574 C2573 1.398 . S
C2574 C2575 1.391 . S
C2575 H2563 0.950 . S
C2575 C2571 1.393 . S
C2575 C2574 1.391 . S
C665 C105 1.586 . S
C671 C354 1.540 1_556 S
C685 C65 1.645 . S
C691 C365 1.642 . S
C705 C73 1.042 . S
C711 C394 1.017 . S
C731 C397 1.448 . S
C725 C92 1.455 . S
C745 C17 1.678 . S
C751 C435 1.614 . S
C771 C438 1.009 . S
C765 C37 1.009 . S
C791 C465 1.491 . S
C785 C49 1.446 . S
C805 C8 1.662 . S
C811 C494 1.605 . S
C831 C345 1.568 1_655 S
C825 C231 1.520 . S
C845 C241 0.881 . S
C851 C357 0.863 . S
C871 C385 1.586 . S
C865 C273 1.550 . S
C891 C414 1.092 . S
C885 C171 1.124 . S
C905 C227 1.012 . S
C911 C418 1.014 . S
C931 C444 1.615 . S
C925 C245 1.588 . S
C951 C457 0.755 . S
C945 C269 0.767 . S
C971 C485 1.610 . S
C965 C175 1.574 . S
C991 C337 1.513 1_565 S
C985 C162 1.537 . S
C1005 C289 1.751 . S
C1011 C504 1.717 1_554 S
C1031 C535 1.547 . S
C1025 C330 1.601 . S
C1051 C554 0.926 . S
C1045 C317 0.957 . S
C1065 C120 1.345 . S
C1071 C477 1.350 . S
C1085 C134 1.495 . S
C1091 C377 1.492 . S
C1105 C331 1.559 . S
C1111 C565 1.552 . S
C1131 C594 0.876 . S
C1125 C303 0.903 . S
C1151 C355 1.588 . S
C1145 C59 1.629 . S
C1171 C584 1.671 . S
C1165 C107 1.665 . S
C1185 C91 1.065 . S
C1191 C395 1.074 . S
C1205 C78 1.479 . S
C1211 C558 1.470 . S
C1231 C434 1.641 . S
C1225 C7 1.655 . S
C1245 C51 1.017 . S
C1251 C517 1.030 . S
C1271 C464 1.531 1_556 S
C1265 C31 1.537 . S
C1291 C615 1.603 . S
C1285 C22 1.670 . S
C1311 C344 1.584 . S
C1305 C143 1.595 . S
C1331 C578 0.893 . S
C1325 C315 0.885 . S
C1345 C115 1.618 . S
C1351 C384 1.610 . S
C1365 C287 1.153 . S
C1371 C575 1.151 . S
C1385 C147 0.985 . S
C1391 C417 1.046 . S
C1411 C525 1.629 . S
C1405 C311 1.661 . S
C1425 C119 0.797 . S
C1431 C458 0.787 . S
C1445 C283 1.641 . S
C1451 C604 1.632 . S
C1465 C190 1.548 . S
C1471 C338 1.525 . S
C1485 C177 1.771 . S
C1491 C505 1.755 . S
C1505 C260 1.602 . S
C1511 C454 1.544 . S
C1525 C247 1.006 . S
C1531 C555 0.971 . S
C1551 C598 1.360 . S
C1545 C274 1.359 . S
C1565 C218 1.500 . S
C1571 C378 1.510 . S
C1591 C404 1.583 . S
C1585 C261 1.588 . S
C1611 C375 0.897 . S
C1605 C205 0.943 . S
C1625 C77 1.583 . S
C1631 C634 1.551 . S
C1651 C585 1.640 . S
C1645 C93 1.644 . S
C1665 C101 1.045 . S
C1671 C654 0.998 . S
C1685 C64 1.453 . S
C1691 C557 1.452 . S
C1705 C45 1.679 . S
C1711 C515 1.623 . S
C1731 C518 1.014 . S
C1725 C9 0.998 . S
C1751 C545 1.492 . S
C1745 C21 1.458 . S
C1771 C614 1.592 . S
C1765 C36 1.657 . S
C1791 C625 1.564 . S
C1785 C259 1.522 . S
C1805 C185 0.884 . S
C1811 C577 0.867 . S
C1831 C645 1.591 . S
C1825 C203 1.540 . S
C1851 C574 1.111 . S
C1845 C213 1.116 . S
C1871 C498 1.005 . S
C1865 C255 1.003 . S
C1885 C189 1.601 . S
C1891 C524 1.620 . S
C1911 C537 0.781 . S
C1905 C199 0.777 . S
C1925 C217 1.590 . S
C1931 C605 1.599 . S
C1951 C617 1.521 . S
C1945 C316 1.535 . S
C1965 C135 1.748 . S
C1971 C424 1.727 . S
C1991 C455 1.550 . S
C1985 C148 1.605 . S
C2011 C474 0.937 . S
C2005 C163 0.960 . S
C2031 C597 1.340 . S
C2025 C302 1.338 . S
C2045 C288 1.506 . S
C2051 C637 1.502 . S
C2071 C405 1.557 . S
C2065 C149 1.559 . S
C2091 C374 0.891 . S
C2085 C121 0.913 . S
C2105 C87 1.627 . S
C2111 C635 1.593 . S
C2131 C364 1.666 . S
C2125 C79 1.665 . S
C2145 C63 1.046 . S
C2151 C655 1.044 . S
C2165 C106 1.482 . S
C2171 C398 1.470 . S
C2185 C35 1.667 . S
C2191 C514 1.646 . S
C2211 C437 1.020 . S
C2205 C23 1.033 . S
C2225 C3 1.535 . S
C2231 C544 1.523 . S
C2245 C50 1.673 . S
C2251 C495 1.606 . S
C2271 C624 1.586 . S
C2265 C325 1.594 . S
C2285 C161 0.888 . S
C2291 C358 0.893 . S
C2311 C644 1.614 1_655 S
C2305 C297 1.620 . S
C2325 C133 1.142 . S
C2331 C415 1.164 . S
C2345 C329 0.979 . S
C2351 C497 1.047 . S
C2371 C445 1.637 . S
C2365 C157 1.660 . S
C2385 C301 0.778 . S
C2391 C538 0.790 . S
C2411 C484 1.622 . S
C2405 C129 1.637 . S
C2431 C618 1.537 . S
C2425 C246 1.552 . S
C2451 C425 1.742 1_565 S
C2445 C219 1.770 . S
C2465 C232 1.600 . S
C2471 C534 1.559 . S
C2491 C475 0.999 . S
C2485 C191 0.990 . S
C2505 C204 1.346 . S
C2511 C478 1.357 . S
C2525 C176 1.511 . S
C2531 C638 1.506 . S
C2551 C564 1.585 . S
C2545 C233 1.591 . S
C2571 C595 0.899 . S
C2565 C275 0.942 . S
