# Generated by pormake.
# Topology rtl, (3,6)-cn, num edge types: 1
# Building blocks:
#     Node 0, Type 0, BuildingBlock: WUSLED_clean_sbu_0, # of connection points: 3
#     Node 1, Type 0, BuildingBlock: WUSLED_clean_sbu_0, # of connection points: 3
#     Node 2, Type 0, BuildingBlock: WUSLED_clean_sbu_0, # of connection points: 3
#     Node 3, Type 0, BuildingBlock: WUSLED_clean_sbu_0, # of connection points: 3
#     Node 4, Type 1, BuildingBlock: LEVNOQ01_clean_sbu_1, # of connection points: 6
#     Node 5, Type 1, BuildingBlock: LEVNOQ01_clean_sbu_1, # of connection points: 6
#     Edge 6, Type (0, 1), BuildingBlock: XIVTED_clean_linker_0, # of connection points: 2
#     Edge 7, Type (0, 1), BuildingBlock: XIVTED_clean_linker_0, # of connection points: 2
#     Edge 8, Type (0, 1), BuildingBlock: XIVTED_clean_linker_0, # of connection points: 2
#     Edge 9, Type (0, 1), BuildingBlock: XIVTED_clean_linker_0, # of connection points: 2
#     Edge 10, Type (0, 1), BuildingBlock: XIVTED_clean_linker_0, # of connection points: 2
#     Edge 11, Type (0, 1), BuildingBlock: XIVTED_clean_linker_0, # of connection points: 2
#     Edge 12, Type (0, 1), BuildingBlock: XIVTED_clean_linker_0, # of connection points: 2
#     Edge 13, Type (0, 1), BuildingBlock: XIVTED_clean_linker_0, # of connection points: 2
#     Edge 14, Type (0, 1), BuildingBlock: XIVTED_clean_linker_0, # of connection points: 2
#     Edge 15, Type (0, 1), BuildingBlock: XIVTED_clean_linker_0, # of connection points: 2
#     Edge 16, Type (0, 1), BuildingBlock: XIVTED_clean_linker_0, # of connection points: 2
#     Edge 17, Type (0, 1), BuildingBlock: XIVTED_clean_linker_0, # of connection points: 2
# Relax obj value: 0.023
# Max RMSD: 0.059
# Mean RMSD: 0.042
data_MOF--net-rtl--node1-WUSLED_clean_sbu_0--node2-LEVNOQ01_clean_sbu_1--edge1-XIVTED_clean_linker_0
_symmetry_space_group_name_H-M    P1
_symmetry_Int_Tables_number       1
_symmetry_cell_setting            triclinic
loop_
_symmetry_equiv_pos_as_xyz
'x, y, z'
_cell_length_a     40.406797
_cell_length_b     45.622085
_cell_length_c     31.587348
_cell_angle_alpha  90.270243
_cell_angle_beta   98.369734
_cell_angle_gamma 89.934363
loop_
_atom_site_label
_atom_site_type_symbol
_atom_site_fract_x
_atom_site_fract_y
_atom_site_fract_z
_atom_type_partial_charge
C0 C 0.20839 0.87295 0.21525 0.0
C1 C 0.19322 0.85719 0.24522 0.0
C2 C 0.18582 0.902 0.28508 0.0
C3 C 0.18194 0.8715 0.27956 0.0
C4 C 0.20064 0.91789 0.25468 0.0
C5 C 0.21185 0.90352 0.2201 0.0
U6 U 0.21504 0.85428 0.09708 0.0
O7 O 0.25999 0.84271 0.06853 0.0
O8 O 0.21895 0.81105 0.06739 0.0
C9 C 0.24977 0.81566 0.06024 0.0
C10 C 0.2219 0.85664 0.18097 0.0
C11 C 0.27412 0.79246 0.07477 0.0
C12 C 0.29452 0.75333 0.12393 0.0
C13 C 0.27212 0.77633 0.11213 0.0
C14 C 0.32183 0.76306 0.06208 0.0
C15 C 0.31951 0.74632 0.09886 0.0
C16 C 0.29932 0.78584 0.05016 0.0
C17 C 0.16307 0.8944 1.00407 0.0
C18 C 0.17483 0.89427 0.93069 0.0
C19 C 0.12131 0.91179 0.94644 0.0
C20 C 0.13124 0.9059 0.98985 0.0
C21 C 0.14313 0.9064 0.91638 0.0
C22 C 0.18465 0.8882 0.97412 0.0
C23 C 0.17341 0.88949 0.05019 0.0
O24 O 0.20103 0.8387 0.1579 0.0
O25 O 0.2412 0.87114 0.15824 0.0
O26 O 0.2044 0.89673 0.06533 0.0
O27 O 0.1642 0.86435 0.06494 0.0
H28 H 0.19034 0.83362 0.24228 0.0
H29 H 0.16999 0.8586 0.30172 0.0
H30 H 0.20422 0.94135 0.25806 0.0
H31 H 0.22358 0.9163 0.1976 0.0
H32 H 0.29226 0.741 0.15259 0.0
H33 H 0.253 0.78125 0.13184 0.0
H34 H 0.34045 0.75799 0.04169 0.0
H35 H 0.30126 0.79802 0.02125 0.0
H36 H 0.19208 0.88958 0.90831 0.0
H37 H 0.09692 0.92145 0.93663 0.0
H38 H 0.11422 0.91077 0.01247 0.0
H39 H 0.20924 0.87902 0.98438 0.0
C40 C 0.72 0.65656 0.70976 0.0
C41 C 0.693 0.637 0.70191 0.0
C42 C 0.69749 0.6267 0.77827 0.0
C43 C 0.68184 0.62217 0.73591 0.0
C44 C 0.72542 0.64542 0.78554 0.0
C45 C 0.73651 0.66022 0.7516 0.0
U46 U 0.72072 0.67535 0.59133 0.0
O47 O 0.7161 0.71835 0.55996 0.0
O48 O 0.76209 0.69263 0.56036 0.0
C49 C 0.7472 0.71805 0.55216 0.0
C50 C 0.73019 0.67458 0.67538 0.0
C51 C 0.76765 0.74442 0.56525 0.0
C52 C 0.77411 0.79328 0.59695 0.0
C53 C 0.75496 0.76796 0.58699 0.0
C54 C 0.81928 0.77178 0.56471 0.0
C55 C 0.8064 0.79557 0.58566 0.0
C56 C 0.80005 0.74657 0.55446 0.0
C57 C 0.67327 0.62579 0.50309 0.0
C58 C 0.64837 0.63763 0.4302 0.0
C59 C 0.65821 0.58698 0.45095 0.0
C60 C 0.67172 0.59599 0.49217 0.0
C61 C 0.6457 0.60762 0.41965 0.0
C62 C 0.66203 0.64666 0.4716 0.0
C63 C 0.68507 0.63413 0.54797 0.0
O64 O 0.75084 0.66221 0.65215 0.0
O65 O 0.70608 0.68945 0.65254 0.0
O66 O 0.67194 0.65793 0.56231 0.0
O67 O 0.71738 0.63168 0.56082 0.0
H68 H 0.67998 0.63388 0.66973 0.0
H69 H 0.66008 0.60815 0.72919 0.0
H70 H 0.73837 0.64907 0.81763 0.0
H71 H 0.75752 0.67511 0.7582 0.0
H72 H 0.76358 0.81115 0.61335 0.0
H73 H 0.7301 0.76706 0.5959 0.0
H74 H 0.84385 0.773 0.55496 0.0
H75 H 0.81036 0.72888 0.53744 0.0
H76 H 0.63889 0.65409 0.40696 0.0
H77 H 0.65724 0.56374 0.44375 0.0
H78 H 0.68043 0.57955 0.51587 0.0
H79 H 0.6631 0.66984 0.47922 0.0
C80 C 0.8141 0.17266 0.13004 0.0
C81 C 0.81808 0.14211 0.12948 0.0
C82 C 0.84798 0.14336 0.20245 0.0
C83 C 0.83468 0.1276 0.16537 0.0
C84 C 0.8438 0.174 0.20277 0.0
C85 C 0.82699 0.18846 0.16694 0.0
U86 U 0.79161 0.18152 0.00892 0.0
O87 O 0.74493 0.19588 0.96985 0.0
O88 O 0.79094 0.22127 0.9696 0.0
C89 C 0.75848 0.21993 0.95733 0.0
C90 C 0.79733 0.18849 0.09226 0.0
C91 C 0.74001 0.24711 0.96283 0.0
C92 C 0.71725 0.28243 0.00856 0.0
C93 C 0.73501 0.25662 1.00367 0.0
C94 C 0.70938 0.28958 0.93178 0.0
C95 C 0.70422 0.29928 0.97267 0.0
C96 C 0.72715 0.26372 0.92695 0.0
C97 C 0.8237 0.12655 0.93334 0.0
C98 C 0.81537 0.13419 0.85645 0.0
C99 C 0.84928 0.09355 0.88699 0.0
C100 C 0.84322 0.10182 0.92785 0.0
C101 C 0.83594 0.10995 0.85083 0.0
C102 C 0.80934 0.14243 0.89737 0.0
C103 C 0.82026 0.13657 0.97676 0.0
O104 O 0.81744 0.20102 0.06863 0.0
O105 O 0.77187 0.17506 0.06954 0.0
O106 O 0.78989 0.13556 0.98701 0.0
O107 O 0.83603 0.16109 0.98864 0.0
H108 H 0.80845 0.12945 0.10127 0.0
H109 H 0.83689 0.10397 0.16408 0.0
H110 H 0.85408 0.18695 0.23038 0.0
H111 H 0.82436 0.21208 0.16789 0.0
H112 H 0.71327 0.28892 0.04045 0.0
H113 H 0.74471 0.24399 0.03173 0.0
H114 H 0.7 0.30213 0.90354 0.0
H115 H 0.73088 0.25668 0.89517 0.0
H116 H 0.80441 0.14711 0.82929 0.0
H117 H 0.86561 0.07505 0.884 0.0
H118 H 0.85461 0.0894 0.95533 0.0
H119 H 0.79414 0.16161 0.90108 0.0
C120 C 0.29094 0.37989 0.36942 0.0
C121 C 0.32082 0.39601 0.37631 0.0
C122 C 0.31334 0.41004 0.30103 0.0
C123 C 0.33193 0.41098 0.34237 0.0
C124 C 0.28285 0.39463 0.29485 0.0
C125 C 0.27183 0.3797 0.3287 0.0
U126 U 0.2884 0.35959 0.48743 0.0
O127 O 0.24492 0.34547 0.51697 0.0
O128 O 0.28783 0.31594 0.51648 0.0
C129 C 0.25689 0.31887 0.52428 0.0
C130 C 0.27971 0.36217 0.40347 0.0
C131 C 0.23356 0.29459 0.5102 0.0
C132 C 0.2193 0.24939 0.47028 0.0
C133 C 0.24112 0.27297 0.48115 0.0
C134 C 0.18159 0.26917 0.51615 0.0
C135 C 0.18939 0.24712 0.4879 0.0
C136 C 0.20349 0.29256 0.52726 0.0
C137 C 0.33744 0.40405 0.57982 0.0
C138 C 0.35775 0.38922 0.65308 0.0
C139 C 0.34756 0.44051 0.63657 0.0
C140 C 0.3376 0.4333 0.59358 0.0
C141 C 0.35775 0.4186 0.6669 0.0
C142 C 0.34751 0.38198 0.60994 0.0
C143 C 0.32701 0.39749 0.53394 0.0
O144 O 0.30258 0.34571 0.42581 0.0
O145 O 0.25994 0.37542 0.42704 0.0
O146 O 0.29542 0.40264 0.51929 0.0
O147 O 0.33826 0.37301 0.51905 0.0
H148 H 0.33588 0.39649 0.40763 0.0
H149 H 0.35565 0.4224 0.3482 0.0
H150 H 0.26762 0.39385 0.26367 0.0
H151 H 0.24858 0.36753 0.32287 0.0
H152 H 0.2259 0.23287 0.44823 0.0
H153 H 0.26404 0.27404 0.46721 0.0
H154 H 0.15903 0.26786 0.53084 0.0
H155 H 0.19717 0.30888 0.54981 0.0
H156 H 0.36524 0.37183 0.67569 0.0
H157 H 0.34776 0.46338 0.64594 0.0
H158 H 0.33011 0.45069 0.57093 0.0
H159 H 0.34748 0.35918 0.60021 0.0
O160 O 0.99417 0.07873 0.63312 0.0
Mg161 Mg 0.03972 0.0656 0.61483 0.0
O162 O 0.96784 0.04275 0.59509 0.0
Mg163 Mg 0.00547 0.02154 0.55293 0.0
O164 O 0.03948 0.06327 0.55012 0.0
O165 O 0.06657 0.09782 0.59296 0.0
O166 O 0.04572 0.00222 0.51126 0.0
O167 O 0.97331 0.04277 0.49297 0.0
Mg168 Mg 0.98748 0.97722 0.50014 0.0
O169 O 0.96862 0.98065 0.55672 0.0
O170 O 0.03324 0.95583 0.50257 0.0
O171 O 0.97141 0.00558 0.44836 0.0
O172 O 0.9514 0.94786 0.50443 0.0
C173 C 0.05983 0.00663 0.64425 0.0
C174 C 0.96785 0.06408 0.62148 0.0
C175 C 0.05834 0.08657 0.55536 0.0
C176 C 0.0537 0.97637 0.50074 0.0
C177 C 0.96551 0.03225 0.45537 0.0
C178 C 0.95029 0.95821 0.5422 0.0
O179 O 0.06786 0.03324 0.65051 0.0
O180 O 0.03751 0.99925 0.61309 0.0
O181 O 0.52161 0.49931 0.14022 0.0
Mg182 Mg 0.50902 0.47461 0.08279 0.0
O183 O 0.53429 0.53678 0.10266 0.0
Mg184 Mg 0.50267 0.51972 0.03939 0.0
O185 O 0.53764 0.47693 0.03478 0.0
O186 O 0.5428 0.44231 0.08601 0.0
O187 O 0.47038 0.501 0.97608 0.0
O188 O 0.54434 0.53896 1.00159 0.0
Mg189 Mg 0.47601 0.56775 0.98003 0.0
O190 O 0.47224 0.56347 0.04352 0.0
O191 O 0.44649 0.53852 0.93963 0.0
O192 O 0.52369 0.57841 0.96691 0.0
O193 O 0.45114 0.60122 1.00254 0.0
C194 C 0.44517 0.47838 0.07971 0.0
C195 C 0.53438 0.52453 0.13884 0.0
C196 C 0.55168 0.45316 0.05184 0.0
C197 C 0.45054 0.51118 0.94426 0.0
C198 C 0.54785 0.56121 0.97819 0.0
C199 C 0.45589 0.58818 0.03907 0.0
O200 O 0.46095 0.45638 0.06917 0.0
O201 O 0.45853 0.50358 0.07764 0.0
H202 H 0.12082 0.24557 0.47137 0.0
H203 H 0.11638 0.07646 0.52435 0.0
H204 H 0.20751 0.18924 0.48516 0.0
H205 H 0.02997 0.13271 0.5106 0.0
H206 H 0.14713 0.11408 0.49106 0.0
H207 H 0.085 0.20228 0.46861 0.0
C208 C 0.13231 0.22406 0.47336 0.0
C209 C 0.16726 0.22107 0.47929 0.0
C210 C 0.12109 0.11788 0.4939 0.0
C211 C 0.12636 0.17129 0.47619 0.0
C212 C 0.10341 0.09618 0.51227 0.0
C213 C 0.07061 0.10151 0.51973 0.0
C214 C 0.10594 0.14525 0.48386 0.0
C215 C 0.05515 0.12773 0.50483 0.0
C216 C 0.11183 0.19931 0.47153 0.0
C217 C 0.18071 0.19262 0.48069 0.0
N218 N 0.07315 0.1489 0.48839 0.0
N219 N 0.16029 0.16888 0.47991 0.0
H220 H 0.30374 0.69141 0.12536 0.0
H221 H 0.39799 0.57572 0.06918 0.0
H222 H 0.38689 0.74306 0.09646 0.0
H223 H 0.48131 0.63535 0.08408 0.0
H224 H 0.36474 0.6122 0.10075 0.0
H225 H 0.33961 0.64808 0.13202 0.0
C226 C 0.32968 0.6937 0.12089 0.0
C227 C 0.34211 0.72079 0.10929 0.0
C228 C 0.39071 0.61707 0.09922 0.0
C229 C 0.38319 0.671 0.11541 0.0
C230 C 0.40982 0.59595 0.08147 0.0
C231 C 0.44239 0.60258 0.07445 0.0
C232 C 0.40437 0.64508 0.10939 0.0
C233 C 0.45631 0.62941 0.08945 0.0
C234 C 0.35012 0.66879 0.12415 0.0
C235 C 0.37597 0.72246 0.1042 0.0
N236 N 0.43701 0.64993 0.10534 0.0
N237 N 0.39514 0.6979 0.10681 0.0
H238 H 0.78395 0.85196 0.57269 0.0
H239 H 0.96838 0.91938 0.60623 0.0
H240 H 0.87333 0.80219 0.61551 0.0
H241 H 0.88279 0.96061 0.53314 0.0
H242 H 0.9314 0.88191 0.62955 0.0
H243 H 0.81756 0.89671 0.57698 0.0
C244 C 0.81055 0.8505 0.58377 0.0
C245 C 0.82591 0.82321 0.59324 0.0
C246 C 0.92057 0.89966 0.60946 0.0
C247 C 0.86456 0.87439 0.59795 0.0
C248 C 0.9416 0.92123 0.59671 0.0
C249 C 0.92839 0.94314 0.56823 0.0
C250 C 0.88625 0.90009 0.59333 0.0
C251 C 0.89373 0.94418 0.5556 0.0
C252 C 0.82975 0.87605 0.58601 0.0
C253 C 0.86056 0.82268 0.60711 0.0
N254 N 0.87385 0.92274 0.56783 0.0
N255 N 0.87875 0.84783 0.60869 0.0
H256 H 0.64744 0.31978 0.92251 0.0
H257 H 0.61156 0.43788 0.09462 0.0
H258 H 0.71721 0.34126 0.03522 0.0
H259 H 0.55268 0.43342 0.96959 0.0
H260 H 0.6524 0.40475 0.07057 0.0
H261 H 0.61407 0.36279 0.93588 0.0
C262 C 0.65603 0.33372 0.94973 0.0
C263 C 0.685 0.32658 0.97814 0.0
C264 C 0.63092 0.41129 0.04797 0.0
C265 C 0.64668 0.37568 0.99379 0.0
C266 C 0.60768 0.43029 0.06171 0.0
C267 C 0.5789 0.43831 0.03396 0.0
C268 C 0.62496 0.39953 0.00641 0.0
C269 C 0.5748 0.42783 0.99174 0.0
C270 C 0.63689 0.35825 0.95736 0.0
C271 C 0.69467 0.34539 0.01303 0.0
N272 N 0.59734 0.40847 0.97937 0.0
N273 N 0.67542 0.36883 0.02005 0.0
H274 H 0.19063 0.8823 0.36762 0.0
H275 H 0.08219 0.01288 0.44747 0.0
H276 H 0.15486 0.95575 0.28806 0.0
H277 H 0.09053 0.9265 0.50286 0.0
H278 H 0.12155 0.99815 0.39873 0.0
H279 H 0.1662 0.90419 0.42651 0.0
C280 C 0.17769 0.90306 0.36247 0.0
C281 C 0.17421 0.91684 0.32239 0.0
C282 C 0.11522 0.98267 0.42217 0.0
C283 C 0.14668 0.94234 0.39023 0.0
C284 C 0.09308 0.99113 0.45022 0.0
C285 C 0.08299 0.97075 0.47892 0.0
C286 C 0.12758 0.95381 0.42345 0.0
C287 C 0.09751 0.94277 0.48092 0.0
C288 C 0.16396 0.91564 0.39627 0.0
C289 C 0.15813 0.94426 0.31827 0.0
N290 N 0.11886 0.93506 0.45336 0.0
N291 N 0.14465 0.95597 0.35164 0.0
H292 H 0.68999 0.6534 0.85394 0.0
H293 H 0.58573 0.52252 0.93892 0.0
H294 H 0.67171 0.57129 0.78615 0.0
H295 H 0.5797 0.6131 0.97635 0.0
H296 H 0.6292 0.53585 0.8952 0.0
H297 H 0.6617 0.6344 0.91106 0.0
C298 C 0.68056 0.63116 0.85135 0.0
C299 C 0.68311 0.614 0.81494 0.0
C300 C 0.61882 0.55263 0.91377 0.0
C301 C 0.65013 0.59221 0.88031 0.0
C302 C 0.59437 0.54499 0.93901 0.0
C303 C 0.57925 0.56681 0.96109 0.0
C304 C 0.62832 0.58216 0.91132 0.0
C305 C 0.59078 0.59569 0.95966 0.0
C306 C 0.66418 0.62039 0.88392 0.0
C307 C 0.66987 0.58545 0.81329 0.0
N308 N 0.61446 0.60255 0.93501 0.0
N309 N 0.65374 0.5755 0.84538 0.0
H310 H 0.89068 0.09647 0.20295 0.0
H311 H 0.9375 0.08742 0.45794 0.0
H312 H 0.84823 0.15511 0.28839 0.0
H313 H 0.95705 0.01871 0.37044 0.0
H314 H 0.90966 0.11576 0.3968 0.0
H315 H 0.91998 0.07075 0.26466 0.0
C316 C 0.88726 0.10387 0.23464 0.0
C317 C 0.86657 0.12792 0.24022 0.0
C318 C 0.92011 0.09447 0.39115 0.0
C319 C 0.90084 0.09871 0.3115 0.0
C320 C 0.93608 0.07835 0.42597 0.0
C321 C 0.9495 0.05057 0.41939 0.0
C322 C 0.91795 0.08283 0.34952 0.0
C323 C 0.94691 0.03991 0.37723 0.0
C324 C 0.90424 0.08924 0.26997 0.0
C325 C 0.86406 0.13688 0.28236 0.0
N326 N 0.93154 0.05602 0.34407 0.0
N327 N 0.88095 0.12226 0.31636 0.0
H328 H 0.41155 0.39793 0.72262 0.0
H329 H 0.38995 0.52063 0.89736 0.0
H330 H 0.32833 0.45791 0.71536 0.0
H331 H 0.47093 0.45818 0.91412 0.0
H332 H 0.36438 0.49382 0.83433 0.0
H333 H 0.43124 0.41558 0.79551 0.0
C334 C 0.39718 0.41451 0.73653 0.0
C335 C 0.36848 0.42676 0.71256 0.0
C336 C 0.38755 0.48565 0.85185 0.0
C337 C 0.39095 0.44713 0.79577 0.0
C338 C 0.40216 0.50097 0.88798 0.0
C339 C 0.43275 0.49176 0.91079 0.0
C340 C 0.40385 0.46106 0.83767 0.0
C341 C 0.44729 0.46599 0.8974 0.0
C342 C 0.4085 0.42464 0.77808 0.0
C343 C 0.35096 0.44828 0.73218 0.0
N344 N 0.43297 0.45175 0.86123 0.0
N345 N 0.36258 0.45786 0.77235 0.0
H346 H 0.64936 0.63069 0.33958 0.0
H347 H 0.53125 0.5058 0.21974 0.0
H348 H 0.60245 0.56169 0.40254 0.0
H349 H 0.57185 0.57555 0.15103 0.0
H350 H 0.55717 0.5273 0.28668 0.0
H351 H 0.62118 0.61239 0.27029 0.0
C352 C 0.63308 0.6118 0.33891 0.0
C353 C 0.62861 0.59753 0.37705 0.0
C354 C 0.56048 0.53807 0.25712 0.0
C355 C 0.59644 0.57647 0.29795 0.0
C356 C 0.54564 0.52574 0.21865 0.0
C357 C 0.54945 0.53877 0.17948 0.0
C358 C 0.57958 0.56373 0.25691 0.0
C359 C 0.56828 0.56473 0.18045 0.0
C360 C 0.61711 0.60133 0.29934 0.0
C361 C 0.60733 0.57307 0.37411 0.0
N362 N 0.5828 0.57633 0.21859 0.0
N363 N 0.5922 0.56336 0.33542 0.0
H364 H 0.85182 0.14876 0.79108 0.0
H365 H 0.92149 0.02585 0.64544 0.0
H366 H 0.84341 0.05599 0.81359 0.0
H367 H 0.94807 0.1174 0.6466 0.0
H368 H 0.88104 0.03692 0.69452 0.0
H369 H 0.87495 0.13774 0.72577 0.0
C370 C 0.8542 0.12604 0.78193 0.0
C371 C 0.84592 0.10328 0.80824 0.0
C372 C 0.8953 0.05462 0.68331 0.0
C373 C 0.8731 0.09048 0.73356 0.0
C374 C 0.91812 0.04836 0.65506 0.0
C375 C 0.9383 0.07073 0.64238 0.0
C376 C 0.89254 0.08346 0.69837 0.0
C377 C 0.93322 0.09947 0.65603 0.0
C378 C 0.86769 0.11976 0.74471 0.0
C379 C 0.85005 0.07424 0.79476 0.0
N380 N 0.91108 0.10496 0.6835 0.0
N381 N 0.86366 0.06866 0.75857 0.0
H382 H 0.31133 0.38754 0.22021 0.0
H383 H 0.42287 0.51468 0.13918 0.0
H384 H 0.3458 0.46293 0.29721 0.0
H385 H 0.40409 0.43085 0.07654 0.0
H386 H 0.38512 0.50105 0.19006 0.0
H387 H 0.33596 0.408 0.1609 0.0
C388 C 0.32367 0.40863 0.22453 0.0
C389 C 0.32656 0.42345 0.26396 0.0
C390 C 0.38887 0.48587 0.16473 0.0
C391 C 0.35536 0.4469 0.19597 0.0
C392 C 0.41014 0.49374 0.13542 0.0
C393 C 0.41686 0.47373 0.10383 0.0
C394 C 0.37406 0.45792 0.1621 0.0
C395 C 0.39986 0.44683 0.10065 0.0
C396 C 0.33794 0.42022 0.19063 0.0
C397 C 0.34337 0.45051 0.26764 0.0
N398 N 0.37952 0.43963 0.12962 0.0
N399 N 0.35728 0.4613 0.23416 0.0
H400 H 0.18172 0.93382 0.86413 0.0
H401 H 0.03216 0.95593 0.67037 0.0
H402 H 0.08255 0.89904 0.86497 0.0
H403 H 0.12167 0.00862 0.69121 0.0
H404 H 0.05453 0.92605 0.73273 0.0
H405 H 0.1641 0.95233 0.79195 0.0
C406 C 0.15637 0.92965 0.8489 0.0
C407 C 0.13351 0.91506 0.87086 0.0
C408 C 0.06941 0.94389 0.72315 0.0
C409 C 0.11304 0.9365 0.78817 0.0
C410 C 0.0568 0.96076 0.68743 0.0
C411 C 0.07499 0.98492 0.67593 0.0
C412 C 0.10056 0.95107 0.74697 0.0
C413 C 0.10668 0.99038 0.69929 0.0
C414 C 0.14626 0.9404 0.80775 0.0
C415 C 0.10085 0.9106 0.84952 0.0
N416 N 0.11834 0.97373 0.73376 0.0
N417 N 0.09152 0.92143 0.80946 0.0
loop_
_geom_bond_atom_site_label_1
_geom_bond_atom_site_label_2
_geom_bond_distance
_geom_bond_site_symmetry_2
_ccdc_geom_bond_type
C0 C1 1.264 . S
C0 C5 1.479 . S
C0 C10 1.465 . S
C1 C0 1.264 . S
C1 C3 1.339 . S
C1 H28 0.931 . S
C2 C3 1.395 . S
C2 C4 1.320 . S
C3 C1 1.339 . S
C3 C2 1.395 . S
C3 H29 0.929 . S
C4 C2 1.320 . S
C4 C5 1.405 . S
C4 H30 0.930 . S
C5 C0 1.479 . S
C5 C4 1.405 . S
C5 H31 0.931 . S
U6 O7 2.454 . S
U6 O8 2.458 . S
U6 C9 2.984 . S
U6 C10 2.847 . S
U6 C23 2.882 . S
U6 O24 2.441 . S
U6 O25 2.420 . S
U6 O26 2.455 . S
U6 O27 2.449 . S
O7 U6 2.454 . S
O7 C9 1.353 . S
O8 U6 2.458 . S
O8 C9 1.286 . S
C9 U6 2.984 . S
C9 O7 1.353 . S
C9 O8 1.286 . S
C9 C11 1.363 . S
C10 C0 1.465 . S
C10 U6 2.847 . S
C10 O24 1.249 . S
C10 O25 1.202 . S
C11 C9 1.363 . S
C11 C13 1.408 . S
C11 C16 1.342 . S
C12 C13 1.310 . S
C12 C15 1.461 . S
C12 H32 0.932 . S
C13 C11 1.408 . S
C13 C12 1.310 . S
C13 H33 0.930 . S
C14 C15 1.474 . S
C14 C16 1.285 . S
C14 H34 0.929 . S
C15 C12 1.461 . S
C15 C14 1.474 . S
C16 C11 1.342 . S
C16 C14 1.285 . S
C16 H35 0.930 . S
C17 C20 1.424 . S
C17 C22 1.245 . S
C17 C23 1.428 1_556 S
C18 C21 1.260 . S
C18 C22 1.477 . S
C18 H36 0.932 . S
C19 C20 1.384 . S
C19 C21 1.479 . S
C19 H37 0.929 . S
C20 C17 1.424 . S
C20 C19 1.384 . S
C20 H38 0.928 1_556 S
C21 C18 1.260 . S
C21 C19 1.479 . S
C22 C17 1.245 . S
C22 C18 1.477 . S
C22 H39 0.932 . S
C23 U6 2.882 . S
C23 C17 1.428 1_554 S
C23 O26 1.301 . S
C23 O27 1.282 . S
O24 U6 2.441 . S
O24 C10 1.249 . S
O25 U6 2.420 . S
O25 C10 1.202 . S
O26 U6 2.455 . S
O26 C23 1.301 . S
O27 U6 2.449 . S
O27 C23 1.282 . S
H28 C1 0.931 . S
H29 C3 0.929 . S
H30 C4 0.930 . S
H31 C5 0.931 . S
H32 C12 0.932 . S
H33 C13 0.930 . S
H34 C14 0.929 . S
H35 C16 0.930 . S
H36 C18 0.932 . S
H37 C19 0.929 . S
H38 C20 0.928 1_554 S
H39 C22 0.932 . S
C40 C41 1.264 . S
C40 C45 1.479 . S
C40 C50 1.465 . S
C41 C40 1.264 . S
C41 C43 1.339 . S
C41 H68 0.931 . S
C42 C43 1.395 . S
C42 C44 1.320 . S
C43 C41 1.339 . S
C43 C42 1.395 . S
C43 H69 0.929 . S
C44 C42 1.320 . S
C44 C45 1.405 . S
C44 H70 0.930 . S
C45 C40 1.479 . S
C45 C44 1.405 . S
C45 H71 0.931 . S
U46 O47 2.454 . S
U46 O48 2.458 . S
U46 C49 2.984 . S
U46 C50 2.847 . S
U46 C63 2.882 . S
U46 O64 2.441 . S
U46 O65 2.420 . S
U46 O66 2.455 . S
U46 O67 2.449 . S
O47 U46 2.454 . S
O47 C49 1.353 . S
O48 U46 2.458 . S
O48 C49 1.286 . S
C49 U46 2.984 . S
C49 O47 1.353 . S
C49 O48 1.286 . S
C49 C51 1.363 . S
C50 C40 1.465 . S
C50 U46 2.847 . S
C50 O64 1.249 . S
C50 O65 1.202 . S
C51 C49 1.363 . S
C51 C53 1.408 . S
C51 C56 1.342 . S
C52 C53 1.310 . S
C52 C55 1.461 . S
C52 H72 0.932 . S
C53 C51 1.408 . S
C53 C52 1.310 . S
C53 H73 0.930 . S
C54 C55 1.474 . S
C54 C56 1.285 . S
C54 H74 0.929 . S
C55 C52 1.461 . S
C55 C54 1.474 . S
C56 C51 1.342 . S
C56 C54 1.285 . S
C56 H75 0.930 . S
C57 C60 1.424 . S
C57 C62 1.245 . S
C57 C63 1.428 . S
C58 C61 1.260 . S
C58 C62 1.477 . S
C58 H76 0.932 . S
C59 C60 1.384 . S
C59 C61 1.479 . S
C59 H77 0.929 . S
C60 C57 1.424 . S
C60 C59 1.384 . S
C60 H78 0.928 . S
C61 C58 1.260 . S
C61 C59 1.479 . S
C62 C57 1.245 . S
C62 C58 1.477 . S
C62 H79 0.932 . S
C63 U46 2.882 . S
C63 C57 1.428 . S
C63 O66 1.301 . S
C63 O67 1.282 . S
O64 U46 2.441 . S
O64 C50 1.249 . S
O65 U46 2.420 . S
O65 C50 1.202 . S
O66 U46 2.455 . S
O66 C63 1.301 . S
O67 U46 2.449 . S
O67 C63 1.282 . S
H68 C41 0.931 . S
H69 C43 0.929 . S
H70 C44 0.930 . S
H71 C45 0.931 . S
H72 C52 0.932 . S
H73 C53 0.930 . S
H74 C54 0.929 . S
H75 C56 0.930 . S
H76 C58 0.932 . S
H77 C59 0.929 . S
H78 C60 0.928 . S
H79 C62 0.932 . S
C80 C81 1.264 . S
C80 C85 1.479 . S
C80 C90 1.465 . S
C81 C80 1.264 . S
C81 C83 1.339 . S
C81 H108 0.931 . S
C82 C83 1.395 . S
C82 C84 1.320 . S
C83 C81 1.339 . S
C83 C82 1.395 . S
C83 H109 0.929 . S
C84 C82 1.320 . S
C84 C85 1.405 . S
C84 H110 0.930 . S
C85 C80 1.479 . S
C85 C84 1.405 . S
C85 H111 0.931 . S
U86 O87 2.454 . S
U86 O88 2.458 1_554 S
U86 C89 2.984 1_554 S
U86 C90 2.847 . S
U86 C103 2.882 1_554 S
U86 O104 2.441 . S
U86 O105 2.420 . S
U86 O106 2.455 1_554 S
U86 O107 2.449 1_554 S
O87 U86 2.454 . S
O87 C89 1.353 1_554 S
O88 U86 2.458 1_556 S
O88 C89 1.286 . S
C89 U86 2.984 1_556 S
C89 O87 1.353 1_556 S
C89 O88 1.286 . S
C89 C91 1.363 . S
C90 C80 1.465 . S
C90 U86 2.847 . S
C90 O104 1.249 . S
C90 O105 1.202 . S
C91 C89 1.363 . S
C91 C93 1.408 1_556 S
C91 C96 1.342 . S
C92 C93 1.310 . S
C92 C95 1.461 1_554 S
C92 H112 0.932 . S
C93 C91 1.408 1_554 S
C93 C92 1.310 . S
C93 H113 0.930 . S
C94 C95 1.474 . S
C94 C96 1.285 . S
C94 H114 0.929 . S
C95 C92 1.461 1_556 S
C95 C94 1.474 . S
C96 C91 1.342 . S
C96 C94 1.285 . S
C96 H115 0.930 . S
C97 C100 1.424 . S
C97 C102 1.245 . S
C97 C103 1.428 . S
C98 C101 1.260 . S
C98 C102 1.477 . S
C98 H116 0.932 . S
C99 C100 1.384 . S
C99 C101 1.479 . S
C99 H117 0.929 . S
C100 C97 1.424 . S
C100 C99 1.384 . S
C100 H118 0.928 . S
C101 C98 1.260 . S
C101 C99 1.479 . S
C102 C97 1.245 . S
C102 C98 1.477 . S
C102 H119 0.932 . S
C103 U86 2.882 1_556 S
C103 C97 1.428 . S
C103 O106 1.301 . S
C103 O107 1.282 . S
O104 U86 2.441 . S
O104 C90 1.249 . S
O105 U86 2.420 . S
O105 C90 1.202 . S
O106 U86 2.455 1_556 S
O106 C103 1.301 . S
O107 U86 2.449 1_556 S
O107 C103 1.282 . S
H108 C81 0.931 . S
H109 C83 0.929 . S
H110 C84 0.930 . S
H111 C85 0.931 . S
H112 C92 0.932 . S
H113 C93 0.930 . S
H114 C94 0.929 . S
H115 C96 0.930 . S
H116 C98 0.932 . S
H117 C99 0.929 . S
H118 C100 0.928 . S
H119 C102 0.932 . S
C120 C121 1.264 . S
C120 C125 1.479 . S
C120 C130 1.465 . S
C121 C120 1.264 . S
C121 C123 1.339 . S
C121 H148 0.931 . S
C122 C123 1.395 . S
C122 C124 1.320 . S
C123 C121 1.339 . S
C123 C122 1.395 . S
C123 H149 0.929 . S
C124 C122 1.320 . S
C124 C125 1.405 . S
C124 H150 0.930 . S
C125 C120 1.479 . S
C125 C124 1.405 . S
C125 H151 0.931 . S
U126 O127 2.454 . S
U126 O128 2.458 . S
U126 C129 2.984 . S
U126 C130 2.847 . S
U126 C143 2.882 . S
U126 O144 2.441 . S
U126 O145 2.420 . S
U126 O146 2.455 . S
U126 O147 2.449 . S
O127 U126 2.454 . S
O127 C129 1.353 . S
O128 U126 2.458 . S
O128 C129 1.286 . S
C129 U126 2.984 . S
C129 O127 1.353 . S
C129 O128 1.286 . S
C129 C131 1.363 . S
C130 C120 1.465 . S
C130 U126 2.847 . S
C130 O144 1.249 . S
C130 O145 1.202 . S
C131 C129 1.363 . S
C131 C133 1.408 . S
C131 C136 1.342 . S
C132 C133 1.310 . S
C132 C135 1.461 . S
C132 H152 0.932 . S
C133 C131 1.408 . S
C133 C132 1.310 . S
C133 H153 0.930 . S
C134 C135 1.474 . S
C134 C136 1.285 . S
C134 H154 0.929 . S
C135 C132 1.461 . S
C135 C134 1.474 . S
C136 C131 1.342 . S
C136 C134 1.285 . S
C136 H155 0.930 . S
C137 C140 1.424 . S
C137 C142 1.245 . S
C137 C143 1.428 . S
C138 C141 1.260 . S
C138 C142 1.477 . S
C138 H156 0.932 . S
C139 C140 1.384 . S
C139 C141 1.479 . S
C139 H157 0.929 . S
C140 C137 1.424 . S
C140 C139 1.384 . S
C140 H158 0.928 . S
C141 C138 1.260 . S
C141 C139 1.479 . S
C142 C137 1.245 . S
C142 C138 1.477 . S
C142 H159 0.932 . S
C143 U126 2.882 . S
C143 C137 1.428 . S
C143 O146 1.301 . S
C143 O147 1.282 . S
O144 U126 2.441 . S
O144 C130 1.249 . S
O145 U126 2.420 . S
O145 C130 1.202 . S
O146 U126 2.455 . S
O146 C143 1.301 . S
O147 U126 2.449 . S
O147 C143 1.282 . S
H148 C121 0.931 . S
H149 C123 0.929 . S
H150 C124 0.930 . S
H151 C125 0.931 . S
H152 C132 0.932 . S
H153 C133 0.930 . S
H154 C134 0.929 . S
H155 C136 0.930 . S
H156 C138 0.932 . S
H157 C139 0.929 . S
H158 C140 0.928 . S
H159 C142 0.932 . S
O160 Mg161 1.990 1_655 S
O160 C174 1.253 . S
Mg161 O160 1.990 1_455 S
Mg161 O164 2.180 . S
Mg161 O165 2.117 . S
Mg161 O179 2.030 . S
O162 Mg163 2.072 1_655 S
O162 C174 1.260 . S
Mg163 O162 2.072 1_455 S
Mg163 O164 2.099 . S
Mg163 O166 2.079 1_545 S
Mg163 O167 2.072 1_455 S
Mg163 O169 2.099 1_445 S
Mg163 O180 2.079 1_545 S
O164 Mg161 2.180 . S
O164 Mg163 2.099 . S
O164 C175 1.279 . S
O165 Mg161 2.117 . S
O165 C175 1.250 . S
O166 Mg163 2.079 1_565 S
O166 C176 1.264 . S
O167 Mg163 2.072 1_655 S
O167 C177 1.260 . S
Mg168 O169 2.180 . S
Mg168 O170 2.030 1_655 S
Mg168 O171 1.990 1_565 S
Mg168 O172 2.117 . S
O169 Mg163 2.099 1_665 S
O169 Mg168 2.180 . S
O169 C178 1.279 . S
O170 Mg168 2.030 1_455 S
O170 C176 1.248 . S
O171 Mg168 1.990 1_545 S
O171 C177 1.253 . S
O172 Mg168 2.117 . S
O172 C178 1.250 . S
C173 O179 1.248 1_565 S
C173 O180 1.264 . S
C174 O160 1.253 . S
C174 O162 1.260 . S
C175 O164 1.279 . S
C175 O165 1.250 . S
C176 O166 1.264 . S
C176 O170 1.248 . S
C177 O167 1.260 . S
C177 O171 1.253 . S
C178 O169 1.279 . S
C178 O172 1.250 . S
O179 Mg161 2.030 . S
O179 C173 1.248 1_545 S
O180 Mg163 2.079 1_565 S
O180 C173 1.264 . S
O181 Mg182 1.990 . S
O181 C195 1.253 . S
Mg182 O181 1.990 . S
Mg182 O185 2.180 . S
Mg182 O186 2.117 . S
Mg182 O200 2.030 . S
O183 Mg184 2.072 . S
O183 C195 1.260 . S
Mg184 O183 2.072 . S
Mg184 O185 2.099 . S
Mg184 O187 2.079 1_554 S
Mg184 O188 2.072 1_554 S
Mg184 O190 2.099 . S
Mg184 O201 2.079 . S
O185 Mg182 2.180 . S
O185 Mg184 2.099 . S
O185 C196 1.279 . S
O186 Mg182 2.117 . S
O186 C196 1.250 . S
O187 Mg184 2.079 1_556 S
O187 C197 1.264 . S
O188 Mg184 2.072 1_556 S
O188 C198 1.260 . S
Mg189 O190 2.180 1_556 S
Mg189 O191 2.030 . S
Mg189 O192 1.990 . S
Mg189 O193 2.117 1_556 S
O190 Mg184 2.099 . S
O190 Mg189 2.180 1_554 S
O190 C199 1.279 . S
O191 Mg189 2.030 . S
O191 C197 1.248 . S
O192 Mg189 1.990 . S
O192 C198 1.253 . S
O193 Mg189 2.117 1_554 S
O193 C199 1.250 . S
C194 O200 1.248 . S
C194 O201 1.264 . S
C195 O181 1.253 . S
C195 O183 1.260 . S
C196 O185 1.279 . S
C196 O186 1.250 . S
C197 O187 1.264 . S
C197 O191 1.248 . S
C198 O188 1.260 . S
C198 O192 1.253 . S
C199 O190 1.279 . S
C199 O193 1.250 . S
O200 Mg182 2.030 . S
O200 C194 1.248 . S
O201 Mg184 2.079 . S
O201 C194 1.264 . S
H202 C208 0.930 . S
H203 C212 0.930 . S
H204 C217 0.929 . S
H205 C215 0.929 . S
H206 C210 0.929 . S
H207 C216 0.929 . S
C208 H202 0.930 . S
C208 C209 1.367 . S
C208 C216 1.378 . S
C209 C208 1.367 . S
C209 C217 1.433 . S
C210 H206 0.929 . S
C210 C212 1.378 . S
C210 C214 1.350 . S
C211 C214 1.463 . S
C211 C216 1.350 . S
C211 N219 1.427 . S
C212 H203 0.930 . S
C212 C210 1.378 . S
C212 C213 1.367 . S
C213 C212 1.367 . S
C213 C215 1.433 . S
C214 C210 1.350 . S
C214 C211 1.463 . S
C214 N218 1.427 . S
C215 H205 0.929 . S
C215 C213 1.433 . S
C215 N218 1.384 . S
C216 H207 0.929 . S
C216 C208 1.378 . S
C216 C211 1.350 . S
C217 H204 0.929 . S
C217 C209 1.433 . S
C217 N219 1.384 . S
N218 C214 1.427 . S
N218 C215 1.384 . S
N219 C211 1.427 . S
N219 C217 1.384 . S
H220 C226 0.930 . S
H221 C230 0.930 1_556 S
H222 C235 0.929 . S
H223 C233 0.929 . S
H224 C228 0.929 . S
H225 C234 0.929 . S
C226 H220 0.930 . S
C226 C227 1.367 . S
C226 C234 1.378 . S
C227 C226 1.367 . S
C227 C235 1.433 . S
C228 H224 0.929 . S
C228 C230 1.378 . S
C228 C232 1.350 . S
C229 C232 1.463 . S
C229 C234 1.350 . S
C229 N237 1.427 . S
C230 H221 0.930 1_554 S
C230 C228 1.378 . S
C230 C231 1.367 . S
C231 C230 1.367 . S
C231 C233 1.433 . S
C232 C228 1.350 . S
C232 C229 1.463 . S
C232 N236 1.427 . S
C233 H223 0.929 . S
C233 C231 1.433 . S
C233 N236 1.384 . S
C234 H225 0.929 . S
C234 C226 1.378 . S
C234 C229 1.350 . S
C235 H222 0.929 . S
C235 C227 1.433 . S
C235 N237 1.384 . S
N236 C232 1.427 . S
N236 C233 1.384 . S
N237 C229 1.427 . S
N237 C235 1.384 . S
H238 C244 0.930 . S
H239 C248 0.930 . S
H240 C253 0.929 . S
H241 C251 0.929 . S
H242 C246 0.929 . S
H243 C252 0.929 . S
C244 H238 0.930 . S
C244 C245 1.367 . S
C244 C252 1.378 . S
C245 C244 1.367 . S
C245 C253 1.433 . S
C246 H242 0.929 . S
C246 C248 1.378 . S
C246 C250 1.350 . S
C247 C250 1.463 . S
C247 C252 1.350 . S
C247 N255 1.427 . S
C248 H239 0.930 . S
C248 C246 1.378 . S
C248 C249 1.367 . S
C249 C248 1.367 . S
C249 C251 1.433 . S
C250 C246 1.350 . S
C250 C247 1.463 . S
C250 N254 1.427 . S
C251 H241 0.929 . S
C251 C249 1.433 . S
C251 N254 1.384 . S
C252 H243 0.929 . S
C252 C244 1.378 . S
C252 C247 1.350 . S
C253 H240 0.929 . S
C253 C245 1.433 . S
C253 N255 1.384 . S
N254 C250 1.427 . S
N254 C251 1.384 . S
N255 C247 1.427 . S
N255 C253 1.384 . S
H256 C262 0.930 . S
H257 C266 0.930 . S
H258 C271 0.929 . S
H259 C269 0.929 . S
H260 C264 0.929 . S
H261 C270 0.929 . S
C262 H256 0.930 . S
C262 C263 1.367 . S
C262 C270 1.378 . S
C263 C262 1.367 . S
C263 C271 1.433 1_556 S
C264 H260 0.929 . S
C264 C266 1.378 . S
C264 C268 1.350 . S
C265 C268 1.463 . S
C265 C270 1.350 1_554 S
C265 N273 1.427 . S
C266 H257 0.930 . S
C266 C264 1.378 . S
C266 C267 1.367 . S
C267 C266 1.367 . S
C267 C269 1.433 1_554 S
C268 C264 1.350 . S
C268 C265 1.463 . S
C268 N272 1.427 1_554 S
C269 H259 0.929 . S
C269 C267 1.433 1_556 S
C269 N272 1.384 . S
C270 H261 0.929 . S
C270 C262 1.378 . S
C270 C265 1.350 1_556 S
C271 H258 0.929 . S
C271 C263 1.433 1_554 S
C271 N273 1.384 . S
N272 C268 1.427 1_556 S
N272 C269 1.384 . S
N273 C265 1.427 . S
N273 C271 1.384 . S
H274 C280 0.930 . S
H275 C284 0.950 . S
H276 C289 0.929 . S
H277 C287 0.929 . S
H278 C282 0.929 1_545 S
H279 C288 0.929 . S
C280 H274 0.930 . S
C280 C281 1.367 . S
C280 C288 1.378 . S
C281 C280 1.367 . S
C281 C289 1.433 . S
C282 H278 0.929 1_565 S
C282 C284 1.373 1_565 S
C282 C286 1.350 . S
C283 C286 1.463 . S
C283 C288 1.350 . S
C283 N291 1.427 . S
C284 H275 0.950 . S
C284 C282 1.373 1_545 S
C284 C285 1.352 1_545 S
C285 C284 1.352 1_565 S
C285 C287 1.433 . S
C286 C282 1.350 . S
C286 C283 1.463 . S
C286 N290 1.427 . S
C287 H277 0.929 . S
C287 C285 1.433 . S
C287 N290 1.384 . S
C288 H279 0.929 . S
C288 C280 1.378 . S
C288 C283 1.350 . S
C289 H276 0.929 . S
C289 C281 1.433 . S
C289 N291 1.384 . S
N290 C286 1.427 . S
N290 C287 1.384 . S
N291 C283 1.427 . S
N291 C289 1.384 . S
H292 C298 0.930 . S
H293 C302 0.930 . S
H294 C307 0.929 . S
H295 C305 0.929 . S
H296 C300 0.929 . S
H297 C306 0.929 . S
C298 H292 0.930 . S
C298 C299 1.367 . S
C298 C306 1.378 . S
C299 C298 1.367 . S
C299 C307 1.433 . S
C300 H296 0.929 . S
C300 C302 1.378 . S
C300 C304 1.350 . S
C301 C304 1.463 . S
C301 C306 1.350 . S
C301 N309 1.427 . S
C302 H293 0.930 . S
C302 C300 1.378 . S
C302 C303 1.367 . S
C303 C302 1.367 . S
C303 C305 1.433 . S
C304 C300 1.350 . S
C304 C301 1.463 . S
C304 N308 1.427 . S
C305 H295 0.929 . S
C305 C303 1.433 . S
C305 N308 1.384 . S
C306 H297 0.929 . S
C306 C298 1.378 . S
C306 C301 1.350 . S
C307 H294 0.929 . S
C307 C299 1.433 . S
C307 N309 1.384 . S
N308 C304 1.427 . S
N308 C305 1.384 . S
N309 C301 1.427 . S
N309 C307 1.384 . S
H310 C316 0.930 . S
H311 C320 0.930 . S
H312 C325 0.929 . S
H313 C323 0.929 . S
H314 C318 0.929 . S
H315 C324 0.929 . S
C316 H310 0.930 . S
C316 C317 1.367 . S
C316 C324 1.378 . S
C317 C316 1.367 . S
C317 C325 1.433 . S
C318 H314 0.929 . S
C318 C320 1.378 . S
C318 C322 1.350 . S
C319 C322 1.463 . S
C319 C324 1.350 . S
C319 N327 1.427 . S
C320 H311 0.930 . S
C320 C318 1.378 . S
C320 C321 1.367 . S
C321 C320 1.367 . S
C321 C323 1.433 . S
C322 C318 1.350 . S
C322 C319 1.463 . S
C322 N326 1.427 . S
C323 H313 0.929 . S
C323 C321 1.433 . S
C323 N326 1.384 . S
C324 H315 0.929 . S
C324 C316 1.378 . S
C324 C319 1.350 . S
C325 H312 0.929 . S
C325 C317 1.433 . S
C325 N327 1.384 . S
N326 C322 1.427 . S
N326 C323 1.384 . S
N327 C319 1.427 . S
N327 C325 1.384 . S
H328 C334 0.930 . S
H329 C338 0.930 . S
H330 C343 0.929 . S
H331 C341 0.929 . S
H332 C336 0.929 . S
H333 C342 0.929 . S
C334 H328 0.930 . S
C334 C335 1.367 . S
C334 C342 1.378 . S
C335 C334 1.367 . S
C335 C343 1.433 . S
C336 H332 0.929 . S
C336 C338 1.378 . S
C336 C340 1.350 . S
C337 C340 1.463 . S
C337 C342 1.350 . S
C337 N345 1.427 . S
C338 H329 0.930 . S
C338 C336 1.378 . S
C338 C339 1.367 . S
C339 C338 1.367 . S
C339 C341 1.433 . S
C340 C336 1.350 . S
C340 C337 1.463 . S
C340 N344 1.427 . S
C341 H331 0.929 . S
C341 C339 1.433 . S
C341 N344 1.384 . S
C342 H333 0.929 . S
C342 C334 1.378 . S
C342 C337 1.350 . S
C343 H330 0.929 . S
C343 C335 1.433 . S
C343 N345 1.384 . S
N344 C340 1.427 . S
N344 C341 1.384 . S
N345 C337 1.427 . S
N345 C343 1.384 . S
H346 C352 0.930 . S
H347 C356 0.930 . S
H348 C361 0.929 . S
H349 C359 0.929 . S
H350 C354 0.929 . S
H351 C360 0.929 . S
C352 H346 0.930 . S
C352 C353 1.367 . S
C352 C360 1.378 . S
C353 C352 1.367 . S
C353 C361 1.433 . S
C354 H350 0.929 . S
C354 C356 1.378 . S
C354 C358 1.350 . S
C355 C358 1.463 . S
C355 C360 1.350 . S
C355 N363 1.427 . S
C356 H347 0.930 . S
C356 C354 1.378 . S
C356 C357 1.367 . S
C357 C356 1.367 . S
C357 C359 1.433 . S
C358 C354 1.350 . S
C358 C355 1.463 . S
C358 N362 1.427 . S
C359 H349 0.929 . S
C359 C357 1.433 . S
C359 N362 1.384 . S
C360 H351 0.929 . S
C360 C352 1.378 . S
C360 C355 1.350 . S
C361 H348 0.929 . S
C361 C353 1.433 . S
C361 N363 1.384 . S
N362 C358 1.427 . S
N362 C359 1.384 . S
N363 C355 1.427 . S
N363 C361 1.384 . S
H364 C370 0.930 . S
H365 C374 0.930 . S
H366 C379 0.929 . S
H367 C377 0.929 . S
H368 C372 0.929 . S
H369 C378 0.929 . S
C370 H364 0.930 . S
C370 C371 1.367 . S
C370 C378 1.378 . S
C371 C370 1.367 . S
C371 C379 1.433 . S
C372 H368 0.929 . S
C372 C374 1.378 . S
C372 C376 1.350 . S
C373 C376 1.463 . S
C373 C378 1.350 . S
C373 N381 1.427 . S
C374 H365 0.930 . S
C374 C372 1.378 . S
C374 C375 1.367 . S
C375 C374 1.367 . S
C375 C377 1.433 . S
C376 C372 1.350 . S
C376 C373 1.463 . S
C376 N380 1.427 . S
C377 H367 0.929 . S
C377 C375 1.433 . S
C377 N380 1.384 . S
C378 H369 0.929 . S
C378 C370 1.378 . S
C378 C373 1.350 . S
C379 H366 0.929 . S
C379 C371 1.433 . S
C379 N381 1.384 . S
N380 C376 1.427 . S
N380 C377 1.384 . S
N381 C373 1.427 . S
N381 C379 1.384 . S
H382 C388 0.930 . S
H383 C392 0.930 . S
H384 C397 0.929 . S
H385 C395 0.929 . S
H386 C390 0.929 . S
H387 C396 0.929 . S
C388 H382 0.930 . S
C388 C389 1.367 . S
C388 C396 1.378 . S
C389 C388 1.367 . S
C389 C397 1.433 . S
C390 H386 0.929 . S
C390 C392 1.378 . S
C390 C394 1.350 . S
C391 C394 1.463 . S
C391 C396 1.350 . S
C391 N399 1.427 . S
C392 H383 0.930 . S
C392 C390 1.378 . S
C392 C393 1.367 . S
C393 C392 1.367 . S
C393 C395 1.433 . S
C394 C390 1.350 . S
C394 C391 1.463 . S
C394 N398 1.427 . S
C395 H385 0.929 . S
C395 C393 1.433 . S
C395 N398 1.384 . S
C396 H387 0.929 . S
C396 C388 1.378 . S
C396 C391 1.350 . S
C397 H384 0.929 . S
C397 C389 1.433 . S
C397 N399 1.384 . S
N398 C394 1.427 . S
N398 C395 1.384 . S
N399 C391 1.427 . S
N399 C397 1.384 . S
H400 C406 0.930 . S
H401 C410 0.930 . S
H402 C415 0.929 . S
H403 C413 0.929 1_545 S
H404 C408 0.929 . S
H405 C414 0.929 . S
C406 H400 0.930 . S
C406 C407 1.367 . S
C406 C414 1.378 . S
C407 C406 1.367 . S
C407 C415 1.433 . S
C408 H404 0.929 . S
C408 C410 1.378 . S
C408 C412 1.350 . S
C409 C412 1.463 . S
C409 C414 1.350 . S
C409 N417 1.427 . S
C410 H401 0.930 . S
C410 C408 1.378 . S
C410 C411 1.367 . S
C411 C410 1.367 . S
C411 C413 1.433 . S
C412 C408 1.350 . S
C412 C409 1.463 . S
C412 N416 1.427 . S
C413 H403 0.929 1_565 S
C413 C411 1.433 . S
C413 N416 1.384 . S
C414 H405 0.929 . S
C414 C406 1.378 . S
C414 C409 1.350 . S
C415 H402 0.929 . S
C415 C407 1.433 . S
C415 N417 1.384 . S
N416 C412 1.427 . S
N416 C413 1.384 . S
N417 C409 1.427 . S
N417 C415 1.384 . S
C213 C175 1.401 . S
C209 C135 1.560 . S
C227 C15 1.556 . S
C231 C199 1.373 . S
C245 C55 1.685 . S
C249 C178 1.480 . S
C263 C95 1.702 . S
C267 C196 1.499 . S
C285 C176 1.647 . S
C281 C2 1.657 . S
C303 C198 1.601 . S
C299 C42 1.581 . S
C317 C82 1.603 . S
C321 C177 1.514 . S
C335 C141 1.642 . S
C339 C197 1.541 . S
C357 C195 1.539 . S
C353 C61 1.573 . S
C375 C174 1.631 . S
C371 C101 1.666 . S
C393 C194 1.672 . S
C389 C122 1.685 . S
C407 C21 1.671 . S
C411 C173 1.581 . S
