# Generated by pormake.
# Topology pth, (4,4)-cn, num edge types: 1
# Building blocks:
#     Node 0, Type 0, BuildingBlock: KUFVIS_clean_sbu_0, # of connection points: 4
#     Node 1, Type 0, BuildingBlock: KUFVIS_clean_sbu_0, # of connection points: 4
#     Node 2, Type 0, BuildingBlock: KUFVIS_clean_sbu_0, # of connection points: 4
#     Node 3, Type 1, BuildingBlock: KOZSID_clean_sbu_0, # of connection points: 4
#     Node 4, Type 1, BuildingBlock: KOZSID_clean_sbu_0, # of connection points: 4
#     Node 5, Type 1, BuildingBlock: KOZSID_clean_sbu_0, # of connection points: 4
#     Edge 6, Type (0, 1), BuildingBlock: KIFKEQ_clean_linker_1, # of connection points: 2
#     Edge 7, Type (0, 1), BuildingBlock: KIFKEQ_clean_linker_1, # of connection points: 2
#     Edge 8, Type (0, 1), BuildingBlock: KIFKEQ_clean_linker_1, # of connection points: 2
#     Edge 9, Type (0, 1), BuildingBlock: KIFKEQ_clean_linker_1, # of connection points: 2
#     Edge 10, Type (0, 1), BuildingBlock: KIFKEQ_clean_linker_1, # of connection points: 2
#     Edge 11, Type (0, 1), BuildingBlock: KIFKEQ_clean_linker_1, # of connection points: 2
#     Edge 12, Type (0, 1), BuildingBlock: KIFKEQ_clean_linker_1, # of connection points: 2
#     Edge 13, Type (0, 1), BuildingBlock: KIFKEQ_clean_linker_1, # of connection points: 2
#     Edge 14, Type (0, 1), BuildingBlock: KIFKEQ_clean_linker_1, # of connection points: 2
#     Edge 15, Type (0, 1), BuildingBlock: KIFKEQ_clean_linker_1, # of connection points: 2
#     Edge 16, Type (0, 1), BuildingBlock: KIFKEQ_clean_linker_1, # of connection points: 2
#     Edge 17, Type (0, 1), BuildingBlock: KIFKEQ_clean_linker_1, # of connection points: 2
# Relax obj value: 0.010
# Max RMSD: 0.084
# Mean RMSD: 0.052
data_MOF--net-pth--node1-KUFVIS_clean_sbu_0--node2-KOZSID_clean_sbu_0--edge1-KIFKEQ_clean_linker_1
_symmetry_space_group_name_H-M    P1
_symmetry_Int_Tables_number       1
_symmetry_cell_setting            triclinic
loop_
_symmetry_equiv_pos_as_xyz
'x, y, z'
_cell_length_a     26.626977
_cell_length_b     26.691918
_cell_length_c     61.682898
_cell_angle_alpha  87.738121
_cell_angle_beta   89.245391
_cell_angle_gamma 120.23507
loop_
_atom_site_label
_atom_site_type_symbol
_atom_site_fract_x
_atom_site_fract_y
_atom_site_fract_z
_atom_type_partial_charge
Mn0 Mn 0.09149 0.05138 0.04923 0.0
Mn1 Mn 0.0178 0.10232 0.02074 0.0
C2 C 0.03402 0.99932 0.02108 0.0
C3 C 0.09534 0.9954 0.07877 0.0
C4 C 0.14863 0.1526 0.01525 0.0
O5 O 0.09318 0.11346 0.06845 0.0
O6 O 0.03357 0.13532 0.04986 0.0
C7 C 0.90727 0.0459 0.04695 0.0
N8 N 0.93627 0.05538 0.0275 0.0
C9 C 0.84717 0.99401 0.00985 0.0
C10 C 0.81628 0.98406 0.02965 0.0
C11 C 0.8465 0.01 0.04829 0.0
C12 C 0.90767 0.03041 0.00949 0.0
H13 H 0.9304 0.06541 0.06133 0.0
C14 C 0.06436 0.13986 0.0663 0.0
O15 O 0.14242 0.03646 0.06888 0.0
O16 O 0.04649 0.98884 0.07216 0.0
N17 N 0.99937 0.07312 0.99233 0.0
C18 C 0.03592 0.08444 0.97481 0.0
C19 C 0.01274 0.06027 0.95499 0.0
C20 C 0.95228 0.02502 0.95336 0.0
C21 C 0.91551 0.01441 0.97156 0.0
C22 C 0.94107 0.04006 0.99083 0.0
H23 H 0.08242 0.11147 0.97595 0.0
O24 O 0.07499 0.99054 0.02785 0.0
O25 O 0.02783 0.03788 0.0311 0.0
O26 O 0.15181 0.11519 0.02783 0.0
O27 O 0.10134 0.15292 0.01227 0.0
C28 C 0.85459 0.97858 0.97143 0.0
C29 C 0.82045 0.96829 0.99058 0.0
H30 H 0.76944 0.95611 0.03078 0.0
H31 H 0.82301 1.00218 0.06366 0.0
H32 H 0.04142 0.06861 0.94102 0.0
H33 H 0.93461 0.006 0.93811 0.0
H34 H 0.83361 0.95797 0.95679 0.0
H35 H 0.77374 0.93989 0.99036 0.0
Mn36 Mn 0.05433 0.0664 0.38237 0.0
Mn37 Mn 0.13369 0.18919 0.40875 0.0
C38 C 0.11252 0.06828 0.41047 0.0
C39 C 0.04758 0.00688 0.35414 0.0
C40 C 1.0031 0.11038 0.41669 0.0
O41 O 0.05402 0.1286 0.36182 0.0
O42 O 0.11203 0.208 0.38008 0.0
C43 C 0.23848 0.24354 0.37935 0.0
N44 N 0.2136 0.22324 0.39959 0.0
C45 C 0.30595 0.24797 0.41442 0.0
C46 C 0.33263 0.26949 0.39376 0.0
C47 C 0.29871 0.26717 0.37615 0.0
C48 C 0.24578 0.22508 0.41663 0.0
H49 H 0.21251 0.24153 0.36575 0.0
C50 C 0.08125 0.18362 0.36375 0.0
O51 O 1.00125 1.00158 0.36374 0.0
O52 O 0.09701 0.0483 0.36022 0.0
N53 N 0.15795 0.17753 0.43664 0.0
C54 C 0.12529 0.15357 0.45539 0.0
C55 C 0.15257 0.15209 0.47453 0.0
C56 C 0.21311 0.17551 0.47424 0.0
C57 C 0.24589 0.20051 0.45482 0.0
C58 C 0.21639 0.20139 0.4363 0.0
H59 H 0.07875 0.13552 0.45572 0.0
O60 O 0.06953 0.01943 0.40476 0.0
O61 O 0.12011 0.11435 0.39956 0.0
O62 O 0.99654 0.07183 0.40349 0.0
O63 O 0.05223 0.15581 0.41951 0.0
C64 C 0.30656 0.22397 0.45303 0.0
C65 C 0.33654 0.24753 0.43284 0.0
H66 H 0.37904 0.28753 0.3912 0.0
H67 H 0.31895 0.28342 0.36013 0.0
H68 H 0.12698 0.13276 0.48947 0.0
H69 H 0.23392 0.17389 0.48901 0.0
H70 H 0.33048 0.22353 0.46704 0.0
H71 H 0.38309 0.26485 0.43161 0.0
Mn72 Mn 0.09828 0.05002 0.71531 0.0
Mn73 Mn 0.05165 0.12883 0.74137 0.0
C74 C 0.15257 0.10912 0.74268 0.0
C75 C 0.15199 0.04221 0.68647 0.0
C76 C 0.99903 0.99836 0.7499 0.0
O77 O 0.03615 0.04805 0.69548 0.0
O78 O 0.01569 0.1093 0.71255 0.0
C79 C 0.10786 0.23525 0.71233 0.0
N80 N 0.09947 0.20912 0.73252 0.0
C81 C 0.16429 0.30035 0.74783 0.0
C82 C 0.17317 0.32832 0.72724 0.0
C83 C 0.14495 0.29559 0.7094 0.0
C84 C 0.12671 0.24014 0.74976 0.0
H85 H 0.0866 0.21018 0.69856 0.0
C86 C 0.00991 0.07699 0.69682 0.0
O87 O 0.11071 0.99645 0.69701 0.0
O88 O 0.16028 0.09199 0.69213 0.0
N89 N 0.08331 0.15116 0.76939 0.0
C90 C 0.07163 0.11732 0.78801 0.0
C91 C 0.09707 0.14329 0.80732 0.0
C92 C 0.13392 0.20376 0.80733 0.0
C93 C 0.14485 0.23775 0.78802 0.0
C94 C 0.11773 0.20951 0.76933 0.0
H95 H 0.04324 0.07084 0.78813 0.0
O96 O 0.15972 0.06682 0.737 0.0
O97 O 0.11438 0.11579 0.73205 0.0
O98 O 0.03406 0.99261 0.73726 0.0
O99 O 1.001 0.04684 0.75197 0.0
C100 C 0.18214 0.29845 0.78654 0.0
C101 C 0.19199 0.32971 0.76644 0.0
H102 H 0.20194 0.37482 0.72489 0.0
H103 H 0.1519 0.31681 0.69343 0.0
H104 H 0.0884 0.11676 0.82216 0.0
H105 H 0.15374 0.22357 0.82223 0.0
H106 H 0.20401 0.32143 0.80069 0.0
H107 H 0.22134 0.37626 0.76544 0.0
C108 C 0.13308 0.67615 0.18409 0.0
C109 C 0.18888 0.7197 0.17754 0.0
C110 C 0.22647 0.70961 0.18911 0.0
C111 C 0.19182 0.6609 0.20211 0.0
N112 N 0.13424 0.63878 0.19942 0.0
Co113 Co 0.06887 0.56964 0.21586 0.0
N114 N 0.12422 0.56047 0.23515 0.0
C115 C 0.1827 0.59521 0.23493 0.0
C116 C 0.20938 0.57784 0.24981 0.0
C117 C 0.16539 0.52874 0.26007 0.0
C118 C 0.11416 0.51892 0.2508 0.0
N119 N 1.00362 0.49923 0.23178 0.0
C120 C 1.0051 0.46216 0.24716 0.0
C121 C 0.94977 0.41661 0.25297 0.0
C122 C 0.91199 0.42457 0.2406 0.0
C123 C 0.94625 0.4743 0.22799 0.0
N124 N 0.01343 0.58027 0.19712 0.0
C125 C 0.95473 0.547 0.19791 0.0
C126 C 0.92802 0.56634 0.18384 0.0
C127 C 0.97216 0.61571 0.17376 0.0
C128 C 0.02349 0.62377 0.18237 0.0
N129 N 0.07423 0.51744 0.19477 0.0
C130 C 0.07922 0.43803 0.16697 0.0
C131 C 0.02794 0.43948 0.17013 0.0
C132 C 0.02633 0.47886 0.18401 0.0
C133 C 0.1283 0.47766 0.17771 0.0
C134 C 0.12506 0.51707 0.19122 0.0
N135 N 0.06333 0.6217 0.23687 0.0
C136 C 1.00541 0.65165 0.25733 0.0
C137 C 0.05525 0.70183 0.2634 0.0
C138 C 0.10927 0.71005 0.25642 0.0
C139 C 0.11229 0.66978 0.24341 0.0
C140 C 0.01039 0.61249 0.24427 0.0
H141 H 0.15477 0.67904 0.23851 0.0
H142 H 0.9707 0.57539 0.24015 0.0
H143 H 0.98551 0.47663 0.18594 0.0
H144 H 0.16424 0.54655 0.19869 0.0
C145 C 0.2117 0.63994 0.21901 0.0
C146 C 0.08044 0.67419 0.17636 0.0
C147 C 0.05765 0.46776 0.25652 0.0
C148 C 0.92599 0.49833 0.21231 0.0
H149 H 0.20142 0.75633 0.16619 0.0
H150 H 0.2734 0.73638 0.18889 0.0
H151 H 0.25552 0.59725 0.2523 0.0
H152 H 0.1707 0.50218 0.2725 0.0
H153 H 0.93805 0.38098 0.26476 0.0
H154 H 0.86518 0.39695 0.24057 0.0
H155 H 0.88187 0.54735 0.18146 0.0
H156 H 0.96709 0.64316 0.16166 0.0
H157 H 0.9886 0.4094 0.16228 0.0
H158 H 0.16928 0.47876 0.17552 0.0
H159 H 0.9625 0.64234 0.26266 0.0
H160 H 0.14935 0.74824 0.26049 0.0
C161 C 0.45815 0.99207 0.58071 0.0
C162 C 0.41446 0.93635 0.58732 0.0
C163 C 0.42387 0.89895 0.5759 0.0
C164 C 0.47228 0.93365 0.56289 0.0
N165 N 0.49508 0.99108 0.56551 0.0
Co166 Co 0.56219 0.05657 0.54829 0.0
N167 N 0.57208 1.00137 0.52988 0.0
C168 C 0.54015 0.94269 0.53147 0.0
C169 C 0.55877 0.9162 0.51753 0.0
C170 C 0.60607 0.96052 0.50654 0.0
C171 C 0.61342 0.01177 0.51439 0.0
N172 N 0.62877 0.1221 0.53093 0.0
C173 C 0.66443 0.12113 0.51521 0.0
C174 C 0.7059 0.17676 0.50758 0.0
C175 C 0.697 0.21426 0.51919 0.0
C176 C 0.65062 0.17958 0.53313 0.0
N177 N 0.55274 0.11176 0.56683 0.0
C178 C 0.58603 0.17039 0.5658 0.0
C179 C 0.56858 0.1967 0.58031 0.0
C180 C 0.52065 0.15237 0.59102 0.0
C181 C 0.5113 0.10136 0.58225 0.0
N182 N 0.61829 0.05464 0.56896 0.0
C183 C 0.70448 0.05379 0.59525 0.0
C184 C 0.70562 0.10554 0.58937 0.0
C185 C 0.66289 0.105 0.57631 0.0
C186 C 0.65793 1.00214 0.58827 0.0
C187 C 0.6155 1.00351 0.57543 0.0
N188 N 0.50625 0.05866 0.52761 0.0
C189 C 0.46428 0.11097 0.50992 0.0
C190 C 0.42151 0.0604 0.50104 0.0
C191 C 0.42269 0.0092 0.50517 0.0
C192 C 0.46479 0.00918 0.51854 0.0
C193 C 0.50634 0.10932 0.52278 0.0
H194 H 0.46233 0.96843 0.52155 0.0
H195 H 0.53806 0.14955 0.5288 0.0
H196 H 0.66741 0.14614 0.57218 0.0
H197 H 0.58136 0.9627 0.57067 0.0
C198 C 0.49464 0.91374 0.54697 0.0
C199 C 0.46092 0.04453 0.58841 0.0
C200 C 0.66212 0.06896 0.50751 0.0
C201 C 0.62995 0.19959 0.54967 0.0
H202 H 0.37837 0.92379 0.59871 0.0
H203 H 0.39728 0.85207 0.57643 0.0
H204 H 0.54108 0.8701 0.51598 0.0
H205 H 0.63291 0.95547 0.49452 0.0
H206 H 0.73989 0.18894 0.49522 0.0
H207 H 0.72251 0.26122 0.5181 0.0
H208 H 0.58724 0.24275 0.58232 0.0
H209 H 0.49454 0.15715 0.60346 0.0
H210 H 0.73938 0.14676 0.59481 0.0
H211 H 0.65463 0.96069 0.59223 0.0
H212 H 0.46554 0.15185 0.50684 0.0
H213 H 0.39027 0.96894 0.4986 0.0
C214 C 0.69252 0.60611 0.84964 0.0
C215 C 0.73821 0.59821 0.84336 0.0
C216 C 0.73129 0.55071 0.85518 0.0
C217 C 0.68224 0.53263 0.86805 0.0
N218 N 0.65661 0.56492 0.86491 0.0
Co219 Co 0.58779 0.55703 0.8819 0.0
N220 N 0.5798 0.48941 0.90025 0.0
C221 C 0.61261 0.46411 0.89843 0.0
C222 C 0.59588 0.41724 0.91267 0.0
C223 C 0.54876 0.41141 0.92401 0.0
C224 C 0.53922 0.45509 0.91592 0.0
N225 N 0.5208 0.55104 0.89954 0.0
C226 C 0.48638 0.51173 0.9156 0.0
C227 C 0.44338 0.52274 0.92283 0.0
C228 C 0.45099 0.57051 0.91105 0.0
C229 C 0.49771 0.5859 0.89723 0.0
N230 N 0.59412 0.62291 0.86293 0.0
C231 C 0.55796 0.64463 0.86335 0.0
C232 C 0.57302 0.68969 0.84837 0.0
C233 C 0.62218 0.69771 0.83788 0.0
C234 C 0.63451 0.65716 0.84724 0.0
N235 N 0.53286 0.50096 0.86134 0.0
C236 C 0.45148 0.41659 0.8345 0.0
C237 C 0.4401 0.45662 0.84397 0.0
C238 C 0.4813 0.49854 0.85697 0.0
C239 C 0.50477 0.42021 0.83825 0.0
C240 C 0.54429 0.46203 0.85176 0.0
N241 N 0.64267 0.61302 0.9024 0.0
C242 C 0.68389 0.7055 0.91916 0.0
C243 C 0.72641 0.697 0.92889 0.0
C244 C 0.72505 0.64478 0.92551 0.0
C245 C 0.68335 0.6039 0.91233 0.0
C246 C 0.64264 0.66324 0.90626 0.0
H247 H 0.6853 0.56548 0.91026 0.0
H248 H 0.61166 0.67262 0.89931 0.0
H249 H 0.47004 0.52813 0.86341 0.0
H250 H 0.58341 0.4614 0.8544 0.0
C251 C 0.65961 0.48615 0.88348 0.0
C252 C 0.68657 0.65485 0.8414 0.0
C253 C 0.49038 0.46134 0.92341 0.0
C254 C 0.51531 0.62713 0.87989 0.0
H255 H 0.7736 0.62468 0.83177 0.0
H256 H 0.7594 0.53234 0.85478 0.0
H257 H 0.61546 0.39036 0.91451 0.0
H258 H 0.52393 0.37839 0.9367 0.0
H259 H 0.40854 0.49777 0.93477 0.0
H260 H 0.42374 0.58984 0.91169 0.0
H261 H 0.55225 0.71535 0.84601 0.0
H262 H 0.64715 0.73079 0.82523 0.0
H263 H 0.39965 0.45593 0.84122 0.0
H264 H 0.51534 0.3899 0.83125 0.0
H265 H 0.68297 0.74519 0.92104 0.0
H266 H 0.75593 0.63512 0.93305 0.0
H267 H 0.98248 0.16869 0.07582 0.0
H268 H 0.15101 0.2003 0.09488 0.0
H269 H 0.98761 0.23882 0.10076 0.0
H270 H 0.15754 0.27315 0.11944 0.0
H271 H 0.12619 0.36831 0.17475 0.0
H272 H 0.12311 0.29407 0.15185 0.0
H273 H 0.03485 0.33927 0.10333 0.0
H274 H 0.03631 0.41151 0.12651 0.0
C275 C 0.02086 0.19079 0.08535 0.0
C276 C 0.06654 0.17908 0.0832 0.0
C277 C 0.02408 0.23163 0.09957 0.0
C278 C 0.07357 0.26297 0.11188 0.0
C279 C 0.1186 0.24987 0.11032 0.0
C280 C 0.11497 0.20813 0.09621 0.0
C281 C 0.10646 0.36243 0.15912 0.0
C282 C 0.08097 0.39539 0.15253 0.0
C283 C 0.10478 0.31993 0.14594 0.0
C284 C 0.078 0.30976 0.12577 0.0
C285 C 0.0543 0.34432 0.11898 0.0
C286 C 0.05539 0.38613 0.13223 0.0
H287 H 0.88802 0.02363 0.41533 0.0
H288 H 1.00165 0.18023 0.44768 0.0
H289 H 0.80517 0.01243 0.43711 0.0
H290 H 0.91926 0.16952 0.46895 0.0
H291 H 0.77128 0.1013 0.52003 0.0
H292 H 0.85248 0.10914 0.49814 0.0
H293 H 0.74464 0.05657 0.44225 0.0
H294 H 0.66332 0.04813 0.46448 0.0
C295 C 0.89545 0.05572 0.427 0.0
C296 C 0.95182 0.10278 0.42968 0.0
C297 C 0.84783 0.04948 0.43941 0.0
C298 C 0.85544 0.08996 0.45488 0.0
C299 C 0.91174 0.13696 0.45748 0.0
C300 C 0.95912 0.14329 0.44509 0.0
C301 C 0.76524 0.09154 0.50306 0.0
C302 C 0.71134 0.07407 0.49388 0.0
C303 C 0.81166 0.09619 0.49047 0.0
C304 C 0.80526 0.08356 0.46836 0.0
C305 C 0.75098 0.06591 0.45925 0.0
C306 C 0.70456 0.06141 0.47188 0.0
H307 H 0.9198 0.99429 0.77974 0.0
H308 H 0.97549 0.88517 0.75025 0.0
H309 H 0.84598 0.911 0.80143 0.0
H310 H 0.90185 0.80163 0.77243 0.0
H311 H 0.72043 0.6553 0.79929 0.0
H312 H 0.79675 0.73736 0.77702 0.0
H313 H 0.83633 0.84637 0.83159 0.0
H314 H 0.75946 0.76439 0.85351 0.0
C315 C 0.91654 0.95259 0.77788 0.0
C316 C 0.9539 0.94676 0.76314 0.0
C317 C 0.87428 0.90472 0.7905 0.0
C318 C 0.86798 0.84947 0.78882 0.0
C319 C 0.90506 0.8434 0.77402 0.0
C320 C 0.94756 0.89145 0.76137 0.0
C321 C 0.74591 0.69686 0.80643 0.0
C322 C 0.7345 0.7038 0.82804 0.0
C323 C 0.78971 0.74378 0.79377 0.0
C324 C 0.82275 0.79868 0.80246 0.0
C325 C 0.81131 0.80508 0.82423 0.0
C326 C 0.76762 0.75819 0.83685 0.0
H327 H 0.1862 0.97873 0.08842 0.0
H328 H 1.00638 0.91749 0.10624 0.0
H329 H 0.18417 0.90298 0.11277 0.0
H330 H 1.00454 0.84219 0.13064 0.0
H331 H 0.0425 0.7479 0.1872 0.0
H332 H 0.04819 0.82914 0.16503 0.0
H333 H 0.13322 0.79299 0.1129 0.0
H334 H 0.12647 0.71127 0.13502 0.0
C335 C 0.14653 0.9497 0.09776 0.0
C336 C 0.09645 0.95415 0.09538 0.0
C337 C 0.14523 0.90601 0.11157 0.0
C338 C 0.09409 0.86635 0.12355 0.0
C339 C 0.0447 0.87223 0.12175 0.0
C340 C 0.04574 0.91533 0.10773 0.0
C341 C 0.06232 0.75752 0.17098 0.0
C342 C 0.08449 0.72384 0.16283 0.0
C343 C 0.06554 0.80384 0.1583 0.0
C344 C 0.09154 0.81778 0.13726 0.0
C345 C 0.11376 0.78396 0.12916 0.0
C346 C 0.10978 0.73715 0.14174 0.0
H347 H 0.099 0.02227 0.45183 0.0
H348 H 0.22596 0.11094 0.39929 0.0
H349 H 0.1741 0.02038 0.47408 0.0
H350 H 0.30062 0.1078 0.42121 0.0
H351 H 0.38889 0.01936 0.46069 0.0
H352 H 0.31373 0.02152 0.43873 0.0
H353 H 0.27481 0.10397 0.48984 0.0
H354 H 0.35082 0.10302 0.51159 0.0
C355 C 0.14304 0.04146 0.44514 0.0
C356 C 0.15742 0.06833 0.4242 0.0
C357 C 0.18585 0.0404 0.4578 0.0
C358 C 0.24312 0.06417 0.44936 0.0
C359 C 0.25683 0.08917 0.42809 0.0
C360 C 0.21437 0.09139 0.41565 0.0
C361 C 0.3642 0.03787 0.4672 0.0
C362 C 0.37565 0.06109 0.4878 0.0
C363 C 0.32148 0.03934 0.45463 0.0
C364 C 0.28851 0.06282 0.46264 0.0
C365 C 0.29945 0.08539 0.48335 0.0
C366 C 0.34304 0.08511 0.49571 0.0
H367 H 0.17914 0.09438 0.78407 0.0
H368 H 0.22436 0.2231 0.73161 0.0
H369 H 0.25196 0.16901 0.80655 0.0
H370 H 0.29799 0.29742 0.75378 0.0
H371 H 0.4677 0.38903 0.7938 0.0
H372 H 0.39513 0.31416 0.7715 0.0
H373 H 0.26446 0.26582 0.8227 0.0
H374 H 0.33667 0.34143 0.84483 0.0
C375 C 0.20465 0.13871 0.77744 0.0
C376 C 0.19521 0.15368 0.75646 0.0
C377 C 0.24614 0.18126 0.79023 0.0
C378 C 0.28034 0.23897 0.78191 0.0
C379 C 0.27227 0.25329 0.76058 0.0
C380 C 0.22995 0.21102 0.74799 0.0
C381 C 0.42347 0.36233 0.80026 0.0
C382 C 0.40774 0.37102 0.82101 0.0
C383 C 0.38198 0.31978 0.78749 0.0
C384 C 0.32427 0.28422 0.79542 0.0
C385 C 0.3087 0.29245 0.81626 0.0
C386 C 0.34987 0.33584 0.82884 0.0
H387 H 0.98155 0.1584 0.68447 0.0
H388 H 0.94583 0.98626 0.67078 0.0
H389 H 0.91006 0.15041 0.65849 0.0
H390 H 0.87299 0.97797 0.64487 0.0
H391 H 0.69597 0.97183 0.62622 0.0
H392 H 0.77274 0.97538 0.64853 0.0
H393 H 0.89625 0.1409 0.61721 0.0
H394 H 0.82077 0.1366 0.5942 0.0
C395 C 0.95868 0.11892 0.67581 0.0
C396 C 0.96949 0.07296 0.67969 0.0
C397 C 0.91782 0.11447 0.66086 0.0
C398 C 0.88587 0.06356 0.64968 0.0
C399 C 0.89684 0.01763 0.65336 0.0
C400 C 0.93878 0.02255 0.66804 0.0
C401 C 0.73964 0.0085 0.6237 0.0
C402 C 0.75158 0.05424 0.60844 0.0
C403 C 0.78362 0.0105 0.63657 0.0
C404 C 0.84039 0.05856 0.63469 0.0
C405 C 0.85271 0.10362 0.6192 0.0
C406 C 0.80912 0.10128 0.60613 0.0
H407 H 0.91871 0.93177 0.03048 0.0
H408 H 0.05022 0.9702 0.98081 0.0
H409 H 0.84486 0.85868 0.00837 0.0
H410 H 0.97627 0.89886 0.958 0.0
H411 H 0.84112 0.72701 0.93181 0.0
H412 H 0.91467 0.79906 0.95405 0.0
H413 H 0.79012 0.84491 0.97743 0.0
H414 H 0.71559 0.77027 0.9563 0.0
C415 C 0.93142 0.92512 0.01457 0.0
C416 C 0.98958 0.95759 0.00699 0.0
C417 C 0.88916 0.88333 1.00184 0.0
C418 C 0.90414 0.8729 0.9812 0.0
C419 C 0.96293 0.90503 0.97385 0.0
C420 C 1.00531 0.9463 0.98678 0.0
C421 C 0.82904 0.75181 0.94192 0.0
C422 C 0.77198 0.74226 0.94225 0.0
C423 C 0.8717 0.794 0.95446 0.0
C424 C 0.85877 0.82831 0.96758 0.0
C425 C 0.80183 0.81909 0.96777 0.0
C426 C 0.75906 0.77659 0.95536 0.0
H427 H 0.95201 0.9072 0.34119 0.0
H428 H 0.13886 0.01036 0.33226 0.0
H429 H 0.95167 0.83285 0.31899 0.0
H430 H 0.13844 0.9369 0.31006 0.0
H431 H 0.12599 0.76503 0.29576 0.0
H432 H 0.12185 0.83894 0.31629 0.0
H433 H 0.9706 0.8118 0.28196 0.0
H434 H 0.97505 0.73805 0.26114 0.0
C435 C 0.99285 0.91445 0.33425 0.0
C436 C 0.04546 0.96467 0.33861 0.0
C437 C 0.99268 0.87185 0.32151 0.0
C438 C 0.04515 0.87846 0.31297 0.0
C439 C 0.09736 0.9297 0.31674 0.0
C440 C 0.09751 0.97215 0.32935 0.0
C441 C 0.09211 0.77504 0.29239 0.0
C442 C 0.05112 0.74557 0.27662 0.0
C443 C 0.0897 0.81753 0.3042 0.0
C444 C 0.04617 0.8318 0.30068 0.0
C445 C 1.00444 0.80162 0.28523 0.0
C446 C 0.00696 0.75918 0.27332 0.0
H447 H 0.1645 0.9488 0.67816 0.0
H448 H 0.22953 0.12839 0.65795 0.0
H449 H 0.23656 0.94682 0.65367 0.0
H450 H 0.30116 0.12629 0.63348 0.0
H451 H 0.3878 0.08417 0.57746 0.0
H452 H 0.30922 0.08092 0.5998 0.0
H453 H 0.346 0.9934 0.65219 0.0
H454 H 0.42502 0.99754 0.62985 0.0
C455 C 0.1936 0.98759 0.66829 0.0
C456 C 0.19125 0.03874 0.67002 0.0
C457 C 0.23519 0.98659 0.65439 0.0
C458 C 0.2748 0.03647 0.64168 0.0
C459 C 0.27107 0.087 0.64291 0.0
C460 C 0.23008 0.08823 0.65699 0.0
C461 C 0.37879 0.06416 0.59374 0.0
C462 C 0.41198 0.04069 0.60192 0.0
C463 C 0.33401 0.06239 0.60654 0.0
C464 C 0.32113 0.03664 0.62775 0.0
C465 C 0.3542 0.01275 0.63583 0.0
C466 C 0.39946 0.01521 0.6231 0.0
H467 H 0.17541 0.26258 1.00264 0.0
H468 H 0.24208 0.14506 1.00038 0.0
H469 H 0.26132 0.33672 0.98166 0.0
H470 H 0.32746 0.21907 0.97876 0.0
H471 H 0.41693 0.34791 0.91502 0.0
H472 H 0.33766 0.27221 0.93855 0.0
H473 H 0.37792 0.39534 0.98806 0.0
H474 H 0.45878 0.47028 0.9649 0.0
C475 C 0.20843 0.2526 0.99767 0.0
C476 C 0.20198 0.19796 1.0032 0.0
C477 C 0.25767 0.29513 0.98575 0.0
C478 C 0.30093 0.28356 0.97861 0.0
C479 C 0.29462 0.22899 0.98406 0.0
C480 C 0.24598 0.18684 0.99649 0.0
C481 C 0.40915 0.35843 0.93105 0.0
C482 C 0.44342 0.41499 0.93809 0.0
C483 C 0.364 0.31523 0.94448 0.0
C484 C 0.35159 0.32808 0.96506 0.0
C485 C 0.38637 0.38445 0.97221 0.0
C486 C 0.4324 0.42724 0.95898 0.0
H487 H 0.14293 0.30209 0.36015 0.0
H488 H 0.00929 0.15363 0.3288 0.0
H489 H 0.13308 0.36672 0.33416 0.0
H490 H 0.9989 0.21923 0.30271 0.0
H491 H 0.04601 0.36344 0.24716 0.0
H492 H 0.04939 0.29175 0.27239 0.0
H493 H 0.06452 0.39786 0.32586 0.0
H494 H 0.06218 0.46941 0.30049 0.0
C495 C 0.1112 0.28301 0.34774 0.0
C496 C 0.07658 0.22231 0.34677 0.0
C497 C 0.10531 0.32034 0.33286 0.0
C498 C 0.06456 0.29837 0.3165 0.0
C499 C 0.03083 0.23769 0.31508 0.0
C500 C 0.03672 0.20005 0.33007 0.0
C501 C 0.04945 0.37075 0.26437 0.0
C502 C 0.05409 0.42172 0.272 0.0
C503 C 0.05121 0.32977 0.27882 0.0
C504 C 0.05785 0.33922 0.30117 0.0
C505 C 0.06052 0.38962 0.30873 0.0
C506 C 0.05874 0.43041 0.2943 0.0
loop_
_geom_bond_atom_site_label_1
_geom_bond_atom_site_label_2
_geom_bond_distance
_geom_bond_site_symmetry_2
_ccdc_geom_bond_type
Mn0 O5 2.095 . S
Mn0 O15 2.178 . S
Mn0 O16 2.297 1_545 S
Mn0 O24 2.385 1_545 S
Mn0 O25 2.209 . S
Mn0 O26 2.094 . S
Mn1 O6 2.121 . S
Mn1 N8 2.257 1_455 S
Mn1 N17 2.282 1_554 S
Mn1 O25 2.215 . S
Mn1 O27 2.117 . S
C2 O24 1.234 . S
C2 O25 1.283 1_565 S
C3 O15 1.277 1_565 S
C3 O16 1.236 . S
C4 O26 1.240 . S
C4 O27 1.264 . S
O5 Mn0 2.095 . S
O5 C14 1.250 . S
O6 Mn1 2.121 . S
O6 C14 1.258 . S
C7 N8 1.326 . S
C7 C11 1.460 . S
C7 H13 0.929 . S
N8 Mn1 2.257 1_655 S
N8 C7 1.326 . S
N8 C12 1.362 1_554 S
C9 C10 1.258 1_556 S
C9 C12 1.431 . S
C9 C29 1.449 . S
C10 C9 1.258 1_554 S
C10 C11 1.477 . S
C10 H30 0.930 . S
C11 C7 1.460 . S
C11 C10 1.477 . S
C11 H31 0.930 . S
C12 N8 1.362 1_556 S
C12 C9 1.431 . S
C12 C22 1.476 . S
H13 C7 0.929 . S
C14 O5 1.250 . S
C14 O6 1.258 . S
O15 Mn0 2.178 . S
O15 C3 1.277 1_545 S
O16 Mn0 2.297 1_565 S
O16 C3 1.236 . S
N17 Mn1 2.282 1_556 S
N17 C18 1.328 . S
N17 C22 1.318 1_455 S
C18 N17 1.328 . S
C18 C19 1.457 . S
C18 H23 0.929 . S
C19 C18 1.457 . S
C19 C20 1.291 1_455 S
C19 H32 0.931 . S
C20 C19 1.291 1_655 S
C20 C21 1.373 . S
C20 H33 0.929 . S
C21 C20 1.373 . S
C21 C22 1.396 . S
C21 C28 1.403 . S
C22 C12 1.476 . S
C22 N17 1.318 1_655 S
C22 C21 1.396 . S
H23 C18 0.929 . S
O24 Mn0 2.385 1_565 S
O24 C2 1.234 . S
O25 Mn0 2.209 . S
O25 Mn1 2.215 . S
O25 C2 1.283 1_545 S
O26 Mn0 2.094 . S
O26 C4 1.240 . S
O27 Mn1 2.117 . S
O27 C4 1.264 . S
C28 C21 1.403 . S
C28 C29 1.399 . S
C28 H34 0.929 . S
C29 C9 1.449 . S
C29 C28 1.399 . S
C29 H35 0.930 . S
H30 C10 0.930 . S
H31 C11 0.930 . S
H32 C19 0.931 . S
H33 C20 0.929 . S
H34 C28 0.929 . S
H35 C29 0.930 . S
Mn36 O41 2.095 . S
Mn36 O51 2.162 1_445 S
Mn36 O52 2.297 . S
Mn36 O60 2.385 . S
Mn36 O61 2.209 . S
Mn36 O62 2.094 1_455 S
Mn37 O42 2.121 . S
Mn37 N44 2.257 . S
Mn37 N53 2.282 . S
Mn37 O61 2.215 . S
Mn37 O63 2.117 . S
C38 O60 1.234 . S
C38 O61 1.283 . S
C39 O51 1.281 1_455 S
C39 O52 1.236 1_565 S
C40 O62 1.240 . S
C40 O63 1.264 1_655 S
O41 Mn36 2.095 . S
O41 C50 1.250 . S
O42 Mn37 2.121 . S
O42 C50 1.258 . S
C43 N44 1.326 . S
C43 C47 1.460 . S
C43 H49 0.929 . S
N44 Mn37 2.257 . S
N44 C43 1.326 . S
N44 C48 1.362 . S
C45 C46 1.258 . S
C45 C48 1.431 . S
C45 C65 1.449 . S
C46 C45 1.258 . S
C46 C47 1.477 . S
C46 H66 0.931 . S
C47 C43 1.460 . S
C47 C46 1.477 . S
C47 H67 0.930 . S
C48 N44 1.362 . S
C48 C45 1.431 . S
C48 C58 1.476 . S
H49 C43 0.929 . S
C50 O41 1.250 . S
C50 O42 1.258 . S
O51 Mn36 2.162 1_665 S
O51 C39 1.281 1_655 S
O52 Mn36 2.297 . S
O52 C39 1.236 1_545 S
N53 Mn37 2.282 . S
N53 C54 1.328 . S
N53 C58 1.318 . S
C54 N53 1.328 . S
C54 C55 1.457 . S
C54 H59 0.929 . S
C55 C54 1.457 . S
C55 C56 1.291 . S
C55 H68 0.931 . S
C56 C55 1.291 . S
C56 C57 1.373 . S
C56 H69 0.929 . S
C57 C56 1.373 . S
C57 C58 1.396 . S
C57 C64 1.403 . S
C58 C48 1.476 . S
C58 N53 1.318 . S
C58 C57 1.396 . S
H59 C54 0.929 . S
O60 Mn36 2.385 . S
O60 C38 1.234 . S
O61 Mn36 2.209 . S
O61 Mn37 2.215 . S
O61 C38 1.283 . S
O62 Mn36 2.094 1_655 S
O62 C40 1.240 . S
O63 Mn37 2.117 . S
O63 C40 1.264 1_455 S
C64 C57 1.403 . S
C64 C65 1.399 . S
C64 H70 0.929 . S
C65 C45 1.449 . S
C65 C64 1.399 . S
C65 H71 0.930 . S
H66 C46 0.931 . S
H67 C47 0.930 . S
H68 C55 0.931 . S
H69 C56 0.929 . S
H70 C64 0.929 . S
H71 C65 0.930 . S
Mn72 O77 2.095 . S
Mn72 O87 2.162 1_545 S
Mn72 O88 2.297 . S
Mn72 O96 2.385 . S
Mn72 O97 2.209 . S
Mn72 O98 2.094 1_545 S
Mn73 O78 2.121 1_455 S
Mn73 N80 2.257 . S
Mn73 N89 2.282 . S
Mn73 O97 2.215 . S
Mn73 O99 2.099 1_445 S
C74 O96 1.234 . S
C74 O97 1.283 . S
C75 O87 1.281 1_545 S
C75 O88 1.236 . S
C76 O98 1.240 1_655 S
C76 O99 1.283 . S
O77 Mn72 2.095 . S
O77 C86 1.250 1_455 S
O78 Mn73 2.121 1_655 S
O78 C86 1.258 . S
C79 N80 1.326 . S
C79 C83 1.460 . S
C79 H85 0.929 . S
N80 Mn73 2.257 . S
N80 C79 1.326 . S
N80 C84 1.362 . S
C81 C82 1.258 . S
C81 C84 1.431 . S
C81 C101 1.449 . S
C82 C81 1.258 . S
C82 C83 1.477 . S
C82 H102 0.931 . S
C83 C79 1.460 . S
C83 C82 1.477 . S
C83 H103 0.930 . S
C84 N80 1.362 . S
C84 C81 1.431 . S
C84 C94 1.476 . S
H85 C79 0.929 . S
C86 O77 1.250 1_655 S
C86 O78 1.258 . S
O87 Mn72 2.162 1_565 S
O87 C75 1.281 1_565 S
O88 Mn72 2.297 . S
O88 C75 1.236 . S
N89 Mn73 2.282 . S
N89 C90 1.328 . S
N89 C94 1.318 . S
C90 N89 1.328 . S
C90 C91 1.457 . S
C90 H95 0.929 . S
C91 C90 1.457 . S
C91 C92 1.291 . S
C91 H104 0.931 . S
C92 C91 1.291 . S
C92 C93 1.373 . S
C92 H105 0.929 . S
C93 C92 1.373 . S
C93 C94 1.396 . S
C93 C100 1.403 . S
C94 C84 1.476 . S
C94 N89 1.318 . S
C94 C93 1.396 . S
H95 C90 0.929 . S
O96 Mn72 2.385 . S
O96 C74 1.234 . S
O97 Mn72 2.209 . S
O97 Mn73 2.215 . S
O97 C74 1.283 . S
O98 Mn72 2.094 1_565 S
O98 C76 1.240 1_455 S
O99 Mn73 2.099 1_665 S
O99 C76 1.283 . S
C100 C93 1.403 . S
C100 C101 1.399 . S
C100 H106 0.929 . S
C101 C81 1.449 . S
C101 C100 1.399 . S
C101 H107 0.930 . S
H102 C82 0.931 . S
H103 C83 0.930 . S
H104 C91 0.931 . S
H105 C92 0.929 . S
H106 C100 0.929 . S
H107 C101 0.930 . S
C108 C109 1.443 . S
C108 N112 1.376 . S
C108 C146 1.389 . S
C109 C108 1.443 . S
C109 C110 1.340 . S
C109 H149 0.951 . S
C110 C109 1.340 . S
C110 C111 1.439 . S
C110 H150 0.950 . S
C111 C110 1.439 . S
C111 N112 1.374 . S
C111 C145 1.395 . S
N112 C108 1.376 . S
N112 C111 1.374 . S
N112 Co113 2.008 . S
Co113 N112 2.008 . S
Co113 N114 1.995 . S
Co113 N119 2.008 1_455 S
Co113 N124 1.995 1_455 S
Co113 N129 2.282 . S
Co113 N135 2.282 . S
N114 Co113 1.995 . S
N114 C115 1.376 . S
N114 C118 1.383 . S
C115 N114 1.376 . S
C115 C116 1.446 . S
C115 C145 1.391 . S
C116 C115 1.446 . S
C116 C117 1.339 . S
C116 H151 0.949 . S
C117 C116 1.339 . S
C117 C118 1.439 . S
C117 H152 0.950 . S
C118 N114 1.383 . S
C118 C117 1.439 . S
C118 C147 1.392 . S
N119 Co113 2.008 1_655 S
N119 C120 1.376 . S
N119 C123 1.374 . S
C120 N119 1.376 . S
C120 C121 1.443 . S
C120 C147 1.389 1_655 S
C121 C120 1.443 . S
C121 C122 1.340 . S
C121 H153 0.951 . S
C122 C121 1.340 . S
C122 C123 1.439 . S
C122 H154 0.950 . S
C123 N119 1.374 . S
C123 C122 1.439 . S
C123 C148 1.395 . S
N124 Co113 1.995 1_655 S
N124 C125 1.376 . S
N124 C128 1.383 1_655 S
C125 N124 1.376 . S
C125 C126 1.446 . S
C125 C148 1.391 . S
C126 C125 1.446 . S
C126 C127 1.339 . S
C126 H155 0.949 . S
C127 C126 1.339 . S
C127 C128 1.439 1_655 S
C127 H156 0.950 . S
C128 N124 1.383 1_455 S
C128 C127 1.439 1_455 S
C128 C146 1.392 . S
N129 Co113 2.282 . S
N129 C132 1.332 . S
N129 C134 1.332 . S
C130 C131 1.386 . S
C130 C133 1.388 . S
C131 C130 1.386 . S
C131 C132 1.382 . S
C131 H157 0.950 1_455 S
C132 N129 1.332 . S
C132 C131 1.382 . S
C132 H143 0.952 1_455 S
C133 C130 1.388 . S
C133 C134 1.382 . S
C133 H158 0.950 . S
C134 N129 1.332 . S
C134 C133 1.382 . S
C134 H144 0.948 . S
N135 Co113 2.282 . S
N135 C139 1.332 . S
N135 C140 1.332 1_455 S
C136 C137 1.388 1_655 S
C136 C140 1.382 . S
C136 H159 0.950 . S
C137 C136 1.388 1_455 S
C137 C138 1.386 . S
C138 C137 1.386 . S
C138 C139 1.382 . S
C138 H160 0.950 . S
C139 N135 1.332 . S
C139 C138 1.382 . S
C139 H141 0.952 . S
C140 N135 1.332 1_655 S
C140 C136 1.382 . S
C140 H142 0.948 . S
H141 C139 0.952 . S
H142 C140 0.948 . S
H143 C132 0.952 1_655 S
H144 C134 0.948 . S
C145 C111 1.395 . S
C145 C115 1.391 . S
C146 C108 1.389 . S
C146 C128 1.392 . S
C147 C118 1.392 . S
C147 C120 1.389 1_455 S
C148 C123 1.395 . S
C148 C125 1.391 . S
H149 C109 0.951 . S
H150 C110 0.950 . S
H151 C116 0.949 . S
H152 C117 0.950 . S
H153 C121 0.951 . S
H154 C122 0.950 . S
H155 C126 0.949 . S
H156 C127 0.950 . S
H157 C131 0.950 1_655 S
H158 C133 0.950 . S
H159 C136 0.950 . S
H160 C138 0.950 . S
C161 C162 1.443 1_545 S
C161 N165 1.376 . S
C161 C199 1.389 . S
C162 C161 1.443 1_565 S
C162 C163 1.340 . S
C162 H202 0.951 . S
C163 C162 1.340 . S
C163 C164 1.439 . S
C163 H203 0.950 . S
C164 C163 1.439 . S
C164 N165 1.374 1_565 S
C164 C198 1.395 . S
N165 C161 1.376 . S
N165 C164 1.374 1_545 S
N165 Co166 2.008 . S
Co166 N165 2.008 . S
Co166 N167 1.995 . S
Co166 N172 2.008 . S
Co166 N177 1.995 . S
Co166 N182 2.282 . S
Co166 N188 2.282 . S
N167 Co166 1.995 . S
N167 C168 1.376 1_545 S
N167 C171 1.383 . S
C168 N167 1.376 1_565 S
C168 C169 1.446 . S
C168 C198 1.391 . S
C169 C168 1.446 . S
C169 C170 1.339 . S
C169 H204 0.949 . S
C170 C169 1.339 . S
C170 C171 1.439 1_565 S
C170 H205 0.950 . S
C171 N167 1.383 . S
C171 C170 1.439 1_545 S
C171 C200 1.392 . S
N172 Co166 2.008 . S
N172 C173 1.376 . S
N172 C176 1.374 . S
C173 N172 1.376 . S
C173 C174 1.443 . S
C173 C200 1.389 . S
C174 C173 1.443 . S
C174 C175 1.340 . S
C174 H206 0.951 . S
C175 C174 1.340 . S
C175 C176 1.439 . S
C175 H207 0.950 . S
C176 N172 1.374 . S
C176 C175 1.439 . S
C176 C201 1.395 . S
N177 Co166 1.995 . S
N177 C178 1.376 . S
N177 C181 1.383 . S
C178 N177 1.376 . S
C178 C179 1.446 . S
C178 C201 1.391 . S
C179 C178 1.446 . S
C179 C180 1.339 . S
C179 H208 0.949 . S
C180 C179 1.339 . S
C180 C181 1.439 . S
C180 H209 0.950 . S
C181 N177 1.383 . S
C181 C180 1.439 . S
C181 C199 1.392 . S
N182 Co166 2.282 . S
N182 C185 1.332 . S
N182 C187 1.332 . S
C183 C184 1.386 . S
C183 C186 1.388 . S
C184 C183 1.386 . S
C184 C185 1.382 . S
C184 H210 0.950 . S
C185 N182 1.332 . S
C185 C184 1.382 . S
C185 H196 0.952 . S
C186 C183 1.388 . S
C186 C187 1.382 . S
C186 H211 0.950 . S
C187 N182 1.332 . S
C187 C186 1.382 . S
C187 H197 0.948 . S
N188 Co166 2.282 . S
N188 C192 1.332 . S
N188 C193 1.332 . S
C189 C190 1.388 . S
C189 C193 1.382 . S
C189 H212 0.950 . S
C190 C189 1.388 . S
C190 C191 1.386 . S
C191 C190 1.386 . S
C191 C192 1.382 . S
C191 H213 0.950 . S
C192 N188 1.332 . S
C192 C191 1.382 . S
C192 H194 0.952 . S
C193 N188 1.332 . S
C193 C189 1.382 . S
C193 H195 0.948 . S
H194 C192 0.952 . S
H195 C193 0.948 . S
H196 C185 0.952 . S
H197 C187 0.948 . S
C198 C164 1.395 . S
C198 C168 1.391 . S
C199 C161 1.389 . S
C199 C181 1.392 . S
C200 C171 1.392 . S
C200 C173 1.389 . S
C201 C176 1.395 . S
C201 C178 1.391 . S
H202 C162 0.951 . S
H203 C163 0.950 . S
H204 C169 0.949 . S
H205 C170 0.950 . S
H206 C174 0.951 . S
H207 C175 0.950 . S
H208 C179 0.949 . S
H209 C180 0.950 . S
H210 C184 0.950 . S
H211 C186 0.950 . S
H212 C189 0.950 . S
H213 C191 0.950 . S
C214 C215 1.443 . S
C214 N218 1.376 . S
C214 C252 1.389 . S
C215 C214 1.443 . S
C215 C216 1.340 . S
C215 H255 0.951 . S
C216 C215 1.340 . S
C216 C217 1.439 . S
C216 H256 0.950 . S
C217 C216 1.439 . S
C217 N218 1.374 . S
C217 C251 1.395 . S
N218 C214 1.376 . S
N218 C217 1.374 . S
N218 Co219 2.008 . S
Co219 N218 2.008 . S
Co219 N220 1.995 . S
Co219 N225 2.008 . S
Co219 N230 1.995 . S
Co219 N235 2.282 . S
Co219 N241 2.282 . S
N220 Co219 1.995 . S
N220 C221 1.376 . S
N220 C224 1.383 . S
C221 N220 1.376 . S
C221 C222 1.446 . S
C221 C251 1.391 . S
C222 C221 1.446 . S
C222 C223 1.339 . S
C222 H257 0.949 . S
C223 C222 1.339 . S
C223 C224 1.439 . S
C223 H258 0.950 . S
C224 N220 1.383 . S
C224 C223 1.439 . S
C224 C253 1.392 . S
N225 Co219 2.008 . S
N225 C226 1.376 . S
N225 C229 1.374 . S
C226 N225 1.376 . S
C226 C227 1.443 . S
C226 C253 1.389 . S
C227 C226 1.443 . S
C227 C228 1.340 . S
C227 H259 0.951 . S
C228 C227 1.340 . S
C228 C229 1.439 . S
C228 H260 0.950 . S
C229 N225 1.374 . S
C229 C228 1.439 . S
C229 C254 1.395 . S
N230 Co219 1.995 . S
N230 C231 1.376 . S
N230 C234 1.383 . S
C231 N230 1.376 . S
C231 C232 1.446 . S
C231 C254 1.391 . S
C232 C231 1.446 . S
C232 C233 1.339 . S
C232 H261 0.949 . S
C233 C232 1.339 . S
C233 C234 1.439 . S
C233 H262 0.950 . S
C234 N230 1.383 . S
C234 C233 1.439 . S
C234 C252 1.392 . S
N235 Co219 2.282 . S
N235 C238 1.332 . S
N235 C240 1.332 . S
C236 C237 1.386 . S
C236 C239 1.388 . S
C237 C236 1.386 . S
C237 C238 1.382 . S
C237 H263 0.950 . S
C238 N235 1.332 . S
C238 C237 1.382 . S
C238 H249 0.952 . S
C239 C236 1.388 . S
C239 C240 1.382 . S
C239 H264 0.950 . S
C240 N235 1.332 . S
C240 C239 1.382 . S
C240 H250 0.948 . S
N241 Co219 2.282 . S
N241 C245 1.332 . S
N241 C246 1.332 . S
C242 C243 1.388 . S
C242 C246 1.382 . S
C242 H265 0.950 . S
C243 C242 1.388 . S
C243 C244 1.386 . S
C244 C243 1.386 . S
C244 C245 1.382 . S
C244 H266 0.950 . S
C245 N241 1.332 . S
C245 C244 1.382 . S
C245 H247 0.952 . S
C246 N241 1.332 . S
C246 C242 1.382 . S
C246 H248 0.948 . S
H247 C245 0.952 . S
H248 C246 0.948 . S
H249 C238 0.952 . S
H250 C240 0.948 . S
C251 C217 1.395 . S
C251 C221 1.391 . S
C252 C214 1.389 . S
C252 C234 1.392 . S
C253 C224 1.392 . S
C253 C226 1.389 . S
C254 C229 1.395 . S
C254 C231 1.391 . S
H255 C215 0.951 . S
H256 C216 0.950 . S
H257 C222 0.949 . S
H258 C223 0.950 . S
H259 C227 0.951 . S
H260 C228 0.950 . S
H261 C232 0.949 . S
H262 C233 0.950 . S
H263 C237 0.950 . S
H264 C239 0.950 . S
H265 C242 0.950 . S
H266 C244 0.950 . S
H267 C275 0.950 1_655 S
H268 C280 0.950 . S
H269 C277 0.950 1_655 S
H270 C279 0.950 . S
H271 C281 0.950 . S
H272 C283 0.950 . S
H273 C285 0.950 1_655 S
H274 C286 0.950 1_655 S
C275 H267 0.950 1_455 S
C275 C276 1.386 . S
C275 C277 1.391 . S
C276 C275 1.386 . S
C276 C280 1.393 . S
C277 H269 0.950 1_455 S
C277 C275 1.391 . S
C277 C278 1.400 . S
C278 C277 1.400 . S
C278 C279 1.398 . S
C278 C284 1.491 . S
C279 H270 0.950 . S
C279 C278 1.398 . S
C279 C280 1.391 . S
C280 H268 0.950 . S
C280 C276 1.393 . S
C280 C279 1.391 . S
C281 H271 0.950 . S
C281 C282 1.386 . S
C281 C283 1.391 . S
C282 C281 1.386 . S
C282 C286 1.393 . S
C283 H272 0.950 . S
C283 C281 1.391 . S
C283 C284 1.400 . S
C284 C278 1.491 . S
C284 C283 1.400 . S
C284 C285 1.398 . S
C285 H273 0.950 1_455 S
C285 C284 1.398 . S
C285 C286 1.391 . S
C286 H274 0.950 1_455 S
C286 C282 1.393 . S
C286 C285 1.391 . S
H287 C295 0.959 . S
H288 C300 0.950 . S
H289 C297 0.950 . S
H290 C299 0.950 . S
H291 C301 0.950 . S
H292 C303 0.950 . S
H293 C305 0.950 . S
H294 C306 0.950 . S
C295 H287 0.959 . S
C295 C296 1.386 . S
C295 C297 1.391 . S
C296 C295 1.386 . S
C296 C300 1.393 . S
C297 H289 0.950 . S
C297 C295 1.391 . S
C297 C298 1.400 . S
C298 C297 1.400 . S
C298 C299 1.398 . S
C298 C304 1.491 . S
C299 H290 0.950 . S
C299 C298 1.398 . S
C299 C300 1.391 . S
C300 H288 0.950 . S
C300 C296 1.393 . S
C300 C299 1.391 . S
C301 H291 0.950 . S
C301 C302 1.386 . S
C301 C303 1.391 . S
C302 C301 1.386 . S
C302 C306 1.393 . S
C303 H292 0.950 . S
C303 C301 1.391 . S
C303 C304 1.400 . S
C304 C298 1.491 . S
C304 C303 1.400 . S
C304 C305 1.398 . S
C305 H293 0.950 . S
C305 C304 1.398 . S
C305 C306 1.391 . S
C306 H294 0.950 . S
C306 C302 1.393 . S
C306 C305 1.391 . S
H307 C315 0.950 . S
H308 C320 0.950 . S
H309 C317 0.950 . S
H310 C319 0.950 . S
H311 C321 0.950 . S
H312 C323 0.950 . S
H313 C325 0.950 . S
H314 C326 0.950 . S
C315 H307 0.950 . S
C315 C316 1.386 . S
C315 C317 1.391 . S
C316 C315 1.386 . S
C316 C320 1.393 . S
C317 H309 0.950 . S
C317 C315 1.391 . S
C317 C318 1.400 . S
C318 C317 1.400 . S
C318 C319 1.398 . S
C318 C324 1.491 . S
C319 H310 0.950 . S
C319 C318 1.398 . S
C319 C320 1.391 . S
C320 H308 0.950 . S
C320 C316 1.393 . S
C320 C319 1.391 . S
C321 H311 0.950 . S
C321 C322 1.386 . S
C321 C323 1.391 . S
C322 C321 1.386 . S
C322 C326 1.393 . S
C323 H312 0.950 . S
C323 C321 1.391 . S
C323 C324 1.400 . S
C324 C318 1.491 . S
C324 C323 1.400 . S
C324 C325 1.398 . S
C325 H313 0.950 . S
C325 C324 1.398 . S
C325 C326 1.391 . S
C326 H314 0.950 . S
C326 C322 1.393 . S
C326 C325 1.391 . S
H327 C335 0.950 . S
H328 C340 0.950 . S
H329 C337 0.950 . S
H330 C339 0.950 . S
H331 C341 0.950 . S
H332 C343 0.950 . S
H333 C345 0.950 . S
H334 C346 0.950 . S
C335 H327 0.950 . S
C335 C336 1.386 . S
C335 C337 1.391 . S
C336 C335 1.386 . S
C336 C340 1.393 . S
C337 H329 0.950 . S
C337 C335 1.391 . S
C337 C338 1.400 . S
C338 C337 1.400 . S
C338 C339 1.398 . S
C338 C344 1.491 . S
C339 H330 0.950 . S
C339 C338 1.398 . S
C339 C340 1.391 . S
C340 H328 0.950 . S
C340 C336 1.393 . S
C340 C339 1.391 . S
C341 H331 0.950 . S
C341 C342 1.386 . S
C341 C343 1.391 . S
C342 C341 1.386 . S
C342 C346 1.393 . S
C343 H332 0.950 . S
C343 C341 1.391 . S
C343 C344 1.400 . S
C344 C338 1.491 . S
C344 C343 1.400 . S
C344 C345 1.398 . S
C345 H333 0.950 . S
C345 C344 1.398 . S
C345 C346 1.391 . S
C346 H334 0.950 . S
C346 C342 1.393 . S
C346 C345 1.391 . S
H347 C355 0.950 . S
H348 C360 0.950 . S
H349 C357 0.950 . S
H350 C359 0.950 . S
H351 C361 0.950 . S
H352 C363 0.950 . S
H353 C365 0.950 . S
H354 C366 0.950 . S
C355 H347 0.950 . S
C355 C356 1.386 . S
C355 C357 1.391 . S
C356 C355 1.386 . S
C356 C360 1.393 . S
C357 H349 0.950 . S
C357 C355 1.391 . S
C357 C358 1.400 . S
C358 C357 1.400 . S
C358 C359 1.398 . S
C358 C364 1.491 . S
C359 H350 0.950 . S
C359 C358 1.398 . S
C359 C360 1.391 . S
C360 H348 0.950 . S
C360 C356 1.393 . S
C360 C359 1.391 . S
C361 H351 0.950 . S
C361 C362 1.386 . S
C361 C363 1.391 . S
C362 C361 1.386 . S
C362 C366 1.393 . S
C363 H352 0.950 . S
C363 C361 1.391 . S
C363 C364 1.400 . S
C364 C358 1.491 . S
C364 C363 1.400 . S
C364 C365 1.398 . S
C365 H353 0.950 . S
C365 C364 1.398 . S
C365 C366 1.391 . S
C366 H354 0.950 . S
C366 C362 1.393 . S
C366 C365 1.391 . S
H367 C375 0.950 . S
H368 C380 0.950 . S
H369 C377 0.950 . S
H370 C379 0.950 . S
H371 C381 0.950 . S
H372 C383 0.950 . S
H373 C385 0.950 . S
H374 C386 0.950 . S
C375 H367 0.950 . S
C375 C376 1.386 . S
C375 C377 1.391 . S
C376 C375 1.386 . S
C376 C380 1.393 . S
C377 H369 0.950 . S
C377 C375 1.391 . S
C377 C378 1.400 . S
C378 C377 1.400 . S
C378 C379 1.398 . S
C378 C384 1.491 . S
C379 H370 0.950 . S
C379 C378 1.398 . S
C379 C380 1.391 . S
C380 H368 0.950 . S
C380 C376 1.393 . S
C380 C379 1.391 . S
C381 H371 0.950 . S
C381 C382 1.386 . S
C381 C383 1.391 . S
C382 C381 1.386 . S
C382 C386 1.393 . S
C383 H372 0.950 . S
C383 C381 1.391 . S
C383 C384 1.400 . S
C384 C378 1.491 . S
C384 C383 1.400 . S
C384 C385 1.398 . S
C385 H373 0.950 . S
C385 C384 1.398 . S
C385 C386 1.391 . S
C386 H374 0.950 . S
C386 C382 1.393 . S
C386 C385 1.391 . S
H387 C395 0.950 1_455 S
H388 C400 0.950 1_565 S
H389 C397 0.950 . S
H390 C399 0.950 1_565 S
H391 C401 0.950 . S
H392 C403 0.950 . S
H393 C405 0.950 . S
H394 C406 0.950 . S
C395 H387 0.950 1_655 S
C395 C396 1.386 . S
C395 C397 1.391 . S
C396 C395 1.386 . S
C396 C400 1.393 . S
C397 H389 0.950 . S
C397 C395 1.391 . S
C397 C398 1.400 . S
C398 C397 1.400 . S
C398 C399 1.398 . S
C398 C404 1.491 . S
C399 H390 0.950 1_545 S
C399 C398 1.398 . S
C399 C400 1.391 . S
C400 H388 0.950 1_545 S
C400 C396 1.393 . S
C400 C399 1.391 . S
C401 H391 0.950 . S
C401 C402 1.386 . S
C401 C403 1.391 . S
C402 C401 1.386 . S
C402 C406 1.393 . S
C403 H392 0.950 . S
C403 C401 1.391 . S
C403 C404 1.400 . S
C404 C398 1.491 . S
C404 C403 1.400 . S
C404 C405 1.398 . S
C405 H393 0.950 . S
C405 C404 1.398 . S
C405 C406 1.391 . S
C406 H394 0.950 . S
C406 C402 1.393 . S
C406 C405 1.391 . S
H407 C415 0.950 . S
H408 C420 0.950 1_455 S
H409 C417 0.950 . S
H410 C419 0.950 . S
H411 C421 0.950 . S
H412 C423 0.950 . S
H413 C425 0.950 . S
H414 C426 0.950 . S
C415 H407 0.950 . S
C415 C416 1.386 . S
C415 C417 1.391 1_554 S
C416 C415 1.386 . S
C416 C420 1.393 1_554 S
C417 H409 0.950 . S
C417 C415 1.391 1_556 S
C417 C418 1.400 . S
C418 C417 1.400 . S
C418 C419 1.398 . S
C418 C424 1.491 . S
C419 H410 0.950 . S
C419 C418 1.398 . S
C419 C420 1.391 . S
C420 H408 0.950 1_655 S
C420 C416 1.393 1_556 S
C420 C419 1.391 . S
C421 H411 0.950 . S
C421 C422 1.386 . S
C421 C423 1.391 . S
C422 C421 1.386 . S
C422 C426 1.393 . S
C423 H412 0.950 . S
C423 C421 1.391 . S
C423 C424 1.400 . S
C424 C418 1.491 . S
C424 C423 1.400 . S
C424 C425 1.398 . S
C425 H413 0.950 . S
C425 C424 1.398 . S
C425 C426 1.391 . S
C426 H414 0.950 . S
C426 C422 1.393 . S
C426 C425 1.391 . S
H427 C435 0.950 . S
H428 C440 0.950 . S
H429 C437 0.950 . S
H430 C439 0.950 . S
H431 C441 0.950 . S
H432 C443 0.950 . S
H433 C445 0.950 . S
H434 C446 0.950 . S
C435 H427 0.950 . S
C435 C436 1.386 1_655 S
C435 C437 1.391 . S
C436 C435 1.386 1_455 S
C436 C440 1.393 . S
C437 H429 0.950 . S
C437 C435 1.391 . S
C437 C438 1.400 1_655 S
C438 C437 1.400 1_455 S
C438 C439 1.398 . S
C438 C444 1.491 . S
C439 H430 0.950 . S
C439 C438 1.398 . S
C439 C440 1.391 . S
C440 H428 0.950 . S
C440 C436 1.393 . S
C440 C439 1.391 . S
C441 H431 0.950 . S
C441 C442 1.386 . S
C441 C443 1.391 . S
C442 C441 1.386 . S
C442 C446 1.393 1_455 S
C443 H432 0.950 . S
C443 C441 1.391 . S
C443 C444 1.400 . S
C444 C438 1.491 . S
C444 C443 1.400 . S
C444 C445 1.398 1_455 S
C445 H433 0.950 . S
C445 C444 1.398 1_655 S
C445 C446 1.391 . S
C446 H434 0.950 . S
C446 C442 1.393 1_655 S
C446 C445 1.391 . S
H447 C455 0.946 1_565 S
H448 C460 0.950 . S
H449 C457 0.950 1_565 S
H450 C459 0.950 . S
H451 C461 0.950 . S
H452 C463 0.950 . S
H453 C465 0.950 1_565 S
H454 C466 0.950 . S
C455 H447 0.946 1_545 S
C455 C456 1.390 . S
C455 C457 1.390 . S
C456 C455 1.390 . S
C456 C460 1.393 . S
C457 H449 0.950 1_545 S
C457 C455 1.390 . S
C457 C458 1.400 . S
C458 C457 1.400 . S
C458 C459 1.398 . S
C458 C464 1.491 . S
C459 H450 0.950 . S
C459 C458 1.398 . S
C459 C460 1.391 . S
C460 H448 0.950 . S
C460 C456 1.393 . S
C460 C459 1.391 . S
C461 H451 0.950 . S
C461 C462 1.386 . S
C461 C463 1.391 . S
C462 C461 1.386 . S
C462 C466 1.393 . S
C463 H452 0.950 . S
C463 C461 1.391 . S
C463 C464 1.400 . S
C464 C458 1.491 . S
C464 C463 1.400 . S
C464 C465 1.398 . S
C465 H453 0.950 1_545 S
C465 C464 1.398 . S
C465 C466 1.391 . S
C466 H454 0.950 . S
C466 C462 1.393 . S
C466 C465 1.391 . S
H467 C475 0.950 . S
H468 C480 0.950 . S
H469 C477 0.950 . S
H470 C479 0.950 . S
H471 C481 0.950 . S
H472 C483 0.950 . S
H473 C485 0.950 . S
H474 C486 0.950 . S
C475 H467 0.950 . S
C475 C476 1.386 1_554 S
C475 C477 1.391 1_554 S
C476 C475 1.386 1_556 S
C476 C480 1.393 . S
C477 H469 0.950 . S
C477 C475 1.391 1_556 S
C477 C478 1.400 . S
C478 C477 1.400 . S
C478 C479 1.398 . S
C478 C484 1.491 . S
C479 H470 0.950 . S
C479 C478 1.398 . S
C479 C480 1.391 . S
C480 H468 0.950 . S
C480 C476 1.393 . S
C480 C479 1.391 . S
C481 H471 0.950 . S
C481 C482 1.386 . S
C481 C483 1.391 . S
C482 C481 1.386 . S
C482 C486 1.393 . S
C483 H472 0.950 . S
C483 C481 1.391 . S
C483 C484 1.400 . S
C484 C478 1.491 . S
C484 C483 1.400 . S
C484 C485 1.398 . S
C485 H473 0.950 . S
C485 C484 1.398 . S
C485 C486 1.391 . S
C486 H474 0.950 . S
C486 C482 1.393 . S
C486 C485 1.391 . S
H487 C495 0.950 . S
H488 C500 0.950 1_655 S
H489 C497 0.950 . S
H490 C499 0.950 1_655 S
H491 C501 0.950 . S
H492 C503 0.950 . S
H493 C505 0.950 . S
H494 C506 0.950 . S
C495 H487 0.950 . S
C495 C496 1.386 . S
C495 C497 1.391 . S
C496 C495 1.386 . S
C496 C500 1.393 . S
C497 H489 0.950 . S
C497 C495 1.391 . S
C497 C498 1.400 . S
C498 C497 1.400 . S
C498 C499 1.398 . S
C498 C504 1.491 . S
C499 H490 0.950 1_455 S
C499 C498 1.398 . S
C499 C500 1.391 . S
C500 H488 0.950 1_455 S
C500 C496 1.393 . S
C500 C499 1.391 . S
C501 H491 0.950 . S
C501 C502 1.386 1_655 S
C501 C503 1.391 . S
C502 C501 1.386 1_455 S
C502 C506 1.393 . S
C503 H492 0.950 . S
C503 C501 1.391 . S
C503 C504 1.400 1_655 S
C504 C498 1.491 . S
C504 C503 1.400 1_455 S
C504 C505 1.398 . S
C505 H493 0.950 . S
C505 C504 1.398 . S
C505 C506 1.391 . S
C506 H494 0.950 . S
C506 C502 1.393 . S
C506 C505 1.391 . S
C282 C130 1.480 . S
C276 C14 1.448 . S
C296 C40 1.495 . S
C302 C200 1.508 . S
C316 C76 1.465 . S
C322 C252 1.480 . S
C336 C3 1.469 . S
C342 C146 1.467 . S
C362 C190 1.504 . S
C356 C38 1.484 . S
C376 C74 1.451 . S
C382 C236 1.473 . S
C402 C183 1.461 . S
C396 C86 1.427 . S
C416 C2 1.458 1_655 S
C422 C243 1.473 . S
C442 C137 1.460 . S
C436 C39 1.461 . S
C462 C199 1.468 . S
C456 C75 1.474 . S
C482 C253 1.483 . S
C476 C4 1.474 1_556 S
C496 C50 1.444 . S
C502 C147 1.478 . S
