# Generated by pormake.
# Topology tsx, (6,3)-cn, num edge types: 1
# Building blocks:
#     Node 0, Type 0, BuildingBlock: MIDCAF_clean_sbu_0, # of connection points: 6
#     Node 1, Type 0, BuildingBlock: MIDCAF_clean_sbu_0, # of connection points: 6
#     Node 2, Type 1, BuildingBlock: WUSLED_clean_sbu_0, # of connection points: 3
#     Node 3, Type 1, BuildingBlock: WUSLED_clean_sbu_0, # of connection points: 3
#     Node 4, Type 1, BuildingBlock: WUSLED_clean_sbu_0, # of connection points: 3
#     Node 5, Type 1, BuildingBlock: WUSLED_clean_sbu_0, # of connection points: 3
#     Edge 6, Type (0, 1), BuildingBlock: XUDNAN_clean_linker_2, # of connection points: 2
#     Edge 7, Type (0, 1), BuildingBlock: XUDNAN_clean_linker_2, # of connection points: 2
#     Edge 8, Type (0, 1), BuildingBlock: XUDNAN_clean_linker_2, # of connection points: 2
#     Edge 9, Type (0, 1), BuildingBlock: XUDNAN_clean_linker_2, # of connection points: 2
#     Edge 10, Type (0, 1), BuildingBlock: XUDNAN_clean_linker_2, # of connection points: 2
#     Edge 11, Type (0, 1), BuildingBlock: XUDNAN_clean_linker_2, # of connection points: 2
#     Edge 12, Type (0, 1), BuildingBlock: XUDNAN_clean_linker_2, # of connection points: 2
#     Edge 13, Type (0, 1), BuildingBlock: XUDNAN_clean_linker_2, # of connection points: 2
#     Edge 14, Type (0, 1), BuildingBlock: XUDNAN_clean_linker_2, # of connection points: 2
#     Edge 15, Type (0, 1), BuildingBlock: XUDNAN_clean_linker_2, # of connection points: 2
#     Edge 16, Type (0, 1), BuildingBlock: XUDNAN_clean_linker_2, # of connection points: 2
#     Edge 17, Type (0, 1), BuildingBlock: XUDNAN_clean_linker_2, # of connection points: 2
# Relax obj value: 0.113
# Max RMSD: 0.180
# Mean RMSD: 0.109
data_MOF--net-tsx--node1-MIDCAF_clean_sbu_0--node2-WUSLED_clean_sbu_0--edge1-XUDNAN_clean_linker_2
_symmetry_space_group_name_H-M    P1
_symmetry_Int_Tables_number       1
_symmetry_cell_setting            triclinic
loop_
_symmetry_equiv_pos_as_xyz
'x, y, z'
_cell_length_a     25.093067
_cell_length_b     26.381747
_cell_length_c     49.6575
_cell_angle_alpha  91.041518
_cell_angle_beta   94.975312
_cell_angle_gamma 90.450076
loop_
_atom_site_label
_atom_site_type_symbol
_atom_site_fract_x
_atom_site_fract_y
_atom_site_fract_z
_atom_type_partial_charge
Zn0 Zn 0.96244 0.02347 0.98417 0.0
Zn1 Zn 0.14484 0.02831 0.04007 0.0
Zn2 Zn 0.0555 0.03046 0.01174 0.0
C3 C 0.1308 0.12809 0.02365 0.0
C4 C 0.15692 0.96108 0.99854 0.0
O5 O 0.99881 0.98351 0.03388 0.0
O6 O 0.92483 0.97586 0.00648 0.0
C7 C 0.98412 0.12702 0.99507 0.0
O8 O 0.08288 0.11127 0.01716 0.0
O9 O 0.16712 0.09792 0.03194 0.0
O10 O 0.17923 0.97266 0.02159 0.0
O11 O 0.11208 0.98175 0.9903 0.0
O12 O 0.94733 0.09693 0.98583 0.0
O13 O 0.02951 0.10993 0.005 0.0
O14 O 0.06886 0.99474 0.972 0.0
O15 O 0.98831 0.99722 0.95019 0.0
C16 C 0.03749 0.98748 0.95024 0.0
O17 O 0.04069 1.00169 0.05197 0.0
O18 O 0.11798 0.01586 0.07583 0.0
C19 C 0.95148 0.96434 0.02819 0.0
C20 C 0.06931 1.0029 0.07485 0.0
Zn21 Zn 0.65434 0.52947 0.53999 0.0
Zn22 Zn 0.47427 0.51755 0.48685 0.0
Zn23 Zn 0.56772 0.52528 0.51389 0.0
C24 C 0.55024 0.48241 0.45266 0.0
C25 C 0.49396 0.62095 0.49718 0.0
O26 O 0.55516 0.49431 0.55398 0.0
O27 O 0.6267 0.52859 0.57633 0.0
C28 C 0.66837 0.45649 0.50239 0.0
O29 O 0.58195 0.49067 0.47419 0.0
O30 O 0.50077 0.49066 0.45293 0.0
O31 O 0.4577 0.59051 0.48775 0.0
O32 O 0.53933 0.6043 0.50739 0.0
O33 O 0.68794 0.46834 0.52594 0.0
O34 O 0.62529 0.47827 0.49256 0.0
O35 O 0.59291 0.60735 0.51911 0.0
O36 O 0.67954 0.59514 0.52747 0.0
C37 C 0.6413 0.625 0.52203 0.0
O38 O 0.51327 0.47536 0.53581 0.0
O39 O 0.43726 0.47036 0.50961 0.0
C40 C 0.58209 0.50627 0.57651 0.0
C41 C 0.46549 0.45693 0.53047 0.0
C42 C 0.98302 0.11192 0.44227 0.0
C43 C 0.95163 0.12853 0.4194 0.0
C44 C 0.90104 0.18309 0.44772 0.0
C45 C 0.91105 0.16376 0.42209 0.0
C46 C 0.93237 0.16588 0.47063 0.0
C47 C 0.97303 0.13058 0.4679 0.0
U48 U 0.05636 0.03092 0.39545 0.0
O49 O 0.14192 0.01678 0.3924 0.0
O50 O 0.08705 0.95302 0.39778 0.0
C51 C 0.13679 0.96776 0.39603 0.0
C52 C 0.02638 0.07572 0.43908 0.0
C53 C 0.17815 0.94284 0.41405 0.0
C54 C 0.25561 0.94514 0.44731 0.0
C55 C 0.21301 0.96992 0.43296 0.0
C56 C 0.2279 0.86609 0.42456 0.0
C57 C 0.26418 0.89315 0.44274 0.0
C58 C 0.18554 0.89067 0.41039 0.0
C59 C 1.00319 0.03452 0.32037 0.0
C60 C 0.95776 0.99549 0.2798 0.0
C61 C 0.04394 0.03644 0.27769 0.0
C62 C 0.04569 0.04843 0.30528 0.0
C63 C 0.99978 0.01014 0.26455 0.0
C64 C 0.95938 0.00775 0.30737 0.0
C65 C 1.00231 0.0498 0.34913 0.0
O66 O 1.01049 0.02975 0.43127 0.0
O67 O 0.06545 0.09302 0.42569 0.0
O68 O 0.0422 0.07842 0.3597 0.0
O69 O 0.98828 0.01438 0.36547 0.0
H70 H 0.9589 0.11454 0.39941 0.0
H71 H 0.88825 0.17661 0.40401 0.0
H72 H 0.92525 0.17946 0.49071 0.0
H73 H 0.99676 0.118 0.48577 0.0
H74 H 0.28288 0.96693 0.46122 0.0
H75 H 0.20821 0.01029 0.43616 0.0
H76 H 0.23266 0.82581 0.42101 0.0
H77 H 0.15922 0.86901 0.39593 0.0
H78 H 0.92345 0.9747 0.27042 0.0
H79 H 0.0766 0.04914 0.26653 0.0
H80 H 0.07994 0.06938 0.31461 0.0
H81 H 0.92596 0.9968 0.3185 0.0
C82 C 0.94721 0.98992 0.57287 0.0
C83 C 0.91059 0.97683 0.59149 0.0
C84 C 0.85658 0.92872 0.5565 0.0
C85 C 0.86562 0.94677 0.58337 0.0
C86 C 0.89316 0.94237 0.53785 0.0
C87 C 0.93797 0.97277 0.54596 0.0
U88 U 0.04973 0.03322 0.62907 0.0
O89 O 0.1377 0.03959 0.63153 0.0
O90 O 0.08929 0.10685 0.63866 0.0
C91 C 0.1375 0.08857 0.63688 0.0
C92 C 0.99617 0.01934 0.58167 0.0
C93 C 0.17614 0.12021 0.62378 0.0
C94 C 0.26682 0.1537 0.62497 0.0
C95 C 0.22924 0.12155 0.63511 0.0
C96 C 0.19894 0.18352 0.59148 0.0
C97 C 0.25228 0.18533 0.60309 0.0
C98 C 0.16113 0.15119 0.60175 0.0
C99 C 0.03085 0.98594 0.70043 0.0
C100 C 1.0067 0.99405 0.74664 0.0
C101 C 0.09503 0.96485 0.73815 0.0
C102 C 0.08195 0.9695 0.71031 0.0
C103 C 0.05736 0.97662 0.75666 0.0
C104 C 0.99358 0.99838 0.71888 0.0
C105 C 1.01471 0.98906 0.67115 0.0
O106 O 0.98949 0.05889 0.5975 0.0
O107 O 0.03783 0.99206 0.58996 0.0
O108 O 0.04569 0.96647 0.65468 0.0
O109 O 0.99779 0.03349 0.66264 0.0
H110 H 0.91726 0.98916 0.61246 0.0
H111 H 0.83883 0.93633 0.59836 0.0
H112 H 0.88723 0.92937 0.51698 0.0
H113 H 0.96582 0.9823 0.5313 0.0
H114 H 0.30707 0.15462 0.6348 0.0
H115 H 0.24151 0.09836 0.65231 0.0
H116 H 0.18645 0.20695 0.57444 0.0
H117 H 0.12025 0.15084 0.59272 0.0
H118 H 0.97705 1.00461 0.76027 0.0
H119 H 0.13426 0.95104 0.74513 0.0
H120 H 0.11166 0.9597 0.69657 0.0
H121 H 0.95402 0.01128 0.71178 0.0
C122 C 0.46783 0.61312 0.94174 0.0
C123 C 0.43268 0.62418 0.91909 0.0
C124 C 0.38477 0.68369 0.94603 0.0
C125 C 0.39149 0.65905 0.92121 0.0
C126 C 0.41959 0.67168 0.9688 0.0
C127 C 0.4608 0.63673 0.96664 0.0
U128 U 0.5455 0.53429 0.89573 0.0
O129 O 0.63202 0.52739 0.89189 0.0
O130 O 0.58389 0.45978 0.8992 0.0
C131 C 0.63188 0.47849 0.89652 0.0
C132 C 0.51319 0.57899 0.93888 0.0
C133 C 0.67678 0.45913 0.91454 0.0
C134 C 0.71194 0.41355 0.95436 0.0
C135 C 0.66934 0.43757 0.93964 0.0
C136 C 0.77015 0.43425 0.91964 0.0
C137 C 0.76248 0.41049 0.94413 0.0
C138 C 0.72777 0.45823 0.90503 0.0
C139 C 0.49213 0.53491 0.82084 0.0
C140 C 0.51434 0.47577 0.78548 0.0
C141 C 0.47908 0.55851 0.77375 0.0
C142 C 0.47574 0.57007 0.80108 0.0
C143 C 0.49868 0.51137 0.76566 0.0
C144 C 0.5114 0.48756 0.81291 0.0
C145 C 0.48949 0.54915 0.84946 0.0
O146 O 0.5002 0.53194 0.93175 0.0
O147 O 0.5509 0.59785 0.92512 0.0
O148 O 0.52727 0.5804 0.85967 0.0
O149 O 0.47907 0.51246 0.86585 0.0
H150 H 0.43775 0.60648 0.89963 0.0
H151 H 0.3659 0.66776 0.90323 0.0
H152 H 0.41506 0.68937 0.9883 0.0
H153 H 0.48755 0.62865 0.98432 0.0
H154 H 0.70462 0.39533 0.97307 0.0
H155 H 0.63034 0.43776 0.94744 0.0
H156 H 0.80871 0.4332 0.91139 0.0
H157 H 0.73443 0.47463 0.88574 0.0
H158 H 0.53009 0.43937 0.77981 0.0
H159 H 0.46627 0.58648 0.7589 0.0
H160 H 0.4607 0.60676 0.80682 0.0
H161 H 0.52462 0.45997 0.82789 0.0
C162 C 0.44067 0.4904 0.07639 0.0
C163 C 0.40252 0.47865 0.09448 0.0
C164 C 0.35053 0.42908 0.05936 0.0
C165 C 0.35775 0.44855 0.08601 0.0
C166 C 0.38871 0.4412 0.04127 0.0
C167 C 0.43325 0.47168 0.0497 0.0
U168 U 0.5457 0.5327 0.13206 0.0
O169 O 0.6329 0.54378 0.13254 0.0
O170 O 0.58193 0.60734 0.14279 0.0
C171 C 0.63049 0.59241 0.13863 0.0
C172 C 0.48908 0.52052 0.08536 0.0
C173 C 0.66462 0.62751 0.1244 0.0
C174 C 0.75195 0.64673 0.10887 0.0
C175 C 0.71562 0.61198 0.11812 0.0
C176 C 0.68667 0.71329 0.11121 0.0
C177 C 0.7384 0.69808 0.10586 0.0
C178 C 0.65029 0.67849 0.12047 0.0
C179 C 0.53387 0.47998 0.20307 0.0
C180 C 0.60109 0.46142 0.23991 0.0
C181 C 0.51137 0.48408 0.24967 0.0
C182 C 0.49669 0.48882 0.22207 0.0
C183 C 0.56359 0.46978 0.25898 0.0
C184 C 0.58642 0.46651 0.21221 0.0
C185 C 0.51619 0.48398 0.17401 0.0
O186 O 0.48216 0.55841 0.10225 0.0
O187 O 0.53209 0.49402 0.09229 0.0
O188 O 0.54748 0.46425 0.15675 0.0
O189 O 0.49625 0.52793 0.16647 0.0
H190 H 0.40769 0.49218 0.11528 0.0
H191 H 0.32962 0.43928 0.10057 0.0
H192 H 0.38418 0.42703 0.02058 0.0
H193 H 0.46225 0.48018 0.03544 0.0
H194 H 0.79108 0.63347 0.10451 0.0
H195 H 0.72824 0.57319 0.12126 0.0
H196 H 0.67499 0.75259 0.10937 0.0
H197 H 0.61169 0.69207 0.12549 0.0
H198 H 0.64153 0.45009 0.24632 0.0
H199 H 0.4817 0.49204 0.26372 0.0
H200 H 0.45602 0.49939 0.21554 0.0
H201 H 0.61606 0.45952 0.19802 0.0
H202 H 0.22284 0.16576 0.00768 0.0
H203 H 0.07475 0.21145 0.03923 0.0
H204 H 0.11136 0.29869 0.0472 0.0
H205 H 0.30664 0.22682 0.05478 0.0
H206 H 0.35628 0.24508 0.03256 0.0
H207 H 0.31485 0.19014 0.02445 0.0
H208 H 0.28317 0.22719 0.97787 0.0
H209 H 0.32528 0.28211 0.98563 0.0
H210 H 0.25483 0.28976 0.97623 0.0
H211 H 0.17137 0.37625 0.05904 0.0
H212 H 0.24512 0.43813 0.07011 0.0
H213 H 0.35326 0.33996 0.03049 0.0
C214 C 0.19739 0.19467 0.01535 0.0
C215 C 0.14567 0.18229 0.02248 0.0
C216 C 0.11384 0.22064 0.03296 0.0
C217 C 0.13463 0.2701 0.03776 0.0
C218 C 0.18694 0.28045 0.03159 0.0
C219 C 0.21741 0.24385 0.02008 0.0
C220 C 0.27386 0.26255 0.0174 0.0
C221 C 0.3153 0.22917 0.03325 0.0
C222 C 0.28492 0.2656 0.98751 0.0
C223 C 0.27142 0.31478 0.03022 0.0
C224 C 0.22095 0.32477 0.03811 0.0
C225 C 0.21064 0.36913 0.05242 0.0
C226 C 0.25288 0.40388 0.0588 0.0
C227 C 0.30489 0.39414 0.05094 0.0
C228 C 0.31374 0.34918 0.03619 0.0
H229 H 0.26207 0.93718 1.00221 0.0
H230 H 0.10961 0.89482 0.95964 0.0
H231 H 0.15263 0.82167 0.93848 0.0
H232 H 0.34807 0.8971 0.94916 0.0
H233 H 0.39917 0.87488 0.97379 0.0
H234 H 0.35743 0.92712 0.98215 0.0
H235 H 0.33051 0.87881 0.02397 0.0
H236 H 0.37138 0.82614 0.01554 0.0
H237 H 0.30133 0.81623 0.01945 0.0
H238 H 0.21179 0.74735 0.92624 0.0
H239 H 0.28108 0.68193 0.92255 0.0
H240 H 0.39345 0.77439 0.97391 0.0
C241 C 0.23782 0.9132 0.98797 0.0
C242 C 0.18257 0.92204 0.98231 0.0
C243 C 0.15222 0.88947 0.96379 0.0
C244 C 0.1763 0.8476 0.95187 0.0
C245 C 0.23069 0.83912 0.95866 0.0
C246 C 0.26107 0.87151 0.97608 0.0
C247 C 0.31772 0.85284 0.98165 0.0
C248 C 0.35797 0.8902 0.97104 0.0
C249 C 0.33097 0.84292 0.01194 0.0
C250 C 0.3144 0.80399 0.96524 0.0
C251 C 0.26414 0.79675 0.9519 0.0
C252 C 0.25142 0.7531 0.93633 0.0
C253 C 0.29108 0.71616 0.93432 0.0
C254 C 0.34279 0.7229 0.94797 0.0
C255 C 0.35427 0.76768 0.96346 0.0
H256 H 0.84658 0.93586 0.02852 0.0
H257 H 1.00499 0.90458 0.06636 0.0
H258 H 0.9671 0.83573 0.09214 0.0
H259 H 0.77159 0.90762 0.0866 0.0
H260 H 0.71683 0.87867 0.06576 0.0
H261 H 0.75588 0.92849 0.05248 0.0
H262 H 0.77572 0.86961 0.01229 0.0
H263 H 0.73714 0.8195 0.02553 0.0
H264 H 0.8057 0.80872 0.01895 0.0
H265 H 0.91225 0.76611 0.11132 0.0
H266 H 0.84514 0.70355 0.12346 0.0
H267 H 0.7233 0.77869 0.07151 0.0
C268 C 0.87328 0.91511 0.04255 0.0
C269 C 0.92871 0.92637 0.0458 0.0
C270 C 0.96226 0.89767 0.06406 0.0
C271 C 0.94111 0.85818 0.07863 0.0
C272 C 0.88638 0.84764 0.07459 0.0
C273 C 0.85292 0.87549 0.05707 0.0
C274 C 0.79606 0.85512 0.05529 0.0
C275 C 0.75784 0.89484 0.06566 0.0
C276 C 0.7776 0.83717 0.0263 0.0
C277 C 0.80276 0.8109 0.07425 0.0
C278 C 0.85509 0.80732 0.08527 0.0
C279 C 0.87116 0.76872 0.10286 0.0
C280 C 0.83277 0.73304 0.10944 0.0
C281 C 0.77882 0.73593 0.09838 0.0
C282 C 0.76394 0.77563 0.08058 0.0
H283 H 0.96172 0.1797 0.9498 0.0
H284 H 0.97398 0.19371 0.037 0.0
H285 H 0.92713 0.27614 0.03365 0.0
H286 H 0.97142 0.32041 0.93513 0.0
H287 H 0.92344 0.31288 0.90612 0.0
H288 H 0.96822 0.26191 0.91569 0.0
H289 H 0.88672 0.2016 0.91758 0.0
H290 H 0.84168 0.25232 0.90864 0.0
H291 H 0.83508 0.2179 0.93922 0.0
H292 H 0.86282 0.34756 0.02037 0.0
H293 H 0.79503 0.40503 0.99856 0.0
H294 H 0.82597 0.34301 0.92004 0.0
C295 C 0.95698 0.2016 0.96809 0.0
C296 C 0.97277 0.18153 0.99362 0.0
C297 C 0.96385 0.20963 0.01728 0.0
C298 C 0.93684 0.25618 0.0155 0.0
C299 C 0.9195 0.27397 0.98991 0.0
C300 C 0.93036 0.24793 0.96659 0.0
C301 C 0.90272 0.2716 0.94166 0.0
C302 C 0.94391 0.29298 0.92359 0.0
C303 C 0.86429 0.23359 0.92587 0.0
C304 C 0.87254 0.31365 0.95454 0.0
C305 C 0.88293 0.31491 0.98234 0.0
C306 C 0.8555 0.34767 0.99858 0.0
C307 C 0.81674 0.37988 0.98605 0.0
C308 C 0.80574 0.37907 0.95756 0.0
C309 C 0.83456 0.34571 0.94178 0.0
H310 H 0.72938 0.66617 0.50327 0.0
H311 H 0.58566 0.70599 0.54078 0.0
H312 H 0.62062 0.79371 0.54883 0.0
H313 H 0.8168 0.72621 0.5489 0.0
H314 H 0.86297 0.74715 0.52546 0.0
H315 H 0.8221 0.69177 0.51756 0.0
H316 H 0.78414 0.73113 0.47255 0.0
H317 H 0.82564 0.78655 0.48008 0.0
H318 H 0.75438 0.79309 0.47295 0.0
H319 H 0.6795 0.87211 0.55996 0.0
H320 H 0.75266 0.93489 0.57012 0.0
H321 H 0.85772 0.84186 0.52552 0.0
C322 C 0.70436 0.69393 0.51226 0.0
C323 C 0.65438 0.67968 0.52101 0.0
C324 C 0.62324 0.71659 0.53321 0.0
C325 C 0.64316 0.76633 0.53808 0.0
C326 C 0.69392 0.77846 0.5303 0.0
C327 C 0.72359 0.74336 0.51717 0.0
C328 C 0.7789 0.76362 0.51312 0.0
C329 C 0.82273 0.73021 0.5271 0.0
C330 C 0.78617 0.76892 0.48287 0.0
C331 C 0.77687 0.81494 0.52702 0.0
C332 C 0.72745 0.8232 0.5366 0.0
C333 C 0.7179 0.86634 0.55205 0.0
C334 C 0.75984 0.90162 0.55791 0.0
C335 C 0.81088 0.89357 0.54843 0.0
C336 C 0.8189 0.84985 0.53249 0.0
H337 H 0.77175 0.42714 0.51122 0.0
H338 H 0.62581 0.39456 0.46031 0.0
H339 H 0.6708 0.32334 0.43861 0.0
H340 H 0.86622 0.39427 0.4618 0.0
H341 H 0.91271 0.36688 0.48707 0.0
H342 H 0.87019 0.41797 0.49621 0.0
H343 H 0.8346 0.36249 0.53343 0.0
H344 H 0.87649 0.31107 0.52424 0.0
H345 H 0.80535 0.30124 0.52436 0.0
H346 H 0.73101 0.25102 0.42529 0.0
H347 H 0.80065 0.18637 0.42064 0.0
H348 H 0.90586 0.26738 0.48103 0.0
C349 C 0.74931 0.40556 0.49522 0.0
C350 C 0.69541 0.41693 0.48715 0.0
C351 C 0.66748 0.38744 0.46631 0.0
C352 C 0.69263 0.34662 0.45407 0.0
C353 C 0.74563 0.33592 0.46296 0.0
C354 C 0.77363 0.36488 0.48297 0.0
C355 C 0.8292 0.34453 0.48997 0.0
C356 C 0.87211 0.38321 0.48335 0.0
C357 C 0.83681 0.32891 0.51976 0.0
C358 C 0.82803 0.29887 0.47112 0.0
C359 C 0.77971 0.29456 0.45557 0.0
C360 C 0.76914 0.25441 0.43719 0.0
C361 C 0.80902 0.21795 0.43465 0.0
C362 C 0.85882 0.22172 0.45047 0.0
C363 C 0.86813 0.26296 0.46885 0.0
H364 H 0.3643 0.44415 0.54587 0.0
H365 H 0.51974 0.37333 0.54789 0.0
H366 H 0.48255 0.2966 0.5676 0.0
H367 H 0.32359 0.3895 0.60907 0.0
H368 H 0.25487 0.38172 0.59566 0.0
H369 H 0.29509 0.43237 0.584 0.0
H370 H 0.27341 0.4001 0.53465 0.0
H371 H 0.23384 0.34891 0.54615 0.0
H372 H 0.28834 0.33548 0.52582 0.0
H373 H 0.42678 0.22537 0.58345 0.0
H374 H 0.35813 0.16632 0.59732 0.0
H375 H 0.23849 0.28383 0.58584 0.0
C376 C 0.39069 0.41291 0.55117 0.0
C377 C 0.44529 0.41508 0.54623 0.0
C378 C 0.47827 0.37292 0.55242 0.0
C379 C 0.45738 0.32912 0.56339 0.0
C380 C 0.40325 0.32797 0.56782 0.0
C381 C 0.37044 0.36894 0.56218 0.0
C382 C 0.31326 0.35721 0.56791 0.0
C383 C 0.29568 0.39228 0.59051 0.0
C384 C 0.27498 0.36063 0.54209 0.0
C385 C 0.31884 0.30295 0.57722 0.0
C386 C 0.37109 0.28687 0.57701 0.0
C387 C 0.38591 0.23781 0.58408 0.0
C388 C 0.34654 0.20456 0.59202 0.0
C389 C 0.2928 0.22038 0.59299 0.0
C390 C 0.27898 0.27028 0.58521 0.0
H391 H 0.46975 0.6697 0.45101 0.0
H392 H 0.48612 0.69144 0.53782 0.0
H393 H 0.44016 0.77417 0.53289 0.0
H394 H 0.47743 0.80896 0.43207 0.0
H395 H 0.4277 0.79816 0.40408 0.0
H396 H 0.47378 0.74862 0.41434 0.0
H397 H 0.39363 0.68808 0.41939 0.0
H398 H 0.34735 0.73739 0.40979 0.0
H399 H 0.34346 0.70613 0.44154 0.0
H400 H 0.37604 0.8453 0.51847 0.0
H401 H 0.30402 0.89789 0.49629 0.0
H402 H 0.33012 0.82779 0.41899 0.0
C403 C 0.46612 0.69332 0.46882 0.0
C404 C 0.48278 0.67537 0.4947 0.0
C405 C 0.47535 0.70572 0.51779 0.0
C406 C 0.4489 0.75249 0.51512 0.0
C407 C 0.43053 0.76813 0.48922 0.0
C408 C 0.4398 0.73966 0.46643 0.0
C409 C 0.4102 0.76045 0.44125 0.0
C410 C 0.44964 0.78024 0.42179 0.0
C411 C 0.37138 0.72065 0.4272 0.0
C412 C 0.38042 0.80346 0.45346 0.0
C413 C 0.3932 0.80815 0.48105 0.0
C414 C 0.36674 0.84262 0.4968 0.0
C415 C 0.32588 0.87234 0.48406 0.0
C416 C 0.31138 0.86677 0.45595 0.0
C417 C 0.34014 0.83275 0.44054 0.0
H418 H 0.12144 0.97753 0.12311 0.0
H419 H 0.96361 0.00949 0.08483 0.0
H420 H 0.92614 1.00385 0.12905 0.0
H421 H 0.0783 0.89173 0.17614 0.0
H422 H 0.12863 0.91709 0.20098 0.0
H423 H 0.14097 0.91491 0.16575 0.0
H424 H 0.16123 0.01145 0.16771 0.0
H425 H 0.14847 0.01409 0.20277 0.0
H426 H 0.11185 0.05442 0.17895 0.0
H427 H 0.90852 0.00666 0.1782 0.0
H428 H 0.91177 0.01645 0.22781 0.0
H429 H 0.08135 0.98246 0.23393 0.0
C430 C 0.07874 0.98205 0.1239 0.0
C431 C 0.04525 0.99291 0.10041 0.0
C432 C 0.98979 0.99968 0.10239 0.0
C433 C 0.9682 0.99682 0.12748 0.0
C434 C 1.00265 0.98725 0.15036 0.0
C435 C 0.05671 0.97958 0.14873 0.0
C436 C 0.08608 0.97463 0.17648 0.0
C437 C 0.10989 0.92141 0.18004 0.0
C438 C 0.12944 0.01612 0.18177 0.0
C439 C 0.04049 0.98259 0.19406 0.0
C440 C 0.99256 0.98915 0.17866 0.0
C441 C 0.94561 1.00054 0.19047 0.0
C442 C 0.94784 0.00585 0.21871 0.0
C443 C 0.99678 1.00001 0.23488 0.0
C444 C 0.04336 0.98739 0.22223 0.0
H445 H 0.98088 0.94478 0.9065 0.0
H446 H 0.13956 0.99978 0.93475 0.0
H447 H 0.16657 0.99277 0.88801 0.0
H448 H 0.0216 0.85781 0.85131 0.0
H449 H 0.96291 0.87395 0.82974 0.0
H450 H 0.9604 0.87368 0.8659 0.0
H451 H 0.92707 0.9664 0.86464 0.0
H452 H 0.93041 0.96742 0.82867 0.0
H453 H 0.96656 0.01438 0.85001 0.0
H454 H 0.17026 0.99411 0.83684 0.0
H455 H 0.15215 0.99877 0.78719 0.0
H456 H 0.99118 0.94152 0.7934 0.0
C457 C 0.0219 0.95378 0.90305 0.0
C458 C 0.05821 0.97262 0.92425 0.0
C459 C 0.1113 0.9846 0.91887 0.0
C460 C 0.12688 0.98092 0.89235 0.0
C461 C 0.08904 0.96462 0.87163 0.0
C462 C 0.03788 0.95036 0.87687 0.0
C463 C 1.0029 0.9389 0.8511 0.0
C464 C 0.98598 0.88274 0.84942 0.0
C465 C 0.95389 0.97387 0.84847 0.0
C466 C 0.04153 0.95097 0.83037 0.0
C467 C 0.09123 0.96519 0.84246 0.0
C468 C 0.13185 0.9819 0.8272 0.0
C469 C 0.12121 0.98436 0.79897 0.0
C470 C 0.07019 0.97054 0.78629 0.0
C471 C 0.03046 0.95278 0.80236 0.0
H472 H 0.58876 0.5705 0.61974 0.0
H473 H 0.53046 0.42174 0.59301 0.0
H474 H 0.49885 0.40694 0.63815 0.0
H475 H 0.63919 0.53585 0.68543 0.0
H476 H 0.62057 0.59421 0.70139 0.0
H477 H 0.63494 0.59357 0.6665 0.0
H478 H 0.54187 0.63183 0.65277 0.0
H479 H 0.52729 0.63282 0.68765 0.0
H480 H 0.48257 0.60051 0.6625 0.0
H481 H 0.47952 0.40745 0.68779 0.0
H482 H 0.46962 0.42462 0.73636 0.0
H483 H 0.54154 0.57338 0.7297 0.0
C484 C 0.56888 0.53497 0.62334 0.0
C485 C 0.56074 0.49745 0.60277 0.0
C486 C 0.53499 0.45143 0.6082 0.0
C487 C 0.5177 0.44261 0.6339 0.0
C488 C 0.52656 0.48045 0.65383 0.0
C489 C 0.55127 0.52585 0.64872 0.0
C490 C 0.55719 0.56013 0.67353 0.0
C491 C 0.61649 0.57158 0.68222 0.0
C492 C 0.52532 0.60922 0.66882 0.0
C493 C 0.53253 0.52678 0.69361 0.0
C494 C 0.51517 0.48089 0.68199 0.0
C495 C 0.4926 0.44342 0.69701 0.0
C496 C 0.48741 0.45335 0.72456 0.0
C497 C 0.50443 0.50045 0.73667 0.0
C498 C 0.52729 0.53739 0.72088 0.0
H499 H 0.49498 0.43538 0.40976 0.0
H500 H 0.65057 0.49983 0.43622 0.0
H501 H 0.67651 0.49313 0.38928 0.0
H502 H 0.54082 0.34902 0.35509 0.0
H503 H 0.48047 0.36051 0.33374 0.0
H504 H 0.47904 0.3611 0.36998 0.0
H505 H 0.43862 0.45118 0.36798 0.0
H506 H 0.44078 0.45138 0.33193 0.0
H507 H 0.47383 0.50124 0.3525 0.0
H508 H 0.67819 0.49411 0.33808 0.0
H509 H 0.65788 0.49746 0.28852 0.0
H510 H 0.50202 0.42966 0.29643 0.0
C511 C 0.53519 0.44652 0.40586 0.0
C512 C 0.57082 0.46803 0.42659 0.0
C513 C 0.62287 0.4827 0.42067 0.0
C514 C 0.63784 0.47916 0.39405 0.0
C515 C 0.60058 0.46007 0.37378 0.0
C516 C 0.55067 0.44301 0.37957 0.0
C517 C 0.51592 0.42854 0.35414 0.0
C518 C 0.50334 0.37139 0.35318 0.0
C519 C 0.46429 0.45998 0.3515 0.0
C520 C 0.5529 0.44253 0.33296 0.0
C521 C 0.60183 0.46005 0.34455 0.0
C522 C 0.64051 0.47926 0.32882 0.0
C523 C 0.62862 0.48095 0.30064 0.0
C524 C 0.5783 0.46384 0.28848 0.0
C525 C 0.5407 0.44343 0.305 0.0
loop_
_geom_bond_atom_site_label_1
_geom_bond_atom_site_label_2
_geom_bond_distance
_geom_bond_site_symmetry_2
_ccdc_geom_bond_type
Zn0 O6 1.920 1_545 S
Zn0 O12 1.898 . S
Zn0 O15 1.905 1_545 S
Zn1 O9 1.905 . S
Zn1 O10 1.898 1_545 S
Zn1 O18 1.920 1_545 S
Zn2 O5 2.080 1_445 S
Zn2 O8 2.114 . S
Zn2 O11 2.120 1_545 S
Zn2 O13 2.120 1_455 S
Zn2 O14 2.114 1_554 S
Zn2 O17 2.080 . S
C3 O8 1.166 . S
C3 O9 1.182 . S
C4 O10 1.167 . S
C4 O11 1.299 . S
O5 Zn2 2.080 1_665 S
O5 C19 1.305 . S
O6 Zn0 1.920 1_565 S
O6 C19 1.234 1_556 S
C7 O12 1.167 . S
C7 O13 1.299 1_556 S
O8 Zn2 2.114 . S
O8 C3 1.166 . S
O9 Zn1 1.905 . S
O9 C3 1.182 . S
O10 Zn1 1.898 1_565 S
O10 C4 1.167 . S
O11 Zn2 2.120 1_565 S
O11 C4 1.299 . S
O12 Zn0 1.898 . S
O12 C7 1.167 . S
O13 Zn2 2.120 1_655 S
O13 C7 1.299 1_554 S
O14 Zn2 2.114 1_556 S
O14 C16 1.166 1_545 S
O15 Zn0 1.905 1_565 S
O15 C16 1.182 1_655 S
C16 O14 1.166 1_565 S
C16 O15 1.182 1_455 S
O17 Zn2 2.080 . S
O17 C20 1.305 1_545 S
O18 Zn1 1.920 1_565 S
O18 C20 1.234 . S
C19 O5 1.305 . S
C19 O6 1.234 1_554 S
C20 O17 1.305 1_565 S
C20 O18 1.234 . S
Zn21 O27 1.920 . S
Zn21 O33 1.898 . S
Zn21 O36 1.905 . S
Zn22 O30 1.905 . S
Zn22 O31 1.898 . S
Zn22 O39 1.920 . S
Zn23 O26 2.080 . S
Zn23 O29 2.114 . S
Zn23 O32 2.120 . S
Zn23 O34 2.120 . S
Zn23 O35 2.114 . S
Zn23 O38 2.080 . S
C24 O29 1.166 . S
C24 O30 1.182 . S
C25 O31 1.167 . S
C25 O32 1.299 . S
O26 Zn23 2.080 . S
O26 C40 1.305 . S
O27 Zn21 1.920 . S
O27 C40 1.234 . S
C28 O33 1.167 . S
C28 O34 1.299 . S
O29 Zn23 2.114 . S
O29 C24 1.166 . S
O30 Zn22 1.905 . S
O30 C24 1.182 . S
O31 Zn22 1.898 . S
O31 C25 1.167 . S
O32 Zn23 2.120 . S
O32 C25 1.299 . S
O33 Zn21 1.898 . S
O33 C28 1.167 . S
O34 Zn23 2.120 . S
O34 C28 1.299 . S
O35 Zn23 2.114 . S
O35 C37 1.166 . S
O36 Zn21 1.905 . S
O36 C37 1.182 . S
C37 O35 1.166 . S
C37 O36 1.182 . S
O38 Zn23 2.080 . S
O38 C41 1.305 . S
O39 Zn22 1.920 . S
O39 C41 1.234 . S
C40 O26 1.305 . S
C40 O27 1.234 . S
C41 O38 1.305 . S
C41 O39 1.234 . S
C42 C43 1.264 . S
C42 C47 1.479 . S
C42 C52 1.465 1_655 S
C43 C42 1.264 . S
C43 C45 1.339 . S
C43 H70 0.931 . S
C44 C45 1.395 . S
C44 C46 1.320 . S
C45 C43 1.339 . S
C45 C44 1.395 . S
C45 H71 0.929 . S
C46 C44 1.320 . S
C46 C47 1.405 . S
C46 H72 0.930 . S
C47 C42 1.479 . S
C47 C46 1.405 . S
C47 H73 0.931 1_655 S
U48 O49 2.454 . S
U48 O50 2.458 1_545 S
U48 C51 2.984 1_545 S
U48 C52 2.847 . S
U48 C65 2.882 . S
U48 O66 2.441 . S
U48 O67 2.420 . S
U48 O68 2.455 . S
U48 O69 2.449 . S
O49 U48 2.454 . S
O49 C51 1.353 1_545 S
O50 U48 2.458 1_565 S
O50 C51 1.286 . S
C51 U48 2.984 1_565 S
C51 O49 1.353 1_565 S
C51 O50 1.286 . S
C51 C53 1.363 . S
C52 C42 1.465 1_455 S
C52 U48 2.847 . S
C52 O66 1.249 . S
C52 O67 1.202 . S
C53 C51 1.363 . S
C53 C55 1.408 . S
C53 C58 1.342 . S
C54 C55 1.310 . S
C54 C57 1.461 . S
C54 H74 0.932 . S
C55 C53 1.408 . S
C55 C54 1.310 . S
C55 H75 0.930 . S
C56 C57 1.474 . S
C56 C58 1.285 . S
C56 H76 0.929 . S
C57 C54 1.461 . S
C57 C56 1.474 . S
C58 C53 1.342 . S
C58 C56 1.285 . S
C58 H77 0.930 . S
C59 C62 1.424 . S
C59 C64 1.245 . S
C59 C65 1.428 . S
C60 C63 1.260 . S
C60 C64 1.477 . S
C60 H78 0.932 . S
C61 C62 1.384 . S
C61 C63 1.479 . S
C61 H79 0.929 . S
C62 C59 1.424 . S
C62 C61 1.384 . S
C62 H80 0.928 . S
C63 C60 1.260 . S
C63 C61 1.479 . S
C64 C59 1.245 . S
C64 C60 1.477 . S
C64 H81 0.932 . S
C65 U48 2.882 . S
C65 C59 1.428 . S
C65 O68 1.301 . S
C65 O69 1.282 . S
O66 U48 2.441 . S
O66 C52 1.249 . S
O67 U48 2.420 . S
O67 C52 1.202 . S
O68 U48 2.455 . S
O68 C65 1.301 . S
O69 U48 2.449 . S
O69 C65 1.282 . S
H70 C43 0.931 . S
H71 C45 0.929 . S
H72 C46 0.930 . S
H73 C47 0.931 1_455 S
H74 C54 0.932 . S
H75 C55 0.930 . S
H76 C56 0.929 . S
H77 C58 0.930 . S
H78 C60 0.932 . S
H79 C61 0.929 . S
H80 C62 0.928 . S
H81 C64 0.932 . S
C82 C83 1.264 . S
C82 C87 1.479 . S
C82 C92 1.465 . S
C83 C82 1.264 . S
C83 C85 1.339 . S
C83 H110 0.931 . S
C84 C85 1.395 . S
C84 C86 1.320 . S
C85 C83 1.339 . S
C85 C84 1.395 . S
C85 H111 0.929 . S
C86 C84 1.320 . S
C86 C87 1.405 . S
C86 H112 0.930 . S
C87 C82 1.479 . S
C87 C86 1.405 . S
C87 H113 0.931 . S
U88 O89 2.454 . S
U88 O90 2.458 . S
U88 C91 2.984 . S
U88 C92 2.847 1_445 S
U88 C105 2.882 . S
U88 O106 2.441 1_445 S
U88 O107 2.420 1_445 S
U88 O108 2.455 . S
U88 O109 2.449 1_545 S
O89 U88 2.454 . S
O89 C91 1.353 . S
O90 U88 2.458 . S
O90 C91 1.286 . S
C91 U88 2.984 . S
C91 O89 1.353 . S
C91 O90 1.286 . S
C91 C93 1.363 . S
C92 C82 1.465 . S
C92 U88 2.847 1_665 S
C92 O106 1.249 . S
C92 O107 1.202 . S
C93 C91 1.363 . S
C93 C95 1.408 . S
C93 C98 1.342 . S
C94 C95 1.310 . S
C94 C97 1.461 . S
C94 H114 0.932 . S
C95 C93 1.408 . S
C95 C94 1.310 . S
C95 H115 0.930 . S
C96 C97 1.474 . S
C96 C98 1.285 . S
C96 H116 0.929 . S
C97 C94 1.461 . S
C97 C96 1.474 . S
C98 C93 1.342 . S
C98 C96 1.285 . S
C98 H117 0.930 . S
C99 C102 1.424 1_445 S
C99 C104 1.245 . S
C99 C105 1.428 . S
C100 C103 1.260 . S
C100 C104 1.477 . S
C100 H118 0.932 . S
C101 C102 1.384 . S
C101 C103 1.479 1_665 S
C101 H119 0.929 . S
C102 C99 1.424 1_665 S
C102 C101 1.384 . S
C102 H120 0.928 . S
C103 C100 1.260 . S
C103 C101 1.479 1_445 S
C104 C99 1.245 . S
C104 C100 1.477 . S
C104 H121 0.932 . S
C105 U88 2.882 . S
C105 C99 1.428 . S
C105 O108 1.301 . S
C105 O109 1.282 1_545 S
O106 U88 2.441 1_665 S
O106 C92 1.249 . S
O107 U88 2.420 1_665 S
O107 C92 1.202 . S
O108 U88 2.455 . S
O108 C105 1.301 . S
O109 U88 2.449 1_565 S
O109 C105 1.282 1_565 S
H110 C83 0.931 . S
H111 C85 0.929 . S
H112 C86 0.930 . S
H113 C87 0.931 . S
H114 C94 0.932 . S
H115 C95 0.930 . S
H116 C96 0.929 . S
H117 C98 0.930 . S
H118 C100 0.932 . S
H119 C101 0.929 . S
H120 C102 0.928 . S
H121 C104 0.932 . S
C122 C123 1.264 . S
C122 C127 1.479 . S
C122 C132 1.465 . S
C123 C122 1.264 . S
C123 C125 1.339 . S
C123 H150 0.931 . S
C124 C125 1.395 . S
C124 C126 1.320 . S
C125 C123 1.339 . S
C125 C124 1.395 . S
C125 H151 0.929 . S
C126 C124 1.320 . S
C126 C127 1.405 . S
C126 H152 0.915 1_556 S
C127 C122 1.479 . S
C127 C126 1.405 . S
C127 H153 0.931 . S
U128 O129 2.454 . S
U128 O130 2.458 . S
U128 C131 2.984 . S
U128 C132 2.847 . S
U128 C145 2.882 . S
U128 O146 2.441 . S
U128 O147 2.420 . S
U128 O148 2.455 . S
U128 O149 2.449 . S
O129 U128 2.454 . S
O129 C131 1.353 . S
O130 U128 2.458 . S
O130 C131 1.286 . S
C131 U128 2.984 . S
C131 O129 1.353 . S
C131 O130 1.286 . S
C131 C133 1.363 . S
C132 C122 1.465 . S
C132 U128 2.847 . S
C132 O146 1.249 . S
C132 O147 1.202 . S
C133 C131 1.363 . S
C133 C135 1.408 . S
C133 C138 1.342 . S
C134 C135 1.310 . S
C134 C137 1.461 . S
C134 H154 0.932 1_556 S
C135 C133 1.408 . S
C135 C134 1.310 . S
C135 H155 0.930 . S
C136 C137 1.474 . S
C136 C138 1.285 . S
C136 H156 0.929 . S
C137 C134 1.461 . S
C137 C136 1.474 . S
C138 C133 1.342 . S
C138 C136 1.285 . S
C138 H157 0.930 . S
C139 C142 1.424 . S
C139 C144 1.245 . S
C139 C145 1.428 . S
C140 C143 1.260 . S
C140 C144 1.477 . S
C140 H158 0.932 . S
C141 C142 1.384 . S
C141 C143 1.479 . S
C141 H159 0.929 . S
C142 C139 1.424 . S
C142 C141 1.384 . S
C142 H160 0.928 . S
C143 C140 1.260 . S
C143 C141 1.479 . S
C144 C139 1.245 . S
C144 C140 1.477 . S
C144 H161 0.932 . S
C145 U128 2.882 . S
C145 C139 1.428 . S
C145 O148 1.301 . S
C145 O149 1.282 . S
O146 U128 2.441 . S
O146 C132 1.249 . S
O147 U128 2.420 . S
O147 C132 1.202 . S
O148 U128 2.455 . S
O148 C145 1.301 . S
O149 U128 2.449 . S
O149 C145 1.282 . S
H150 C123 0.931 . S
H151 C125 0.929 . S
H152 C126 0.915 1_554 S
H153 C127 0.931 . S
H154 C134 0.932 1_554 S
H155 C135 0.930 . S
H156 C136 0.929 . S
H157 C138 0.930 . S
H158 C140 0.932 . S
H159 C141 0.929 . S
H160 C142 0.928 . S
H161 C144 0.932 . S
C162 C163 1.264 . S
C162 C167 1.479 . S
C162 C172 1.465 . S
C163 C162 1.264 . S
C163 C165 1.339 . S
C163 H190 0.931 . S
C164 C165 1.395 . S
C164 C166 1.320 . S
C165 C163 1.339 . S
C165 C164 1.395 . S
C165 H191 0.929 . S
C166 C164 1.320 . S
C166 C167 1.405 . S
C166 H192 0.930 . S
C167 C162 1.479 . S
C167 C166 1.405 . S
C167 H193 0.931 . S
U168 O169 2.454 . S
U168 O170 2.458 . S
U168 C171 2.984 . S
U168 C172 2.847 . S
U168 C185 2.882 . S
U168 O186 2.441 . S
U168 O187 2.420 . S
U168 O188 2.455 . S
U168 O189 2.449 . S
O169 U168 2.454 . S
O169 C171 1.353 . S
O170 U168 2.458 . S
O170 C171 1.286 . S
C171 U168 2.984 . S
C171 O169 1.353 . S
C171 O170 1.286 . S
C171 C173 1.363 . S
C172 C162 1.465 . S
C172 U168 2.847 . S
C172 O186 1.249 . S
C172 O187 1.202 . S
C173 C171 1.363 . S
C173 C175 1.408 . S
C173 C178 1.342 . S
C174 C175 1.310 . S
C174 C177 1.461 . S
C174 H194 0.932 . S
C175 C173 1.408 . S
C175 C174 1.310 . S
C175 H195 0.930 . S
C176 C177 1.474 . S
C176 C178 1.285 . S
C176 H196 0.929 . S
C177 C174 1.461 . S
C177 C176 1.474 . S
C178 C173 1.342 . S
C178 C176 1.285 . S
C178 H197 0.930 . S
C179 C182 1.424 . S
C179 C184 1.245 . S
C179 C185 1.428 . S
C180 C183 1.260 . S
C180 C184 1.477 . S
C180 H198 0.932 . S
C181 C182 1.384 . S
C181 C183 1.479 . S
C181 H199 0.929 . S
C182 C179 1.424 . S
C182 C181 1.384 . S
C182 H200 0.928 . S
C183 C180 1.260 . S
C183 C181 1.479 . S
C184 C179 1.245 . S
C184 C180 1.477 . S
C184 H201 0.932 . S
C185 U168 2.882 . S
C185 C179 1.428 . S
C185 O188 1.301 . S
C185 O189 1.282 . S
O186 U168 2.441 . S
O186 C172 1.249 . S
O187 U168 2.420 . S
O187 C172 1.202 . S
O188 U168 2.455 . S
O188 C185 1.301 . S
O189 U168 2.449 . S
O189 C185 1.282 . S
H190 C163 0.931 . S
H191 C165 0.929 . S
H192 C166 0.930 . S
H193 C167 0.931 . S
H194 C174 0.932 . S
H195 C175 0.930 . S
H196 C176 0.929 . S
H197 C178 0.930 . S
H198 C180 0.932 . S
H199 C181 0.929 . S
H200 C182 0.928 . S
H201 C184 0.932 . S
H202 C214 0.930 1_556 S
H203 C216 0.930 . S
H204 C217 0.930 . S
H205 C221 0.959 . S
H206 C221 0.959 . S
H207 C221 0.961 . S
H208 C222 0.960 . S
H209 C222 0.961 . S
H210 C222 0.959 . S
H211 C225 0.929 . S
H212 C226 0.931 . S
H213 C228 0.930 . S
C214 H202 0.930 1_554 S
C214 C215 1.399 . S
C214 C219 1.399 . S
C215 C214 1.399 . S
C215 C216 1.376 . S
C216 H203 0.930 . S
C216 C215 1.376 . S
C216 C217 1.388 . S
C217 H204 0.930 . S
C217 C216 1.388 . S
C217 C218 1.390 . S
C218 C217 1.390 . S
C218 C219 1.394 . S
C218 C224 1.465 . S
C219 C214 1.399 . S
C219 C218 1.394 . S
C219 C220 1.516 1_554 S
C220 C219 1.516 1_556 S
C220 C221 1.502 . S
C220 C222 1.561 . S
C220 C223 1.526 1_556 S
C221 H205 0.959 . S
C221 H206 0.959 . S
C221 H207 0.961 . S
C221 C220 1.502 . S
C222 H208 0.960 . S
C222 H209 0.961 . S
C222 H210 0.959 . S
C222 C220 1.561 . S
C223 C220 1.526 1_554 S
C223 C224 1.396 . S
C223 C228 1.390 . S
C224 C218 1.465 . S
C224 C223 1.396 . S
C224 C225 1.399 . S
C225 H211 0.929 . S
C225 C224 1.399 . S
C225 C226 1.385 . S
C226 H212 0.931 . S
C226 C225 1.385 . S
C226 C227 1.389 . S
C227 C226 1.389 . S
C227 C228 1.387 . S
C228 H213 0.930 . S
C228 C223 1.390 . S
C228 C227 1.387 . S
H229 C241 0.930 . S
H230 C243 0.930 . S
H231 C244 0.930 . S
H232 C248 0.959 1_556 S
H233 C248 0.959 . S
H234 C248 0.961 . S
H235 C249 0.960 . S
H236 C249 0.961 . S
H237 C249 0.959 . S
H238 C252 0.929 . S
H239 C253 0.931 . S
H240 C255 0.930 1_554 S
C241 H229 0.930 . S
C241 C242 1.399 1_554 S
C241 C246 1.389 1_554 S
C242 C241 1.399 1_556 S
C242 C243 1.376 . S
C243 H230 0.930 . S
C243 C242 1.376 . S
C243 C244 1.388 . S
C244 H231 0.930 . S
C244 C243 1.388 . S
C244 C245 1.390 . S
C245 C244 1.390 . S
C245 C246 1.418 . S
C245 C251 1.465 . S
C246 C241 1.389 1_556 S
C246 C245 1.418 . S
C246 C247 1.505 1_556 S
C247 C246 1.505 1_554 S
C247 C248 1.502 . S
C247 C249 1.561 . S
C247 C250 1.526 1_554 S
C248 H232 0.959 1_554 S
C248 H233 0.959 . S
C248 H234 0.961 . S
C248 C247 1.502 . S
C249 H235 0.960 . S
C249 H236 0.961 . S
C249 H237 0.959 . S
C249 C247 1.561 . S
C250 C247 1.526 1_556 S
C250 C251 1.396 . S
C250 C255 1.390 . S
C251 C245 1.465 . S
C251 C250 1.396 . S
C251 C252 1.399 . S
C252 H238 0.929 . S
C252 C251 1.399 . S
C252 C253 1.385 . S
C253 H239 0.931 . S
C253 C252 1.385 . S
C253 C254 1.389 . S
C254 C253 1.389 . S
C254 C255 1.387 . S
C255 H240 0.930 1_556 S
C255 C250 1.390 . S
C255 C254 1.387 . S
H256 C268 0.915 1_556 S
H257 C270 0.930 . S
H258 C271 0.930 . S
H259 C275 0.959 . S
H260 C275 0.958 . S
H261 C275 0.961 1_556 S
H262 C276 0.960 . S
H263 C276 0.961 . S
H264 C276 0.959 . S
H265 C279 0.929 . S
H266 C280 0.931 . S
H267 C282 0.930 . S
C268 H256 0.915 1_554 S
C268 C269 1.399 . S
C268 C273 1.399 . S
C269 C268 1.399 . S
C269 C270 1.376 . S
C270 H257 0.930 . S
C270 C269 1.376 . S
C270 C271 1.388 . S
C271 H258 0.930 . S
C271 C270 1.388 . S
C271 C272 1.390 . S
C272 C271 1.390 . S
C272 C273 1.394 . S
C272 C278 1.465 . S
C273 C268 1.399 . S
C273 C272 1.394 . S
C273 C274 1.516 . S
C274 C273 1.516 . S
C274 C275 1.502 . S
C274 C276 1.561 1_554 S
C274 C277 1.526 . S
C275 H259 0.959 . S
C275 H260 0.958 . S
C275 H261 0.961 1_554 S
C275 C274 1.502 . S
C276 H262 0.960 . S
C276 H263 0.961 . S
C276 H264 0.959 . S
C276 C274 1.561 1_556 S
C277 C274 1.526 . S
C277 C278 1.396 . S
C277 C282 1.390 . S
C278 C272 1.465 . S
C278 C277 1.396 . S
C278 C279 1.399 . S
C279 H265 0.929 . S
C279 C278 1.399 . S
C279 C280 1.385 . S
C280 H266 0.931 . S
C280 C279 1.385 . S
C280 C281 1.389 . S
C281 C280 1.389 . S
C281 C282 1.387 . S
C282 H267 0.930 . S
C282 C277 1.390 . S
C282 C281 1.387 . S
H283 C295 0.930 . S
H284 C297 0.930 . S
H285 C298 0.930 . S
H286 C302 0.959 . S
H287 C302 0.959 . S
H288 C302 0.961 . S
H289 C303 0.960 . S
H290 C303 0.961 . S
H291 C303 0.959 . S
H292 C306 0.929 . S
H293 C307 0.931 . S
H294 C309 0.930 . S
C295 H283 0.930 . S
C295 C296 1.399 1_556 S
C295 C300 1.399 . S
C296 C295 1.399 1_554 S
C296 C297 1.376 . S
C297 H284 0.930 . S
C297 C296 1.376 . S
C297 C298 1.388 . S
C298 H285 0.930 . S
C298 C297 1.388 . S
C298 C299 1.390 . S
C299 C298 1.390 . S
C299 C300 1.394 1_554 S
C299 C305 1.465 . S
C300 C295 1.399 . S
C300 C299 1.394 1_556 S
C300 C301 1.516 . S
C301 C300 1.516 . S
C301 C302 1.502 . S
C301 C303 1.561 . S
C301 C304 1.526 . S
C302 H286 0.959 . S
C302 H287 0.959 . S
C302 H288 0.961 . S
C302 C301 1.502 . S
C303 H289 0.960 . S
C303 H290 0.961 . S
C303 H291 0.959 . S
C303 C301 1.561 . S
C304 C301 1.526 . S
C304 C305 1.396 1_556 S
C304 C309 1.390 . S
C305 C299 1.465 . S
C305 C304 1.396 1_554 S
C305 C306 1.399 . S
C306 H292 0.929 . S
C306 C305 1.399 . S
C306 C307 1.385 . S
C307 H293 0.931 . S
C307 C306 1.385 . S
C307 C308 1.389 1_554 S
C308 C307 1.389 1_556 S
C308 C309 1.387 . S
C309 H294 0.930 . S
C309 C304 1.390 . S
C309 C308 1.387 . S
H310 C322 0.930 . S
H311 C324 0.930 . S
H312 C325 0.930 . S
H313 C329 0.959 . S
H314 C329 0.959 . S
H315 C329 0.961 . S
H316 C330 0.960 . S
H317 C330 0.961 . S
H318 C330 0.959 . S
H319 C333 0.929 . S
H320 C334 0.931 . S
H321 C336 0.930 . S
C322 H310 0.930 . S
C322 C323 1.399 . S
C322 C327 1.399 . S
C323 C322 1.399 . S
C323 C324 1.376 . S
C324 H311 0.930 . S
C324 C323 1.376 . S
C324 C325 1.388 . S
C325 H312 0.930 . S
C325 C324 1.388 . S
C325 C326 1.390 . S
C326 C325 1.390 . S
C326 C327 1.394 . S
C326 C332 1.465 . S
C327 C322 1.399 . S
C327 C326 1.394 . S
C327 C328 1.516 . S
C328 C327 1.516 . S
C328 C329 1.502 . S
C328 C330 1.561 . S
C328 C331 1.526 . S
C329 H313 0.959 . S
C329 H314 0.959 . S
C329 H315 0.961 . S
C329 C328 1.502 . S
C330 H316 0.960 . S
C330 H317 0.961 . S
C330 H318 0.959 . S
C330 C328 1.561 . S
C331 C328 1.526 . S
C331 C332 1.396 . S
C331 C336 1.390 . S
C332 C326 1.465 . S
C332 C331 1.396 . S
C332 C333 1.399 . S
C333 H319 0.929 . S
C333 C332 1.399 . S
C333 C334 1.385 . S
C334 H320 0.931 . S
C334 C333 1.385 . S
C334 C335 1.389 . S
C335 C334 1.389 . S
C335 C336 1.387 . S
C336 H321 0.930 . S
C336 C331 1.390 . S
C336 C335 1.387 . S
H337 C349 0.930 . S
H338 C351 0.930 . S
H339 C352 0.930 . S
H340 C356 0.959 . S
H341 C356 0.959 . S
H342 C356 0.961 . S
H343 C357 0.960 . S
H344 C357 0.961 . S
H345 C357 0.959 . S
H346 C360 0.929 . S
H347 C361 0.931 . S
H348 C363 0.930 . S
C349 H337 0.930 . S
C349 C350 1.399 . S
C349 C354 1.399 . S
C350 C349 1.399 . S
C350 C351 1.376 . S
C351 H338 0.930 . S
C351 C350 1.376 . S
C351 C352 1.388 . S
C352 H339 0.930 . S
C352 C351 1.388 . S
C352 C353 1.390 . S
C353 C352 1.390 . S
C353 C354 1.394 . S
C353 C359 1.465 . S
C354 C349 1.399 . S
C354 C353 1.394 . S
C354 C355 1.516 . S
C355 C354 1.516 . S
C355 C356 1.502 . S
C355 C357 1.561 . S
C355 C358 1.526 . S
C356 H340 0.959 . S
C356 H341 0.959 . S
C356 H342 0.961 . S
C356 C355 1.502 . S
C357 H343 0.960 . S
C357 H344 0.961 . S
C357 H345 0.959 . S
C357 C355 1.561 . S
C358 C355 1.526 . S
C358 C359 1.396 . S
C358 C363 1.390 . S
C359 C353 1.465 . S
C359 C358 1.396 . S
C359 C360 1.399 . S
C360 H346 0.929 . S
C360 C359 1.399 . S
C360 C361 1.385 . S
C361 H347 0.931 . S
C361 C360 1.385 . S
C361 C362 1.389 . S
C362 C361 1.389 . S
C362 C363 1.387 . S
C363 H348 0.930 . S
C363 C358 1.390 . S
C363 C362 1.387 . S
H364 C376 0.930 . S
H365 C378 0.930 . S
H366 C379 0.930 . S
H367 C383 0.959 . S
H368 C383 0.959 . S
H369 C383 0.961 . S
H370 C384 0.960 . S
H371 C384 0.961 . S
H372 C384 0.959 . S
H373 C387 0.929 . S
H374 C388 0.931 . S
H375 C390 0.930 . S
C376 H364 0.930 . S
C376 C377 1.399 . S
C376 C381 1.399 . S
C377 C376 1.399 . S
C377 C378 1.376 . S
C378 H365 0.930 . S
C378 C377 1.376 . S
C378 C379 1.388 . S
C379 H366 0.930 . S
C379 C378 1.388 . S
C379 C380 1.390 . S
C380 C379 1.390 . S
C380 C381 1.394 . S
C380 C386 1.465 . S
C381 C376 1.399 . S
C381 C380 1.394 . S
C381 C382 1.516 . S
C382 C381 1.516 . S
C382 C383 1.502 . S
C382 C384 1.561 . S
C382 C385 1.526 . S
C383 H367 0.959 . S
C383 H368 0.959 . S
C383 H369 0.961 . S
C383 C382 1.502 . S
C384 H370 0.960 . S
C384 H371 0.961 . S
C384 H372 0.959 . S
C384 C382 1.561 . S
C385 C382 1.526 . S
C385 C386 1.396 . S
C385 C390 1.390 . S
C386 C380 1.465 . S
C386 C385 1.396 . S
C386 C387 1.399 . S
C387 H373 0.929 . S
C387 C386 1.399 . S
C387 C388 1.385 . S
C388 H374 0.931 . S
C388 C387 1.385 . S
C388 C389 1.389 . S
C389 C388 1.389 . S
C389 C390 1.387 . S
C390 H375 0.930 . S
C390 C385 1.390 . S
C390 C389 1.387 . S
H391 C403 0.930 . S
H392 C405 0.930 . S
H393 C406 0.930 . S
H394 C410 0.959 . S
H395 C410 0.959 . S
H396 C410 0.961 . S
H397 C411 0.960 . S
H398 C411 0.961 . S
H399 C411 0.959 . S
H400 C414 0.929 . S
H401 C415 0.931 . S
H402 C417 0.930 . S
C403 H391 0.930 . S
C403 C404 1.399 . S
C403 C408 1.399 . S
C404 C403 1.399 . S
C404 C405 1.376 . S
C405 H392 0.930 . S
C405 C404 1.376 . S
C405 C406 1.388 . S
C406 H393 0.930 . S
C406 C405 1.388 . S
C406 C407 1.390 . S
C407 C406 1.390 . S
C407 C408 1.394 . S
C407 C413 1.465 . S
C408 C403 1.399 . S
C408 C407 1.394 . S
C408 C409 1.516 . S
C409 C408 1.516 . S
C409 C410 1.502 . S
C409 C411 1.561 . S
C409 C412 1.526 . S
C410 H394 0.959 . S
C410 H395 0.959 . S
C410 H396 0.961 . S
C410 C409 1.502 . S
C411 H397 0.960 . S
C411 H398 0.961 . S
C411 H399 0.959 . S
C411 C409 1.561 . S
C412 C409 1.526 . S
C412 C413 1.396 . S
C412 C417 1.390 . S
C413 C407 1.465 . S
C413 C412 1.396 . S
C413 C414 1.399 . S
C414 H400 0.929 . S
C414 C413 1.399 . S
C414 C415 1.385 . S
C415 H401 0.931 . S
C415 C414 1.385 . S
C415 C416 1.389 . S
C416 C415 1.389 . S
C416 C417 1.387 . S
C417 H402 0.930 . S
C417 C412 1.390 . S
C417 C416 1.387 . S
H418 C430 0.930 . S
H419 C432 0.930 . S
H420 C433 0.930 . S
H421 C437 0.959 . S
H422 C437 0.959 . S
H423 C437 0.961 . S
H424 C438 0.960 . S
H425 C438 0.961 . S
H426 C438 0.970 . S
H427 C441 0.929 . S
H428 C442 0.931 . S
H429 C444 0.930 . S
C430 H418 0.930 . S
C430 C431 1.399 1_545 S
C430 C435 1.399 . S
C431 C430 1.399 1_565 S
C431 C432 1.376 . S
C432 H419 0.930 . S
C432 C431 1.376 . S
C432 C433 1.388 . S
C433 H420 0.930 . S
C433 C432 1.388 . S
C433 C434 1.390 . S
C434 C433 1.390 . S
C434 C435 1.394 1_565 S
C434 C440 1.465 . S
C435 C430 1.399 . S
C435 C434 1.394 1_545 S
C435 C436 1.516 . S
C436 C435 1.516 . S
C436 C437 1.502 . S
C436 C438 1.561 . S
C436 C439 1.526 . S
C437 H421 0.959 . S
C437 H422 0.959 . S
C437 H423 0.961 . S
C437 C436 1.502 . S
C438 H424 0.960 . S
C438 H425 0.961 . S
C438 H426 0.970 . S
C438 C436 1.561 . S
C439 C436 1.526 . S
C439 C440 1.396 1_545 S
C439 C444 1.390 . S
C440 C434 1.465 . S
C440 C439 1.396 1_565 S
C440 C441 1.399 . S
C441 H427 0.929 . S
C441 C440 1.399 . S
C441 C442 1.385 . S
C442 H428 0.931 . S
C442 C441 1.385 . S
C442 C443 1.389 1_565 S
C443 C442 1.389 1_545 S
C443 C444 1.387 . S
C444 H429 0.930 . S
C444 C439 1.390 . S
C444 C443 1.387 . S
H445 C457 0.930 . S
H446 C459 0.930 . S
H447 C460 0.930 . S
H448 C464 0.959 . S
H449 C464 0.959 . S
H450 C464 0.961 . S
H451 C465 0.960 . S
H452 C465 0.961 . S
H453 C465 0.959 . S
H454 C468 0.929 . S
H455 C469 0.931 . S
H456 C471 0.925 1_655 S
C457 H445 0.930 . S
C457 C458 1.399 1_545 S
C457 C462 1.399 . S
C458 C457 1.399 1_565 S
C458 C459 1.376 . S
C459 H446 0.930 . S
C459 C458 1.376 . S
C459 C460 1.388 . S
C460 H447 0.930 . S
C460 C459 1.388 . S
C460 C461 1.390 . S
C461 C460 1.390 . S
C461 C462 1.394 1_565 S
C461 C467 1.465 . S
C462 C457 1.399 . S
C462 C461 1.394 1_545 S
C462 C463 1.516 . S
C463 C462 1.516 . S
C463 C464 1.502 1_455 S
C463 C465 1.561 . S
C463 C466 1.526 . S
C464 H448 0.959 . S
C464 H449 0.959 . S
C464 H450 0.961 . S
C464 C463 1.502 1_655 S
C465 H451 0.960 . S
C465 H452 0.961 . S
C465 H453 0.959 . S
C465 C463 1.561 . S
C466 C463 1.526 . S
C466 C467 1.396 1_545 S
C466 C471 1.391 . S
C467 C461 1.465 . S
C467 C466 1.396 1_565 S
C467 C468 1.399 . S
C468 H454 0.929 . S
C468 C467 1.399 . S
C468 C469 1.385 . S
C469 H455 0.931 . S
C469 C468 1.385 . S
C469 C470 1.389 1_565 S
C470 C469 1.389 1_545 S
C470 C471 1.390 . S
C471 H456 0.925 1_455 S
C471 C466 1.391 . S
C471 C470 1.390 . S
H472 C484 0.930 . S
H473 C486 0.930 . S
H474 C487 0.930 . S
H475 C491 0.959 . S
H476 C491 0.959 . S
H477 C491 0.961 . S
H478 C492 0.960 . S
H479 C492 0.961 . S
H480 C492 0.959 . S
H481 C495 0.929 . S
H482 C496 0.931 . S
H483 C498 0.930 . S
C484 H472 0.930 . S
C484 C485 1.399 . S
C484 C489 1.399 . S
C485 C484 1.399 . S
C485 C486 1.376 . S
C486 H473 0.930 . S
C486 C485 1.376 . S
C486 C487 1.388 . S
C487 H474 0.930 . S
C487 C486 1.388 . S
C487 C488 1.390 . S
C488 C487 1.390 . S
C488 C489 1.394 . S
C488 C494 1.465 . S
C489 C484 1.399 . S
C489 C488 1.394 . S
C489 C490 1.516 . S
C490 C489 1.516 . S
C490 C491 1.502 . S
C490 C492 1.561 . S
C490 C493 1.526 . S
C491 H475 0.959 . S
C491 H476 0.959 . S
C491 H477 0.961 . S
C491 C490 1.502 . S
C492 H478 0.960 . S
C492 H479 0.961 . S
C492 H480 0.959 . S
C492 C490 1.561 . S
C493 C490 1.526 . S
C493 C494 1.396 . S
C493 C498 1.390 . S
C494 C488 1.465 . S
C494 C493 1.396 . S
C494 C495 1.399 . S
C495 H481 0.929 . S
C495 C494 1.399 . S
C495 C496 1.385 . S
C496 H482 0.931 . S
C496 C495 1.385 . S
C496 C497 1.389 . S
C497 C496 1.389 . S
C497 C498 1.387 . S
C498 H483 0.930 . S
C498 C493 1.390 . S
C498 C497 1.387 . S
H499 C511 0.930 . S
H500 C513 0.930 . S
H501 C514 0.930 . S
H502 C518 0.959 . S
H503 C518 0.959 . S
H504 C518 0.961 . S
H505 C519 0.960 . S
H506 C519 0.961 . S
H507 C519 0.959 . S
H508 C522 0.929 . S
H509 C523 0.931 . S
H510 C525 0.930 . S
C511 H499 0.930 . S
C511 C512 1.399 . S
C511 C516 1.399 . S
C512 C511 1.399 . S
C512 C513 1.376 . S
C513 H500 0.930 . S
C513 C512 1.376 . S
C513 C514 1.388 . S
C514 H501 0.930 . S
C514 C513 1.388 . S
C514 C515 1.390 . S
C515 C514 1.390 . S
C515 C516 1.394 . S
C515 C521 1.465 . S
C516 C511 1.399 . S
C516 C515 1.394 . S
C516 C517 1.516 . S
C517 C516 1.516 . S
C517 C518 1.502 . S
C517 C519 1.561 . S
C517 C520 1.526 . S
C518 H502 0.959 . S
C518 H503 0.959 . S
C518 H504 0.961 . S
C518 C517 1.502 . S
C519 H505 0.960 . S
C519 H506 0.961 . S
C519 H507 0.959 . S
C519 C517 1.561 . S
C520 C517 1.526 . S
C520 C521 1.396 . S
C520 C525 1.390 . S
C521 C515 1.465 . S
C521 C520 1.396 . S
C521 C522 1.399 . S
C522 H508 0.929 . S
C522 C521 1.399 . S
C522 C523 1.385 . S
C523 H509 0.931 . S
C523 C522 1.385 . S
C523 C524 1.389 . S
C524 C523 1.389 . S
C524 C525 1.387 . S
C525 H510 0.930 . S
C525 C520 1.390 . S
C525 C524 1.387 . S
C227 C164 1.227 . S
C215 C3 1.154 . S
C242 C4 1.561 1_556 S
C254 C124 1.646 . S
C269 C19 1.585 . S
C281 C177 1.635 . S
C296 C7 1.179 1_554 S
C308 C137 1.279 . S
C323 C37 1.187 . S
C335 C84 1.243 . S
C350 C28 1.569 . S
C362 C44 1.634 . S
C389 C97 1.672 . S
C377 C41 1.496 . S
C416 C57 1.270 . S
C404 C25 1.114 . S
C431 C20 1.358 . S
C443 C63 1.464 . S
C458 C16 1.400 . S
C470 C103 1.443 . S
C497 C143 1.463 . S
C485 C40 1.358 . S
C512 C24 1.271 . S
C524 C183 1.503 . S
