# Generated by pormake.
# Topology bcu-b, (8,8)-cn, num edge types: 1
# Building blocks:
#     Node 0, Type 0, BuildingBlock: TAGTUT_clean_sbu_1, # of connection points: 8
#     Node 1, Type 1, BuildingBlock: TAGTUT_clean_sbu_3, # of connection points: 8
#     Edge 2, Type (0, 1), BuildingBlock: XUDNAN_clean_linker_2, # of connection points: 2
#     Edge 3, Type (0, 1), BuildingBlock: XUDNAN_clean_linker_2, # of connection points: 2
#     Edge 4, Type (0, 1), BuildingBlock: XUDNAN_clean_linker_2, # of connection points: 2
#     Edge 5, Type (0, 1), BuildingBlock: XUDNAN_clean_linker_2, # of connection points: 2
#     Edge 6, Type (0, 1), BuildingBlock: XUDNAN_clean_linker_2, # of connection points: 2
#     Edge 7, Type (0, 1), BuildingBlock: XUDNAN_clean_linker_2, # of connection points: 2
#     Edge 8, Type (0, 1), BuildingBlock: XUDNAN_clean_linker_2, # of connection points: 2
#     Edge 9, Type (0, 1), BuildingBlock: XUDNAN_clean_linker_2, # of connection points: 2
# Relax obj value: 0.017
# Max RMSD: 0.085
# Mean RMSD: 0.074
data_MOF--net-bcu-b--node1-TAGTUT_clean_sbu_1--node2-TAGTUT_clean_sbu_3--edge1-XUDNAN_clean_linker_2
_symmetry_space_group_name_H-M    P1
_symmetry_Int_Tables_number       1
_symmetry_cell_setting            triclinic
loop_
_symmetry_equiv_pos_as_xyz
'x, y, z'
_cell_length_a     19.640921
_cell_length_b     18.901129
_cell_length_c     21.572887
_cell_angle_alpha  90.65995
_cell_angle_beta   91.479351
_cell_angle_gamma 105.94303
loop_
_atom_site_label
_atom_site_type_symbol
_atom_site_fract_x
_atom_site_fract_y
_atom_site_fract_z
_atom_type_partial_charge
C0 C 0.84401 0.16781 0.03555 0.0
C1 C 0.93859 0.15922 0.85801 0.0
C2 C 0.88754 0.86635 0.90899 0.0
Mg3 Mg 0.99508 0.17034 -0.00601 0.0
O4 O 0.95691 0.06816 0.00033 0.0
Mg5 Mg 0.86489 0.0204 0.95557 0.0
Mg6 Mg 0.01018 -0.00392 -0.02307 0.0
O7 O 0.06254 0.92308 0.95412 0.0
Mg8 Mg 0.02114 0.82358 0.97126 0.0
Mg9 Mg 0.1569 0.97084 -0.00499 0.0
C10 C 0.1303 0.12468 0.05283 0.0
C11 C 0.13285 0.07281 0.8809 0.0
O12 O 0.82003 0.10675 0.00515 0.0
O13 O 0.91049 0.20089 0.04033 0.0
O14 O 0.89451 0.09808 0.87166 0.0
O15 O 0.98503 0.19615 0.89728 0.0
O16 O 0.09809 0.17404 0.03998 0.0
O17 O 0.10376 0.05651 0.03777 0.0
C18 C 0.88487 0.91681 0.07055 0.0
O19 O 0.95014 0.92681 0.05673 0.0
O20 O 0.84364 0.94609 0.03926 0.0
O21 O 0.1952 0.87735 0.94481 0.0
O22 O 0.098 0.78317 0.9237 0.0
O23 O 0.13566 0.89976 0.08053 0.0
C24 C 0.16483 0.81313 0.92081 0.0
O25 O 0.03723 0.80738 0.06951 0.0
O26 O 0.91694 0.81698 0.9279 0.0
C27 C 0.09102 0.84388 0.10203 0.0
O28 O 0.91797 0.93544 0.91576 0.0
O29 O 0.06869 0.06526 0.89672 0.0
O30 O 0.17373 0.04178 0.91052 0.0
C31 C 0.6249 0.61994 0.56482 0.0
C32 C 0.72768 0.38234 0.53833 0.0
C33 C 0.61888 0.37089 0.36118 0.0
Mg34 Mg 0.482 0.6467 0.49701 0.0
Mg35 Mg 0.34833 0.49894 0.47962 0.0
O36 O 0.4405 0.54852 0.45492 0.0
Mg37 Mg 0.51315 0.49757 0.4814 0.0
O38 O 0.589 0.45118 0.50924 0.0
Mg39 Mg 0.67168 0.51382 0.46396 0.0
Mg40 Mg 0.56921 0.34986 0.49299 0.0
C41 C 0.39378 0.37504 0.4025 0.0
O42 O 0.43976 0.42409 0.55046 0.0
O43 O 0.38907 0.68204 0.44479 0.0
O44 O 0.47077 0.31772 0.54267 0.0
O45 O 0.41522 0.62145 0.58253 0.0
O46 O 0.30073 0.57634 0.43843 0.0
O47 O 0.33658 0.51142 0.57919 0.0
O48 O 0.59057 0.56588 0.41466 0.0
O49 O 0.55599 0.66906 0.414 0.0
C50 C 0.5963 0.63079 0.39467 0.0
C51 C 0.32501 0.64541 0.42902 0.0
O52 O 0.4599 0.40698 0.41187 0.0
O53 O 0.74141 0.44883 0.51851 0.0
O54 O 0.34423 0.3967 0.42807 0.0
O55 O 0.66007 0.43205 0.38128 0.0
O56 O 0.66613 0.3365 0.53254 0.0
O57 O 0.57085 0.33169 0.3947 0.0
O58 O 0.56075 0.59223 0.54639 0.0
O59 O 0.67532 0.59535 0.545 0.0
C60 C 0.36815 0.57116 0.60814 0.0
C61 C 0.43073 0.35586 0.56302 0.0
H62 H 0.21437 0.26314 0.07647 0.0
H63 H 0.1872 0.03543 0.12516 0.0
H64 H 0.27166 0.07539 0.21356 0.0
H65 H 0.40721 0.3364 0.13583 0.0
H66 H 0.38944 0.41997 0.16283 0.0
H67 H 0.34398 0.37281 0.09414 0.0
H68 H 0.22378 0.36841 0.1431 0.0
H69 H 0.26839 0.41374 0.21219 0.0
H70 H 0.20346 0.32577 0.21725 0.0
H71 H 0.33636 0.14087 0.30966 0.0
H72 H 0.38028 0.22636 0.39969 0.0
H73 H 0.3618 0.40932 0.28819 0.0
C74 C 0.22849 0.22156 0.10413 0.0
C75 C 0.19431 0.14626 0.09387 0.0
C76 C 0.21343 0.09344 0.13157 0.0
C77 C 0.26133 0.1157 0.18212 0.0
C78 C 0.29048 0.19087 0.19352 0.0
C79 C 0.27587 0.24296 0.15461 0.0
C80 C 0.30539 0.31998 0.18109 0.0
C81 C 0.36507 0.36493 0.14109 0.0
C82 C 0.24675 0.35916 0.18888 0.0
C83 C 0.33416 0.30286 0.24293 0.0
C84 C 0.32699 0.22841 0.24897 0.0
C85 C 0.34386 0.19942 0.30483 0.0
C86 C 0.36812 0.24786 0.3557 0.0
C87 C 0.37384 0.32354 0.34993 0.0
C88 C 0.35803 0.35135 0.2929 0.0
H89 H 0.87284 0.29456 0.10685 0.0
H90 H 0.70059 0.10756 0.04393 0.0
H91 H 0.6191 0.14906 0.11123 0.0
H92 H 0.83018 0.28806 0.26019 0.0
H93 H 0.85369 0.38618 0.2738 0.0
H94 H 0.89581 0.34844 0.21377 0.0
H95 H 0.85615 0.43074 0.13298 0.0
H96 H 0.81388 0.46893 0.193 0.0
H97 H 0.7637 0.42716 0.1245 0.0
H98 H 0.56059 0.20047 0.19629 0.0
H99 H 0.53018 0.2595 0.29062 0.0
H100 H 0.73952 0.41439 0.29547 0.0
C101 C 0.81764 0.26323 0.10597 0.0
C102 C 0.79333 0.19779 0.06993 0.0
C103 C 0.72069 0.15804 0.07087 0.0
C104 C 0.67379 0.18127 0.10888 0.0
C105 C 0.69997 0.24491 0.14509 0.0
C106 C 0.77007 0.28581 0.1434 0.0
C107 C 0.78636 0.34856 0.19052 0.0
C108 C 0.84493 0.34237 0.23732 0.0
C109 C 0.80618 0.42327 0.15831 0.0
C110 C 0.71534 0.33468 0.22074 0.0
C111 C 0.66586 0.27521 0.19349 0.0
C112 C 0.59844 0.24803 0.21724 0.0
C113 C 0.58172 0.28169 0.27094 0.0
C114 C 0.6323 0.3418 0.30015 0.0
C115 C 0.69918 0.36948 0.27358 0.0
H116 H 0.75204 0.89234 0.11685 0.0
H117 H 0.95004 0.83618 0.14511 0.0
H118 H 0.89685 0.75193 0.22862 0.0
H119 H 0.71398 0.89713 0.27838 0.0
H120 H 0.61971 0.86092 0.26522 0.0
H121 H 0.67314 0.91375 0.20622 0.0
H122 H 0.62528 0.80597 0.12721 0.0
H123 H 0.57205 0.75262 0.1861 0.0
H124 H 0.63399 0.71588 0.14514 0.0
H125 H 0.8183 0.66871 0.30614 0.0
H126 H 0.72705 0.60718 0.38001 0.0
H127 H 0.58561 0.7275 0.30534 0.0
C128 C 0.78446 0.86227 0.14026 0.0
C129 C 0.85498 0.86937 0.12311 0.0
C130 C 0.89555 0.83002 0.15615 0.0
C131 C 0.86578 0.78226 0.20378 0.0
C132 C 0.79564 0.77552 0.21853 0.0
C133 C 0.75603 0.81557 0.1884 0.0
C134 C 0.68304 0.80152 0.21475 0.0
C135 C 0.67185 0.87255 0.24282 0.0
C136 C 0.6252 0.76693 0.16535 0.0
C137 C 0.68757 0.7471 0.2644 0.0
C138 C 0.75243 0.73174 0.26538 0.0
C139 C 0.76762 0.68096 0.3062 0.0
C140 C 0.71546 0.64603 0.34772 0.0
C141 C 0.64975 0.66325 0.34869 0.0
C142 C 0.63582 0.71407 0.30618 0.0
H143 H 0.21604 0.88836 0.1685 0.0
H144 H 1.0054 0.73672 0.17273 0.0
H145 H 0.03911 0.68538 0.2698 0.0
H146 H 0.30296 0.76036 0.2063 0.0
H147 H 0.37374 0.82139 0.25181 0.0
H148 H 0.32911 0.85764 0.19139 0.0
H149 H 0.2988 0.948 0.27027 0.0
H150 H 0.34375 0.91218 0.33116 0.0
H151 H 0.25285 0.91284 0.3395 0.0
H152 H 0.09882 0.64089 0.35764 0.0
H153 H 0.1814 0.59774 0.42464 0.0
H154 H 0.35719 0.7719 0.35934 0.0
C155 C 0.17608 0.84593 0.19078 0.0
C156 C 0.10726 0.81782 0.16371 0.0
C157 C 0.05768 0.76042 0.19329 0.0
C158 C 0.07645 0.73096 0.24849 0.0
C159 C 0.14524 0.75895 0.27305 0.0
C160 C 0.19447 0.81487 0.24493 0.0
C161 C 0.26755 0.82776 0.2753 0.0
C162 C 0.32146 0.81605 0.22841 0.0
C163 C 0.29217 0.90477 0.30588 0.0
C164 C 0.2524 0.76826 0.32351 0.0
C165 C 0.18109 0.7307 0.32235 0.0
C166 C 0.15454 0.67032 0.35939 0.0
C167 C 0.20216 0.64606 0.39711 0.0
C168 C 0.276 0.68126 0.39705 0.0
C169 C 0.30108 0.74459 0.36108 0.0
H170 H 0.11735 0.70067 0.83543 0.0
H171 H 0.30881 0.83386 0.92899 0.0
H172 H 0.37942 0.76747 0.87033 0.0
H173 H 0.17163 0.5276 0.82112 0.0
H174 H 0.13101 0.50686 0.74477 0.0
H175 H 0.09414 0.55674 0.80044 0.0
H176 H 0.10429 0.66238 0.72279 0.0
H177 H 0.14029 0.61248 0.66688 0.0
H178 H 0.18879 0.70502 0.68973 0.0
H179 H 0.43007 0.69657 0.79516 0.0
H180 H 0.45892 0.63637 0.70135 0.0
H181 H 0.23527 0.54931 0.65459 0.0
C182 C 0.174 0.71487 0.84463 0.0
C183 C 0.20753 0.7721 0.88735 0.0
C184 C 0.28195 0.7902 0.89671 0.0
C185 C 0.32237 0.75229 0.86399 0.0
C186 C 0.28764 0.69646 0.82204 0.0
C187 C 0.21514 0.67809 0.81193 0.0
C188 C 0.1917 0.62194 0.75926 0.0
C189 C 0.14432 0.54896 0.78283 0.0
C190 C 0.15411 0.65231 0.70656 0.0
C191 C 0.26274 0.61356 0.73972 0.0
C192 C 0.31713 0.6558 0.77763 0.0
C193 C 0.38794 0.66239 0.76588 0.0
C194 C 0.40379 0.62781 0.71258 0.0
C195 C 0.34921 0.58734 0.67144 0.0
C196 C 0.27776 0.57786 0.6864 0.0
H197 H 0.26532 0.09621 0.83638 0.0
H198 H 0.06812 0.1537 0.8051 0.0
H199 H 0.12204 0.23365 0.71902 0.0
H200 H 0.38141 0.27217 0.8081 0.0
H201 H 0.44572 0.23539 0.77079 0.0
H202 H 0.39058 0.18311 0.82904 0.0
H203 H 0.34723 0.07304 0.75141 0.0
H204 H 0.40233 0.1249 0.69292 0.0
H205 H 0.30865 0.08699 0.67739 0.0
H206 H 0.20128 0.30986 0.63709 0.0
H207 H 0.2957 0.37044 0.56546 0.0
H208 H 0.43751 0.25909 0.65265 0.0
C209 C 0.23295 0.12529 0.81162 0.0
C210 C 0.16241 0.11906 0.82788 0.0
C211 C 0.12234 0.15808 0.79377 0.0
C212 C 0.15256 0.20349 0.7448 0.0
C213 C 0.22268 0.20869 0.73056 0.0
C214 C 0.26199 0.17015 0.76295 0.0
C215 C 0.33603 0.18433 0.73923 0.0
C216 C 0.39169 0.22094 0.7898 0.0
C217 C 0.34929 0.11308 0.71371 0.0
C218 C 0.33264 0.23695 0.68806 0.0
C219 C 0.26717 0.25097 0.68376 0.0
C220 C 0.25268 0.2993 0.64024 0.0
C221 C 0.30665 0.33401 0.60029 0.0
C222 C 0.37374 0.3199 0.60436 0.0
C223 C 0.38645 0.27044 0.64847 0.0
H224 H 0.93774 0.30036 0.83291 0.0
H225 H 0.91556 0.08696 0.74641 0.0
H226 H 0.88252 0.13344 0.6467 0.0
H227 H 0.78737 0.32589 0.76727 0.0
H228 H 0.81933 0.42382 0.75673 0.0
H229 H 0.85832 0.38081 0.81653 0.0
H230 H 0.98222 0.43441 0.77104 0.0
H231 H 0.94351 0.47787 0.71091 0.0
H232 H 0.99614 0.41697 0.6907 0.0
H233 H 0.83322 0.19388 0.5632 0.0
H234 H 0.76361 0.26099 0.5029 0.0
H235 H 0.81179 0.43591 0.64216 0.0
C236 C 0.9288 0.26464 0.79215 0.0
C237 C 0.93065 0.19057 0.79668 0.0
C238 C 0.91539 0.1441 0.74343 0.0
C239 C 0.89694 0.17022 0.68662 0.0
C240 C 0.89329 0.24284 0.68394 0.0
C241 C 0.90869 0.28957 0.73528 0.0
C242 C 0.88996 0.36108 0.72245 0.0
C243 C 0.8355 0.37355 0.76845 0.0
C244 C 0.95695 0.42645 0.72384 0.0
C245 C 0.85809 0.34559 0.6571 0.0
C246 C 0.8626 0.27786 0.63533 0.0
C247 C 0.83086 0.24766 0.57904 0.0
C248 C 0.79144 0.28616 0.54508 0.0
C249 C 0.78375 0.35416 0.56731 0.0
C250 C 0.81916 0.38534 0.62316 0.0
H251 H 0.80753 0.72584 0.88749 0.0
H252 H 0.81869 0.95229 0.8446 0.0
H253 H 0.72713 0.90937 0.76214 0.0
H254 H 0.81371 0.67014 0.74622 0.0
H255 H 0.75405 0.579 0.75067 0.0
H256 H 0.79941 0.62401 0.81943 0.0
H257 H 0.67997 0.6088 0.87339 0.0
H258 H 0.63383 0.56197 0.8048 0.0
H259 H 0.61135 0.64123 0.83604 0.0
H260 H 0.65904 0.84443 0.66904 0.0
H261 H 0.62059 0.76292 0.57604 0.0
H262 H 0.66045 0.58122 0.67694 0.0
C263 C 0.7885 0.76641 0.86265 0.0
C264 C 0.82042 0.84228 0.87233 0.0
C265 C 0.79473 0.89375 0.83831 0.0
C266 C 0.74246 0.86983 0.79137 0.0
C267 C 0.7159 0.79442 0.77974 0.0
C268 C 0.73728 0.74336 0.81529 0.0
C269 C 0.71151 0.66681 0.78705 0.0
C270 C 0.77335 0.63317 0.77511 0.0
C271 C 0.65583 0.61676 0.82775 0.0
C272 C 0.67815 0.68382 0.72734 0.0
C273 C 0.67841 0.75701 0.72481 0.0
C274 C 0.65684 0.78668 0.67115 0.0
C275 C 0.63571 0.74055 0.61859 0.0
C276 C 0.63845 0.66682 0.62033 0.0
C277 C 0.65803 0.63777 0.67541 0.0
loop_
_geom_bond_atom_site_label_1
_geom_bond_atom_site_label_2
_geom_bond_distance
_geom_bond_site_symmetry_2
_ccdc_geom_bond_type
C0 O12 1.241 . S
C0 O13 1.280 . S
C1 O14 1.277 . S
C1 O15 1.245 . S
C2 O26 1.247 . S
C2 O28 1.289 . S
Mg3 O4 1.926 . S
Mg3 O13 1.984 . S
Mg3 O15 1.988 1_554 S
Mg3 O16 2.061 1_655 S
O4 Mg3 1.926 . S
O4 Mg5 1.986 . S
O4 Mg6 1.930 1_655 S
Mg5 O4 1.986 . S
Mg5 O12 2.042 . S
Mg5 O14 2.041 1_554 S
Mg5 O20 2.038 1_545 S
Mg5 O28 2.238 1_544 S
Mg6 O4 1.930 1_455 S
Mg6 O7 1.903 1_544 S
Mg6 O17 2.109 . S
Mg6 O19 2.070 1_445 S
Mg6 O28 2.104 1_444 S
Mg6 O29 2.087 1_554 S
O7 Mg6 1.903 1_566 S
O7 Mg8 1.926 . S
O7 Mg9 1.988 1_556 S
Mg8 O7 1.926 . S
Mg8 O22 1.984 . S
Mg8 O25 1.988 1_556 S
Mg8 O26 2.061 1_455 S
Mg9 O7 1.988 1_554 S
Mg9 O17 2.232 1_565 S
Mg9 O21 2.048 1_554 S
Mg9 O23 2.045 . S
Mg9 O30 2.034 1_564 S
C10 O16 1.247 . S
C10 O17 1.289 . S
C11 O29 1.245 . S
C11 O30 1.274 . S
O12 C0 1.241 . S
O12 Mg5 2.042 . S
O13 C0 1.280 . S
O13 Mg3 1.984 . S
O14 C1 1.277 . S
O14 Mg5 2.041 1_556 S
O15 C1 1.245 . S
O15 Mg3 1.988 1_556 S
O16 Mg3 2.061 1_455 S
O16 C10 1.247 . S
O17 Mg6 2.109 . S
O17 Mg9 2.232 1_545 S
O17 C10 1.289 . S
C18 O19 1.245 . S
C18 O20 1.274 . S
O19 Mg6 2.070 1_665 S
O19 C18 1.245 . S
O20 Mg5 2.038 1_565 S
O20 C18 1.274 . S
O21 Mg9 2.048 1_556 S
O21 C24 1.241 . S
O22 Mg8 1.984 . S
O22 C24 1.280 . S
O23 Mg9 2.045 . S
O23 C27 1.277 . S
C24 O21 1.241 . S
C24 O22 1.280 . S
O25 Mg8 1.988 1_554 S
O25 C27 1.245 . S
O26 C2 1.247 . S
O26 Mg8 2.061 1_655 S
C27 O23 1.277 . S
C27 O25 1.245 . S
O28 C2 1.289 . S
O28 Mg5 2.238 1_566 S
O28 Mg6 2.104 1_666 S
O29 Mg6 2.087 1_556 S
O29 C11 1.245 . S
O30 Mg9 2.034 1_546 S
O30 C11 1.274 . S
C31 O58 1.312 . S
C31 O59 1.208 . S
C32 O53 1.331 . S
C32 O56 1.244 . S
C33 O55 1.264 . S
C33 O57 1.273 . S
Mg34 O36 1.936 . S
Mg34 O43 2.081 . S
Mg34 O45 2.023 . S
Mg34 O49 2.031 . S
Mg34 O58 2.291 . S
Mg35 O36 1.963 . S
Mg35 O46 1.942 . S
Mg35 O47 1.955 . S
Mg35 O54 1.986 . S
O36 Mg34 1.936 . S
O36 Mg35 1.963 . S
O36 Mg37 1.915 . S
Mg37 O36 1.915 . S
Mg37 O38 1.915 . S
Mg37 O42 2.013 . S
Mg37 O48 2.114 . S
Mg37 O52 2.013 . S
Mg37 O58 2.114 . S
O38 Mg37 1.915 . S
O38 Mg39 1.936 . S
O38 Mg40 1.963 . S
Mg39 O38 1.936 . S
Mg39 O48 2.291 . S
Mg39 O53 2.081 . S
Mg39 O55 2.023 . S
Mg39 O59 2.031 . S
Mg40 O38 1.963 . S
Mg40 O44 1.986 . S
Mg40 O56 1.942 . S
Mg40 O57 1.955 . S
C41 O52 1.191 . S
C41 O54 1.307 . S
O42 Mg37 2.013 . S
O42 C61 1.191 . S
O43 Mg34 2.081 . S
O43 C51 1.331 . S
O44 Mg40 1.986 . S
O44 C61 1.307 . S
O45 Mg34 2.023 . S
O45 C60 1.264 . S
O46 Mg35 1.942 . S
O46 C51 1.244 . S
O47 Mg35 1.955 . S
O47 C60 1.273 . S
O48 Mg37 2.114 . S
O48 Mg39 2.291 . S
O48 C50 1.312 . S
O49 Mg34 2.031 . S
O49 C50 1.208 . S
C50 O48 1.312 . S
C50 O49 1.208 . S
C51 O43 1.331 . S
C51 O46 1.244 . S
O52 Mg37 2.013 . S
O52 C41 1.191 . S
O53 C32 1.331 . S
O53 Mg39 2.081 . S
O54 Mg35 1.986 . S
O54 C41 1.307 . S
O55 C33 1.264 . S
O55 Mg39 2.023 . S
O56 C32 1.244 . S
O56 Mg40 1.942 . S
O57 C33 1.273 . S
O57 Mg40 1.955 . S
O58 C31 1.312 . S
O58 Mg34 2.291 . S
O58 Mg37 2.114 . S
O59 C31 1.208 . S
O59 Mg39 2.031 . S
C60 O45 1.264 . S
C60 O47 1.273 . S
C61 O42 1.191 . S
C61 O44 1.307 . S
H62 C74 0.930 . S
H63 C76 0.930 . S
H64 C77 0.930 . S
H65 C81 0.959 . S
H66 C81 0.959 . S
H67 C81 0.961 . S
H68 C82 0.960 . S
H69 C82 0.961 . S
H70 C82 0.959 . S
H71 C85 0.929 . S
H72 C86 0.931 . S
H73 C88 0.930 . S
C74 H62 0.930 . S
C74 C75 1.399 . S
C74 C79 1.399 . S
C75 C74 1.399 . S
C75 C76 1.376 . S
C76 H63 0.930 . S
C76 C75 1.376 . S
C76 C77 1.388 . S
C77 H64 0.930 . S
C77 C76 1.388 . S
C77 C78 1.390 . S
C78 C77 1.390 . S
C78 C79 1.394 . S
C78 C84 1.465 . S
C79 C74 1.399 . S
C79 C78 1.394 . S
C79 C80 1.516 . S
C80 C79 1.516 . S
C80 C81 1.502 . S
C80 C82 1.561 . S
C80 C83 1.526 . S
C81 H65 0.959 . S
C81 H66 0.959 . S
C81 H67 0.961 . S
C81 C80 1.502 . S
C82 H68 0.960 . S
C82 H69 0.961 . S
C82 H70 0.959 . S
C82 C80 1.561 . S
C83 C80 1.526 . S
C83 C84 1.396 . S
C83 C88 1.390 . S
C84 C78 1.465 . S
C84 C83 1.396 . S
C84 C85 1.399 . S
C85 H71 0.929 . S
C85 C84 1.399 . S
C85 C86 1.385 . S
C86 H72 0.931 . S
C86 C85 1.385 . S
C86 C87 1.389 . S
C87 C86 1.389 . S
C87 C88 1.387 . S
C88 H73 0.930 . S
C88 C83 1.390 . S
C88 C87 1.387 . S
H89 C101 0.930 . S
H90 C103 0.930 . S
H91 C104 0.930 . S
H92 C108 0.959 . S
H93 C108 0.959 . S
H94 C108 0.961 . S
H95 C109 0.960 . S
H96 C109 0.961 . S
H97 C109 0.959 . S
H98 C112 0.929 . S
H99 C113 0.931 . S
H100 C115 0.930 . S
C101 H89 0.930 . S
C101 C102 1.399 . S
C101 C106 1.399 . S
C102 C101 1.399 . S
C102 C103 1.376 . S
C103 H90 0.930 . S
C103 C102 1.376 . S
C103 C104 1.388 . S
C104 H91 0.930 . S
C104 C103 1.388 . S
C104 C105 1.390 . S
C105 C104 1.390 . S
C105 C106 1.394 . S
C105 C111 1.465 . S
C106 C101 1.399 . S
C106 C105 1.394 . S
C106 C107 1.516 . S
C107 C106 1.516 . S
C107 C108 1.502 . S
C107 C109 1.561 . S
C107 C110 1.526 . S
C108 H92 0.959 . S
C108 H93 0.959 . S
C108 H94 0.961 . S
C108 C107 1.502 . S
C109 H95 0.960 . S
C109 H96 0.961 . S
C109 H97 0.959 . S
C109 C107 1.561 . S
C110 C107 1.526 . S
C110 C111 1.396 . S
C110 C115 1.390 . S
C111 C105 1.465 . S
C111 C110 1.396 . S
C111 C112 1.399 . S
C112 H98 0.929 . S
C112 C111 1.399 . S
C112 C113 1.385 . S
C113 H99 0.931 . S
C113 C112 1.385 . S
C113 C114 1.389 . S
C114 C113 1.389 . S
C114 C115 1.387 . S
C115 H100 0.930 . S
C115 C110 1.390 . S
C115 C114 1.387 . S
H116 C128 0.930 . S
H117 C130 0.930 . S
H118 C131 0.930 . S
H119 C135 0.959 . S
H120 C135 0.959 . S
H121 C135 0.961 . S
H122 C136 0.960 . S
H123 C136 0.961 . S
H124 C136 0.959 . S
H125 C139 0.929 . S
H126 C140 0.931 . S
H127 C142 0.930 . S
C128 H116 0.930 . S
C128 C129 1.399 . S
C128 C133 1.399 . S
C129 C128 1.399 . S
C129 C130 1.376 . S
C130 H117 0.930 . S
C130 C129 1.376 . S
C130 C131 1.388 . S
C131 H118 0.930 . S
C131 C130 1.388 . S
C131 C132 1.390 . S
C132 C131 1.390 . S
C132 C133 1.394 . S
C132 C138 1.465 . S
C133 C128 1.399 . S
C133 C132 1.394 . S
C133 C134 1.516 . S
C134 C133 1.516 . S
C134 C135 1.502 . S
C134 C136 1.561 . S
C134 C137 1.526 . S
C135 H119 0.959 . S
C135 H120 0.959 . S
C135 H121 0.961 . S
C135 C134 1.502 . S
C136 H122 0.960 . S
C136 H123 0.961 . S
C136 H124 0.959 . S
C136 C134 1.561 . S
C137 C134 1.526 . S
C137 C138 1.396 . S
C137 C142 1.390 . S
C138 C132 1.465 . S
C138 C137 1.396 . S
C138 C139 1.399 . S
C139 H125 0.929 . S
C139 C138 1.399 . S
C139 C140 1.385 . S
C140 H126 0.931 . S
C140 C139 1.385 . S
C140 C141 1.389 . S
C141 C140 1.389 . S
C141 C142 1.387 . S
C142 H127 0.930 . S
C142 C137 1.390 . S
C142 C141 1.387 . S
H143 C155 0.930 . S
H144 C157 0.930 . S
H145 C158 0.930 . S
H146 C162 0.959 . S
H147 C162 0.959 . S
H148 C162 0.961 . S
H149 C163 0.960 . S
H150 C163 0.961 . S
H151 C163 0.959 . S
H152 C166 0.929 . S
H153 C167 0.931 . S
H154 C169 0.930 . S
C155 H143 0.930 . S
C155 C156 1.399 . S
C155 C160 1.399 . S
C156 C155 1.399 . S
C156 C157 1.376 . S
C157 H144 0.930 . S
C157 C156 1.376 . S
C157 C158 1.388 . S
C158 H145 0.930 . S
C158 C157 1.388 . S
C158 C159 1.390 . S
C159 C158 1.390 . S
C159 C160 1.394 . S
C159 C165 1.465 . S
C160 C155 1.399 . S
C160 C159 1.394 . S
C160 C161 1.516 . S
C161 C160 1.516 . S
C161 C162 1.502 . S
C161 C163 1.561 . S
C161 C164 1.526 . S
C162 H146 0.959 . S
C162 H147 0.959 . S
C162 H148 0.961 . S
C162 C161 1.502 . S
C163 H149 0.960 . S
C163 H150 0.961 . S
C163 H151 0.959 . S
C163 C161 1.561 . S
C164 C161 1.526 . S
C164 C165 1.396 . S
C164 C169 1.390 . S
C165 C159 1.465 . S
C165 C164 1.396 . S
C165 C166 1.399 . S
C166 H152 0.929 . S
C166 C165 1.399 . S
C166 C167 1.385 . S
C167 H153 0.931 . S
C167 C166 1.385 . S
C167 C168 1.389 . S
C168 C167 1.389 . S
C168 C169 1.387 . S
C169 H154 0.930 . S
C169 C164 1.390 . S
C169 C168 1.387 . S
H170 C182 0.930 . S
H171 C184 0.930 . S
H172 C185 0.930 . S
H173 C189 0.959 . S
H174 C189 0.959 . S
H175 C189 0.961 . S
H176 C190 0.960 . S
H177 C190 0.961 . S
H178 C190 0.959 . S
H179 C193 0.929 . S
H180 C194 0.931 . S
H181 C196 0.930 . S
C182 H170 0.930 . S
C182 C183 1.399 . S
C182 C187 1.399 . S
C183 C182 1.399 . S
C183 C184 1.376 . S
C184 H171 0.930 . S
C184 C183 1.376 . S
C184 C185 1.388 . S
C185 H172 0.930 . S
C185 C184 1.388 . S
C185 C186 1.390 . S
C186 C185 1.390 . S
C186 C187 1.394 . S
C186 C192 1.465 . S
C187 C182 1.399 . S
C187 C186 1.394 . S
C187 C188 1.516 . S
C188 C187 1.516 . S
C188 C189 1.502 . S
C188 C190 1.561 . S
C188 C191 1.526 . S
C189 H173 0.959 . S
C189 H174 0.959 . S
C189 H175 0.961 . S
C189 C188 1.502 . S
C190 H176 0.960 . S
C190 H177 0.961 . S
C190 H178 0.959 . S
C190 C188 1.561 . S
C191 C188 1.526 . S
C191 C192 1.396 . S
C191 C196 1.390 . S
C192 C186 1.465 . S
C192 C191 1.396 . S
C192 C193 1.399 . S
C193 H179 0.929 . S
C193 C192 1.399 . S
C193 C194 1.385 . S
C194 H180 0.931 . S
C194 C193 1.385 . S
C194 C195 1.389 . S
C195 C194 1.389 . S
C195 C196 1.387 . S
C196 H181 0.930 . S
C196 C191 1.390 . S
C196 C195 1.387 . S
H197 C209 0.930 . S
H198 C211 0.930 . S
H199 C212 0.930 . S
H200 C216 0.959 . S
H201 C216 0.959 . S
H202 C216 0.961 . S
H203 C217 0.960 . S
H204 C217 0.961 . S
H205 C217 0.959 . S
H206 C220 0.929 . S
H207 C221 0.931 . S
H208 C223 0.930 . S
C209 H197 0.930 . S
C209 C210 1.399 . S
C209 C214 1.399 . S
C210 C209 1.399 . S
C210 C211 1.376 . S
C211 H198 0.930 . S
C211 C210 1.376 . S
C211 C212 1.388 . S
C212 H199 0.930 . S
C212 C211 1.388 . S
C212 C213 1.390 . S
C213 C212 1.390 . S
C213 C214 1.394 . S
C213 C219 1.465 . S
C214 C209 1.399 . S
C214 C213 1.394 . S
C214 C215 1.516 . S
C215 C214 1.516 . S
C215 C216 1.502 . S
C215 C217 1.561 . S
C215 C218 1.526 . S
C216 H200 0.959 . S
C216 H201 0.959 . S
C216 H202 0.961 . S
C216 C215 1.502 . S
C217 H203 0.960 . S
C217 H204 0.961 . S
C217 H205 0.959 . S
C217 C215 1.561 . S
C218 C215 1.526 . S
C218 C219 1.396 . S
C218 C223 1.390 . S
C219 C213 1.465 . S
C219 C218 1.396 . S
C219 C220 1.399 . S
C220 H206 0.929 . S
C220 C219 1.399 . S
C220 C221 1.385 . S
C221 H207 0.931 . S
C221 C220 1.385 . S
C221 C222 1.389 . S
C222 C221 1.389 . S
C222 C223 1.387 . S
C223 H208 0.930 . S
C223 C218 1.390 . S
C223 C222 1.387 . S
H224 C236 0.930 . S
H225 C238 0.930 . S
H226 C239 0.930 . S
H227 C243 0.959 . S
H228 C243 0.959 . S
H229 C243 0.961 . S
H230 C244 0.960 . S
H231 C244 0.961 . S
H232 C244 0.959 . S
H233 C247 0.929 . S
H234 C248 0.931 . S
H235 C250 0.930 . S
C236 H224 0.930 . S
C236 C237 1.399 . S
C236 C241 1.399 . S
C237 C236 1.399 . S
C237 C238 1.376 . S
C238 H225 0.930 . S
C238 C237 1.376 . S
C238 C239 1.388 . S
C239 H226 0.930 . S
C239 C238 1.388 . S
C239 C240 1.390 . S
C240 C239 1.390 . S
C240 C241 1.394 . S
C240 C246 1.465 . S
C241 C236 1.399 . S
C241 C240 1.394 . S
C241 C242 1.516 . S
C242 C241 1.516 . S
C242 C243 1.502 . S
C242 C244 1.561 . S
C242 C245 1.526 . S
C243 H227 0.959 . S
C243 H228 0.959 . S
C243 H229 0.961 . S
C243 C242 1.502 . S
C244 H230 0.960 . S
C244 H231 0.961 . S
C244 H232 0.959 . S
C244 C242 1.561 . S
C245 C242 1.526 . S
C245 C246 1.396 . S
C245 C250 1.390 . S
C246 C240 1.465 . S
C246 C245 1.396 . S
C246 C247 1.399 . S
C247 H233 0.929 . S
C247 C246 1.399 . S
C247 C248 1.385 . S
C248 H234 0.931 . S
C248 C247 1.385 . S
C248 C249 1.389 . S
C249 C248 1.389 . S
C249 C250 1.387 . S
C250 H235 0.930 . S
C250 C245 1.390 . S
C250 C249 1.387 . S
H251 C263 0.930 . S
H252 C265 0.930 . S
H253 C266 0.930 . S
H254 C270 0.959 . S
H255 C270 0.959 . S
H256 C270 0.961 . S
H257 C271 0.960 . S
H258 C271 0.961 . S
H259 C271 0.959 . S
H260 C274 0.929 . S
H261 C275 0.931 . S
H262 C277 0.930 . S
C263 H251 0.930 . S
C263 C264 1.399 . S
C263 C268 1.399 . S
C264 C263 1.399 . S
C264 C265 1.376 . S
C265 H252 0.930 . S
C265 C264 1.376 . S
C265 C266 1.388 . S
C266 H253 0.930 . S
C266 C265 1.388 . S
C266 C267 1.390 . S
C267 C266 1.390 . S
C267 C268 1.394 . S
C267 C273 1.465 . S
C268 C263 1.399 . S
C268 C267 1.394 . S
C268 C269 1.516 . S
C269 C268 1.516 . S
C269 C270 1.502 . S
C269 C271 1.561 . S
C269 C272 1.526 . S
C270 H254 0.959 . S
C270 H255 0.959 . S
C270 H256 0.961 . S
C270 C269 1.502 . S
C271 H257 0.960 . S
C271 H258 0.961 . S
C271 H259 0.959 . S
C271 C269 1.561 . S
C272 C269 1.526 . S
C272 C273 1.396 . S
C272 C277 1.390 . S
C273 C267 1.465 . S
C273 C272 1.396 . S
C273 C274 1.399 . S
C274 H260 0.929 . S
C274 C273 1.399 . S
C274 C275 1.385 . S
C275 H261 0.931 . S
C275 C274 1.385 . S
C275 C276 1.389 . S
C276 C275 1.389 . S
C276 C277 1.387 . S
C277 H262 0.930 . S
C277 C272 1.390 . S
C277 C276 1.387 . S
C75 C10 1.096 . S
C87 C41 1.084 . S
C102 C0 1.629 . S
C114 C33 1.636 . S
C129 C18 1.434 . S
C141 C50 1.425 . S
C156 C27 1.637 . S
C168 C51 1.651 . S
C183 C24 1.644 . S
C195 C60 1.615 . S
C222 C61 1.355 . S
C210 C11 1.344 . S
C237 C1 1.651 . S
C249 C32 1.609 . S
C276 C31 1.101 . S
C264 C2 1.136 . S
