# Generated by pormake.
# Topology pyr, (3,6)-cn, num edge types: 1
# Building blocks:
#     Node 0, Type 0, BuildingBlock: OLANEW_clean_sbu_2, # of connection points: 3
#     Node 1, Type 0, BuildingBlock: OLANEW_clean_sbu_2, # of connection points: 3
#     Node 2, Type 0, BuildingBlock: OLANEW_clean_sbu_2, # of connection points: 3
#     Node 3, Type 0, BuildingBlock: OLANEW_clean_sbu_2, # of connection points: 3
#     Node 4, Type 0, BuildingBlock: OLANEW_clean_sbu_2, # of connection points: 3
#     Node 5, Type 0, BuildingBlock: OLANEW_clean_sbu_2, # of connection points: 3
#     Node 6, Type 0, BuildingBlock: OLANEW_clean_sbu_2, # of connection points: 3
#     Node 7, Type 0, BuildingBlock: OLANEW_clean_sbu_2, # of connection points: 3
#     Node 8, Type 1, BuildingBlock: MIDCAF_clean_sbu_0, # of connection points: 6
#     Node 9, Type 1, BuildingBlock: MIDCAF_clean_sbu_0, # of connection points: 6
#     Node 10, Type 1, BuildingBlock: MIDCAF_clean_sbu_0, # of connection points: 6
#     Node 11, Type 1, BuildingBlock: MIDCAF_clean_sbu_0, # of connection points: 6
#     Edge 12, Type (0, 1), BuildingBlock: XIVTED_clean_linker_0, # of connection points: 2
#     Edge 13, Type (0, 1), BuildingBlock: XIVTED_clean_linker_0, # of connection points: 2
#     Edge 14, Type (0, 1), BuildingBlock: XIVTED_clean_linker_0, # of connection points: 2
#     Edge 15, Type (0, 1), BuildingBlock: XIVTED_clean_linker_0, # of connection points: 2
#     Edge 16, Type (0, 1), BuildingBlock: XIVTED_clean_linker_0, # of connection points: 2
#     Edge 17, Type (0, 1), BuildingBlock: XIVTED_clean_linker_0, # of connection points: 2
#     Edge 18, Type (0, 1), BuildingBlock: XIVTED_clean_linker_0, # of connection points: 2
#     Edge 19, Type (0, 1), BuildingBlock: XIVTED_clean_linker_0, # of connection points: 2
#     Edge 20, Type (0, 1), BuildingBlock: XIVTED_clean_linker_0, # of connection points: 2
#     Edge 21, Type (0, 1), BuildingBlock: XIVTED_clean_linker_0, # of connection points: 2
#     Edge 22, Type (0, 1), BuildingBlock: XIVTED_clean_linker_0, # of connection points: 2
#     Edge 23, Type (0, 1), BuildingBlock: XIVTED_clean_linker_0, # of connection points: 2
#     Edge 24, Type (0, 1), BuildingBlock: XIVTED_clean_linker_0, # of connection points: 2
#     Edge 25, Type (0, 1), BuildingBlock: XIVTED_clean_linker_0, # of connection points: 2
#     Edge 26, Type (0, 1), BuildingBlock: XIVTED_clean_linker_0, # of connection points: 2
#     Edge 27, Type (0, 1), BuildingBlock: XIVTED_clean_linker_0, # of connection points: 2
#     Edge 28, Type (0, 1), BuildingBlock: XIVTED_clean_linker_0, # of connection points: 2
#     Edge 29, Type (0, 1), BuildingBlock: XIVTED_clean_linker_0, # of connection points: 2
#     Edge 30, Type (0, 1), BuildingBlock: XIVTED_clean_linker_0, # of connection points: 2
#     Edge 31, Type (0, 1), BuildingBlock: XIVTED_clean_linker_0, # of connection points: 2
#     Edge 32, Type (0, 1), BuildingBlock: XIVTED_clean_linker_0, # of connection points: 2
#     Edge 33, Type (0, 1), BuildingBlock: XIVTED_clean_linker_0, # of connection points: 2
#     Edge 34, Type (0, 1), BuildingBlock: XIVTED_clean_linker_0, # of connection points: 2
#     Edge 35, Type (0, 1), BuildingBlock: XIVTED_clean_linker_0, # of connection points: 2
# Relax obj value: 0.074
# Max RMSD: 0.157
# Mean RMSD: 0.119
data_MOF--net-pyr--node1-OLANEW_clean_sbu_2--node2-MIDCAF_clean_sbu_0--edge1-XIVTED_clean_linker_0
_symmetry_space_group_name_H-M    P1
_symmetry_Int_Tables_number       1
_symmetry_cell_setting            triclinic
loop_
_symmetry_equiv_pos_as_xyz
'x, y, z'
_cell_length_a     37.761827
_cell_length_b     37.885129
_cell_length_c     37.189997
_cell_angle_alpha  94.306526
_cell_angle_beta   89.465943
_cell_angle_gamma 95.601065
loop_
_atom_site_label
_atom_site_type_symbol
_atom_site_fract_x
_atom_site_fract_y
_atom_site_fract_z
_atom_type_partial_charge
O0 O 0.29735 0.24359 0.24161 0.0
Cd1 Cd 0.2416 0.26777 0.26045 0.0
O2 O 0.29427 0.20505 0.28338 0.0
Cd3 Cd 0.24601 0.21916 0.31151 0.0
O4 O 0.20829 0.20101 0.35281 0.0
C5 C 0.22098 0.18075 0.37413 0.0
O6 O 0.25442 0.17429 0.3702 0.0
C7 C 0.31 0.21831 0.25641 0.0
C8 C 0.22079 0.3206 0.21838 0.0
O9 O 0.23688 0.32884 0.24848 0.0
O10 O 0.21514 0.28756 0.20782 0.0
O11 O 0.36125 0.80884 0.82875 0.0
Cd12 Cd 0.34227 0.78709 0.76764 0.0
O13 O 0.314 0.83753 0.83008 0.0
Cd14 Cd 0.27017 0.87085 0.84156 0.0
O15 O 0.21952 0.88316 0.81912 0.0
C16 C 0.21099 0.91439 0.81568 0.0
O17 O 0.23254 0.94184 0.82807 0.0
C18 C 0.34232 0.83075 0.84544 0.0
C19 C 0.38351 0.73665 0.73484 0.0
O20 O 0.39467 0.76977 0.73732 0.0
O21 O 0.35297 0.72714 0.74821 0.0
O22 O 0.82718 0.32283 0.7873 0.0
Cd23 Cd 0.78699 0.28472 0.74563 0.0
O24 O 0.81244 0.28404 0.82655 0.0
Cd25 Cd 0.80507 0.25415 0.87492 0.0
O26 O 0.77764 0.21206 0.90523 0.0
C27 C 0.77231 0.21471 0.93909 0.0
O28 O 0.78488 0.24381 0.95807 0.0
C29 C 0.8308 0.31248 0.81871 0.0
C30 C 0.74517 0.32 0.70097 0.0
O31 O 0.73329 0.31025 0.73145 0.0
O32 O 0.77692 0.31365 0.69198 0.0
O33 O 0.87556 0.86423 0.26427 0.0
Cd34 Cd 0.8656 0.84371 0.20064 0.0
O35 O 0.8376 0.82134 0.28156 0.0
Cd36 Cd 0.80457 0.78993 0.31856 0.0
O37 O 0.77162 0.75025 0.34706 0.0
C38 C 0.73877 0.74231 0.33999 0.0
O39 O 0.72378 0.75896 0.31534 0.0
C40 C 0.85929 0.84859 0.28958 0.0
C41 C 0.89592 0.78141 0.17725 0.0
O42 O 0.91358 0.81196 0.17603 0.0
O43 O 0.86427 0.78029 0.19019 0.0
O44 O 0.94243 0.91245 0.92136 0.0
Cd45 Cd 0.91872 0.89515 0.97981 0.0
O46 O 0.95905 0.96749 0.9419 0.0
Cd47 Cd 0.92906 0.96183 0.99172 0.0
O48 O 0.87828 0.96368 0.01978 0.0
C49 C 0.86335 0.9924 0.02064 0.0
O50 O 0.88008 0.02026 0.00672 0.0
C51 C 0.95787 0.94309 0.91639 0.0
C52 C 0.94374 0.83187 0.9979 0.0
O53 O 0.91404 0.83168 0.98144 0.0
O54 O 0.96141 0.862 0.00607 0.0
O55 O 0.56326 0.99276 0.43861 0.0
Cd56 Cd 0.58588 0.9676 0.49156 0.0
O57 O 0.58301 0.04658 0.45981 0.0
Cd58 Cd 0.59062 0.1048 0.46212 0.0
O59 O 0.59354 0.16232 0.47527 0.0
C60 C 0.57492 0.17339 0.50164 0.0
O61 O 0.55523 0.15002 0.51948 0.0
C62 C 0.56703 0.02607 0.43516 0.0
C63 C 0.66003 0.97594 0.49564 0.0
O64 O 0.64389 0.94674 0.482 0.0
O65 O 0.64117 1.00084 0.50705 0.0
O66 O 0.55546 0.6774 0.11044 0.0
Cd67 Cd 0.58204 0.62335 0.12351 0.0
O68 O 0.5021 0.6537 0.12353 0.0
Cd69 Cd 0.44392 0.64708 0.12791 0.0
O70 O 0.38893 0.62229 0.12628 0.0
C71 C 0.38373 0.59047 0.11248 0.0
O72 O 0.41122 0.57436 0.10037 0.0
C73 C 0.52218 0.67994 0.11306 0.0
C74 C 0.57386 0.60634 0.19503 0.0
O75 O 0.60205 0.62468 0.18497 0.0
O76 O 0.54967 0.5965 0.17142 0.0
O77 O 0.11463 0.51817 0.67751 0.0
Cd78 Cd 0.14364 0.53029 0.62023 0.0
O79 O 0.12677 0.46331 0.66568 0.0
Cd80 Cd 0.12638 0.40601 0.66952 0.0
O81 O 0.12415 0.34945 0.65215 0.0
C82 C 0.11628 0.34055 0.61934 0.0
O83 O 0.11028 0.36546 0.59804 0.0
C84 C 0.11276 0.48632 0.68647 0.0
C85 C 0.21781 0.53876 0.6233 0.0
O86 O 0.19992 0.56589 0.62474 0.0
O87 O 0.20066 0.50777 0.62109 0.0
Zn88 Zn 0.96033 0.05862 0.61424 0.0
Zn89 Zn 0.03645 0.95849 0.55055 0.0
Zn90 Zn 0.9972 0.00979 0.58043 0.0
C91 C 0.06542 0.02713 0.5306 0.0
C92 C 0.96766 0.94711 0.52044 0.0
O93 O 0.99547 0.00143 0.63868 0.0
O94 O 0.96503 0.04385 0.66397 0.0
C95 C 0.01589 0.09576 0.58063 0.0
O96 O 0.03976 0.03779 0.55029 0.0
O97 O 0.07003 0.99441 0.52665 0.0
O98 O 0.99632 0.93258 0.52176 0.0
O99 O 0.9636 0.97601 0.54006 0.0
O100 O 0.9892 0.10141 0.60006 0.0
O101 O 0.02269 0.06376 0.57083 0.0
O102 O 0.94207 1.00009 0.55887 0.0
O103 O 0.91604 0.04417 0.5872 0.0
C104 C 0.91459 0.01741 0.5647 0.0
O105 O 0.02191 0.98133 0.62267 0.0
O106 O 0.05231 0.93977 0.59564 0.0
C107 C 0.98176 0.01692 0.66679 0.0
C108 C 0.04253 0.95624 0.62423 0.0
Zn109 Zn 0.50552 0.05213 0.05376 0.0
Zn110 Zn 0.55248 0.97589 0.1426 0.0
Zn111 Zn 0.52955 0.01257 0.10025 0.0
C112 C 0.60861 0.98999 0.09895 0.0
C113 C 0.50183 0.93107 0.11122 0.0
O114 O 0.49994 0.05295 0.13123 0.0
O115 O 0.48713 0.08775 0.08899 0.0
C116 C 0.57792 0.05869 0.04364 0.0
O117 O 0.58803 0.01385 0.092 0.0
O118 O 0.59719 0.96501 0.11783 0.0
O119 O 0.51409 0.93643 0.14276 0.0
O120 O 0.50707 0.95578 0.0891 0.0
O121 O 0.55036 0.06609 0.02804 0.0
O122 O 0.57529 0.03977 0.07117 0.0
O123 O 0.49241 0.97743 0.06365 0.0
O124 O 0.47019 0.0159 0.03034 0.0
C125 C 0.47087 0.9844 0.03898 0.0
O126 O 0.51716 0.03409 0.15627 0.0
O127 O 0.55748 0.00924 0.18568 0.0
C128 C 0.48624 0.08071 0.12165 0.0
C129 C 0.53449 0.03115 0.18545 0.0
Zn130 Zn 0.59745 0.55074 0.56704 0.0
Zn131 Zn 0.49436 0.47703 0.48939 0.0
Zn132 Zn 0.54648 0.51469 0.52661 0.0
C133 C 0.53517 0.42833 0.51748 0.0
C134 C 0.53334 0.51902 0.44109 0.0
O135 O 0.52141 0.54926 0.56838 0.0
O136 O 0.5662 0.57642 0.60101 0.0
C137 C 0.60739 0.48014 0.57146 0.0
O138 O 0.55342 0.45736 0.52934 0.0
O139 O 0.50717 0.42933 0.49949 0.0
O140 O 0.50675 0.49622 0.4425 0.0
O141 O 0.55184 0.52914 0.46967 0.0
O142 O 0.62115 0.51055 0.58279 0.0
O143 O 0.57976 0.47679 0.55085 0.0
O144 O 0.57841 0.54977 0.4906 0.0
O145 O 0.62042 0.57627 0.52731 0.0
C146 C 0.60654 0.57157 0.49636 0.0
O147 O 0.49402 0.52654 0.55042 0.0
O148 O 0.45348 0.49496 0.51541 0.0
C149 C 0.53324 0.57145 0.59458 0.0
C150 C 0.46124 0.51646 0.54232 0.0
Zn151 Zn 0.10014 0.55706 0.98091 0.0
Zn152 Zn 0.00866 0.48712 0.06953 0.0
Zn153 Zn 0.05402 0.52075 0.02244 0.0
C154 C 0.0788 0.47701 0.08864 0.0
C155 C 0.99419 0.45656 0.99801 0.0
O156 O 0.04199 0.57695 0.02428 0.0
O157 O 0.08287 0.60475 0.99059 0.0
C158 C 0.14088 0.52786 0.02979 0.0
O159 O 0.08593 0.49491 0.06085 0.0
O160 O 0.04702 0.47077 0.0991 0.0
O161 O 0.98512 0.45373 0.03058 0.0
O162 O 0.01943 0.48006 0.98978 0.0
O163 O 0.14462 0.54663 0.00316 0.0
O164 O 0.10956 0.51624 0.04043 0.0
O165 O 0.04459 0.49697 0.96652 0.0
O166 O 0.08516 0.52895 0.93596 0.0
C167 C 0.06035 0.50419 0.9367 0.0
O168 O 0.02251 0.56009 0.05207 0.0
O169 O 0.9854 0.53016 0.08792 0.0
C170 C 0.05544 0.60537 0.01019 0.0
C171 C 0.99773 0.55934 0.07621 0.0
H172 H 0.15036 0.18694 0.3901 0.0
H173 H 0.13529 0.02296 0.51404 0.0
H174 H 0.2398 0.13233 0.41933 0.0
H175 H 0.04976 0.0889 0.50314 0.0
H176 H 0.1739 0.06343 0.4794 0.0
H177 H 0.11288 0.15242 0.43176 0.0
C178 C 0.16218 0.16791 0.40542 0.0
C179 C 0.19824 0.16235 0.401 0.0
C180 C 0.14681 0.06936 0.48489 0.0
C181 C 0.15553 0.12268 0.44843 0.0
C182 C 0.12476 0.04619 0.50458 0.0
C183 C 0.08943 0.05283 0.51175 0.0
C184 C 0.1333 0.09914 0.47169 0.0
C185 C 0.07708 0.08327 0.49884 0.0
C186 C 0.14078 0.14825 0.42921 0.0
C187 C 0.21213 0.13743 0.42166 0.0
N188 N 0.09891 0.1052 0.47917 0.0
N189 N 0.19073 0.11837 0.4442 0.0
H190 H 0.3177 0.889 0.88346 0.0
H191 H 0.48498 0.91688 0.01575 0.0
H192 H 0.39659 0.81424 0.88705 0.0
H193 H 0.40412 0.98936 0.01466 0.0
H194 H 0.44874 0.87463 0.97474 0.0
H195 H 0.34454 0.92204 0.93691 0.0
C196 C 0.34021 0.87911 0.89575 0.0
C197 C 0.35493 0.84885 0.88046 0.0
C198 C 0.43855 0.89948 0.98401 0.0
C199 C 0.38631 0.88696 0.94152 0.0
C200 C 0.45905 0.92327 0.00792 0.0
C201 C 0.44732 0.95627 0.01905 0.0
C202 C 0.40626 0.90907 0.97085 0.0
C203 C 0.41417 0.96412 0.00666 0.0
C204 C 0.35571 0.89814 0.92626 0.0
C205 C 0.38447 0.83762 0.89762 0.0
N206 N 0.39496 0.94086 0.98303 0.0
N207 N 0.39935 0.85682 0.92694 0.0
H208 H 0.76574 0.35146 0.63935 0.0
H209 H 0.5766 0.42119 0.60266 0.0
H210 H 0.6742 0.32999 0.70752 0.0
H211 H 0.67687 0.46989 0.56559 0.0
H212 H 0.60859 0.3763 0.63023 0.0
H213 H 0.72986 0.38407 0.60151 0.0
C214 C 0.73803 0.35342 0.64627 0.0
C215 C 0.7231 0.33836 0.67695 0.0
C216 C 0.62343 0.39653 0.61556 0.0
C217 C 0.68177 0.37545 0.63348 0.0
C218 C 0.60521 0.42184 0.59964 0.0
C219 C 0.6243 0.4491 0.582 0.0
C220 C 0.66079 0.39856 0.61336 0.0
C221 C 0.66132 0.44924 0.57909 0.0
C222 C 0.71757 0.37203 0.62463 0.0
C223 C 0.68693 0.34156 0.68438 0.0
N224 N 0.67837 0.42447 0.5947 0.0
N225 N 0.66749 0.35989 0.66287 0.0
H226 H 0.86379 0.71327 0.17283 0.0
H227 H 0.03391 0.62513 0.08993 0.0
H228 H 0.96276 0.7744 0.14952 0.0
H229 H 0.92978 0.56845 0.09753 0.0
H230 H 0.00952 0.67975 0.11406 0.0
H231 H 0.88874 0.65943 0.1483 0.0
C232 C 0.89083 0.71539 0.16266 0.0
C233 C 0.91121 0.74845 0.16331 0.0
C234 C 0.99196 0.65541 0.11032 0.0
C235 C 0.94 0.68675 0.13505 0.0
C236 C 0.00581 0.62434 0.09628 0.0
C237 C 0.9836 0.59253 0.09085 0.0
C238 C 0.95576 0.65443 0.11972 0.0
C239 C 0.94773 0.59255 0.10092 0.0
C240 C 0.90504 0.68461 0.14854 0.0
C241 C 0.94608 0.74949 0.14962 0.0
N242 N 0.93491 0.62301 0.1148 0.0
N243 N 0.95938 0.7191 0.13609 0.0
H244 H 0.35213 0.23959 0.19983 0.0
H245 H 0.45536 0.06483 0.18652 0.0
H246 H 0.34009 0.16041 0.27788 0.0
H247 H 0.47366 0.14941 0.11517 0.0
H248 H 0.41761 0.1018 0.22416 0.0
H249 H 0.40068 0.20928 0.17172 0.0
C250 C 0.35986 0.21602 0.21126 0.0
C251 C 0.34172 0.20239 0.24106 0.0
C252 C 0.43032 0.11246 0.20055 0.0
C253 C 0.3972 0.1673 0.20883 0.0
C254 C 0.45216 0.09146 0.17929 0.0
C255 C 0.46766 0.10401 0.14771 0.0
C256 C 0.42379 0.1461 0.18989 0.0
C257 C 0.46194 0.13848 0.13911 0.0
C258 C 0.38764 0.19869 0.19521 0.0
C259 C 0.35312 0.17181 0.2548 0.0
N260 N 0.44025 0.15813 0.15985 0.0
N261 N 0.37985 0.15511 0.23837 0.0
H262 H 0.16491 0.8634 0.7801 0.0
H263 H 0.06202 0.00372 0.68129 0.0
H264 H 0.18479 0.97714 0.80168 0.0
H265 H 0.06098 0.89288 0.64483 0.0
H266 H 0.09691 0.99297 0.73393 0.0
H267 H 0.11723 0.87261 0.73894 0.0
C268 C 0.15903 0.89033 0.77653 0.0
C269 C 0.17928 0.91957 0.79409 0.0
C270 C 0.0886 0.9709 0.71469 0.0
C271 C 0.12459 0.93027 0.74681 0.0
C272 C 0.06839 0.97694 0.68485 0.0
C273 C 0.05841 0.94907 0.65882 0.0
C274 C 0.09908 0.93677 0.71839 0.0
C275 C 0.06814 0.91509 0.66429 0.0
C276 C 0.1318 0.89555 0.75293 0.0
C277 C 0.17016 0.95382 0.78849 0.0
N278 N 0.08807 0.90992 0.69334 0.0
N279 N 0.14368 0.95823 0.76513 0.0
H280 H 0.86359 0.37942 0.81304 0.0
H281 H 0.96262 0.3894 0.00341 0.0
H282 H 0.85664 0.29316 0.88299 0.0
H283 H 0.97821 0.47175 0.9294 0.0
H284 H 0.92424 0.35353 0.95923 0.0
H285 H 0.90584 0.41345 0.85481 0.0
C286 C 0.87074 0.36761 0.83726 0.0
C287 C 0.85588 0.33341 0.84467 0.0
C288 C 0.93637 0.37926 0.95237 0.0
C289 C 0.90459 0.37239 0.89269 0.0
C290 C 0.95833 0.39974 0.97758 0.0
C291 C 0.97409 0.43341 0.96979 0.0
C292 C 0.92964 0.39268 0.91918 0.0
C293 C 0.96746 0.44556 0.93603 0.0
C294 C 0.89498 0.3871 0.86108 0.0
C295 C 0.86647 0.31958 0.87642 0.0
N296 N 0.94554 0.42532 0.91204 0.0
N297 N 0.89005 0.33912 0.89924 0.0
H298 H 0.66677 0.72224 0.33653 0.0
H299 H 0.67662 0.5777 0.48153 0.0
H300 H 0.7632 0.69852 0.38722 0.0
H301 H 0.57716 0.61052 0.44676 0.0
H302 H 0.70825 0.61612 0.4397 0.0
H303 H 0.63311 0.6766 0.37005 0.0
C304 C 0.68088 0.70742 0.3546 0.0
C305 C 0.71787 0.71443 0.35927 0.0
C306 C 0.67949 0.61481 0.44083 0.0
C307 C 0.67958 0.66218 0.39742 0.0
C308 C 0.66145 0.59278 0.46461 0.0
C309 C 0.62433 0.59093 0.46733 0.0
C310 C 0.66035 0.63568 0.41985 0.0
C311 C 0.60584 0.61106 0.44505 0.0
C312 C 0.66164 0.6814 0.37369 0.0
C313 C 0.73474 0.6943 0.38291 0.0
N314 N 0.6241 0.63288 0.42229 0.0
N315 N 0.71548 0.66922 0.40107 0.0
H316 H 0.2045 0.31632 0.14646 0.0
H317 H 0.08565 0.47383 0.16094 0.0
H318 H 0.20573 0.38741 0.24276 0.0
H319 H 0.13531 0.44456 0.05968 0.0
H320 H 0.12694 0.44042 0.19195 0.0
H321 H 0.17664 0.36028 0.11381 0.0
C322 C 0.19921 0.3413 0.16063 0.0
C323 C 0.20726 0.34817 0.19742 0.0
C324 C 0.12921 0.4418 0.16302 0.0
C325 C 0.17495 0.39813 0.16044 0.0
C326 C 0.10566 0.46077 0.14535 0.0
C327 C 0.10716 0.46187 0.10778 0.0
C328 C 0.15366 0.42281 0.14283 0.0
C329 C 0.13349 0.44446 0.08874 0.0
C330 C 0.18351 0.3664 0.14195 0.0
C331 C 0.19997 0.38104 0.21442 0.0
N332 N 0.1553 0.42497 0.1064 0.0
N333 N 0.18363 0.40454 0.19597 0.0
H334 H 0.73995 0.15253 0.90703 0.0
H335 H 0.62668 0.1031 0.08242 0.0
H336 H 0.75205 0.2128 0.01013 0.0
H337 H 0.60601 0.05228 0.97622 0.0
H338 H 0.67942 0.13707 0.05887 0.0
H339 H 0.69761 0.10947 0.93429 0.0
C340 C 0.73395 0.1566 0.93549 0.0
C341 C 0.74932 0.18663 0.9562 0.0
C342 C 0.66374 0.11806 0.04081 0.0
C343 C 0.70064 0.1373 0.98762 0.0
C344 C 0.6339 0.09849 0.05432 0.0
C345 C 0.61263 0.07445 0.03129 0.0
C346 C 0.67193 0.11388 0.00387 0.0
C347 C 0.62219 0.07024 0.99486 0.0
C348 C 0.70971 0.13196 0.95104 0.0
C349 C 0.74066 0.19025 0.99303 0.0
N350 N 0.65109 0.08984 0.98222 0.0
N351 N 0.7167 0.16605 0.00749 0.0
H352 H 0.86147 0.8109 0.34972 0.0
H353 H 0.92567 0.98331 0.47958 0.0
H354 H 0.87379 0.91759 0.31526 0.0
H355 H 0.9504 0.87745 0.4981 0.0
H356 H 0.89092 0.95889 0.42641 0.0
H357 H 0.87908 0.83462 0.41087 0.0
C358 C 0.86705 0.83936 0.3552 0.0
C359 C 0.8661 0.86234 0.32744 0.0
C360 C 0.90345 0.94097 0.44252 0.0
C361 C 0.88642 0.88957 0.39709 0.0
C362 C 0.92295 0.95483 0.47303 0.0
C363 C 0.9409 0.93233 0.49319 0.0
C364 C 0.90182 0.90436 0.43226 0.0
C365 C 0.93705 0.8957 0.48314 0.0
C366 C 0.87737 0.85284 0.39 0.0
C367 C 0.87442 0.89894 0.33588 0.0
N368 N 0.91812 0.88286 0.45326 0.0
N369 N 0.88429 0.91142 0.3699 0.0
H370 H 0.45579 0.73888 0.73195 0.0
H371 H 0.46962 0.59301 0.57491 0.0
H372 H 0.36017 0.67505 0.69558 0.0
H373 H 0.54353 0.60109 0.66333 0.0
H374 H 0.43053 0.62931 0.61169 0.0
H375 H 0.49133 0.69577 0.69948 0.0
C376 C 0.44234 0.71577 0.71715 0.0
C377 C 0.40509 0.71033 0.71644 0.0
C378 C 0.45503 0.62253 0.62315 0.0
C379 C 0.44535 0.66172 0.67883 0.0
C380 C 0.4769 0.60123 0.60248 0.0
C381 C 0.50891 0.59251 0.61666 0.0
C382 C 0.46621 0.63659 0.65758 0.0
C383 C 0.51878 0.60671 0.65151 0.0
C384 C 0.46256 0.69121 0.69884 0.0
C385 C 0.38888 0.67997 0.69693 0.0
N386 N 0.49768 0.62839 0.67067 0.0
N387 N 0.40913 0.65697 0.67838 0.0
H388 H 0.99041 0.00627 0.89622 0.0
H389 H 0.9816 0.94802 0.68487 0.0
H390 H 0.95517 0.89953 0.8537 0.0
H391 H 0.9904 0.05657 0.73043 0.0
H392 H 0.98409 0.92778 0.74601 0.0
H393 H 0.00356 0.02266 0.83506 0.0
C394 C 0.98584 0.98611 0.87408 0.0
C395 C 0.9711 0.95159 0.88012 0.0
C396 C 0.98578 0.95601 0.74252 0.0
C397 C 0.98591 0.97036 0.80984 0.0
C398 C 0.98449 0.96753 0.70774 0.0
C399 C 0.98571 0.00396 0.70279 0.0
C400 C 0.98836 0.98119 0.77236 0.0
C401 C 0.98911 0.02822 0.73319 0.0
C402 C 0.99327 0.99555 0.83911 0.0
C403 C 0.96614 0.92656 0.85029 0.0
N404 N 0.99024 0.01641 0.76665 0.0
N405 N 0.97316 0.93654 0.81637 0.0
H406 H 0.59562 0.08271 0.39892 0.0
H407 H 0.47602 0.01882 0.22714 0.0
H408 H 0.5086 0.9999 0.3959 0.0
H409 H 0.57699 0.08191 0.22357 0.0
H410 H 0.47577 0.0293 0.29294 0.0
H411 H 0.57787 0.09854 0.3395 0.0
C412 C 0.57212 0.0686 0.38629 0.0
C413 C 0.55358 0.0399 0.4023 0.0
C414 C 0.49739 0.04196 0.27772 0.0
C415 C 0.53349 0.05745 0.33413 0.0
C416 C 0.4972 0.03647 0.24013 0.0
C417 C 0.52644 0.04979 0.22011 0.0
C418 C 0.52728 0.06047 0.29518 0.0
C419 C 0.55384 0.07148 0.23822 0.0
C420 C 0.56216 0.07746 0.35224 0.0
C421 C 0.52385 0.02196 0.38427 0.0
N422 N 0.55396 0.07562 0.27483 0.0
N423 N 0.51494 0.03078 0.35103 0.0
H424 H 0.62367 0.61289 0.24933 0.0
H425 H 0.48483 0.53469 0.39358 0.0
H426 H 0.51368 0.57675 0.22633 0.0
H427 H 0.59811 0.53889 0.40965 0.0
H428 H 0.49531 0.55832 0.33497 0.0
H429 H 0.61515 0.59396 0.31087 0.0
C430 C 0.59774 0.60113 0.25723 0.0
C431 C 0.56934 0.59628 0.23261 0.0
C432 C 0.51799 0.55433 0.35128 0.0
C433 C 0.55951 0.5748 0.30271 0.0
C434 C 0.51202 0.54084 0.38477 0.0
C435 C 0.54069 0.53524 0.40661 0.0
C436 C 0.55297 0.56224 0.33923 0.0
C437 C 0.57534 0.54365 0.3939 0.0
C438 C 0.59298 0.59024 0.29225 0.0
C439 C 0.53637 0.58088 0.24427 0.0
N440 N 0.5806 0.55679 0.36091 0.0
N441 N 0.53239 0.57078 0.27842 0.0
H442 H 0.12639 0.43437 0.73097 0.0
H443 H 0.01218 0.52031 0.88878 0.0
H444 H 0.05856 0.5181 0.7198 0.0
H445 H 0.08999 0.44735 0.90515 0.0
H446 H 0.01503 0.50524 0.82378 0.0
H447 H 0.10112 0.42584 0.79097 0.0
C448 C 0.10553 0.4503 0.74069 0.0
C449 C 0.09468 0.47711 0.72044 0.0
C450 C 0.03068 0.49159 0.84157 0.0
C451 C 0.066 0.46784 0.78919 0.0
C452 C 0.02859 0.4998 0.87869 0.0
C453 C 0.05055 0.48467 0.90214 0.0
C454 C 0.05567 0.46882 0.82787 0.0
C455 C 0.07227 0.45913 0.8878 0.0
C456 C 0.09125 0.44557 0.77506 0.0
C457 C 0.06803 0.49744 0.73473 0.0
N458 N 0.07486 0.45249 0.85146 0.0
N459 N 0.05487 0.49262 0.76829 0.0
H460 H 0.82471 0.05008 0.02953 0.0
H461 H 0.64493 0.93368 0.07781 0.0
H462 H 0.81762 0.93714 0.04159 0.0
H463 H 0.6566 0.04799 0.09205 0.0
H464 H 0.70723 0.9347 0.05939 0.0
H465 H 0.76229 0.05035 0.04785 0.0
C466 C 0.81012 0.02538 0.03622 0.0
C467 C 0.82643 0.99351 0.03399 0.0
C468 C 0.69615 0.95968 0.06615 0.0
C469 C 0.75499 0.99363 0.05459 0.0
C470 C 0.66059 0.9591 0.07654 0.0
C471 C 0.64546 0.99098 0.08541 0.0
C472 C 0.71687 0.99239 0.06475 0.0
C473 C 0.66691 0.0231 0.0837 0.0
C474 C 0.7745 0.02558 0.04664 0.0
C475 C 0.80621 0.96233 0.04296 0.0
N476 N 0.70162 0.02307 0.07353 0.0
N477 N 0.77153 0.96315 0.05266 0.0
H478 H 0.7018 0.03832 0.50687 0.0
H479 H 0.87976 0.95096 0.54599 0.0
H480 H 0.70746 0.92495 0.49184 0.0
H481 H 0.87266 0.06316 0.53924 0.0
H482 H 0.81857 0.93908 0.5223 0.0
H483 H 0.76577 0.04669 0.51598 0.0
C484 C 0.71659 0.01514 0.50537 0.0
C485 C 0.69924 0.98089 0.49886 0.0
C486 C 0.83072 0.96621 0.52551 0.0
C487 C 0.7729 0.99019 0.5096 0.0
C488 C 0.86561 0.97293 0.53879 0.0
C489 C 0.88099 0.00808 0.5448 0.0
C490 C 0.81141 0.99495 0.51858 0.0
C491 C 0.86156 0.03568 0.53541 0.0
C492 C 0.75324 0.01991 0.51044 0.0
C493 C 0.71986 0.95184 0.49687 0.0
N494 N 0.8278 0.02856 0.52314 0.0
N495 N 0.75565 0.95709 0.50267 0.0
H496 H 0.36297 0.52933 0.07124 0.0
H497 H 0.15473 0.54375 0.10137 0.0
H498 H 0.32127 0.6109 0.14217 0.0
H499 H 0.20062 0.50211 0.00249 0.0
H500 H 0.21444 0.55185 0.12869 0.0
H501 H 0.30216 0.50361 0.05804 0.0
C502 C 0.34108 0.54159 0.08444 0.0
C503 C 0.34721 0.57269 0.1074 0.0
C504 C 0.21118 0.54005 0.10134 0.0
C505 C 0.27761 0.54303 0.09268 0.0
C506 C 0.1772 0.53508 0.08595 0.0
C507 C 0.17308 0.52241 0.0497 0.0
C508 C 0.24081 0.53173 0.08035 0.0
C509 C 0.20292 0.51204 0.03053 0.0
C510 C 0.30641 0.52684 0.07687 0.0
C511 C 0.31773 0.58722 0.12388 0.0
N512 N 0.23561 0.51717 0.04599 0.0
N513 N 0.28415 0.5724 0.11601 0.0
H514 H 0.26095 0.59523 0.60115 0.0
H515 H 0.44039 0.50051 0.61006 0.0
H516 H 0.26391 0.49138 0.64074 0.0
H517 H 0.41435 0.56034 0.52156 0.0
H518 H 0.38319 0.51238 0.63884 0.0
H519 H 0.32518 0.59747 0.58948 0.0
C520 C 0.27523 0.57325 0.60811 0.0
C521 C 0.25708 0.54284 0.62145 0.0
C522 C 0.39054 0.5236 0.61357 0.0
C523 C 0.33027 0.54557 0.60874 0.0
C524 C 0.42307 0.51704 0.59735 0.0
C525 C 0.43173 0.5296 0.56361 0.0
C526 C 0.36718 0.5433 0.59603 0.0
C527 C 0.40838 0.55034 0.54769 0.0
C528 C 0.31176 0.57455 0.60138 0.0
C529 C 0.27687 0.5151 0.62997 0.0
N530 N 0.37706 0.55655 0.56402 0.0
N531 N 0.31244 0.51703 0.6233 0.0
H532 H 0.91019 0.76422 0.9904 0.0
H533 H 0.08756 0.67271 0.02046 0.0
H534 H 0.00972 0.82292 0.02353 0.0
H535 H 0.98434 0.61343 0.00999 0.0
H536 H 0.05903 0.72811 0.02336 0.0
H537 H 0.93598 0.70873 0.99927 0.0
C538 C 0.93739 0.76546 0.99975 0.0
C539 C 0.95794 0.79826 0.00589 0.0
C540 C 0.04252 0.70303 0.02084 0.0
C541 C 0.98768 0.73486 0.01583 0.0
C542 C 0.05882 0.67147 0.01909 0.0
C543 C 0.03819 0.63863 0.01516 0.0
C544 C 0.00534 0.70174 0.01782 0.0
C545 C 1.00109 0.63832 0.01333 0.0
C546 C 0.95206 0.73377 0.0049 0.0
C547 C 0.99294 0.79826 0.01826 0.0
N548 N 0.98582 0.66945 0.01438 0.0
N549 N 0.00681 0.76705 0.02245 0.0
H550 H 0.46452 0.71114 0.14236 0.0
H551 H 0.52426 0.89219 0.05276 0.0
H552 H 0.5485 0.72511 0.06384 0.0
H553 H 0.45473 0.88535 0.14492 0.0
H554 H 0.51908 0.82735 0.04442 0.0
H555 H 0.44796 0.77073 0.13255 0.0
C556 C 0.47885 0.72632 0.12239 0.0
C557 C 0.50804 0.71326 0.10401 0.0
C558 C 0.50401 0.83994 0.06582 0.0
C559 C 0.48952 0.78142 0.09291 0.0
C560 C 0.50634 0.87703 0.07006 0.0
C561 C 0.48923 0.89411 0.09904 0.0
C562 C 0.48502 0.81981 0.09122 0.0
C563 C 0.468 0.87308 0.12199 0.0
C564 C 0.46956 0.76043 0.11698 0.0
C565 C 0.52609 0.73435 0.0789 0.0
N566 N 0.4669 0.837 0.11794 0.0
N567 N 0.51673 0.76742 0.0743 0.0
H568 H 0.13553 0.2826 0.65175 0.0
H569 H 1.00046 0.14982 0.54193 0.0
H570 H 0.08445 0.31212 0.55661 0.0
H571 H 0.08442 0.11266 0.60222 0.0
H572 H 0.03362 0.20866 0.54309 0.0
H573 H 0.11997 0.21988 0.63223 0.0
C574 C 0.12139 0.27589 0.62658 0.0
C575 C 0.11077 0.30263 0.60607 0.0
C576 C 0.04536 0.18747 0.55523 0.0
C577 C 0.09276 0.23105 0.58373 0.0
C578 C 0.02651 0.15392 0.55439 0.0
C579 C 0.03995 0.12668 0.57192 0.0
C580 C 0.07718 0.19402 0.57493 0.0
C581 C 0.07346 0.13316 0.58822 0.0
C582 C 0.11275 0.2401 0.61532 0.0
C583 C 0.09286 0.29241 0.57346 0.0
N584 N 0.09064 0.16653 0.59015 0.0
N585 N 0.08385 0.25745 0.56364 0.0
H586 H 0.52909 0.2053 0.54789 0.0
H587 H 0.60147 0.40477 0.50985 0.0
H588 H 0.61763 0.22936 0.4766 0.0
H589 H 0.49326 0.37213 0.53948 0.0
H590 H 0.61568 0.3428 0.51208 0.0
H591 H 0.52384 0.26889 0.55928 0.0
C592 C 0.54767 0.22394 0.53487 0.0
C593 C 0.57354 0.21195 0.51085 0.0
C594 C 0.589 0.34944 0.51858 0.0
C595 C 0.56778 0.28483 0.52406 0.0
C596 C 0.581 0.38468 0.51758 0.0
C597 C 0.54617 0.39326 0.5244 0.0
C598 C 0.562 0.32303 0.52689 0.0
C599 C 0.52039 0.3664 0.53389 0.0
C600 C 0.54461 0.26023 0.54139 0.0
C601 C 0.59701 0.23743 0.49496 0.0
N602 N 0.52879 0.33248 0.53479 0.0
N603 N 0.59347 0.27274 0.50171 0.0
loop_
_geom_bond_atom_site_label_1
_geom_bond_atom_site_label_2
_geom_bond_distance
_geom_bond_site_symmetry_2
_ccdc_geom_bond_type
O0 Cd1 2.300 . S
O0 C7 1.275 . S
Cd1 O0 2.300 . S
Cd1 O9 2.381 . S
Cd1 O10 2.378 . S
O2 Cd3 2.385 . S
O2 C7 1.255 . S
Cd3 O2 2.385 . S
Cd3 O4 2.317 . S
O4 Cd3 2.317 . S
O4 C5 1.232 . S
C5 O4 1.232 . S
C5 O6 1.218 . S
O6 C5 1.218 . S
C7 O0 1.275 . S
C7 O2 1.255 . S
C8 O9 1.258 . S
C8 O10 1.256 . S
O9 Cd1 2.381 . S
O9 C8 1.258 . S
O10 Cd1 2.378 . S
O10 C8 1.256 . S
O11 Cd12 2.300 . S
O11 C18 1.275 . S
Cd12 O11 2.300 . S
Cd12 O20 2.381 . S
Cd12 O21 2.378 . S
O13 Cd14 2.385 . S
O13 C18 1.255 . S
Cd14 O13 2.385 . S
Cd14 O15 2.317 . S
O15 Cd14 2.317 . S
O15 C16 1.232 . S
C16 O15 1.232 . S
C16 O17 1.218 . S
O17 C16 1.218 . S
C18 O11 1.275 . S
C18 O13 1.255 . S
C19 O20 1.258 . S
C19 O21 1.256 . S
O20 Cd12 2.381 . S
O20 C19 1.258 . S
O21 Cd12 2.378 . S
O21 C19 1.256 . S
O22 Cd23 2.300 . S
O22 C29 1.275 . S
Cd23 O22 2.300 . S
Cd23 O31 2.381 . S
Cd23 O32 2.378 . S
O24 Cd25 2.385 . S
O24 C29 1.255 . S
Cd25 O24 2.385 . S
Cd25 O26 2.317 . S
O26 Cd25 2.317 . S
O26 C27 1.232 . S
C27 O26 1.232 . S
C27 O28 1.218 . S
O28 C27 1.218 . S
C29 O22 1.275 . S
C29 O24 1.255 . S
C30 O31 1.258 . S
C30 O32 1.256 . S
O31 Cd23 2.381 . S
O31 C30 1.258 . S
O32 Cd23 2.378 . S
O32 C30 1.256 . S
O33 Cd34 2.300 . S
O33 C40 1.275 . S
Cd34 O33 2.300 . S
Cd34 O42 2.381 . S
Cd34 O43 2.378 . S
O35 Cd36 2.385 . S
O35 C40 1.255 . S
Cd36 O35 2.385 . S
Cd36 O37 2.317 . S
O37 Cd36 2.317 . S
O37 C38 1.232 . S
C38 O37 1.232 . S
C38 O39 1.218 . S
O39 C38 1.218 . S
C40 O33 1.275 . S
C40 O35 1.255 . S
C41 O42 1.258 . S
C41 O43 1.256 . S
O42 Cd34 2.381 . S
O42 C41 1.258 . S
O43 Cd34 2.378 . S
O43 C41 1.256 . S
O44 Cd45 2.300 . S
O44 C51 1.275 . S
Cd45 O44 2.300 . S
Cd45 O53 2.381 . S
Cd45 O54 2.378 1_556 S
O46 Cd47 2.385 1_566 S
O46 C51 1.255 . S
Cd47 O46 2.385 1_544 S
Cd47 O48 2.317 1_545 S
O48 Cd47 2.317 1_565 S
O48 C49 1.232 . S
C49 O48 1.232 . S
C49 O50 1.218 1_565 S
O50 C49 1.218 1_545 S
C51 O44 1.275 . S
C51 O46 1.255 . S
C52 O53 1.258 1_554 S
C52 O54 1.256 . S
O53 Cd45 2.381 . S
O53 C52 1.258 1_556 S
O54 Cd45 2.378 1_554 S
O54 C52 1.256 . S
O55 Cd56 2.300 . S
O55 C62 1.275 . S
Cd56 O55 2.300 . S
Cd56 O64 2.381 . S
Cd56 O65 2.378 . S
O57 Cd58 2.385 . S
O57 C62 1.255 . S
Cd58 O57 2.385 . S
Cd58 O59 2.317 . S
O59 Cd58 2.317 . S
O59 C60 1.232 . S
C60 O59 1.232 . S
C60 O61 1.218 . S
O61 C60 1.218 . S
C62 O55 1.275 . S
C62 O57 1.255 . S
C63 O64 1.258 . S
C63 O65 1.256 . S
O64 Cd56 2.381 . S
O64 C63 1.258 . S
O65 Cd56 2.378 . S
O65 C63 1.256 . S
O66 Cd67 2.300 . S
O66 C73 1.275 . S
Cd67 O66 2.300 . S
Cd67 O75 2.381 . S
Cd67 O76 2.378 . S
O68 Cd69 2.385 . S
O68 C73 1.255 . S
Cd69 O68 2.385 . S
Cd69 O70 2.317 . S
O70 Cd69 2.317 . S
O70 C71 1.232 . S
C71 O70 1.232 . S
C71 O72 1.218 . S
O72 C71 1.218 . S
C73 O66 1.275 . S
C73 O68 1.255 . S
C74 O75 1.258 . S
C74 O76 1.256 . S
O75 Cd67 2.381 . S
O75 C74 1.258 . S
O76 Cd67 2.378 . S
O76 C74 1.256 . S
O77 Cd78 2.300 . S
O77 C84 1.275 . S
Cd78 O77 2.300 . S
Cd78 O86 2.381 . S
Cd78 O87 2.378 . S
O79 Cd80 2.385 . S
O79 C84 1.255 . S
Cd80 O79 2.385 . S
Cd80 O81 2.317 . S
O81 Cd80 2.317 . S
O81 C82 1.232 . S
C82 O81 1.232 . S
C82 O83 1.218 . S
O83 C82 1.218 . S
C84 O77 1.275 . S
C84 O79 1.255 . S
C85 O86 1.258 . S
C85 O87 1.256 . S
O86 Cd78 2.381 . S
O86 C85 1.258 . S
O87 Cd78 2.378 . S
O87 C85 1.256 . S
Zn88 O94 1.920 . S
Zn88 O100 1.898 . S
Zn88 O103 1.905 . S
Zn89 O97 1.905 1_565 S
Zn89 O98 1.898 . S
Zn89 O106 1.920 . S
Zn90 O93 2.080 1_455 S
Zn90 O96 2.114 . S
Zn90 O99 2.120 1_445 S
Zn90 O101 2.120 . S
Zn90 O102 2.114 1_455 S
Zn90 O105 2.080 . S
C91 O96 1.166 . S
C91 O97 1.182 . S
C92 O98 1.167 1_655 S
C92 O99 1.299 . S
O93 Zn90 2.080 1_655 S
O93 C107 1.305 . S
O94 Zn88 1.920 . S
O94 C107 1.234 . S
C95 O100 1.167 1_455 S
C95 O101 1.299 . S
O96 Zn90 2.114 . S
O96 C91 1.166 . S
O97 Zn89 1.905 1_545 S
O97 C91 1.182 . S
O98 Zn89 1.898 . S
O98 C92 1.167 1_455 S
O99 Zn90 2.120 1_665 S
O99 C92 1.299 . S
O100 Zn88 1.898 . S
O100 C95 1.167 1_655 S
O101 Zn90 2.120 . S
O101 C95 1.299 . S
O102 Zn90 2.114 1_655 S
O102 C104 1.166 . S
O103 Zn88 1.905 . S
O103 C104 1.182 . S
C104 O102 1.166 . S
C104 O103 1.182 . S
O105 Zn90 2.080 . S
O105 C108 1.305 1_545 S
O106 Zn89 1.920 . S
O106 C108 1.234 . S
C107 O93 1.305 . S
C107 O94 1.234 . S
C108 O105 1.305 1_565 S
C108 O106 1.234 . S
Zn109 O115 1.920 . S
Zn109 O121 1.898 . S
Zn109 O124 1.905 . S
Zn110 O118 1.905 . S
Zn110 O119 1.898 . S
Zn110 O127 1.920 . S
Zn111 O114 2.080 . S
Zn111 O117 2.114 1_545 S
Zn111 O120 2.120 1_545 S
Zn111 O122 2.120 . S
Zn111 O123 2.110 1_545 S
Zn111 O126 2.080 . S
C112 O117 1.166 . S
C112 O118 1.182 . S
C113 O119 1.167 . S
C113 O120 1.299 . S
O114 Zn111 2.080 . S
O114 C128 1.305 . S
O115 Zn109 1.920 . S
O115 C128 1.234 . S
C116 O121 1.167 . S
C116 O122 1.299 . S
O117 Zn111 2.114 1_565 S
O117 C112 1.166 . S
O118 Zn110 1.905 . S
O118 C112 1.182 . S
O119 Zn110 1.898 . S
O119 C113 1.167 . S
O120 Zn111 2.120 1_565 S
O120 C113 1.299 . S
O121 Zn109 1.898 . S
O121 C116 1.167 . S
O122 Zn111 2.120 . S
O122 C116 1.299 . S
O123 Zn111 2.110 1_565 S
O123 C125 1.165 . S
O124 Zn109 1.905 . S
O124 C125 1.182 1_545 S
C125 O123 1.165 . S
C125 O124 1.182 1_565 S
O126 Zn111 2.080 . S
O126 C129 1.305 . S
O127 Zn110 1.920 . S
O127 C129 1.234 1_565 S
C128 O114 1.305 . S
C128 O115 1.234 . S
C129 O126 1.305 . S
C129 O127 1.234 1_545 S
Zn130 O136 1.920 . S
Zn130 O142 1.898 . S
Zn130 O145 1.905 . S
Zn131 O139 1.905 . S
Zn131 O140 1.898 . S
Zn131 O148 1.920 . S
Zn132 O135 2.080 . S
Zn132 O138 2.114 . S
Zn132 O141 2.120 . S
Zn132 O143 2.120 . S
Zn132 O144 2.114 . S
Zn132 O147 2.080 . S
C133 O138 1.166 . S
C133 O139 1.182 . S
C134 O140 1.167 . S
C134 O141 1.299 . S
O135 Zn132 2.080 . S
O135 C149 1.305 . S
O136 Zn130 1.920 . S
O136 C149 1.234 . S
C137 O142 1.167 . S
C137 O143 1.299 . S
O138 Zn132 2.114 . S
O138 C133 1.166 . S
O139 Zn131 1.905 . S
O139 C133 1.182 . S
O140 Zn131 1.898 . S
O140 C134 1.167 . S
O141 Zn132 2.120 . S
O141 C134 1.299 . S
O142 Zn130 1.898 . S
O142 C137 1.167 . S
O143 Zn132 2.120 . S
O143 C137 1.299 . S
O144 Zn132 2.114 . S
O144 C146 1.166 . S
O145 Zn130 1.905 . S
O145 C146 1.182 . S
C146 O144 1.166 . S
C146 O145 1.182 . S
O147 Zn132 2.080 . S
O147 C150 1.305 . S
O148 Zn131 1.920 . S
O148 C150 1.234 . S
C149 O135 1.305 . S
C149 O136 1.234 . S
C150 O147 1.305 . S
C150 O148 1.234 . S
Zn151 O157 1.920 . S
Zn151 O163 1.898 . S
Zn151 O166 1.905 . S
Zn152 O160 1.905 1_655 S
Zn152 O161 1.898 . S
Zn152 O169 1.920 . S
Zn153 O156 2.080 1_554 S
Zn153 O159 2.114 . S
Zn153 O162 2.120 1_554 S
Zn153 O164 2.120 . S
Zn153 O165 2.114 1_554 S
Zn153 O168 2.080 . S
C154 O159 1.166 . S
C154 O160 1.182 . S
C155 O161 1.167 1_556 S
C155 O162 1.299 1_655 S
O156 Zn153 2.080 1_556 S
O156 C170 1.305 . S
O157 Zn151 1.920 . S
O157 C170 1.234 . S
C158 O163 1.167 1_554 S
C158 O164 1.299 . S
O159 Zn153 2.114 . S
O159 C154 1.166 . S
O160 Zn152 1.905 1_455 S
O160 C154 1.182 . S
O161 Zn152 1.898 . S
O161 C155 1.167 1_554 S
O162 Zn153 2.120 1_556 S
O162 C155 1.299 1_455 S
O163 Zn151 1.898 . S
O163 C158 1.167 1_556 S
O164 Zn153 2.120 . S
O164 C158 1.299 . S
O165 Zn153 2.114 1_556 S
O165 C167 1.166 . S
O166 Zn151 1.905 . S
O166 C167 1.182 . S
C167 O165 1.166 . S
C167 O166 1.182 . S
O168 Zn153 2.080 . S
O168 C171 1.305 . S
O169 Zn152 1.920 . S
O169 C171 1.234 1_655 S
C170 O156 1.305 . S
C170 O157 1.234 . S
C171 O168 1.305 . S
C171 O169 1.234 1_455 S
H172 C178 0.930 . S
H173 C182 0.930 . S
H174 C187 0.929 . S
H175 C185 0.929 . S
H176 C180 0.929 . S
H177 C186 0.929 . S
C178 H172 0.930 . S
C178 C179 1.367 . S
C178 C186 1.378 . S
C179 C178 1.367 . S
C179 C187 1.433 . S
C180 H176 0.929 . S
C180 C182 1.378 . S
C180 C184 1.350 . S
C181 C184 1.463 . S
C181 C186 1.350 . S
C181 N189 1.427 . S
C182 H173 0.930 . S
C182 C180 1.378 . S
C182 C183 1.367 . S
C183 C182 1.367 . S
C183 C185 1.433 . S
C184 C180 1.350 . S
C184 C181 1.463 . S
C184 N188 1.427 . S
C185 H175 0.929 . S
C185 C183 1.433 . S
C185 N188 1.384 . S
C186 H177 0.929 . S
C186 C178 1.378 . S
C186 C181 1.350 . S
C187 H174 0.929 . S
C187 C179 1.433 . S
C187 N189 1.384 . S
N188 C184 1.427 . S
N188 C185 1.384 . S
N189 C181 1.427 . S
N189 C187 1.384 . S
H190 C196 0.930 . S
H191 C200 0.930 . S
H192 C205 0.929 . S
H193 C203 0.929 . S
H194 C198 0.929 . S
H195 C204 0.929 . S
C196 H190 0.930 . S
C196 C197 1.367 . S
C196 C204 1.378 . S
C197 C196 1.367 . S
C197 C205 1.433 . S
C198 H194 0.929 . S
C198 C200 1.378 . S
C198 C202 1.350 . S
C199 C202 1.463 . S
C199 C204 1.350 . S
C199 N207 1.427 . S
C200 H191 0.930 . S
C200 C198 1.378 . S
C200 C201 1.367 . S
C201 C200 1.367 . S
C201 C203 1.433 . S
C202 C198 1.350 . S
C202 C199 1.463 . S
C202 N206 1.427 . S
C203 H193 0.929 . S
C203 C201 1.433 . S
C203 N206 1.384 . S
C204 H195 0.929 . S
C204 C196 1.378 . S
C204 C199 1.350 . S
C205 H192 0.929 . S
C205 C197 1.433 . S
C205 N207 1.384 . S
N206 C202 1.427 . S
N206 C203 1.384 . S
N207 C199 1.427 . S
N207 C205 1.384 . S
H208 C214 0.930 . S
H209 C218 0.930 . S
H210 C223 0.929 . S
H211 C221 0.929 . S
H212 C216 0.929 . S
H213 C222 0.929 . S
C214 H208 0.930 . S
C214 C215 1.367 . S
C214 C222 1.378 . S
C215 C214 1.367 . S
C215 C223 1.433 . S
C216 H212 0.929 . S
C216 C218 1.378 . S
C216 C220 1.350 . S
C217 C220 1.463 . S
C217 C222 1.350 . S
C217 N225 1.427 . S
C218 H209 0.930 . S
C218 C216 1.378 . S
C218 C219 1.367 . S
C219 C218 1.367 . S
C219 C221 1.433 . S
C220 C216 1.350 . S
C220 C217 1.463 . S
C220 N224 1.427 . S
C221 H211 0.929 . S
C221 C219 1.433 . S
C221 N224 1.384 . S
C222 H213 0.929 . S
C222 C214 1.378 . S
C222 C217 1.350 . S
C223 H210 0.929 . S
C223 C215 1.433 . S
C223 N225 1.384 . S
N224 C220 1.427 . S
N224 C221 1.384 . S
N225 C217 1.427 . S
N225 C223 1.384 . S
H226 C232 0.930 . S
H227 C236 0.930 . S
H228 C241 0.929 . S
H229 C239 0.929 . S
H230 C234 0.929 . S
H231 C240 0.929 . S
C232 H226 0.930 . S
C232 C233 1.367 . S
C232 C240 1.378 . S
C233 C232 1.367 . S
C233 C241 1.433 . S
C234 H230 0.929 . S
C234 C236 1.378 . S
C234 C238 1.350 1_455 S
C235 C238 1.463 . S
C235 C240 1.350 . S
C235 N243 1.427 . S
C236 H227 0.930 . S
C236 C234 1.378 . S
C236 C237 1.367 . S
C237 C236 1.367 . S
C237 C239 1.433 1_455 S
C238 C234 1.350 1_655 S
C238 C235 1.463 . S
C238 N242 1.427 . S
C239 H229 0.929 . S
C239 C237 1.433 1_655 S
C239 N242 1.384 . S
C240 H231 0.929 . S
C240 C232 1.378 . S
C240 C235 1.350 . S
C241 H228 0.929 . S
C241 C233 1.433 . S
C241 N243 1.384 . S
N242 C238 1.427 . S
N242 C239 1.384 . S
N243 C235 1.427 . S
N243 C241 1.384 . S
H244 C250 0.930 . S
H245 C254 0.930 . S
H246 C259 0.929 . S
H247 C257 0.929 . S
H248 C252 0.929 . S
H249 C258 0.929 . S
C250 H244 0.930 . S
C250 C251 1.367 . S
C250 C258 1.378 . S
C251 C250 1.367 . S
C251 C259 1.433 . S
C252 H248 0.929 . S
C252 C254 1.378 . S
C252 C256 1.350 . S
C253 C256 1.463 . S
C253 C258 1.350 . S
C253 N261 1.427 . S
C254 H245 0.930 . S
C254 C252 1.378 . S
C254 C255 1.367 . S
C255 C254 1.367 . S
C255 C257 1.433 . S
C256 C252 1.350 . S
C256 C253 1.463 . S
C256 N260 1.427 . S
C257 H247 0.929 . S
C257 C255 1.433 . S
C257 N260 1.384 . S
C258 H249 0.929 . S
C258 C250 1.378 . S
C258 C253 1.350 . S
C259 H246 0.929 . S
C259 C251 1.433 . S
C259 N261 1.384 . S
N260 C256 1.427 . S
N260 C257 1.384 . S
N261 C253 1.427 . S
N261 C259 1.384 . S
H262 C268 0.930 . S
H263 C272 0.930 1_545 S
H264 C277 0.929 . S
H265 C275 0.929 . S
H266 C270 0.929 . S
H267 C276 0.929 . S
C268 H262 0.930 . S
C268 C269 1.367 . S
C268 C276 1.378 . S
C269 C268 1.367 . S
C269 C277 1.433 . S
C270 H266 0.929 . S
C270 C272 1.378 . S
C270 C274 1.350 . S
C271 C274 1.463 . S
C271 C276 1.350 . S
C271 N279 1.427 . S
C272 H263 0.930 1_565 S
C272 C270 1.378 . S
C272 C273 1.367 . S
C273 C272 1.367 . S
C273 C275 1.433 . S
C274 C270 1.350 . S
C274 C271 1.463 . S
C274 N278 1.427 . S
C275 H265 0.929 . S
C275 C273 1.433 . S
C275 N278 1.384 . S
C276 H267 0.929 . S
C276 C268 1.378 . S
C276 C271 1.350 . S
C277 H264 0.929 . S
C277 C269 1.433 . S
C277 N279 1.384 . S
N278 C274 1.427 . S
N278 C275 1.384 . S
N279 C271 1.427 . S
N279 C277 1.384 . S
H280 C286 0.930 . S
H281 C290 0.930 . S
H282 C295 0.929 . S
H283 C293 0.929 1_554 S
H284 C288 0.929 . S
H285 C294 0.929 . S
C286 H280 0.930 . S
C286 C287 1.367 . S
C286 C294 1.378 . S
C287 C286 1.367 . S
C287 C295 1.433 . S
C288 H284 0.929 . S
C288 C290 1.378 . S
C288 C292 1.350 . S
C289 C292 1.463 . S
C289 C294 1.350 . S
C289 N297 1.427 . S
C290 H281 0.930 . S
C290 C288 1.378 . S
C290 C291 1.367 . S
C291 C290 1.367 . S
C291 C293 1.433 . S
C292 C288 1.350 . S
C292 C289 1.463 . S
C292 N296 1.427 . S
C293 H283 0.929 1_556 S
C293 C291 1.433 . S
C293 N296 1.384 . S
C294 H285 0.929 . S
C294 C286 1.378 . S
C294 C289 1.350 . S
C295 H282 0.929 . S
C295 C287 1.433 . S
C295 N297 1.384 . S
N296 C292 1.427 . S
N296 C293 1.384 . S
N297 C289 1.427 . S
N297 C295 1.384 . S
H298 C304 0.930 . S
H299 C308 0.930 . S
H300 C313 0.929 . S
H301 C311 0.929 . S
H302 C306 0.929 . S
H303 C312 0.929 . S
C304 H298 0.930 . S
C304 C305 1.367 . S
C304 C312 1.378 . S
C305 C304 1.367 . S
C305 C313 1.433 . S
C306 H302 0.929 . S
C306 C308 1.378 . S
C306 C310 1.350 . S
C307 C310 1.463 . S
C307 C312 1.350 . S
C307 N315 1.427 . S
C308 H299 0.930 . S
C308 C306 1.378 . S
C308 C309 1.367 . S
C309 C308 1.367 . S
C309 C311 1.433 . S
C310 C306 1.350 . S
C310 C307 1.463 . S
C310 N314 1.427 . S
C311 H301 0.929 . S
C311 C309 1.433 . S
C311 N314 1.384 . S
C312 H303 0.929 . S
C312 C304 1.378 . S
C312 C307 1.350 . S
C313 H300 0.929 . S
C313 C305 1.433 . S
C313 N315 1.384 . S
N314 C310 1.427 . S
N314 C311 1.384 . S
N315 C307 1.427 . S
N315 C313 1.384 . S
H316 C322 0.930 . S
H317 C326 0.930 . S
H318 C331 0.929 . S
H319 C329 0.929 . S
H320 C324 0.929 . S
H321 C330 0.929 . S
C322 H316 0.930 . S
C322 C323 1.367 . S
C322 C330 1.378 . S
C323 C322 1.367 . S
C323 C331 1.433 . S
C324 H320 0.929 . S
C324 C326 1.378 . S
C324 C328 1.350 . S
C325 C328 1.463 . S
C325 C330 1.350 . S
C325 N333 1.427 . S
C326 H317 0.930 . S
C326 C324 1.378 . S
C326 C327 1.367 . S
C327 C326 1.367 . S
C327 C329 1.433 . S
C328 C324 1.350 . S
C328 C325 1.463 . S
C328 N332 1.427 . S
C329 H319 0.929 . S
C329 C327 1.433 . S
C329 N332 1.384 . S
C330 H321 0.929 . S
C330 C322 1.378 . S
C330 C325 1.350 . S
C331 H318 0.929 . S
C331 C323 1.433 . S
C331 N333 1.384 . S
N332 C328 1.427 . S
N332 C329 1.384 . S
N333 C325 1.427 . S
N333 C331 1.384 . S
H334 C340 0.930 . S
H335 C344 0.930 . S
H336 C349 0.929 . S
H337 C347 0.929 . S
H338 C342 0.929 . S
H339 C348 0.929 . S
C340 H334 0.930 . S
C340 C341 1.367 . S
C340 C348 1.378 . S
C341 C340 1.367 . S
C341 C349 1.433 . S
C342 H338 0.929 . S
C342 C344 1.378 . S
C342 C346 1.350 1_554 S
C343 C346 1.463 . S
C343 C348 1.350 . S
C343 N351 1.427 . S
C344 H335 0.930 . S
C344 C342 1.378 . S
C344 C345 1.367 . S
C345 C344 1.367 . S
C345 C347 1.433 1_554 S
C346 C342 1.350 1_556 S
C346 C343 1.463 . S
C346 N350 1.427 . S
C347 H337 0.929 . S
C347 C345 1.433 1_556 S
C347 N350 1.384 . S
C348 H339 0.929 . S
C348 C340 1.378 . S
C348 C343 1.350 . S
C349 H336 0.929 . S
C349 C341 1.433 . S
C349 N351 1.384 . S
N350 C346 1.427 . S
N350 C347 1.384 . S
N351 C343 1.427 . S
N351 C349 1.384 . S
H352 C358 0.930 . S
H353 C362 0.930 . S
H354 C367 0.929 . S
H355 C365 0.929 1_455 S
H356 C360 0.929 . S
H357 C366 0.929 . S
C358 H352 0.930 . S
C358 C359 1.367 . S
C358 C366 1.378 . S
C359 C358 1.367 . S
C359 C367 1.433 . S
C360 H356 0.929 . S
C360 C362 1.378 . S
C360 C364 1.350 . S
C361 C364 1.463 . S
C361 C366 1.350 . S
C361 N369 1.427 . S
C362 H353 0.930 . S
C362 C360 1.378 . S
C362 C363 1.367 . S
C363 C362 1.367 . S
C363 C365 1.433 . S
C364 C360 1.350 . S
C364 C361 1.463 . S
C364 N368 1.427 . S
C365 H355 0.929 1_655 S
C365 C363 1.433 . S
C365 N368 1.384 . S
C366 H357 0.929 . S
C366 C358 1.378 . S
C366 C361 1.350 . S
C367 H354 0.929 . S
C367 C359 1.433 . S
C367 N369 1.384 . S
N368 C364 1.427 . S
N368 C365 1.384 . S
N369 C361 1.427 . S
N369 C367 1.384 . S
H370 C376 0.930 . S
H371 C380 0.930 . S
H372 C385 0.929 . S
H373 C383 0.929 . S
H374 C378 0.929 . S
H375 C384 0.929 . S
C376 H370 0.930 . S
C376 C377 1.367 . S
C376 C384 1.378 . S
C377 C376 1.367 . S
C377 C385 1.433 . S
C378 H374 0.929 . S
C378 C380 1.378 . S
C378 C382 1.350 . S
C379 C382 1.463 . S
C379 C384 1.350 . S
C379 N387 1.427 . S
C380 H371 0.930 . S
C380 C378 1.378 . S
C380 C381 1.367 . S
C381 C380 1.367 . S
C381 C383 1.433 . S
C382 C378 1.350 . S
C382 C379 1.463 . S
C382 N386 1.427 . S
C383 H373 0.929 . S
C383 C381 1.433 . S
C383 N386 1.384 . S
C384 H375 0.929 . S
C384 C376 1.378 . S
C384 C379 1.350 . S
C385 H372 0.929 . S
C385 C377 1.433 . S
C385 N387 1.384 . S
N386 C382 1.427 . S
N386 C383 1.384 . S
N387 C379 1.427 . S
N387 C385 1.384 . S
H388 C394 0.930 . S
H389 C398 0.930 . S
H390 C403 0.929 . S
H391 C401 0.929 . S
H392 C396 0.929 . S
H393 C402 0.929 1_455 S
C394 H388 0.930 . S
C394 C395 1.367 1_545 S
C394 C402 1.378 . S
C395 C394 1.367 1_565 S
C395 C403 1.433 . S
C396 H392 0.929 . S
C396 C398 1.378 . S
C396 C400 1.350 . S
C397 C400 1.463 . S
C397 C402 1.350 1_565 S
C397 N405 1.427 . S
C398 H389 0.930 . S
C398 C396 1.378 . S
C398 C399 1.367 . S
C399 C398 1.367 . S
C399 C401 1.433 1_665 S
C400 C396 1.350 . S
C400 C397 1.463 . S
C400 N404 1.420 1_665 S
C401 H391 0.929 . S
C401 C399 1.433 1_445 S
C401 N404 1.386 . S
C402 H393 0.929 1_655 S
C402 C394 1.378 . S
C402 C397 1.350 1_545 S
C403 H390 0.929 . S
C403 C395 1.433 . S
C403 N405 1.384 . S
N404 C400 1.420 1_445 S
N404 C401 1.386 . S
N405 C397 1.427 . S
N405 C403 1.384 . S
H406 C412 0.930 . S
H407 C416 0.930 . S
H408 C421 0.929 . S
H409 C419 0.929 . S
H410 C414 0.929 . S
H411 C420 0.929 . S
C412 H406 0.930 . S
C412 C413 1.367 . S
C412 C420 1.378 . S
C413 C412 1.367 . S
C413 C421 1.433 . S
C414 H410 0.929 . S
C414 C416 1.378 . S
C414 C418 1.350 . S
C415 C418 1.463 . S
C415 C420 1.350 . S
C415 N423 1.427 . S
C416 H407 0.930 . S
C416 C414 1.378 . S
C416 C417 1.367 . S
C417 C416 1.367 . S
C417 C419 1.433 . S
C418 C414 1.350 . S
C418 C415 1.463 . S
C418 N422 1.427 . S
C419 H409 0.929 . S
C419 C417 1.433 . S
C419 N422 1.384 . S
C420 H411 0.929 . S
C420 C412 1.378 . S
C420 C415 1.350 . S
C421 H408 0.929 . S
C421 C413 1.433 . S
C421 N423 1.384 . S
N422 C418 1.427 . S
N422 C419 1.384 . S
N423 C415 1.427 . S
N423 C421 1.384 . S
H424 C430 0.930 . S
H425 C434 0.930 . S
H426 C439 0.929 . S
H427 C437 0.929 . S
H428 C432 0.929 . S
H429 C438 0.929 . S
C430 H424 0.930 . S
C430 C431 1.367 . S
C430 C438 1.378 . S
C431 C430 1.367 . S
C431 C439 1.433 . S
C432 H428 0.929 . S
C432 C434 1.378 . S
C432 C436 1.350 . S
C433 C436 1.463 . S
C433 C438 1.350 . S
C433 N441 1.427 . S
C434 H425 0.930 . S
C434 C432 1.378 . S
C434 C435 1.367 . S
C435 C434 1.367 . S
C435 C437 1.433 . S
C436 C432 1.350 . S
C436 C433 1.463 . S
C436 N440 1.427 . S
C437 H427 0.929 . S
C437 C435 1.433 . S
C437 N440 1.384 . S
C438 H429 0.929 . S
C438 C430 1.378 . S
C438 C433 1.350 . S
C439 H426 0.929 . S
C439 C431 1.433 . S
C439 N441 1.384 . S
N440 C436 1.427 . S
N440 C437 1.384 . S
N441 C433 1.427 . S
N441 C439 1.384 . S
H442 C448 0.930 . S
H443 C452 0.930 . S
H444 C457 0.929 . S
H445 C455 0.929 . S
H446 C450 0.929 . S
H447 C456 0.929 . S
C448 H442 0.930 . S
C448 C449 1.367 . S
C448 C456 1.378 . S
C449 C448 1.367 . S
C449 C457 1.433 . S
C450 H446 0.929 . S
C450 C452 1.378 . S
C450 C454 1.350 . S
C451 C454 1.463 . S
C451 C456 1.350 . S
C451 N459 1.427 . S
C452 H443 0.930 . S
C452 C450 1.378 . S
C452 C453 1.367 . S
C453 C452 1.367 . S
C453 C455 1.433 . S
C454 C450 1.350 . S
C454 C451 1.463 . S
C454 N458 1.427 . S
C455 H445 0.929 . S
C455 C453 1.433 . S
C455 N458 1.384 . S
C456 H447 0.929 . S
C456 C448 1.378 . S
C456 C451 1.350 . S
C457 H444 0.929 . S
C457 C449 1.433 . S
C457 N459 1.384 . S
N458 C454 1.427 . S
N458 C455 1.384 . S
N459 C451 1.427 . S
N459 C457 1.384 . S
H460 C466 0.930 . S
H461 C470 0.930 . S
H462 C475 0.929 1_556 S
H463 C473 0.929 . S
H464 C468 0.929 . S
H465 C474 0.929 . S
C466 H460 0.930 . S
C466 C467 1.367 1_545 S
C466 C474 1.378 . S
C467 C466 1.367 1_565 S
C467 C475 1.433 . S
C468 H464 0.929 . S
C468 C470 1.378 . S
C468 C472 1.350 . S
C469 C472 1.463 . S
C469 C474 1.350 1_565 S
C469 N477 1.427 . S
C470 H461 0.930 . S
C470 C468 1.378 . S
C470 C471 1.342 1_565 S
C471 C470 1.342 1_545 S
C471 C473 1.454 . S
C472 C468 1.350 . S
C472 C469 1.463 . S
C472 N476 1.427 1_565 S
C473 H463 0.929 . S
C473 C471 1.454 . S
C473 N476 1.384 . S
C474 H465 0.929 . S
C474 C466 1.378 . S
C474 C469 1.350 1_545 S
C475 H462 0.929 1_554 S
C475 C467 1.433 . S
C475 N477 1.384 . S
N476 C472 1.427 1_545 S
N476 C473 1.384 . S
N477 C469 1.427 . S
N477 C475 1.384 . S
H478 C484 0.930 . S
H479 C488 0.930 . S
H480 C493 0.929 . S
H481 C491 0.929 . S
H482 C486 0.929 . S
H483 C492 0.929 . S
C484 H478 0.930 . S
C484 C485 1.367 . S
C484 C492 1.378 . S
C485 C484 1.367 . S
C485 C493 1.433 . S
C486 H482 0.929 . S
C486 C488 1.378 . S
C486 C490 1.350 . S
C487 C490 1.463 . S
C487 C492 1.350 . S
C487 N495 1.427 . S
C488 H479 0.930 . S
C488 C486 1.378 . S
C488 C489 1.367 . S
C489 C488 1.367 . S
C489 C491 1.433 . S
C490 C486 1.350 . S
C490 C487 1.463 . S
C490 N494 1.427 . S
C491 H481 0.929 . S
C491 C489 1.433 . S
C491 N494 1.384 . S
C492 H483 0.929 . S
C492 C484 1.378 . S
C492 C487 1.350 . S
C493 H480 0.929 . S
C493 C485 1.433 . S
C493 N495 1.384 . S
N494 C490 1.427 . S
N494 C491 1.384 . S
N495 C487 1.427 . S
N495 C493 1.384 . S
H496 C502 0.930 . S
H497 C506 0.930 . S
H498 C511 0.929 . S
H499 C509 0.929 . S
H500 C504 0.929 . S
H501 C510 0.929 . S
C502 H496 0.930 . S
C502 C503 1.367 . S
C502 C510 1.378 . S
C503 C502 1.367 . S
C503 C511 1.433 . S
C504 H500 0.929 . S
C504 C506 1.378 . S
C504 C508 1.350 . S
C505 C508 1.463 . S
C505 C510 1.350 . S
C505 N513 1.427 . S
C506 H497 0.930 . S
C506 C504 1.378 . S
C506 C507 1.367 . S
C507 C506 1.367 . S
C507 C509 1.433 . S
C508 C504 1.350 . S
C508 C505 1.463 . S
C508 N512 1.427 . S
C509 H499 0.929 . S
C509 C507 1.433 . S
C509 N512 1.384 . S
C510 H501 0.929 . S
C510 C502 1.378 . S
C510 C505 1.350 . S
C511 H498 0.929 . S
C511 C503 1.433 . S
C511 N513 1.384 . S
N512 C508 1.427 . S
N512 C509 1.384 . S
N513 C505 1.427 . S
N513 C511 1.384 . S
H514 C520 0.930 . S
H515 C524 0.930 . S
H516 C529 0.929 . S
H517 C527 0.929 . S
H518 C522 0.929 . S
H519 C528 0.929 . S
C520 H514 0.930 . S
C520 C521 1.367 . S
C520 C528 1.378 . S
C521 C520 1.367 . S
C521 C529 1.433 . S
C522 H518 0.929 . S
C522 C524 1.378 . S
C522 C526 1.350 . S
C523 C526 1.463 . S
C523 C528 1.350 . S
C523 N531 1.427 . S
C524 H515 0.930 . S
C524 C522 1.378 . S
C524 C525 1.367 . S
C525 C524 1.367 . S
C525 C527 1.433 . S
C526 C522 1.350 . S
C526 C523 1.463 . S
C526 N530 1.427 . S
C527 H517 0.929 . S
C527 C525 1.433 . S
C527 N530 1.384 . S
C528 H519 0.929 . S
C528 C520 1.378 . S
C528 C523 1.350 . S
C529 H516 0.929 . S
C529 C521 1.433 . S
C529 N531 1.384 . S
N530 C526 1.427 . S
N530 C527 1.384 . S
N531 C523 1.427 . S
N531 C529 1.384 . S
H532 C538 0.930 . S
H533 C542 0.930 . S
H534 C547 0.929 1_655 S
H535 C545 0.929 . S
H536 C540 0.929 . S
H537 C546 0.929 . S
C538 H532 0.930 . S
C538 C539 1.367 1_556 S
C538 C546 1.378 . S
C539 C538 1.367 1_554 S
C539 C547 1.433 . S
C540 H536 0.929 . S
C540 C542 1.378 . S
C540 C544 1.350 . S
C541 C544 1.463 . S
C541 C546 1.350 1_554 S
C541 N549 1.427 . S
C542 H533 0.930 . S
C542 C540 1.378 . S
C542 C543 1.367 . S
C543 C542 1.367 . S
C543 C545 1.433 1_554 S
C544 C540 1.350 . S
C544 C541 1.463 . S
C544 N548 1.427 1_554 S
C545 H535 0.929 . S
C545 C543 1.433 1_556 S
C545 N548 1.384 . S
C546 H537 0.929 . S
C546 C538 1.378 . S
C546 C541 1.350 1_556 S
C547 H534 0.929 1_455 S
C547 C539 1.433 . S
C547 N549 1.384 . S
N548 C544 1.427 1_556 S
N548 C545 1.384 . S
N549 C541 1.427 . S
N549 C547 1.384 . S
H550 C556 0.930 . S
H551 C560 0.930 . S
H552 C565 0.929 . S
H553 C563 0.929 . S
H554 C558 0.929 . S
H555 C564 0.929 . S
C556 H550 0.930 . S
C556 C557 1.367 . S
C556 C564 1.378 . S
C557 C556 1.367 . S
C557 C565 1.433 . S
C558 H554 0.929 . S
C558 C560 1.378 . S
C558 C562 1.350 . S
C559 C562 1.463 . S
C559 C564 1.350 . S
C559 N567 1.427 . S
C560 H551 0.930 . S
C560 C558 1.378 . S
C560 C561 1.367 . S
C561 C560 1.367 . S
C561 C563 1.433 . S
C562 C558 1.350 . S
C562 C559 1.463 . S
C562 N566 1.427 . S
C563 H553 0.929 . S
C563 C561 1.433 . S
C563 N566 1.384 . S
C564 H555 0.929 . S
C564 C556 1.378 . S
C564 C559 1.350 . S
C565 H552 0.929 . S
C565 C557 1.433 . S
C565 N567 1.384 . S
N566 C562 1.427 . S
N566 C563 1.384 . S
N567 C559 1.427 . S
N567 C565 1.384 . S
H568 C574 0.930 . S
H569 C578 0.930 1_655 S
H570 C583 0.929 . S
H571 C581 0.929 . S
H572 C576 0.929 1_655 S
H573 C582 0.929 . S
C574 H568 0.930 . S
C574 C575 1.367 . S
C574 C582 1.378 . S
C575 C574 1.367 . S
C575 C583 1.433 . S
C576 H572 0.929 1_455 S
C576 C578 1.378 . S
C576 C580 1.350 . S
C577 C580 1.463 . S
C577 C582 1.350 . S
C577 N585 1.427 . S
C578 H569 0.930 1_455 S
C578 C576 1.378 . S
C578 C579 1.367 . S
C579 C578 1.367 . S
C579 C581 1.433 . S
C580 C576 1.350 . S
C580 C577 1.463 . S
C580 N584 1.427 . S
C581 H571 0.929 . S
C581 C579 1.433 . S
C581 N584 1.384 . S
C582 H573 0.929 . S
C582 C574 1.378 . S
C582 C577 1.350 . S
C583 H570 0.929 . S
C583 C575 1.433 . S
C583 N585 1.384 . S
N584 C580 1.427 . S
N584 C581 1.384 . S
N585 C577 1.427 . S
N585 C583 1.384 . S
H586 C592 0.930 . S
H587 C596 0.930 . S
H588 C601 0.929 . S
H589 C599 0.929 . S
H590 C594 0.929 . S
H591 C600 0.929 . S
C592 H586 0.930 . S
C592 C593 1.367 . S
C592 C600 1.378 . S
C593 C592 1.367 . S
C593 C601 1.433 . S
C594 H590 0.929 . S
C594 C596 1.378 . S
C594 C598 1.350 . S
C595 C598 1.463 . S
C595 C600 1.350 . S
C595 N603 1.427 . S
C596 H587 0.930 . S
C596 C594 1.378 . S
C596 C597 1.367 . S
C597 C596 1.367 . S
C597 C599 1.433 . S
C598 C594 1.350 . S
C598 C595 1.463 . S
C598 N602 1.427 . S
C599 H589 0.929 . S
C599 C597 1.433 . S
C599 N602 1.384 . S
C600 H591 0.929 . S
C600 C592 1.378 . S
C600 C595 1.350 . S
C601 H588 0.929 . S
C601 C593 1.433 . S
C601 N603 1.384 . S
N602 C598 1.427 . S
N602 C599 1.384 . S
N603 C595 1.427 . S
N603 C601 1.384 . S
C179 C5 1.667 . S
C183 C91 1.720 . S
C197 C18 1.556 . S
C201 C125 1.500 1_556 S
C219 C137 1.232 . S
C215 C30 1.304 . S
C233 C41 1.253 . S
C237 C171 1.205 . S
C255 C128 1.676 . S
C251 C7 1.723 . S
C273 C108 1.650 . S
C269 C16 1.552 . S
C291 C155 1.413 . S
C287 C29 1.487 . S
C309 C146 1.052 . S
C305 C38 1.028 . S
C323 C8 1.678 . S
C327 C154 1.561 . S
C345 C116 1.575 . S
C341 C27 1.493 . S
C359 C40 1.473 . S
C363 C92 1.385 . S
C377 C19 1.255 . S
C381 C149 1.203 . S
C399 C107 1.583 1_565 S
C395 C51 1.673 . S
C413 C62 1.628 . S
C417 C129 1.629 . S
C431 C74 1.491 . S
C435 C134 1.458 . S
C449 C84 1.359 . S
C453 C167 1.406 . S
C467 C49 1.902 . S
C471 C112 1.850 1_545 S
C489 C104 1.518 . S
C485 C63 1.562 . S
C507 C158 1.430 . S
C503 C71 1.186 . S
C525 C150 1.240 . S
C521 C85 1.278 . S
C539 C52 1.701 1_455 S
C543 C170 1.618 1_554 S
C561 C113 1.794 . S
C557 C73 1.771 . S
C579 C95 1.387 . S
C575 C82 1.132 . S
C593 C60 1.377 . S
C597 C133 1.653 . S
