# Generated by pormake.
# Topology bcu-b, (8,8)-cn, num edge types: 1
# Building blocks:
#     Node 0, Type 0, BuildingBlock: TAGTUT_clean_sbu_1, # of connection points: 8
#     Node 1, Type 1, BuildingBlock: TAGTUT_clean_sbu_1, # of connection points: 8
#     Edge 2, Type (0, 1), BuildingBlock: FUNLAD_clean_linker_1, # of connection points: 2
#     Edge 3, Type (0, 1), BuildingBlock: FUNLAD_clean_linker_1, # of connection points: 2
#     Edge 4, Type (0, 1), BuildingBlock: FUNLAD_clean_linker_1, # of connection points: 2
#     Edge 5, Type (0, 1), BuildingBlock: FUNLAD_clean_linker_1, # of connection points: 2
#     Edge 6, Type (0, 1), BuildingBlock: FUNLAD_clean_linker_1, # of connection points: 2
#     Edge 7, Type (0, 1), BuildingBlock: FUNLAD_clean_linker_1, # of connection points: 2
#     Edge 8, Type (0, 1), BuildingBlock: FUNLAD_clean_linker_1, # of connection points: 2
#     Edge 9, Type (0, 1), BuildingBlock: FUNLAD_clean_linker_1, # of connection points: 2
# Relax obj value: 0.018
# Max RMSD: 0.078
# Mean RMSD: 0.078
data_MOF--net-bcu-b--node1-TAGTUT_clean_sbu_1--node2-TAGTUT_clean_sbu_1--edge1-FUNLAD_clean_linker_1
_symmetry_space_group_name_H-M    P1
_symmetry_Int_Tables_number       1
_symmetry_cell_setting            triclinic
loop_
_symmetry_equiv_pos_as_xyz
'x, y, z'
_cell_length_a     20.857418
_cell_length_b     19.46449
_cell_length_c     22.429635
_cell_angle_alpha  90.288672
_cell_angle_beta   93.829004
_cell_angle_gamma 106.54846
loop_
_atom_site_label
_atom_site_type_symbol
_atom_site_fract_x
_atom_site_fract_y
_atom_site_fract_z
_atom_type_partial_charge
C0 C 0.83756 0.12917 0.04596 0.0
C1 C 0.90078 0.12788 0.86706 0.0
C2 C 0.89424 0.85158 0.91147 0.0
Mg3 Mg 0.97393 0.14605 -0.00872 0.0
O4 O 0.9461 0.0472 0.00292 0.0
Mg5 Mg 0.85734 -0.00836 0.96382 0.0
Mg6 Mg 0.00289 -0.01295 -0.02164 0.0
O7 O 0.05977 0.92669 0.95417 0.0
Mg8 Mg 0.03293 0.82763 0.96663 0.0
Mg9 Mg 0.14871 0.98369 -0.008 0.0
C10 C 0.11238 0.12301 0.04432 0.0
C11 C 0.1076 0.07777 0.88578 0.0
O12 O 0.81332 0.068 0.01862 0.0
O13 O 0.89834 0.16756 0.04252 0.0
O14 O 0.86457 0.06763 0.88438 0.0
O15 O 0.95144 0.16576 0.89906 0.0
O16 O 0.07646 0.16509 0.02982 0.0
O17 O 0.09114 0.0549 0.03577 0.0
C18 C 0.89728 0.89652 0.07044 0.0
O19 O 0.95839 0.91346 0.05617 0.0
O20 O 0.85291 0.91969 0.04187 0.0
O21 O 0.19269 0.90663 0.93726 0.0
O22 O 0.10753 0.80707 0.91378 0.0
O23 O 0.14209 0.91158 0.07274 0.0
C24 C 0.16818 0.84549 0.90984 0.0
O25 O 0.06072 0.80849 0.05887 0.0
O26 O 0.92987 0.80939 0.9271 0.0
C27 C 0.10902 0.85072 0.09097 0.0
O28 O 0.91517 0.91971 0.9204 0.0
O29 O 0.0467 0.06055 0.90049 0.0
O30 O 0.15225 0.05444 0.91363 0.0
C31 C 0.33557 0.62752 0.54615 0.0
C32 C 0.39758 0.62632 0.36574 0.0
C33 C 0.39097 0.3528 0.40676 0.0
Mg34 Mg 0.47169 0.64547 0.4908 0.0
O35 O 0.44375 0.54614 0.50168 0.0
Mg36 Mg 0.35506 0.49083 0.46208 0.0
Mg37 Mg 0.50043 0.48578 0.47686 0.0
O38 O 0.55674 0.4255 0.45152 0.0
Mg39 Mg 0.52739 0.32625 0.46098 0.0
Mg40 Mg 0.64515 0.47897 0.49237 0.0
C41 C 0.60901 0.6186 0.54667 0.0
C42 C 0.60841 0.57827 0.38755 0.0
O43 O 0.31095 0.56703 0.51774 0.0
O44 O 0.39652 0.66557 0.5432 0.0
O45 O 0.36367 0.56522 0.38281 0.0
O46 O 0.44577 0.66737 0.39876 0.0
O47 O 0.57403 0.66152 0.53129 0.0
O48 O 0.58771 0.55062 0.53681 0.0
C49 C 0.39331 0.39291 0.56664 0.0
O50 O 0.45452 0.41013 0.55279 0.0
O51 O 0.34945 0.41758 0.53897 0.0
O52 O 0.68912 0.40337 0.43657 0.0
O53 O 0.60363 0.30504 0.41042 0.0
O54 O 0.63536 0.40027 0.57003 0.0
C55 C 0.66475 0.34291 0.40817 0.0
O56 O 0.54763 0.30342 0.55292 0.0
O57 O 0.42583 0.30948 0.42061 0.0
C58 C 0.59813 0.33981 0.58595 0.0
O59 O 0.41282 0.42045 0.41757 0.0
O60 O 0.547 0.56142 0.40099 0.0
O61 O 0.65195 0.55366 0.4159 0.0
H62 H 0.19757 0.11353 0.10274 0.0
C63 C 0.17437 0.15184 0.08205 0.0
H64 H 0.16709 0.25784 0.08447 0.0
H65 H 0.19105 0.25146 0.36543 0.0
H66 H 0.07445 0.24838 0.34464 0.0
H67 H 0.02478 0.23888 0.24086 0.0
H68 H 0.09115 0.23265 0.15755 0.0
C69 C 0.19142 0.21955 0.10331 0.0
C70 C 0.2241 0.23488 0.1641 0.0
C71 C 0.18433 0.23979 0.21204 0.0
C72 C 0.21272 0.24549 0.27166 0.0
C73 C 0.17195 0.2483 0.31913 0.0
C74 C 0.10493 0.24618 0.30785 0.0
C75 C 0.07697 0.24078 0.24945 0.0
C76 C 0.11583 0.23736 0.20196 0.0
H77 H 0.30758 0.36604 0.3478 0.0
C78 C 0.32991 0.32644 0.36737 0.0
H79 H 0.33641 0.22034 0.36152 0.0
H80 H 0.31364 0.23088 0.08139 0.0
H81 H 0.43045 0.23461 0.1021 0.0
H82 H 0.4803 0.24461 0.20584 0.0
H83 H 0.4139 0.2506 0.28921 0.0
C84 C 0.31276 0.25976 0.34386 0.0
C85 C 0.28063 0.24709 0.28274 0.0
C86 C 0.32055 0.24282 0.23476 0.0
C87 C 0.29212 0.23699 0.17517 0.0
C88 C 0.33285 0.23424 0.12767 0.0
C89 C 0.39998 0.23672 0.1389 0.0
C90 C 0.42803 0.24239 0.19729 0.0
C91 C 0.38915 0.24564 0.24481 0.0
H92 H 0.74481 0.11889 0.09186 0.0
C93 C 0.79609 0.15186 0.08845 0.0
H94 H 0.87401 0.24005 0.12535 0.0
H95 H 0.67493 0.37156 0.25896 0.0
H96 H 0.69348 0.44931 0.17404 0.0
H97 H 0.75442 0.4239 0.08996 0.0
H98 H 0.79698 0.32001 0.09038 0.0
C99 C 0.82281 0.20651 0.12782 0.0
C100 C 0.78544 0.22104 0.17814 0.0
C101 C 0.76201 0.28254 0.17765 0.0
C102 C 0.7277 0.29769 0.22648 0.0
C103 C 0.70271 0.35821 0.22383 0.0
C104 C 0.71267 0.40318 0.17511 0.0
C105 C 0.74696 0.38884 0.12777 0.0
C106 C 0.77125 0.32915 0.12866 0.0
H107 H 0.75807 0.35339 0.36307 0.0
C108 C 0.70667 0.3205 0.36594 0.0
H109 H 0.62902 0.23259 0.32823 0.0
H110 H 0.8289 0.10155 0.19546 0.0
H111 H 0.81051 0.02389 0.28046 0.0
H112 H 0.74952 0.04927 0.36451 0.0
H113 H 0.70678 0.15305 0.36401 0.0
C114 C 0.6803 0.26611 0.32625 0.0
C115 C 0.71813 0.25188 0.27616 0.0
C116 C 0.74168 0.19046 0.27671 0.0
C117 C 0.77599 0.17531 0.22788 0.0
C118 C 0.80108 0.11486 0.23057 0.0
C119 C 0.79122 0.06995 0.27935 0.0
C120 C 0.75691 0.08428 0.32667 0.0
C121 C 0.73251 0.14389 0.32573 0.0
H122 H 0.91209 0.8276 0.14598 0.0
C123 C 0.87592 0.84901 0.12105 0.0
H124 H 0.7751 0.85218 0.11019 0.0
H125 H 0.63932 0.56459 0.23154 0.0
H126 H 0.61535 0.52697 0.12728 0.0
H127 H 0.66885 0.60576 0.04791 0.0
H128 H 0.74695 0.7226 0.07243 0.0
C129 C 0.81179 0.83233 0.13598 0.0
C130 C 0.78542 0.78295 0.18442 0.0
C131 C 0.73925 0.71517 0.1693 0.0
C132 C 0.70792 0.67004 0.21499 0.0
C133 C 0.66358 0.60171 0.19867 0.0
C134 C 0.64956 0.57926 0.13893 0.0
C135 C 0.67968 0.62361 0.09425 0.0
C136 C 0.72419 0.69069 0.10896 0.0
H137 H 0.59507 0.64834 0.31246 0.0
C138 C 0.6309 0.62694 0.3379 0.0
H139 H 0.73181 0.62444 0.35044 0.0
H140 H 0.86874 0.91149 0.22843 0.0
H141 H 0.89252 0.94933 0.33268 0.0
H142 H 0.83894 0.87063 0.41209 0.0
H143 H 0.76086 0.75375 0.38761 0.0
C144 C 0.69543 0.64417 0.32407 0.0
C145 C 0.72235 0.69335 0.27564 0.0
C146 C 0.76861 0.7611 0.29076 0.0
C147 C 0.79995 0.8062 0.24506 0.0
C148 C 0.84437 0.87449 0.26134 0.0
C149 C 0.85833 0.89702 0.32106 0.0
C150 C 0.82815 0.85273 0.36576 0.0
C151 C 0.78364 0.78563 0.35108 0.0
H152 H 0.16449 0.86741 0.17888 0.0
C153 C 0.13651 0.8263 0.14639 0.0
H154 H 0.12284 0.72112 0.11396 0.0
H155 H 0.41495 0.72166 0.20686 0.0
H156 H 0.4213 0.72153 0.09925 0.0
H157 H 0.32685 0.73396 0.03213 0.0
H158 H 0.2257 0.74665 0.07203 0.0
C159 C 0.14525 0.76064 0.14942 0.0
C160 C 0.19993 0.74806 0.19044 0.0
C161 C 0.25859 0.73969 0.1662 0.0
C162 C 0.31301 0.732 0.20483 0.0
C163 C 0.37163 0.72597 0.17949 0.0
C164 C 0.37612 0.72633 0.11781 0.0
C165 C 0.32298 0.73339 0.08004 0.0
C166 C 0.26498 0.74038 0.10365 0.0
H167 H 0.3434 0.61208 0.27735 0.0
C168 C 0.3712 0.65236 0.31058 0.0
H169 H 0.38503 0.75686 0.34464 0.0
H170 H 0.09371 0.75888 0.25119 0.0
H171 H 0.08736 0.75904 0.35879 0.0
H172 H 0.18167 0.74627 0.42592 0.0
H173 H 0.28271 0.73328 0.38603 0.0
C174 C 0.36278 0.7182 0.30854 0.0
C175 C 0.30851 0.73182 0.2676 0.0
C176 C 0.24991 0.74037 0.29185 0.0
C177 C 0.19552 0.74814 0.25322 0.0
C178 C 0.13697 0.75439 0.27855 0.0
C179 C 0.13248 0.75408 0.34023 0.0
C180 C 0.18555 0.74684 0.37801 0.0
C181 C 0.24349 0.73968 0.35441 0.0
H182 H 0.26071 0.85464 0.86362 0.0
C183 C 0.2093 0.82217 0.86723 0.0
H184 H 0.12995 0.73595 0.83 0.0
H185 H 0.23146 0.75513 0.57165 0.0
H186 H 0.13673 0.80352 0.55691 0.0
H187 H 0.07824 0.82878 0.64278 0.0
H188 H 0.11431 0.80607 0.7439 0.0
C189 C 0.1823 0.76651 0.82878 0.0
C190 C 0.21848 0.75154 0.77762 0.0
C191 C 0.19598 0.76409 0.71864 0.0
C192 C 0.22925 0.74892 0.66904 0.0
C193 C 0.20715 0.76419 0.61084 0.0
C194 C 0.15303 0.79238 0.60174 0.0
C195 C 0.12013 0.80663 0.65008 0.0
C196 C 0.14125 0.79305 0.70793 0.0
H197 H 0.24264 0.61796 0.59187 0.0
C198 C 0.29411 0.65046 0.58867 0.0
H199 H 0.37322 0.73645 0.62656 0.0
H200 H 0.27137 0.71684 0.88453 0.0
H201 H 0.36592 0.66817 0.89927 0.0
H202 H 0.42425 0.64262 0.81341 0.0
H203 H 0.38832 0.66549 0.71229 0.0
C204 C 0.32084 0.70584 0.62746 0.0
C205 C 0.28438 0.72041 0.67856 0.0
C206 C 0.30679 0.70773 0.73754 0.0
C207 C 0.27355 0.72295 0.78713 0.0
C208 C 0.29564 0.70769 0.84534 0.0
C209 C 0.34966 0.67935 0.85444 0.0
C210 C 0.38248 0.66495 0.8061 0.0
C211 C 0.36142 0.67861 0.74825 0.0
H212 H 0.09073 0.14088 0.80688 0.0
C213 C 0.12837 0.12563 0.83539 0.0
H214 H 0.23128 0.13335 0.8527 0.0
H215 H 0.32931 0.20018 0.59833 0.0
H216 H 0.32743 0.07542 0.60522 0.0
H217 H 0.27568 0.00242 0.68841 0.0
H218 H 0.22525 0.05377 0.76497 0.0
C219 C 0.19377 0.14945 0.82466 0.0
C220 C 0.21872 0.19224 0.77222 0.0
C221 C 0.24871 0.16156 0.72817 0.0
C222 C 0.27901 0.20371 0.68053 0.0
C223 C 0.30679 0.17112 0.63618 0.0
C224 C 0.30577 0.09936 0.63943 0.0
C225 C 0.27666 0.05827 0.68625 0.0
C226 C 0.24818 0.08859 0.73008 0.0
H227 H 0.40836 0.328 0.64486 0.0
C228 C 0.37131 0.34375 0.61597 0.0
H229 H 0.26866 0.33624 0.59708 0.0
H230 H 0.16911 0.26874 0.85142 0.0
H231 H 0.17075 0.39337 0.84435 0.0
H232 H 0.22223 0.46626 0.76102 0.0
H233 H 0.2727 0.41493 0.6845 0.0
C234 C 0.3056 0.31972 0.62552 0.0
C235 C 0.27968 0.27658 0.67751 0.0
C236 C 0.24949 0.3072 0.72145 0.0
C237 C 0.21926 0.26508 0.76913 0.0
C238 C 0.19152 0.29771 0.81349 0.0
C239 C 0.1924 0.36942 0.81016 0.0
C240 C 0.22137 0.41045 0.76326 0.0
C241 C 0.24988 0.38013 0.71945 0.0
H242 H 0.90751 0.21239 0.80048 0.0
C243 C 0.87605 0.16133 0.81486 0.0
H244 H 0.77832 0.08978 0.81082 0.0
H245 H 0.63454 0.32842 0.76091 0.0
H246 H 0.6114 0.30108 0.86409 0.0
H247 H 0.66485 0.22107 0.92044 0.0
H248 H 0.74167 0.16798 0.8741 0.0
C249 C 0.81139 0.13829 0.79378 0.0
C250 C 0.77924 0.18592 0.75892 0.0
C251 C 0.73361 0.21578 0.78659 0.0
C252 C 0.70256 0.26175 0.75415 0.0
C253 C 0.65864 0.29229 0.78326 0.0
C254 C 0.64515 0.2773 0.84255 0.0
C255 C 0.67524 0.23226 0.87427 0.0
C256 C 0.71912 0.20191 0.84697 0.0
H257 H 0.58923 0.25325 0.65096 0.0
C258 C 0.62147 0.30445 0.63766 0.0
H259 H 0.71974 0.37491 0.64358 0.0
H260 H 0.86108 0.13436 0.69189 0.0
H261 H 0.88405 0.16153 0.58865 0.0
H262 H 0.83072 0.24169 0.53236 0.0
H263 H 0.75417 0.29508 0.57882 0.0
C264 C 0.68588 0.32624 0.65961 0.0
C265 C 0.71689 0.2774 0.69407 0.0
C266 C 0.76229 0.2473 0.66633 0.0
C267 C 0.79332 0.2013 0.69875 0.0
C268 C 0.83706 0.17058 0.66957 0.0
C269 C 0.85044 0.18546 0.61024 0.0
C270 C 0.82041 0.23058 0.57855 0.0
C271 C 0.7767 0.26111 0.60592 0.0
H272 H 0.80904 0.86132 0.85284 0.0
C273 C 0.83342 0.82311 0.87191 0.0
H274 H 0.84407 0.71873 0.86506 0.0
H275 H 0.58678 0.72037 0.6701 0.0
H276 H 0.52447 0.72669 0.75617 0.0
H277 H 0.57913 0.73856 0.85823 0.0
H278 H 0.69697 0.74464 0.87446 0.0
C279 C 0.81815 0.75658 0.84815 0.0
C280 C 0.78294 0.74183 0.78809 0.0
C281 C 0.71422 0.73807 0.77963 0.0
C282 C 0.68281 0.7307 0.72097 0.0
C283 C 0.61369 0.72647 0.71361 0.0
C284 C 0.5771 0.72978 0.76274 0.0
C285 C 0.60791 0.73658 0.82016 0.0
C286 C 0.67562 0.74045 0.82881 0.0
H287 H 0.69327 0.60716 0.60573 0.0
C288 C 0.66948 0.64595 0.58686 0.0
H289 H 0.65987 0.7507 0.59441 0.0
H290 H 0.91651 0.7478 0.78921 0.0
H291 H 0.97883 0.74157 0.70312 0.0
H292 H 0.9241 0.72947 0.6011 0.0
H293 H 0.80622 0.72319 0.58488 0.0
C294 C 0.68523 0.71227 0.61111 0.0
C295 C 0.72031 0.72625 0.67125 0.0
C296 C 0.78899 0.72986 0.67971 0.0
C297 C 0.82042 0.73729 0.73837 0.0
C298 C 0.88957 0.74162 0.74572 0.0
C299 C 0.92616 0.73836 0.69657 0.0
C300 C 0.89532 0.73143 0.63917 0.0
C301 C 0.82758 0.72746 0.63053 0.0
loop_
_geom_bond_atom_site_label_1
_geom_bond_atom_site_label_2
_geom_bond_distance
_geom_bond_site_symmetry_2
_ccdc_geom_bond_type
C0 O12 1.241 . S
C0 O13 1.280 . S
C1 O14 1.277 . S
C1 O15 1.245 . S
C2 O26 1.247 . S
C2 O28 1.289 . S
Mg3 O4 1.926 . S
Mg3 O13 1.984 . S
Mg3 O15 1.988 1_554 S
Mg3 O16 2.061 1_655 S
O4 Mg3 1.926 . S
O4 Mg5 1.986 1_554 S
O4 Mg6 1.917 1_655 S
Mg5 O4 1.986 1_556 S
Mg5 O12 2.042 1_556 S
Mg5 O14 2.041 . S
Mg5 O20 2.038 1_546 S
Mg5 O28 2.238 1_545 S
Mg6 O4 1.917 1_455 S
Mg6 O7 1.917 1_544 S
Mg6 O17 2.106 . S
Mg6 O19 2.079 1_445 S
Mg6 O28 2.106 1_444 S
Mg6 O29 2.079 1_554 S
O7 Mg6 1.917 1_566 S
O7 Mg8 1.926 . S
O7 Mg9 1.986 1_556 S
Mg8 O7 1.926 . S
Mg8 O22 1.984 . S
Mg8 O25 1.988 1_556 S
Mg8 O26 2.061 1_455 S
Mg9 O7 1.986 1_554 S
Mg9 O17 2.238 1_565 S
Mg9 O21 2.042 1_554 S
Mg9 O23 2.041 . S
Mg9 O30 2.038 1_564 S
C10 O16 1.247 . S
C10 O17 1.289 . S
C11 O29 1.245 . S
C11 O30 1.274 . S
O12 C0 1.241 . S
O12 Mg5 2.042 1_554 S
O13 C0 1.280 . S
O13 Mg3 1.984 . S
O14 C1 1.277 . S
O14 Mg5 2.041 . S
O15 C1 1.245 . S
O15 Mg3 1.988 1_556 S
O16 Mg3 2.061 1_455 S
O16 C10 1.247 . S
O17 Mg6 2.106 . S
O17 Mg9 2.238 1_545 S
O17 C10 1.289 . S
C18 O19 1.245 . S
C18 O20 1.274 . S
O19 Mg6 2.079 1_665 S
O19 C18 1.245 . S
O20 Mg5 2.038 1_564 S
O20 C18 1.274 . S
O21 Mg9 2.042 1_556 S
O21 C24 1.241 . S
O22 Mg8 1.984 . S
O22 C24 1.280 . S
O23 Mg9 2.041 . S
O23 C27 1.277 . S
C24 O21 1.241 . S
C24 O22 1.280 . S
O25 Mg8 1.988 1_554 S
O25 C27 1.245 . S
O26 C2 1.247 . S
O26 Mg8 2.061 1_655 S
C27 O23 1.277 . S
C27 O25 1.245 . S
O28 C2 1.289 . S
O28 Mg5 2.238 1_565 S
O28 Mg6 2.106 1_666 S
O29 Mg6 2.079 1_556 S
O29 C11 1.245 . S
O30 Mg9 2.038 1_546 S
O30 C11 1.274 . S
C31 O43 1.241 . S
C31 O44 1.280 . S
C32 O45 1.277 . S
C32 O46 1.245 . S
C33 O57 1.247 . S
C33 O59 1.289 . S
Mg34 O35 1.926 . S
Mg34 O44 1.984 . S
Mg34 O46 1.988 . S
Mg34 O47 2.061 . S
O35 Mg34 1.926 . S
O35 Mg36 1.986 . S
O35 Mg37 1.917 . S
Mg36 O35 1.986 . S
Mg36 O43 2.042 . S
Mg36 O45 2.041 . S
Mg36 O51 2.038 . S
Mg36 O59 2.238 . S
Mg37 O35 1.917 . S
Mg37 O38 1.917 . S
Mg37 O48 2.106 . S
Mg37 O50 2.079 . S
Mg37 O59 2.106 . S
Mg37 O60 2.079 . S
O38 Mg37 1.917 . S
O38 Mg39 1.926 . S
O38 Mg40 1.986 . S
Mg39 O38 1.926 . S
Mg39 O53 1.984 . S
Mg39 O56 1.988 . S
Mg39 O57 2.061 . S
Mg40 O38 1.986 . S
Mg40 O48 2.238 . S
Mg40 O52 2.042 . S
Mg40 O54 2.041 . S
Mg40 O61 2.038 . S
C41 O47 1.247 . S
C41 O48 1.289 . S
C42 O60 1.245 . S
C42 O61 1.274 . S
O43 C31 1.241 . S
O43 Mg36 2.042 . S
O44 C31 1.280 . S
O44 Mg34 1.984 . S
O45 C32 1.277 . S
O45 Mg36 2.041 . S
O46 C32 1.245 . S
O46 Mg34 1.988 . S
O47 Mg34 2.061 . S
O47 C41 1.247 . S
O48 Mg37 2.106 . S
O48 Mg40 2.238 . S
O48 C41 1.289 . S
C49 O50 1.245 . S
C49 O51 1.274 . S
O50 Mg37 2.079 . S
O50 C49 1.245 . S
O51 Mg36 2.038 . S
O51 C49 1.274 . S
O52 Mg40 2.042 . S
O52 C55 1.241 . S
O53 Mg39 1.984 . S
O53 C55 1.280 . S
O54 Mg40 2.041 . S
O54 C58 1.277 . S
C55 O52 1.241 . S
C55 O53 1.280 . S
O56 Mg39 1.988 . S
O56 C58 1.245 . S
O57 C33 1.247 . S
O57 Mg39 2.061 . S
C58 O54 1.277 . S
C58 O56 1.245 . S
O59 C33 1.289 . S
O59 Mg36 2.238 . S
O59 Mg37 2.106 . S
O60 Mg37 2.079 . S
O60 C42 1.245 . S
O61 Mg40 2.038 . S
O61 C42 1.274 . S
H62 C63 0.951 . S
C63 H62 0.951 . S
C63 C69 1.265 . S
H64 C69 0.950 . S
H65 C73 0.949 . S
H66 C74 0.950 . S
H67 C75 0.951 . S
H68 C76 0.951 . S
C69 C63 1.265 . S
C69 H64 0.950 . S
C69 C70 1.478 . S
C70 C69 1.478 . S
C70 C71 1.397 . S
C70 C87 1.394 . S
C71 C70 1.397 . S
C71 C72 1.438 . S
C71 C76 1.429 . S
C72 C71 1.438 . S
C72 C73 1.428 . S
C72 C85 1.394 . S
C73 H65 0.949 . S
C73 C72 1.428 . S
C73 C74 1.345 . S
C74 H66 0.950 . S
C74 C73 1.345 . S
C74 C75 1.424 . S
C75 H67 0.951 . S
C75 C74 1.424 . S
C75 C76 1.347 . S
C76 H68 0.951 . S
C76 C71 1.429 . S
C76 C75 1.347 . S
H77 C78 0.951 . S
C78 H77 0.951 . S
C78 C84 1.265 . S
H79 C84 0.950 . S
H80 C88 0.949 . S
H81 C89 0.950 . S
H82 C90 0.951 . S
H83 C91 0.951 . S
C84 C78 1.265 . S
C84 H79 0.950 . S
C84 C85 1.478 . S
C85 C72 1.394 . S
C85 C84 1.478 . S
C85 C86 1.397 . S
C86 C85 1.397 . S
C86 C87 1.438 . S
C86 C91 1.429 . S
C87 C70 1.394 . S
C87 C86 1.438 . S
C87 C88 1.428 . S
C88 H80 0.949 . S
C88 C87 1.428 . S
C88 C89 1.345 . S
C89 H81 0.950 . S
C89 C88 1.345 . S
C89 C90 1.424 . S
C90 H82 0.951 . S
C90 C89 1.424 . S
C90 C91 1.347 . S
C91 H83 0.951 . S
C91 C86 1.429 . S
C91 C90 1.347 . S
H92 C93 0.951 . S
C93 H92 0.951 . S
C93 C99 1.265 . S
H94 C99 0.950 . S
H95 C103 0.949 . S
H96 C104 0.950 . S
H97 C105 0.951 . S
H98 C106 0.951 . S
C99 C93 1.265 . S
C99 H94 0.950 . S
C99 C100 1.478 . S
C100 C99 1.478 . S
C100 C101 1.397 . S
C100 C117 1.394 . S
C101 C100 1.397 . S
C101 C102 1.438 . S
C101 C106 1.429 . S
C102 C101 1.438 . S
C102 C103 1.428 . S
C102 C115 1.394 . S
C103 H95 0.949 . S
C103 C102 1.428 . S
C103 C104 1.345 . S
C104 H96 0.950 . S
C104 C103 1.345 . S
C104 C105 1.424 . S
C105 H97 0.951 . S
C105 C104 1.424 . S
C105 C106 1.347 . S
C106 H98 0.951 . S
C106 C101 1.429 . S
C106 C105 1.347 . S
H107 C108 0.951 . S
C108 H107 0.951 . S
C108 C114 1.265 . S
H109 C114 0.950 . S
H110 C118 0.949 . S
H111 C119 0.950 . S
H112 C120 0.951 . S
H113 C121 0.951 . S
C114 C108 1.265 . S
C114 H109 0.950 . S
C114 C115 1.478 . S
C115 C102 1.394 . S
C115 C114 1.478 . S
C115 C116 1.397 . S
C116 C115 1.397 . S
C116 C117 1.438 . S
C116 C121 1.429 . S
C117 C100 1.394 . S
C117 C116 1.438 . S
C117 C118 1.428 . S
C118 H110 0.949 . S
C118 C117 1.428 . S
C118 C119 1.345 . S
C119 H111 0.950 . S
C119 C118 1.345 . S
C119 C120 1.424 . S
C120 H112 0.951 . S
C120 C119 1.424 . S
C120 C121 1.347 . S
C121 H113 0.951 . S
C121 C116 1.429 . S
C121 C120 1.347 . S
H122 C123 0.951 . S
C123 H122 0.951 . S
C123 C129 1.265 . S
H124 C129 0.950 . S
H125 C133 0.949 . S
H126 C134 0.950 . S
H127 C135 0.951 . S
H128 C136 0.951 . S
C129 C123 1.265 . S
C129 H124 0.950 . S
C129 C130 1.478 . S
C130 C129 1.478 . S
C130 C131 1.397 . S
C130 C147 1.394 . S
C131 C130 1.397 . S
C131 C132 1.438 . S
C131 C136 1.429 . S
C132 C131 1.438 . S
C132 C133 1.428 . S
C132 C145 1.394 . S
C133 H125 0.949 . S
C133 C132 1.428 . S
C133 C134 1.345 . S
C134 H126 0.950 . S
C134 C133 1.345 . S
C134 C135 1.424 . S
C135 H127 0.951 . S
C135 C134 1.424 . S
C135 C136 1.347 . S
C136 H128 0.951 . S
C136 C131 1.429 . S
C136 C135 1.347 . S
H137 C138 0.951 . S
C138 H137 0.951 . S
C138 C144 1.265 . S
H139 C144 0.950 . S
H140 C148 0.949 . S
H141 C149 0.950 . S
H142 C150 0.951 . S
H143 C151 0.951 . S
C144 C138 1.265 . S
C144 H139 0.950 . S
C144 C145 1.478 . S
C145 C132 1.394 . S
C145 C144 1.478 . S
C145 C146 1.397 . S
C146 C145 1.397 . S
C146 C147 1.438 . S
C146 C151 1.429 . S
C147 C130 1.394 . S
C147 C146 1.438 . S
C147 C148 1.428 . S
C148 H140 0.949 . S
C148 C147 1.428 . S
C148 C149 1.345 . S
C149 H141 0.950 . S
C149 C148 1.345 . S
C149 C150 1.424 . S
C150 H142 0.951 . S
C150 C149 1.424 . S
C150 C151 1.347 . S
C151 H143 0.951 . S
C151 C146 1.429 . S
C151 C150 1.347 . S
H152 C153 0.951 . S
C153 H152 0.951 . S
C153 C159 1.265 . S
H154 C159 0.950 . S
H155 C163 0.949 . S
H156 C164 0.950 . S
H157 C165 0.951 . S
H158 C166 0.951 . S
C159 C153 1.265 . S
C159 H154 0.950 . S
C159 C160 1.478 . S
C160 C159 1.478 . S
C160 C161 1.397 . S
C160 C177 1.394 . S
C161 C160 1.397 . S
C161 C162 1.438 . S
C161 C166 1.429 . S
C162 C161 1.438 . S
C162 C163 1.428 . S
C162 C175 1.394 . S
C163 H155 0.949 . S
C163 C162 1.428 . S
C163 C164 1.345 . S
C164 H156 0.950 . S
C164 C163 1.345 . S
C164 C165 1.424 . S
C165 H157 0.951 . S
C165 C164 1.424 . S
C165 C166 1.347 . S
C166 H158 0.951 . S
C166 C161 1.429 . S
C166 C165 1.347 . S
H167 C168 0.951 . S
C168 H167 0.951 . S
C168 C174 1.265 . S
H169 C174 0.950 . S
H170 C178 0.949 . S
H171 C179 0.950 . S
H172 C180 0.951 . S
H173 C181 0.951 . S
C174 C168 1.265 . S
C174 H169 0.950 . S
C174 C175 1.478 . S
C175 C162 1.394 . S
C175 C174 1.478 . S
C175 C176 1.397 . S
C176 C175 1.397 . S
C176 C177 1.438 . S
C176 C181 1.429 . S
C177 C160 1.394 . S
C177 C176 1.438 . S
C177 C178 1.428 . S
C178 H170 0.949 . S
C178 C177 1.428 . S
C178 C179 1.345 . S
C179 H171 0.950 . S
C179 C178 1.345 . S
C179 C180 1.424 . S
C180 H172 0.951 . S
C180 C179 1.424 . S
C180 C181 1.347 . S
C181 H173 0.951 . S
C181 C176 1.429 . S
C181 C180 1.347 . S
H182 C183 0.951 . S
C183 H182 0.951 . S
C183 C189 1.265 . S
H184 C189 0.950 . S
H185 C193 0.949 . S
H186 C194 0.950 . S
H187 C195 0.951 . S
H188 C196 0.951 . S
C189 C183 1.265 . S
C189 H184 0.950 . S
C189 C190 1.478 . S
C190 C189 1.478 . S
C190 C191 1.397 . S
C190 C207 1.394 . S
C191 C190 1.397 . S
C191 C192 1.438 . S
C191 C196 1.429 . S
C192 C191 1.438 . S
C192 C193 1.428 . S
C192 C205 1.394 . S
C193 H185 0.949 . S
C193 C192 1.428 . S
C193 C194 1.345 . S
C194 H186 0.950 . S
C194 C193 1.345 . S
C194 C195 1.424 . S
C195 H187 0.951 . S
C195 C194 1.424 . S
C195 C196 1.347 . S
C196 H188 0.951 . S
C196 C191 1.429 . S
C196 C195 1.347 . S
H197 C198 0.951 . S
C198 H197 0.951 . S
C198 C204 1.265 . S
H199 C204 0.950 . S
H200 C208 0.949 . S
H201 C209 0.948 . S
H202 C210 0.951 . S
H203 C211 0.951 . S
C204 C198 1.265 . S
C204 H199 0.950 . S
C204 C205 1.478 . S
C205 C192 1.394 . S
C205 C204 1.478 . S
C205 C206 1.397 . S
C206 C205 1.397 . S
C206 C207 1.438 . S
C206 C211 1.429 . S
C207 C190 1.394 . S
C207 C206 1.438 . S
C207 C208 1.428 . S
C208 H200 0.949 . S
C208 C207 1.428 . S
C208 C209 1.345 . S
C209 H201 0.948 . S
C209 C208 1.345 . S
C209 C210 1.424 . S
C210 H202 0.951 . S
C210 C209 1.424 . S
C210 C211 1.347 . S
C211 H203 0.951 . S
C211 C206 1.429 . S
C211 C210 1.347 . S
H212 C213 0.951 . S
C213 H212 0.951 . S
C213 C219 1.265 . S
H214 C219 0.950 . S
H215 C223 0.949 . S
H216 C224 0.950 . S
H217 C225 0.951 . S
H218 C226 0.951 . S
C219 C213 1.265 . S
C219 H214 0.950 . S
C219 C220 1.478 . S
C220 C219 1.478 . S
C220 C221 1.397 . S
C220 C237 1.394 . S
C221 C220 1.397 . S
C221 C222 1.438 . S
C221 C226 1.429 . S
C222 C221 1.438 . S
C222 C223 1.428 . S
C222 C235 1.394 . S
C223 H215 0.949 . S
C223 C222 1.428 . S
C223 C224 1.345 . S
C224 H216 0.950 . S
C224 C223 1.345 . S
C224 C225 1.424 . S
C225 H217 0.951 . S
C225 C224 1.424 . S
C225 C226 1.347 . S
C226 H218 0.951 . S
C226 C221 1.429 . S
C226 C225 1.347 . S
H227 C228 0.951 . S
C228 H227 0.951 . S
C228 C234 1.265 . S
H229 C234 0.950 . S
H230 C238 0.949 . S
H231 C239 0.950 . S
H232 C240 0.951 . S
H233 C241 0.951 . S
C234 C228 1.265 . S
C234 H229 0.950 . S
C234 C235 1.478 . S
C235 C222 1.394 . S
C235 C234 1.478 . S
C235 C236 1.397 . S
C236 C235 1.397 . S
C236 C237 1.438 . S
C236 C241 1.429 . S
C237 C220 1.394 . S
C237 C236 1.438 . S
C237 C238 1.428 . S
C238 H230 0.949 . S
C238 C237 1.428 . S
C238 C239 1.345 . S
C239 H231 0.950 . S
C239 C238 1.345 . S
C239 C240 1.424 . S
C240 H232 0.951 . S
C240 C239 1.424 . S
C240 C241 1.347 . S
C241 H233 0.951 . S
C241 C236 1.429 . S
C241 C240 1.347 . S
H242 C243 0.951 . S
C243 H242 0.951 . S
C243 C249 1.265 . S
H244 C249 0.950 . S
H245 C253 0.949 . S
H246 C254 0.950 . S
H247 C255 0.951 . S
H248 C256 0.951 . S
C249 C243 1.265 . S
C249 H244 0.950 . S
C249 C250 1.478 . S
C250 C249 1.478 . S
C250 C251 1.397 . S
C250 C267 1.394 . S
C251 C250 1.397 . S
C251 C252 1.438 . S
C251 C256 1.429 . S
C252 C251 1.438 . S
C252 C253 1.428 . S
C252 C265 1.394 . S
C253 H245 0.949 . S
C253 C252 1.428 . S
C253 C254 1.345 . S
C254 H246 0.950 . S
C254 C253 1.345 . S
C254 C255 1.424 . S
C255 H247 0.951 . S
C255 C254 1.424 . S
C255 C256 1.347 . S
C256 H248 0.951 . S
C256 C251 1.429 . S
C256 C255 1.347 . S
H257 C258 0.951 . S
C258 H257 0.951 . S
C258 C264 1.265 . S
H259 C264 0.950 . S
H260 C268 0.949 . S
H261 C269 0.950 . S
H262 C270 0.951 . S
H263 C271 0.951 . S
C264 C258 1.265 . S
C264 H259 0.950 . S
C264 C265 1.478 . S
C265 C252 1.394 . S
C265 C264 1.478 . S
C265 C266 1.397 . S
C266 C265 1.397 . S
C266 C267 1.438 . S
C266 C271 1.429 . S
C267 C250 1.394 . S
C267 C266 1.438 . S
C267 C268 1.428 . S
C268 H260 0.949 . S
C268 C267 1.428 . S
C268 C269 1.345 . S
C269 H261 0.950 . S
C269 C268 1.345 . S
C269 C270 1.424 . S
C270 H262 0.951 . S
C270 C269 1.424 . S
C270 C271 1.347 . S
C271 H263 0.951 . S
C271 C266 1.429 . S
C271 C270 1.347 . S
H272 C273 0.951 . S
C273 H272 0.951 . S
C273 C279 1.265 . S
H274 C279 0.950 . S
H275 C283 0.949 . S
H276 C284 0.950 . S
H277 C285 0.951 . S
H278 C286 0.951 . S
C279 C273 1.265 . S
C279 H274 0.950 . S
C279 C280 1.478 . S
C280 C279 1.478 . S
C280 C281 1.397 . S
C280 C297 1.394 . S
C281 C280 1.397 . S
C281 C282 1.438 . S
C281 C286 1.429 . S
C282 C281 1.438 . S
C282 C283 1.428 . S
C282 C295 1.394 . S
C283 H275 0.949 . S
C283 C282 1.428 . S
C283 C284 1.345 . S
C284 H276 0.950 . S
C284 C283 1.345 . S
C284 C285 1.424 . S
C285 H277 0.951 . S
C285 C284 1.424 . S
C285 C286 1.347 . S
C286 H278 0.951 . S
C286 C281 1.429 . S
C286 C285 1.347 . S
H287 C288 0.951 . S
C288 H287 0.951 . S
C288 C294 1.265 . S
H289 C294 0.950 . S
H290 C298 0.949 . S
H291 C299 0.950 . S
H292 C300 0.951 . S
H293 C301 0.951 . S
C294 C288 1.265 . S
C294 H289 0.950 . S
C294 C295 1.478 . S
C295 C282 1.394 . S
C295 C294 1.478 . S
C295 C296 1.397 . S
C296 C295 1.397 . S
C296 C297 1.438 . S
C296 C301 1.429 . S
C297 C280 1.394 . S
C297 C296 1.438 . S
C297 C298 1.428 . S
C298 H290 0.949 . S
C298 C297 1.428 . S
C298 C299 1.345 . S
C299 H291 0.950 . S
C299 C298 1.345 . S
C299 C300 1.424 . S
C300 H292 0.951 . S
C300 C299 1.424 . S
C300 C301 1.347 . S
C301 H293 0.951 . S
C301 C296 1.429 . S
C301 C300 1.347 . S
C63 C10 0.898 . S
C78 C33 0.896 . S
C93 C0 1.552 . S
C108 C55 1.551 . S
C123 C18 1.565 . S
C138 C42 1.564 . S
C153 C27 1.701 . S
C168 C32 1.699 . S
C183 C24 1.604 . S
C198 C31 1.605 . S
C228 C49 1.574 . S
C213 C11 1.575 . S
C243 C1 1.704 . S
C258 C58 1.705 . S
C288 C41 0.941 . S
C273 C2 0.943 . S
