# Generated by pormake.
# Topology ibd, (4,6)-cn, num edge types: 1
# Building blocks:
#     Node 0, Type 0, BuildingBlock: CEKHIL_clean_sbu_0, # of connection points: 4
#     Node 1, Type 0, BuildingBlock: CEKHIL_clean_sbu_0, # of connection points: 4
#     Node 2, Type 0, BuildingBlock: CEKHIL_clean_sbu_0, # of connection points: 4
#     Node 3, Type 0, BuildingBlock: CEKHIL_clean_sbu_0, # of connection points: 4
#     Node 4, Type 0, BuildingBlock: CEKHIL_clean_sbu_0, # of connection points: 4
#     Node 5, Type 0, BuildingBlock: CEKHIL_clean_sbu_0, # of connection points: 4
#     Node 6, Type 0, BuildingBlock: CEKHIL_clean_sbu_0, # of connection points: 4
#     Node 7, Type 0, BuildingBlock: CEKHIL_clean_sbu_0, # of connection points: 4
#     Node 8, Type 0, BuildingBlock: CEKHIL_clean_sbu_0, # of connection points: 4
#     Node 9, Type 0, BuildingBlock: CEKHIL_clean_sbu_0, # of connection points: 4
#     Node 10, Type 0, BuildingBlock: CEKHIL_clean_sbu_0, # of connection points: 4
#     Node 11, Type 0, BuildingBlock: CEKHIL_clean_sbu_0, # of connection points: 4
#     Node 12, Type 0, BuildingBlock: CEKHIL_clean_sbu_0, # of connection points: 4
#     Node 13, Type 0, BuildingBlock: CEKHIL_clean_sbu_0, # of connection points: 4
#     Node 14, Type 0, BuildingBlock: CEKHIL_clean_sbu_0, # of connection points: 4
#     Node 15, Type 0, BuildingBlock: CEKHIL_clean_sbu_0, # of connection points: 4
#     Node 16, Type 0, BuildingBlock: CEKHIL_clean_sbu_0, # of connection points: 4
#     Node 17, Type 0, BuildingBlock: CEKHIL_clean_sbu_0, # of connection points: 4
#     Node 18, Type 0, BuildingBlock: CEKHIL_clean_sbu_0, # of connection points: 4
#     Node 19, Type 0, BuildingBlock: CEKHIL_clean_sbu_0, # of connection points: 4
#     Node 20, Type 0, BuildingBlock: CEKHIL_clean_sbu_0, # of connection points: 4
#     Node 21, Type 0, BuildingBlock: CEKHIL_clean_sbu_0, # of connection points: 4
#     Node 22, Type 0, BuildingBlock: CEKHIL_clean_sbu_0, # of connection points: 4
#     Node 23, Type 0, BuildingBlock: CEKHIL_clean_sbu_0, # of connection points: 4
#     Node 24, Type 1, BuildingBlock: IZENUY_clean_sbu_0, # of connection points: 6
#     Node 25, Type 1, BuildingBlock: IZENUY_clean_sbu_0, # of connection points: 6
#     Node 26, Type 1, BuildingBlock: IZENUY_clean_sbu_0, # of connection points: 6
#     Node 27, Type 1, BuildingBlock: IZENUY_clean_sbu_0, # of connection points: 6
#     Node 28, Type 1, BuildingBlock: IZENUY_clean_sbu_0, # of connection points: 6
#     Node 29, Type 1, BuildingBlock: IZENUY_clean_sbu_0, # of connection points: 6
#     Node 30, Type 1, BuildingBlock: IZENUY_clean_sbu_0, # of connection points: 6
#     Node 31, Type 1, BuildingBlock: IZENUY_clean_sbu_0, # of connection points: 6
#     Node 32, Type 1, BuildingBlock: IZENUY_clean_sbu_0, # of connection points: 6
#     Node 33, Type 1, BuildingBlock: IZENUY_clean_sbu_0, # of connection points: 6
#     Node 34, Type 1, BuildingBlock: IZENUY_clean_sbu_0, # of connection points: 6
#     Node 35, Type 1, BuildingBlock: IZENUY_clean_sbu_0, # of connection points: 6
#     Node 36, Type 1, BuildingBlock: IZENUY_clean_sbu_0, # of connection points: 6
#     Node 37, Type 1, BuildingBlock: IZENUY_clean_sbu_0, # of connection points: 6
#     Node 38, Type 1, BuildingBlock: IZENUY_clean_sbu_0, # of connection points: 6
#     Node 39, Type 1, BuildingBlock: IZENUY_clean_sbu_0, # of connection points: 6
#     Edge 40, Type (0, 1), BuildingBlock: XIVTED_clean_linker_0, # of connection points: 2
#     Edge 41, Type (0, 1), BuildingBlock: XIVTED_clean_linker_0, # of connection points: 2
#     Edge 42, Type (0, 1), BuildingBlock: XIVTED_clean_linker_0, # of connection points: 2
#     Edge 43, Type (0, 1), BuildingBlock: XIVTED_clean_linker_0, # of connection points: 2
#     Edge 44, Type (0, 1), BuildingBlock: XIVTED_clean_linker_0, # of connection points: 2
#     Edge 45, Type (0, 1), BuildingBlock: XIVTED_clean_linker_0, # of connection points: 2
#     Edge 46, Type (0, 1), BuildingBlock: XIVTED_clean_linker_0, # of connection points: 2
#     Edge 47, Type (0, 1), BuildingBlock: XIVTED_clean_linker_0, # of connection points: 2
#     Edge 48, Type (0, 1), BuildingBlock: XIVTED_clean_linker_0, # of connection points: 2
#     Edge 49, Type (0, 1), BuildingBlock: XIVTED_clean_linker_0, # of connection points: 2
#     Edge 50, Type (0, 1), BuildingBlock: XIVTED_clean_linker_0, # of connection points: 2
#     Edge 51, Type (0, 1), BuildingBlock: XIVTED_clean_linker_0, # of connection points: 2
#     Edge 52, Type (0, 1), BuildingBlock: XIVTED_clean_linker_0, # of connection points: 2
#     Edge 53, Type (0, 1), BuildingBlock: XIVTED_clean_linker_0, # of connection points: 2
#     Edge 54, Type (0, 1), BuildingBlock: XIVTED_clean_linker_0, # of connection points: 2
#     Edge 55, Type (0, 1), BuildingBlock: XIVTED_clean_linker_0, # of connection points: 2
#     Edge 56, Type (0, 1), BuildingBlock: XIVTED_clean_linker_0, # of connection points: 2
#     Edge 57, Type (0, 1), BuildingBlock: XIVTED_clean_linker_0, # of connection points: 2
#     Edge 58, Type (0, 1), BuildingBlock: XIVTED_clean_linker_0, # of connection points: 2
#     Edge 59, Type (0, 1), BuildingBlock: XIVTED_clean_linker_0, # of connection points: 2
#     Edge 60, Type (0, 1), BuildingBlock: XIVTED_clean_linker_0, # of connection points: 2
#     Edge 61, Type (0, 1), BuildingBlock: XIVTED_clean_linker_0, # of connection points: 2
#     Edge 62, Type (0, 1), BuildingBlock: XIVTED_clean_linker_0, # of connection points: 2
#     Edge 63, Type (0, 1), BuildingBlock: XIVTED_clean_linker_0, # of connection points: 2
#     Edge 64, Type (0, 1), BuildingBlock: XIVTED_clean_linker_0, # of connection points: 2
#     Edge 65, Type (0, 1), BuildingBlock: XIVTED_clean_linker_0, # of connection points: 2
#     Edge 66, Type (0, 1), BuildingBlock: XIVTED_clean_linker_0, # of connection points: 2
#     Edge 67, Type (0, 1), BuildingBlock: XIVTED_clean_linker_0, # of connection points: 2
#     Edge 68, Type (0, 1), BuildingBlock: XIVTED_clean_linker_0, # of connection points: 2
#     Edge 69, Type (0, 1), BuildingBlock: XIVTED_clean_linker_0, # of connection points: 2
#     Edge 70, Type (0, 1), BuildingBlock: XIVTED_clean_linker_0, # of connection points: 2
#     Edge 71, Type (0, 1), BuildingBlock: XIVTED_clean_linker_0, # of connection points: 2
#     Edge 72, Type (0, 1), BuildingBlock: XIVTED_clean_linker_0, # of connection points: 2
#     Edge 73, Type (0, 1), BuildingBlock: XIVTED_clean_linker_0, # of connection points: 2
#     Edge 74, Type (0, 1), BuildingBlock: XIVTED_clean_linker_0, # of connection points: 2
#     Edge 75, Type (0, 1), BuildingBlock: XIVTED_clean_linker_0, # of connection points: 2
#     Edge 76, Type (0, 1), BuildingBlock: XIVTED_clean_linker_0, # of connection points: 2
#     Edge 77, Type (0, 1), BuildingBlock: XIVTED_clean_linker_0, # of connection points: 2
#     Edge 78, Type (0, 1), BuildingBlock: XIVTED_clean_linker_0, # of connection points: 2
#     Edge 79, Type (0, 1), BuildingBlock: XIVTED_clean_linker_0, # of connection points: 2
#     Edge 80, Type (0, 1), BuildingBlock: XIVTED_clean_linker_0, # of connection points: 2
#     Edge 81, Type (0, 1), BuildingBlock: XIVTED_clean_linker_0, # of connection points: 2
#     Edge 82, Type (0, 1), BuildingBlock: XIVTED_clean_linker_0, # of connection points: 2
#     Edge 83, Type (0, 1), BuildingBlock: XIVTED_clean_linker_0, # of connection points: 2
#     Edge 84, Type (0, 1), BuildingBlock: XIVTED_clean_linker_0, # of connection points: 2
#     Edge 85, Type (0, 1), BuildingBlock: XIVTED_clean_linker_0, # of connection points: 2
#     Edge 86, Type (0, 1), BuildingBlock: XIVTED_clean_linker_0, # of connection points: 2
#     Edge 87, Type (0, 1), BuildingBlock: XIVTED_clean_linker_0, # of connection points: 2
#     Edge 88, Type (0, 1), BuildingBlock: XIVTED_clean_linker_0, # of connection points: 2
#     Edge 89, Type (0, 1), BuildingBlock: XIVTED_clean_linker_0, # of connection points: 2
#     Edge 90, Type (0, 1), BuildingBlock: XIVTED_clean_linker_0, # of connection points: 2
#     Edge 91, Type (0, 1), BuildingBlock: XIVTED_clean_linker_0, # of connection points: 2
#     Edge 92, Type (0, 1), BuildingBlock: XIVTED_clean_linker_0, # of connection points: 2
#     Edge 93, Type (0, 1), BuildingBlock: XIVTED_clean_linker_0, # of connection points: 2
#     Edge 94, Type (0, 1), BuildingBlock: XIVTED_clean_linker_0, # of connection points: 2
#     Edge 95, Type (0, 1), BuildingBlock: XIVTED_clean_linker_0, # of connection points: 2
#     Edge 96, Type (0, 1), BuildingBlock: XIVTED_clean_linker_0, # of connection points: 2
#     Edge 97, Type (0, 1), BuildingBlock: XIVTED_clean_linker_0, # of connection points: 2
#     Edge 98, Type (0, 1), BuildingBlock: XIVTED_clean_linker_0, # of connection points: 2
#     Edge 99, Type (0, 1), BuildingBlock: XIVTED_clean_linker_0, # of connection points: 2
#     Edge 100, Type (0, 1), BuildingBlock: XIVTED_clean_linker_0, # of connection points: 2
#     Edge 101, Type (0, 1), BuildingBlock: XIVTED_clean_linker_0, # of connection points: 2
#     Edge 102, Type (0, 1), BuildingBlock: XIVTED_clean_linker_0, # of connection points: 2
#     Edge 103, Type (0, 1), BuildingBlock: XIVTED_clean_linker_0, # of connection points: 2
#     Edge 104, Type (0, 1), BuildingBlock: XIVTED_clean_linker_0, # of connection points: 2
#     Edge 105, Type (0, 1), BuildingBlock: XIVTED_clean_linker_0, # of connection points: 2
#     Edge 106, Type (0, 1), BuildingBlock: XIVTED_clean_linker_0, # of connection points: 2
#     Edge 107, Type (0, 1), BuildingBlock: XIVTED_clean_linker_0, # of connection points: 2
#     Edge 108, Type (0, 1), BuildingBlock: XIVTED_clean_linker_0, # of connection points: 2
#     Edge 109, Type (0, 1), BuildingBlock: XIVTED_clean_linker_0, # of connection points: 2
#     Edge 110, Type (0, 1), BuildingBlock: XIVTED_clean_linker_0, # of connection points: 2
#     Edge 111, Type (0, 1), BuildingBlock: XIVTED_clean_linker_0, # of connection points: 2
#     Edge 112, Type (0, 1), BuildingBlock: XIVTED_clean_linker_0, # of connection points: 2
#     Edge 113, Type (0, 1), BuildingBlock: XIVTED_clean_linker_0, # of connection points: 2
#     Edge 114, Type (0, 1), BuildingBlock: XIVTED_clean_linker_0, # of connection points: 2
#     Edge 115, Type (0, 1), BuildingBlock: XIVTED_clean_linker_0, # of connection points: 2
#     Edge 116, Type (0, 1), BuildingBlock: XIVTED_clean_linker_0, # of connection points: 2
#     Edge 117, Type (0, 1), BuildingBlock: XIVTED_clean_linker_0, # of connection points: 2
#     Edge 118, Type (0, 1), BuildingBlock: XIVTED_clean_linker_0, # of connection points: 2
#     Edge 119, Type (0, 1), BuildingBlock: XIVTED_clean_linker_0, # of connection points: 2
#     Edge 120, Type (0, 1), BuildingBlock: XIVTED_clean_linker_0, # of connection points: 2
#     Edge 121, Type (0, 1), BuildingBlock: XIVTED_clean_linker_0, # of connection points: 2
#     Edge 122, Type (0, 1), BuildingBlock: XIVTED_clean_linker_0, # of connection points: 2
#     Edge 123, Type (0, 1), BuildingBlock: XIVTED_clean_linker_0, # of connection points: 2
#     Edge 124, Type (0, 1), BuildingBlock: XIVTED_clean_linker_0, # of connection points: 2
#     Edge 125, Type (0, 1), BuildingBlock: XIVTED_clean_linker_0, # of connection points: 2
#     Edge 126, Type (0, 1), BuildingBlock: XIVTED_clean_linker_0, # of connection points: 2
#     Edge 127, Type (0, 1), BuildingBlock: XIVTED_clean_linker_0, # of connection points: 2
#     Edge 128, Type (0, 1), BuildingBlock: XIVTED_clean_linker_0, # of connection points: 2
#     Edge 129, Type (0, 1), BuildingBlock: XIVTED_clean_linker_0, # of connection points: 2
#     Edge 130, Type (0, 1), BuildingBlock: XIVTED_clean_linker_0, # of connection points: 2
#     Edge 131, Type (0, 1), BuildingBlock: XIVTED_clean_linker_0, # of connection points: 2
#     Edge 132, Type (0, 1), BuildingBlock: XIVTED_clean_linker_0, # of connection points: 2
#     Edge 133, Type (0, 1), BuildingBlock: XIVTED_clean_linker_0, # of connection points: 2
#     Edge 134, Type (0, 1), BuildingBlock: XIVTED_clean_linker_0, # of connection points: 2
#     Edge 135, Type (0, 1), BuildingBlock: XIVTED_clean_linker_0, # of connection points: 2
# Relax obj value: 0.305
# Max RMSD: 0.284
# Mean RMSD: 0.259
data_MOF--net-ibd--node1-CEKHIL_clean_sbu_0--node2-IZENUY_clean_sbu_0--edge1-XIVTED_clean_linker_0
_symmetry_space_group_name_H-M    P1
_symmetry_Int_Tables_number       1
_symmetry_cell_setting            triclinic
loop_
_symmetry_equiv_pos_as_xyz
'x, y, z'
_cell_length_a     48.835781
_cell_length_b     48.833017
_cell_length_c     48.841361
_cell_angle_alpha  90.314569
_cell_angle_beta   90.29294
_cell_angle_gamma 90.875502
loop_
_atom_site_label
_atom_site_type_symbol
_atom_site_fract_x
_atom_site_fract_y
_atom_site_fract_z
_atom_type_partial_charge
Co0 Co -0.00067 0.27189 0.36535 0.0
O1 O 0.98224 0.29492 0.33856 0.0
O2 O 0.96829 0.25292 0.34978 0.0
C3 C 0.00515 0.30397 0.398 0.0
O4 O 0.00907 0.24239 0.39213 0.0
Co5 Co 0.05789 0.28025 0.38892 0.0
O6 O 0.04438 0.25563 0.41865 0.0
C7 C 0.04997 0.25859 0.33289 0.0
C8 C 0.96468 0.2748 0.33538 0.0
C9 C 0.0239 0.23987 0.41363 0.0
O10 O 0.02406 0.25592 0.33695 0.0
O11 O 0.06654 0.26995 0.35006 0.0
O12 O 0.9814 0.29186 0.39482 0.0
O13 O 0.02353 0.29791 0.3802 0.0
Co14 Co 0.99106 0.71831 0.62341 0.0
O15 O 0.96686 0.71229 0.65409 0.0
O16 O 0.98423 0.75248 0.6416 0.0
C17 C 0.96741 0.69247 0.5931 0.0
O18 O 0.01503 0.73386 0.59329 0.0
Co19 Co 0.02281 0.6725 0.59319 0.0
O20 O 0.03466 0.7015 0.56752 0.0
C21 C 0.04028 0.69117 0.64832 0.0
C22 C 0.96859 0.73863 0.65808 0.0
C23 C 0.02986 0.72648 0.57298 0.0
O24 O 0.02383 0.7115 0.64733 0.0
O25 O 0.04107 0.67244 0.62993 0.0
O26 O 0.95979 0.71735 0.59842 0.0
O27 O 0.98759 0.68352 0.60742 0.0
Co28 Co 0.50707 0.75932 0.87717 0.0
O29 O 0.50297 0.78493 0.84772 0.0
O30 O 0.47387 0.75099 0.85749 0.0
C31 C 0.51903 0.7904 0.90915 0.0
O32 O 0.5024 0.73017 0.90597 0.0
Co33 Co 0.56132 0.74969 0.90855 0.0
O34 O 0.5376 0.73032 0.93555 0.0
C35 C 0.55429 0.72958 0.85188 0.0
C36 C 0.48009 0.77193 0.84238 0.0
C37 C 0.51355 0.72258 0.92844 0.0
O38 O 0.52843 0.73412 0.85294 0.0
O39 O 0.57121 0.73673 0.87081 0.0
O40 O 0.4933 0.78636 0.90307 0.0
O41 O 0.53638 0.77702 0.89467 0.0
Co42 Co 0.48308 0.24768 0.12909 0.0
O43 O 0.45504 0.24883 0.15664 0.0
O44 O 0.48903 0.27914 0.15231 0.0
C45 C 0.45551 0.23886 0.09337 0.0
O46 O 0.51451 0.25484 0.10326 0.0
Co47 Co 0.49531 0.19575 0.09445 0.0
O48 O 0.51868 0.22085 0.07248 0.0
C49 C 0.51276 0.19877 0.15223 0.0
C50 C 0.46709 0.27126 0.16516 0.0
C51 C 0.52506 0.24462 0.08156 0.0
O52 O 0.50647 0.22428 0.15339 0.0
O53 O 0.50769 0.18345 0.13142 0.0
O54 O 0.45857 0.26389 0.1022 0.0
O55 O 0.46713 0.22008 0.10757 0.0
Co56 Co 0.0149 0.77845 0.12232 0.0
O57 O 0.0143 0.79997 0.08946 0.0
O58 O 0.98109 0.77167 0.10285 0.0
C59 C 0.02978 0.81186 0.15063 0.0
O60 O 0.00702 0.75405 0.1549 0.0
Co61 Co 0.06808 0.76809 0.15598 0.0
O62 O 0.04216 0.75599 0.18475 0.0
C63 C 0.05763 0.73773 0.10439 0.0
C64 C 0.99002 0.78946 0.0852 0.0
C65 C 0.01769 0.74903 0.17841 0.0
O66 O 0.03338 0.74763 0.10252 0.0
O67 O 0.07494 0.7449 0.12295 0.0
O68 O 0.00401 0.81023 0.14388 0.0
O69 O 0.04568 0.79513 0.13815 0.0
Co70 Co 0.4635 0.73073 0.37544 0.0
O71 O 0.43931 0.73184 0.40647 0.0
O72 O 0.46862 0.76485 0.3943 0.0
C73 C 0.43278 0.71489 0.34471 0.0
O74 O 0.49097 0.73852 0.34561 0.0
Co75 Co 0.4792 0.67794 0.34472 0.0
O76 O 0.49991 0.7021 0.31931 0.0
C77 C 0.50069 0.68855 0.40023 0.0
C78 C 0.45015 0.75594 0.41118 0.0
C79 C 0.50301 0.72738 0.32523 0.0
O80 O 0.49195 0.71319 0.39899 0.0
O81 O 0.49601 0.67058 0.38155 0.0
O82 O 0.43399 0.74085 0.35081 0.0
O83 O 0.44869 0.69918 0.35863 0.0
Co84 Co 0.51709 0.24576 0.62554 0.0
O85 O 0.52359 0.27251 0.59748 0.0
O86 O 0.4849 0.24883 0.60295 0.0
C87 C 0.53434 0.27123 0.65996 0.0
O88 O 0.50198 0.21773 0.65218 0.0
Co89 Co 0.56433 0.22022 0.65934 0.0
O90 O 0.53467 0.20206 0.68032 0.0
C91 C 0.55444 0.20265 0.60228 0.0
C92 C 0.49847 0.26767 0.58979 0.0
C93 C 0.50983 0.20294 0.67234 0.0
O94 O 0.53195 0.21603 0.60154 0.0
O95 O 0.57127 0.20376 0.62244 0.0
O96 O 0.50937 0.27491 0.65157 0.0
O97 O 0.5485 0.25388 0.64619 0.0
Co98 Co 0.95714 0.24467 0.87594 0.0
O99 O 0.93521 0.24897 0.90811 0.0
O100 O 0.96978 0.2764 0.89572 0.0
C101 C 0.92316 0.23619 0.8462 0.0
O102 O 0.98403 0.24789 0.84489 0.0
Co103 Co 0.96052 0.19021 0.84358 0.0
O104 O 0.98352 0.21111 0.81724 0.0
C105 C 0.98589 0.19503 0.898 0.0
C106 C 0.95098 0.2701 0.91337 0.0
C107 C 0.99203 0.23516 0.82342 0.0
O108 O 0.98242 0.22102 0.89738 0.0
O109 O 0.97698 0.17859 0.87939 0.0
O110 O 0.92936 0.26134 0.85304 0.0
O111 O 0.93595 0.21723 0.85919 0.0
Co112 Co 0.36596 0.00686 0.23028 0.0
O113 O 0.39954 0.00767 0.21017 0.0
O114 O 0.37926 0.97019 0.22651 0.0
C115 C 0.34308 0.03469 0.20233 0.0
O116 O 0.33097 -0.00254 0.25052 0.0
Co117 Co 0.34207 0.05906 0.25708 0.0
O118 O 0.31002 0.03535 0.2655 0.0
C119 C 0.38929 0.03192 0.28262 0.0
C120 C 0.39928 0.9812 0.21278 0.0
C121 C 0.31086 0.00951 0.26208 0.0
O122 O 0.38676 0.01183 0.26563 0.0
O123 O 0.37481 0.05352 0.28128 0.0
O124 O 0.34537 0.00887 0.1963 0.0
O125 O 0.35648 0.04325 0.22367 0.0
Co126 Co 0.27179 0.13458 0.52217 0.0
O127 O 0.27314 0.10539 0.54812 0.0
O128 O 0.30683 0.11707 0.51986 0.0
C129 C 0.25296 0.16405 0.55166 0.0
O130 O 0.27898 0.16416 0.49377 0.0
Co131 Co 0.2177 0.16219 0.50428 0.0
O132 O 0.24167 0.18927 0.48588 0.0
C133 C 0.23083 0.10625 0.4853 0.0
C134 C 0.29773 0.10124 0.53921 0.0
C135 C 0.26699 0.18452 0.48253 0.0
O136 O 0.25564 0.10861 0.49412 0.0
O137 O 0.21256 0.12434 0.48923 0.0
O138 O 0.27942 0.16119 0.55161 0.0
O139 O 0.23923 0.14894 0.53471 0.0
Co140 Co 0.11416 0.99508 0.74118 0.0
O141 O 0.14167 0.9952 0.71319 0.0
O142 O 0.12865 0.95896 0.73745 0.0
C143 C 0.08366 0.01944 0.71751 0.0
O144 O 0.08608 0.98584 0.77031 0.0
Co145 Co 0.09296 0.04746 0.76942 0.0
O146 O 0.06455 0.02314 0.78547 0.0
C147 C 0.1481 0.02699 0.78241 0.0
C148 C 0.14425 0.96932 0.71858 0.0
C149 C 0.06737 -0.00272 0.78456 0.0
O150 O 0.14291 0.00466 0.76925 0.0
O151 O 0.13164 0.04713 0.78335 0.0
O152 O 0.08555 0.99319 0.71335 0.0
O153 O 0.10109 0.03024 0.73449 0.0
Co154 Co 0.22916 0.88246 -0.00216 0.0
O155 O 0.22031 0.84771 0.0143 0.0
O156 O 0.26226 0.86416 0.00689 0.0
C157 C 0.19955 0.90704 0.02213 0.0
O158 O 0.24729 0.91694 0.98345 0.0
Co159 Co 0.18862 0.9172 0.96452 0.0
O160 O 0.21613 0.9472 0.96973 0.0
C161 C 0.21026 0.86587 0.9413 0.0
C162 C 0.24667 0.84485 0.01666 0.0
C163 C 0.24062 0.94107 0.97596 0.0
O164 O 0.22824 0.8651 0.96057 0.0
O165 O 0.19141 0.88382 0.94036 0.0
O166 O 0.22312 0.90067 0.03259 0.0
O167 O 0.19387 0.89688 -0.00176 0.0
Co168 Co 0.28533 0.37133 0.97517 0.0
O169 O 0.30794 0.34181 0.96323 0.0
O170 O 0.27084 0.35647 0.94148 0.0
C171 C 0.31947 0.40066 0.98618 0.0
O172 O 0.2578 0.40147 0.97945 0.0
Co173 Co 0.28597 0.39513 0.03425 0.0
O174 O 0.26427 0.42529 0.01837 0.0
C175 C 0.2565 0.34311 0.02244 0.0
C176 C 0.29119 0.33972 0.94251 0.0
C177 C 0.25262 0.42184 0.99519 0.0
O178 O 0.26165 0.34541 -0.00326 0.0
O179 O 0.2656 0.35986 0.04069 0.0
O180 O 0.31164 0.39804 0.96078 0.0
O181 O 0.30814 0.38405 0.00332 0.0
Co182 Co 0.73668 0.10976 -0.00093 0.0
O183 O 0.7581 0.0776 0.00602 0.0
O184 O 0.73818 0.08752 0.96651 0.0
C185 C 0.76564 0.14033 0.01862 0.0
O186 O 0.71491 0.14099 0.98287 0.0
Co187 Co 0.71341 0.14739 0.04465 0.0
O188 O 0.71337 0.1744 0.01452 0.0
C189 C 0.68798 0.0931 0.03387 0.0
C190 C 0.75364 0.07123 0.98047 0.0
C191 C 0.71191 0.16619 0.98977 0.0
O192 O 0.7025 0.09011 0.01209 0.0
O193 O 0.69061 0.11361 0.05015 0.0
O194 O 0.77021 0.13144 0.99393 0.0
O195 O 0.74548 0.12871 0.03124 0.0
Co196 Co 0.12781 0.45944 0.23634 0.0
O197 O 0.16208 0.44049 0.235 0.0
O198 O 0.14998 0.47007 0.26725 0.0
C199 C 0.10009 0.42367 0.22749 0.0
O200 O 0.09446 0.48142 0.24623 0.0
Co201 Co 0.0893 0.4645 0.18594 0.0
O202 O 0.06292 0.47997 0.2125 0.0
C203 C 0.1398 0.49784 0.18883 0.0
C204 C 0.16791 0.45306 0.25789 0.0
C205 C 0.07055 0.48646 0.23668 0.0
O206 O 0.14353 0.49028 0.21378 0.0
O207 O 0.12074 0.48801 0.17343 0.0
O208 O 0.1097 0.42756 0.25209 0.0
O209 O 0.1099 0.43948 0.2087 0.0
Co210 Co 0.78445 0.86939 0.50381 0.0
O211 O 0.8129 0.84262 0.50195 0.0
O212 O 0.78002 0.84806 0.47098 0.0
C213 C 0.81157 0.9049 0.5159 0.0
O214 O 0.75275 0.8948 0.49712 0.0
Co215 Co 0.76888 0.89982 0.55706 0.0
O216 O 0.74602 0.9228 0.5329 0.0
C217 C 0.75156 0.84228 0.54918 0.0
C218 C 0.80167 0.83508 0.47886 0.0
C219 C 0.74081 0.91515 0.50843 0.0
O220 O 0.76047 0.84293 0.52445 0.0
O221 O 0.75441 0.86227 0.56607 0.0
O222 O 0.80953 0.89755 0.49033 0.0
O223 O 0.79892 0.88949 0.53332 0.0
Co224 Co 0.87938 0.98642 0.24823 0.0
O225 O 0.91005 0.96404 0.25706 0.0
O226 O 0.89602 -0.00056 0.28179 0.0
C227 C 0.85032 0.95185 0.23789 0.0
O228 O 0.84807 0.013 0.24706 0.0
Co229 Co 0.85247 0.98693 0.19039 0.0
O230 O 0.82215 0.00556 0.20959 0.0
C231 C 0.90511 0.01591 0.20017 0.0
C232 C 0.91276 0.97922 0.27887 0.0
C233 C 0.8262 0.01671 0.23294 0.0
O234 O 0.9032 0.01179 0.22609 0.0
O235 O 0.8883 0.00576 0.18252 0.0
O236 O 0.8545 0.95883 0.26331 0.0
O237 O 0.86543 0.96425 0.22008 0.0
Co238 Co 0.22615 0.61966 0.51029 0.0
O239 O 0.24922 0.58934 0.51958 0.0
O240 O 0.23198 0.59743 0.47837 0.0
C241 C 0.2516 0.65193 0.5315 0.0
O242 O 0.20379 0.64902 0.49173 0.0
Co243 Co 0.19649 0.65522 0.55358 0.0
O244 O 0.18764 0.67919 0.52236 0.0
C245 C 0.17682 0.59901 0.5417 0.0
C246 C 0.24768 0.58272 0.49378 0.0
C247 C 0.19155 0.67131 0.49782 0.0
O248 O 0.19248 0.59774 0.5206 0.0
O249 O 0.17718 0.6192 0.55852 0.0
O250 O 0.25839 0.64324 0.50731 0.0
O251 O 0.23113 0.63949 0.54288 0.0
Co252 Co 0.37298 0.47547 0.75193 0.0
O253 O 0.4008 0.44852 0.75725 0.0
O254 O 0.39158 0.48237 0.78613 0.0
C255 C 0.33984 0.44601 0.73827 0.0
O256 O 0.34557 0.50594 0.75503 0.0
Co257 Co 0.34505 0.48647 0.69578 0.0
O258 O 0.31935 0.50908 0.71736 0.0
C259 C 0.40189 0.50527 0.70621 0.0
C260 C 0.40589 0.46091 0.7804 0.0
C261 C 0.32524 0.51597 0.74192 0.0
O262 O 0.39957 0.5 0.7319 0.0
O263 O 0.38357 0.49889 0.68835 0.0
O264 O 0.34491 0.44938 0.76426 0.0
O265 O 0.356 0.45882 0.7218 0.0
Co266 Co 0.62995 0.00505 0.73084 0.0
O267 O 0.65868 0.97974 0.72227 0.0
O268 O 0.65446 0.00237 0.76147 0.0
C269 C 0.59536 0.97849 0.71547 0.0
O270 O 0.60294 0.03063 0.74881 0.0
Co271 Co 0.59167 0.03063 0.68738 0.0
O272 O 0.57031 0.04356 0.7192 0.0
C273 C 0.6495 0.04833 0.69125 0.0
C274 C 0.66731 0.98417 0.74716 0.0
C275 C 0.58025 0.04244 0.74332 0.0
O276 O 0.65185 0.03625 0.71453 0.0
O277 O 0.62801 0.04635 0.67621 0.0
O278 O 0.60573 0.97438 0.73963 0.0
O279 O 0.60741 -0.00307 0.70078 0.0
Co280 Co 0.76347 0.62019 0.04375 0.0
O281 O 0.77023 0.5937 0.07166 0.0
O282 O 0.79802 0.60291 0.03694 0.0
C283 C 0.74984 0.65283 0.07281 0.0
O284 O 0.76447 0.64673 0.01201 0.0
Co285 Co 0.70593 0.6447 0.03373 0.0
O286 O 0.72505 0.66939 0.00762 0.0
C287 C 0.71725 0.58759 0.01838 0.0
C288 C 0.79312 0.58916 0.05915 0.0
C289 C 0.74972 0.66505 0.0006 0.0
O290 O 0.74321 0.5919 0.02099 0.0
O291 O 0.69918 0.60492 0.0255 0.0
O292 O 0.77587 0.64962 0.0685 0.0
O293 O 0.73351 0.63572 0.06067 0.0
Co294 Co 0.88052 0.51649 0.75165 0.0
O295 O 0.91253 0.51675 0.72895 0.0
O296 O 0.89626 0.4808 0.75167 0.0
C297 C 0.85344 0.53825 0.72199 0.0
O298 O 0.84793 0.50699 0.77527 0.0
Co299 Co 0.85238 0.56848 0.77349 0.0
O300 O 0.8207 0.5433 0.77946 0.0
C301 C 0.90348 0.54947 0.79959 0.0
C302 C 0.91401 0.49081 0.7346 0.0
C303 C 0.82505 0.51778 0.78171 0.0
O304 O 0.9029 0.52779 0.78452 0.0
O305 O 0.88614 0.56876 0.79724 0.0
O306 O 0.85774 0.51221 0.71927 0.0
O307 O 0.86718 0.55075 0.74117 0.0
Co308 Co 0.72294 0.36912 0.47826 0.0
O309 O 0.72133 0.33939 0.50415 0.0
O310 O 0.75827 0.35299 0.48141 0.0
C311 C 0.7004 0.39946 0.50388 0.0
O312 O 0.73425 0.39882 0.45187 0.0
Co313 Co 0.67303 0.39547 0.45055 0.0
O314 O 0.69917 0.42293 0.43554 0.0
C315 C 0.69095 0.34078 0.4327 0.0
C316 C 0.7474 0.33685 0.49948 0.0
C317 C 0.72471 0.41864 0.43782 0.0
O318 O 0.71266 0.34345 0.44752 0.0
O319 O 0.67171 0.35831 0.43268 0.0
O320 O 0.72622 0.39506 0.50819 0.0
O321 O 0.68836 0.38413 0.4856 0.0
Co322 Co 0.61937 0.51666 0.21909 0.0
O323 O 0.64348 0.51069 0.18853 0.0
O324 O 0.63775 0.48262 0.22368 0.0
C325 C 0.58323 0.52993 0.19443 0.0
O326 O 0.59611 0.51392 0.25331 0.0
Co327 Co 0.59412 0.57265 0.23417 0.0
O328 O 0.57119 0.55148 0.26025 0.0
C329 C 0.65275 0.56281 0.24457 0.0
C330 C 0.64962 0.48784 0.20053 0.0
C331 C 0.5775 0.52701 0.26621 0.0
O332 O 0.64946 0.53715 0.23909 0.0
O333 O 0.63378 0.58042 0.24191 0.0
O334 O 0.58805 0.50395 0.19725 0.0
O335 O 0.60113 0.54664 0.20492 0.0
Fe336 Fe 0.12665 0.11234 0.1429 0.0
Fe337 Fe 0.1002 0.162 0.11642 0.0
O338 O 0.12269 0.13405 0.11443 0.0
Fe339 Fe 0.1412 0.12716 0.08426 0.0
O340 O 0.12549 0.09349 0.08095 0.0
O341 O 0.13487 0.08171 0.12295 0.0
O342 O 0.0913 0.10177 0.14044 0.0
C343 C 0.07149 0.118 0.14107 0.0
C344 C 0.17934 0.11875 0.12708 0.0
O345 O 0.07504 0.14364 0.13808 0.0
C346 C 0.14599 0.18282 0.08677 0.0
O347 O 0.11884 0.13836 0.16862 0.0
O348 O 0.11832 0.17656 0.14567 0.0
O349 O 0.17128 0.11416 0.10269 0.0
O350 O 0.1623 0.12225 0.14608 0.0
C351 C 0.08957 0.14373 0.06427 0.0
O352 O 0.12143 0.18466 0.09487 0.0
O353 O 0.1578 0.16015 0.08541 0.0
C354 C 0.12041 0.16417 0.16806 0.0
O355 O 0.08037 0.14972 0.08751 0.0
O356 O 0.11475 0.13931 0.06077 0.0
C357 C 0.1279 0.07523 0.09881 0.0
Fe358 Fe 0.08919 0.86293 0.38999 0.0
Fe359 Fe 0.11538 0.9149 0.36701 0.0
O360 O 0.11746 0.88566 0.38798 0.0
Fe361 Fe 0.14778 0.87895 0.4067 0.0
O362 O 0.15208 0.84628 0.38938 0.0
O363 O 0.10967 0.83237 0.39533 0.0
O364 O 0.09068 0.85568 0.35362 0.0
C365 C 0.08871 0.87389 0.33557 0.0
C366 C 0.10507 0.86303 0.44313 0.0
O367 O 0.09278 0.89888 0.3413 0.0
C368 C 0.14475 0.93413 0.41367 0.0
O369 O 0.06341 0.88931 0.38503 0.0
O370 O 0.08661 0.92801 0.38608 0.0
O371 O 0.12984 0.86242 0.43545 0.0
O372 O 0.0863 0.8689 0.42644 0.0
C373 C 0.16756 0.8999 0.3562 0.0
O374 O 0.13753 0.93612 0.38886 0.0
O375 O 0.14577 0.91114 0.42528 0.0
C376 C 0.0642 0.91507 0.38804 0.0
O377 O 0.14397 0.90374 0.34652 0.0
O378 O 0.17085 0.89434 0.38131 0.0
C379 C 0.13448 0.82713 0.39052 0.0
Fe380 Fe 0.36591 0.89409 0.65761 0.0
Fe381 Fe 0.34631 0.8716 0.6025 0.0
O382 O 0.36804 0.86927 0.63139 0.0
Fe383 Fe 0.39167 0.84234 0.63423 0.0
O384 O 0.37667 0.83069 0.66603 0.0
O385 O 0.37601 0.8712 0.68528 0.0
O386 O 0.33066 0.88447 0.66441 0.0
C387 C 0.31198 0.8858 0.64656 0.0
C388 C 0.42106 0.88912 0.65335 0.0
O389 O 0.31785 0.88685 0.62134 0.0
C390 C 0.39625 0.85324 0.5799 0.0
O391 O 0.35585 0.92187 0.63486 0.0
O392 O 0.36057 0.90488 0.59358 0.0
O393 O 0.41789 0.86331 0.65216 0.0
O394 O 0.40088 0.90484 0.652 0.0
C395 C 0.34405 0.81666 0.6119 0.0
O396 O 0.37065 0.85656 0.57857 0.0
O397 O 0.40837 0.85176 0.60264 0.0
C398 C 0.36024 0.92521 0.60958 0.0
O399 O 0.33088 0.83855 0.6097 0.0
O400 O 0.36959 0.81703 0.61663 0.0
C401 C 0.37564 0.8454 0.68722 0.0
Fe402 Fe 0.39768 0.15136 0.86079 0.0
Fe403 Fe 0.38449 0.08979 0.85731 0.0
O404 O 0.3775 0.12281 0.8706 0.0
Fe405 Fe 0.35021 0.12747 0.89363 0.0
O406 O 0.33317 0.15097 0.8707 0.0
O407 O 0.37 0.17592 0.86328 0.0
O408 O 0.38791 0.14641 0.82531 0.0
C409 C 0.3928 0.12495 0.81184 0.0
C410 C 0.39187 0.16197 0.91518 0.0
O411 O 0.39637 0.10235 0.8239 0.0
C412 C 0.36949 0.0795 0.91281 0.0
O413 O 0.42904 0.13195 0.85613 0.0
O414 O 0.41917 0.09075 0.87108 0.0
O415 O 0.36685 0.15546 0.91254 0.0
O416 O 0.40852 0.15806 0.89591 0.0
C417 C 0.3286 0.08844 0.85604 0.0
O418 O 0.37365 0.07161 0.8884 0.0
O419 O 0.36535 0.10439 0.918 0.0
C420 C 0.43667 0.10866 0.8641 0.0
O421 O 0.35036 0.08641 0.8424 0.0
O422 O 0.32864 0.10025 0.8791 0.0
C423 C 0.34425 0.17283 0.86236 0.0
Fe424 Fe 0.60213 0.34962 0.88424 0.0
Fe425 Fe 0.61898 0.40624 0.86357 0.0
O426 O 0.62551 0.37741 0.88414 0.0
Fe427 Fe 0.65527 0.37616 0.90473 0.0
O428 O 0.66704 0.34582 0.88716 0.0
O429 O 0.62797 0.3236 0.89103 0.0
O430 O 0.60777 0.34351 0.84835 0.0
C431 C 0.60372 0.36107 0.83003 0.0
C432 C 0.6141 0.35301 0.9383 0.0
O433 O 0.60198 0.38632 0.83595 0.0
C434 C 0.64112 0.42915 0.91264 0.0
O435 O 0.57185 0.37025 0.87715 0.0
O436 O 0.58686 0.41254 0.88075 0.0
O437 O 0.63913 0.35575 0.93199 0.0
O438 O 0.59558 0.35456 0.92032 0.0
C439 C 0.67378 0.40214 0.85611 0.0
O440 O 0.63522 0.43097 0.88741 0.0
O441 O 0.64527 0.40628 0.92354 0.0
C442 C 0.56726 0.39549 0.88041 0.0
O443 O 0.65046 0.40197 0.84503 0.0
O444 O 0.67664 0.39644 0.88123 0.0
C445 C 0.65356 0.32361 0.88693 0.0
Fe446 Fe 0.84952 0.36761 0.10296 0.0
Fe447 Fe 0.85992 0.37809 0.16399 0.0
O448 O 0.86489 0.35805 0.13426 0.0
Fe449 Fe 0.88528 0.32842 0.13585 0.0
O450 O 0.90898 0.34214 0.11094 0.0
O451 O 0.87731 0.35476 0.0817 0.0
O452 O 0.86748 0.40027 0.10318 0.0
C453 C 0.8658 0.41773 0.12215 0.0
C454 C 0.84215 0.31241 0.10008 0.0
O455 O 0.85774 0.41071 0.14573 0.0
C456 C 0.85797 0.3236 0.18394 0.0
O457 O 0.81903 0.38248 0.11872 0.0
O458 O 0.82325 0.37256 0.1623 0.0
O459 O 0.86611 0.30961 0.1094 0.0
O460 O 0.83061 0.33534 0.10055 0.0
C461 C 0.91404 0.36631 0.16932 0.0
O462 O 0.86124 0.34915 0.1874 0.0
O463 O 0.86296 0.31267 0.16107 0.0
C464 C 0.80861 0.37926 0.14219 0.0
O465 O 0.89637 0.3848 0.16768 0.0
O466 O 0.90843 0.34191 0.16231 0.0
C467 C 0.90203 0.34956 0.08728 0.0
Fe468 Fe 0.85309 0.61469 0.38257 0.0
Fe469 Fe 0.91202 0.63233 0.37144 0.0
O470 O 0.88228 0.61369 0.36161 0.0
Fe471 Fe 0.88178 0.59397 0.33113 0.0
O472 O 0.85338 0.6128 0.31725 0.0
O473 O 0.82845 0.61045 0.35443 0.0
O474 O 0.8503 0.65126 0.37807 0.0
C475 C 0.86896 0.66801 0.38512 0.0
C476 C 0.85315 0.56071 0.36922 0.0
O477 O 0.89335 0.66008 0.38841 0.0
C478 C 0.93341 0.58361 0.34834 0.0
O479 O 0.87224 0.61913 0.41467 0.0
O480 O 0.91501 0.61321 0.40303 0.0
O481 O 0.85871 0.56706 0.34471 0.0
O482 O 0.85451 0.57828 0.38817 0.0
C483 C 0.91112 0.64261 0.31684 0.0
O484 O 0.93608 0.6084 0.3557 0.0
O485 O 0.91011 0.57359 0.34291 0.0
C486 C 0.89666 0.61361 0.42111 0.0
O487 O 0.91063 0.65242 0.34073 0.0
O488 O 0.90457 0.61771 0.31227 0.0
C489 C 0.83057 0.61451 0.32897 0.0
Fe490 Fe 0.88655 0.83394 0.86791 0.0
Fe491 Fe 0.83383 0.85706 0.89127 0.0
O492 O 0.86007 0.858 0.86668 0.0
Fe493 Fe 0.8599 0.88305 0.84091 0.0
O494 O 0.89216 0.89696 0.85281 0.0
O495 O 0.91304 0.85749 0.85397 0.0
O496 O 0.89698 0.84592 0.9013 0.0
C497 C 0.8817 0.8456 0.92193 0.0
C498 C 0.87808 0.83524 0.81319 0.0
O499 O 0.85585 0.84397 0.9192 0.0
C500 C 0.80592 0.87099 0.84188 0.0
O501 O 0.86486 0.80619 0.88236 0.0
O502 O 0.82352 0.82307 0.88055 0.0
O503 O 0.8765 0.86116 0.81488 0.0
O504 O 0.8775 0.82083 0.83446 0.0
C505 C 0.84179 0.9119 0.8882 0.0
O506 O 0.80725 0.87025 0.86786 0.0
O507 O 0.82746 0.87041 0.82787 0.0
C508 C 0.839 0.80278 0.88224 0.0
O509 O 0.84277 0.89107 0.90322 0.0
O510 O 0.84335 0.9095 0.86232 0.0
C511 C 0.91387 0.8835 0.8542 0.0
Fe512 Fe 0.87763 0.11746 0.63465 0.0
Fe513 Fe 0.8614 0.13894 0.57857 0.0
O514 O 0.88126 0.14206 0.60873 0.0
Fe515 Fe 0.90469 0.1697 0.61335 0.0
O516 O 0.887 0.18143 0.64352 0.0
O517 O 0.88602 0.14111 0.66285 0.0
O518 O 0.84253 0.12639 0.63961 0.0
C519 C 0.82446 0.12507 0.62119 0.0
C520 C 0.93273 0.12372 0.63337 0.0
O521 O 0.83112 0.12377 0.59606 0.0
C522 C 0.91388 0.15695 0.55995 0.0
O523 O 0.86842 0.0891 0.61147 0.0
O524 O 0.87536 0.10576 0.57053 0.0
O525 O 0.92951 0.14952 0.63347 0.0
O526 O 0.91257 0.10761 0.63057 0.0
C527 C 0.85875 0.19385 0.58818 0.0
O528 O 0.88821 0.15385 0.55612 0.0
O529 O 0.92361 0.15969 0.58368 0.0
C530 C 0.87352 0.08558 0.58634 0.0
O531 O 0.84607 0.17152 0.58481 0.0
O532 O 0.88416 0.19448 0.59374 0.0
C533 C 0.88307 0.16678 0.66426 0.0
Fe534 Fe 0.61515 0.06891 0.34822 0.0
Fe535 Fe 0.64859 0.10136 0.39129 0.0
O536 O 0.61887 0.09721 0.37083 0.0
Fe537 Fe 0.59278 0.12158 0.37311 0.0
O538 O 0.59707 0.13044 0.3378 0.0
O539 O 0.596 0.08816 0.32199 0.0
O540 O 0.64569 0.0787 0.33002 0.0
C541 C 0.66899 0.08221 0.34065 0.0
C542 C 0.56311 0.07167 0.36741 0.0
O543 O 0.6717 0.08568 0.36626 0.0
C544 C 0.60566 0.1162 0.42673 0.0
O545 O 0.63388 0.04498 0.37057 0.0
O546 O 0.64184 0.06929 0.40792 0.0
O547 O 0.56484 0.09743 0.36523 0.0
O548 O 0.58402 0.05715 0.36475 0.0
C549 C 0.64101 0.15407 0.37612 0.0
O550 O 0.63072 0.11754 0.42012 0.0
O551 O 0.58731 0.11383 0.40866 0.0
C552 C 0.63886 0.04649 0.3961 0.0
O553 O 0.657 0.13408 0.37591 0.0
O554 O 0.61583 0.15049 0.38124 0.0
C555 C 0.59484 0.11384 0.3181 0.0
Fe556 Fe 0.59751 0.83797 0.14019 0.0
Fe557 Fe 0.64469 0.87094 0.1154 0.0
O558 O 0.61955 0.86688 0.14083 0.0
Fe559 Fe 0.61643 0.89187 0.16682 0.0
O560 O 0.58215 0.89907 0.15589 0.0
O561 O 0.56787 0.85616 0.15456 0.0
O562 O 0.58436 0.84686 0.10691 0.0
C563 C 0.5989 0.85035 0.08602 0.0
C564 C 0.60692 0.84166 0.19469 0.0
O565 O 0.6246 0.85366 0.08823 0.0
C566 C 0.67168 0.88795 0.16391 0.0
O567 O 0.62329 0.81483 0.12582 0.0
O568 O 0.66103 0.83985 0.12543 0.0
O569 O 0.60428 0.86744 0.19318 0.0
O570 O 0.60944 0.82751 0.17333 0.0
C571 C 0.62642 0.92292 0.1191 0.0
O572 O 0.66927 0.88886 0.13806 0.0
O573 O 0.65083 0.88585 0.17888 0.0
C574 C 0.64924 0.81684 0.12637 0.0
O575 O 0.62959 0.90223 0.1041 0.0
O576 O 0.62753 0.92081 0.145 0.0
C577 C 0.56301 0.8816 0.15433 0.0
Fe578 Fe 0.37525 0.65314 0.12261 0.0
Fe579 Fe 0.33344 0.62723 0.083 0.0
O580 O 0.35232 0.62626 0.11391 0.0
Fe581 Fe 0.34814 0.59834 0.13628 0.0
O582 O 0.38348 0.5893 0.1327 0.0
O583 O 0.39959 0.6309 0.14056 0.0
O584 O 0.39518 0.64711 0.09247 0.0
C585 C 0.38612 0.64744 0.06835 0.0
C586 C 0.35362 0.64369 0.1726 0.0
O587 O 0.36054 0.64552 0.06361 0.0
C588 C 0.29536 0.60689 0.12169 0.0
O589 O 0.35516 0.67995 0.10579 0.0
O590 O 0.31728 0.65852 0.09313 0.0
O591 O 0.35524 0.61824 0.16775 0.0
O592 O 0.35662 0.66068 0.15354 0.0
C593 C 0.34738 0.57372 0.08385 0.0
O594 O 0.30307 0.60903 0.09698 0.0
O595 O 0.31262 0.60621 0.14088 0.0
C596 C 0.33003 0.6803 0.09916 0.0
O597 O 0.34855 0.59599 0.0711 0.0
O598 O 0.34066 0.57319 0.1089 0.0
C599 C 0.40323 0.60531 0.13804 0.0
Fe600 Fe 0.13223 0.59777 0.8609 0.0
Fe601 Fe 0.16567 0.63002 0.90397 0.0
O602 O 0.13626 0.62633 0.88292 0.0
Fe603 Fe 0.11072 0.65144 0.88391 0.0
O604 O 0.11609 0.65964 0.84848 0.0
O605 O 0.11431 0.61691 0.83401 0.0
O606 O 0.16329 0.60644 0.84313 0.0
C607 C 0.18654 0.60927 0.85402 0.0
C608 C 0.07984 0.60223 0.87851 0.0
O609 O 0.18902 0.61338 0.87958 0.0
C610 C 0.12201 0.64602 0.93797 0.0
O611 O 0.14985 0.57387 0.88388 0.0
O612 O 0.15817 0.59825 0.92105 0.0
O613 O 0.0823 0.62788 0.87564 0.0
O614 O 0.10052 0.58721 0.87711 0.0
C615 C 0.15961 0.68262 0.88733 0.0
O616 O 0.14734 0.64699 0.93217 0.0
O617 O 0.10418 0.64428 0.91933 0.0
C618 C 0.15515 0.5754 0.90931 0.0
O619 O 0.17508 0.66225 0.88816 0.0
O620 O 0.1343 0.67987 0.89222 0.0
C621 C 0.11432 0.64245 0.82925 0.0
Fe622 Fe 0.13472 0.36877 0.60632 0.0
Fe623 Fe 0.08859 0.33508 0.63256 0.0
O624 O 0.11044 0.36418 0.63251 0.0
Fe625 Fe 0.10789 0.38893 0.65874 0.0
O626 O 0.14243 0.38276 0.66993 0.0
O627 O 0.16014 0.38617 0.62875 0.0
O628 O 0.1514 0.33757 0.61512 0.0
C629 C 0.13992 0.31445 0.6165 0.0
C630 C 0.11696 0.4208 0.61147 0.0
O631 O 0.11402 0.31208 0.61729 0.0
C632 C 0.05432 0.37862 0.64782 0.0
O633 O 0.11358 0.35202 0.57949 0.0
O634 O 0.0743 0.34386 0.59982 0.0
O635 O 0.11862 0.41808 0.63723 0.0
O636 O 0.11941 0.40038 0.59597 0.0
C637 C 0.09913 0.33869 0.68672 0.0
O638 O 0.05931 0.35318 0.64796 0.0
O639 O 0.07345 0.39614 0.64846 0.0
C640 C 0.08787 0.34798 0.57839 0.0
O641 O 0.10164 0.32462 0.66531 0.0
O642 O 0.09631 0.36443 0.68516 0.0
C643 C 0.16298 0.38519 0.65461 0.0
Fe644 Fe 0.6475 0.61725 0.59494 0.0
Fe645 Fe 0.62632 0.59343 0.6485 0.0
O646 O 0.62564 0.61942 0.62352 0.0
Fe647 Fe 0.60321 0.64721 0.62748 0.0
O648 O 0.58634 0.63978 0.59525 0.0
O649 O 0.62362 0.63338 0.57107 0.0
O650 O 0.63244 0.5847 0.58451 0.0
C651 C 0.63287 0.56371 0.59931 0.0
C652 C 0.65183 0.67191 0.60654 0.0
O653 O 0.63645 0.56606 0.62488 0.0
C654 C 0.61844 0.64111 0.68042 0.0
O655 O 0.67544 0.60096 0.61409 0.0
O656 O 0.6615 0.60188 0.65688 0.0
O657 O 0.62641 0.67255 0.61163 0.0
O658 O 0.66387 0.64953 0.60326 0.0
C659 C 0.57171 0.60063 0.64329 0.0
O660 O 0.61615 0.61549 0.6771 0.0
O661 O 0.6186 0.65676 0.66006 0.0
C662 C 0.68059 0.60143 0.63959 0.0
O663 O 0.5912 0.58415 0.64104 0.0
O664 O 0.576 0.62637 0.64387 0.0
C665 C 0.59815 0.63755 0.5725 0.0
Fe666 Fe 0.41833 0.36899 0.38629 0.0
Fe667 Fe 0.39082 0.41909 0.36187 0.0
O668 O 0.39136 0.39258 0.38617 0.0
Fe669 Fe 0.36486 0.38955 0.41028 0.0
O670 O 0.35545 0.35611 0.3973 0.0
O671 O 0.39707 0.33984 0.39865 0.0
O672 O 0.40964 0.35777 0.35214 0.0
C673 C 0.409 0.37327 0.33166 0.0
C674 C 0.41253 0.37579 0.4408 0.0
O675 O 0.40777 0.39907 0.33465 0.0
C676 C 0.37096 0.44453 0.41049 0.0
O677 O 0.44437 0.39382 0.37373 0.0
O678 O 0.42286 0.43292 0.37463 0.0
O679 O 0.38674 0.37505 0.43735 0.0
O680 O 0.42823 0.3789 0.42064 0.0
C681 C 0.33705 0.40466 0.36161 0.0
O682 O 0.37347 0.44368 0.38462 0.0
O683 O 0.37284 0.42298 0.42438 0.0
C684 C 0.44486 0.41985 0.37425 0.0
O685 O 0.35868 0.40672 0.34782 0.0
O686 O 0.33811 0.40323 0.38753 0.0
C687 C 0.3713 0.33605 0.39732 0.0
H688 H 0.03148 0.21328 0.30575 0.0
H689 H 0.12485 0.2198 0.17706 0.0
H690 H 0.09485 0.27585 0.30396 0.0
H691 H 0.10657 0.14333 0.2177 0.0
H692 H 0.10971 0.24447 0.21824 0.0
H693 H 0.05277 0.19095 0.26649 0.0
C694 C 0.0497 0.22245 0.29688 0.0
C695 C 0.06154 0.24632 0.30806 0.0
C696 C 0.10951 0.22229 0.21806 0.0
C697 C 0.08572 0.22108 0.26332 0.0
C698 C 0.11812 0.20823 0.19471 0.0
C699 C 0.11667 0.17948 0.19384 0.0
C700 C 0.09885 0.20739 0.24013 0.0
C701 C 0.10789 0.16547 0.21732 0.0
C702 C 0.06192 0.20961 0.27473 0.0
C703 C 0.08528 0.25732 0.29595 0.0
N704 N 0.09877 0.17958 0.2393 0.0
N705 N 0.09658 0.24469 0.27395 0.0
H706 H 0.07423 0.72241 0.53922 0.0
H707 H 0.05766 0.86781 0.47218 0.0
H708 H 0.01453 0.77986 0.56841 0.0
H709 H 0.13385 0.82416 0.47037 0.0
H710 H 0.04072 0.83603 0.50703 0.0
H711 H 0.09525 0.75889 0.51199 0.0
C712 C 0.0655 0.74266 0.53983 0.0
C713 C 0.04251 0.74808 0.55598 0.0
C714 C 0.06134 0.83377 0.49937 0.0
C715 C 0.06647 0.78984 0.525 0.0
C716 C 0.07103 0.85193 0.47959 0.0
C717 C 0.09713 0.84855 0.46834 0.0
C718 C 0.07766 0.81179 0.50743 0.0
C719 C 0.11363 0.8276 0.47857 0.0
C720 C 0.07766 0.76352 0.52452 0.0
C721 C 0.03223 0.77478 0.55623 0.0
N722 N 0.10341 0.80967 0.49718 0.0
N723 N 0.04413 0.79463 0.54076 0.0
H724 H 0.44034 0.74223 0.8155 0.0
H725 H 0.38516 0.87201 0.73569 0.0
H726 H 0.47658 0.82321 0.82147 0.0
H727 H 0.38128 0.79093 0.69984 0.0
H728 H 0.40684 0.85302 0.77624 0.0
H729 H 0.4084 0.75908 0.78058 0.0
C730 C 0.4415 0.76353 0.80948 0.0
C731 C 0.46121 0.78137 0.82106 0.0
C732 C 0.40084 0.83938 0.75963 0.0
C733 C 0.42453 0.8007 0.78213 0.0
C734 C 0.3883 0.85012 0.73653 0.0
C735 C 0.38201 0.83312 0.71402 0.0
C736 C 0.40681 0.81144 0.76038 0.0
C737 C 0.38623 0.80484 0.71653 0.0
C738 C 0.42331 0.77306 0.78971 0.0
C739 C 0.46189 0.80876 0.81275 0.0
N740 N 0.39874 0.79487 0.73923 0.0
N741 N 0.4437 0.81764 0.79384 0.0
H742 H 0.46111 0.26596 0.04473 0.0
H743 H 0.366 0.1596 0.96388 0.0
H744 H 0.42296 0.19537 0.08208 0.0
H745 H 0.43691 0.19567 0.92479 0.0
H746 H 0.3793 0.18194 0.0066 0.0
H747 H 0.44493 0.2493 -0.00048 0.0
C748 C 0.44881 0.24734 0.04339 0.0
C749 C 0.44305 0.23199 0.06689 0.0
C750 C 0.39191 0.18503 0.98866 0.0
C751 C 0.42479 0.21314 0.01607 0.0
C752 C 0.38436 0.17235 0.96425 0.0
C753 C 0.40051 0.17567 0.9408 0.0
C754 C 0.41563 0.20145 0.9897 0.0
C755 C 0.42409 0.19239 0.94253 0.0
C756 C 0.43994 0.23776 0.01775 0.0
C757 C 0.42766 0.20774 0.06432 0.0
N758 N 0.431 0.20481 0.96669 0.0
N759 N 0.41892 0.19911 0.03935 0.0
H760 H 0.08114 0.81204 0.17213 0.0
H761 H 0.05519 0.90311 0.30242 0.0
H762 H 0.0003 0.84391 0.18596 0.0
H763 H 0.10061 0.82811 0.3064 0.0
H764 H 0.04055 0.89094 0.25562 0.0
H765 H 0.0952 0.82859 0.21724 0.0
C766 C 0.06639 0.82279 0.18451 0.0
C767 C 0.03931 0.82613 0.17557 0.0
C768 C 0.05367 0.87725 0.26687 0.0
C769 C 0.05554 0.84541 0.22684 0.0
C770 C 0.06208 0.88413 0.29336 0.0
C771 C 0.07908 0.86648 0.30805 0.0
C772 C 0.06308 0.85304 0.25496 0.0
C773 C 0.08737 0.8421 0.29568 0.0
C774 C 0.07446 0.83211 0.21023 0.0
C775 C 0.02128 0.8407 0.19228 0.0
N776 N 0.07953 0.83621 0.26961 0.0
N777 N 0.02972 0.84982 0.21733 0.0
H778 H 0.4484 0.81138 0.4154 0.0
H779 H 0.43476 0.8138 0.57644 0.0
H780 H 0.43692 0.73722 0.46182 0.0
H781 H 0.38828 0.86997 0.52737 0.0
H782 H 0.44999 0.79107 0.53445 0.0
H783 H 0.43892 0.83832 0.45688 0.0
C784 C 0.44384 0.80085 0.43434 0.0
C785 C 0.44309 0.77216 0.43536 0.0
C786 C 0.43687 0.8087 0.533 0.0
C787 C 0.4334 0.80256 0.48248 0.0
C788 C 0.42845 0.82185 0.5568 0.0
C789 C 0.41024 0.84372 0.55519 0.0
C790 C 0.42748 0.81794 0.50758 0.0
C791 C 0.40229 0.8531 0.52931 0.0
C792 C 0.43853 0.81616 0.45783 0.0
C793 C 0.43726 0.75934 0.46026 0.0
N794 N 0.41097 0.8401 0.50637 0.0
N795 N 0.43288 0.77468 0.48304 0.0
H796 H 0.45421 0.209 0.67188 0.0
H797 H 0.43059 0.09425 0.78513 0.0
H798 H 0.5181 0.15891 0.70562 0.0
H799 H 0.37837 0.16405 0.77499 0.0
H800 H 0.45608 0.1082 0.74448 0.0
H801 H 0.42054 0.18345 0.69897 0.0
C802 C 0.46113 0.19245 0.68475 0.0
C803 C 0.48907 0.18641 0.68694 0.0
C804 C 0.4386 0.12004 0.75078 0.0
C805 C 0.45066 0.15698 0.71751 0.0
C806 C 0.42387 0.11197 0.77381 0.0
C807 C 0.40263 0.12833 0.78362 0.0
C808 C 0.43181 0.14441 0.73746 0.0
C809 C 0.3949 0.15115 0.76826 0.0
C810 C 0.4419 0.17789 0.70012 0.0
C811 C 0.49684 0.16462 0.70374 0.0
N812 N 0.40976 0.15877 0.74609 0.0
N813 N 0.47774 0.15079 0.71854 0.0
H814 H 0.01679 0.14865 0.90148 0.0
H815 H 0.03806 0.16457 0.06256 0.0
H816 H 0.98575 0.21578 0.94948 0.0
H817 H 0.09942 0.12758 0.0114 0.0
H818 H 0.01048 0.17316 0.02188 0.0
H819 H 0.03995 0.13142 0.94271 0.0
C820 C 0.01477 0.15962 0.92068 0.0
C821 C -0.00031 0.1838 0.92214 0.0
C822 C 0.02988 0.16295 0.01965 0.0
C823 C 0.02527 0.16404 0.96892 0.0
C824 C 0.04561 0.15794 0.04283 0.0
C825 C 0.07132 0.14578 0.04029 0.0
C826 C 0.03977 0.15549 0.99382 0.0
C827 C 0.0799 0.13741 0.01418 0.0
C828 C 0.02793 0.14984 0.94405 0.0
C829 C -0.00245 0.19728 0.94743 0.0
N830 N 0.06419 0.14259 0.99182 0.0
N831 N 0.01014 0.18716 0.96986 0.0
H832 H 0.31976 0.0249 0.15247 0.0
H833 H 0.20588 0.13383 0.17426 0.0
H834 H 0.3239 0.08462 0.21789 0.0
H835 H 0.2183 0.09314 0.09668 0.0
H836 H 0.25107 0.11911 0.18919 0.0
H837 H 0.28464 0.05196 0.13003 0.0
C838 C 0.31341 0.04386 0.16197 0.0
C839 C 0.32428 0.05234 0.18726 0.0
C840 C 0.24411 0.11382 0.16872 0.0
C841 C 0.28411 0.08323 0.16192 0.0
C842 C 0.21829 0.12211 0.16024 0.0
C843 C 0.20814 0.11416 0.13445 0.0
C844 C 0.25959 0.09708 0.15144 0.0
C845 C 0.2252 0.09941 0.11689 0.0
C846 C 0.29351 0.05938 0.14909 0.0
C847 C 0.31573 0.07723 0.19854 0.0
N848 N 0.24993 0.09086 0.12593 0.0
N849 N 0.29573 0.09161 0.186 0.0
H850 H 0.19099 0.10073 0.44693 0.0
H851 H 0.18336 0.93741 0.45489 0.0
H852 H 0.24922 0.05407 0.49342 0.0
H853 H 0.13355 0.98673 0.40176 0.0
H854 H 0.20695 0.97931 0.47114 0.0
H855 H 0.17003 0.05837 0.43039 0.0
C856 C 0.19959 0.08145 0.45335 0.0
C857 C 0.22176 0.08081 0.4716 0.0
C858 C 0.19077 0.98086 0.45601 0.0
C859 C 0.19751 0.03208 0.45319 0.0
C860 C 0.17711 0.95706 0.44701 0.0
C861 C 0.15654 0.95871 0.42695 0.0
C862 C 0.18354 0.00626 0.44494 0.0
C863 C 0.14941 0.98455 0.41713 0.0
C864 C 0.18754 0.05723 0.44401 0.0
C865 C 0.23221 0.05534 0.47921 0.0
N866 N 0.16293 0.00724 0.42617 0.0
N867 N 0.21975 0.03183 0.47018 0.0
H868 H 0.17014 0.98011 0.67047 0.0
H869 H 0.28897 0.87739 0.69683 0.0
H870 H 0.16579 0.92121 0.73593 0.0
H871 H 0.2712 0.90829 0.61609 0.0
H872 H 0.2443 0.89333 0.71224 0.0
H873 H 0.20786 0.9546 0.65042 0.0
C874 C 0.17701 0.96167 0.68047 0.0
C875 C 0.16509 0.95281 0.70494 0.0
C876 C 0.25007 0.89621 0.69105 0.0
C877 C 0.20823 0.92384 0.68243 0.0
C878 C 0.27555 0.88724 0.6823 0.0
C879 C 0.2839 0.89187 0.65527 0.0
C880 C 0.23319 0.91033 0.67276 0.0
C881 C 0.26564 0.90447 0.63717 0.0
C882 C 0.19839 0.94707 0.66897 0.0
C883 C 0.17454 0.92871 0.71703 0.0
N884 N 0.2413 0.9137 0.64637 0.0
N885 N 0.19592 0.91525 0.70587 0.0
H886 H 0.236 -0.00307 0.97563 0.0
H887 H 0.37922 0.02447 0.91321 0.0
H888 H 0.29544 0.93252 0.97091 0.0
H889 H 0.33626 0.08766 0.95689 0.0
H890 H 0.35076 0.98997 0.93602 0.0
H891 H 0.27294 0.0307 0.96922 0.0
C892 C 0.25681 0.98992 0.97336 0.0
C893 C 0.26263 0.96191 0.97345 0.0
C894 C 0.34808 0.01137 0.94113 0.0
C895 C 0.30484 0.00027 0.96615 0.0
C896 C 0.3644 0.03104 0.92821 0.0
C897 C 0.35973 0.05897 0.9327 0.0
C898 C 0.32664 0.01982 0.95809 0.0
C899 C 0.34036 0.06636 0.9525 0.0
C900 C 0.2779 0.00917 0.97001 0.0
C901 C 0.29002 0.95393 0.9708 0.0
N902 N 0.32395 0.04692 0.96388 0.0
N903 N 0.31007 0.97301 0.96679 0.0
H904 H 0.28215 0.01962 0.30839 0.0
H905 H 0.17316 0.90235 0.30038 0.0
H906 H 0.29042 0.96045 0.24309 0.0
H907 H 0.21522 0.92144 0.37627 0.0
H908 H 0.20923 0.92753 0.27548 0.0
H909 H 0.2488 0.9891 0.33041 0.0
C910 C 0.27664 0.00037 0.29853 0.0
C911 C 0.28898 0.99242 0.27397 0.0
C912 C 0.21062 0.92567 0.29754 0.0
C913 C 0.25099 0.95777 0.29887 0.0
C914 C 0.19021 0.91135 0.3117 0.0
C915 C 0.19125 0.90986 0.34039 0.0
C916 C 0.23151 0.93914 0.31236 0.0
C917 C 0.21368 0.92196 0.35415 0.0
C918 C 0.2579 0.98294 0.3112 0.0
C919 C 0.28137 0.96715 0.26213 0.0
N920 N 0.23264 0.9366 0.34004 0.0
N921 N 0.26257 0.95068 0.27461 0.0
H922 H 0.29707 0.08236 0.59107 0.0
H923 H 0.36149 0.94145 0.55565 0.0
H924 H 0.33486 0.06943 0.51254 0.0
H925 H 0.35791 0.97299 0.63836 0.0
H926 H 0.35318 0.98771 0.53852 0.0
H927 H 0.31989 0.04194 0.60852 0.0
C928 C 0.31045 0.07107 0.57761 0.0
C929 C 0.31404 0.07894 0.55037 0.0
C930 C 0.35474 0.98448 0.56039 0.0
C931 C 0.33978 0.0325 0.56992 0.0
C932 C 0.35936 0.95811 0.57018 0.0
C933 C 0.35968 0.95324 0.59848 0.0
C934 C 0.35013 0.00584 0.57908 0.0
C935 C 0.3572 0.97564 0.61637 0.0
C936 C 0.32358 0.04812 0.58757 0.0
C937 C 0.33168 0.06385 0.53372 0.0
N938 N 0.35205 0.00086 0.60638 0.0
N939 N 0.34356 0.04089 0.54362 0.0
H940 H 0.19669 0.0036 0.76828 0.0
H941 H 0.28001 0.08711 0.88283 0.0
H942 H 0.16049 0.05864 0.82681 0.0
H943 H 0.31831 0.05924 0.80833 0.0
H944 H 0.23689 0.06729 0.86729 0.0
H945 H 0.24208 0.01471 0.78769 0.0
C946 C 0.19826 0.01763 0.78549 0.0
C947 C 0.17492 0.03043 0.7959 0.0
C948 C 0.25471 0.06543 0.85433 0.0
C949 C 0.22634 0.04302 0.81798 0.0
C950 C 0.27943 0.07678 0.86315 0.0
C951 C 0.30282 0.07522 0.84664 0.0
C952 C 0.25315 0.05235 0.82879 0.0
C953 C 0.30071 0.06117 0.82154 0.0
C954 C 0.2241 0.02408 0.79636 0.0
C955 C 0.17801 0.04856 0.81803 0.0
N956 N 0.27616 0.05036 0.81324 0.0
N957 N 0.20326 0.05434 0.8283 0.0
H958 H 0.15581 0.93331 -0.00012 0.0
H959 H 0.14155 0.03112 0.1299 0.0
H960 H 0.20265 0.9259 0.0746 0.0
H961 H 0.11638 0.05337 0.04816 0.0
H962 H 0.15164 0.98523 0.11328 0.0
H963 H 0.12983 0.97027 0.02096 0.0
C964 C 0.16038 0.93923 0.02083 0.0
C965 C 0.18173 0.92701 0.03541 0.0
C966 C 0.14353 7e-05 0.0991 0.0
C967 C 0.15204 0.96881 0.05956 0.0
C968 C 0.13771 0.02625 0.10854 0.0
C969 C 0.12887 0.04632 0.09018 0.0
C970 C 0.14039 0.99394 0.07117 0.0
C971 C 0.12378 0.03869 0.06287 0.0
C972 C 0.14555 0.96026 0.03281 0.0
C973 C 0.18666 0.93519 0.06253 0.0
N974 N 0.13003 0.01315 0.05406 0.0
N975 N 0.17205 0.95578 0.07369 0.0
H976 H 0.227 0.33946 0.06967 0.0
H977 H 0.18645 0.18362 0.04892 0.0
H978 H 0.24553 0.29489 -0.00442 0.0
H979 H 0.13881 0.23681 0.10036 0.0
H980 H 0.21191 0.22335 0.03221 0.0
H981 H 0.19802 0.30108 0.08445 0.0
C982 C 0.22501 0.32159 0.05654 0.0
C983 C 0.23879 0.32025 0.03142 0.0
C984 C 0.19579 0.22636 0.04703 0.0
C985 C 0.20585 0.27648 0.04825 0.0
C986 C 0.18136 0.20372 0.05671 0.0
C987 C 0.1606 0.20701 0.07615 0.0
C988 C 0.18977 0.25244 0.0572 0.0
C989 C 0.15465 0.23349 0.08533 0.0
C990 C 0.20833 0.29985 0.0649 0.0
C991 C 0.23527 0.29675 0.01508 0.0
N992 N 0.16943 0.25529 0.07596 0.0
N993 N 0.21931 0.27564 0.02392 0.0
H994 H 0.68367 0.15977 0.94141 0.0
H995 H 0.70713 0.3166 0.9017 0.0
H996 H 0.73036 0.21871 0.98927 0.0
H997 H 0.63304 0.27155 0.88099 0.0
H998 H 0.7263 0.27474 0.92044 0.0
H999 H 0.67468 0.19561 0.90738 0.0
C1000 C 0.69221 0.18015 0.94457 0.0
C1001 C 0.70723 0.18661 0.96835 0.0
C1002 C 0.7061 0.27395 0.91118 0.0
C1003 C 0.69789 0.22697 0.92948 0.0
C1004 C 0.6952 0.29776 0.9003 0.0
C1005 C 0.66816 0.29766 0.89044 0.0
C1006 C 0.68995 0.24996 0.91191 0.0
C1007 C 0.65376 0.27258 0.88898 0.0
C1008 C 0.68717 0.20045 0.9252 0.0
C1009 C 0.71812 0.21315 0.97148 0.0
N1010 N 0.66466 0.24974 0.90008 0.0
N1011 N 0.71319 0.23241 0.95228 0.0
H1012 H 0.0859 0.39433 0.18232 0.0
H1013 H 0.92903 0.40696 0.20561 0.0
H1014 H 0.0558 0.42063 0.26089 0.0
H1015 H 0.96095 0.33924 0.15909 0.0
H1016 H 0.97534 0.41641 0.2236 0.0
H1017 H 0.03998 0.37683 0.17068 0.0
C1018 C 0.06968 0.39583 0.19729 0.0
C1019 C 0.07444 0.40859 0.22261 0.0
C1020 C 0.97199 0.39933 0.20966 0.0
C1021 C 0.02211 0.38981 0.20917 0.0
C1022 C 0.94576 0.39413 0.19924 0.0
C1023 C 0.94132 0.37239 0.18082 0.0
C1024 C 0.99381 0.3831 0.20097 0.0
C1025 C 0.96357 0.35617 0.17332 0.0
C1026 C 0.0436 0.38596 0.19067 0.0
C1027 C 0.05285 0.41049 0.2413 0.0
N1028 N 0.98898 0.36209 0.18314 0.0
N1029 N 0.02733 0.40168 0.23398 0.0
H1030 H 0.77862 0.81057 0.43384 0.0
H1031 H 0.90026 0.70476 0.41452 0.0
H1032 H 0.84999 0.80855 0.48628 0.0
H1033 H 0.82009 0.69374 0.37796 0.0
H1034 H 0.88528 0.74774 0.43489 0.0
H1035 H 0.79666 0.77223 0.40754 0.0
C1036 C 0.79815 0.80213 0.43974 0.0
C1037 C 0.81277 0.81256 0.46237 0.0
C1038 C 0.87106 0.73598 0.42225 0.0
C1039 C 0.83353 0.76891 0.43234 0.0
C1040 C 0.87961 0.71153 0.41049 0.0
C1041 C 0.86127 0.69549 0.39476 0.0
C1042 C 0.84407 0.74454 0.41808 0.0
C1043 C 0.8348 0.70531 0.39019 0.0
C1044 C 0.8084 0.78025 0.42474 0.0
C1045 C 0.83798 0.80094 0.46909 0.0
N1046 N 0.82693 0.72916 0.40194 0.0
N1047 N 0.84757 0.77966 0.45413 0.0
H1048 H 0.92711 0.01592 0.14904 0.0
H1049 H 0.03247 0.13937 0.17483 0.0
H1050 H 0.93437 0.05551 0.22811 0.0
H1051 H 0.04955 0.07063 0.12209 0.0
H1052 H 0.98928 0.11654 0.18842 0.0
H1053 H 0.96534 0.04404 0.13267 0.0
C1054 C 0.93663 0.03065 0.16291 0.0
C1055 C 0.92777 0.03324 0.19005 0.0
C1056 C 0.00247 0.10671 0.17369 0.0
C1057 C 0.97112 0.0656 0.1713 0.0
C1058 C 0.02686 0.11972 0.16585 0.0
C1059 C 0.0444 0.10663 0.14752 0.0
C1060 C -0.0044 0.08096 0.16249 0.0
C1061 C 0.03654 0.08117 0.13648 0.0
C1062 C 0.95841 0.04662 0.15355 0.0
C1063 C 0.94085 0.05267 0.20713 0.0
N1064 N 0.01263 0.06915 0.1441 0.0
N1065 N 0.96194 0.06822 0.19744 0.0
H1066 H 0.30194 0.67316 0.51944 0.0
H1067 H 0.28944 0.80401 0.61363 0.0
H1068 H 0.23343 0.68323 0.57389 0.0
H1069 H 0.3678 0.77064 0.59181 0.0
H1070 H 0.26697 0.7623 0.59589 0.0
H1071 H 0.3252 0.71197 0.54197 0.0
C1072 C 0.29181 0.68359 0.5361 0.0
C1073 C 0.26577 0.67514 0.54483 0.0
C1074 C 0.2891 0.76406 0.59531 0.0
C1075 C 0.29202 0.71937 0.57041 0.0
C1076 C 0.30188 0.7878 0.60533 0.0
C1077 C 0.33045 0.79072 0.60408 0.0
C1078 C 0.30501 0.74351 0.58347 0.0
C1079 C 0.34571 0.76914 0.59324 0.0
C1080 C 0.30513 0.70554 0.54903 0.0
C1081 C 0.25354 0.68916 0.5666 0.0
N1082 N 0.33275 0.74654 0.58297 0.0
N1083 N 0.26669 0.71084 0.57853 0.0
H1084 H 0.0578 0.47224 0.28871 0.0
H1085 H 0.97786 0.60623 0.32359 0.0
H1086 H 0.03975 0.53121 0.22603 0.0
H1087 H 0.94255 0.52843 0.34744 0.0
H1088 H 0.01268 0.58197 0.29744 0.0
H1089 H 0.02591 0.49565 0.31961 0.0
C1090 C 0.04715 0.49017 0.28158 0.0
C1091 C 0.05114 0.49993 0.25493 0.0
C1092 C -0.00244 0.57032 0.30885 0.0
C1093 C 0.01583 0.52691 0.29006 0.0
C1094 C 0.97793 0.58405 0.32401 0.0
C1095 C 0.9574 0.56922 0.33771 0.0
C1096 C -0.00299 0.54167 0.30801 0.0
C1097 C 0.95811 0.54051 0.33713 0.0
C1098 C 0.02907 0.50337 0.2991 0.0
C1099 C 0.03696 0.52309 0.24642 0.0
N1100 N 0.97771 0.52755 0.32247 0.0
N1101 N 0.0201 0.53609 0.26412 0.0
H1102 H 0.42747 0.40991 0.78204 0.0
H1103 H 0.54909 0.44855 0.88088 0.0
H1104 H 0.43132 0.48871 0.8224 0.0
H1105 H 0.52156 0.365 0.86761 0.0
H1106 H 0.50605 0.46443 0.86109 0.0
H1107 H 0.46273 0.39349 0.81324 0.0
C1108 C 0.43576 0.42374 0.79751 0.0
C1109 C 0.42671 0.45074 0.79955 0.0
C1110 C 0.50928 0.44264 0.86306 0.0
C1111 C 0.46704 0.43217 0.83525 0.0
C1112 C 0.5338 0.43354 0.87439 0.0
C1113 C 0.53923 0.40539 0.87535 0.0
C1114 C 0.49036 0.42344 0.85231 0.0
C1115 C 0.51852 0.3869 0.86688 0.0
C1116 C 0.45568 0.4143 0.81547 0.0
C1117 C 0.43787 0.46775 0.82014 0.0
N1118 N 0.49526 0.39626 0.85518 0.0
N1119 N 0.45779 0.45829 0.83702 0.0
H1120 H 0.93542 0.71546 0.697 0.0
H1121 H 0.89901 0.85928 0.76687 0.0
H1122 H 0.96601 0.79355 0.66839 0.0
H1123 H 0.87662 0.78067 0.8008 0.0
H1124 H 0.91886 0.83581 0.72742 0.0
H1125 H 0.90972 0.73926 0.73257 0.0
C1126 C 0.93673 0.7376 0.6982 0.0
C1127 C 0.953 0.75253 0.67982 0.0
C1128 C 0.90938 0.82373 0.7434 0.0
C1129 C 0.92353 0.77992 0.72031 0.0
C1130 C 0.89787 0.83713 0.76583 0.0
C1131 C 0.88636 0.82192 0.7873 0.0
C1132 C 0.90927 0.79494 0.7424 0.0
C1133 C 0.88554 0.79323 0.78487 0.0
C1134 C 0.92202 0.75119 0.71847 0.0
C1135 C 0.95384 0.7812 0.68223 0.0
N1136 N 0.897 0.78069 0.76296 0.0
N1137 N 0.93936 0.79395 0.70212 0.0
H1138 H 0.03945 0.23513 0.46765 0.0
H1139 H 0.90219 0.15708 0.50467 0.0
H1140 H 0.98591 0.19898 0.40626 0.0
H1141 H 0.96882 0.16777 0.5625 0.0
H1142 H 0.93335 0.17065 0.46783 0.0
H1143 H 0.01542 0.20844 0.50264 0.0
C1144 C 0.02312 0.22114 0.46143 0.0
C1145 C 0.0144 0.21968 0.43407 0.0
C1146 C 0.94118 0.16964 0.48857 0.0
C1147 C 0.98649 0.18962 0.47392 0.0
C1148 C 0.92337 0.16196 0.50959 0.0
C1149 C 0.93272 0.16172 0.53677 0.0
C1150 C 0.96836 0.17743 0.49489 0.0
C1151 C 0.9605 0.16805 0.54191 0.0
C1152 C 0.00931 0.206 0.48141 0.0
C1153 C 0.99304 0.20119 0.4272 0.0
N1154 N 0.97719 0.17603 0.52126 0.0
N1155 N 0.9795 0.18729 0.44704 0.0
H1156 H 0.53436 0.22461 0.19756 0.0
H1157 H 0.57485 0.0861 0.2728 0.0
H1158 H 0.52346 0.14457 0.16054 0.0
H1159 H 0.59664 0.16712 0.3024 0.0
H1160 H 0.55691 0.10663 0.23079 0.0
H1161 H 0.55753 0.20343 0.23617 0.0
C1162 C 0.53681 0.2026 0.19754 0.0
C1163 C 0.52685 0.18637 0.17581 0.0
C1164 C 0.56584 0.11982 0.24644 0.0
C1165 C 0.5534 0.16196 0.21994 0.0
C1166 C 0.57613 0.10812 0.27035 0.0
C1167 C 0.58685 0.12494 0.29127 0.0
C1168 C 0.56628 0.14848 0.24363 0.0
C1169 C 0.58812 0.15335 0.287 0.0
C1170 C 0.55017 0.19051 0.21953 0.0
C1171 C 0.53078 0.15792 0.17684 0.0
N1172 N 0.57774 0.16421 0.2638 0.0
N1173 N 0.54364 0.14661 0.19862 0.0
H1174 H 0.48897 0.80682 0.95351 0.0
H1175 H 0.62367 0.8538 0.03598 0.0
H1176 H 0.57035 0.80948 0.91951 0.0
H1177 H 0.54479 0.84088 0.07383 0.0
H1178 H 0.60251 0.84567 0.99128 0.0
H1179 H 0.50718 0.82748 -0.0041 0.0
C1180 C 0.51055 0.81216 0.95484 0.0
C1181 C 0.5283 0.80614 0.93326 0.0
C1182 C 0.5898 0.84477 0.00936 0.0
C1183 C 0.54918 0.82953 0.98133 0.0
C1184 C 0.60189 0.84936 0.0349 0.0
C1185 C 0.58609 0.84747 0.05872 0.0
C1186 C 0.56173 0.83818 0.00763 0.0
C1187 C 0.55786 0.8421 0.05603 0.0
C1188 C 0.52095 0.82383 0.979 0.0
C1189 C 0.55606 0.81344 0.93589 0.0
N1190 N 0.54661 0.83737 0.03094 0.0
N1191 N 0.56569 0.82455 0.95958 0.0
H1192 H 0.89707 0.18806 0.83527 0.0
H1193 H 0.88634 0.22149 0.67734 0.0
H1194 H 0.91189 0.2686 0.80212 0.0
H1195 H 0.87084 0.14184 0.71253 0.0
H1196 H 0.88629 0.24151 0.72331 0.0
H1197 H 0.87742 0.17351 0.79156 0.0
C1198 C 0.89575 0.2028 0.81882 0.0
C1199 C 0.90652 0.22936 0.82198 0.0
C1200 C 0.88251 0.21972 0.72091 0.0
C1201 C 0.88468 0.21277 0.77176 0.0
C1202 C 0.88259 0.20826 0.69469 0.0
C1203 C 0.87936 0.17984 0.69121 0.0
C1204 C 0.87921 0.20258 0.74369 0.0
C1205 C 0.87411 0.16375 0.71433 0.0
C1206 C 0.88454 0.19451 0.79387 0.0
C1207 C 0.90398 0.24783 0.80031 0.0
N1208 N 0.87458 0.1753 0.73961 0.0
N1209 N 0.89381 0.23901 0.7758 0.0
H1210 H 0.60298 0.17727 0.59217 0.0
H1211 H 0.55372 0.1191 0.44695 0.0
H1212 H 0.52176 0.18803 0.55872 0.0
H1213 H 0.63875 0.12724 0.47101 0.0
H1214 H 0.54038 0.13528 0.49214 0.0
H1215 H 0.61482 0.15042 0.55181 0.0
C1216 C 0.58756 0.17387 0.57644 0.0
C1217 C 0.56142 0.18524 0.57866 0.0
C1218 C 0.56195 0.13332 0.48758 0.0
C1219 C 0.57488 0.15442 0.5326 0.0
C1220 C 0.56961 0.12404 0.46181 0.0
C1221 C 0.59743 0.12238 0.45503 0.0
C1222 C 0.58222 0.14089 0.50669 0.0
C1223 C 0.61708 0.12863 0.47525 0.0
C1224 C 0.59438 0.15854 0.55343 0.0
C1225 C 0.54226 0.17999 0.55772 0.0
N1226 N 0.60908 0.1379 0.50015 0.0
N1227 N 0.54943 0.16504 0.53547 0.0
H1228 H 0.51029 0.78292 0.32866 0.0
H1229 H 0.61865 0.78888 0.20717 0.0
H1230 H 0.53859 0.71179 0.28475 0.0
H1231 H 0.5781 0.8601 0.2391 0.0
H1232 H 0.59685 0.76103 0.24239 0.0
H1233 H 0.54115 0.81164 0.30183 0.0
C1234 C 0.52301 0.77327 0.3134 0.0
C1235 C 0.52163 0.74483 0.30879 0.0
C1236 C 0.59301 0.78281 0.24195 0.0
C1237 C 0.55723 0.77778 0.27817 0.0
C1238 C 0.60558 0.79878 0.22198 0.0
C1239 C 0.59978 0.82677 0.21992 0.0
C1240 C 0.57447 0.7949 0.26001 0.0
C1241 C 0.583 0.83858 0.23984 0.0
C1242 C 0.54068 0.78975 0.29815 0.0
C1243 C 0.53875 0.7336 0.28882 0.0
N1244 N 0.57056 0.82246 0.25884 0.0
N1245 N 0.55579 0.75013 0.27419 0.0
H1246 H 0.93723 0.77375 0.07293 0.0
H1247 H 0.9318 0.86447 0.93756 0.0
H1248 H 0.00345 0.82605 0.0453 0.0
H1249 H 0.86219 0.818 0.9669 0.0
H1250 H 0.95719 0.85242 0.97864 0.0
H1251 H 0.90868 0.79043 0.03537 0.0
C1252 C 0.94579 0.78868 0.05892 0.0
C1253 C 0.9728 0.79845 0.06214 0.0
C1254 C 0.93628 0.84503 0.97634 0.0
C1255 C 0.94023 0.81774 0.01937 0.0
C1256 C 0.92175 0.85198 0.95291 0.0
C1257 C 0.89495 0.84207 0.94881 0.0
C1258 C 0.92408 0.82772 -0.00423 0.0
C1259 C 0.88281 0.82612 0.96938 0.0
C1260 C 0.92943 0.79829 0.0376 0.0
C1261 C 0.98279 0.81788 0.04353 0.0
N1262 N 0.89763 0.81912 0.9919 0.0
N1263 N 0.96653 0.82682 0.02293 0.0
H1264 H 0.69851 0.94469 0.72292 0.0
H1265 H 0.76214 0.896 0.86559 0.0
H1266 H 0.68296 0.98361 0.80077 0.0
H1267 H 0.79358 0.87043 0.78719 0.0
H1268 H 0.72718 0.92231 0.84199 0.0
H1269 H 0.72938 0.91301 0.74599 0.0
C1270 C 0.70179 0.94673 0.7448 0.0
C1271 C 0.68827 0.96688 0.75994 0.0
C1272 C 0.74153 0.91067 0.82996 0.0
C1273 C 0.72293 0.93041 0.78646 0.0
C1274 C 0.76129 0.89535 0.84343 0.0
C1275 C 0.78099 0.8812 0.82833 0.0
C1276 C 0.74138 0.91173 0.80122 0.0
C1277 C 0.77895 0.88127 0.79962 0.0
C1278 C 0.71925 0.92856 0.75795 0.0
C1279 C 0.69308 0.96849 0.78826 0.0
N1280 N 0.75967 0.89654 0.78697 0.0
N1281 N 0.70991 0.95042 0.80061 0.0
H1282 H 0.83194 0.94641 0.48393 0.0
H1283 H 0.87402 0.0375 0.61431 0.0
H1284 H 0.82428 0.92044 0.56792 0.0
H1285 H 0.86953 0.06987 0.53232 0.0
H1286 H 0.86448 0.99185 0.59607 0.0
H1287 H 0.85347 0.98935 0.49996 0.0
C1288 C 0.835 0.94967 0.5057 0.0
C1289 C 0.82608 0.93007 0.52468 0.0
C1290 C 0.86579 0.00888 0.58201 0.0
C1291 C 0.85071 0.97875 0.54304 0.0
C1292 C 0.87127 0.03497 0.59241 0.0
C1293 C 0.872 0.0576 0.57487 0.0
C1294 C 0.86084 0.00537 0.55387 0.0
C1295 C 0.86881 0.05302 0.54662 0.0
C1296 C 0.84726 0.97411 0.51481 0.0
C1297 C 0.83059 0.93517 0.55261 0.0
N1298 N 0.86298 0.02741 0.53699 0.0
N1299 N 0.84247 0.95906 0.56094 0.0
H1300 H 0.77437 0.02568 0.21317 0.0
H1301 H 0.72312 0.08517 0.35584 0.0
H1302 H 0.82804 0.04488 0.28146 0.0
H1303 H 0.67032 0.07148 0.28568 0.0
H1304 H 0.76265 0.07517 0.32726 0.0
H1305 H 0.73686 0.04733 0.23755 0.0
C1306 C 0.77839 0.03476 0.2331 0.0
C1307 C 0.80431 0.03307 0.24544 0.0
C1308 C 0.74242 0.0746 0.31808 0.0
C1309 C 0.76144 0.05764 0.27354 0.0
C1310 C 0.71984 0.08026 0.33441 0.0
C1311 C 0.69334 0.07872 0.32327 0.0
C1312 C 0.73843 0.06721 0.29047 0.0
C1313 C 0.69035 0.07256 0.29527 0.0
C1314 C 0.75694 0.04708 0.24704 0.0
C1315 C 0.80832 0.04534 0.27126 0.0
N1316 N 0.7126 0.06674 0.27992 0.0
N1317 N 0.78703 0.0568 0.28458 0.0
H1318 H 0.67645 0.04448 0.0072 0.0
H1319 H 0.6278 0.97396 0.14327 0.0
H1320 H 0.65712 0.09027 0.08039 0.0
H1321 H 0.62427 0.93353 0.0644 0.0
H1322 H 0.63423 0.01781 0.11997 0.0
H1323 H 0.65294 0.0046 0.02643 0.0
C1324 C 0.66689 0.04633 0.02707 0.0
C1325 C 0.66935 0.07061 0.04242 0.0
C1326 C 0.63162 -0.00065 0.10779 0.0
C1327 C 0.64279 0.02496 0.06472 0.0
C1328 C 0.62802 0.97433 0.1211 0.0
C1329 C 0.6262 0.94999 0.10581 0.0
C1330 C 0.63369 -0.00012 0.07908 0.0
C1331 C 0.62624 0.95171 0.07708 0.0
C1332 C 0.65345 0.02354 0.03806 0.0
C1333 C 0.65624 0.07185 0.06797 0.0
N1334 N 0.63042 0.97616 0.06468 0.0
N1335 N 0.644 0.04918 0.07854 0.0
H1336 H 0.65753 0.06612 0.63882 0.0
H1337 H 0.80379 0.13314 0.67209 0.0
H1338 H 0.69495 0.06718 0.71918 0.0
H1339 H 0.78013 0.10639 0.59079 0.0
H1340 H 0.75907 0.11886 0.6889 0.0
H1341 H 0.69783 0.08992 0.62073 0.0
C1342 C 0.67408 0.07158 0.65276 0.0
C1343 C 0.67294 0.06444 0.68059 0.0
C1344 C 0.76357 0.11629 0.66735 0.0
C1345 C 0.71894 0.09181 0.65991 0.0
C1346 C 0.78908 0.12447 0.65767 0.0
C1347 C 0.79592 0.1204 0.63005 0.0
C1348 C 0.74459 0.10405 0.64933 0.0
C1349 C 0.7758 0.10962 0.61227 0.0
C1350 C 0.69707 0.08509 0.64233 0.0
C1351 C 0.69502 0.07204 0.69758 0.0
N1352 N 0.75104 0.10151 0.6223 0.0
N1353 N 0.71715 0.08529 0.68694 0.0
H1354 H 0.7272 0.90767 0.45432 0.0
H1355 H 0.63366 0.03992 0.45083 0.0
H1356 H 0.70824 0.95735 0.525 0.0
H1357 H 0.66015 -0.0022 0.37797 0.0
H1358 H 0.65334 0.00399 0.47871 0.0
H1359 H 0.6962 0.93514 0.42681 0.0
C1360 C 0.71639 0.92421 0.46415 0.0
C1361 C 0.72065 0.93042 0.49201 0.0
C1362 C 0.65461 0.00235 0.45663 0.0
C1363 C 0.68504 0.96184 0.46054 0.0
C1364 C 0.64331 0.02282 0.44069 0.0
C1365 C 0.64573 0.02202 0.41209 0.0
C1366 C 0.6687 0.98098 0.44393 0.0
C1367 C 0.65801 -0.00077 0.39998 0.0
C1368 C 0.69867 0.93986 0.44838 0.0
C1369 C 0.70589 0.95198 0.50358 0.0
N1370 N 0.66949 0.97976 0.41603 0.0
N1371 N 0.68891 0.967 0.48774 0.0
H1372 H 0.84109 0.92953 0.1877 0.0
H1373 H 0.68433 0.89429 0.21843 0.0
H1374 H 0.80521 0.9371 0.26789 0.0
H1375 H 0.72112 0.89087 0.13826 0.0
H1376 H 0.72953 0.90384 0.23834 0.0
H1377 H 0.79869 0.90849 0.1709 0.0
C1378 C 0.82433 0.92643 0.20186 0.0
C1379 C 0.82644 0.93534 0.2291 0.0
C1380 C 0.72769 0.90081 0.21642 0.0
C1381 C 0.7777 0.91166 0.20997 0.0
C1382 C 0.7019 0.89542 0.20503 0.0
C1383 C 0.69889 0.89224 0.17658 0.0
C1384 C 0.75056 0.90297 0.19923 0.0
C1385 C 0.7224 0.8936 0.16025 0.0
C1386 C 0.8001 0.91446 0.19225 0.0
C1387 C 0.80429 0.93061 0.24668 0.0
N1388 N 0.74719 0.89905 0.1718 0.0
N1389 N 0.78061 0.91939 0.23669 0.0
H1390 H 0.78597 0.0327 0.00443 0.0
H1391 H 0.81901 0.95629 0.86295 0.0
H1392 H 0.75224 0.05649 0.9264 0.0
H1393 H 0.84327 0.92624 0.94228 0.0
H1394 H 0.79831 -0.00417 0.88534 0.0
H1395 H 0.81 0.99546 0.98161 0.0
C1396 C 0.78352 0.03001 0.98252 0.0
C1397 C 0.76701 0.04766 0.96731 0.0
C1398 C 0.80835 0.98067 0.89781 0.0
C1399 C 0.7947 0.00531 0.941 0.0
C1400 C 0.82038 0.95822 0.88502 0.0
C1401 C 0.83278 0.93786 0.90077 0.0
C1402 C 0.80885 0.98282 0.92653 0.0
C1403 C 0.83375 0.94134 0.92933 0.0
C1404 C 0.7973 0.0088 0.96948 0.0
C1405 C 0.76466 0.04329 0.93895 0.0
N1406 N 0.82184 0.96329 0.94128 0.0
N1407 N 0.7784 0.02259 0.9267 0.0
H1408 H 0.72464 0.70205 0.96701 0.0
H1409 H 0.86466 0.75858 0.90499 0.0
H1410 H 0.80316 0.66597 0.9837 0.0
H1411 H 0.78496 0.78766 0.88129 0.0
H1412 H 0.84244 0.72093 0.92959 0.0
H1413 H 0.74615 0.73076 0.93225 0.0
C1414 C 0.74637 0.70007 0.96333 0.0
C1415 C 0.76213 0.68175 0.97856 0.0
C1416 C 0.82984 0.73531 0.91863 0.0
C1417 C 0.78694 0.71461 0.93871 0.0
C1418 C 0.84253 0.75672 0.90442 0.0
C1419 C 0.82664 0.77661 0.89149 0.0
C1420 C 0.8011 0.73392 0.92 0.0
C1421 C 0.79804 0.77309 0.89139 0.0
C1422 C 0.75864 0.71639 0.94335 0.0
C1423 C 0.79019 0.67992 0.97263 0.0
N1424 N 0.78619 0.75245 0.90581 0.0
N1425 N 0.80173 0.69633 0.95337 0.0
H1426 H 0.30043 0.83694 0.0286 0.0
H1427 H 0.27546 0.68913 0.09222 0.0
H1428 H 0.22012 0.80003 0.03788 0.0
H1429 H 0.35412 0.73075 0.09203 0.0
H1430 H 0.25431 0.73056 0.07503 0.0
H1431 H 0.32014 0.79881 0.05337 0.0
C1432 C 0.28693 0.82074 0.0358 0.0
C1433 C 0.25862 0.82149 0.03103 0.0
C1434 C 0.27614 0.73075 0.07903 0.0
C1435 C 0.28104 0.77788 0.05956 0.0
C1436 C 0.28824 0.70712 0.08886 0.0
C1437 C 0.31666 0.70641 0.09317 0.0
C1438 C 0.29262 0.75375 0.07324 0.0
C1439 C 0.33217 0.73036 0.08883 0.0
C1440 C 0.29819 0.79906 0.05011 0.0
C1441 C 0.24208 0.80012 0.04101 0.0
N1442 N 0.31998 0.75299 0.07873 0.0
N1443 N 0.25358 0.77905 0.05472 0.0
H1444 H 0.91132 0.59092 0.83705 0.0
H1445 H 0.06531 0.54886 0.8667 0.0
H1446 H 0.94742 0.51605 0.80786 0.0
H1447 H 0.03119 0.62734 0.88728 0.0
H1448 H 0.01931 0.53179 0.85528 0.0
H1449 H 0.95189 0.59962 0.86517 0.0
C1450 C 0.92763 0.57614 0.83673 0.0
C1451 C 0.92618 0.55303 0.81954 0.0
C1452 C 0.02186 0.5526 0.86274 0.0
C1453 C 0.9728 0.56296 0.8517 0.0
C1454 C 0.0481 0.56233 0.86937 0.0
C1455 C 0.05213 0.58978 0.87729 0.0
C1456 C -0.00039 0.57046 0.86409 0.0
C1457 C 0.02907 0.60622 0.88064 0.0
C1458 C 0.9508 0.58111 0.85287 0.0
C1459 C 0.9478 0.53438 0.82043 0.0
N1460 N 0.00385 0.59643 0.87363 0.0
N1461 N 0.97039 0.53997 0.83591 0.0
H1462 H 0.20096 0.15833 0.56854 0.0
H1463 H 0.12557 0.26083 0.6258 0.0
H1464 H 0.27143 0.21228 0.57546 0.0
H1465 H 0.19405 0.31281 0.60324 0.0
H1466 H 0.15429 0.22095 0.6196 0.0
H1467 H 0.17348 0.19181 0.5916 0.0
C1468 C 0.21076 0.1772 0.57548 0.0
C1469 C 0.23835 0.18284 0.56974 0.0
C1470 C 0.163 0.24099 0.61553 0.0
C1471 C 0.20697 0.22149 0.5969 0.0
C1472 C 0.14657 0.26379 0.61926 0.0
C1473 C 0.15717 0.29007 0.61425 0.0
C1474 C 0.19002 0.24456 0.60608 0.0
C1475 C 0.18481 0.29286 0.60677 0.0
C1476 C 0.19504 0.19632 0.58906 0.0
C1477 C 0.25014 0.20732 0.57942 0.0
N1478 N 0.20015 0.27036 0.60256 0.0
N1479 N 0.23417 0.22608 0.59213 0.0
H1480 H 0.06614 0.94117 0.78715 0.0
H1481 H 0.92404 0.93697 0.86653 0.0
H1482 H 0.02473 0.01279 0.81723 0.0
H1483 H 0.96296 0.86476 0.83478 0.0
H1484 H 0.96448 0.96406 0.85472 0.0
H1485 H 0.03211 0.91224 0.80986 0.0
C1486 C 0.05002 0.95086 0.79867 0.0
C1487 C 0.04812 0.97954 0.79995 0.0
C1488 C 0.96438 0.94226 0.85056 0.0
C1489 C 0.00912 0.94641 0.82604 0.0
C1490 C 0.94128 0.92676 0.85732 0.0
C1491 C 0.94 0.89866 0.8512 0.0
C1492 C 0.98631 0.92967 0.8373 0.0
C1493 C 0.96307 0.88641 0.83968 0.0
C1494 C 0.03062 0.93427 0.81168 0.0
C1495 C 0.0269 0.99083 0.81541 0.0
N1496 N 0.98518 0.90209 0.8327 0.0
N1497 N 0.00813 0.97423 0.82764 0.0
H1498 H 0.64865 0.32726 0.39783 0.0
H1499 H 0.69411 0.17162 0.38461 0.0
H1500 H 0.72485 0.29654 0.42982 0.0
H1501 H 0.61311 0.20078 0.36619 0.0
H1502 H 0.70986 0.2191 0.3909 0.0
H1503 H 0.63985 0.28303 0.37595 0.0
C1504 C 0.6637 0.31134 0.40004 0.0
C1505 C 0.68726 0.31549 0.41621 0.0
C1506 C 0.68874 0.21508 0.3851 0.0
C1507 C 0.67719 0.26471 0.39123 0.0
C1508 C 0.67977 0.18801 0.38142 0.0
C1509 C 0.65213 0.18229 0.37547 0.0
C1510 C 0.66993 0.23643 0.38264 0.0
C1511 C 0.63447 0.20429 0.37136 0.0
C1512 C 0.65864 0.28607 0.3875 0.0
C1513 C 0.7062 0.29418 0.41791 0.0
N1514 N 0.6436 0.23037 0.37533 0.0
N1515 N 0.70057 0.26957 0.40589 0.0
H1516 H 0.94736 0.50407 0.69201 0.0
H1517 H 0.01611 0.35778 0.68314 0.0
H1518 H 0.92302 0.43646 0.7435 0.0
H1519 H 0.0314 0.42355 0.62642 0.0
H1520 H 0.97791 0.38364 0.70227 0.0
H1521 H 0.97605 0.47326 0.66583 0.0
C1522 C 0.94824 0.48276 0.69793 0.0
C1523 C 0.93303 0.47283 0.72008 0.0
C1524 C 0.98922 0.3921 0.6852 0.0
C1525 C 0.96555 0.43729 0.69001 0.0
C1526 C 0.01073 0.3772 0.67409 0.0
C1527 C 0.02688 0.38882 0.65344 0.0
C1528 C 0.98419 0.41865 0.67553 0.0
C1529 C 0.01947 0.41413 0.64257 0.0
C1530 C 0.96439 0.46508 0.6828 0.0
C1531 C 0.93463 0.44495 0.72665 0.0
N1532 N -0.00108 0.42841 0.65403 0.0
N1533 N 0.95075 0.42813 0.71175 0.0
H1534 H 0.57152 0.5828 0.18361 0.0
H1535 H 0.41702 0.55124 0.13843 0.0
H1536 H 0.53704 0.50096 0.17872 0.0
H1537 H 0.45097 0.63264 0.15075 0.0
H1538 H 0.4616 0.53217 0.14927 0.0
H1539 H 0.52841 0.60095 0.16736 0.0
C1540 C 0.55484 0.5686 0.179 0.0
C1541 C 0.55771 0.54035 0.18273 0.0
C1542 C 0.45929 0.55418 0.14955 0.0
C1543 C 0.50819 0.56105 0.1642 0.0
C1544 C 0.43385 0.56513 0.14339 0.0
C1545 C 0.43022 0.59361 0.14395 0.0
C1546 C 0.48125 0.57184 0.15622 0.0
C1547 C 0.45278 0.61057 0.1503 0.0
C1548 C 0.53021 0.57901 0.16973 0.0
C1549 C 0.53557 0.5229 0.1762 0.0
N1550 N 0.47734 0.5994 0.15627 0.0
N1551 N 0.51157 0.53358 0.16737 0.0
H1552 H 0.52871 0.69064 0.82027 0.0
H1553 H 0.63418 0.69167 0.69989 0.0
H1554 H 0.60447 0.7367 0.82854 0.0
H1555 H 0.59088 0.61754 0.72263 0.0
H1556 H 0.62041 0.7126 0.7435 0.0
H1557 H 0.54734 0.66754 0.7799 0.0
C1558 C 0.54922 0.69589 0.81353 0.0
C1559 C 0.56515 0.71548 0.82767 0.0
C1560 C 0.61431 0.69164 0.73896 0.0
C1561 C 0.58627 0.6896 0.78163 0.0
C1562 C 0.6221 0.67974 0.7142 0.0
C1563 C 0.61366 0.65289 0.70774 0.0
C1564 C 0.59738 0.67677 0.75683 0.0
C1565 C 0.59797 0.63825 0.7269 0.0
C1566 C 0.55986 0.68263 0.7907 0.0
C1567 C 0.59165 0.72153 0.81823 0.0
N1568 N 0.58994 0.65056 0.75041 0.0
N1569 N 0.60133 0.70884 0.79552 0.0
H1570 H 0.52849 0.30028 0.08247 0.0
H1571 H 0.64086 0.31322 0.9659 0.0
H1572 H 0.56378 0.22918 0.0442 0.0
H1573 H 0.57028 0.36512 0.96989 0.0
H1574 H 0.6237 0.28789 0.00579 0.0
H1575 H 0.55533 0.32963 0.05205 0.0
C1576 C 0.54226 0.29083 0.06802 0.0
C1577 C 0.54371 0.26223 0.06559 0.0
C1578 C 0.61236 0.30519 -0.00182 0.0
C1579 C 0.57454 0.29572 0.03119 0.0
C1580 C 0.62216 0.31972 0.97569 0.0
C1581 C 0.60679 0.34113 0.96477 0.0
C1582 C 0.58748 0.31268 0.01002 0.0
C1583 C 0.58254 0.3486 0.97778 0.0
C1584 C 0.55744 0.30761 0.05069 0.0
C1585 C 0.56184 0.25113 0.04646 0.0
N1586 N 0.57356 0.33433 -0.0002 0.0
N1587 N 0.57656 0.26796 0.02984 0.0
H1588 H 0.93937 0.2334 0.3068 0.0
H1589 H 0.83965 0.33789 0.2344 0.0
H1590 H 0.93672 0.32043 0.32189 0.0
H1591 H 0.87665 0.27121 0.19039 0.0
H1592 H 0.85796 0.31975 0.27707 0.0
H1593 H 0.90161 0.23777 0.27359 0.0
C1594 C 0.93056 0.25332 0.30336 0.0
C1595 C 0.94131 0.27673 0.31657 0.0
C1596 C 0.86123 0.30861 0.25815 0.0
C1597 C 0.89788 0.28153 0.27991 0.0
C1598 C 0.85069 0.31881 0.23383 0.0
C1599 C 0.85765 0.30664 0.20878 0.0
C1600 C 0.87861 0.28607 0.25726 0.0
C1601 C 0.87142 0.28162 0.20924 0.0
C1602 C 0.90905 0.25571 0.28464 0.0
C1603 C 0.92926 0.30203 0.31167 0.0
N1604 N 0.88224 0.27251 0.23315 0.0
N1605 N 0.90816 0.30378 0.29367 0.0
H1606 H 0.98844 0.64678 0.56936 0.0
H1607 H 0.86449 0.62775 0.46433 0.0
H1608 H 0.91907 0.70045 0.56613 0.0
H1609 H 0.94733 0.60546 0.44423 0.0
H1610 H 0.88021 0.64236 0.50959 0.0
H1611 H 0.96935 0.62078 0.5306 0.0
C1612 C 0.9691 0.65299 0.56061 0.0
C1613 C 0.95543 0.67602 0.57065 0.0
C1614 C 0.8948 0.63386 0.49538 0.0
C1615 C 0.93339 0.64605 0.52693 0.0
C1616 C 0.88589 0.62533 0.46958 0.0
C1617 C 0.90479 0.61595 0.45019 0.0
C1618 C 0.92268 0.63262 0.50197 0.0
C1619 C 0.93217 0.61301 0.45837 0.0
C1620 C 0.95827 0.63812 0.53858 0.0
C1621 C 0.93038 0.68303 0.55873 0.0
N1622 N 0.9404 0.62165 0.48363 0.0
N1623 N 0.92012 0.66807 0.53742 0.0
H1624 H 0.58273 0.2615 0.6856 0.0
H1625 H 0.57023 0.38499 0.79226 0.0
H1626 H 0.51274 0.31442 0.68792 0.0
H1627 H 0.62063 0.31439 0.80557 0.0
H1628 H 0.55451 0.36472 0.74873 0.0
H1629 H 0.60216 0.28601 0.72495 0.0
C1630 C 0.57146 0.27831 0.6944 0.0
C1631 C 0.54601 0.28586 0.68372 0.0
C1632 C 0.56918 0.35386 0.76114 0.0
C1633 C 0.56823 0.31408 0.72843 0.0
C1634 C 0.57829 0.36547 0.78578 0.0
C1635 C 0.59657 0.35118 0.80246 0.0
C1636 C 0.5788 0.3281 0.75316 0.0
C1637 C 0.6063 0.32589 0.79334 0.0
C1638 C 0.58256 0.29227 0.71682 0.0
C1639 C 0.53233 0.30785 0.69577 0.0
N1640 N 0.59725 0.31512 0.76929 0.0
N1641 N 0.54364 0.32127 0.71758 0.0
H1642 H 0.96051 0.32451 0.92273 0.0
H1643 H 0.94058 0.3101 0.08336 0.0
H1644 H 0.93878 0.24885 0.96292 0.0
H1645 H 0.90446 0.3767 0.03882 0.0
H1646 H 0.96006 0.29311 0.04056 0.0
H1647 H 0.95773 0.34851 0.96713 0.0
C1648 C 0.95531 0.31302 0.94094 0.0
C1649 C 0.94929 0.2849 0.93937 0.0
C1650 C 0.94858 0.31192 0.04043 0.0
C1651 C 0.94745 0.31164 0.98961 0.0
C1652 C 0.93766 0.32175 0.06478 0.0
C1653 C 0.92055 0.34452 0.06434 0.0
C1654 C 0.94268 0.32532 0.01585 0.0
C1655 C 0.91726 0.3588 0.03975 0.0
C1656 C 0.95392 0.32662 0.96607 0.0
C1657 C 0.94295 0.2707 0.96336 0.0
N1658 N 0.92795 0.34873 0.01625 0.0
N1659 N 0.94227 0.28424 0.98762 0.0
H1660 H 0.02403 0.74883 0.23395 0.0
H1661 H 0.91341 0.63173 0.26161 0.0
H1662 H 0.97353 0.71517 0.1688 0.0
H1663 H 0.9385 0.69135 0.32282 0.0
H1664 H 0.93835 0.65843 0.22705 0.0
H1665 H -0.00372 0.72364 0.26713 0.0
C1666 C 0.00715 0.73609 0.22664 0.0
C1667 C 0.00105 0.73405 0.19863 0.0
C1668 C 0.93813 0.66566 0.24805 0.0
C1669 C 0.96939 0.70514 0.23637 0.0
C1670 C 0.92397 0.65046 0.26774 0.0
C1671 C 0.92395 0.65926 0.29514 0.0
C1672 C 0.95266 0.68944 0.25602 0.0
C1673 C 0.93793 0.68373 0.30196 0.0
C1674 C 0.99124 0.72186 0.24556 0.0
C1675 C 0.97881 0.71739 0.19026 0.0
N1676 N 0.95194 0.69779 0.2826 0.0
N1677 N 0.96387 0.70336 0.20907 0.0
H1678 H 0.53578 0.64565 0.40624 0.0
H1679 H 0.54949 0.66397 0.56764 0.0
H1680 H 0.49959 0.71257 0.45071 0.0
H1681 H 0.61159 0.624 0.51988 0.0
H1682 H 0.52563 0.67571 0.52533 0.0
H1683 H 0.55914 0.63173 0.44838 0.0
C1684 C 0.5328 0.65742 0.42482 0.0
C1685 C 0.51585 0.68037 0.42498 0.0
C1686 C 0.54446 0.66432 0.52416 0.0
C1687 C 0.54202 0.66432 0.47305 0.0
C1688 C 0.55799 0.65747 0.54827 0.0
C1689 C 0.58264 0.64314 0.54723 0.0
C1690 C 0.55542 0.65643 0.49889 0.0
C1691 C 0.59275 0.63528 0.52155 0.0
C1692 C 0.54614 0.6495 0.44877 0.0
C1693 C 0.51268 0.6949 0.4496 0.0
N1694 N 0.57904 0.64199 0.49832 0.0
N1695 N 0.5255 0.68651 0.47271 0.0
H1696 H 0.82936 0.52062 0.67465 0.0
H1697 H 0.70212 0.61523 0.68943 0.0
H1698 H 0.82796 0.58626 0.73413 0.0
H1699 H 0.72292 0.57805 0.61203 0.0
H1700 H 0.7476 0.60418 0.70695 0.0
H1701 H 0.78987 0.5405 0.65162 0.0
C1702 C 0.82085 0.53935 0.68271 0.0
C1703 C 0.83164 0.55168 0.70647 0.0
C1704 C 0.74232 0.59879 0.68602 0.0
C1705 C 0.78647 0.57425 0.68052 0.0
C1706 C 0.71636 0.60492 0.67608 0.0
C1707 C 0.70874 0.59725 0.64938 0.0
C1708 C 0.76048 0.58441 0.66929 0.0
C1709 C 0.728 0.58422 0.63279 0.0
C1710 C 0.79844 0.55074 0.6695 0.0
C1711 C 0.82009 0.57604 0.71595 0.0
N1712 N 0.75291 0.57778 0.64319 0.0
N1713 N 0.79776 0.58633 0.70319 0.0
H1714 H 0.67242 0.55723 0.03198 0.0
H1715 H 0.66595 0.47515 0.89281 0.0
H1716 H 0.73882 0.56144 0.97416 0.0
H1717 H 0.63641 0.43844 0.96744 0.0
H1718 H 0.68575 0.51312 0.91978 0.0
H1719 H 0.65264 0.51838 0.00629 0.0
C1720 C 0.68292 0.54974 0.014 0.0
C1721 C 0.70727 0.56232 0.00511 0.0
C1722 C 0.67475 0.4968 0.93013 0.0
C1723 C 0.68444 0.51883 0.97543 0.0
C1724 C 0.66317 0.4754 0.91481 0.0
C1725 C 0.64948 0.45381 0.92803 0.0
C1726 C 0.67203 0.49679 0.95869 0.0
C1727 C 0.64683 0.45479 0.95659 0.0
C1728 C 0.67165 0.5277 -0.00057 0.0
C1729 C 0.72013 0.55203 0.98173 0.0
N1730 N 0.65791 0.47608 0.97104 0.0
N1731 N 0.70831 0.53104 0.96737 0.0
H1732 H 0.67657 0.49165 0.15157 0.0
H1733 H 0.77689 0.37018 0.18727 0.0
H1734 H 0.6679 0.44049 0.22292 0.0
H1735 H 0.77718 0.41155 0.10936 0.0
H1736 H 0.73457 0.39329 0.199 0.0
H1737 H 0.71154 0.46077 0.13419 0.0
C1738 C 0.68191 0.47385 0.16349 0.0
C1739 C 0.66957 0.46877 0.18885 0.0
C1740 C 0.74367 0.39705 0.17918 0.0
C1741 C 0.70944 0.43345 0.16917 0.0
C1742 C 0.76783 0.38384 0.17247 0.0
C1743 C 0.78076 0.38923 0.14746 0.0
C1744 C 0.73257 0.41607 0.1609 0.0
C1745 C 0.76798 0.40691 0.12894 0.0
C1746 C 0.70178 0.45618 0.15352 0.0
C1747 C 0.67707 0.44532 0.20336 0.0
N1748 N 0.7448 0.42005 0.13622 0.0
N1749 N 0.6967 0.42867 0.19344 0.0
H1750 H 0.71578 0.45551 0.39636 0.0
H1751 H 0.85906 0.52918 0.41421 0.0
H1752 H 0.77919 0.42376 0.44882 0.0
H1753 H 0.81375 0.53481 0.33849 0.0
H1754 H 0.82897 0.4914 0.42826 0.0
H1755 H 0.74986 0.48657 0.37581 0.0
C1756 C 0.73681 0.45502 0.40349 0.0
C1757 C 0.74463 0.43715 0.42442 0.0
C1758 C 0.82591 0.50054 0.40834 0.0
C1759 C 0.7834 0.47242 0.40118 0.0
C1760 C 0.84308 0.52199 0.40034 0.0
C1761 C 0.83885 0.53484 0.37518 0.0
C1762 C 0.80391 0.49249 0.39136 0.0
C1763 C 0.81777 0.52509 0.35794 0.0
C1764 C 0.75623 0.47253 0.39162 0.0
C1765 C 0.77219 0.43718 0.43275 0.0
N1766 N 0.80066 0.50472 0.36658 0.0
N1767 N 0.7905 0.45474 0.42131 0.0
H1768 H 0.83095 0.46835 0.80646 0.0
H1769 H 0.67134 0.43453 0.81077 0.0
H1770 H 0.76972 0.52553 0.78011 0.0
H1771 H 0.72839 0.39997 0.86846 0.0
H1772 H 0.70871 0.4617 0.79124 0.0
H1773 H 0.79452 0.4374 0.82211 0.0
C1774 C 0.80983 0.47439 0.80399 0.0
C1775 C 0.80326 0.49959 0.79214 0.0
C1776 C 0.71301 0.44798 0.80801 0.0
C1777 C 0.76174 0.46415 0.80952 0.0
C1778 C 0.69181 0.43227 0.81903 0.0
C1779 C 0.69678 0.41511 0.84143 0.0
C1780 C 0.73939 0.44618 0.8192 0.0
C1781 C 0.72368 0.41311 0.85134 0.0
C1782 C 0.78914 0.45674 0.81293 0.0
C1783 C 0.77562 0.50641 0.78941 0.0
N1784 N 0.74404 0.42856 0.84017 0.0
N1785 N 0.75578 0.48867 0.79792 0.0
H1786 H 0.83402 0.56306 0.03161 0.0
H1787 H 0.85792 0.46145 0.15625 0.0
H1788 H 0.79587 0.56936 0.11085 0.0
H1789 H 0.87589 0.44108 0.07211 0.0
H1790 H 0.84881 0.50831 0.14241 0.0
H1791 H 0.8618 0.52531 0.04889 0.0
C1792 C 0.83182 0.55676 0.05273 0.0
C1793 C 0.8123 0.56884 0.06973 0.0
C1794 C 0.8552 0.49368 0.12706 0.0
C1795 C 0.844 0.52627 0.08956 0.0
C1796 C 0.86047 0.46692 0.13494 0.0
C1797 C 0.86682 0.44709 0.11516 0.0
C1798 C 0.85623 0.50061 0.09924 0.0
C1799 C 0.87039 0.45555 0.08795 0.0
C1800 C 0.84763 0.53531 0.06255 0.0
C1801 C 0.81032 0.56017 0.09694 0.0
N1802 N 0.86452 0.48161 0.08067 0.0
N1803 N 0.82581 0.53925 0.10596 0.0
H1804 H 0.70276 0.53942 0.23699 0.0
H1805 H 0.7806 0.63362 0.34322 0.0
H1806 H 0.66391 0.6091 0.27426 0.0
H1807 H 0.82328 0.59315 0.27768 0.0
H1808 H 0.73719 0.62403 0.31958 0.0
H1809 H 0.74715 0.55681 0.25372 0.0
C1810 C 0.70358 0.55832 0.24871 0.0
C1811 C 0.67966 0.57277 0.25443 0.0
C1812 C 0.75611 0.61772 0.31014 0.0
C1813 C 0.73008 0.59264 0.27347 0.0
C1814 C 0.78082 0.62322 0.32357 0.0
C1815 C 0.80542 0.61408 0.31237 0.0
C1816 C 0.75607 0.60239 0.28576 0.0
C1817 C 0.80471 0.60063 0.28691 0.0
C1818 C 0.72887 0.56835 0.25798 0.0
C1819 C 0.68187 0.59732 0.26942 0.0
N1820 N 0.7803 0.59468 0.27467 0.0
N1821 N 0.70663 0.60634 0.27871 0.0
H1822 H 0.7129 0.41888 0.55447 0.0
H1823 H 0.62258 0.54948 0.54575 0.0
H1824 H 0.65512 0.42806 0.48818 0.0
H1825 H 0.64923 0.51611 0.62297 0.0
H1826 H 0.63413 0.50618 0.52332 0.0
H1827 H 0.69058 0.45581 0.57923 0.0
C1828 C 0.69542 0.42868 0.54519 0.0
C1829 C 0.6859 0.42068 0.51924 0.0
C1830 C 0.63697 0.50826 0.54524 0.0
C1831 C 0.66047 0.46304 0.54724 0.0
C1832 C 0.63049 0.53295 0.55804 0.0
C1833 C 0.6354 0.53656 0.58619 0.0
C1834 C 0.64886 0.48737 0.56067 0.0
C1835 C 0.64538 0.51437 0.60118 0.0
C1836 C 0.68257 0.44959 0.55939 0.0
C1837 C 0.66303 0.43377 0.50819 0.0
N1838 N 0.65225 0.49089 0.58814 0.0
N1839 N 0.65129 0.45473 0.52209 0.0
H1840 H 0.75524 0.7907 0.52788 0.0
H1841 H 0.63718 0.72476 0.61836 0.0
H1842 H 0.71552 0.83676 0.59169 0.0
H1843 H 0.70118 0.67736 0.58116 0.0
H1844 H 0.66205 0.76682 0.6056 0.0
H1845 H 0.73151 0.74934 0.54351 0.0
C1846 C 0.74147 0.79212 0.54514 0.0
C1847 C 0.73734 0.81719 0.55852 0.0
C1848 C 0.67063 0.74714 0.60045 0.0
C1849 C 0.71006 0.77001 0.57637 0.0
C1850 C 0.65646 0.72319 0.60764 0.0
C1851 C 0.66707 0.69753 0.60072 0.0
C1852 C 0.69524 0.7453 0.58586 0.0
C1853 C 0.6922 0.69667 0.58693 0.0
C1854 C 0.72807 0.7685 0.55413 0.0
C1855 C 0.71939 0.8178 0.58089 0.0
N1856 N 0.70528 0.7202 0.57973 0.0
N1857 N 0.70621 0.79455 0.58902 0.0
H1858 H 0.21627 0.67985 0.44848 0.0
H1859 H 0.187 0.80717 0.38976 0.0
H1860 H 0.14637 0.70319 0.49649 0.0
H1861 H 0.10264 0.78232 0.40185 0.0
H1862 H 0.20142 0.76365 0.40948 0.0
H1863 H 0.20312 0.71338 0.41353 0.0
C1864 C 0.19797 0.69176 0.45143 0.0
C1865 C 0.18249 0.6891 0.47544 0.0
C1866 C 0.17977 0.76745 0.40694 0.0
C1867 C 0.16741 0.72687 0.43582 0.0
C1868 C 0.17151 0.79231 0.39576 0.0
C1869 C 0.14358 0.7987 0.39471 0.0
C1870 C 0.15992 0.74925 0.41737 0.0
C1871 C 0.12442 0.77856 0.40271 0.0
C1872 C 0.19065 0.71089 0.43165 0.0
C1873 C 0.15901 0.70493 0.47841 0.0
N1874 N 0.13297 0.7551 0.41446 0.0
N1875 N 0.15214 0.72312 0.45876 0.0
H1876 H 0.57081 0.93295 0.7372 0.0
H1877 H 0.43957 0.94049 0.64191 0.0
H1878 H 0.56376 0.99122 0.67147 0.0
H1879 H 0.46351 0.8651 0.6804 0.0
H1880 H 0.48315 0.96144 0.65606 0.0
H1881 H 0.5292 0.90954 0.72033 0.0
C1882 C 0.56048 0.94079 0.71927 0.0
C1883 C 0.57057 0.96405 0.70573 0.0
C1884 C 0.47895 0.94025 0.66121 0.0
C1885 C 0.52328 0.93765 0.68657 0.0
C1886 C 0.45411 0.92834 0.65324 0.0
C1887 C 0.44804 0.90109 0.66007 0.0
C1888 C 0.49758 0.92495 0.67654 0.0
C1889 C 0.46755 0.88615 0.67464 0.0
C1890 C 0.53693 0.92737 0.70959 0.0
C1891 C 0.55661 0.97336 0.68251 0.0
N1892 N 0.49143 0.8984 0.6827 0.0
N1893 N 0.53351 0.96023 0.67377 0.0
H1894 H 0.33905 0.3239 0.92039 0.0
H1895 H 0.29192 0.18195 0.88053 0.0
H1896 H 0.25197 0.30831 0.91699 0.0
H1897 H 0.35943 0.22068 0.83825 0.0
H1898 H 0.27356 0.22724 0.89054 0.0
H1899 H 0.3459 0.28595 0.88851 0.0
C1900 C 0.32139 0.31257 0.91262 0.0
C1901 C 0.295 0.31885 0.92132 0.0
C1902 C 0.29186 0.22572 0.87822 0.0
C1903 C 0.30256 0.27534 0.88539 0.0
C1904 C 0.30233 0.19988 0.87245 0.0
C1905 C 0.32779 0.1977 0.85947 0.0
C1906 C 0.30725 0.24915 0.87124 0.0
C1907 C 0.34022 0.22157 0.84917 0.0
C1908 C 0.32521 0.29115 0.89426 0.0
C1909 C 0.27264 0.30385 0.91064 0.0
N1910 N 0.3303 0.24641 0.85604 0.0
N1911 N 0.27696 0.28217 0.89368 0.0
H1912 H 0.42464 0.50206 0.65566 0.0
H1913 H 0.53431 0.62171 0.67877 0.0
H1914 H 0.43494 0.54166 0.73437 0.0
H1915 H 0.54837 0.55344 0.62445 0.0
H1916 H 0.49181 0.59911 0.6942 0.0
H1917 H 0.46474 0.52721 0.63892 0.0
C1918 C 0.43535 0.51609 0.6694 0.0
C1919 C 0.42659 0.51975 0.69647 0.0
C1920 C 0.50417 0.58929 0.67875 0.0
C1921 C 0.47204 0.5488 0.67729 0.0
C1922 C 0.52815 0.60223 0.66977 0.0
C1923 C 0.54467 0.58931 0.65034 0.0
C1924 C 0.49658 0.56368 0.66772 0.0
C1925 C 0.53613 0.56394 0.63953 0.0
C1926 C 0.45819 0.53036 0.65985 0.0
C1927 C 0.44123 0.53811 0.71344 0.0
N1928 N 0.51257 0.55195 0.64831 0.0
N1929 N 0.46322 0.55218 0.70349 0.0
H1930 H 0.80797 0.17075 -0.00304 0.0
H1931 H 0.78809 0.29701 0.0981 0.0
H1932 H 0.75125 0.16834 0.0645 0.0
H1933 H 0.86795 0.27546 0.06819 0.0
H1934 H 0.76893 0.25544 0.07608 0.0
H1935 H 0.82588 0.21492 0.01434 0.0
C1936 C 0.79932 0.17946 0.01537 0.0
C1937 C 0.77808 0.16592 0.02927 0.0
C1938 C 0.7906 0.26006 0.07425 0.0
C1939 C 0.79773 0.21634 0.04855 0.0
C1940 C 0.80143 0.2837 0.08662 0.0
C1941 C 0.82957 0.28927 0.08516 0.0
C1942 C 0.80802 0.24249 0.05988 0.0
C1943 C 0.84616 0.27152 0.07008 0.0
C1944 C 0.80944 0.20459 0.02516 0.0
C1945 C 0.76753 0.1781 0.05302 0.0
N1946 N 0.83512 0.24886 0.05794 0.0
N1947 N 0.7773 0.20275 0.06179 0.0
H1948 H 0.57921 0.02531 0.79648 0.0
H1949 H 0.46011 0.05784 0.86925 0.0
H1950 H 0.54521 0.08548 0.74213 0.0
H1951 H 0.4767 0.1399 0.84041 0.0
H1952 H 0.50061 0.04219 0.8446 0.0
H1953 H 0.54943 0.04197 0.83317 0.0
C1954 C 0.56573 0.04224 0.79239 0.0
C1955 C 0.56442 0.05392 0.76619 0.0
C1956 C 0.49576 0.06376 0.84443 0.0
C1957 C 0.53068 0.07296 0.80788 0.0
C1958 C 0.47265 0.07272 0.85848 0.0
C1959 C 0.46464 0.10015 0.85653 0.0
C1960 C 0.51058 0.08232 0.82812 0.0
C1961 C 0.48175 0.11848 0.84222 0.0
C1962 C 0.54868 0.05153 0.81324 0.0
C1963 C 0.5466 0.07573 0.76193 0.0
N1964 N 0.50343 0.10909 0.82793 0.0
N1965 N 0.53047 0.08461 0.78262 0.0
H1966 H 0.93059 0.92875 0.29136 0.0
H1967 H 0.057 0.96953 0.37588 0.0
H1968 H 0.9392 0.01362 0.31533 0.0
H1969 H 0.01227 0.89434 0.39173 0.0
H1970 H 0.01564 0.98836 0.3551 0.0
H1971 H 0.96309 0.91649 0.32712 0.0
C1972 C 0.93943 0.9448 0.30417 0.0
C1973 C 0.93251 0.97221 0.30036 0.0
C1974 C 0.01477 0.96806 0.36392 0.0
C1975 C 0.96964 0.95838 0.34122 0.0
C1976 C 0.03831 0.9573 0.37585 0.0
C1977 C 0.03831 0.92996 0.3847 0.0
C1978 C 0.99149 0.95117 0.36063 0.0
C1979 C 0.01342 0.91521 0.38442 0.0
C1980 C 0.95767 0.93778 0.32478 0.0
C1981 C 0.94421 0.99224 0.31771 0.0
N1982 N 0.9912 0.92572 0.37178 0.0
N1983 N 0.96273 0.985 0.3372 0.0
H1984 H 0.42553 0.25697 0.19972 0.0
H1985 H 0.43309 0.39653 0.28649 0.0
H1986 H 0.48343 0.32228 0.18266 0.0
H1987 H 0.39556 0.32161 0.31545 0.0
H1988 H 0.44512 0.37287 0.24375 0.0
H1989 H 0.40805 0.28371 0.2381 0.0
C1990 C 0.43452 0.27696 0.20402 0.0
C1991 C 0.45611 0.28733 0.18816 0.0
C1992 C 0.43404 0.36175 0.25942 0.0
C1993 C 0.43608 0.3181 0.23185 0.0
C1994 C 0.42703 0.37527 0.28366 0.0
C1995 C 0.41355 0.36089 0.30453 0.0
C1996 C 0.42714 0.33388 0.25606 0.0
C1997 C 0.40625 0.33334 0.29995 0.0
C1998 C 0.42454 0.29221 0.22591 0.0
C1999 C 0.46691 0.31342 0.19455 0.0
N2000 N 0.4132 0.32072 0.27626 0.0
N2001 N 0.45679 0.32794 0.21595 0.0
H2002 H 0.46283 0.70015 0.91845 0.0
H2003 H 0.44178 0.65061 0.07231 0.0
H2004 H 0.52537 0.70668 0.98114 0.0
H2005 H 0.37559 0.65773 0.01389 0.0
H2006 H 0.47413 0.66413 0.03704 0.0
H2007 H 0.43262 0.67753 0.95101 0.0
C2008 C 0.47038 0.69661 0.939 0.0
C2009 C 0.49667 0.70567 0.94713 0.0
C2010 C 0.45256 0.66262 0.03186 0.0
C2011 C 0.46192 0.67975 0.98457 0.0
C2012 C 0.43399 0.65491 0.052 0.0
C2013 C 0.40578 0.65342 0.04617 0.0
C2014 C 0.44298 0.66888 0.00558 0.0
C2015 C 0.39708 0.65884 0.01936 0.0
C2016 C 0.45301 0.68371 0.95759 0.0
C2017 C 0.50528 0.7002 0.97397 0.0
N2018 N 0.41563 0.66654 8e-05 0.0
N2019 N 0.48784 0.68779 0.9918 0.0
H2020 H 0.07809 0.65153 0.65759 0.0
H2021 H 0.10214 0.69454 0.81351 0.0
H2022 H 0.04275 0.72335 0.69462 0.0
H2023 H 0.11466 0.61305 0.78149 0.0
H2024 H 0.09015 0.7098 0.76755 0.0
H2025 H 0.10183 0.64233 0.70037 0.0
C2026 C 0.07552 0.66558 0.67459 0.0
C2027 C 0.05789 0.68796 0.67268 0.0
C2028 C 0.09572 0.68865 0.77061 0.0
C2029 C 0.08508 0.6774 0.72167 0.0
C2030 C 0.10255 0.67988 0.79679 0.0
C2031 C 0.10892 0.65233 0.80137 0.0
C2032 C 0.09549 0.66979 0.74888 0.0
C2033 C 0.10942 0.63435 0.77893 0.0
C2034 C 0.08909 0.66024 0.69902 0.0
C2035 C 0.05581 0.70565 0.69528 0.0
N2036 N 0.1026 0.64337 0.75362 0.0
N2037 N 0.06902 0.6998 0.71901 0.0
H2038 H 0.05035 0.33576 0.40652 0.0
H2039 H 0.03392 0.33523 0.56887 0.0
H2040 H 0.97906 0.30324 0.44767 0.0
H2041 H 0.10901 0.3565 0.52714 0.0
H2042 H 0.01087 0.33039 0.5247 0.0
H2043 H 0.0688 0.35132 0.45046 0.0
C2044 C 0.03837 0.3323 0.42482 0.0
C2045 C 0.01331 0.31793 0.42358 0.0
C2046 C 0.03234 0.33624 0.52522 0.0
C2047 C 0.03448 0.33531 0.47395 0.0
C2048 C 0.04559 0.33896 0.55043 0.0
C2049 C 0.0736 0.34591 0.55171 0.0
C2050 C 0.04715 0.34059 0.50108 0.0
C2051 C 0.08751 0.35077 0.52713 0.0
C2052 C 0.04897 0.34108 0.4499 0.0
C2053 C -0.0015 0.3142 0.4478 0.0
N2054 N 0.07416 0.34787 0.50281 0.0
N2055 N 0.00951 0.32252 0.47213 0.0
H2056 H 0.42314 0.66135 0.33136 0.0
H2057 H 0.34946 0.69653 0.191 0.0
H2058 H 0.40243 0.74351 0.30762 0.0
H2059 H 0.36276 0.61409 0.21915 0.0
H2060 H 0.36289 0.71388 0.23612 0.0
H2061 H 0.39633 0.64347 0.2928 0.0
C2062 C 0.41282 0.67563 0.31808 0.0
C2063 C 0.41527 0.70396 0.32244 0.0
C2064 C 0.36246 0.69197 0.23257 0.0
C2065 C 0.38456 0.68366 0.27822 0.0
C2066 C 0.35474 0.68203 0.20681 0.0
C2067 C 0.35556 0.65384 0.20111 0.0
C2068 C 0.3713 0.67361 0.25267 0.0
C2069 C 0.36217 0.63601 0.2225 0.0
C2070 C 0.3974 0.6654 0.29613 0.0
C2071 C 0.40124 0.72152 0.30482 0.0
N2072 N 0.37026 0.64623 0.2472 0.0
N2073 N 0.38671 0.71108 0.28327 0.0
H2074 H 0.1084 0.71544 0.09873 0.0
H2075 H 0.06985 0.64251 0.95731 0.0
H2076 H 0.02726 0.71412 0.06289 0.0
H2077 H 0.15282 0.66192 0.98266 0.0
H2078 H 0.05354 0.65829 0.00158 0.0
H2079 H 0.12399 0.68593 0.0618 0.0
C2080 C 0.09375 0.70879 0.08325 0.0
C2081 C 0.06654 0.71774 0.08363 0.0
C2082 C 0.07533 0.65885 -0.00245 0.0
C2083 C 0.08438 0.68386 0.04143 0.0
C2084 C 0.0847 0.64987 0.97228 0.0
C2085 C 0.1127 0.6516 0.96604 0.0
C2086 C 0.09408 0.66965 0.01671 0.0
C2087 C 0.13102 0.66068 0.98646 0.0
C2088 C 0.10273 0.69192 0.0622 0.0
C2089 C 0.0485 0.70812 0.0632 0.0
N2090 N 0.12132 0.66975 0.01083 0.0
N2091 N 0.05783 0.69187 0.04276 0.0
H2092 H 0.01986 0.21449 0.77925 0.0
H2093 H 0.07831 0.35986 0.73432 0.0
H2094 H 0.01005 0.28824 0.82728 0.0
H2095 H 0.10241 0.28384 0.6965 0.0
H2096 H 0.05632 0.33376 0.77085 0.0
H2097 H 0.05209 0.23925 0.7499 0.0
C2098 C 0.0245 0.23582 0.78367 0.0
C2099 C 0.01202 0.24933 0.80562 0.0
C2100 C 0.06681 0.32281 0.75478 0.0
C2101 C 0.04891 0.27774 0.77224 0.0
C2102 C 0.07951 0.33773 0.734 0.0
C2103 C 0.09173 0.32402 0.71203 0.0
C2104 C 0.06617 0.29404 0.75339 0.0
C2105 C 0.09276 0.29528 0.71277 0.0
C2106 C 0.04304 0.24991 0.76703 0.0
C2107 C 0.01902 0.27697 0.81052 0.0
N2108 N 0.0797 0.28123 0.73283 0.0
N2109 N 0.0368 0.29029 0.79383 0.0
H2110 H 0.44477 0.2665 0.57361 0.0
H2111 H 0.46586 0.37939 0.45785 0.0
H2112 H 0.52219 0.30713 0.55795 0.0
H2113 H 0.38654 0.34772 0.48178 0.0
H2114 H 0.48666 0.35444 0.49557 0.0
H2115 H 0.42298 0.29625 0.54011 0.0
C2116 C 0.45721 0.28157 0.56301 0.0
C2117 C 0.48535 0.28429 0.56846 0.0
C2118 C 0.46466 0.35321 0.49279 0.0
C2119 C 0.46054 0.31854 0.53035 0.0
C2120 C 0.45276 0.36755 0.47132 0.0
C2121 C 0.42445 0.36547 0.46652 0.0
C2122 C 0.44819 0.33644 0.50942 0.0
C2123 C 0.40845 0.34992 0.4847 0.0
C2124 C 0.44473 0.29869 0.54404 0.0
C2125 C 0.50045 0.30429 0.5543 0.0
N2126 N 0.4206 0.33569 0.50514 0.0
N2127 N 0.48787 0.32061 0.53583 0.0
H2128 H 0.18228 0.47202 0.30868 0.0
H2129 H 0.28752 0.41604 0.38483 0.0
H2130 H 0.21024 0.42012 0.243 0.0
H2131 H 0.32643 0.40368 0.30661 0.0
H2132 H 0.24529 0.42784 0.36102 0.0
H2133 H 0.22223 0.45953 0.3357 0.0
C2134 C 0.19682 0.45793 0.29997 0.0
C2135 C 0.19287 0.44693 0.27363 0.0
C2136 C 0.26315 0.42288 0.34906 0.0
C2137 C 0.23824 0.43191 0.30476 0.0
C2138 C 0.28716 0.41574 0.36266 0.0
C2139 C 0.31063 0.40917 0.34768 0.0
C2140 C 0.26265 0.42345 0.3203 0.0
C2141 C 0.30892 0.40894 0.31897 0.0
C2142 C 0.21944 0.4505 0.31558 0.0
C2143 C 0.21245 0.42894 0.26329 0.0
N2144 N 0.28533 0.416 0.3062 0.0
N2145 N 0.23438 0.42204 0.27888 0.0
H2146 H 0.32739 0.45015 0.9608 0.0
H2147 H 0.35274 0.52214 0.10437 0.0
H2148 H 0.34448 0.40657 0.03542 0.0
H2149 H 0.35002 0.56672 0.0283 0.0
H2150 H 0.35497 0.47944 0.07842 0.0
H2151 H 0.34182 0.4929 0.98346 0.0
C2152 C 0.33489 0.4495 0.98169 0.0
C2153 C 0.3343 0.42501 -0.00351 0.0
C2154 C 0.35417 0.49857 0.06737 0.0
C2155 C 0.35027 0.47355 0.02258 0.0
C2156 C 0.35272 0.52294 0.08221 0.0
C2157 C 0.35068 0.54794 0.06849 0.0
C2158 C 0.3532 0.4992 0.03861 0.0
C2159 C 0.35123 0.54784 0.03973 0.0
C2160 C 0.34297 0.47389 0.99468 0.0
C2161 C 0.34418 0.42519 0.02348 0.0
N2162 N 0.35204 0.52379 0.02572 0.0
N2163 N 0.35132 0.44917 0.03582 0.0
H2164 H 0.27927 0.54166 0.72293 0.0
H2165 H 0.23893 0.59771 0.87081 0.0
H2166 H 0.33109 0.53496 0.79449 0.0
H2167 H 0.18882 0.60654 0.79838 0.0
H2168 H 0.27582 0.5803 0.84211 0.0
H2169 H 0.24853 0.5706 0.74915 0.0
C2170 C 0.28433 0.54643 0.74406 0.0
C2171 C 0.30763 0.53553 0.75658 0.0
C2172 C 0.25685 0.58637 0.83249 0.0
C2173 C 0.27246 0.56858 0.78678 0.0
C2174 C 0.23584 0.59641 0.84886 0.0
C2175 C 0.21061 0.60308 0.83703 0.0
C2176 C 0.25249 0.583 0.80417 0.0
C2177 C 0.20777 0.60113 0.80845 0.0
C2178 C 0.26677 0.563 0.75904 0.0
C2179 C 0.31322 0.54262 0.78401 0.0
N2180 N 0.22831 0.59096 0.79306 0.0
N2181 N 0.29562 0.55846 0.79824 0.0
H2182 H 0.14323 0.59262 0.586 0.0
H2183 H 0.11839 0.43355 0.55706 0.0
H2184 H 0.17005 0.55086 0.51286 0.0
H2185 H 0.11535 0.47072 0.63745 0.0
H2186 H 0.12496 0.47881 0.53715 0.0
H2187 H 0.12062 0.55051 0.60088 0.0
C2188 C 0.14407 0.57474 0.57282 0.0
C2189 C 0.15915 0.57514 0.54838 0.0
C2190 C 0.12255 0.47706 0.55911 0.0
C2191 C 0.13321 0.52693 0.56543 0.0
C2192 C 0.11881 0.45124 0.57055 0.0
C2193 C 0.117 0.44829 0.59909 0.0
C2194 C 0.12436 0.5001 0.57628 0.0
C2195 C 0.11716 0.472 0.61541 0.0
C2196 C 0.13115 0.55071 0.58141 0.0
C2197 C 0.15907 0.55141 0.53205 0.0
N2198 N 0.12113 0.49694 0.60379 0.0
N2199 N 0.14659 0.52813 0.54105 0.0
H2200 H 0.14698 0.51141 0.13485 0.0
H2201 H 0.26949 0.61584 0.16975 0.0
H2202 H 0.17489 0.53242 0.21648 0.0
H2203 H 0.25676 0.58063 0.08938 0.0
H2204 H 0.22681 0.5945 0.18485 0.0
H2205 H 0.17994 0.54457 0.11625 0.0
C2206 C 0.15985 0.52313 0.14889 0.0
C2207 C 0.15845 0.51885 0.17729 0.0
C2208 C 0.23312 0.59171 0.1638 0.0
C2209 C 0.19586 0.55692 0.1561 0.0
C2210 C 0.25741 0.60396 0.15514 0.0
C2211 C 0.26688 0.59948 0.12846 0.0
C2212 C 0.21828 0.57463 0.14573 0.0
C2213 C 0.25024 0.58437 0.1102 0.0
C2214 C 0.17861 0.54205 0.13822 0.0
C2215 C 0.17553 0.53471 0.19446 0.0
N2216 N 0.22689 0.572 0.11934 0.0
N2217 N 0.19359 0.55294 0.18357 0.0
H2218 H 0.2207 0.41865 0.94918 0.0
H2219 H 0.16774 0.57154 0.96375 0.0
H2220 H 0.23923 0.47122 0.0185 0.0
H2221 H 0.15964 0.5228 0.88998 0.0
H2222 H 0.18646 0.53211 0.98731 0.0
H2223 H 0.19124 0.45378 0.93068 0.0
C2224 C 0.21847 0.43752 0.96065 0.0
C2225 C 0.23282 0.44213 0.9853 0.0
C2226 C 0.18034 0.52997 0.96605 0.0
C2227 C 0.19899 0.4825 0.96407 0.0
C2228 C 0.16961 0.55246 0.95255 0.0
C2229 C 0.16258 0.55061 0.92466 0.0
C2230 C 0.18407 0.50544 0.95159 0.0
C2231 C 0.16509 0.52525 0.91138 0.0
C2232 C 0.20157 0.45757 0.95004 0.0
C2233 C 0.22876 0.46686 -0.00066 0.0
N2234 N 0.17593 0.50372 0.9249 0.0
N2235 N 0.2124 0.48625 0.98838 0.0
H2236 H 0.29463 0.42795 0.76669 0.0
H2237 H 0.21223 0.39185 0.62881 0.0
H2238 H 0.32909 0.43193 0.68558 0.0
H2239 H 0.17574 0.38919 0.70917 0.0
H2240 H 0.25653 0.40204 0.65004 0.0
H2241 H 0.25211 0.40893 0.74683 0.0
C2242 C 0.29334 0.42451 0.74479 0.0
C2243 C 0.31519 0.43177 0.72769 0.0
C2244 C 0.23886 0.39911 0.66306 0.0
C2245 C 0.26692 0.41028 0.70491 0.0
C2246 C 0.21353 0.39335 0.65092 0.0
C2247 C 0.19018 0.39003 0.66719 0.0
C2248 C 0.24085 0.40168 0.69168 0.0
C2249 C 0.19317 0.39188 0.69579 0.0
C2250 C 0.26911 0.41375 0.73346 0.0
C2251 C 0.31257 0.42691 0.69947 0.0
N2252 N 0.21802 0.39779 0.70712 0.0
N2253 N 0.28882 0.41666 0.68896 0.0
H2254 H 0.25301 0.56913 0.43985 0.0
H2255 H 0.36563 0.45536 0.46525 0.0
H2256 H 0.28339 0.54904 0.52031 0.0
H2257 H 0.34586 0.48755 0.38551 0.0
H2258 H 0.33612 0.48952 0.4861 0.0
H2259 H 0.28597 0.53794 0.4198 0.0
C2260 C 0.26644 0.55795 0.45334 0.0
C2261 C 0.26543 0.56166 0.48181 0.0
C2262 C 0.33851 0.48932 0.46407 0.0
C2263 C 0.30349 0.52614 0.45894 0.0
C2264 C 0.35547 0.46992 0.45215 0.0
C2265 C 0.35807 0.46844 0.42355 0.0
C2266 C 0.32385 0.50721 0.44728 0.0
C2267 C 0.34448 0.48789 0.40762 0.0
C2268 C 0.28544 0.54032 0.44185 0.0
C2269 C 0.28344 0.54674 0.49826 0.0
N2270 N 0.32767 0.50623 0.41968 0.0
N2271 N 0.30176 0.5296 0.48658 0.0
H2272 H 0.24804 0.22322 0.44724 0.0
H2273 H 0.39467 0.29122 0.42139 0.0
H2274 H 0.32297 0.18851 0.47782 0.0
H2275 H 0.31948 0.31909 0.38489 0.0
H2276 H 0.37021 0.25029 0.43776 0.0
H2277 H 0.27489 0.25576 0.42062 0.0
C2278 C 0.27017 0.22237 0.44831 0.0
C2279 C 0.28324 0.20329 0.46507 0.0
C2280 C 0.35921 0.26516 0.42576 0.0
C2281 C 0.31427 0.24069 0.43456 0.0
C2282 C 0.3732 0.28841 0.41626 0.0
C2283 C 0.35896 0.30874 0.40214 0.0
C2284 C 0.33085 0.26239 0.42109 0.0
C2285 C 0.33115 0.30412 0.39612 0.0
C2286 C 0.28554 0.24092 0.43296 0.0
C2287 C 0.31201 0.20298 0.4653 0.0
N2288 N 0.31795 0.28165 0.40592 0.0
N2289 N 0.32659 0.22163 0.45052 0.0
H2290 H 0.80279 0.33133 0.49692 0.0
H2291 H 0.80496 0.20299 0.59629 0.0
H2292 H 0.73104 0.29915 0.53762 0.0
H2293 H 0.87835 0.24109 0.56447 0.0
H2294 H 0.7781 0.24027 0.57781 0.0
H2295 H 0.83112 0.30008 0.52313 0.0
C2296 C 0.79297 0.31763 0.51135 0.0
C2297 C 0.76447 0.31763 0.51494 0.0
C2298 C 0.8001 0.24076 0.57512 0.0
C2299 C 0.79684 0.28195 0.54513 0.0
C2300 C 0.81545 0.21952 0.58571 0.0
C2301 C 0.84383 0.21891 0.5816 0.0
C2302 C 0.81316 0.26139 0.55993 0.0
C2303 C 0.85648 0.24086 0.56803 0.0
C2304 C 0.80921 0.29993 0.52644 0.0
C2305 C 0.7529 0.29967 0.53408 0.0
N2306 N 0.84095 0.26108 0.55725 0.0
N2307 N 0.76914 0.28242 0.54836 0.0
H2308 H 0.4298 0.99389 0.28811 0.0
H2309 H 0.51539 0.09341 0.38502 0.0
H2310 H 0.39856 0.06749 0.3253 0.0
H2311 H 0.54834 0.02095 0.3474 0.0
H2312 H 0.46935 0.0774 0.37302 0.0
H2313 H 0.46967 -0.003 0.31839 0.0
C2314 C 0.43107 0.01047 0.30291 0.0
C2315 C 0.41113 0.03089 0.30364 0.0
C2316 C 0.48656 0.0647 0.36781 0.0
C2317 C 0.45673 0.03454 0.33829 0.0
C2318 C 0.51285 0.07382 0.3747 0.0
C2319 C 0.53566 0.05879 0.36657 0.0
C2320 C 0.48314 0.04062 0.35222 0.0
C2321 C 0.53127 0.03333 0.35372 0.0
C2322 C 0.45386 0.0122 0.32022 0.0
C2323 C 0.41372 0.05164 0.32352 0.0
N2324 N 0.50549 0.02533 0.34634 0.0
N2325 N 0.43631 0.05315 0.33974 0.0
H2326 H 0.70112 0.65314 0.09829 0.0
H2327 H 0.70499 0.81426 0.1224 0.0
H2328 H 0.77277 0.70357 0.0835 0.0
H2329 H 0.63216 0.76323 0.12766 0.0
H2330 H 0.73235 0.77331 0.11662 0.0
H2331 H 0.67847 0.69232 0.11837 0.0
C2332 C 0.71218 0.67252 0.09958 0.0
C2333 C 0.7386 0.67541 0.08884 0.0
C2334 C 0.71043 0.77109 0.11927 0.0
C2335 C 0.71265 0.72044 0.11137 0.0
C2336 C 0.69474 0.79443 0.1225 0.0
C2337 C 0.66613 0.79216 0.12496 0.0
C2338 C 0.69743 0.74532 0.11856 0.0
C2339 C 0.65407 0.76597 0.12537 0.0
C2340 C 0.69923 0.69487 0.11103 0.0
C2341 C 0.75227 0.70069 0.09142 0.0
N2342 N 0.66978 0.74357 0.12195 0.0
N2343 N 0.7389 0.72251 0.10206 0.0
H2344 H 0.5385 0.54745 0.30082 0.0
H2345 H 0.49314 0.39996 0.35402 0.0
H2346 H 0.58191 0.47339 0.28171 0.0
H2347 H 0.45401 0.47503 0.37789 0.0
H2348 H 0.52996 0.42695 0.33304 0.0
H2349 H 0.51104 0.5219 0.33389 0.0
C2350 C 0.54243 0.52588 0.30369 0.0
C2351 C 0.56233 0.51252 0.28813 0.0
C2352 C 0.51354 0.43751 0.34327 0.0
C2353 C 0.53084 0.48306 0.32596 0.0
C2354 C 0.49258 0.42209 0.35541 0.0
C2355 C 0.47018 0.43524 0.36726 0.0
C2356 C 0.51196 0.46624 0.34292 0.0
C2357 C 0.47062 0.464 0.36852 0.0
C2358 C 0.52678 0.51129 0.32266 0.0
C2359 C 0.56664 0.48455 0.29301 0.0
N2360 N 0.49091 0.47851 0.35611 0.0
N2361 N 0.55082 0.47071 0.31124 0.0
H2362 H 0.1717 0.85547 0.90137 0.0
H2363 H 0.21338 0.69892 0.89341 0.0
H2364 H 0.24576 0.82311 0.93653 0.0
H2365 H 0.13284 0.72966 0.87558 0.0
H2366 H 0.23085 0.74612 0.89611 0.0
H2367 H 0.16353 0.81179 0.87813 0.0
C2368 C 0.1866 0.83945 0.90375 0.0
C2369 C 0.20902 0.84272 0.92164 0.0
C2370 C 0.20946 0.74247 0.89117 0.0
C2371 C 0.19958 0.79261 0.89529 0.0
C2372 C 0.19947 0.71557 0.88963 0.0
C2373 C 0.17148 0.71045 0.88498 0.0
C2374 C 0.19132 0.76427 0.88787 0.0
C2375 C 0.15444 0.73274 0.8799 0.0
C2376 C 0.18184 0.81445 0.89052 0.0
C2377 C 0.22783 0.82132 0.92348 0.0
N2378 N 0.16457 0.7587 0.88182 0.0
N2379 N 0.2224 0.79696 0.91092 0.0
H2380 H 0.43804 -0.00216 0.17658 0.0
H2381 H 0.51845 0.85706 0.17873 0.0
H2382 H 0.40872 0.92651 0.22 0.0
H2383 H 0.54424 0.92942 0.13496 0.0
H2384 H 0.47482 0.87924 0.18904 0.0
H2385 H 0.47418 0.9706 0.15673 0.0
C2386 C 0.43923 0.97638 0.18193 0.0
C2387 C 0.42063 0.96446 0.2002 0.0
C2388 C 0.48989 0.89003 0.17681 0.0
C2389 C 0.46204 0.93305 0.17758 0.0
C2390 C 0.51463 0.87733 0.1708 0.0
C2391 C 0.53496 0.8917 0.1564 0.0
C2392 C 0.48571 0.91709 0.16819 0.0
C2393 C 0.5292 0.91788 0.14658 0.0
C2394 C 0.45981 0.96076 0.17048 0.0
C2395 C 0.42286 0.9365 0.20613 0.0
N2396 N 0.50523 0.92983 0.15289 0.0
N2397 N 0.44344 0.92173 0.19504 0.0
H2398 H 0.07513 0.0742 0.72388 0.0
H2399 H 0.95086 0.07428 0.61733 0.0
H2400 H 0.0467 0.0032 0.67833 0.0
H2401 H 0.97415 0.14504 0.66586 0.0
H2402 H 0.99024 0.0501 0.63508 0.0
H2403 H 0.04184 0.10207 0.69955 0.0
C2404 C 0.06186 0.06447 0.70875 0.0
C2405 C 0.06347 0.03631 0.70321 0.0
C2406 C 0.98698 0.07099 0.64173 0.0
C2407 C 0.02561 0.06809 0.67522 0.0
C2408 C 0.96454 0.08483 0.63155 0.0
C2409 C 0.95911 0.11151 0.64051 0.0
C2410 C 0.00403 0.0838 0.66127 0.0
C2411 C 0.97764 0.12442 0.65857 0.0
C2412 C 0.04296 0.08043 0.69482 0.0
C2413 C 0.04597 0.02479 0.68335 0.0
N2414 N -0.00083 0.11024 0.66873 0.0
N2415 N 0.02771 0.04074 0.67011 0.0
loop_
_geom_bond_atom_site_label_1
_geom_bond_atom_site_label_2
_geom_bond_distance
_geom_bond_site_symmetry_2
_ccdc_geom_bond_type
Co0 O1 2.216 1_655 S
Co0 O2 2.091 . S
Co0 O4 2.004 . S
Co0 O10 2.021 1_655 S
Co0 O12 2.140 . S
Co0 O13 2.244 1_655 S
O1 Co0 2.216 1_455 S
O1 C8 1.247 1_455 S
O2 Co0 2.091 . S
O2 C8 1.261 . S
C3 O12 1.227 1_455 S
C3 O13 1.272 . S
O4 Co0 2.004 . S
O4 C9 1.259 . S
Co5 O6 2.061 . S
Co5 O11 2.052 . S
Co5 O13 2.135 . S
O6 Co5 2.061 . S
O6 C9 1.235 1_455 S
C7 O10 1.238 . S
C7 O11 1.241 . S
C8 O1 1.247 1_655 S
C8 O2 1.261 . S
C9 O4 1.259 . S
C9 O6 1.235 1_655 S
O10 Co0 2.021 1_455 S
O10 C7 1.238 . S
O11 Co5 2.052 . S
O11 C7 1.241 . S
O12 Co0 2.140 . S
O12 C3 1.227 1_655 S
O13 Co0 2.244 1_455 S
O13 C3 1.272 . S
O13 Co5 2.135 . S
Co14 O15 2.216 . S
Co14 O16 2.091 . S
Co14 O18 2.004 1_655 S
Co14 O24 2.021 1_655 S
Co14 O26 2.137 . S
Co14 O27 2.244 . S
O15 Co14 2.216 . S
O15 C22 1.247 . S
O16 Co14 2.091 . S
O16 C22 1.261 . S
C17 O26 1.247 . S
C17 O27 1.272 . S
O18 Co14 2.004 1_455 S
O18 C23 1.259 . S
Co19 O20 2.061 . S
Co19 O25 2.052 . S
Co19 O27 2.135 1_455 S
O20 Co19 2.061 . S
O20 C23 1.235 . S
C21 O24 1.238 . S
C21 O25 1.241 . S
C22 O15 1.247 . S
C22 O16 1.261 . S
C23 O18 1.259 . S
C23 O20 1.235 . S
O24 Co14 2.021 1_455 S
O24 C21 1.238 . S
O25 Co19 2.052 . S
O25 C21 1.241 . S
O26 Co14 2.137 . S
O26 C17 1.247 . S
O27 Co14 2.244 . S
O27 C17 1.272 . S
O27 Co19 2.135 1_655 S
Co28 O29 2.216 . S
Co28 O30 2.091 . S
Co28 O32 2.004 . S
Co28 O38 2.021 . S
Co28 O40 2.137 . S
Co28 O41 2.244 . S
O29 Co28 2.216 . S
O29 C36 1.247 . S
O30 Co28 2.091 . S
O30 C36 1.261 . S
C31 O40 1.247 . S
C31 O41 1.272 . S
O32 Co28 2.004 . S
O32 C37 1.259 . S
Co33 O34 2.061 . S
Co33 O39 2.052 . S
Co33 O41 2.135 . S
O34 Co33 2.061 . S
O34 C37 1.235 . S
C35 O38 1.238 . S
C35 O39 1.241 . S
C36 O29 1.247 . S
C36 O30 1.261 . S
C37 O32 1.259 . S
C37 O34 1.235 . S
O38 Co28 2.021 . S
O38 C35 1.238 . S
O39 Co33 2.052 . S
O39 C35 1.241 . S
O40 Co28 2.137 . S
O40 C31 1.247 . S
O41 Co28 2.244 . S
O41 C31 1.272 . S
O41 Co33 2.135 . S
Co42 O43 2.216 . S
Co42 O44 2.091 . S
Co42 O46 2.004 . S
Co42 O52 2.021 . S
Co42 O54 2.137 . S
Co42 O55 2.244 . S
O43 Co42 2.216 . S
O43 C50 1.247 . S
O44 Co42 2.091 . S
O44 C50 1.261 . S
C45 O54 1.247 . S
C45 O55 1.272 . S
O46 Co42 2.004 . S
O46 C51 1.259 . S
Co47 O48 2.061 . S
Co47 O53 2.052 . S
Co47 O55 2.135 . S
O48 Co47 2.061 . S
O48 C51 1.235 . S
C49 O52 1.238 . S
C49 O53 1.241 . S
C50 O43 1.247 . S
C50 O44 1.261 . S
C51 O46 1.259 . S
C51 O48 1.235 . S
O52 Co42 2.021 . S
O52 C49 1.238 . S
O53 Co47 2.052 . S
O53 C49 1.241 . S
O54 Co42 2.137 . S
O54 C45 1.247 . S
O55 Co42 2.244 . S
O55 C45 1.272 . S
O55 Co47 2.135 . S
Co56 O57 2.216 1_655 S
Co56 O58 2.091 . S
Co56 O60 2.004 . S
Co56 O66 2.021 1_655 S
Co56 O68 2.137 . S
Co56 O69 2.244 1_655 S
O57 Co56 2.216 1_455 S
O57 C64 1.247 1_455 S
O58 Co56 2.091 . S
O58 C64 1.261 . S
C59 O68 1.247 1_455 S
C59 O69 1.272 . S
O60 Co56 2.004 . S
O60 C65 1.259 . S
Co61 O62 2.061 . S
Co61 O67 2.052 . S
Co61 O69 2.135 . S
O62 Co61 2.061 . S
O62 C65 1.235 1_455 S
C63 O66 1.238 . S
C63 O67 1.241 . S
C64 O57 1.247 1_655 S
C64 O58 1.261 . S
C65 O60 1.259 . S
C65 O62 1.235 1_655 S
O66 Co56 2.021 1_455 S
O66 C63 1.238 . S
O67 Co61 2.052 . S
O67 C63 1.241 . S
O68 Co56 2.137 . S
O68 C59 1.247 1_655 S
O69 Co56 2.244 1_455 S
O69 C59 1.272 . S
O69 Co61 2.135 . S
Co70 O71 2.216 . S
Co70 O72 2.091 . S
Co70 O74 2.004 . S
Co70 O80 2.021 . S
Co70 O82 2.137 . S
Co70 O83 2.244 . S
O71 Co70 2.216 . S
O71 C78 1.247 . S
O72 Co70 2.091 . S
O72 C78 1.261 . S
C73 O82 1.247 . S
C73 O83 1.272 . S
O74 Co70 2.004 . S
O74 C79 1.259 . S
Co75 O76 2.061 . S
Co75 O81 2.052 . S
Co75 O83 2.135 . S
O76 Co75 2.061 . S
O76 C79 1.235 . S
C77 O80 1.238 . S
C77 O81 1.241 . S
C78 O71 1.247 . S
C78 O72 1.261 . S
C79 O74 1.259 . S
C79 O76 1.235 . S
O80 Co70 2.021 . S
O80 C77 1.238 . S
O81 Co75 2.052 . S
O81 C77 1.241 . S
O82 Co70 2.137 . S
O82 C73 1.247 . S
O83 Co70 2.244 . S
O83 C73 1.272 . S
O83 Co75 2.135 . S
Co84 O85 2.216 . S
Co84 O86 2.091 . S
Co84 O88 2.004 . S
Co84 O94 2.021 . S
Co84 O96 2.137 . S
Co84 O97 2.244 . S
O85 Co84 2.216 . S
O85 C92 1.247 . S
O86 Co84 2.091 . S
O86 C92 1.261 . S
C87 O96 1.247 . S
C87 O97 1.272 . S
O88 Co84 2.004 . S
O88 C93 1.259 . S
Co89 O90 2.061 . S
Co89 O95 2.052 . S
Co89 O97 2.135 . S
O90 Co89 2.061 . S
O90 C93 1.235 . S
C91 O94 1.238 . S
C91 O95 1.241 . S
C92 O85 1.247 . S
C92 O86 1.261 . S
C93 O88 1.259 . S
C93 O90 1.235 . S
O94 Co84 2.021 . S
O94 C91 1.238 . S
O95 Co89 2.052 . S
O95 C91 1.241 . S
O96 Co84 2.137 . S
O96 C87 1.247 . S
O97 Co84 2.244 . S
O97 C87 1.272 . S
O97 Co89 2.135 . S
Co98 O99 2.216 . S
Co98 O100 2.091 . S
Co98 O102 2.004 1_655 S
Co98 O108 2.021 1_655 S
Co98 O110 2.137 . S
Co98 O111 2.244 . S
O99 Co98 2.216 . S
O99 C106 1.247 . S
O100 Co98 2.091 . S
O100 C106 1.261 . S
C101 O110 1.247 . S
C101 O111 1.272 . S
O102 Co98 2.004 1_455 S
O102 C107 1.259 . S
Co103 O104 2.061 . S
Co103 O109 2.052 . S
Co103 O111 2.135 1_455 S
O104 Co103 2.061 . S
O104 C107 1.235 . S
C105 O108 1.238 . S
C105 O109 1.241 . S
C106 O99 1.247 . S
C106 O100 1.261 . S
C107 O102 1.259 . S
C107 O104 1.235 . S
O108 Co98 2.021 1_455 S
O108 C105 1.238 . S
O109 Co103 2.052 . S
O109 C105 1.241 . S
O110 Co98 2.137 . S
O110 C101 1.247 . S
O111 Co98 2.244 . S
O111 C101 1.272 . S
O111 Co103 2.135 1_655 S
Co112 O113 2.216 1_565 S
Co112 O114 2.091 . S
Co112 O116 2.004 . S
Co112 O122 2.021 1_565 S
Co112 O124 2.137 . S
Co112 O125 2.244 1_565 S
O113 Co112 2.216 1_545 S
O113 C120 1.247 1_545 S
O114 Co112 2.091 . S
O114 C120 1.261 . S
C115 O124 1.247 1_545 S
C115 O125 1.272 . S
O116 Co112 2.004 . S
O116 C121 1.259 . S
Co117 O118 2.061 . S
Co117 O123 2.052 . S
Co117 O125 2.135 . S
O118 Co117 2.061 . S
O118 C121 1.235 1_545 S
C119 O122 1.238 . S
C119 O123 1.241 . S
C120 O113 1.247 1_565 S
C120 O114 1.261 . S
C121 O116 1.259 . S
C121 O118 1.235 1_565 S
O122 Co112 2.021 1_545 S
O122 C119 1.238 . S
O123 Co117 2.052 . S
O123 C119 1.241 . S
O124 Co112 2.137 . S
O124 C115 1.247 1_565 S
O125 Co112 2.244 1_545 S
O125 C115 1.272 . S
O125 Co117 2.135 . S
Co126 O127 2.216 . S
Co126 O128 2.091 . S
Co126 O130 2.004 . S
Co126 O136 2.021 . S
Co126 O138 2.137 . S
Co126 O139 2.244 . S
O127 Co126 2.216 . S
O127 C134 1.247 . S
O128 Co126 2.091 . S
O128 C134 1.261 . S
C129 O138 1.247 . S
C129 O139 1.272 . S
O130 Co126 2.004 . S
O130 C135 1.259 . S
Co131 O132 2.061 . S
Co131 O137 2.052 . S
Co131 O139 2.135 . S
O132 Co131 2.061 . S
O132 C135 1.235 . S
C133 O136 1.238 . S
C133 O137 1.241 . S
C134 O127 1.247 . S
C134 O128 1.261 . S
C135 O130 1.259 . S
C135 O132 1.235 . S
O136 Co126 2.021 . S
O136 C133 1.238 . S
O137 Co131 2.052 . S
O137 C133 1.241 . S
O138 Co126 2.137 . S
O138 C129 1.247 . S
O139 Co126 2.244 . S
O139 C129 1.272 . S
O139 Co131 2.135 . S
Co140 O141 2.216 1_565 S
Co140 O142 2.091 . S
Co140 O144 2.004 . S
Co140 O150 2.021 1_565 S
Co140 O152 2.137 . S
Co140 O153 2.244 1_565 S
O141 Co140 2.216 1_545 S
O141 C148 1.247 1_545 S
O142 Co140 2.091 . S
O142 C148 1.261 . S
C143 O152 1.247 1_545 S
C143 O153 1.272 . S
O144 Co140 2.004 . S
O144 C149 1.259 . S
Co145 O146 2.061 . S
Co145 O151 2.052 . S
Co145 O153 2.135 . S
O146 Co145 2.061 . S
O146 C149 1.235 1_545 S
C147 O150 1.238 . S
C147 O151 1.241 . S
C148 O141 1.247 1_565 S
C148 O142 1.261 . S
C149 O144 1.259 . S
C149 O146 1.235 1_565 S
O150 Co140 2.021 1_545 S
O150 C147 1.238 . S
O151 Co145 2.052 . S
O151 C147 1.241 . S
O152 Co140 2.137 . S
O152 C143 1.247 1_565 S
O153 Co140 2.244 1_545 S
O153 C143 1.272 . S
O153 Co145 2.135 . S
Co154 O155 2.216 . S
Co154 O156 2.091 . S
Co154 O158 2.004 1_554 S
Co154 O164 2.021 1_554 S
Co154 O166 2.137 . S
Co154 O167 2.244 . S
O155 Co154 2.216 . S
O155 C162 1.247 . S
O156 Co154 2.091 . S
O156 C162 1.261 . S
C157 O166 1.247 . S
C157 O167 1.272 . S
O158 Co154 2.004 1_556 S
O158 C163 1.259 . S
Co159 O160 2.061 . S
Co159 O165 2.052 . S
Co159 O167 2.135 1_556 S
O160 Co159 2.061 . S
O160 C163 1.235 . S
C161 O164 1.238 . S
C161 O165 1.241 . S
C162 O155 1.247 . S
C162 O156 1.261 . S
C163 O158 1.259 . S
C163 O160 1.235 . S
O164 Co154 2.021 1_556 S
O164 C161 1.238 . S
O165 Co159 2.052 . S
O165 C161 1.241 . S
O166 Co154 2.137 . S
O166 C157 1.247 . S
O167 Co154 2.244 . S
O167 C157 1.272 . S
O167 Co159 2.135 1_554 S
Co168 O169 2.216 1_556 S
Co168 O170 2.091 . S
Co168 O172 2.004 . S
Co168 O178 2.021 1_556 S
Co168 O180 2.137 . S
Co168 O181 2.244 1_556 S
O169 Co168 2.216 1_554 S
O169 C176 1.247 1_554 S
O170 Co168 2.091 . S
O170 C176 1.261 . S
C171 O180 1.247 1_554 S
C171 O181 1.272 . S
O172 Co168 2.004 . S
O172 C177 1.259 . S
Co173 O174 2.061 . S
Co173 O179 2.052 . S
Co173 O181 2.135 . S
O174 Co173 2.061 . S
O174 C177 1.235 1_554 S
C175 O178 1.238 . S
C175 O179 1.241 . S
C176 O169 1.247 1_556 S
C176 O170 1.261 . S
C177 O172 1.259 . S
C177 O174 1.235 1_556 S
O178 Co168 2.021 1_554 S
O178 C175 1.238 . S
O179 Co173 2.052 . S
O179 C175 1.241 . S
O180 Co168 2.137 . S
O180 C171 1.247 1_556 S
O181 Co168 2.244 1_554 S
O181 C171 1.272 . S
O181 Co173 2.135 . S
Co182 O183 2.216 1_556 S
Co182 O184 2.091 . S
Co182 O186 2.004 . S
Co182 O192 2.021 1_556 S
Co182 O194 2.137 . S
Co182 O195 2.244 1_556 S
O183 Co182 2.216 1_554 S
O183 C190 1.247 1_554 S
O184 Co182 2.091 . S
O184 C190 1.261 . S
C185 O194 1.247 1_554 S
C185 O195 1.272 . S
O186 Co182 2.004 . S
O186 C191 1.259 . S
Co187 O188 2.061 . S
Co187 O193 2.052 . S
Co187 O195 2.135 . S
O188 Co187 2.061 . S
O188 C191 1.235 1_554 S
C189 O192 1.238 . S
C189 O193 1.241 . S
C190 O183 1.247 1_556 S
C190 O184 1.261 . S
C191 O186 1.259 . S
C191 O188 1.235 1_556 S
O192 Co182 2.021 1_554 S
O192 C189 1.238 . S
O193 Co187 2.052 . S
O193 C189 1.241 . S
O194 Co182 2.137 . S
O194 C185 1.247 1_556 S
O195 Co182 2.244 1_554 S
O195 C185 1.272 . S
O195 Co187 2.135 . S
Co196 O197 2.216 . S
Co196 O198 2.091 . S
Co196 O200 2.004 . S
Co196 O206 2.021 . S
Co196 O208 2.137 . S
Co196 O209 2.244 . S
O197 Co196 2.216 . S
O197 C204 1.247 . S
O198 Co196 2.091 . S
O198 C204 1.261 . S
C199 O208 1.247 . S
C199 O209 1.272 . S
O200 Co196 2.004 . S
O200 C205 1.259 . S
Co201 O202 2.061 . S
Co201 O207 2.052 . S
Co201 O209 2.135 . S
O202 Co201 2.061 . S
O202 C205 1.235 . S
C203 O206 1.238 . S
C203 O207 1.241 . S
C204 O197 1.247 . S
C204 O198 1.261 . S
C205 O200 1.259 . S
C205 O202 1.235 . S
O206 Co196 2.021 . S
O206 C203 1.238 . S
O207 Co201 2.052 . S
O207 C203 1.241 . S
O208 Co196 2.137 . S
O208 C199 1.247 . S
O209 Co196 2.244 . S
O209 C199 1.272 . S
O209 Co201 2.135 . S
Co210 O211 2.216 . S
Co210 O212 2.091 . S
Co210 O214 2.004 . S
Co210 O220 2.021 . S
Co210 O222 2.137 . S
Co210 O223 2.244 . S
O211 Co210 2.216 . S
O211 C218 1.247 . S
O212 Co210 2.091 . S
O212 C218 1.261 . S
C213 O222 1.247 . S
C213 O223 1.272 . S
O214 Co210 2.004 . S
O214 C219 1.259 . S
Co215 O216 2.061 . S
Co215 O221 2.052 . S
Co215 O223 2.135 . S
O216 Co215 2.061 . S
O216 C219 1.235 . S
C217 O220 1.238 . S
C217 O221 1.241 . S
C218 O211 1.247 . S
C218 O212 1.261 . S
C219 O214 1.259 . S
C219 O216 1.235 . S
O220 Co210 2.021 . S
O220 C217 1.238 . S
O221 Co215 2.052 . S
O221 C217 1.241 . S
O222 Co210 2.137 . S
O222 C213 1.247 . S
O223 Co210 2.244 . S
O223 C213 1.272 . S
O223 Co215 2.135 . S
Co224 O225 2.216 1_545 S
Co224 O226 2.091 1_545 S
Co224 O228 2.004 . S
Co224 O234 2.021 . S
Co224 O236 2.137 1_545 S
Co224 O237 2.244 1_545 S
O225 Co224 2.216 1_565 S
O225 C232 1.247 . S
O226 Co224 2.091 1_565 S
O226 C232 1.261 . S
C227 O236 1.247 . S
C227 O237 1.272 . S
O228 Co224 2.004 . S
O228 C233 1.259 . S
Co229 O230 2.061 . S
Co229 O235 2.052 . S
Co229 O237 2.135 1_545 S
O230 Co229 2.061 . S
O230 C233 1.235 . S
C231 O234 1.238 . S
C231 O235 1.241 . S
C232 O225 1.247 . S
C232 O226 1.261 . S
C233 O228 1.259 . S
C233 O230 1.235 . S
O234 Co224 2.021 . S
O234 C231 1.238 . S
O235 Co229 2.052 . S
O235 C231 1.241 . S
O236 Co224 2.137 1_565 S
O236 C227 1.247 . S
O237 Co224 2.244 1_565 S
O237 C227 1.272 . S
O237 Co229 2.135 1_565 S
Co238 O239 2.216 . S
Co238 O240 2.091 . S
Co238 O242 2.004 . S
Co238 O248 2.021 . S
Co238 O250 2.137 . S
Co238 O251 2.244 . S
O239 Co238 2.216 . S
O239 C246 1.247 . S
O240 Co238 2.091 . S
O240 C246 1.261 . S
C241 O250 1.247 . S
C241 O251 1.272 . S
O242 Co238 2.004 . S
O242 C247 1.259 . S
Co243 O244 2.061 . S
Co243 O249 2.052 . S
Co243 O251 2.135 . S
O244 Co243 2.061 . S
O244 C247 1.235 . S
C245 O248 1.238 . S
C245 O249 1.241 . S
C246 O239 1.247 . S
C246 O240 1.261 . S
C247 O242 1.259 . S
C247 O244 1.235 . S
O248 Co238 2.021 . S
O248 C245 1.238 . S
O249 Co243 2.052 . S
O249 C245 1.241 . S
O250 Co238 2.137 . S
O250 C241 1.247 . S
O251 Co238 2.244 . S
O251 C241 1.272 . S
O251 Co243 2.135 . S
Co252 O253 2.216 . S
Co252 O254 2.091 . S
Co252 O256 2.004 . S
Co252 O262 2.021 . S
Co252 O264 2.137 . S
Co252 O265 2.244 . S
O253 Co252 2.216 . S
O253 C260 1.247 . S
O254 Co252 2.091 . S
O254 C260 1.261 . S
C255 O264 1.247 . S
C255 O265 1.272 . S
O256 Co252 2.004 . S
O256 C261 1.259 . S
Co257 O258 2.061 . S
Co257 O263 2.052 . S
Co257 O265 2.135 . S
O258 Co257 2.061 . S
O258 C261 1.235 . S
C259 O262 1.238 . S
C259 O263 1.241 . S
C260 O253 1.247 . S
C260 O254 1.261 . S
C261 O256 1.259 . S
C261 O258 1.235 . S
O262 Co252 2.021 . S
O262 C259 1.238 . S
O263 Co257 2.052 . S
O263 C259 1.241 . S
O264 Co252 2.137 . S
O264 C255 1.247 . S
O265 Co252 2.244 . S
O265 C255 1.272 . S
O265 Co257 2.135 . S
Co266 O267 2.216 . S
Co266 O268 2.091 . S
Co266 O270 2.004 1_565 S
Co266 O276 2.021 1_565 S
Co266 O278 2.137 . S
Co266 O279 2.244 . S
O267 Co266 2.216 . S
O267 C274 1.247 . S
O268 Co266 2.091 . S
O268 C274 1.261 . S
C269 O278 1.247 . S
C269 O279 1.272 . S
O270 Co266 2.004 1_545 S
O270 C275 1.259 . S
Co271 O272 2.061 . S
Co271 O277 2.052 . S
Co271 O279 2.135 1_545 S
O272 Co271 2.061 . S
O272 C275 1.235 . S
C273 O276 1.238 . S
C273 O277 1.241 . S
C274 O267 1.247 . S
C274 O268 1.261 . S
C275 O270 1.259 . S
C275 O272 1.235 . S
O276 Co266 2.021 1_545 S
O276 C273 1.238 . S
O277 Co271 2.052 . S
O277 C273 1.241 . S
O278 Co266 2.137 . S
O278 C269 1.247 . S
O279 Co266 2.244 . S
O279 C269 1.272 . S
O279 Co271 2.135 1_565 S
Co280 O281 2.216 . S
Co280 O282 2.091 . S
Co280 O284 2.004 1_554 S
Co280 O290 2.021 1_554 S
Co280 O292 2.137 . S
Co280 O293 2.244 . S
O281 Co280 2.216 . S
O281 C288 1.247 . S
O282 Co280 2.091 . S
O282 C288 1.261 . S
C283 O292 1.247 . S
C283 O293 1.272 . S
O284 Co280 2.004 1_556 S
O284 C289 1.259 . S
Co285 O286 2.061 . S
Co285 O291 2.052 . S
Co285 O293 2.135 1_556 S
O286 Co285 2.061 . S
O286 C289 1.235 . S
C287 O290 1.238 . S
C287 O291 1.241 . S
C288 O281 1.247 . S
C288 O282 1.261 . S
C289 O284 1.259 . S
C289 O286 1.235 . S
O290 Co280 2.021 1_556 S
O290 C287 1.238 . S
O291 Co285 2.052 . S
O291 C287 1.241 . S
O292 Co280 2.137 . S
O292 C283 1.247 . S
O293 Co280 2.244 . S
O293 C283 1.272 . S
O293 Co285 2.135 1_554 S
Co294 O295 2.216 . S
Co294 O296 2.091 . S
Co294 O298 2.004 . S
Co294 O304 2.021 . S
Co294 O306 2.137 . S
Co294 O307 2.244 . S
O295 Co294 2.216 . S
O295 C302 1.247 . S
O296 Co294 2.091 . S
O296 C302 1.261 . S
C297 O306 1.247 . S
C297 O307 1.272 . S
O298 Co294 2.004 . S
O298 C303 1.259 . S
Co299 O300 2.061 . S
Co299 O305 2.052 . S
Co299 O307 2.135 . S
O300 Co299 2.061 . S
O300 C303 1.235 . S
C301 O304 1.238 . S
C301 O305 1.241 . S
C302 O295 1.247 . S
C302 O296 1.261 . S
C303 O298 1.259 . S
C303 O300 1.235 . S
O304 Co294 2.021 . S
O304 C301 1.238 . S
O305 Co299 2.052 . S
O305 C301 1.241 . S
O306 Co294 2.137 . S
O306 C297 1.247 . S
O307 Co294 2.244 . S
O307 C297 1.272 . S
O307 Co299 2.135 . S
Co308 O309 2.216 . S
Co308 O310 2.091 . S
Co308 O312 2.004 . S
Co308 O318 2.021 . S
Co308 O320 2.137 . S
Co308 O321 2.244 . S
O309 Co308 2.216 . S
O309 C316 1.247 . S
O310 Co308 2.091 . S
O310 C316 1.261 . S
C311 O320 1.247 . S
C311 O321 1.272 . S
O312 Co308 2.004 . S
O312 C317 1.259 . S
Co313 O314 2.061 . S
Co313 O319 2.052 . S
Co313 O321 2.135 . S
O314 Co313 2.061 . S
O314 C317 1.235 . S
C315 O318 1.238 . S
C315 O319 1.241 . S
C316 O309 1.247 . S
C316 O310 1.261 . S
C317 O312 1.259 . S
C317 O314 1.235 . S
O318 Co308 2.021 . S
O318 C315 1.238 . S
O319 Co313 2.052 . S
O319 C315 1.241 . S
O320 Co308 2.137 . S
O320 C311 1.247 . S
O321 Co308 2.244 . S
O321 C311 1.272 . S
O321 Co313 2.135 . S
Co322 O323 2.216 . S
Co322 O324 2.091 . S
Co322 O326 2.004 . S
Co322 O332 2.021 . S
Co322 O334 2.137 . S
Co322 O335 2.244 . S
O323 Co322 2.216 . S
O323 C330 1.247 . S
O324 Co322 2.091 . S
O324 C330 1.261 . S
C325 O334 1.247 . S
C325 O335 1.272 . S
O326 Co322 2.004 . S
O326 C331 1.259 . S
Co327 O328 2.061 . S
Co327 O333 2.052 . S
Co327 O335 2.135 . S
O328 Co327 2.061 . S
O328 C331 1.235 . S
C329 O332 1.238 . S
C329 O333 1.241 . S
C330 O323 1.247 . S
C330 O324 1.261 . S
C331 O326 1.259 . S
C331 O328 1.235 . S
O332 Co322 2.021 . S
O332 C329 1.238 . S
O333 Co327 2.052 . S
O333 C329 1.241 . S
O334 Co322 2.137 . S
O334 C325 1.247 . S
O335 Co322 2.244 . S
O335 C325 1.272 . S
O335 Co327 2.135 . S
Fe336 O338 1.918 . S
Fe336 O341 1.997 . S
Fe336 O342 2.002 . S
Fe336 O347 1.976 . S
Fe336 O350 1.996 . S
Fe337 O338 1.918 . S
Fe337 O345 1.997 . S
Fe337 O348 1.996 . S
Fe337 O352 1.976 . S
Fe337 O355 2.002 . S
O338 Fe336 1.918 . S
O338 Fe337 1.918 . S
O338 Fe339 1.918 . S
Fe339 O338 1.918 . S
Fe339 O340 2.002 . S
Fe339 O349 1.976 . S
Fe339 O353 1.996 . S
Fe339 O356 1.997 . S
O340 Fe339 2.002 . S
O340 C357 1.295 . S
O341 Fe336 1.997 . S
O341 C357 1.235 . S
O342 Fe336 2.002 . S
O342 C343 1.295 . S
C343 O342 1.295 . S
C343 O345 1.235 . S
C344 O349 1.287 . S
C344 O350 1.255 . S
O345 Fe337 1.997 . S
O345 C343 1.235 . S
C346 O352 1.287 . S
C346 O353 1.255 . S
O347 Fe336 1.976 . S
O347 C354 1.287 . S
O348 Fe337 1.996 . S
O348 C354 1.255 . S
O349 Fe339 1.976 . S
O349 C344 1.287 . S
O350 Fe336 1.996 . S
O350 C344 1.255 . S
C351 O355 1.295 . S
C351 O356 1.235 . S
O352 Fe337 1.976 . S
O352 C346 1.287 . S
O353 Fe339 1.996 . S
O353 C346 1.255 . S
C354 O347 1.287 . S
C354 O348 1.255 . S
O355 Fe337 2.002 . S
O355 C351 1.295 . S
O356 Fe339 1.997 . S
O356 C351 1.235 . S
C357 O340 1.295 . S
C357 O341 1.235 . S
Fe358 O360 1.918 . S
Fe358 O363 1.997 . S
Fe358 O364 2.002 . S
Fe358 O369 1.976 . S
Fe358 O372 1.996 . S
Fe359 O360 1.918 . S
Fe359 O367 1.997 . S
Fe359 O370 1.996 . S
Fe359 O374 1.976 . S
Fe359 O377 2.002 . S
O360 Fe358 1.918 . S
O360 Fe359 1.918 . S
O360 Fe361 1.918 . S
Fe361 O360 1.918 . S
Fe361 O362 2.002 . S
Fe361 O371 1.976 . S
Fe361 O375 1.996 . S
Fe361 O378 1.997 . S
O362 Fe361 2.002 . S
O362 C379 1.295 . S
O363 Fe358 1.997 . S
O363 C379 1.235 . S
O364 Fe358 2.002 . S
O364 C365 1.295 . S
C365 O364 1.295 . S
C365 O367 1.235 . S
C366 O371 1.287 . S
C366 O372 1.255 . S
O367 Fe359 1.997 . S
O367 C365 1.235 . S
C368 O374 1.287 . S
C368 O375 1.255 . S
O369 Fe358 1.976 . S
O369 C376 1.287 . S
O370 Fe359 1.996 . S
O370 C376 1.255 . S
O371 Fe361 1.976 . S
O371 C366 1.287 . S
O372 Fe358 1.996 . S
O372 C366 1.255 . S
C373 O377 1.295 . S
C373 O378 1.235 . S
O374 Fe359 1.976 . S
O374 C368 1.287 . S
O375 Fe361 1.996 . S
O375 C368 1.255 . S
C376 O369 1.287 . S
C376 O370 1.255 . S
O377 Fe359 2.002 . S
O377 C373 1.295 . S
O378 Fe361 1.997 . S
O378 C373 1.235 . S
C379 O362 1.295 . S
C379 O363 1.235 . S
Fe380 O382 1.918 . S
Fe380 O385 1.997 . S
Fe380 O386 2.002 . S
Fe380 O391 1.976 . S
Fe380 O394 1.996 . S
Fe381 O382 1.918 . S
Fe381 O389 1.997 . S
Fe381 O392 1.996 . S
Fe381 O396 1.976 . S
Fe381 O399 2.002 . S
O382 Fe380 1.918 . S
O382 Fe381 1.918 . S
O382 Fe383 1.918 . S
Fe383 O382 1.918 . S
Fe383 O384 2.002 . S
Fe383 O393 1.976 . S
Fe383 O397 1.996 . S
Fe383 O400 1.997 . S
O384 Fe383 2.002 . S
O384 C401 1.295 . S
O385 Fe380 1.997 . S
O385 C401 1.235 . S
O386 Fe380 2.002 . S
O386 C387 1.295 . S
C387 O386 1.295 . S
C387 O389 1.235 . S
C388 O393 1.287 . S
C388 O394 1.255 . S
O389 Fe381 1.997 . S
O389 C387 1.235 . S
C390 O396 1.287 . S
C390 O397 1.255 . S
O391 Fe380 1.976 . S
O391 C398 1.287 . S
O392 Fe381 1.996 . S
O392 C398 1.255 . S
O393 Fe383 1.976 . S
O393 C388 1.287 . S
O394 Fe380 1.996 . S
O394 C388 1.255 . S
C395 O399 1.295 . S
C395 O400 1.235 . S
O396 Fe381 1.976 . S
O396 C390 1.287 . S
O397 Fe383 1.996 . S
O397 C390 1.255 . S
C398 O391 1.287 . S
C398 O392 1.255 . S
O399 Fe381 2.002 . S
O399 C395 1.295 . S
O400 Fe383 1.997 . S
O400 C395 1.235 . S
C401 O384 1.295 . S
C401 O385 1.235 . S
Fe402 O404 1.918 . S
Fe402 O407 1.997 . S
Fe402 O408 2.002 . S
Fe402 O413 1.976 . S
Fe402 O416 1.996 . S
Fe403 O404 1.918 . S
Fe403 O411 1.997 . S
Fe403 O414 1.996 . S
Fe403 O418 1.976 . S
Fe403 O421 2.002 . S
O404 Fe402 1.918 . S
O404 Fe403 1.918 . S
O404 Fe405 1.918 . S
Fe405 O404 1.918 . S
Fe405 O406 2.002 . S
Fe405 O415 1.976 . S
Fe405 O419 1.996 . S
Fe405 O422 1.997 . S
O406 Fe405 2.002 . S
O406 C423 1.295 . S
O407 Fe402 1.997 . S
O407 C423 1.235 . S
O408 Fe402 2.002 . S
O408 C409 1.295 . S
C409 O408 1.295 . S
C409 O411 1.235 . S
C410 O415 1.287 . S
C410 O416 1.255 . S
O411 Fe403 1.997 . S
O411 C409 1.235 . S
C412 O418 1.287 . S
C412 O419 1.255 . S
O413 Fe402 1.976 . S
O413 C420 1.287 . S
O414 Fe403 1.996 . S
O414 C420 1.255 . S
O415 Fe405 1.976 . S
O415 C410 1.287 . S
O416 Fe402 1.996 . S
O416 C410 1.255 . S
C417 O421 1.295 . S
C417 O422 1.235 . S
O418 Fe403 1.976 . S
O418 C412 1.287 . S
O419 Fe405 1.996 . S
O419 C412 1.255 . S
C420 O413 1.287 . S
C420 O414 1.255 . S
O421 Fe403 2.002 . S
O421 C417 1.295 . S
O422 Fe405 1.997 . S
O422 C417 1.235 . S
C423 O406 1.295 . S
C423 O407 1.235 . S
Fe424 O426 1.918 . S
Fe424 O429 1.997 . S
Fe424 O430 2.002 . S
Fe424 O435 1.976 . S
Fe424 O438 1.996 . S
Fe425 O426 1.918 . S
Fe425 O433 1.997 . S
Fe425 O436 1.996 . S
Fe425 O440 1.976 . S
Fe425 O443 2.002 . S
O426 Fe424 1.918 . S
O426 Fe425 1.918 . S
O426 Fe427 1.918 . S
Fe427 O426 1.918 . S
Fe427 O428 2.002 . S
Fe427 O437 1.976 . S
Fe427 O441 1.996 . S
Fe427 O444 1.997 . S
O428 Fe427 2.002 . S
O428 C445 1.295 . S
O429 Fe424 1.997 . S
O429 C445 1.235 . S
O430 Fe424 2.002 . S
O430 C431 1.295 . S
C431 O430 1.295 . S
C431 O433 1.235 . S
C432 O437 1.287 . S
C432 O438 1.255 . S
O433 Fe425 1.997 . S
O433 C431 1.235 . S
C434 O440 1.287 . S
C434 O441 1.255 . S
O435 Fe424 1.976 . S
O435 C442 1.287 . S
O436 Fe425 1.996 . S
O436 C442 1.255 . S
O437 Fe427 1.976 . S
O437 C432 1.287 . S
O438 Fe424 1.996 . S
O438 C432 1.255 . S
C439 O443 1.295 . S
C439 O444 1.235 . S
O440 Fe425 1.976 . S
O440 C434 1.287 . S
O441 Fe427 1.996 . S
O441 C434 1.255 . S
C442 O435 1.287 . S
C442 O436 1.255 . S
O443 Fe425 2.002 . S
O443 C439 1.295 . S
O444 Fe427 1.997 . S
O444 C439 1.235 . S
C445 O428 1.295 . S
C445 O429 1.235 . S
Fe446 O448 1.918 . S
Fe446 O451 1.997 . S
Fe446 O452 2.002 . S
Fe446 O457 1.976 . S
Fe446 O460 1.996 . S
Fe447 O448 1.918 . S
Fe447 O455 1.997 . S
Fe447 O458 1.996 . S
Fe447 O462 1.976 . S
Fe447 O465 2.002 . S
O448 Fe446 1.918 . S
O448 Fe447 1.918 . S
O448 Fe449 1.918 . S
Fe449 O448 1.918 . S
Fe449 O450 2.002 . S
Fe449 O459 1.976 . S
Fe449 O463 1.996 . S
Fe449 O466 1.997 . S
O450 Fe449 2.002 . S
O450 C467 1.295 . S
O451 Fe446 1.997 . S
O451 C467 1.235 . S
O452 Fe446 2.002 . S
O452 C453 1.295 . S
C453 O452 1.295 . S
C453 O455 1.235 . S
C454 O459 1.287 . S
C454 O460 1.255 . S
O455 Fe447 1.997 . S
O455 C453 1.235 . S
C456 O462 1.287 . S
C456 O463 1.255 . S
O457 Fe446 1.976 . S
O457 C464 1.287 . S
O458 Fe447 1.996 . S
O458 C464 1.255 . S
O459 Fe449 1.976 . S
O459 C454 1.287 . S
O460 Fe446 1.996 . S
O460 C454 1.255 . S
C461 O465 1.295 . S
C461 O466 1.235 . S
O462 Fe447 1.976 . S
O462 C456 1.287 . S
O463 Fe449 1.996 . S
O463 C456 1.255 . S
C464 O457 1.287 . S
C464 O458 1.255 . S
O465 Fe447 2.002 . S
O465 C461 1.295 . S
O466 Fe449 1.997 . S
O466 C461 1.235 . S
C467 O450 1.295 . S
C467 O451 1.235 . S
Fe468 O470 1.918 . S
Fe468 O473 1.997 . S
Fe468 O474 2.002 . S
Fe468 O479 1.976 . S
Fe468 O482 1.996 . S
Fe469 O470 1.918 . S
Fe469 O477 1.997 . S
Fe469 O480 1.996 . S
Fe469 O484 1.976 . S
Fe469 O487 2.002 . S
O470 Fe468 1.918 . S
O470 Fe469 1.918 . S
O470 Fe471 1.918 . S
Fe471 O470 1.918 . S
Fe471 O472 2.002 . S
Fe471 O481 1.976 . S
Fe471 O485 1.996 . S
Fe471 O488 1.997 . S
O472 Fe471 2.002 . S
O472 C489 1.295 . S
O473 Fe468 1.997 . S
O473 C489 1.235 . S
O474 Fe468 2.002 . S
O474 C475 1.295 . S
C475 O474 1.295 . S
C475 O477 1.235 . S
C476 O481 1.287 . S
C476 O482 1.255 . S
O477 Fe469 1.997 . S
O477 C475 1.235 . S
C478 O484 1.287 . S
C478 O485 1.255 . S
O479 Fe468 1.976 . S
O479 C486 1.287 . S
O480 Fe469 1.996 . S
O480 C486 1.255 . S
O481 Fe471 1.976 . S
O481 C476 1.287 . S
O482 Fe468 1.996 . S
O482 C476 1.255 . S
C483 O487 1.295 . S
C483 O488 1.235 . S
O484 Fe469 1.976 . S
O484 C478 1.287 . S
O485 Fe471 1.996 . S
O485 C478 1.255 . S
C486 O479 1.287 . S
C486 O480 1.255 . S
O487 Fe469 2.002 . S
O487 C483 1.295 . S
O488 Fe471 1.997 . S
O488 C483 1.235 . S
C489 O472 1.295 . S
C489 O473 1.235 . S
Fe490 O492 1.918 . S
Fe490 O495 1.997 . S
Fe490 O496 2.002 . S
Fe490 O501 1.976 . S
Fe490 O504 1.996 . S
Fe491 O492 1.918 . S
Fe491 O499 1.997 . S
Fe491 O502 1.996 . S
Fe491 O506 1.976 . S
Fe491 O509 2.002 . S
O492 Fe490 1.918 . S
O492 Fe491 1.918 . S
O492 Fe493 1.918 . S
Fe493 O492 1.918 . S
Fe493 O494 2.002 . S
Fe493 O503 1.976 . S
Fe493 O507 1.996 . S
Fe493 O510 1.997 . S
O494 Fe493 2.002 . S
O494 C511 1.295 . S
O495 Fe490 1.997 . S
O495 C511 1.235 . S
O496 Fe490 2.002 . S
O496 C497 1.295 . S
C497 O496 1.295 . S
C497 O499 1.235 . S
C498 O503 1.287 . S
C498 O504 1.255 . S
O499 Fe491 1.997 . S
O499 C497 1.235 . S
C500 O506 1.287 . S
C500 O507 1.255 . S
O501 Fe490 1.976 . S
O501 C508 1.287 . S
O502 Fe491 1.996 . S
O502 C508 1.255 . S
O503 Fe493 1.976 . S
O503 C498 1.287 . S
O504 Fe490 1.996 . S
O504 C498 1.255 . S
C505 O509 1.295 . S
C505 O510 1.235 . S
O506 Fe491 1.976 . S
O506 C500 1.287 . S
O507 Fe493 1.996 . S
O507 C500 1.255 . S
C508 O501 1.287 . S
C508 O502 1.255 . S
O509 Fe491 2.002 . S
O509 C505 1.295 . S
O510 Fe493 1.997 . S
O510 C505 1.235 . S
C511 O494 1.295 . S
C511 O495 1.235 . S
Fe512 O514 1.918 . S
Fe512 O517 1.997 . S
Fe512 O518 2.002 . S
Fe512 O523 1.976 . S
Fe512 O526 1.996 . S
Fe513 O514 1.918 . S
Fe513 O521 1.997 . S
Fe513 O524 1.996 . S
Fe513 O528 1.976 . S
Fe513 O531 2.002 . S
O514 Fe512 1.918 . S
O514 Fe513 1.918 . S
O514 Fe515 1.918 . S
Fe515 O514 1.918 . S
Fe515 O516 2.002 . S
Fe515 O525 1.976 . S
Fe515 O529 1.996 . S
Fe515 O532 1.997 . S
O516 Fe515 2.002 . S
O516 C533 1.295 . S
O517 Fe512 1.997 . S
O517 C533 1.235 . S
O518 Fe512 2.002 . S
O518 C519 1.295 . S
C519 O518 1.295 . S
C519 O521 1.235 . S
C520 O525 1.287 . S
C520 O526 1.255 . S
O521 Fe513 1.997 . S
O521 C519 1.235 . S
C522 O528 1.287 . S
C522 O529 1.255 . S
O523 Fe512 1.976 . S
O523 C530 1.287 . S
O524 Fe513 1.996 . S
O524 C530 1.255 . S
O525 Fe515 1.976 . S
O525 C520 1.287 . S
O526 Fe512 1.996 . S
O526 C520 1.255 . S
C527 O531 1.295 . S
C527 O532 1.235 . S
O528 Fe513 1.976 . S
O528 C522 1.287 . S
O529 Fe515 1.996 . S
O529 C522 1.255 . S
C530 O523 1.287 . S
C530 O524 1.255 . S
O531 Fe513 2.002 . S
O531 C527 1.295 . S
O532 Fe515 1.997 . S
O532 C527 1.235 . S
C533 O516 1.295 . S
C533 O517 1.235 . S
Fe534 O536 1.918 . S
Fe534 O539 1.997 . S
Fe534 O540 2.002 . S
Fe534 O545 1.976 . S
Fe534 O548 1.996 . S
Fe535 O536 1.918 . S
Fe535 O543 1.997 . S
Fe535 O546 1.996 . S
Fe535 O550 1.976 . S
Fe535 O553 2.002 . S
O536 Fe534 1.918 . S
O536 Fe535 1.918 . S
O536 Fe537 1.918 . S
Fe537 O536 1.918 . S
Fe537 O538 2.002 . S
Fe537 O547 1.976 . S
Fe537 O551 1.996 . S
Fe537 O554 1.997 . S
O538 Fe537 2.002 . S
O538 C555 1.295 . S
O539 Fe534 1.997 . S
O539 C555 1.235 . S
O540 Fe534 2.002 . S
O540 C541 1.295 . S
C541 O540 1.295 . S
C541 O543 1.235 . S
C542 O547 1.287 . S
C542 O548 1.255 . S
O543 Fe535 1.997 . S
O543 C541 1.235 . S
C544 O550 1.287 . S
C544 O551 1.255 . S
O545 Fe534 1.976 . S
O545 C552 1.287 . S
O546 Fe535 1.996 . S
O546 C552 1.255 . S
O547 Fe537 1.976 . S
O547 C542 1.287 . S
O548 Fe534 1.996 . S
O548 C542 1.255 . S
C549 O553 1.295 . S
C549 O554 1.235 . S
O550 Fe535 1.976 . S
O550 C544 1.287 . S
O551 Fe537 1.996 . S
O551 C544 1.255 . S
C552 O545 1.287 . S
C552 O546 1.255 . S
O553 Fe535 2.002 . S
O553 C549 1.295 . S
O554 Fe537 1.997 . S
O554 C549 1.235 . S
C555 O538 1.295 . S
C555 O539 1.235 . S
Fe556 O558 1.918 . S
Fe556 O561 1.997 . S
Fe556 O562 2.002 . S
Fe556 O567 1.976 . S
Fe556 O570 1.996 . S
Fe557 O558 1.918 . S
Fe557 O565 1.997 . S
Fe557 O568 1.996 . S
Fe557 O572 1.976 . S
Fe557 O575 2.002 . S
O558 Fe556 1.918 . S
O558 Fe557 1.918 . S
O558 Fe559 1.918 . S
Fe559 O558 1.918 . S
Fe559 O560 2.002 . S
Fe559 O569 1.976 . S
Fe559 O573 1.996 . S
Fe559 O576 1.997 . S
O560 Fe559 2.002 . S
O560 C577 1.295 . S
O561 Fe556 1.997 . S
O561 C577 1.235 . S
O562 Fe556 2.002 . S
O562 C563 1.295 . S
C563 O562 1.295 . S
C563 O565 1.235 . S
C564 O569 1.287 . S
C564 O570 1.255 . S
O565 Fe557 1.997 . S
O565 C563 1.235 . S
C566 O572 1.287 . S
C566 O573 1.255 . S
O567 Fe556 1.976 . S
O567 C574 1.287 . S
O568 Fe557 1.996 . S
O568 C574 1.255 . S
O569 Fe559 1.976 . S
O569 C564 1.287 . S
O570 Fe556 1.996 . S
O570 C564 1.255 . S
C571 O575 1.295 . S
C571 O576 1.235 . S
O572 Fe557 1.976 . S
O572 C566 1.287 . S
O573 Fe559 1.996 . S
O573 C566 1.255 . S
C574 O567 1.287 . S
C574 O568 1.255 . S
O575 Fe557 2.002 . S
O575 C571 1.295 . S
O576 Fe559 1.997 . S
O576 C571 1.235 . S
C577 O560 1.295 . S
C577 O561 1.235 . S
Fe578 O580 1.918 . S
Fe578 O583 1.997 . S
Fe578 O584 2.002 . S
Fe578 O589 1.976 . S
Fe578 O592 1.996 . S
Fe579 O580 1.918 . S
Fe579 O587 1.997 . S
Fe579 O590 1.996 . S
Fe579 O594 1.976 . S
Fe579 O597 2.002 . S
O580 Fe578 1.918 . S
O580 Fe579 1.918 . S
O580 Fe581 1.918 . S
Fe581 O580 1.918 . S
Fe581 O582 2.002 . S
Fe581 O591 1.976 . S
Fe581 O595 1.996 . S
Fe581 O598 1.997 . S
O582 Fe581 2.002 . S
O582 C599 1.295 . S
O583 Fe578 1.997 . S
O583 C599 1.235 . S
O584 Fe578 2.002 . S
O584 C585 1.295 . S
C585 O584 1.295 . S
C585 O587 1.235 . S
C586 O591 1.287 . S
C586 O592 1.255 . S
O587 Fe579 1.997 . S
O587 C585 1.235 . S
C588 O594 1.287 . S
C588 O595 1.255 . S
O589 Fe578 1.976 . S
O589 C596 1.287 . S
O590 Fe579 1.996 . S
O590 C596 1.255 . S
O591 Fe581 1.976 . S
O591 C586 1.287 . S
O592 Fe578 1.996 . S
O592 C586 1.255 . S
C593 O597 1.295 . S
C593 O598 1.235 . S
O594 Fe579 1.976 . S
O594 C588 1.287 . S
O595 Fe581 1.996 . S
O595 C588 1.255 . S
C596 O589 1.287 . S
C596 O590 1.255 . S
O597 Fe579 2.002 . S
O597 C593 1.295 . S
O598 Fe581 1.997 . S
O598 C593 1.235 . S
C599 O582 1.295 . S
C599 O583 1.235 . S
Fe600 O602 1.918 . S
Fe600 O605 1.997 . S
Fe600 O606 2.002 . S
Fe600 O611 1.976 . S
Fe600 O614 1.996 . S
Fe601 O602 1.918 . S
Fe601 O609 1.997 . S
Fe601 O612 1.996 . S
Fe601 O616 1.976 . S
Fe601 O619 2.002 . S
O602 Fe600 1.918 . S
O602 Fe601 1.918 . S
O602 Fe603 1.918 . S
Fe603 O602 1.918 . S
Fe603 O604 2.002 . S
Fe603 O613 1.976 . S
Fe603 O617 1.996 . S
Fe603 O620 1.997 . S
O604 Fe603 2.002 . S
O604 C621 1.295 . S
O605 Fe600 1.997 . S
O605 C621 1.235 . S
O606 Fe600 2.002 . S
O606 C607 1.295 . S
C607 O606 1.295 . S
C607 O609 1.235 . S
C608 O613 1.287 . S
C608 O614 1.255 . S
O609 Fe601 1.997 . S
O609 C607 1.235 . S
C610 O616 1.287 . S
C610 O617 1.255 . S
O611 Fe600 1.976 . S
O611 C618 1.287 . S
O612 Fe601 1.996 . S
O612 C618 1.255 . S
O613 Fe603 1.976 . S
O613 C608 1.287 . S
O614 Fe600 1.996 . S
O614 C608 1.255 . S
C615 O619 1.295 . S
C615 O620 1.235 . S
O616 Fe601 1.976 . S
O616 C610 1.287 . S
O617 Fe603 1.996 . S
O617 C610 1.255 . S
C618 O611 1.287 . S
C618 O612 1.255 . S
O619 Fe601 2.002 . S
O619 C615 1.295 . S
O620 Fe603 1.997 . S
O620 C615 1.235 . S
C621 O604 1.295 . S
C621 O605 1.235 . S
Fe622 O624 1.918 . S
Fe622 O627 1.997 . S
Fe622 O628 2.002 . S
Fe622 O633 1.976 . S
Fe622 O636 1.996 . S
Fe623 O624 1.918 . S
Fe623 O631 1.997 . S
Fe623 O634 1.996 . S
Fe623 O638 1.976 . S
Fe623 O641 2.002 . S
O624 Fe622 1.918 . S
O624 Fe623 1.918 . S
O624 Fe625 1.918 . S
Fe625 O624 1.918 . S
Fe625 O626 2.002 . S
Fe625 O635 1.976 . S
Fe625 O639 1.996 . S
Fe625 O642 1.997 . S
O626 Fe625 2.002 . S
O626 C643 1.295 . S
O627 Fe622 1.997 . S
O627 C643 1.235 . S
O628 Fe622 2.002 . S
O628 C629 1.295 . S
C629 O628 1.295 . S
C629 O631 1.235 . S
C630 O635 1.287 . S
C630 O636 1.255 . S
O631 Fe623 1.997 . S
O631 C629 1.235 . S
C632 O638 1.287 . S
C632 O639 1.255 . S
O633 Fe622 1.976 . S
O633 C640 1.287 . S
O634 Fe623 1.996 . S
O634 C640 1.255 . S
O635 Fe625 1.976 . S
O635 C630 1.287 . S
O636 Fe622 1.996 . S
O636 C630 1.255 . S
C637 O641 1.295 . S
C637 O642 1.235 . S
O638 Fe623 1.976 . S
O638 C632 1.287 . S
O639 Fe625 1.996 . S
O639 C632 1.255 . S
C640 O633 1.287 . S
C640 O634 1.255 . S
O641 Fe623 2.002 . S
O641 C637 1.295 . S
O642 Fe625 1.997 . S
O642 C637 1.235 . S
C643 O626 1.295 . S
C643 O627 1.235 . S
Fe644 O646 1.918 . S
Fe644 O649 1.997 . S
Fe644 O650 2.002 . S
Fe644 O655 1.976 . S
Fe644 O658 1.996 . S
Fe645 O646 1.918 . S
Fe645 O653 1.997 . S
Fe645 O656 1.996 . S
Fe645 O660 1.976 . S
Fe645 O663 2.002 . S
O646 Fe644 1.918 . S
O646 Fe645 1.918 . S
O646 Fe647 1.918 . S
Fe647 O646 1.918 . S
Fe647 O648 2.002 . S
Fe647 O657 1.976 . S
Fe647 O661 1.996 . S
Fe647 O664 1.997 . S
O648 Fe647 2.002 . S
O648 C665 1.295 . S
O649 Fe644 1.997 . S
O649 C665 1.235 . S
O650 Fe644 2.002 . S
O650 C651 1.295 . S
C651 O650 1.295 . S
C651 O653 1.235 . S
C652 O657 1.287 . S
C652 O658 1.255 . S
O653 Fe645 1.997 . S
O653 C651 1.235 . S
C654 O660 1.287 . S
C654 O661 1.255 . S
O655 Fe644 1.976 . S
O655 C662 1.287 . S
O656 Fe645 1.996 . S
O656 C662 1.255 . S
O657 Fe647 1.976 . S
O657 C652 1.287 . S
O658 Fe644 1.996 . S
O658 C652 1.255 . S
C659 O663 1.295 . S
C659 O664 1.235 . S
O660 Fe645 1.976 . S
O660 C654 1.287 . S
O661 Fe647 1.996 . S
O661 C654 1.255 . S
C662 O655 1.287 . S
C662 O656 1.255 . S
O663 Fe645 2.002 . S
O663 C659 1.295 . S
O664 Fe647 1.997 . S
O664 C659 1.235 . S
C665 O648 1.295 . S
C665 O649 1.235 . S
Fe666 O668 1.918 . S
Fe666 O671 1.997 . S
Fe666 O672 2.002 . S
Fe666 O677 1.976 . S
Fe666 O680 1.996 . S
Fe667 O668 1.918 . S
Fe667 O675 1.997 . S
Fe667 O678 1.996 . S
Fe667 O682 1.976 . S
Fe667 O685 2.002 . S
O668 Fe666 1.918 . S
O668 Fe667 1.918 . S
O668 Fe669 1.918 . S
Fe669 O668 1.918 . S
Fe669 O670 2.002 . S
Fe669 O679 1.976 . S
Fe669 O683 1.996 . S
Fe669 O686 1.997 . S
O670 Fe669 2.002 . S
O670 C687 1.295 . S
O671 Fe666 1.997 . S
O671 C687 1.235 . S
O672 Fe666 2.002 . S
O672 C673 1.295 . S
C673 O672 1.295 . S
C673 O675 1.235 . S
C674 O679 1.287 . S
C674 O680 1.255 . S
O675 Fe667 1.997 . S
O675 C673 1.235 . S
C676 O682 1.287 . S
C676 O683 1.255 . S
O677 Fe666 1.976 . S
O677 C684 1.287 . S
O678 Fe667 1.996 . S
O678 C684 1.255 . S
O679 Fe669 1.976 . S
O679 C674 1.287 . S
O680 Fe666 1.996 . S
O680 C674 1.255 . S
C681 O685 1.295 . S
C681 O686 1.235 . S
O682 Fe667 1.976 . S
O682 C676 1.287 . S
O683 Fe669 1.996 . S
O683 C676 1.255 . S
C684 O677 1.287 . S
C684 O678 1.255 . S
O685 Fe667 2.002 . S
O685 C681 1.295 . S
O686 Fe669 1.997 . S
O686 C681 1.235 . S
C687 O670 1.295 . S
C687 O671 1.235 . S
H688 C694 0.930 . S
H689 C698 0.930 . S
H690 C703 0.929 . S
H691 C701 0.929 . S
H692 C696 0.929 . S
H693 C702 0.929 . S
C694 H688 0.930 . S
C694 C695 1.367 . S
C694 C702 1.378 . S
C695 C694 1.367 . S
C695 C703 1.433 . S
C696 H692 0.929 . S
C696 C698 1.378 . S
C696 C700 1.350 . S
C697 C700 1.463 . S
C697 C702 1.350 . S
C697 N705 1.427 . S
C698 H689 0.930 . S
C698 C696 1.378 . S
C698 C699 1.367 . S
C699 C698 1.367 . S
C699 C701 1.433 . S
C700 C696 1.350 . S
C700 C697 1.463 . S
C700 N704 1.427 . S
C701 H691 0.929 . S
C701 C699 1.433 . S
C701 N704 1.384 . S
C702 H693 0.929 . S
C702 C694 1.378 . S
C702 C697 1.350 . S
C703 H690 0.929 . S
C703 C695 1.433 . S
C703 N705 1.384 . S
N704 C700 1.427 . S
N704 C701 1.384 . S
N705 C697 1.427 . S
N705 C703 1.384 . S
H706 C712 0.930 . S
H707 C716 0.930 . S
H708 C721 0.929 . S
H709 C719 0.929 . S
H710 C714 0.929 . S
H711 C720 0.929 . S
C712 H706 0.930 . S
C712 C713 1.367 . S
C712 C720 1.378 . S
C713 C712 1.367 . S
C713 C721 1.433 . S
C714 H710 0.929 . S
C714 C716 1.378 . S
C714 C718 1.350 . S
C715 C718 1.463 . S
C715 C720 1.350 . S
C715 N723 1.427 . S
C716 H707 0.930 . S
C716 C714 1.378 . S
C716 C717 1.367 . S
C717 C716 1.367 . S
C717 C719 1.433 . S
C718 C714 1.350 . S
C718 C715 1.463 . S
C718 N722 1.427 . S
C719 H709 0.929 . S
C719 C717 1.433 . S
C719 N722 1.384 . S
C720 H711 0.929 . S
C720 C712 1.378 . S
C720 C715 1.350 . S
C721 H708 0.929 . S
C721 C713 1.433 . S
C721 N723 1.384 . S
N722 C718 1.427 . S
N722 C719 1.384 . S
N723 C715 1.427 . S
N723 C721 1.384 . S
H724 C730 0.930 . S
H725 C734 0.930 . S
H726 C739 0.929 . S
H727 C737 0.929 . S
H728 C732 0.929 . S
H729 C738 0.929 . S
C730 H724 0.930 . S
C730 C731 1.367 . S
C730 C738 1.378 . S
C731 C730 1.367 . S
C731 C739 1.433 . S
C732 H728 0.929 . S
C732 C734 1.378 . S
C732 C736 1.350 . S
C733 C736 1.463 . S
C733 C738 1.350 . S
C733 N741 1.427 . S
C734 H725 0.930 . S
C734 C732 1.378 . S
C734 C735 1.367 . S
C735 C734 1.367 . S
C735 C737 1.433 . S
C736 C732 1.350 . S
C736 C733 1.463 . S
C736 N740 1.427 . S
C737 H727 0.929 . S
C737 C735 1.433 . S
C737 N740 1.384 . S
C738 H729 0.929 . S
C738 C730 1.378 . S
C738 C733 1.350 . S
C739 H726 0.929 . S
C739 C731 1.433 . S
C739 N741 1.384 . S
N740 C736 1.427 . S
N740 C737 1.384 . S
N741 C733 1.427 . S
N741 C739 1.384 . S
H742 C748 0.930 . S
H743 C752 0.930 . S
H744 C757 0.929 . S
H745 C755 0.929 . S
H746 C750 0.929 . S
H747 C756 0.929 . S
C748 H742 0.930 . S
C748 C749 1.367 . S
C748 C756 1.378 . S
C749 C748 1.367 . S
C749 C757 1.433 . S
C750 H746 0.929 . S
C750 C752 1.378 1_554 S
C750 C754 1.350 . S
C751 C754 1.463 . S
C751 C756 1.350 . S
C751 N759 1.427 . S
C752 H743 0.930 . S
C752 C750 1.378 1_556 S
C752 C753 1.367 . S
C753 C752 1.367 . S
C753 C755 1.433 . S
C754 C750 1.350 . S
C754 C751 1.463 . S
C754 N758 1.427 1_554 S
C755 H745 0.929 . S
C755 C753 1.433 . S
C755 N758 1.384 . S
C756 H747 0.929 . S
C756 C748 1.378 . S
C756 C751 1.350 . S
C757 H744 0.929 . S
C757 C749 1.433 . S
C757 N759 1.384 . S
N758 C754 1.427 1_556 S
N758 C755 1.384 . S
N759 C751 1.427 . S
N759 C757 1.384 . S
H760 C766 0.930 . S
H761 C770 0.930 . S
H762 C775 0.929 . S
H763 C773 0.929 . S
H764 C768 0.929 . S
H765 C774 0.929 . S
C766 H760 0.930 . S
C766 C767 1.367 . S
C766 C774 1.378 . S
C767 C766 1.367 . S
C767 C775 1.433 . S
C768 H764 0.929 . S
C768 C770 1.378 . S
C768 C772 1.350 . S
C769 C772 1.463 . S
C769 C774 1.350 . S
C769 N777 1.427 . S
C770 H761 0.930 . S
C770 C768 1.378 . S
C770 C771 1.367 . S
C771 C770 1.367 . S
C771 C773 1.433 . S
C772 C768 1.350 . S
C772 C769 1.463 . S
C772 N776 1.427 . S
C773 H763 0.929 . S
C773 C771 1.433 . S
C773 N776 1.384 . S
C774 H765 0.929 . S
C774 C766 1.378 . S
C774 C769 1.350 . S
C775 H762 0.929 . S
C775 C767 1.433 . S
C775 N777 1.384 . S
N776 C772 1.427 . S
N776 C773 1.384 . S
N777 C769 1.427 . S
N777 C775 1.384 . S
H778 C784 0.930 . S
H779 C788 0.930 . S
H780 C793 0.929 . S
H781 C791 0.929 . S
H782 C786 0.929 . S
H783 C792 0.929 . S
C784 H778 0.930 . S
C784 C785 1.367 . S
C784 C792 1.378 . S
C785 C784 1.367 . S
C785 C793 1.433 . S
C786 H782 0.929 . S
C786 C788 1.378 . S
C786 C790 1.350 . S
C787 C790 1.463 . S
C787 C792 1.350 . S
C787 N795 1.427 . S
C788 H779 0.930 . S
C788 C786 1.378 . S
C788 C789 1.367 . S
C789 C788 1.367 . S
C789 C791 1.433 . S
C790 C786 1.350 . S
C790 C787 1.463 . S
C790 N794 1.427 . S
C791 H781 0.929 . S
C791 C789 1.433 . S
C791 N794 1.384 . S
C792 H783 0.929 . S
C792 C784 1.378 . S
C792 C787 1.350 . S
C793 H780 0.929 . S
C793 C785 1.433 . S
C793 N795 1.384 . S
N794 C790 1.427 . S
N794 C791 1.384 . S
N795 C787 1.427 . S
N795 C793 1.384 . S
H796 C802 0.930 . S
H797 C806 0.930 . S
H798 C811 0.929 . S
H799 C809 0.929 . S
H800 C804 0.929 . S
H801 C810 0.929 . S
C802 H796 0.930 . S
C802 C803 1.367 . S
C802 C810 1.378 . S
C803 C802 1.367 . S
C803 C811 1.433 . S
C804 H800 0.929 . S
C804 C806 1.378 . S
C804 C808 1.350 . S
C805 C808 1.463 . S
C805 C810 1.350 . S
C805 N813 1.427 . S
C806 H797 0.930 . S
C806 C804 1.378 . S
C806 C807 1.367 . S
C807 C806 1.367 . S
C807 C809 1.433 . S
C808 C804 1.350 . S
C808 C805 1.463 . S
C808 N812 1.427 . S
C809 H799 0.929 . S
C809 C807 1.433 . S
C809 N812 1.384 . S
C810 H801 0.929 . S
C810 C802 1.378 . S
C810 C805 1.350 . S
C811 H798 0.929 . S
C811 C803 1.433 . S
C811 N813 1.384 . S
N812 C808 1.427 . S
N812 C809 1.384 . S
N813 C805 1.427 . S
N813 C811 1.384 . S
H814 C820 0.930 . S
H815 C824 0.930 . S
H816 C829 0.929 . S
H817 C827 0.929 . S
H818 C822 0.929 . S
H819 C828 0.929 . S
C820 H814 0.930 . S
C820 C821 1.367 . S
C820 C828 1.378 . S
C821 C820 1.367 . S
C821 C829 1.433 . S
C822 H818 0.929 . S
C822 C824 1.378 . S
C822 C826 1.333 1_554 S
C823 C826 1.482 . S
C823 C828 1.350 . S
C823 N831 1.427 . S
C824 H815 0.930 . S
C824 C822 1.378 . S
C824 C825 1.367 . S
C825 C824 1.367 . S
C825 C827 1.433 . S
C826 C822 1.333 1_556 S
C826 C823 1.482 . S
C826 N830 1.426 1_556 S
C827 H817 0.929 . S
C827 C825 1.433 . S
C827 N830 1.384 . S
C828 H819 0.929 . S
C828 C820 1.378 . S
C828 C823 1.350 . S
C829 H816 0.929 . S
C829 C821 1.433 . S
C829 N831 1.384 . S
N830 C826 1.426 1_554 S
N830 C827 1.384 . S
N831 C823 1.427 . S
N831 C829 1.384 . S
H832 C838 0.930 . S
H833 C842 0.930 . S
H834 C847 0.929 . S
H835 C845 0.929 . S
H836 C840 0.929 . S
H837 C846 0.929 . S
C838 H832 0.930 . S
C838 C839 1.367 . S
C838 C846 1.378 . S
C839 C838 1.367 . S
C839 C847 1.433 . S
C840 H836 0.929 . S
C840 C842 1.378 . S
C840 C844 1.350 . S
C841 C844 1.463 . S
C841 C846 1.350 . S
C841 N849 1.427 . S
C842 H833 0.930 . S
C842 C840 1.378 . S
C842 C843 1.367 . S
C843 C842 1.367 . S
C843 C845 1.433 . S
C844 C840 1.350 . S
C844 C841 1.463 . S
C844 N848 1.427 . S
C845 H835 0.929 . S
C845 C843 1.433 . S
C845 N848 1.384 . S
C846 H837 0.929 . S
C846 C838 1.378 . S
C846 C841 1.350 . S
C847 H834 0.929 . S
C847 C839 1.433 . S
C847 N849 1.384 . S
N848 C844 1.427 . S
N848 C845 1.384 . S
N849 C841 1.427 . S
N849 C847 1.384 . S
H850 C856 0.930 . S
H851 C860 0.930 . S
H852 C865 0.929 . S
H853 C863 0.929 . S
H854 C858 0.929 . S
H855 C864 0.929 . S
C856 H850 0.930 . S
C856 C857 1.367 . S
C856 C864 1.378 . S
C857 C856 1.367 . S
C857 C865 1.433 . S
C858 H854 0.929 . S
C858 C860 1.378 . S
C858 C862 1.350 1_565 S
C859 C862 1.463 . S
C859 C864 1.350 . S
C859 N867 1.427 . S
C860 H851 0.930 . S
C860 C858 1.378 . S
C860 C861 1.367 . S
C861 C860 1.367 . S
C861 C863 1.433 . S
C862 C858 1.350 1_545 S
C862 C859 1.463 . S
C862 N866 1.427 . S
C863 H853 0.929 . S
C863 C861 1.433 . S
C863 N866 1.384 1_565 S
C864 H855 0.929 . S
C864 C856 1.378 . S
C864 C859 1.350 . S
C865 H852 0.929 . S
C865 C857 1.433 . S
C865 N867 1.384 . S
N866 C862 1.427 . S
N866 C863 1.384 1_545 S
N867 C859 1.427 . S
N867 C865 1.384 . S
H868 C874 0.930 . S
H869 C878 0.930 . S
H870 C883 0.929 . S
H871 C881 0.929 . S
H872 C876 0.929 . S
H873 C882 0.929 . S
C874 H868 0.930 . S
C874 C875 1.367 . S
C874 C882 1.378 . S
C875 C874 1.367 . S
C875 C883 1.433 . S
C876 H872 0.929 . S
C876 C878 1.378 . S
C876 C880 1.350 . S
C877 C880 1.463 . S
C877 C882 1.350 . S
C877 N885 1.427 . S
C878 H869 0.930 . S
C878 C876 1.378 . S
C878 C879 1.367 . S
C879 C878 1.367 . S
C879 C881 1.433 . S
C880 C876 1.350 . S
C880 C877 1.463 . S
C880 N884 1.427 . S
C881 H871 0.929 . S
C881 C879 1.433 . S
C881 N884 1.384 . S
C882 H873 0.929 . S
C882 C874 1.378 . S
C882 C877 1.350 . S
C883 H870 0.929 . S
C883 C875 1.433 . S
C883 N885 1.384 . S
N884 C880 1.427 . S
N884 C881 1.384 . S
N885 C877 1.427 . S
N885 C883 1.384 . S
H886 C892 0.930 . S
H887 C896 0.930 . S
H888 C901 0.929 . S
H889 C899 0.929 . S
H890 C894 0.929 . S
H891 C900 0.929 . S
C892 H886 0.930 . S
C892 C893 1.367 . S
C892 C900 1.378 . S
C893 C892 1.367 . S
C893 C901 1.433 . S
C894 H890 0.929 . S
C894 C896 1.378 1_565 S
C894 C898 1.350 . S
C895 C898 1.463 . S
C895 C900 1.350 . S
C895 N903 1.427 . S
C896 H887 0.930 . S
C896 C894 1.378 1_545 S
C896 C897 1.367 . S
C897 C896 1.367 . S
C897 C899 1.433 . S
C898 C894 1.350 . S
C898 C895 1.463 . S
C898 N902 1.427 1_565 S
C899 H889 0.929 . S
C899 C897 1.433 . S
C899 N902 1.384 . S
C900 H891 0.929 . S
C900 C892 1.378 . S
C900 C895 1.350 . S
C901 H888 0.929 . S
C901 C893 1.433 . S
C901 N903 1.384 . S
N902 C898 1.427 1_545 S
N902 C899 1.384 . S
N903 C895 1.427 . S
N903 C901 1.384 . S
H904 C910 0.930 . S
H905 C914 0.930 . S
H906 C919 0.929 . S
H907 C917 0.929 . S
H908 C912 0.929 . S
H909 C918 0.929 . S
C910 H904 0.930 . S
C910 C911 1.367 . S
C910 C918 1.378 . S
C911 C910 1.367 . S
C911 C919 1.433 . S
C912 H908 0.929 . S
C912 C914 1.378 . S
C912 C916 1.350 . S
C913 C916 1.463 . S
C913 C918 1.350 . S
C913 N921 1.427 . S
C914 H905 0.930 . S
C914 C912 1.378 . S
C914 C915 1.367 . S
C915 C914 1.367 . S
C915 C917 1.433 . S
C916 C912 1.350 . S
C916 C913 1.463 . S
C916 N920 1.427 . S
C917 H907 0.929 . S
C917 C915 1.433 . S
C917 N920 1.384 . S
C918 H909 0.929 . S
C918 C910 1.378 . S
C918 C913 1.350 . S
C919 H906 0.929 . S
C919 C911 1.433 . S
C919 N921 1.384 . S
N920 C916 1.427 . S
N920 C917 1.384 . S
N921 C913 1.427 . S
N921 C919 1.384 . S
H922 C928 0.930 . S
H923 C932 0.930 . S
H924 C937 0.929 . S
H925 C935 0.929 . S
H926 C930 0.929 . S
H927 C936 0.929 . S
C928 H922 0.930 . S
C928 C929 1.367 . S
C928 C936 1.378 . S
C929 C928 1.367 . S
C929 C937 1.433 . S
C930 H926 0.929 . S
C930 C932 1.378 . S
C930 C934 1.350 1_565 S
C931 C934 1.463 . S
C931 C936 1.350 . S
C931 N939 1.427 . S
C932 H923 0.930 . S
C932 C930 1.378 . S
C932 C933 1.367 . S
C933 C932 1.367 . S
C933 C935 1.433 . S
C934 C930 1.350 1_545 S
C934 C931 1.463 . S
C934 N938 1.427 . S
C935 H925 0.929 . S
C935 C933 1.433 . S
C935 N938 1.384 1_565 S
C936 H927 0.929 . S
C936 C928 1.378 . S
C936 C931 1.350 . S
C937 H924 0.929 . S
C937 C929 1.433 . S
C937 N939 1.384 . S
N938 C934 1.427 . S
N938 C935 1.384 1_545 S
N939 C931 1.427 . S
N939 C937 1.384 . S
H940 C946 0.930 . S
H941 C950 0.930 . S
H942 C955 0.929 . S
H943 C953 0.929 . S
H944 C948 0.929 . S
H945 C954 0.929 . S
C946 H940 0.930 . S
C946 C947 1.367 . S
C946 C954 1.378 . S
C947 C946 1.367 . S
C947 C955 1.433 . S
C948 H944 0.929 . S
C948 C950 1.378 . S
C948 C952 1.350 . S
C949 C952 1.463 . S
C949 C954 1.350 . S
C949 N957 1.427 . S
C950 H941 0.930 . S
C950 C948 1.378 . S
C950 C951 1.367 . S
C951 C950 1.367 . S
C951 C953 1.433 . S
C952 C948 1.350 . S
C952 C949 1.463 . S
C952 N956 1.427 . S
C953 H943 0.929 . S
C953 C951 1.433 . S
C953 N956 1.384 . S
C954 H945 0.929 . S
C954 C946 1.378 . S
C954 C949 1.350 . S
C955 H942 0.929 . S
C955 C947 1.433 . S
C955 N957 1.384 . S
N956 C952 1.427 . S
N956 C953 1.384 . S
N957 C949 1.427 . S
N957 C955 1.384 . S
H958 C964 0.930 . S
H959 C968 0.930 . S
H960 C973 0.929 . S
H961 C971 0.929 . S
H962 C966 0.929 . S
H963 C972 0.929 . S
C964 H958 0.930 . S
C964 C965 1.367 . S
C964 C972 1.378 . S
C965 C964 1.367 . S
C965 C973 1.433 . S
C966 H962 0.929 . S
C966 C968 1.378 . S
C966 C970 1.350 . S
C967 C970 1.462 1_565 S
C967 C972 1.350 . S
C967 N975 1.427 . S
C968 H959 0.930 . S
C968 C966 1.378 . S
C968 C969 1.367 . S
C969 C968 1.367 . S
C969 C971 1.433 . S
C970 C966 1.350 . S
C970 C967 1.462 1_545 S
C970 N974 1.428 . S
C971 H961 0.929 . S
C971 C969 1.433 . S
C971 N974 1.384 . S
C972 H963 0.929 . S
C972 C964 1.378 . S
C972 C967 1.350 . S
C973 H960 0.929 . S
C973 C965 1.433 . S
C973 N975 1.384 . S
N974 C970 1.428 . S
N974 C971 1.384 . S
N975 C967 1.427 . S
N975 C973 1.384 . S
H976 C982 0.930 . S
H977 C986 0.930 . S
H978 C991 0.929 . S
H979 C989 0.929 . S
H980 C984 0.929 . S
H981 C990 0.929 . S
C982 H976 0.930 . S
C982 C983 1.367 . S
C982 C990 1.378 . S
C983 C982 1.367 . S
C983 C991 1.433 . S
C984 H980 0.929 . S
C984 C986 1.378 . S
C984 C988 1.350 . S
C985 C988 1.463 . S
C985 C990 1.350 . S
C985 N993 1.427 . S
C986 H977 0.930 . S
C986 C984 1.378 . S
C986 C987 1.367 . S
C987 C986 1.367 . S
C987 C989 1.433 . S
C988 C984 1.350 . S
C988 C985 1.463 . S
C988 N992 1.427 . S
C989 H979 0.929 . S
C989 C987 1.433 . S
C989 N992 1.384 . S
C990 H981 0.929 . S
C990 C982 1.378 . S
C990 C985 1.350 . S
C991 H978 0.929 . S
C991 C983 1.433 . S
C991 N993 1.384 . S
N992 C988 1.427 . S
N992 C989 1.384 . S
N993 C985 1.427 . S
N993 C991 1.384 . S
H994 C1000 0.930 . S
H995 C1004 0.930 . S
H996 C1009 0.929 . S
H997 C1007 0.929 . S
H998 C1002 0.929 . S
H999 C1008 0.929 . S
C1000 H994 0.930 . S
C1000 C1001 1.367 . S
C1000 C1008 1.378 . S
C1001 C1000 1.367 . S
C1001 C1009 1.433 . S
C1002 H998 0.929 . S
C1002 C1004 1.378 . S
C1002 C1006 1.350 . S
C1003 C1006 1.463 . S
C1003 C1008 1.350 . S
C1003 N1011 1.427 . S
C1004 H995 0.930 . S
C1004 C1002 1.378 . S
C1004 C1005 1.367 . S
C1005 C1004 1.367 . S
C1005 C1007 1.433 . S
C1006 C1002 1.350 . S
C1006 C1003 1.463 . S
C1006 N1010 1.427 . S
C1007 H997 0.929 . S
C1007 C1005 1.433 . S
C1007 N1010 1.384 . S
C1008 H999 0.929 . S
C1008 C1000 1.378 . S
C1008 C1003 1.350 . S
C1009 H996 0.929 . S
C1009 C1001 1.433 . S
C1009 N1011 1.384 . S
N1010 C1006 1.427 . S
N1010 C1007 1.384 . S
N1011 C1003 1.427 . S
N1011 C1009 1.384 . S
H1012 C1018 0.930 . S
H1013 C1022 0.930 . S
H1014 C1027 0.929 . S
H1015 C1025 0.929 . S
H1016 C1020 0.929 . S
H1017 C1026 0.929 . S
C1018 H1012 0.930 . S
C1018 C1019 1.367 . S
C1018 C1026 1.378 . S
C1019 C1018 1.367 . S
C1019 C1027 1.433 . S
C1020 H1016 0.929 . S
C1020 C1022 1.378 . S
C1020 C1024 1.350 1_655 S
C1021 C1024 1.463 . S
C1021 C1026 1.350 . S
C1021 N1029 1.427 . S
C1022 H1013 0.930 . S
C1022 C1020 1.378 . S
C1022 C1023 1.367 . S
C1023 C1022 1.367 . S
C1023 C1025 1.433 . S
C1024 C1020 1.350 1_455 S
C1024 C1021 1.463 . S
C1024 N1028 1.427 . S
C1025 H1015 0.929 . S
C1025 C1023 1.433 . S
C1025 N1028 1.384 1_655 S
C1026 H1017 0.929 . S
C1026 C1018 1.378 . S
C1026 C1021 1.350 . S
C1027 H1014 0.929 . S
C1027 C1019 1.433 . S
C1027 N1029 1.384 . S
N1028 C1024 1.427 . S
N1028 C1025 1.384 1_455 S
N1029 C1021 1.427 . S
N1029 C1027 1.384 . S
H1030 C1036 0.930 . S
H1031 C1040 0.930 . S
H1032 C1045 0.929 . S
H1033 C1043 0.929 . S
H1034 C1038 0.929 . S
H1035 C1044 0.929 . S
C1036 H1030 0.930 . S
C1036 C1037 1.367 . S
C1036 C1044 1.378 . S
C1037 C1036 1.367 . S
C1037 C1045 1.433 . S
C1038 H1034 0.929 . S
C1038 C1040 1.378 . S
C1038 C1042 1.350 . S
C1039 C1042 1.463 . S
C1039 C1044 1.350 . S
C1039 N1047 1.427 . S
C1040 H1031 0.930 . S
C1040 C1038 1.378 . S
C1040 C1041 1.367 . S
C1041 C1040 1.367 . S
C1041 C1043 1.433 . S
C1042 C1038 1.350 . S
C1042 C1039 1.463 . S
C1042 N1046 1.427 . S
C1043 H1033 0.929 . S
C1043 C1041 1.433 . S
C1043 N1046 1.384 . S
C1044 H1035 0.929 . S
C1044 C1036 1.378 . S
C1044 C1039 1.350 . S
C1045 H1032 0.929 . S
C1045 C1037 1.433 . S
C1045 N1047 1.384 . S
N1046 C1042 1.427 . S
N1046 C1043 1.384 . S
N1047 C1039 1.427 . S
N1047 C1045 1.384 . S
H1048 C1054 0.930 . S
H1049 C1058 0.930 . S
H1050 C1063 0.929 . S
H1051 C1061 0.929 . S
H1052 C1056 0.929 . S
H1053 C1062 0.929 . S
C1054 H1048 0.930 . S
C1054 C1055 1.367 . S
C1054 C1062 1.378 . S
C1055 C1054 1.367 . S
C1055 C1063 1.433 . S
C1056 H1052 0.929 . S
C1056 C1058 1.378 . S
C1056 C1060 1.350 1_455 S
C1057 C1060 1.463 . S
C1057 C1062 1.350 . S
C1057 N1065 1.427 . S
C1058 H1049 0.930 . S
C1058 C1056 1.378 . S
C1058 C1059 1.367 . S
C1059 C1058 1.367 . S
C1059 C1061 1.433 . S
C1060 C1056 1.350 1_655 S
C1060 C1057 1.463 . S
C1060 N1064 1.427 1_655 S
C1061 H1051 0.929 . S
C1061 C1059 1.433 . S
C1061 N1064 1.384 . S
C1062 H1053 0.929 . S
C1062 C1054 1.378 . S
C1062 C1057 1.350 . S
C1063 H1050 0.929 . S
C1063 C1055 1.433 . S
C1063 N1065 1.384 . S
N1064 C1060 1.427 1_455 S
N1064 C1061 1.384 . S
N1065 C1057 1.427 . S
N1065 C1063 1.384 . S
H1066 C1072 0.930 . S
H1067 C1076 0.930 . S
H1068 C1081 0.929 . S
H1069 C1079 0.929 . S
H1070 C1074 0.929 . S
H1071 C1080 0.929 . S
C1072 H1066 0.930 . S
C1072 C1073 1.367 . S
C1072 C1080 1.378 . S
C1073 C1072 1.367 . S
C1073 C1081 1.433 . S
C1074 H1070 0.929 . S
C1074 C1076 1.378 . S
C1074 C1078 1.350 . S
C1075 C1078 1.463 . S
C1075 C1080 1.350 . S
C1075 N1083 1.427 . S
C1076 H1067 0.930 . S
C1076 C1074 1.378 . S
C1076 C1077 1.367 . S
C1077 C1076 1.367 . S
C1077 C1079 1.433 . S
C1078 C1074 1.350 . S
C1078 C1075 1.463 . S
C1078 N1082 1.427 . S
C1079 H1069 0.929 . S
C1079 C1077 1.433 . S
C1079 N1082 1.384 . S
C1080 H1071 0.929 . S
C1080 C1072 1.378 . S
C1080 C1075 1.350 . S
C1081 H1068 0.929 . S
C1081 C1073 1.433 . S
C1081 N1083 1.384 . S
N1082 C1078 1.427 . S
N1082 C1079 1.384 . S
N1083 C1075 1.427 . S
N1083 C1081 1.384 . S
H1084 C1090 0.930 . S
H1085 C1094 0.930 . S
H1086 C1099 0.929 . S
H1087 C1097 0.929 . S
H1088 C1092 0.929 . S
H1089 C1098 0.929 . S
C1090 H1084 0.930 . S
C1090 C1091 1.367 . S
C1090 C1098 1.378 . S
C1091 C1090 1.367 . S
C1091 C1099 1.433 . S
C1092 H1088 0.929 . S
C1092 C1094 1.378 . S
C1092 C1096 1.350 1_655 S
C1093 C1096 1.463 . S
C1093 C1098 1.350 . S
C1093 N1101 1.427 . S
C1094 H1085 0.930 . S
C1094 C1092 1.378 . S
C1094 C1095 1.367 . S
C1095 C1094 1.367 . S
C1095 C1097 1.433 . S
C1096 C1092 1.350 1_455 S
C1096 C1093 1.463 . S
C1096 N1100 1.427 1_455 S
C1097 H1087 0.929 . S
C1097 C1095 1.433 . S
C1097 N1100 1.384 . S
C1098 H1089 0.929 . S
C1098 C1090 1.378 . S
C1098 C1093 1.350 . S
C1099 H1086 0.929 . S
C1099 C1091 1.433 . S
C1099 N1101 1.384 . S
N1100 C1096 1.427 1_655 S
N1100 C1097 1.384 . S
N1101 C1093 1.427 . S
N1101 C1099 1.384 . S
H1102 C1108 0.930 . S
H1103 C1112 0.930 . S
H1104 C1117 0.929 . S
H1105 C1115 0.929 . S
H1106 C1110 0.929 . S
H1107 C1116 0.929 . S
C1108 H1102 0.930 . S
C1108 C1109 1.367 . S
C1108 C1116 1.378 . S
C1109 C1108 1.367 . S
C1109 C1117 1.433 . S
C1110 H1106 0.929 . S
C1110 C1112 1.378 . S
C1110 C1114 1.350 . S
C1111 C1114 1.463 . S
C1111 C1116 1.350 . S
C1111 N1119 1.427 . S
C1112 H1103 0.930 . S
C1112 C1110 1.378 . S
C1112 C1113 1.367 . S
C1113 C1112 1.367 . S
C1113 C1115 1.433 . S
C1114 C1110 1.350 . S
C1114 C1111 1.463 . S
C1114 N1118 1.427 . S
C1115 H1105 0.929 . S
C1115 C1113 1.433 . S
C1115 N1118 1.384 . S
C1116 H1107 0.929 . S
C1116 C1108 1.378 . S
C1116 C1111 1.350 . S
C1117 H1104 0.929 . S
C1117 C1109 1.433 . S
C1117 N1119 1.384 . S
N1118 C1114 1.427 . S
N1118 C1115 1.384 . S
N1119 C1111 1.427 . S
N1119 C1117 1.384 . S
H1120 C1126 0.930 . S
H1121 C1130 0.930 . S
H1122 C1135 0.929 . S
H1123 C1133 0.929 . S
H1124 C1128 0.929 . S
H1125 C1134 0.929 . S
C1126 H1120 0.930 . S
C1126 C1127 1.367 . S
C1126 C1134 1.378 . S
C1127 C1126 1.367 . S
C1127 C1135 1.433 . S
C1128 H1124 0.929 . S
C1128 C1130 1.378 . S
C1128 C1132 1.350 . S
C1129 C1132 1.463 . S
C1129 C1134 1.350 . S
C1129 N1137 1.427 . S
C1130 H1121 0.930 . S
C1130 C1128 1.378 . S
C1130 C1131 1.367 . S
C1131 C1130 1.367 . S
C1131 C1133 1.433 . S
C1132 C1128 1.350 . S
C1132 C1129 1.463 . S
C1132 N1136 1.427 . S
C1133 H1123 0.929 . S
C1133 C1131 1.433 . S
C1133 N1136 1.384 . S
C1134 H1125 0.929 . S
C1134 C1126 1.378 . S
C1134 C1129 1.350 . S
C1135 H1122 0.929 . S
C1135 C1127 1.433 . S
C1135 N1137 1.384 . S
N1136 C1132 1.427 . S
N1136 C1133 1.384 . S
N1137 C1129 1.427 . S
N1137 C1135 1.384 . S
H1138 C1144 0.930 . S
H1139 C1148 0.930 . S
H1140 C1153 0.929 . S
H1141 C1151 0.929 . S
H1142 C1146 0.929 . S
H1143 C1152 0.929 . S
C1144 H1138 0.930 . S
C1144 C1145 1.367 . S
C1144 C1152 1.378 . S
C1145 C1144 1.367 . S
C1145 C1153 1.433 . S
C1146 H1142 0.929 . S
C1146 C1148 1.378 . S
C1146 C1150 1.350 . S
C1147 C1150 1.463 . S
C1147 C1152 1.350 . S
C1147 N1155 1.427 . S
C1148 H1139 0.930 . S
C1148 C1146 1.378 . S
C1148 C1149 1.367 . S
C1149 C1148 1.367 . S
C1149 C1151 1.433 . S
C1150 C1146 1.350 . S
C1150 C1147 1.463 . S
C1150 N1154 1.427 . S
C1151 H1141 0.929 . S
C1151 C1149 1.433 . S
C1151 N1154 1.384 . S
C1152 H1143 0.929 . S
C1152 C1144 1.378 . S
C1152 C1147 1.350 . S
C1153 H1140 0.929 . S
C1153 C1145 1.433 . S
C1153 N1155 1.384 . S
N1154 C1150 1.427 . S
N1154 C1151 1.384 . S
N1155 C1147 1.427 . S
N1155 C1153 1.384 . S
H1156 C1162 0.930 . S
H1157 C1166 0.930 . S
H1158 C1171 0.929 . S
H1159 C1169 0.929 . S
H1160 C1164 0.929 . S
H1161 C1170 0.929 . S
C1162 H1156 0.930 . S
C1162 C1163 1.367 . S
C1162 C1170 1.378 . S
C1163 C1162 1.367 . S
C1163 C1171 1.433 . S
C1164 H1160 0.929 . S
C1164 C1166 1.378 . S
C1164 C1168 1.350 . S
C1165 C1168 1.463 . S
C1165 C1170 1.350 . S
C1165 N1173 1.427 . S
C1166 H1157 0.930 . S
C1166 C1164 1.378 . S
C1166 C1167 1.367 . S
C1167 C1166 1.367 . S
C1167 C1169 1.433 . S
C1168 C1164 1.350 . S
C1168 C1165 1.463 . S
C1168 N1172 1.427 . S
C1169 H1159 0.929 . S
C1169 C1167 1.433 . S
C1169 N1172 1.384 . S
C1170 H1161 0.929 . S
C1170 C1162 1.378 . S
C1170 C1165 1.350 . S
C1171 H1158 0.929 . S
C1171 C1163 1.433 . S
C1171 N1173 1.384 . S
N1172 C1168 1.427 . S
N1172 C1169 1.384 . S
N1173 C1165 1.427 . S
N1173 C1171 1.384 . S
H1174 C1180 0.930 . S
H1175 C1184 0.930 . S
H1176 C1189 0.929 . S
H1177 C1187 0.929 . S
H1178 C1182 0.929 1_556 S
H1179 C1188 0.929 . S
C1180 H1174 0.930 . S
C1180 C1181 1.367 . S
C1180 C1188 1.378 . S
C1181 C1180 1.367 . S
C1181 C1189 1.433 . S
C1182 H1178 0.929 1_554 S
C1182 C1184 1.378 . S
C1182 C1186 1.349 1_554 S
C1183 C1186 1.467 . S
C1183 C1188 1.350 . S
C1183 N1191 1.427 . S
C1184 H1175 0.930 . S
C1184 C1182 1.378 . S
C1184 C1185 1.367 . S
C1185 C1184 1.367 . S
C1185 C1187 1.433 . S
C1186 C1182 1.349 1_556 S
C1186 C1183 1.467 . S
C1186 N1190 1.424 1_556 S
C1187 H1177 0.929 . S
C1187 C1185 1.433 . S
C1187 N1190 1.384 . S
C1188 H1179 0.929 . S
C1188 C1180 1.378 . S
C1188 C1183 1.350 . S
C1189 H1176 0.929 . S
C1189 C1181 1.433 . S
C1189 N1191 1.384 . S
N1190 C1186 1.424 1_554 S
N1190 C1187 1.384 . S
N1191 C1183 1.427 . S
N1191 C1189 1.384 . S
H1192 C1198 0.930 . S
H1193 C1202 0.930 . S
H1194 C1207 0.929 . S
H1195 C1205 0.929 . S
H1196 C1200 0.929 . S
H1197 C1206 0.929 . S
C1198 H1192 0.930 . S
C1198 C1199 1.367 . S
C1198 C1206 1.378 . S
C1199 C1198 1.367 . S
C1199 C1207 1.433 . S
C1200 H1196 0.929 . S
C1200 C1202 1.378 . S
C1200 C1204 1.350 . S
C1201 C1204 1.463 . S
C1201 C1206 1.350 . S
C1201 N1209 1.427 . S
C1202 H1193 0.930 . S
C1202 C1200 1.378 . S
C1202 C1203 1.367 . S
C1203 C1202 1.367 . S
C1203 C1205 1.433 . S
C1204 C1200 1.350 . S
C1204 C1201 1.463 . S
C1204 N1208 1.427 . S
C1205 H1195 0.929 . S
C1205 C1203 1.433 . S
C1205 N1208 1.384 . S
C1206 H1197 0.929 . S
C1206 C1198 1.378 . S
C1206 C1201 1.350 . S
C1207 H1194 0.929 . S
C1207 C1199 1.433 . S
C1207 N1209 1.384 . S
N1208 C1204 1.427 . S
N1208 C1205 1.384 . S
N1209 C1201 1.427 . S
N1209 C1207 1.384 . S
H1210 C1216 0.930 . S
H1211 C1220 0.930 . S
H1212 C1225 0.929 . S
H1213 C1223 0.929 . S
H1214 C1218 0.929 . S
H1215 C1224 0.929 . S
C1216 H1210 0.930 . S
C1216 C1217 1.367 . S
C1216 C1224 1.378 . S
C1217 C1216 1.367 . S
C1217 C1225 1.433 . S
C1218 H1214 0.929 . S
C1218 C1220 1.378 . S
C1218 C1222 1.350 . S
C1219 C1222 1.463 . S
C1219 C1224 1.350 . S
C1219 N1227 1.427 . S
C1220 H1211 0.930 . S
C1220 C1218 1.378 . S
C1220 C1221 1.367 . S
C1221 C1220 1.367 . S
C1221 C1223 1.433 . S
C1222 C1218 1.350 . S
C1222 C1219 1.463 . S
C1222 N1226 1.427 . S
C1223 H1213 0.929 . S
C1223 C1221 1.433 . S
C1223 N1226 1.384 . S
C1224 H1215 0.929 . S
C1224 C1216 1.378 . S
C1224 C1219 1.350 . S
C1225 H1212 0.929 . S
C1225 C1217 1.433 . S
C1225 N1227 1.384 . S
N1226 C1222 1.427 . S
N1226 C1223 1.384 . S
N1227 C1219 1.427 . S
N1227 C1225 1.384 . S
H1228 C1234 0.930 . S
H1229 C1238 0.930 . S
H1230 C1243 0.929 . S
H1231 C1241 0.929 . S
H1232 C1236 0.929 . S
H1233 C1242 0.929 . S
C1234 H1228 0.930 . S
C1234 C1235 1.367 . S
C1234 C1242 1.378 . S
C1235 C1234 1.367 . S
C1235 C1243 1.433 . S
C1236 H1232 0.929 . S
C1236 C1238 1.378 . S
C1236 C1240 1.350 . S
C1237 C1240 1.463 . S
C1237 C1242 1.350 . S
C1237 N1245 1.427 . S
C1238 H1229 0.930 . S
C1238 C1236 1.378 . S
C1238 C1239 1.367 . S
C1239 C1238 1.367 . S
C1239 C1241 1.433 . S
C1240 C1236 1.350 . S
C1240 C1237 1.463 . S
C1240 N1244 1.427 . S
C1241 H1231 0.929 . S
C1241 C1239 1.433 . S
C1241 N1244 1.384 . S
C1242 H1233 0.929 . S
C1242 C1234 1.378 . S
C1242 C1237 1.350 . S
C1243 H1230 0.929 . S
C1243 C1235 1.433 . S
C1243 N1245 1.384 . S
N1244 C1240 1.427 . S
N1244 C1241 1.384 . S
N1245 C1237 1.427 . S
N1245 C1243 1.384 . S
H1246 C1252 0.930 . S
H1247 C1256 0.930 . S
H1248 C1261 0.929 . S
H1249 C1259 0.929 . S
H1250 C1254 0.929 . S
H1251 C1260 0.929 . S
C1252 H1246 0.930 . S
C1252 C1253 1.367 . S
C1252 C1260 1.378 . S
C1253 C1252 1.367 . S
C1253 C1261 1.433 . S
C1254 H1250 0.929 . S
C1254 C1256 1.378 . S
C1254 C1258 1.350 1_556 S
C1255 C1258 1.463 . S
C1255 C1260 1.350 . S
C1255 N1263 1.427 . S
C1256 H1247 0.930 . S
C1256 C1254 1.378 . S
C1256 C1257 1.367 . S
C1257 C1256 1.367 . S
C1257 C1259 1.433 . S
C1258 C1254 1.350 1_554 S
C1258 C1255 1.463 . S
C1258 N1262 1.427 . S
C1259 H1249 0.929 . S
C1259 C1257 1.433 . S
C1259 N1262 1.384 1_556 S
C1260 H1251 0.929 . S
C1260 C1252 1.378 . S
C1260 C1255 1.350 . S
C1261 H1248 0.929 . S
C1261 C1253 1.433 . S
C1261 N1263 1.384 . S
N1262 C1258 1.427 . S
N1262 C1259 1.384 1_554 S
N1263 C1255 1.427 . S
N1263 C1261 1.384 . S
H1264 C1270 0.930 . S
H1265 C1274 0.930 . S
H1266 C1279 0.929 . S
H1267 C1277 0.929 . S
H1268 C1272 0.929 . S
H1269 C1278 0.929 . S
C1270 H1264 0.930 . S
C1270 C1271 1.367 . S
C1270 C1278 1.378 . S
C1271 C1270 1.367 . S
C1271 C1279 1.433 . S
C1272 H1268 0.929 . S
C1272 C1274 1.378 . S
C1272 C1276 1.350 . S
C1273 C1276 1.463 . S
C1273 C1278 1.350 . S
C1273 N1281 1.427 . S
C1274 H1265 0.930 . S
C1274 C1272 1.378 . S
C1274 C1275 1.367 . S
C1275 C1274 1.367 . S
C1275 C1277 1.433 . S
C1276 C1272 1.350 . S
C1276 C1273 1.463 . S
C1276 N1280 1.427 . S
C1277 H1267 0.929 . S
C1277 C1275 1.433 . S
C1277 N1280 1.384 . S
C1278 H1269 0.929 . S
C1278 C1270 1.378 . S
C1278 C1273 1.350 . S
C1279 H1266 0.929 . S
C1279 C1271 1.433 . S
C1279 N1281 1.384 . S
N1280 C1276 1.427 . S
N1280 C1277 1.384 . S
N1281 C1273 1.427 . S
N1281 C1279 1.384 . S
H1282 C1288 0.930 . S
H1283 C1292 0.930 . S
H1284 C1297 0.929 . S
H1285 C1295 0.929 . S
H1286 C1290 0.929 . S
H1287 C1296 0.929 . S
C1288 H1282 0.930 . S
C1288 C1289 1.367 . S
C1288 C1296 1.378 . S
C1289 C1288 1.367 . S
C1289 C1297 1.433 . S
C1290 H1286 0.929 . S
C1290 C1292 1.378 . S
C1290 C1294 1.350 1_545 S
C1291 C1294 1.463 . S
C1291 C1296 1.350 . S
C1291 N1299 1.427 . S
C1292 H1283 0.930 . S
C1292 C1290 1.378 . S
C1292 C1293 1.367 . S
C1293 C1292 1.367 . S
C1293 C1295 1.433 . S
C1294 C1290 1.350 1_565 S
C1294 C1291 1.463 . S
C1294 N1298 1.427 1_565 S
C1295 H1285 0.929 . S
C1295 C1293 1.433 . S
C1295 N1298 1.384 . S
C1296 H1287 0.929 . S
C1296 C1288 1.378 . S
C1296 C1291 1.350 . S
C1297 H1284 0.929 . S
C1297 C1289 1.433 . S
C1297 N1299 1.384 . S
N1298 C1294 1.427 1_545 S
N1298 C1295 1.384 . S
N1299 C1291 1.427 . S
N1299 C1297 1.384 . S
H1300 C1306 0.930 . S
H1301 C1310 0.930 . S
H1302 C1315 0.929 . S
H1303 C1313 0.929 . S
H1304 C1308 0.929 . S
H1305 C1314 0.929 . S
C1306 H1300 0.930 . S
C1306 C1307 1.367 . S
C1306 C1314 1.378 . S
C1307 C1306 1.367 . S
C1307 C1315 1.433 . S
C1308 H1304 0.929 . S
C1308 C1310 1.378 . S
C1308 C1312 1.350 . S
C1309 C1312 1.463 . S
C1309 C1314 1.350 . S
C1309 N1317 1.427 . S
C1310 H1301 0.930 . S
C1310 C1308 1.378 . S
C1310 C1311 1.367 . S
C1311 C1310 1.367 . S
C1311 C1313 1.433 . S
C1312 C1308 1.350 . S
C1312 C1309 1.463 . S
C1312 N1316 1.427 . S
C1313 H1303 0.929 . S
C1313 C1311 1.433 . S
C1313 N1316 1.384 . S
C1314 H1305 0.929 . S
C1314 C1306 1.378 . S
C1314 C1309 1.350 . S
C1315 H1302 0.929 . S
C1315 C1307 1.433 . S
C1315 N1317 1.384 . S
N1316 C1312 1.427 . S
N1316 C1313 1.384 . S
N1317 C1309 1.427 . S
N1317 C1315 1.384 . S
H1318 C1324 0.930 . S
H1319 C1328 0.930 . S
H1320 C1333 0.929 . S
H1321 C1331 0.929 . S
H1322 C1326 0.929 . S
H1323 C1332 0.929 . S
C1324 H1318 0.930 . S
C1324 C1325 1.367 . S
C1324 C1332 1.378 . S
C1325 C1324 1.367 . S
C1325 C1333 1.433 . S
C1326 H1322 0.929 . S
C1326 C1328 1.378 1_545 S
C1326 C1330 1.350 . S
C1327 C1330 1.463 . S
C1327 C1332 1.350 . S
C1327 N1335 1.427 . S
C1328 H1319 0.930 . S
C1328 C1326 1.378 1_565 S
C1328 C1329 1.367 . S
C1329 C1328 1.367 . S
C1329 C1331 1.433 . S
C1330 C1326 1.350 . S
C1330 C1327 1.463 . S
C1330 N1334 1.427 1_545 S
C1331 H1321 0.929 . S
C1331 C1329 1.433 . S
C1331 N1334 1.384 . S
C1332 H1323 0.929 . S
C1332 C1324 1.378 . S
C1332 C1327 1.350 . S
C1333 H1320 0.929 . S
C1333 C1325 1.433 . S
C1333 N1335 1.384 . S
N1334 C1330 1.427 1_565 S
N1334 C1331 1.384 . S
N1335 C1327 1.427 . S
N1335 C1333 1.384 . S
H1336 C1342 0.930 . S
H1337 C1346 0.930 . S
H1338 C1351 0.929 . S
H1339 C1349 0.929 . S
H1340 C1344 0.929 . S
H1341 C1350 0.929 . S
C1342 H1336 0.930 . S
C1342 C1343 1.367 . S
C1342 C1350 1.378 . S
C1343 C1342 1.367 . S
C1343 C1351 1.433 . S
C1344 H1340 0.929 . S
C1344 C1346 1.378 . S
C1344 C1348 1.350 . S
C1345 C1348 1.463 . S
C1345 C1350 1.350 . S
C1345 N1353 1.427 . S
C1346 H1337 0.930 . S
C1346 C1344 1.378 . S
C1346 C1347 1.367 . S
C1347 C1346 1.367 . S
C1347 C1349 1.433 . S
C1348 C1344 1.350 . S
C1348 C1345 1.463 . S
C1348 N1352 1.427 . S
C1349 H1339 0.929 . S
C1349 C1347 1.433 . S
C1349 N1352 1.384 . S
C1350 H1341 0.929 . S
C1350 C1342 1.378 . S
C1350 C1345 1.350 . S
C1351 H1338 0.929 . S
C1351 C1343 1.433 . S
C1351 N1353 1.384 . S
N1352 C1348 1.427 . S
N1352 C1349 1.384 . S
N1353 C1345 1.427 . S
N1353 C1351 1.384 . S
H1354 C1360 0.930 . S
H1355 C1364 0.930 . S
H1356 C1369 0.929 . S
H1357 C1367 0.929 . S
H1358 C1362 0.929 . S
H1359 C1368 0.929 . S
C1360 H1354 0.930 . S
C1360 C1361 1.367 . S
C1360 C1368 1.378 . S
C1361 C1360 1.367 . S
C1361 C1369 1.433 . S
C1362 H1358 0.929 . S
C1362 C1364 1.378 . S
C1362 C1366 1.350 . S
C1363 C1366 1.463 1_565 S
C1363 C1368 1.350 . S
C1363 N1371 1.427 . S
C1364 H1355 0.930 . S
C1364 C1362 1.378 . S
C1364 C1365 1.367 . S
C1365 C1364 1.367 . S
C1365 C1367 1.433 . S
C1366 C1362 1.350 . S
C1366 C1363 1.463 1_545 S
C1366 N1370 1.427 . S
C1367 H1357 0.929 . S
C1367 C1365 1.433 . S
C1367 N1370 1.384 . S
C1368 H1359 0.929 . S
C1368 C1360 1.378 . S
C1368 C1363 1.350 . S
C1369 H1356 0.929 . S
C1369 C1361 1.433 . S
C1369 N1371 1.384 . S
N1370 C1366 1.427 . S
N1370 C1367 1.384 . S
N1371 C1363 1.427 . S
N1371 C1369 1.384 . S
H1372 C1378 0.930 . S
H1373 C1382 0.930 . S
H1374 C1387 0.929 . S
H1375 C1385 0.929 . S
H1376 C1380 0.929 . S
H1377 C1386 0.929 . S
C1378 H1372 0.930 . S
C1378 C1379 1.367 . S
C1378 C1386 1.378 . S
C1379 C1378 1.367 . S
C1379 C1387 1.433 . S
C1380 H1376 0.929 . S
C1380 C1382 1.378 . S
C1380 C1384 1.350 . S
C1381 C1384 1.463 . S
C1381 C1386 1.350 . S
C1381 N1389 1.427 . S
C1382 H1373 0.930 . S
C1382 C1380 1.378 . S
C1382 C1383 1.367 . S
C1383 C1382 1.367 . S
C1383 C1385 1.433 . S
C1384 C1380 1.350 . S
C1384 C1381 1.463 . S
C1384 N1388 1.427 . S
C1385 H1375 0.929 . S
C1385 C1383 1.433 . S
C1385 N1388 1.384 . S
C1386 H1377 0.929 . S
C1386 C1378 1.378 . S
C1386 C1381 1.350 . S
C1387 H1374 0.929 . S
C1387 C1379 1.433 . S
C1387 N1389 1.384 . S
N1388 C1384 1.427 . S
N1388 C1385 1.384 . S
N1389 C1381 1.427 . S
N1389 C1387 1.384 . S
H1390 C1396 0.910 1_554 S
H1391 C1400 0.930 . S
H1392 C1405 0.929 . S
H1393 C1403 0.929 . S
H1394 C1398 0.929 . S
H1395 C1404 0.929 . S
C1396 H1390 0.910 1_556 S
C1396 C1397 1.367 . S
C1396 C1404 1.378 . S
C1397 C1396 1.367 . S
C1397 C1405 1.433 . S
C1398 H1394 0.929 . S
C1398 C1400 1.378 1_545 S
C1398 C1402 1.350 . S
C1399 C1402 1.463 . S
C1399 C1404 1.350 . S
C1399 N1407 1.427 . S
C1400 H1391 0.930 . S
C1400 C1398 1.378 1_565 S
C1400 C1401 1.367 . S
C1401 C1400 1.367 . S
C1401 C1403 1.433 . S
C1402 C1398 1.350 . S
C1402 C1399 1.463 . S
C1402 N1406 1.427 1_545 S
C1403 H1393 0.929 . S
C1403 C1401 1.433 . S
C1403 N1406 1.384 . S
C1404 H1395 0.929 . S
C1404 C1396 1.378 . S
C1404 C1399 1.350 . S
C1405 H1392 0.929 . S
C1405 C1397 1.433 . S
C1405 N1407 1.384 . S
N1406 C1402 1.427 1_565 S
N1406 C1403 1.384 . S
N1407 C1399 1.427 . S
N1407 C1405 1.384 . S
H1408 C1414 0.930 . S
H1409 C1418 0.930 . S
H1410 C1423 0.929 . S
H1411 C1421 0.929 . S
H1412 C1416 0.929 . S
H1413 C1422 0.929 . S
C1414 H1408 0.930 . S
C1414 C1415 1.367 . S
C1414 C1422 1.378 . S
C1415 C1414 1.367 . S
C1415 C1423 1.433 . S
C1416 H1412 0.929 . S
C1416 C1418 1.378 . S
C1416 C1420 1.350 . S
C1417 C1420 1.463 . S
C1417 C1422 1.350 . S
C1417 N1425 1.427 . S
C1418 H1409 0.930 . S
C1418 C1416 1.378 . S
C1418 C1419 1.367 . S
C1419 C1418 1.367 . S
C1419 C1421 1.433 . S
C1420 C1416 1.350 . S
C1420 C1417 1.463 . S
C1420 N1424 1.427 . S
C1421 H1411 0.929 . S
C1421 C1419 1.433 . S
C1421 N1424 1.384 . S
C1422 H1413 0.929 . S
C1422 C1414 1.378 . S
C1422 C1417 1.350 . S
C1423 H1410 0.929 . S
C1423 C1415 1.433 . S
C1423 N1425 1.384 . S
N1424 C1420 1.427 . S
N1424 C1421 1.384 . S
N1425 C1417 1.427 . S
N1425 C1423 1.384 . S
H1426 C1432 0.930 . S
H1427 C1436 0.930 . S
H1428 C1441 0.929 . S
H1429 C1439 0.929 . S
H1430 C1434 0.929 . S
H1431 C1440 0.929 . S
C1432 H1426 0.930 . S
C1432 C1433 1.367 . S
C1432 C1440 1.378 . S
C1433 C1432 1.367 . S
C1433 C1441 1.433 . S
C1434 H1430 0.929 . S
C1434 C1436 1.378 . S
C1434 C1438 1.350 . S
C1435 C1438 1.463 . S
C1435 C1440 1.350 . S
C1435 N1443 1.427 . S
C1436 H1427 0.930 . S
C1436 C1434 1.378 . S
C1436 C1437 1.367 . S
C1437 C1436 1.367 . S
C1437 C1439 1.433 . S
C1438 C1434 1.350 . S
C1438 C1435 1.463 . S
C1438 N1442 1.427 . S
C1439 H1429 0.929 . S
C1439 C1437 1.433 . S
C1439 N1442 1.384 . S
C1440 H1431 0.929 . S
C1440 C1432 1.378 . S
C1440 C1435 1.350 . S
C1441 H1428 0.929 . S
C1441 C1433 1.433 . S
C1441 N1443 1.384 . S
N1442 C1438 1.427 . S
N1442 C1439 1.384 . S
N1443 C1435 1.427 . S
N1443 C1441 1.384 . S
H1444 C1450 0.930 . S
H1445 C1454 0.930 . S
H1446 C1459 0.929 . S
H1447 C1457 0.929 . S
H1448 C1452 0.929 . S
H1449 C1458 0.929 . S
C1450 H1444 0.930 . S
C1450 C1451 1.367 . S
C1450 C1458 1.378 . S
C1451 C1450 1.367 . S
C1451 C1459 1.433 . S
C1452 H1448 0.929 . S
C1452 C1454 1.378 . S
C1452 C1456 1.350 1_455 S
C1453 C1456 1.463 . S
C1453 C1458 1.350 . S
C1453 N1461 1.427 . S
C1454 H1445 0.930 . S
C1454 C1452 1.378 . S
C1454 C1455 1.367 . S
C1455 C1454 1.367 . S
C1455 C1457 1.433 . S
C1456 C1452 1.350 1_655 S
C1456 C1453 1.463 . S
C1456 N1460 1.427 . S
C1457 H1447 0.929 . S
C1457 C1455 1.433 . S
C1457 N1460 1.384 1_455 S
C1458 H1449 0.929 . S
C1458 C1450 1.378 . S
C1458 C1453 1.350 . S
C1459 H1446 0.929 . S
C1459 C1451 1.433 . S
C1459 N1461 1.384 . S
N1460 C1456 1.427 . S
N1460 C1457 1.384 1_655 S
N1461 C1453 1.427 . S
N1461 C1459 1.384 . S
H1462 C1468 0.930 . S
H1463 C1472 0.930 . S
H1464 C1477 0.929 . S
H1465 C1475 0.929 . S
H1466 C1470 0.929 . S
H1467 C1476 0.929 . S
C1468 H1462 0.930 . S
C1468 C1469 1.367 . S
C1468 C1476 1.378 . S
C1469 C1468 1.367 . S
C1469 C1477 1.433 . S
C1470 H1466 0.929 . S
C1470 C1472 1.378 . S
C1470 C1474 1.350 . S
C1471 C1474 1.463 . S
C1471 C1476 1.350 . S
C1471 N1479 1.427 . S
C1472 H1463 0.930 . S
C1472 C1470 1.378 . S
C1472 C1473 1.367 . S
C1473 C1472 1.367 . S
C1473 C1475 1.433 . S
C1474 C1470 1.350 . S
C1474 C1471 1.463 . S
C1474 N1478 1.427 . S
C1475 H1465 0.929 . S
C1475 C1473 1.433 . S
C1475 N1478 1.384 . S
C1476 H1467 0.929 . S
C1476 C1468 1.378 . S
C1476 C1471 1.350 . S
C1477 H1464 0.929 . S
C1477 C1469 1.433 . S
C1477 N1479 1.384 . S
N1478 C1474 1.427 . S
N1478 C1475 1.384 . S
N1479 C1471 1.427 . S
N1479 C1477 1.384 . S
H1480 C1486 0.930 . S
H1481 C1490 0.930 . S
H1482 C1495 0.929 . S
H1483 C1493 0.929 . S
H1484 C1488 0.929 1_455 S
H1485 C1494 0.929 . S
C1486 H1480 0.930 . S
C1486 C1487 1.367 . S
C1486 C1494 1.378 . S
C1487 C1486 1.367 . S
C1487 C1495 1.433 . S
C1488 H1484 0.929 1_655 S
C1488 C1490 1.378 . S
C1488 C1492 1.350 1_655 S
C1489 C1492 1.463 . S
C1489 C1494 1.350 . S
C1489 N1497 1.427 . S
C1490 H1481 0.930 . S
C1490 C1488 1.378 . S
C1490 C1491 1.367 . S
C1491 C1490 1.367 . S
C1491 C1493 1.433 . S
C1492 C1488 1.350 1_455 S
C1492 C1489 1.463 . S
C1492 N1496 1.427 1_455 S
C1493 H1483 0.929 . S
C1493 C1491 1.433 . S
C1493 N1496 1.384 . S
C1494 H1485 0.929 . S
C1494 C1486 1.378 . S
C1494 C1489 1.350 . S
C1495 H1482 0.929 . S
C1495 C1487 1.433 . S
C1495 N1497 1.384 . S
N1496 C1492 1.427 1_655 S
N1496 C1493 1.384 . S
N1497 C1489 1.427 . S
N1497 C1495 1.384 . S
H1498 C1504 0.930 . S
H1499 C1508 0.930 . S
H1500 C1513 0.929 . S
H1501 C1511 0.929 . S
H1502 C1506 0.929 . S
H1503 C1512 0.929 . S
C1504 H1498 0.930 . S
C1504 C1505 1.367 . S
C1504 C1512 1.378 . S
C1505 C1504 1.367 . S
C1505 C1513 1.433 . S
C1506 H1502 0.929 . S
C1506 C1508 1.378 . S
C1506 C1510 1.350 . S
C1507 C1510 1.463 . S
C1507 C1512 1.350 . S
C1507 N1515 1.427 . S
C1508 H1499 0.930 . S
C1508 C1506 1.378 . S
C1508 C1509 1.367 . S
C1509 C1508 1.367 . S
C1509 C1511 1.433 . S
C1510 C1506 1.350 . S
C1510 C1507 1.463 . S
C1510 N1514 1.427 . S
C1511 H1501 0.929 . S
C1511 C1509 1.433 . S
C1511 N1514 1.384 . S
C1512 H1503 0.929 . S
C1512 C1504 1.378 . S
C1512 C1507 1.350 . S
C1513 H1500 0.929 . S
C1513 C1505 1.433 . S
C1513 N1515 1.384 . S
N1514 C1510 1.427 . S
N1514 C1511 1.384 . S
N1515 C1507 1.427 . S
N1515 C1513 1.384 . S
H1516 C1522 0.930 . S
H1517 C1526 0.930 . S
H1518 C1531 0.929 . S
H1519 C1529 0.929 . S
H1520 C1524 0.929 1_655 S
H1521 C1530 0.929 . S
C1522 H1516 0.930 . S
C1522 C1523 1.367 . S
C1522 C1530 1.378 . S
C1523 C1522 1.367 . S
C1523 C1531 1.433 . S
C1524 H1520 0.929 1_455 S
C1524 C1526 1.378 . S
C1524 C1528 1.350 1_455 S
C1525 C1528 1.465 . S
C1525 C1530 1.350 . S
C1525 N1533 1.427 . S
C1526 H1517 0.930 . S
C1526 C1524 1.378 . S
C1526 C1527 1.367 . S
C1527 C1526 1.367 . S
C1527 C1529 1.433 . S
C1528 C1524 1.350 1_655 S
C1528 C1525 1.465 . S
C1528 N1532 1.425 1_655 S
C1529 H1519 0.929 . S
C1529 C1527 1.433 . S
C1529 N1532 1.384 . S
C1530 H1521 0.929 . S
C1530 C1522 1.378 . S
C1530 C1525 1.350 . S
C1531 H1518 0.929 . S
C1531 C1523 1.433 . S
C1531 N1533 1.384 . S
N1532 C1528 1.425 1_455 S
N1532 C1529 1.384 . S
N1533 C1525 1.427 . S
N1533 C1531 1.384 . S
H1534 C1540 0.930 . S
H1535 C1544 0.930 . S
H1536 C1549 0.929 . S
H1537 C1547 0.929 . S
H1538 C1542 0.929 . S
H1539 C1548 0.929 . S
C1540 H1534 0.930 . S
C1540 C1541 1.367 . S
C1540 C1548 1.378 . S
C1541 C1540 1.367 . S
C1541 C1549 1.433 . S
C1542 H1538 0.929 . S
C1542 C1544 1.378 . S
C1542 C1546 1.350 . S
C1543 C1546 1.463 . S
C1543 C1548 1.350 . S
C1543 N1551 1.427 . S
C1544 H1535 0.930 . S
C1544 C1542 1.378 . S
C1544 C1545 1.367 . S
C1545 C1544 1.367 . S
C1545 C1547 1.433 . S
C1546 C1542 1.350 . S
C1546 C1543 1.463 . S
C1546 N1550 1.427 . S
C1547 H1537 0.929 . S
C1547 C1545 1.433 . S
C1547 N1550 1.384 . S
C1548 H1539 0.929 . S
C1548 C1540 1.378 . S
C1548 C1543 1.350 . S
C1549 H1536 0.929 . S
C1549 C1541 1.433 . S
C1549 N1551 1.384 . S
N1550 C1546 1.427 . S
N1550 C1547 1.384 . S
N1551 C1543 1.427 . S
N1551 C1549 1.384 . S
H1552 C1558 0.930 . S
H1553 C1562 0.930 . S
H1554 C1567 0.929 . S
H1555 C1565 0.929 . S
H1556 C1560 0.929 . S
H1557 C1566 0.929 . S
C1558 H1552 0.930 . S
C1558 C1559 1.367 . S
C1558 C1566 1.378 . S
C1559 C1558 1.367 . S
C1559 C1567 1.433 . S
C1560 H1556 0.929 . S
C1560 C1562 1.378 . S
C1560 C1564 1.350 . S
C1561 C1564 1.463 . S
C1561 C1566 1.350 . S
C1561 N1569 1.427 . S
C1562 H1553 0.930 . S
C1562 C1560 1.378 . S
C1562 C1563 1.367 . S
C1563 C1562 1.367 . S
C1563 C1565 1.433 . S
C1564 C1560 1.350 . S
C1564 C1561 1.463 . S
C1564 N1568 1.427 . S
C1565 H1555 0.929 . S
C1565 C1563 1.433 . S
C1565 N1568 1.384 . S
C1566 H1557 0.929 . S
C1566 C1558 1.378 . S
C1566 C1561 1.350 . S
C1567 H1554 0.929 . S
C1567 C1559 1.433 . S
C1567 N1569 1.384 . S
N1568 C1564 1.427 . S
N1568 C1565 1.384 . S
N1569 C1561 1.427 . S
N1569 C1567 1.384 . S
H1570 C1576 0.930 . S
H1571 C1580 0.930 . S
H1572 C1585 0.929 . S
H1573 C1583 0.929 . S
H1574 C1578 0.929 . S
H1575 C1584 0.929 . S
C1576 H1570 0.930 . S
C1576 C1577 1.367 . S
C1576 C1584 1.378 . S
C1577 C1576 1.367 . S
C1577 C1585 1.433 . S
C1578 H1574 0.929 . S
C1578 C1580 1.378 . S
C1578 C1582 1.350 1_556 S
C1579 C1582 1.463 . S
C1579 C1584 1.350 . S
C1579 N1587 1.427 . S
C1580 H1571 0.930 . S
C1580 C1578 1.378 . S
C1580 C1581 1.367 . S
C1581 C1580 1.367 . S
C1581 C1583 1.433 . S
C1582 C1578 1.350 1_554 S
C1582 C1579 1.463 . S
C1582 N1586 1.427 . S
C1583 H1573 0.929 . S
C1583 C1581 1.433 . S
C1583 N1586 1.384 1_556 S
C1584 H1575 0.929 . S
C1584 C1576 1.378 . S
C1584 C1579 1.350 . S
C1585 H1572 0.929 . S
C1585 C1577 1.433 . S
C1585 N1587 1.384 . S
N1586 C1582 1.427 . S
N1586 C1583 1.384 1_554 S
N1587 C1579 1.427 . S
N1587 C1585 1.384 . S
H1588 C1594 0.930 . S
H1589 C1598 0.930 . S
H1590 C1603 0.929 . S
H1591 C1601 0.929 . S
H1592 C1596 0.929 . S
H1593 C1602 0.929 . S
C1594 H1588 0.930 . S
C1594 C1595 1.367 . S
C1594 C1602 1.378 . S
C1595 C1594 1.367 . S
C1595 C1603 1.433 . S
C1596 H1592 0.929 . S
C1596 C1598 1.378 . S
C1596 C1600 1.350 . S
C1597 C1600 1.463 . S
C1597 C1602 1.350 . S
C1597 N1605 1.427 . S
C1598 H1589 0.930 . S
C1598 C1596 1.378 . S
C1598 C1599 1.367 . S
C1599 C1598 1.367 . S
C1599 C1601 1.433 . S
C1600 C1596 1.350 . S
C1600 C1597 1.463 . S
C1600 N1604 1.427 . S
C1601 H1591 0.929 . S
C1601 C1599 1.433 . S
C1601 N1604 1.384 . S
C1602 H1593 0.929 . S
C1602 C1594 1.378 . S
C1602 C1597 1.350 . S
C1603 H1590 0.929 . S
C1603 C1595 1.433 . S
C1603 N1605 1.384 . S
N1604 C1600 1.427 . S
N1604 C1601 1.384 . S
N1605 C1597 1.427 . S
N1605 C1603 1.384 . S
H1606 C1612 0.930 . S
H1607 C1616 0.930 . S
H1608 C1621 0.929 . S
H1609 C1619 0.929 . S
H1610 C1614 0.929 . S
H1611 C1620 0.929 . S
C1612 H1606 0.930 . S
C1612 C1613 1.367 . S
C1612 C1620 1.378 . S
C1613 C1612 1.367 . S
C1613 C1621 1.433 . S
C1614 H1610 0.929 . S
C1614 C1616 1.378 . S
C1614 C1618 1.350 . S
C1615 C1618 1.463 . S
C1615 C1620 1.350 . S
C1615 N1623 1.427 . S
C1616 H1607 0.930 . S
C1616 C1614 1.378 . S
C1616 C1617 1.367 . S
C1617 C1616 1.367 . S
C1617 C1619 1.433 . S
C1618 C1614 1.350 . S
C1618 C1615 1.463 . S
C1618 N1622 1.427 . S
C1619 H1609 0.929 . S
C1619 C1617 1.433 . S
C1619 N1622 1.384 . S
C1620 H1611 0.929 . S
C1620 C1612 1.378 . S
C1620 C1615 1.350 . S
C1621 H1608 0.929 . S
C1621 C1613 1.433 . S
C1621 N1623 1.384 . S
N1622 C1618 1.427 . S
N1622 C1619 1.384 . S
N1623 C1615 1.427 . S
N1623 C1621 1.384 . S
H1624 C1630 0.930 . S
H1625 C1634 0.930 . S
H1626 C1639 0.929 . S
H1627 C1637 0.929 . S
H1628 C1632 0.929 . S
H1629 C1638 0.929 . S
C1630 H1624 0.930 . S
C1630 C1631 1.367 . S
C1630 C1638 1.378 . S
C1631 C1630 1.367 . S
C1631 C1639 1.433 . S
C1632 H1628 0.929 . S
C1632 C1634 1.378 . S
C1632 C1636 1.350 . S
C1633 C1636 1.463 . S
C1633 C1638 1.350 . S
C1633 N1641 1.427 . S
C1634 H1625 0.930 . S
C1634 C1632 1.378 . S
C1634 C1635 1.367 . S
C1635 C1634 1.367 . S
C1635 C1637 1.433 . S
C1636 C1632 1.350 . S
C1636 C1633 1.463 . S
C1636 N1640 1.427 . S
C1637 H1627 0.929 . S
C1637 C1635 1.433 . S
C1637 N1640 1.384 . S
C1638 H1629 0.929 . S
C1638 C1630 1.378 . S
C1638 C1633 1.350 . S
C1639 H1626 0.929 . S
C1639 C1631 1.433 . S
C1639 N1641 1.384 . S
N1640 C1636 1.427 . S
N1640 C1637 1.384 . S
N1641 C1633 1.427 . S
N1641 C1639 1.384 . S
H1642 C1648 0.930 . S
H1643 C1652 0.930 . S
H1644 C1657 0.929 . S
H1645 C1655 0.929 . S
H1646 C1650 0.929 . S
H1647 C1656 0.929 . S
C1648 H1642 0.930 . S
C1648 C1649 1.367 . S
C1648 C1656 1.378 . S
C1649 C1648 1.367 . S
C1649 C1657 1.433 . S
C1650 H1646 0.929 . S
C1650 C1652 1.378 . S
C1650 C1654 1.350 . S
C1651 C1654 1.463 1_556 S
C1651 C1656 1.350 . S
C1651 N1659 1.427 . S
C1652 H1643 0.930 . S
C1652 C1650 1.378 . S
C1652 C1653 1.367 . S
C1653 C1652 1.367 . S
C1653 C1655 1.433 . S
C1654 C1650 1.350 . S
C1654 C1651 1.463 1_554 S
C1654 N1658 1.427 1_554 S
C1655 H1645 0.929 . S
C1655 C1653 1.433 . S
C1655 N1658 1.384 1_554 S
C1656 H1647 0.929 . S
C1656 C1648 1.378 . S
C1656 C1651 1.350 . S
C1657 H1644 0.929 . S
C1657 C1649 1.433 . S
C1657 N1659 1.384 . S
N1658 C1654 1.427 1_556 S
N1658 C1655 1.384 1_556 S
N1659 C1651 1.427 . S
N1659 C1657 1.384 . S
H1660 C1666 0.930 1_455 S
H1661 C1670 0.930 . S
H1662 C1675 0.929 . S
H1663 C1673 0.929 . S
H1664 C1668 0.929 . S
H1665 C1674 0.929 . S
C1666 H1660 0.930 1_655 S
C1666 C1667 1.367 . S
C1666 C1674 1.378 . S
C1667 C1666 1.367 . S
C1667 C1675 1.433 . S
C1668 H1664 0.929 . S
C1668 C1670 1.378 . S
C1668 C1672 1.350 . S
C1669 C1672 1.463 . S
C1669 C1674 1.350 . S
C1669 N1677 1.427 . S
C1670 H1661 0.930 . S
C1670 C1668 1.378 . S
C1670 C1671 1.367 . S
C1671 C1670 1.367 . S
C1671 C1673 1.433 . S
C1672 C1668 1.350 . S
C1672 C1669 1.463 . S
C1672 N1676 1.427 . S
C1673 H1663 0.929 . S
C1673 C1671 1.433 . S
C1673 N1676 1.384 . S
C1674 H1665 0.929 . S
C1674 C1666 1.378 . S
C1674 C1669 1.350 . S
C1675 H1662 0.929 . S
C1675 C1667 1.433 . S
C1675 N1677 1.384 . S
N1676 C1672 1.427 . S
N1676 C1673 1.384 . S
N1677 C1669 1.427 . S
N1677 C1675 1.384 . S
H1678 C1684 0.930 . S
H1679 C1688 0.930 . S
H1680 C1693 0.929 . S
H1681 C1691 0.929 . S
H1682 C1686 0.929 . S
H1683 C1692 0.929 . S
C1684 H1678 0.930 . S
C1684 C1685 1.367 . S
C1684 C1692 1.378 . S
C1685 C1684 1.367 . S
C1685 C1693 1.433 . S
C1686 H1682 0.929 . S
C1686 C1688 1.378 . S
C1686 C1690 1.350 . S
C1687 C1690 1.463 . S
C1687 C1692 1.350 . S
C1687 N1695 1.427 . S
C1688 H1679 0.930 . S
C1688 C1686 1.378 . S
C1688 C1689 1.367 . S
C1689 C1688 1.367 . S
C1689 C1691 1.433 . S
C1690 C1686 1.350 . S
C1690 C1687 1.463 . S
C1690 N1694 1.427 . S
C1691 H1681 0.929 . S
C1691 C1689 1.433 . S
C1691 N1694 1.384 . S
C1692 H1683 0.929 . S
C1692 C1684 1.378 . S
C1692 C1687 1.350 . S
C1693 H1680 0.929 . S
C1693 C1685 1.433 . S
C1693 N1695 1.384 . S
N1694 C1690 1.427 . S
N1694 C1691 1.384 . S
N1695 C1687 1.427 . S
N1695 C1693 1.384 . S
H1696 C1702 0.930 . S
H1697 C1706 0.930 . S
H1698 C1711 0.929 . S
H1699 C1709 0.929 . S
H1700 C1704 0.929 . S
H1701 C1710 0.929 . S
C1702 H1696 0.930 . S
C1702 C1703 1.367 . S
C1702 C1710 1.378 . S
C1703 C1702 1.367 . S
C1703 C1711 1.433 . S
C1704 H1700 0.929 . S
C1704 C1706 1.378 . S
C1704 C1708 1.350 . S
C1705 C1708 1.463 . S
C1705 C1710 1.350 . S
C1705 N1713 1.427 . S
C1706 H1697 0.930 . S
C1706 C1704 1.378 . S
C1706 C1707 1.367 . S
C1707 C1706 1.367 . S
C1707 C1709 1.433 . S
C1708 C1704 1.350 . S
C1708 C1705 1.463 . S
C1708 N1712 1.427 . S
C1709 H1699 0.929 . S
C1709 C1707 1.433 . S
C1709 N1712 1.384 . S
C1710 H1701 0.929 . S
C1710 C1702 1.378 . S
C1710 C1705 1.350 . S
C1711 H1698 0.929 . S
C1711 C1703 1.433 . S
C1711 N1713 1.384 . S
N1712 C1708 1.427 . S
N1712 C1709 1.384 . S
N1713 C1705 1.427 . S
N1713 C1711 1.384 . S
H1714 C1720 0.930 . S
H1715 C1724 0.930 . S
H1716 C1729 0.929 . S
H1717 C1727 0.929 . S
H1718 C1722 0.929 . S
H1719 C1728 0.929 . S
C1720 H1714 0.930 . S
C1720 C1721 1.367 . S
C1720 C1728 1.378 . S
C1721 C1720 1.367 . S
C1721 C1729 1.433 . S
C1722 H1718 0.929 . S
C1722 C1724 1.378 . S
C1722 C1726 1.350 . S
C1723 C1726 1.463 . S
C1723 C1728 1.350 . S
C1723 N1731 1.427 . S
C1724 H1715 0.930 . S
C1724 C1722 1.378 . S
C1724 C1725 1.367 . S
C1725 C1724 1.367 . S
C1725 C1727 1.433 . S
C1726 C1722 1.350 . S
C1726 C1723 1.463 . S
C1726 N1730 1.427 . S
C1727 H1717 0.929 . S
C1727 C1725 1.433 . S
C1727 N1730 1.384 . S
C1728 H1719 0.929 . S
C1728 C1720 1.378 . S
C1728 C1723 1.350 . S
C1729 H1716 0.929 . S
C1729 C1721 1.433 . S
C1729 N1731 1.384 . S
N1730 C1726 1.427 . S
N1730 C1727 1.384 . S
N1731 C1723 1.427 . S
N1731 C1729 1.384 . S
H1732 C1738 0.930 . S
H1733 C1742 0.930 . S
H1734 C1747 0.929 . S
H1735 C1745 0.929 . S
H1736 C1740 0.929 . S
H1737 C1746 0.929 . S
C1738 H1732 0.930 . S
C1738 C1739 1.367 . S
C1738 C1746 1.378 . S
C1739 C1738 1.367 . S
C1739 C1747 1.433 . S
C1740 H1736 0.929 . S
C1740 C1742 1.378 . S
C1740 C1744 1.350 . S
C1741 C1744 1.463 . S
C1741 C1746 1.350 . S
C1741 N1749 1.427 . S
C1742 H1733 0.930 . S
C1742 C1740 1.378 . S
C1742 C1743 1.367 . S
C1743 C1742 1.367 . S
C1743 C1745 1.433 . S
C1744 C1740 1.350 . S
C1744 C1741 1.463 . S
C1744 N1748 1.427 . S
C1745 H1735 0.929 . S
C1745 C1743 1.433 . S
C1745 N1748 1.384 . S
C1746 H1737 0.929 . S
C1746 C1738 1.378 . S
C1746 C1741 1.350 . S
C1747 H1734 0.929 . S
C1747 C1739 1.433 . S
C1747 N1749 1.384 . S
N1748 C1744 1.427 . S
N1748 C1745 1.384 . S
N1749 C1741 1.427 . S
N1749 C1747 1.384 . S
H1750 C1756 0.930 . S
H1751 C1760 0.930 . S
H1752 C1765 0.929 . S
H1753 C1763 0.929 . S
H1754 C1758 0.929 . S
H1755 C1764 0.929 . S
C1756 H1750 0.930 . S
C1756 C1757 1.367 . S
C1756 C1764 1.378 . S
C1757 C1756 1.367 . S
C1757 C1765 1.433 . S
C1758 H1754 0.929 . S
C1758 C1760 1.378 . S
C1758 C1762 1.350 . S
C1759 C1762 1.463 . S
C1759 C1764 1.350 . S
C1759 N1767 1.427 . S
C1760 H1751 0.930 . S
C1760 C1758 1.378 . S
C1760 C1761 1.367 . S
C1761 C1760 1.367 . S
C1761 C1763 1.433 . S
C1762 C1758 1.350 . S
C1762 C1759 1.463 . S
C1762 N1766 1.427 . S
C1763 H1753 0.929 . S
C1763 C1761 1.433 . S
C1763 N1766 1.384 . S
C1764 H1755 0.929 . S
C1764 C1756 1.378 . S
C1764 C1759 1.350 . S
C1765 H1752 0.929 . S
C1765 C1757 1.433 . S
C1765 N1767 1.384 . S
N1766 C1762 1.427 . S
N1766 C1763 1.384 . S
N1767 C1759 1.427 . S
N1767 C1765 1.384 . S
H1768 C1774 0.930 . S
H1769 C1778 0.930 . S
H1770 C1783 0.929 . S
H1771 C1781 0.929 . S
H1772 C1776 0.929 . S
H1773 C1782 0.929 . S
C1774 H1768 0.930 . S
C1774 C1775 1.367 . S
C1774 C1782 1.378 . S
C1775 C1774 1.367 . S
C1775 C1783 1.433 . S
C1776 H1772 0.929 . S
C1776 C1778 1.378 . S
C1776 C1780 1.350 . S
C1777 C1780 1.463 . S
C1777 C1782 1.350 . S
C1777 N1785 1.427 . S
C1778 H1769 0.930 . S
C1778 C1776 1.378 . S
C1778 C1779 1.367 . S
C1779 C1778 1.367 . S
C1779 C1781 1.433 . S
C1780 C1776 1.350 . S
C1780 C1777 1.463 . S
C1780 N1784 1.427 . S
C1781 H1771 0.929 . S
C1781 C1779 1.433 . S
C1781 N1784 1.384 . S
C1782 H1773 0.929 . S
C1782 C1774 1.378 . S
C1782 C1777 1.350 . S
C1783 H1770 0.929 . S
C1783 C1775 1.433 . S
C1783 N1785 1.384 . S
N1784 C1780 1.427 . S
N1784 C1781 1.384 . S
N1785 C1777 1.427 . S
N1785 C1783 1.384 . S
H1786 C1792 0.930 . S
H1787 C1796 0.930 . S
H1788 C1801 0.929 . S
H1789 C1799 0.929 . S
H1790 C1794 0.929 . S
H1791 C1800 0.929 . S
C1792 H1786 0.930 . S
C1792 C1793 1.367 . S
C1792 C1800 1.378 . S
C1793 C1792 1.367 . S
C1793 C1801 1.433 . S
C1794 H1790 0.929 . S
C1794 C1796 1.378 . S
C1794 C1798 1.350 . S
C1795 C1798 1.463 . S
C1795 C1800 1.350 . S
C1795 N1803 1.427 . S
C1796 H1787 0.930 . S
C1796 C1794 1.378 . S
C1796 C1797 1.367 . S
C1797 C1796 1.367 . S
C1797 C1799 1.433 . S
C1798 C1794 1.350 . S
C1798 C1795 1.463 . S
C1798 N1802 1.427 . S
C1799 H1789 0.929 . S
C1799 C1797 1.433 . S
C1799 N1802 1.384 . S
C1800 H1791 0.929 . S
C1800 C1792 1.378 . S
C1800 C1795 1.350 . S
C1801 H1788 0.929 . S
C1801 C1793 1.433 . S
C1801 N1803 1.384 . S
N1802 C1798 1.427 . S
N1802 C1799 1.384 . S
N1803 C1795 1.427 . S
N1803 C1801 1.384 . S
H1804 C1810 0.930 . S
H1805 C1814 0.930 . S
H1806 C1819 0.929 . S
H1807 C1817 0.929 . S
H1808 C1812 0.929 . S
H1809 C1818 0.929 . S
C1810 H1804 0.930 . S
C1810 C1811 1.367 . S
C1810 C1818 1.378 . S
C1811 C1810 1.367 . S
C1811 C1819 1.433 . S
C1812 H1808 0.929 . S
C1812 C1814 1.378 . S
C1812 C1816 1.350 . S
C1813 C1816 1.463 . S
C1813 C1818 1.350 . S
C1813 N1821 1.427 . S
C1814 H1805 0.930 . S
C1814 C1812 1.378 . S
C1814 C1815 1.367 . S
C1815 C1814 1.367 . S
C1815 C1817 1.433 . S
C1816 C1812 1.350 . S
C1816 C1813 1.463 . S
C1816 N1820 1.427 . S
C1817 H1807 0.929 . S
C1817 C1815 1.433 . S
C1817 N1820 1.384 . S
C1818 H1809 0.929 . S
C1818 C1810 1.378 . S
C1818 C1813 1.350 . S
C1819 H1806 0.929 . S
C1819 C1811 1.433 . S
C1819 N1821 1.384 . S
N1820 C1816 1.427 . S
N1820 C1817 1.384 . S
N1821 C1813 1.427 . S
N1821 C1819 1.384 . S
H1822 C1828 0.930 . S
H1823 C1832 0.930 . S
H1824 C1837 0.929 . S
H1825 C1835 0.929 . S
H1826 C1830 0.929 . S
H1827 C1836 0.929 . S
C1828 H1822 0.930 . S
C1828 C1829 1.367 . S
C1828 C1836 1.378 . S
C1829 C1828 1.367 . S
C1829 C1837 1.433 . S
C1830 H1826 0.929 . S
C1830 C1832 1.378 . S
C1830 C1834 1.350 . S
C1831 C1834 1.463 . S
C1831 C1836 1.350 . S
C1831 N1839 1.427 . S
C1832 H1823 0.930 . S
C1832 C1830 1.378 . S
C1832 C1833 1.367 . S
C1833 C1832 1.367 . S
C1833 C1835 1.433 . S
C1834 C1830 1.350 . S
C1834 C1831 1.463 . S
C1834 N1838 1.427 . S
C1835 H1825 0.929 . S
C1835 C1833 1.433 . S
C1835 N1838 1.384 . S
C1836 H1827 0.929 . S
C1836 C1828 1.378 . S
C1836 C1831 1.350 . S
C1837 H1824 0.929 . S
C1837 C1829 1.433 . S
C1837 N1839 1.384 . S
N1838 C1834 1.427 . S
N1838 C1835 1.384 . S
N1839 C1831 1.427 . S
N1839 C1837 1.384 . S
H1840 C1846 0.930 . S
H1841 C1850 0.930 . S
H1842 C1855 0.929 . S
H1843 C1853 0.929 . S
H1844 C1848 0.929 . S
H1845 C1854 0.929 . S
C1846 H1840 0.930 . S
C1846 C1847 1.367 . S
C1846 C1854 1.378 . S
C1847 C1846 1.367 . S
C1847 C1855 1.433 . S
C1848 H1844 0.929 . S
C1848 C1850 1.378 . S
C1848 C1852 1.350 . S
C1849 C1852 1.463 . S
C1849 C1854 1.350 . S
C1849 N1857 1.427 . S
C1850 H1841 0.930 . S
C1850 C1848 1.378 . S
C1850 C1851 1.367 . S
C1851 C1850 1.367 . S
C1851 C1853 1.433 . S
C1852 C1848 1.350 . S
C1852 C1849 1.463 . S
C1852 N1856 1.427 . S
C1853 H1843 0.929 . S
C1853 C1851 1.433 . S
C1853 N1856 1.384 . S
C1854 H1845 0.929 . S
C1854 C1846 1.378 . S
C1854 C1849 1.350 . S
C1855 H1842 0.929 . S
C1855 C1847 1.433 . S
C1855 N1857 1.384 . S
N1856 C1852 1.427 . S
N1856 C1853 1.384 . S
N1857 C1849 1.427 . S
N1857 C1855 1.384 . S
H1858 C1864 0.930 . S
H1859 C1868 0.930 . S
H1860 C1873 0.929 . S
H1861 C1871 0.929 . S
H1862 C1866 0.929 . S
H1863 C1872 0.929 . S
C1864 H1858 0.930 . S
C1864 C1865 1.367 . S
C1864 C1872 1.378 . S
C1865 C1864 1.367 . S
C1865 C1873 1.433 . S
C1866 H1862 0.929 . S
C1866 C1868 1.378 . S
C1866 C1870 1.350 . S
C1867 C1870 1.463 . S
C1867 C1872 1.350 . S
C1867 N1875 1.427 . S
C1868 H1859 0.930 . S
C1868 C1866 1.378 . S
C1868 C1869 1.367 . S
C1869 C1868 1.367 . S
C1869 C1871 1.433 . S
C1870 C1866 1.350 . S
C1870 C1867 1.463 . S
C1870 N1874 1.427 . S
C1871 H1861 0.929 . S
C1871 C1869 1.433 . S
C1871 N1874 1.384 . S
C1872 H1863 0.929 . S
C1872 C1864 1.378 . S
C1872 C1867 1.350 . S
C1873 H1860 0.929 . S
C1873 C1865 1.433 . S
C1873 N1875 1.384 . S
N1874 C1870 1.427 . S
N1874 C1871 1.384 . S
N1875 C1867 1.427 . S
N1875 C1873 1.384 . S
H1876 C1882 0.930 . S
H1877 C1886 0.930 . S
H1878 C1891 0.929 . S
H1879 C1889 0.929 . S
H1880 C1884 0.929 . S
H1881 C1890 0.929 . S
C1882 H1876 0.930 . S
C1882 C1883 1.367 . S
C1882 C1890 1.378 . S
C1883 C1882 1.367 . S
C1883 C1891 1.433 . S
C1884 H1880 0.929 . S
C1884 C1886 1.378 . S
C1884 C1888 1.350 . S
C1885 C1888 1.463 . S
C1885 C1890 1.350 . S
C1885 N1893 1.427 . S
C1886 H1877 0.930 . S
C1886 C1884 1.378 . S
C1886 C1887 1.367 . S
C1887 C1886 1.367 . S
C1887 C1889 1.433 . S
C1888 C1884 1.350 . S
C1888 C1885 1.463 . S
C1888 N1892 1.427 . S
C1889 H1879 0.929 . S
C1889 C1887 1.433 . S
C1889 N1892 1.384 . S
C1890 H1881 0.929 . S
C1890 C1882 1.378 . S
C1890 C1885 1.350 . S
C1891 H1878 0.929 . S
C1891 C1883 1.433 . S
C1891 N1893 1.384 . S
N1892 C1888 1.427 . S
N1892 C1889 1.384 . S
N1893 C1885 1.427 . S
N1893 C1891 1.384 . S
H1894 C1900 0.930 . S
H1895 C1904 0.930 . S
H1896 C1909 0.929 . S
H1897 C1907 0.929 . S
H1898 C1902 0.929 . S
H1899 C1908 0.929 . S
C1900 H1894 0.930 . S
C1900 C1901 1.367 . S
C1900 C1908 1.378 . S
C1901 C1900 1.367 . S
C1901 C1909 1.433 . S
C1902 H1898 0.929 . S
C1902 C1904 1.378 . S
C1902 C1906 1.350 . S
C1903 C1906 1.463 . S
C1903 C1908 1.350 . S
C1903 N1911 1.427 . S
C1904 H1895 0.930 . S
C1904 C1902 1.378 . S
C1904 C1905 1.367 . S
C1905 C1904 1.367 . S
C1905 C1907 1.433 . S
C1906 C1902 1.350 . S
C1906 C1903 1.463 . S
C1906 N1910 1.427 . S
C1907 H1897 0.929 . S
C1907 C1905 1.433 . S
C1907 N1910 1.384 . S
C1908 H1899 0.929 . S
C1908 C1900 1.378 . S
C1908 C1903 1.350 . S
C1909 H1896 0.929 . S
C1909 C1901 1.433 . S
C1909 N1911 1.384 . S
N1910 C1906 1.427 . S
N1910 C1907 1.384 . S
N1911 C1903 1.427 . S
N1911 C1909 1.384 . S
H1912 C1918 0.930 . S
H1913 C1922 0.930 . S
H1914 C1927 0.929 . S
H1915 C1925 0.929 . S
H1916 C1920 0.929 . S
H1917 C1926 0.929 . S
C1918 H1912 0.930 . S
C1918 C1919 1.367 . S
C1918 C1926 1.378 . S
C1919 C1918 1.367 . S
C1919 C1927 1.433 . S
C1920 H1916 0.929 . S
C1920 C1922 1.378 . S
C1920 C1924 1.350 . S
C1921 C1924 1.463 . S
C1921 C1926 1.350 . S
C1921 N1929 1.427 . S
C1922 H1913 0.930 . S
C1922 C1920 1.378 . S
C1922 C1923 1.367 . S
C1923 C1922 1.367 . S
C1923 C1925 1.433 . S
C1924 C1920 1.350 . S
C1924 C1921 1.463 . S
C1924 N1928 1.427 . S
C1925 H1915 0.929 . S
C1925 C1923 1.433 . S
C1925 N1928 1.384 . S
C1926 H1917 0.929 . S
C1926 C1918 1.378 . S
C1926 C1921 1.350 . S
C1927 H1914 0.929 . S
C1927 C1919 1.433 . S
C1927 N1929 1.384 . S
N1928 C1924 1.427 . S
N1928 C1925 1.384 . S
N1929 C1921 1.427 . S
N1929 C1927 1.384 . S
H1930 C1936 0.951 . S
H1931 C1940 0.930 . S
H1932 C1945 0.929 . S
H1933 C1943 0.929 . S
H1934 C1938 0.929 . S
H1935 C1944 0.929 . S
C1936 H1930 0.951 . S
C1936 C1937 1.367 . S
C1936 C1944 1.378 . S
C1937 C1936 1.367 . S
C1937 C1945 1.433 . S
C1938 H1934 0.929 . S
C1938 C1940 1.378 . S
C1938 C1942 1.350 . S
C1939 C1942 1.463 . S
C1939 C1944 1.350 . S
C1939 N1947 1.427 . S
C1940 H1931 0.930 . S
C1940 C1938 1.378 . S
C1940 C1941 1.367 . S
C1941 C1940 1.367 . S
C1941 C1943 1.433 . S
C1942 C1938 1.350 . S
C1942 C1939 1.463 . S
C1942 N1946 1.427 . S
C1943 H1933 0.929 . S
C1943 C1941 1.433 . S
C1943 N1946 1.384 . S
C1944 H1935 0.929 . S
C1944 C1936 1.378 . S
C1944 C1939 1.350 . S
C1945 H1932 0.929 . S
C1945 C1937 1.433 . S
C1945 N1947 1.384 . S
N1946 C1942 1.427 . S
N1946 C1943 1.384 . S
N1947 C1939 1.427 . S
N1947 C1945 1.384 . S
H1948 C1954 0.930 . S
H1949 C1958 0.930 . S
H1950 C1963 0.929 . S
H1951 C1961 0.929 . S
H1952 C1956 0.929 . S
H1953 C1962 0.929 . S
C1954 H1948 0.930 . S
C1954 C1955 1.367 . S
C1954 C1962 1.378 . S
C1955 C1954 1.367 . S
C1955 C1963 1.433 . S
C1956 H1952 0.929 . S
C1956 C1958 1.378 . S
C1956 C1960 1.350 . S
C1957 C1960 1.463 . S
C1957 C1962 1.350 . S
C1957 N1965 1.427 . S
C1958 H1949 0.930 . S
C1958 C1956 1.378 . S
C1958 C1959 1.367 . S
C1959 C1958 1.367 . S
C1959 C1961 1.433 . S
C1960 C1956 1.350 . S
C1960 C1957 1.463 . S
C1960 N1964 1.427 . S
C1961 H1951 0.929 . S
C1961 C1959 1.433 . S
C1961 N1964 1.384 . S
C1962 H1953 0.929 . S
C1962 C1954 1.378 . S
C1962 C1957 1.350 . S
C1963 H1950 0.929 . S
C1963 C1955 1.433 . S
C1963 N1965 1.384 . S
N1964 C1960 1.427 . S
N1964 C1961 1.384 . S
N1965 C1957 1.427 . S
N1965 C1963 1.384 . S
H1966 C1972 0.930 . S
H1967 C1976 0.930 . S
H1968 C1981 0.929 . S
H1969 C1979 0.929 . S
H1970 C1974 0.929 . S
H1971 C1980 0.929 . S
C1972 H1966 0.930 . S
C1972 C1973 1.367 . S
C1972 C1980 1.378 . S
C1973 C1972 1.367 . S
C1973 C1981 1.433 . S
C1974 H1970 0.929 . S
C1974 C1976 1.378 . S
C1974 C1978 1.350 . S
C1975 C1978 1.462 1_655 S
C1975 C1980 1.350 . S
C1975 N1983 1.427 . S
C1976 H1967 0.930 . S
C1976 C1974 1.378 . S
C1976 C1977 1.367 . S
C1977 C1976 1.367 . S
C1977 C1979 1.433 . S
C1978 C1974 1.350 . S
C1978 C1975 1.462 1_455 S
C1978 N1982 1.428 . S
C1979 H1969 0.929 . S
C1979 C1977 1.433 . S
C1979 N1982 1.384 . S
C1980 H1971 0.929 . S
C1980 C1972 1.378 . S
C1980 C1975 1.350 . S
C1981 H1968 0.929 . S
C1981 C1973 1.433 . S
C1981 N1983 1.384 . S
N1982 C1978 1.428 . S
N1982 C1979 1.384 . S
N1983 C1975 1.427 . S
N1983 C1981 1.384 . S
H1984 C1990 0.930 . S
H1985 C1994 0.930 . S
H1986 C1999 0.929 . S
H1987 C1997 0.929 . S
H1988 C1992 0.929 . S
H1989 C1998 0.929 . S
C1990 H1984 0.930 . S
C1990 C1991 1.367 . S
C1990 C1998 1.378 . S
C1991 C1990 1.367 . S
C1991 C1999 1.433 . S
C1992 H1988 0.929 . S
C1992 C1994 1.378 . S
C1992 C1996 1.350 . S
C1993 C1996 1.463 . S
C1993 C1998 1.350 . S
C1993 N2001 1.427 . S
C1994 H1985 0.930 . S
C1994 C1992 1.378 . S
C1994 C1995 1.367 . S
C1995 C1994 1.367 . S
C1995 C1997 1.433 . S
C1996 C1992 1.350 . S
C1996 C1993 1.463 . S
C1996 N2000 1.427 . S
C1997 H1987 0.929 . S
C1997 C1995 1.433 . S
C1997 N2000 1.384 . S
C1998 H1989 0.929 . S
C1998 C1990 1.378 . S
C1998 C1993 1.350 . S
C1999 H1986 0.929 . S
C1999 C1991 1.433 . S
C1999 N2001 1.384 . S
N2000 C1996 1.427 . S
N2000 C1997 1.384 . S
N2001 C1993 1.427 . S
N2001 C1999 1.384 . S
H2002 C2008 0.930 . S
H2003 C2012 0.930 . S
H2004 C2017 0.929 . S
H2005 C2015 0.929 . S
H2006 C2010 0.929 . S
H2007 C2016 0.929 . S
C2008 H2002 0.930 . S
C2008 C2009 1.367 . S
C2008 C2016 1.378 . S
C2009 C2008 1.367 . S
C2009 C2017 1.433 . S
C2010 H2006 0.929 . S
C2010 C2012 1.378 . S
C2010 C2014 1.350 . S
C2011 C2014 1.463 1_556 S
C2011 C2016 1.350 . S
C2011 N2019 1.427 . S
C2012 H2003 0.930 . S
C2012 C2010 1.378 . S
C2012 C2013 1.367 . S
C2013 C2012 1.367 . S
C2013 C2015 1.433 . S
C2014 C2010 1.350 . S
C2014 C2011 1.463 1_554 S
C2014 N2018 1.427 . S
C2015 H2005 0.929 . S
C2015 C2013 1.433 . S
C2015 N2018 1.384 . S
C2016 H2007 0.929 . S
C2016 C2008 1.378 . S
C2016 C2011 1.350 . S
C2017 H2004 0.929 . S
C2017 C2009 1.433 . S
C2017 N2019 1.384 . S
N2018 C2014 1.427 . S
N2018 C2015 1.384 . S
N2019 C2011 1.427 . S
N2019 C2017 1.384 . S
H2020 C2026 0.930 . S
H2021 C2030 0.930 . S
H2022 C2035 0.929 . S
H2023 C2033 0.929 . S
H2024 C2028 0.929 . S
H2025 C2034 0.929 . S
C2026 H2020 0.930 . S
C2026 C2027 1.367 . S
C2026 C2034 1.378 . S
C2027 C2026 1.367 . S
C2027 C2035 1.433 . S
C2028 H2024 0.929 . S
C2028 C2030 1.378 . S
C2028 C2032 1.350 . S
C2029 C2032 1.463 . S
C2029 C2034 1.350 . S
C2029 N2037 1.427 . S
C2030 H2021 0.930 . S
C2030 C2028 1.378 . S
C2030 C2031 1.367 . S
C2031 C2030 1.367 . S
C2031 C2033 1.433 . S
C2032 C2028 1.350 . S
C2032 C2029 1.463 . S
C2032 N2036 1.427 . S
C2033 H2023 0.929 . S
C2033 C2031 1.433 . S
C2033 N2036 1.384 . S
C2034 H2025 0.929 . S
C2034 C2026 1.378 . S
C2034 C2029 1.350 . S
C2035 H2022 0.929 . S
C2035 C2027 1.433 . S
C2035 N2037 1.384 . S
N2036 C2032 1.427 . S
N2036 C2033 1.384 . S
N2037 C2029 1.427 . S
N2037 C2035 1.384 . S
H2038 C2044 0.930 . S
H2039 C2048 0.930 . S
H2040 C2053 0.929 . S
H2041 C2051 0.929 . S
H2042 C2046 0.929 . S
H2043 C2052 0.929 . S
C2044 H2038 0.930 . S
C2044 C2045 1.367 . S
C2044 C2052 1.378 . S
C2045 C2044 1.367 . S
C2045 C2053 1.433 . S
C2046 H2042 0.929 . S
C2046 C2048 1.378 . S
C2046 C2050 1.350 . S
C2047 C2050 1.463 . S
C2047 C2052 1.350 . S
C2047 N2055 1.427 . S
C2048 H2039 0.930 . S
C2048 C2046 1.378 . S
C2048 C2049 1.367 . S
C2049 C2048 1.367 . S
C2049 C2051 1.433 . S
C2050 C2046 1.350 . S
C2050 C2047 1.463 . S
C2050 N2054 1.427 . S
C2051 H2041 0.929 . S
C2051 C2049 1.433 . S
C2051 N2054 1.384 . S
C2052 H2043 0.929 . S
C2052 C2044 1.378 . S
C2052 C2047 1.350 . S
C2053 H2040 0.929 . S
C2053 C2045 1.433 . S
C2053 N2055 1.384 . S
N2054 C2050 1.427 . S
N2054 C2051 1.384 . S
N2055 C2047 1.427 . S
N2055 C2053 1.384 . S
H2056 C2062 0.930 . S
H2057 C2066 0.930 . S
H2058 C2071 0.929 . S
H2059 C2069 0.929 . S
H2060 C2064 0.929 . S
H2061 C2070 0.929 . S
C2062 H2056 0.930 . S
C2062 C2063 1.367 . S
C2062 C2070 1.378 . S
C2063 C2062 1.367 . S
C2063 C2071 1.433 . S
C2064 H2060 0.929 . S
C2064 C2066 1.378 . S
C2064 C2068 1.350 . S
C2065 C2068 1.463 . S
C2065 C2070 1.350 . S
C2065 N2073 1.427 . S
C2066 H2057 0.930 . S
C2066 C2064 1.378 . S
C2066 C2067 1.367 . S
C2067 C2066 1.367 . S
C2067 C2069 1.433 . S
C2068 C2064 1.350 . S
C2068 C2065 1.463 . S
C2068 N2072 1.427 . S
C2069 H2059 0.929 . S
C2069 C2067 1.433 . S
C2069 N2072 1.384 . S
C2070 H2061 0.929 . S
C2070 C2062 1.378 . S
C2070 C2065 1.350 . S
C2071 H2058 0.929 . S
C2071 C2063 1.433 . S
C2071 N2073 1.384 . S
N2072 C2068 1.427 . S
N2072 C2069 1.384 . S
N2073 C2065 1.427 . S
N2073 C2071 1.384 . S
H2074 C2080 0.930 . S
H2075 C2084 0.930 . S
H2076 C2089 0.929 . S
H2077 C2087 0.929 . S
H2078 C2082 0.929 1_554 S
H2079 C2088 0.929 . S
C2080 H2074 0.930 . S
C2080 C2081 1.367 . S
C2080 C2088 1.378 . S
C2081 C2080 1.367 . S
C2081 C2089 1.433 . S
C2082 H2078 0.929 1_556 S
C2082 C2084 1.378 . S
C2082 C2086 1.350 1_556 S
C2083 C2086 1.463 . S
C2083 C2088 1.350 . S
C2083 N2091 1.427 . S
C2084 H2075 0.930 . S
C2084 C2082 1.378 . S
C2084 C2085 1.367 . S
C2085 C2084 1.367 . S
C2085 C2087 1.433 . S
C2086 C2082 1.350 1_554 S
C2086 C2083 1.463 . S
C2086 N2090 1.427 1_554 S
C2087 H2077 0.929 . S
C2087 C2085 1.433 . S
C2087 N2090 1.384 . S
C2088 H2079 0.929 . S
C2088 C2080 1.378 . S
C2088 C2083 1.350 . S
C2089 H2076 0.929 . S
C2089 C2081 1.433 . S
C2089 N2091 1.384 . S
N2090 C2086 1.427 1_556 S
N2090 C2087 1.384 . S
N2091 C2083 1.427 . S
N2091 C2089 1.384 . S
H2092 C2098 0.930 . S
H2093 C2102 0.930 . S
H2094 C2107 0.929 . S
H2095 C2105 0.929 . S
H2096 C2100 0.929 . S
H2097 C2106 0.929 . S
C2098 H2092 0.930 . S
C2098 C2099 1.367 . S
C2098 C2106 1.378 . S
C2099 C2098 1.367 . S
C2099 C2107 1.433 . S
C2100 H2096 0.929 . S
C2100 C2102 1.378 . S
C2100 C2104 1.350 . S
C2101 C2104 1.463 . S
C2101 C2106 1.350 . S
C2101 N2109 1.427 . S
C2102 H2093 0.930 . S
C2102 C2100 1.378 . S
C2102 C2103 1.367 . S
C2103 C2102 1.367 . S
C2103 C2105 1.433 . S
C2104 C2100 1.350 . S
C2104 C2101 1.463 . S
C2104 N2108 1.427 . S
C2105 H2095 0.929 . S
C2105 C2103 1.433 . S
C2105 N2108 1.384 . S
C2106 H2097 0.929 . S
C2106 C2098 1.378 . S
C2106 C2101 1.350 . S
C2107 H2094 0.929 . S
C2107 C2099 1.433 . S
C2107 N2109 1.384 . S
N2108 C2104 1.427 . S
N2108 C2105 1.384 . S
N2109 C2101 1.427 . S
N2109 C2107 1.384 . S
H2110 C2116 0.930 . S
H2111 C2120 0.930 . S
H2112 C2125 0.929 . S
H2113 C2123 0.929 . S
H2114 C2118 0.929 . S
H2115 C2124 0.929 . S
C2116 H2110 0.930 . S
C2116 C2117 1.367 . S
C2116 C2124 1.378 . S
C2117 C2116 1.367 . S
C2117 C2125 1.433 . S
C2118 H2114 0.929 . S
C2118 C2120 1.378 . S
C2118 C2122 1.350 . S
C2119 C2122 1.463 . S
C2119 C2124 1.350 . S
C2119 N2127 1.427 . S
C2120 H2111 0.930 . S
C2120 C2118 1.378 . S
C2120 C2121 1.367 . S
C2121 C2120 1.367 . S
C2121 C2123 1.433 . S
C2122 C2118 1.350 . S
C2122 C2119 1.463 . S
C2122 N2126 1.427 . S
C2123 H2113 0.929 . S
C2123 C2121 1.433 . S
C2123 N2126 1.384 . S
C2124 H2115 0.929 . S
C2124 C2116 1.378 . S
C2124 C2119 1.350 . S
C2125 H2112 0.929 . S
C2125 C2117 1.433 . S
C2125 N2127 1.384 . S
N2126 C2122 1.427 . S
N2126 C2123 1.384 . S
N2127 C2119 1.427 . S
N2127 C2125 1.384 . S
H2128 C2134 0.930 . S
H2129 C2138 0.930 . S
H2130 C2143 0.929 . S
H2131 C2141 0.929 . S
H2132 C2136 0.929 . S
H2133 C2142 0.929 . S
C2134 H2128 0.930 . S
C2134 C2135 1.367 . S
C2134 C2142 1.378 . S
C2135 C2134 1.367 . S
C2135 C2143 1.433 . S
C2136 H2132 0.929 . S
C2136 C2138 1.378 . S
C2136 C2140 1.350 . S
C2137 C2140 1.463 . S
C2137 C2142 1.350 . S
C2137 N2145 1.427 . S
C2138 H2129 0.930 . S
C2138 C2136 1.378 . S
C2138 C2139 1.367 . S
C2139 C2138 1.367 . S
C2139 C2141 1.433 . S
C2140 C2136 1.350 . S
C2140 C2137 1.463 . S
C2140 N2144 1.427 . S
C2141 H2131 0.929 . S
C2141 C2139 1.433 . S
C2141 N2144 1.384 . S
C2142 H2133 0.929 . S
C2142 C2134 1.378 . S
C2142 C2137 1.350 . S
C2143 H2130 0.929 . S
C2143 C2135 1.433 . S
C2143 N2145 1.384 . S
N2144 C2140 1.427 . S
N2144 C2141 1.384 . S
N2145 C2137 1.427 . S
N2145 C2143 1.384 . S
H2146 C2152 0.930 . S
H2147 C2156 0.930 . S
H2148 C2161 0.929 . S
H2149 C2159 0.929 . S
H2150 C2154 0.929 . S
H2151 C2160 0.929 . S
C2152 H2146 0.930 . S
C2152 C2153 1.367 . S
C2152 C2160 1.378 . S
C2153 C2152 1.367 . S
C2153 C2161 1.433 . S
C2154 H2150 0.929 . S
C2154 C2156 1.378 . S
C2154 C2158 1.350 . S
C2155 C2158 1.463 . S
C2155 C2160 1.350 . S
C2155 N2163 1.427 . S
C2156 H2147 0.930 . S
C2156 C2154 1.378 . S
C2156 C2157 1.367 . S
C2157 C2156 1.367 . S
C2157 C2159 1.433 . S
C2158 C2154 1.350 . S
C2158 C2155 1.463 . S
C2158 N2162 1.427 . S
C2159 H2149 0.929 . S
C2159 C2157 1.433 . S
C2159 N2162 1.384 . S
C2160 H2151 0.929 . S
C2160 C2152 1.378 . S
C2160 C2155 1.350 . S
C2161 H2148 0.929 . S
C2161 C2153 1.433 . S
C2161 N2163 1.384 . S
N2162 C2158 1.427 . S
N2162 C2159 1.384 . S
N2163 C2155 1.427 . S
N2163 C2161 1.384 . S
H2164 C2170 0.930 . S
H2165 C2174 0.930 . S
H2166 C2179 0.929 . S
H2167 C2177 0.929 . S
H2168 C2172 0.929 . S
H2169 C2178 0.929 . S
C2170 H2164 0.930 . S
C2170 C2171 1.367 . S
C2170 C2178 1.378 . S
C2171 C2170 1.367 . S
C2171 C2179 1.433 . S
C2172 H2168 0.929 . S
C2172 C2174 1.378 . S
C2172 C2176 1.350 . S
C2173 C2176 1.463 . S
C2173 C2178 1.350 . S
C2173 N2181 1.427 . S
C2174 H2165 0.930 . S
C2174 C2172 1.378 . S
C2174 C2175 1.367 . S
C2175 C2174 1.367 . S
C2175 C2177 1.433 . S
C2176 C2172 1.350 . S
C2176 C2173 1.463 . S
C2176 N2180 1.427 . S
C2177 H2167 0.929 . S
C2177 C2175 1.433 . S
C2177 N2180 1.384 . S
C2178 H2169 0.929 . S
C2178 C2170 1.378 . S
C2178 C2173 1.350 . S
C2179 H2166 0.929 . S
C2179 C2171 1.433 . S
C2179 N2181 1.384 . S
N2180 C2176 1.427 . S
N2180 C2177 1.384 . S
N2181 C2173 1.427 . S
N2181 C2179 1.384 . S
H2182 C2188 0.930 . S
H2183 C2192 0.930 . S
H2184 C2197 0.929 . S
H2185 C2195 0.929 . S
H2186 C2190 0.929 . S
H2187 C2196 0.929 . S
C2188 H2182 0.930 . S
C2188 C2189 1.367 . S
C2188 C2196 1.378 . S
C2189 C2188 1.367 . S
C2189 C2197 1.433 . S
C2190 H2186 0.929 . S
C2190 C2192 1.378 . S
C2190 C2194 1.350 . S
C2191 C2194 1.463 . S
C2191 C2196 1.350 . S
C2191 N2199 1.427 . S
C2192 H2183 0.930 . S
C2192 C2190 1.378 . S
C2192 C2193 1.367 . S
C2193 C2192 1.367 . S
C2193 C2195 1.433 . S
C2194 C2190 1.350 . S
C2194 C2191 1.463 . S
C2194 N2198 1.427 . S
C2195 H2185 0.929 . S
C2195 C2193 1.433 . S
C2195 N2198 1.384 . S
C2196 H2187 0.929 . S
C2196 C2188 1.378 . S
C2196 C2191 1.350 . S
C2197 H2184 0.929 . S
C2197 C2189 1.433 . S
C2197 N2199 1.384 . S
N2198 C2194 1.427 . S
N2198 C2195 1.384 . S
N2199 C2191 1.427 . S
N2199 C2197 1.384 . S
H2200 C2206 0.930 . S
H2201 C2210 0.930 . S
H2202 C2215 0.929 . S
H2203 C2213 0.929 . S
H2204 C2208 0.929 . S
H2205 C2214 0.929 . S
C2206 H2200 0.930 . S
C2206 C2207 1.367 . S
C2206 C2214 1.378 . S
C2207 C2206 1.367 . S
C2207 C2215 1.433 . S
C2208 H2204 0.929 . S
C2208 C2210 1.378 . S
C2208 C2212 1.350 . S
C2209 C2212 1.463 . S
C2209 C2214 1.350 . S
C2209 N2217 1.427 . S
C2210 H2201 0.930 . S
C2210 C2208 1.378 . S
C2210 C2211 1.367 . S
C2211 C2210 1.367 . S
C2211 C2213 1.433 . S
C2212 C2208 1.350 . S
C2212 C2209 1.463 . S
C2212 N2216 1.427 . S
C2213 H2203 0.929 . S
C2213 C2211 1.433 . S
C2213 N2216 1.384 . S
C2214 H2205 0.929 . S
C2214 C2206 1.378 . S
C2214 C2209 1.350 . S
C2215 H2202 0.929 . S
C2215 C2207 1.433 . S
C2215 N2217 1.384 . S
N2216 C2212 1.427 . S
N2216 C2213 1.384 . S
N2217 C2209 1.427 . S
N2217 C2215 1.384 . S
H2218 C2224 0.930 . S
H2219 C2228 0.930 . S
H2220 C2233 0.929 . S
H2221 C2231 0.929 . S
H2222 C2226 0.929 . S
H2223 C2232 0.929 . S
C2224 H2218 0.930 . S
C2224 C2225 1.367 . S
C2224 C2232 1.378 . S
C2225 C2224 1.367 . S
C2225 C2233 1.433 . S
C2226 H2222 0.929 . S
C2226 C2228 1.378 . S
C2226 C2230 1.350 . S
C2227 C2230 1.463 . S
C2227 C2232 1.350 . S
C2227 N2235 1.427 . S
C2228 H2219 0.930 . S
C2228 C2226 1.378 . S
C2228 C2229 1.367 . S
C2229 C2228 1.367 . S
C2229 C2231 1.433 . S
C2230 C2226 1.350 . S
C2230 C2227 1.463 . S
C2230 N2234 1.427 . S
C2231 H2221 0.929 . S
C2231 C2229 1.433 . S
C2231 N2234 1.384 . S
C2232 H2223 0.929 . S
C2232 C2224 1.378 . S
C2232 C2227 1.350 . S
C2233 H2220 0.929 . S
C2233 C2225 1.433 . S
C2233 N2235 1.384 . S
N2234 C2230 1.427 . S
N2234 C2231 1.384 . S
N2235 C2227 1.427 . S
N2235 C2233 1.384 . S
H2236 C2242 0.930 . S
H2237 C2246 0.930 . S
H2238 C2251 0.929 . S
H2239 C2249 0.929 . S
H2240 C2244 0.929 . S
H2241 C2250 0.929 . S
C2242 H2236 0.930 . S
C2242 C2243 1.367 . S
C2242 C2250 1.378 . S
C2243 C2242 1.367 . S
C2243 C2251 1.433 . S
C2244 H2240 0.929 . S
C2244 C2246 1.378 . S
C2244 C2248 1.350 . S
C2245 C2248 1.463 . S
C2245 C2250 1.350 . S
C2245 N2253 1.427 . S
C2246 H2237 0.930 . S
C2246 C2244 1.378 . S
C2246 C2247 1.367 . S
C2247 C2246 1.367 . S
C2247 C2249 1.433 . S
C2248 C2244 1.350 . S
C2248 C2245 1.463 . S
C2248 N2252 1.427 . S
C2249 H2239 0.929 . S
C2249 C2247 1.433 . S
C2249 N2252 1.384 . S
C2250 H2241 0.929 . S
C2250 C2242 1.378 . S
C2250 C2245 1.350 . S
C2251 H2238 0.929 . S
C2251 C2243 1.433 . S
C2251 N2253 1.384 . S
N2252 C2248 1.427 . S
N2252 C2249 1.384 . S
N2253 C2245 1.427 . S
N2253 C2251 1.384 . S
H2254 C2260 0.930 . S
H2255 C2264 0.930 . S
H2256 C2269 0.929 . S
H2257 C2267 0.929 . S
H2258 C2262 0.929 . S
H2259 C2268 0.929 . S
C2260 H2254 0.930 . S
C2260 C2261 1.367 . S
C2260 C2268 1.378 . S
C2261 C2260 1.367 . S
C2261 C2269 1.433 . S
C2262 H2258 0.929 . S
C2262 C2264 1.378 . S
C2262 C2266 1.350 . S
C2263 C2266 1.463 . S
C2263 C2268 1.350 . S
C2263 N2271 1.427 . S
C2264 H2255 0.930 . S
C2264 C2262 1.378 . S
C2264 C2265 1.367 . S
C2265 C2264 1.367 . S
C2265 C2267 1.433 . S
C2266 C2262 1.350 . S
C2266 C2263 1.463 . S
C2266 N2270 1.427 . S
C2267 H2257 0.929 . S
C2267 C2265 1.433 . S
C2267 N2270 1.384 . S
C2268 H2259 0.929 . S
C2268 C2260 1.378 . S
C2268 C2263 1.350 . S
C2269 H2256 0.929 . S
C2269 C2261 1.433 . S
C2269 N2271 1.384 . S
N2270 C2266 1.427 . S
N2270 C2267 1.384 . S
N2271 C2263 1.427 . S
N2271 C2269 1.384 . S
H2272 C2278 0.930 . S
H2273 C2282 0.930 . S
H2274 C2287 0.929 . S
H2275 C2285 0.929 . S
H2276 C2280 0.929 . S
H2277 C2286 0.929 . S
C2278 H2272 0.930 . S
C2278 C2279 1.367 . S
C2278 C2286 1.378 . S
C2279 C2278 1.367 . S
C2279 C2287 1.433 . S
C2280 H2276 0.929 . S
C2280 C2282 1.378 . S
C2280 C2284 1.350 . S
C2281 C2284 1.463 . S
C2281 C2286 1.350 . S
C2281 N2289 1.427 . S
C2282 H2273 0.930 . S
C2282 C2280 1.378 . S
C2282 C2283 1.367 . S
C2283 C2282 1.367 . S
C2283 C2285 1.433 . S
C2284 C2280 1.350 . S
C2284 C2281 1.463 . S
C2284 N2288 1.427 . S
C2285 H2275 0.929 . S
C2285 C2283 1.433 . S
C2285 N2288 1.384 . S
C2286 H2277 0.929 . S
C2286 C2278 1.378 . S
C2286 C2281 1.350 . S
C2287 H2274 0.929 . S
C2287 C2279 1.433 . S
C2287 N2289 1.384 . S
N2288 C2284 1.427 . S
N2288 C2285 1.384 . S
N2289 C2281 1.427 . S
N2289 C2287 1.384 . S
H2290 C2296 0.930 . S
H2291 C2300 0.930 . S
H2292 C2305 0.929 . S
H2293 C2303 0.929 . S
H2294 C2298 0.929 . S
H2295 C2304 0.929 . S
C2296 H2290 0.930 . S
C2296 C2297 1.367 . S
C2296 C2304 1.378 . S
C2297 C2296 1.367 . S
C2297 C2305 1.433 . S
C2298 H2294 0.929 . S
C2298 C2300 1.378 . S
C2298 C2302 1.350 . S
C2299 C2302 1.463 . S
C2299 C2304 1.350 . S
C2299 N2307 1.427 . S
C2300 H2291 0.930 . S
C2300 C2298 1.378 . S
C2300 C2301 1.367 . S
C2301 C2300 1.367 . S
C2301 C2303 1.433 . S
C2302 C2298 1.350 . S
C2302 C2299 1.463 . S
C2302 N2306 1.427 . S
C2303 H2293 0.929 . S
C2303 C2301 1.433 . S
C2303 N2306 1.384 . S
C2304 H2295 0.929 . S
C2304 C2296 1.378 . S
C2304 C2299 1.350 . S
C2305 H2292 0.929 . S
C2305 C2297 1.433 . S
C2305 N2307 1.384 . S
N2306 C2302 1.427 . S
N2306 C2303 1.384 . S
N2307 C2299 1.427 . S
N2307 C2305 1.384 . S
H2308 C2314 0.930 . S
H2309 C2318 0.930 . S
H2310 C2323 0.929 . S
H2311 C2321 0.929 . S
H2312 C2316 0.929 . S
H2313 C2322 0.929 . S
C2314 H2308 0.930 . S
C2314 C2315 1.367 . S
C2314 C2322 1.378 . S
C2315 C2314 1.367 . S
C2315 C2323 1.433 . S
C2316 H2312 0.929 . S
C2316 C2318 1.378 . S
C2316 C2320 1.350 . S
C2317 C2320 1.463 . S
C2317 C2322 1.350 . S
C2317 N2325 1.427 . S
C2318 H2309 0.930 . S
C2318 C2316 1.378 . S
C2318 C2319 1.367 . S
C2319 C2318 1.367 . S
C2319 C2321 1.433 . S
C2320 C2316 1.350 . S
C2320 C2317 1.463 . S
C2320 N2324 1.427 . S
C2321 H2311 0.929 . S
C2321 C2319 1.433 . S
C2321 N2324 1.384 . S
C2322 H2313 0.929 . S
C2322 C2314 1.378 . S
C2322 C2317 1.350 . S
C2323 H2310 0.929 . S
C2323 C2315 1.433 . S
C2323 N2325 1.384 . S
N2324 C2320 1.427 . S
N2324 C2321 1.384 . S
N2325 C2317 1.427 . S
N2325 C2323 1.384 . S
H2326 C2332 0.930 . S
H2327 C2336 0.930 . S
H2328 C2341 0.929 . S
H2329 C2339 0.929 . S
H2330 C2334 0.929 . S
H2331 C2340 0.929 . S
C2332 H2326 0.930 . S
C2332 C2333 1.367 . S
C2332 C2340 1.378 . S
C2333 C2332 1.367 . S
C2333 C2341 1.433 . S
C2334 H2330 0.929 . S
C2334 C2336 1.378 . S
C2334 C2338 1.350 . S
C2335 C2338 1.463 . S
C2335 C2340 1.350 . S
C2335 N2343 1.427 . S
C2336 H2327 0.930 . S
C2336 C2334 1.378 . S
C2336 C2337 1.367 . S
C2337 C2336 1.367 . S
C2337 C2339 1.433 . S
C2338 C2334 1.350 . S
C2338 C2335 1.463 . S
C2338 N2342 1.427 . S
C2339 H2329 0.929 . S
C2339 C2337 1.433 . S
C2339 N2342 1.384 . S
C2340 H2331 0.929 . S
C2340 C2332 1.378 . S
C2340 C2335 1.350 . S
C2341 H2328 0.929 . S
C2341 C2333 1.433 . S
C2341 N2343 1.384 . S
N2342 C2338 1.427 . S
N2342 C2339 1.384 . S
N2343 C2335 1.427 . S
N2343 C2341 1.384 . S
H2344 C2350 0.930 . S
H2345 C2354 0.930 . S
H2346 C2359 0.929 . S
H2347 C2357 0.929 . S
H2348 C2352 0.929 . S
H2349 C2358 0.929 . S
C2350 H2344 0.930 . S
C2350 C2351 1.367 . S
C2350 C2358 1.378 . S
C2351 C2350 1.367 . S
C2351 C2359 1.433 . S
C2352 H2348 0.929 . S
C2352 C2354 1.378 . S
C2352 C2356 1.350 . S
C2353 C2356 1.463 . S
C2353 C2358 1.350 . S
C2353 N2361 1.427 . S
C2354 H2345 0.930 . S
C2354 C2352 1.378 . S
C2354 C2355 1.367 . S
C2355 C2354 1.367 . S
C2355 C2357 1.433 . S
C2356 C2352 1.350 . S
C2356 C2353 1.463 . S
C2356 N2360 1.427 . S
C2357 H2347 0.929 . S
C2357 C2355 1.433 . S
C2357 N2360 1.384 . S
C2358 H2349 0.929 . S
C2358 C2350 1.378 . S
C2358 C2353 1.350 . S
C2359 H2346 0.929 . S
C2359 C2351 1.433 . S
C2359 N2361 1.384 . S
N2360 C2356 1.427 . S
N2360 C2357 1.384 . S
N2361 C2353 1.427 . S
N2361 C2359 1.384 . S
H2362 C2368 0.930 . S
H2363 C2372 0.930 . S
H2364 C2377 0.929 . S
H2365 C2375 0.929 . S
H2366 C2370 0.929 . S
H2367 C2376 0.929 . S
C2368 H2362 0.930 . S
C2368 C2369 1.367 . S
C2368 C2376 1.378 . S
C2369 C2368 1.367 . S
C2369 C2377 1.433 . S
C2370 H2366 0.929 . S
C2370 C2372 1.378 . S
C2370 C2374 1.350 . S
C2371 C2374 1.463 . S
C2371 C2376 1.350 . S
C2371 N2379 1.427 . S
C2372 H2363 0.930 . S
C2372 C2370 1.378 . S
C2372 C2373 1.367 . S
C2373 C2372 1.367 . S
C2373 C2375 1.433 . S
C2374 C2370 1.350 . S
C2374 C2371 1.463 . S
C2374 N2378 1.427 . S
C2375 H2365 0.929 . S
C2375 C2373 1.433 . S
C2375 N2378 1.384 . S
C2376 H2367 0.929 . S
C2376 C2368 1.378 . S
C2376 C2371 1.350 . S
C2377 H2364 0.929 . S
C2377 C2369 1.433 . S
C2377 N2379 1.384 . S
N2378 C2374 1.427 . S
N2378 C2375 1.384 . S
N2379 C2371 1.427 . S
N2379 C2377 1.384 . S
H2380 C2386 0.930 . S
H2381 C2390 0.930 . S
H2382 C2395 0.929 . S
H2383 C2393 0.929 . S
H2384 C2388 0.929 . S
H2385 C2394 0.929 . S
C2386 H2380 0.930 . S
C2386 C2387 1.367 . S
C2386 C2394 1.378 . S
C2387 C2386 1.367 . S
C2387 C2395 1.433 . S
C2388 H2384 0.929 . S
C2388 C2390 1.378 . S
C2388 C2392 1.350 . S
C2389 C2392 1.463 . S
C2389 C2394 1.350 . S
C2389 N2397 1.427 . S
C2390 H2381 0.930 . S
C2390 C2388 1.378 . S
C2390 C2391 1.367 . S
C2391 C2390 1.367 . S
C2391 C2393 1.433 . S
C2392 C2388 1.350 . S
C2392 C2389 1.463 . S
C2392 N2396 1.427 . S
C2393 H2383 0.929 . S
C2393 C2391 1.433 . S
C2393 N2396 1.384 . S
C2394 H2385 0.929 . S
C2394 C2386 1.378 . S
C2394 C2389 1.350 . S
C2395 H2382 0.929 . S
C2395 C2387 1.433 . S
C2395 N2397 1.384 . S
N2396 C2392 1.427 . S
N2396 C2393 1.384 . S
N2397 C2389 1.427 . S
N2397 C2395 1.384 . S
H2398 C2404 0.930 . S
H2399 C2408 0.930 . S
H2400 C2413 0.929 . S
H2401 C2411 0.929 . S
H2402 C2406 0.907 1_455 S
H2403 C2412 0.929 . S
C2404 H2398 0.930 . S
C2404 C2405 1.367 . S
C2404 C2412 1.378 . S
C2405 C2404 1.367 . S
C2405 C2413 1.433 . S
C2406 H2402 0.907 1_655 S
C2406 C2408 1.410 . S
C2406 C2410 1.341 1_655 S
C2407 C2410 1.463 . S
C2407 C2412 1.350 . S
C2407 N2415 1.427 . S
C2408 H2399 0.930 . S
C2408 C2406 1.410 . S
C2408 C2409 1.367 . S
C2409 C2408 1.367 . S
C2409 C2411 1.433 . S
C2410 C2406 1.341 1_455 S
C2410 C2407 1.463 . S
C2410 N2414 1.427 1_455 S
C2411 H2401 0.929 . S
C2411 C2409 1.433 . S
C2411 N2414 1.384 . S
C2412 H2403 0.929 . S
C2412 C2404 1.378 . S
C2412 C2407 1.350 . S
C2413 H2400 0.929 . S
C2413 C2405 1.433 . S
C2413 N2415 1.384 . S
N2414 C2410 1.427 1_655 S
N2414 C2411 1.384 . S
N2415 C2407 1.427 . S
N2415 C2413 1.384 . S
C699 C354 1.209 . S
C695 C7 1.218 . S
C713 C23 1.166 . S
C717 C366 1.156 . S
C735 C401 1.099 . S
C731 C36 1.129 . S
C753 C410 1.170 . S
C749 C45 1.169 . S
C771 C365 1.170 . S
C767 C59 1.205 . S
C785 C78 1.102 . S
C789 C390 1.087 . S
C807 C409 1.153 . S
C803 C93 1.174 . S
C821 C105 1.271 . S
C825 C351 1.242 . S
C839 C115 1.252 . S
C843 C344 1.235 . S
C861 C368 1.166 . S
C857 C133 1.175 . S
C879 C387 1.141 . S
C875 C148 1.173 . S
C897 C412 1.133 . S
C893 C163 1.128 . S
C915 C373 1.113 . S
C911 C121 1.138 . S
C933 C398 1.124 . S
C929 C134 1.136 . S
C947 C147 1.184 . S
C951 C417 1.160 . S
C969 C357 1.214 . S
C965 C157 1.249 . S
C983 C175 1.210 . S
C987 C346 1.200 . S
C1001 C191 1.205 . S
C1005 C445 1.179 . S
C1023 C461 1.130 . S
C1019 C199 1.168 . S
C1041 C475 1.106 . S
C1037 C218 1.126 . S
C1055 C231 1.231 . S
C1059 C343 1.201 . S
C1073 C241 1.192 . S
C1077 C395 1.159 . S
C1095 C478 1.180 . S
C1091 C205 1.187 . S
C1113 C442 1.140 . S
C1109 C260 1.156 . S
C1131 C498 1.047 . S
C1127 C22 1.045 . S
C1149 C522 1.174 . S
C1145 C9 1.171 . S
C1163 C49 1.216 . S
C1167 C555 1.197 . S
C1181 C31 1.167 . S
C1185 C563 1.147 . S
C1199 C101 1.169 . S
C1203 C533 1.144 . S
C1217 C91 1.202 . S
C1221 C544 1.187 . S
C1239 C564 1.199 . S
C1235 C79 1.184 . S
C1253 C64 1.094 . S
C1257 C497 1.070 . S
C1271 C274 1.041 . S
C1275 C500 1.037 . S
C1293 C530 1.123 . S
C1289 C213 1.136 . S
C1311 C541 1.222 . S
C1307 C233 1.224 . S
C1329 C571 1.194 . S
C1325 C189 1.211 . S
C1347 C519 1.190 . S
C1343 C273 1.199 . S
C1365 C552 1.202 . S
C1361 C219 1.190 . S
C1383 C566 1.134 . S
C1379 C227 1.143 . S
C1397 C190 1.092 . S
C1401 C505 1.078 . S
C1419 C508 1.054 . S
C1415 C289 1.050 . S
C1433 C162 1.176 . S
C1437 C596 1.178 . S
C1455 C608 1.151 . S
C1451 C301 1.152 . S
C1469 C129 1.214 . S
C1473 C629 1.208 . S
C1491 C511 1.124 . S
C1487 C149 1.120 . S
C1509 C549 1.133 . S
C1505 C315 1.154 . S
C1527 C632 1.128 . S
C1523 C302 1.133 . S
C1541 C325 1.199 . S
C1545 C599 1.184 . S
C1559 C35 1.238 . S
C1563 C654 1.231 . S
C1577 C51 1.156 . S
C1581 C432 1.148 . S
C1599 C456 1.073 . S
C1595 C8 1.075 . S
C1613 C17 1.177 . S
C1617 C486 1.170 . S
C1631 C87 1.183 . S
C1635 C431 1.161 . S
C1649 C106 1.132 . S
C1653 C467 1.100 . S
C1671 C483 1.186 . S
C1667 C65 1.194 . S
C1689 C665 1.220 . S
C1685 C77 1.249 . S
C1707 C662 1.222 . S
C1703 C297 1.231 . S
C1725 C434 1.156 . S
C1721 C287 1.163 . S
C1743 C464 1.145 . S
C1739 C330 1.159 . S
C1757 C317 1.161 . S
C1761 C476 1.156 . S
C1779 C439 1.105 . S
C1775 C303 1.138 . S
C1793 C288 1.123 . S
C1797 C453 1.102 . S
C1815 C489 1.158 . S
C1811 C329 1.181 . S
C1829 C311 1.275 . S
C1833 C651 1.242 . S
C1851 C652 1.215 . S
C1847 C217 1.222 . S
C1865 C247 1.198 . S
C1869 C379 1.163 . S
C1887 C388 1.124 . S
C1883 C269 1.134 . S
C1901 C176 1.130 . S
C1905 C423 1.102 . S
C1923 C659 1.196 . S
C1919 C259 1.225 . S
C1941 C454 1.158 . S
C1937 C185 1.160 . S
C1959 C420 1.171 . S
C1955 C275 1.183 . S
C1977 C376 1.127 . S
C1973 C232 1.138 . S
C1991 C50 1.085 . S
C1995 C673 1.077 . S
C2009 C37 1.198 . S
C2013 C585 1.203 . S
C2027 C21 1.213 . S
C2031 C621 1.193 . S
C2049 C640 1.105 . S
C2045 C3 1.121 . S
C2067 C586 1.112 . S
C2063 C73 1.129 . S
C2081 C63 1.203 . S
C2085 C610 1.201 . S
C2103 C637 1.208 . S
C2099 C107 1.224 . S
C2117 C92 1.068 . S
C2121 C674 1.071 . S
C2139 C681 1.082 . S
C2135 C204 1.081 . S
C2153 C171 1.142 . S
C2157 C593 1.133 . S
C2171 C261 1.222 . S
C2175 C607 1.213 . S
C2193 C630 1.170 . S
C2189 C245 1.174 . S
C2211 C588 1.167 . S
C2207 C203 1.174 . S
C2225 C177 1.197 . S
C2229 C618 1.193 . S
C2247 C643 1.139 . S
C2243 C255 1.160 . S
C2265 C676 1.067 . S
C2261 C246 1.075 . S
C2283 C687 1.070 . S
C2279 C135 1.087 . S
C2301 C527 1.215 . S
C2297 C316 1.220 . S
C2315 C119 1.154 . S
C2319 C542 1.153 . S
C2333 C283 1.198 . S
C2337 C574 1.190 . S
C2355 C684 1.099 . S
C2351 C331 1.093 . S
C2373 C615 1.132 . S
C2369 C161 1.146 . S
C2391 C577 1.171 . S
C2387 C120 1.177 . S
C2409 C520 1.179 . S
C2405 C143 1.177 . S
