# Generated by pormake.
# Topology apo, (3,6)-cn, num edge types: 1
# Building blocks:
#     Node 0, Type 0, BuildingBlock: OLANEW_clean_sbu_2, # of connection points: 3
#     Node 1, Type 0, BuildingBlock: OLANEW_clean_sbu_2, # of connection points: 3
#     Node 2, Type 0, BuildingBlock: OLANEW_clean_sbu_2, # of connection points: 3
#     Node 3, Type 0, BuildingBlock: OLANEW_clean_sbu_2, # of connection points: 3
#     Node 4, Type 0, BuildingBlock: OLANEW_clean_sbu_2, # of connection points: 3
#     Node 5, Type 0, BuildingBlock: OLANEW_clean_sbu_2, # of connection points: 3
#     Node 6, Type 0, BuildingBlock: OLANEW_clean_sbu_2, # of connection points: 3
#     Node 7, Type 0, BuildingBlock: OLANEW_clean_sbu_2, # of connection points: 3
#     Node 8, Type 1, BuildingBlock: KUMJIN_clean_sbu_1, # of connection points: 6
#     Node 9, Type 1, BuildingBlock: KUMJIN_clean_sbu_1, # of connection points: 6
#     Node 10, Type 1, BuildingBlock: KUMJIN_clean_sbu_1, # of connection points: 6
#     Node 11, Type 1, BuildingBlock: KUMJIN_clean_sbu_1, # of connection points: 6
#     Edge 12, Type (0, 1), None
#     Edge 13, Type (0, 1), None
#     Edge 14, Type (0, 1), None
#     Edge 15, Type (0, 1), None
#     Edge 16, Type (0, 1), None
#     Edge 17, Type (0, 1), None
#     Edge 18, Type (0, 1), None
#     Edge 19, Type (0, 1), None
#     Edge 20, Type (0, 1), None
#     Edge 21, Type (0, 1), None
#     Edge 22, Type (0, 1), None
#     Edge 23, Type (0, 1), None
#     Edge 24, Type (0, 1), None
#     Edge 25, Type (0, 1), None
#     Edge 26, Type (0, 1), None
#     Edge 27, Type (0, 1), None
#     Edge 28, Type (0, 1), None
#     Edge 29, Type (0, 1), None
#     Edge 30, Type (0, 1), None
#     Edge 31, Type (0, 1), None
#     Edge 32, Type (0, 1), None
#     Edge 33, Type (0, 1), None
#     Edge 34, Type (0, 1), None
#     Edge 35, Type (0, 1), None
# Relax obj value: 0.035
# Max RMSD: 0.285
# Mean RMSD: 0.169
data_MOF--net-apo--node1-OLANEW_clean_sbu_2--node2-KUMJIN_clean_sbu_1--edge1-none
_symmetry_space_group_name_H-M    P1
_symmetry_Int_Tables_number       1
_symmetry_cell_setting            triclinic
loop_
_symmetry_equiv_pos_as_xyz
'x, y, z'
_cell_length_a     14.338379
_cell_length_b     20.566069
_cell_length_c     31.355554
_cell_angle_alpha  87.586067
_cell_angle_beta   89.765955
_cell_angle_gamma 89.515509
loop_
_atom_site_label
_atom_site_type_symbol
_atom_site_fract_x
_atom_site_fract_y
_atom_site_fract_z
_atom_type_partial_charge
O0 O 0.33373 0.41011 0.30858 0.0
Cd1 Cd 0.29218 0.3058 0.34362 0.0
O2 O 0.46962 0.4154 0.34128 0.0
Cd3 Cd 0.42451 0.3628 0.39982 0.0
O4 O 0.36648 0.39442 0.46066 0.0
C5 C 0.41421 0.41018 0.49277 0.0
O6 O 0.50538 0.40364 0.49205 0.0
C7 C 0.41367 0.43548 0.31212 0.0
C8 C 0.19209 0.22598 0.28974 0.0
O9 O 0.15163 0.26713 0.31338 0.0
O10 O 0.28125 0.22217 0.29076 0.0
O11 O 0.30514 0.18121 0.98192 0.0
Cd12 Cd 0.36093 0.28044 0.9388 0.0
O13 O 0.29352 0.11599 0.92904 0.0
Cd14 Cd 0.26662 0.03066 0.8907 0.0
O15 O 0.23478 0.98228 0.83105 0.0
C16 C 0.15336 0.98992 0.81565 0.0
O17 O 0.09274 0.0256 0.83569 0.0
C18 C 0.28609 0.12512 0.96889 0.0
C19 C 0.4171 0.30675 0.85288 0.0
O20 O 0.33292 0.31726 0.86497 0.0
O21 O 0.47285 0.27871 0.87992 0.0
O22 O 0.81245 0.09012 0.701 0.0
Cd23 Cd 0.71657 0.16033 0.65489 0.0
O24 O 0.90043 0.08442 0.64514 0.0
Cd25 Cd 0.01231 0.0637 0.6015 0.0
O26 O 0.9751 0.12817 0.54786 0.0
C27 C 0.94011 0.10113 0.51621 0.0
O28 O 0.93543 0.03742 0.51641 0.0
C29 C 0.88271 0.06552 0.68325 0.0
C30 C 0.65197 0.26679 0.69723 0.0
O31 O 0.62471 0.20918 0.70744 0.0
O32 O 0.71167 0.27488 0.66704 0.0
O33 O 0.76663 0.34323 0.06916 0.0
Cd34 Cd 0.85837 0.37118 0.1298 0.0
O35 O 0.78901 0.43653 0.03386 0.0
Cd36 Cd 0.79267 0.48454 0.0942 0.0
O37 O 0.72673 0.51853 0.15149 0.0
C38 C 0.63944 0.50971 0.15461 0.0
O39 O 0.59518 0.48221 0.1236 0.0
C40 C 0.76748 0.37673 0.03422 0.0
C41 C 0.92083 0.25434 0.16952 0.0
O42 O 0.95368 0.27297 0.13312 0.0
O43 O 0.86005 0.29085 0.18685 0.0
O44 O 0.69556 0.59942 0.7091 0.0
Cd45 Cd 0.75215 0.6892 0.66041 0.0
O46 O 0.64244 0.55001 0.65325 0.0
Cd47 Cd 0.702 0.61512 0.60448 0.0
O48 O 0.74855 0.59486 0.54073 0.0
C49 C 0.68744 0.57735 0.51443 0.0
O50 O 0.59894 0.57912 0.52534 0.0
C51 C 0.65195 0.55233 0.69334 0.0
C52 C 0.85161 0.79199 0.69381 0.0
O53 O 0.76224 0.79307 0.69312 0.0
O54 O 0.8939 0.74193 0.67988 0.0
O55 O 0.79455 0.93861 0.20082 0.0
Cd56 Cd 0.7308 0.84701 0.162 0.0
O57 O 0.8943 0.94834 0.1474 0.0
Cd58 Cd 0.80935 0.89481 0.10431 0.0
O59 O 0.74962 0.91738 0.04272 0.0
C60 C 0.81427 0.92956 0.01602 0.0
O61 O 0.90126 0.92003 0.02794 0.0
C62 C 0.86717 0.96436 0.18406 0.0
C63 C 0.62902 0.74918 0.203 0.0
O64 O 0.71728 0.75306 0.20837 0.0
O65 O 0.58774 0.79276 0.17942 0.0
O66 O 0.19601 0.90716 0.29016 0.0
Cd67 Cd 0.29047 0.84355 0.34457 0.0
O68 O 0.19616 0.97153 0.34295 0.0
Cd69 Cd 0.18049 0.04832 0.38755 0.0
O70 O 0.23002 0.98892 0.44252 0.0
C71 C 0.17162 0.97009 0.47083 0.0
O72 O 0.08525 0.99126 0.46809 0.0
C73 C 0.17057 0.96096 0.30523 0.0
C74 C 0.38186 0.73177 0.31733 0.0
O75 O 0.3004 0.72838 0.33414 0.0
O76 O 0.41996 0.78778 0.31306 0.0
O77 O 0.3374 0.58739 0.81133 0.0
Cd78 Cd 0.19062 0.63304 0.8409 0.0
O79 O 0.34106 0.50324 0.85745 0.0
Cd80 Cd 0.23315 0.54184 0.89714 0.0
O81 O 0.21219 0.60147 0.9513 0.0
C82 C 0.26522 0.59182 0.98334 0.0
O83 O 0.32629 0.54376 0.98343 0.0
C84 C 0.37449 0.53393 0.82502 0.0
C85 C 0.12267 0.75231 0.80539 0.0
O86 O 0.12809 0.7011 0.78364 0.0
O87 O 0.15139 0.74867 0.84402 0.0
Eu88 Eu 0.11984 0.07882 0.18522 0.0
C89 C 0.71799 0.08635 0.28118 0.0
N90 N 0.77745 0.13517 0.26948 0.0
C91 C 0.64814 0.20722 0.25466 0.0
C92 C 0.62057 0.0967 0.28047 0.0
C93 C 0.74414 0.19525 0.25688 0.0
C94 C 0.58607 0.15783 0.26668 0.0
C95 C 0.69479 0.97886 0.31429 0.0
C96 C 0.75478 0.02738 0.29715 0.0
C97 C 0.59779 0.98809 0.31208 0.0
C98 C 0.56083 0.04693 0.29535 0.0
Eu99 Eu 0.93656 0.11303 0.28335 0.0
N100 N 0.84922 0.01973 0.29949 0.0
C101 C 0.73413 0.92556 0.337 0.0
C102 C 0.88758 0.96885 0.32239 0.0
C103 C 0.83054 0.92272 0.34277 0.0
H104 H 0.79129 0.23507 0.25106 0.0
H105 H 0.86106 0.88823 0.36534 0.0
H106 H 0.25395 0.95147 0.21785 0.0
H107 H 0.21938 0.2961 0.09573 0.0
H108 H 0.96154 0.96713 0.32838 0.0
H109 H 0.69041 0.88925 0.35291 0.0
H110 H 0.11138 0.2193 0.13146 0.0
H111 H 0.62211 0.25512 0.24497 0.0
H112 H 0.55079 0.95115 0.32493 0.0
H113 H 0.48588 0.05421 0.29526 0.0
H114 H 0.42066 0.92487 0.22718 0.0
H115 H 0.51173 0.16779 0.26602 0.0
H116 H 0.38977 0.28407 0.10757 0.0
N117 N 0.27742 0.0501 0.19825 0.0
C118 C 0.34166 0.09542 0.18618 0.0
C119 C 0.3994 0.97334 0.21621 0.0
C120 C 0.43798 0.08131 0.18886 0.0
C121 C 0.30477 0.98909 0.212 0.0
C122 C 0.46635 0.01968 0.2046 0.0
N123 N 0.21775 0.1644 0.16306 0.0
C124 C 0.18473 0.2148 0.13789 0.0
C125 C 0.37564 0.19823 0.14916 0.0
C126 C 0.31094 0.15386 0.16738 0.0
C127 C 0.34206 0.25064 0.12375 0.0
C128 C 0.24618 0.2578 0.11714 0.0
H129 H 0.53966 0.00674 0.20668 0.0
H130 H 0.57693 0.11773 0.17554 0.0
H131 H 0.52225 0.22013 0.14051 0.0
O132 O 0.09112 0.08714 0.11588 0.0
O133 O 0.17612 0.14086 0.23882 0.0
O134 O 0.04485 0.18932 0.26769 0.0
O135 O 0.16638 0.00384 0.14258 0.0
O136 O 0.99591 0.14842 0.17145 0.0
O137 O 0.95074 0.19601 0.23469 0.0
O138 O 0.96109 0.09938 0.35199 0.0
O139 O 0.88058 0.05515 0.22909 0.0
O140 O 0.01299 0.00417 0.20605 0.0
O141 O 0.86698 0.17686 0.3279 0.0
O142 O 0.07047 0.05561 0.29939 0.0
O143 O 0.10498 0.00078 0.23848 0.0
C144 C 0.1356 0.18219 0.26451 0.0
C145 C 0.19485 0.02871 0.06855 0.0
C146 C 0.26214 0.07094 0.00021 0.0
C147 C 0.2928 0.00765 0.99196 0.0
C148 C 0.22767 0.96639 0.05894 0.0
C149 C 0.27625 0.9561 0.02121 0.0
C150 C 0.21329 0.0815 0.03905 0.0
C151 C 0.95631 0.19564 0.19277 0.0
C152 C 0.13611 0.03361 0.10788 0.0
C153 C 0.50269 0.12767 0.17364 0.0
C154 C 0.47159 0.18606 0.15381 0.0
C155 C 0.92242 0.01167 0.20629 0.0
C156 C 0.88002 0.16266 0.40489 0.0
C157 C 0.89836 0.14038 0.48114 0.0
C158 C 0.82757 0.18573 0.48928 0.0
C159 C 0.80784 0.20711 0.41327 0.0
C160 C 0.92432 0.12905 0.43906 0.0
C161 C 0.78202 0.21857 0.45535 0.0
C162 C 0.1147 0.00914 0.27963 0.0
C163 C 0.90064 0.14461 0.36097 0.0
H164 H 0.33185 0.99812 0.96323 0.0
H165 H 0.21433 0.9249 0.08051 0.0
H166 H 0.30086 0.90766 0.01448 0.0
H167 H 0.18871 0.12995 0.04584 0.0
H168 H 0.80569 0.19419 0.52171 0.0
H169 H 0.77021 0.23194 0.3874 0.0
H170 H 0.97786 0.09304 0.43302 0.0
H171 H 0.72588 0.2524 0.46164 0.0
Eu172 Eu 0.42391 0.41245 0.71919 0.0
C173 C 0.82727 0.46808 0.7653 0.0
N174 N 0.77848 0.41189 0.76308 0.0
C175 C 0.89438 0.3704 0.71563 0.0
C176 C 0.90758 0.47947 0.74006 0.0
C177 C 0.81604 0.36119 0.74189 0.0
C178 C 0.93829 0.43074 0.71344 0.0
C179 C 0.86088 0.56365 0.80485 0.0
C180 C 0.80235 0.51142 0.79611 0.0
C181 C 0.93708 0.57772 0.77794 0.0
C182 C 0.9585 0.5368 0.7446 0.0
Eu183 Eu 0.63865 0.40753 0.80444 0.0
N184 N 0.72473 0.49949 0.81988 0.0
C185 C 0.8436 0.59799 0.84157 0.0
C186 C 0.70469 0.53448 0.85468 0.0
C187 C 0.76538 0.58299 0.86688 0.0
H188 H 0.78837 0.31291 0.7461 0.0
H189 H 0.75184 0.60821 0.89587 0.0
H190 H 0.26416 0.5176 0.75324 0.0
H191 H 0.40853 0.14804 0.70899 0.0
H192 H 0.64398 0.52294 0.87401 0.0
H193 H 0.89213 0.63464 0.85103 0.0
H194 H 0.46882 0.25727 0.69127 0.0
H195 H 0.92227 0.33045 0.69801 0.0
H196 H 0.98129 0.61894 0.78339 0.0
H197 H 0.01908 0.54716 0.72478 0.0
H198 H 0.11611 0.51393 0.79348 0.0
H199 H 1.00015 0.43733 0.69381 0.0
H200 H 0.2528 0.13606 0.74271 0.0
N201 N 0.27385 0.41512 0.74934 0.0
C202 C 0.22923 0.35715 0.75404 0.0
C203 C 0.14622 0.46956 0.78201 0.0
C204 C 0.1407 0.35331 0.77358 0.0
C205 C 0.23149 0.47139 0.76045 0.0
C206 C 0.10028 0.41031 0.7885 0.0
N207 N 0.36223 0.30601 0.72431 0.0
C208 C 0.40657 0.25248 0.70993 0.0
C209 C 0.23221 0.23987 0.74802 0.0
C210 C 0.27489 0.30102 0.74148 0.0
C211 C 0.28196 0.18413 0.73712 0.0
C212 C 0.36974 0.19059 0.71811 0.0
H213 H 0.03356 0.40915 0.80485 0.0
H214 H 0.02833 0.28892 0.79334 0.0
H215 H 0.1084 0.18958 0.77094 0.0
O216 O 0.36509 0.388 0.65815 0.0
O217 O 0.39968 0.3736 0.78811 0.0
O218 O 0.53844 0.324 0.80022 0.0
O219 O 0.36036 0.48852 0.67668 0.0
O220 O 0.55528 0.36064 0.69766 0.0
O221 O 0.62316 0.32232 0.761 0.0
O222 O 0.62141 0.39686 0.87464 0.0
O223 O 0.62356 0.49887 0.76188 0.0
O224 O 0.56769 0.45249 0.70193 0.0
O225 O 0.74457 0.35744 0.84229 0.0
O226 O 0.506 0.46273 0.82244 0.0
O227 O 0.43835 0.50216 0.75879 0.0
C228 C 0.45085 0.33155 0.8105 0.0
C229 C 0.33901 0.46811 0.60192 0.0
C230 C 0.36866 0.44694 0.52671 0.0
C231 C 0.30538 0.49687 0.51487 0.0
C232 C 0.27753 0.51856 0.58903 0.0
C233 C 0.26121 0.53294 0.54584 0.0
C234 C 0.38649 0.43306 0.57043 0.0
C235 C 0.61328 0.32201 0.71926 0.0
C236 C 0.33932 0.44732 0.64771 0.0
C237 C 0.09686 0.2927 0.7788 0.0
C238 C 0.14249 0.23614 0.76606 0.0
C239 C 0.61144 0.49966 0.72047 0.0
C240 C 0.73859 0.33767 0.91817 0.0
C241 C 0.76682 0.34199 0.99433 0.0
C242 C 0.8143 0.28198 0.99329 0.0
C243 C 0.78805 0.27852 0.91759 0.0
C244 C 0.72835 0.36979 0.95662 0.0
C245 C 0.82537 0.25079 0.95506 0.0
C246 C 0.44777 0.50195 0.80069 0.0
C247 C 0.70101 0.36596 0.87814 0.0
H248 H 0.29084 0.50853 0.48152 0.0
H249 H 0.23937 0.54548 0.61253 0.0
H250 H 0.21272 0.57143 0.53633 0.0
H251 H 0.43343 0.39346 0.57977 0.0
H252 H 0.84599 0.26019 0.02184 0.0
H253 H 0.7975 0.2535 0.88814 0.0
H254 H 0.69245 0.4164 0.95704 0.0
H255 H 0.86357 0.20523 0.95443 0.0
Eu256 Eu 0.11239 0.90476 0.69179 0.0
C257 C 0.69574 0.90637 0.79028 0.0
N258 N 0.75776 0.95507 0.78329 0.0
C259 C 0.63282 0.02956 0.76572 0.0
C260 C 0.59938 0.91686 0.78368 0.0
C261 C 0.72737 0.0168 0.77358 0.0
C262 C 0.56862 0.97901 0.77 0.0
C263 C 0.66425 0.79944 0.82173 0.0
C264 C 0.728 0.84817 0.8085 0.0
C265 C 0.56906 0.80751 0.81228 0.0
C266 C 0.53662 0.86631 0.79342 0.0
Eu267 Eu 0.91686 0.92996 0.79581 0.0
N268 N 0.82026 0.84247 0.81797 0.0
C269 C 0.69663 0.74745 0.84785 0.0
C270 C 0.85116 0.79358 0.84503 0.0
C271 C 0.78924 0.74688 0.86143 0.0
H272 H 0.77582 0.05657 0.77327 0.0
H273 H 0.8126 0.71205 0.88582 0.0
H274 H 0.26577 0.7865 0.71917 0.0
H275 H 0.17438 0.1597 0.64134 0.0
H276 H 0.92222 0.79258 0.85621 0.0
H277 H 0.64925 0.71054 0.8604 0.0
H278 H 0.08252 0.0693 0.67124 0.0
H279 H 0.6093 0.07857 0.75731 0.0
H280 H 0.5193 0.77019 0.82174 0.0
H281 H 0.46239 0.8734 0.78855 0.0
H282 H 0.43651 0.76865 0.71763 0.0
H283 H 0.49518 0.98917 0.76471 0.0
H284 H 0.34336 0.14548 0.62897 0.0
N285 N 0.2739 0.8842 0.69471 0.0
C286 C 0.32963 0.93359 0.68024 0.0
C287 C 0.40726 0.81521 0.70699 0.0
C288 C 0.42725 0.92525 0.67834 0.0
C289 C 0.31081 0.82564 0.70822 0.0
C290 C 0.46571 0.8651 0.6918 0.0
N291 N 0.1955 0.00166 0.67398 0.0
C292 C 0.1551 0.06112 0.66562 0.0
C293 C 0.3455 0.04538 0.65331 0.0
C294 C 0.28918 0.99349 0.6687 0.0
C295 C 0.30279 0.10486 0.64172 0.0
C296 C 0.20749 0.1131 0.64869 0.0
H297 H 0.54043 0.85686 0.69098 0.0
H298 H 0.55853 0.97158 0.66193 0.0
H299 H 0.48682 0.07635 0.63927 0.0
O300 O 0.06768 0.91138 0.62531 0.0
O301 O 0.19021 0.95436 0.74462 0.0
O302 O 0.04805 0.94545 0.76262 0.0
O303 O 0.15744 0.832 0.64703 0.0
O304 O 0.98675 0.9741 0.68278 0.0
O305 O 0.93909 0.01495 0.7483 0.0
O306 O 0.94915 0.92962 0.86366 0.0
O307 O 0.85807 0.88298 0.73774 0.0
O308 O 0.99531 0.83744 0.71553 0.0
O309 O 0.89604 0.01753 0.83172 0.0
O310 O 0.02961 0.85016 0.80832 0.0
O311 O 0.1066 0.82263 0.744 0.0
C312 C 0.12988 0.96449 0.77398 0.0
C313 C 0.17027 0.86667 0.57386 0.0
C314 C 0.19733 0.91978 0.50374 0.0
C315 C 0.2632 0.8713 0.49465 0.0
C316 C 0.23519 0.81799 0.56381 0.0
C317 C 0.28142 0.82049 0.52449 0.0
C318 C 0.15112 0.9172 0.54337 0.0
C319 C 0.93832 0.01497 0.70608 0.0
C320 C 0.11702 0.86118 0.61436 0.0
C321 C 0.48338 0.9771 0.66348 0.0
C322 C 0.44255 0.03677 0.6506 0.0
C323 C 0.90441 0.84515 0.71208 0.0
C324 C 0.84576 0.99447 0.9029 0.0
C325 C 0.7943 0.96291 0.97477 0.0
C326 C 0.71635 0.00425 0.96975 0.0
C327 C 0.76844 0.03676 0.89852 0.0
C328 C 0.85848 0.95823 0.94128 0.0
C329 C 0.70411 0.0414 0.93185 0.0
C330 C 0.08686 0.81351 0.78547 0.0
C331 C 0.91429 0.98771 0.86823 0.0
H332 H 0.29851 0.87159 0.46403 0.0
H333 H 0.24946 0.77752 0.58614 0.0
H334 H 0.33085 0.78255 0.51695 0.0
H335 H 0.09943 0.95416 0.55015 0.0
H336 H 0.6667 0.00949 0.99554 0.0
H337 H 0.75742 0.06609 0.86945 0.0
H338 H 0.91902 0.92657 0.94522 0.0
H339 H 0.6449 0.07417 0.92838 0.0
Eu340 Eu 0.38854 0.59668 0.20943 0.0
C341 C 0.81398 0.63069 0.26762 0.0
N342 N 0.76438 0.57559 0.2638 0.0
C343 C 0.88491 0.53203 0.21978 0.0
C344 C 0.89813 0.64082 0.24512 0.0
C345 C 0.80279 0.52393 0.24368 0.0
C346 C 0.93087 0.59177 0.21914 0.0
C347 C 0.84358 0.7243 0.309 0.0
C348 C 0.78478 0.67391 0.29744 0.0
C349 C 0.92412 0.73797 0.28465 0.0
C350 C 0.94934 0.69754 0.25148 0.0
Eu351 Eu 0.61025 0.57993 0.29207 0.0
N352 N 0.70311 0.66253 0.31821 0.0
C353 C 0.82221 0.75655 0.34609 0.0
C354 C 0.67823 0.69679 0.35274 0.0
C355 C 0.73863 0.74359 0.3679 0.0
H356 H 0.76591 0.47827 0.24322 0.0
H357 H 0.72159 0.7688 0.39656 0.0
H358 H 0.23587 0.6902 0.26386 0.0
H359 H 0.30349 0.37824 0.12783 0.0
H360 H 0.61327 0.68642 0.3692 0.0
H361 H 0.87288 0.78805 0.35936 0.0
H362 H 0.39431 0.47319 0.14274 0.0
H363 H 0.91226 0.49243 0.20166 0.0
H364 H 0.96855 0.77834 0.29199 0.0
H365 H 0.01267 0.7075 0.23349 0.0
H366 H 0.102 0.6718 0.31232 0.0
H367 H 0.9949 0.59778 0.20098 0.0
H368 H 0.16743 0.34615 0.174 0.0
N369 N 0.24303 0.59211 0.24555 0.0
C370 C 0.1972 0.53456 0.24461 0.0
C371 C 0.1286 0.63249 0.29376 0.0
C372 C 0.11645 0.52303 0.26944 0.0
C373 C 0.20602 0.64239 0.26711 0.0
C374 C 0.08436 0.57218 0.29547 0.0
N375 N 0.30992 0.49973 0.19536 0.0
C376 C 0.33565 0.46093 0.16313 0.0
C377 C 0.17912 0.43049 0.21236 0.0
C378 C 0.23037 0.48767 0.21787 0.0
C379 C 0.20708 0.38924 0.18029 0.0
C380 C 0.28399 0.40604 0.15472 0.0
H381 H 0.02304 0.56516 0.31539 0.0
H382 H 0.00748 0.45379 0.28574 0.0
H383 H 0.06019 0.37375 0.23435 0.0
O384 O 0.39456 0.59881 0.14019 0.0
O385 O 0.38038 0.53336 0.27042 0.0
O386 O 0.52871 0.4947 0.27189 0.0
O387 O 0.28887 0.65806 0.1719 0.0
O388 O 0.4979 0.52329 0.19296 0.0
O389 O 0.63414 0.5597 0.22187 0.0
O390 O 0.57211 0.55193 0.35804 0.0
O391 O 0.59574 0.68059 0.26336 0.0
O392 O 0.51491 0.66506 0.19996 0.0
O393 O 0.69146 0.50688 0.32829 0.0
O394 O 0.47745 0.63465 0.31373 0.0
O395 O 0.40339 0.67951 0.25291 0.0
C396 C 0.44148 0.48899 0.28276 0.0
C397 C 0.28922 0.65944 0.09356 0.0
C398 C 0.26084 0.63624 0.01905 0.0
C399 C 0.22109 0.69858 0.01278 0.0
C400 C 0.24905 0.72131 0.08672 0.0
C401 C 0.21596 0.7409 0.04637 0.0
C402 C 0.29622 0.61724 0.05947 0.0
C403 C 0.58763 0.53282 0.19134 0.0
C404 C 0.32429 0.63894 0.13605 0.0
C405 C 0.06946 0.46365 0.26675 0.0
C406 C 0.09965 0.41797 0.23763 0.0
C407 C 0.5774 0.69529 0.22311 0.0
C408 C 0.69373 0.50911 0.40386 0.0
C409 C 0.71661 0.54121 0.47713 0.0
C410 C 0.78965 0.49559 0.48167 0.0
C411 C 0.76587 0.46289 0.40951 0.0
C412 C 0.6681 0.54766 0.43823 0.0
C413 C 0.81341 0.45629 0.44814 0.0
C414 C 0.4198 0.67709 0.29415 0.0
C415 C 0.64232 0.51158 0.36306 0.0
H416 H 0.1945 0.7149 0.98183 0.0
H417 H 0.24396 0.75469 0.11246 0.0
H418 H 0.18572 0.78896 0.04115 0.0
H419 H 0.32701 0.56922 0.0647 0.0
H420 H 0.8265 0.48885 0.51166 0.0
H421 H 0.78496 0.43122 0.38407 0.0
H422 H 0.61071 0.58213 0.43496 0.0
H423 H 0.86842 0.42022 0.45221 0.0
loop_
_geom_bond_atom_site_label_1
_geom_bond_atom_site_label_2
_geom_bond_distance
_geom_bond_site_symmetry_2
_ccdc_geom_bond_type
O0 Cd1 2.300 . S
O0 C7 1.275 . S
Cd1 O0 2.300 . S
Cd1 O9 2.381 . S
Cd1 O10 2.378 . S
O2 Cd3 2.385 . S
O2 C7 1.255 . S
Cd3 O2 2.385 . S
Cd3 O4 2.317 . S
O4 Cd3 2.317 . S
O4 C5 1.232 . S
C5 O4 1.232 . S
C5 O6 1.218 . S
O6 C5 1.218 . S
C7 O0 1.275 . S
C7 O2 1.255 . S
C8 O9 1.258 . S
C8 O10 1.256 . S
O9 Cd1 2.381 . S
O9 C8 1.258 . S
O10 Cd1 2.378 . S
O10 C8 1.256 . S
O11 Cd12 2.300 . S
O11 C18 1.275 . S
Cd12 O11 2.300 . S
Cd12 O20 2.381 . S
Cd12 O21 2.378 . S
O13 Cd14 2.385 1_545 S
O13 C18 1.255 . S
Cd14 O13 2.385 1_565 S
Cd14 O15 2.317 1_565 S
O15 Cd14 2.317 1_545 S
O15 C16 1.232 1_545 S
C16 O15 1.232 1_565 S
C16 O17 1.218 . S
O17 C16 1.218 . S
C18 O11 1.275 . S
C18 O13 1.255 . S
C19 O20 1.258 . S
C19 O21 1.256 . S
O20 Cd12 2.381 . S
O20 C19 1.258 . S
O21 Cd12 2.378 . S
O21 C19 1.256 . S
O22 Cd23 2.300 . S
O22 C29 1.275 . S
Cd23 O22 2.300 . S
Cd23 O31 2.381 . S
Cd23 O32 2.378 . S
O24 Cd25 2.385 1_655 S
O24 C29 1.255 . S
Cd25 O24 2.385 1_455 S
Cd25 O26 2.317 1_455 S
O26 Cd25 2.317 1_655 S
O26 C27 1.232 . S
C27 O26 1.232 . S
C27 O28 1.218 . S
O28 C27 1.218 . S
C29 O22 1.275 . S
C29 O24 1.255 . S
C30 O31 1.258 . S
C30 O32 1.256 . S
O31 Cd23 2.381 . S
O31 C30 1.258 . S
O32 Cd23 2.378 . S
O32 C30 1.256 . S
O33 Cd34 2.300 . S
O33 C40 1.275 . S
Cd34 O33 2.300 . S
Cd34 O42 2.381 . S
Cd34 O43 2.378 . S
O35 Cd36 2.385 . S
O35 C40 1.255 . S
Cd36 O35 2.385 . S
Cd36 O37 2.317 . S
O37 Cd36 2.317 . S
O37 C38 1.232 . S
C38 O37 1.232 . S
C38 O39 1.218 . S
O39 C38 1.218 . S
C40 O33 1.275 . S
C40 O35 1.255 . S
C41 O42 1.258 . S
C41 O43 1.256 . S
O42 Cd34 2.381 . S
O42 C41 1.258 . S
O43 Cd34 2.378 . S
O43 C41 1.256 . S
O44 Cd45 2.300 . S
O44 C51 1.275 . S
Cd45 O44 2.300 . S
Cd45 O53 2.381 . S
Cd45 O54 2.378 . S
O46 Cd47 2.385 . S
O46 C51 1.255 . S
Cd47 O46 2.385 . S
Cd47 O48 2.317 . S
O48 Cd47 2.317 . S
O48 C49 1.232 . S
C49 O48 1.232 . S
C49 O50 1.218 . S
O50 C49 1.218 . S
C51 O44 1.275 . S
C51 O46 1.255 . S
C52 O53 1.258 . S
C52 O54 1.256 . S
O53 Cd45 2.381 . S
O53 C52 1.258 . S
O54 Cd45 2.378 . S
O54 C52 1.256 . S
O55 Cd56 2.300 . S
O55 C62 1.275 . S
Cd56 O55 2.300 . S
Cd56 O64 2.381 . S
Cd56 O65 2.378 . S
O57 Cd58 2.385 1_565 S
O57 C62 1.255 . S
Cd58 O57 2.385 1_545 S
Cd58 O59 2.317 1_545 S
O59 Cd58 2.317 1_565 S
O59 C60 1.232 . S
C60 O59 1.232 . S
C60 O61 1.218 1_565 S
O61 C60 1.218 1_545 S
C62 O55 1.275 . S
C62 O57 1.255 . S
C63 O64 1.258 . S
C63 O65 1.256 . S
O64 Cd56 2.381 . S
O64 C63 1.258 . S
O65 Cd56 2.378 . S
O65 C63 1.256 . S
O66 Cd67 2.300 . S
O66 C73 1.275 . S
Cd67 O66 2.300 . S
Cd67 O75 2.381 . S
Cd67 O76 2.378 . S
O68 Cd69 2.385 . S
O68 C73 1.255 . S
Cd69 O68 2.385 . S
Cd69 O70 2.317 . S
O70 Cd69 2.317 . S
O70 C71 1.232 . S
C71 O70 1.232 . S
C71 O72 1.218 . S
O72 C71 1.218 . S
C73 O66 1.275 . S
C73 O68 1.255 . S
C74 O75 1.258 . S
C74 O76 1.256 . S
O75 Cd67 2.381 . S
O75 C74 1.258 . S
O76 Cd67 2.378 . S
O76 C74 1.256 . S
O77 Cd78 2.300 . S
O77 C84 1.275 . S
Cd78 O77 2.300 . S
Cd78 O86 2.381 . S
Cd78 O87 2.378 . S
O79 Cd80 2.385 . S
O79 C84 1.255 . S
Cd80 O79 2.385 . S
Cd80 O81 2.317 . S
O81 Cd80 2.317 . S
O81 C82 1.232 . S
C82 O81 1.232 . S
C82 O83 1.218 . S
O83 C82 1.218 . S
C84 O77 1.275 . S
C84 O79 1.255 . S
C85 O86 1.258 . S
C85 O87 1.256 . S
O86 Cd78 2.381 . S
O86 C85 1.258 . S
O87 Cd78 2.378 . S
O87 C85 1.256 . S
Eu88 N117 2.600 . S
Eu88 N123 2.562 . S
Eu88 O132 2.462 . S
Eu88 O133 2.373 . S
Eu88 O135 2.432 . S
Eu88 O136 2.291 . S
Eu88 O140 2.335 . S
Eu88 O143 2.372 1_545 S
Eu88 C152 2.787 . S
C89 N90 1.365 . S
C89 C92 1.405 . S
C89 C96 1.448 1_545 S
N90 C89 1.365 . S
N90 C93 1.319 . S
N90 Eu99 2.600 . S
C91 C93 1.397 . S
C91 C94 1.367 . S
C91 H111 0.931 . S
C92 C89 1.405 . S
C92 C94 1.403 . S
C92 C98 1.439 1_545 S
C93 N90 1.319 . S
C93 C91 1.397 . S
C93 H104 0.930 . S
C94 C91 1.367 . S
C94 C92 1.403 . S
C94 H115 0.929 . S
C95 C96 1.430 . S
C95 C97 1.387 . S
C95 C101 1.404 . S
C96 C89 1.448 1_565 S
C96 C95 1.430 . S
C96 N100 1.351 . S
C97 C95 1.387 . S
C97 C98 1.374 . S
C97 H112 0.931 . S
C98 C92 1.439 1_565 S
C98 C97 1.374 . S
C98 H113 0.931 . S
Eu99 N90 2.600 . S
Eu99 N100 2.562 1_545 S
Eu99 O134 2.335 1_655 S
Eu99 O137 2.372 . S
Eu99 O138 2.462 . S
Eu99 O139 2.373 . S
Eu99 O141 2.432 . S
Eu99 O142 2.291 1_655 S
Eu99 C163 2.787 . S
N100 C96 1.351 . S
N100 Eu99 2.562 1_565 S
N100 C102 1.325 . S
C101 C95 1.404 . S
C101 C103 1.366 . S
C101 H109 0.930 . S
C102 N100 1.325 . S
C102 C103 1.416 . S
C102 H108 0.929 . S
C103 C101 1.366 . S
C103 C102 1.416 . S
C103 H105 0.930 . S
H104 C93 0.930 . S
H105 C103 0.930 . S
H106 C121 0.930 1_565 S
H107 C128 0.930 . S
H108 C102 0.929 . S
H109 C101 0.930 . S
H110 C124 0.929 . S
H111 C91 0.931 . S
H112 C97 0.931 . S
H113 C98 0.931 . S
H114 C119 0.931 1_565 S
H115 C94 0.929 . S
H116 C127 0.930 . S
N117 Eu88 2.600 . S
N117 C118 1.365 . S
N117 C121 1.319 . S
C118 N117 1.365 . S
C118 C120 1.405 . S
C118 C126 1.448 . S
C119 H114 0.931 1_545 S
C119 C121 1.397 . S
C119 C122 1.367 . S
C120 C118 1.405 . S
C120 C122 1.403 . S
C120 C153 1.439 . S
C121 H106 0.930 1_545 S
C121 N117 1.319 . S
C121 C119 1.397 . S
C122 C119 1.367 . S
C122 C120 1.403 . S
C122 H129 0.929 . S
N123 Eu88 2.562 . S
N123 C124 1.325 . S
N123 C126 1.351 . S
C124 H110 0.929 . S
C124 N123 1.325 . S
C124 C128 1.416 . S
C125 C126 1.430 . S
C125 C127 1.404 . S
C125 C154 1.387 . S
C126 C118 1.448 . S
C126 N123 1.351 . S
C126 C125 1.430 . S
C127 H116 0.930 . S
C127 C125 1.404 . S
C127 C128 1.366 . S
C128 H107 0.930 . S
C128 C124 1.416 . S
C128 C127 1.366 . S
H129 C122 0.929 . S
H130 C153 0.931 . S
H131 C154 0.931 . S
O132 Eu88 2.462 . S
O132 C152 1.252 . S
O133 Eu88 2.373 . S
O133 C144 1.249 . S
O134 Eu99 2.335 1_455 S
O134 C144 1.264 . S
O135 Eu88 2.432 . S
O135 C152 1.268 . S
O136 Eu88 2.291 . S
O136 C151 1.255 1_455 S
O137 Eu99 2.372 . S
O137 C151 1.257 . S
O138 Eu99 2.462 . S
O138 C163 1.252 . S
O139 Eu99 2.373 . S
O139 C155 1.249 . S
O140 Eu88 2.335 . S
O140 C155 1.264 1_455 S
O141 Eu99 2.432 . S
O141 C163 1.268 . S
O142 Eu99 2.291 1_455 S
O142 C162 1.255 1_545 S
O143 Eu88 2.372 1_565 S
O143 C162 1.257 . S
C144 O133 1.249 . S
C144 O134 1.264 . S
C145 C148 1.382 1_545 S
C145 C150 1.390 . S
C145 C152 1.506 . S
C146 C147 1.398 . S
C146 C150 1.392 1_556 S
C147 C146 1.398 . S
C147 C149 1.372 1_546 S
C147 H164 0.931 . S
C148 C145 1.382 1_565 S
C148 C149 1.390 . S
C148 H165 0.931 . S
C149 C147 1.372 1_564 S
C149 C148 1.390 . S
C149 H166 0.929 . S
C150 C145 1.390 . S
C150 C146 1.392 1_554 S
C150 H167 0.930 . S
C151 O136 1.255 1_655 S
C151 O137 1.257 . S
C152 Eu88 2.787 . S
C152 O132 1.252 . S
C152 O135 1.268 . S
C152 C145 1.506 . S
C153 C120 1.439 . S
C153 H130 0.931 . S
C153 C154 1.374 . S
C154 C125 1.387 . S
C154 H131 0.931 . S
C154 C153 1.374 . S
C155 O139 1.249 . S
C155 O140 1.264 1_655 S
C156 C159 1.382 . S
C156 C160 1.390 . S
C156 C163 1.506 . S
C157 C158 1.398 . S
C157 C160 1.392 . S
C158 C157 1.398 . S
C158 C161 1.372 . S
C158 H168 0.931 . S
C159 C156 1.382 . S
C159 C161 1.390 . S
C159 H169 0.931 . S
C160 C156 1.390 . S
C160 C157 1.392 . S
C160 H170 0.930 . S
C161 C158 1.372 . S
C161 C159 1.390 . S
C161 H171 0.929 . S
C162 O142 1.255 1_565 S
C162 O143 1.257 . S
C163 Eu99 2.787 . S
C163 O138 1.252 . S
C163 O141 1.268 . S
C163 C156 1.506 . S
H164 C147 0.931 . S
H165 C148 0.931 . S
H166 C149 0.929 . S
H167 C150 0.930 . S
H168 C158 0.931 . S
H169 C159 0.931 . S
H170 C160 0.930 . S
H171 C161 0.929 . S
Eu172 N201 2.600 . S
Eu172 N207 2.562 . S
Eu172 O216 2.462 . S
Eu172 O217 2.373 . S
Eu172 O219 2.432 . S
Eu172 O220 2.291 . S
Eu172 O224 2.335 . S
Eu172 O227 2.372 . S
Eu172 C236 2.787 . S
C173 N174 1.365 . S
C173 C176 1.405 . S
C173 C180 1.448 . S
N174 C173 1.365 . S
N174 C177 1.319 . S
N174 Eu183 2.600 . S
C175 C177 1.397 . S
C175 C178 1.367 1_655 S
C175 H195 0.931 . S
C176 C173 1.405 . S
C176 C178 1.403 1_655 S
C176 C182 1.439 1_655 S
C177 N174 1.319 . S
C177 C175 1.397 . S
C177 H188 0.930 . S
C178 C175 1.367 1_455 S
C178 C176 1.403 1_455 S
C178 H199 0.929 . S
C179 C180 1.430 . S
C179 C181 1.387 . S
C179 C185 1.404 . S
C180 C173 1.448 . S
C180 C179 1.430 . S
C180 N184 1.351 . S
C181 C179 1.387 . S
C181 C182 1.374 1_655 S
C181 H196 0.931 1_655 S
C182 C176 1.439 1_455 S
C182 C181 1.374 1_455 S
C182 H197 0.931 . S
Eu183 N174 2.600 . S
Eu183 N184 2.562 . S
Eu183 O218 2.335 . S
Eu183 O221 2.372 . S
Eu183 O222 2.462 . S
Eu183 O223 2.373 . S
Eu183 O225 2.432 . S
Eu183 O226 2.291 . S
Eu183 C247 2.787 . S
N184 C180 1.351 . S
N184 Eu183 2.562 . S
N184 C186 1.325 . S
C185 C179 1.404 . S
C185 C187 1.366 . S
C185 H193 0.930 . S
C186 N184 1.325 . S
C186 C187 1.416 . S
C186 H192 0.929 . S
C187 C185 1.366 . S
C187 C186 1.416 . S
C187 H189 0.930 . S
H188 C177 0.930 . S
H189 C187 0.930 . S
H190 C205 0.930 . S
H191 C212 0.930 . S
H192 C186 0.929 . S
H193 C185 0.930 . S
H194 C208 0.929 . S
H195 C175 0.931 . S
H196 C181 0.931 1_455 S
H197 C182 0.931 . S
H198 C203 0.931 . S
H199 C178 0.929 . S
H200 C211 0.930 . S
N201 Eu172 2.600 . S
N201 C202 1.365 . S
N201 C205 1.319 . S
C202 N201 1.365 . S
C202 C204 1.405 . S
C202 C210 1.448 . S
C203 H198 0.931 . S
C203 C205 1.397 . S
C203 C206 1.367 . S
C204 C202 1.405 . S
C204 C206 1.403 . S
C204 C237 1.439 . S
C205 H190 0.930 . S
C205 N201 1.319 . S
C205 C203 1.397 . S
C206 C203 1.367 . S
C206 C204 1.403 . S
C206 H213 0.929 1_455 S
N207 Eu172 2.562 . S
N207 C208 1.325 . S
N207 C210 1.351 . S
C208 H194 0.929 . S
C208 N207 1.325 . S
C208 C212 1.416 . S
C209 C210 1.430 . S
C209 C211 1.404 . S
C209 C238 1.387 . S
C210 C202 1.448 . S
C210 N207 1.351 . S
C210 C209 1.430 . S
C211 H200 0.930 . S
C211 C209 1.404 . S
C211 C212 1.366 . S
C212 H191 0.930 . S
C212 C208 1.416 . S
C212 C211 1.366 . S
H213 C206 0.929 1_655 S
H214 C237 0.931 1_655 S
H215 C238 0.931 . S
O216 Eu172 2.462 . S
O216 C236 1.252 . S
O217 Eu172 2.373 . S
O217 C228 1.249 . S
O218 Eu183 2.335 . S
O218 C228 1.264 . S
O219 Eu172 2.432 . S
O219 C236 1.268 . S
O220 Eu172 2.291 . S
O220 C235 1.255 . S
O221 Eu183 2.372 . S
O221 C235 1.257 . S
O222 Eu183 2.462 . S
O222 C247 1.252 . S
O223 Eu183 2.373 . S
O223 C239 1.249 . S
O224 Eu172 2.335 . S
O224 C239 1.264 . S
O225 Eu183 2.432 . S
O225 C247 1.268 . S
O226 Eu183 2.291 . S
O226 C246 1.255 . S
O227 Eu172 2.372 . S
O227 C246 1.257 . S
C228 O217 1.249 . S
C228 O218 1.264 . S
C229 C232 1.382 . S
C229 C234 1.390 . S
C229 C236 1.506 . S
C230 C231 1.398 . S
C230 C234 1.392 . S
C231 C230 1.398 . S
C231 C233 1.372 . S
C231 H248 0.931 . S
C232 C229 1.382 . S
C232 C233 1.390 . S
C232 H249 0.931 . S
C233 C231 1.372 . S
C233 C232 1.390 . S
C233 H250 0.929 . S
C234 C229 1.390 . S
C234 C230 1.392 . S
C234 H251 0.930 . S
C235 O220 1.255 . S
C235 O221 1.257 . S
C236 Eu172 2.787 . S
C236 O216 1.252 . S
C236 O219 1.268 . S
C236 C229 1.506 . S
C237 C204 1.439 . S
C237 H214 0.931 1_455 S
C237 C238 1.374 . S
C238 C209 1.387 . S
C238 H215 0.931 . S
C238 C237 1.374 . S
C239 O223 1.249 . S
C239 O224 1.264 . S
C240 C243 1.382 . S
C240 C244 1.390 . S
C240 C247 1.506 . S
C241 C242 1.398 . S
C241 C244 1.392 1_554 S
C242 C241 1.398 . S
C242 C245 1.372 1_554 S
C242 H252 0.931 . S
C243 C240 1.382 . S
C243 C245 1.390 . S
C243 H253 0.931 . S
C244 C240 1.390 . S
C244 C241 1.392 1_556 S
C244 H254 0.930 . S
C245 C242 1.372 1_556 S
C245 C243 1.390 . S
C245 H255 0.929 . S
C246 O226 1.255 . S
C246 O227 1.257 . S
C247 Eu183 2.787 . S
C247 O222 1.252 . S
C247 O225 1.268 . S
C247 C240 1.506 . S
H248 C231 0.931 . S
H249 C232 0.931 . S
H250 C233 0.929 . S
H251 C234 0.930 . S
H252 C242 0.931 . S
H253 C243 0.931 . S
H254 C244 0.930 . S
H255 C245 0.929 . S
Eu256 N285 2.600 . S
Eu256 N291 2.562 1_565 S
Eu256 O300 2.462 . S
Eu256 O301 2.373 . S
Eu256 O303 2.432 . S
Eu256 O304 2.286 1_455 S
Eu256 O308 2.335 1_455 S
Eu256 O311 2.372 . S
Eu256 C320 2.787 . S
C257 N258 1.365 . S
C257 C260 1.405 . S
C257 C264 1.448 . S
N258 C257 1.365 . S
N258 C261 1.319 . S
N258 Eu267 2.600 . S
C259 C261 1.397 . S
C259 C262 1.367 . S
C259 H279 0.931 1_565 S
C260 C257 1.405 . S
C260 C262 1.403 . S
C260 C266 1.439 . S
C261 N258 1.319 . S
C261 C259 1.397 . S
C261 H272 0.930 1_565 S
C262 C259 1.367 . S
C262 C260 1.403 . S
C262 H283 0.929 . S
C263 C264 1.430 . S
C263 C265 1.387 . S
C263 C269 1.404 . S
C264 C257 1.448 . S
C264 C263 1.430 . S
C264 N268 1.351 . S
C265 C263 1.387 . S
C265 C266 1.374 . S
C265 H280 0.931 . S
C266 C260 1.439 . S
C266 C265 1.374 . S
C266 H281 0.931 . S
Eu267 N258 2.600 . S
Eu267 N268 2.562 . S
Eu267 O302 2.335 1_655 S
Eu267 O305 2.372 1_565 S
Eu267 O306 2.462 . S
Eu267 O307 2.373 . S
Eu267 O309 2.432 . S
Eu267 O310 2.291 1_655 S
Eu267 C331 2.787 . S
N268 C264 1.351 . S
N268 Eu267 2.562 . S
N268 C270 1.325 . S
C269 C263 1.404 . S
C269 C271 1.366 . S
C269 H277 0.930 . S
C270 N268 1.325 . S
C270 C271 1.416 . S
C270 H276 0.929 . S
C271 C269 1.366 . S
C271 C270 1.416 . S
C271 H273 0.930 . S
H272 C261 0.930 1_545 S
H273 C271 0.930 . S
H274 C289 0.930 . S
H275 C296 0.930 . S
H276 C270 0.929 . S
H277 C269 0.930 . S
H278 C292 0.929 . S
H279 C259 0.931 1_545 S
H280 C265 0.931 . S
H281 C266 0.931 . S
H282 C287 0.931 . S
H283 C262 0.929 . S
H284 C295 0.930 . S
N285 Eu256 2.600 . S
N285 C286 1.365 . S
N285 C289 1.319 . S
C286 N285 1.365 . S
C286 C288 1.405 . S
C286 C294 1.448 1_565 S
C287 H282 0.931 . S
C287 C289 1.397 . S
C287 C290 1.367 . S
C288 C286 1.405 . S
C288 C290 1.403 . S
C288 C321 1.439 1_565 S
C289 H274 0.930 . S
C289 N285 1.319 . S
C289 C287 1.397 . S
C290 C287 1.367 . S
C290 C288 1.403 . S
C290 H297 0.929 . S
N291 Eu256 2.562 1_545 S
N291 C292 1.325 . S
N291 C294 1.351 . S
C292 H278 0.929 . S
C292 N291 1.325 . S
C292 C296 1.416 . S
C293 C294 1.430 . S
C293 C295 1.404 . S
C293 C322 1.387 . S
C294 C286 1.448 1_545 S
C294 N291 1.351 . S
C294 C293 1.430 . S
C295 H284 0.930 . S
C295 C293 1.404 . S
C295 C296 1.366 . S
C296 H275 0.930 . S
C296 C292 1.416 . S
C296 C295 1.366 . S
H297 C290 0.929 . S
H298 C321 0.931 . S
H299 C322 0.931 . S
O300 Eu256 2.462 . S
O300 C320 1.252 . S
O301 Eu256 2.373 . S
O301 C312 1.249 1_565 S
O302 Eu267 2.335 1_455 S
O302 C312 1.264 1_565 S
O303 Eu256 2.432 . S
O303 C320 1.268 . S
O304 Eu256 2.286 1_655 S
O304 C319 1.262 1_565 S
O305 Eu267 2.372 1_545 S
O305 C319 1.257 . S
O306 Eu267 2.462 . S
O306 C331 1.252 . S
O307 Eu267 2.373 . S
O307 C323 1.249 . S
O308 Eu256 2.335 1_655 S
O308 C323 1.264 . S
O309 Eu267 2.432 . S
O309 C331 1.268 . S
O310 Eu267 2.291 1_455 S
O310 C330 1.255 . S
O311 Eu256 2.372 . S
O311 C330 1.257 . S
C312 O301 1.249 1_545 S
C312 O302 1.264 1_545 S
C313 C316 1.382 . S
C313 C318 1.390 . S
C313 C320 1.506 . S
C314 C315 1.398 . S
C314 C318 1.392 . S
C315 C314 1.398 . S
C315 C317 1.372 . S
C315 H332 0.931 . S
C316 C313 1.382 . S
C316 C317 1.390 . S
C316 H333 0.931 . S
C317 C315 1.372 . S
C317 C316 1.390 . S
C317 H334 0.929 . S
C318 C313 1.390 . S
C318 C314 1.392 . S
C318 H335 0.930 . S
C319 O304 1.262 1_545 S
C319 O305 1.257 . S
C320 Eu256 2.787 . S
C320 O300 1.252 . S
C320 O303 1.268 . S
C320 C313 1.506 . S
C321 C288 1.439 1_545 S
C321 H298 0.931 . S
C321 C322 1.374 . S
C322 C293 1.387 . S
C322 H299 0.931 . S
C322 C321 1.374 . S
C323 O307 1.249 . S
C323 O308 1.264 . S
C324 C327 1.382 1_565 S
C324 C328 1.390 . S
C324 C331 1.506 . S
C325 C326 1.398 1_556 S
C325 C328 1.392 . S
C326 C325 1.398 1_554 S
C326 C329 1.372 1_564 S
C326 H336 0.931 . S
C327 C324 1.382 1_545 S
C327 C329 1.390 . S
C327 H337 0.931 . S
C328 C324 1.390 . S
C328 C325 1.392 . S
C328 H338 0.930 . S
C329 C326 1.372 1_546 S
C329 C327 1.390 . S
C329 H339 0.929 . S
C330 O310 1.255 . S
C330 O311 1.257 . S
C331 Eu267 2.787 . S
C331 O306 1.252 . S
C331 O309 1.268 . S
C331 C324 1.506 . S
H332 C315 0.931 . S
H333 C316 0.931 . S
H334 C317 0.929 . S
H335 C318 0.930 . S
H336 C326 0.931 . S
H337 C327 0.931 . S
H338 C328 0.930 . S
H339 C329 0.929 . S
Eu340 N369 2.600 . S
Eu340 N375 2.562 . S
Eu340 O384 2.462 . S
Eu340 O385 2.373 . S
Eu340 O387 2.432 . S
Eu340 O388 2.291 . S
Eu340 O392 2.335 . S
Eu340 O395 2.372 . S
Eu340 C404 2.787 . S
C341 N342 1.365 . S
C341 C344 1.405 . S
C341 C348 1.448 . S
N342 C341 1.365 . S
N342 C345 1.319 . S
N342 Eu351 2.600 . S
C343 C345 1.397 . S
C343 C346 1.367 . S
C343 H363 0.931 . S
C344 C341 1.405 . S
C344 C346 1.403 . S
C344 C350 1.439 . S
C345 N342 1.319 . S
C345 C343 1.397 . S
C345 H356 0.930 . S
C346 C343 1.367 . S
C346 C344 1.403 . S
C346 H367 0.929 1_655 S
C347 C348 1.430 . S
C347 C349 1.387 . S
C347 C353 1.404 . S
C348 C341 1.448 . S
C348 C347 1.430 . S
C348 N352 1.351 . S
C349 C347 1.387 . S
C349 C350 1.374 . S
C349 H364 0.931 . S
C350 C344 1.439 . S
C350 C349 1.374 . S
C350 H365 0.931 1_655 S
Eu351 N342 2.600 . S
Eu351 N352 2.562 . S
Eu351 O386 2.335 . S
Eu351 O389 2.372 . S
Eu351 O390 2.462 . S
Eu351 O391 2.373 . S
Eu351 O393 2.432 . S
Eu351 O394 2.291 . S
Eu351 C415 2.787 . S
N352 C348 1.351 . S
N352 Eu351 2.562 . S
N352 C354 1.325 . S
C353 C347 1.404 . S
C353 C355 1.366 . S
C353 H361 0.930 . S
C354 N352 1.325 . S
C354 C355 1.416 . S
C354 H360 0.929 . S
C355 C353 1.366 . S
C355 C354 1.416 . S
C355 H357 0.930 . S
H356 C345 0.930 . S
H357 C355 0.930 . S
H358 C373 0.930 . S
H359 C380 0.930 . S
H360 C354 0.929 . S
H361 C353 0.930 . S
H362 C376 0.929 . S
H363 C343 0.931 . S
H364 C349 0.931 . S
H365 C350 0.931 1_455 S
H366 C371 0.931 . S
H367 C346 0.929 1_455 S
H368 C379 0.930 . S
N369 Eu340 2.600 . S
N369 C370 1.365 . S
N369 C373 1.319 . S
C370 N369 1.365 . S
C370 C372 1.405 . S
C370 C378 1.448 . S
C371 H366 0.931 . S
C371 C373 1.397 . S
C371 C374 1.367 . S
C372 C370 1.405 . S
C372 C374 1.403 . S
C372 C405 1.439 . S
C373 H358 0.930 . S
C373 N369 1.319 . S
C373 C371 1.397 . S
C374 C371 1.367 . S
C374 C372 1.403 . S
C374 H381 0.929 1_455 S
N375 Eu340 2.562 . S
N375 C376 1.325 . S
N375 C378 1.351 . S
C376 H362 0.929 . S
C376 N375 1.325 . S
C376 C380 1.416 . S
C377 C378 1.430 . S
C377 C379 1.404 . S
C377 C406 1.387 . S
C378 C370 1.448 . S
C378 N375 1.351 . S
C378 C377 1.430 . S
C379 H368 0.930 . S
C379 C377 1.404 . S
C379 C380 1.366 . S
C380 H359 0.930 . S
C380 C376 1.416 . S
C380 C379 1.366 . S
H381 C374 0.929 1_655 S
H382 C405 0.931 1_655 S
H383 C406 0.931 . S
O384 Eu340 2.462 . S
O384 C404 1.252 . S
O385 Eu340 2.373 . S
O385 C396 1.249 . S
O386 Eu351 2.335 . S
O386 C396 1.264 . S
O387 Eu340 2.432 . S
O387 C404 1.268 . S
O388 Eu340 2.291 . S
O388 C403 1.255 . S
O389 Eu351 2.372 . S
O389 C403 1.257 . S
O390 Eu351 2.462 . S
O390 C415 1.252 . S
O391 Eu351 2.373 . S
O391 C407 1.249 . S
O392 Eu340 2.335 . S
O392 C407 1.264 . S
O393 Eu351 2.432 . S
O393 C415 1.268 . S
O394 Eu351 2.291 . S
O394 C414 1.255 . S
O395 Eu340 2.372 . S
O395 C414 1.257 . S
C396 O385 1.249 . S
C396 O386 1.264 . S
C397 C400 1.382 . S
C397 C402 1.390 . S
C397 C404 1.506 . S
C398 C399 1.398 1_554 S
C398 C402 1.392 . S
C399 C398 1.398 1_556 S
C399 C401 1.372 1_556 S
C399 H416 0.931 . S
C400 C397 1.382 . S
C400 C401 1.390 . S
C400 H417 0.931 . S
C401 C399 1.372 1_554 S
C401 C400 1.390 . S
C401 H418 0.929 . S
C402 C397 1.390 . S
C402 C398 1.392 . S
C402 H419 0.930 . S
C403 O388 1.255 . S
C403 O389 1.257 . S
C404 Eu340 2.787 . S
C404 O384 1.252 . S
C404 O387 1.268 . S
C404 C397 1.506 . S
C405 C372 1.439 . S
C405 H382 0.931 1_455 S
C405 C406 1.374 . S
C406 C377 1.387 . S
C406 H383 0.931 . S
C406 C405 1.374 . S
C407 O391 1.249 . S
C407 O392 1.264 . S
C408 C411 1.382 . S
C408 C412 1.390 . S
C408 C415 1.506 . S
C409 C410 1.398 . S
C409 C412 1.392 . S
C410 C409 1.398 . S
C410 C413 1.372 . S
C410 H420 0.931 . S
C411 C408 1.382 . S
C411 C413 1.390 . S
C411 H421 0.931 . S
C412 C408 1.390 . S
C412 C409 1.392 . S
C412 H422 0.930 . S
C413 C410 1.372 . S
C413 C411 1.390 . S
C413 H423 0.929 . S
C414 O394 1.255 . S
C414 O395 1.257 . S
C415 Eu351 2.787 . S
C415 O390 1.252 . S
C415 O393 1.268 . S
C415 C408 1.506 . S
H416 C399 0.931 . S
H417 C400 0.931 . S
H418 C401 0.929 . S
H419 C402 0.930 . S
H420 C410 0.931 . S
H421 C411 0.931 . S
H422 C412 0.930 . S
H423 C413 0.929 . S
C73 C162 1.828 . S
C246 C84 2.046 . S
C239 C51 1.789 . S
C62 C155 2.056 1_565 S
C319 C29 1.666 . S
C403 C38 2.297 . S
C7 C396 1.659 . S
C16 C312 2.124 1_565 S
C146 C18 1.859 . S
C230 C5 1.588 . S
C241 C40 1.468 . S
C157 C27 1.388 . S
C325 C60 0.962 1_556 S
C49 C409 1.024 . S
C398 C82 1.344 1_554 S
C71 C314 1.220 . S
C144 C8 1.642 . S
C228 C19 1.763 . S
C30 C235 1.607 . S
C151 C41 1.802 . S
C323 C52 1.577 . S
C63 C407 1.703 . S
C74 C414 1.377 . S
C85 C330 1.512 . S
