# Generated by pormake.
# Topology soc, (4,6)-cn, num edge types: 1
# Building blocks:
#     Node 0, Type 0, BuildingBlock: ESEHIV_clean_sbu_0, # of connection points: 4
#     Node 1, Type 0, BuildingBlock: ESEHIV_clean_sbu_0, # of connection points: 4
#     Node 2, Type 0, BuildingBlock: ESEHIV_clean_sbu_0, # of connection points: 4
#     Node 3, Type 0, BuildingBlock: ESEHIV_clean_sbu_0, # of connection points: 4
#     Node 4, Type 0, BuildingBlock: ESEHIV_clean_sbu_0, # of connection points: 4
#     Node 5, Type 0, BuildingBlock: ESEHIV_clean_sbu_0, # of connection points: 4
#     Node 6, Type 0, BuildingBlock: ESEHIV_clean_sbu_0, # of connection points: 4
#     Node 7, Type 0, BuildingBlock: ESEHIV_clean_sbu_0, # of connection points: 4
#     Node 8, Type 0, BuildingBlock: ESEHIV_clean_sbu_0, # of connection points: 4
#     Node 9, Type 0, BuildingBlock: ESEHIV_clean_sbu_0, # of connection points: 4
#     Node 10, Type 0, BuildingBlock: ESEHIV_clean_sbu_0, # of connection points: 4
#     Node 11, Type 0, BuildingBlock: ESEHIV_clean_sbu_0, # of connection points: 4
#     Node 12, Type 1, BuildingBlock: KUMJIN_clean_sbu_0, # of connection points: 6
#     Node 13, Type 1, BuildingBlock: KUMJIN_clean_sbu_0, # of connection points: 6
#     Node 14, Type 1, BuildingBlock: KUMJIN_clean_sbu_0, # of connection points: 6
#     Node 15, Type 1, BuildingBlock: KUMJIN_clean_sbu_0, # of connection points: 6
#     Node 16, Type 1, BuildingBlock: KUMJIN_clean_sbu_0, # of connection points: 6
#     Node 17, Type 1, BuildingBlock: KUMJIN_clean_sbu_0, # of connection points: 6
#     Node 18, Type 1, BuildingBlock: KUMJIN_clean_sbu_0, # of connection points: 6
#     Node 19, Type 1, BuildingBlock: KUMJIN_clean_sbu_0, # of connection points: 6
#     Edge 20, Type (0, 1), BuildingBlock: XUDNAN_clean_linker_2, # of connection points: 2
#     Edge 21, Type (0, 1), BuildingBlock: XUDNAN_clean_linker_2, # of connection points: 2
#     Edge 22, Type (0, 1), BuildingBlock: XUDNAN_clean_linker_2, # of connection points: 2
#     Edge 23, Type (0, 1), BuildingBlock: XUDNAN_clean_linker_2, # of connection points: 2
#     Edge 24, Type (0, 1), BuildingBlock: XUDNAN_clean_linker_2, # of connection points: 2
#     Edge 25, Type (0, 1), BuildingBlock: XUDNAN_clean_linker_2, # of connection points: 2
#     Edge 26, Type (0, 1), BuildingBlock: XUDNAN_clean_linker_2, # of connection points: 2
#     Edge 27, Type (0, 1), BuildingBlock: XUDNAN_clean_linker_2, # of connection points: 2
#     Edge 28, Type (0, 1), BuildingBlock: XUDNAN_clean_linker_2, # of connection points: 2
#     Edge 29, Type (0, 1), BuildingBlock: XUDNAN_clean_linker_2, # of connection points: 2
#     Edge 30, Type (0, 1), BuildingBlock: XUDNAN_clean_linker_2, # of connection points: 2
#     Edge 31, Type (0, 1), BuildingBlock: XUDNAN_clean_linker_2, # of connection points: 2
#     Edge 32, Type (0, 1), BuildingBlock: XUDNAN_clean_linker_2, # of connection points: 2
#     Edge 33, Type (0, 1), BuildingBlock: XUDNAN_clean_linker_2, # of connection points: 2
#     Edge 34, Type (0, 1), BuildingBlock: XUDNAN_clean_linker_2, # of connection points: 2
#     Edge 35, Type (0, 1), BuildingBlock: XUDNAN_clean_linker_2, # of connection points: 2
#     Edge 36, Type (0, 1), BuildingBlock: XUDNAN_clean_linker_2, # of connection points: 2
#     Edge 37, Type (0, 1), BuildingBlock: XUDNAN_clean_linker_2, # of connection points: 2
#     Edge 38, Type (0, 1), BuildingBlock: XUDNAN_clean_linker_2, # of connection points: 2
#     Edge 39, Type (0, 1), BuildingBlock: XUDNAN_clean_linker_2, # of connection points: 2
#     Edge 40, Type (0, 1), BuildingBlock: XUDNAN_clean_linker_2, # of connection points: 2
#     Edge 41, Type (0, 1), BuildingBlock: XUDNAN_clean_linker_2, # of connection points: 2
#     Edge 42, Type (0, 1), BuildingBlock: XUDNAN_clean_linker_2, # of connection points: 2
#     Edge 43, Type (0, 1), BuildingBlock: XUDNAN_clean_linker_2, # of connection points: 2
#     Edge 44, Type (0, 1), BuildingBlock: XUDNAN_clean_linker_2, # of connection points: 2
#     Edge 45, Type (0, 1), BuildingBlock: XUDNAN_clean_linker_2, # of connection points: 2
#     Edge 46, Type (0, 1), BuildingBlock: XUDNAN_clean_linker_2, # of connection points: 2
#     Edge 47, Type (0, 1), BuildingBlock: XUDNAN_clean_linker_2, # of connection points: 2
#     Edge 48, Type (0, 1), BuildingBlock: XUDNAN_clean_linker_2, # of connection points: 2
#     Edge 49, Type (0, 1), BuildingBlock: XUDNAN_clean_linker_2, # of connection points: 2
#     Edge 50, Type (0, 1), BuildingBlock: XUDNAN_clean_linker_2, # of connection points: 2
#     Edge 51, Type (0, 1), BuildingBlock: XUDNAN_clean_linker_2, # of connection points: 2
#     Edge 52, Type (0, 1), BuildingBlock: XUDNAN_clean_linker_2, # of connection points: 2
#     Edge 53, Type (0, 1), BuildingBlock: XUDNAN_clean_linker_2, # of connection points: 2
#     Edge 54, Type (0, 1), BuildingBlock: XUDNAN_clean_linker_2, # of connection points: 2
#     Edge 55, Type (0, 1), BuildingBlock: XUDNAN_clean_linker_2, # of connection points: 2
#     Edge 56, Type (0, 1), BuildingBlock: XUDNAN_clean_linker_2, # of connection points: 2
#     Edge 57, Type (0, 1), BuildingBlock: XUDNAN_clean_linker_2, # of connection points: 2
#     Edge 58, Type (0, 1), BuildingBlock: XUDNAN_clean_linker_2, # of connection points: 2
#     Edge 59, Type (0, 1), BuildingBlock: XUDNAN_clean_linker_2, # of connection points: 2
#     Edge 60, Type (0, 1), BuildingBlock: XUDNAN_clean_linker_2, # of connection points: 2
#     Edge 61, Type (0, 1), BuildingBlock: XUDNAN_clean_linker_2, # of connection points: 2
#     Edge 62, Type (0, 1), BuildingBlock: XUDNAN_clean_linker_2, # of connection points: 2
#     Edge 63, Type (0, 1), BuildingBlock: XUDNAN_clean_linker_2, # of connection points: 2
#     Edge 64, Type (0, 1), BuildingBlock: XUDNAN_clean_linker_2, # of connection points: 2
#     Edge 65, Type (0, 1), BuildingBlock: XUDNAN_clean_linker_2, # of connection points: 2
#     Edge 66, Type (0, 1), BuildingBlock: XUDNAN_clean_linker_2, # of connection points: 2
#     Edge 67, Type (0, 1), BuildingBlock: XUDNAN_clean_linker_2, # of connection points: 2
# Relax obj value: 0.068
# Max RMSD: 0.200
# Mean RMSD: 0.141
data_MOF--net-soc--node1-ESEHIV_clean_sbu_0--node2-KUMJIN_clean_sbu_0--edge1-XUDNAN_clean_linker_2
_symmetry_space_group_name_H-M    P1
_symmetry_Int_Tables_number       1
_symmetry_cell_setting            triclinic
loop_
_symmetry_equiv_pos_as_xyz
'x, y, z'
_cell_length_a     52.269739
_cell_length_b     49.945668
_cell_length_c     41.897118
_cell_angle_alpha  83.715259
_cell_angle_beta   82.68434
_cell_angle_gamma 73.433453
loop_
_atom_site_label
_atom_site_type_symbol
_atom_site_fract_x
_atom_site_fract_y
_atom_site_fract_z
_atom_type_partial_charge
Cu0 Cu 0.04677 0.04578 0.35287 0.0
N1 N 0.05887 0.06549 0.38024 0.0
N2 N 0.07686 0.09652 0.39629 0.0
C3 C 0.07429 0.083 0.37124 0.0
C4 C 0.06272 0.08698 0.42199 0.0
C5 C 0.05157 0.06794 0.412 0.0
O6 O 0.07811 0.02249 0.32777 0.0
C7 C 1.00011 0.08947 0.34879 0.0
O8 O 1.00124 0.08525 0.38012 0.0
H9 H 0.08236 0.08671 0.34657 0.0
H10 H 0.03795 0.05778 0.42661 0.0
N11 N 0.03149 0.01957 0.37659 0.0
N12 N 1.01404 0.98326 0.3845 0.0
C13 C 1.01688 0.00555 0.36456 0.0
C14 C 0.0381 0.00567 0.40507 0.0
C15 C 0.02718 0.98339 0.41013 0.0
C16 C 0.09689 0.00766 0.34439 0.0
O17 O 0.09497 0.01133 0.37525 0.0
H18 H 1.01039 0.01026 0.34054 0.0
H19 H 0.05166 0.00996 0.41996 0.0
O20 O 1.01842 0.07367 0.33044 0.0
H21 H 0.06017 0.09368 0.44618 0.0
H22 H 0.02974 0.96779 0.43041 0.0
Cu23 Cu 0.04671 0.04499 0.75884 0.0
N24 N 0.03099 0.02734 0.73354 0.0
N25 N 1.00477 1.00202 0.7229 0.0
C26 C 1.01251 0.01416 0.74573 0.0
C27 C 1.01894 0.0081 0.69509 0.0
C28 C 0.03516 0.02379 0.70177 0.0
O29 O 1.0169 0.07348 0.78013 0.0
C30 C 0.08747 0.99591 0.76661 0.0
O31 O 0.08462 0.99724 0.73575 0.0
H32 H 1.00489 0.01379 0.77096 0.0
H33 H 0.04931 0.03155 0.68487 0.0
N34 N 0.06849 0.06439 0.73435 0.0
N35 N 0.1009 0.08559 0.72486 0.0
C36 C 0.0899 0.06852 0.74547 0.0
C37 C 0.06569 0.07959 0.70576 0.0
C38 C 0.0858 0.09293 0.6999 0.0
C39 C 1.00059 0.08945 0.76104 0.0
O40 O 1.00472 0.08503 0.73026 0.0
H41 H 0.09658 0.06017 0.76889 0.0
H42 H 0.04962 0.08177 0.69094 0.0
O43 O 0.07175 0.01502 0.78365 0.0
H44 H 1.01813 1.00128 0.6717 0.0
H45 H 0.08851 0.10768 0.67969 0.0
Cu46 Cu 0.28029 0.06549 0.09993 0.0
N47 N 0.24989 0.05973 0.08577 0.0
N48 N 0.2266 0.03465 0.06721 0.0
C49 C 0.24695 0.03407 0.0842 0.0
C50 C 0.21625 0.06174 0.05732 0.0
C51 C 0.23049 0.07727 0.06913 0.0
O52 O 0.29993 0.02769 0.11877 0.0
C53 C 0.28548 0.10861 0.05352 0.0
O54 O 0.26351 0.12066 0.07129 0.0
H55 H 0.26105 0.01498 0.09264 0.0
H56 H 0.2278 0.09948 0.064 0.0
N57 N 0.27045 0.09079 0.13248 0.0
N58 N 0.27072 0.12431 0.16362 0.0
C59 C 0.28338 0.10932 0.13845 0.0
C60 C 0.24873 0.09466 0.15435 0.0
C61 C 0.24901 0.11512 0.17382 0.0
C62 C 0.28882 0.01691 0.14419 0.0
O63 O 0.26621 0.0322 0.15797 0.0
H64 H 0.30158 0.11188 0.12456 0.0
H65 H 0.23355 0.08358 0.15581 0.0
O66 O 0.29805 0.08327 0.06187 0.0
H67 H 0.20059 0.06948 0.04133 0.0
H68 H 0.23411 0.12313 0.19341 0.0
Cu69 Cu 0.06896 0.29926 0.09707 0.0
N70 N 0.08546 0.31994 0.0645 0.0
N71 N 0.11589 0.3246 0.02247 0.0
C72 C 0.10587 0.30674 0.04365 0.0
C73 C 0.10056 0.35034 0.02994 0.0
C74 C 0.08184 0.34742 0.05585 0.0
O75 O 0.09435 0.28804 0.13145 0.0
C76 C 0.04196 0.2603 0.07619 0.0
O77 O 0.03434 0.25346 0.10631 0.0
H78 H 0.11319 0.28416 0.04419 0.0
H79 H 0.06693 0.36412 0.06766 0.0
N80 N 0.03638 0.3184 0.12044 0.0
N81 N 0.99601 0.32151 0.1487 0.0
C82 C 1.01128 0.31552 0.12028 0.0
C83 C 0.03627 0.32728 0.14973 0.0
C84 C 1.01165 0.3291 0.16709 0.0
C85 C 0.12003 0.28253 0.12928 0.0
O86 O 0.13402 0.27632 0.10147 0.0
H87 H 1.00488 0.30722 0.10084 0.0
H88 H 0.05374 0.32975 0.15904 0.0
O89 O 0.05915 0.27437 0.07006 0.0
H90 H 0.10308 0.36995 0.01816 0.0
H91 H 1.00596 0.33465 0.19178 0.0
Cu92 Cu 0.80593 0.01116 0.99412 0.0
N93 N 0.82405 0.03095 0.96349 0.0
N94 N 0.83165 0.06751 0.9319 0.0
C95 C 0.81542 0.05878 0.95587 0.0
C96 C 0.85133 0.04421 0.92433 0.0
C97 C 0.84657 0.02169 0.94383 0.0
O98 O 0.78957 0.03783 0.02666 0.0
C99 C 0.79537 0.97086 0.95999 0.0
O100 O 0.8207 0.95903 0.96417 0.0
H101 H 0.79699 0.07212 0.96685 0.0
H102 H 0.85827 1.00005 0.94308 0.0
N103 N 0.82843 0.98161 0.01701 0.0
N104 N 0.83906 0.94586 0.05405 0.0
C105 C 0.81918 0.96654 0.04203 0.0
C106 C 0.85519 0.97035 0.01325 0.0
C107 C 0.86179 0.94805 0.03604 0.0
C108 C 0.80752 0.04447 0.03975 0.0
O109 O 0.83293 0.03343 0.03026 0.0
H110 H 0.79813 0.97023 0.05059 0.0
H111 H 0.86887 0.97761 0.99518 0.0
O112 O 0.78377 0.99463 0.97142 0.0
H113 H 0.86778 0.04337 0.90559 0.0
H114 H 0.88171 0.93452 0.03914 0.0
Cu115 Cu 0.03229 0.78041 0.02148 0.0
N116 N 1.01142 0.77516 0.99021 0.0
N117 N 0.97894 0.77638 0.95927 0.0
C118 C 0.98739 0.79013 0.98031 0.0
C119 C 0.99845 0.75224 0.9557 0.0
C120 C 1.01825 0.75157 0.97466 0.0
O121 O 1.01602 0.76884 0.06609 0.0
C122 C 0.07782 0.77821 0.97426 0.0
O123 O 0.05751 0.7924 0.95826 0.0
H124 H 0.97601 0.81014 0.98904 0.0
H125 H 0.03637 0.73474 0.9774 0.0
N126 N 0.02861 0.8176 0.0281 0.0
N127 N 0.04345 0.84069 0.06151 0.0
C128 C 0.05011 0.82312 0.0377 0.0
C129 C 1.00732 0.83359 0.04535 0.0
C130 C 1.01642 0.84772 0.06609 0.0
C131 C 0.9934 0.76262 0.07238 0.0
O132 O 0.98238 0.75676 0.04853 0.0
H133 H 0.07032 0.81001 0.03252 0.0
H134 H 0.98729 0.83106 0.04732 0.0
O135 O 0.07204 0.76796 1.00316 0.0
H136 H 0.9985 0.73621 0.94024 0.0
H137 H 1.0044 0.85907 0.0859 0.0
Cu138 Cu 0.54333 0.54178 0.84423 0.0
N139 N 0.55647 0.56182 0.8694 0.0
N140 N 0.58249 0.58684 0.88094 0.0
C141 C 0.57671 0.57288 0.85846 0.0
C142 C 0.56513 0.58464 0.90717 0.0
C143 C 0.54913 0.56883 0.90003 0.0
O144 O 0.57615 0.51779 0.82228 0.0
C145 C 0.49701 0.58473 0.83898 0.0
O146 O 0.49793 0.58011 0.87032 0.0
H147 H 0.58674 0.57102 0.83421 0.0
H148 H 0.53328 0.56296 0.91591 0.0
N149 N 0.52631 0.51881 0.87051 0.0
N150 N 0.49839 0.49254 0.88456 0.0
C151 C 0.50379 0.51346 0.86439 0.0
C152 C 0.53547 0.50091 0.89554 0.0
C153 C 0.51822 0.48441 0.90421 0.0
C154 C 0.58093 0.49148 0.81983 0.0
O155 O 0.561 0.47991 0.82454 0.0
H156 H 0.4928 0.52318 0.84397 0.0
H157 H 0.55415 0.4989 0.90536 0.0
O158 O 0.51574 0.56949 0.82057 0.0
H159 H 0.56435 0.59345 0.92987 0.0
H160 H 0.5207 0.46699 0.92243 0.0
Cu161 Cu 0.55064 0.5484 0.26 0.0
N162 N 0.53447 0.52876 0.23778 0.0
N163 N 0.50736 0.50277 0.23206 0.0
C164 C 0.51363 0.51948 0.25118 0.0
C165 C 0.52495 0.50184 0.20531 0.0
C166 C 0.54167 0.51791 0.20893 0.0
O167 O 0.52067 0.57642 0.28159 0.0
C168 C 0.59388 0.50277 0.26848 0.0
O169 O 0.59311 0.50578 0.23708 0.0
H170 H 0.50381 0.52455 0.27493 0.0
H171 H 0.55862 0.52031 0.19236 0.0
N172 N 0.57184 0.56632 0.23219 0.0
N173 N 0.60527 0.58563 0.2178 0.0
C174 C 0.59117 0.57496 0.2424 0.0
C175 C 0.57352 0.57181 0.19993 0.0
C176 C 0.59443 0.58371 0.19089 0.0
C177 C 0.51493 0.60263 0.27261 0.0
O178 O 0.53195 0.61229 0.2521 0.0
H179 H 0.59509 0.57293 0.26744 0.0
H180 H 0.56061 0.56748 0.18415 0.0
O181 O 0.57606 0.52004 0.28577 0.0
H182 H 0.52649 0.48958 0.18507 0.0
H183 H 0.6009 0.59074 0.16665 0.0
Cu184 Cu 0.77645 0.5784 0.59846 0.0
N185 N 0.75412 0.6001 0.56844 0.0
N186 N 0.75025 0.63005 0.52437 0.0
C187 C 0.75872 0.62395 0.55408 0.0
C188 C 0.73924 0.60951 0.52005 0.0
C189 C 0.74163 0.59103 0.54734 0.0
O190 O 0.79059 0.60507 0.61765 0.0
C191 C 0.80688 0.55111 0.54299 0.0
O192 O 0.80404 0.57587 0.52739 0.0
H193 H 0.77168 0.6342 0.56317 0.0
H194 H 0.73785 0.57068 0.54972 0.0
N195 N 0.75946 0.55764 0.6298 0.0
N196 N 0.75584 0.51809 0.65876 0.0
C197 C 0.76655 0.52946 0.63144 0.0
C198 C 0.74333 0.56462 0.65708 0.0
C199 C 0.74113 0.54019 0.67509 0.0
C200 C 0.79412 0.60546 0.64721 0.0
O201 O 0.79218 0.58404 0.66759 0.0
H202 H 0.78089 0.51745 0.61379 0.0
H203 H 0.73505 0.58578 0.66424 0.0
O204 O 0.80135 0.54916 0.57352 0.0
H205 H 0.73213 0.60672 0.49782 0.0
H206 H 0.73025 0.53887 0.6987 0.0
Cu207 Cu 0.56554 0.80428 0.58876 0.0
N208 N 0.59515 0.79876 0.55414 0.0
N209 N 0.62816 0.79848 0.51192 0.0
C210 C 0.61584 0.78264 0.53464 0.0
C211 C 0.61446 0.82502 0.51769 0.0
C212 C 0.59525 0.82497 0.54275 0.0
O213 O 0.58003 0.82196 0.61886 0.0
C214 C 0.53537 0.80875 0.54363 0.0
O215 O 0.55053 0.78276 0.5466 0.0
H216 H 0.62166 0.75997 0.53693 0.0
H217 H 0.58154 0.84362 0.55232 0.0
N218 N 0.54323 0.78326 0.61584 0.0
N219 N 0.50459 0.78 0.64728 0.0
C220 C 0.51586 0.79333 0.62135 0.0
C221 C 0.54936 0.76277 0.63969 0.0
C222 C 0.52597 0.76067 0.65865 0.0
C223 C 0.59941 0.80457 0.63234 0.0
O224 O 0.60554 0.77811 0.62624 0.0
H225 H 0.50452 0.81157 0.60779 0.0
H226 H 0.56953 0.75113 0.64441 0.0
O227 O 0.53813 0.82622 0.56212 0.0
H228 H 0.61754 0.84394 0.50484 0.0
H229 H 0.52506 0.74635 0.67982 0.0
Cu230 Cu 0.31194 0.51139 0.50895 0.0
N231 N 0.32513 0.53556 0.47611 0.0
N232 N 0.32417 0.57722 0.44762 0.0
C233 C 0.31095 0.56259 0.46979 0.0
C234 C 0.34782 0.55828 0.43959 0.0
C235 C 0.34844 0.53285 0.45722 0.0
O236 O 0.30363 0.53512 0.54464 0.0
C237 C 0.29512 0.4863 0.46475 0.0
O238 O 0.31837 0.48881 0.45085 0.0
H239 H 0.29119 0.57134 0.48179 0.0
H240 H 0.36495 0.51397 0.45675 0.0
N241 N 0.33278 0.47748 0.52842 0.0
N242 N 0.34085 0.44232 0.56761 0.0
C243 C 0.32236 0.46422 0.5547 0.0
C244 C 0.35886 0.46321 0.52427 0.0
C245 C 0.3639 0.44172 0.54854 0.0
C246 C 0.32604 0.53797 0.55084 0.0
O247 O 0.34827 0.52388 0.53503 0.0
H248 H 0.30186 0.47165 0.56536 0.0
H249 H 0.3734 0.46885 0.50601 0.0
O250 O 0.28571 0.49767 0.49124 0.0
H251 H 0.36397 0.56257 0.42285 0.0
H252 H 0.38328 0.42732 0.55252 0.0
Cu253 Cu 0.51828 0.29315 0.51933 0.0
N254 N 0.5483 0.28138 0.48708 0.0
N255 N 0.58804 0.28004 0.4573 0.0
C256 C 0.57521 0.27776 0.48745 0.0
C257 C 0.56879 0.28529 0.43727 0.0
C258 C 0.54473 0.28614 0.45536 0.0
O259 O 0.53035 0.3159 0.54724 0.0
C260 C 0.48118 0.28561 0.48313 0.0
O261 O 0.49899 0.26118 0.48706 0.0
H262 H 0.58504 0.27581 0.50907 0.0
H263 H 0.5255 0.29246 0.44581 0.0
N264 N 0.50598 0.26827 0.55155 0.0
N265 N 0.47823 0.25968 0.59493 0.0
C266 C 0.48211 0.27759 0.56934 0.0
C267 C 0.51754 0.24311 0.56633 0.0
C268 C 0.50058 0.23791 0.59317 0.0
C269 C 0.54863 0.3003 0.56419 0.0
O270 O 0.55695 0.27343 0.56009 0.0
H271 H 0.46835 0.298 0.56444 0.0
H272 H 0.53739 0.23005 0.55917 0.0
O273 O 0.48561 0.30652 0.49474 0.0
H274 H 0.57175 0.28933 0.41134 0.0
H275 H 0.50451 0.21967 0.61023 0.0
Eu276 Eu 0.27305 0.28107 0.34487 0.0
C277 C 0.32054 0.31285 0.20852 0.0
C278 C 0.36132 0.27449 0.20466 0.0
C279 C 0.34135 0.29727 0.15597 0.0
C280 C 0.34074 0.29282 0.2234 0.0
C281 C 0.32077 0.31533 0.17462 0.0
C282 C 0.36151 0.27685 0.17095 0.0
C283 C 0.28008 0.35329 0.17985 0.0
N284 N 0.30022 0.32926 0.22714 0.0
C285 C 0.28054 0.34991 0.21331 0.0
C286 C 0.30018 0.3358 0.16041 0.0
Eu287 Eu 0.30329 0.32278 0.28345 0.0
N288 N 0.33976 0.29053 0.25614 0.0
C289 C 0.35921 0.27084 0.27148 0.0
C290 C 0.38096 0.25403 0.22035 0.0
C291 C 0.37989 0.25223 0.25389 0.0
H292 H 0.26519 0.36385 0.2283 0.0
H293 H 0.39489 0.23637 0.26628 0.0
H294 H 0.37713 0.26291 0.15623 0.0
H295 H 0.2643 0.36947 0.16908 0.0
H296 H 0.35854 0.26848 0.29738 0.0
H297 H 0.18197 0.36849 0.36151 0.0
H298 H 0.39696 0.23946 0.2068 0.0
H299 H 0.30934 0.23876 0.40022 0.0
H300 H 0.21883 0.33696 0.33061 0.0
H301 H 0.309 0.23174 0.45954 0.0
H302 H 0.34178 0.2988 0.12993 0.0
H303 H 0.17827 0.36382 0.4211 0.0
H304 H 0.19663 0.33891 0.4719 0.0
H305 H 0.29973 0.33837 0.13445 0.0
H306 H 0.23117 0.30217 0.49848 0.0
N307 N 0.23635 0.31344 0.37199 0.0
C308 C 0.21747 0.3338 0.35651 0.0
C309 C 0.19451 0.34946 0.40761 0.0
C310 C 0.21362 0.32846 0.42343 0.0
C311 C 0.1965 0.35215 0.37401 0.0
C312 C 0.23455 0.31045 0.40476 0.0
H313 H 0.27316 0.26244 0.49414 0.0
N314 N 0.27494 0.27397 0.40129 0.0
C315 C 0.29367 0.24843 0.44872 0.0
C316 C 0.25435 0.2901 0.4198 0.0
C317 C 0.29395 0.25264 0.41519 0.0
C318 C 0.27334 0.26571 0.46813 0.0
C319 C 0.25327 0.28674 0.45378 0.0
O320 O 0.27908 0.23613 0.35223 0.0
O321 O 0.29194 0.28312 0.29482 0.0
O322 O 0.2659 0.31836 0.26276 0.0
O323 O 0.24398 0.29665 0.30552 0.0
O324 O 0.30746 0.24721 0.32276 0.0
O325 O 0.23892 0.26352 0.34753 0.0
O326 O 0.29824 0.36746 0.27355 0.0
O327 O 0.28464 0.32098 0.33377 0.0
O328 O 0.31091 0.28348 0.3651 0.0
O329 O 0.33195 0.30785 0.324 0.0
O330 O 0.26892 0.35662 0.30517 0.0
O331 O 0.3379 0.33949 0.28062 0.0
C332 C 0.30689 0.25843 0.2935 0.0
C333 C 0.2429 0.21982 0.37786 0.0
C334 C 0.20831 0.1967 0.39717 0.0
C335 C 0.2185 0.2146 0.37431 0.0
C336 C 0.22244 0.184 0.42363 0.0
C337 C 0.25724 0.20643 0.40408 0.0
C338 C 0.2469 0.18882 0.42697 0.0
C339 C 0.24527 0.30888 0.27578 0.0
C340 C 0.25367 0.23784 0.35298 0.0
C341 C 0.23228 0.3044 0.47236 0.0
C342 C 0.21257 0.32527 0.45723 0.0
C343 C 0.26968 0.34575 0.3346 0.0
C344 C 0.33571 0.38189 0.24842 0.0
C345 C 0.35732 0.39081 0.25526 0.0
C346 C 0.3678 0.40904 0.23301 0.0
C347 C 0.35683 0.41757 0.20333 0.0
C348 C 0.32493 0.39075 0.21882 0.0
C349 C 0.33568 0.40822 0.19625 0.0
C350 C 0.3311 0.29401 0.35306 0.0
C351 C 0.32374 0.36515 0.27359 0.0
H352 H 0.2075 0.22438 0.35384 0.0
H353 H 0.21466 0.17013 0.44147 0.0
H354 H 0.27662 0.20906 0.40671 0.0
H355 H 0.25798 0.17867 0.44715 0.0
H356 H 0.36563 0.38385 0.27815 0.0
H357 H 0.36402 0.4321 0.18587 0.0
H358 H 0.30781 0.38496 0.21334 0.0
H359 H 0.32713 0.41511 0.17354 0.0
Eu360 Eu 0.80982 0.31136 0.33566 0.0
C361 C 0.72321 0.27608 0.2871 0.0
C362 C 0.7221 0.23488 0.32327 0.0
C363 C 0.68159 0.26279 0.30031 0.0
C364 C 0.73619 0.25339 0.30689 0.0
C365 C 0.69595 0.28041 0.28284 0.0
C366 C 0.6946 0.24013 0.32054 0.0
C367 C 0.70013 0.31615 0.24034 0.0
N368 N 0.73769 0.29246 0.26995 0.0
C369 C 0.727 0.31119 0.24544 0.0
C370 C 0.68431 0.30126 0.25974 0.0
Eu371 Eu 0.78378 0.27997 0.27778 0.0
N372 N 0.7628 0.24872 0.30917 0.0
C373 C 0.77681 0.22535 0.32607 0.0
C374 C 0.73621 0.21118 0.34125 0.0
C375 C 0.76375 0.20626 0.34238 0.0
H376 H 0.73951 0.32204 0.22966 0.0
H377 H 0.77491 0.18784 0.3559 0.0
H378 H 0.68339 0.22633 0.33325 0.0
H379 H 0.69189 0.33084 0.22086 0.0
H380 H 0.79808 0.22123 0.32699 0.0
H381 H 0.81078 0.4044 0.25032 0.0
H382 H 0.72611 0.1964 0.35402 0.0
H383 H 0.85937 0.27015 0.37708 0.0
H384 H 0.79103 0.3696 0.27895 0.0
H385 H 0.90644 0.26567 0.38291 0.0
H386 H 0.66057 0.26599 0.29756 0.0
H387 H 0.85788 0.40214 0.2548 0.0
H388 H 0.90044 0.3787 0.27864 0.0
H389 H 0.66352 0.30498 0.25552 0.0
H390 H 0.92624 0.34135 0.31432 0.0
N391 N 0.82605 0.34644 0.30217 0.0
C392 C 0.81127 0.36787 0.28291 0.0
C393 C 0.84923 0.38642 0.2681 0.0
C394 C 0.86441 0.36474 0.28755 0.0
C395 C 0.82262 0.38788 0.26569 0.0
C396 C 0.8524 0.34444 0.30416 0.0
H397 H 0.92916 0.29864 0.35169 0.0
N398 N 0.85619 0.30267 0.33893 0.0
C399 C 0.89603 0.28123 0.36546 0.0
C400 C 0.86765 0.32227 0.32308 0.0
C401 C 0.86947 0.2834 0.36134 0.0
C402 C 0.90865 0.30005 0.34803 0.0
C403 C 0.89434 0.32128 0.32722 0.0
O404 O 0.81115 0.30301 0.38812 0.0
O405 O 0.78299 0.28368 0.33101 0.0
O406 O 0.75516 0.32397 0.2849 0.0
O407 O 0.77336 0.34484 0.32045 0.0
O408 O 0.7682 0.31621 0.36145 0.0
O409 O 0.81399 0.34316 0.36439 0.0
O410 O 0.78594 0.27623 0.22584 0.0
O411 O 0.8181 0.29643 0.28563 0.0
O412 O 0.83279 0.26446 0.33758 0.0
O413 O 0.82345 0.2503 0.2904 0.0
O414 O 0.79999 0.31083 0.24335 0.0
O415 O 0.79591 0.23881 0.25771 0.0
C416 C 0.76293 0.29565 0.35019 0.0
C417 C 0.79707 0.34359 0.41944 0.0
C418 C 0.78858 0.384 0.45217 0.0
C419 C 0.80011 0.37009 0.42394 0.0
C420 C 0.77296 0.3709 0.47525 0.0
C421 C 0.78116 0.33144 0.44269 0.0
C422 C 0.76902 0.3452 0.47024 0.0
C423 C 0.75469 0.34521 0.30168 0.0
C424 C 0.81267 0.32823 0.39176 0.0
C425 C 0.9058 0.34189 0.31136 0.0
C426 C 0.89108 0.3632 0.29111 0.0
C427 C 0.81992 0.3106 0.25886 0.0
C428 C 0.77747 0.23552 0.20979 0.0
C429 C 0.79086 0.2111 0.19386 0.0
C430 C 0.77678 0.19946 0.17499 0.0
C431 C 0.74933 0.21209 0.17274 0.0
C432 C 0.74995 0.24729 0.20732 0.0
C433 C 0.73601 0.23572 0.189 0.0
C434 C 0.83782 0.2463 0.31515 0.0
C435 C 0.79228 0.24893 0.22819 0.0
H436 H 0.81192 0.37949 0.40537 0.0
H437 H 0.76426 0.37988 0.4978 0.0
H438 H 0.77846 0.31114 0.43992 0.0
H439 H 0.75704 0.3355 0.48832 0.0
H440 H 0.81206 0.20151 0.1957 0.0
H441 H 0.73802 0.20331 0.1588 0.0
H442 H 0.73906 0.26556 0.21926 0.0
H443 H 0.71479 0.24516 0.18737 0.0
Eu444 Eu 0.79394 0.76694 0.27087 0.0
C445 C 0.80967 0.81506 0.38767 0.0
C446 C 0.77037 0.8552 0.38776 0.0
C447 C 0.78874 0.83507 0.43817 0.0
C448 C 0.79011 0.83444 0.37106 0.0
C449 C 0.80933 0.81553 0.42135 0.0
C450 C 0.76951 0.85504 0.42138 0.0
C451 C 0.8519 0.78002 0.41898 0.0
N452 N 0.83017 0.79727 0.37071 0.0
C453 C 0.85171 0.78069 0.3856 0.0
C454 C 0.83045 0.79727 0.437 0.0
Eu455 Eu 0.82865 0.80075 0.31428 0.0
N456 N 0.792 0.83489 0.33834 0.0
C457 C 0.77494 0.8556 0.32099 0.0
C458 C 0.75271 0.87627 0.37006 0.0
C459 C 0.75502 0.87644 0.33654 0.0
H460 H 0.86846 0.76738 0.37171 0.0
H461 H 0.74153 0.8927 0.32261 0.0
H462 H 0.75444 0.87076 0.43457 0.0
H463 H 0.86865 0.76633 0.43073 0.0
H464 H 0.77639 0.85634 0.29516 0.0
H465 H 0.87425 0.66747 0.27727 0.0
H466 H 0.73738 0.89262 0.38201 0.0
H467 H 0.76631 0.80376 0.20414 0.0
H468 H 0.84336 0.70891 0.29845 0.0
H469 H 0.7733 0.80225 0.14564 0.0
H470 H 0.78812 0.83565 0.46403 0.0
H471 H 0.87918 0.66097 0.21911 0.0
H472 H 0.86665 0.67941 0.16411 0.0
H473 H 0.83082 0.79699 0.46283 0.0
H474 H 0.84167 0.71724 0.12821 0.0
N475 N 0.82876 0.72716 0.25325 0.0
C476 C 0.84417 0.70707 0.27319 0.0
C477 C 0.86509 0.6796 0.22835 0.0
C478 C 0.85014 0.7004 0.20773 0.0
C479 C 0.86234 0.68317 0.26114 0.0
C480 C 0.83221 0.72454 0.22086 0.0
H481 H 0.80804 0.76342 0.12093 0.0
N482 N 0.79993 0.76842 0.21343 0.0
C483 C 0.78631 0.78651 0.16065 0.0
C484 C 0.81791 0.7459 0.20048 0.0
C485 C 0.78293 0.78755 0.19407 0.0
C486 C 0.80584 0.76454 0.14686 0.0
C487 C 0.82125 0.74341 0.16677 0.0
O488 O 0.75452 0.77593 0.25654 0.0
O489 O 0.79149 0.78585 0.31739 0.0
O490 O 0.83041 0.75883 0.34306 0.0
O491 O 0.80329 0.73925 0.31784 0.0
O492 O 0.75659 0.79474 0.29775 0.0
O493 O 0.77503 0.7321 0.27087 0.0
O494 O 0.86752 0.80515 0.32425 0.0
O495 O 0.83158 0.78146 0.26745 0.0
O496 O 0.78884 0.81028 0.24615 0.0
O497 O 0.81812 0.8282 0.26822 0.0
O498 O 0.86458 0.76798 0.29213 0.0
O499 O 0.83851 0.84028 0.30255 0.0
C500 C 0.76642 0.79711 0.32359 0.0
C501 C 0.729 0.74376 0.25417 0.0
C502 C 0.70394 0.71121 0.24699 0.0
C503 C 0.72791 0.71612 0.25312 0.0
C504 C 0.68137 0.73384 0.24146 0.0
C505 C 0.70617 0.76618 0.24847 0.0
C506 C 0.68257 0.76118 0.24211 0.0
C507 C 0.81764 0.7395 0.3419 0.0
C508 C 0.7536 0.75007 0.2604 0.0
C509 C 0.83896 0.71944 0.15396 0.0
C510 C 0.85304 0.69783 0.17442 0.0
C511 C 0.85616 0.76724 0.26452 0.0
C512 C 0.86528 0.85092 0.33761 0.0
C513 C 0.89032 0.85634 0.33652 0.0
C514 C 0.89326 0.87667 0.35538 0.0
C515 C 0.87155 0.89064 0.37624 0.0
C516 C 0.84362 0.86572 0.35804 0.0
C517 C 0.84687 0.885 0.37769 0.0
C518 C 0.80182 0.82915 0.24634 0.0
C519 C 0.86118 0.83191 0.31541 0.0
H520 H 0.74537 0.69866 0.2572 0.0
H521 H 0.66283 0.73029 0.23638 0.0
H522 H 0.70646 0.78774 0.2489 0.0
H523 H 0.66516 0.77854 0.23768 0.0
H524 H 0.90704 0.84571 0.3202 0.0
H525 H 0.87366 0.90622 0.39105 0.0
H526 H 0.82391 0.86326 0.35804 0.0
H527 H 0.83001 0.89617 0.39338 0.0
Eu528 Eu 0.28392 0.78452 0.26853 0.0
C529 C 0.32249 0.87514 0.31978 0.0
C530 C 0.36001 0.87653 0.27966 0.0
C531 C 0.33803 0.91717 0.30974 0.0
C532 C 0.34246 0.86191 0.29695 0.0
C533 C 0.32051 0.90273 0.32683 0.0
C534 C 0.3575 0.90423 0.28596 0.0
C535 C 0.28562 0.89913 0.36936 0.0
N536 N 0.30591 0.86069 0.33626 0.0
C537 C 0.28861 0.87175 0.36193 0.0
C538 C 0.30143 0.91483 0.35149 0.0
Eu539 Eu 0.31443 0.81337 0.32461 0.0
N540 N 0.34515 0.8347 0.29206 0.0
C541 C 0.36516 0.82104 0.27032 0.0
C542 C 0.37998 0.86277 0.25688 0.0
C543 C 0.38258 0.83489 0.25228 0.0
H544 H 0.27681 0.85943 0.3765 0.0
H545 H 0.39797 0.82405 0.23469 0.0
H546 H 0.37083 0.91569 0.27291 0.0
H547 H 0.27139 0.90795 0.38917 0.0
H548 H 0.36739 0.79977 0.26553 0.0
H549 H 0.20459 0.76732 0.36086 0.0
H550 H 0.39364 0.87339 0.24295 0.0
H551 H 0.32104 0.74122 0.21345 0.0
H552 H 0.23072 0.79499 0.32671 0.0
H553 H 0.33075 0.69157 0.20199 0.0
H554 H 0.33668 0.93839 0.31474 0.0
H555 H 0.21478 0.71643 0.35591 0.0
H556 H 0.2415 0.67421 0.32755 0.0
H557 H 0.29928 0.93597 0.3575 0.0
H558 H 0.2755 0.6537 0.2843 0.0
N559 N 0.25598 0.76038 0.30179 0.0
C560 C 0.23534 0.773 0.32346 0.0
C561 C 0.22634 0.72856 0.34047 0.0
C562 C 0.24672 0.7159 0.31741 0.0
C563 C 0.22045 0.75728 0.34324 0.0
C564 C 0.2614 0.73256 0.29808 0.0
H565 H 0.30876 0.65994 0.23751 0.0
N566 N 0.29456 0.73734 0.25559 0.0
C567 C 0.31693 0.69943 0.22254 0.0
C568 C 0.28111 0.72077 0.27425 0.0
C569 C 0.31139 0.72746 0.22908 0.0
C570 C 0.30448 0.68166 0.24265 0.0
C571 C 0.286 0.69234 0.26852 0.0
O572 O 0.28099 0.79031 0.2168 0.0
O573 O 0.29836 0.82114 0.27658 0.0
O574 O 0.27278 0.84393 0.32123 0.0
O575 O 0.25252 0.82189 0.28961 0.0
O576 O 0.31122 0.80401 0.23267 0.0
O577 O 0.24463 0.79626 0.24991 0.0
O578 O 0.31283 0.81085 0.37652 0.0
O579 O 0.30046 0.77652 0.31653 0.0
O580 O 0.3256 0.75516 0.27058 0.0
O581 O 0.34625 0.77448 0.30503 0.0
O582 O 0.28797 0.79269 0.36067 0.0
O583 O 0.35219 0.80353 0.34744 0.0
C584 C 0.31086 0.82449 0.24922 0.0
C585 C 0.24292 0.78278 0.19767 0.0
C586 C 0.20485 0.78536 0.16834 0.0
C587 C 0.21592 0.79482 0.19225 0.0
C588 C 0.22071 0.76322 0.15048 0.0
C589 C 0.25851 0.76061 0.17957 0.0
C590 C 0.24732 0.75074 0.15635 0.0
C591 C 0.25181 0.84244 0.30749 0.0
C592 C 0.25492 0.79555 0.21983 0.0
C593 C 0.2718 0.67564 0.28814 0.0
C594 C 0.25241 0.68733 0.31273 0.0
C595 C 0.28876 0.77209 0.34414 0.0
C596 C 0.35112 0.7994 0.40635 0.0
C597 C 0.37421 0.80759 0.40909 0.0
C598 C 0.38551 0.80215 0.43847 0.0
C599 C 0.37371 0.78854 0.46496 0.0
C600 C 0.33931 0.78608 0.43307 0.0
C601 C 0.35064 0.78064 0.46224 0.0
C602 C 0.34654 0.75519 0.28524 0.0
C603 C 0.33878 0.80517 0.37609 0.0
H604 H 0.20387 0.81232 0.20561 0.0
H605 H 0.21248 0.75568 0.1319 0.0
H606 H 0.27947 0.75137 0.18258 0.0
H607 H 0.25949 0.73378 0.14238 0.0
H608 H 0.38333 0.81803 0.38858 0.0
H609 H 0.38231 0.78418 0.48782 0.0
H610 H 0.3214 0.77973 0.43132 0.0
H611 H 0.34156 0.77027 0.48276 0.0
Eu612 Eu 0.29984 0.7997 0.83769 0.0
C613 C 0.21777 0.75931 0.79252 0.0
C614 C 0.22325 0.71589 0.82669 0.0
C615 C 0.17975 0.73998 0.80853 0.0
C616 C 0.23423 0.73678 0.80962 0.0
C617 C 0.19051 0.7606 0.79133 0.0
C618 C 0.19609 0.71766 0.82598 0.0
C619 C 0.18704 0.80018 0.7521 0.0
N620 N 0.22848 0.779 0.7755 0.0
C621 C 0.21396 0.79814 0.75395 0.0
C622 C 0.17505 0.78177 0.77147 0.0
Eu623 Eu 0.27512 0.77138 0.77636 0.0
N624 N 0.26081 0.73496 0.80937 0.0
C625 C 0.27684 0.71324 0.82693 0.0
C626 C 0.23982 0.69363 0.84402 0.0
C627 C 0.26663 0.69248 0.84437 0.0
H628 H 0.22327 0.81144 0.73722 0.0
H629 H 0.27956 0.67552 0.85813 0.0
H630 H 0.18754 0.70162 0.83866 0.0
H631 H 0.1758 0.81539 0.735 0.0
H632 H 0.29748 0.71135 0.82855 0.0
H633 H 0.31968 0.88253 0.74959 0.0
H634 H 0.23205 0.67734 0.85746 0.0
H635 H 0.33838 0.7582 0.89153 0.0
H636 H 0.2935 0.8518 0.77719 0.0
H637 H 0.38342 0.75095 0.9092 0.0
H638 H 0.15891 0.74074 0.80785 0.0
H639 H 0.36535 0.8775 0.76382 0.0
H640 H 0.40213 0.85367 0.79854 0.0
H641 H 0.1542 0.78319 0.76969 0.0
H642 H 0.41957 0.81778 0.84132 0.0
N643 N 0.3239 0.82879 0.80694 0.0
C644 C 0.31321 0.84924 0.78406 0.0
C645 C 0.35393 0.86369 0.77603 0.0
C646 C 0.36462 0.84307 0.79986 0.0
C647 C 0.32813 0.8667 0.76804 0.0
C648 C 0.34911 0.82534 0.81477 0.0
H649 H 0.41318 0.77888 0.88183 0.0
N650 N 0.34374 0.78812 0.85291 0.0
C651 C 0.37703 0.7658 0.889 0.0
C652 C 0.35932 0.80444 0.83827 0.0
C653 C 0.35171 0.76978 0.87882 0.0
C654 C 0.39375 0.78163 0.87349 0.0
C655 C 0.38479 0.80161 0.84827 0.0
O656 O 0.29428 0.80287 0.88981 0.0
O657 O 0.26448 0.78687 0.82592 0.0
O658 O 0.25113 0.81793 0.77572 0.0
O659 O 0.26494 0.83382 0.81901 0.0
O660 O 0.27743 0.7715 0.87 0.0
O661 O 0.28662 0.84061 0.85721 0.0
O662 O 0.2685 0.77853 0.72548 0.0
O663 O 0.30711 0.79051 0.78589 0.0
O664 O 0.32901 0.75644 0.83144 0.0
O665 O 0.31416 0.73973 0.78912 0.0
O666 O 0.30754 0.782 0.73945 0.0
O667 O 0.27921 0.7354 0.74928 0.0
C668 C 0.2583 0.77379 0.85221 0.0
C669 C 0.29777 0.84446 0.90887 0.0
C670 C 0.28868 0.87693 0.95046 0.0
C671 C 0.27946 0.86334 0.92878 0.0
C672 C 0.31631 0.87197 0.95197 0.0
C673 C 0.3254 0.83972 0.9103 0.0
C674 C 0.33461 0.85349 0.93176 0.0
C675 C 0.24925 0.83755 0.79558 0.0
C676 C 0.28723 0.83021 0.88711 0.0
C677 C 0.40003 0.81956 0.83383 0.0
C678 C 0.39006 0.84007 0.80953 0.0
C679 C 0.32083 0.79046 0.75812 0.0
C680 C 0.2714 0.74045 0.69293 0.0
C681 C 0.28732 0.71355 0.6864 0.0
C682 C 0.28631 0.70289 0.65734 0.0
C683 C 0.26903 0.71884 0.63501 0.0
C684 C 0.25415 0.75643 0.67055 0.0
C685 C 0.2529 0.74551 0.64171 0.0
C686 C 0.33169 0.73775 0.81021 0.0
C687 C 0.27273 0.75167 0.72313 0.0
H688 H 0.25806 0.86719 0.92773 0.0
H689 H 0.32363 0.88245 0.96869 0.0
H690 H 0.33982 0.82544 0.89513 0.0
H691 H 0.35594 0.84972 0.93282 0.0
H692 H 0.30083 0.70114 0.70349 0.0
H693 H 0.26813 0.71064 0.6124 0.0
H694 H 0.24154 0.77718 0.67549 0.0
H695 H 0.23953 0.75777 0.6245 0.0
Eu696 Eu 0.28279 0.26896 0.79174 0.0
C697 C 0.29871 0.31373 0.91037 0.0
C698 C 0.26249 0.35669 0.90755 0.0
C699 C 0.27455 0.33366 0.95972 0.0
C700 C 0.28279 0.33555 0.89206 0.0
C701 C 0.29529 0.31319 0.94441 0.0
C702 C 0.25814 0.35529 0.94135 0.0
C703 C 0.33474 0.27378 0.94595 0.0
N704 N 0.31842 0.29386 0.89511 0.0
C705 C 0.33711 0.27485 0.91229 0.0
C706 C 0.31339 0.29266 0.96213 0.0
Eu707 Eu 0.32156 0.29792 0.83801 0.0
N708 N 0.28748 0.33657 0.85931 0.0
C709 C 0.27275 0.35859 0.84091 0.0
C710 C 0.24729 0.37892 0.8887 0.0
C711 C 0.25251 0.37989 0.85526 0.0
H712 H 0.3536 0.25991 0.89998 0.0
H713 H 0.24081 0.39698 0.84044 0.0
H714 H 0.2425 0.37122 0.95354 0.0
H715 H 0.34927 0.25824 0.95936 0.0
H716 H 0.27571 0.36 0.81506 0.0
H717 H 0.36639 0.17269 0.78608 0.0
H718 H 0.2316 0.39553 0.89973 0.0
H719 H 0.24903 0.30822 0.73198 0.0
H720 H 0.33385 0.2111 0.81229 0.0
H721 H 0.24894 0.30834 0.67308 0.0
H722 H 0.27143 0.33333 0.98581 0.0
H723 H 0.36859 0.17 0.72728 0.0
H724 H 0.35112 0.19046 0.67466 0.0
H725 H 0.3115 0.29171 0.98825 0.0
H726 H 0.31963 0.22725 0.64402 0.0
N727 N 0.31616 0.23056 0.76937 0.0
C728 C 0.33356 0.2103 0.78692 0.0
C729 C 0.35376 0.187 0.7388 0.0
C730 C 0.33599 0.20763 0.72084 0.0
C731 C 0.35255 0.1884 0.77197 0.0
C732 C 0.31712 0.22948 0.73692 0.0
H733 H 0.28175 0.27115 0.64313 0.0
N734 N 0.28227 0.27195 0.73514 0.0
C735 C 0.26345 0.29211 0.68573 0.0
C736 C 0.2996 0.25056 0.71945 0.0
C737 C 0.26366 0.29203 0.71902 0.0
C738 C 0.28193 0.27104 0.66897 0.0
C739 C 0.30019 0.24985 0.68577 0.0
O740 O 0.2401 0.27579 0.78983 0.0
O741 O 0.28292 0.28671 0.83812 0.0
O742 O 0.32167 0.2555 0.86369 0.0
O743 O 0.29312 0.2385 0.83773 0.0
O744 O 0.24922 0.30376 0.81413 0.0
O745 O 0.26586 0.23322 0.79394 0.0
O746 O 0.36342 0.29176 0.8447 0.0
O747 O 0.3209 0.28017 0.79209 0.0
O748 O 0.28717 0.30978 0.76171 0.0
O749 O 0.3122 0.32698 0.79266 0.0
O750 O 0.35675 0.26711 0.81136 0.0
O751 O 0.33779 0.33401 0.83629 0.0
C752 C 0.25925 0.30284 0.84098 0.0
C753 C 0.22665 0.24146 0.76655 0.0
C754 C 0.20564 0.20831 0.74982 0.0
C755 C 0.22216 0.21477 0.77003 0.0
C756 C 0.1944 0.22812 0.72546 0.0
C757 C 0.21454 0.26129 0.74248 0.0
C758 C 0.19898 0.25443 0.72173 0.0
C759 C 0.30857 0.23677 0.86143 0.0
C760 C 0.24173 0.24924 0.78989 0.0
C761 C 0.31885 0.22806 0.66987 0.0
C762 C 0.33675 0.20708 0.68732 0.0
C763 C 0.3451 0.26643 0.7862 0.0
C764 C 0.3737 0.3279 0.86838 0.0
C765 C 0.37912 0.35409 0.86344 0.0
C766 C 0.39302 0.36215 0.88556 0.0
C767 C 0.39967 0.34491 0.9138 0.0
C768 C 0.38235 0.31011 0.89566 0.0
C769 C 0.39434 0.319 0.91877 0.0
C770 C 0.29982 0.32855 0.76644 0.0
C771 C 0.36136 0.3185 0.84352 0.0
H772 H 0.23052 0.19955 0.78915 0.0
H773 H 0.18155 0.22339 0.70979 0.0
H774 H 0.21632 0.28243 0.74016 0.0
H775 H 0.18982 0.26983 0.7033 0.0
H776 H 0.37408 0.3673 0.84154 0.0
H777 H 0.41018 0.35097 0.93127 0.0
H778 H 0.38092 0.28893 0.89876 0.0
H779 H 0.40058 0.30526 0.93987 0.0
Eu780 Eu 0.78097 0.28478 0.77504 0.0
C781 C 0.81895 0.37382 0.83162 0.0
C782 C 0.85365 0.37935 0.78908 0.0
C783 C 0.83232 0.4172 0.82354 0.0
C784 C 0.83785 0.36287 0.80653 0.0
C785 C 0.81634 0.401 0.84061 0.0
C786 C 0.85066 0.40654 0.7976 0.0
C787 C 0.78398 0.39355 0.88468 0.0
N788 N 0.80407 0.35757 0.84824 0.0
C789 C 0.78775 0.36655 0.87543 0.0
C790 C 0.79819 0.41095 0.86704 0.0
Eu791 Eu 0.81452 0.31092 0.83348 0.0
N792 N 0.84133 0.33601 0.79965 0.0
C793 C 0.8605 0.32442 0.77584 0.0
C794 C 0.87249 0.36785 0.76394 0.0
C795 C 0.87591 0.34026 0.75732 0.0
H796 H 0.77809 0.35246 0.89048 0.0
H797 H 0.89059 0.33107 0.73809 0.0
H798 H 0.86273 0.41937 0.78454 0.0
H799 H 0.77069 0.40061 0.90594 0.0
H800 H 0.86368 0.30319 0.77011 0.0
H801 H 0.71033 0.25993 0.87405 0.0
H802 H 0.88477 0.37995 0.74981 0.0
H803 H 0.81514 0.24631 0.71477 0.0
H804 H 0.73495 0.28968 0.84035 0.0
H805 H 0.82246 0.19882 0.69693 0.0
H806 H 0.83054 0.43808 0.83013 0.0
H807 H 0.71682 0.21111 0.86128 0.0
H808 H 0.73882 0.1725 0.82495 0.0
H809 H 0.79563 0.4317 0.87459 0.0
H810 H 0.76916 0.15591 0.77694 0.0
N811 N 0.7554 0.25825 0.80842 0.0
C812 C 0.73772 0.26867 0.83397 0.0
C813 C 0.7275 0.22423 0.84607 0.0
C814 C 0.74482 0.214 0.81912 0.0
C815 C 0.72379 0.25176 0.85336 0.0
C816 C 0.7585 0.23183 0.8003 0.0
H817 H 0.80025 0.16559 0.72901 0.0
N818 N 0.78968 0.23956 0.75681 0.0
C819 C 0.80958 0.20504 0.71874 0.0
C820 C 0.77602 0.22228 0.77363 0.0
C821 C 0.80548 0.2318 0.72895 0.0
C822 C 0.79692 0.18638 0.73685 0.0
C823 C 0.77978 0.19494 0.76457 0.0
O824 O 0.77399 0.29826 0.72489 0.0
O825 O 0.79574 0.32055 0.78605 0.0
O826 O 0.77083 0.33725 0.83797 0.0
O827 O 0.75061 0.32152 0.79967 0.0
O828 O 0.80857 0.30407 0.74137 0.0
O829 O 0.74022 0.29603 0.75947 0.0
O830 O 0.82117 0.30405 0.88457 0.0
O831 O 0.79907 0.27687 0.82151 0.0
O832 O 0.82483 0.25757 0.77018 0.0
O833 O 0.84412 0.2748 0.80835 0.0
O834 O 0.79613 0.28161 0.86967 0.0
O835 O 0.8554 0.29928 0.8486 0.0
C836 C 0.80731 0.32476 0.75819 0.0
C837 C 0.73671 0.28994 0.70421 0.0
C838 C 0.69837 0.2913 0.67506 0.0
C839 C 0.70876 0.29876 0.70133 0.0
C840 C 0.716 0.27457 0.65231 0.0
C841 C 0.75373 0.273 0.68104 0.0
C842 C 0.7434 0.26532 0.65547 0.0
C843 C 0.74996 0.33862 0.82216 0.0
C844 C 0.74832 0.30066 0.72917 0.0
C845 C 0.76633 0.17708 0.78334 0.0
C846 C 0.749 0.18654 0.81064 0.0
C847 C 0.79309 0.26575 0.84888 0.0
C848 C 0.86073 0.31149 0.90084 0.0
C849 C 0.88542 0.29636 0.91292 0.0
C850 C 0.89686 0.30813 0.93511 0.0
C851 C 0.88283 0.3349 0.94509 0.0
C852 C 0.84804 0.33827 0.91112 0.0
C853 C 0.85889 0.34982 0.93297 0.0
C854 C 0.84527 0.25694 0.78661 0.0
C855 C 0.8473 0.29884 0.87944 0.0
H856 H 0.69532 0.31199 0.71878 0.0
H857 H 0.70847 0.26847 0.63209 0.0
H858 H 0.7752 0.2662 0.68207 0.0
H859 H 0.75677 0.25242 0.63772 0.0
H860 H 0.89549 0.27562 0.90522 0.0
H861 H 0.89 0.3443 0.96298 0.0
H862 H 0.82934 0.35022 0.903 0.0
H863 H 0.84839 0.37033 0.941 0.0
Eu864 Eu 0.77082 0.78437 0.82673 0.0
C865 C 0.81527 0.80388 0.68688 0.0
C866 C 0.85248 0.76175 0.68516 0.0
C867 C 0.83146 0.78202 0.63634 0.0
C868 C 0.83457 0.7834 0.70245 0.0
C869 C 0.81387 0.8037 0.65351 0.0
C870 C 0.85063 0.76103 0.65216 0.0
C871 C 0.77845 0.84703 0.65616 0.0
N872 N 0.798 0.8241 0.70423 0.0
C873 C 0.78048 0.84619 0.68919 0.0
C874 C 0.79499 0.82548 0.63829 0.0
Eu875 Eu 0.80231 0.8208 0.76016 0.0
N876 N 0.83567 0.78441 0.73449 0.0
C877 C 0.85508 0.76511 0.75031 0.0
C878 C 0.8717 0.74138 0.70157 0.0
C879 C 0.8731 0.7432 0.73423 0.0
H880 H 0.76778 0.86302 0.70296 0.0
H881 H 0.88793 0.72757 0.74715 0.0
H882 H 0.86411 0.74446 0.63857 0.0
H883 H 0.76416 0.86428 0.64454 0.0
H884 H 0.8562 0.76561 0.77569 0.0
H885 H 0.68318 0.87336 0.85166 0.0
H886 H 0.88563 0.72429 0.68921 0.0
H887 H 0.80781 0.73852 0.87912 0.0
H888 H 0.71436 0.8382 0.81871 0.0
H889 H 0.81397 0.73321 0.93726 0.0
H890 H 0.83051 0.7814 0.61076 0.0
H891 H 0.68891 0.8737 0.90923 0.0
H892 H 0.71321 0.85076 0.95707 0.0
H893 H 0.79334 0.82611 0.61269 0.0
H894 H 0.74869 0.81277 0.98035 0.0
N895 N 0.7388 0.81887 0.8566 0.0
C896 C 0.71741 0.83776 0.84369 0.0
C897 C 0.70296 0.85818 0.89474 0.0
C898 C 0.72395 0.83784 0.90834 0.0
C899 C 0.69957 0.85798 0.86233 0.0
C900 C 0.74198 0.81834 0.88835 0.0
H901 H 0.7865 0.76916 0.97314 0.0
N902 N 0.77861 0.77806 0.88184 0.0
C903 C 0.79956 0.75144 0.92746 0.0
C904 C 0.76248 0.79738 0.90133 0.0
C905 C 0.79606 0.75453 0.89463 0.0
C906 C 0.78406 0.77182 0.94759 0.0
C907 C 0.76479 0.79475 0.93479 0.0
O908 O 0.76923 0.74149 0.84043 0.0
O909 O 0.78882 0.78243 0.77603 0.0
O910 O 0.76284 0.82193 0.74337 0.0
O911 O 0.74137 0.80189 0.78809 0.0
O912 O 0.80149 0.74671 0.80595 0.0
O913 O 0.73286 0.77404 0.83019 0.0
O914 O 0.80032 0.86469 0.75035 0.0
O915 O 0.78319 0.82325 0.81077 0.0
O916 O 0.81037 0.78507 0.84381 0.0
O917 O 0.8305 0.80712 0.79973 0.0
O918 O 0.76889 0.85722 0.7787 0.0
O919 O 0.83932 0.83402 0.75196 0.0
C920 C 0.80199 0.7569 0.77626 0.0
C921 C 0.72828 0.73619 0.86644 0.0
C922 C 0.70006 0.70559 0.88513 0.0
C923 C 0.71516 0.71695 0.86012 0.0
C924 C 0.69828 0.71368 0.91664 0.0
C925 C 0.72633 0.74427 0.89783 0.0
C926 C 0.71142 0.73295 0.92289 0.0
C927 C 0.74192 0.81454 0.7585 0.0
C928 C 0.74332 0.74784 0.83961 0.0
C929 C 0.74711 0.81435 0.95464 0.0
C930 C 0.72687 0.83595 0.9414 0.0
C931 C 0.76799 0.848 0.80874 0.0
C932 C 0.83723 0.87797 0.72247 0.0
C933 C 0.85889 0.88677 0.72918 0.0
C934 C 0.86664 0.90841 0.70971 0.0
C935 C 0.85305 0.92001 0.68225 0.0
C936 C 0.82421 0.88945 0.69484 0.0
C937 C 0.83236 0.91013 0.67461 0.0
C938 C 0.83036 0.79465 0.82928 0.0
C939 C 0.82622 0.86039 0.7474 0.0
H940 H 0.71633 0.71121 0.83562 0.0
H941 H 0.68691 0.70496 0.93642 0.0
H942 H 0.73609 0.7593 0.90301 0.0
H943 H 0.71001 0.73916 0.94714 0.0
H944 H 0.86898 0.87727 0.75036 0.0
H945 H 0.8577 0.93728 0.66703 0.0
H946 H 0.8071 0.88341 0.68953 0.0
H947 H 0.82194 0.91931 0.65363 0.0
H948 H 0.12144 0.10128 0.35762 0.0
H949 H 0.06282 0.14013 0.43382 0.0
H950 H 0.08749 0.175 0.43593 0.0
H951 H 0.17737 0.10612 0.38932 0.0
H952 H 0.19544 0.11397 0.3515 0.0
H953 H 0.17109 0.09468 0.35243 0.0
H954 H 0.14596 0.1314 0.31026 0.0
H955 H 0.17034 0.15083 0.30931 0.0
H956 H 0.13515 0.16789 0.31819 0.0
H957 H 0.1203 0.20163 0.4349 0.0
H958 H 0.16132 0.21731 0.43241 0.0
H959 H 0.19898 0.16242 0.35645 0.0
C960 C 0.11347 0.11761 0.37408 0.0
C961 C 0.09026 0.11802 0.39559 0.0
C962 C 0.08073 0.13925 0.4174 0.0
C963 C 0.0944 0.15936 0.4185 0.0
C964 C 0.11744 0.15813 0.3974 0.0
C965 C 0.12696 0.13787 0.37553 0.0
C966 C 0.15368 0.13964 0.35789 0.0
C967 C 0.17568 0.11197 0.36313 0.0
C968 C 0.15113 0.14794 0.32176 0.0
C969 C 0.15826 0.16305 0.3746 0.0
C970 C 0.13673 0.17384 0.39673 0.0
C971 C 0.13705 0.19387 0.41721 0.0
C972 C 0.16031 0.20262 0.41572 0.0
C973 C 0.18275 0.19122 0.39403 0.0
C974 C 0.1816 0.17178 0.37264 0.0
H975 H 0.9658 0.13194 0.38203 0.0
H976 H 0.98275 0.09866 0.28781 0.0
H977 H 0.94312 0.13519 0.26944 0.0
H978 H 0.89471 0.148 0.38691 0.0
H979 H 0.88867 0.17983 0.4067 0.0
H980 H 0.91876 0.15187 0.41208 0.0
H981 H 0.94801 0.18579 0.39185 0.0
H982 H 0.91772 0.21369 0.38754 0.0
H983 H 0.94285 0.20595 0.35362 0.0
H984 H 0.90058 0.17407 0.26235 0.0
H985 H 0.86006 0.21368 0.26523 0.0
H986 H 0.87064 0.2223 0.36443 0.0
C987 C 0.96134 0.13233 0.35742 0.0
C988 C 0.97746 0.11224 0.33634 0.0
C989 C 0.97086 0.11376 0.30434 0.0
C990 C 0.94833 0.13442 0.29377 0.0
C991 C 0.93275 0.15359 0.31538 0.0
C992 C 0.93913 0.15289 0.34645 0.0
C993 C 0.91902 0.17577 0.365 0.0
C994 C 0.90443 0.1631 0.39441 0.0
C995 C 0.93274 0.19653 0.37507 0.0
C996 C 0.9001 0.18943 0.33958 0.0
C997 C 0.90842 0.17621 0.31119 0.0
C998 C 0.89405 0.18461 0.2844 0.0
C999 C 0.87084 0.20719 0.28644 0.0
C1000 C 0.86195 0.2215 0.31507 0.0
C1001 C 0.87688 0.21225 0.34206 0.0
H1002 H 0.97156 0.99027 0.35054 0.0
H1003 H 0.02998 0.92798 0.4039 0.0
H1004 H 1.00876 0.89166 0.39464 0.0
H1005 H 0.91681 0.96698 0.38198 0.0
H1006 H 0.90049 0.9738 0.34537 0.0
H1007 H 0.92262 0.99392 0.35194 0.0
H1008 H 0.95092 0.9797 0.29787 0.0
H1009 H 0.92879 0.95945 0.2912 0.0
H1010 H 0.96433 0.94312 0.29087 0.0
H1011 H 0.97924 0.86301 0.38365 0.0
H1012 H 0.94067 0.84545 0.37636 0.0
H1013 H 0.90116 0.92643 0.3313 0.0
C1014 C 0.98022 0.96885 0.35959 0.0
C1015 C 1.00238 0.9619 0.3779 0.0
C1016 C 1.01282 0.93379 0.39009 0.0
C1017 C 1.00114 0.91296 0.38458 0.0
C1018 C 0.97912 0.92054 0.3667 0.0
C1019 C 0.96869 0.94784 0.35447 0.0
C1020 C 0.94321 0.95109 0.33908 0.0
C1021 C 0.91938 0.97271 0.3556 0.0
C1022 C 0.94706 0.9588 0.30259 0.0
C1023 C 0.94036 0.92165 0.34585 0.0
C1024 C 0.96167 0.90412 0.36098 0.0
C1025 C 0.96265 0.87636 0.37135 0.0
C1026 C 0.94084 0.86651 0.36703 0.0
C1027 C 0.91842 0.88461 0.353 0.0
C1028 C 0.91846 0.9122 0.34157 0.0
H1029 H 0.14198 0.97829 0.37298 0.0
H1030 H 0.10244 0.98389 0.28648 0.0
H1031 H 0.13817 0.94261 0.26764 0.0
H1032 H 0.21044 0.95747 0.33522 0.0
H1033 H 0.22276 0.93406 0.3692 0.0
H1034 H 0.19453 0.96432 0.37541 0.0
H1035 H 0.16609 0.93238 0.40479 0.0
H1036 H 0.19434 0.90214 0.39869 0.0
H1037 H 0.16273 0.90362 0.38468 0.0
H1038 H 0.17677 0.89909 0.25994 0.0
H1039 H 0.21654 0.8584 0.26192 0.0
H1040 H 0.23203 0.8819 0.35281 0.0
C1041 C 0.1409 0.97111 0.34985 0.0
C1042 C 0.11937 0.98457 0.33106 0.0
C1043 C 0.11879 0.97424 0.3011 0.0
C1044 C 0.13895 0.9507 0.29031 0.0
C1045 C 0.15968 0.93784 0.30964 0.0
C1046 C 0.16091 0.94782 0.33867 0.0
C1047 C 0.18517 0.93006 0.35505 0.0
C1048 C 0.20437 0.94752 0.35893 0.0
C1049 C 0.17655 0.91624 0.38773 0.0
C1050 C 0.19742 0.90839 0.33073 0.0
C1051 C 0.18226 0.91317 0.30486 0.0
C1052 C 0.18883 0.89531 0.27999 0.0
C1053 C 0.21142 0.87206 0.28151 0.0
C1054 C 0.22748 0.86679 0.3076 0.0
C1055 C 0.22037 0.88541 0.33243 0.0
H1056 H 0.11284 0.94583 0.74155 0.0
H1057 H 0.11485 0.99601 0.81889 0.0
H1058 H 0.15683 0.96128 0.83403 0.0
H1059 H 0.1385 0.87746 0.78548 0.0
H1060 H 0.15688 0.86199 0.74962 0.0
H1061 H 0.12658 0.89004 0.74656 0.0
H1062 H 0.15297 0.9178 0.70564 0.0
H1063 H 0.18335 0.8899 0.70929 0.0
H1064 H 0.18231 0.925 0.71709 0.0
H1065 H 0.20016 0.9221 0.83836 0.0
H1066 H 0.2388 0.88044 0.83512 0.0
H1067 H 0.2084 0.85571 0.75451 0.0
C1068 C 0.12188 0.9494 0.76198 0.0
C1069 C 0.11042 0.97367 0.77918 0.0
C1070 C 0.12298 0.97747 0.80568 0.0
C1071 C 0.14695 0.95793 0.81424 0.0
C1072 C 0.15796 0.93456 0.79628 0.0
C1073 C 0.14559 0.93006 0.77096 0.0
C1074 C 0.16137 0.90331 0.75551 0.0
C1075 C 0.14484 0.88194 0.75956 0.0
C1076 C 0.17054 0.90939 0.71977 0.0
C1077 C 0.18502 0.89367 0.77554 0.0
C1078 C 0.18261 0.91197 0.79896 0.0
C1079 C 0.20205 0.90761 0.82023 0.0
C1080 C 0.22413 0.88376 0.818 0.0
C1081 C 0.22691 0.86421 0.79463 0.0
C1082 C 0.20707 0.8697 0.77287 0.0
H1083 H 0.09441 0.13083 0.75712 0.0
H1084 H 0.15346 0.06556 0.70707 0.0
H1085 H 0.18963 0.08577 0.71752 0.0
H1086 H 0.12035 0.18533 0.7264 0.0
H1087 H 0.11306 0.20353 0.76276 0.0
H1088 H 0.09309 0.18125 0.7558 0.0
H1089 H 0.10376 0.15319 0.81061 0.0
H1090 H 0.12417 0.17523 0.81751 0.0
H1091 H 0.1382 0.13777 0.81853 0.0
H1092 H 0.21789 0.11643 0.72733 0.0
H1093 H 0.23547 0.15685 0.73207 0.0
H1094 H 0.15786 0.20187 0.77611 0.0
C1095 C 0.11509 0.12078 0.74889 0.0
C1096 C 0.12162 0.09698 0.73122 0.0
C1097 C 0.14854 0.08401 0.72048 0.0
C1098 C 0.16904 0.09516 0.72661 0.0
C1099 C 0.16205 0.119 0.74386 0.0
C1100 C 0.13569 0.13164 0.75491 0.0
C1101 C 0.13308 0.15858 0.76992 0.0
C1102 C 0.11378 0.18363 0.75267 0.0
C1103 C 0.12428 0.15602 0.8063 0.0
C1104 C 0.1618 0.16006 0.76379 0.0
C1105 C 0.1784 0.13665 0.74963 0.0
C1106 C 0.20528 0.13456 0.73907 0.0
C1107 C 0.21514 0.15745 0.74194 0.0
C1108 C 0.19801 0.18195 0.75493 0.0
C1109 C 0.17137 0.18291 0.76689 0.0
H1110 H 0.96299 0.12468 0.72423 0.0
H1111 H 0.9859 0.10849 0.82206 0.0
H1112 H 0.94809 0.14888 0.83863 0.0
H1113 H 0.94402 0.1999 0.72257 0.0
H1114 H 0.91638 0.20464 0.69889 0.0
H1115 H 0.94495 0.1744 0.69482 0.0
H1116 H 0.9134 0.14209 0.70796 0.0
H1117 H 0.88479 0.17227 0.71235 0.0
H1118 H 0.89123 0.14522 0.74487 0.0
H1119 H 0.90906 0.19169 0.84401 0.0
H1120 H 0.87103 0.2335 0.83898 0.0
H1121 H 0.87168 0.22182 0.73764 0.0
C1122 C 0.96007 0.12943 0.74925 0.0
C1123 C 0.97754 0.11319 0.77194 0.0
C1124 C 0.97288 0.12041 0.8043 0.0
C1125 C 0.95143 0.14335 0.81388 0.0
C1126 C 0.93474 0.15884 0.79086 0.0
C1127 C 0.93875 0.15217 0.75921 0.0
C1128 C 0.91807 0.17247 0.73914 0.0
C1129 C 0.93168 0.18881 0.71226 0.0
C1130 C 0.90085 0.15709 0.72527 0.0
C1131 C 0.90166 0.19166 0.76448 0.0
C1132 C 0.91186 0.18342 0.79404 0.0
C1133 C 0.90101 0.19828 0.82098 0.0
C1134 C 0.87947 0.22228 0.81767 0.0
C1135 C 0.86859 0.23146 0.78765 0.0
C1136 C 0.8796 0.21553 0.76079 0.0
H1137 H 0.97848 0.98973 0.67689 0.0
H1138 H 0.98706 0.97761 0.77974 0.0
H1139 H 0.95267 0.95208 0.78787 0.0
H1140 H 0.90815 0.9994 0.68332 0.0
H1141 H 0.90919 0.98052 0.6487 0.0
H1142 H 0.93439 0.99831 0.65068 0.0
H1143 H 0.97194 0.95188 0.64256 0.0
H1144 H 0.94683 0.93408 0.64014 0.0
H1145 H 0.97092 0.92125 0.66929 0.0
H1146 H 0.91534 0.93025 0.78506 0.0
H1147 H 0.8802 0.91116 0.77097 0.0
H1148 H 0.9013 0.93195 0.66921 0.0
C1149 C 0.97352 0.98146 0.70109 0.0
C1150 C 0.98545 0.98604 0.7276 0.0
C1151 C 0.97791 0.97503 0.75898 0.0
C1152 C 0.95849 0.96027 0.7639 0.0
C1153 C 0.94707 0.95638 0.73719 0.0
C1154 C 0.95451 0.96637 0.70639 0.0
C1155 C 0.93932 0.95924 0.68173 0.0
C1156 C 0.92173 0.98596 0.66514 0.0
C1157 C 0.9584 0.94049 0.65698 0.0
C1158 C 0.92239 0.94344 0.70346 0.0
C1159 C 0.92677 0.94238 0.73541 0.0
C1160 C 0.9121 0.93042 0.76002 0.0
C1161 C 0.89234 0.91931 0.75162 0.0
C1162 C 0.88795 0.91961 0.71874 0.0
C1163 C 0.90359 0.93159 0.69455 0.0
H1164 H 0.28291 0.12552 0.22406 0.0
H1165 H 0.27403 0.17322 0.13159 0.0
H1166 H 0.28391 0.21283 0.15405 0.0
H1167 H 0.25423 0.18331 0.27376 0.0
H1168 H 0.27735 0.17008 0.30395 0.0
H1169 H 0.26892 0.14611 0.28066 0.0
H1170 H 0.3194 0.12487 0.26258 0.0
H1171 H 0.32797 0.14884 0.28575 0.0
H1172 H 0.3391 0.14756 0.24327 0.0
H1173 H 0.2901 0.24856 0.18886 0.0
H1174 H 0.29567 0.27594 0.23127 0.0
H1175 H 0.30962 0.20222 0.29807 0.0
C1176 C 0.2833 0.1443 0.20865 0.0
C1177 C 0.27785 0.14655 0.17618 0.0
C1178 C 0.27841 0.17126 0.15646 0.0
C1179 C 0.2839 0.19377 0.16905 0.0
C1180 C 0.28938 0.19087 0.20121 0.0
C1181 C 0.28947 0.16662 0.22062 0.0
C1182 C 0.29641 0.16868 0.25418 0.0
C1183 C 0.27283 0.16694 0.27964 0.0
C1184 C 0.32226 0.14615 0.26188 0.0
C1185 C 0.30051 0.19776 0.25058 0.0
C1186 C 0.29575 0.21041 0.22008 0.0
C1187 C 0.29513 0.23837 0.21228 0.0
C1188 C 0.29919 0.25377 0.23632 0.0
C1189 C 0.30558 0.24106 0.26722 0.0
C1190 C 0.30628 0.21245 0.27422 0.0
H1191 H 0.97855 0.28941 0.19935 0.0
H1192 H 0.95204 0.3509 0.12071 0.0
H1193 H 0.90471 0.35488 0.14176 0.0
H1194 H 0.92145 0.25566 0.19957 0.0
H1195 H 0.91983 0.24792 0.24271 0.0
H1196 H 0.95138 0.24837 0.21986 0.0
H1197 H 0.95641 0.28281 0.25715 0.0
H1198 H 0.92398 0.2856 0.27908 0.0
H1199 H 0.93248 0.31655 0.25928 0.0
H1200 H 0.86107 0.35525 0.17287 0.0
H1201 H 0.82197 0.34803 0.20831 0.0
H1202 H 0.87459 0.28429 0.26733 0.0
C1203 C 0.96264 0.30321 0.1863 0.0
C1204 C 0.96883 0.32003 0.15834 0.0
C1205 C 0.94765 0.33785 0.14189 0.0
C1206 C 0.92077 0.34028 0.15383 0.0
C1207 C 0.91527 0.3241 0.18185 0.0
C1208 C 0.9355 0.30511 0.1973 0.0
C1209 C 0.92367 0.28996 0.22669 0.0
C1210 C 0.92942 0.25862 0.22191 0.0
C1211 C 0.93472 0.294 0.25748 0.0
C1212 C 0.89368 0.30477 0.22645 0.0
C1213 C 0.88958 0.3241 0.19998 0.0
C1214 C 0.86399 0.34009 0.19353 0.0
C1215 C 0.84184 0.33587 0.21392 0.0
C1216 C 0.84497 0.31597 0.24091 0.0
C1217 C 0.87144 0.30018 0.24735 0.0
H1218 H 0.80342 0.95255 0.10778 0.0
H1219 H 0.86803 0.89169 0.05749 0.0
H1220 H 0.86297 0.85512 0.1005 0.0
H1221 H 0.82064 0.92891 0.18705 0.0
H1222 H 0.78662 0.93431 0.20542 0.0
H1223 H 0.79375 0.95546 0.16962 0.0
H1224 H 0.75956 0.94051 0.14075 0.0
H1225 H 0.75237 0.91928 0.17655 0.0
H1226 H 0.76307 0.90378 0.13853 0.0
H1227 H 0.85043 0.82527 0.14676 0.0
H1228 H 0.83501 0.8041 0.19861 0.0
H1229 H 0.78137 0.8845 0.22305 0.0
C1230 C 0.8163 0.93144 0.1058 0.0
C1231 C 0.83616 0.92481 0.07939 0.0
C1232 C 0.85294 0.89715 0.0777 0.0
C1233 C 0.85003 0.87625 0.1018 0.0
C1234 C 0.83033 0.88346 0.12746 0.0
C1235 C 0.81388 0.91037 0.12993 0.0
C1236 C 0.7952 0.91255 0.16102 0.0
C1237 C 0.79932 0.93408 0.18202 0.0
C1238 C 0.76581 0.91945 0.15377 0.0
C1239 C 0.8046 0.88291 0.17619 0.0
C1240 C 0.82424 0.86641 0.15571 0.0
C1241 C 0.83539 0.83804 0.1632 0.0
C1242 C 0.82665 0.82627 0.19274 0.0
C1243 C 0.8077 0.84293 0.21484 0.0
C1244 C 0.79619 0.87157 0.20653 0.0
H1245 H 0.09364 0.84596 0.04823 0.0
H1246 H 0.03506 0.83286 0.12678 0.0
H1247 H 0.06957 0.82277 0.16498 0.0
H1248 H 0.14546 0.79135 0.07018 0.0
H1249 H 0.17175 0.80842 0.05907 0.0
H1250 H 0.14154 0.8199 0.03922 0.0
H1251 H 0.1339 0.87052 0.05551 0.0
H1252 H 0.16438 0.85909 0.07514 0.0
H1253 H 0.13324 0.87635 0.09734 0.0
H1254 H 0.11199 0.80805 0.19325 0.0
H1255 H 0.15858 0.78972 0.20841 0.0
H1256 H 0.1892 0.81136 0.11098 0.0
C1257 C 0.08792 0.84206 0.07369 0.0
C1258 C 0.06157 0.8409 0.08465 0.0
C1259 C 0.05488 0.83482 0.11801 0.0
C1260 C 0.07442 0.82885 0.13985 0.0
C1261 C 0.10046 0.82941 0.12804 0.0
C1262 C 0.10714 0.8362 0.09574 0.0
C1263 C 0.13695 0.83285 0.08852 0.0
C1264 C 0.14965 0.81187 0.06274 0.0
C1265 C 0.14244 0.8614 0.07853 0.0
C1266 C 0.14623 0.82147 0.12128 0.0
C1267 C 0.12489 0.8203 0.14404 0.0
C1268 C 0.12879 0.8093 0.17572 0.0
C1269 C 0.1552 0.79895 0.18414 0.0
C1270 C 0.17717 0.7992 0.16075 0.0
C1271 C 0.17258 0.81102 0.12919 0.0
H1272 H 0.22174 0.02665 1.00593 0.0
H1273 H 0.22473 0.98733 0.10307 0.0
H1274 H 0.23049 0.94147 0.08234 0.0
H1275 H 0.19208 0.97368 0.97013 0.0
H1276 H 0.21349 0.97551 0.93315 0.0
H1277 H 0.19986 0.00609 0.95566 0.0
H1278 H 0.24798 0.01021 0.95706 0.0
H1279 H 0.2617 0.97952 0.93526 0.0
H1280 H 0.27292 0.98092 0.97383 0.0
H1281 H 0.24792 0.90024 0.05211 0.0
H1282 H 0.27471 0.86611 0.0138 0.0
H1283 H 0.26145 0.93077 0.93525 0.0
C1284 C 0.22185 0.00858 0.02278 0.0
C1285 C 0.22224 0.01036 0.05607 0.0
C1286 C 0.22392 0.98622 0.07756 0.0
C1287 C 0.22709 0.96018 0.06597 0.0
C1288 C 0.22833 0.95868 0.03279 0.0
C1289 C 0.22534 0.98231 0.01138 0.0
C1290 C 0.23284 0.97437 0.9768 0.0
C1291 C 0.20808 0.98292 0.95783 0.0
C1292 C 0.25519 0.98699 0.95979 0.0
C1293 C 0.24273 0.94283 0.98244 0.0
C1294 C 0.23911 0.93418 0.01481 0.0
C1295 C 0.24998 0.90655 0.02659 0.0
C1296 C 0.26528 0.88738 1.00485 0.0
C1297 C 0.26956 0.89607 0.97193 0.0
C1298 C 0.25765 0.92381 0.96037 0.0
H1299 H 0.12913 0.3564 0.96817 0.0
H1300 H 0.15626 0.27595 0.02235 0.0
H1301 H 0.19564 0.26298 0.98277 0.0
H1302 H 0.15068 0.33051 0.88902 0.0
H1303 H 0.16128 0.36079 0.87187 0.0
H1304 H 0.13479 0.36424 0.90448 0.0
H1305 H 0.16133 0.38581 0.9381 0.0
H1306 H 0.18758 0.38256 0.90524 0.0
H1307 H 0.19534 0.36691 0.94498 0.0
H1308 H 0.23129 0.25752 0.93669 0.0
H1309 H 0.26039 0.26007 0.88666 0.0
H1310 H 0.21404 0.3445 0.86236 0.0
C1311 C 0.14341 0.33615 0.9719 0.0
C1312 C 0.13915 0.31726 0.99869 0.0
C1313 C 0.15843 0.29079 1.0021 0.0
C1314 C 0.18116 0.28323 0.97975 0.0
C1315 C 0.18471 0.3023 0.9539 0.0
C1316 C 0.1664 0.32817 0.94968 0.0
C1317 C 0.17505 0.34438 0.9192 0.0
C1318 C 0.1542 0.35033 0.8947 0.0
C1319 C 0.18014 0.37153 0.92738 0.0
C1320 C 0.20108 0.32364 0.90712 0.0
C1321 C 0.20613 0.29955 0.9277 0.0
C1322 C 0.228 0.27672 0.92112 0.0
C1323 C 0.24514 0.27856 0.89296 0.0
C1324 C 0.2413 0.30313 0.87184 0.0
C1325 C 0.21844 0.32585 0.87877 0.0
H1326 H 0.80692 0.11836 0.95661 0.0
H1327 H 0.84552 0.07912 0.86885 0.0
H1328 H 0.83799 0.12538 0.83909 0.0
H1329 H 0.75587 0.17427 0.91774 0.0
H1330 H 0.75697 0.20075 0.94308 0.0
H1331 H 0.76463 0.16451 0.95851 0.0
H1332 H 0.81074 0.16696 0.97267 0.0
H1333 H 0.80304 0.20324 0.95757 0.0
H1334 H 0.83326 0.17865 0.94172 0.0
H1335 H 0.82774 0.17411 0.81886 0.0
H1336 H 0.81561 0.22411 0.80821 0.0
H1337 H 0.7828 0.23591 0.9073 0.0
C1338 C 0.81364 0.11961 0.9311 0.0
C1339 C 0.82709 0.09501 0.91507 0.0
C1340 C 0.83571 0.09753 0.88176 0.0
C1341 C 0.83131 0.12374 0.86458 0.0
C1342 C 0.81823 0.14742 0.88097 0.0
C1343 C 0.8095 0.14588 0.91342 0.0
C1344 C 0.79644 0.17518 0.92473 0.0
C1345 C 0.76671 0.17888 0.93674 0.0
C1346 C 0.81179 0.18137 0.95072 0.0
C1347 C 0.79948 0.19323 0.89354 0.0
C1348 C 0.812 0.17642 0.86887 0.0
C1349 C 0.8178 0.18746 0.83802 0.0
C1350 C 0.81081 0.21643 0.83211 0.0
C1351 C 0.79779 0.23474 0.85628 0.0
C1352 C 0.79217 0.22275 0.8878 0.0
H1353 H 0.95034 0.74287 0.94312 0.0
H1354 H 0.95266 0.82932 0.93828 0.0
H1355 H 0.91428 0.84325 0.90508 0.0
H1356 H 0.93429 0.74339 0.86274 0.0
H1357 H 0.91216 0.72126 0.87321 0.0
H1358 H 0.9393 0.71812 0.89716 0.0
H1359 H 0.90549 0.72652 0.94841 0.0
H1360 H 0.87827 0.72969 0.92455 0.0
H1361 H 0.87742 0.75751 0.94903 0.0
H1362 H 0.88029 0.84639 0.86613 0.0
H1363 H 0.84637 0.84076 0.83337 0.0
H1364 H 0.86219 0.75319 0.86817 0.0
C1365 C 0.94266 0.76478 0.93524 0.0
C1366 C 0.9547 0.78504 0.94306 0.0
C1367 C 0.94376 0.81351 0.93269 0.0
C1368 C 0.92211 0.82154 0.91364 0.0
C1369 C 0.91128 0.80091 0.90562 0.0
C1370 C 0.92075 0.77319 0.91672 0.0
C1371 C 0.90527 0.75522 0.90497 0.0
C1372 C 0.92387 0.7332 0.88324 0.0
C1373 C 0.89074 0.74143 0.93345 0.0
C1374 C 0.88554 0.77717 0.88553 0.0
C1375 C 0.88994 0.80322 0.88552 0.0
C1376 C 0.8763 0.82624 0.86657 0.0
C1377 C 0.85722 0.82277 0.84786 0.0
C1378 C 0.85144 0.79667 0.84865 0.0
C1379 C 0.86578 0.77354 0.86779 0.0
H1380 H 0.17091 0.25556 0.14761 0.0
H1381 H 0.10095 0.32441 0.17052 0.0
H1382 H 0.12532 0.33908 0.2093 0.0
H1383 H 0.18972 0.2402 0.23188 0.0
H1384 H 0.22514 0.2304 0.21883 0.0
H1385 H 0.20169 0.22514 0.19375 0.0
H1386 H 0.22071 0.25412 0.14649 0.0
H1387 H 0.2438 0.25979 0.1717 0.0
H1388 H 0.22112 0.28931 0.15198 0.0
H1389 H 0.1588 0.34818 0.24371 0.0
H1390 H 0.19653 0.34773 0.27447 0.0
H1391 H 0.24394 0.2716 0.23225 0.0
C1392 C 0.16057 0.27345 0.16119 0.0
C1393 C 0.13377 0.28865 0.15602 0.0
C1394 C 0.12116 0.31205 0.17428 0.0
C1395 C 0.135 0.32071 0.19626 0.0
C1396 C 0.16145 0.3055 0.20049 0.0
C1397 C 0.17391 0.28194 0.18399 0.0
C1398 C 0.20225 0.26887 0.19362 0.0
C1399 C 0.20485 0.23941 0.21053 0.0
C1400 C 0.2232 0.26799 0.16419 0.0
C1401 C 0.20414 0.28928 0.21719 0.0
C1402 C 0.18037 0.31029 0.22082 0.0
C1403 C 0.17738 0.33167 0.24114 0.0
C1404 C 0.19895 0.33135 0.25848 0.0
C1405 C 0.22335 0.3099 0.25553 0.0
C1406 C 0.22582 0.2886 0.23457 0.0
H1407 H 0.12973 0.73766 0.96582 0.0
H1408 H 0.08859 0.82571 0.94794 0.0
H1409 H 0.12848 0.83305 0.91454 0.0
H1410 H 0.19736 0.74877 0.96973 0.0
H1411 H 0.21533 0.7178 0.94949 0.0
H1412 H 0.18386 0.719 0.9734 0.0
H1413 H 0.16563 0.70667 0.92439 0.0
H1414 H 0.1966 0.70618 0.89977 0.0
H1415 H 0.16521 0.7287 0.88738 0.0
H1416 H 0.17099 0.83087 0.87764 0.0
H1417 H 0.21628 0.82104 0.84851 0.0
H1418 H 0.23473 0.73594 0.89237 0.0
C1419 C 0.12938 0.75862 0.95567 0.0
C1420 C 0.1054 0.78115 0.96002 0.0
C1421 C 0.1062 0.80799 0.9453 0.0
C1422 C 0.12893 0.81243 0.92596 0.0
C1423 C 0.15165 0.78994 0.92116 0.0
C1424 C 0.1525 0.76367 0.93624 0.0
C1425 C 0.18005 0.74344 0.92674 0.0
C1426 C 0.19504 0.73155 0.95663 0.0
C1427 C 0.1767 0.71982 0.90846 0.0
C1428 C 0.19431 0.76249 0.90439 0.0
C1429 C 0.17709 0.78909 0.90103 0.0
C1430 C 0.18471 0.81016 0.88053 0.0
C1431 C 0.21065 0.80429 0.86372 0.0
C1432 C 0.22954 0.7777 0.86763 0.0
C1433 C 0.221 0.75652 0.88852 0.0
H1434 H 0.29951 0.10151 0.98716 0.0
H1435 H 0.29259 0.15811 0.06134 0.0
H1436 H 0.29833 0.19509 0.01974 0.0
H1437 H 0.35078 0.12939 0.93104 0.0
H1438 H 0.33686 0.12564 0.89511 0.0
H1439 H 0.33471 0.10197 0.93046 0.0
H1440 H 0.28318 0.11487 0.92973 0.0
H1441 H 0.28518 0.13881 0.89466 0.0
H1442 H 0.26395 0.1511 0.93048 0.0
H1443 H 0.29628 0.22777 0.97289 0.0
H1444 H 0.29612 0.25417 0.92074 0.0
H1445 H 0.31082 0.17843 0.8718 0.0
C1446 C 0.30032 0.12135 0.99448 0.0
C1447 C 0.29604 0.12678 0.02771 0.0
C1448 C 0.2962 0.15334 0.03626 0.0
C1449 C 0.29925 0.17458 0.01274 0.0
C1450 C 0.3024 0.16909 0.98042 0.0
C1451 C 0.30368 0.1431 0.97092 0.0
C1452 C 0.30691 0.14386 0.93393 0.0
C1453 C 0.33392 0.12403 0.92192 0.0
C1454 C 0.2834 0.13673 0.92148 0.0
C1455 C 0.30639 0.17449 0.92453 0.0
C1456 C 0.30351 0.18829 0.95218 0.0
C1457 C 0.30005 0.21689 0.95108 0.0
C1458 C 0.30071 0.23173 0.92106 0.0
C1459 C 0.30586 0.2184 0.89185 0.0
C1460 C 0.3079 0.18924 0.89356 0.0
H1461 H 1.01927 0.30323 0.0334 0.0
H1462 H 0.02429 0.2162 0.06284 0.0
H1463 H 0.99147 0.21697 0.02451 0.0
H1464 H 0.94917 0.32292 0.03206 0.0
H1465 H 0.94849 0.34923 0.99888 0.0
H1466 H 0.97518 0.34065 0.02465 0.0
H1467 H 1.01038 0.32955 0.97492 0.0
H1468 H 0.98367 0.33841 0.94907 0.0
H1469 H 1.00809 0.30464 0.94806 0.0
H1470 H 0.95464 0.22893 0.98544 0.0
H1471 H 0.91625 0.25148 0.95354 0.0
H1472 H 0.9357 0.33065 0.95042 0.0
C1473 C 1.01415 0.28406 0.03099 0.0
C1474 C 0.02495 0.25936 0.05049 0.0
C1475 C 1.01665 0.23516 0.04777 0.0
C1476 C 0.99801 0.23545 0.02603 0.0
C1477 C 0.98736 0.2603 1.00755 0.0
C1478 C 0.99509 0.28423 1.01004 0.0
C1479 C 0.9785 0.30912 0.9906 0.0
C1480 C 0.96186 0.33181 0.01287 0.0
C1481 C 0.99624 0.32112 0.96409 0.0
C1482 C 0.96059 0.29545 0.97631 0.0
C1483 C 0.96588 0.26729 0.98622 0.0
C1484 C 0.95054 0.25095 0.97741 0.0
C1485 C 0.92884 0.2639 0.95898 0.0
C1486 C 0.92252 0.293 0.94954 0.0
C1487 C 0.93944 0.30849 0.95754 0.0
H1488 H 0.80652 0.91479 0.95438 0.0
H1489 H 0.75528 0.99466 0.92019 0.0
H1490 H 0.73897 0.97057 0.88151 0.0
H1491 H 0.82769 0.88432 0.88068 0.0
H1492 H 0.82643 0.85004 0.8986 0.0
H1493 H 0.83162 0.87494 0.92299 0.0
H1494 H 0.79061 0.86665 0.9613 0.0
H1495 H 0.78604 0.84331 0.93406 0.0
H1496 H 0.75874 0.87326 0.94546 0.0
H1497 H 0.73238 0.9382 0.8425 0.0
H1498 H 0.73544 0.90099 0.80682 0.0
H1499 H 0.79108 0.84179 0.86656 0.0
C1500 C 0.79143 0.92717 0.9392 0.0
C1501 C 0.78203 0.95665 0.94043 0.0
C1502 C 0.76241 0.97208 0.92008 0.0
C1503 C 0.75315 0.95852 0.89795 0.0
C1504 C 0.76331 0.92946 0.89691 0.0
C1505 C 0.78178 0.91396 0.91734 0.0
C1506 C 0.79037 0.88321 0.91072 0.0
C1507 C 0.82087 0.87262 0.90268 0.0
C1508 C 0.78082 0.86556 0.93962 0.0
C1509 C 0.77535 0.88395 0.88171 0.0
C1510 C 0.75934 0.91077 0.87469 0.0
C1511 C 0.74451 0.9171 0.84813 0.0
C1512 C 0.74641 0.89579 0.82795 0.0
C1513 C 0.76319 0.86833 0.83399 0.0
C1514 C 0.77759 0.86233 0.8616 0.0
H1515 H 0.96492 0.72779 0.1071 0.0
H1516 H 0.98163 0.80747 0.11009 0.0
H1517 H 0.94725 0.81821 0.15705 0.0
H1518 H 0.89412 0.74881 0.13008 0.0
H1519 H 0.89497 0.71646 0.15413 0.0
H1520 H 0.92 0.71714 0.12085 0.0
H1521 H 0.95585 0.6956 0.16152 0.0
H1522 H 0.92971 0.69674 0.19428 0.0
H1523 H 0.95529 0.71403 0.1964 0.0
H1524 H 0.90757 0.8214 0.20256 0.0
H1525 H 0.87286 0.814 0.24584 0.0
H1526 H 0.88476 0.73026 0.21748 0.0
C1527 C 0.96184 0.74724 0.1181 0.0
C1528 C 0.97657 0.76657 0.10478 0.0
C1529 C 0.97131 0.79195 0.1199 0.0
C1530 C 0.95147 0.79837 0.14653 0.0
C1531 C 0.93709 0.77901 0.15868 0.0
C1532 C 0.9427 0.75357 0.14546 0.0
C1533 C 0.92515 0.73592 0.16364 0.0
C1534 C 0.90749 0.72926 0.14074 0.0
C1535 C 0.94255 0.70897 0.17992 0.0
C1536 C 0.90829 0.75542 0.18883 0.0
C1537 C 0.91529 0.78037 0.18527 0.0
C1538 C 0.90229 0.80178 0.20545 0.0
C1539 C 0.88235 0.79741 0.23006 0.0
C1540 C 0.87513 0.77178 0.23502 0.0
C1541 C 0.88866 0.75048 0.21394 0.0
H1542 H 0.27114 0.99123 0.20091 0.0
H1543 H 0.32793 0.97374 0.1157 0.0
H1544 H 0.34103 0.92348 0.13517 0.0
H1545 H 0.31144 0.94262 0.25629 0.0
H1546 H 0.28403 0.93167 0.27952 0.0
H1547 H 0.27834 0.96642 0.25968 0.0
H1548 H 0.24193 0.95919 0.22871 0.0
H1549 H 0.24612 0.92481 0.24915 0.0
H1550 H 0.24906 0.92902 0.20565 0.0
H1551 H 0.34598 0.87459 0.16244 0.0
H1552 H 0.34328 0.83113 0.19515 0.0
H1553 H 0.28412 0.87977 0.26412 0.0
C1554 C 0.28655 0.97694 0.18636 0.0
C1555 C 0.29868 0.98676 0.1567 0.0
C1556 C 0.31859 0.96706 0.13858 0.0
C1557 C 0.32606 0.93838 0.14946 0.0
C1558 C 0.3136 0.92951 0.17868 0.0
C1559 C 0.29424 0.94826 0.19689 0.0
C1560 C 0.28364 0.9333 0.22723 0.0
C1561 C 0.28974 0.9441 0.25754 0.0
C1562 C 0.2534 0.93679 0.22769 0.0
C1563 C 0.29987 0.903 0.22316 0.0
C1564 C 0.31698 0.90141 0.19489 0.0
C1565 C 0.33294 0.87571 0.18478 0.0
C1566 C 0.33126 0.85105 0.20357 0.0
C1567 C 0.31394 0.85181 0.23257 0.0
C1568 C 0.29811 0.87835 0.24256 0.0
H1569 H 0.78872 0.10144 0.03379 0.0
H1570 H 0.81608 0.03054 0.10223 0.0
H1571 H 0.81603 0.06273 0.14323 0.0
H1572 H 0.82879 0.14277 0.05812 0.0
H1573 H 0.80367 0.1756 0.05177 0.0
H1574 H 0.80572 0.14674 0.02831 0.0
H1575 H 0.75574 0.14991 0.04685 0.0
H1576 H 0.75368 0.17877 0.07015 0.0
H1577 H 0.74471 0.14816 0.08942 0.0
H1578 H 0.81347 0.10287 0.17652 0.0
H1579 H 0.80276 0.14799 0.20165 0.0
H1580 H 0.77779 0.19254 0.11121 0.0
C1581 C 0.79378 0.09288 0.0578 0.0
C1582 C 0.80132 0.06369 0.06553 0.0
C1583 C 0.8093 0.05297 0.09648 0.0
C1584 C 0.80973 0.07105 0.11966 0.0
C1585 C 0.80263 0.09978 0.11122 0.0
C1586 C 0.79459 0.11066 0.08112 0.0
C1587 C 0.788 0.14233 0.07817 0.0
C1588 C 0.80772 0.15246 0.05257 0.0
C1589 C 0.75879 0.15557 0.07073 0.0
C1590 C 0.79231 0.1476 0.11176 0.0
C1591 C 0.80148 0.12279 0.13021 0.0
C1592 C 0.80637 0.12244 0.16228 0.0
C1593 C 0.8005 0.14811 0.17629 0.0
C1594 C 0.78957 0.17359 0.15829 0.0
C1595 C 0.7863 0.17328 0.12538 0.0
H1596 H 0.58033 0.63509 0.90613 0.0
H1597 H 0.63091 0.57051 0.84675 0.0
H1598 H 0.66608 0.59542 0.83858 0.0
H1599 H 0.59957 0.69318 0.85899 0.0
H1600 H 0.59859 0.7118 0.89381 0.0
H1601 H 0.5769 0.68942 0.89432 0.0
H1602 H 0.59598 0.66151 0.94612 0.0
H1603 H 0.6175 0.68397 0.94591 0.0
H1604 H 0.63173 0.64657 0.94616 0.0
H1605 H 0.69613 0.62639 0.83853 0.0
H1606 H 0.71957 0.66092 0.848 0.0
H1607 H 0.64876 0.70555 0.90642 0.0
C1608 C 0.59889 0.62619 0.89161 0.0
C1609 C 0.60306 0.60099 0.87708 0.0
C1610 C 0.62737 0.59002 0.8578 0.0
C1611 C 0.6474 0.60395 0.85306 0.0
C1612 C 0.64261 0.6289 0.86756 0.0
C1613 C 0.61896 0.63997 0.88639 0.0
C1614 C 0.61896 0.66694 0.89949 0.0
C1615 C 0.59721 0.6918 0.88583 0.0
C1616 C 0.61587 0.66458 0.93662 0.0
C1617 C 0.64665 0.66871 0.88609 0.0
C1618 C 0.65987 0.64681 0.86737 0.0
C1619 C 0.68597 0.64372 0.85302 0.0
C1620 C 0.69906 0.66341 0.85847 0.0
C1621 C 0.68595 0.68561 0.87821 0.0
C1622 C 0.65933 0.68847 0.89169 0.0
H1623 H 0.46165 0.62563 0.87313 0.0
H1624 H 0.47965 0.59431 0.77786 0.0
H1625 H 0.43915 0.63008 0.76026 0.0
H1626 H 0.3906 0.63923 0.87772 0.0
H1627 H 0.38369 0.6705 0.8988 0.0
H1628 H 0.41426 0.64306 0.90348 0.0
H1629 H 0.44218 0.6785 0.88523 0.0
H1630 H 0.41155 0.70594 0.88105 0.0
H1631 H 0.43704 0.6993 0.84739 0.0
H1632 H 0.39533 0.6682 0.75419 0.0
H1633 H 0.35381 0.70704 0.75862 0.0
H1634 H 0.36528 0.71386 0.85787 0.0
C1635 C 0.45726 0.62628 0.84843 0.0
C1636 C 0.47393 0.60703 0.82682 0.0
C1637 C 0.46735 0.60883 0.79477 0.0
C1638 C 0.44432 0.62903 0.78466 0.0
C1639 C 0.42823 0.64741 0.80679 0.0
C1640 C 0.43459 0.64634 0.83795 0.0
C1641 C 0.41403 0.66828 0.85721 0.0
C1642 C 0.39981 0.65443 0.886 0.0
C1643 C 0.42699 0.68924 0.86836 0.0
C1644 C 0.39503 0.68204 0.832 0.0
C1645 C 0.40344 0.66955 0.80316 0.0
C1646 C 0.38872 0.67818 0.7766 0.0
C1647 C 0.36503 0.7002 0.77945 0.0
C1648 C 0.35622 0.71365 0.80858 0.0
C1649 C 0.37154 0.70431 0.83517 0.0
H1650 H 0.50604 0.43688 0.88754 0.0
H1651 H 0.44705 0.51668 0.87232 0.0
H1652 H 0.41335 0.49203 0.86502 0.0
H1653 H 0.48395 0.40132 0.82833 0.0
H1654 H 0.49109 0.3684 0.85246 0.0
H1655 H 0.51063 0.39258 0.85425 0.0
H1656 H 0.49895 0.39231 0.91637 0.0
H1657 H 0.47959 0.36805 0.91481 0.0
H1658 H 0.46424 0.40076 0.93281 0.0
H1659 H 0.38549 0.4578 0.86379 0.0
H1660 H 0.36613 0.41718 0.86996 0.0
H1661 H 0.44478 0.36104 0.88371 0.0
C1662 C 0.48597 0.44907 0.88286 0.0
C1663 C 0.47876 0.47848 0.88103 0.0
C1664 C 0.45263 0.494 0.87399 0.0
C1665 C 0.43353 0.48023 0.86966 0.0
C1666 C 0.44127 0.45103 0.87176 0.0
C1667 C 0.46698 0.43572 0.87791 0.0
C1668 C 0.47028 0.40466 0.87987 0.0
C1669 C 0.49017 0.39094 0.85207 0.0
C1670 C 0.47875 0.39064 0.91293 0.0
C1671 C 0.44206 0.40481 0.87566 0.0
C1672 C 0.42559 0.43163 0.8704 0.0
C1673 C 0.39825 0.43668 0.86755 0.0
C1674 C 0.38744 0.41365 0.87104 0.0
C1675 C 0.40405 0.38631 0.87768 0.0
C1676 C 0.43171 0.38189 0.87897 0.0
H1677 H 0.60686 0.44536 0.78545 0.0
H1678 H 0.61732 0.49517 0.85877 0.0
H1679 H 0.66105 0.46124 0.8678 0.0
H1680 H 0.6367 0.37777 0.82037 0.0
H1681 H 0.65421 0.36351 0.78343 0.0
H1682 H 0.62381 0.39176 0.78225 0.0
H1683 H 0.64901 0.42139 0.74228 0.0
H1684 H 0.67943 0.39309 0.74339 0.0
H1685 H 0.67905 0.42748 0.75311 0.0
H1686 H 0.70086 0.41918 0.87328 0.0
H1687 H 0.73755 0.37611 0.86911 0.0
H1688 H 0.70569 0.35606 0.78695 0.0
C1689 C 0.61864 0.44931 0.80296 0.0
C1690 C 0.60878 0.47306 0.82124 0.0
C1691 C 0.62466 0.47744 0.84412 0.0
C1692 C 0.64943 0.45813 0.8496 0.0
C1693 C 0.65847 0.43482 0.83146 0.0
C1694 C 0.64396 0.43069 0.80798 0.0
C1695 C 0.65899 0.40442 0.79099 0.0
C1696 C 0.64242 0.38311 0.79448 0.0
C1697 C 0.6671 0.41205 0.75532 0.0
C1698 C 0.68348 0.39376 0.80967 0.0
C1699 C 0.68265 0.41162 0.83295 0.0
C1700 C 0.70209 0.40551 0.85447 0.0
C1701 C 0.72319 0.38091 0.8517 0.0
C1702 C 0.72547 0.36281 0.82707 0.0
C1703 C 0.70495 0.36936 0.80599 0.0
H1704 H 0.62486 0.45726 0.23833 0.0
H1705 H 0.61357 0.49699 0.32806 0.0
H1706 H 0.65344 0.46064 0.34647 0.0
H1707 H 0.64678 0.38504 0.27263 0.0
H1708 H 0.6697 0.3749 0.23737 0.0
H1709 H 0.63975 0.40318 0.23369 0.0
H1710 H 0.66978 0.43458 0.20639 0.0
H1711 H 0.69958 0.40623 0.21165 0.0
H1712 H 0.69579 0.43928 0.22784 0.0
H1713 H 0.69627 0.42103 0.35326 0.0
H1714 H 0.73624 0.38043 0.34995 0.0
H1715 H 0.71895 0.36679 0.25542 0.0
C1716 C 0.63056 0.45832 0.26202 0.0
C1717 C 0.61601 0.48005 0.28181 0.0
C1718 C 0.62421 0.48047 0.31262 0.0
C1719 C 0.64691 0.45998 0.32314 0.0
C1720 C 0.66099 0.43913 0.30268 0.0
C1721 C 0.65292 0.43809 0.27287 0.0
C1722 C 0.67135 0.41373 0.25525 0.0
C1723 C 0.65595 0.39298 0.24944 0.0
C1724 C 0.68492 0.42409 0.22341 0.0
C1725 C 0.69145 0.40121 0.2796 0.0
C1726 C 0.68515 0.41621 0.30677 0.0
C1727 C 0.7012 0.4091 0.33218 0.0
C1728 C 0.72403 0.38603 0.32993 0.0
C1729 C 0.73076 0.37008 0.3025 0.0
C1730 C 0.71416 0.37798 0.277 0.0
H1731 H 0.60857 0.61633 0.26514 0.0
H1732 H 0.65005 0.58174 0.17634 0.0
H1733 H 0.6867 0.60307 0.18091 0.0
H1734 H 0.62055 0.68056 0.24794 0.0
H1735 H 0.62401 0.68585 0.28886 0.0
H1736 H 0.60404 0.66379 0.28133 0.0
H1737 H 0.63266 0.62315 0.31674 0.0
H1738 H 0.65312 0.64506 0.32383 0.0
H1739 H 0.66854 0.61176 0.30719 0.0
H1740 H 0.71527 0.63301 0.19147 0.0
H1741 H 0.73035 0.67322 0.20364 0.0
H1742 H 0.6703 0.68738 0.2858 0.0
C1743 C 0.62579 0.6126 0.24721 0.0
C1744 C 0.62686 0.59725 0.22057 0.0
C1745 C 0.64906 0.59356 0.19684 0.0
C1746 C 0.67003 0.60525 0.19951 0.0
C1747 C 0.66834 0.62044 0.2261 0.0
C1748 C 0.64664 0.62427 0.24943 0.0
C1749 C 0.64752 0.64467 0.27304 0.0
C1750 C 0.62257 0.67021 0.27273 0.0
C1751 C 0.65066 0.63028 0.30722 0.0
C1752 C 0.67263 0.65248 0.25876 0.0
C1753 C 0.68477 0.63787 0.23212 0.0
C1754 C 0.70641 0.6441 0.21273 0.0
C1755 C 0.71496 0.66676 0.21986 0.0
C1756 C 0.70158 0.68281 0.24585 0.0
C1757 C 0.68113 0.67478 0.26631 0.0
H1758 H 0.49961 0.66009 0.27329 0.0
H1759 H 0.46805 0.58768 0.28674 0.0
H1760 H 0.42187 0.61913 0.29056 0.0
H1761 H 0.44949 0.70245 0.32997 0.0
H1762 H 0.44771 0.73489 0.30564 0.0
H1763 H 0.4784 0.70692 0.30377 0.0
H1764 H 0.47809 0.70812 0.24175 0.0
H1765 H 0.44729 0.73597 0.24361 0.0
H1766 H 0.44904 0.70422 0.22572 0.0
H1767 H 0.37974 0.65828 0.28454 0.0
H1768 H 0.34357 0.70219 0.28271 0.0
H1769 H 0.40115 0.74984 0.28242 0.0
C1770 C 0.48297 0.65085 0.27765 0.0
C1771 C 0.48748 0.62134 0.27994 0.0
C1772 C 0.46515 0.61012 0.28537 0.0
C1773 C 0.43885 0.62784 0.28723 0.0
C1774 C 0.43515 0.65676 0.28423 0.0
C1775 C 0.45654 0.66825 0.2804 0.0
C1776 C 0.44684 0.70011 0.27861 0.0
C1777 C 0.45616 0.71177 0.30615 0.0
C1778 C 0.45587 0.71284 0.24546 0.0
C1779 C 0.41669 0.70468 0.28263 0.0
C1780 C 0.41051 0.67937 0.2845 0.0
C1781 C 0.38432 0.67812 0.28423 0.0
C1782 C 0.36386 0.70329 0.28317 0.0
C1783 C 0.36935 0.72945 0.28373 0.0
C1784 C 0.39624 0.73012 0.28317 0.0
H1785 H 0.48811 0.47701 0.19028 0.0
H1786 H 0.48027 0.49447 0.29109 0.0
H1787 H 0.44506 0.47025 0.30309 0.0
H1788 H 0.42001 0.48635 0.18364 0.0
H1789 H 0.42542 0.45802 0.15816 0.0
H1790 H 0.45072 0.47615 0.1574 0.0
H1791 H 0.48589 0.42904 0.1709 0.0
H1792 H 0.46069 0.41072 0.17156 0.0
H1793 H 0.47905 0.40702 0.20614 0.0
H1794 H 0.40876 0.44635 0.30352 0.0
H1795 H 0.37449 0.42453 0.29186 0.0
H1796 H 0.40965 0.41901 0.19223 0.0
C1797 C 0.47945 0.47549 0.21501 0.0
C1798 C 0.48714 0.48794 0.23953 0.0
C1799 C 0.47467 0.48565 0.27152 0.0
C1800 C 0.45472 0.47165 0.27877 0.0
C1801 C 0.44773 0.45971 0.25393 0.0
C1802 C 0.45985 0.4613 0.22277 0.0
C1803 C 0.44837 0.44719 0.20028 0.0
C1804 C 0.43536 0.46818 0.17329 0.0
C1805 C 0.46979 0.422 0.18641 0.0
C1806 C 0.4276 0.43783 0.22358 0.0
C1807 C 0.42748 0.44519 0.25442 0.0
C1808 C 0.4089 0.44009 0.27955 0.0
C1809 C 0.38966 0.4275 0.27272 0.0
C1810 C 0.38939 0.42006 0.24106 0.0
C1811 C 0.40905 0.42477 0.21653 0.0
H1812 H 0.8108 0.61141 0.70535 0.0
H1813 H 0.78293 0.65872 0.61727 0.0
H1814 H 0.78323 0.70248 0.63953 0.0
H1815 H 0.77294 0.66201 0.75953 0.0
H1816 H 0.79881 0.65567 0.78626 0.0
H1817 H 0.79693 0.62807 0.76314 0.0
H1818 H 0.84617 0.62222 0.73868 0.0
H1819 H 0.84821 0.64972 0.7619 0.0
H1820 H 0.85583 0.65223 0.71867 0.0
H1821 H 0.78114 0.74198 0.67486 0.0
H1822 H 0.78272 0.77245 0.71668 0.0
H1823 H 0.81815 0.69937 0.77843 0.0
C1824 C 0.8051 0.63091 0.69053 0.0
C1825 C 0.79693 0.63145 0.65942 0.0
C1826 C 0.7895 0.65756 0.641 0.0
C1827 C 0.78947 0.68262 0.65354 0.0
C1828 C 0.79733 0.68136 0.68442 0.0
C1829 C 0.80545 0.65608 0.70244 0.0
C1830 C 0.81296 0.66043 0.73497 0.0
C1831 C 0.79431 0.65098 0.7626 0.0
C1832 C 0.84256 0.64524 0.73876 0.0
C1833 C 0.80805 0.69203 0.73241 0.0
C1834 C 0.79844 0.70381 0.70337 0.0
C1835 C 0.78969 0.73283 0.69708 0.0
C1836 C 0.79106 0.75011 0.72085 0.0
C1837 C 0.80231 0.7386 0.75006 0.0
C1838 C 0.81068 0.70902 0.75577 0.0
H1839 H 0.48265 0.76471 0.70874 0.0
H1840 H 0.46034 0.8086 0.61676 0.0
H1841 H 0.41269 0.81869 0.63801 0.0
H1842 H 0.42813 0.73237 0.72537 0.0
H1843 H 0.42297 0.73687 0.76805 0.0
H1844 H 0.45563 0.73388 0.74646 0.0
H1845 H 0.45641 0.78139 0.76532 0.0
H1846 H 0.4244 0.78294 0.78784 0.0
H1847 H 0.4284 0.81165 0.75919 0.0
H1848 H 0.36691 0.82458 0.66873 0.0
H1849 H 0.3263 0.82215 0.70398 0.0
H1850 H 0.37505 0.77193 0.77698 0.0
C1851 C 0.46785 0.77638 0.69287 0.0
C1852 C 0.47608 0.78594 0.66064 0.0
C1853 C 0.45539 0.80132 0.64142 0.0
C1854 C 0.42795 0.80713 0.65338 0.0
C1855 C 0.42073 0.79766 0.68503 0.0
C1856 C 0.44003 0.78239 0.70451 0.0
C1857 C 0.4264 0.77444 0.73755 0.0
C1858 C 0.43371 0.74248 0.74477 0.0
C1859 C 0.43436 0.78848 0.76407 0.0
C1860 C 0.39637 0.78671 0.73323 0.0
C1861 C 0.39393 0.80059 0.70282 0.0
C1862 C 0.36875 0.81394 0.69261 0.0
C1863 C 0.34557 0.81263 0.71319 0.0
C1864 C 0.34671 0.79775 0.74412 0.0
C1865 C 0.3729 0.78458 0.75429 0.0
H1866 H 0.2998 0.41887 0.59186 0.0
H1867 H 0.37503 0.42979 0.61336 0.0
H1868 H 0.37111 0.40317 0.66599 0.0
H1869 H 0.26624 0.42323 0.67393 0.0
H1870 H 0.25012 0.39615 0.67162 0.0
H1871 H 0.25781 0.41685 0.63557 0.0
H1872 H 0.28464 0.37149 0.60863 0.0
H1873 H 0.27691 0.3508 0.64466 0.0
H1874 H 0.31134 0.34692 0.62865 0.0
H1875 H 0.35938 0.3773 0.71597 0.0
H1876 H 0.34264 0.34955 0.7607 0.0
H1877 H 0.27545 0.35025 0.70872 0.0
C1878 C 0.31536 0.41559 0.60777 0.0
C1879 C 0.3379 0.42639 0.59835 0.0
C1880 C 0.35788 0.42153 0.61977 0.0
C1881 C 0.35572 0.40654 0.64982 0.0
C1882 C 0.33357 0.39603 0.65828 0.0
C1883 C 0.3138 0.39994 0.63794 0.0
C1884 C 0.29263 0.38531 0.65328 0.0
C1885 C 0.26506 0.40666 0.65892 0.0
C1886 C 0.29131 0.36226 0.63256 0.0
C1887 C 0.30369 0.37276 0.6853 0.0
C1888 C 0.32714 0.37973 0.68746 0.0
C1889 C 0.34106 0.37167 0.71455 0.0
C1890 C 0.33105 0.35595 0.74015 0.0
C1891 C 0.3073 0.34773 0.73891 0.0
C1892 C 0.29348 0.35622 0.71076 0.0
H1893 H 0.5829 0.33376 0.55987 0.0
H1894 H 0.54253 0.2831 0.6268 0.0
H1895 H 0.573 0.28207 0.66748 0.0
H1896 H 0.64532 0.30009 0.5733 0.0
H1897 H 0.65913 0.32944 0.5721 0.0
H1898 H 0.63024 0.3328 0.55136 0.0
H1899 H 0.60352 0.37553 0.58308 0.0
H1900 H 0.63264 0.37253 0.60364 0.0
H1901 H 0.60109 0.37234 0.62655 0.0
H1902 H 0.61286 0.27863 0.6968 0.0
H1903 H 0.65844 0.27368 0.71179 0.0
H1904 H 0.67374 0.32614 0.62639 0.0
C1905 C 0.57937 0.32419 0.58388 0.0
C1906 C 0.55951 0.30961 0.59068 0.0
C1907 C 0.55677 0.29548 0.62161 0.0
C1908 C 0.57419 0.29458 0.64484 0.0
C1909 C 0.59424 0.30821 0.63708 0.0
C1910 C 0.59663 0.32327 0.60756 0.0
C1911 C 0.62181 0.33327 0.604 0.0
C1912 C 0.6402 0.32327 0.57339 0.0
C1913 C 0.61432 0.36532 0.60432 0.0
C1914 C 0.63435 0.31931 0.63453 0.0
C1915 C 0.61767 0.3058 0.65388 0.0
C1916 C 0.62573 0.28982 0.68227 0.0
C1917 C 0.65159 0.2872 0.69074 0.0
C1918 C 0.66929 0.30003 0.67063 0.0
C1919 C 0.66028 0.31673 0.64256 0.0
H1920 H 0.7724 0.51829 0.55014 0.0
H1921 H 0.84385 0.53073 0.49307 0.0
H1922 H 0.84565 0.49102 0.46122 0.0
H1923 H 0.78802 0.445 0.55419 0.0
H1924 H 0.75513 0.44291 0.54811 0.0
H1925 H 0.75863 0.47259 0.56608 0.0
H1926 H 0.73296 0.50654 0.52264 0.0
H1927 H 0.72866 0.47718 0.50456 0.0
H1928 H 0.74394 0.50181 0.48056 0.0
H1929 H 0.84207 0.44687 0.43987 0.0
H1930 H 0.83197 0.40457 0.42732 0.0
H1931 H 0.7583 0.42549 0.49224 0.0
C1932 C 0.78857 0.5124 0.53112 0.0
C1933 C 0.8086 0.52686 0.52462 0.0
C1934 C 0.82878 0.51942 0.49879 0.0
C1935 C 0.82982 0.49704 0.48054 0.0
C1936 C 0.80995 0.48299 0.48772 0.0
C1937 C 0.78935 0.49078 0.51194 0.0
C1938 C 0.76998 0.47288 0.51394 0.0
C1939 C 0.76785 0.45742 0.54758 0.0
C1940 C 0.74225 0.49067 0.50488 0.0
C1941 C 0.78381 0.45273 0.48842 0.0
C1942 C 0.80673 0.459 0.47351 0.0
C1943 C 0.82381 0.44215 0.45086 0.0
C1944 C 0.81759 0.41806 0.44362 0.0
C1945 C 0.79405 0.41101 0.45841 0.0
C1946 C 0.77674 0.42933 0.48062 0.0
H1947 H 0.65125 0.83456 0.47057 0.0
H1948 H 0.65808 0.74594 0.49343 0.0
H1949 H 0.6959 0.73525 0.44994 0.0
H1950 H 0.66306 0.83254 0.3854 0.0
H1951 H 0.68072 0.85912 0.38078 0.0
H1952 H 0.65525 0.85893 0.41397 0.0
H1953 H 0.68949 0.85675 0.4551 0.0
H1954 H 0.71375 0.85855 0.4211 0.0
H1955 H 0.72128 0.83029 0.45223 0.0
H1956 H 0.73231 0.73557 0.39964 0.0
H1957 H 0.76096 0.7461 0.35154 0.0
H1958 H 0.72998 0.8345 0.36364 0.0
C1959 C 0.6601 0.81268 0.46716 0.0
C1960 C 0.6508 0.79116 0.48647 0.0
C1961 C 0.66428 0.76304 0.47967 0.0
C1962 C 0.68595 0.75679 0.4548 0.0
C1963 C 0.69422 0.77878 0.43654 0.0
C1964 C 0.68142 0.80617 0.4426 0.0
C1965 C 0.69313 0.82646 0.41953 0.0
C1966 C 0.67176 0.84537 0.39869 0.0
C1967 C 0.70515 0.844 0.43814 0.0
C1968 C 0.71486 0.80643 0.3992 0.0
C1969 C 0.71526 0.77896 0.40931 0.0
C1970 C 0.73256 0.75701 0.39264 0.0
C1971 C 0.74958 0.76323 0.3655 0.0
C1972 C 0.75045 0.79112 0.35524 0.0
C1973 C 0.73197 0.81291 0.37213 0.0
H1974 H 0.34402 0.605 0.39332 0.0
H1975 H 0.28387 0.6183 0.47601 0.0
H1976 H 0.26782 0.66791 0.45705 0.0
H1977 H 0.35871 0.67187 0.39322 0.0
H1978 H 0.36335 0.67782 0.35006 0.0
H1979 H 0.37072 0.64253 0.36857 0.0
H1980 H 0.33935 0.63034 0.33472 0.0
H1981 H 0.32952 0.66519 0.31533 0.0
H1982 H 0.30451 0.64963 0.33678 0.0
H1983 H 0.25869 0.71712 0.43037 0.0
H1984 H 0.25712 0.76175 0.39778 0.0
H1985 H 0.32188 0.71847 0.3311 0.0
C1986 C 0.32755 0.61824 0.40763 0.0
C1987 C 0.31519 0.60694 0.43627 0.0
C1988 C 0.29359 0.6256 0.45381 0.0
C1989 C 0.28432 0.65416 0.44327 0.0
C1990 C 0.2967 0.66439 0.41496 0.0
C1991 C 0.31797 0.64707 0.39745 0.0
C1992 C 0.32779 0.66369 0.36796 0.0
C1993 C 0.35687 0.66397 0.37005 0.0
C1994 C 0.32515 0.65154 0.33681 0.0
C1995 C 0.30842 0.69294 0.37136 0.0
C1996 C 0.29088 0.69277 0.39895 0.0
C1997 C 0.27212 0.71735 0.40851 0.0
C1998 C 0.27133 0.74271 0.38974 0.0
C1999 C 0.28877 0.74377 0.36113 0.0
C2000 C 0.30761 0.71832 0.35197 0.0
H2001 H 0.44604 0.32851 0.44505 0.0
H2002 H 0.46018 0.24234 0.48596 0.0
H2003 H 0.42441 0.23646 0.4577 0.0
H2004 H 0.37121 0.34101 0.44881 0.0
H2005 H 0.36809 0.3627 0.41142 0.0
H2006 H 0.3943 0.36178 0.43601 0.0
H2007 H 0.42989 0.34781 0.38751 0.0
H2008 H 0.40379 0.34871 0.36283 0.0
H2009 H 0.43119 0.31743 0.36705 0.0
H2010 H 0.38897 0.23752 0.4246 0.0
H2011 H 0.35374 0.24648 0.38802 0.0
H2012 H 0.35927 0.33167 0.36558 0.0
C2013 C 0.4412 0.30865 0.44848 0.0
C2014 C 0.45636 0.28587 0.46803 0.0
C2015 C 0.44935 0.26016 0.47125 0.0
C2016 C 0.42887 0.2565 0.45522 0.0
C2017 C 0.41484 0.27875 0.43577 0.0
C2018 C 0.4203 0.30449 0.43236 0.0
C2019 C 0.40155 0.3245 0.40939 0.0
C2020 C 0.38267 0.34895 0.42747 0.0
C2021 C 0.41758 0.33524 0.37995 0.0
C2022 C 0.38586 0.30545 0.39966 0.0
C2023 C 0.3938 0.27932 0.41585 0.0
C2024 C 0.38248 0.25794 0.41184 0.0
C2025 C 0.36237 0.26324 0.39096 0.0
C2026 C 0.35365 0.28962 0.37369 0.0
C2027 C 0.36574 0.31109 0.37803 0.0
H2028 H 0.62976 0.77247 0.67823 0.0
H2029 H 0.60974 0.85584 0.62943 0.0
H2030 H 0.64356 0.86785 0.65746 0.0
H2031 H 0.64021 0.79325 0.75538 0.0
H2032 H 0.66755 0.76241 0.76225 0.0
H2033 H 0.64127 0.76096 0.73907 0.0
H2034 H 0.67691 0.74276 0.6917 0.0
H2035 H 0.7032 0.74448 0.71463 0.0
H2036 H 0.69986 0.76289 0.67526 0.0
H2037 H 0.68236 0.86913 0.68746 0.0
H2038 H 0.71977 0.86139 0.72119 0.0
H2039 H 0.71241 0.77816 0.75302 0.0
C2040 C 0.63219 0.79343 0.67379 0.0
C2041 C 0.61695 0.81336 0.65183 0.0
C2042 C 0.62086 0.84044 0.64652 0.0
C2043 C 0.64017 0.84734 0.66215 0.0
C2044 C 0.65509 0.82703 0.68334 0.0
C2045 C 0.65102 0.80075 0.68954 0.0
C2046 C 0.66967 0.78266 0.71329 0.0
C2047 C 0.65372 0.77434 0.74434 0.0
C2048 C 0.68852 0.75667 0.69779 0.0
C2049 C 0.68495 0.80285 0.71953 0.0
C2050 C 0.6765 0.82821 0.70168 0.0
C2051 C 0.68874 0.84957 0.70197 0.0
C2052 C 0.70997 0.845 0.72114 0.0
C2053 C 0.71846 0.81947 0.74019 0.0
C2054 C 0.70572 0.79818 0.73941 0.0
H2055 H 0.6077 0.31791 0.41703 0.0
H2056 H 0.63161 0.23885 0.47397 0.0
H2057 H 0.67884 0.23285 0.45051 0.0
H2058 H 0.64992 0.30097 0.34625 0.0
H2059 H 0.65936 0.33327 0.3381 0.0
H2060 H 0.62754 0.33302 0.36029 0.0
H2061 H 0.63849 0.35456 0.40819 0.0
H2062 H 0.66992 0.35629 0.38596 0.0
H2063 H 0.66951 0.33853 0.42577 0.0
H2064 H 0.72372 0.23522 0.41963 0.0
H2065 H 0.76263 0.24747 0.38767 0.0
H2066 H 0.70984 0.32477 0.35009 0.0
C2067 C 0.62301 0.29952 0.42482 0.0
C2068 C 0.61599 0.27873 0.44739 0.0
C2069 C 0.63657 0.25508 0.45708 0.0
C2070 C 0.6634 0.25145 0.44364 0.0
C2071 C 0.66956 0.27197 0.42089 0.0
C2072 C 0.65001 0.2959 0.41213 0.0
C2073 C 0.66211 0.31525 0.38803 0.0
C2074 C 0.64896 0.32095 0.35627 0.0
C2075 C 0.65988 0.34278 0.40287 0.0
C2076 C 0.69122 0.29784 0.38333 0.0
C2077 C 0.69517 0.27309 0.40278 0.0
C2078 C 0.72068 0.25432 0.40394 0.0
C2079 C 0.74267 0.26115 0.38521 0.0
C2080 C 0.73913 0.28607 0.36464 0.0
C2081 C 0.713 0.3048 0.3642 0.0
H2082 H 0.76365 0.62486 0.45943 0.0
H2083 H 0.75524 0.6803 0.5353 0.0
H2084 H 0.7737 0.71256 0.49666 0.0
H2085 H 0.82564 0.63416 0.42023 0.0
H2086 H 0.81755 0.63388 0.37974 0.0
H2087 H 0.80273 0.61509 0.41273 0.0
H2088 H 0.75518 0.64253 0.39767 0.0
H2089 H 0.76991 0.6611 0.36441 0.0
H2090 H 0.7458 0.6803 0.39432 0.0
H2091 H 0.79376 0.73774 0.45194 0.0
H2092 H 0.81095 0.75782 0.40126 0.0
H2093 H 0.80734 0.6874 0.35183 0.0
C2094 C 0.76511 0.64411 0.46769 0.0
C2095 C 0.75789 0.65016 0.50045 0.0
C2096 C 0.76072 0.67525 0.51043 0.0
C2097 C 0.77119 0.69366 0.48868 0.0
C2098 C 0.77872 0.68675 0.45692 0.0
C2099 C 0.77557 0.66286 0.44614 0.0
C2100 C 0.78565 0.66066 0.41054 0.0
C2101 C 0.80929 0.63438 0.40553 0.0
C2102 C 0.76277 0.66119 0.39055 0.0
C2103 C 0.79485 0.68711 0.40318 0.0
C2104 C 0.79085 0.70148 0.43057 0.0
C2105 C 0.79747 0.72643 0.43046 0.0
C2106 C 0.80804 0.73739 0.40146 0.0
C2107 C 0.8121 0.7236 0.37269 0.0
C2108 C 0.80535 0.69799 0.37361 0.0
H2109 H 0.51893 0.77122 0.51606 0.0
H2110 H 0.50419 0.86067 0.52169 0.0
H2111 H 0.4678 0.86939 0.48577 0.0
H2112 H 0.50334 0.77199 0.43279 0.0
H2113 H 0.48719 0.74438 0.4436 0.0
H2114 H 0.51463 0.74571 0.46487 0.0
H2115 H 0.48476 0.74555 0.51929 0.0
H2116 H 0.45742 0.74402 0.49828 0.0
H2117 H 0.45297 0.77176 0.52433 0.0
H2118 H 0.43008 0.86734 0.45382 0.0
H2119 H 0.39223 0.85481 0.43461 0.0
H2120 H 0.43268 0.76682 0.45227 0.0
C2121 C 0.50859 0.79278 0.50922 0.0
C2122 C 0.51448 0.81537 0.52133 0.0
C2123 C 0.49994 0.84313 0.51248 0.0
C2124 C 0.47948 0.84821 0.49193 0.0
C2125 C 0.47406 0.82525 0.48067 0.0
C2126 C 0.48822 0.79807 0.48928 0.0
C2127 C 0.47667 0.77677 0.47793 0.0
C2128 C 0.49666 0.75866 0.45333 0.0
C2129 C 0.4674 0.75849 0.50666 0.0
C2130 C 0.45326 0.79613 0.46214 0.0
C2131 C 0.45225 0.82403 0.46324 0.0
C2132 C 0.43091 0.84559 0.45241 0.0
C2133 C 0.40962 0.83836 0.44147 0.0
C2134 C 0.40994 0.80991 0.44207 0.0
C2135 C 0.43237 0.78868 0.45135 0.0
H2136 H 0.28917 0.48139 0.40248 0.0
H2137 H 0.2794 0.44294 0.49938 0.0
H2138 H 0.27188 0.40207 0.47701 0.0
H2139 H 0.23803 0.46019 0.369 0.0
H2140 H 0.25754 0.45397 0.33045 0.0
H2141 H 0.26195 0.47972 0.35457 0.0
H2142 H 0.31286 0.45454 0.35235 0.0
H2143 H 0.30853 0.42846 0.32861 0.0
H2144 H 0.32371 0.41796 0.3659 0.0
H2145 H 0.27535 0.36143 0.44182 0.0
H2146 H 0.27607 0.33088 0.39906 0.0
H2147 H 0.27182 0.40047 0.32729 0.0
C2148 C 0.2845 0.46478 0.41902 0.0
C2149 C 0.28417 0.46556 0.45267 0.0
C2150 C 0.27891 0.44309 0.47359 0.0
C2151 C 0.27506 0.41963 0.46104 0.0
C2152 C 0.27607 0.41927 0.42758 0.0
C2153 C 0.27991 0.44167 0.40697 0.0
C2154 C 0.28002 0.43631 0.37203 0.0
C2155 C 0.25805 0.45889 0.35555 0.0
C2156 C 0.30792 0.43421 0.35365 0.0
C2157 C 0.2742 0.40802 0.3762 0.0
C2158 C 0.27358 0.3978 0.40821 0.0
C2159 C 0.2737 0.37002 0.41706 0.0
C2160 C 0.27327 0.35286 0.39276 0.0
C2161 C 0.27044 0.36386 0.36043 0.0
C2162 C 0.27164 0.3918 0.35213 0.0
H2163 H 0.47772 0.2437 0.6597 0.0
H2164 H 0.42624 0.28477 0.5852 0.0
H2165 H 0.38646 0.2903 0.62546 0.0
H2166 H 0.43521 0.20558 0.7047 0.0
H2167 H 0.44248 0.21155 0.74382 0.0
H2168 H 0.46706 0.21123 0.70947 0.0
H2169 H 0.46884 0.26089 0.72009 0.0
H2170 H 0.44433 0.26121 0.75456 0.0
H2171 H 0.43819 0.28893 0.72278 0.0
H2172 H 0.35196 0.29055 0.67415 0.0
H2173 H 0.32638 0.28766 0.72678 0.0
H2174 H 0.39949 0.24593 0.77056 0.0
C2175 C 0.45806 0.2537 0.65185 0.0
C2176 C 0.45514 0.26348 0.61905 0.0
C2177 C 0.42904 0.27711 0.61005 0.0
C2178 C 0.4063 0.28027 0.63278 0.0
C2179 C 0.40984 0.27007 0.66476 0.0
C2180 C 0.4351 0.25744 0.67442 0.0
C2181 C 0.43335 0.24916 0.71054 0.0
C2182 C 0.44524 0.21749 0.71752 0.0
C2183 C 0.447 0.26604 0.72802 0.0
C2184 C 0.40319 0.25776 0.71935 0.0
C2185 C 0.39003 0.27015 0.69267 0.0
C2186 C 0.36221 0.28059 0.69503 0.0
C2187 C 0.34762 0.27854 0.72535 0.0
C2188 C 0.36041 0.26568 0.75321 0.0
C2189 C 0.38876 0.25521 0.74981 0.0
H2190 H 0.75417 0.49299 0.72069 0.0
H2191 H 0.77109 0.47542 0.61974 0.0
H2192 H 0.78701 0.42523 0.63552 0.0
H2193 H 0.80998 0.43968 0.75061 0.0
H2194 H 0.7903 0.43173 0.78718 0.0
H2195 H 0.78131 0.46612 0.76675 0.0
H2196 H 0.73352 0.45958 0.76641 0.0
H2197 H 0.74428 0.42458 0.78528 0.0
H2198 H 0.72994 0.43036 0.74736 0.0
H2199 H 0.80606 0.37853 0.66084 0.0
H2200 H 0.81942 0.33469 0.69441 0.0
H2201 H 0.7851 0.37876 0.78049 0.0
C2202 C 0.76075 0.47855 0.70194 0.0
C2203 C 0.76184 0.48845 0.66882 0.0
C2204 C 0.77071 0.46867 0.64515 0.0
C2205 C 0.77974 0.43999 0.65389 0.0
C2206 C 0.77943 0.43109 0.68653 0.0
C2207 C 0.76951 0.44949 0.71029 0.0
C2208 C 0.77116 0.43373 0.74359 0.0
C2209 C 0.78933 0.44342 0.76313 0.0
C2210 C 0.74305 0.43727 0.76172 0.0
C2211 C 0.78391 0.40366 0.73464 0.0
C2212 C 0.78886 0.40307 0.70149 0.0
C2213 C 0.80192 0.37856 0.68681 0.0
C2214 C 0.80959 0.3537 0.70628 0.0
C2215 C 0.80343 0.35296 0.74029 0.0
C2216 C 0.7905 0.3785 0.75471 0.0
H2217 H 0.29739 0.55541 0.6084 0.0
H2218 H 0.35964 0.57015 0.53547 0.0
H2219 H 0.36446 0.60777 0.56519 0.0
H2220 H 0.26374 0.62078 0.62066 0.0
H2221 H 0.25726 0.61745 0.66405 0.0
H2222 H 0.26336 0.58731 0.6416 0.0
H2223 H 0.30227 0.56105 0.67591 0.0
H2224 H 0.29631 0.5915 0.69831 0.0
H2225 H 0.32915 0.57644 0.67838 0.0
H2226 H 0.35636 0.64884 0.59435 0.0
H2227 H 0.33308 0.69288 0.61946 0.0
H2228 H 0.27732 0.65246 0.67585 0.0
C2229 C 0.31226 0.56637 0.59923 0.0
C2230 C 0.32806 0.56009 0.56981 0.0
C2231 C 0.34745 0.57461 0.55822 0.0
C2232 C 0.3506 0.59578 0.57509 0.0
C2233 C 0.3347 0.60175 0.604 0.0
C2234 C 0.31607 0.58735 0.61628 0.0
C2235 C 0.29943 0.60032 0.64582 0.0
C2236 C 0.26917 0.60688 0.64279 0.0
C2237 C 0.30725 0.58119 0.67642 0.0
C2238 C 0.30866 0.62656 0.64487 0.0
C2239 C 0.33022 0.62602 0.62179 0.0
C2240 C 0.34009 0.64925 0.61322 0.0
C2241 C 0.32675 0.67416 0.62738 0.0
C2242 C 0.30382 0.67548 0.64946 0.0
C2243 C 0.29532 0.6513 0.65946 0.0
loop_
_geom_bond_atom_site_label_1
_geom_bond_atom_site_label_2
_geom_bond_distance
_geom_bond_site_symmetry_2
_ccdc_geom_bond_type
Cu0 N1 1.999 . S
Cu0 O6 1.974 . S
Cu0 N11 1.985 . S
Cu0 O20 1.959 1_455 S
N1 Cu0 1.999 . S
N1 C3 1.263 . S
N1 C5 1.389 . S
N2 C3 1.358 . S
N2 C4 1.400 . S
C3 N1 1.263 . S
C3 N2 1.358 . S
C3 H9 0.930 . S
C4 N2 1.400 . S
C4 C5 1.351 . S
C4 H21 0.930 . S
C5 N1 1.389 . S
C5 C4 1.351 . S
C5 H10 0.930 . S
O6 Cu0 1.974 . S
O6 C16 1.282 1_545 S
C7 O8 1.261 . S
C7 O20 1.251 . S
O8 C7 1.261 . S
H9 C3 0.930 . S
H10 C5 0.930 . S
N11 Cu0 1.985 . S
N11 C13 1.335 1_455 S
N11 C14 1.390 1_545 S
N12 C13 1.345 1_565 S
N12 C15 1.336 . S
C13 N11 1.335 1_655 S
C13 N12 1.345 1_545 S
C13 H18 0.930 . S
C14 N11 1.390 1_565 S
C14 C15 1.346 1_455 S
C14 H19 0.930 . S
C15 N12 1.336 . S
C15 C14 1.346 1_655 S
C15 H22 0.923 . S
C16 O6 1.282 1_565 S
C16 O17 1.216 1_565 S
O17 C16 1.216 1_545 S
H18 C13 0.930 . S
H19 C14 0.930 . S
O20 Cu0 1.959 1_655 S
O20 C7 1.251 . S
H21 C4 0.930 . S
H22 C15 0.923 . S
Cu23 N24 1.999 . S
Cu23 O29 1.974 1_455 S
Cu23 N34 1.985 . S
Cu23 O43 1.959 . S
N24 Cu23 1.999 . S
N24 C26 1.263 1_455 S
N24 C28 1.389 1_545 S
N25 C26 1.358 1_565 S
N25 C27 1.400 . S
C26 N24 1.263 1_655 S
C26 N25 1.358 1_545 S
C26 H32 0.930 . S
C27 N25 1.400 . S
C27 C28 1.351 1_655 S
C27 H44 0.930 . S
C28 N24 1.389 1_565 S
C28 C27 1.351 1_455 S
C28 H33 0.930 . S
O29 Cu23 1.974 1_655 S
O29 C39 1.282 . S
C30 O31 1.261 . S
C30 O43 1.251 . S
O31 C30 1.261 . S
H32 C26 0.930 . S
H33 C28 0.930 . S
N34 Cu23 1.985 . S
N34 C36 1.335 . S
N34 C37 1.390 . S
N35 C36 1.345 . S
N35 C38 1.336 . S
C36 N34 1.335 . S
C36 N35 1.345 . S
C36 H41 0.930 . S
C37 N34 1.390 . S
C37 C38 1.346 . S
C37 H42 0.930 . S
C38 N35 1.336 . S
C38 C37 1.346 . S
C38 H45 0.929 . S
C39 O29 1.282 . S
C39 O40 1.216 . S
O40 C39 1.216 . S
H41 C36 0.930 . S
H42 C37 0.930 . S
O43 Cu23 1.959 . S
O43 C30 1.251 . S
H44 C27 0.930 . S
H45 C38 0.929 . S
Cu46 N47 1.999 . S
Cu46 O52 1.974 . S
Cu46 N57 1.985 . S
Cu46 O66 1.959 . S
N47 Cu46 1.999 . S
N47 C49 1.263 . S
N47 C51 1.389 . S
N48 C49 1.358 . S
N48 C50 1.400 . S
C49 N47 1.263 . S
C49 N48 1.358 . S
C49 H55 0.930 . S
C50 N48 1.400 . S
C50 C51 1.351 . S
C50 H67 0.930 1_554 S
C51 N47 1.389 . S
C51 C50 1.351 . S
C51 H56 0.930 . S
O52 Cu46 1.974 . S
O52 C62 1.282 . S
C53 O54 1.261 . S
C53 O66 1.251 . S
O54 C53 1.261 . S
H55 C49 0.930 . S
H56 C51 0.930 . S
N57 Cu46 1.985 . S
N57 C59 1.335 . S
N57 C60 1.390 . S
N58 C59 1.345 . S
N58 C61 1.336 . S
C59 N57 1.335 . S
C59 N58 1.345 . S
C59 H64 0.930 . S
C60 N57 1.390 . S
C60 C61 1.346 . S
C60 H65 0.930 . S
C61 N58 1.336 . S
C61 C60 1.346 . S
C61 H68 0.929 . S
C62 O52 1.282 . S
C62 O63 1.216 . S
O63 C62 1.216 . S
H64 C59 0.930 . S
H65 C60 0.930 . S
O66 Cu46 1.959 . S
O66 C53 1.251 . S
H67 C50 0.930 1_556 S
H68 C61 0.929 . S
Cu69 N70 1.999 . S
Cu69 O75 1.974 . S
Cu69 N80 1.985 . S
Cu69 O89 1.959 . S
N70 Cu69 1.999 . S
N70 C72 1.263 . S
N70 C74 1.389 . S
N71 C72 1.358 . S
N71 C73 1.400 1_554 S
C72 N70 1.263 . S
C72 N71 1.358 . S
C72 H78 0.930 . S
C73 N71 1.400 1_556 S
C73 C74 1.351 1_556 S
C73 H90 0.930 . S
C74 N70 1.389 . S
C74 C73 1.351 1_554 S
C74 H79 0.930 . S
O75 Cu69 1.974 . S
O75 C85 1.282 . S
C76 O77 1.261 . S
C76 O89 1.251 . S
O77 C76 1.261 . S
H78 C72 0.930 . S
H79 C74 0.930 . S
N80 Cu69 1.985 . S
N80 C82 1.335 1_455 S
N80 C83 1.390 . S
N81 C82 1.345 . S
N81 C84 1.336 1_655 S
C82 N80 1.335 1_655 S
C82 N81 1.345 . S
C82 H87 0.930 . S
C83 N80 1.390 . S
C83 C84 1.346 . S
C83 H88 0.930 . S
C84 N81 1.336 1_455 S
C84 C83 1.346 . S
C84 H91 0.929 . S
C85 O75 1.282 . S
C85 O86 1.216 . S
O86 C85 1.216 . S
H87 C82 0.930 . S
H88 C83 0.930 . S
O89 Cu69 1.959 . S
O89 C76 1.251 . S
H90 C73 0.930 . S
H91 C84 0.929 . S
Cu92 N93 1.999 1_554 S
Cu92 O98 1.974 . S
Cu92 N103 1.985 1_545 S
Cu92 O112 1.959 1_544 S
N93 Cu92 1.999 1_556 S
N93 C95 1.263 . S
N93 C97 1.389 . S
N94 C95 1.358 . S
N94 C96 1.400 . S
C95 N93 1.263 . S
C95 N94 1.358 . S
C95 H101 0.930 . S
C96 N94 1.400 . S
C96 C97 1.351 . S
C96 H113 0.930 . S
C97 N93 1.389 . S
C97 C96 1.351 . S
C97 H102 0.930 . S
O98 Cu92 1.974 . S
O98 C108 1.282 . S
C99 O100 1.261 . S
C99 O112 1.251 . S
O100 C99 1.261 . S
H101 C95 0.930 . S
H102 C97 0.930 . S
N103 Cu92 1.985 1_565 S
N103 C105 1.335 . S
N103 C106 1.390 . S
N104 C105 1.345 . S
N104 C107 1.336 . S
C105 N103 1.335 . S
C105 N104 1.345 . S
C105 H110 0.930 . S
C106 N103 1.390 . S
C106 C107 1.346 . S
C106 H111 0.930 . S
C107 N104 1.336 . S
C107 C106 1.346 . S
C107 H114 0.929 . S
C108 O98 1.282 . S
C108 O109 1.216 . S
O109 C108 1.216 . S
H110 C105 0.930 . S
H111 C106 0.930 . S
O112 Cu92 1.959 1_566 S
O112 C99 1.251 . S
H113 C96 0.930 . S
H114 C107 0.929 . S
Cu115 N116 1.999 1_454 S
Cu115 O121 1.974 1_455 S
Cu115 N126 1.985 . S
Cu115 O135 1.959 1_554 S
N116 Cu115 1.999 1_656 S
N116 C118 1.263 . S
N116 C120 1.389 . S
N117 C118 1.358 . S
N117 C119 1.400 . S
C118 N116 1.263 . S
C118 N117 1.358 . S
C118 H124 0.930 . S
C119 N117 1.400 . S
C119 C120 1.351 . S
C119 H136 0.930 . S
C120 N116 1.389 . S
C120 C119 1.351 . S
C120 H125 0.930 1_655 S
O121 Cu115 1.974 1_655 S
O121 C131 1.282 . S
C122 O123 1.261 . S
C122 O135 1.251 . S
O123 C122 1.261 . S
H124 C118 0.930 . S
H125 C120 0.930 1_455 S
N126 Cu115 1.985 . S
N126 C128 1.335 . S
N126 C129 1.390 . S
N127 C128 1.345 . S
N127 C130 1.336 . S
C128 N126 1.335 . S
C128 N127 1.345 . S
C128 H133 0.930 . S
C129 N126 1.390 . S
C129 C130 1.346 . S
C129 H134 0.930 1_455 S
C130 N127 1.336 . S
C130 C129 1.346 . S
C130 H137 0.929 . S
C131 O121 1.282 . S
C131 O132 1.216 . S
O132 C131 1.216 . S
H133 C128 0.930 . S
H134 C129 0.930 1_655 S
O135 Cu115 1.959 1_556 S
O135 C122 1.251 . S
H136 C119 0.930 . S
H137 C130 0.929 . S
Cu138 N139 1.999 . S
Cu138 O144 1.974 . S
Cu138 N149 1.985 . S
Cu138 O158 1.959 . S
N139 Cu138 1.999 . S
N139 C141 1.263 . S
N139 C143 1.389 . S
N140 C141 1.358 . S
N140 C142 1.400 . S
C141 N139 1.263 . S
C141 N140 1.358 . S
C141 H147 0.930 . S
C142 N140 1.400 . S
C142 C143 1.351 . S
C142 H159 0.930 . S
C143 N139 1.389 . S
C143 C142 1.351 . S
C143 H148 0.930 . S
O144 Cu138 1.974 . S
O144 C154 1.282 . S
C145 O146 1.261 . S
C145 O158 1.251 . S
O146 C145 1.261 . S
H147 C141 0.930 . S
H148 C143 0.930 . S
N149 Cu138 1.985 . S
N149 C151 1.335 . S
N149 C152 1.390 . S
N150 C151 1.345 . S
N150 C153 1.336 . S
C151 N149 1.335 . S
C151 N150 1.345 . S
C151 H156 0.930 . S
C152 N149 1.390 . S
C152 C153 1.346 . S
C152 H157 0.930 . S
C153 N150 1.336 . S
C153 C152 1.346 . S
C153 H160 0.929 . S
C154 O144 1.282 . S
C154 O155 1.216 . S
O155 C154 1.216 . S
H156 C151 0.930 . S
H157 C152 0.930 . S
O158 Cu138 1.959 . S
O158 C145 1.251 . S
H159 C142 0.930 . S
H160 C153 0.929 . S
Cu161 N162 1.999 . S
Cu161 O167 1.974 . S
Cu161 N172 1.985 . S
Cu161 O181 1.959 . S
N162 Cu161 1.999 . S
N162 C164 1.263 . S
N162 C166 1.389 . S
N163 C164 1.358 . S
N163 C165 1.400 . S
C164 N162 1.263 . S
C164 N163 1.358 . S
C164 H170 0.930 . S
C165 N163 1.400 . S
C165 C166 1.351 . S
C165 H182 0.930 . S
C166 N162 1.389 . S
C166 C165 1.351 . S
C166 H171 0.930 . S
O167 Cu161 1.974 . S
O167 C177 1.282 . S
C168 O169 1.261 . S
C168 O181 1.251 . S
O169 C168 1.261 . S
H170 C164 0.930 . S
H171 C166 0.930 . S
N172 Cu161 1.985 . S
N172 C174 1.335 . S
N172 C175 1.390 . S
N173 C174 1.345 . S
N173 C176 1.336 . S
C174 N172 1.335 . S
C174 N173 1.345 . S
C174 H179 0.930 . S
C175 N172 1.390 . S
C175 C176 1.346 . S
C175 H180 0.930 . S
C176 N173 1.336 . S
C176 C175 1.346 . S
C176 H183 0.929 . S
C177 O167 1.282 . S
C177 O178 1.216 . S
O178 C177 1.216 . S
H179 C174 0.930 . S
H180 C175 0.930 . S
O181 Cu161 1.959 . S
O181 C168 1.251 . S
H182 C165 0.930 . S
H183 C176 0.929 . S
Cu184 N185 1.999 . S
Cu184 O190 1.974 . S
Cu184 N195 1.985 . S
Cu184 O204 1.959 . S
N185 Cu184 1.999 . S
N185 C187 1.263 . S
N185 C189 1.389 . S
N186 C187 1.358 . S
N186 C188 1.400 . S
C187 N185 1.263 . S
C187 N186 1.358 . S
C187 H193 0.930 . S
C188 N186 1.400 . S
C188 C189 1.351 . S
C188 H205 0.930 . S
C189 N185 1.389 . S
C189 C188 1.351 . S
C189 H194 0.930 . S
O190 Cu184 1.974 . S
O190 C200 1.282 . S
C191 O192 1.261 . S
C191 O204 1.251 . S
O192 C191 1.261 . S
H193 C187 0.930 . S
H194 C189 0.930 . S
N195 Cu184 1.985 . S
N195 C197 1.335 . S
N195 C198 1.390 . S
N196 C197 1.345 . S
N196 C199 1.336 . S
C197 N195 1.335 . S
C197 N196 1.345 . S
C197 H202 0.930 . S
C198 N195 1.390 . S
C198 C199 1.346 . S
C198 H203 0.930 . S
C199 N196 1.336 . S
C199 C198 1.346 . S
C199 H206 0.929 . S
C200 O190 1.282 . S
C200 O201 1.216 . S
O201 C200 1.216 . S
H202 C197 0.930 . S
H203 C198 0.930 . S
O204 Cu184 1.959 . S
O204 C191 1.251 . S
H205 C188 0.930 . S
H206 C199 0.929 . S
Cu207 N208 1.999 . S
Cu207 O213 1.974 . S
Cu207 N218 1.985 . S
Cu207 O227 1.959 . S
N208 Cu207 1.999 . S
N208 C210 1.263 . S
N208 C212 1.389 . S
N209 C210 1.358 . S
N209 C211 1.400 . S
C210 N208 1.263 . S
C210 N209 1.358 . S
C210 H216 0.930 . S
C211 N209 1.400 . S
C211 C212 1.351 . S
C211 H228 0.930 . S
C212 N208 1.389 . S
C212 C211 1.351 . S
C212 H217 0.930 . S
O213 Cu207 1.974 . S
O213 C223 1.282 . S
C214 O215 1.261 . S
C214 O227 1.251 . S
O215 C214 1.261 . S
H216 C210 0.930 . S
H217 C212 0.930 . S
N218 Cu207 1.985 . S
N218 C220 1.335 . S
N218 C221 1.390 . S
N219 C220 1.345 . S
N219 C222 1.336 . S
C220 N218 1.335 . S
C220 N219 1.345 . S
C220 H225 0.930 . S
C221 N218 1.390 . S
C221 C222 1.346 . S
C221 H226 0.930 . S
C222 N219 1.336 . S
C222 C221 1.346 . S
C222 H229 0.929 . S
C223 O213 1.282 . S
C223 O224 1.216 . S
O224 C223 1.216 . S
H225 C220 0.930 . S
H226 C221 0.930 . S
O227 Cu207 1.959 . S
O227 C214 1.251 . S
H228 C211 0.930 . S
H229 C222 0.929 . S
Cu230 N231 1.999 . S
Cu230 O236 1.974 . S
Cu230 N241 1.985 . S
Cu230 O250 1.959 . S
N231 Cu230 1.999 . S
N231 C233 1.263 . S
N231 C235 1.389 . S
N232 C233 1.358 . S
N232 C234 1.400 . S
C233 N231 1.263 . S
C233 N232 1.358 . S
C233 H239 0.930 . S
C234 N232 1.400 . S
C234 C235 1.351 . S
C234 H251 0.930 . S
C235 N231 1.389 . S
C235 C234 1.351 . S
C235 H240 0.930 . S
O236 Cu230 1.974 . S
O236 C246 1.282 . S
C237 O238 1.261 . S
C237 O250 1.251 . S
O238 C237 1.261 . S
H239 C233 0.930 . S
H240 C235 0.930 . S
N241 Cu230 1.985 . S
N241 C243 1.335 . S
N241 C244 1.390 . S
N242 C243 1.345 . S
N242 C245 1.336 . S
C243 N241 1.335 . S
C243 N242 1.345 . S
C243 H248 0.930 . S
C244 N241 1.390 . S
C244 C245 1.346 . S
C244 H249 0.930 . S
C245 N242 1.336 . S
C245 C244 1.346 . S
C245 H252 0.929 . S
C246 O236 1.282 . S
C246 O247 1.216 . S
O247 C246 1.216 . S
H248 C243 0.930 . S
H249 C244 0.930 . S
O250 Cu230 1.959 . S
O250 C237 1.251 . S
H251 C234 0.930 . S
H252 C245 0.929 . S
Cu253 N254 1.999 . S
Cu253 O259 1.974 . S
Cu253 N264 1.985 . S
Cu253 O273 1.959 . S
N254 Cu253 1.999 . S
N254 C256 1.263 . S
N254 C258 1.389 . S
N255 C256 1.358 . S
N255 C257 1.400 . S
C256 N254 1.263 . S
C256 N255 1.358 . S
C256 H262 0.930 . S
C257 N255 1.400 . S
C257 C258 1.351 . S
C257 H274 0.930 . S
C258 N254 1.389 . S
C258 C257 1.351 . S
C258 H263 0.930 . S
O259 Cu253 1.974 . S
O259 C269 1.282 . S
C260 O261 1.261 . S
C260 O273 1.251 . S
O261 C260 1.261 . S
H262 C256 0.930 . S
H263 C258 0.930 . S
N264 Cu253 1.985 . S
N264 C266 1.335 . S
N264 C267 1.390 . S
N265 C266 1.345 . S
N265 C268 1.336 . S
C266 N264 1.335 . S
C266 N265 1.345 . S
C266 H271 0.930 . S
C267 N264 1.390 . S
C267 C268 1.346 . S
C267 H272 0.930 . S
C268 N265 1.336 . S
C268 C267 1.346 . S
C268 H275 0.929 . S
C269 O259 1.282 . S
C269 O270 1.216 . S
O270 C269 1.216 . S
H271 C266 0.930 . S
H272 C267 0.930 . S
O273 Cu253 1.959 . S
O273 C260 1.251 . S
H274 C257 0.930 . S
H275 C268 0.929 . S
Eu276 N307 2.657 . S
Eu276 N314 2.609 . S
Eu276 O320 2.558 . S
Eu276 O321 2.612 . S
Eu276 O323 2.339 . S
Eu276 O324 2.563 . S
Eu276 O325 2.419 . S
Eu276 O327 2.380 . S
Eu276 O328 2.432 . S
Eu276 C340 2.848 . S
C277 C280 1.429 . S
C277 C281 1.411 . S
C277 N284 1.377 . S
C278 C280 1.420 . S
C278 C282 1.423 . S
C278 C290 1.392 . S
C279 C281 1.420 . S
C279 C282 1.351 . S
C279 H302 0.931 . S
C280 C277 1.429 . S
C280 C278 1.420 . S
C280 N288 1.362 . S
C281 C277 1.411 . S
C281 C279 1.420 . S
C281 C286 1.395 . S
C282 C278 1.423 . S
C282 C279 1.351 . S
C282 H294 0.930 . S
C283 C285 1.400 . S
C283 C286 1.386 . S
C283 H295 0.930 . S
N284 C277 1.377 . S
N284 C285 1.321 . S
N284 Eu287 2.609 . S
C285 C283 1.400 . S
C285 N284 1.321 . S
C285 H292 0.930 . S
C286 C281 1.395 . S
C286 C283 1.386 . S
C286 H305 0.930 . S
Eu287 N284 2.609 . S
Eu287 N288 2.657 . S
Eu287 O321 2.380 . S
Eu287 O322 2.432 . S
Eu287 O326 2.558 . S
Eu287 O327 2.612 . S
Eu287 O329 2.339 . S
Eu287 O330 2.563 . S
Eu287 O331 2.419 . S
Eu287 C351 2.848 . S
N288 C280 1.362 . S
N288 Eu287 2.657 . S
N288 C289 1.334 . S
C289 N288 1.334 . S
C289 C291 1.413 . S
C289 H296 0.929 . S
C290 C278 1.392 . S
C290 C291 1.367 . S
C290 H298 0.930 . S
C291 C289 1.413 . S
C291 C290 1.367 . S
C291 H293 0.930 . S
H292 C285 0.930 . S
H293 C291 0.930 . S
H294 C282 0.930 . S
H295 C283 0.930 . S
H296 C289 0.929 . S
H297 C311 0.930 . S
H298 C290 0.930 . S
H299 C317 0.930 . S
H300 C308 0.929 . S
H301 C315 0.930 . S
H302 C279 0.931 . S
H303 C309 0.930 . S
H304 C342 0.930 . S
H305 C286 0.930 . S
H306 C341 0.931 . S
N307 Eu276 2.657 . S
N307 C308 1.334 . S
N307 C312 1.362 . S
C308 H300 0.929 . S
C308 N307 1.334 . S
C308 C311 1.413 . S
C309 H303 0.930 . S
C309 C310 1.392 . S
C309 C311 1.367 . S
C310 C309 1.392 . S
C310 C312 1.420 . S
C310 C342 1.423 . S
C311 H297 0.930 . S
C311 C308 1.413 . S
C311 C309 1.367 . S
C312 N307 1.362 . S
C312 C310 1.420 . S
C312 C316 1.429 . S
H313 C318 0.930 . S
N314 Eu276 2.609 . S
N314 C316 1.377 . S
N314 C317 1.321 . S
C315 H301 0.930 . S
C315 C317 1.400 . S
C315 C318 1.386 . S
C316 C312 1.429 . S
C316 N314 1.377 . S
C316 C319 1.411 . S
C317 H299 0.930 . S
C317 N314 1.321 . S
C317 C315 1.400 . S
C318 H313 0.930 . S
C318 C315 1.386 . S
C318 C319 1.395 . S
C319 C316 1.411 . S
C319 C318 1.395 . S
C319 C341 1.420 . S
O320 Eu276 2.558 . S
O320 C340 1.257 . S
O321 Eu276 2.612 . S
O321 Eu287 2.380 . S
O321 C332 1.276 . S
O322 Eu287 2.432 . S
O322 C339 1.264 . S
O323 Eu276 2.339 . S
O323 C339 1.254 . S
O324 Eu276 2.563 . S
O324 C332 1.235 . S
O325 Eu276 2.419 . S
O325 C340 1.249 . S
O326 Eu287 2.558 . S
O326 C351 1.257 . S
O327 Eu276 2.380 . S
O327 Eu287 2.612 . S
O327 C343 1.276 . S
O328 Eu276 2.432 . S
O328 C350 1.264 . S
O329 Eu287 2.339 . S
O329 C350 1.254 . S
O330 Eu287 2.563 . S
O330 C343 1.235 . S
O331 Eu287 2.419 . S
O331 C351 1.249 . S
C332 O321 1.276 . S
C332 O324 1.235 . S
C333 C335 1.393 . S
C333 C337 1.395 . S
C333 C340 1.492 . S
C334 C335 1.392 . S
C334 C336 1.386 . S
C335 C333 1.393 . S
C335 C334 1.392 . S
C335 H352 0.930 . S
C336 C334 1.386 . S
C336 C338 1.395 . S
C336 H353 0.930 . S
C337 C333 1.395 . S
C337 C338 1.379 . S
C337 H354 0.930 . S
C338 C336 1.395 . S
C338 C337 1.379 . S
C338 H355 0.930 . S
C339 O322 1.264 . S
C339 O323 1.254 . S
C340 Eu276 2.848 . S
C340 O320 1.257 . S
C340 O325 1.249 . S
C340 C333 1.492 . S
C341 H306 0.931 . S
C341 C319 1.420 . S
C341 C342 1.351 . S
C342 H304 0.930 . S
C342 C310 1.423 . S
C342 C341 1.351 . S
C343 O327 1.276 . S
C343 O330 1.235 . S
C344 C345 1.393 . S
C344 C348 1.395 . S
C344 C351 1.492 . S
C345 C344 1.393 . S
C345 C346 1.392 . S
C345 H356 0.930 . S
C346 C345 1.392 . S
C346 C347 1.386 . S
C347 C346 1.386 . S
C347 C349 1.395 . S
C347 H357 0.930 . S
C348 C344 1.395 . S
C348 C349 1.379 . S
C348 H358 0.930 . S
C349 C347 1.395 . S
C349 C348 1.379 . S
C349 H359 0.930 . S
C350 O328 1.264 . S
C350 O329 1.254 . S
C351 Eu287 2.848 . S
C351 O326 1.257 . S
C351 O331 1.249 . S
C351 C344 1.492 . S
H352 C335 0.930 . S
H353 C336 0.930 . S
H354 C337 0.930 . S
H355 C338 0.930 . S
H356 C345 0.930 . S
H357 C347 0.930 . S
H358 C348 0.930 . S
H359 C349 0.930 . S
Eu360 N391 2.657 . S
Eu360 N398 2.609 . S
Eu360 O404 2.558 . S
Eu360 O405 2.612 . S
Eu360 O407 2.339 . S
Eu360 O408 2.563 . S
Eu360 O409 2.419 . S
Eu360 O411 2.380 . S
Eu360 O412 2.432 . S
Eu360 C424 2.848 . S
C361 C364 1.429 . S
C361 C365 1.411 . S
C361 N368 1.377 . S
C362 C364 1.420 . S
C362 C366 1.423 . S
C362 C374 1.392 . S
C363 C365 1.420 . S
C363 C366 1.351 . S
C363 H386 0.931 . S
C364 C361 1.429 . S
C364 C362 1.420 . S
C364 N372 1.362 . S
C365 C361 1.411 . S
C365 C363 1.420 . S
C365 C370 1.395 . S
C366 C362 1.423 . S
C366 C363 1.351 . S
C366 H378 0.930 . S
C367 C369 1.400 . S
C367 C370 1.386 . S
C367 H379 0.930 . S
N368 C361 1.377 . S
N368 C369 1.321 . S
N368 Eu371 2.609 . S
C369 C367 1.400 . S
C369 N368 1.321 . S
C369 H376 0.930 . S
C370 C365 1.395 . S
C370 C367 1.386 . S
C370 H389 0.930 . S
Eu371 N368 2.609 . S
Eu371 N372 2.657 . S
Eu371 O405 2.380 . S
Eu371 O406 2.432 . S
Eu371 O410 2.558 . S
Eu371 O411 2.612 . S
Eu371 O413 2.339 . S
Eu371 O414 2.563 . S
Eu371 O415 2.419 . S
Eu371 C435 2.848 . S
N372 C364 1.362 . S
N372 Eu371 2.657 . S
N372 C373 1.334 . S
C373 N372 1.334 . S
C373 C375 1.413 . S
C373 H380 0.929 . S
C374 C362 1.392 . S
C374 C375 1.367 . S
C374 H382 0.930 . S
C375 C373 1.413 . S
C375 C374 1.367 . S
C375 H377 0.930 . S
H376 C369 0.930 . S
H377 C375 0.930 . S
H378 C366 0.930 . S
H379 C367 0.930 . S
H380 C373 0.929 . S
H381 C395 0.930 . S
H382 C374 0.930 . S
H383 C401 0.930 . S
H384 C392 0.929 . S
H385 C399 0.930 . S
H386 C363 0.931 . S
H387 C393 0.930 . S
H388 C426 0.930 . S
H389 C370 0.930 . S
H390 C425 0.931 . S
N391 Eu360 2.657 . S
N391 C392 1.334 . S
N391 C396 1.362 . S
C392 H384 0.929 . S
C392 N391 1.334 . S
C392 C395 1.413 . S
C393 H387 0.930 . S
C393 C394 1.392 . S
C393 C395 1.367 . S
C394 C393 1.392 . S
C394 C396 1.420 . S
C394 C426 1.423 . S
C395 H381 0.930 . S
C395 C392 1.413 . S
C395 C393 1.367 . S
C396 N391 1.362 . S
C396 C394 1.420 . S
C396 C400 1.429 . S
H397 C402 0.930 . S
N398 Eu360 2.609 . S
N398 C400 1.377 . S
N398 C401 1.321 . S
C399 H385 0.930 . S
C399 C401 1.400 . S
C399 C402 1.386 . S
C400 C396 1.429 . S
C400 N398 1.377 . S
C400 C403 1.411 . S
C401 H383 0.930 . S
C401 N398 1.321 . S
C401 C399 1.400 . S
C402 H397 0.930 . S
C402 C399 1.386 . S
C402 C403 1.395 . S
C403 C400 1.411 . S
C403 C402 1.395 . S
C403 C425 1.420 . S
O404 Eu360 2.558 . S
O404 C424 1.257 . S
O405 Eu360 2.612 . S
O405 Eu371 2.380 . S
O405 C416 1.276 . S
O406 Eu371 2.432 . S
O406 C423 1.264 . S
O407 Eu360 2.339 . S
O407 C423 1.254 . S
O408 Eu360 2.563 . S
O408 C416 1.235 . S
O409 Eu360 2.419 . S
O409 C424 1.249 . S
O410 Eu371 2.558 . S
O410 C435 1.257 . S
O411 Eu360 2.380 . S
O411 Eu371 2.612 . S
O411 C427 1.276 . S
O412 Eu360 2.432 . S
O412 C434 1.264 . S
O413 Eu371 2.339 . S
O413 C434 1.254 . S
O414 Eu371 2.563 . S
O414 C427 1.235 . S
O415 Eu371 2.419 . S
O415 C435 1.249 . S
C416 O405 1.276 . S
C416 O408 1.235 . S
C417 C419 1.393 . S
C417 C421 1.395 . S
C417 C424 1.492 . S
C418 C419 1.392 . S
C418 C420 1.386 . S
C419 C417 1.393 . S
C419 C418 1.392 . S
C419 H436 0.930 . S
C420 C418 1.386 . S
C420 C422 1.395 . S
C420 H437 0.930 . S
C421 C417 1.395 . S
C421 C422 1.379 . S
C421 H438 0.930 . S
C422 C420 1.395 . S
C422 C421 1.379 . S
C422 H439 0.930 . S
C423 O406 1.264 . S
C423 O407 1.254 . S
C424 Eu360 2.848 . S
C424 O404 1.257 . S
C424 O409 1.249 . S
C424 C417 1.492 . S
C425 H390 0.931 . S
C425 C403 1.420 . S
C425 C426 1.351 . S
C426 H388 0.930 . S
C426 C394 1.423 . S
C426 C425 1.351 . S
C427 O411 1.276 . S
C427 O414 1.235 . S
C428 C429 1.393 . S
C428 C432 1.395 . S
C428 C435 1.492 . S
C429 C428 1.393 . S
C429 C430 1.392 . S
C429 H440 0.930 . S
C430 C429 1.392 . S
C430 C431 1.386 . S
C431 C430 1.386 . S
C431 C433 1.395 . S
C431 H441 0.930 . S
C432 C428 1.395 . S
C432 C433 1.379 . S
C432 H442 0.930 . S
C433 C431 1.395 . S
C433 C432 1.379 . S
C433 H443 0.930 . S
C434 O412 1.264 . S
C434 O413 1.254 . S
C435 Eu371 2.848 . S
C435 O410 1.257 . S
C435 O415 1.249 . S
C435 C428 1.492 . S
H436 C419 0.930 . S
H437 C420 0.930 . S
H438 C421 0.930 . S
H439 C422 0.930 . S
H440 C429 0.930 . S
H441 C431 0.930 . S
H442 C432 0.930 . S
H443 C433 0.930 . S
Eu444 N475 2.657 . S
Eu444 N482 2.609 . S
Eu444 O488 2.558 . S
Eu444 O489 2.612 . S
Eu444 O491 2.339 . S
Eu444 O492 2.563 . S
Eu444 O493 2.419 . S
Eu444 O495 2.380 . S
Eu444 O496 2.432 . S
Eu444 C508 2.848 . S
C445 C448 1.429 . S
C445 C449 1.411 . S
C445 N452 1.377 . S
C446 C448 1.420 . S
C446 C450 1.423 . S
C446 C458 1.392 . S
C447 C449 1.420 . S
C447 C450 1.351 . S
C447 H470 0.931 . S
C448 C445 1.429 . S
C448 C446 1.420 . S
C448 N456 1.362 . S
C449 C445 1.411 . S
C449 C447 1.420 . S
C449 C454 1.395 . S
C450 C446 1.423 . S
C450 C447 1.351 . S
C450 H462 0.930 . S
C451 C453 1.400 . S
C451 C454 1.386 . S
C451 H463 0.930 . S
N452 C445 1.377 . S
N452 C453 1.321 . S
N452 Eu455 2.609 . S
C453 C451 1.400 . S
C453 N452 1.321 . S
C453 H460 0.930 . S
C454 C449 1.395 . S
C454 C451 1.386 . S
C454 H473 0.930 . S
Eu455 N452 2.609 . S
Eu455 N456 2.657 . S
Eu455 O489 2.380 . S
Eu455 O490 2.432 . S
Eu455 O494 2.558 . S
Eu455 O495 2.612 . S
Eu455 O497 2.339 . S
Eu455 O498 2.563 . S
Eu455 O499 2.419 . S
Eu455 C519 2.848 . S
N456 C448 1.362 . S
N456 Eu455 2.657 . S
N456 C457 1.334 . S
C457 N456 1.334 . S
C457 C459 1.413 . S
C457 H464 0.929 . S
C458 C446 1.392 . S
C458 C459 1.367 . S
C458 H466 0.930 . S
C459 C457 1.413 . S
C459 C458 1.367 . S
C459 H461 0.930 . S
H460 C453 0.930 . S
H461 C459 0.930 . S
H462 C450 0.930 . S
H463 C451 0.930 . S
H464 C457 0.929 . S
H465 C479 0.930 . S
H466 C458 0.930 . S
H467 C485 0.930 . S
H468 C476 0.929 . S
H469 C483 0.930 . S
H470 C447 0.931 . S
H471 C477 0.930 . S
H472 C510 0.930 . S
H473 C454 0.930 . S
H474 C509 0.931 . S
N475 Eu444 2.657 . S
N475 C476 1.334 . S
N475 C480 1.362 . S
C476 H468 0.929 . S
C476 N475 1.334 . S
C476 C479 1.413 . S
C477 H471 0.930 . S
C477 C478 1.392 . S
C477 C479 1.367 . S
C478 C477 1.392 . S
C478 C480 1.420 . S
C478 C510 1.423 . S
C479 H465 0.930 . S
C479 C476 1.413 . S
C479 C477 1.367 . S
C480 N475 1.362 . S
C480 C478 1.420 . S
C480 C484 1.429 . S
H481 C486 0.930 . S
N482 Eu444 2.609 . S
N482 C484 1.377 . S
N482 C485 1.321 . S
C483 H469 0.930 . S
C483 C485 1.400 . S
C483 C486 1.386 . S
C484 C480 1.429 . S
C484 N482 1.377 . S
C484 C487 1.411 . S
C485 H467 0.930 . S
C485 N482 1.321 . S
C485 C483 1.400 . S
C486 H481 0.930 . S
C486 C483 1.386 . S
C486 C487 1.395 . S
C487 C484 1.411 . S
C487 C486 1.395 . S
C487 C509 1.420 . S
O488 Eu444 2.558 . S
O488 C508 1.257 . S
O489 Eu444 2.612 . S
O489 Eu455 2.380 . S
O489 C500 1.276 . S
O490 Eu455 2.432 . S
O490 C507 1.264 . S
O491 Eu444 2.339 . S
O491 C507 1.254 . S
O492 Eu444 2.563 . S
O492 C500 1.235 . S
O493 Eu444 2.419 . S
O493 C508 1.249 . S
O494 Eu455 2.558 . S
O494 C519 1.257 . S
O495 Eu444 2.380 . S
O495 Eu455 2.612 . S
O495 C511 1.276 . S
O496 Eu444 2.432 . S
O496 C518 1.264 . S
O497 Eu455 2.339 . S
O497 C518 1.254 . S
O498 Eu455 2.563 . S
O498 C511 1.235 . S
O499 Eu455 2.419 . S
O499 C519 1.249 . S
C500 O489 1.276 . S
C500 O492 1.235 . S
C501 C503 1.393 . S
C501 C505 1.395 . S
C501 C508 1.492 . S
C502 C503 1.392 . S
C502 C504 1.386 . S
C503 C501 1.393 . S
C503 C502 1.392 . S
C503 H520 0.930 . S
C504 C502 1.386 . S
C504 C506 1.395 . S
C504 H521 0.930 . S
C505 C501 1.395 . S
C505 C506 1.379 . S
C505 H522 0.930 . S
C506 C504 1.395 . S
C506 C505 1.379 . S
C506 H523 0.930 . S
C507 O490 1.264 . S
C507 O491 1.254 . S
C508 Eu444 2.848 . S
C508 O488 1.257 . S
C508 O493 1.249 . S
C508 C501 1.492 . S
C509 H474 0.931 . S
C509 C487 1.420 . S
C509 C510 1.351 . S
C510 H472 0.930 . S
C510 C478 1.423 . S
C510 C509 1.351 . S
C511 O495 1.276 . S
C511 O498 1.235 . S
C512 C513 1.393 . S
C512 C516 1.395 . S
C512 C519 1.492 . S
C513 C512 1.393 . S
C513 C514 1.392 . S
C513 H524 0.930 . S
C514 C513 1.392 . S
C514 C515 1.386 . S
C515 C514 1.386 . S
C515 C517 1.395 . S
C515 H525 0.930 . S
C516 C512 1.395 . S
C516 C517 1.379 . S
C516 H526 0.930 . S
C517 C515 1.395 . S
C517 C516 1.379 . S
C517 H527 0.930 . S
C518 O496 1.264 . S
C518 O497 1.254 . S
C519 Eu455 2.848 . S
C519 O494 1.257 . S
C519 O499 1.249 . S
C519 C512 1.492 . S
H520 C503 0.930 . S
H521 C504 0.930 . S
H522 C505 0.930 . S
H523 C506 0.930 . S
H524 C513 0.930 . S
H525 C515 0.930 . S
H526 C516 0.930 . S
H527 C517 0.930 . S
Eu528 N559 2.657 . S
Eu528 N566 2.609 . S
Eu528 O572 2.558 . S
Eu528 O573 2.612 . S
Eu528 O575 2.339 . S
Eu528 O576 2.563 . S
Eu528 O577 2.419 . S
Eu528 O579 2.380 . S
Eu528 O580 2.432 . S
Eu528 C592 2.848 . S
C529 C532 1.429 . S
C529 C533 1.411 . S
C529 N536 1.377 . S
C530 C532 1.420 . S
C530 C534 1.423 . S
C530 C542 1.392 . S
C531 C533 1.420 . S
C531 C534 1.351 . S
C531 H554 0.931 . S
C532 C529 1.429 . S
C532 C530 1.420 . S
C532 N540 1.362 . S
C533 C529 1.411 . S
C533 C531 1.420 . S
C533 C538 1.395 . S
C534 C530 1.423 . S
C534 C531 1.351 . S
C534 H546 0.930 . S
C535 C537 1.400 . S
C535 C538 1.386 . S
C535 H547 0.930 . S
N536 C529 1.377 . S
N536 C537 1.321 . S
N536 Eu539 2.609 . S
C537 C535 1.400 . S
C537 N536 1.321 . S
C537 H544 0.930 . S
C538 C533 1.395 . S
C538 C535 1.386 . S
C538 H557 0.930 . S
Eu539 N536 2.609 . S
Eu539 N540 2.657 . S
Eu539 O573 2.380 . S
Eu539 O574 2.432 . S
Eu539 O578 2.558 . S
Eu539 O579 2.612 . S
Eu539 O581 2.339 . S
Eu539 O582 2.563 . S
Eu539 O583 2.419 . S
Eu539 C603 2.848 . S
N540 C532 1.362 . S
N540 Eu539 2.657 . S
N540 C541 1.334 . S
C541 N540 1.334 . S
C541 C543 1.413 . S
C541 H548 0.929 . S
C542 C530 1.392 . S
C542 C543 1.367 . S
C542 H550 0.930 . S
C543 C541 1.413 . S
C543 C542 1.367 . S
C543 H545 0.930 . S
H544 C537 0.930 . S
H545 C543 0.930 . S
H546 C534 0.930 . S
H547 C535 0.930 . S
H548 C541 0.929 . S
H549 C563 0.930 . S
H550 C542 0.930 . S
H551 C569 0.930 . S
H552 C560 0.929 . S
H553 C567 0.930 . S
H554 C531 0.931 . S
H555 C561 0.930 . S
H556 C594 0.930 . S
H557 C538 0.930 . S
H558 C593 0.931 . S
N559 Eu528 2.657 . S
N559 C560 1.334 . S
N559 C564 1.362 . S
C560 H552 0.929 . S
C560 N559 1.334 . S
C560 C563 1.413 . S
C561 H555 0.930 . S
C561 C562 1.392 . S
C561 C563 1.367 . S
C562 C561 1.392 . S
C562 C564 1.420 . S
C562 C594 1.423 . S
C563 H549 0.930 . S
C563 C560 1.413 . S
C563 C561 1.367 . S
C564 N559 1.362 . S
C564 C562 1.420 . S
C564 C568 1.429 . S
H565 C570 0.930 . S
N566 Eu528 2.609 . S
N566 C568 1.377 . S
N566 C569 1.321 . S
C567 H553 0.930 . S
C567 C569 1.400 . S
C567 C570 1.386 . S
C568 C564 1.429 . S
C568 N566 1.377 . S
C568 C571 1.411 . S
C569 H551 0.930 . S
C569 N566 1.321 . S
C569 C567 1.400 . S
C570 H565 0.930 . S
C570 C567 1.386 . S
C570 C571 1.395 . S
C571 C568 1.411 . S
C571 C570 1.395 . S
C571 C593 1.420 . S
O572 Eu528 2.558 . S
O572 C592 1.257 . S
O573 Eu528 2.612 . S
O573 Eu539 2.380 . S
O573 C584 1.276 . S
O574 Eu539 2.432 . S
O574 C591 1.264 . S
O575 Eu528 2.339 . S
O575 C591 1.254 . S
O576 Eu528 2.563 . S
O576 C584 1.235 . S
O577 Eu528 2.419 . S
O577 C592 1.249 . S
O578 Eu539 2.558 . S
O578 C603 1.257 . S
O579 Eu528 2.380 . S
O579 Eu539 2.612 . S
O579 C595 1.276 . S
O580 Eu528 2.432 . S
O580 C602 1.264 . S
O581 Eu539 2.339 . S
O581 C602 1.254 . S
O582 Eu539 2.563 . S
O582 C595 1.235 . S
O583 Eu539 2.419 . S
O583 C603 1.249 . S
C584 O573 1.276 . S
C584 O576 1.235 . S
C585 C587 1.393 . S
C585 C589 1.395 . S
C585 C592 1.492 . S
C586 C587 1.392 . S
C586 C588 1.386 . S
C587 C585 1.393 . S
C587 C586 1.392 . S
C587 H604 0.930 . S
C588 C586 1.386 . S
C588 C590 1.395 . S
C588 H605 0.930 . S
C589 C585 1.395 . S
C589 C590 1.379 . S
C589 H606 0.930 . S
C590 C588 1.395 . S
C590 C589 1.379 . S
C590 H607 0.930 . S
C591 O574 1.264 . S
C591 O575 1.254 . S
C592 Eu528 2.848 . S
C592 O572 1.257 . S
C592 O577 1.249 . S
C592 C585 1.492 . S
C593 H558 0.931 . S
C593 C571 1.420 . S
C593 C594 1.351 . S
C594 H556 0.930 . S
C594 C562 1.423 . S
C594 C593 1.351 . S
C595 O579 1.276 . S
C595 O582 1.235 . S
C596 C597 1.393 . S
C596 C600 1.395 . S
C596 C603 1.492 . S
C597 C596 1.393 . S
C597 C598 1.392 . S
C597 H608 0.930 . S
C598 C597 1.392 . S
C598 C599 1.386 . S
C599 C598 1.386 . S
C599 C601 1.395 . S
C599 H609 0.930 . S
C600 C596 1.395 . S
C600 C601 1.379 . S
C600 H610 0.930 . S
C601 C599 1.395 . S
C601 C600 1.379 . S
C601 H611 0.930 . S
C602 O580 1.264 . S
C602 O581 1.254 . S
C603 Eu539 2.848 . S
C603 O578 1.257 . S
C603 O583 1.249 . S
C603 C596 1.492 . S
H604 C587 0.930 . S
H605 C588 0.930 . S
H606 C589 0.930 . S
H607 C590 0.930 . S
H608 C597 0.930 . S
H609 C599 0.930 . S
H610 C600 0.930 . S
H611 C601 0.930 . S
Eu612 N643 2.657 . S
Eu612 N650 2.609 . S
Eu612 O656 2.558 . S
Eu612 O657 2.612 . S
Eu612 O659 2.339 . S
Eu612 O660 2.563 . S
Eu612 O661 2.419 . S
Eu612 O663 2.380 . S
Eu612 O664 2.432 . S
Eu612 C676 2.848 . S
C613 C616 1.429 . S
C613 C617 1.411 . S
C613 N620 1.377 . S
C614 C616 1.420 . S
C614 C618 1.423 . S
C614 C626 1.392 . S
C615 C617 1.420 . S
C615 C618 1.351 . S
C615 H638 0.931 . S
C616 C613 1.429 . S
C616 C614 1.420 . S
C616 N624 1.362 . S
C617 C613 1.411 . S
C617 C615 1.420 . S
C617 C622 1.395 . S
C618 C614 1.423 . S
C618 C615 1.351 . S
C618 H630 0.930 . S
C619 C621 1.400 . S
C619 C622 1.386 . S
C619 H631 0.930 . S
N620 C613 1.377 . S
N620 C621 1.321 . S
N620 Eu623 2.609 . S
C621 C619 1.400 . S
C621 N620 1.321 . S
C621 H628 0.930 . S
C622 C617 1.395 . S
C622 C619 1.386 . S
C622 H641 0.930 . S
Eu623 N620 2.609 . S
Eu623 N624 2.657 . S
Eu623 O657 2.380 . S
Eu623 O658 2.432 . S
Eu623 O662 2.558 . S
Eu623 O663 2.612 . S
Eu623 O665 2.339 . S
Eu623 O666 2.563 . S
Eu623 O667 2.419 . S
Eu623 C687 2.848 . S
N624 C616 1.362 . S
N624 Eu623 2.657 . S
N624 C625 1.334 . S
C625 N624 1.334 . S
C625 C627 1.413 . S
C625 H632 0.929 . S
C626 C614 1.392 . S
C626 C627 1.367 . S
C626 H634 0.930 . S
C627 C625 1.413 . S
C627 C626 1.367 . S
C627 H629 0.930 . S
H628 C621 0.930 . S
H629 C627 0.930 . S
H630 C618 0.930 . S
H631 C619 0.930 . S
H632 C625 0.929 . S
H633 C647 0.930 . S
H634 C626 0.930 . S
H635 C653 0.930 . S
H636 C644 0.929 . S
H637 C651 0.930 . S
H638 C615 0.931 . S
H639 C645 0.930 . S
H640 C678 0.930 . S
H641 C622 0.930 . S
H642 C677 0.931 . S
N643 Eu612 2.657 . S
N643 C644 1.334 . S
N643 C648 1.362 . S
C644 H636 0.929 . S
C644 N643 1.334 . S
C644 C647 1.413 . S
C645 H639 0.930 . S
C645 C646 1.392 . S
C645 C647 1.367 . S
C646 C645 1.392 . S
C646 C648 1.420 . S
C646 C678 1.423 . S
C647 H633 0.930 . S
C647 C644 1.413 . S
C647 C645 1.367 . S
C648 N643 1.362 . S
C648 C646 1.420 . S
C648 C652 1.429 . S
H649 C654 0.930 . S
N650 Eu612 2.609 . S
N650 C652 1.377 . S
N650 C653 1.321 . S
C651 H637 0.930 . S
C651 C653 1.400 . S
C651 C654 1.386 . S
C652 C648 1.429 . S
C652 N650 1.377 . S
C652 C655 1.411 . S
C653 H635 0.930 . S
C653 N650 1.321 . S
C653 C651 1.400 . S
C654 H649 0.930 . S
C654 C651 1.386 . S
C654 C655 1.395 . S
C655 C652 1.411 . S
C655 C654 1.395 . S
C655 C677 1.420 . S
O656 Eu612 2.558 . S
O656 C676 1.257 . S
O657 Eu612 2.612 . S
O657 Eu623 2.380 . S
O657 C668 1.276 . S
O658 Eu623 2.432 . S
O658 C675 1.264 . S
O659 Eu612 2.339 . S
O659 C675 1.254 . S
O660 Eu612 2.563 . S
O660 C668 1.235 . S
O661 Eu612 2.419 . S
O661 C676 1.249 . S
O662 Eu623 2.558 . S
O662 C687 1.257 . S
O663 Eu612 2.380 . S
O663 Eu623 2.612 . S
O663 C679 1.276 . S
O664 Eu612 2.432 . S
O664 C686 1.264 . S
O665 Eu623 2.339 . S
O665 C686 1.254 . S
O666 Eu623 2.563 . S
O666 C679 1.235 . S
O667 Eu623 2.419 . S
O667 C687 1.249 . S
C668 O657 1.276 . S
C668 O660 1.235 . S
C669 C671 1.393 . S
C669 C673 1.395 . S
C669 C676 1.492 . S
C670 C671 1.392 . S
C670 C672 1.386 . S
C671 C669 1.393 . S
C671 C670 1.392 . S
C671 H688 0.930 . S
C672 C670 1.386 . S
C672 C674 1.395 . S
C672 H689 0.930 . S
C673 C669 1.395 . S
C673 C674 1.379 . S
C673 H690 0.930 . S
C674 C672 1.395 . S
C674 C673 1.379 . S
C674 H691 0.930 . S
C675 O658 1.264 . S
C675 O659 1.254 . S
C676 Eu612 2.848 . S
C676 O656 1.257 . S
C676 O661 1.249 . S
C676 C669 1.492 . S
C677 H642 0.931 . S
C677 C655 1.420 . S
C677 C678 1.351 . S
C678 H640 0.930 . S
C678 C646 1.423 . S
C678 C677 1.351 . S
C679 O663 1.276 . S
C679 O666 1.235 . S
C680 C681 1.393 . S
C680 C684 1.395 . S
C680 C687 1.492 . S
C681 C680 1.393 . S
C681 C682 1.392 . S
C681 H692 0.930 . S
C682 C681 1.392 . S
C682 C683 1.386 . S
C683 C682 1.386 . S
C683 C685 1.395 . S
C683 H693 0.930 . S
C684 C680 1.395 . S
C684 C685 1.379 . S
C684 H694 0.930 . S
C685 C683 1.395 . S
C685 C684 1.379 . S
C685 H695 0.930 . S
C686 O664 1.264 . S
C686 O665 1.254 . S
C687 Eu623 2.848 . S
C687 O662 1.257 . S
C687 O667 1.249 . S
C687 C680 1.492 . S
H688 C671 0.930 . S
H689 C672 0.930 . S
H690 C673 0.930 . S
H691 C674 0.930 . S
H692 C681 0.930 . S
H693 C683 0.930 . S
H694 C684 0.930 . S
H695 C685 0.930 . S
Eu696 N727 2.657 . S
Eu696 N734 2.609 . S
Eu696 O740 2.558 . S
Eu696 O741 2.612 . S
Eu696 O743 2.339 . S
Eu696 O744 2.563 . S
Eu696 O745 2.419 . S
Eu696 O747 2.380 . S
Eu696 O748 2.432 . S
Eu696 C760 2.848 . S
C697 C700 1.429 . S
C697 C701 1.411 . S
C697 N704 1.377 . S
C698 C700 1.420 . S
C698 C702 1.423 . S
C698 C710 1.392 . S
C699 C701 1.420 . S
C699 C702 1.351 . S
C699 H722 0.931 . S
C700 C697 1.429 . S
C700 C698 1.420 . S
C700 N708 1.362 . S
C701 C697 1.411 . S
C701 C699 1.420 . S
C701 C706 1.395 . S
C702 C698 1.423 . S
C702 C699 1.351 . S
C702 H714 0.930 . S
C703 C705 1.400 . S
C703 C706 1.386 . S
C703 H715 0.930 . S
N704 C697 1.377 . S
N704 C705 1.321 . S
N704 Eu707 2.609 . S
C705 C703 1.400 . S
C705 N704 1.321 . S
C705 H712 0.930 . S
C706 C701 1.395 . S
C706 C703 1.386 . S
C706 H725 0.930 . S
Eu707 N704 2.609 . S
Eu707 N708 2.657 . S
Eu707 O741 2.380 . S
Eu707 O742 2.432 . S
Eu707 O746 2.558 . S
Eu707 O747 2.612 . S
Eu707 O749 2.339 . S
Eu707 O750 2.563 . S
Eu707 O751 2.419 . S
Eu707 C771 2.848 . S
N708 C700 1.362 . S
N708 Eu707 2.657 . S
N708 C709 1.334 . S
C709 N708 1.334 . S
C709 C711 1.413 . S
C709 H716 0.929 . S
C710 C698 1.392 . S
C710 C711 1.367 . S
C710 H718 0.930 . S
C711 C709 1.413 . S
C711 C710 1.367 . S
C711 H713 0.930 . S
H712 C705 0.930 . S
H713 C711 0.930 . S
H714 C702 0.930 . S
H715 C703 0.930 . S
H716 C709 0.929 . S
H717 C731 0.930 . S
H718 C710 0.930 . S
H719 C737 0.930 . S
H720 C728 0.929 . S
H721 C735 0.930 . S
H722 C699 0.931 . S
H723 C729 0.930 . S
H724 C762 0.930 . S
H725 C706 0.930 . S
H726 C761 0.931 . S
N727 Eu696 2.657 . S
N727 C728 1.334 . S
N727 C732 1.362 . S
C728 H720 0.929 . S
C728 N727 1.334 . S
C728 C731 1.413 . S
C729 H723 0.930 . S
C729 C730 1.392 . S
C729 C731 1.367 . S
C730 C729 1.392 . S
C730 C732 1.420 . S
C730 C762 1.423 . S
C731 H717 0.930 . S
C731 C728 1.413 . S
C731 C729 1.367 . S
C732 N727 1.362 . S
C732 C730 1.420 . S
C732 C736 1.429 . S
H733 C738 0.930 . S
N734 Eu696 2.609 . S
N734 C736 1.377 . S
N734 C737 1.321 . S
C735 H721 0.930 . S
C735 C737 1.400 . S
C735 C738 1.386 . S
C736 C732 1.429 . S
C736 N734 1.377 . S
C736 C739 1.411 . S
C737 H719 0.930 . S
C737 N734 1.321 . S
C737 C735 1.400 . S
C738 H733 0.930 . S
C738 C735 1.386 . S
C738 C739 1.395 . S
C739 C736 1.411 . S
C739 C738 1.395 . S
C739 C761 1.420 . S
O740 Eu696 2.558 . S
O740 C760 1.257 . S
O741 Eu696 2.612 . S
O741 Eu707 2.380 . S
O741 C752 1.276 . S
O742 Eu707 2.432 . S
O742 C759 1.264 . S
O743 Eu696 2.339 . S
O743 C759 1.254 . S
O744 Eu696 2.563 . S
O744 C752 1.235 . S
O745 Eu696 2.419 . S
O745 C760 1.249 . S
O746 Eu707 2.558 . S
O746 C771 1.257 . S
O747 Eu696 2.380 . S
O747 Eu707 2.612 . S
O747 C763 1.276 . S
O748 Eu696 2.432 . S
O748 C770 1.264 . S
O749 Eu707 2.339 . S
O749 C770 1.254 . S
O750 Eu707 2.563 . S
O750 C763 1.235 . S
O751 Eu707 2.419 . S
O751 C771 1.249 . S
C752 O741 1.276 . S
C752 O744 1.235 . S
C753 C755 1.393 . S
C753 C757 1.395 . S
C753 C760 1.492 . S
C754 C755 1.392 . S
C754 C756 1.386 . S
C755 C753 1.393 . S
C755 C754 1.392 . S
C755 H772 0.930 . S
C756 C754 1.386 . S
C756 C758 1.395 . S
C756 H773 0.930 . S
C757 C753 1.395 . S
C757 C758 1.379 . S
C757 H774 0.930 . S
C758 C756 1.395 . S
C758 C757 1.379 . S
C758 H775 0.930 . S
C759 O742 1.264 . S
C759 O743 1.254 . S
C760 Eu696 2.848 . S
C760 O740 1.257 . S
C760 O745 1.249 . S
C760 C753 1.492 . S
C761 H726 0.931 . S
C761 C739 1.420 . S
C761 C762 1.351 . S
C762 H724 0.930 . S
C762 C730 1.423 . S
C762 C761 1.351 . S
C763 O747 1.276 . S
C763 O750 1.235 . S
C764 C765 1.393 . S
C764 C768 1.395 . S
C764 C771 1.492 . S
C765 C764 1.393 . S
C765 C766 1.392 . S
C765 H776 0.930 . S
C766 C765 1.392 . S
C766 C767 1.386 . S
C767 C766 1.386 . S
C767 C769 1.395 . S
C767 H777 0.930 . S
C768 C764 1.395 . S
C768 C769 1.379 . S
C768 H778 0.930 . S
C769 C767 1.395 . S
C769 C768 1.379 . S
C769 H779 0.930 . S
C770 O748 1.264 . S
C770 O749 1.254 . S
C771 Eu707 2.848 . S
C771 O746 1.257 . S
C771 O751 1.249 . S
C771 C764 1.492 . S
H772 C755 0.930 . S
H773 C756 0.930 . S
H774 C757 0.930 . S
H775 C758 0.930 . S
H776 C765 0.930 . S
H777 C767 0.930 . S
H778 C768 0.930 . S
H779 C769 0.930 . S
Eu780 N811 2.657 . S
Eu780 N818 2.609 . S
Eu780 O824 2.558 . S
Eu780 O825 2.612 . S
Eu780 O827 2.339 . S
Eu780 O828 2.563 . S
Eu780 O829 2.419 . S
Eu780 O831 2.380 . S
Eu780 O832 2.432 . S
Eu780 C844 2.848 . S
C781 C784 1.429 . S
C781 C785 1.411 . S
C781 N788 1.377 . S
C782 C784 1.420 . S
C782 C786 1.423 . S
C782 C794 1.392 . S
C783 C785 1.420 . S
C783 C786 1.351 . S
C783 H806 0.931 . S
C784 C781 1.429 . S
C784 C782 1.420 . S
C784 N792 1.362 . S
C785 C781 1.411 . S
C785 C783 1.420 . S
C785 C790 1.395 . S
C786 C782 1.423 . S
C786 C783 1.351 . S
C786 H798 0.930 . S
C787 C789 1.400 . S
C787 C790 1.386 . S
C787 H799 0.930 . S
N788 C781 1.377 . S
N788 C789 1.321 . S
N788 Eu791 2.609 . S
C789 C787 1.400 . S
C789 N788 1.321 . S
C789 H796 0.930 . S
C790 C785 1.395 . S
C790 C787 1.386 . S
C790 H809 0.930 . S
Eu791 N788 2.609 . S
Eu791 N792 2.657 . S
Eu791 O825 2.380 . S
Eu791 O826 2.432 . S
Eu791 O830 2.558 . S
Eu791 O831 2.612 . S
Eu791 O833 2.339 . S
Eu791 O834 2.563 . S
Eu791 O835 2.419 . S
Eu791 C855 2.848 . S
N792 C784 1.362 . S
N792 Eu791 2.657 . S
N792 C793 1.334 . S
C793 N792 1.334 . S
C793 C795 1.413 . S
C793 H800 0.929 . S
C794 C782 1.392 . S
C794 C795 1.367 . S
C794 H802 0.930 . S
C795 C793 1.413 . S
C795 C794 1.367 . S
C795 H797 0.930 . S
H796 C789 0.930 . S
H797 C795 0.930 . S
H798 C786 0.930 . S
H799 C787 0.930 . S
H800 C793 0.929 . S
H801 C815 0.930 . S
H802 C794 0.930 . S
H803 C821 0.930 . S
H804 C812 0.929 . S
H805 C819 0.930 . S
H806 C783 0.931 . S
H807 C813 0.930 . S
H808 C846 0.930 . S
H809 C790 0.930 . S
H810 C845 0.931 . S
N811 Eu780 2.657 . S
N811 C812 1.334 . S
N811 C816 1.362 . S
C812 H804 0.929 . S
C812 N811 1.334 . S
C812 C815 1.413 . S
C813 H807 0.930 . S
C813 C814 1.392 . S
C813 C815 1.367 . S
C814 C813 1.392 . S
C814 C816 1.420 . S
C814 C846 1.423 . S
C815 H801 0.930 . S
C815 C812 1.413 . S
C815 C813 1.367 . S
C816 N811 1.362 . S
C816 C814 1.420 . S
C816 C820 1.429 . S
H817 C822 0.930 . S
N818 Eu780 2.609 . S
N818 C820 1.377 . S
N818 C821 1.321 . S
C819 H805 0.930 . S
C819 C821 1.400 . S
C819 C822 1.386 . S
C820 C816 1.429 . S
C820 N818 1.377 . S
C820 C823 1.411 . S
C821 H803 0.930 . S
C821 N818 1.321 . S
C821 C819 1.400 . S
C822 H817 0.930 . S
C822 C819 1.386 . S
C822 C823 1.395 . S
C823 C820 1.411 . S
C823 C822 1.395 . S
C823 C845 1.420 . S
O824 Eu780 2.558 . S
O824 C844 1.257 . S
O825 Eu780 2.612 . S
O825 Eu791 2.380 . S
O825 C836 1.276 . S
O826 Eu791 2.432 . S
O826 C843 1.264 . S
O827 Eu780 2.339 . S
O827 C843 1.254 . S
O828 Eu780 2.563 . S
O828 C836 1.235 . S
O829 Eu780 2.419 . S
O829 C844 1.249 . S
O830 Eu791 2.558 . S
O830 C855 1.257 . S
O831 Eu780 2.380 . S
O831 Eu791 2.612 . S
O831 C847 1.276 . S
O832 Eu780 2.432 . S
O832 C854 1.264 . S
O833 Eu791 2.339 . S
O833 C854 1.254 . S
O834 Eu791 2.563 . S
O834 C847 1.235 . S
O835 Eu791 2.419 . S
O835 C855 1.249 . S
C836 O825 1.276 . S
C836 O828 1.235 . S
C837 C839 1.393 . S
C837 C841 1.395 . S
C837 C844 1.492 . S
C838 C839 1.392 . S
C838 C840 1.386 . S
C839 C837 1.393 . S
C839 C838 1.392 . S
C839 H856 0.930 . S
C840 C838 1.386 . S
C840 C842 1.395 . S
C840 H857 0.930 . S
C841 C837 1.395 . S
C841 C842 1.379 . S
C841 H858 0.930 . S
C842 C840 1.395 . S
C842 C841 1.379 . S
C842 H859 0.930 . S
C843 O826 1.264 . S
C843 O827 1.254 . S
C844 Eu780 2.848 . S
C844 O824 1.257 . S
C844 O829 1.249 . S
C844 C837 1.492 . S
C845 H810 0.931 . S
C845 C823 1.420 . S
C845 C846 1.351 . S
C846 H808 0.930 . S
C846 C814 1.423 . S
C846 C845 1.351 . S
C847 O831 1.276 . S
C847 O834 1.235 . S
C848 C849 1.393 . S
C848 C852 1.395 . S
C848 C855 1.492 . S
C849 C848 1.393 . S
C849 C850 1.392 . S
C849 H860 0.930 . S
C850 C849 1.392 . S
C850 C851 1.386 . S
C851 C850 1.386 . S
C851 C853 1.395 . S
C851 H861 0.930 . S
C852 C848 1.395 . S
C852 C853 1.379 . S
C852 H862 0.930 . S
C853 C851 1.395 . S
C853 C852 1.379 . S
C853 H863 0.930 . S
C854 O832 1.264 . S
C854 O833 1.254 . S
C855 Eu791 2.848 . S
C855 O830 1.257 . S
C855 O835 1.249 . S
C855 C848 1.492 . S
H856 C839 0.930 . S
H857 C840 0.930 . S
H858 C841 0.930 . S
H859 C842 0.930 . S
H860 C849 0.930 . S
H861 C851 0.930 . S
H862 C852 0.930 . S
H863 C853 0.930 . S
Eu864 N895 2.657 . S
Eu864 N902 2.609 . S
Eu864 O908 2.558 . S
Eu864 O909 2.612 . S
Eu864 O911 2.339 . S
Eu864 O912 2.563 . S
Eu864 O913 2.419 . S
Eu864 O915 2.380 . S
Eu864 O916 2.432 . S
Eu864 C928 2.848 . S
C865 C868 1.429 . S
C865 C869 1.411 . S
C865 N872 1.377 . S
C866 C868 1.420 . S
C866 C870 1.423 . S
C866 C878 1.392 . S
C867 C869 1.420 . S
C867 C870 1.351 . S
C867 H890 0.931 . S
C868 C865 1.429 . S
C868 C866 1.420 . S
C868 N876 1.362 . S
C869 C865 1.411 . S
C869 C867 1.420 . S
C869 C874 1.395 . S
C870 C866 1.423 . S
C870 C867 1.351 . S
C870 H882 0.930 . S
C871 C873 1.400 . S
C871 C874 1.386 . S
C871 H883 0.930 . S
N872 C865 1.377 . S
N872 C873 1.321 . S
N872 Eu875 2.609 . S
C873 C871 1.400 . S
C873 N872 1.321 . S
C873 H880 0.930 . S
C874 C869 1.395 . S
C874 C871 1.386 . S
C874 H893 0.930 . S
Eu875 N872 2.609 . S
Eu875 N876 2.657 . S
Eu875 O909 2.380 . S
Eu875 O910 2.432 . S
Eu875 O914 2.558 . S
Eu875 O915 2.612 . S
Eu875 O917 2.339 . S
Eu875 O918 2.563 . S
Eu875 O919 2.419 . S
Eu875 C939 2.848 . S
N876 C868 1.362 . S
N876 Eu875 2.657 . S
N876 C877 1.334 . S
C877 N876 1.334 . S
C877 C879 1.413 . S
C877 H884 0.929 . S
C878 C866 1.392 . S
C878 C879 1.367 . S
C878 H886 0.930 . S
C879 C877 1.413 . S
C879 C878 1.367 . S
C879 H881 0.930 . S
H880 C873 0.930 . S
H881 C879 0.930 . S
H882 C870 0.930 . S
H883 C871 0.930 . S
H884 C877 0.929 . S
H885 C899 0.930 . S
H886 C878 0.930 . S
H887 C905 0.930 . S
H888 C896 0.929 . S
H889 C903 0.930 . S
H890 C867 0.931 . S
H891 C897 0.930 . S
H892 C930 0.930 . S
H893 C874 0.930 . S
H894 C929 0.931 . S
N895 Eu864 2.657 . S
N895 C896 1.334 . S
N895 C900 1.362 . S
C896 H888 0.929 . S
C896 N895 1.334 . S
C896 C899 1.413 . S
C897 H891 0.930 . S
C897 C898 1.392 . S
C897 C899 1.367 . S
C898 C897 1.392 . S
C898 C900 1.420 . S
C898 C930 1.423 . S
C899 H885 0.930 . S
C899 C896 1.413 . S
C899 C897 1.367 . S
C900 N895 1.362 . S
C900 C898 1.420 . S
C900 C904 1.429 . S
H901 C906 0.930 . S
N902 Eu864 2.609 . S
N902 C904 1.377 . S
N902 C905 1.321 . S
C903 H889 0.930 . S
C903 C905 1.400 . S
C903 C906 1.386 . S
C904 C900 1.429 . S
C904 N902 1.377 . S
C904 C907 1.411 . S
C905 H887 0.930 . S
C905 N902 1.321 . S
C905 C903 1.400 . S
C906 H901 0.930 . S
C906 C903 1.386 . S
C906 C907 1.395 . S
C907 C904 1.411 . S
C907 C906 1.395 . S
C907 C929 1.420 . S
O908 Eu864 2.558 . S
O908 C928 1.257 . S
O909 Eu864 2.612 . S
O909 Eu875 2.380 . S
O909 C920 1.276 . S
O910 Eu875 2.432 . S
O910 C927 1.264 . S
O911 Eu864 2.339 . S
O911 C927 1.254 . S
O912 Eu864 2.563 . S
O912 C920 1.235 . S
O913 Eu864 2.419 . S
O913 C928 1.249 . S
O914 Eu875 2.558 . S
O914 C939 1.257 . S
O915 Eu864 2.380 . S
O915 Eu875 2.612 . S
O915 C931 1.276 . S
O916 Eu864 2.432 . S
O916 C938 1.264 . S
O917 Eu875 2.339 . S
O917 C938 1.254 . S
O918 Eu875 2.563 . S
O918 C931 1.235 . S
O919 Eu875 2.419 . S
O919 C939 1.249 . S
C920 O909 1.276 . S
C920 O912 1.235 . S
C921 C923 1.393 . S
C921 C925 1.395 . S
C921 C928 1.492 . S
C922 C923 1.392 . S
C922 C924 1.386 . S
C923 C921 1.393 . S
C923 C922 1.392 . S
C923 H940 0.930 . S
C924 C922 1.386 . S
C924 C926 1.395 . S
C924 H941 0.930 . S
C925 C921 1.395 . S
C925 C926 1.379 . S
C925 H942 0.930 . S
C926 C924 1.395 . S
C926 C925 1.379 . S
C926 H943 0.930 . S
C927 O910 1.264 . S
C927 O911 1.254 . S
C928 Eu864 2.848 . S
C928 O908 1.257 . S
C928 O913 1.249 . S
C928 C921 1.492 . S
C929 H894 0.931 . S
C929 C907 1.420 . S
C929 C930 1.351 . S
C930 H892 0.930 . S
C930 C898 1.423 . S
C930 C929 1.351 . S
C931 O915 1.276 . S
C931 O918 1.235 . S
C932 C933 1.393 . S
C932 C936 1.395 . S
C932 C939 1.492 . S
C933 C932 1.393 . S
C933 C934 1.392 . S
C933 H944 0.930 . S
C934 C933 1.392 . S
C934 C935 1.386 . S
C935 C934 1.386 . S
C935 C937 1.395 . S
C935 H945 0.930 . S
C936 C932 1.395 . S
C936 C937 1.379 . S
C936 H946 0.930 . S
C937 C935 1.395 . S
C937 C936 1.379 . S
C937 H947 0.930 . S
C938 O916 1.264 . S
C938 O917 1.254 . S
C939 Eu875 2.848 . S
C939 O914 1.257 . S
C939 O919 1.249 . S
C939 C932 1.492 . S
H940 C923 0.930 . S
H941 C924 0.930 . S
H942 C925 0.930 . S
H943 C926 0.930 . S
H944 C933 0.930 . S
H945 C935 0.930 . S
H946 C936 0.930 . S
H947 C937 0.930 . S
H948 C960 0.930 . S
H949 C962 0.930 . S
H950 C963 0.930 . S
H951 C967 0.959 . S
H952 C967 0.959 . S
H953 C967 0.961 . S
H954 C968 0.960 . S
H955 C968 0.961 . S
H956 C968 0.959 . S
H957 C971 0.929 . S
H958 C972 0.931 . S
H959 C974 0.930 . S
C960 H948 0.930 . S
C960 C961 1.399 . S
C960 C965 1.399 . S
C961 C960 1.399 . S
C961 C962 1.376 . S
C962 H949 0.930 . S
C962 C961 1.376 . S
C962 C963 1.388 . S
C963 H950 0.930 . S
C963 C962 1.388 . S
C963 C964 1.390 . S
C964 C963 1.390 . S
C964 C965 1.394 . S
C964 C970 1.465 . S
C965 C960 1.399 . S
C965 C964 1.394 . S
C965 C966 1.516 . S
C966 C965 1.516 . S
C966 C967 1.502 . S
C966 C968 1.561 . S
C966 C969 1.526 . S
C967 H951 0.959 . S
C967 H952 0.959 . S
C967 H953 0.961 . S
C967 C966 1.502 . S
C968 H954 0.960 . S
C968 H955 0.961 . S
C968 H956 0.959 . S
C968 C966 1.561 . S
C969 C966 1.526 . S
C969 C970 1.396 . S
C969 C974 1.390 . S
C970 C964 1.465 . S
C970 C969 1.396 . S
C970 C971 1.399 . S
C971 H957 0.929 . S
C971 C970 1.399 . S
C971 C972 1.385 . S
C972 H958 0.931 . S
C972 C971 1.385 . S
C972 C973 1.389 . S
C973 C972 1.389 . S
C973 C974 1.387 . S
C974 H959 0.930 . S
C974 C969 1.390 . S
C974 C973 1.387 . S
H975 C987 0.930 . S
H976 C989 0.930 . S
H977 C990 0.930 . S
H978 C994 0.959 . S
H979 C994 0.959 . S
H980 C994 0.961 . S
H981 C995 0.960 . S
H982 C995 0.961 . S
H983 C995 0.959 . S
H984 C998 0.929 . S
H985 C999 0.931 . S
H986 C1001 0.930 . S
C987 H975 0.930 . S
C987 C988 1.399 . S
C987 C992 1.399 . S
C988 C987 1.399 . S
C988 C989 1.376 . S
C989 H976 0.930 . S
C989 C988 1.376 . S
C989 C990 1.388 . S
C990 H977 0.930 . S
C990 C989 1.388 . S
C990 C991 1.390 . S
C991 C990 1.390 . S
C991 C992 1.394 . S
C991 C997 1.465 . S
C992 C987 1.399 . S
C992 C991 1.394 . S
C992 C993 1.516 . S
C993 C992 1.516 . S
C993 C994 1.502 . S
C993 C995 1.561 . S
C993 C996 1.526 . S
C994 H978 0.959 . S
C994 H979 0.959 . S
C994 H980 0.961 . S
C994 C993 1.502 . S
C995 H981 0.960 . S
C995 H982 0.961 . S
C995 H983 0.959 . S
C995 C993 1.561 . S
C996 C993 1.526 . S
C996 C997 1.396 . S
C996 C1001 1.390 . S
C997 C991 1.465 . S
C997 C996 1.396 . S
C997 C998 1.399 . S
C998 H984 0.929 . S
C998 C997 1.399 . S
C998 C999 1.385 . S
C999 H985 0.931 . S
C999 C998 1.385 . S
C999 C1000 1.389 . S
C1000 C999 1.389 . S
C1000 C1001 1.387 . S
C1001 H986 0.930 . S
C1001 C996 1.390 . S
C1001 C1000 1.387 . S
H1002 C1014 0.930 . S
H1003 C1016 0.930 . S
H1004 C1017 0.930 . S
H1005 C1021 0.959 . S
H1006 C1021 0.959 . S
H1007 C1021 0.961 . S
H1008 C1022 0.960 . S
H1009 C1022 0.961 . S
H1010 C1022 0.959 . S
H1011 C1025 0.929 . S
H1012 C1026 0.931 . S
H1013 C1028 0.930 . S
C1014 H1002 0.930 . S
C1014 C1015 1.399 . S
C1014 C1019 1.399 . S
C1015 C1014 1.399 . S
C1015 C1016 1.376 . S
C1016 H1003 0.930 . S
C1016 C1015 1.376 . S
C1016 C1017 1.388 . S
C1017 H1004 0.930 . S
C1017 C1016 1.388 . S
C1017 C1018 1.390 . S
C1018 C1017 1.390 . S
C1018 C1019 1.394 . S
C1018 C1024 1.465 . S
C1019 C1014 1.399 . S
C1019 C1018 1.394 . S
C1019 C1020 1.516 . S
C1020 C1019 1.516 . S
C1020 C1021 1.502 . S
C1020 C1022 1.561 . S
C1020 C1023 1.526 . S
C1021 H1005 0.959 . S
C1021 H1006 0.959 . S
C1021 H1007 0.961 . S
C1021 C1020 1.502 . S
C1022 H1008 0.960 . S
C1022 H1009 0.961 . S
C1022 H1010 0.959 . S
C1022 C1020 1.561 . S
C1023 C1020 1.526 . S
C1023 C1024 1.396 . S
C1023 C1028 1.390 . S
C1024 C1018 1.465 . S
C1024 C1023 1.396 . S
C1024 C1025 1.399 . S
C1025 H1011 0.929 . S
C1025 C1024 1.399 . S
C1025 C1026 1.385 . S
C1026 H1012 0.931 . S
C1026 C1025 1.385 . S
C1026 C1027 1.389 . S
C1027 C1026 1.389 . S
C1027 C1028 1.387 . S
C1028 H1013 0.930 . S
C1028 C1023 1.390 . S
C1028 C1027 1.387 . S
H1029 C1041 0.930 . S
H1030 C1043 0.930 . S
H1031 C1044 0.930 . S
H1032 C1048 0.959 . S
H1033 C1048 0.959 . S
H1034 C1048 0.961 . S
H1035 C1049 0.960 . S
H1036 C1049 0.961 . S
H1037 C1049 0.959 . S
H1038 C1052 0.929 . S
H1039 C1053 0.931 . S
H1040 C1055 0.930 . S
C1041 H1029 0.930 . S
C1041 C1042 1.399 . S
C1041 C1046 1.399 . S
C1042 C1041 1.399 . S
C1042 C1043 1.376 . S
C1043 H1030 0.930 . S
C1043 C1042 1.376 . S
C1043 C1044 1.388 . S
C1044 H1031 0.930 . S
C1044 C1043 1.388 . S
C1044 C1045 1.390 . S
C1045 C1044 1.390 . S
C1045 C1046 1.394 . S
C1045 C1051 1.465 . S
C1046 C1041 1.399 . S
C1046 C1045 1.394 . S
C1046 C1047 1.516 . S
C1047 C1046 1.516 . S
C1047 C1048 1.502 . S
C1047 C1049 1.561 . S
C1047 C1050 1.526 . S
C1048 H1032 0.959 . S
C1048 H1033 0.959 . S
C1048 H1034 0.961 . S
C1048 C1047 1.502 . S
C1049 H1035 0.960 . S
C1049 H1036 0.961 . S
C1049 H1037 0.959 . S
C1049 C1047 1.561 . S
C1050 C1047 1.526 . S
C1050 C1051 1.396 . S
C1050 C1055 1.390 . S
C1051 C1045 1.465 . S
C1051 C1050 1.396 . S
C1051 C1052 1.399 . S
C1052 H1038 0.929 . S
C1052 C1051 1.399 . S
C1052 C1053 1.385 . S
C1053 H1039 0.931 . S
C1053 C1052 1.385 . S
C1053 C1054 1.389 . S
C1054 C1053 1.389 . S
C1054 C1055 1.387 . S
C1055 H1040 0.930 . S
C1055 C1050 1.390 . S
C1055 C1054 1.387 . S
H1056 C1068 0.930 . S
H1057 C1070 0.915 1_545 S
H1058 C1071 0.930 . S
H1059 C1075 0.959 . S
H1060 C1075 0.959 . S
H1061 C1075 0.961 . S
H1062 C1076 0.960 . S
H1063 C1076 0.961 . S
H1064 C1076 0.959 . S
H1065 C1079 0.929 . S
H1066 C1080 0.931 . S
H1067 C1082 0.930 . S
C1068 H1056 0.930 . S
C1068 C1069 1.399 . S
C1068 C1073 1.399 . S
C1069 C1068 1.399 . S
C1069 C1070 1.376 . S
C1070 H1057 0.915 1_565 S
C1070 C1069 1.376 . S
C1070 C1071 1.388 . S
C1071 H1058 0.930 . S
C1071 C1070 1.388 . S
C1071 C1072 1.390 . S
C1072 C1071 1.390 . S
C1072 C1073 1.394 . S
C1072 C1078 1.465 . S
C1073 C1068 1.399 . S
C1073 C1072 1.394 . S
C1073 C1074 1.516 . S
C1074 C1073 1.516 . S
C1074 C1075 1.502 . S
C1074 C1076 1.561 . S
C1074 C1077 1.526 . S
C1075 H1059 0.959 . S
C1075 H1060 0.959 . S
C1075 H1061 0.961 . S
C1075 C1074 1.502 . S
C1076 H1062 0.960 . S
C1076 H1063 0.961 . S
C1076 H1064 0.959 . S
C1076 C1074 1.561 . S
C1077 C1074 1.526 . S
C1077 C1078 1.396 . S
C1077 C1082 1.390 . S
C1078 C1072 1.465 . S
C1078 C1077 1.396 . S
C1078 C1079 1.399 . S
C1079 H1065 0.929 . S
C1079 C1078 1.399 . S
C1079 C1080 1.385 . S
C1080 H1066 0.931 . S
C1080 C1079 1.385 . S
C1080 C1081 1.389 . S
C1081 C1080 1.389 . S
C1081 C1082 1.387 . S
C1082 H1067 0.930 . S
C1082 C1077 1.390 . S
C1082 C1081 1.387 . S
H1083 C1095 0.930 . S
H1084 C1097 0.930 . S
H1085 C1098 0.930 . S
H1086 C1102 0.959 . S
H1087 C1102 0.959 . S
H1088 C1102 0.961 . S
H1089 C1103 0.960 . S
H1090 C1103 0.961 . S
H1091 C1103 0.959 . S
H1092 C1106 0.929 . S
H1093 C1107 0.931 . S
H1094 C1109 0.930 . S
C1095 H1083 0.930 . S
C1095 C1096 1.399 . S
C1095 C1100 1.399 . S
C1096 C1095 1.399 . S
C1096 C1097 1.376 . S
C1097 H1084 0.930 . S
C1097 C1096 1.376 . S
C1097 C1098 1.388 . S
C1098 H1085 0.930 . S
C1098 C1097 1.388 . S
C1098 C1099 1.390 . S
C1099 C1098 1.390 . S
C1099 C1100 1.394 . S
C1099 C1105 1.465 . S
C1100 C1095 1.399 . S
C1100 C1099 1.394 . S
C1100 C1101 1.516 . S
C1101 C1100 1.516 . S
C1101 C1102 1.502 . S
C1101 C1103 1.561 . S
C1101 C1104 1.526 . S
C1102 H1086 0.959 . S
C1102 H1087 0.959 . S
C1102 H1088 0.961 . S
C1102 C1101 1.502 . S
C1103 H1089 0.960 . S
C1103 H1090 0.961 . S
C1103 H1091 0.959 . S
C1103 C1101 1.561 . S
C1104 C1101 1.526 . S
C1104 C1105 1.396 . S
C1104 C1109 1.390 . S
C1105 C1099 1.465 . S
C1105 C1104 1.396 . S
C1105 C1106 1.399 . S
C1106 H1092 0.929 . S
C1106 C1105 1.399 . S
C1106 C1107 1.385 . S
C1107 H1093 0.931 . S
C1107 C1106 1.385 . S
C1107 C1108 1.389 . S
C1108 C1107 1.389 . S
C1108 C1109 1.387 . S
C1109 H1094 0.930 . S
C1109 C1104 1.390 . S
C1109 C1108 1.387 . S
H1110 C1122 0.930 . S
H1111 C1124 0.930 . S
H1112 C1125 0.930 . S
H1113 C1129 0.959 . S
H1114 C1129 0.959 . S
H1115 C1129 0.961 . S
H1116 C1130 0.960 . S
H1117 C1130 0.961 . S
H1118 C1130 0.959 . S
H1119 C1133 0.929 . S
H1120 C1134 0.931 . S
H1121 C1136 0.930 . S
C1122 H1110 0.930 . S
C1122 C1123 1.399 . S
C1122 C1127 1.399 . S
C1123 C1122 1.399 . S
C1123 C1124 1.376 . S
C1124 H1111 0.930 . S
C1124 C1123 1.376 . S
C1124 C1125 1.388 . S
C1125 H1112 0.930 . S
C1125 C1124 1.388 . S
C1125 C1126 1.390 . S
C1126 C1125 1.390 . S
C1126 C1127 1.394 . S
C1126 C1132 1.465 . S
C1127 C1122 1.399 . S
C1127 C1126 1.394 . S
C1127 C1128 1.516 . S
C1128 C1127 1.516 . S
C1128 C1129 1.502 . S
C1128 C1130 1.561 . S
C1128 C1131 1.526 . S
C1129 H1113 0.959 . S
C1129 H1114 0.959 . S
C1129 H1115 0.961 . S
C1129 C1128 1.502 . S
C1130 H1116 0.960 . S
C1130 H1117 0.961 . S
C1130 H1118 0.959 . S
C1130 C1128 1.561 . S
C1131 C1128 1.526 . S
C1131 C1132 1.396 . S
C1131 C1136 1.390 . S
C1132 C1126 1.465 . S
C1132 C1131 1.396 . S
C1132 C1133 1.399 . S
C1133 H1119 0.929 . S
C1133 C1132 1.399 . S
C1133 C1134 1.385 . S
C1134 H1120 0.931 . S
C1134 C1133 1.385 . S
C1134 C1135 1.389 . S
C1135 C1134 1.389 . S
C1135 C1136 1.387 . S
C1136 H1121 0.930 . S
C1136 C1131 1.390 . S
C1136 C1135 1.387 . S
H1137 C1149 0.930 . S
H1138 C1151 0.930 . S
H1139 C1152 0.930 . S
H1140 C1156 0.959 . S
H1141 C1156 0.959 . S
H1142 C1156 0.961 . S
H1143 C1157 0.960 . S
H1144 C1157 0.961 . S
H1145 C1157 0.959 . S
H1146 C1160 0.929 . S
H1147 C1161 0.931 . S
H1148 C1163 0.930 . S
C1149 H1137 0.930 . S
C1149 C1150 1.399 . S
C1149 C1154 1.399 . S
C1150 C1149 1.399 . S
C1150 C1151 1.376 . S
C1151 H1138 0.930 . S
C1151 C1150 1.376 . S
C1151 C1152 1.388 . S
C1152 H1139 0.930 . S
C1152 C1151 1.388 . S
C1152 C1153 1.390 . S
C1153 C1152 1.390 . S
C1153 C1154 1.394 . S
C1153 C1159 1.465 . S
C1154 C1149 1.399 . S
C1154 C1153 1.394 . S
C1154 C1155 1.516 . S
C1155 C1154 1.516 . S
C1155 C1156 1.502 . S
C1155 C1157 1.561 . S
C1155 C1158 1.526 . S
C1156 H1140 0.959 . S
C1156 H1141 0.959 . S
C1156 H1142 0.961 . S
C1156 C1155 1.502 . S
C1157 H1143 0.960 . S
C1157 H1144 0.961 . S
C1157 H1145 0.959 . S
C1157 C1155 1.561 . S
C1158 C1155 1.526 . S
C1158 C1159 1.396 . S
C1158 C1163 1.390 . S
C1159 C1153 1.465 . S
C1159 C1158 1.396 . S
C1159 C1160 1.399 . S
C1160 H1146 0.929 . S
C1160 C1159 1.399 . S
C1160 C1161 1.385 . S
C1161 H1147 0.931 . S
C1161 C1160 1.385 . S
C1161 C1162 1.389 . S
C1162 C1161 1.389 . S
C1162 C1163 1.387 . S
C1163 H1148 0.930 . S
C1163 C1158 1.390 . S
C1163 C1162 1.387 . S
H1164 C1176 0.930 . S
H1165 C1178 0.930 . S
H1166 C1179 0.930 . S
H1167 C1183 0.959 . S
H1168 C1183 0.959 . S
H1169 C1183 0.961 . S
H1170 C1184 0.960 . S
H1171 C1184 0.961 . S
H1172 C1184 0.959 . S
H1173 C1187 0.929 . S
H1174 C1188 0.931 . S
H1175 C1190 0.930 . S
C1176 H1164 0.930 . S
C1176 C1177 1.399 . S
C1176 C1181 1.399 . S
C1177 C1176 1.399 . S
C1177 C1178 1.376 . S
C1178 H1165 0.930 . S
C1178 C1177 1.376 . S
C1178 C1179 1.388 . S
C1179 H1166 0.930 . S
C1179 C1178 1.388 . S
C1179 C1180 1.390 . S
C1180 C1179 1.390 . S
C1180 C1181 1.394 . S
C1180 C1186 1.465 . S
C1181 C1176 1.399 . S
C1181 C1180 1.394 . S
C1181 C1182 1.516 . S
C1182 C1181 1.516 . S
C1182 C1183 1.502 . S
C1182 C1184 1.561 . S
C1182 C1185 1.526 . S
C1183 H1167 0.959 . S
C1183 H1168 0.959 . S
C1183 H1169 0.961 . S
C1183 C1182 1.502 . S
C1184 H1170 0.960 . S
C1184 H1171 0.961 . S
C1184 H1172 0.959 . S
C1184 C1182 1.561 . S
C1185 C1182 1.526 . S
C1185 C1186 1.396 . S
C1185 C1190 1.390 . S
C1186 C1180 1.465 . S
C1186 C1185 1.396 . S
C1186 C1187 1.399 . S
C1187 H1173 0.929 . S
C1187 C1186 1.399 . S
C1187 C1188 1.385 . S
C1188 H1174 0.931 . S
C1188 C1187 1.385 . S
C1188 C1189 1.389 . S
C1189 C1188 1.389 . S
C1189 C1190 1.387 . S
C1190 H1175 0.930 . S
C1190 C1185 1.390 . S
C1190 C1189 1.387 . S
H1191 C1203 0.930 . S
H1192 C1205 0.930 . S
H1193 C1206 0.930 . S
H1194 C1210 0.959 . S
H1195 C1210 0.959 . S
H1196 C1210 0.961 . S
H1197 C1211 0.960 . S
H1198 C1211 0.961 . S
H1199 C1211 0.959 . S
H1200 C1214 0.929 . S
H1201 C1215 0.931 . S
H1202 C1217 0.930 . S
C1203 H1191 0.930 . S
C1203 C1204 1.399 . S
C1203 C1208 1.399 . S
C1204 C1203 1.399 . S
C1204 C1205 1.376 . S
C1205 H1192 0.930 . S
C1205 C1204 1.376 . S
C1205 C1206 1.388 . S
C1206 H1193 0.930 . S
C1206 C1205 1.388 . S
C1206 C1207 1.390 . S
C1207 C1206 1.390 . S
C1207 C1208 1.394 . S
C1207 C1213 1.465 . S
C1208 C1203 1.399 . S
C1208 C1207 1.394 . S
C1208 C1209 1.516 . S
C1209 C1208 1.516 . S
C1209 C1210 1.502 . S
C1209 C1211 1.561 . S
C1209 C1212 1.526 . S
C1210 H1194 0.959 . S
C1210 H1195 0.959 . S
C1210 H1196 0.961 . S
C1210 C1209 1.502 . S
C1211 H1197 0.960 . S
C1211 H1198 0.961 . S
C1211 H1199 0.959 . S
C1211 C1209 1.561 . S
C1212 C1209 1.526 . S
C1212 C1213 1.396 . S
C1212 C1217 1.390 . S
C1213 C1207 1.465 . S
C1213 C1212 1.396 . S
C1213 C1214 1.399 . S
C1214 H1200 0.929 . S
C1214 C1213 1.399 . S
C1214 C1215 1.385 . S
C1215 H1201 0.931 . S
C1215 C1214 1.385 . S
C1215 C1216 1.389 . S
C1216 C1215 1.389 . S
C1216 C1217 1.387 . S
C1217 H1202 0.930 . S
C1217 C1212 1.390 . S
C1217 C1216 1.387 . S
H1218 C1230 0.930 . S
H1219 C1232 0.930 . S
H1220 C1233 0.930 . S
H1221 C1237 0.959 . S
H1222 C1237 0.959 . S
H1223 C1237 0.961 . S
H1224 C1238 0.960 . S
H1225 C1238 0.961 . S
H1226 C1238 0.959 . S
H1227 C1241 0.929 . S
H1228 C1242 0.931 . S
H1229 C1244 0.930 . S
C1230 H1218 0.930 . S
C1230 C1231 1.399 . S
C1230 C1235 1.399 . S
C1231 C1230 1.399 . S
C1231 C1232 1.376 . S
C1232 H1219 0.930 . S
C1232 C1231 1.376 . S
C1232 C1233 1.388 . S
C1233 H1220 0.930 . S
C1233 C1232 1.388 . S
C1233 C1234 1.390 . S
C1234 C1233 1.390 . S
C1234 C1235 1.394 . S
C1234 C1240 1.465 . S
C1235 C1230 1.399 . S
C1235 C1234 1.394 . S
C1235 C1236 1.516 . S
C1236 C1235 1.516 . S
C1236 C1237 1.502 . S
C1236 C1238 1.561 . S
C1236 C1239 1.526 . S
C1237 H1221 0.959 . S
C1237 H1222 0.959 . S
C1237 H1223 0.961 . S
C1237 C1236 1.502 . S
C1238 H1224 0.960 . S
C1238 H1225 0.961 . S
C1238 H1226 0.959 . S
C1238 C1236 1.561 . S
C1239 C1236 1.526 . S
C1239 C1240 1.396 . S
C1239 C1244 1.390 . S
C1240 C1234 1.465 . S
C1240 C1239 1.396 . S
C1240 C1241 1.399 . S
C1241 H1227 0.929 . S
C1241 C1240 1.399 . S
C1241 C1242 1.385 . S
C1242 H1228 0.931 . S
C1242 C1241 1.385 . S
C1242 C1243 1.389 . S
C1243 C1242 1.389 . S
C1243 C1244 1.387 . S
C1244 H1229 0.930 . S
C1244 C1239 1.390 . S
C1244 C1243 1.387 . S
H1245 C1257 0.930 . S
H1246 C1259 0.930 . S
H1247 C1260 0.930 . S
H1248 C1264 0.959 . S
H1249 C1264 0.959 . S
H1250 C1264 0.961 . S
H1251 C1265 0.960 . S
H1252 C1265 0.961 . S
H1253 C1265 0.959 . S
H1254 C1268 0.929 . S
H1255 C1269 0.931 . S
H1256 C1271 0.930 . S
C1257 H1245 0.930 . S
C1257 C1258 1.399 . S
C1257 C1262 1.399 . S
C1258 C1257 1.399 . S
C1258 C1259 1.376 . S
C1259 H1246 0.930 . S
C1259 C1258 1.376 . S
C1259 C1260 1.388 . S
C1260 H1247 0.930 . S
C1260 C1259 1.388 . S
C1260 C1261 1.390 . S
C1261 C1260 1.390 . S
C1261 C1262 1.394 . S
C1261 C1267 1.465 . S
C1262 C1257 1.399 . S
C1262 C1261 1.394 . S
C1262 C1263 1.516 . S
C1263 C1262 1.516 . S
C1263 C1264 1.502 . S
C1263 C1265 1.561 . S
C1263 C1266 1.526 . S
C1264 H1248 0.959 . S
C1264 H1249 0.959 . S
C1264 H1250 0.961 . S
C1264 C1263 1.502 . S
C1265 H1251 0.960 . S
C1265 H1252 0.961 . S
C1265 H1253 0.959 . S
C1265 C1263 1.561 . S
C1266 C1263 1.526 . S
C1266 C1267 1.396 . S
C1266 C1271 1.390 . S
C1267 C1261 1.465 . S
C1267 C1266 1.396 . S
C1267 C1268 1.399 . S
C1268 H1254 0.929 . S
C1268 C1267 1.399 . S
C1268 C1269 1.385 . S
C1269 H1255 0.931 . S
C1269 C1268 1.385 . S
C1269 C1270 1.389 . S
C1270 C1269 1.389 . S
C1270 C1271 1.387 . S
C1271 H1256 0.930 . S
C1271 C1266 1.390 . S
C1271 C1270 1.387 . S
H1272 C1284 0.930 . S
H1273 C1286 0.930 . S
H1274 C1287 0.930 . S
H1275 C1291 0.959 . S
H1276 C1291 0.959 . S
H1277 C1291 0.961 1_545 S
H1278 C1292 0.960 1_545 S
H1279 C1292 0.961 . S
H1280 C1292 0.959 . S
H1281 C1295 0.929 . S
H1282 C1296 0.931 . S
H1283 C1298 0.930 . S
C1284 H1272 0.930 . S
C1284 C1285 1.395 1_556 S
C1284 C1289 1.399 1_545 S
C1285 C1284 1.395 1_554 S
C1285 C1286 1.357 1_545 S
C1286 H1273 0.930 . S
C1286 C1285 1.357 1_565 S
C1286 C1287 1.388 . S
C1287 H1274 0.930 . S
C1287 C1286 1.388 . S
C1287 C1288 1.390 1_554 S
C1288 C1287 1.390 1_556 S
C1288 C1289 1.394 . S
C1288 C1294 1.465 . S
C1289 C1284 1.399 1_565 S
C1289 C1288 1.394 . S
C1289 C1290 1.516 . S
C1290 C1289 1.516 . S
C1290 C1291 1.502 . S
C1290 C1292 1.561 . S
C1290 C1293 1.526 . S
C1291 H1275 0.959 . S
C1291 H1276 0.959 . S
C1291 H1277 0.961 1_565 S
C1291 C1290 1.502 . S
C1292 H1278 0.960 1_565 S
C1292 H1279 0.961 . S
C1292 H1280 0.959 . S
C1292 C1290 1.561 . S
C1293 C1290 1.526 . S
C1293 C1294 1.396 . S
C1293 C1298 1.390 . S
C1294 C1288 1.465 . S
C1294 C1293 1.396 . S
C1294 C1295 1.399 . S
C1295 H1281 0.929 . S
C1295 C1294 1.399 . S
C1295 C1296 1.385 . S
C1296 H1282 0.931 . S
C1296 C1295 1.385 . S
C1296 C1297 1.389 . S
C1297 C1296 1.389 . S
C1297 C1298 1.387 . S
C1298 H1283 0.930 . S
C1298 C1293 1.390 . S
C1298 C1297 1.387 . S
H1299 C1311 0.930 . S
H1300 C1313 0.930 1_554 S
H1301 C1314 0.930 . S
H1302 C1318 0.959 . S
H1303 C1318 0.959 . S
H1304 C1318 0.961 . S
H1305 C1319 0.960 . S
H1306 C1319 0.961 . S
H1307 C1319 0.959 . S
H1308 C1322 0.929 . S
H1309 C1323 0.931 . S
H1310 C1325 0.930 . S
C1311 H1299 0.930 . S
C1311 C1312 1.399 . S
C1311 C1316 1.399 . S
C1312 C1311 1.399 . S
C1312 C1313 1.376 . S
C1313 H1300 0.930 1_556 S
C1313 C1312 1.376 . S
C1313 C1314 1.388 . S
C1314 H1301 0.930 . S
C1314 C1313 1.388 . S
C1314 C1315 1.390 . S
C1315 C1314 1.390 . S
C1315 C1316 1.394 . S
C1315 C1321 1.465 . S
C1316 C1311 1.399 . S
C1316 C1315 1.394 . S
C1316 C1317 1.516 . S
C1317 C1316 1.516 . S
C1317 C1318 1.502 . S
C1317 C1319 1.561 . S
C1317 C1320 1.526 . S
C1318 H1302 0.959 . S
C1318 H1303 0.959 . S
C1318 H1304 0.961 . S
C1318 C1317 1.502 . S
C1319 H1305 0.960 . S
C1319 H1306 0.961 . S
C1319 H1307 0.959 . S
C1319 C1317 1.561 . S
C1320 C1317 1.526 . S
C1320 C1321 1.396 . S
C1320 C1325 1.390 . S
C1321 C1315 1.465 . S
C1321 C1320 1.396 . S
C1321 C1322 1.399 . S
C1322 H1308 0.929 . S
C1322 C1321 1.399 . S
C1322 C1323 1.385 . S
C1323 H1309 0.931 . S
C1323 C1322 1.385 . S
C1323 C1324 1.389 . S
C1324 C1323 1.389 . S
C1324 C1325 1.387 . S
C1325 H1310 0.930 . S
C1325 C1320 1.390 . S
C1325 C1324 1.387 . S
H1326 C1338 0.930 . S
H1327 C1340 0.930 . S
H1328 C1341 0.930 . S
H1329 C1345 0.959 . S
H1330 C1345 0.959 . S
H1331 C1345 0.961 . S
H1332 C1346 0.960 . S
H1333 C1346 0.961 . S
H1334 C1346 0.959 . S
H1335 C1349 0.929 . S
H1336 C1350 0.931 . S
H1337 C1352 0.930 . S
C1338 H1326 0.930 . S
C1338 C1339 1.399 . S
C1338 C1343 1.399 . S
C1339 C1338 1.399 . S
C1339 C1340 1.376 . S
C1340 H1327 0.930 . S
C1340 C1339 1.376 . S
C1340 C1341 1.388 . S
C1341 H1328 0.930 . S
C1341 C1340 1.388 . S
C1341 C1342 1.390 . S
C1342 C1341 1.390 . S
C1342 C1343 1.394 . S
C1342 C1348 1.465 . S
C1343 C1338 1.399 . S
C1343 C1342 1.394 . S
C1343 C1344 1.516 . S
C1344 C1343 1.516 . S
C1344 C1345 1.502 . S
C1344 C1346 1.561 . S
C1344 C1347 1.526 . S
C1345 H1329 0.959 . S
C1345 H1330 0.959 . S
C1345 H1331 0.961 . S
C1345 C1344 1.502 . S
C1346 H1332 0.960 . S
C1346 H1333 0.961 . S
C1346 H1334 0.959 . S
C1346 C1344 1.561 . S
C1347 C1344 1.526 . S
C1347 C1348 1.396 . S
C1347 C1352 1.390 . S
C1348 C1342 1.465 . S
C1348 C1347 1.396 . S
C1348 C1349 1.399 . S
C1349 H1335 0.929 . S
C1349 C1348 1.399 . S
C1349 C1350 1.385 . S
C1350 H1336 0.931 . S
C1350 C1349 1.385 . S
C1350 C1351 1.389 . S
C1351 C1350 1.389 . S
C1351 C1352 1.387 . S
C1352 H1337 0.930 . S
C1352 C1347 1.390 . S
C1352 C1351 1.387 . S
H1353 C1365 0.930 . S
H1354 C1367 0.930 . S
H1355 C1368 0.930 . S
H1356 C1372 0.959 . S
H1357 C1372 0.959 . S
H1358 C1372 0.961 . S
H1359 C1373 0.960 . S
H1360 C1373 0.961 . S
H1361 C1373 0.959 . S
H1362 C1376 0.929 . S
H1363 C1377 0.931 . S
H1364 C1379 0.930 . S
C1365 H1353 0.930 . S
C1365 C1366 1.399 . S
C1365 C1370 1.399 . S
C1366 C1365 1.399 . S
C1366 C1367 1.376 . S
C1367 H1354 0.930 . S
C1367 C1366 1.376 . S
C1367 C1368 1.388 . S
C1368 H1355 0.930 . S
C1368 C1367 1.388 . S
C1368 C1369 1.390 . S
C1369 C1368 1.390 . S
C1369 C1370 1.394 . S
C1369 C1375 1.465 . S
C1370 C1365 1.399 . S
C1370 C1369 1.394 . S
C1370 C1371 1.516 . S
C1371 C1370 1.516 . S
C1371 C1372 1.502 . S
C1371 C1373 1.561 . S
C1371 C1374 1.526 . S
C1372 H1356 0.959 . S
C1372 H1357 0.959 . S
C1372 H1358 0.961 . S
C1372 C1371 1.502 . S
C1373 H1359 0.960 . S
C1373 H1360 0.961 . S
C1373 H1361 0.959 . S
C1373 C1371 1.561 . S
C1374 C1371 1.526 . S
C1374 C1375 1.396 . S
C1374 C1379 1.390 . S
C1375 C1369 1.465 . S
C1375 C1374 1.396 . S
C1375 C1376 1.399 . S
C1376 H1362 0.929 . S
C1376 C1375 1.399 . S
C1376 C1377 1.385 . S
C1377 H1363 0.931 . S
C1377 C1376 1.385 . S
C1377 C1378 1.389 . S
C1378 C1377 1.389 . S
C1378 C1379 1.387 . S
C1379 H1364 0.930 . S
C1379 C1374 1.390 . S
C1379 C1378 1.387 . S
H1380 C1392 0.930 . S
H1381 C1394 0.930 . S
H1382 C1395 0.930 . S
H1383 C1399 0.959 . S
H1384 C1399 0.959 . S
H1385 C1399 0.961 . S
H1386 C1400 0.960 . S
H1387 C1400 0.961 . S
H1388 C1400 0.959 . S
H1389 C1403 0.929 . S
H1390 C1404 0.931 . S
H1391 C1406 0.930 . S
C1392 H1380 0.930 . S
C1392 C1393 1.399 . S
C1392 C1397 1.399 . S
C1393 C1392 1.399 . S
C1393 C1394 1.376 . S
C1394 H1381 0.930 . S
C1394 C1393 1.376 . S
C1394 C1395 1.388 . S
C1395 H1382 0.930 . S
C1395 C1394 1.388 . S
C1395 C1396 1.390 . S
C1396 C1395 1.390 . S
C1396 C1397 1.394 . S
C1396 C1402 1.465 . S
C1397 C1392 1.399 . S
C1397 C1396 1.394 . S
C1397 C1398 1.516 . S
C1398 C1397 1.516 . S
C1398 C1399 1.502 . S
C1398 C1400 1.561 . S
C1398 C1401 1.526 . S
C1399 H1383 0.959 . S
C1399 H1384 0.959 . S
C1399 H1385 0.961 . S
C1399 C1398 1.502 . S
C1400 H1386 0.960 . S
C1400 H1387 0.961 . S
C1400 H1388 0.959 . S
C1400 C1398 1.561 . S
C1401 C1398 1.526 . S
C1401 C1402 1.396 . S
C1401 C1406 1.390 . S
C1402 C1396 1.465 . S
C1402 C1401 1.396 . S
C1402 C1403 1.399 . S
C1403 H1389 0.929 . S
C1403 C1402 1.399 . S
C1403 C1404 1.385 . S
C1404 H1390 0.931 . S
C1404 C1403 1.385 . S
C1404 C1405 1.389 . S
C1405 C1404 1.389 . S
C1405 C1406 1.387 . S
C1406 H1391 0.930 . S
C1406 C1401 1.390 . S
C1406 C1405 1.387 . S
H1407 C1419 0.930 . S
H1408 C1421 0.930 . S
H1409 C1422 0.930 . S
H1410 C1426 0.959 . S
H1411 C1426 0.959 . S
H1412 C1426 0.961 . S
H1413 C1427 0.960 . S
H1414 C1427 0.961 . S
H1415 C1427 0.959 . S
H1416 C1430 0.929 . S
H1417 C1431 0.931 . S
H1418 C1433 0.930 . S
C1419 H1407 0.930 . S
C1419 C1420 1.399 . S
C1419 C1424 1.399 . S
C1420 C1419 1.399 . S
C1420 C1421 1.376 . S
C1421 H1408 0.930 . S
C1421 C1420 1.376 . S
C1421 C1422 1.388 . S
C1422 H1409 0.930 . S
C1422 C1421 1.388 . S
C1422 C1423 1.390 . S
C1423 C1422 1.390 . S
C1423 C1424 1.394 . S
C1423 C1429 1.465 . S
C1424 C1419 1.399 . S
C1424 C1423 1.394 . S
C1424 C1425 1.516 . S
C1425 C1424 1.516 . S
C1425 C1426 1.502 . S
C1425 C1427 1.561 . S
C1425 C1428 1.526 . S
C1426 H1410 0.959 . S
C1426 H1411 0.959 . S
C1426 H1412 0.961 . S
C1426 C1425 1.502 . S
C1427 H1413 0.960 . S
C1427 H1414 0.961 . S
C1427 H1415 0.959 . S
C1427 C1425 1.561 . S
C1428 C1425 1.526 . S
C1428 C1429 1.396 . S
C1428 C1433 1.390 . S
C1429 C1423 1.465 . S
C1429 C1428 1.396 . S
C1429 C1430 1.399 . S
C1430 H1416 0.929 . S
C1430 C1429 1.399 . S
C1430 C1431 1.385 . S
C1431 H1417 0.931 . S
C1431 C1430 1.385 . S
C1431 C1432 1.389 . S
C1432 C1431 1.389 . S
C1432 C1433 1.387 . S
C1433 H1418 0.930 . S
C1433 C1428 1.390 . S
C1433 C1432 1.387 . S
H1434 C1446 0.930 . S
H1435 C1448 0.930 . S
H1436 C1449 0.930 . S
H1437 C1453 0.959 . S
H1438 C1453 0.959 . S
H1439 C1453 0.961 . S
H1440 C1454 0.960 . S
H1441 C1454 0.961 . S
H1442 C1454 0.959 . S
H1443 C1457 0.929 . S
H1444 C1458 0.931 . S
H1445 C1460 0.930 . S
C1446 H1434 0.930 . S
C1446 C1447 1.399 1_556 S
C1446 C1451 1.399 . S
C1447 C1446 1.399 1_554 S
C1447 C1448 1.376 . S
C1448 H1435 0.930 . S
C1448 C1447 1.376 . S
C1448 C1449 1.388 1_554 S
C1449 H1436 0.930 . S
C1449 C1448 1.388 1_556 S
C1449 C1450 1.390 . S
C1450 C1449 1.390 . S
C1450 C1451 1.394 . S
C1450 C1456 1.465 . S
C1451 C1446 1.399 . S
C1451 C1450 1.394 . S
C1451 C1452 1.516 . S
C1452 C1451 1.516 . S
C1452 C1453 1.502 . S
C1452 C1454 1.561 . S
C1452 C1455 1.526 . S
C1453 H1437 0.959 . S
C1453 H1438 0.959 . S
C1453 H1439 0.961 . S
C1453 C1452 1.502 . S
C1454 H1440 0.960 . S
C1454 H1441 0.961 . S
C1454 H1442 0.959 . S
C1454 C1452 1.561 . S
C1455 C1452 1.526 . S
C1455 C1456 1.396 . S
C1455 C1460 1.390 . S
C1456 C1450 1.465 . S
C1456 C1455 1.396 . S
C1456 C1457 1.399 . S
C1457 H1443 0.929 . S
C1457 C1456 1.399 . S
C1457 C1458 1.385 . S
C1458 H1444 0.931 . S
C1458 C1457 1.385 . S
C1458 C1459 1.389 . S
C1459 C1458 1.389 . S
C1459 C1460 1.387 . S
C1460 H1445 0.930 . S
C1460 C1455 1.390 . S
C1460 C1459 1.387 . S
H1461 C1473 0.930 . S
H1462 C1475 0.930 . S
H1463 C1476 0.930 . S
H1464 C1480 0.959 . S
H1465 C1480 0.959 . S
H1466 C1480 0.961 . S
H1467 C1481 0.960 . S
H1468 C1481 0.961 . S
H1469 C1481 0.959 . S
H1470 C1484 0.929 . S
H1471 C1485 0.931 . S
H1472 C1487 0.930 . S
C1473 H1461 0.930 . S
C1473 C1474 1.407 . S
C1473 C1478 1.399 1_554 S
C1474 C1473 1.407 . S
C1474 C1475 1.378 1_655 S
C1475 H1462 0.930 . S
C1475 C1474 1.378 1_455 S
C1475 C1476 1.388 1_454 S
C1476 H1463 0.930 . S
C1476 C1475 1.388 1_656 S
C1476 C1477 1.390 . S
C1477 C1476 1.390 . S
C1477 C1478 1.394 . S
C1477 C1483 1.465 . S
C1478 C1473 1.399 1_556 S
C1478 C1477 1.394 . S
C1478 C1479 1.516 . S
C1479 C1478 1.516 . S
C1479 C1480 1.502 . S
C1479 C1481 1.561 . S
C1479 C1482 1.526 . S
C1480 H1464 0.959 . S
C1480 H1465 0.959 . S
C1480 H1466 0.961 . S
C1480 C1479 1.502 . S
C1481 H1467 0.960 . S
C1481 H1468 0.961 . S
C1481 H1469 0.959 . S
C1481 C1479 1.561 . S
C1482 C1479 1.526 . S
C1482 C1483 1.396 . S
C1482 C1487 1.390 . S
C1483 C1477 1.465 . S
C1483 C1482 1.396 . S
C1483 C1484 1.399 . S
C1484 H1470 0.929 . S
C1484 C1483 1.399 . S
C1484 C1485 1.385 . S
C1485 H1471 0.931 . S
C1485 C1484 1.385 . S
C1485 C1486 1.389 . S
C1486 C1485 1.389 . S
C1486 C1487 1.387 . S
C1487 H1472 0.930 . S
C1487 C1482 1.390 . S
C1487 C1486 1.387 . S
H1488 C1500 0.930 . S
H1489 C1502 0.930 . S
H1490 C1503 0.930 . S
H1491 C1507 0.959 . S
H1492 C1507 0.959 . S
H1493 C1507 0.961 . S
H1494 C1508 0.960 . S
H1495 C1508 0.961 . S
H1496 C1508 0.959 . S
H1497 C1511 0.929 . S
H1498 C1512 0.931 . S
H1499 C1514 0.930 . S
C1500 H1488 0.930 . S
C1500 C1501 1.399 . S
C1500 C1505 1.399 . S
C1501 C1500 1.399 . S
C1501 C1502 1.376 . S
C1502 H1489 0.930 . S
C1502 C1501 1.376 . S
C1502 C1503 1.388 . S
C1503 H1490 0.930 . S
C1503 C1502 1.388 . S
C1503 C1504 1.390 . S
C1504 C1503 1.390 . S
C1504 C1505 1.394 . S
C1504 C1510 1.465 . S
C1505 C1500 1.399 . S
C1505 C1504 1.394 . S
C1505 C1506 1.516 . S
C1506 C1505 1.516 . S
C1506 C1507 1.502 . S
C1506 C1508 1.561 . S
C1506 C1509 1.526 . S
C1507 H1491 0.959 . S
C1507 H1492 0.959 . S
C1507 H1493 0.961 . S
C1507 C1506 1.502 . S
C1508 H1494 0.960 . S
C1508 H1495 0.961 . S
C1508 H1496 0.959 . S
C1508 C1506 1.561 . S
C1509 C1506 1.526 . S
C1509 C1510 1.396 . S
C1509 C1514 1.390 . S
C1510 C1504 1.465 . S
C1510 C1509 1.396 . S
C1510 C1511 1.399 . S
C1511 H1497 0.929 . S
C1511 C1510 1.399 . S
C1511 C1512 1.385 . S
C1512 H1498 0.931 . S
C1512 C1511 1.385 . S
C1512 C1513 1.389 . S
C1513 C1512 1.389 . S
C1513 C1514 1.387 . S
C1514 H1499 0.930 . S
C1514 C1509 1.390 . S
C1514 C1513 1.387 . S
H1515 C1527 0.930 . S
H1516 C1529 0.930 . S
H1517 C1530 0.930 . S
H1518 C1534 0.959 . S
H1519 C1534 0.959 . S
H1520 C1534 0.961 . S
H1521 C1535 0.960 . S
H1522 C1535 0.961 . S
H1523 C1535 0.959 . S
H1524 C1538 0.929 . S
H1525 C1539 0.931 . S
H1526 C1541 0.930 . S
C1527 H1515 0.930 . S
C1527 C1528 1.399 . S
C1527 C1532 1.399 . S
C1528 C1527 1.399 . S
C1528 C1529 1.376 . S
C1529 H1516 0.930 . S
C1529 C1528 1.376 . S
C1529 C1530 1.388 . S
C1530 H1517 0.930 . S
C1530 C1529 1.388 . S
C1530 C1531 1.390 . S
C1531 C1530 1.390 . S
C1531 C1532 1.394 . S
C1531 C1537 1.465 . S
C1532 C1527 1.399 . S
C1532 C1531 1.394 . S
C1532 C1533 1.516 . S
C1533 C1532 1.516 . S
C1533 C1534 1.502 . S
C1533 C1535 1.561 . S
C1533 C1536 1.526 . S
C1534 H1518 0.959 . S
C1534 H1519 0.959 . S
C1534 H1520 0.961 . S
C1534 C1533 1.502 . S
C1535 H1521 0.960 . S
C1535 H1522 0.961 . S
C1535 H1523 0.959 . S
C1535 C1533 1.561 . S
C1536 C1533 1.526 . S
C1536 C1537 1.396 . S
C1536 C1541 1.390 . S
C1537 C1531 1.465 . S
C1537 C1536 1.396 . S
C1537 C1538 1.399 . S
C1538 H1524 0.929 . S
C1538 C1537 1.399 . S
C1538 C1539 1.385 . S
C1539 H1525 0.931 . S
C1539 C1538 1.385 . S
C1539 C1540 1.389 . S
C1540 C1539 1.389 . S
C1540 C1541 1.387 . S
C1541 H1526 0.930 . S
C1541 C1536 1.390 . S
C1541 C1540 1.387 . S
H1542 C1554 0.930 1_545 S
H1543 C1556 0.930 . S
H1544 C1557 0.930 . S
H1545 C1561 0.959 . S
H1546 C1561 0.959 . S
H1547 C1561 0.961 . S
H1548 C1562 0.960 . S
H1549 C1562 0.961 . S
H1550 C1562 0.959 . S
H1551 C1565 0.929 . S
H1552 C1566 0.931 . S
H1553 C1568 0.930 . S
C1554 H1542 0.930 1_565 S
C1554 C1555 1.399 . S
C1554 C1559 1.399 . S
C1555 C1554 1.399 . S
C1555 C1556 1.375 . S
C1556 H1543 0.930 . S
C1556 C1555 1.375 . S
C1556 C1557 1.388 . S
C1557 H1544 0.930 . S
C1557 C1556 1.388 . S
C1557 C1558 1.390 . S
C1558 C1557 1.390 . S
C1558 C1559 1.394 . S
C1558 C1564 1.465 . S
C1559 C1554 1.399 . S
C1559 C1558 1.394 . S
C1559 C1560 1.516 . S
C1560 C1559 1.516 . S
C1560 C1561 1.502 . S
C1560 C1562 1.561 . S
C1560 C1563 1.526 . S
C1561 H1545 0.959 . S
C1561 H1546 0.959 . S
C1561 H1547 0.961 . S
C1561 C1560 1.502 . S
C1562 H1548 0.960 . S
C1562 H1549 0.961 . S
C1562 H1550 0.959 . S
C1562 C1560 1.561 . S
C1563 C1560 1.526 . S
C1563 C1564 1.396 . S
C1563 C1568 1.390 . S
C1564 C1558 1.465 . S
C1564 C1563 1.396 . S
C1564 C1565 1.399 . S
C1565 H1551 0.929 . S
C1565 C1564 1.399 . S
C1565 C1566 1.385 . S
C1566 H1552 0.931 . S
C1566 C1565 1.385 . S
C1566 C1567 1.389 . S
C1567 C1566 1.389 . S
C1567 C1568 1.387 . S
C1568 H1553 0.930 . S
C1568 C1563 1.390 . S
C1568 C1567 1.387 . S
H1569 C1581 0.930 . S
H1570 C1583 0.930 . S
H1571 C1584 0.930 . S
H1572 C1588 0.959 . S
H1573 C1588 0.959 . S
H1574 C1588 0.961 . S
H1575 C1589 0.960 . S
H1576 C1589 0.961 . S
H1577 C1589 0.959 . S
H1578 C1592 0.929 . S
H1579 C1593 0.931 . S
H1580 C1595 0.930 . S
C1581 H1569 0.930 . S
C1581 C1582 1.399 . S
C1581 C1586 1.399 . S
C1582 C1581 1.399 . S
C1582 C1583 1.376 . S
C1583 H1570 0.930 . S
C1583 C1582 1.376 . S
C1583 C1584 1.388 . S
C1584 H1571 0.930 . S
C1584 C1583 1.388 . S
C1584 C1585 1.390 . S
C1585 C1584 1.390 . S
C1585 C1586 1.394 . S
C1585 C1591 1.465 . S
C1586 C1581 1.399 . S
C1586 C1585 1.394 . S
C1586 C1587 1.516 . S
C1587 C1586 1.516 . S
C1587 C1588 1.502 . S
C1587 C1589 1.561 . S
C1587 C1590 1.526 . S
C1588 H1572 0.959 . S
C1588 H1573 0.959 . S
C1588 H1574 0.961 . S
C1588 C1587 1.502 . S
C1589 H1575 0.960 . S
C1589 H1576 0.961 . S
C1589 H1577 0.959 . S
C1589 C1587 1.561 . S
C1590 C1587 1.526 . S
C1590 C1591 1.396 . S
C1590 C1595 1.390 . S
C1591 C1585 1.465 . S
C1591 C1590 1.396 . S
C1591 C1592 1.399 . S
C1592 H1578 0.929 . S
C1592 C1591 1.399 . S
C1592 C1593 1.385 . S
C1593 H1579 0.931 . S
C1593 C1592 1.385 . S
C1593 C1594 1.389 . S
C1594 C1593 1.389 . S
C1594 C1595 1.387 . S
C1595 H1580 0.930 . S
C1595 C1590 1.390 . S
C1595 C1594 1.387 . S
H1596 C1608 0.930 . S
H1597 C1610 0.930 . S
H1598 C1611 0.930 . S
H1599 C1615 0.959 . S
H1600 C1615 0.959 . S
H1601 C1615 0.961 . S
H1602 C1616 0.960 . S
H1603 C1616 0.961 . S
H1604 C1616 0.959 . S
H1605 C1619 0.929 . S
H1606 C1620 0.931 . S
H1607 C1622 0.930 . S
C1608 H1596 0.930 . S
C1608 C1609 1.399 . S
C1608 C1613 1.399 . S
C1609 C1608 1.399 . S
C1609 C1610 1.376 . S
C1610 H1597 0.930 . S
C1610 C1609 1.376 . S
C1610 C1611 1.388 . S
C1611 H1598 0.930 . S
C1611 C1610 1.388 . S
C1611 C1612 1.390 . S
C1612 C1611 1.390 . S
C1612 C1613 1.394 . S
C1612 C1618 1.465 . S
C1613 C1608 1.399 . S
C1613 C1612 1.394 . S
C1613 C1614 1.516 . S
C1614 C1613 1.516 . S
C1614 C1615 1.502 . S
C1614 C1616 1.561 . S
C1614 C1617 1.526 . S
C1615 H1599 0.959 . S
C1615 H1600 0.959 . S
C1615 H1601 0.961 . S
C1615 C1614 1.502 . S
C1616 H1602 0.960 . S
C1616 H1603 0.961 . S
C1616 H1604 0.959 . S
C1616 C1614 1.561 . S
C1617 C1614 1.526 . S
C1617 C1618 1.396 . S
C1617 C1622 1.390 . S
C1618 C1612 1.465 . S
C1618 C1617 1.396 . S
C1618 C1619 1.399 . S
C1619 H1605 0.929 . S
C1619 C1618 1.399 . S
C1619 C1620 1.385 . S
C1620 H1606 0.931 . S
C1620 C1619 1.385 . S
C1620 C1621 1.389 . S
C1621 C1620 1.389 . S
C1621 C1622 1.387 . S
C1622 H1607 0.930 . S
C1622 C1617 1.390 . S
C1622 C1621 1.387 . S
H1623 C1635 0.930 . S
H1624 C1637 0.930 . S
H1625 C1638 0.930 . S
H1626 C1642 0.959 . S
H1627 C1642 0.959 . S
H1628 C1642 0.961 . S
H1629 C1643 0.960 . S
H1630 C1643 0.961 . S
H1631 C1643 0.959 . S
H1632 C1646 0.929 . S
H1633 C1647 0.931 . S
H1634 C1649 0.930 . S
C1635 H1623 0.930 . S
C1635 C1636 1.399 . S
C1635 C1640 1.399 . S
C1636 C1635 1.399 . S
C1636 C1637 1.376 . S
C1637 H1624 0.930 . S
C1637 C1636 1.376 . S
C1637 C1638 1.388 . S
C1638 H1625 0.930 . S
C1638 C1637 1.388 . S
C1638 C1639 1.390 . S
C1639 C1638 1.390 . S
C1639 C1640 1.394 . S
C1639 C1645 1.465 . S
C1640 C1635 1.399 . S
C1640 C1639 1.394 . S
C1640 C1641 1.516 . S
C1641 C1640 1.516 . S
C1641 C1642 1.502 . S
C1641 C1643 1.561 . S
C1641 C1644 1.526 . S
C1642 H1626 0.959 . S
C1642 H1627 0.959 . S
C1642 H1628 0.961 . S
C1642 C1641 1.502 . S
C1643 H1629 0.960 . S
C1643 H1630 0.961 . S
C1643 H1631 0.959 . S
C1643 C1641 1.561 . S
C1644 C1641 1.526 . S
C1644 C1645 1.396 . S
C1644 C1649 1.390 . S
C1645 C1639 1.465 . S
C1645 C1644 1.396 . S
C1645 C1646 1.399 . S
C1646 H1632 0.929 . S
C1646 C1645 1.399 . S
C1646 C1647 1.385 . S
C1647 H1633 0.931 . S
C1647 C1646 1.385 . S
C1647 C1648 1.389 . S
C1648 C1647 1.389 . S
C1648 C1649 1.387 . S
C1649 H1634 0.930 . S
C1649 C1644 1.390 . S
C1649 C1648 1.387 . S
H1650 C1662 0.930 . S
H1651 C1664 0.930 . S
H1652 C1665 0.930 . S
H1653 C1669 0.959 . S
H1654 C1669 0.959 . S
H1655 C1669 0.961 . S
H1656 C1670 0.960 . S
H1657 C1670 0.961 . S
H1658 C1670 0.959 . S
H1659 C1673 0.929 . S
H1660 C1674 0.931 . S
H1661 C1676 0.930 . S
C1662 H1650 0.930 . S
C1662 C1663 1.399 . S
C1662 C1667 1.399 . S
C1663 C1662 1.399 . S
C1663 C1664 1.376 . S
C1664 H1651 0.930 . S
C1664 C1663 1.376 . S
C1664 C1665 1.388 . S
C1665 H1652 0.930 . S
C1665 C1664 1.388 . S
C1665 C1666 1.390 . S
C1666 C1665 1.390 . S
C1666 C1667 1.394 . S
C1666 C1672 1.465 . S
C1667 C1662 1.399 . S
C1667 C1666 1.394 . S
C1667 C1668 1.516 . S
C1668 C1667 1.516 . S
C1668 C1669 1.502 . S
C1668 C1670 1.561 . S
C1668 C1671 1.526 . S
C1669 H1653 0.959 . S
C1669 H1654 0.959 . S
C1669 H1655 0.961 . S
C1669 C1668 1.502 . S
C1670 H1656 0.960 . S
C1670 H1657 0.961 . S
C1670 H1658 0.959 . S
C1670 C1668 1.561 . S
C1671 C1668 1.526 . S
C1671 C1672 1.396 . S
C1671 C1676 1.390 . S
C1672 C1666 1.465 . S
C1672 C1671 1.396 . S
C1672 C1673 1.399 . S
C1673 H1659 0.929 . S
C1673 C1672 1.399 . S
C1673 C1674 1.385 . S
C1674 H1660 0.931 . S
C1674 C1673 1.385 . S
C1674 C1675 1.389 . S
C1675 C1674 1.389 . S
C1675 C1676 1.387 . S
C1676 H1661 0.930 . S
C1676 C1671 1.390 . S
C1676 C1675 1.387 . S
H1677 C1689 0.930 . S
H1678 C1691 0.930 . S
H1679 C1692 0.930 . S
H1680 C1696 0.959 . S
H1681 C1696 0.959 . S
H1682 C1696 0.961 . S
H1683 C1697 0.960 . S
H1684 C1697 0.961 . S
H1685 C1697 0.959 . S
H1686 C1700 0.929 . S
H1687 C1701 0.931 . S
H1688 C1703 0.930 . S
C1689 H1677 0.930 . S
C1689 C1690 1.399 . S
C1689 C1694 1.399 . S
C1690 C1689 1.399 . S
C1690 C1691 1.376 . S
C1691 H1678 0.930 . S
C1691 C1690 1.376 . S
C1691 C1692 1.388 . S
C1692 H1679 0.930 . S
C1692 C1691 1.388 . S
C1692 C1693 1.390 . S
C1693 C1692 1.390 . S
C1693 C1694 1.394 . S
C1693 C1699 1.465 . S
C1694 C1689 1.399 . S
C1694 C1693 1.394 . S
C1694 C1695 1.516 . S
C1695 C1694 1.516 . S
C1695 C1696 1.502 . S
C1695 C1697 1.561 . S
C1695 C1698 1.526 . S
C1696 H1680 0.959 . S
C1696 H1681 0.959 . S
C1696 H1682 0.961 . S
C1696 C1695 1.502 . S
C1697 H1683 0.960 . S
C1697 H1684 0.961 . S
C1697 H1685 0.959 . S
C1697 C1695 1.561 . S
C1698 C1695 1.526 . S
C1698 C1699 1.396 . S
C1698 C1703 1.390 . S
C1699 C1693 1.465 . S
C1699 C1698 1.396 . S
C1699 C1700 1.399 . S
C1700 H1686 0.929 . S
C1700 C1699 1.399 . S
C1700 C1701 1.385 . S
C1701 H1687 0.931 . S
C1701 C1700 1.385 . S
C1701 C1702 1.389 . S
C1702 C1701 1.389 . S
C1702 C1703 1.387 . S
C1703 H1688 0.930 . S
C1703 C1698 1.390 . S
C1703 C1702 1.387 . S
H1704 C1716 0.930 . S
H1705 C1718 0.930 . S
H1706 C1719 0.930 . S
H1707 C1723 0.959 . S
H1708 C1723 0.959 . S
H1709 C1723 0.961 . S
H1710 C1724 0.960 . S
H1711 C1724 0.961 . S
H1712 C1724 0.959 . S
H1713 C1727 0.929 . S
H1714 C1728 0.931 . S
H1715 C1730 0.930 . S
C1716 H1704 0.930 . S
C1716 C1717 1.399 . S
C1716 C1721 1.399 . S
C1717 C1716 1.399 . S
C1717 C1718 1.376 . S
C1718 H1705 0.930 . S
C1718 C1717 1.376 . S
C1718 C1719 1.388 . S
C1719 H1706 0.930 . S
C1719 C1718 1.388 . S
C1719 C1720 1.390 . S
C1720 C1719 1.390 . S
C1720 C1721 1.394 . S
C1720 C1726 1.465 . S
C1721 C1716 1.399 . S
C1721 C1720 1.394 . S
C1721 C1722 1.516 . S
C1722 C1721 1.516 . S
C1722 C1723 1.502 . S
C1722 C1724 1.561 . S
C1722 C1725 1.526 . S
C1723 H1707 0.959 . S
C1723 H1708 0.959 . S
C1723 H1709 0.961 . S
C1723 C1722 1.502 . S
C1724 H1710 0.960 . S
C1724 H1711 0.961 . S
C1724 H1712 0.959 . S
C1724 C1722 1.561 . S
C1725 C1722 1.526 . S
C1725 C1726 1.396 . S
C1725 C1730 1.390 . S
C1726 C1720 1.465 . S
C1726 C1725 1.396 . S
C1726 C1727 1.399 . S
C1727 H1713 0.929 . S
C1727 C1726 1.399 . S
C1727 C1728 1.385 . S
C1728 H1714 0.931 . S
C1728 C1727 1.385 . S
C1728 C1729 1.389 . S
C1729 C1728 1.389 . S
C1729 C1730 1.387 . S
C1730 H1715 0.930 . S
C1730 C1725 1.390 . S
C1730 C1729 1.387 . S
H1731 C1743 0.930 . S
H1732 C1745 0.930 . S
H1733 C1746 0.930 . S
H1734 C1750 0.959 . S
H1735 C1750 0.959 . S
H1736 C1750 0.961 . S
H1737 C1751 0.960 . S
H1738 C1751 0.961 . S
H1739 C1751 0.959 . S
H1740 C1754 0.929 . S
H1741 C1755 0.931 . S
H1742 C1757 0.930 . S
C1743 H1731 0.930 . S
C1743 C1744 1.399 . S
C1743 C1748 1.399 . S
C1744 C1743 1.399 . S
C1744 C1745 1.376 . S
C1745 H1732 0.930 . S
C1745 C1744 1.376 . S
C1745 C1746 1.388 . S
C1746 H1733 0.930 . S
C1746 C1745 1.388 . S
C1746 C1747 1.390 . S
C1747 C1746 1.390 . S
C1747 C1748 1.394 . S
C1747 C1753 1.465 . S
C1748 C1743 1.399 . S
C1748 C1747 1.394 . S
C1748 C1749 1.516 . S
C1749 C1748 1.516 . S
C1749 C1750 1.502 . S
C1749 C1751 1.561 . S
C1749 C1752 1.526 . S
C1750 H1734 0.959 . S
C1750 H1735 0.959 . S
C1750 H1736 0.961 . S
C1750 C1749 1.502 . S
C1751 H1737 0.960 . S
C1751 H1738 0.961 . S
C1751 H1739 0.959 . S
C1751 C1749 1.561 . S
C1752 C1749 1.526 . S
C1752 C1753 1.396 . S
C1752 C1757 1.390 . S
C1753 C1747 1.465 . S
C1753 C1752 1.396 . S
C1753 C1754 1.399 . S
C1754 H1740 0.929 . S
C1754 C1753 1.399 . S
C1754 C1755 1.385 . S
C1755 H1741 0.931 . S
C1755 C1754 1.385 . S
C1755 C1756 1.389 . S
C1756 C1755 1.389 . S
C1756 C1757 1.387 . S
C1757 H1742 0.930 . S
C1757 C1752 1.390 . S
C1757 C1756 1.387 . S
H1758 C1770 0.930 . S
H1759 C1772 0.930 . S
H1760 C1773 0.930 . S
H1761 C1777 0.959 . S
H1762 C1777 0.959 . S
H1763 C1777 0.961 . S
H1764 C1778 0.960 . S
H1765 C1778 0.961 . S
H1766 C1778 0.959 . S
H1767 C1781 0.929 . S
H1768 C1782 0.931 . S
H1769 C1784 0.930 . S
C1770 H1758 0.930 . S
C1770 C1771 1.399 . S
C1770 C1775 1.399 . S
C1771 C1770 1.399 . S
C1771 C1772 1.376 . S
C1772 H1759 0.930 . S
C1772 C1771 1.376 . S
C1772 C1773 1.388 . S
C1773 H1760 0.930 . S
C1773 C1772 1.388 . S
C1773 C1774 1.390 . S
C1774 C1773 1.390 . S
C1774 C1775 1.394 . S
C1774 C1780 1.465 . S
C1775 C1770 1.399 . S
C1775 C1774 1.394 . S
C1775 C1776 1.516 . S
C1776 C1775 1.516 . S
C1776 C1777 1.502 . S
C1776 C1778 1.561 . S
C1776 C1779 1.526 . S
C1777 H1761 0.959 . S
C1777 H1762 0.959 . S
C1777 H1763 0.961 . S
C1777 C1776 1.502 . S
C1778 H1764 0.960 . S
C1778 H1765 0.961 . S
C1778 H1766 0.959 . S
C1778 C1776 1.561 . S
C1779 C1776 1.526 . S
C1779 C1780 1.396 . S
C1779 C1784 1.390 . S
C1780 C1774 1.465 . S
C1780 C1779 1.396 . S
C1780 C1781 1.399 . S
C1781 H1767 0.929 . S
C1781 C1780 1.399 . S
C1781 C1782 1.385 . S
C1782 H1768 0.931 . S
C1782 C1781 1.385 . S
C1782 C1783 1.389 . S
C1783 C1782 1.389 . S
C1783 C1784 1.387 . S
C1784 H1769 0.930 . S
C1784 C1779 1.390 . S
C1784 C1783 1.387 . S
H1785 C1797 0.930 . S
H1786 C1799 0.930 . S
H1787 C1800 0.930 . S
H1788 C1804 0.959 . S
H1789 C1804 0.959 . S
H1790 C1804 0.961 . S
H1791 C1805 0.960 . S
H1792 C1805 0.961 . S
H1793 C1805 0.959 . S
H1794 C1808 0.929 . S
H1795 C1809 0.931 . S
H1796 C1811 0.930 . S
C1797 H1785 0.930 . S
C1797 C1798 1.399 . S
C1797 C1802 1.399 . S
C1798 C1797 1.399 . S
C1798 C1799 1.376 . S
C1799 H1786 0.930 . S
C1799 C1798 1.376 . S
C1799 C1800 1.388 . S
C1800 H1787 0.930 . S
C1800 C1799 1.388 . S
C1800 C1801 1.390 . S
C1801 C1800 1.390 . S
C1801 C1802 1.394 . S
C1801 C1807 1.465 . S
C1802 C1797 1.399 . S
C1802 C1801 1.394 . S
C1802 C1803 1.516 . S
C1803 C1802 1.516 . S
C1803 C1804 1.502 . S
C1803 C1805 1.561 . S
C1803 C1806 1.526 . S
C1804 H1788 0.959 . S
C1804 H1789 0.959 . S
C1804 H1790 0.961 . S
C1804 C1803 1.502 . S
C1805 H1791 0.960 . S
C1805 H1792 0.961 . S
C1805 H1793 0.959 . S
C1805 C1803 1.561 . S
C1806 C1803 1.526 . S
C1806 C1807 1.396 . S
C1806 C1811 1.390 . S
C1807 C1801 1.465 . S
C1807 C1806 1.396 . S
C1807 C1808 1.399 . S
C1808 H1794 0.929 . S
C1808 C1807 1.399 . S
C1808 C1809 1.385 . S
C1809 H1795 0.931 . S
C1809 C1808 1.385 . S
C1809 C1810 1.389 . S
C1810 C1809 1.389 . S
C1810 C1811 1.387 . S
C1811 H1796 0.930 . S
C1811 C1806 1.390 . S
C1811 C1810 1.387 . S
H1812 C1824 0.930 . S
H1813 C1826 0.930 . S
H1814 C1827 0.930 . S
H1815 C1831 0.959 . S
H1816 C1831 0.959 . S
H1817 C1831 0.961 . S
H1818 C1832 0.960 . S
H1819 C1832 0.961 . S
H1820 C1832 0.959 . S
H1821 C1835 0.929 . S
H1822 C1836 0.931 . S
H1823 C1838 0.930 . S
C1824 H1812 0.930 . S
C1824 C1825 1.399 . S
C1824 C1829 1.399 . S
C1825 C1824 1.399 . S
C1825 C1826 1.376 . S
C1826 H1813 0.930 . S
C1826 C1825 1.376 . S
C1826 C1827 1.388 . S
C1827 H1814 0.930 . S
C1827 C1826 1.388 . S
C1827 C1828 1.390 . S
C1828 C1827 1.390 . S
C1828 C1829 1.394 . S
C1828 C1834 1.465 . S
C1829 C1824 1.399 . S
C1829 C1828 1.394 . S
C1829 C1830 1.516 . S
C1830 C1829 1.516 . S
C1830 C1831 1.502 . S
C1830 C1832 1.561 . S
C1830 C1833 1.526 . S
C1831 H1815 0.959 . S
C1831 H1816 0.959 . S
C1831 H1817 0.961 . S
C1831 C1830 1.502 . S
C1832 H1818 0.960 . S
C1832 H1819 0.961 . S
C1832 H1820 0.959 . S
C1832 C1830 1.561 . S
C1833 C1830 1.526 . S
C1833 C1834 1.396 . S
C1833 C1838 1.390 . S
C1834 C1828 1.465 . S
C1834 C1833 1.396 . S
C1834 C1835 1.399 . S
C1835 H1821 0.929 . S
C1835 C1834 1.399 . S
C1835 C1836 1.385 . S
C1836 H1822 0.931 . S
C1836 C1835 1.385 . S
C1836 C1837 1.389 . S
C1837 C1836 1.389 . S
C1837 C1838 1.387 . S
C1838 H1823 0.930 . S
C1838 C1833 1.390 . S
C1838 C1837 1.387 . S
H1839 C1851 0.930 . S
H1840 C1853 0.930 . S
H1841 C1854 0.930 . S
H1842 C1858 0.959 . S
H1843 C1858 0.959 . S
H1844 C1858 0.961 . S
H1845 C1859 0.960 . S
H1846 C1859 0.961 . S
H1847 C1859 0.959 . S
H1848 C1862 0.929 . S
H1849 C1863 0.931 . S
H1850 C1865 0.930 . S
C1851 H1839 0.930 . S
C1851 C1852 1.399 . S
C1851 C1856 1.399 . S
C1852 C1851 1.399 . S
C1852 C1853 1.376 . S
C1853 H1840 0.930 . S
C1853 C1852 1.376 . S
C1853 C1854 1.388 . S
C1854 H1841 0.930 . S
C1854 C1853 1.388 . S
C1854 C1855 1.390 . S
C1855 C1854 1.390 . S
C1855 C1856 1.394 . S
C1855 C1861 1.465 . S
C1856 C1851 1.399 . S
C1856 C1855 1.394 . S
C1856 C1857 1.516 . S
C1857 C1856 1.516 . S
C1857 C1858 1.502 . S
C1857 C1859 1.561 . S
C1857 C1860 1.526 . S
C1858 H1842 0.959 . S
C1858 H1843 0.959 . S
C1858 H1844 0.961 . S
C1858 C1857 1.502 . S
C1859 H1845 0.960 . S
C1859 H1846 0.961 . S
C1859 H1847 0.959 . S
C1859 C1857 1.561 . S
C1860 C1857 1.526 . S
C1860 C1861 1.396 . S
C1860 C1865 1.390 . S
C1861 C1855 1.465 . S
C1861 C1860 1.396 . S
C1861 C1862 1.399 . S
C1862 H1848 0.929 . S
C1862 C1861 1.399 . S
C1862 C1863 1.385 . S
C1863 H1849 0.931 . S
C1863 C1862 1.385 . S
C1863 C1864 1.389 . S
C1864 C1863 1.389 . S
C1864 C1865 1.387 . S
C1865 H1850 0.930 . S
C1865 C1860 1.390 . S
C1865 C1864 1.387 . S
H1866 C1878 0.930 . S
H1867 C1880 0.930 . S
H1868 C1881 0.930 . S
H1869 C1885 0.959 . S
H1870 C1885 0.959 . S
H1871 C1885 0.961 . S
H1872 C1886 0.960 . S
H1873 C1886 0.961 . S
H1874 C1886 0.959 . S
H1875 C1889 0.929 . S
H1876 C1890 0.931 . S
H1877 C1892 0.930 . S
C1878 H1866 0.930 . S
C1878 C1879 1.399 . S
C1878 C1883 1.399 . S
C1879 C1878 1.399 . S
C1879 C1880 1.376 . S
C1880 H1867 0.930 . S
C1880 C1879 1.376 . S
C1880 C1881 1.388 . S
C1881 H1868 0.930 . S
C1881 C1880 1.388 . S
C1881 C1882 1.390 . S
C1882 C1881 1.390 . S
C1882 C1883 1.394 . S
C1882 C1888 1.465 . S
C1883 C1878 1.399 . S
C1883 C1882 1.394 . S
C1883 C1884 1.516 . S
C1884 C1883 1.516 . S
C1884 C1885 1.502 . S
C1884 C1886 1.561 . S
C1884 C1887 1.526 . S
C1885 H1869 0.959 . S
C1885 H1870 0.959 . S
C1885 H1871 0.961 . S
C1885 C1884 1.502 . S
C1886 H1872 0.960 . S
C1886 H1873 0.961 . S
C1886 H1874 0.959 . S
C1886 C1884 1.561 . S
C1887 C1884 1.526 . S
C1887 C1888 1.396 . S
C1887 C1892 1.390 . S
C1888 C1882 1.465 . S
C1888 C1887 1.396 . S
C1888 C1889 1.399 . S
C1889 H1875 0.929 . S
C1889 C1888 1.399 . S
C1889 C1890 1.385 . S
C1890 H1876 0.931 . S
C1890 C1889 1.385 . S
C1890 C1891 1.389 . S
C1891 C1890 1.389 . S
C1891 C1892 1.387 . S
C1892 H1877 0.930 . S
C1892 C1887 1.390 . S
C1892 C1891 1.387 . S
H1893 C1905 0.930 . S
H1894 C1907 0.930 . S
H1895 C1908 0.930 . S
H1896 C1912 0.959 . S
H1897 C1912 0.959 . S
H1898 C1912 0.961 . S
H1899 C1913 0.960 . S
H1900 C1913 0.961 . S
H1901 C1913 0.959 . S
H1902 C1916 0.929 . S
H1903 C1917 0.931 . S
H1904 C1919 0.930 . S
C1905 H1893 0.930 . S
C1905 C1906 1.399 . S
C1905 C1910 1.399 . S
C1906 C1905 1.399 . S
C1906 C1907 1.376 . S
C1907 H1894 0.930 . S
C1907 C1906 1.376 . S
C1907 C1908 1.388 . S
C1908 H1895 0.930 . S
C1908 C1907 1.388 . S
C1908 C1909 1.390 . S
C1909 C1908 1.390 . S
C1909 C1910 1.394 . S
C1909 C1915 1.465 . S
C1910 C1905 1.399 . S
C1910 C1909 1.394 . S
C1910 C1911 1.516 . S
C1911 C1910 1.516 . S
C1911 C1912 1.502 . S
C1911 C1913 1.561 . S
C1911 C1914 1.526 . S
C1912 H1896 0.959 . S
C1912 H1897 0.959 . S
C1912 H1898 0.961 . S
C1912 C1911 1.502 . S
C1913 H1899 0.960 . S
C1913 H1900 0.961 . S
C1913 H1901 0.959 . S
C1913 C1911 1.561 . S
C1914 C1911 1.526 . S
C1914 C1915 1.396 . S
C1914 C1919 1.390 . S
C1915 C1909 1.465 . S
C1915 C1914 1.396 . S
C1915 C1916 1.399 . S
C1916 H1902 0.929 . S
C1916 C1915 1.399 . S
C1916 C1917 1.385 . S
C1917 H1903 0.931 . S
C1917 C1916 1.385 . S
C1917 C1918 1.389 . S
C1918 C1917 1.389 . S
C1918 C1919 1.387 . S
C1919 H1904 0.930 . S
C1919 C1914 1.390 . S
C1919 C1918 1.387 . S
H1920 C1932 0.930 . S
H1921 C1934 0.930 . S
H1922 C1935 0.930 . S
H1923 C1939 0.959 . S
H1924 C1939 0.959 . S
H1925 C1939 0.961 . S
H1926 C1940 0.960 . S
H1927 C1940 0.961 . S
H1928 C1940 0.959 . S
H1929 C1943 0.929 . S
H1930 C1944 0.931 . S
H1931 C1946 0.930 . S
C1932 H1920 0.930 . S
C1932 C1933 1.399 . S
C1932 C1937 1.399 . S
C1933 C1932 1.399 . S
C1933 C1934 1.376 . S
C1934 H1921 0.930 . S
C1934 C1933 1.376 . S
C1934 C1935 1.388 . S
C1935 H1922 0.930 . S
C1935 C1934 1.388 . S
C1935 C1936 1.390 . S
C1936 C1935 1.390 . S
C1936 C1937 1.394 . S
C1936 C1942 1.465 . S
C1937 C1932 1.399 . S
C1937 C1936 1.394 . S
C1937 C1938 1.516 . S
C1938 C1937 1.516 . S
C1938 C1939 1.502 . S
C1938 C1940 1.561 . S
C1938 C1941 1.526 . S
C1939 H1923 0.959 . S
C1939 H1924 0.959 . S
C1939 H1925 0.961 . S
C1939 C1938 1.502 . S
C1940 H1926 0.960 . S
C1940 H1927 0.961 . S
C1940 H1928 0.959 . S
C1940 C1938 1.561 . S
C1941 C1938 1.526 . S
C1941 C1942 1.396 . S
C1941 C1946 1.390 . S
C1942 C1936 1.465 . S
C1942 C1941 1.396 . S
C1942 C1943 1.399 . S
C1943 H1929 0.929 . S
C1943 C1942 1.399 . S
C1943 C1944 1.385 . S
C1944 H1930 0.931 . S
C1944 C1943 1.385 . S
C1944 C1945 1.389 . S
C1945 C1944 1.389 . S
C1945 C1946 1.387 . S
C1946 H1931 0.930 . S
C1946 C1941 1.390 . S
C1946 C1945 1.387 . S
H1947 C1959 0.930 . S
H1948 C1961 0.930 . S
H1949 C1962 0.930 . S
H1950 C1966 0.959 . S
H1951 C1966 0.959 . S
H1952 C1966 0.961 . S
H1953 C1967 0.960 . S
H1954 C1967 0.961 . S
H1955 C1967 0.959 . S
H1956 C1970 0.929 . S
H1957 C1971 0.931 . S
H1958 C1973 0.930 . S
C1959 H1947 0.930 . S
C1959 C1960 1.399 . S
C1959 C1964 1.399 . S
C1960 C1959 1.399 . S
C1960 C1961 1.376 . S
C1961 H1948 0.930 . S
C1961 C1960 1.376 . S
C1961 C1962 1.388 . S
C1962 H1949 0.930 . S
C1962 C1961 1.388 . S
C1962 C1963 1.390 . S
C1963 C1962 1.390 . S
C1963 C1964 1.394 . S
C1963 C1969 1.465 . S
C1964 C1959 1.399 . S
C1964 C1963 1.394 . S
C1964 C1965 1.516 . S
C1965 C1964 1.516 . S
C1965 C1966 1.502 . S
C1965 C1967 1.561 . S
C1965 C1968 1.526 . S
C1966 H1950 0.959 . S
C1966 H1951 0.959 . S
C1966 H1952 0.961 . S
C1966 C1965 1.502 . S
C1967 H1953 0.960 . S
C1967 H1954 0.961 . S
C1967 H1955 0.959 . S
C1967 C1965 1.561 . S
C1968 C1965 1.526 . S
C1968 C1969 1.396 . S
C1968 C1973 1.390 . S
C1969 C1963 1.465 . S
C1969 C1968 1.396 . S
C1969 C1970 1.399 . S
C1970 H1956 0.929 . S
C1970 C1969 1.399 . S
C1970 C1971 1.385 . S
C1971 H1957 0.931 . S
C1971 C1970 1.385 . S
C1971 C1972 1.389 . S
C1972 C1971 1.389 . S
C1972 C1973 1.387 . S
C1973 H1958 0.930 . S
C1973 C1968 1.390 . S
C1973 C1972 1.387 . S
H1974 C1986 0.930 . S
H1975 C1988 0.930 . S
H1976 C1989 0.930 . S
H1977 C1993 0.959 . S
H1978 C1993 0.959 . S
H1979 C1993 0.961 . S
H1980 C1994 0.960 . S
H1981 C1994 0.961 . S
H1982 C1994 0.959 . S
H1983 C1997 0.929 . S
H1984 C1998 0.931 . S
H1985 C2000 0.930 . S
C1986 H1974 0.930 . S
C1986 C1987 1.399 . S
C1986 C1991 1.399 . S
C1987 C1986 1.399 . S
C1987 C1988 1.376 . S
C1988 H1975 0.930 . S
C1988 C1987 1.376 . S
C1988 C1989 1.388 . S
C1989 H1976 0.930 . S
C1989 C1988 1.388 . S
C1989 C1990 1.390 . S
C1990 C1989 1.390 . S
C1990 C1991 1.394 . S
C1990 C1996 1.465 . S
C1991 C1986 1.399 . S
C1991 C1990 1.394 . S
C1991 C1992 1.516 . S
C1992 C1991 1.516 . S
C1992 C1993 1.502 . S
C1992 C1994 1.561 . S
C1992 C1995 1.526 . S
C1993 H1977 0.959 . S
C1993 H1978 0.959 . S
C1993 H1979 0.961 . S
C1993 C1992 1.502 . S
C1994 H1980 0.960 . S
C1994 H1981 0.961 . S
C1994 H1982 0.959 . S
C1994 C1992 1.561 . S
C1995 C1992 1.526 . S
C1995 C1996 1.396 . S
C1995 C2000 1.390 . S
C1996 C1990 1.465 . S
C1996 C1995 1.396 . S
C1996 C1997 1.399 . S
C1997 H1983 0.929 . S
C1997 C1996 1.399 . S
C1997 C1998 1.385 . S
C1998 H1984 0.931 . S
C1998 C1997 1.385 . S
C1998 C1999 1.389 . S
C1999 C1998 1.389 . S
C1999 C2000 1.387 . S
C2000 H1985 0.930 . S
C2000 C1995 1.390 . S
C2000 C1999 1.387 . S
H2001 C2013 0.930 . S
H2002 C2015 0.930 . S
H2003 C2016 0.930 . S
H2004 C2020 0.959 . S
H2005 C2020 0.959 . S
H2006 C2020 0.961 . S
H2007 C2021 0.960 . S
H2008 C2021 0.961 . S
H2009 C2021 0.959 . S
H2010 C2024 0.929 . S
H2011 C2025 0.931 . S
H2012 C2027 0.930 . S
C2013 H2001 0.930 . S
C2013 C2014 1.399 . S
C2013 C2018 1.399 . S
C2014 C2013 1.399 . S
C2014 C2015 1.376 . S
C2015 H2002 0.930 . S
C2015 C2014 1.376 . S
C2015 C2016 1.388 . S
C2016 H2003 0.930 . S
C2016 C2015 1.388 . S
C2016 C2017 1.390 . S
C2017 C2016 1.390 . S
C2017 C2018 1.394 . S
C2017 C2023 1.465 . S
C2018 C2013 1.399 . S
C2018 C2017 1.394 . S
C2018 C2019 1.516 . S
C2019 C2018 1.516 . S
C2019 C2020 1.502 . S
C2019 C2021 1.561 . S
C2019 C2022 1.526 . S
C2020 H2004 0.959 . S
C2020 H2005 0.959 . S
C2020 H2006 0.961 . S
C2020 C2019 1.502 . S
C2021 H2007 0.960 . S
C2021 H2008 0.961 . S
C2021 H2009 0.959 . S
C2021 C2019 1.561 . S
C2022 C2019 1.526 . S
C2022 C2023 1.396 . S
C2022 C2027 1.390 . S
C2023 C2017 1.465 . S
C2023 C2022 1.396 . S
C2023 C2024 1.399 . S
C2024 H2010 0.929 . S
C2024 C2023 1.399 . S
C2024 C2025 1.385 . S
C2025 H2011 0.931 . S
C2025 C2024 1.385 . S
C2025 C2026 1.389 . S
C2026 C2025 1.389 . S
C2026 C2027 1.387 . S
C2027 H2012 0.930 . S
C2027 C2022 1.390 . S
C2027 C2026 1.387 . S
H2028 C2040 0.930 . S
H2029 C2042 0.930 . S
H2030 C2043 0.930 . S
H2031 C2047 0.959 . S
H2032 C2047 0.959 . S
H2033 C2047 0.961 . S
H2034 C2048 0.960 . S
H2035 C2048 0.961 . S
H2036 C2048 0.959 . S
H2037 C2051 0.929 . S
H2038 C2052 0.931 . S
H2039 C2054 0.930 . S
C2040 H2028 0.930 . S
C2040 C2041 1.399 . S
C2040 C2045 1.399 . S
C2041 C2040 1.399 . S
C2041 C2042 1.376 . S
C2042 H2029 0.930 . S
C2042 C2041 1.376 . S
C2042 C2043 1.388 . S
C2043 H2030 0.930 . S
C2043 C2042 1.388 . S
C2043 C2044 1.390 . S
C2044 C2043 1.390 . S
C2044 C2045 1.394 . S
C2044 C2050 1.465 . S
C2045 C2040 1.399 . S
C2045 C2044 1.394 . S
C2045 C2046 1.516 . S
C2046 C2045 1.516 . S
C2046 C2047 1.502 . S
C2046 C2048 1.561 . S
C2046 C2049 1.526 . S
C2047 H2031 0.959 . S
C2047 H2032 0.959 . S
C2047 H2033 0.961 . S
C2047 C2046 1.502 . S
C2048 H2034 0.960 . S
C2048 H2035 0.961 . S
C2048 H2036 0.959 . S
C2048 C2046 1.561 . S
C2049 C2046 1.526 . S
C2049 C2050 1.396 . S
C2049 C2054 1.390 . S
C2050 C2044 1.465 . S
C2050 C2049 1.396 . S
C2050 C2051 1.399 . S
C2051 H2037 0.929 . S
C2051 C2050 1.399 . S
C2051 C2052 1.385 . S
C2052 H2038 0.931 . S
C2052 C2051 1.385 . S
C2052 C2053 1.389 . S
C2053 C2052 1.389 . S
C2053 C2054 1.387 . S
C2054 H2039 0.930 . S
C2054 C2049 1.390 . S
C2054 C2053 1.387 . S
H2055 C2067 0.930 . S
H2056 C2069 0.930 . S
H2057 C2070 0.930 . S
H2058 C2074 0.959 . S
H2059 C2074 0.959 . S
H2060 C2074 0.961 . S
H2061 C2075 0.960 . S
H2062 C2075 0.961 . S
H2063 C2075 0.959 . S
H2064 C2078 0.929 . S
H2065 C2079 0.931 . S
H2066 C2081 0.930 . S
C2067 H2055 0.930 . S
C2067 C2068 1.399 . S
C2067 C2072 1.399 . S
C2068 C2067 1.399 . S
C2068 C2069 1.376 . S
C2069 H2056 0.930 . S
C2069 C2068 1.376 . S
C2069 C2070 1.388 . S
C2070 H2057 0.930 . S
C2070 C2069 1.388 . S
C2070 C2071 1.390 . S
C2071 C2070 1.390 . S
C2071 C2072 1.394 . S
C2071 C2077 1.465 . S
C2072 C2067 1.399 . S
C2072 C2071 1.394 . S
C2072 C2073 1.516 . S
C2073 C2072 1.516 . S
C2073 C2074 1.502 . S
C2073 C2075 1.561 . S
C2073 C2076 1.526 . S
C2074 H2058 0.959 . S
C2074 H2059 0.959 . S
C2074 H2060 0.961 . S
C2074 C2073 1.502 . S
C2075 H2061 0.960 . S
C2075 H2062 0.961 . S
C2075 H2063 0.959 . S
C2075 C2073 1.561 . S
C2076 C2073 1.526 . S
C2076 C2077 1.396 . S
C2076 C2081 1.390 . S
C2077 C2071 1.465 . S
C2077 C2076 1.396 . S
C2077 C2078 1.399 . S
C2078 H2064 0.929 . S
C2078 C2077 1.399 . S
C2078 C2079 1.385 . S
C2079 H2065 0.931 . S
C2079 C2078 1.385 . S
C2079 C2080 1.389 . S
C2080 C2079 1.389 . S
C2080 C2081 1.387 . S
C2081 H2066 0.930 . S
C2081 C2076 1.390 . S
C2081 C2080 1.387 . S
H2082 C2094 0.930 . S
H2083 C2096 0.930 . S
H2084 C2097 0.930 . S
H2085 C2101 0.959 . S
H2086 C2101 0.959 . S
H2087 C2101 0.961 . S
H2088 C2102 0.960 . S
H2089 C2102 0.961 . S
H2090 C2102 0.959 . S
H2091 C2105 0.929 . S
H2092 C2106 0.931 . S
H2093 C2108 0.930 . S
C2094 H2082 0.930 . S
C2094 C2095 1.399 . S
C2094 C2099 1.399 . S
C2095 C2094 1.399 . S
C2095 C2096 1.376 . S
C2096 H2083 0.930 . S
C2096 C2095 1.376 . S
C2096 C2097 1.388 . S
C2097 H2084 0.930 . S
C2097 C2096 1.388 . S
C2097 C2098 1.390 . S
C2098 C2097 1.390 . S
C2098 C2099 1.394 . S
C2098 C2104 1.465 . S
C2099 C2094 1.399 . S
C2099 C2098 1.394 . S
C2099 C2100 1.516 . S
C2100 C2099 1.516 . S
C2100 C2101 1.502 . S
C2100 C2102 1.561 . S
C2100 C2103 1.526 . S
C2101 H2085 0.959 . S
C2101 H2086 0.959 . S
C2101 H2087 0.961 . S
C2101 C2100 1.502 . S
C2102 H2088 0.960 . S
C2102 H2089 0.961 . S
C2102 H2090 0.959 . S
C2102 C2100 1.561 . S
C2103 C2100 1.526 . S
C2103 C2104 1.396 . S
C2103 C2108 1.390 . S
C2104 C2098 1.465 . S
C2104 C2103 1.396 . S
C2104 C2105 1.399 . S
C2105 H2091 0.929 . S
C2105 C2104 1.399 . S
C2105 C2106 1.385 . S
C2106 H2092 0.931 . S
C2106 C2105 1.385 . S
C2106 C2107 1.389 . S
C2107 C2106 1.389 . S
C2107 C2108 1.387 . S
C2108 H2093 0.930 . S
C2108 C2103 1.390 . S
C2108 C2107 1.387 . S
H2109 C2121 0.930 . S
H2110 C2123 0.930 . S
H2111 C2124 0.930 . S
H2112 C2128 0.959 . S
H2113 C2128 0.959 . S
H2114 C2128 0.961 . S
H2115 C2129 0.960 . S
H2116 C2129 0.961 . S
H2117 C2129 0.959 . S
H2118 C2132 0.929 . S
H2119 C2133 0.931 . S
H2120 C2135 0.930 . S
C2121 H2109 0.930 . S
C2121 C2122 1.399 . S
C2121 C2126 1.399 . S
C2122 C2121 1.399 . S
C2122 C2123 1.376 . S
C2123 H2110 0.930 . S
C2123 C2122 1.376 . S
C2123 C2124 1.388 . S
C2124 H2111 0.930 . S
C2124 C2123 1.388 . S
C2124 C2125 1.390 . S
C2125 C2124 1.390 . S
C2125 C2126 1.394 . S
C2125 C2131 1.465 . S
C2126 C2121 1.399 . S
C2126 C2125 1.394 . S
C2126 C2127 1.516 . S
C2127 C2126 1.516 . S
C2127 C2128 1.502 . S
C2127 C2129 1.561 . S
C2127 C2130 1.526 . S
C2128 H2112 0.959 . S
C2128 H2113 0.959 . S
C2128 H2114 0.961 . S
C2128 C2127 1.502 . S
C2129 H2115 0.960 . S
C2129 H2116 0.961 . S
C2129 H2117 0.959 . S
C2129 C2127 1.561 . S
C2130 C2127 1.526 . S
C2130 C2131 1.396 . S
C2130 C2135 1.390 . S
C2131 C2125 1.465 . S
C2131 C2130 1.396 . S
C2131 C2132 1.399 . S
C2132 H2118 0.929 . S
C2132 C2131 1.399 . S
C2132 C2133 1.385 . S
C2133 H2119 0.931 . S
C2133 C2132 1.385 . S
C2133 C2134 1.389 . S
C2134 C2133 1.389 . S
C2134 C2135 1.387 . S
C2135 H2120 0.930 . S
C2135 C2130 1.390 . S
C2135 C2134 1.387 . S
H2136 C2148 0.930 . S
H2137 C2150 0.930 . S
H2138 C2151 0.930 . S
H2139 C2155 0.959 . S
H2140 C2155 0.959 . S
H2141 C2155 0.961 . S
H2142 C2156 0.960 . S
H2143 C2156 0.961 . S
H2144 C2156 0.959 . S
H2145 C2159 0.929 . S
H2146 C2160 0.931 . S
H2147 C2162 0.930 . S
C2148 H2136 0.930 . S
C2148 C2149 1.399 . S
C2148 C2153 1.399 . S
C2149 C2148 1.399 . S
C2149 C2150 1.376 . S
C2150 H2137 0.930 . S
C2150 C2149 1.376 . S
C2150 C2151 1.388 . S
C2151 H2138 0.930 . S
C2151 C2150 1.388 . S
C2151 C2152 1.390 . S
C2152 C2151 1.390 . S
C2152 C2153 1.394 . S
C2152 C2158 1.465 . S
C2153 C2148 1.399 . S
C2153 C2152 1.394 . S
C2153 C2154 1.516 . S
C2154 C2153 1.516 . S
C2154 C2155 1.502 . S
C2154 C2156 1.561 . S
C2154 C2157 1.526 . S
C2155 H2139 0.959 . S
C2155 H2140 0.959 . S
C2155 H2141 0.961 . S
C2155 C2154 1.502 . S
C2156 H2142 0.960 . S
C2156 H2143 0.961 . S
C2156 H2144 0.959 . S
C2156 C2154 1.561 . S
C2157 C2154 1.526 . S
C2157 C2158 1.396 . S
C2157 C2162 1.390 . S
C2158 C2152 1.465 . S
C2158 C2157 1.396 . S
C2158 C2159 1.399 . S
C2159 H2145 0.929 . S
C2159 C2158 1.399 . S
C2159 C2160 1.385 . S
C2160 H2146 0.931 . S
C2160 C2159 1.385 . S
C2160 C2161 1.389 . S
C2161 C2160 1.389 . S
C2161 C2162 1.387 . S
C2162 H2147 0.930 . S
C2162 C2157 1.390 . S
C2162 C2161 1.387 . S
H2163 C2175 0.930 . S
H2164 C2177 0.930 . S
H2165 C2178 0.930 . S
H2166 C2182 0.959 . S
H2167 C2182 0.959 . S
H2168 C2182 0.961 . S
H2169 C2183 0.960 . S
H2170 C2183 0.961 . S
H2171 C2183 0.959 . S
H2172 C2186 0.929 . S
H2173 C2187 0.931 . S
H2174 C2189 0.930 . S
C2175 H2163 0.930 . S
C2175 C2176 1.399 . S
C2175 C2180 1.399 . S
C2176 C2175 1.399 . S
C2176 C2177 1.376 . S
C2177 H2164 0.930 . S
C2177 C2176 1.376 . S
C2177 C2178 1.388 . S
C2178 H2165 0.930 . S
C2178 C2177 1.388 . S
C2178 C2179 1.390 . S
C2179 C2178 1.390 . S
C2179 C2180 1.394 . S
C2179 C2185 1.465 . S
C2180 C2175 1.399 . S
C2180 C2179 1.394 . S
C2180 C2181 1.516 . S
C2181 C2180 1.516 . S
C2181 C2182 1.502 . S
C2181 C2183 1.561 . S
C2181 C2184 1.526 . S
C2182 H2166 0.959 . S
C2182 H2167 0.959 . S
C2182 H2168 0.961 . S
C2182 C2181 1.502 . S
C2183 H2169 0.960 . S
C2183 H2170 0.961 . S
C2183 H2171 0.959 . S
C2183 C2181 1.561 . S
C2184 C2181 1.526 . S
C2184 C2185 1.396 . S
C2184 C2189 1.390 . S
C2185 C2179 1.465 . S
C2185 C2184 1.396 . S
C2185 C2186 1.399 . S
C2186 H2172 0.929 . S
C2186 C2185 1.399 . S
C2186 C2187 1.385 . S
C2187 H2173 0.931 . S
C2187 C2186 1.385 . S
C2187 C2188 1.389 . S
C2188 C2187 1.389 . S
C2188 C2189 1.387 . S
C2189 H2174 0.930 . S
C2189 C2184 1.390 . S
C2189 C2188 1.387 . S
H2190 C2202 0.930 . S
H2191 C2204 0.930 . S
H2192 C2205 0.930 . S
H2193 C2209 0.959 . S
H2194 C2209 0.959 . S
H2195 C2209 0.961 . S
H2196 C2210 0.960 . S
H2197 C2210 0.961 . S
H2198 C2210 0.959 . S
H2199 C2213 0.929 . S
H2200 C2214 0.931 . S
H2201 C2216 0.930 . S
C2202 H2190 0.930 . S
C2202 C2203 1.399 . S
C2202 C2207 1.399 . S
C2203 C2202 1.399 . S
C2203 C2204 1.376 . S
C2204 H2191 0.930 . S
C2204 C2203 1.376 . S
C2204 C2205 1.388 . S
C2205 H2192 0.930 . S
C2205 C2204 1.388 . S
C2205 C2206 1.390 . S
C2206 C2205 1.390 . S
C2206 C2207 1.394 . S
C2206 C2212 1.465 . S
C2207 C2202 1.399 . S
C2207 C2206 1.394 . S
C2207 C2208 1.516 . S
C2208 C2207 1.516 . S
C2208 C2209 1.502 . S
C2208 C2210 1.561 . S
C2208 C2211 1.526 . S
C2209 H2193 0.959 . S
C2209 H2194 0.959 . S
C2209 H2195 0.961 . S
C2209 C2208 1.502 . S
C2210 H2196 0.960 . S
C2210 H2197 0.961 . S
C2210 H2198 0.959 . S
C2210 C2208 1.561 . S
C2211 C2208 1.526 . S
C2211 C2212 1.396 . S
C2211 C2216 1.390 . S
C2212 C2206 1.465 . S
C2212 C2211 1.396 . S
C2212 C2213 1.399 . S
C2213 H2199 0.929 . S
C2213 C2212 1.399 . S
C2213 C2214 1.385 . S
C2214 H2200 0.931 . S
C2214 C2213 1.385 . S
C2214 C2215 1.389 . S
C2215 C2214 1.389 . S
C2215 C2216 1.387 . S
C2216 H2201 0.930 . S
C2216 C2211 1.390 . S
C2216 C2215 1.387 . S
H2217 C2229 0.930 . S
H2218 C2231 0.930 . S
H2219 C2232 0.930 . S
H2220 C2236 0.959 . S
H2221 C2236 0.959 . S
H2222 C2236 0.961 . S
H2223 C2237 0.960 . S
H2224 C2237 0.961 . S
H2225 C2237 0.959 . S
H2226 C2240 0.929 . S
H2227 C2241 0.931 . S
H2228 C2243 0.930 . S
C2229 H2217 0.930 . S
C2229 C2230 1.399 . S
C2229 C2234 1.399 . S
C2230 C2229 1.399 . S
C2230 C2231 1.376 . S
C2231 H2218 0.930 . S
C2231 C2230 1.376 . S
C2231 C2232 1.388 . S
C2232 H2219 0.930 . S
C2232 C2231 1.388 . S
C2232 C2233 1.390 . S
C2233 C2232 1.390 . S
C2233 C2234 1.394 . S
C2233 C2239 1.465 . S
C2234 C2229 1.399 . S
C2234 C2233 1.394 . S
C2234 C2235 1.516 . S
C2235 C2234 1.516 . S
C2235 C2236 1.502 . S
C2235 C2237 1.561 . S
C2235 C2238 1.526 . S
C2236 H2220 0.959 . S
C2236 H2221 0.959 . S
C2236 H2222 0.961 . S
C2236 C2235 1.502 . S
C2237 H2223 0.960 . S
C2237 H2224 0.961 . S
C2237 H2225 0.959 . S
C2237 C2235 1.561 . S
C2238 C2235 1.526 . S
C2238 C2239 1.396 . S
C2238 C2243 1.390 . S
C2239 C2233 1.465 . S
C2239 C2238 1.396 . S
C2239 C2240 1.399 . S
C2240 H2226 0.929 . S
C2240 C2239 1.399 . S
C2240 C2241 1.385 . S
C2241 H2227 0.931 . S
C2241 C2240 1.385 . S
C2241 C2242 1.389 . S
C2242 C2241 1.389 . S
C2242 C2243 1.387 . S
C2243 H2228 0.930 . S
C2243 C2238 1.390 . S
C2243 C2242 1.387 . S
C973 C334 1.160 . S
C961 N2 1.290 . S
C1000 C434 2.154 . S
C988 C7 2.134 . S
C1027 C514 1.120 . S
C1015 N12 1.362 . S
C1042 C16 1.894 . S
C1054 C591 1.964 . S
C1081 C675 2.177 . S
C1069 C30 2.192 1_565 S
C1108 C754 1.033 . S
C1096 N35 1.306 . S
C1123 C39 2.037 . S
C1135 C854 2.039 . S
C1162 C934 1.209 . S
C1150 N25 1.144 . S
C1189 C332 1.146 . S
C1177 N58 1.159 . S
C1204 N81 1.876 . S
C1216 C427 1.866 . S
C1243 C518 1.187 . S
C1231 N104 1.152 . S
C1258 N127 1.135 . S
C1270 C586 0.932 . S
C1297 C670 0.658 . S
C1285 N48 0.879 . S
C1324 C752 1.448 . S
C1312 N71 1.449 1_556 S
C1339 N94 1.440 . S
C1351 C847 1.441 . S
C1378 C938 1.547 . S
C1366 N117 1.533 . S
C1393 C85 2.114 . S
C1405 C339 2.118 . S
C1420 C122 2.376 . S
C1432 C668 2.332 . S
C1447 C53 1.786 . S
C1459 C759 1.798 . S
C1486 C850 1.306 . S
C1474 C76 1.464 1_655 S
C1513 C931 1.722 . S
C1501 C99 1.807 . S
C1540 C511 1.888 . S
C1528 C131 1.925 . S
C1567 C584 1.892 . S
C1555 C62 1.947 1_565 S
C1582 C108 1.153 . S
C1594 C430 1.060 . S
C1621 C922 1.200 . S
C1609 N140 1.405 . S
C1636 C145 2.124 . S
C1648 C686 2.147 . S
C1675 C766 1.139 . S
C1663 N150 1.333 . S
C1690 C154 1.946 . S
C1702 C843 1.939 . S
C1729 C423 2.185 . S
C1717 C168 2.183 . S
C1744 N173 1.198 . S
C1756 C502 0.945 . S
C1783 C602 2.023 . S
C1771 C177 2.053 . S
C1810 C346 1.219 . S
C1798 N163 1.167 . S
C1837 C920 1.557 . S
C1825 C200 1.572 . S
C1864 C679 2.146 . S
C1852 N219 2.169 . S
C1879 N242 1.362 . S
C1891 C770 1.476 . S
C1918 C838 1.089 . S
C1906 C269 1.465 . S
C1945 C418 0.861 . S
C1933 C191 1.142 . S
C1960 N209 1.696 . S
C1972 C500 1.698 . S
C1987 N232 1.704 . S
C1999 C595 1.742 . S
C2014 C260 2.016 . S
C2026 C350 2.002 . S
C2041 C223 1.797 . S
C2053 C927 1.794 . S
C2068 N255 1.971 . S
C2080 C416 1.958 . S
C2095 N186 1.375 . S
C2107 C507 1.401 . S
C2134 C598 0.889 . S
C2122 C214 1.168 . S
C2161 C343 1.472 . S
C2149 C237 1.510 . S
C2188 C763 1.515 . S
C2176 N265 1.507 . S
C2215 C836 1.502 . S
C2203 N196 1.555 . S
C2242 C682 0.835 . S
C2230 C246 0.851 . S
