# Generated by pormake.
# Topology pyr, (3,6)-cn, num edge types: 1
# Building blocks:
#     Node 0, Type 0, BuildingBlock: OLANEW_clean_sbu_2, # of connection points: 3
#     Node 1, Type 0, BuildingBlock: OLANEW_clean_sbu_2, # of connection points: 3
#     Node 2, Type 0, BuildingBlock: OLANEW_clean_sbu_2, # of connection points: 3
#     Node 3, Type 0, BuildingBlock: OLANEW_clean_sbu_2, # of connection points: 3
#     Node 4, Type 0, BuildingBlock: OLANEW_clean_sbu_2, # of connection points: 3
#     Node 5, Type 0, BuildingBlock: OLANEW_clean_sbu_2, # of connection points: 3
#     Node 6, Type 0, BuildingBlock: OLANEW_clean_sbu_2, # of connection points: 3
#     Node 7, Type 0, BuildingBlock: OLANEW_clean_sbu_2, # of connection points: 3
#     Node 8, Type 1, BuildingBlock: MIDCAF_clean_sbu_0, # of connection points: 6
#     Node 9, Type 1, BuildingBlock: MIDCAF_clean_sbu_0, # of connection points: 6
#     Node 10, Type 1, BuildingBlock: MIDCAF_clean_sbu_0, # of connection points: 6
#     Node 11, Type 1, BuildingBlock: MIDCAF_clean_sbu_0, # of connection points: 6
#     Edge 12, Type (0, 1), BuildingBlock: TEMPAE_clean_linker_10, # of connection points: 2
#     Edge 13, Type (0, 1), BuildingBlock: TEMPAE_clean_linker_10, # of connection points: 2
#     Edge 14, Type (0, 1), BuildingBlock: TEMPAE_clean_linker_10, # of connection points: 2
#     Edge 15, Type (0, 1), BuildingBlock: TEMPAE_clean_linker_10, # of connection points: 2
#     Edge 16, Type (0, 1), BuildingBlock: TEMPAE_clean_linker_10, # of connection points: 2
#     Edge 17, Type (0, 1), BuildingBlock: TEMPAE_clean_linker_10, # of connection points: 2
#     Edge 18, Type (0, 1), BuildingBlock: TEMPAE_clean_linker_10, # of connection points: 2
#     Edge 19, Type (0, 1), BuildingBlock: TEMPAE_clean_linker_10, # of connection points: 2
#     Edge 20, Type (0, 1), BuildingBlock: TEMPAE_clean_linker_10, # of connection points: 2
#     Edge 21, Type (0, 1), BuildingBlock: TEMPAE_clean_linker_10, # of connection points: 2
#     Edge 22, Type (0, 1), BuildingBlock: TEMPAE_clean_linker_10, # of connection points: 2
#     Edge 23, Type (0, 1), BuildingBlock: TEMPAE_clean_linker_10, # of connection points: 2
#     Edge 24, Type (0, 1), BuildingBlock: TEMPAE_clean_linker_10, # of connection points: 2
#     Edge 25, Type (0, 1), BuildingBlock: TEMPAE_clean_linker_10, # of connection points: 2
#     Edge 26, Type (0, 1), BuildingBlock: TEMPAE_clean_linker_10, # of connection points: 2
#     Edge 27, Type (0, 1), BuildingBlock: TEMPAE_clean_linker_10, # of connection points: 2
#     Edge 28, Type (0, 1), BuildingBlock: TEMPAE_clean_linker_10, # of connection points: 2
#     Edge 29, Type (0, 1), BuildingBlock: TEMPAE_clean_linker_10, # of connection points: 2
#     Edge 30, Type (0, 1), BuildingBlock: TEMPAE_clean_linker_10, # of connection points: 2
#     Edge 31, Type (0, 1), BuildingBlock: TEMPAE_clean_linker_10, # of connection points: 2
#     Edge 32, Type (0, 1), BuildingBlock: TEMPAE_clean_linker_10, # of connection points: 2
#     Edge 33, Type (0, 1), BuildingBlock: TEMPAE_clean_linker_10, # of connection points: 2
#     Edge 34, Type (0, 1), BuildingBlock: TEMPAE_clean_linker_10, # of connection points: 2
#     Edge 35, Type (0, 1), BuildingBlock: TEMPAE_clean_linker_10, # of connection points: 2
# Relax obj value: 0.074
# Max RMSD: 0.157
# Mean RMSD: 0.119
data_MOF--net-pry--node1-OLANEW_clean_sbu_2--node2-MIDCAF_clean_sbu_0--edge1-TEMPAE_clean_linker_10
_symmetry_space_group_name_H-M    P1
_symmetry_Int_Tables_number       1
_symmetry_cell_setting            triclinic
loop_
_symmetry_equiv_pos_as_xyz
'x, y, z'
_cell_length_a     38.218874
_cell_length_b     38.292604
_cell_length_c     37.564398
_cell_angle_alpha  94.27102
_cell_angle_beta   89.144326
_cell_angle_gamma 95.499921
loop_
_atom_site_label
_atom_site_type_symbol
_atom_site_fract_x
_atom_site_fract_y
_atom_site_fract_z
_atom_type_partial_charge
O0 O 0.25594 0.1927 0.23421 0.0
Cd1 Cd 0.20003 0.21846 0.24502 0.0
O2 O 0.22868 0.14068 0.21835 0.0
Cd3 Cd 0.17836 0.15395 0.24165 0.0
O4 O 0.14006 0.14932 0.2854 0.0
C5 C 0.14494 0.1687 0.31423 0.0
O6 O 0.17149 0.19322 0.31595 0.0
C7 C 0.25699 0.16094 0.22186 0.0
C8 C 0.18613 0.26904 0.19807 0.0
O9 O 0.20037 0.27803 0.22847 0.0
O10 O 0.17909 0.23611 0.18949 0.0
O11 O 0.38211 0.84661 0.79291 0.0
Cd12 Cd 0.34846 0.83239 0.73809 0.0
O13 O 0.33796 0.82755 0.82673 0.0
Cd14 Cd 0.30036 0.82721 0.78358 0.0
O15 O 0.26204 0.85044 0.75235 0.0
C16 C 0.24367 0.87248 0.76899 0.0
O17 O 0.2482 0.87922 0.80352 0.0
C18 C 0.37008 0.83914 0.82348 0.0
C19 C 0.37336 0.7734 0.70232 0.0
O20 O 0.38374 0.80435 0.69327 0.0
O21 O 0.35066 0.7704 0.72761 0.0
O22 O 0.75785 0.38498 0.84132 0.0
Cd23 Cd 0.6971 0.35909 0.83686 0.0
O24 O 0.76662 0.3333 0.85763 0.0
Cd25 Cd 0.78742 0.28792 0.87894 0.0
O26 O 0.76981 0.24254 0.90863 0.0
C27 C 0.75207 0.2497 0.93665 0.0
O28 O 0.74857 0.28289 0.94637 0.0
C29 C 0.7789 0.3646 0.85241 0.0
C30 C 0.66591 0.37761 0.77587 0.0
O31 O 0.66553 0.39713 0.8051 0.0
O32 O 0.68083 0.34902 0.77565 0.0
O33 O 0.88616 0.79511 0.33165 0.0
Cd34 Cd 0.86381 0.76078 0.27854 0.0
O35 O 0.87918 0.74665 0.35953 0.0
Cd36 Cd 0.87691 0.71691 0.40677 0.0
O37 O 0.83314 0.684 0.42756 0.0
C38 C 0.80528 0.68872 0.41127 0.0
O39 O 0.80729 0.71153 0.38668 0.0
C40 C 0.88737 0.77957 0.3602 0.0
C41 C 0.91327 0.71962 0.24676 0.0
O42 O 0.91145 0.75134 0.23871 0.0
O43 O 0.89177 0.70739 0.27032 0.0
O44 O 0.9885 0.91687 0.9373 0.0
Cd45 Cd 0.96361 0.90055 0.99499 0.0
O46 O 0.93724 0.93245 0.92169 0.0
Cd47 Cd 0.90781 0.92924 0.97139 0.0
O48 O 0.85914 0.94667 0.99426 0.0
C49 C 0.85152 0.97728 0.98813 0.0
O50 O 0.87404 0.99758 0.97028 0.0
C51 C 0.96898 0.92754 0.91405 0.0
C52 C 0.97937 0.83336 0.00967 0.0
O53 O 0.9534 0.83767 0.98979 0.0
O54 O 0.99782 0.86083 0.02295 0.0
O55 O 0.58707 0.01003 0.42931 0.0
Cd56 Cd 0.60937 0.00791 0.48982 0.0
O57 O 0.58923 0.06599 0.44563 0.0
Cd58 Cd 0.5877 0.12253 0.44288 0.0
O59 O 0.58898 0.17908 0.45597 0.0
C60 C 0.58421 0.19023 0.48826 0.0
O61 O 0.57873 0.16736 0.51261 0.0
C62 C 0.58158 0.04094 0.42205 0.0
C63 C 0.67967 0.99539 0.49687 0.0
O64 O 0.65489 0.97111 0.50153 0.0
O65 O 0.6714 0.02512 0.48782 0.0
O66 O 0.53715 0.67897 0.1025 0.0
Cd67 Cd 0.5559 0.62325 0.12011 0.0
O68 O 0.48422 0.66205 0.12138 0.0
Cd69 Cd 0.42797 0.66539 0.12757 0.0
O70 O 0.37448 0.64134 0.11949 0.0
C71 C 0.37199 0.60972 0.10613 0.0
O72 O 0.40097 0.59457 0.0989 0.0
C73 C 0.50514 0.68472 0.10696 0.0
C74 C 0.55254 0.61385 0.19338 0.0
O75 O 0.58121 0.62609 0.17875 0.0
O76 O 0.52539 0.60682 0.17356 0.0
O77 O 0.08787 0.51153 0.66565 0.0
Cd78 Cd 0.11212 0.53728 0.61204 0.0
O79 O 0.12013 0.46783 0.65361 0.0
Cd80 Cd 0.13887 0.41695 0.66103 0.0
O81 O 0.13967 0.36115 0.64487 0.0
C82 C 0.13015 0.3513 0.61311 0.0
O83 O 0.12214 0.37514 0.59197 0.0
C84 C 0.09822 0.4827 0.67389 0.0
C85 C 0.18391 0.52989 0.60394 0.0
O86 O 0.17297 0.55547 0.62361 0.0
O87 O 0.16091 0.50768 0.58819 0.0
Zn88 Zn 0.97435 0.06042 0.63644 0.0
Zn89 Zn 0.05003 0.98526 0.55661 0.0
Zn90 Zn 0.0093 0.02186 0.59286 0.0
C91 C 0.05643 0.04857 0.52655 0.0
C92 C 0.98191 0.95316 0.54701 0.0
O93 O 0.01981 0.01037 0.64889 0.0
O94 O 0.98549 0.04285 0.68251 0.0
C95 C 0.02015 0.10685 0.60089 0.0
O96 O 0.03863 0.05637 0.55503 0.0
O97 O 0.06349 0.01733 0.5192 0.0
O98 O 0.01343 0.94589 0.54562 0.0
O99 O 0.97408 0.98316 0.56105 0.0
O100 O 0.99807 0.10626 0.62618 0.0
O101 O 0.02687 0.07781 0.58361 0.0
O102 O 0.95252 0.00744 0.57939 0.0
O103 O 0.92779 0.04674 0.61498 0.0
C104 C 0.92497 0.02219 0.59052 0.0
O105 O 0.04466 0.99508 0.62713 0.0
O106 O 0.08654 0.97778 0.59047 0.0
C107 C 0.00773 0.02049 0.67984 0.0
C108 C 0.07429 0.98186 0.62161 0.0
Zn109 Zn 0.49948 0.05593 0.0459 0.0
Zn110 Zn 0.56763 0.99117 0.13032 0.0
Zn111 Zn 0.53151 0.02005 0.08751 0.0
C112 C 0.6171 0.02042 0.08665 0.0
C113 C 0.52614 0.93657 0.09406 0.0
O114 O 0.49516 0.05229 0.12058 0.0
O115 O 0.46928 0.08004 0.08026 0.0
C116 C 0.56801 0.07843 0.03487 0.0
O117 O 0.58871 0.03071 0.07437 0.0
O118 O 0.6156 0.00188 0.11304 0.0
O119 O 0.54723 0.94283 0.11974 0.0
O120 O 0.51671 0.96213 0.07702 0.0
O121 O 0.53816 0.08496 0.02484 0.0
O122 O 0.57051 0.05462 0.05713 0.0
O123 O 0.50089 0.9803 0.05107 0.0
O124 O 0.47784 0.01565 0.01594 0.0
C125 C 0.48215 0.9849 0.02382 0.0
O126 O 0.51813 0.03935 0.14384 0.0
O127 O 0.55587 0.01468 0.17577 0.0
C128 C 0.47276 0.07354 0.11236 0.0
C129 C 0.53189 0.03481 0.17415 0.0
Zn130 Zn 0.55759 0.55247 0.56479 0.0
Zn131 Zn 0.47642 0.48273 0.47816 0.0
Zn132 Zn 0.51873 0.52001 0.5231 0.0
C133 C 0.51448 0.43474 0.5087 0.0
C134 C 0.51934 0.52699 0.43734 0.0
O135 O 0.48808 0.55451 0.56114 0.0
O136 O 0.52767 0.56966 0.6029 0.0
C137 C 0.57544 0.48914 0.57231 0.0
O138 O 0.52724 0.46327 0.52629 0.0
O139 O 0.49112 0.43603 0.4856 0.0
O140 O 0.49357 0.50382 0.43412 0.0
O141 O 0.53257 0.53646 0.46838 0.0
O142 O 0.59013 0.51979 0.57814 0.0
O143 O 0.54731 0.48377 0.55331 0.0
O144 O 0.55719 0.55448 0.49279 0.0
O145 O 0.57906 0.5898 0.53752 0.0
C146 C 0.57785 0.58135 0.50454 0.0
O147 O 0.46425 0.52982 0.53957 0.0
O148 O 0.43172 0.49518 0.5004 0.0
C149 C 0.4973 0.57148 0.59114 0.0
C150 C 0.434 0.51664 0.52758 0.0
Zn151 Zn 0.11526 0.55843 0.95958 0.0
Zn152 Zn 0.01519 0.47966 0.05203 0.0
Zn153 Zn 0.06027 0.50896 0.01443 0.0
C154 C 0.07008 0.44224 0.06227 0.0
C155 C 0.98893 0.4725 0.98341 0.0
O156 O 0.05809 0.56822 0.02284 0.0
O157 O 0.09135 0.59697 0.98248 0.0
C158 C 0.13487 0.51102 0.01972 0.0
O159 O 0.08445 0.469 0.04645 0.0
O160 O 0.03708 0.43816 0.06547 0.0
O161 O 0.9785 0.4727 0.01543 0.0
O162 O 0.02142 0.48175 0.97635 0.0
O163 O 0.12707 0.52977 0.99592 0.0
O164 O 0.10955 0.49285 0.03402 0.0
O165 O 0.05166 0.49542 0.9554 0.0
O166 O 0.08816 0.53002 0.92259 0.0
C167 C 0.06382 0.50542 0.92499 0.0
O168 O 0.03872 0.55034 0.05013 0.0
O169 O 0.01057 0.5176 0.08956 0.0
C170 C 0.06974 0.59698 0.00839 0.0
C171 C 0.02189 0.54744 0.07993 0.0
C172 C 0.13331 0.17841 0.37992 0.0
C173 C 0.12486 0.15987 0.34702 0.0
C174 C 0.11906 0.16652 0.41204 0.0
C175 C 0.09585 0.13537 0.41122 0.0
C176 C 0.08503 0.11823 0.37793 0.0
C177 C 0.09965 0.13068 0.34624 0.0
C178 C 0.13083 0.18581 0.44696 0.0
C179 C 0.06009 0.08509 0.37583 0.0
C180 C 0.10003 0.07139 0.48255 0.0
C181 C 0.06853 0.07506 0.50135 0.0
C182 C 0.11 0.09227 0.45443 0.0
C183 C 0.0877 0.11733 0.44455 0.0
C184 C 0.05676 0.1226 0.46473 0.0
C185 C 0.04749 0.10131 0.49305 0.0
C186 C 0.14355 0.08612 0.43411 0.0
C187 C 0.03242 0.14917 0.4552 0.0
H188 H 0.15242 0.20127 0.38081 0.0
H189 H 0.0926 0.1164 0.32096 0.0
H190 H 0.1079 0.18975 0.46476 0.0
H191 H 0.14835 0.16981 0.46082 0.0
H192 H 0.1453 0.21183 0.44306 0.0
H193 H 0.05073 0.0776 0.3482 0.0
H194 H 0.07361 0.06308 0.38514 0.0
H195 H 0.03698 0.08842 0.39354 0.0
H196 H 0.1165 0.0513 0.4892 0.0
H197 H 0.02303 0.10405 0.50752 0.0
H198 H 0.16003 0.11135 0.43191 0.0
H199 H 0.13715 0.07498 0.4066 0.0
H200 H 0.15927 0.06769 0.44701 0.0
H201 H 0.04748 0.17432 0.44928 0.0
H202 H 0.01319 0.15447 0.47695 0.0
H203 H 0.01766 0.13898 0.43079 0.0
C204 C 0.37793 0.842 0.88973 0.0
C205 C 0.39207 0.84768 0.85571 0.0
C206 C 0.39552 0.85659 0.92066 0.0
C207 C 0.42781 0.87755 0.91742 0.0
C208 C 0.44396 0.88011 0.8834 0.0
C209 C 0.4259 0.86508 0.85292 0.0
C210 C 0.37776 0.85257 0.95648 0.0
C211 C 0.4785 0.902 0.87868 0.0
C212 C 0.43913 0.96151 0.97719 0.0
C213 C 0.46625 0.95525 -4e-05 0.0
C214 C 0.42634 0.93622 0.95067 0.0
C215 C 0.4401 0.90311 0.94741 0.0
C216 C 0.46629 0.89579 0.97137 0.0
C217 C 0.4797 0.92235 0.99688 0.0
C218 C 0.39895 0.94559 0.92525 0.0
C219 C 0.48066 0.86036 0.9695 0.0
H220 H 0.35211 0.82796 0.89223 0.0
H221 H 0.43736 0.86906 0.82679 0.0
H222 H 0.3972 0.84915 0.97728 0.0
H223 H 0.36487 0.87671 0.96461 0.0
H224 H 0.35735 0.82982 0.95554 0.0
H225 H 0.4906 0.89594 0.85213 0.0
H226 H 0.47394 0.93028 0.88105 0.0
H227 H 0.49737 0.89775 0.89969 0.0
H228 H 0.42853 0.98686 0.97931 0.0
H229 H 0.50152 0.91781 0.01337 0.0
H230 H 0.37514 0.92669 0.92617 0.0
H231 H 0.40934 0.9439 0.89749 0.0
H232 H 0.39104 0.97255 0.93154 0.0
H233 H 0.45879 0.83924 0.97087 0.0
H234 H 0.49929 0.85817 0.99147 0.0
H235 H 0.49442 0.85568 0.94363 0.0
C236 C 0.63946 0.42219 0.74242 0.0
C237 C 0.6504 0.38835 0.74311 0.0
C238 C 0.62627 0.43354 0.71116 0.0
C239 C 0.62375 0.41038 0.67991 0.0
C240 C 0.63397 0.37594 0.68056 0.0
C241 C 0.64735 0.36533 0.7122 0.0
C242 C 0.61579 0.47064 0.7114 0.0
C243 C 0.63159 0.35069 0.64763 0.0
C244 C 0.56396 0.43991 0.61129 0.0
C245 C 0.58799 0.46156 0.59243 0.0
C246 C 0.57548 0.42083 0.63857 0.0
C247 C 0.61181 0.42319 0.64634 0.0
C248 C 0.63636 0.44218 0.62476 0.0
C249 C 0.62406 0.46156 0.59824 0.0
C250 C 0.54852 0.40111 0.66123 0.0
C251 C 0.67538 0.4446 0.63162 0.0
H252 H 0.64183 0.44013 0.76616 0.0
H253 H 0.65568 0.3391 0.71263 0.0
H254 H 0.63306 0.48586 0.6929 0.0
H255 H 0.58841 0.47029 0.70186 0.0
H256 H 0.61769 0.48466 0.73838 0.0
H257 H 0.63781 0.32392 0.65333 0.0
H258 H 0.60486 0.34879 0.6361 0.0
H259 H 0.65024 0.36068 0.62698 0.0
H260 H 0.53603 0.44022 0.6068 0.0
H261 H 0.64254 0.47828 0.58335 0.0
H262 H 0.54594 0.41627 0.68734 0.0
H263 H 0.55689 0.37508 0.66662 0.0
H264 H 0.52229 0.39718 0.6484 0.0
H265 H 0.68157 0.46198 0.65613 0.0
H266 H 0.69099 0.45551 0.60913 0.0
H267 H 0.68377 0.41834 0.63607 0.0
C268 C 0.96045 0.71092 0.20126 0.0
C269 C 0.93779 0.69712 0.22748 0.0
C270 C 0.98 0.68904 0.17891 0.0
C271 C 0.97679 0.65239 0.1829 0.0
C272 C 0.95648 0.6388 0.21149 0.0
C273 C 0.93698 0.66131 0.23332 0.0
C274 C 0.00234 0.70573 0.15016 0.0
C275 C 0.95389 0.60017 0.21791 0.0
C276 C 0.97861 0.58772 0.10185 0.0
C277 C 0.01297 0.57821 0.10248 0.0
C278 C 0.96704 0.61284 0.12715 0.0
C279 C 0.99009 0.62776 0.15457 0.0
C280 C 0.02503 0.61837 0.15515 0.0
C281 C 0.03619 0.59373 0.1288 0.0
C282 C 0.92979 0.62265 0.12506 0.0
C283 C 0.05007 0.63346 0.18423 0.0
H284 H 0.96194 0.73874 0.19707 0.0
H285 H 0.92007 0.65053 0.25404 0.0
H286 H 0.01808 0.68719 0.13435 0.0
H287 H 0.98517 0.7177 0.13184 0.0
H288 H 0.02055 0.72748 0.16249 0.0
H289 H 0.94216 0.5949 0.24445 0.0
H290 H 0.93723 0.58499 0.19711 0.0
H291 H 0.98026 0.59027 0.21609 0.0
H292 H 0.96058 0.57496 0.0818 0.0
H293 H 0.06248 0.58543 0.12967 0.0
H294 H 0.92937 0.65167 0.12768 0.0
H295 H 0.91394 0.61186 0.14739 0.0
H296 H 0.91697 0.61228 0.09958 0.0
H297 H 0.05344 0.66257 0.18419 0.0
H298 H 0.0763 0.62331 0.18104 0.0
H299 H 0.03896 0.62693 0.21066 0.0
C300 C 0.29286 0.1214 0.1839 0.0
C301 C 0.291 0.14729 0.21205 0.0
C302 C 0.32511 0.10904 0.17334 0.0
C303 C 0.35612 0.12212 0.19212 0.0
C304 C 0.35403 0.14689 0.22181 0.0
C305 C 0.32157 0.15969 0.23103 0.0
C306 C 0.32622 0.08313 0.14109 0.0
C307 C 0.38621 0.16049 0.24327 0.0
C308 C 0.43391 0.07008 0.16666 0.0
C309 C 0.44899 0.08929 0.13907 0.0
C310 C 0.40498 0.0817 0.18629 0.0
C311 C 0.3909 0.11299 0.17775 0.0
C312 C 0.408 0.13378 0.15187 0.0
C313 C 0.43683 0.1217 0.13297 0.0
C314 C 0.38804 0.05916 0.21425 0.0
C315 C 0.39413 0.16737 0.14194 0.0
H316 H 0.26923 0.1117 0.16928 0.0
H317 H 0.32004 0.17921 0.25329 0.0
H318 H 0.34235 0.09537 0.11968 0.0
H319 H 0.33881 0.05963 0.14798 0.0
H320 H 0.29961 0.07444 0.13037 0.0
H321 H 0.37943 0.1759 0.26823 0.0
H322 H 0.40083 0.13831 0.25027 0.0
H323 H 0.40414 0.1776 0.22707 0.0
H324 H 0.44299 0.04484 0.17115 0.0
H325 H 0.4487 0.13677 0.11183 0.0
H326 H 0.36429 0.04358 0.20292 0.0
H327 H 0.37958 0.07564 0.23777 0.0
H328 H 0.40614 0.04058 0.22322 0.0
H329 H 0.36837 0.16104 0.12853 0.0
H330 H 0.41227 0.182 0.12366 0.0
H331 H 0.38982 0.18487 0.16614 0.0
C332 C 0.19462 0.91135 0.76915 0.0
C333 C 0.21784 0.89058 0.74994 0.0
C334 C 0.16976 0.92843 0.75154 0.0
C335 C 0.16838 0.92502 0.71384 0.0
C336 C 0.19212 0.90459 0.69426 0.0
C337 C 0.21642 0.88745 0.71255 0.0
C338 C 0.1451 0.95024 0.77325 0.0
C339 C 0.1917 0.90069 0.65395 0.0
C340 C 0.0858 0.93755 0.66353 0.0
C341 C 0.0944 0.97073 0.65091 0.0
C342 C 0.10899 0.92303 0.68561 0.0
C343 C 0.14165 0.94209 0.69468 0.0
C344 C 0.14969 0.97633 0.68314 0.0
C345 C 0.12595 0.99017 0.66113 0.0
C346 C 0.09936 0.88664 0.6978 0.0
C347 C 0.18425 0.99743 0.6921 0.0
H348 H 0.19563 0.91407 0.79805 0.0
H349 H 0.23444 0.8717 0.6975 0.0
H350 H 0.15204 0.9785 0.76934 0.0
H351 H 0.11765 0.94354 0.76411 0.0
H352 H 0.14636 0.9465 0.80222 0.0
H353 H 0.21259 0.88473 0.64268 0.0
H354 H 0.16583 0.88795 0.6446 0.0
H355 H 0.19533 0.92698 0.6431 0.0
H356 H 0.06177 0.92224 0.65464 0.0
H357 H 0.13274 0.01556 0.65054 0.0
H358 H 0.09973 0.88755 0.7274 0.0
H359 H 0.11903 0.86873 0.68769 0.0
H360 H 0.07298 0.87531 0.68841 0.0
H361 H 0.18968 0.99775 0.72105 0.0
H362 H 0.18469 0.025 0.68462 0.0
H363 H 0.20587 0.98496 0.6776 0.0
C364 C 0.8352 0.3617 0.88506 0.0
C365 C 0.81543 0.37857 0.86163 0.0
C366 C 0.86752 0.37754 0.89813 0.0
C367 C 0.88026 0.41128 0.8878 0.0
C368 C 0.86168 0.42742 0.86227 0.0
C369 C 0.82943 0.41091 0.84953 0.0
C370 C 0.88655 0.35939 0.92534 0.0
C371 C 0.87462 0.46319 0.85028 0.0
C372 C 0.92732 0.46653 0.96296 0.0
C373 C 0.96261 0.46161 0.95537 0.0
C374 C 0.90046 0.45165 0.9402 0.0
C375 C 0.90909 0.43183 0.90853 0.0
C376 C 0.94484 0.42893 0.89929 0.0
C377 C 0.97125 0.44339 0.92327 0.0
C378 C 0.86272 0.45534 0.95131 0.0
C379 C 0.95513 0.40886 0.86527 0.0
H380 H 0.82459 0.33719 0.8951 0.0
H381 H 0.81451 0.42406 0.83113 0.0
H382 H 0.91492 0.35985 0.91859 0.0
H383 H 0.88423 0.3736 0.95199 0.0
H384 H 0.87565 0.33161 0.92718 0.0
H385 H 0.86063 0.46943 0.82617 0.0
H386 H 0.87034 0.48363 0.87201 0.0
H387 H 0.90325 0.46476 0.84446 0.0
H388 H 0.9205 0.48093 0.98765 0.0
H389 H 0.99825 0.43862 0.91794 0.0
H390 H 0.84944 0.42915 0.95659 0.0
H391 H 0.84824 0.46553 0.92955 0.0
H392 H 0.86063 0.47325 0.97575 0.0
H393 H 0.95121 0.38024 0.86874 0.0
H394 H 0.98313 0.41566 0.85818 0.0
H395 H 0.9385 0.41422 0.84271 0.0
C396 C 0.76857 0.6429 0.4433 0.0
C397 C 0.77101 0.66992 0.41991 0.0
C398 C 0.73571 0.62618 0.45252 0.0
C399 C 0.70475 0.63704 0.43819 0.0
C400 C 0.70721 0.66352 0.41379 0.0
C401 C 0.7403 0.67956 0.40487 0.0
C402 C 0.73405 0.598 0.47872 0.0
C403 C 0.67475 0.67611 0.39841 0.0
C404 C 0.61814 0.58151 0.45132 0.0
C405 C 0.60517 0.59895 0.48214 0.0
C406 C 0.65022 0.59409 0.43588 0.0
C407 C 0.66976 0.62425 0.45219 0.0
C408 C 0.65586 0.64278 0.48226 0.0
C409 C 0.62344 0.63033 0.49632 0.0
C410 C 0.66401 0.57423 0.40328 0.0
C411 C 0.67603 0.67478 0.50079 0.0
H412 H 0.79225 0.63515 0.45479 0.0
H413 H 0.74195 0.70039 0.38674 0.0
H414 H 0.72194 0.60775 0.50413 0.0
H415 H 0.71726 0.57436 0.46819 0.0
H416 H 0.76049 0.59015 0.4846 0.0
H417 H 0.68124 0.69488 0.37759 0.0
H418 H 0.65735 0.65347 0.38664 0.0
H419 H 0.65964 0.68938 0.42002 0.0
H420 H 0.60441 0.55702 0.44054 0.0
H421 H 0.61345 0.64406 0.52006 0.0
H422 H 0.68851 0.56289 0.41004 0.0
H423 H 0.67072 0.59237 0.38198 0.0
H424 H 0.64469 0.55259 0.39259 0.0
H425 H 0.70135 0.66754 0.51077 0.0
H426 H 0.66124 0.68631 0.52375 0.0
H427 H 0.68228 0.69528 0.48171 0.0
C428 C 0.16673 0.28643 0.13889 0.0
C429 C 0.17618 0.29588 0.17452 0.0
C430 C 0.1539 0.31088 0.11744 0.0
C431 C 0.14979 0.34541 0.13217 0.0
C432 C 0.1607 0.35547 0.16764 0.0
C433 C 0.17403 0.33069 0.18826 0.0
C434 C 0.14309 0.29919 0.07961 0.0
C435 C 0.15632 0.39183 0.18457 0.0
C436 C 0.12766 0.41758 0.07353 0.0
C437 C 0.09115 0.4168 0.0784 0.0
C438 C 0.14729 0.39441 0.0906 0.0
C439 C 0.12985 0.3694 0.11242 0.0
C440 C 0.09288 0.36779 0.11647 0.0
C441 C 0.07412 0.39146 0.09958 0.0
C442 C 0.18666 0.39687 0.08552 0.0
C443 C 0.07309 0.34146 0.13929 0.0
H444 H 0.16865 0.25967 0.12795 0.0
H445 H 0.18126 0.33822 0.21575 0.0
H446 H 0.114 0.29676 0.07778 0.0
H447 H 0.15345 0.31901 0.06106 0.0
H448 H 0.15251 0.2734 0.07058 0.0
H449 H 0.16926 0.39666 0.211 0.0
H450 H 0.16737 0.41219 0.16694 0.0
H451 H 0.12791 0.39506 0.18824 0.0
H452 H 0.14092 0.43623 0.05641 0.0
H453 H 0.04588 0.39027 0.10344 0.0
H454 H 0.19458 0.37148 0.07341 0.0
H455 H 0.19984 0.40195 0.11176 0.0
H456 H 0.19631 0.41812 0.06821 0.0
H457 H 0.07821 0.31434 0.12959 0.0
H458 H 0.04425 0.34326 0.13921 0.0
H459 H 0.0824 0.34582 0.16725 0.0
C460 C 0.70901 0.23035 0.98349 0.0
C461 C 0.73155 0.22149 0.95513 0.0
C462 C 0.6856 0.20472 0.99814 0.0
C463 C 0.68496 0.16923 0.9844 0.0
C464 C 0.70916 0.15972 0.9573 0.0
C465 C 0.73206 0.18602 0.94281 0.0
C466 C 0.66004 0.21602 0.02683 0.0
C467 C 0.70959 0.12216 0.94204 0.0
C468 C 0.63101 0.10409 0.0397 0.0
C469 C 0.59936 0.09899 0.02086 0.0
C470 C 0.66006 0.12498 0.02688 0.0
C471 C 0.6565 0.14308 0.99581 0.0
C472 C 0.62452 0.13821 0.97679 0.0
C473 C 0.5966 0.11583 0.98923 0.0
C474 C 0.6941 0.12851 0.04724 0.0
C475 C 0.61926 0.15765 0.94401 0.0
H476 H 0.70855 0.25763 0.99336 0.0
H477 H 0.74949 0.17886 0.921 0.0
H478 H 0.63282 0.21143 0.01642 0.0
H479 H 0.66134 0.2001 0.05017 0.0
H480 H 0.66526 0.24427 0.03601 0.0
H481 H 0.73557 0.11738 0.92995 0.0
H482 H 0.70318 0.10325 0.9627 0.0
H483 H 0.68951 0.11673 0.92082 0.0
H484 H 0.63281 0.09273 0.06502 0.0
H485 H 0.57215 0.11225 0.97456 0.0
H486 H 0.69676 0.15405 0.0634 0.0
H487 H 0.71692 0.12809 0.02865 0.0
H488 H 0.69513 0.10714 0.06552 0.0
H489 H 0.62249 0.18644 0.95106 0.0
H490 H 0.59285 0.15065 0.93212 0.0
H491 H 0.63944 0.15174 0.9235 0.0
C492 C 0.93052 0.81781 0.397 0.0
C493 C 0.89696 0.80011 0.39362 0.0
C494 C 0.93924 0.84084 0.4269 0.0
C495 C 0.91326 0.84715 0.45333 0.0
C496 C 0.87944 0.82857 0.45039 0.0
C497 C 0.87178 0.80483 0.42056 0.0
C498 C 0.97599 0.85923 0.42961 0.0
C499 C 0.85091 0.83506 0.47763 0.0
C500 C 0.95497 0.89208 0.53689 0.0
C501 C 0.95564 0.92741 0.52942 0.0
C502 C 0.93797 0.86539 0.51405 0.0
C503 C 0.92174 0.87446 0.48287 0.0
C504 C 0.91967 0.91035 0.47702 0.0
C505 C 0.93703 0.93652 0.50028 0.0
C506 C 0.94061 0.82751 0.5214 0.0
C507 C 0.90184 0.92106 0.44452 0.0
H508 H 0.9498 0.81393 0.37596 0.0
H509 H 0.84567 0.7912 0.41745 0.0
H510 H 0.97508 0.88792 0.42785 0.0
H511 H 0.98756 0.85541 0.4558 0.0
H512 H 0.99366 0.84945 0.40814 0.0
H513 H 0.82824 0.81465 0.47468 0.0
H514 H 0.86117 0.83581 0.50517 0.0
H515 H 0.84134 0.86105 0.47422 0.0
H516 H 0.96973 0.8852 0.55937 0.0
H517 H 0.93798 0.9639 0.4944 0.0
H518 H 0.96101 0.81662 0.50365 0.0
H519 H 0.91541 0.81132 0.51568 0.0
H520 H 0.94796 0.82492 0.54952 0.0
H521 H 0.91864 0.91634 0.42062 0.0
H522 H 0.89716 0.94933 0.44708 0.0
H523 H 0.87632 0.90505 0.43997 0.0
C524 C 0.40346 0.74303 0.65101 0.0
C525 C 0.38829 0.74213 0.68517 0.0
C526 C 0.41908 0.71391 0.63521 0.0
C527 C 0.42028 0.68365 0.65445 0.0
C528 C 0.40465 0.68248 0.68877 0.0
C529 C 0.38853 0.71164 0.7036 0.0
C530 C 0.43475 0.71568 0.59818 0.0
C531 C 0.40546 0.6506 0.71001 0.0
C532 C 0.44031 0.59855 0.60282 0.0
C533 C 0.47611 0.59807 0.60937 0.0
C534 C 0.42148 0.62581 0.61793 0.0
C535 C 0.43922 0.65376 0.63938 0.0
C536 C 0.4754 0.65341 0.6463 0.0
C537 C 0.49325 0.62546 0.63158 0.0
C538 C 0.38294 0.62508 0.60975 0.0
C539 C 0.49553 0.68305 0.66847 0.0
H540 H 0.40306 0.76649 0.6366 0.0
H541 H 0.37698 0.71094 0.7301 0.0
H542 H 0.46348 0.71364 0.59916 0.0
H543 H 0.42321 0.69314 0.58049 0.0
H544 H 0.43024 0.74048 0.58614 0.0
H545 H 0.39146 0.65357 0.73603 0.0
H546 H 0.39322 0.62691 0.69443 0.0
H547 H 0.4331 0.64597 0.71514 0.0
H548 H 0.42708 0.57785 0.58579 0.0
H549 H 0.52117 0.62586 0.63652 0.0
H550 H 0.37973 0.64036 0.58625 0.0
H551 H 0.36798 0.63675 0.63242 0.0
H552 H 0.3714 0.59779 0.60322 0.0
H553 H 0.4946 0.7081 0.6556 0.0
H554 H 0.52351 0.67846 0.67186 0.0
H555 H 0.48317 0.68642 0.69527 0.0
C556 C 0.9589 0.94213 0.85188 0.0
C557 C 0.98263 0.93563 0.87816 0.0
C558 C 0.97061 0.95303 0.81871 0.0
C559 C 0.00714 0.95766 0.81137 0.0
C560 C 0.03133 0.94982 0.83717 0.0
C561 C 0.01875 0.93862 0.87029 0.0
C562 C 0.94372 0.96095 0.79203 0.0
C563 C 0.07037 0.95317 0.83005 0.0
C564 C 0.01896 0.96854 0.71284 0.0
C565 C 0.01769 0.00492 0.71248 0.0
C566 C 0.01982 0.95266 0.74533 0.0
C567 C 0.01898 0.97377 0.77788 0.0
C568 C 0.02157 0.01084 0.77734 0.0
C569 C 0.02061 0.02597 0.7446 0.0
C570 C 0.01849 0.91316 0.74498 0.0
C571 C 0.02176 0.03439 0.81142 0.0
H572 H 0.9309 0.93939 0.85745 0.0
H573 H 0.03725 0.9332 0.8903 0.0
H574 H 0.94718 0.9893 0.78712 0.0
H575 H 0.9475 0.94578 0.76615 0.0
H576 H 0.9163 0.95448 0.80133 0.0
H577 H 0.08563 0.95555 0.8552 0.0
H578 H 0.07718 0.92916 0.81414 0.0
H579 H 0.07862 0.97618 0.81457 0.0
H580 H 0.01626 0.95227 0.68801 0.0
H581 H 0.02006 0.0542 0.74423 0.0
H582 H 0.9933 0.90249 0.75684 0.0
H583 H 0.04004 0.90579 0.76155 0.0
H584 H 0.02087 0.90062 0.71755 0.0
H585 H 0.99518 0.03206 0.82384 0.0
H586 H 0.02903 0.06244 0.80659 0.0
H587 H 0.04046 0.02618 0.83078 0.0
C588 C 0.57378 0.02407 0.35713 0.0
C589 C 0.56762 0.0472 0.38671 0.0
C590 C 0.5611 0.02922 0.32327 0.0
C591 C 0.54118 0.05799 0.31884 0.0
C592 C 0.53403 0.08098 0.34878 0.0
C593 C 0.54747 0.07538 0.38239 0.0
C594 C 0.56962 0.00408 0.29209 0.0
C595 C 0.51222 0.11136 0.34531 0.0
C596 C 0.5494 0.07849 0.22275 0.0
C597 C 0.52299 0.05426 0.20767 0.0
C598 C 0.55337 0.08347 0.25988 0.0
C599 C 0.52973 0.06428 0.28226 0.0
C600 C 0.49963 0.04442 0.26715 0.0
C601 C 0.49691 0.03912 0.2298 0.0
C602 C 0.58594 0.10482 0.27451 0.0
C603 C 0.47287 0.02481 0.29005 0.0
H604 H 0.58914 0.00215 0.36034 0.0
H605 H 0.54156 0.09264 0.40538 0.0
H606 H 0.54499 0.9912 0.27986 0.0
H607 H 0.58428 0.01872 0.27126 0.0
H608 H 0.58565 0.98327 0.30003 0.0
H609 H 0.50766 0.12584 0.37145 0.0
H610 H 0.52554 0.13004 0.32713 0.0
H611 H 0.48643 0.10167 0.33331 0.0
H612 H 0.56982 0.08984 0.20554 0.0
H613 H 0.47675 0.01995 0.21822 0.0
H614 H 0.60582 0.08674 0.28034 0.0
H615 H 0.58015 0.12009 0.29979 0.0
H616 H 0.59765 0.12326 0.25513 0.0
H617 H 0.48247 0.99941 0.2959 0.0
H618 H 0.44726 0.01906 0.27619 0.0
H619 H 0.46874 0.03997 0.31585 0.0
C620 C 0.58216 0.60482 0.25071 0.0
C621 C 0.55112 0.6065 0.23163 0.0
C622 C 0.58107 0.59473 0.28599 0.0
C623 C 0.54816 0.58667 0.30275 0.0
C624 C 0.51677 0.58978 0.28411 0.0
C625 C 0.51863 0.59936 0.24872 0.0
C626 C 0.61509 0.59104 0.30468 0.0
C627 C 0.48111 0.58178 0.3011 0.0
C628 C 0.53564 0.52082 0.37331 0.0
C629 C 0.53317 0.54269 0.40467 0.0
C630 C 0.54255 0.53489 0.34028 0.0
C631 C 0.54625 0.57184 0.3384 0.0
C632 C 0.54538 0.59411 0.37027 0.0
C633 C 0.53916 0.5792 0.40322 0.0
C634 C 0.54413 0.5101 0.30718 0.0
C635 C 0.54876 0.6336 0.36933 0.0
H636 H 0.60738 0.61015 0.23764 0.0
H637 H 0.49454 0.6008 0.23426 0.0
H638 H 0.61553 0.6052 0.33155 0.0
H639 H 0.61724 0.56287 0.30854 0.0
H640 H 0.63843 0.60125 0.2893 0.0
H641 H 0.45946 0.58909 0.28455 0.0
H642 H 0.47661 0.55325 0.30492 0.0
H643 H 0.47991 0.59608 0.32782 0.0
H644 H 0.53111 0.49253 0.37452 0.0
H645 H 0.53687 0.59608 0.42746 0.0
H646 H 0.56783 0.51759 0.29102 0.0
H647 H 0.52084 0.51188 0.29037 0.0
H648 H 0.54461 0.48232 0.31367 0.0
H649 H 0.5721 0.64253 0.35334 0.0
H650 H 0.55096 0.64718 0.3965 0.0
H651 H 0.52531 0.64172 0.35621 0.0
C652 C 0.11243 0.47205 0.73572 0.0
C653 C 0.08762 0.46934 0.7085 0.0
C654 C 0.10185 0.46915 0.77137 0.0
C655 C 0.06563 0.46192 0.77965 0.0
C656 C 0.04101 0.45509 0.75159 0.0
C657 C 0.05216 0.46 0.71631 0.0
C658 C 0.12907 0.47744 0.80031 0.0
C659 C 0.00257 0.44502 0.75887 0.0
C660 C 0.05606 0.4547 0.87936 0.0
C661 C 0.05028 0.48938 0.89056 0.0
C662 C 0.05651 0.44368 0.84277 0.0
C663 C 0.0535 0.46863 0.8172 0.0
C664 C 0.0447 0.5028 0.82866 0.0
C665 C 0.04233 0.51237 0.86521 0.0
C666 C 0.06289 0.40617 0.83168 0.0
C667 C 0.04196 0.53073 0.80269 0.0
H668 H 0.1398 0.47956 0.72947 0.0
H669 H 0.03299 0.4578 0.69507 0.0
H670 H 0.12334 0.50164 0.81664 0.0
H671 H 0.12813 0.45578 0.81837 0.0
H672 H 0.15617 0.48157 0.7893 0.0
H673 H 0.99029 0.42855 0.73595 0.0
H674 H 0.9987 0.43043 0.78331 0.0
H675 H 0.98857 0.4691 0.76266 0.0
H676 H 0.06261 0.43696 0.89892 0.0
H677 H 0.03824 0.53933 0.87401 0.0
H678 H 0.09152 0.40411 0.82849 0.0
H679 H 0.05004 0.39715 0.80586 0.0
H680 H 0.05287 0.38828 0.85228 0.0
H681 H 0.0676 0.53604 0.78888 0.0
H682 H 0.03454 0.55585 0.81606 0.0
H683 H 0.02213 0.52155 0.78203 0.0
C684 C 0.81082 0.02473 0.99837 0.0
C685 C 0.81712 0.98929 0.99944 0.0
C686 C 0.77831 0.03634 0.00942 0.0
C687 C 0.75144 0.01181 0.02136 0.0
C688 C 0.75738 0.97586 0.0215 0.0
C689 C 0.79019 0.96511 0.0108 0.0
C690 C 0.77299 0.07485 0.0091 0.0
C691 C 0.72929 0.94876 0.03376 0.0
C692 C 0.68189 0.0318 0.08981 0.0
C693 C 0.65149 0.02724 0.06898 0.0
C694 C 0.71519 0.03031 0.07411 0.0
C695 C 0.71805 0.02353 0.03669 0.0
C696 C 0.68768 0.02216 0.01522 0.0
C697 C 0.65457 0.02398 0.03171 0.0
C698 C 0.74693 0.03282 0.09795 0.0
C699 C 0.68966 0.01555 0.97519 0.0
H700 H 0.83149 0.04356 0.98947 0.0
H701 H 0.7947 0.93763 0.01128 0.0
H702 H 0.74923 0.07809 0.99361 0.0
H703 H 0.76858 0.08602 0.03672 0.0
H704 H 0.79585 0.09028 0.99739 0.0
H705 H 0.73739 0.92161 0.03022 0.0
H706 H 0.72322 0.95469 0.06242 0.0
H707 H 0.70472 0.94972 0.01866 0.0
H708 H 0.67947 0.03477 0.11866 0.0
H709 H 0.63101 0.02047 0.0156 0.0
H710 H 0.76897 0.04982 0.0869 0.0
H711 H 0.75589 0.00624 0.09941 0.0
H712 H 0.74105 0.04346 0.12548 0.0
H713 H 0.71297 0.0307 0.9641 0.0
H714 H 0.66568 0.02259 0.9621 0.0
H715 H 0.69229 0.98722 0.96836 0.0
C716 C 0.74408 0.00459 0.48406 0.0
C717 C 0.71643 0.99063 0.50517 0.0
C718 C 0.77921 0.00415 0.49444 0.0
C719 C 0.78662 0.99108 0.52756 0.0
C720 C 0.75872 0.97576 0.54825 0.0
C721 C 0.72398 0.97509 0.53639 0.0
C722 C 0.80828 0.01927 0.47087 0.0
C723 C 0.76527 0.96258 0.58422 0.0
C724 C 0.88036 0.98034 0.55594 0.0
C725 C 0.8899 0.01312 0.57395 0.0
C726 C 0.84709 0.97274 0.53995 0.0
C727 C 0.8225 0.99831 0.54305 0.0
C728 C 0.83176 0.03113 0.56203 0.0
C729 C 0.8653 0.0382 0.57684 0.0
C730 C 0.83851 0.93766 0.51938 0.0
C731 C 0.80609 0.05882 0.56708 0.0
H732 H 0.73819 0.01637 0.45974 0.0
H733 H 0.70251 0.96456 0.55284 0.0
H734 H 0.81941 0.04518 0.48299 0.0
H735 H 0.82989 0.0018 0.46846 0.0
H736 H 0.79876 0.02296 0.44373 0.0
H737 H 0.74118 0.94896 0.59569 0.0
H738 H 0.78607 0.94422 0.58216 0.0
H739 H 0.7747 0.98513 0.60305 0.0
H740 H 0.89853 0.96043 0.55512 0.0
H741 H 0.87227 0.06368 0.59078 0.0
H742 H 0.83827 0.94166 0.49044 0.0
H743 H 0.812 0.92574 0.52657 0.0
H744 H 0.85798 0.91879 0.52409 0.0
H745 H 0.79918 0.06758 0.54081 0.0
H746 H 0.81684 0.08225 0.5841 0.0
H747 H 0.78141 0.04764 0.57955 0.0
C748 C 0.30626 0.60638 0.10557 0.0
C749 C 0.33732 0.59066 0.09731 0.0
C750 C 0.27341 0.58933 0.0954 0.0
C751 C 0.27166 0.55576 0.07659 0.0
C752 C 0.30279 0.53934 0.06904 0.0
C753 C 0.33527 0.55697 0.07954 0.0
C754 C 0.24077 0.60796 0.1033 0.0
C755 C 0.3019 0.50381 0.04853 0.0
C756 C 0.18041 0.50686 0.06657 0.0
C757 C 0.17136 0.51582 0.0327 0.0
C758 C 0.21387 0.5181 0.08067 0.0
C759 C 0.23787 0.53992 0.06095 0.0
C760 C 0.2291 0.54809 0.02636 0.0
C761 C 0.1964 0.53524 0.0124 0.0
C762 C 0.22294 0.50798 0.1172 0.0
C763 C 0.25338 0.57207 0.00473 0.0
H764 H 0.30762 0.63237 0.11934 0.0
H765 H 0.35913 0.54461 0.07301 0.0
H766 H 0.22925 0.6144 0.07792 0.0
H767 H 0.22066 0.59056 0.11675 0.0
H768 H 0.24631 0.63273 0.12046 0.0
H769 H 0.32794 0.49314 0.04775 0.0
H770 H 0.28236 0.48475 0.06062 0.0
H771 H 0.29357 0.506 0.02068 0.0
H772 H 0.16101 0.49262 0.08269 0.0
H773 H 0.18972 0.54225 0.98606 0.0
H774 H 0.22381 0.53149 0.13642 0.0
H775 H 0.24936 0.4982 0.11678 0.0
H776 H 0.20345 0.48736 0.12697 0.0
H777 H 0.25746 0.59854 0.01903 0.0
H778 H 0.24281 0.57504 0.97784 0.0
H779 H 0.27949 0.56183 0.00143 0.0
C780 C 0.24673 0.54672 0.6209 0.0
C781 C 0.22201 0.52687 0.59854 0.0
C782 C 0.28298 0.54578 0.61472 0.0
C783 C 0.2948 0.5252 0.58481 0.0
C784 C 0.26992 0.50407 0.56297 0.0
C785 C 0.23387 0.50503 0.5702 0.0
C786 C 0.30802 0.56806 0.63968 0.0
C787 C 0.28135 0.48114 0.53127 0.0
C788 C 0.37999 0.54782 0.53481 0.0
C789 C 0.40123 0.52334 0.54663 0.0
C790 C 0.34605 0.55037 0.54901 0.0
C791 C 0.33274 0.527 0.57461 0.0
C792 C 0.35473 0.50305 0.58745 0.0
C793 C 0.38887 0.50161 0.57336 0.0
C794 C 0.32411 0.57754 0.53609 0.0
C795 C 0.34156 0.47773 0.61466 0.0
H796 H 0.23778 0.56335 0.64317 0.0
H797 H 0.21494 0.48944 0.55291 0.0
H798 H 0.33427 0.55804 0.64015 0.0
H799 H 0.31114 0.59523 0.63097 0.0
H800 H 0.29725 0.56947 0.66734 0.0
H801 H 0.25892 0.46457 0.51838 0.0
H802 H 0.29437 0.49788 0.51112 0.0
H803 H 0.30081 0.46371 0.53965 0.0
H804 H 0.38972 0.56447 0.51401 0.0
H805 H 0.40534 0.48235 0.582 0.0
H806 H 0.31293 0.59265 0.5592 0.0
H807 H 0.3018 0.56426 0.52015 0.0
H808 H 0.3396 0.59626 0.51935 0.0
H809 H 0.32993 0.49209 0.63799 0.0
H810 H 0.36278 0.46288 0.62412 0.0
H811 H 0.32051 0.45865 0.60271 0.0
C812 C 0.00928 0.79211 0.04502 0.0
C813 C 0.98872 0.79768 0.01575 0.0
C814 C 0.02017 0.75876 0.04971 0.0
C815 C 0.01121 0.73058 0.02382 0.0
C816 C 0.98988 0.736 0.99455 0.0
C817 C 0.97839 0.76931 0.99125 0.0
C818 C 0.04255 0.75469 0.08163 0.0
C819 C 0.98065 0.70709 0.96568 0.0
C820 C 0.07616 0.66217 0.00951 0.0
C821 C 0.05636 0.63136 0.01901 0.0
C822 C 0.06178 0.69448 0.01119 0.0
C823 C 0.02728 0.69674 0.02472 0.0
C824 C 0.00782 0.66621 0.03647 0.0
C825 C 0.0224 0.63373 0.03278 0.0
C826 C 0.08284 0.72566 0.99632 0.0
C827 C 0.97152 0.66737 0.05258 0.0
H828 H 0.01716 0.8139 0.06423 0.0
H829 H 0.96259 0.77353 0.96851 0.0
H830 H 0.04328 0.72685 0.08759 0.0
H831 H 0.06982 0.76602 0.07657 0.0
H832 H 0.03273 0.76964 0.10561 0.0
H833 H 0.96475 0.71592 0.94413 0.0
H834 H 0.00506 0.69763 0.95367 0.0
H835 H 0.96558 0.68439 0.97727 0.0
H836 H 0.10251 0.6607 0.99875 0.0
H837 H 0.00647 0.61 0.0387 0.0
H838 H 0.08913 0.74648 0.01797 0.0
H839 H 0.06722 0.73697 0.97609 0.0
H840 H 0.1079 0.71858 0.98365 0.0
H841 H 0.97422 0.67387 0.08166 0.0
H842 H 0.9558 0.64148 0.04847 0.0
H843 H 0.95674 0.6877 0.04179 0.0
C844 C 0.49865 0.72833 0.062 0.0
C845 C 0.49324 0.71802 0.09681 0.0
C846 C 0.494 0.76281 0.05387 0.0
C847 C 0.4859 0.78785 0.08168 0.0
C848 C 0.47721 0.7765 0.11609 0.0
C849 C 0.4805 0.74145 0.12309 0.0
C850 C 0.50068 0.77326 0.01627 0.0
C851 C 0.46845 0.8022 0.14659 0.0
C852 C 0.54067 0.87529 0.08653 0.0
C853 C 0.5155 0.89915 0.08352 0.0
C854 C 0.53141 0.83906 0.08429 0.0
C855 C 0.49599 0.82597 0.07783 0.0
C856 C 0.47084 0.84978 0.07155 0.0
C857 C 0.48077 0.88635 0.0752 0.0
C858 C 0.5594 0.81503 0.0912 0.0
C859 C 0.43325 0.83704 0.06255 0.0
H860 H 0.50782 0.70983 0.0415 0.0
H861 H 0.4761 0.73322 0.14993 0.0
H862 H 0.48077 0.79059 0.0087 0.0
H863 H 0.52687 0.78828 0.01455 0.0
H864 H 0.49999 0.74995 0.99674 0.0
H865 H 0.45854 0.7887 0.17044 0.0
H866 H 0.49239 0.81976 0.15424 0.0
H867 H 0.44835 0.81896 0.13837 0.0
H868 H 0.56767 0.88516 0.09246 0.0
H869 H 0.46121 0.90476 0.07284 0.0
H870 H 0.56195 0.79582 0.06796 0.0
H871 H 0.55189 0.79993 0.1147 0.0
H872 H 0.58557 0.82967 0.09631 0.0
H873 H 0.43116 0.81068 0.04789 0.0
H874 H 0.42141 0.85576 0.04615 0.0
H875 H 0.41763 0.8352 0.08758 0.0
C876 C 0.10291 0.30256 0.57144 0.0
C877 C 0.12306 0.31341 0.60194 0.0
C878 C 0.09045 0.26709 0.56416 0.0
C879 C 0.09845 0.24201 0.58787 0.0
C880 C 0.1217 0.2523 0.61658 0.0
C881 C 0.13358 0.28795 0.62341 0.0
C882 C 0.06631 0.25698 0.53288 0.0
C883 C 0.13155 0.22618 0.64198 0.0
C884 C 0.02634 0.17209 0.60925 0.0
C885 C 0.03879 0.1413 0.59331 0.0
C886 C 0.0453 0.2049 0.60698 0.0
C887 C 0.07716 0.2074 0.58728 0.0
C888 C 0.08901 0.1768 0.56932 0.0
C889 C 0.07008 0.14392 0.5733 0.0
C890 C 0.0318 0.23673 0.62699 0.0
C891 C 0.12232 0.17834 0.54723 0.0
H892 H 0.09504 0.32199 0.55438 0.0
H893 H 0.14975 0.29604 0.64658 0.0
H894 H 0.07305 0.23206 0.51859 0.0
H895 H 0.03883 0.25257 0.54271 0.0
H896 H 0.06751 0.2778 0.5137 0.0
H897 H 0.15374 0.23712 0.65948 0.0
H898 H 0.10854 0.21871 0.65912 0.0
H899 H 0.13894 0.20186 0.62703 0.0
H900 H 0.00214 0.1705 0.62473 0.0
H901 H 0.08053 0.12031 0.56185 0.0
H902 H 0.02862 0.25739 0.60842 0.0
H903 H 0.05111 0.24799 0.64752 0.0
H904 H 0.00618 0.23033 0.64049 0.0
H905 H 0.12577 0.20266 0.53273 0.0
H906 H 0.12249 0.15518 0.52757 0.0
H907 H 0.14519 0.17844 0.56507 0.0
C908 C 0.59242 0.25294 0.4731 0.0
C909 C 0.58175 0.22815 0.49766 0.0
C910 C 0.58619 0.28835 0.47971 0.0
C911 C 0.56852 0.29908 0.51147 0.0
C912 C 0.56008 0.27475 0.53756 0.0
C913 C 0.56685 0.2395 0.53037 0.0
C914 C 0.59634 0.31369 0.45155 0.0
C915 C 0.54196 0.28547 0.57209 0.0
C916 C 0.56113 0.39742 0.52672 0.0
C917 C 0.52752 0.40013 0.51342 0.0
C918 C 0.57412 0.36449 0.52868 0.0
C919 C 0.55392 0.3338 0.51455 0.0
C920 C 0.52005 0.33637 0.50085 0.0
C921 C 0.50706 0.36934 0.50109 0.0
C922 C 0.60995 0.36288 0.54448 0.0
C923 C 0.49796 0.30444 0.48461 0.0
H924 H 0.60463 0.24448 0.44809 0.0
H925 H 0.55893 0.22058 0.54971 0.0
H926 H 0.57226 0.32078 0.43878 0.0
H927 H 0.61024 0.33832 0.46378 0.0
H928 H 0.61352 0.30232 0.43048 0.0
H929 H 0.54158 0.26496 0.59155 0.0
H930 H 0.55517 0.31043 0.58443 0.0
H931 H 0.51441 0.29015 0.56658 0.0
H932 H 0.57797 0.42097 0.53402 0.0
H933 H 0.48113 0.37108 0.49042 0.0
H934 H 0.62964 0.36051 0.52266 0.0
H935 H 0.61038 0.33964 0.56039 0.0
H936 H 0.6181 0.38694 0.56186 0.0
H937 H 0.51203 0.29256 0.46137 0.0
H938 H 0.47199 0.31091 0.47549 0.0
H939 H 0.49358 0.28425 0.50431 0.0
loop_
_geom_bond_atom_site_label_1
_geom_bond_atom_site_label_2
_geom_bond_distance
_geom_bond_site_symmetry_2
_ccdc_geom_bond_type
O0 Cd1 2.300 . S
O0 C7 1.275 . S
Cd1 O0 2.300 . S
Cd1 O9 2.381 . S
Cd1 O10 2.378 . S
O2 Cd3 2.385 . S
O2 C7 1.255 . S
Cd3 O2 2.385 . S
Cd3 O4 2.317 . S
O4 Cd3 2.317 . S
O4 C5 1.232 . S
C5 O4 1.232 . S
C5 O6 1.218 . S
O6 C5 1.218 . S
C7 O0 1.275 . S
C7 O2 1.255 . S
C8 O9 1.258 . S
C8 O10 1.256 . S
O9 Cd1 2.381 . S
O9 C8 1.258 . S
O10 Cd1 2.378 . S
O10 C8 1.256 . S
O11 Cd12 2.300 . S
O11 C18 1.275 . S
Cd12 O11 2.300 . S
Cd12 O20 2.381 . S
Cd12 O21 2.378 . S
O13 Cd14 2.385 . S
O13 C18 1.255 . S
Cd14 O13 2.385 . S
Cd14 O15 2.317 . S
O15 Cd14 2.317 . S
O15 C16 1.232 . S
C16 O15 1.232 . S
C16 O17 1.218 . S
O17 C16 1.218 . S
C18 O11 1.275 . S
C18 O13 1.255 . S
C19 O20 1.258 . S
C19 O21 1.256 . S
O20 Cd12 2.381 . S
O20 C19 1.258 . S
O21 Cd12 2.378 . S
O21 C19 1.256 . S
O22 Cd23 2.300 . S
O22 C29 1.275 . S
Cd23 O22 2.300 . S
Cd23 O31 2.381 . S
Cd23 O32 2.378 . S
O24 Cd25 2.385 . S
O24 C29 1.255 . S
Cd25 O24 2.385 . S
Cd25 O26 2.317 . S
O26 Cd25 2.317 . S
O26 C27 1.232 . S
C27 O26 1.232 . S
C27 O28 1.218 . S
O28 C27 1.218 . S
C29 O22 1.275 . S
C29 O24 1.255 . S
C30 O31 1.258 . S
C30 O32 1.256 . S
O31 Cd23 2.381 . S
O31 C30 1.258 . S
O32 Cd23 2.378 . S
O32 C30 1.256 . S
O33 Cd34 2.300 . S
O33 C40 1.275 . S
Cd34 O33 2.300 . S
Cd34 O42 2.381 . S
Cd34 O43 2.378 . S
O35 Cd36 2.385 . S
O35 C40 1.255 . S
Cd36 O35 2.385 . S
Cd36 O37 2.317 . S
O37 Cd36 2.317 . S
O37 C38 1.232 . S
C38 O37 1.232 . S
C38 O39 1.218 . S
O39 C38 1.218 . S
C40 O33 1.275 . S
C40 O35 1.255 . S
C41 O42 1.258 . S
C41 O43 1.256 . S
O42 Cd34 2.381 . S
O42 C41 1.258 . S
O43 Cd34 2.378 . S
O43 C41 1.256 . S
O44 Cd45 2.300 . S
O44 C51 1.275 . S
Cd45 O44 2.300 . S
Cd45 O53 2.381 . S
Cd45 O54 2.378 1_556 S
O46 Cd47 2.385 1_566 S
O46 C51 1.255 . S
Cd47 O46 2.385 1_544 S
Cd47 O48 2.317 1_545 S
O48 Cd47 2.317 1_565 S
O48 C49 1.232 . S
C49 O48 1.232 . S
C49 O50 1.228 1_565 S
O50 C49 1.228 1_545 S
C51 O44 1.275 . S
C51 O46 1.255 . S
C52 O53 1.258 1_554 S
C52 O54 1.256 . S
O53 Cd45 2.381 . S
O53 C52 1.258 1_556 S
O54 Cd45 2.378 1_554 S
O54 C52 1.256 . S
O55 Cd56 2.300 . S
O55 C62 1.275 . S
Cd56 O55 2.300 . S
Cd56 O64 2.381 . S
Cd56 O65 2.378 . S
O57 Cd58 2.385 . S
O57 C62 1.255 . S
Cd58 O57 2.385 . S
Cd58 O59 2.317 . S
O59 Cd58 2.317 . S
O59 C60 1.232 . S
C60 O59 1.232 . S
C60 O61 1.218 . S
O61 C60 1.218 . S
C62 O55 1.275 . S
C62 O57 1.255 . S
C63 O64 1.258 . S
C63 O65 1.256 . S
O64 Cd56 2.381 . S
O64 C63 1.258 . S
O65 Cd56 2.378 . S
O65 C63 1.256 . S
O66 Cd67 2.300 . S
O66 C73 1.275 . S
Cd67 O66 2.300 . S
Cd67 O75 2.381 . S
Cd67 O76 2.378 . S
O68 Cd69 2.385 . S
O68 C73 1.255 . S
Cd69 O68 2.385 . S
Cd69 O70 2.317 . S
O70 Cd69 2.317 . S
O70 C71 1.232 . S
C71 O70 1.232 . S
C71 O72 1.218 . S
O72 C71 1.218 . S
C73 O66 1.275 . S
C73 O68 1.255 . S
C74 O75 1.258 . S
C74 O76 1.256 . S
O75 Cd67 2.381 . S
O75 C74 1.258 . S
O76 Cd67 2.378 . S
O76 C74 1.256 . S
O77 Cd78 2.300 . S
O77 C84 1.275 . S
Cd78 O77 2.300 . S
Cd78 O86 2.381 . S
Cd78 O87 2.378 . S
O79 Cd80 2.385 . S
O79 C84 1.255 . S
Cd80 O79 2.385 . S
Cd80 O81 2.317 . S
O81 Cd80 2.317 . S
O81 C82 1.232 . S
C82 O81 1.232 . S
C82 O83 1.218 . S
O83 C82 1.218 . S
C84 O77 1.275 . S
C84 O79 1.255 . S
C85 O86 1.258 . S
C85 O87 1.256 . S
O86 Cd78 2.381 . S
O86 C85 1.258 . S
O87 Cd78 2.378 . S
O87 C85 1.256 . S
Zn88 O94 1.920 . S
Zn88 O100 1.898 . S
Zn88 O103 1.905 . S
Zn89 O97 1.905 1_565 S
Zn89 O98 1.898 . S
Zn89 O106 1.920 . S
Zn90 O93 2.080 1_455 S
Zn90 O96 2.114 . S
Zn90 O99 2.120 1_445 S
Zn90 O101 2.120 . S
Zn90 O102 2.114 1_455 S
Zn90 O105 2.080 . S
C91 O96 1.166 . S
C91 O97 1.182 . S
C92 O98 1.167 1_655 S
C92 O99 1.299 . S
O93 Zn90 2.080 1_655 S
O93 C107 1.305 . S
O94 Zn88 1.920 . S
O94 C107 1.234 . S
C95 O100 1.167 1_455 S
C95 O101 1.299 . S
O96 Zn90 2.114 . S
O96 C91 1.166 . S
O97 Zn89 1.905 1_545 S
O97 C91 1.182 . S
O98 Zn89 1.898 . S
O98 C92 1.167 1_455 S
O99 Zn90 2.120 1_665 S
O99 C92 1.299 . S
O100 Zn88 1.898 . S
O100 C95 1.167 1_655 S
O101 Zn90 2.120 . S
O101 C95 1.299 . S
O102 Zn90 2.114 1_655 S
O102 C104 1.166 . S
O103 Zn88 1.905 . S
O103 C104 1.182 . S
C104 O102 1.166 . S
C104 O103 1.182 . S
O105 Zn90 2.080 . S
O105 C108 1.305 1_545 S
O106 Zn89 1.920 . S
O106 C108 1.234 . S
C107 O93 1.305 . S
C107 O94 1.234 . S
C108 O105 1.305 1_565 S
C108 O106 1.234 . S
Zn109 O115 1.920 . S
Zn109 O121 1.898 . S
Zn109 O124 1.905 . S
Zn110 O118 1.905 . S
Zn110 O119 1.898 . S
Zn110 O127 1.920 . S
Zn111 O114 2.080 . S
Zn111 O117 2.114 1_545 S
Zn111 O120 2.120 1_545 S
Zn111 O122 2.120 . S
Zn111 O123 2.111 1_545 S
Zn111 O126 2.080 . S
C112 O117 1.166 . S
C112 O118 1.182 . S
C113 O119 1.167 . S
C113 O120 1.299 . S
O114 Zn111 2.080 . S
O114 C128 1.305 . S
O115 Zn109 1.920 . S
O115 C128 1.234 . S
C116 O121 1.167 . S
C116 O122 1.299 . S
O117 Zn111 2.114 1_565 S
O117 C112 1.166 . S
O118 Zn110 1.905 . S
O118 C112 1.182 . S
O119 Zn110 1.898 . S
O119 C113 1.167 . S
O120 Zn111 2.120 1_565 S
O120 C113 1.299 . S
O121 Zn109 1.898 . S
O121 C116 1.167 . S
O122 Zn111 2.120 . S
O122 C116 1.299 . S
O123 Zn111 2.111 1_565 S
O123 C125 1.165 . S
O124 Zn109 1.905 . S
O124 C125 1.182 1_545 S
C125 O123 1.165 . S
C125 O124 1.182 1_565 S
O126 Zn111 2.080 . S
O126 C129 1.305 . S
O127 Zn110 1.920 . S
O127 C129 1.234 1_565 S
C128 O114 1.305 . S
C128 O115 1.234 . S
C129 O126 1.305 . S
C129 O127 1.234 1_545 S
Zn130 O136 1.920 . S
Zn130 O142 1.898 . S
Zn130 O145 1.905 . S
Zn131 O139 1.905 . S
Zn131 O140 1.898 . S
Zn131 O148 1.920 . S
Zn132 O135 2.080 . S
Zn132 O138 2.114 . S
Zn132 O141 2.120 . S
Zn132 O143 2.120 . S
Zn132 O144 2.114 . S
Zn132 O147 2.080 . S
C133 O138 1.166 . S
C133 O139 1.182 . S
C134 O140 1.167 . S
C134 O141 1.299 . S
O135 Zn132 2.080 . S
O135 C149 1.305 . S
O136 Zn130 1.920 . S
O136 C149 1.234 . S
C137 O142 1.167 . S
C137 O143 1.299 . S
O138 Zn132 2.114 . S
O138 C133 1.166 . S
O139 Zn131 1.905 . S
O139 C133 1.182 . S
O140 Zn131 1.898 . S
O140 C134 1.167 . S
O141 Zn132 2.120 . S
O141 C134 1.299 . S
O142 Zn130 1.898 . S
O142 C137 1.167 . S
O143 Zn132 2.120 . S
O143 C137 1.299 . S
O144 Zn132 2.114 . S
O144 C146 1.166 . S
O145 Zn130 1.905 . S
O145 C146 1.182 . S
C146 O144 1.166 . S
C146 O145 1.182 . S
O147 Zn132 2.080 . S
O147 C150 1.305 . S
O148 Zn131 1.920 . S
O148 C150 1.234 . S
C149 O135 1.305 . S
C149 O136 1.234 . S
C150 O147 1.305 . S
C150 O148 1.234 . S
Zn151 O157 1.920 . S
Zn151 O163 1.898 . S
Zn151 O166 1.905 . S
Zn152 O160 1.905 1_655 S
Zn152 O161 1.898 . S
Zn152 O169 1.920 . S
Zn153 O156 2.080 1_554 S
Zn153 O159 2.114 . S
Zn153 O162 2.120 1_554 S
Zn153 O164 2.120 . S
Zn153 O165 2.114 1_554 S
Zn153 O168 2.080 . S
C154 O159 1.166 . S
C154 O160 1.182 . S
C155 O161 1.167 1_556 S
C155 O162 1.299 1_655 S
O156 Zn153 2.080 1_556 S
O156 C170 1.305 . S
O157 Zn151 1.920 . S
O157 C170 1.234 . S
C158 O163 1.167 1_554 S
C158 O164 1.299 . S
O159 Zn153 2.114 . S
O159 C154 1.166 . S
O160 Zn152 1.905 1_455 S
O160 C154 1.182 . S
O161 Zn152 1.898 . S
O161 C155 1.167 1_554 S
O162 Zn153 2.120 1_556 S
O162 C155 1.299 1_455 S
O163 Zn151 1.898 . S
O163 C158 1.167 1_556 S
O164 Zn153 2.120 . S
O164 C158 1.299 . S
O165 Zn153 2.114 1_556 S
O165 C167 1.166 . S
O166 Zn151 1.905 . S
O166 C167 1.182 . S
C167 O165 1.166 . S
C167 O166 1.182 . S
O168 Zn153 2.080 . S
O168 C171 1.305 . S
O169 Zn152 1.920 . S
O169 C171 1.234 1_655 S
C170 O156 1.305 . S
C170 O157 1.234 . S
C171 O168 1.305 . S
C171 O169 1.234 1_455 S
C172 C173 1.391 . S
C172 C174 1.394 . S
C172 H188 0.931 . S
C173 C172 1.391 . S
C173 C177 1.376 . S
C174 C172 1.394 . S
C174 C175 1.369 . S
C174 C178 1.531 . S
C175 C174 1.369 . S
C175 C176 1.410 . S
C175 C183 1.503 . S
C176 C175 1.410 . S
C176 C177 1.392 . S
C176 C179 1.511 . S
C177 C173 1.376 . S
C177 C176 1.392 . S
C177 H189 0.929 . S
C178 C174 1.531 . S
C178 H190 0.960 . S
C178 H191 0.962 . S
C178 H192 0.960 . S
C179 C176 1.511 . S
C179 H193 0.961 . S
C179 H194 0.961 . S
C179 H195 0.961 . S
C180 C181 1.370 . S
C180 C182 1.363 . S
C180 H196 0.931 . S
C181 C180 1.370 . S
C181 C185 1.408 . S
C182 C180 1.363 . S
C182 C183 1.370 . S
C182 C186 1.524 . S
C183 C175 1.503 . S
C183 C182 1.370 . S
C183 C184 1.403 . S
C184 C183 1.403 . S
C184 C185 1.404 . S
C184 C187 1.539 . S
C185 C181 1.408 . S
C185 C184 1.404 . S
C185 H197 0.930 . S
C186 C182 1.524 . S
C186 H198 0.956 . S
C186 H199 0.961 . S
C186 H200 0.961 . S
C187 C184 1.539 . S
C187 H201 0.958 . S
C187 H202 0.961 . S
C187 H203 0.960 . S
H188 C172 0.931 . S
H189 C177 0.929 . S
H190 C178 0.960 . S
H191 C178 0.962 . S
H192 C178 0.960 . S
H193 C179 0.961 . S
H194 C179 0.961 . S
H195 C179 0.961 . S
H196 C180 0.931 . S
H197 C185 0.930 . S
H198 C186 0.956 . S
H199 C186 0.961 . S
H200 C186 0.961 . S
H201 C187 0.958 . S
H202 C187 0.961 . S
H203 C187 0.960 . S
C204 C205 1.391 . S
C204 C206 1.394 . S
C204 H220 0.931 . S
C205 C204 1.391 . S
C205 C209 1.376 . S
C206 C204 1.394 . S
C206 C207 1.369 . S
C206 C210 1.531 . S
C207 C206 1.369 . S
C207 C208 1.410 . S
C207 C215 1.503 . S
C208 C207 1.410 . S
C208 C209 1.392 . S
C208 C211 1.511 . S
C209 C205 1.376 . S
C209 C208 1.392 . S
C209 H221 0.929 . S
C210 C206 1.531 . S
C210 H222 0.960 . S
C210 H223 0.962 . S
C210 H224 0.960 . S
C211 C208 1.511 . S
C211 H225 0.961 . S
C211 H226 0.961 . S
C211 H227 0.961 . S
C212 C213 1.370 . S
C212 C214 1.363 . S
C212 H228 0.931 1_565 S
C213 C212 1.370 . S
C213 C217 1.408 . S
C214 C212 1.363 . S
C214 C215 1.370 . S
C214 C218 1.524 . S
C215 C207 1.503 . S
C215 C214 1.370 . S
C215 C216 1.403 . S
C216 C215 1.403 . S
C216 C217 1.404 . S
C216 C219 1.539 . S
C217 C213 1.408 . S
C217 C216 1.404 . S
C217 H229 0.930 . S
C218 C214 1.524 . S
C218 H230 0.956 . S
C218 H231 0.961 . S
C218 H232 0.961 1_565 S
C219 C216 1.539 . S
C219 H233 0.958 . S
C219 H234 0.961 . S
C219 H235 0.960 . S
H220 C204 0.931 . S
H221 C209 0.929 . S
H222 C210 0.960 . S
H223 C210 0.962 . S
H224 C210 0.960 . S
H225 C211 0.961 . S
H226 C211 0.961 . S
H227 C211 0.961 . S
H228 C212 0.931 1_545 S
H229 C217 0.930 . S
H230 C218 0.956 . S
H231 C218 0.961 . S
H232 C218 0.961 1_545 S
H233 C219 0.958 . S
H234 C219 0.961 . S
H235 C219 0.960 . S
C236 C237 1.391 . S
C236 C238 1.394 . S
C236 H252 0.931 . S
C237 C236 1.391 . S
C237 C241 1.376 . S
C238 C236 1.394 . S
C238 C239 1.369 . S
C238 C242 1.531 . S
C239 C238 1.369 . S
C239 C240 1.410 . S
C239 C247 1.503 . S
C240 C239 1.410 . S
C240 C241 1.392 . S
C240 C243 1.511 . S
C241 C237 1.376 . S
C241 C240 1.392 . S
C241 H253 0.929 . S
C242 C238 1.531 . S
C242 H254 0.960 . S
C242 H255 0.962 . S
C242 H256 0.960 . S
C243 C240 1.511 . S
C243 H257 0.961 . S
C243 H258 0.961 . S
C243 H259 0.961 . S
C244 C245 1.370 . S
C244 C246 1.363 . S
C244 H260 0.931 . S
C245 C244 1.370 . S
C245 C249 1.408 . S
C246 C244 1.363 . S
C246 C247 1.370 . S
C246 C250 1.524 . S
C247 C239 1.503 . S
C247 C246 1.370 . S
C247 C248 1.403 . S
C248 C247 1.403 . S
C248 C249 1.404 . S
C248 C251 1.539 . S
C249 C245 1.408 . S
C249 C248 1.404 . S
C249 H261 0.930 . S
C250 C246 1.524 . S
C250 H262 0.956 . S
C250 H263 0.961 . S
C250 H264 0.961 . S
C251 C248 1.539 . S
C251 H265 0.958 . S
C251 H266 0.961 . S
C251 H267 0.960 . S
H252 C236 0.931 . S
H253 C241 0.929 . S
H254 C242 0.960 . S
H255 C242 0.962 . S
H256 C242 0.960 . S
H257 C243 0.961 . S
H258 C243 0.961 . S
H259 C243 0.961 . S
H260 C244 0.931 . S
H261 C249 0.930 . S
H262 C250 0.956 . S
H263 C250 0.961 . S
H264 C250 0.961 . S
H265 C251 0.958 . S
H266 C251 0.961 . S
H267 C251 0.960 . S
C268 C269 1.391 . S
C268 C270 1.394 . S
C268 H284 0.931 . S
C269 C268 1.391 . S
C269 C273 1.376 . S
C270 C268 1.394 . S
C270 C271 1.369 . S
C270 C274 1.531 1_655 S
C271 C270 1.369 . S
C271 C272 1.410 . S
C271 C279 1.503 . S
C272 C271 1.410 . S
C272 C273 1.392 . S
C272 C275 1.511 . S
C273 C269 1.376 . S
C273 C272 1.392 . S
C273 H285 0.929 . S
C274 C270 1.531 1_455 S
C274 H286 0.960 . S
C274 H287 0.962 . S
C274 H288 0.960 . S
C275 C272 1.511 . S
C275 H289 0.961 . S
C275 H290 0.961 . S
C275 H291 0.961 . S
C276 C277 1.370 1_655 S
C276 C278 1.363 . S
C276 H292 0.931 . S
C277 C276 1.370 1_455 S
C277 C281 1.408 . S
C278 C276 1.363 . S
C278 C279 1.370 . S
C278 C282 1.524 . S
C279 C271 1.503 . S
C279 C278 1.370 . S
C279 C280 1.403 1_655 S
C280 C279 1.403 1_455 S
C280 C281 1.404 . S
C280 C283 1.539 . S
C281 C277 1.408 . S
C281 C280 1.404 . S
C281 H293 0.930 . S
C282 C278 1.524 . S
C282 H294 0.956 . S
C282 H295 0.961 . S
C282 H296 0.961 . S
C283 C280 1.539 . S
C283 H297 0.958 . S
C283 H298 0.961 . S
C283 H299 0.960 . S
H284 C268 0.931 . S
H285 C273 0.929 . S
H286 C274 0.960 . S
H287 C274 0.962 . S
H288 C274 0.960 . S
H289 C275 0.961 . S
H290 C275 0.961 . S
H291 C275 0.961 . S
H292 C276 0.931 . S
H293 C281 0.930 . S
H294 C282 0.956 . S
H295 C282 0.961 . S
H296 C282 0.961 . S
H297 C283 0.958 . S
H298 C283 0.961 . S
H299 C283 0.960 . S
C300 C301 1.391 . S
C300 C302 1.394 . S
C300 H316 0.931 . S
C301 C300 1.391 . S
C301 C305 1.376 . S
C302 C300 1.394 . S
C302 C303 1.369 . S
C302 C306 1.531 . S
C303 C302 1.369 . S
C303 C304 1.410 . S
C303 C311 1.503 . S
C304 C303 1.410 . S
C304 C305 1.392 . S
C304 C307 1.511 . S
C305 C301 1.376 . S
C305 C304 1.392 . S
C305 H317 0.929 . S
C306 C302 1.531 . S
C306 H318 0.960 . S
C306 H319 0.962 . S
C306 H320 0.960 . S
C307 C304 1.511 . S
C307 H321 0.961 . S
C307 H322 0.961 . S
C307 H323 0.961 . S
C308 C309 1.370 . S
C308 C310 1.363 . S
C308 H324 0.931 . S
C309 C308 1.370 . S
C309 C313 1.408 . S
C310 C308 1.363 . S
C310 C311 1.370 . S
C310 C314 1.524 . S
C311 C303 1.503 . S
C311 C310 1.370 . S
C311 C312 1.403 . S
C312 C311 1.403 . S
C312 C313 1.404 . S
C312 C315 1.539 . S
C313 C309 1.408 . S
C313 C312 1.404 . S
C313 H325 0.930 . S
C314 C310 1.524 . S
C314 H326 0.956 . S
C314 H327 0.961 . S
C314 H328 0.961 . S
C315 C312 1.539 . S
C315 H329 0.958 . S
C315 H330 0.961 . S
C315 H331 0.960 . S
H316 C300 0.931 . S
H317 C305 0.929 . S
H318 C306 0.960 . S
H319 C306 0.962 . S
H320 C306 0.960 . S
H321 C307 0.961 . S
H322 C307 0.961 . S
H323 C307 0.961 . S
H324 C308 0.931 . S
H325 C313 0.930 . S
H326 C314 0.956 . S
H327 C314 0.961 . S
H328 C314 0.961 . S
H329 C315 0.958 . S
H330 C315 0.961 . S
H331 C315 0.960 . S
C332 C333 1.391 . S
C332 C334 1.394 . S
C332 H348 0.931 . S
C333 C332 1.391 . S
C333 C337 1.376 . S
C334 C332 1.394 . S
C334 C335 1.369 . S
C334 C338 1.531 . S
C335 C334 1.369 . S
C335 C336 1.410 . S
C335 C343 1.503 . S
C336 C335 1.410 . S
C336 C337 1.392 . S
C336 C339 1.511 . S
C337 C333 1.376 . S
C337 C336 1.392 . S
C337 H349 0.929 . S
C338 C334 1.531 . S
C338 H350 0.960 . S
C338 H351 0.962 . S
C338 H352 0.960 . S
C339 C336 1.511 . S
C339 H353 0.961 . S
C339 H354 0.961 . S
C339 H355 0.961 . S
C340 C341 1.370 . S
C340 C342 1.363 . S
C340 H356 0.931 . S
C341 C340 1.370 . S
C341 C345 1.408 . S
C342 C340 1.363 . S
C342 C343 1.370 . S
C342 C346 1.524 . S
C343 C335 1.503 . S
C343 C342 1.370 . S
C343 C344 1.403 . S
C344 C343 1.403 . S
C344 C345 1.404 . S
C344 C347 1.539 1_565 S
C345 C341 1.408 . S
C345 C344 1.404 . S
C345 H357 0.930 1_565 S
C346 C342 1.524 . S
C346 H358 0.956 . S
C346 H359 0.961 . S
C346 H360 0.961 . S
C347 C344 1.539 1_545 S
C347 H361 0.958 . S
C347 H362 0.961 . S
C347 H363 0.960 . S
H348 C332 0.931 . S
H349 C337 0.929 . S
H350 C338 0.960 . S
H351 C338 0.962 . S
H352 C338 0.960 . S
H353 C339 0.961 . S
H354 C339 0.961 . S
H355 C339 0.961 . S
H356 C340 0.931 . S
H357 C345 0.930 1_545 S
H358 C346 0.956 . S
H359 C346 0.961 . S
H360 C346 0.961 . S
H361 C347 0.958 . S
H362 C347 0.961 . S
H363 C347 0.960 . S
C364 C365 1.391 . S
C364 C366 1.394 . S
C364 H380 0.931 . S
C365 C364 1.391 . S
C365 C369 1.376 . S
C366 C364 1.394 . S
C366 C367 1.369 . S
C366 C370 1.531 . S
C367 C366 1.369 . S
C367 C368 1.410 . S
C367 C375 1.503 . S
C368 C367 1.410 . S
C368 C369 1.392 . S
C368 C371 1.511 . S
C369 C365 1.376 . S
C369 C368 1.392 . S
C369 H381 0.929 . S
C370 C366 1.531 . S
C370 H382 0.960 . S
C370 H383 0.962 . S
C370 H384 0.960 . S
C371 C368 1.511 . S
C371 H385 0.961 . S
C371 H386 0.961 . S
C371 H387 0.961 . S
C372 C373 1.370 . S
C372 C374 1.363 . S
C372 H388 0.931 1_556 S
C373 C372 1.370 . S
C373 C377 1.408 . S
C374 C372 1.363 . S
C374 C375 1.370 . S
C374 C378 1.511 1_556 S
C375 C367 1.503 . S
C375 C374 1.370 . S
C375 C376 1.403 . S
C376 C375 1.403 . S
C376 C377 1.404 . S
C376 C379 1.539 . S
C377 C373 1.408 . S
C377 C376 1.404 . S
C377 H389 0.930 . S
C378 C374 1.511 1_554 S
C378 H390 0.961 . S
C378 H391 0.950 1_554 S
C378 H392 0.981 . S
C379 C376 1.539 . S
C379 H393 0.958 . S
C379 H394 0.961 . S
C379 H395 0.960 . S
H380 C364 0.931 . S
H381 C369 0.929 . S
H382 C370 0.960 . S
H383 C370 0.962 . S
H384 C370 0.960 . S
H385 C371 0.961 . S
H386 C371 0.961 . S
H387 C371 0.961 . S
H388 C372 0.931 1_554 S
H389 C377 0.930 . S
H390 C378 0.961 . S
H391 C378 0.950 1_556 S
H392 C378 0.981 . S
H393 C379 0.958 . S
H394 C379 0.961 . S
H395 C379 0.960 . S
C396 C397 1.391 . S
C396 C398 1.394 . S
C396 H412 0.931 . S
C397 C396 1.391 . S
C397 C401 1.376 . S
C398 C396 1.394 . S
C398 C399 1.369 . S
C398 C402 1.531 . S
C399 C398 1.369 . S
C399 C400 1.410 . S
C399 C407 1.503 . S
C400 C399 1.410 . S
C400 C401 1.392 . S
C400 C403 1.511 . S
C401 C397 1.376 . S
C401 C400 1.392 . S
C401 H413 0.929 . S
C402 C398 1.531 . S
C402 H414 0.960 . S
C402 H415 0.962 . S
C402 H416 0.960 . S
C403 C400 1.511 . S
C403 H417 0.961 . S
C403 H418 0.961 . S
C403 H419 0.961 . S
C404 C405 1.370 . S
C404 C406 1.363 . S
C404 H420 0.931 . S
C405 C404 1.370 . S
C405 C409 1.408 . S
C406 C404 1.363 . S
C406 C407 1.370 . S
C406 C410 1.524 . S
C407 C399 1.503 . S
C407 C406 1.370 . S
C407 C408 1.403 . S
C408 C407 1.403 . S
C408 C409 1.404 . S
C408 C411 1.539 . S
C409 C405 1.408 . S
C409 C408 1.404 . S
C409 H421 0.930 . S
C410 C406 1.524 . S
C410 H422 0.956 . S
C410 H423 0.961 . S
C410 H424 0.961 . S
C411 C408 1.539 . S
C411 H425 0.958 . S
C411 H426 0.961 . S
C411 H427 0.960 . S
H412 C396 0.931 . S
H413 C401 0.929 . S
H414 C402 0.960 . S
H415 C402 0.962 . S
H416 C402 0.960 . S
H417 C403 0.961 . S
H418 C403 0.961 . S
H419 C403 0.961 . S
H420 C404 0.931 . S
H421 C409 0.930 . S
H422 C410 0.956 . S
H423 C410 0.961 . S
H424 C410 0.961 . S
H425 C411 0.958 . S
H426 C411 0.961 . S
H427 C411 0.960 . S
C428 C429 1.391 . S
C428 C430 1.394 . S
C428 H444 0.931 . S
C429 C428 1.391 . S
C429 C433 1.376 . S
C430 C428 1.394 . S
C430 C431 1.369 . S
C430 C434 1.531 . S
C431 C430 1.369 . S
C431 C432 1.410 . S
C431 C439 1.503 . S
C432 C431 1.410 . S
C432 C433 1.392 . S
C432 C435 1.511 . S
C433 C429 1.376 . S
C433 C432 1.392 . S
C433 H445 0.929 . S
C434 C430 1.531 . S
C434 H446 0.960 . S
C434 H447 0.962 . S
C434 H448 0.960 . S
C435 C432 1.511 . S
C435 H449 0.961 . S
C435 H450 0.961 . S
C435 H451 0.961 . S
C436 C437 1.370 . S
C436 C438 1.363 . S
C436 H452 0.931 . S
C437 C436 1.370 . S
C437 C441 1.408 . S
C438 C436 1.363 . S
C438 C439 1.370 . S
C438 C442 1.524 . S
C439 C431 1.503 . S
C439 C438 1.370 . S
C439 C440 1.403 . S
C440 C439 1.403 . S
C440 C441 1.404 . S
C440 C443 1.539 . S
C441 C437 1.408 . S
C441 C440 1.404 . S
C441 H453 0.930 . S
C442 C438 1.524 . S
C442 H454 0.956 . S
C442 H455 0.961 . S
C442 H456 0.961 . S
C443 C440 1.539 . S
C443 H457 0.958 . S
C443 H458 0.961 . S
C443 H459 0.960 . S
H444 C428 0.931 . S
H445 C433 0.929 . S
H446 C434 0.960 . S
H447 C434 0.962 . S
H448 C434 0.960 . S
H449 C435 0.961 . S
H450 C435 0.961 . S
H451 C435 0.961 . S
H452 C436 0.931 . S
H453 C441 0.930 . S
H454 C442 0.956 . S
H455 C442 0.961 . S
H456 C442 0.961 . S
H457 C443 0.958 . S
H458 C443 0.961 . S
H459 C443 0.960 . S
C460 C461 1.391 . S
C460 C462 1.394 . S
C460 H476 0.931 . S
C461 C460 1.391 . S
C461 C465 1.376 . S
C462 C460 1.394 . S
C462 C463 1.369 . S
C462 C466 1.531 1_556 S
C463 C462 1.369 . S
C463 C464 1.410 . S
C463 C471 1.503 . S
C464 C463 1.410 . S
C464 C465 1.392 . S
C464 C467 1.511 . S
C465 C461 1.376 . S
C465 C464 1.392 . S
C465 H477 0.929 . S
C466 C462 1.531 1_554 S
C466 H478 0.960 . S
C466 H479 0.962 . S
C466 H480 0.960 . S
C467 C464 1.511 . S
C467 H481 0.961 . S
C467 H482 0.961 . S
C467 H483 0.961 . S
C468 C469 1.370 . S
C468 C470 1.363 . S
C468 H484 0.931 . S
C469 C468 1.370 . S
C469 C473 1.408 . S
C470 C468 1.363 . S
C470 C471 1.370 1_554 S
C470 C474 1.524 . S
C471 C463 1.503 . S
C471 C470 1.370 1_556 S
C471 C472 1.403 . S
C472 C471 1.403 . S
C472 C473 1.404 1_556 S
C472 C475 1.539 . S
C473 C469 1.408 . S
C473 C472 1.404 1_554 S
C473 H485 0.930 . S
C474 C470 1.524 . S
C474 H486 0.956 . S
C474 H487 0.961 1_554 S
C474 H488 0.961 . S
C475 C472 1.539 . S
C475 H489 0.958 . S
C475 H490 0.961 . S
C475 H491 0.960 . S
H476 C460 0.931 . S
H477 C465 0.929 . S
H478 C466 0.960 . S
H479 C466 0.962 . S
H480 C466 0.960 . S
H481 C467 0.961 . S
H482 C467 0.961 . S
H483 C467 0.961 . S
H484 C468 0.931 . S
H485 C473 0.930 . S
H486 C474 0.956 . S
H487 C474 0.961 1_556 S
H488 C474 0.961 . S
H489 C475 0.958 . S
H490 C475 0.961 . S
H491 C475 0.960 . S
C492 C493 1.391 . S
C492 C494 1.394 . S
C492 H508 0.931 . S
C493 C492 1.391 . S
C493 C497 1.376 . S
C494 C492 1.394 . S
C494 C495 1.369 . S
C494 C498 1.531 . S
C495 C494 1.369 . S
C495 C496 1.410 . S
C495 C503 1.503 . S
C496 C495 1.410 . S
C496 C497 1.392 . S
C496 C499 1.511 . S
C497 C493 1.376 . S
C497 C496 1.392 . S
C497 H509 0.929 . S
C498 C494 1.531 . S
C498 H510 0.960 . S
C498 H511 0.962 1_655 S
C498 H512 0.960 . S
C499 C496 1.511 . S
C499 H513 0.961 . S
C499 H514 0.961 . S
C499 H515 0.961 . S
C500 C501 1.370 . S
C500 C502 1.363 . S
C500 H516 0.931 . S
C501 C500 1.370 . S
C501 C505 1.408 . S
C502 C500 1.363 . S
C502 C503 1.370 . S
C502 C506 1.524 . S
C503 C495 1.503 . S
C503 C502 1.370 . S
C503 C504 1.403 . S
C504 C503 1.403 . S
C504 C505 1.404 . S
C504 C507 1.539 . S
C505 C501 1.408 . S
C505 C504 1.404 . S
C505 H517 0.930 . S
C506 C502 1.524 . S
C506 H518 0.956 . S
C506 H519 0.961 . S
C506 H520 0.961 . S
C507 C504 1.539 . S
C507 H521 0.958 . S
C507 H522 0.961 . S
C507 H523 0.960 . S
H508 C492 0.931 . S
H509 C497 0.929 . S
H510 C498 0.960 . S
H511 C498 0.962 1_455 S
H512 C498 0.960 . S
H513 C499 0.961 . S
H514 C499 0.961 . S
H515 C499 0.961 . S
H516 C500 0.931 . S
H517 C505 0.930 . S
H518 C506 0.956 . S
H519 C506 0.961 . S
H520 C506 0.961 . S
H521 C507 0.958 . S
H522 C507 0.961 . S
H523 C507 0.960 . S
C524 C525 1.391 . S
C524 C526 1.394 . S
C524 H540 0.931 . S
C525 C524 1.391 . S
C525 C529 1.376 . S
C526 C524 1.394 . S
C526 C527 1.369 . S
C526 C530 1.531 . S
C527 C526 1.369 . S
C527 C528 1.410 . S
C527 C535 1.503 . S
C528 C527 1.410 . S
C528 C529 1.392 . S
C528 C531 1.511 . S
C529 C525 1.376 . S
C529 C528 1.392 . S
C529 H541 0.929 . S
C530 C526 1.531 . S
C530 H542 0.960 . S
C530 H543 0.962 . S
C530 H544 0.960 . S
C531 C528 1.511 . S
C531 H545 0.961 . S
C531 H546 0.961 . S
C531 H547 0.961 . S
C532 C533 1.370 . S
C532 C534 1.363 . S
C532 H548 0.931 . S
C533 C532 1.370 . S
C533 C537 1.408 . S
C534 C532 1.363 . S
C534 C535 1.370 . S
C534 C538 1.524 . S
C535 C527 1.503 . S
C535 C534 1.370 . S
C535 C536 1.403 . S
C536 C535 1.403 . S
C536 C537 1.404 . S
C536 C539 1.539 . S
C537 C533 1.408 . S
C537 C536 1.404 . S
C537 H549 0.930 . S
C538 C534 1.524 . S
C538 H550 0.956 . S
C538 H551 0.961 . S
C538 H552 0.961 . S
C539 C536 1.539 . S
C539 H553 0.958 . S
C539 H554 0.961 . S
C539 H555 0.960 . S
H540 C524 0.931 . S
H541 C529 0.929 . S
H542 C530 0.960 . S
H543 C530 0.962 . S
H544 C530 0.960 . S
H545 C531 0.961 . S
H546 C531 0.961 . S
H547 C531 0.961 . S
H548 C532 0.931 . S
H549 C537 0.930 . S
H550 C538 0.956 . S
H551 C538 0.961 . S
H552 C538 0.961 . S
H553 C539 0.958 . S
H554 C539 0.961 . S
H555 C539 0.960 . S
C556 C557 1.391 . S
C556 C558 1.394 . S
C556 H572 0.931 . S
C557 C556 1.391 . S
C557 C561 1.376 . S
C558 C556 1.394 . S
C558 C559 1.369 . S
C558 C562 1.531 . S
C559 C558 1.369 . S
C559 C560 1.410 1_655 S
C559 C567 1.503 . S
C560 C559 1.410 1_455 S
C560 C561 1.392 1_455 S
C560 C563 1.511 1_565 S
C561 C557 1.376 . S
C561 C560 1.392 1_655 S
C561 H573 0.929 1_655 S
C562 C558 1.531 . S
C562 H574 0.960 . S
C562 H575 0.962 . S
C562 H576 0.960 . S
C563 C560 1.511 1_545 S
C563 H577 0.961 1_545 S
C563 H578 0.961 1_545 S
C563 H579 0.961 . S
C564 C565 1.380 . S
C564 C566 1.363 . S
C564 H580 0.931 . S
C565 C564 1.380 . S
C565 C569 1.400 1_565 S
C566 C564 1.363 . S
C566 C567 1.370 . S
C566 C570 1.524 . S
C567 C559 1.503 . S
C567 C566 1.370 . S
C567 C568 1.403 1_565 S
C568 C567 1.403 1_545 S
C568 C569 1.404 . S
C568 C571 1.539 . S
C569 C565 1.400 1_545 S
C569 C568 1.404 . S
C569 H581 0.930 . S
C570 C566 1.524 . S
C570 H582 0.956 . S
C570 H583 0.961 1_655 S
C570 H584 0.961 . S
C571 C568 1.539 . S
C571 H585 0.958 . S
C571 H586 0.961 . S
C571 H587 0.960 . S
H572 C556 0.931 . S
H573 C561 0.929 1_455 S
H574 C562 0.960 . S
H575 C562 0.962 . S
H576 C562 0.960 . S
H577 C563 0.961 1_565 S
H578 C563 0.961 1_565 S
H579 C563 0.961 . S
H580 C564 0.931 . S
H581 C569 0.930 . S
H582 C570 0.956 . S
H583 C570 0.961 1_455 S
H584 C570 0.961 . S
H585 C571 0.958 . S
H586 C571 0.961 . S
H587 C571 0.960 . S
C588 C589 1.391 . S
C588 C590 1.394 . S
C588 H604 0.931 . S
C589 C588 1.391 . S
C589 C593 1.376 . S
C590 C588 1.394 . S
C590 C591 1.369 . S
C590 C594 1.531 . S
C591 C590 1.369 . S
C591 C592 1.410 . S
C591 C599 1.503 . S
C592 C591 1.410 . S
C592 C593 1.392 . S
C592 C595 1.511 . S
C593 C589 1.376 . S
C593 C592 1.392 . S
C593 H605 0.929 . S
C594 C590 1.531 . S
C594 H606 0.960 1_545 S
C594 H607 0.962 . S
C594 H608 0.960 1_545 S
C595 C592 1.511 . S
C595 H609 0.961 . S
C595 H610 0.961 . S
C595 H611 0.961 . S
C596 C597 1.370 . S
C596 C598 1.363 . S
C596 H612 0.931 . S
C597 C596 1.370 . S
C597 C601 1.408 . S
C598 C596 1.363 . S
C598 C599 1.370 . S
C598 C602 1.524 . S
C599 C591 1.503 . S
C599 C598 1.370 . S
C599 C600 1.403 . S
C600 C599 1.403 . S
C600 C601 1.404 . S
C600 C603 1.539 . S
C601 C597 1.408 . S
C601 C600 1.404 . S
C601 H613 0.930 . S
C602 C598 1.524 . S
C602 H614 0.956 . S
C602 H615 0.961 . S
C602 H616 0.961 . S
C603 C600 1.539 . S
C603 H617 0.958 1_545 S
C603 H618 0.961 . S
C603 H619 0.960 . S
H604 C588 0.931 . S
H605 C593 0.929 . S
H606 C594 0.960 1_565 S
H607 C594 0.962 . S
H608 C594 0.960 1_565 S
H609 C595 0.961 . S
H610 C595 0.961 . S
H611 C595 0.961 . S
H612 C596 0.931 . S
H613 C601 0.930 . S
H614 C602 0.956 . S
H615 C602 0.961 . S
H616 C602 0.961 . S
H617 C603 0.958 1_565 S
H618 C603 0.961 . S
H619 C603 0.960 . S
C620 C621 1.391 . S
C620 C622 1.394 . S
C620 H636 0.931 . S
C621 C620 1.391 . S
C621 C625 1.376 . S
C622 C620 1.394 . S
C622 C623 1.369 . S
C622 C626 1.531 . S
C623 C622 1.369 . S
C623 C624 1.410 . S
C623 C631 1.503 . S
C624 C623 1.410 . S
C624 C625 1.392 . S
C624 C627 1.511 . S
C625 C621 1.376 . S
C625 C624 1.392 . S
C625 H637 0.929 . S
C626 C622 1.531 . S
C626 H638 0.960 . S
C626 H639 0.962 . S
C626 H640 0.960 . S
C627 C624 1.511 . S
C627 H641 0.961 . S
C627 H642 0.961 . S
C627 H643 0.961 . S
C628 C629 1.370 . S
C628 C630 1.363 . S
C628 H644 0.931 . S
C629 C628 1.370 . S
C629 C633 1.408 . S
C630 C628 1.363 . S
C630 C631 1.370 . S
C630 C634 1.524 . S
C631 C623 1.503 . S
C631 C630 1.370 . S
C631 C632 1.403 . S
C632 C631 1.403 . S
C632 C633 1.404 . S
C632 C635 1.539 . S
C633 C629 1.408 . S
C633 C632 1.404 . S
C633 H645 0.930 . S
C634 C630 1.524 . S
C634 H646 0.956 . S
C634 H647 0.961 . S
C634 H648 0.961 . S
C635 C632 1.539 . S
C635 H649 0.958 . S
C635 H650 0.961 . S
C635 H651 0.960 . S
H636 C620 0.931 . S
H637 C625 0.929 . S
H638 C626 0.960 . S
H639 C626 0.962 . S
H640 C626 0.960 . S
H641 C627 0.961 . S
H642 C627 0.961 . S
H643 C627 0.961 . S
H644 C628 0.931 . S
H645 C633 0.930 . S
H646 C634 0.956 . S
H647 C634 0.961 . S
H648 C634 0.961 . S
H649 C635 0.958 . S
H650 C635 0.961 . S
H651 C635 0.960 . S
C652 C653 1.391 . S
C652 C654 1.394 . S
C652 H668 0.931 . S
C653 C652 1.391 . S
C653 C657 1.376 . S
C654 C652 1.394 . S
C654 C655 1.369 . S
C654 C658 1.531 . S
C655 C654 1.369 . S
C655 C656 1.410 . S
C655 C663 1.503 . S
C656 C655 1.410 . S
C656 C657 1.392 . S
C656 C659 1.511 . S
C657 C653 1.376 . S
C657 C656 1.392 . S
C657 H669 0.929 . S
C658 C654 1.531 . S
C658 H670 0.960 . S
C658 H671 0.962 . S
C658 H672 0.960 . S
C659 C656 1.511 . S
C659 H673 0.961 . S
C659 H674 0.961 . S
C659 H675 0.961 . S
C660 C661 1.370 . S
C660 C662 1.363 . S
C660 H676 0.931 . S
C661 C660 1.370 . S
C661 C665 1.408 . S
C662 C660 1.363 . S
C662 C663 1.370 . S
C662 C666 1.524 . S
C663 C655 1.503 . S
C663 C662 1.370 . S
C663 C664 1.403 . S
C664 C663 1.403 . S
C664 C665 1.404 . S
C664 C667 1.539 . S
C665 C661 1.408 . S
C665 C664 1.404 . S
C665 H677 0.930 . S
C666 C662 1.524 . S
C666 H678 0.956 . S
C666 H679 0.961 . S
C666 H680 0.961 . S
C667 C664 1.539 . S
C667 H681 0.958 . S
C667 H682 0.961 . S
C667 H683 0.960 . S
H668 C652 0.931 . S
H669 C657 0.929 . S
H670 C658 0.960 . S
H671 C658 0.962 . S
H672 C658 0.960 . S
H673 C659 0.961 . S
H674 C659 0.961 . S
H675 C659 0.961 . S
H676 C660 0.931 . S
H677 C665 0.930 . S
H678 C666 0.956 . S
H679 C666 0.961 . S
H680 C666 0.961 . S
H681 C667 0.958 . S
H682 C667 0.961 . S
H683 C667 0.960 . S
C684 C685 1.391 1_545 S
C684 C686 1.394 . S
C684 H700 0.931 . S
C685 C684 1.391 1_565 S
C685 C689 1.376 . S
C686 C684 1.394 . S
C686 C687 1.369 1_545 S
C686 C690 1.531 . S
C687 C686 1.369 1_565 S
C687 C688 1.410 . S
C687 C695 1.503 . S
C688 C687 1.410 . S
C688 C689 1.392 . S
C688 C691 1.511 . S
C689 C685 1.376 . S
C689 C688 1.392 . S
C689 H701 0.929 . S
C690 C686 1.531 . S
C690 H702 0.960 . S
C690 H703 0.962 . S
C690 H704 0.960 . S
C691 C688 1.511 . S
C691 H705 0.961 . S
C691 H706 0.961 . S
C691 H707 0.961 1_554 S
C692 C693 1.370 . S
C692 C694 1.363 1_545 S
C692 H708 0.931 . S
C693 C692 1.370 . S
C693 C697 1.408 1_545 S
C694 C692 1.363 1_565 S
C694 C695 1.370 . S
C694 C698 1.524 . S
C695 C687 1.503 . S
C695 C694 1.370 . S
C695 C696 1.403 . S
C696 C695 1.403 . S
C696 C697 1.404 . S
C696 C699 1.539 1_554 S
C697 C693 1.408 1_565 S
C697 C696 1.404 . S
C697 H709 0.930 1_554 S
C698 C694 1.524 . S
C698 H710 0.956 1_565 S
C698 H711 0.961 . S
C698 H712 0.961 . S
C699 C696 1.539 1_556 S
C699 H713 0.958 1_565 S
C699 H714 0.961 . S
C699 H715 0.960 . S
H700 C684 0.931 . S
H701 C689 0.929 . S
H702 C690 0.960 . S
H703 C690 0.962 . S
H704 C690 0.960 . S
H705 C691 0.961 . S
H706 C691 0.961 . S
H707 C691 0.961 1_556 S
H708 C692 0.931 . S
H709 C697 0.930 1_556 S
H710 C698 0.956 1_545 S
H711 C698 0.961 . S
H712 C698 0.961 . S
H713 C699 0.958 1_545 S
H714 C699 0.961 . S
H715 C699 0.960 . S
C716 C717 1.391 . S
C716 C718 1.394 . S
C716 H732 0.931 . S
C717 C716 1.391 . S
C717 C721 1.376 . S
C718 C716 1.394 . S
C718 C719 1.369 . S
C718 C722 1.531 . S
C719 C718 1.369 . S
C719 C720 1.410 . S
C719 C727 1.503 . S
C720 C719 1.410 . S
C720 C721 1.392 . S
C720 C723 1.511 . S
C721 C717 1.376 . S
C721 C720 1.392 . S
C721 H733 0.929 . S
C722 C718 1.531 . S
C722 H734 0.960 . S
C722 H735 0.962 . S
C722 H736 0.960 . S
C723 C720 1.511 . S
C723 H737 0.961 . S
C723 H738 0.961 . S
C723 H739 0.961 . S
C724 C725 1.370 . S
C724 C726 1.363 . S
C724 H740 0.931 1_545 S
C725 C724 1.370 . S
C725 C729 1.408 . S
C726 C724 1.363 . S
C726 C727 1.370 . S
C726 C730 1.524 1_545 S
C727 C719 1.503 . S
C727 C726 1.370 . S
C727 C728 1.403 . S
C728 C727 1.403 . S
C728 C729 1.404 . S
C728 C731 1.539 . S
C729 C725 1.408 . S
C729 C728 1.404 . S
C729 H741 0.930 . S
C730 C726 1.524 1_565 S
C730 H742 0.956 . S
C730 H743 0.961 . S
C730 H744 0.961 . S
C731 C728 1.539 . S
C731 H745 0.958 . S
C731 H746 0.961 . S
C731 H747 0.960 . S
H732 C716 0.931 . S
H733 C721 0.929 . S
H734 C722 0.960 . S
H735 C722 0.962 . S
H736 C722 0.960 . S
H737 C723 0.961 . S
H738 C723 0.961 . S
H739 C723 0.961 . S
H740 C724 0.931 1_565 S
H741 C729 0.930 . S
H742 C730 0.956 . S
H743 C730 0.961 . S
H744 C730 0.961 . S
H745 C731 0.958 . S
H746 C731 0.961 . S
H747 C731 0.960 . S
C748 C749 1.391 . S
C748 C750 1.394 . S
C748 H764 0.931 . S
C749 C748 1.391 . S
C749 C753 1.376 . S
C750 C748 1.394 . S
C750 C751 1.369 . S
C750 C754 1.531 . S
C751 C750 1.369 . S
C751 C752 1.410 . S
C751 C759 1.503 . S
C752 C751 1.410 . S
C752 C753 1.392 . S
C752 C755 1.511 1_554 S
C753 C749 1.376 . S
C753 C752 1.392 . S
C753 H765 0.929 . S
C754 C750 1.531 . S
C754 H766 0.960 . S
C754 H767 0.962 . S
C754 H768 0.960 . S
C755 C752 1.511 1_556 S
C755 H769 0.961 . S
C755 H770 0.969 . S
C755 H771 0.961 . S
C756 C757 1.370 . S
C756 C758 1.363 . S
C756 H772 0.931 . S
C757 C756 1.370 . S
C757 C761 1.408 . S
C758 C756 1.363 . S
C758 C759 1.370 . S
C758 C762 1.524 . S
C759 C751 1.503 . S
C759 C758 1.370 . S
C759 C760 1.403 . S
C760 C759 1.403 . S
C760 C761 1.404 . S
C760 C763 1.539 1_554 S
C761 C757 1.408 . S
C761 C760 1.404 . S
C761 H773 0.930 1_554 S
C762 C758 1.524 . S
C762 H774 0.956 . S
C762 H775 0.961 . S
C762 H776 0.961 . S
C763 C760 1.539 1_556 S
C763 H777 0.958 1_556 S
C763 H778 0.961 . S
C763 H779 0.960 . S
H764 C748 0.931 . S
H765 C753 0.929 . S
H766 C754 0.960 . S
H767 C754 0.962 . S
H768 C754 0.960 . S
H769 C755 0.961 . S
H770 C755 0.969 . S
H771 C755 0.961 . S
H772 C756 0.931 . S
H773 C761 0.930 1_556 S
H774 C762 0.956 . S
H775 C762 0.961 . S
H776 C762 0.961 . S
H777 C763 0.958 1_554 S
H778 C763 0.961 . S
H779 C763 0.960 . S
C780 C781 1.391 . S
C780 C782 1.394 . S
C780 H796 0.931 . S
C781 C780 1.391 . S
C781 C785 1.376 . S
C782 C780 1.394 . S
C782 C783 1.369 . S
C782 C786 1.531 . S
C783 C782 1.369 . S
C783 C784 1.410 . S
C783 C791 1.503 . S
C784 C783 1.410 . S
C784 C785 1.392 . S
C784 C787 1.511 . S
C785 C781 1.376 . S
C785 C784 1.392 . S
C785 H797 0.929 . S
C786 C782 1.531 . S
C786 H798 0.960 . S
C786 H799 0.962 . S
C786 H800 0.960 . S
C787 C784 1.511 . S
C787 H801 0.961 . S
C787 H802 0.961 . S
C787 H803 0.961 . S
C788 C789 1.370 . S
C788 C790 1.363 . S
C788 H804 0.931 . S
C789 C788 1.370 . S
C789 C793 1.408 . S
C790 C788 1.363 . S
C790 C791 1.370 . S
C790 C794 1.524 . S
C791 C783 1.503 . S
C791 C790 1.370 . S
C791 C792 1.403 . S
C792 C791 1.403 . S
C792 C793 1.404 . S
C792 C795 1.539 . S
C793 C789 1.408 . S
C793 C792 1.404 . S
C793 H805 0.930 . S
C794 C790 1.524 . S
C794 H806 0.956 . S
C794 H807 0.961 . S
C794 H808 0.961 . S
C795 C792 1.539 . S
C795 H809 0.958 . S
C795 H810 0.961 . S
C795 H811 0.960 . S
H796 C780 0.931 . S
H797 C785 0.929 . S
H798 C786 0.960 . S
H799 C786 0.962 . S
H800 C786 0.960 . S
H801 C787 0.961 . S
H802 C787 0.961 . S
H803 C787 0.961 . S
H804 C788 0.931 . S
H805 C793 0.930 . S
H806 C794 0.956 . S
H807 C794 0.961 . S
H808 C794 0.961 . S
H809 C795 0.958 . S
H810 C795 0.961 . S
H811 C795 0.960 . S
C812 C813 1.413 . S
C812 C814 1.394 . S
C812 H828 0.931 . S
C813 C812 1.413 . S
C813 C817 1.361 1_454 S
C814 C812 1.394 . S
C814 C815 1.369 . S
C814 C818 1.531 . S
C815 C814 1.369 . S
C815 C816 1.410 1_454 S
C815 C823 1.503 . S
C816 C815 1.410 1_656 S
C816 C817 1.392 . S
C816 C819 1.511 . S
C817 C813 1.361 1_656 S
C817 C816 1.392 . S
C817 H829 0.929 . S
C818 C814 1.531 . S
C818 H830 0.960 . S
C818 H831 0.962 . S
C818 H832 0.960 . S
C819 C816 1.511 . S
C819 H833 0.961 . S
C819 H834 0.961 . S
C819 H835 0.961 . S
C820 C821 1.370 1_556 S
C820 C822 1.363 . S
C820 H836 0.931 . S
C821 C820 1.370 1_554 S
C821 C825 1.408 . S
C822 C820 1.363 . S
C822 C823 1.370 1_556 S
C822 C826 1.524 . S
C823 C815 1.503 . S
C823 C822 1.370 1_554 S
C823 C824 1.403 . S
C824 C823 1.403 . S
C824 C825 1.404 . S
C824 C827 1.539 1_455 S
C825 C821 1.408 . S
C825 C824 1.404 . S
C825 H837 0.930 . S
C826 C822 1.524 . S
C826 H838 0.956 . S
C826 H839 0.961 . S
C826 H840 0.961 . S
C827 C824 1.539 1_655 S
C827 H841 0.958 . S
C827 H842 0.961 . S
C827 H843 0.960 . S
H828 C812 0.931 . S
H829 C817 0.929 . S
H830 C818 0.960 . S
H831 C818 0.962 . S
H832 C818 0.960 . S
H833 C819 0.961 . S
H834 C819 0.961 . S
H835 C819 0.961 . S
H836 C820 0.931 . S
H837 C825 0.930 . S
H838 C826 0.956 . S
H839 C826 0.961 . S
H840 C826 0.961 . S
H841 C827 0.958 . S
H842 C827 0.961 . S
H843 C827 0.960 . S
C844 C845 1.391 . S
C844 C846 1.394 . S
C844 H860 0.931 . S
C845 C844 1.391 . S
C845 C849 1.376 . S
C846 C844 1.394 . S
C846 C847 1.369 . S
C846 C850 1.531 . S
C847 C846 1.369 . S
C847 C848 1.410 . S
C847 C855 1.503 . S
C848 C847 1.410 . S
C848 C849 1.392 . S
C848 C851 1.511 . S
C849 C845 1.376 . S
C849 C848 1.392 . S
C849 H861 0.929 . S
C850 C846 1.531 . S
C850 H862 0.960 . S
C850 H863 0.962 . S
C850 H864 0.960 . S
C851 C848 1.511 . S
C851 H865 0.961 . S
C851 H866 0.961 . S
C851 H867 0.961 . S
C852 C853 1.370 . S
C852 C854 1.363 . S
C852 H868 0.931 . S
C853 C852 1.370 . S
C853 C857 1.408 . S
C854 C852 1.363 . S
C854 C855 1.370 . S
C854 C858 1.524 . S
C855 C847 1.503 . S
C855 C854 1.370 . S
C855 C856 1.403 . S
C856 C855 1.403 . S
C856 C857 1.404 . S
C856 C859 1.539 . S
C857 C853 1.408 . S
C857 C856 1.404 . S
C857 H869 0.930 . S
C858 C854 1.524 . S
C858 H870 0.956 . S
C858 H871 0.961 . S
C858 H872 0.961 . S
C859 C856 1.539 . S
C859 H873 0.958 . S
C859 H874 0.961 . S
C859 H875 0.960 . S
H860 C844 0.931 . S
H861 C849 0.929 . S
H862 C850 0.960 . S
H863 C850 0.962 . S
H864 C850 0.960 . S
H865 C851 0.961 . S
H866 C851 0.961 . S
H867 C851 0.961 . S
H868 C852 0.931 . S
H869 C857 0.930 . S
H870 C858 0.956 . S
H871 C858 0.961 . S
H872 C858 0.961 . S
H873 C859 0.958 . S
H874 C859 0.961 . S
H875 C859 0.960 . S
C876 C877 1.391 . S
C876 C878 1.394 . S
C876 H892 0.931 . S
C877 C876 1.391 . S
C877 C881 1.376 . S
C878 C876 1.394 . S
C878 C879 1.369 . S
C878 C882 1.531 . S
C879 C878 1.369 . S
C879 C880 1.410 . S
C879 C887 1.503 . S
C880 C879 1.410 . S
C880 C881 1.392 . S
C880 C883 1.511 . S
C881 C877 1.376 . S
C881 C880 1.392 . S
C881 H893 0.929 . S
C882 C878 1.531 . S
C882 H894 0.960 . S
C882 H895 0.962 1_455 S
C882 H896 0.960 1_455 S
C883 C880 1.511 . S
C883 H897 0.961 . S
C883 H898 0.961 . S
C883 H899 0.961 . S
C884 C885 1.370 . S
C884 C886 1.363 . S
C884 H900 0.931 . S
C885 C884 1.370 . S
C885 C889 1.408 . S
C886 C884 1.363 . S
C886 C887 1.370 . S
C886 C890 1.524 . S
C887 C879 1.503 . S
C887 C886 1.370 . S
C887 C888 1.403 . S
C888 C887 1.403 . S
C888 C889 1.404 . S
C888 C891 1.539 . S
C889 C885 1.408 . S
C889 C888 1.404 . S
C889 H901 0.930 . S
C890 C886 1.524 . S
C890 H902 0.956 . S
C890 H903 0.961 . S
C890 H904 0.961 . S
C891 C888 1.539 . S
C891 H905 0.958 . S
C891 H906 0.961 . S
C891 H907 0.960 . S
H892 C876 0.931 . S
H893 C881 0.929 . S
H894 C882 0.960 . S
H895 C882 0.962 1_655 S
H896 C882 0.960 1_655 S
H897 C883 0.961 . S
H898 C883 0.961 . S
H899 C883 0.961 . S
H900 C884 0.931 . S
H901 C889 0.930 . S
H902 C890 0.956 . S
H903 C890 0.961 . S
H904 C890 0.961 . S
H905 C891 0.958 . S
H906 C891 0.961 . S
H907 C891 0.960 . S
C908 C909 1.391 . S
C908 C910 1.394 . S
C908 H924 0.931 . S
C909 C908 1.391 . S
C909 C913 1.376 . S
C910 C908 1.394 . S
C910 C911 1.369 . S
C910 C914 1.531 . S
C911 C910 1.369 . S
C911 C912 1.410 . S
C911 C919 1.503 . S
C912 C911 1.410 . S
C912 C913 1.392 . S
C912 C915 1.511 . S
C913 C909 1.376 . S
C913 C912 1.392 . S
C913 H925 0.929 . S
C914 C910 1.531 . S
C914 H926 0.960 . S
C914 H927 0.962 . S
C914 H928 0.960 . S
C915 C912 1.511 . S
C915 H929 0.961 . S
C915 H930 0.961 . S
C915 H931 0.961 . S
C916 C917 1.370 . S
C916 C918 1.363 . S
C916 H932 0.931 . S
C917 C916 1.370 . S
C917 C921 1.408 . S
C918 C916 1.363 . S
C918 C919 1.370 . S
C918 C922 1.524 . S
C919 C911 1.503 . S
C919 C918 1.370 . S
C919 C920 1.403 . S
C920 C919 1.403 . S
C920 C921 1.404 . S
C920 C923 1.539 . S
C921 C917 1.408 . S
C921 C920 1.404 . S
C921 H933 0.930 . S
C922 C918 1.524 . S
C922 H934 0.956 . S
C922 H935 0.961 . S
C922 H936 0.961 . S
C923 C920 1.539 . S
C923 H937 0.958 . S
C923 H938 0.961 . S
C923 H939 0.960 . S
H924 C908 0.931 . S
H925 C913 0.929 . S
H926 C914 0.960 . S
H927 C914 0.962 . S
H928 C914 0.960 . S
H929 C915 0.961 . S
H930 C915 0.961 . S
H931 C915 0.961 . S
H932 C916 0.931 . S
H933 C921 0.930 . S
H934 C922 0.956 . S
H935 C922 0.961 . S
H936 C922 0.961 . S
H937 C923 0.958 . S
H938 C923 0.961 . S
H939 C923 0.960 . S
C173 C5 1.660 . S
C181 C91 1.738 . S
C205 C18 1.515 . S
C213 C125 1.511 1_556 S
C245 C137 1.237 . S
C237 C30 1.292 . S
C269 C41 1.236 . S
C277 C171 1.182 . S
C309 C128 1.666 . S
C301 C7 1.707 . S
C341 C108 1.650 . S
C333 C16 1.588 . S
C373 C155 1.422 . S
C365 C29 1.444 . S
C405 C146 1.042 . S
C397 C38 0.985 . S
C429 C8 1.665 . S
C437 C154 1.552 . S
C469 C116 1.560 . S
C461 C27 1.526 . S
C493 C40 1.487 . S
C501 C92 1.384 . S
C525 C19 1.255 . S
C533 C149 1.170 . S
C565 C107 1.561 1_565 S
C557 C51 1.687 . S
C589 C62 1.671 . S
C597 C129 1.634 . S
C621 C74 1.448 . S
C629 C134 1.460 . S
C653 C84 1.381 . S
C661 C167 1.395 . S
C685 C49 1.918 . S
C693 C112 1.862 1_545 S
C725 C104 1.509 . S
C717 C63 1.545 . S
C757 C158 1.398 . S
C749 C71 1.179 . S
C789 C150 1.232 . S
C781 C85 1.236 . S
C813 C52 1.694 1_455 S
C821 C170 1.627 1_554 S
C853 C113 1.799 . S
C845 C73 1.770 . S
C885 C95 1.415 . S
C877 C82 1.166 . S
C909 C60 1.357 . S
C917 C133 1.627 . S
