# Generated by pormake.
# Topology gar, (4,6)-cn, num edge types: 1
# Building blocks:
#     Node 0, Type 0, BuildingBlock: TATPOV_clean_sbu_0, # of connection points: 4
#     Node 1, Type 0, BuildingBlock: TATPOV_clean_sbu_0, # of connection points: 4
#     Node 2, Type 0, BuildingBlock: TATPOV_clean_sbu_0, # of connection points: 4
#     Node 3, Type 0, BuildingBlock: TATPOV_clean_sbu_0, # of connection points: 4
#     Node 4, Type 0, BuildingBlock: TATPOV_clean_sbu_0, # of connection points: 4
#     Node 5, Type 0, BuildingBlock: TATPOV_clean_sbu_0, # of connection points: 4
#     Node 6, Type 0, BuildingBlock: TATPOV_clean_sbu_0, # of connection points: 4
#     Node 7, Type 0, BuildingBlock: TATPOV_clean_sbu_0, # of connection points: 4
#     Node 8, Type 0, BuildingBlock: TATPOV_clean_sbu_0, # of connection points: 4
#     Node 9, Type 0, BuildingBlock: TATPOV_clean_sbu_0, # of connection points: 4
#     Node 10, Type 0, BuildingBlock: TATPOV_clean_sbu_0, # of connection points: 4
#     Node 11, Type 0, BuildingBlock: TATPOV_clean_sbu_0, # of connection points: 4
#     Node 12, Type 0, BuildingBlock: TATPOV_clean_sbu_0, # of connection points: 4
#     Node 13, Type 0, BuildingBlock: TATPOV_clean_sbu_0, # of connection points: 4
#     Node 14, Type 0, BuildingBlock: TATPOV_clean_sbu_0, # of connection points: 4
#     Node 15, Type 0, BuildingBlock: TATPOV_clean_sbu_0, # of connection points: 4
#     Node 16, Type 0, BuildingBlock: TATPOV_clean_sbu_0, # of connection points: 4
#     Node 17, Type 0, BuildingBlock: TATPOV_clean_sbu_0, # of connection points: 4
#     Node 18, Type 0, BuildingBlock: TATPOV_clean_sbu_0, # of connection points: 4
#     Node 19, Type 0, BuildingBlock: TATPOV_clean_sbu_0, # of connection points: 4
#     Node 20, Type 0, BuildingBlock: TATPOV_clean_sbu_0, # of connection points: 4
#     Node 21, Type 0, BuildingBlock: TATPOV_clean_sbu_0, # of connection points: 4
#     Node 22, Type 0, BuildingBlock: TATPOV_clean_sbu_0, # of connection points: 4
#     Node 23, Type 0, BuildingBlock: TATPOV_clean_sbu_0, # of connection points: 4
#     Node 24, Type 1, BuildingBlock: BETDIP_clean_sbu_0, # of connection points: 6
#     Node 25, Type 1, BuildingBlock: BETDIP_clean_sbu_0, # of connection points: 6
#     Node 26, Type 1, BuildingBlock: BETDIP_clean_sbu_0, # of connection points: 6
#     Node 27, Type 1, BuildingBlock: BETDIP_clean_sbu_0, # of connection points: 6
#     Node 28, Type 1, BuildingBlock: BETDIP_clean_sbu_0, # of connection points: 6
#     Node 29, Type 1, BuildingBlock: BETDIP_clean_sbu_0, # of connection points: 6
#     Node 30, Type 1, BuildingBlock: BETDIP_clean_sbu_0, # of connection points: 6
#     Node 31, Type 1, BuildingBlock: BETDIP_clean_sbu_0, # of connection points: 6
#     Node 32, Type 1, BuildingBlock: BETDIP_clean_sbu_0, # of connection points: 6
#     Node 33, Type 1, BuildingBlock: BETDIP_clean_sbu_0, # of connection points: 6
#     Node 34, Type 1, BuildingBlock: BETDIP_clean_sbu_0, # of connection points: 6
#     Node 35, Type 1, BuildingBlock: BETDIP_clean_sbu_0, # of connection points: 6
#     Node 36, Type 1, BuildingBlock: BETDIP_clean_sbu_0, # of connection points: 6
#     Node 37, Type 1, BuildingBlock: BETDIP_clean_sbu_0, # of connection points: 6
#     Node 38, Type 1, BuildingBlock: BETDIP_clean_sbu_0, # of connection points: 6
#     Node 39, Type 1, BuildingBlock: BETDIP_clean_sbu_0, # of connection points: 6
#     Edge 40, Type (0, 1), BuildingBlock: AJUNOK_clean_linker_0, # of connection points: 2
#     Edge 41, Type (0, 1), BuildingBlock: AJUNOK_clean_linker_0, # of connection points: 2
#     Edge 42, Type (0, 1), BuildingBlock: AJUNOK_clean_linker_0, # of connection points: 2
#     Edge 43, Type (0, 1), BuildingBlock: AJUNOK_clean_linker_0, # of connection points: 2
#     Edge 44, Type (0, 1), BuildingBlock: AJUNOK_clean_linker_0, # of connection points: 2
#     Edge 45, Type (0, 1), BuildingBlock: AJUNOK_clean_linker_0, # of connection points: 2
#     Edge 46, Type (0, 1), BuildingBlock: AJUNOK_clean_linker_0, # of connection points: 2
#     Edge 47, Type (0, 1), BuildingBlock: AJUNOK_clean_linker_0, # of connection points: 2
#     Edge 48, Type (0, 1), BuildingBlock: AJUNOK_clean_linker_0, # of connection points: 2
#     Edge 49, Type (0, 1), BuildingBlock: AJUNOK_clean_linker_0, # of connection points: 2
#     Edge 50, Type (0, 1), BuildingBlock: AJUNOK_clean_linker_0, # of connection points: 2
#     Edge 51, Type (0, 1), BuildingBlock: AJUNOK_clean_linker_0, # of connection points: 2
#     Edge 52, Type (0, 1), BuildingBlock: AJUNOK_clean_linker_0, # of connection points: 2
#     Edge 53, Type (0, 1), BuildingBlock: AJUNOK_clean_linker_0, # of connection points: 2
#     Edge 54, Type (0, 1), BuildingBlock: AJUNOK_clean_linker_0, # of connection points: 2
#     Edge 55, Type (0, 1), BuildingBlock: AJUNOK_clean_linker_0, # of connection points: 2
#     Edge 56, Type (0, 1), BuildingBlock: AJUNOK_clean_linker_0, # of connection points: 2
#     Edge 57, Type (0, 1), BuildingBlock: AJUNOK_clean_linker_0, # of connection points: 2
#     Edge 58, Type (0, 1), BuildingBlock: AJUNOK_clean_linker_0, # of connection points: 2
#     Edge 59, Type (0, 1), BuildingBlock: AJUNOK_clean_linker_0, # of connection points: 2
#     Edge 60, Type (0, 1), BuildingBlock: AJUNOK_clean_linker_0, # of connection points: 2
#     Edge 61, Type (0, 1), BuildingBlock: AJUNOK_clean_linker_0, # of connection points: 2
#     Edge 62, Type (0, 1), BuildingBlock: AJUNOK_clean_linker_0, # of connection points: 2
#     Edge 63, Type (0, 1), BuildingBlock: AJUNOK_clean_linker_0, # of connection points: 2
#     Edge 64, Type (0, 1), BuildingBlock: AJUNOK_clean_linker_0, # of connection points: 2
#     Edge 65, Type (0, 1), BuildingBlock: AJUNOK_clean_linker_0, # of connection points: 2
#     Edge 66, Type (0, 1), BuildingBlock: AJUNOK_clean_linker_0, # of connection points: 2
#     Edge 67, Type (0, 1), BuildingBlock: AJUNOK_clean_linker_0, # of connection points: 2
#     Edge 68, Type (0, 1), BuildingBlock: AJUNOK_clean_linker_0, # of connection points: 2
#     Edge 69, Type (0, 1), BuildingBlock: AJUNOK_clean_linker_0, # of connection points: 2
#     Edge 70, Type (0, 1), BuildingBlock: AJUNOK_clean_linker_0, # of connection points: 2
#     Edge 71, Type (0, 1), BuildingBlock: AJUNOK_clean_linker_0, # of connection points: 2
#     Edge 72, Type (0, 1), BuildingBlock: AJUNOK_clean_linker_0, # of connection points: 2
#     Edge 73, Type (0, 1), BuildingBlock: AJUNOK_clean_linker_0, # of connection points: 2
#     Edge 74, Type (0, 1), BuildingBlock: AJUNOK_clean_linker_0, # of connection points: 2
#     Edge 75, Type (0, 1), BuildingBlock: AJUNOK_clean_linker_0, # of connection points: 2
#     Edge 76, Type (0, 1), BuildingBlock: AJUNOK_clean_linker_0, # of connection points: 2
#     Edge 77, Type (0, 1), BuildingBlock: AJUNOK_clean_linker_0, # of connection points: 2
#     Edge 78, Type (0, 1), BuildingBlock: AJUNOK_clean_linker_0, # of connection points: 2
#     Edge 79, Type (0, 1), BuildingBlock: AJUNOK_clean_linker_0, # of connection points: 2
#     Edge 80, Type (0, 1), BuildingBlock: AJUNOK_clean_linker_0, # of connection points: 2
#     Edge 81, Type (0, 1), BuildingBlock: AJUNOK_clean_linker_0, # of connection points: 2
#     Edge 82, Type (0, 1), BuildingBlock: AJUNOK_clean_linker_0, # of connection points: 2
#     Edge 83, Type (0, 1), BuildingBlock: AJUNOK_clean_linker_0, # of connection points: 2
#     Edge 84, Type (0, 1), BuildingBlock: AJUNOK_clean_linker_0, # of connection points: 2
#     Edge 85, Type (0, 1), BuildingBlock: AJUNOK_clean_linker_0, # of connection points: 2
#     Edge 86, Type (0, 1), BuildingBlock: AJUNOK_clean_linker_0, # of connection points: 2
#     Edge 87, Type (0, 1), BuildingBlock: AJUNOK_clean_linker_0, # of connection points: 2
#     Edge 88, Type (0, 1), BuildingBlock: AJUNOK_clean_linker_0, # of connection points: 2
#     Edge 89, Type (0, 1), BuildingBlock: AJUNOK_clean_linker_0, # of connection points: 2
#     Edge 90, Type (0, 1), BuildingBlock: AJUNOK_clean_linker_0, # of connection points: 2
#     Edge 91, Type (0, 1), BuildingBlock: AJUNOK_clean_linker_0, # of connection points: 2
#     Edge 92, Type (0, 1), BuildingBlock: AJUNOK_clean_linker_0, # of connection points: 2
#     Edge 93, Type (0, 1), BuildingBlock: AJUNOK_clean_linker_0, # of connection points: 2
#     Edge 94, Type (0, 1), BuildingBlock: AJUNOK_clean_linker_0, # of connection points: 2
#     Edge 95, Type (0, 1), BuildingBlock: AJUNOK_clean_linker_0, # of connection points: 2
#     Edge 96, Type (0, 1), BuildingBlock: AJUNOK_clean_linker_0, # of connection points: 2
#     Edge 97, Type (0, 1), BuildingBlock: AJUNOK_clean_linker_0, # of connection points: 2
#     Edge 98, Type (0, 1), BuildingBlock: AJUNOK_clean_linker_0, # of connection points: 2
#     Edge 99, Type (0, 1), BuildingBlock: AJUNOK_clean_linker_0, # of connection points: 2
#     Edge 100, Type (0, 1), BuildingBlock: AJUNOK_clean_linker_0, # of connection points: 2
#     Edge 101, Type (0, 1), BuildingBlock: AJUNOK_clean_linker_0, # of connection points: 2
#     Edge 102, Type (0, 1), BuildingBlock: AJUNOK_clean_linker_0, # of connection points: 2
#     Edge 103, Type (0, 1), BuildingBlock: AJUNOK_clean_linker_0, # of connection points: 2
#     Edge 104, Type (0, 1), BuildingBlock: AJUNOK_clean_linker_0, # of connection points: 2
#     Edge 105, Type (0, 1), BuildingBlock: AJUNOK_clean_linker_0, # of connection points: 2
#     Edge 106, Type (0, 1), BuildingBlock: AJUNOK_clean_linker_0, # of connection points: 2
#     Edge 107, Type (0, 1), BuildingBlock: AJUNOK_clean_linker_0, # of connection points: 2
#     Edge 108, Type (0, 1), BuildingBlock: AJUNOK_clean_linker_0, # of connection points: 2
#     Edge 109, Type (0, 1), BuildingBlock: AJUNOK_clean_linker_0, # of connection points: 2
#     Edge 110, Type (0, 1), BuildingBlock: AJUNOK_clean_linker_0, # of connection points: 2
#     Edge 111, Type (0, 1), BuildingBlock: AJUNOK_clean_linker_0, # of connection points: 2
#     Edge 112, Type (0, 1), BuildingBlock: AJUNOK_clean_linker_0, # of connection points: 2
#     Edge 113, Type (0, 1), BuildingBlock: AJUNOK_clean_linker_0, # of connection points: 2
#     Edge 114, Type (0, 1), BuildingBlock: AJUNOK_clean_linker_0, # of connection points: 2
#     Edge 115, Type (0, 1), BuildingBlock: AJUNOK_clean_linker_0, # of connection points: 2
#     Edge 116, Type (0, 1), BuildingBlock: AJUNOK_clean_linker_0, # of connection points: 2
#     Edge 117, Type (0, 1), BuildingBlock: AJUNOK_clean_linker_0, # of connection points: 2
#     Edge 118, Type (0, 1), BuildingBlock: AJUNOK_clean_linker_0, # of connection points: 2
#     Edge 119, Type (0, 1), BuildingBlock: AJUNOK_clean_linker_0, # of connection points: 2
#     Edge 120, Type (0, 1), BuildingBlock: AJUNOK_clean_linker_0, # of connection points: 2
#     Edge 121, Type (0, 1), BuildingBlock: AJUNOK_clean_linker_0, # of connection points: 2
#     Edge 122, Type (0, 1), BuildingBlock: AJUNOK_clean_linker_0, # of connection points: 2
#     Edge 123, Type (0, 1), BuildingBlock: AJUNOK_clean_linker_0, # of connection points: 2
#     Edge 124, Type (0, 1), BuildingBlock: AJUNOK_clean_linker_0, # of connection points: 2
#     Edge 125, Type (0, 1), BuildingBlock: AJUNOK_clean_linker_0, # of connection points: 2
#     Edge 126, Type (0, 1), BuildingBlock: AJUNOK_clean_linker_0, # of connection points: 2
#     Edge 127, Type (0, 1), BuildingBlock: AJUNOK_clean_linker_0, # of connection points: 2
#     Edge 128, Type (0, 1), BuildingBlock: AJUNOK_clean_linker_0, # of connection points: 2
#     Edge 129, Type (0, 1), BuildingBlock: AJUNOK_clean_linker_0, # of connection points: 2
#     Edge 130, Type (0, 1), BuildingBlock: AJUNOK_clean_linker_0, # of connection points: 2
#     Edge 131, Type (0, 1), BuildingBlock: AJUNOK_clean_linker_0, # of connection points: 2
#     Edge 132, Type (0, 1), BuildingBlock: AJUNOK_clean_linker_0, # of connection points: 2
#     Edge 133, Type (0, 1), BuildingBlock: AJUNOK_clean_linker_0, # of connection points: 2
#     Edge 134, Type (0, 1), BuildingBlock: AJUNOK_clean_linker_0, # of connection points: 2
#     Edge 135, Type (0, 1), BuildingBlock: AJUNOK_clean_linker_0, # of connection points: 2
# Relax obj value: 0.260
# Max RMSD: 0.374
# Mean RMSD: 0.184
data_MOF--net-gar--node1-TATPOV_clean_sbu_0--node2-BETDIP_clean_sbu_0--edge1-AJUNOK_clean_linker_0
_symmetry_space_group_name_H-M    P1
_symmetry_Int_Tables_number       1
_symmetry_cell_setting            triclinic
loop_
_symmetry_equiv_pos_as_xyz
'x, y, z'
_cell_length_a     49.484145
_cell_length_b     43.211327
_cell_length_c     40.94554
_cell_angle_alpha  99.431563
_cell_angle_beta   101.07091
_cell_angle_gamma 104.74801
loop_
_atom_site_label
_atom_site_type_symbol
_atom_site_fract_x
_atom_site_fract_y
_atom_site_fract_z
_atom_type_partial_charge
Zn0 Zn 1.01028 0.31191 0.49153 0.0
Zn1 Zn 0.03621 0.33196 0.44228 0.0
O2 O 0.049 0.37117 0.48321 0.0
O3 O 0.03418 0.3534 0.52614 0.0
O4 O 0.06291 0.34243 0.41095 0.0
O5 O 0.02327 0.27137 0.48613 0.0
O6 O 0.04817 0.29283 0.45211 0.0
C7 C 0.04758 0.37636 0.51438 0.0
C8 C 0.97156 0.31694 0.43051 0.0
O9 O 0.99341 0.32246 0.41763 0.0
O10 O 0.97385 0.31297 0.46075 0.0
C11 C 0.0601 0.32062 0.38445 0.0
O12 O 0.03614 0.29618 0.37359 0.0
C13 C 0.04124 0.27056 0.46808 0.0
Zn14 Zn 0.06726 0.70353 0.79029 0.0
Zn15 Zn 0.07377 0.75999 0.76733 0.0
O16 O 0.04995 0.76472 0.80096 0.0
O17 O 0.04256 0.72033 0.82157 0.0
O18 O 0.07403 0.799 0.74885 0.0
O19 O 0.11262 0.71821 0.80274 0.0
O20 O 0.11456 0.76468 0.78648 0.0
C21 C 0.03918 0.74838 0.82075 0.0
C22 C 0.04945 0.69401 0.71686 0.0
O23 O 0.05908 0.725 0.72428 0.0
O24 O 0.04831 0.67815 0.74029 0.0
C25 C 0.04952 0.79879 0.73235 0.0
O26 O 0.02687 0.77396 0.72994 0.0
C27 C 0.12722 0.74542 0.79842 0.0
Zn28 Zn 0.51369 0.83687 0.99149 0.0
Zn29 Zn 0.54591 0.84327 0.9501 0.0
O30 O 0.5623 0.88101 0.99314 0.0
O31 O 0.54189 0.86658 0.03366 0.0
O32 O 0.5768 0.84702 0.92382 0.0
O33 O 0.50641 0.78832 0.98173 0.0
O34 O 0.54206 0.79745 0.95662 0.0
C35 C 0.56012 0.88698 0.02401 0.0
C36 C 0.48747 0.85224 0.93084 0.0
O37 O 0.50802 0.84464 0.92016 0.0
O38 O 0.48724 0.85509 0.96201 0.0
C39 C 0.57197 0.83067 0.89339 0.0
O40 O 0.54529 0.81489 0.87642 0.0
C41 C 0.52363 0.77786 0.96701 0.0
Zn42 Zn 0.55502 0.19594 0.28313 0.0
Zn43 Zn 0.56274 0.25564 0.26736 0.0
O44 O 0.53648 0.25586 0.29883 0.0
O45 O 0.52916 0.20873 0.31456 0.0
O46 O 0.56552 0.29766 0.25426 0.0
O47 O 0.60007 0.20967 0.29648 0.0
O48 O 0.60345 0.25906 0.28714 0.0
C49 C 0.52501 0.23665 0.31589 0.0
C50 C 0.53944 0.19359 0.21082 0.0
O51 O 0.54885 0.22452 0.22127 0.0
O52 O 0.53743 0.17523 0.23201 0.0
C53 C 0.54252 0.3024 0.23927 0.0
O54 O 0.51777 0.28011 0.23534 0.0
C55 C 0.61537 0.23793 0.2957 0.0
Zn56 Zn 0.1376 0.83497 0.1589 0.0
Zn57 Zn 0.10254 0.83078 0.20038 0.0
O58 O 0.09724 0.87074 0.17545 0.0
O59 O 0.12832 0.8759 0.14352 0.0
O60 O 0.07106 0.82808 0.22858 0.0
O61 O 0.11769 0.78668 0.13307 0.0
O62 O 0.09144 0.78215 0.17054 0.0
C63 C 0.10899 0.88569 0.15467 0.0
C64 C 0.16795 0.83818 0.22913 0.0
O65 O 0.14327 0.83759 0.23519 0.0
O66 O 0.17121 0.83833 0.19915 0.0
C67 C 0.05761 0.80171 0.23596 0.0
O68 O 0.06492 0.77499 0.22691 0.0
C69 C 0.09975 0.76861 0.14559 0.0
Zn70 Zn 0.48266 0.77435 0.53071 0.0
Zn71 Zn 0.51865 0.77889 0.49016 0.0
O72 O 0.53173 0.82702 0.52027 0.0
O73 O 0.50152 0.82435 0.55332 0.0
O74 O 0.54973 0.78009 0.46186 0.0
O75 O 0.49395 0.73529 0.54877 0.0
O76 O 0.52308 0.7385 0.51459 0.0
C77 C 0.52168 0.84147 0.54285 0.0
C78 C 0.45269 0.77046 0.46069 0.0
O79 O 0.47832 0.77503 0.45619 0.0
O80 O 0.44832 0.76633 0.48946 0.0
C81 C 0.56377 0.80593 0.45416 0.0
O82 O 0.55694 0.83312 0.46236 0.0
C83 C 0.51237 0.72443 0.53657 0.0
Zn84 Zn 0.64068 0.33674 0.66142 0.0
Zn85 Zn 0.60493 0.32995 0.70175 0.0
O86 O 0.59919 0.37043 0.67763 0.0
O87 O 0.6293 0.37582 0.64461 0.0
O88 O 0.5744 0.32519 0.73145 0.0
O89 O 0.6228 0.28769 0.63695 0.0
O90 O 0.59357 0.28176 0.67111 0.0
C91 C 0.61015 0.38546 0.65636 0.0
C92 C 0.67162 0.34046 0.73062 0.0
O93 O 0.64611 0.33615 0.73554 0.0
O94 O 0.67536 0.3438 0.70144 0.0
C95 C 0.55178 0.33445 0.72429 0.0
O96 O 0.54772 0.34738 0.69759 0.0
C97 C 0.6038 0.26898 0.64762 0.0
Zn98 Zn 0.98433 0.27601 0.0308 0.0
Zn99 Zn 0.01876 0.27932 0.98828 0.0
O100 O 0.03144 0.32769 0.01914 0.0
O101 O 1.00221 0.32535 0.05339 0.0
O102 O 0.05014 0.28148 0.96002 0.0
O103 O 0.9975 0.23856 0.05004 0.0
O104 O 0.02244 0.23793 0.01118 0.0
C105 C 0.02193 0.34228 0.04226 0.0
C106 C 0.95312 0.27097 0.96006 0.0
O107 O 0.97838 0.27457 0.95464 0.0
O108 O 0.94965 0.26804 0.98951 0.0
C109 C 0.06642 0.30857 0.9571 0.0
O110 O 0.06115 0.3359 0.96916 0.0
C111 C 1.0137 0.22579 0.03529 0.0
Zn112 Zn 0.46468 0.04016 0.32577 0.0
Zn113 Zn 0.43488 0.08389 0.33018 0.0
O114 O 0.46438 0.09017 0.38422 0.0
O115 O 0.48802 0.05387 0.37511 0.0
O116 O 0.4065 0.12348 0.3302 0.0
O117 O 0.48407 0.0486 0.28724 0.0
O118 O 0.45865 0.08356 0.28305 0.0
C119 C 0.48275 0.07512 0.39616 0.0
C120 C 0.40652 1.00373 0.32165 0.0
O121 O 0.40407 0.03341 0.32667 0.0
O122 O 0.43017 0.99991 0.31715 0.0
C123 C 0.41144 0.15529 0.34292 0.0
O124 O 0.43807 0.17115 0.36002 0.0
C125 C 0.47642 0.06884 0.27122 0.0
Zn126 Zn 0.23724 0.22035 0.55956 0.0
Zn127 Zn 0.27715 0.18972 0.56585 0.0
O128 O 0.28223 0.21417 0.52466 0.0
O129 O 0.25068 0.24209 0.52305 0.0
O130 O 0.30857 0.16527 0.57074 0.0
O131 O 0.25277 0.24389 0.6093 0.0
O132 O 0.28797 0.2212 0.61365 0.0
C133 C 0.27088 0.23457 0.51198 0.0
C134 C 0.21118 0.15333 0.55683 0.0
O135 O 0.23778 0.15404 0.56337 0.0
O136 O 0.20441 0.17826 0.54976 0.0
C137 C 0.3259 0.16296 0.55159 0.0
O138 O 0.32378 0.17613 0.52484 0.0
C139 C 0.27505 0.24002 0.62721 0.0
Zn140 Zn 0.1338 0.13431 0.88206 0.0
Zn141 Zn 0.16299 0.09079 0.87986 0.0
O142 O 0.14311 0.08249 0.91965 0.0
O143 O 0.12071 0.12012 0.9243 0.0
O144 O 0.18503 0.0578 0.87847 0.0
O145 O 0.11113 0.11201 0.83241 0.0
O146 O 0.13697 0.07756 0.83073 0.0
C147 C 0.12738 0.09621 0.93457 0.0
C148 C 0.19457 0.16378 0.88608 0.0
O149 O 0.19525 0.13448 0.88609 0.0
O150 O 0.17104 0.17069 0.88518 0.0
C151 C 0.20016 0.05702 0.85673 0.0
O152 O 0.20045 0.07756 0.83635 0.0
C153 C 0.1178 0.08881 0.81568 0.0
Zn154 Zn 0.23277 0.82775 0.97846 0.0
Zn155 Zn 0.22873 0.89597 1.00584 0.0
O156 O 0.21248 0.88807 0.95406 0.0
O157 O 0.19657 0.83961 0.95975 0.0
O158 O 0.21959 0.93541 0.02814 0.0
O159 O 0.22747 0.81509 0.02107 0.0
O160 O 0.2207 0.86342 0.03785 0.0
C161 C 0.20383 0.85795 0.94012 0.0
C162 C 0.28529 0.89012 0.99801 0.0
O163 O 0.27058 0.90769 0.0093 0.0
O164 O 0.27418 0.85952 0.98463 0.0
C165 C 0.23781 0.96308 0.04293 0.0
O166 O 0.26494 0.9681 0.04198 0.0
C167 C 0.22144 0.83508 0.04273 0.0
Zn168 Zn 0.38051 0.3759 0.13108 0.0
Zn169 Zn 0.3477 0.41365 0.12792 0.0
O170 O 0.33465 0.38389 0.07819 0.0
O171 O 0.3633 0.35264 0.08197 0.0
O172 O 0.3188 0.44211 0.12846 0.0
O173 O 0.36823 0.3557 0.16838 0.0
O174 O 0.34091 0.38857 0.16881 0.0
C175 C 0.34406 0.36149 0.06406 0.0
C176 C 0.41485 0.44044 0.13589 0.0
O177 O 0.38992 0.44531 0.13153 0.0
O178 O 0.41699 0.41261 0.13967 0.0
C179 C 0.30195 0.44468 0.10174 0.0
O180 O 0.3039 0.43039 0.07176 0.0
C181 C 0.34998 0.36633 0.18079 0.0
Zn182 Zn 0.90175 0.28618 0.2127 0.0
Zn183 Zn 0.89028 0.22261 0.15625 0.0
O184 O 0.92236 0.26496 0.167 0.0
O185 O 0.92437 0.31518 0.18587 0.0
O186 O 0.89725 0.18892 0.12174 0.0
O187 O 0.91851 0.2492 0.22439 0.0
O188 O 0.88489 0.205 0.19906 0.0
C189 C 0.92114 0.2924 0.16041 0.0
C190 C 0.84146 0.24715 0.16096 0.0
O191 O 0.85296 0.23125 0.14145 0.0
O192 O 0.85662 0.26721 0.18903 0.0
C193 C 0.87878 0.16301 0.10275 0.0
O194 O 0.85174 0.15678 0.10444 0.0
C195 C 0.89737 0.2266 0.22644 0.0
Zn196 Zn 0.16009 0.57744 0.36037 0.0
Zn197 Zn 0.18885 0.53309 0.35974 0.0
O198 O 0.16566 0.53684 0.40665 0.0
O199 O 0.13956 0.57048 0.39807 0.0
O200 O 0.21017 0.48737 0.35772 0.0
O201 O 0.13815 0.56498 0.31065 0.0
O202 O 0.15992 0.52637 0.30554 0.0
C203 C 0.14754 0.55205 0.41647 0.0
C204 C 0.21945 0.61221 0.36781 0.0
O205 O 0.22163 0.58238 0.36351 0.0
O206 O 0.19552 0.61644 0.37048 0.0
C207 C 0.23621 0.48388 0.36735 0.0
O208 O 0.25696 0.51119 0.38219 0.0
C209 C 0.14292 0.54191 0.29149 0.0
Zn210 Zn 0.8868 0.88405 0.63239 0.0
Zn211 Zn 0.8519 0.9207 0.629 0.0
O212 O 0.83964 0.88986 0.57976 0.0
O213 O 0.86946 0.85987 0.58347 0.0
O214 O 0.82149 0.94719 0.62807 0.0
O215 O 0.87417 0.86429 0.67038 0.0
O216 O 0.84579 0.89604 0.67009 0.0
C217 C 0.84944 0.86778 0.56575 0.0
C218 C 0.9186 0.95078 0.63677 0.0
O219 O 0.89329 0.95447 0.63339 0.0
O220 O 0.92182 0.92311 0.63974 0.0
C221 C 0.80623 0.9501 0.60037 0.0
O222 O 0.81138 0.938 0.57143 0.0
C223 C 0.85551 0.87442 0.68251 0.0
Zn224 Zn 0.98975 0.96721 0.30875 0.0
Zn225 Zn 0.96142 1.01135 0.31217 0.0
O226 O 0.98679 0.02367 0.36137 0.0
O227 O 1.01258 0.98922 0.35848 0.0
O228 O 0.93859 0.04318 0.31236 0.0
O229 O 1.00236 0.98205 0.26644 0.0
O230 O 0.98161 0.02103 0.27322 0.0
C231 C 1.00596 1.0121 0.37584 0.0
C232 C 0.92901 0.93836 0.30422 0.0
O233 O 0.92898 0.96791 0.30463 0.0
O234 O 0.95232 0.9309 0.30538 0.0
C235 C 0.9483 0.07304 0.32832 0.0
O236 O 0.97519 0.0846 0.34623 0.0
C237 C 0.99645 1.00679 0.25733 0.0
Zn238 Zn 0.38471 0.80473 0.67617 0.0
Zn239 Zn 0.39837 0.72108 0.66828 0.0
O240 O 0.41957 0.74206 0.63539 0.0
O241 O 0.41733 0.78499 0.66788 0.0
O242 O 0.39583 0.67368 0.65798 0.0
O243 O 0.4139 0.78423 0.70182 0.0
O244 O 0.41229 0.73994 0.7197 0.0
C245 C 0.41853 0.77127 0.63852 0.0
C246 C 0.33769 0.73882 0.65381 0.0
O247 O 0.35695 0.72385 0.65705 0.0
O248 O 0.34422 0.77021 0.66009 0.0
C249 C 0.38234 0.6572 0.62805 0.0
O250 O 0.37079 0.67212 0.60616 0.0
C251 C 0.40752 0.76756 0.72365 0.0
Zn252 Zn 0.48965 0.4676 0.80536 0.0
Zn253 Zn 0.4672 0.51675 0.81191 0.0
O254 O 0.49256 0.52439 0.86108 0.0
O255 O 0.5114 0.48356 0.85583 0.0
O256 O 0.44862 0.55328 0.81651 0.0
O257 O 0.50693 0.4838 0.7669 0.0
O258 O 0.48805 0.52456 0.772 0.0
C259 C 0.50804 0.50805 0.87458 0.0
C260 C 0.42862 0.44452 0.79954 0.0
O261 O 0.43199 0.47532 0.80378 0.0
O262 O 0.44999 0.43391 0.79718 0.0
C263 C 0.43093 0.55205 0.8354 0.0
O264 O 0.42652 0.52809 0.85162 0.0
C265 C 0.5031 0.50926 0.75746 0.0
Zn266 Zn 0.66231 0.07707 0.86158 0.0
Zn267 Zn 0.69138 0.03341 0.86065 0.0
O268 O 0.66872 0.03852 0.9084 0.0
O269 O 0.64304 0.07271 0.90032 0.0
O270 O 0.71303 0.98765 0.85879 0.0
O271 O 0.63856 0.06347 0.81294 0.0
O272 O 0.66221 0.02689 0.80627 0.0
C273 C 0.65119 0.05446 0.91878 0.0
C274 C 0.72157 0.11178 0.86742 0.0
O275 O 0.72416 0.08219 0.86404 0.0
O276 O 0.69747 0.11581 0.86951 0.0
C277 C 0.73932 0.98433 0.86685 0.0
O278 O 0.76029 1.01186 0.87961 0.0
C279 C 0.64401 0.04152 0.79301 0.0
Zn280 Zn 0.73983 0.72606 0.06131 0.0
Zn281 Zn 0.77547 0.69047 0.06411 0.0
O282 O 0.78153 0.71547 0.02336 0.0
O283 O 0.75316 0.7472 0.02443 0.0
O284 O 0.80412 0.66241 0.06513 0.0
O285 O 0.75689 0.74818 0.11108 0.0
O286 O 0.78818 0.71998 0.11362 0.0
C287 C 0.77171 0.73739 0.01175 0.0
C288 C 0.70889 0.6595 0.05583 0.0
O289 O 0.73458 0.657 0.06038 0.0
O290 O 0.70474 0.68656 0.05196 0.0
C291 C 0.83064 0.67413 0.06528 0.0
O292 O 0.84002 0.7051 0.06396 0.0
C293 C 0.77745 0.74072 0.12833 0.0
Zn294 Zn 0.96498 0.53849 0.82742 0.0
Zn295 Zn 0.93545 0.58289 0.83069 0.0
O296 O 0.96474 0.58884 0.88443 0.0
O297 O 0.98806 0.55191 0.8771 0.0
O298 O 0.91316 0.62785 0.83201 0.0
O299 O 0.98364 0.54541 0.78779 0.0
O300 O 0.95858 0.58074 0.78359 0.0
C301 C 0.98268 0.57375 0.89732 0.0
C302 C 0.90567 0.50361 0.82272 0.0
O303 O 0.90318 0.5333 0.82708 0.0
O304 O 0.92953 0.49965 0.8192 0.0
C305 C 0.88709 0.63098 0.83148 0.0
O306 O 0.86715 0.60389 0.83044 0.0
C307 C 0.97577 0.56537 0.77148 0.0
Zn308 Zn 0.73985 0.30536 0.47976 0.0
Zn309 Zn 0.72264 0.38796 0.50158 0.0
O310 O 0.70188 0.3681 0.45074 0.0
O311 O 0.70679 0.32667 0.4712 0.0
O312 O 0.725 0.43545 0.51397 0.0
O313 O 0.7198 0.33137 0.50801 0.0
O314 O 0.70809 0.36688 0.54008 0.0
C315 C 0.70306 0.33884 0.44519 0.0
C316 C 0.78437 0.37208 0.50021 0.0
O317 O 0.76426 0.38532 0.50338 0.0
O318 O 0.77921 0.34096 0.48998 0.0
C319 C 0.73941 0.45078 0.54401 0.0
O320 O 0.75218 0.43494 0.56373 0.0
C321 C 0.71499 0.34055 0.53679 0.0
Zn322 Zn 0.63247 0.63159 0.38379 0.0
Zn323 Zn 0.65887 0.58621 0.38297 0.0
O324 O 0.63725 0.58031 0.42237 0.0
O325 O 0.6154 0.61855 0.42361 0.0
O326 O 0.67794 0.55025 0.38345 0.0
O327 O 0.61098 0.61136 0.33398 0.0
O328 O 0.63436 0.5745 0.33262 0.0
C329 C 0.62095 0.5948 0.4353 0.0
C330 C 0.69386 0.65808 0.38975 0.0
O331 O 0.69319 0.62828 0.38934 0.0
O332 O 0.671 0.66643 0.38898 0.0
C333 C 0.69064 0.54355 0.36027 0.0
O334 O 0.69152 0.56092 0.33677 0.0
C335 C 0.61696 0.58772 0.31713 0.0
Tb336 Tb 0.0335 0.03177 0.07195 0.0
Tb337 Tb 0.08588 0.07832 0.1188 0.0
C338 C 0.98046 1.00442 0.04787 0.0
C339 C 0.95655 0.01855 0.03909 0.0
C340 C 0.93464 1.01333 0.05662 0.0
C341 C 0.91724 0.03417 0.05783 0.0
C342 C 0.92141 0.06045 0.04135 0.0
C343 C 0.94086 0.06303 0.02028 0.0
C344 C 0.95846 0.04237 0.01933 0.0
C345 C 0.0765 0.04794 0.0423 0.0
C346 C 0.04235 0.1111 0.08203 0.0
C347 C 0.13844 0.10912 0.1425 0.0
C348 C 0.16424 0.09932 0.13781 0.0
C349 C 0.17495 0.10429 0.10898 0.0
C350 C 0.19314 0.08692 0.09848 0.0
C351 C 0.20116 0.06477 0.11693 0.0
C352 C 0.1938 0.06324 0.14816 0.0
C353 C 0.17539 0.08039 0.15858 0.0
C354 C 0.04344 0.05984 0.14925 0.0
C355 C 0.07775 0.99917 0.10718 0.0
O356 O 0.99297 1.01231 0.08051 0.0
O357 O 0.99921 1.00664 0.02903 0.0
O358 O 0.06967 0.0664 0.0646 0.0
O359 O 0.05791 0.01883 0.03514 0.0
O360 O 0.02598 0.08031 0.06776 0.0
O361 O 0.06706 0.11667 0.10465 0.0
O362 O 0.1226 0.11273 0.11477 0.0
O363 O 0.12259 0.09308 0.16005 0.0
O364 O 0.05039 0.04285 0.12595 0.0
O365 O 0.06173 0.08914 0.15701 0.0
O366 O 0.0957 0.02986 0.11665 0.0
O367 O 0.05088 0.99376 0.08959 0.0
H368 H 0.93272 0.99506 0.07197 0.0
H369 H 0.90237 0.03148 0.07417 0.0
H370 H 0.94393 0.08255 1.00657 0.0
H371 H 0.97495 0.0467 1.00524 0.0
H372 H 0.16734 0.11937 0.09284 0.0
H373 H 0.19876 0.08855 0.07438 0.0
H374 H 0.20046 0.04675 0.16303 0.0
H375 H 0.16815 0.07673 0.18139 0.0
Tb376 Tb 0.31488 0.79399 0.31388 0.0
Tb377 Tb 0.30945 0.82285 0.37781 0.0
C378 C 0.3118 0.77857 0.25111 0.0
C379 C 0.29802 0.79021 0.22269 0.0
C380 C 0.28492 0.81512 0.22897 0.0
C381 C 0.26771 0.82261 0.20198 0.0
C382 C 0.26355 0.8054 0.16835 0.0
C383 C 0.27792 0.78159 0.16215 0.0
C384 C 0.29476 0.7738 0.18918 0.0
C385 C 0.35491 0.78746 0.36414 0.0
C386 C 0.33861 0.8734 0.33876 0.0
C387 C 0.31209 0.83846 0.44051 0.0
C388 C 0.32527 0.82635 0.46892 0.0
C389 C 0.34179 0.80499 0.46303 0.0
C390 C 0.35725 0.79608 0.49025 0.0
C391 C 0.35629 0.80832 0.5238 0.0
C392 C 0.33882 0.82878 0.52951 0.0
C393 C 0.32353 0.83792 0.50218 0.0
C394 C 0.26842 0.82792 0.32737 0.0
C395 C 0.28624 0.74339 0.35299 0.0
O396 O 0.29371 0.76269 0.26624 0.0
O397 O 0.33426 0.79981 0.27294 0.0
O398 O 0.34634 0.81264 0.36299 0.0
O399 O 0.34301 0.76667 0.33536 0.0
O400 O 0.32861 0.84743 0.31263 0.0
O401 O 0.33608 0.86889 0.36932 0.0
O402 O 0.33055 0.85403 0.42555 0.0
O403 O 0.28965 0.81742 0.41848 0.0
O404 O 0.27796 0.80346 0.32883 0.0
O405 O 0.28035 0.84906 0.35596 0.0
O406 O 0.29633 0.76932 0.37923 0.0
O407 O 0.28827 0.74808 0.32235 0.0
H408 H 0.28704 0.82783 0.25483 0.0
H409 H 0.25709 0.84121 0.20745 0.0
H410 H 0.27607 0.76886 0.13636 0.0
H411 H 0.30471 0.7545 0.18398 0.0
H412 H 0.34338 0.79604 0.43742 0.0
H413 H 0.37055 0.78034 0.48515 0.0
H414 H 0.33715 0.83786 0.55509 0.0
H415 H 0.31084 0.85444 0.50704 0.0
Tb416 Tb 0.59321 0.05857 0.58325 0.0
Tb417 Tb 0.53456 0.05239 0.60339 0.0
C418 C 0.64462 0.05893 0.58384 0.0
C419 C 0.66629 0.04093 0.59249 0.0
C420 C 0.69439 0.05836 0.61204 0.0
C421 C 0.71643 0.04304 0.6157 0.0
C422 C 0.71105 1.00991 0.59956 0.0
C423 C 0.68257 0.99209 0.58147 0.0
C424 C 0.66058 1.00736 0.5779 0.0
C425 C 0.55341 0.06643 0.5302 0.0
C426 C 0.54963 0.98688 0.57611 0.0
C427 C 0.48293 0.05066 0.60267 0.0
C428 C 0.46029 0.06653 0.59231 0.0
C429 C 0.4662 0.09625 0.58146 0.0
C430 C 0.44453 0.11172 0.57452 0.0
C431 C 0.41667 0.09807 0.57882 0.0
C432 C 0.41084 0.06798 0.589 0.0
C433 C 0.43235 0.05248 0.59565 0.0
C434 C 0.57416 0.04533 0.65682 0.0
C435 C 0.57827 0.12398 0.61074 0.0
O436 O 0.63758 0.07606 0.60867 0.0
O437 O 0.6224 0.044 0.55794 0.0
O438 O 0.55056 0.0606 0.55929 0.0
O439 O 0.58009 0.0678 0.53138 0.0
O440 O 0.576 1.00522 0.57754 0.0
O441 O 0.52918 1.00019 0.58249 0.0
O442 O 0.49032 0.03286 0.57869 0.0
O443 O 0.50519 0.06823 0.62752 0.0
O444 O 0.57722 0.05057 0.62758 0.0
O445 O 0.54752 0.04413 0.65551 0.0
O446 O 0.55171 0.1058 0.60886 0.0
O447 O 0.59877 0.11052 0.60494 0.0
H448 H 0.69962 0.08427 0.62343 0.0
H449 H 0.73802 0.05755 0.62988 0.0
H450 H 0.67738 0.96637 0.56933 0.0
H451 H 0.63932 0.99308 0.56264 0.0
H452 H 0.48761 0.10768 0.57881 0.0
H453 H 0.44976 0.13479 0.5666 0.0
H454 H 0.38955 0.05633 0.59183 0.0
H455 H 0.42724 0.02962 0.60401 0.0
Tb456 Tb 0.28326 0.3168 0.84061 0.0
Tb457 Tb 0.3395 0.29676 0.84983 0.0
C458 C 0.23387 0.32308 0.8417 0.0
C459 C 0.21146 0.32049 0.86166 0.0
C460 C 0.20301 0.29402 0.8772 0.0
C461 C 0.18011 0.29145 0.8935 0.0
C462 C 0.16522 0.3153 0.89469 0.0
C463 C 0.17371 0.34149 0.8788 0.0
C464 C 0.19651 0.34408 0.86271 0.0
C465 C 0.32759 0.3586 0.82818 0.0
C466 C 0.3221 0.32459 0.91543 0.0
C467 C 0.389 0.29118 0.84783 0.0
C468 C 0.41193 0.29874 0.82857 0.0
C469 C 0.43336 0.32939 0.838 0.0
C470 C 0.4561 0.33571 0.82173 0.0
C471 C 0.45847 0.31141 0.79589 0.0
C472 C 0.4373 0.28063 0.78668 0.0
C473 C 0.41432 0.27442 0.8027 0.0
C474 C 0.29425 0.25417 0.86003 0.0
C475 C 0.30025 0.28776 0.77516 0.0
O476 O 0.23835 0.29596 0.82776 0.0
O477 O 0.25785 0.34728 0.85351 0.0
O478 O 0.32866 0.34153 0.85046 0.0
O479 O 0.30079 0.35545 0.81494 0.0
O480 O 0.29642 0.3215 0.89599 0.0
O481 O 0.34374 0.32003 0.90252 0.0
O482 O 0.38457 0.31593 0.86704 0.0
O483 O 0.36481 0.26812 0.83241 0.0
O484 O 0.2942 0.27195 0.83851 0.0
O485 O 0.32087 0.25751 0.87453 0.0
O486 O 0.32632 0.29286 0.79472 0.0
O487 O 0.2785 0.29198 0.78813 0.0
H488 H 0.21389 0.2752 0.87653 0.0
H489 H 0.17418 0.27091 0.90536 0.0
H490 H 0.16235 0.35983 0.87823 0.0
H491 H 0.20213 0.36437 0.8504 0.0
H492 H 0.43276 0.34856 0.85827 0.0
H493 H 0.4722 0.35953 0.82985 0.0
H494 H 0.43842 0.26136 0.76688 0.0
H495 H 0.39863 0.25033 0.79512 0.0
Tb496 Tb 0.06369 0.08578 0.60016 0.0
Tb497 Tb 0.06955 0.01612 0.59167 0.0
C498 C 0.08283 0.14597 0.6055 0.0
C499 C 0.09406 0.16298 0.58079 0.0
C500 C 0.09185 0.1446 0.54833 0.0
C501 C 0.09555 0.16001 0.52164 0.0
C502 C 0.10075 0.19404 0.52711 0.0
C503 C 0.10687 0.21281 0.56065 0.0
C504 C 0.10331 0.19722 0.58748 0.0
C505 C 1.01801 0.04583 0.61317 0.0
C506 C 0.04421 0.04085 0.52531 0.0
C507 C 0.05861 0.95498 0.5786 0.0
C508 C 0.05235 0.93165 0.59999 0.0
C509 C 0.05114 0.94313 0.63357 0.0
C510 C 0.0475 0.92177 0.65529 0.0
C511 C 0.04539 0.88872 0.64376 0.0
C512 C 0.04544 0.87686 0.60972 0.0
C513 C 0.04898 0.89837 0.58785 0.0
C514 C 0.11595 0.06257 0.59033 0.0
C515 C 0.08315 0.05872 0.66611 0.0
O516 O 0.09848 0.12857 0.61858 0.0
O517 O 0.05517 0.12991 0.59533 0.0
O518 O 0.03983 0.03979 0.60517 0.0
O519 O 0.02147 0.07683 0.61387 0.0
O520 O 0.04657 0.06963 0.54473 0.0
O521 O 0.05222 0.01747 0.53844 0.0
O522 O 0.03907 0.97003 0.57165 0.0
O523 O 0.08484 0.97514 0.58824 0.0
O524 O 0.08988 0.06008 0.5779 0.0
O525 O 0.11669 0.03715 0.60315 0.0
O526 O 0.07525 0.02853 0.647 0.0
O527 O 0.08348 0.08456 0.65247 0.0
H528 H 0.08449 0.11819 0.54282 0.0
H529 H 0.09046 0.14511 0.49599 0.0
H530 H 0.1106 0.23915 0.56539 0.0
H531 H 0.10527 0.21171 0.61252 0.0
H532 H 0.05374 0.96874 0.64332 0.0
H533 H 0.04719 0.93122 0.68138 0.0
H534 H 0.04391 0.85134 0.60053 0.0
H535 H 0.04991 0.88928 0.56193 0.0
Tb536 Tb 0.30712 0.76641 0.84765 0.0
Tb537 Tb 0.31037 0.83492 0.83431 0.0
C538 C 0.3128 0.71077 0.84952 0.0
C539 C 0.33424 0.69245 0.85002 0.0
C540 C 0.34957 0.69044 0.82463 0.0
C541 C 0.36662 0.6691 0.82329 0.0
C542 C 0.36898 0.64988 0.84773 0.0
C543 C 0.3554 0.65403 0.87463 0.0
C544 C 0.3379 0.67473 0.87546 0.0
C545 C 0.28263 0.79982 0.88651 0.0
C546 C 0.36789 0.82226 0.86941 0.0
C547 C 0.31542 0.8951 0.84074 0.0
C548 C 0.29655 0.91654 0.84317 0.0
C549 C 0.2954 0.93308 0.87524 0.0
C550 C 0.27904 0.95501 0.87749 0.0
C551 C 0.26384 0.96108 0.84774 0.0
C552 C 0.26435 0.94393 0.81575 0.0
C553 C 0.28065 0.92201 0.81346 0.0
C554 C 0.3167 0.79158 0.78394 0.0
C555 C 0.25107 0.78114 0.81157 0.0
O556 O 0.30342 0.71927 0.82098 0.0
O557 O 0.31682 0.73354 0.87697 0.0
O558 O 0.30437 0.81148 0.87545 0.0
O559 O 0.27697 0.76827 0.87948 0.0
O560 O 0.35302 0.792 0.86941 0.0
O561 O 0.35582 0.84286 0.85622 0.0
O562 O 0.32105 0.8815 0.86651 0.0
O563 O 0.31068 0.87483 0.81134 0.0
O564 O 0.32496 0.79494 0.81551 0.0
O565 O 0.30528 0.81503 0.77983 0.0
O566 O 0.26477 0.81275 0.82279 0.0
O567 O 0.26503 0.75854 0.81227 0.0
H568 H 0.34784 0.7047 0.80541 0.0
H569 H 0.37711 0.66682 0.80249 0.0
H570 H 0.35776 0.6407 0.89469 0.0
H571 H 0.32664 0.67629 0.89563 0.0
H572 H 0.30755 0.92955 0.89861 0.0
H573 H 0.27894 0.96795 0.90246 0.0
H574 H 0.25234 0.94772 0.79244 0.0
H575 H 0.28109 0.90975 0.78837 0.0
Tb576 Tb 0.5375 0.05225 0.06881 0.0
Tb577 Tb 0.59414 0.08353 0.12289 0.0
C578 C 0.49559 1.00575 0.03276 0.0
C579 C 0.46527 0.98904 0.02945 0.0
C580 C 0.45398 0.95637 0.01112 0.0
C581 C 0.42482 0.93996 1.00584 0.0
C582 C 0.40656 0.95609 0.01881 0.0
C583 C 0.4182 0.98857 0.03828 0.0
C584 C 0.44744 1.00501 0.04353 0.0
C585 C 0.54838 0.11565 0.09217 0.0
C586 C 0.53566 0.06534 0.15146 0.0
C587 C 0.63771 0.12945 0.15685 0.0
C588 C 0.66681 0.14699 0.15496 0.0
C589 C 0.67338 0.14938 0.12343 0.0
C590 C 0.70037 0.16874 0.12228 0.0
C591 C 0.72124 0.18606 0.15263 0.0
C592 C 0.71467 0.18318 0.18414 0.0
C593 C 0.68763 0.16394 0.18525 0.0
C594 C 0.58077 0.01982 0.09964 0.0
C595 C 0.59577 0.07132 0.04041 0.0
O596 O 0.51393 1.00271 0.05893 0.0
O597 O 0.50181 0.03546 0.02694 0.0
O598 O 0.55526 0.09462 0.10715 0.0
O599 O 0.53168 0.09968 0.06226 0.0
O600 O 0.52141 0.05249 0.1182 0.0
O601 O 0.56447 0.07877 0.15888 0.0
O602 O 0.61648 0.13329 0.13475 0.0
O603 O 0.63305 0.09914 0.16098 0.0
O604 O 0.57627 0.04143 0.08421 0.0
O605 O 0.59605 0.03441 0.1307 0.0
O606 O 0.6103 0.08202 0.07365 0.0
O607 O 0.56686 0.06064 0.03308 0.0
H608 H 0.46767 0.94369 1.00042 0.0
H609 H 0.41642 0.91491 0.99095 0.0
H610 H 0.40469 1.00121 0.04938 0.0
H611 H 0.45604 0.03013 0.05823 0.0
H612 H 0.65752 0.13675 0.09971 0.0
H613 H 0.70485 0.17037 0.09764 0.0
H614 H 0.73056 0.19542 0.20796 0.0
H615 H 0.68286 0.16254 0.20982 0.0
Tb616 Tb 0.28231 0.28322 0.33249 0.0
Tb617 Tb 0.33724 0.33087 0.36686 0.0
C618 C 0.23018 0.25304 0.32641 0.0
C619 C 0.20554 0.26488 0.33258 0.0
C620 C 0.21008 0.29334 0.35769 0.0
C621 C 0.18697 0.30449 0.36387 0.0
C622 C 0.15847 0.28709 0.34575 0.0
C623 C 0.15392 0.25814 0.32104 0.0
C624 C 0.17723 0.24739 0.31429 0.0
C625 C 0.31022 0.30773 0.28974 0.0
C626 C 0.28521 0.36304 0.35671 0.0
C627 C 0.38988 0.35947 0.377 0.0
C628 C 0.41326 0.34433 0.37316 0.0
C629 C 0.41939 0.33761 0.34102 0.0
C630 C 0.43726 0.31808 0.33518 0.0
C631 C 0.44975 0.30505 0.36138 0.0
C632 C 0.44537 0.31352 0.39415 0.0
C633 C 0.42712 0.33282 0.39996 0.0
C634 C 0.30922 0.30318 0.40849 0.0
C635 C 0.3361 0.25256 0.3406 0.0
O636 O 0.25075 0.25744 0.35364 0.0
O637 O 0.24047 0.2605 0.30057 0.0
O638 O 0.30874 0.32338 0.31808 0.0
O639 O 0.29435 0.27729 0.28387 0.0
O640 O 0.26968 0.33127 0.34379 0.0
O641 O 0.31381 0.36934 0.36735 0.0
O642 O 0.37097 0.35645 0.3486 0.0
O643 O 0.37748 0.35388 0.40188 0.0
O644 O 0.31153 0.28964 0.3799 0.0
O645 O 0.32383 0.33411 0.41532 0.0
O646 O 0.35088 0.28444 0.35343 0.0
O647 O 0.30719 0.24525 0.33067 0.0
H648 H 0.23153 0.30698 0.37293 0.0
H649 H 0.19156 0.32689 0.38298 0.0
H650 H 0.13234 0.24319 0.30745 0.0
H651 H 0.17309 0.22506 0.29522 0.0
H652 H 0.40945 0.34635 0.31985 0.0
H653 H 0.44102 0.31275 0.30994 0.0
H654 H 0.45509 0.30409 0.41487 0.0
H655 H 0.42303 0.33765 0.42507 0.0
Tb656 Tb 0.55677 0.57379 0.09833 0.0
Tb657 Tb 0.57295 0.51548 0.09348 0.0
C658 C 0.55523 0.63136 0.105 0.0
C659 C 0.54875 0.64692 0.07673 0.0
C660 C 0.56652 0.67788 0.0772 0.0
C661 C 0.56266 0.69096 0.04842 0.0
C662 C 0.54108 0.67309 0.01887 0.0
C663 C 0.52359 0.64191 0.01825 0.0
C664 C 0.52748 0.62881 0.04697 0.0
C665 C 0.51392 0.5232 0.10007 0.0
C666 C 0.54371 0.53269 0.02441 0.0
C667 C 0.57269 0.45683 0.08428 0.0
C668 C 0.56968 0.43487 0.10772 0.0
C669 C 0.58157 0.44737 0.1429 0.0
C670 C 0.57561 0.42774 0.16581 0.0
C671 C 0.55758 0.3954 0.1539 0.0
C672 C 0.54603 0.38269 0.11866 0.0
C673 C 0.55198 0.40243 0.09566 0.0
C674 C 0.61501 0.56644 0.08996 0.0
C675 C 0.58512 0.557 0.16701 0.0
O676 O 0.57935 0.6237 0.10773 0.0
O677 O 0.53391 0.60756 0.10761 0.0
O678 O 0.54028 0.52941 0.11484 0.0
O679 O 0.5112 0.54588 0.08373 0.0
O680 O 0.54691 0.56204 0.0427 0.0
O681 O 0.55053 0.51005 0.03973 0.0
O682 O 0.54972 0.46586 0.07438 0.0
O683 O 0.59638 0.48143 0.09316 0.0
O684 O 0.58851 0.55935 0.07617 0.0
O685 O 0.61881 0.54367 0.1057 0.0
O686 O 0.5799 0.52688 0.14914 0.0
O687 O 0.58103 0.58021 0.15107 0.0
H688 H 0.58344 0.69174 0.09967 0.0
H689 H 0.57584 0.71557 0.0497 0.0
H690 H 0.50657 0.62808 0.99586 0.0
H691 H 0.51392 0.60442 0.04574 0.0
H692 H 0.595 0.47252 0.15283 0.0
H693 H 0.58473 0.43798 0.19289 0.0
H694 H 0.53259 0.35749 0.10894 0.0
H695 H 0.54238 0.39262 0.0686 0.0
Tb696 Tb 0.78987 0.24404 0.32899 0.0
Tb697 Tb 0.80064 0.31791 0.33284 0.0
C698 C 0.79405 0.18696 0.31976 0.0
C699 C 0.81855 0.17315 0.32095 0.0
C700 C 0.82844 0.16567 0.29154 0.0
C701 C 0.85172 0.15284 0.29294 0.0
C702 C 0.86531 0.1468 0.32367 0.0
C703 C 0.85535 0.1541 0.35301 0.0
C704 C 0.83225 0.16718 0.35169 0.0
C705 C 0.76863 0.27387 0.37479 0.0
C706 C 0.85139 0.29506 0.36747 0.0
C707 C 0.79879 0.37605 0.33996 0.0
C708 C 0.77833 0.39503 0.34497 0.0
C709 C 0.78249 0.41605 0.37675 0.0
C710 C 0.76586 0.43756 0.38056 0.0
C711 C 0.74484 0.4385 0.3526 0.0
C712 C 0.73984 0.4165 0.32124 0.0
C713 C 0.75639 0.39498 0.31743 0.0
C714 C 0.82265 0.28757 0.28817 0.0
C715 C 0.73765 0.26675 0.30051 0.0
O716 O 0.78812 0.20146 0.29464 0.0
O717 O 0.79258 0.20322 0.34902 0.0
O718 O 0.7917 0.28601 0.36636 0.0
O719 O 0.75904 0.24288 0.36035 0.0
O720 O 0.8359 0.2647 0.35175 0.0
O721 O 0.84056 0.32014 0.36784 0.0
O722 O 0.80856 0.3638 0.36542 0.0
O723 O 0.79328 0.35592 0.31019 0.0
O724 O 0.79914 0.27595 0.29574 0.0
O725 O 0.83229 0.31845 0.30266 0.0
O726 O 0.754 0.29715 0.31507 0.0
O727 O 0.74857 0.24175 0.29729 0.0
H728 H 0.81804 0.16944 0.26737 0.0
H729 H 0.85892 0.14727 0.26989 0.0
H730 H 0.86487 0.14882 0.37679 0.0
H731 H 0.82492 0.17223 0.37473 0.0
H732 H 0.79936 0.4168 0.39835 0.0
H733 H 0.77045 0.45457 0.4049 0.0
H734 H 0.72362 0.4166 0.29936 0.0
H735 H 0.75257 0.37912 0.29258 0.0
Tb736 Tb 0.03399 0.54818 0.56789 0.0
Tb737 Tb 0.09138 0.57224 0.6213 0.0
C738 C 0.98917 0.50723 0.52965 0.0
C739 C 0.95853 0.49212 0.52646 0.0
C740 C 0.94674 0.49316 0.555 0.0
C741 C 0.91816 0.47508 0.55154 0.0
C742 C 0.90117 0.45585 0.51953 0.0
C743 C 0.91296 0.45563 0.49096 0.0
C744 C 0.94143 0.47368 0.49443 0.0
C745 C 0.05049 0.6115 0.59531 0.0
C746 C 0.03322 0.55844 0.65072 0.0
C747 C 0.13759 0.61258 0.65741 0.0
C748 C 0.16734 0.62704 0.65577 0.0
C749 C 0.18649 0.6502 0.68412 0.0
C750 C 0.21382 0.66743 0.68187 0.0
C751 C 0.22236 0.66171 0.65118 0.0
C752 C 0.20328 0.63799 0.62297 0.0
C753 C 0.17594 0.62077 0.62528 0.0
C754 C 0.07266 0.50888 0.59462 0.0
C755 C 0.09232 0.56362 0.53895 0.0
O756 O 1.00705 0.50003 0.55325 0.0
O757 O 0.99735 0.5381 0.52767 0.0
O758 O 0.0549 0.58835 0.60827 0.0
O759 O 0.03313 0.59826 0.56515 0.0
O760 O 0.01839 0.54677 0.61753 0.0
O761 O 0.06212 0.5701 0.65758 0.0
O762 O 0.11808 0.62044 0.63656 0.0
O763 O 0.12977 0.58146 0.65879 0.0
O764 O 0.07043 0.5321 0.58065 0.0
O765 O 0.0884 0.52119 0.62585 0.0
O766 O 0.10711 0.57211 0.57203 0.0
O767 O 0.06339 0.555 0.5319 0.0
H768 H 0.95983 0.50712 0.57998 0.0
H769 H 0.90963 0.47529 0.57402 0.0
H770 H 0.90022 0.44116 0.46602 0.0
H771 H 0.95035 0.47251 0.47223 0.0
H772 H 0.18003 0.65558 0.70774 0.0
H773 H 0.22821 0.68542 0.70404 0.0
H774 H 0.20918 0.63344 0.59887 0.0
H775 H 0.16125 0.60333 0.60307 0.0
Tb776 Tb 0.78336 0.8088 0.34246 0.0
Tb777 Tb 0.83941 0.78906 0.35223 0.0
C778 C 0.73395 0.81457 0.3445 0.0
C779 C 0.71183 0.81094 0.36514 0.0
C780 C 0.6875 0.78296 0.35568 0.0
C781 C 0.6644 0.78135 0.37134 0.0
C782 C 0.66475 0.80784 0.39669 0.0
C783 C 0.68963 0.83522 0.40721 0.0
C784 C 0.71274 0.83684 0.39155 0.0
C785 C 0.828 0.85092 0.33082 0.0
C786 C 0.82305 0.81958 0.41748 0.0
C787 C 0.88824 0.78193 0.34909 0.0
C788 C 0.91041 0.78755 0.32856 0.0
C789 C 0.93371 0.81664 0.33788 0.0
C790 C 0.95675 0.81999 0.32186 0.0
C791 C 0.95738 0.79421 0.29633 0.0
C792 C 0.93347 0.76574 0.28598 0.0
C793 C 0.91046 0.76238 0.30196 0.0
C794 C 0.79425 0.74687 0.36308 0.0
C795 C 0.80073 0.78068 0.27714 0.0
O796 O 0.73838 0.78783 0.32938 0.0
O797 O 0.75792 0.83884 0.35608 0.0
O798 O 0.82868 0.83391 0.35312 0.0
O799 O 0.80122 0.84708 0.31654 0.0
O800 O 0.79696 0.81445 0.39793 0.0
O801 O 0.84459 0.81461 0.40454 0.0
O802 O 0.88464 0.80764 0.3675 0.0
O803 O 0.86372 0.75888 0.33537 0.0
O804 O 0.79416 0.76392 0.34088 0.0
O805 O 0.82085 0.75098 0.37831 0.0
O806 O 0.82663 0.7855 0.29701 0.0
O807 O 0.77883 0.78471 0.28985 0.0
H808 H 0.68579 0.76269 0.33519 0.0
H809 H 0.6457 0.75986 0.36255 0.0
H810 H 0.69107 0.85577 0.42723 0.0
H811 H 0.73094 0.85887 0.39952 0.0
H812 H 0.93468 0.8365 0.35842 0.0
H813 H 0.97467 0.84229 0.3305 0.0
H814 H 0.93275 0.74567 0.26584 0.0
H815 H 0.89308 0.73958 0.29406 0.0
Tb816 Tb 0.81589 0.29279 0.80901 0.0
Tb817 Tb 0.81037 0.32255 0.88245 0.0
C818 C 0.79987 0.27052 0.74593 0.0
C819 C 0.7858 0.28088 0.71621 0.0
C820 C 0.80256 0.29969 0.69831 0.0
C821 C 0.78938 0.30887 0.66978 0.0
C822 C 0.75923 0.29918 0.65841 0.0
C823 C 0.74233 0.28083 0.6764 0.0
C824 C 0.75552 0.27157 0.70501 0.0
C825 C 0.85925 0.28957 0.85807 0.0
C826 C 0.83851 0.37215 0.83768 0.0
C827 C 0.82492 0.34308 0.94577 0.0
C828 C 0.83751 0.33099 0.97503 0.0
C829 C 0.8676 0.33878 0.98694 0.0
C830 C 0.87946 0.32808 0.01516 0.0
C831 C 0.86146 0.30969 0.03214 0.0
C832 C 0.83145 0.30139 0.02001 0.0
C833 C 0.81957 0.31203 0.99176 0.0
C834 C 0.76675 0.32517 0.83337 0.0
C835 C 0.78816 0.24323 0.85373 0.0
O836 O 0.78397 0.26201 0.76709 0.0
O837 O 0.82645 0.28816 0.76173 0.0
O838 O 0.83782 0.29989 0.86042 0.0
O839 O 0.85707 0.28112 0.82548 0.0
O840 O 0.83205 0.34646 0.8113 0.0
O841 O 0.8333 0.36797 0.86783 0.0
O842 O 0.84174 0.35202 0.92562 0.0
O843 O 0.79836 0.32649 0.92885 0.0
O844 O 0.78828 0.31507 0.83107 0.0
O845 O 0.76909 0.334 0.86594 0.0
O846 O 0.79441 0.26886 0.88007 0.0
O847 O 0.79336 0.24746 0.82367 0.0
H848 H 0.82589 0.30715 0.70617 0.0
H849 H 0.80277 0.32332 0.65633 0.0
H850 H 0.71903 0.27306 0.66788 0.0
H851 H 0.74199 0.25693 0.71816 0.0
H852 H 0.88204 0.35343 0.97471 0.0
H853 H 0.90268 0.33497 0.02435 0.0
H854 H 0.81723 0.28715 0.03277 0.0
H855 H 0.79633 0.30572 0.98331 0.0
Tb856 Tb 0.78486 0.78426 0.82866 0.0
Tb857 Tb 0.83993 0.8294 0.86565 0.0
C858 C 0.73228 0.7541 0.81847 0.0
C859 C 0.70869 0.76604 0.82774 0.0
C860 C 0.71457 0.79121 0.85692 0.0
C861 C 0.69263 0.80302 0.86581 0.0
C862 C 0.66405 0.78962 0.84616 0.0
C863 C 0.65809 0.76402 0.81716 0.0
C864 C 0.68028 0.75254 0.80789 0.0
C865 C 0.815 0.81071 0.78829 0.0
C866 C 0.78852 0.86333 0.85609 0.0
C867 C 0.89305 0.85689 0.87799 0.0
C868 C 0.9162 0.8415 0.87417 0.0
C869 C 0.91297 0.81816 0.84422 0.0
C870 C 0.93377 0.80205 0.84115 0.0
C871 C 0.95848 0.80895 0.86776 0.0
C872 C 0.96189 0.83232 0.89773 0.0
C873 C 0.94085 0.84838 0.90094 0.0
C874 C 0.80959 0.80247 0.90566 0.0
C875 C 0.83635 0.7505 0.83723 0.0
O876 O 0.75215 0.75364 0.8444 0.0
O877 O 0.74344 0.76614 0.79508 0.0
O878 O 0.8129 0.82492 0.81686 0.0
O879 O 0.79889 0.78028 0.78089 0.0
O880 O 0.77254 0.83184 0.8429 0.0
O881 O 0.81716 0.8689 0.86641 0.0
O882 O 0.87489 0.85546 0.84955 0.0
O883 O 0.8799 0.84995 0.9019 0.0
O884 O 0.8121 0.78863 0.87721 0.0
O885 O 0.82528 0.83304 0.91308 0.0
O886 O 0.85224 0.7817 0.85197 0.0
O887 O 0.80789 0.74519 0.82585 0.0
H888 H 0.7362 0.80185 0.87305 0.0
H889 H 0.69816 0.82288 0.88813 0.0
H890 H 0.63623 0.75232 0.80201 0.0
H891 H 0.6752 0.73289 0.78548 0.0
H892 H 0.8942 0.81204 0.82308 0.0
H893 H 0.93071 0.78446 0.81762 0.0
H894 H 0.98071 0.83802 0.91871 0.0
H895 H 0.94373 0.866 0.92438 0.0
Tb896 Tb 0.53058 0.53502 0.58263 0.0
Tb897 Tb 0.59119 0.57383 0.60974 0.0
C898 C 0.47945 0.50029 0.5733 0.0
C899 C 0.45261 0.50933 0.56784 0.0
C900 C 0.43177 0.49722 0.58514 0.0
C901 C 0.41113 0.5133 0.58972 0.0
C902 C 0.41142 0.54178 0.57728 0.0
C903 C 0.43026 0.55153 0.55673 0.0
C904 C 0.4508 0.53549 0.55214 0.0
C905 C 0.5596 0.54654 0.53558 0.0
C906 C 0.54404 0.61036 0.58286 0.0
C907 C 0.64233 0.60685 0.61586 0.0
C908 C 0.66806 0.59589 0.61518 0.0
C909 C 0.68527 0.60619 0.59316 0.0
C910 C 0.70509 0.58989 0.58543 0.0
C911 C 0.70803 0.56317 0.59978 0.0
C912 C 0.69213 0.55441 0.62359 0.0
C913 C 0.67231 0.57057 0.63118 0.0
C914 C 0.5629 0.56204 0.65748 0.0
C915 C 0.57745 0.49871 0.61 0.0
O916 O 0.49671 0.51432 0.60346 0.0
O917 O 0.49316 0.50159 0.54899 0.0
O918 O 0.56871 0.53908 0.56346 0.0
O919 O 0.53293 0.54579 0.53273 0.0
O920 O 0.5234 0.58348 0.5822 0.0
O921 O 0.57158 0.6112 0.59203 0.0
O922 O 0.62282 0.59675 0.58689 0.0
O923 O 0.63099 0.60344 0.64192 0.0
O924 O 0.55318 0.56911 0.62951 0.0
O925 O 0.58997 0.56483 0.66038 0.0
O926 O 0.59795 0.5251 0.60924 0.0
O927 O 0.55 0.49831 0.60203 0.0
H928 H 0.433 0.47716 0.59759 0.0
H929 H 0.39652 0.50509 0.60526 0.0
H930 H 0.43106 0.57351 0.54699 0.0
H931 H 0.46684 0.54547 0.53895 0.0
H932 H 0.68198 0.62533 0.58015 0.0
H933 H 0.71692 0.59693 0.56681 0.0
H934 H 0.69328 0.53334 0.63433 0.0
H935 H 0.65892 0.56165 0.64772 0.0
Tb936 Tb 0.09278 0.55968 0.0844 0.0
Tb937 Tb 0.03265 0.55192 0.10331 0.0
C938 C 0.14444 0.56003 0.08698 0.0
C939 C 0.16525 0.54062 0.09428 0.0
C940 C 0.19127 0.55489 0.11955 0.0
C941 C 0.21298 0.53908 0.12333 0.0
C942 C 0.20934 0.50849 0.10189 0.0
C943 C 0.18292 0.49382 0.07729 0.0
C944 C 0.16128 0.5096 0.07351 0.0
C945 C 0.05285 0.56717 0.03154 0.0
C946 C 0.04903 0.48741 0.07574 0.0
C947 C 0.98077 0.55002 0.10093 0.0
C948 C 0.95912 0.56806 0.09368 0.0
C949 C 0.95691 0.58423 0.06656 0.0
C950 C 0.93559 0.60036 0.06056 0.0
C951 C 0.91589 0.60047 0.08135 0.0
C952 C 0.91852 0.58454 0.10863 0.0
C953 C 0.93974 0.56855 0.11461 0.0
C954 C 0.0726 0.54477 0.15623 0.0
C955 C 0.07613 0.62413 0.11175 0.0
O956 O 0.13642 0.5749 0.11247 0.0
O957 O 0.12318 0.54771 0.05952 0.0
O958 O 0.05006 0.56043 0.06028 0.0
O959 O 0.0798 0.56978 0.03282 0.0
O960 O 0.07533 0.50614 0.07728 0.0
O961 O 0.02823 0.50014 0.08215 0.0
O962 O 0.98922 0.53595 0.07539 0.0
O963 O 1.00197 0.56349 0.12824 0.0
O964 O 0.07533 0.55119 0.12737 0.0
O965 O 0.04565 0.54203 0.15494 0.0
O966 O 0.04994 0.60556 0.11092 0.0
O967 O 0.09694 0.61151 0.10503 0.0
H968 H 0.19532 0.57896 0.13561 0.0
H969 H 0.23311 0.55156 0.14213 0.0
H970 H 0.17913 0.47024 0.0604 0.0
H971 H 0.14178 0.49786 0.05349 0.0
H972 H 0.97158 0.58437 0.05001 0.0
H973 H 0.93431 0.61247 0.03939 0.0
H974 H 0.90439 0.58481 0.12579 0.0
H975 H 0.94103 0.55645 0.1358 0.0
C976 C 0.03595 0.19883 0.08049 0.0
C977 C 0.02199 0.19669 0.04625 0.0
C978 C 0.0424 0.17145 0.09178 0.0
C979 C 0.03439 0.13998 0.06978 0.0
H980 H 0.042 0.22202 0.09886 0.0
H981 H 0.05342 0.17491 0.11825 0.0
S982 S 0.99769 0.12084 0.97748 0.0
N983 N 1.00096 0.1602 0.99036 0.0
N984 N 1.01216 0.10914 0.01139 0.0
C985 C 0.0204 0.13757 0.03548 0.0
C986 C 1.01449 0.16565 0.02383 0.0
C987 C 0.20542 0.85763 0.2863 0.0
C988 C 0.19219 0.83437 0.25526 0.0
C989 C 0.22985 0.8552 0.30921 0.0
C990 C 0.24183 0.82899 0.30262 0.0
H991 H 0.1974 0.8784 0.2925 0.0
H992 H 0.23953 0.87425 0.33232 0.0
S993 S 0.2137 0.76017 0.226 0.0
N994 N 0.1925 0.78373 0.21962 0.0
N995 N 0.23688 0.77822 0.26322 0.0
C996 C 0.22807 0.805 0.27218 0.0
C997 C 0.20376 0.80797 0.24846 0.0
C998 C 0.51351 0.89484 0.56938 0.0
C999 C 0.53069 0.87863 0.5535 0.0
C1000 C 0.51954 0.92944 0.57628 0.0
C1001 C 0.54328 0.94984 0.56802 0.0
H1002 H 0.49469 0.88065 0.57589 0.0
H1003 H 0.50542 0.94026 0.58832 0.0
S1004 S 0.59555 0.92024 0.52659 0.0
N1005 N 0.57291 0.88632 0.53018 0.0
N1006 N 0.58421 0.95064 0.54303 0.0
C1007 C 0.56088 0.93397 0.55257 0.0
C1008 C 0.55463 0.89874 0.54536 0.0
C1009 C 0.52324 0.30292 0.75996 0.0
C1010 C 0.52935 0.32995 0.74456 0.0
C1011 C 0.5003 0.29696 0.77629 0.0
C1012 C 0.48291 0.31817 0.77862 0.0
H1013 H 0.53572 0.28569 0.75854 0.0
H1014 H 0.49621 0.2756 0.78732 0.0
S1015 S 0.4906 0.39322 0.74385 0.0
N1016 N 0.51631 0.37855 0.73355 0.0
N1017 N 0.47394 0.36769 0.76455 0.0
C1018 C 0.48926 0.34567 0.76404 0.0
C1019 C 0.51222 0.35143 0.74696 0.0
C1020 C 0.02436 0.816 0.68313 0.0
C1021 C 0.04726 0.82358 0.71227 0.0
C1022 C 0.02361 0.83747 0.66115 0.0
C1023 C 0.04548 0.86729 0.66802 0.0
H1024 H 1.00746 0.79282 0.67652 0.0
H1025 H 1.00604 0.83059 0.63847 0.0
S1026 S 0.10915 0.89951 0.7419 0.0
N1027 N 0.09158 0.86365 0.74767 0.0
N1028 N 0.0901 0.90402 0.70617 0.0
C1029 C 0.06795 0.87571 0.69761 0.0
C1030 C 0.06885 0.85381 0.71984 0.0
C1031 C 0.44376 0.81598 0.88954 0.0
C1032 C 0.46 0.84806 0.90715 0.0
C1033 C 0.41393 0.80799 0.8769 0.0
C1034 C 0.39952 0.83198 0.88096 0.0
H1035 H 0.45379 0.79639 0.88797 0.0
H1036 H 0.40201 0.78266 0.86468 0.0
S1037 S 0.43328 0.92055 0.92075 0.0
N1038 N 0.46033 0.90446 0.92554 0.0
N1039 N 0.40422 0.88988 0.90028 0.0
C1040 C 0.41592 0.8647 0.89608 0.0
C1041 C 0.44622 0.87264 0.90963 0.0
C1042 C 0.51528 0.15015 0.15761 0.0
C1043 C 0.53717 0.17912 0.17489 0.0
C1044 C 0.51683 0.13202 0.12674 0.0
C1045 C 0.54089 0.14162 0.11302 0.0
H1046 H 0.49784 0.14045 0.16902 0.0
H1047 H 0.50071 0.10849 0.11554 0.0
S1048 S 0.60245 0.21697 0.14679 0.0
N1049 N 0.582 0.21848 0.17416 0.0
N1050 N 0.58551 0.18306 0.11709 0.0
C1051 C 0.5617 0.17169 0.1286 0.0
C1052 C 0.55973 0.19077 0.15944 0.0
C1053 C 0.11145 0.32046 0.39777 0.0
C1054 C 0.08603 0.31664 0.37318 0.0
C1055 C 0.13466 0.31122 0.38857 0.0
C1056 C 0.13378 0.29833 0.35425 0.0
H1057 H 0.11288 0.32903 0.42462 0.0
H1058 H 0.15304 0.31315 0.40886 0.0
S1059 S 0.07323 0.28749 0.27968 0.0
N1060 N 0.06175 0.30098 0.31299 0.0
N1061 N 0.10598 0.28557 0.29523 0.0
C1062 C 0.1089 0.29598 0.32923 0.0
C1063 C 0.08495 0.30466 0.33879 0.0
C1064 C 1.01188 0.05287 0.22736 0.0
C1065 C 1.00705 0.01946 0.22856 0.0
C1066 C 0.02303 0.06557 0.20138 0.0
C1067 C 0.02921 0.04534 0.17489 0.0
H1068 H 1.00773 0.06961 0.24721 0.0
H1069 H 0.02711 0.09158 0.20227 0.0
S1070 S 0.01847 0.95554 0.16464 0.0
N1071 N 1.00841 0.96621 0.19995 0.0
N1072 N 0.0282 0.98955 0.15089 0.0
C1073 C 0.02348 1.01164 0.17515 0.0
C1074 C 1.01277 0.99889 0.20198 0.0
C1075 C 0.38866 0.75786 0.57857 0.0
C1076 C 0.40516 0.78149 0.60834 0.0
C1077 C 0.3731 0.76681 0.55126 0.0
C1078 C 0.3736 0.79969 0.55267 0.0
H1079 H 0.38691 0.7321 0.57672 0.0
H1080 H 0.36003 0.74773 0.5292 0.0
S1081 S 0.41634 0.8713 0.62306 0.0
N1082 N 0.4229 0.83936 0.63657 0.0
N1083 N 0.39403 0.85631 0.58484 0.0
C1084 C 0.39094 0.82371 0.58168 0.0
C1085 C 0.40666 0.81457 0.60957 0.0
C1086 C 0.59753 0.02826 0.74691 0.0
C1087 C 0.62783 0.03469 0.755 0.0
C1088 C 0.5814 0.03065 0.71513 0.0
C1089 C 0.59406 0.04022 0.68861 0.0
H1090 H 0.58602 0.02258 0.7662 0.0
H1091 H 0.55836 0.02585 0.7119 0.0
S1092 S 0.67295 0.06009 0.6953 0.0
N1093 N 0.66999 0.05119 0.73249 0.0
N1094 N 0.63989 0.05539 0.67323 0.0
C1095 C 0.62438 0.04592 0.69569 0.0
C1096 C 0.64102 0.04337 0.72847 0.0
C1097 C 0.31717 0.36107 1.00477 0.0
C1098 C 0.33579 0.34877 0.02614 0.0
C1099 C 0.31232 0.35265 0.96896 0.0
C1100 C 0.32632 0.33211 0.95313 0.0
H1101 H 0.30679 0.37801 0.01575 0.0
H1102 H 0.2982 0.36313 0.95362 0.0
S1103 S 0.37444 0.29019 0.99663 0.0
N1104 N 0.36614 0.31223 0.02796 0.0
N1105 N 0.35747 0.29736 0.96117 0.0
C1106 C 0.34406 0.31867 0.97396 0.0
C1107 C 0.34864 0.3267 0.01027 0.0
C1108 C 0.02987 1.00119 0.4308 0.0
C1109 C 1.01769 0.02203 0.41375 0.0
C1110 C 0.03814 1.00752 0.46658 0.0
C1111 C 0.03496 0.03522 0.48724 0.0
H1112 H 0.03235 0.97912 0.41646 0.0
H1113 H 0.04706 0.99027 0.47804 0.0
S1114 S 1.006 0.09901 0.45538 0.0
N1115 N 1.00394 0.07246 0.42038 0.0
N1116 N 0.0199 0.0847 0.48756 0.0
C1117 C 0.02359 0.05691 0.47055 0.0
C1118 C 1.01486 0.05024 0.43394 0.0
C1119 C 0.38253 0.80427 0.74953 0.0
C1120 C 0.38344 0.7721 0.73845 0.0
C1121 C 0.35949 0.81023 0.7619 0.0
C1122 C 0.33631 0.78421 0.76326 0.0
H1123 H 0.40003 0.82509 0.74906 0.0
H1124 H 0.3604 0.83542 0.77179 0.0
S1125 S 0.32595 0.69551 0.73298 0.0
N1126 N 0.35777 0.71371 0.72713 0.0
N1127 N 0.31415 0.7253 0.75004 0.0
C1128 C 0.33626 0.75194 0.75121 0.0
C1129 C 0.35994 0.74575 0.73893 0.0
C1130 C 0.60847 0.05015 0.94755 0.0
C1131 C 0.63837 0.05338 0.95113 0.0
C1132 C 0.5956 0.05593 0.97574 0.0
C1133 C 0.61143 0.06638 0.0105 0.0
H1134 H 0.59453 0.0436 0.92206 0.0
H1135 H 0.5726 0.0525 0.96987 0.0
S1136 S 0.69099 0.08049 0.03615 0.0
N1137 N 0.6836 0.06898 0.99406 0.0
N1138 N 0.66003 0.0797 0.04612 0.0
C1139 C 0.6415 0.06978 0.01477 0.0
C1140 C 0.65464 0.06351 0.98577 0.0
C1141 C 0.33112 0.36985 0.23469 0.0
C1142 C 0.33905 0.3515 0.20829 0.0
C1143 C 0.32255 0.35604 0.26154 0.0
C1144 C 0.32089 0.32309 0.26259 0.0
H1145 H 0.33205 0.3952 0.23497 0.0
H1146 H 0.31674 0.3711 0.2813 0.0
S1147 S 0.33874 0.26432 0.19964 0.0
N1148 N 0.34447 0.29838 0.18532 0.0
N1149 N 0.32787 0.27271 0.23482 0.0
C1150 C 0.32847 0.30454 0.23626 0.0
C1151 C 0.33764 0.31863 0.20942 0.0
C1152 C 0.2462 0.02165 0.07205 0.0
C1153 C 0.22861 0.98877 0.06252 0.0
C1154 C 0.23761 0.04636 0.0903 0.0
C1155 C 0.2115 0.03878 0.10016 0.0
H1156 H 0.26651 0.02846 0.06489 0.0
H1157 H 0.25135 0.07151 0.09658 0.0
S1158 S 0.15751 0.95698 0.08162 0.0
N1159 N 0.1837 0.95026 0.06456 0.0
N1160 N 0.16782 0.99673 0.09867 0.0
C1161 C 0.19384 1.00614 0.09105 0.0
C1162 C 0.20233 0.9811 0.07228 0.0
C1163 C 0.6898 0.6107 0.08044 0.0
C1164 C 0.6844 0.6331 0.06039 0.0
C1165 C 0.66734 0.58935 0.08984 0.0
C1166 C 0.63841 0.58917 0.07938 0.0
H1167 H 0.71171 0.61051 0.09012 0.0
H1168 H 0.6728 0.5731 0.10582 0.0
S1169 S 0.61213 0.64104 0.02441 0.0
N1170 N 0.64738 0.65237 0.02897 0.0
N1171 N 0.60553 0.6122 0.04619 0.0
C1172 C 0.63257 0.6106 0.05837 0.0
C1173 C 0.65541 0.63248 0.04899 0.0
C1174 C 0.71753 0.50938 0.33282 0.0
C1175 C 0.70397 0.51633 0.3592 0.0
C1176 C 0.73027 0.48393 0.33077 0.0
C1177 C 0.7301 0.46438 0.35504 0.0
H1178 H 0.71846 0.52376 0.31352 0.0
H1179 H 0.74081 0.47988 0.31025 0.0
S1180 S 0.69672 0.47127 0.42854 0.0
N1181 N 0.69067 0.50082 0.4099 0.0
N1182 N 0.71468 0.45287 0.40575 0.0
C1183 C 0.71654 0.47077 0.38146 0.0
C1184 C 0.70343 0.49671 0.38358 0.0
C1185 C 0.83528 0.38131 0.49519 0.0
C1186 C 0.81426 0.3938 0.50662 0.0
C1187 C 0.86333 0.40156 0.49961 0.0
C1188 C 0.87153 0.43499 0.51585 0.0
H1189 H 0.82999 0.35579 0.48224 0.0
H1190 H 0.87879 0.39093 0.4903 0.0
S1191 S 0.82504 0.48012 0.55042 0.0
N1192 N 0.80391 0.44208 0.53507 0.0
N1193 N 0.85667 0.47992 0.54314 0.0
C1194 C 0.85096 0.44783 0.52765 0.0
C1195 C 0.82232 0.42731 0.52303 0.0
C1196 C 0.39967 0.21119 0.35836 0.0
C1197 C 0.38955 0.1773 0.34066 0.0
C1198 C 0.38271 0.2339 0.35772 0.0
C1199 C 0.35327 0.22554 0.33971 0.0
H1200 H 0.42177 0.22104 0.37326 0.0
H1201 H 0.39315 0.25885 0.37217 0.0
S1202 S 0.31354 0.1402 0.28896 0.0
N1203 N 0.34601 0.13713 0.30414 0.0
N1204 N 0.3146 0.17864 0.30352 0.0
C1205 C 0.34227 0.19155 0.32214 0.0
C1206 C 0.35991 0.16817 0.32247 0.0
C1207 C 0.36586 0.14152 0.53608 0.0
C1208 C 0.3488 0.14622 0.55939 0.0
C1209 C 0.3878 0.12637 0.54265 0.0
C1210 C 0.3937 0.11499 0.57278 0.0
H1211 H 0.36223 0.14953 0.51232 0.0
H1212 H 0.39997 0.12309 0.52368 0.0
S1213 S 0.35696 0.12301 0.64342 0.0
N1214 N 0.34048 0.13921 0.61474 0.0
N1215 N 0.38158 0.11098 0.62701 0.0
C1216 C 0.37712 0.11984 0.59653 0.0
C1217 C 0.35479 0.13534 0.58988 0.0
C1218 C 0.74672 0.69068 0.40643 0.0
C1219 C 0.71937 0.6812 0.38362 0.0
C1220 C 0.77077 0.71208 0.39969 0.0
C1221 C 0.76848 0.72422 0.36959 0.0
H1222 H 0.74947 0.68179 0.42972 0.0
H1223 H 0.79132 0.71919 0.41823 0.0
S1224 S 0.7024 0.70247 0.29941 0.0
N1225 N 0.69183 0.68361 0.32875 0.0
N1226 N 0.73706 0.72191 0.31524 0.0
C1227 C 0.74142 0.71379 0.34609 0.0
C1228 C 0.7169 0.69276 0.35332 0.0
C1229 C 0.87808 0.44285 0.79969 0.0
C1230 C 0.88281 0.47243 0.82389 0.0
C1231 C 0.86317 0.41141 0.80382 0.0
C1232 C 0.85254 0.40698 0.83301 0.0
H1233 H 0.887 0.44386 0.77757 0.0
H1234 H 0.86094 0.39014 0.78424 0.0
S1235 S 0.85865 0.476 0.90456 0.0
N1236 N 0.87478 0.49464 0.87827 0.0
N1237 N 0.84745 0.43637 0.88643 0.0
C1238 C 0.85654 0.43645 0.8572 0.0
C1239 C 0.87139 0.46866 0.85262 0.0
C1240 C 0.07442 0.91111 0.12079 0.0
C1241 C 0.10088 0.91493 0.1438 0.0
C1242 C 0.06759 0.93801 0.10874 0.0
C1243 C 0.08669 0.97048 0.11912 0.0
H1244 H 0.05892 0.88695 0.11157 0.0
H1245 H 0.04687 0.93316 0.09113 0.0
S1246 S 0.15809 0.99417 0.18126 0.0
N1247 N 0.14594 0.9541 0.17724 0.0
N1248 N 0.13304 1.00428 0.15596 0.0
C1249 C 0.11305 0.97455 0.14269 0.0
C1250 C 0.12011 0.94705 0.15454 0.0
C1251 C 0.93317 0.28545 0.90421 0.0
C1252 C 0.92837 0.27409 0.93364 0.0
C1253 C 0.91091 0.29105 0.88066 0.0
C1254 C 0.88278 0.28632 0.88555 0.0
H1255 H 0.95444 0.29037 0.89933 0.0
H1256 H 0.91586 0.29933 0.85832 0.0
S1257 S 0.85721 0.2527 0.95552 0.0
N1258 N 0.89187 0.25554 0.96428 0.0
N1259 N 0.8508 0.2668 0.92059 0.0
C1260 C 0.87743 0.27451 0.91442 0.0
C1261 C 0.89993 0.26825 0.9382 0.0
C1262 C 0.57244 0.21069 0.64266 0.0
C1263 C 0.59642 0.23204 0.63581 0.0
C1264 C 0.56664 0.17613 0.6342 0.0
C1265 C 0.58484 0.161 0.61909 0.0
H1266 H 0.55802 0.22075 0.6549 0.0
H1267 H 0.54788 0.16115 0.64016 0.0
S1268 S 0.6506 0.20539 0.59559 0.0
N1269 N 0.6384 0.23488 0.61234 0.0
N1270 N 0.62783 0.17068 0.5972 0.0
C1271 C 0.60883 0.18204 0.61197 0.0
C1272 C 0.61449 0.21718 0.62008 0.0
C1273 C 0.59993 0.77914 0.43491 0.0
C1274 C 0.58882 0.80622 0.43821 0.0
C1275 C 0.62428 0.77972 0.42149 0.0
C1276 C 0.63879 0.80748 0.41092 0.0
H1277 H 0.58998 0.75737 0.44315 0.0
H1278 H 0.63208 0.7584 0.41987 0.0
S1279 S 0.61729 0.88384 0.41132 0.0
N1280 N 0.59374 0.86105 0.42786 0.0
N1281 N 0.63893 0.8619 0.40266 0.0
C1282 C 0.62757 0.83441 0.41342 0.0
C1283 C 0.60281 0.83383 0.42699 0.0
C1284 C 0.04341 0.21484 0.47132 0.0
C1285 C 0.05765 0.24702 0.47051 0.0
C1286 C 0.05885 0.1952 0.48498 0.0
C1287 C 0.0888 0.20771 0.49914 0.0
H1288 H 0.02007 0.20586 0.46418 0.0
H1289 H 0.04674 0.17181 0.4885 0.0
S1290 S 0.13647 0.28772 0.4958 0.0
N1291 N 0.10365 0.28832 0.47842 0.0
N1292 N 0.13263 0.25157 0.5058 0.0
C1293 C 0.10361 0.23819 0.49438 0.0
C1294 C 0.08795 0.25793 0.47961 0.0
C1295 C 0.65881 0.22018 0.28898 0.0
C1296 C 0.64681 0.24532 0.29912 0.0
C1297 C 0.68783 0.22738 0.2875 0.0
C1298 C 0.70597 0.25999 0.29611 0.0
H1299 H 0.64558 0.1948 0.2815 0.0
H1300 H 0.69617 0.2071 0.2802 0.0
S1301 S 0.68475 0.33475 0.32487 0.0
N1302 N 0.65524 0.30398 0.31845 0.0
N1303 N 0.70927 0.31775 0.31507 0.0
C1304 C 0.69396 0.28537 0.30596 0.0
C1305 C 0.6646 0.27797 0.30774 0.0
C1306 C 0.57788 0.9292 0.07983 0.0
C1307 C 0.5705 0.92123 0.0438 0.0
C1308 C 0.58206 0.9614 0.09818 0.0
C1309 C 0.5778 0.98607 0.08098 0.0
H1310 H 0.57978 0.91032 0.0938 0.0
H1311 H 0.58767 0.96667 0.12583 0.0
S1312 S 0.55638 0.97647 0.98656 0.0
N1313 N 0.55896 0.94035 0.99184 0.0
N1314 N 0.5648 0.99916 0.02552 0.0
C1315 C 0.57032 0.9779 0.04493 0.0
C1316 C 0.56721 0.94592 0.02653 0.0
C1317 C 0.99346 0.74348 0.83992 0.0
C1318 C 0.02133 0.76234 0.84057 0.0
C1319 C 0.9736 0.75857 0.85057 0.0
C1320 C 0.9811 0.79287 0.8628 0.0
H1321 H 0.98629 0.71735 0.82882 0.0
H1322 H 0.9518 0.74352 0.84775 0.0
S1323 S 0.05247 0.85249 0.87285 0.0
N1324 N 0.05619 0.81661 0.85686 0.0
N1325 N 0.01907 0.84474 0.8772 0.0
C1326 C 1.00954 0.81157 0.8658 0.0
C1327 C 0.02959 0.79633 0.85458 0.0
C1328 C 0.10548 0.10376 0.98535 0.0
C1329 C 0.11629 0.08397 0.96336 0.0
C1330 C 0.09383 0.09249 0.01162 0.0
C1331 C 0.09188 0.06059 0.01678 0.0
H1332 H 0.10581 0.12824 0.98216 0.0
H1333 H 0.08543 0.10861 0.02729 0.0
S1334 S 0.11797 0.99913 0.96769 0.0
N1335 N 0.12524 0.03102 0.94997 0.0
N1336 N 0.1027 1.00979 0.99851 0.0
C1337 C 0.10299 0.04071 0.9955 0.0
C1338 C 0.11535 0.05237 0.96911 0.0
C1339 C 0.71559 0.33547 0.59699 0.0
C1340 C 0.72393 0.32684 0.56656 0.0
C1341 C 0.72618 0.32544 0.62656 0.0
C1342 C 0.74578 0.30693 0.62665 0.0
H1343 H 0.70122 0.35059 0.59818 0.0
H1344 H 0.71983 0.33313 0.64972 0.0
S1345 S 0.77318 0.27616 0.55371 0.0
N1346 N 0.752 0.29708 0.53852 0.0
N1347 N 0.77179 0.27864 0.59394 0.0
C1348 C 0.75351 0.29723 0.59633 0.0
C1349 C 0.7426 0.30707 0.56628 0.0
C1350 C 0.52953 0.08693 0.44172 0.0
C1351 C 0.49921 0.08048 0.43395 0.0
C1352 C 0.54585 0.08343 0.4729 0.0
C1353 C 0.53339 0.0726 0.49909 0.0
H1354 H 0.54093 0.09358 0.42261 0.0
H1355 H 0.56888 0.0884 0.47591 0.0
S1356 S 0.45449 0.05149 0.4928 0.0
N1357 N 0.45725 0.06221 0.45632 0.0
N1358 N 0.48764 0.05583 0.51433 0.0
C1359 C 0.50304 0.06668 0.49228 0.0
C1360 C 0.48621 0.07041 0.46017 0.0
C1361 C 0.76768 0.76741 0.18215 0.0
C1362 C 0.78587 0.7531 0.16623 0.0
C1363 C 0.77273 0.77622 0.21778 0.0
C1364 C 0.79644 0.7716 0.23935 0.0
H1365 H 0.74875 0.7711 0.16701 0.0
H1366 H 0.75777 0.7867 0.22845 0.0
S1367 S 0.85174 0.73682 0.21105 0.0
N1368 N 0.82925 0.73576 0.17512 0.0
N1369 N 0.83909 0.75281 0.24212 0.0
C1370 C 0.81539 0.75824 0.22392 0.0
C1371 C 0.81002 0.74886 0.18745 0.0
C1372 C 0.09597 0.09981 0.75982 0.0
C1373 C 0.10638 0.07835 0.77774 0.0
C1374 C 0.08847 0.09305 0.72399 0.0
C1375 C 0.09056 0.06423 0.70419 0.0
H1376 H 0.09449 0.12274 0.77355 0.0
H1377 H 0.08107 0.11081 0.71173 0.0
S1378 S 0.11462 0.99856 0.73826 0.0
N1379 N 0.11725 0.02619 0.77271 0.0
N1380 N 0.1025 1.01312 0.70538 0.0
C1381 C 0.0999 0.04186 0.72167 0.0
C1382 C 0.10801 0.04902 0.75833 0.0
C1383 C 0.74304 0.34307 0.41624 0.0
C1384 C 0.71504 0.32626 0.41754 0.0
C1385 C 0.7604 0.32612 0.40226 0.0
C1386 C 0.75002 0.29213 0.38829 0.0
H1387 H 0.75257 0.3687 0.42909 0.0
H1388 H 0.78256 0.33929 0.40438 0.0
S1389 S 0.6769 0.23794 0.38282 0.0
N1390 N 0.67701 0.2747 0.40191 0.0
N1391 N 0.70893 0.24286 0.37466 0.0
C1392 C 0.72128 0.27566 0.38746 0.0
C1393 C 0.70388 0.29283 0.40196 0.0
C1394 C 0.5205 0.07985 0.24408 0.0
C1395 C 0.49014 0.07379 0.23987 0.0
C1396 C 0.53439 0.07757 0.21623 0.0
C1397 C 0.51926 0.06783 0.18114 0.0
H1398 H 0.53401 0.08587 0.26976 0.0
H1399 H 0.5576 0.08284 0.22259 0.0
S1400 S 0.43914 0.04804 0.15374 0.0
N1401 N 0.44548 0.05713 0.19587 0.0
N1402 N 0.47083 0.05239 0.14459 0.0
C1403 C 0.4888 0.06177 0.17629 0.0
C1404 C 0.47463 0.06468 0.2049 0.0
C1405 C 0.78273 0.7858 0.98444 0.0
C1406 C 0.78222 0.75295 0.98447 0.0
C1407 C 0.7916 0.80142 0.95902 0.0
C1408 C 0.79967 0.78474 0.93178 0.0
H1409 H 0.77646 0.79984 1.00457 0.0
H1410 H 0.79188 0.82677 0.96057 0.0
S1411 S 0.80186 0.69833 0.9191 0.0
N1412 N 0.79086 0.70438 0.95463 0.0
N1413 N 0.80651 0.73322 0.90629 0.0
C1414 C 0.79901 0.75177 0.93115 0.0
C1415 C 0.79064 0.73607 0.9576 0.0
C1416 C 0.87013 0.10626 0.06786 0.0
C1417 C 0.88859 0.13836 0.08215 0.0
C1418 C 0.88038 0.08139 0.05278 0.0
C1419 C 0.90938 0.0878 0.05114 0.0
H1420 H 0.84792 0.09985 0.06965 0.0
H1421 H 0.86578 0.05671 0.04343 0.0
S1422 S 0.966 0.16813 0.08285 0.0
N1423 N 0.9368 0.17558 0.09149 0.0
N1424 N 0.95612 0.12885 0.06405 0.0
C1425 C 0.92766 0.12013 0.06379 0.0
C1426 C 0.91725 0.14539 0.07905 0.0
C1427 C 0.43763 0.48724 0.11063 0.0
C1428 C 0.44082 0.46463 0.13117 0.0
C1429 C 0.46129 0.50584 0.10069 0.0
C1430 C 0.4893 0.50293 0.11103 0.0
H1431 H 0.41649 0.48966 0.10094 0.0
H1432 H 0.45746 0.52244 0.0844 0.0
S1433 S 0.50988 0.44893 0.16681 0.0
N1434 N 0.47486 0.44168 0.16284 0.0
N1435 N 0.51892 0.4766 0.14431 0.0
C1436 C 0.49298 0.48121 0.13242 0.0
C1437 C 0.46892 0.46217 0.14244 0.0
C1438 C 0.42632 0.6082 0.83312 0.0
C1439 C 0.41492 0.57663 0.83849 0.0
C1440 C 0.41148 0.63183 0.83627 0.0
C1441 C 0.38454 0.62463 0.84452 0.0
H1442 H 0.44705 0.61488 0.82693 0.0
H1443 H 0.42132 0.65601 0.83257 0.0
S1444 S 0.34399 0.54435 0.85741 0.0
N1445 N 0.37444 0.53889 0.85068 0.0
N1446 N 0.3461 0.58265 0.85522 0.0
C1447 C 0.3726 0.59282 0.84901 0.0
C1448 C 0.38789 0.569 0.84634 0.0
C1449 C 0.2874 0.73419 0.65925 0.0
C1450 C 0.30722 0.71917 0.64829 0.0
C1451 C 0.25985 0.71546 0.65956 0.0
C1452 C 0.25096 0.68104 0.64866 0.0
H1453 H 0.29356 0.7605 0.66906 0.0
H1454 H 0.2455 0.72798 0.66885 0.0
S1455 S 0.29396 0.6297 0.61619 0.0
N1456 N 0.31537 0.6677 0.6249 0.0
N1457 N 0.2637 0.63266 0.62585 0.0
C1458 C 0.2701 0.66575 0.63659 0.0
C1459 C 0.29818 0.68477 0.63633 0.0
C1460 C 0.77911 0.95368 0.87538 0.0
C1461 C 0.74926 0.95142 0.86326 0.0
C1462 C 0.79089 0.92618 0.87312 0.0
C1463 C 0.77424 0.89294 0.85843 0.0
H1464 H 0.79431 0.97765 0.88713 0.0
H1465 H 0.81386 0.93139 0.88321 0.0
S1466 S 0.69459 0.87042 0.82141 0.0
N1467 N 0.7033 0.91069 0.83515 0.0
N1468 N 0.72476 0.86026 0.83062 0.0
C1469 C 0.7442 0.88991 0.84596 0.0
C1470 C 0.73209 0.91824 0.84839 0.0
C1471 C 0.77817 0.98267 0.63047 0.0
C1472 C 0.78205 0.96554 0.60008 0.0
C1473 C 0.75545 0.99707 0.63025 0.0
C1474 C 0.73525 0.99457 0.59972 0.0
H1475 H 0.79287 0.98512 0.65468 0.0
H1476 H 0.75347 1.00995 0.65429 0.0
S1477 S 0.7358 0.95324 0.51294 0.0
N1478 N 0.76349 0.94762 0.53834 0.0
N1479 N 0.72136 0.97442 0.53817 0.0
C1480 C 0.73895 0.97766 0.56922 0.0
C1481 C 0.76211 0.96328 0.56934 0.0
C1482 C 0.40082 0.39038 0.80871 0.0
C1483 C 0.40127 0.42179 0.80286 0.0
C1484 C 0.37704 0.37019 0.8169 0.0
C1485 C 0.35253 0.38025 0.81933 0.0
H1486 H 0.41931 0.38155 0.80779 0.0
H1487 H 0.37765 0.34628 0.82073 0.0
S1488 S 0.34099 0.45842 0.80298 0.0
N1489 N 0.37373 0.46085 0.79791 0.0
N1490 N 0.32908 0.42257 0.81262 0.0
C1491 C 0.35197 0.41078 0.81191 0.0
C1492 C 0.3763 0.43161 0.80395 0.0
C1493 C 0.24864 0.67242 0.39205 0.0
C1494 C 0.24264 0.64312 0.36689 0.0
C1495 C 0.26353 0.70397 0.38805 0.0
C1496 C 0.27261 0.70868 0.358 0.0
H1497 H 0.24069 0.67113 0.41481 0.0
H1498 H 0.26681 0.72512 0.40829 0.0
S1499 S 0.26283 0.64052 0.28388 0.0
N1500 N 0.24794 0.62154 0.3108 0.0
N1501 N 0.27502 0.67994 0.30282 0.0
C1502 C 0.26735 0.67948 0.33288 0.0
C1503 C 0.25267 0.64722 0.33735 0.0
C1504 C 0.50344 0.67433 0.56395 0.0
C1505 C 0.52094 0.69535 0.54795 0.0
C1506 C 0.51072 0.64714 0.57482 0.0
C1507 C 0.53642 0.63976 0.57133 0.0
H1508 H 0.48356 0.67866 0.56785 0.0
H1509 H 0.49613 0.63196 0.58648 0.0
S1510 S 0.58978 0.68587 0.53042 0.0
N1511 N 0.56507 0.70546 0.52843 0.0
N1512 N 0.57904 0.65579 0.54955 0.0
C1513 C 0.55413 0.66054 0.55542 0.0
C1514 C 0.54639 0.68775 0.54363 0.0
C1515 C 0.69215 0.32742 0.78717 0.0
C1516 C 0.69656 0.33806 0.75728 0.0
C1517 C 0.71478 0.3227 0.81097 0.0
C1518 C 0.74286 0.32759 0.80584 0.0
H1519 H 0.67095 0.32246 0.79223 0.0
H1520 H 0.71015 0.31496 0.83368 0.0
S1521 S 0.76738 0.35927 0.73443 0.0
N1522 N 0.73264 0.35602 0.72585 0.0
N1523 N 0.7743 0.34625 0.76995 0.0
C1524 C 0.74779 0.33859 0.77647 0.0
C1525 C 0.72495 0.34403 0.75248 0.0
C1526 C 1.01227 0.39523 0.06633 0.0
C1527 C 0.03072 0.37935 0.05278 0.0
C1528 C 0.01819 0.42975 0.07334 0.0
C1529 C 0.04306 0.45045 0.06757 0.0
H1530 H 0.99254 0.38081 0.07084 0.0
H1531 H 1.00301 0.44025 0.08345 0.0
S1532 S 0.09936 0.42174 0.03391 0.0
N1533 N 0.07555 0.38754 0.0349 0.0
N1534 N 0.08684 0.45191 0.04818 0.0
C1535 C 0.06204 0.43492 0.05467 0.0
C1536 C 0.05585 0.39969 0.04725 0.0
C1537 C 0.02054 0.82633 0.25642 0.0
C1538 C 0.03289 0.80025 0.25281 0.0
C1539 C 0.99641 0.82443 0.27062 0.0
C1540 C 0.98337 0.79629 0.2817 0.0
H1541 H 0.0293 0.84827 0.24776 0.0
H1542 H 0.98756 0.84496 0.27236 0.0
S1543 S 1.00881 0.72247 0.28127 0.0
N1544 N 0.03093 0.74613 0.26383 0.0
N1545 N 0.98618 0.74284 0.29038 0.0
C1546 C 0.99595 0.77047 0.27906 0.0
C1547 C 0.02046 0.77238 0.26472 0.0
C1548 C 0.57219 0.35018 0.22308 0.0
C1549 C 0.54468 0.32935 0.22117 0.0
C1550 C 0.57594 0.37223 0.2019 0.0
C1551 C 0.55234 0.37443 0.17822 0.0
H1552 H 0.59126 0.34857 0.24 0.0
H1553 H 0.59766 0.38666 0.2031 0.0
S1554 S 0.47542 0.32974 0.167 0.0
N1555 N 0.49301 0.31514 0.19638 0.0
N1556 N 0.50028 0.3573 0.15672 0.0
C1557 C 0.52452 0.35551 0.17754 0.0
C1558 C 0.52062 0.33287 0.19911 0.0
C1559 C 0.92827 0.33632 0.42025 0.0
C1560 C 0.94261 0.31346 0.4105 0.0
C1561 C 0.8988 0.33046 0.406 0.0
C1562 C 0.88253 0.30098 0.38243 0.0
H1563 H 0.93982 0.35856 0.4396 0.0
H1564 H 0.8886 0.34875 0.41421 0.0
S1565 S 0.91079 0.23356 0.34854 0.0
N1566 N 0.93915 0.26104 0.3755 0.0
N1567 N 0.88356 0.24886 0.3496 0.0
C1568 C 0.89689 0.27792 0.37256 0.0
C1569 C 0.92702 0.28448 0.38634 0.0
C1570 C 0.07027 0.68427 0.66726 0.0
C1571 C 0.04643 0.67688 0.68171 0.0
C1572 C 0.07037 0.66506 0.63624 0.0
C1573 C 0.04626 0.63866 0.61826 0.0
H1574 H 0.08979 0.70352 0.68124 0.0
H1575 H 0.09009 0.66939 0.62759 0.0
S1576 S 0.97685 0.61282 0.64262 0.0
N1577 N 0.99726 0.64364 0.67442 0.0
N1578 N 0.99672 0.60845 0.61501 0.0
C1579 C 0.02133 0.63304 0.63093 0.0
C1580 C 0.02161 0.65187 0.66308 0.0
C1581 C 0.61928 0.81896 0.90363 0.0
C1582 C 0.59613 0.82307 0.88062 0.0
C1583 C 0.64092 0.80816 0.89217 0.0
C1584 C 0.64069 0.80154 0.85722 0.0
H1585 H 0.62015 0.82288 0.93068 0.0
H1586 H 0.65764 0.80423 0.91093 0.0
S1587 S 0.58616 0.81173 0.78692 0.0
N1588 N 0.57472 0.82117 0.82151 0.0
N1589 N 0.61623 0.80245 0.79996 0.0
C1590 C 0.61808 0.80662 0.83402 0.0
C1591 C 0.59566 0.81702 0.84571 0.0
C1592 C 0.507 0.54219 0.71103 0.0
C1593 C 0.51743 0.52176 0.73077 0.0
C1594 C 0.52092 0.55435 0.68643 0.0
C1595 C 0.54629 0.54732 0.68121 0.0
H1596 H 0.48788 0.54879 0.71451 0.0
H1597 H 0.51218 0.57004 0.6721 0.0
S1598 S 0.58242 0.49478 0.72566 0.0
N1599 N 0.5545 0.49457 0.7422 0.0
N1600 N 0.58079 0.51802 0.69758 0.0
C1601 C 0.55672 0.5268 0.70062 0.0
C1602 C 0.54232 0.5139 0.72489 0.0
C1603 C 0.90922 0.28055 0.0968 0.0
C1604 C 0.90343 0.29356 0.12756 0.0
C1605 C 0.89504 0.28508 0.0656 0.0
C1606 C 0.87411 0.30192 0.06429 0.0
H1607 H 0.92565 0.26807 0.09703 0.0
H1608 H 0.90077 0.27588 0.04246 0.0
S1609 S 0.84926 0.338 0.13727 0.0
N1610 N 0.87423 0.32242 0.15452 0.0
N1611 N 0.84717 0.33001 0.0959 0.0
C1612 C 0.86715 0.31357 0.09465 0.0
C1613 C 0.88192 0.30962 0.12634 0.0
C1614 C 0.13959 0.5554 0.23165 0.0
C1615 C 0.12822 0.53524 0.25308 0.0
C1616 C 0.12282 0.55686 0.19934 0.0
C1617 C 0.09322 0.53891 0.18675 0.0
H1618 H 0.16141 0.57168 0.24081 0.0
H1619 H 0.1327 0.57381 0.18527 0.0
S1620 S 0.05255 0.48191 0.2318 0.0
N1621 N 0.0851 0.49643 0.25775 0.0
N1622 N 0.05404 0.49916 0.1988 0.0
C1623 C 0.08198 0.51806 0.20754 0.0
C1624 C 0.09911 0.51632 0.23997 0.0
C1625 C 0.85793 0.83793 0.5126 0.0
C1626 C 0.8404 0.85377 0.52809 0.0
C1627 C 0.85205 0.82696 0.47708 0.0
C1628 C 0.82814 0.83085 0.45521 0.0
H1629 H 0.87695 0.83461 0.52797 0.0
H1630 H 0.86653 0.81535 0.46674 0.0
S1631 S 0.77445 0.86931 0.48243 0.0
N1632 N 0.79746 0.87189 0.51851 0.0
N1633 N 0.78613 0.85092 0.45176 0.0
C1634 C 0.8099 0.84588 0.47026 0.0
C1635 C 0.8161 0.85743 0.50659 0.0
C1636 C 0.51611 0.54264 0.93381 0.0
C1637 C 0.51927 0.51519 0.91265 0.0
C1638 C 0.52407 0.54811 0.96971 0.0
C1639 C 0.53522 0.52618 0.9862 0.0
H1640 H 0.50707 0.55994 0.9226 0.0
H1641 H 0.52108 0.56955 0.98462 0.0
S1642 S 0.54883 0.45106 0.94292 0.0
N1643 N 0.53533 0.46629 0.91136 0.0
N1644 N 0.54984 0.47637 0.97829 0.0
C1645 C 0.53885 0.49888 0.96539 0.0
C1646 C 0.53105 0.49348 0.92888 0.0
C1647 C 0.84868 0.22242 0.23953 0.0
C1648 C 0.87884 0.23718 0.24809 0.0
C1649 C 0.83038 0.23807 0.25348 0.0
C1650 C 0.84161 0.26907 0.27605 0.0
H1651 H 0.83894 0.19975 0.22031 0.0
H1652 H 0.80729 0.22678 0.24496 0.0
S1653 S 0.91911 0.31618 0.30994 0.0
N1654 N 0.91904 0.28235 0.28457 0.0
N1655 N 0.88489 0.31284 0.30808 0.0
C1656 C 0.87173 0.2831 0.28617 0.0
C1657 C 0.89027 0.26668 0.27321 0.0
C1658 C 0.10532 0.55138 0.44568 0.0
C1659 C 0.13423 0.55022 0.44842 0.0
C1660 C 0.09256 0.55547 0.47422 0.0
C1661 C 0.10768 0.55976 0.50864 0.0
H1662 H 0.09209 0.54952 0.42067 0.0
H1663 H 0.07036 0.55579 0.46901 0.0
S1664 S 0.18429 0.55901 0.53222 0.0
N1665 N 0.17756 0.55383 0.49022 0.0
N1666 N 0.15426 0.56158 0.54296 0.0
C1667 C 0.13667 0.5584 0.51203 0.0
C1668 C 0.14962 0.55373 0.48262 0.0
C1669 C 0.84354 0.82638 0.71022 0.0
C1670 C 0.84448 0.85927 0.70979 0.0
C1671 C 0.83395 0.81105 0.73549 0.0
C1672 C 0.82558 0.82809 0.76223 0.0
H1673 H 0.85 0.81205 0.69049 0.0
H1674 H 0.83338 0.78565 0.73425 0.0
S1675 S 0.82421 0.91475 0.77368 0.0
N1676 N 0.83584 0.90827 0.73866 0.0
N1677 N 0.81888 0.87999 0.78677 0.0
C1678 C 0.82666 0.86111 0.76246 0.0
C1679 C 0.83575 0.87651 0.73613 0.0
C1680 C 0.72314 0.49993 0.53674 0.0
C1681 C 0.73783 0.48394 0.5581 0.0
C1682 C 0.71611 0.52788 0.5503 0.0
C1683 C 0.72318 0.54063 0.58574 0.0
H1684 H 0.71559 0.48982 0.50949 0.0
H1685 H 0.70324 0.53805 0.53305 0.0
S1686 S 0.76751 0.51283 0.65195 0.0
N1687 N 0.76379 0.48664 0.61598 0.0
N1688 N 0.75006 0.53899 0.64133 0.0
C1689 C 0.74044 0.52704 0.60702 0.0
C1690 C 0.74789 0.49872 0.59323 0.0
C1691 C 0.15971 0.11777 0.54297 0.0
C1692 C 0.18828 0.12612 0.56267 0.0
C1693 C 0.13675 0.09641 0.55144 0.0
C1694 C 0.14103 0.08354 0.58081 0.0
H1695 H 0.15497 0.12815 0.52095 0.0
H1696 H 0.11547 0.08977 0.53467 0.0
S1697 S 0.21164 0.09657 0.64048 0.0
N1698 N 0.21965 0.11824 0.61209 0.0
N1699 N 0.17638 0.07928 0.62863 0.0
C1700 C 0.16956 0.09073 0.60011 0.0
C1701 C 0.19313 0.11183 0.59101 0.0
C1702 C 0.21304 1.00812 0.87269 0.0
C1703 C 0.21691 0.0331 0.85428 0.0
C1704 C 0.22838 0.98501 0.87061 0.0
C1705 C 0.24809 0.98595 0.84999 0.0
H1706 H 0.19787 1.00618 0.88867 0.0
H1707 H 0.22451 0.96599 0.88489 0.0
S1708 S 0.26786 0.04753 0.79864 0.0
N1709 N 0.24306 0.05808 0.81589 0.0
N1710 N 0.27195 1.01475 0.81232 0.0
C1711 C 0.25256 1.01102 0.8319 0.0
C1712 C 0.23697 0.03456 0.83397 0.0
C1713 C 0.33664 0.89052 0.01095 0.0
C1714 C 0.3158 0.906 1.00053 0.0
C1715 C 0.36604 0.90685 0.01667 0.0
C1716 C 0.37541 0.93899 0.01176 0.0
H1717 H 0.33024 0.86614 0.01585 0.0
H1718 H 0.38155 0.89453 0.02573 0.0
S1719 S 0.32882 0.98781 0.97923 0.0
N1720 N 0.30608 0.95367 0.98226 0.0
N1721 N 0.36133 0.98408 0.99213 0.0
C1722 C 0.35461 0.954 0.9997 0.0
C1723 C 0.32477 0.93753 0.99425 0.0
C1724 C 0.89256 0.69638 0.84714 0.0
C1725 C 0.87631 0.66309 0.83087 0.0
C1726 C 0.88023 0.72387 0.84884 0.0
C1727 C 0.85047 0.72079 0.83451 0.0
H1728 H 0.915 0.70131 0.85981 0.0
H1729 H 0.89437 0.74796 0.86231 0.0
S1730 S 0.79772 0.63999 0.78777 0.0
N1731 N 0.82784 0.63041 0.79915 0.0
N1732 N 0.80583 0.67995 0.80253 0.0
C1733 C 0.83431 0.68779 0.81792 0.0
C1734 C 0.84671 0.66005 0.81615 0.0
C1735 C 0.88018 0.66771 0.06675 0.0
C1736 C 0.85133 0.65392 0.06792 0.0
C1737 C 0.90056 0.65012 0.0703 0.0
C1738 C 0.89323 0.6179 0.07545 0.0
H1739 H 0.88732 0.69257 0.06337 0.0
H1740 H 0.92249 0.66224 0.06985 0.0
S1741 S 0.82036 0.56929 0.07827 0.0
N1742 N 0.81638 0.60513 0.07313 0.0
N1743 N 0.8545 0.5722 0.0796 0.0
C1744 C 0.86435 0.60349 0.07595 0.0
C1745 C 0.84352 0.62137 0.07221 0.0
C1746 C 0.24721 0.19675 0.90262 0.0
C1747 C 0.21963 0.18801 0.88045 0.0
C1748 C 0.27112 0.21843 0.89599 0.0
C1749 C 0.26851 0.23149 0.86651 0.0
H1750 H 0.25027 0.18693 0.9253 0.0
H1751 H 0.29186 0.22491 0.91407 0.0
S1752 S 0.20167 0.21209 0.79796 0.0
N1753 N 0.19143 0.19236 0.82687 0.0
N1754 N 0.2365 0.23085 0.81324 0.0
C1755 C 0.2412 0.22184 0.84359 0.0
C1756 C 0.21677 0.20067 0.85085 0.0
C1757 C 0.37799 0.94296 0.29919 0.0
C1758 C 0.3839 0.97269 0.32368 0.0
C1759 C 0.36269 0.91178 0.30365 0.0
C1760 C 0.35302 0.90784 0.33354 0.0
H1761 H 0.38611 0.94364 0.27648 0.0
H1762 H 0.35941 0.89029 0.28384 0.0
S1763 S 0.3628 0.97736 0.40627 0.0
N1764 N 0.37816 0.99552 0.37916 0.0
N1765 N 0.3504 0.93776 0.38805 0.0
C1766 C 0.35841 0.93746 0.35812 0.0
C1767 C 0.3735 0.96937 0.35315 0.0
C1768 C 0.61934 0.43659 0.63096 0.0
C1769 C 0.60119 0.41432 0.64517 0.0
C1770 C 0.61177 0.46352 0.61996 0.0
C1771 C 0.58518 0.46941 0.62152 0.0
H1772 H 0.63996 0.43345 0.6286 0.0
H1773 H 0.6269 0.47972 0.60976 0.0
S1774 S 0.52957 0.41921 0.65681 0.0
N1775 N 0.55534 0.40117 0.66067 0.0
N1776 N 0.54075 0.45032 0.63917 0.0
C1777 C 0.56673 0.44727 0.6355 0.0
C1778 C 0.57477 0.42032 0.64748 0.0
C1779 C 0.43176 0.79972 0.4174 0.0
C1780 C 0.42813 0.77337 0.4342 0.0
C1781 C 0.40805 0.80521 0.3959 0.0
C1782 C 0.37975 0.78414 0.38964 0.0
H1783 H 0.453 0.81682 0.42166 0.0
H1784 H 0.41199 0.82573 0.38362 0.0
S1785 S 0.35833 0.71143 0.42659 0.0
N1786 N 0.39346 0.72643 0.44305 0.0
N1787 N 0.34977 0.73551 0.40147 0.0
C1788 C 0.37599 0.75746 0.40569 0.0
C1789 C 0.39984 0.75246 0.42829 0.0
C1790 C 0.07491 0.71093 0.15109 0.0
C1791 C 0.09172 0.73154 0.13432 0.0
C1792 C 0.06981 0.67646 0.14355 0.0
C1793 C 0.08176 0.66084 0.11938 0.0
H1794 H 0.06593 0.72151 0.17071 0.0
H1795 H 0.05688 0.66197 0.15738 0.0
S1796 S 0.12439 0.70217 0.06516 0.0
N1797 N 0.11817 0.7325 0.08988 0.0
N1798 N 0.10906 0.66839 0.07661 0.0
C1799 C 0.09789 0.68086 0.10177 0.0
C1800 C 0.10271 0.71586 0.10896 0.0
C1801 C 0.09463 0.28206 0.92109 0.0
C1802 C 0.09206 0.31 0.94208 0.0
C1803 C 0.11847 0.28365 0.90641 0.0
C1804 C 0.14086 0.31321 0.91217 0.0
H1805 H 0.07785 0.25888 0.91546 0.0
H1806 H 0.11903 0.2617 0.88978 0.0
S1807 S 0.1466 0.39238 0.9687 0.0
N1808 N 0.11553 0.36757 0.96991 0.0
N1809 N 0.16004 0.37023 0.94307 0.0
C1810 C 0.13903 0.34093 0.93411 0.0
C1811 C 0.1148 0.33942 0.94882 0.0
C1812 C 0.502 0.72199 0.97405 0.0
C1813 C 0.52492 0.74435 0.9668 0.0
C1814 C 0.50623 0.69502 0.98643 0.0
C1815 C 0.5335 0.68998 0.99192 0.0
H1816 H 0.4816 0.7271 0.9735 0.0
H1817 H 0.48918 0.68063 0.99568 0.0
S1818 S 0.59718 0.73471 0.96583 0.0
N1819 N 0.57332 0.75476 0.95731 0.0
N1820 N 0.5812 0.70383 0.98118 0.0
C1821 C 0.55493 0.70874 0.97928 0.0
C1822 C 0.55063 0.73615 0.96645 0.0
C1823 C 0.17308 0.73001 0.79907 0.0
C1824 C 0.15892 0.75426 0.80355 0.0
C1825 C 0.2027 0.73855 0.79996 0.0
C1826 C 0.21908 0.7716 0.80509 0.0
H1827 H 0.16118 0.70429 0.79444 0.0
H1828 H 0.21287 0.71917 0.79727 0.0
S1829 S 0.19169 0.84438 0.81842 0.0
N1830 N 0.16352 0.8126 0.81416 0.0
N1831 N 0.21818 0.82866 0.81412 0.0
C1832 C 0.20477 0.79595 0.80901 0.0
C1833 C 0.17503 0.78729 0.80882 0.0
C1834 C 0.06438 0.4172 0.57096 0.0
C1835 C 0.05684 0.41035 0.53495 0.0
C1836 C 0.06989 0.4492 0.59042 0.0
C1837 C 0.06723 0.47508 0.57445 0.0
H1838 H 0.06577 0.39766 0.58413 0.0
H1839 H 0.07571 0.45355 0.61802 0.0
S1840 S 0.04692 0.4693 0.48066 0.0
N1841 N 0.04693 0.43193 0.48426 0.0
N1842 N 0.05599 0.49099 0.52019 0.0
C1843 C 0.05959 0.46819 0.53842 0.0
C1844 C 0.05476 0.43612 0.51882 0.0
C1845 C 0.51447 0.27308 0.36212 0.0
C1846 C 0.50432 0.24656 0.33352 0.0
C1847 C 0.49611 0.29058 0.3726 0.0
C1848 C 0.4673 0.28276 0.35405 0.0
H1849 H 0.53715 0.28163 0.37512 0.0
H1850 H 0.50503 0.31176 0.39381 0.0
S1851 S 0.43003 0.21406 0.27865 0.0
N1852 N 0.46334 0.21179 0.28847 0.0
N1853 N 0.42906 0.24537 0.3071 0.0
C1854 C 0.45662 0.25526 0.32643 0.0
C1855 C 0.4751 0.23698 0.31643 0.0
C1856 C 0.58213 0.59145 0.46769 0.0
C1857 C 0.60697 0.58304 0.46247 0.0
C1858 C 0.56737 0.57966 0.49143 0.0
C1859 C 0.57696 0.55942 0.51182 0.0
H1860 H 0.57349 0.60677 0.45273 0.0
H1861 H 0.54817 0.58661 0.49384 0.0
S1862 S 0.64149 0.53121 0.51001 0.0
N1863 N 0.64085 0.55349 0.48084 0.0
N1864 N 0.61348 0.53228 0.52606 0.0
C1865 C 0.60217 0.5515 0.50777 0.0
C1866 C 0.61701 0.563 0.483 0.0
C1867 C 0.23835 0.8534 0.10574 0.0
C1868 C 0.22262 0.82821 0.07692 0.0
C1869 C 0.24979 0.84596 0.13652 0.0
C1870 C 0.24552 0.81315 0.13938 0.0
H1871 H 0.24446 0.87876 0.10357 0.0
H1872 H 0.26403 0.86587 0.15711 0.0
S1873 S 0.19951 0.73905 0.07409 0.0
N1874 N 0.1989 0.76978 0.05501 0.0
N1875 N 0.21952 0.75585 0.11328 0.0
C1876 C 0.22666 0.78812 0.11217 0.0
C1877 C 0.21534 0.79566 0.08081 0.0
C1878 C 0.98589 0.55908 0.95681 0.0
C1879 C 0.99757 0.57933 0.93561 0.0
C1880 C 1.0026 0.55673 0.98881 0.0
C1881 C 0.03241 0.57385 1.00133 0.0
H1882 H 0.96384 0.54343 0.94771 0.0
H1883 H 0.99242 0.53978 1.00269 0.0
S1884 S 0.07386 0.631 0.95703 0.0
N1885 N 0.04123 0.61743 0.93123 0.0
N1886 N 0.07207 0.61317 0.9896 0.0
C1887 C 0.04395 0.59484 0.98082 0.0
C1888 C 0.02693 0.59742 0.94869 0.0
C1889 C 0.26448 0.26741 0.68014 0.0
C1890 C 0.28365 0.25461 0.66467 0.0
C1891 C 0.27016 0.27825 0.71566 0.0
C1892 C 0.29543 0.27717 0.73743 0.0
H1893 H 0.24438 0.2683 0.66481 0.0
H1894 H 0.25439 0.28735 0.72606 0.0
S1895 S 0.35371 0.24769 0.70999 0.0
N1896 N 0.32962 0.24269 0.67402 0.0
N1897 N 0.34055 0.26339 0.74069 0.0
C1898 C 0.31531 0.26537 0.72231 0.0
C1899 C 0.30936 0.25402 0.68604 0.0
C1900 C 0.61072 0.55066 0.2596 0.0
C1901 C 0.60661 0.57856 0.27892 0.0
C1902 C 0.60349 0.54355 0.22354 0.0
C1903 C 0.59242 0.5644 0.20524 0.0
H1904 H 0.61987 0.53431 0.27242 0.0
H1905 H 0.60713 0.52186 0.20995 0.0
S1906 S 0.57652 0.64001 0.24326 0.0
N1907 N 0.58966 0.62652 0.27642 0.0
N1908 N 0.57667 0.61354 0.20941 0.0
C1909 C 0.58784 0.59208 0.22423 0.0
C1910 C 0.59474 0.59903 0.26077 0.0
C1911 C 0.247 0.86496 0.91453 0.0
C1912 C 0.21993 0.84551 0.91645 0.0
C1913 C 0.2672 0.85032 0.90396 0.0
C1914 C 0.26083 0.81597 0.89468 0.0
H1915 H 0.25373 0.89131 0.92426 0.0
H1916 H 0.28845 0.86586 0.90529 0.0
S1917 S 0.19077 0.75496 0.88898 0.0
N1918 N 0.18614 0.79087 0.9025 0.0
N1919 N 0.22398 0.76331 0.88408 0.0
C1920 C 0.23282 0.79667 0.89346 0.0
C1921 C 0.21227 0.81153 0.90343 0.0
C1922 C 0.97363 0.55048 0.70556 0.0
C1923 C 0.9883 0.56939 0.73927 0.0
C1924 C 0.98755 0.54732 0.67755 0.0
C1925 C 1.01757 0.56214 0.68095 0.0
H1926 H 0.95113 0.53682 0.70087 0.0
H1927 H 0.97455 0.53232 0.65297 0.0
S1928 S 0.06683 0.61403 0.76351 0.0
N1929 N 0.03547 0.60279 0.77334 0.0
N1930 N 0.06094 0.59737 0.72255 0.0
C1931 C 0.03231 0.58127 0.71451 0.0
C1932 C 1.01811 0.58454 0.74278 0.0
C1933 C 0.28051 0.28361 0.48536 0.0
C1934 C 0.28169 0.2513 0.48559 0.0
C1935 C 0.28973 0.30022 0.46073 0.0
C1936 C 0.2998 0.285 0.43449 0.0
H1937 H 0.27259 0.29643 0.5047 0.0
H1938 H 0.28853 0.32505 0.46195 0.0
S1939 S 0.3073 0.20071 0.42304 0.0
N1940 N 0.29436 0.205 0.4573 0.0
N1941 N 0.31061 0.23557 0.41035 0.0
C1942 C 0.30098 0.25263 0.43418 0.0
C1943 C 0.29228 0.236 0.45987 0.0
C1944 C 0.37548 0.60889 0.5812 0.0
C1945 C 0.38369 0.62349 0.61636 0.0
C1946 C 0.38213 0.58033 0.56867 0.0
C1947 C 0.39693 0.5652 0.59087 0.0
H1948 H 0.3655 0.62067 0.56293 0.0
H1949 H 0.37729 0.57118 0.54128 0.0
S1950 S 0.41903 0.59054 0.6855 0.0
N1951 N 0.40393 0.61812 0.67353 0.0
N1952 N 0.41683 0.56477 0.64989 0.0
C1953 C 0.40289 0.5778 0.62626 0.0
C1954 C 0.39617 0.6069 0.63904 0.0
C1955 C 0.96964 0.96866 0.6301 0.0
C1956 C 0.9441 0.97676 0.63319 0.0
C1957 C 0.99317 0.99089 0.62353 0.0
C1958 C 0.99267 0.02253 0.6201 0.0
H1959 H 0.97142 0.94453 0.63203 0.0
H1960 H 1.01191 0.98314 0.62105 0.0
S1961 S 0.93186 0.05707 0.62681 0.0
N1962 N 0.92032 0.01948 0.63264 0.0
N1963 N 0.96463 0.0613 0.62103 0.0
C1964 C 0.96762 0.03137 0.62375 0.0
C1965 C 0.94342 1.00857 0.63009 0.0
C1966 C 0.90324 0.08371 0.30077 0.0
C1967 C 0.92886 0.09394 0.32681 0.0
C1968 C 0.88333 0.10157 0.2995 0.0
C1969 C 0.8881 0.13024 0.32436 0.0
H1970 H 0.89827 0.06146 0.2813 0.0
H1971 H 0.86359 0.09225 0.27943 0.0
S1972 S 0.95234 0.16847 0.39708 0.0
N1973 N 0.95849 0.13536 0.37739 0.0
N1974 N 0.92076 0.16885 0.37514 0.0
C1975 C 0.91388 0.1412 0.3502 0.0
C1976 C 0.93437 0.12313 0.35132 0.0
C1977 C 0.79395 0.20619 0.13128 0.0
C1978 C 0.80953 0.23632 0.15439 0.0
C1979 C 0.76513 0.19088 0.12997 0.0
C1980 C 0.75048 0.20514 0.15143 0.0
H1981 H 0.80448 0.1931 0.11541 0.0
H1982 H 0.75473 0.16683 0.11321 0.0
S1983 S 0.77918 0.28703 0.21098 0.0
N1984 N 0.80671 0.28212 0.19562 0.0
N1985 N 0.75217 0.25343 0.19265 0.0
C1986 C 0.76494 0.23649 0.17262 0.0
C1987 C 0.79448 0.2521 0.17412 0.0
C1988 C 0.27561 0.453 0.3768 0.0
C1989 C 0.24602 0.45096 0.36341 0.0
C1990 C 0.28728 0.42548 0.37457 0.0
C1991 C 0.27076 0.39243 0.35868 0.0
H1992 H 0.29067 0.4768 0.38959 0.0
H1993 H 0.31006 0.43051 0.38573 0.0
S1994 S 0.19181 0.37056 0.31805 0.0
N1995 N 0.20041 0.4107 0.33277 0.0
N1996 N 0.22175 0.36015 0.32833 0.0
C1997 C 0.24098 0.38959 0.34493 0.0
C1998 C 0.22896 0.41798 0.3473 0.0
C1999 C 0.26227 0.46521 0.07293 0.0
C2000 C 0.27927 0.46216 0.10348 0.0
C2001 C 0.24001 0.48005 0.07285 0.0
C2002 C 0.23346 0.49281 0.10331 0.0
H2003 H 0.26604 0.45591 0.04852 0.0
H2004 H 0.22796 0.48178 0.04851 0.0
S2005 S 0.27061 0.49064 0.1905 0.0
N2006 N 0.28747 0.4731 0.16531 0.0
N2007 N 0.24566 0.50078 0.16512 0.0
C2008 C 0.25028 0.49013 0.13416 0.0
C2009 C 0.27305 0.47489 0.13425 0.0
C2010 C 0.90589 0.89525 0.33267 0.0
C2011 C 0.90299 0.9142 0.30803 0.0
C2012 C 0.88163 0.87531 0.34018 0.0
C2013 C 0.85344 0.87239 0.3225 0.0
H2014 H 0.92711 0.89698 0.34741 0.0
H2015 H 0.88507 0.8628 0.36062 0.0
S2016 S 0.83411 0.91607 0.25467 0.0
N2017 N 0.8697 0.92892 0.266 0.0
N2018 N 0.82418 0.88999 0.27853 0.0
C2019 C 0.85027 0.8907 0.29723 0.0
C2020 C 0.87498 0.91186 0.29036 0.0
C2021 C 0.75003 0.17192 0.89171 0.0
C2022 C 0.7447 0.14272 0.86675 0.0
C2023 C 0.76475 0.20351 0.88785 0.0
C2024 C 0.7745 0.20835 0.85822 0.0
H2025 H 0.74163 0.1705 0.91416 0.0
H2026 H 0.76748 0.22455 0.90797 0.0
S2027 S 0.76639 0.14033 0.78465 0.0
N2028 N 0.75108 0.12123 0.81121 0.0
N2029 N 0.77813 0.17977 0.80354 0.0
C2030 C 0.76993 0.17921 0.83329 0.0
C2031 C 0.75526 0.14689 0.83758 0.0
loop_
_geom_bond_atom_site_label_1
_geom_bond_atom_site_label_2
_geom_bond_distance
_geom_bond_site_symmetry_2
_ccdc_geom_bond_type
Zn0 O3 2.031 . S
Zn0 O5 2.049 . S
Zn0 O10 2.067 . S
Zn1 O2 1.962 . S
Zn1 O4 1.986 . S
Zn1 O6 1.996 . S
Zn1 O9 1.943 1_455 S
O2 Zn1 1.962 . S
O2 C7 1.254 . S
O3 Zn0 2.031 . S
O3 C7 1.269 1_655 S
O4 Zn1 1.986 . S
O4 C11 1.262 . S
O5 Zn0 2.049 . S
O5 C13 1.260 . S
O6 Zn1 1.996 . S
O6 C13 1.257 1_455 S
C7 O2 1.254 . S
C7 O3 1.269 1_455 S
C8 O9 1.249 . S
C8 O10 1.270 . S
O9 Zn1 1.943 1_655 S
O9 C8 1.249 . S
O10 Zn0 2.067 . S
O10 C8 1.270 . S
C11 O4 1.262 . S
C11 O12 1.232 . S
O12 C11 1.232 . S
C13 O5 1.260 . S
C13 O6 1.257 1_655 S
Zn14 O17 2.031 . S
Zn14 O19 2.049 . S
Zn14 O24 2.067 . S
Zn15 O16 1.962 . S
Zn15 O18 1.986 . S
Zn15 O20 1.996 . S
Zn15 O23 1.943 . S
O16 Zn15 1.962 . S
O16 C21 1.254 . S
O17 Zn14 2.031 . S
O17 C21 1.269 . S
O18 Zn15 1.986 . S
O18 C25 1.262 . S
O19 Zn14 2.049 . S
O19 C27 1.260 . S
O20 Zn15 1.996 . S
O20 C27 1.257 . S
C21 O16 1.254 . S
C21 O17 1.269 . S
C22 O23 1.249 . S
C22 O24 1.270 . S
O23 Zn15 1.943 . S
O23 C22 1.249 . S
O24 Zn14 2.067 . S
O24 C22 1.270 . S
C25 O18 1.262 . S
C25 O26 1.232 . S
O26 C25 1.232 . S
C27 O19 1.260 . S
C27 O20 1.257 . S
Zn28 O31 2.031 . S
Zn28 O33 2.049 . S
Zn28 O38 2.067 . S
Zn29 O30 1.962 . S
Zn29 O32 1.986 . S
Zn29 O34 1.996 . S
Zn29 O37 1.943 . S
O30 Zn29 1.962 . S
O30 C35 1.254 . S
O31 Zn28 2.031 . S
O31 C35 1.269 . S
O32 Zn29 1.986 . S
O32 C39 1.262 . S
O33 Zn28 2.049 . S
O33 C41 1.260 . S
O34 Zn29 1.996 . S
O34 C41 1.257 . S
C35 O30 1.254 . S
C35 O31 1.269 . S
C36 O37 1.249 . S
C36 O38 1.270 . S
O37 Zn29 1.943 . S
O37 C36 1.249 . S
O38 Zn28 2.067 . S
O38 C36 1.270 . S
C39 O32 1.262 . S
C39 O40 1.232 . S
O40 C39 1.232 . S
C41 O33 1.260 . S
C41 O34 1.257 . S
Zn42 O45 2.031 . S
Zn42 O47 2.049 . S
Zn42 O52 2.067 . S
Zn43 O44 1.962 . S
Zn43 O46 1.986 . S
Zn43 O48 1.996 . S
Zn43 O51 1.943 . S
O44 Zn43 1.962 . S
O44 C49 1.254 . S
O45 Zn42 2.031 . S
O45 C49 1.269 . S
O46 Zn43 1.986 . S
O46 C53 1.262 . S
O47 Zn42 2.049 . S
O47 C55 1.260 . S
O48 Zn43 1.996 . S
O48 C55 1.257 . S
C49 O44 1.254 . S
C49 O45 1.269 . S
C50 O51 1.249 . S
C50 O52 1.270 . S
O51 Zn43 1.943 . S
O51 C50 1.249 . S
O52 Zn42 2.067 . S
O52 C50 1.270 . S
C53 O46 1.262 . S
C53 O54 1.232 . S
O54 C53 1.232 . S
C55 O47 1.260 . S
C55 O48 1.257 . S
Zn56 O59 2.031 . S
Zn56 O61 2.049 . S
Zn56 O66 2.067 . S
Zn57 O58 1.962 . S
Zn57 O60 1.986 . S
Zn57 O62 1.996 . S
Zn57 O65 1.943 . S
O58 Zn57 1.962 . S
O58 C63 1.254 . S
O59 Zn56 2.031 . S
O59 C63 1.269 . S
O60 Zn57 1.986 . S
O60 C67 1.262 . S
O61 Zn56 2.049 . S
O61 C69 1.260 . S
O62 Zn57 1.996 . S
O62 C69 1.257 . S
C63 O58 1.254 . S
C63 O59 1.269 . S
C64 O65 1.249 . S
C64 O66 1.270 . S
O65 Zn57 1.943 . S
O65 C64 1.249 . S
O66 Zn56 2.067 . S
O66 C64 1.270 . S
C67 O60 1.262 . S
C67 O68 1.232 . S
O68 C67 1.232 . S
C69 O61 1.260 . S
C69 O62 1.257 . S
Zn70 O73 2.031 . S
Zn70 O75 2.049 . S
Zn70 O80 2.067 . S
Zn71 O72 1.962 . S
Zn71 O74 1.986 . S
Zn71 O76 1.996 . S
Zn71 O79 1.943 . S
O72 Zn71 1.962 . S
O72 C77 1.254 . S
O73 Zn70 2.031 . S
O73 C77 1.269 . S
O74 Zn71 1.986 . S
O74 C81 1.262 . S
O75 Zn70 2.049 . S
O75 C83 1.260 . S
O76 Zn71 1.996 . S
O76 C83 1.257 . S
C77 O72 1.254 . S
C77 O73 1.269 . S
C78 O79 1.249 . S
C78 O80 1.270 . S
O79 Zn71 1.943 . S
O79 C78 1.249 . S
O80 Zn70 2.067 . S
O80 C78 1.270 . S
C81 O74 1.262 . S
C81 O82 1.232 . S
O82 C81 1.232 . S
C83 O75 1.260 . S
C83 O76 1.257 . S
Zn84 O87 2.031 . S
Zn84 O89 2.049 . S
Zn84 O94 2.067 . S
Zn85 O86 1.962 . S
Zn85 O88 1.986 . S
Zn85 O90 1.996 . S
Zn85 O93 1.943 . S
O86 Zn85 1.962 . S
O86 C91 1.254 . S
O87 Zn84 2.031 . S
O87 C91 1.269 . S
O88 Zn85 1.986 . S
O88 C95 1.262 . S
O89 Zn84 2.049 . S
O89 C97 1.260 . S
O90 Zn85 1.996 . S
O90 C97 1.257 . S
C91 O86 1.254 . S
C91 O87 1.269 . S
C92 O93 1.249 . S
C92 O94 1.270 . S
O93 Zn85 1.943 . S
O93 C92 1.249 . S
O94 Zn84 2.067 . S
O94 C92 1.270 . S
C95 O88 1.262 . S
C95 O96 1.232 . S
O96 C95 1.232 . S
C97 O89 1.260 . S
C97 O90 1.257 . S
Zn98 O101 2.031 . S
Zn98 O103 2.049 . S
Zn98 O108 2.067 1_554 S
Zn99 O100 1.962 1_556 S
Zn99 O102 1.986 . S
Zn99 O104 1.996 1_556 S
Zn99 O107 1.943 1_455 S
O100 Zn99 1.962 1_554 S
O100 C105 1.254 . S
O101 Zn98 2.031 . S
O101 C105 1.269 1_655 S
O102 Zn99 1.986 . S
O102 C109 1.262 . S
O103 Zn98 2.049 . S
O103 C111 1.260 . S
O104 Zn99 1.996 1_554 S
O104 C111 1.257 1_455 S
C105 O100 1.254 . S
C105 O101 1.269 1_455 S
C106 O107 1.249 . S
C106 O108 1.270 . S
O107 Zn99 1.943 1_655 S
O107 C106 1.249 . S
O108 Zn98 2.067 1_556 S
O108 C106 1.270 . S
C109 O102 1.262 . S
C109 O110 1.232 . S
O110 C109 1.232 . S
C111 O103 1.260 . S
C111 O104 1.257 1_655 S
Zn112 O115 2.031 1_565 S
Zn112 O117 2.049 1_565 S
Zn112 O122 2.067 . S
Zn113 O114 1.962 . S
Zn113 O116 1.986 . S
Zn113 O118 1.996 . S
Zn113 O121 1.943 . S
O114 Zn113 1.962 . S
O114 C119 1.254 . S
O115 Zn112 2.031 1_545 S
O115 C119 1.269 . S
O116 Zn113 1.986 . S
O116 C123 1.262 . S
O117 Zn112 2.049 1_545 S
O117 C125 1.260 . S
O118 Zn113 1.996 . S
O118 C125 1.257 . S
C119 O114 1.254 . S
C119 O115 1.269 . S
C120 O121 1.249 1_565 S
C120 O122 1.270 . S
O121 Zn113 1.943 . S
O121 C120 1.249 1_545 S
O122 Zn112 2.067 . S
O122 C120 1.270 . S
C123 O116 1.262 . S
C123 O124 1.232 . S
O124 C123 1.232 . S
C125 O117 1.260 . S
C125 O118 1.257 . S
Zn126 O129 2.031 . S
Zn126 O131 2.049 . S
Zn126 O136 2.067 . S
Zn127 O128 1.962 . S
Zn127 O130 1.986 . S
Zn127 O132 1.996 . S
Zn127 O135 1.943 . S
O128 Zn127 1.962 . S
O128 C133 1.254 . S
O129 Zn126 2.031 . S
O129 C133 1.269 . S
O130 Zn127 1.986 . S
O130 C137 1.262 . S
O131 Zn126 2.049 . S
O131 C139 1.260 . S
O132 Zn127 1.996 . S
O132 C139 1.257 . S
C133 O128 1.254 . S
C133 O129 1.269 . S
C134 O135 1.249 . S
C134 O136 1.270 . S
O135 Zn127 1.943 . S
O135 C134 1.249 . S
O136 Zn126 2.067 . S
O136 C134 1.270 . S
C137 O130 1.262 . S
C137 O138 1.232 . S
O138 C137 1.232 . S
C139 O131 1.260 . S
C139 O132 1.257 . S
Zn140 O143 2.031 . S
Zn140 O145 2.049 . S
Zn140 O150 2.067 . S
Zn141 O142 1.962 . S
Zn141 O144 1.986 . S
Zn141 O146 1.996 . S
Zn141 O149 1.943 . S
O142 Zn141 1.962 . S
O142 C147 1.254 . S
O143 Zn140 2.031 . S
O143 C147 1.269 . S
O144 Zn141 1.986 . S
O144 C151 1.262 . S
O145 Zn140 2.049 . S
O145 C153 1.260 . S
O146 Zn141 1.996 . S
O146 C153 1.257 . S
C147 O142 1.254 . S
C147 O143 1.269 . S
C148 O149 1.249 . S
C148 O150 1.270 . S
O149 Zn141 1.943 . S
O149 C148 1.249 . S
O150 Zn140 2.067 . S
O150 C148 1.270 . S
C151 O144 1.262 . S
C151 O152 1.232 . S
O152 C151 1.232 . S
C153 O145 1.260 . S
C153 O146 1.257 . S
Zn154 O157 2.031 1_554 S
Zn154 O159 2.049 . S
Zn154 O164 2.067 . S
Zn155 O156 1.962 . S
Zn155 O158 1.986 1_556 S
Zn155 O160 1.996 1_556 S
Zn155 O163 1.943 1_556 S
O156 Zn155 1.962 . S
O156 C161 1.254 . S
O157 Zn154 2.031 1_556 S
O157 C161 1.269 . S
O158 Zn155 1.986 1_554 S
O158 C165 1.262 1_554 S
O159 Zn154 2.049 . S
O159 C167 1.260 . S
O160 Zn155 1.996 1_554 S
O160 C167 1.257 . S
C161 O156 1.254 . S
C161 O157 1.269 . S
C162 O163 1.249 . S
C162 O164 1.270 . S
O163 Zn155 1.943 1_554 S
O163 C162 1.249 . S
O164 Zn154 2.067 . S
O164 C162 1.270 . S
C165 O158 1.262 1_556 S
C165 O166 1.232 . S
O166 C165 1.232 . S
C167 O159 1.260 . S
C167 O160 1.257 . S
Zn168 O171 2.031 . S
Zn168 O173 2.049 . S
Zn168 O178 2.067 . S
Zn169 O170 1.962 . S
Zn169 O172 1.986 . S
Zn169 O174 1.996 . S
Zn169 O177 1.943 . S
O170 Zn169 1.962 . S
O170 C175 1.254 . S
O171 Zn168 2.031 . S
O171 C175 1.269 . S
O172 Zn169 1.986 . S
O172 C179 1.262 . S
O173 Zn168 2.049 . S
O173 C181 1.260 . S
O174 Zn169 1.996 . S
O174 C181 1.257 . S
C175 O170 1.254 . S
C175 O171 1.269 . S
C176 O177 1.249 . S
C176 O178 1.270 . S
O177 Zn169 1.943 . S
O177 C176 1.249 . S
O178 Zn168 2.067 . S
O178 C176 1.270 . S
C179 O172 1.262 . S
C179 O180 1.232 . S
O180 C179 1.232 . S
C181 O173 1.260 . S
C181 O174 1.257 . S
Zn182 O185 2.031 . S
Zn182 O187 2.049 . S
Zn182 O192 2.067 . S
Zn183 O184 1.962 . S
Zn183 O186 1.986 . S
Zn183 O188 1.996 . S
Zn183 O191 1.943 . S
O184 Zn183 1.962 . S
O184 C189 1.254 . S
O185 Zn182 2.031 . S
O185 C189 1.269 . S
O186 Zn183 1.986 . S
O186 C193 1.262 . S
O187 Zn182 2.049 . S
O187 C195 1.260 . S
O188 Zn183 1.996 . S
O188 C195 1.257 . S
C189 O184 1.254 . S
C189 O185 1.269 . S
C190 O191 1.249 . S
C190 O192 1.270 . S
O191 Zn183 1.943 . S
O191 C190 1.249 . S
O192 Zn182 2.067 . S
O192 C190 1.270 . S
C193 O186 1.262 . S
C193 O194 1.232 . S
O194 C193 1.232 . S
C195 O187 1.260 . S
C195 O188 1.257 . S
Zn196 O199 2.031 . S
Zn196 O201 2.049 . S
Zn196 O206 2.067 . S
Zn197 O198 1.962 . S
Zn197 O200 1.986 . S
Zn197 O202 1.996 . S
Zn197 O205 1.943 . S
O198 Zn197 1.962 . S
O198 C203 1.254 . S
O199 Zn196 2.031 . S
O199 C203 1.269 . S
O200 Zn197 1.986 . S
O200 C207 1.262 . S
O201 Zn196 2.049 . S
O201 C209 1.260 . S
O202 Zn197 1.996 . S
O202 C209 1.257 . S
C203 O198 1.254 . S
C203 O199 1.269 . S
C204 O205 1.249 . S
C204 O206 1.270 . S
O205 Zn197 1.943 . S
O205 C204 1.249 . S
O206 Zn196 2.067 . S
O206 C204 1.270 . S
C207 O200 1.262 . S
C207 O208 1.232 . S
O208 C207 1.232 . S
C209 O201 1.260 . S
C209 O202 1.257 . S
Zn210 O213 2.031 . S
Zn210 O215 2.049 . S
Zn210 O220 2.067 . S
Zn211 O212 1.962 . S
Zn211 O214 1.986 . S
Zn211 O216 1.996 . S
Zn211 O219 1.943 . S
O212 Zn211 1.962 . S
O212 C217 1.254 . S
O213 Zn210 2.031 . S
O213 C217 1.269 . S
O214 Zn211 1.986 . S
O214 C221 1.262 . S
O215 Zn210 2.049 . S
O215 C223 1.260 . S
O216 Zn211 1.996 . S
O216 C223 1.257 . S
C217 O212 1.254 . S
C217 O213 1.269 . S
C218 O219 1.249 . S
C218 O220 1.270 . S
O219 Zn211 1.943 . S
O219 C218 1.249 . S
O220 Zn210 2.067 . S
O220 C218 1.270 . S
C221 O214 1.262 . S
C221 O222 1.232 . S
O222 C221 1.232 . S
C223 O215 1.260 . S
C223 O216 1.257 . S
Zn224 O227 2.031 . S
Zn224 O229 2.049 . S
Zn224 O234 2.067 . S
Zn225 O226 1.962 . S
Zn225 O228 1.986 . S
Zn225 O230 1.996 . S
Zn225 O233 1.943 1_545 S
O226 Zn225 1.962 . S
O226 C231 1.254 . S
O227 Zn224 2.031 . S
O227 C231 1.269 1_565 S
O228 Zn225 1.986 . S
O228 C235 1.262 . S
O229 Zn224 2.049 . S
O229 C237 1.260 . S
O230 Zn225 1.996 . S
O230 C237 1.257 1_545 S
C231 O226 1.254 . S
C231 O227 1.269 1_545 S
C232 O233 1.249 . S
C232 O234 1.270 . S
O233 Zn225 1.943 1_565 S
O233 C232 1.249 . S
O234 Zn224 2.067 . S
O234 C232 1.270 . S
C235 O228 1.262 . S
C235 O236 1.232 . S
O236 C235 1.232 . S
C237 O229 1.260 . S
C237 O230 1.257 1_565 S
Zn238 O241 2.031 . S
Zn238 O243 2.049 . S
Zn238 O248 2.067 . S
Zn239 O240 1.962 . S
Zn239 O242 1.986 . S
Zn239 O244 1.996 . S
Zn239 O247 1.943 . S
O240 Zn239 1.962 . S
O240 C245 1.254 . S
O241 Zn238 2.031 . S
O241 C245 1.269 . S
O242 Zn239 1.986 . S
O242 C249 1.262 . S
O243 Zn238 2.049 . S
O243 C251 1.260 . S
O244 Zn239 1.996 . S
O244 C251 1.257 . S
C245 O240 1.254 . S
C245 O241 1.269 . S
C246 O247 1.249 . S
C246 O248 1.270 . S
O247 Zn239 1.943 . S
O247 C246 1.249 . S
O248 Zn238 2.067 . S
O248 C246 1.270 . S
C249 O242 1.262 . S
C249 O250 1.232 . S
O250 C249 1.232 . S
C251 O243 1.260 . S
C251 O244 1.257 . S
Zn252 O255 2.031 . S
Zn252 O257 2.049 . S
Zn252 O262 2.067 . S
Zn253 O254 1.962 . S
Zn253 O256 1.986 . S
Zn253 O258 1.996 . S
Zn253 O261 1.943 . S
O254 Zn253 1.962 . S
O254 C259 1.254 . S
O255 Zn252 2.031 . S
O255 C259 1.269 . S
O256 Zn253 1.986 . S
O256 C263 1.262 . S
O257 Zn252 2.049 . S
O257 C265 1.260 . S
O258 Zn253 1.996 . S
O258 C265 1.257 . S
C259 O254 1.254 . S
C259 O255 1.269 . S
C260 O261 1.249 . S
C260 O262 1.270 . S
O261 Zn253 1.943 . S
O261 C260 1.249 . S
O262 Zn252 2.067 . S
O262 C260 1.270 . S
C263 O256 1.262 . S
C263 O264 1.232 . S
O264 C263 1.232 . S
C265 O257 1.260 . S
C265 O258 1.257 . S
Zn266 O269 2.031 . S
Zn266 O271 2.049 . S
Zn266 O276 2.067 . S
Zn267 O268 1.962 . S
Zn267 O270 1.986 1_545 S
Zn267 O272 1.996 . S
Zn267 O275 1.943 . S
O268 Zn267 1.962 . S
O268 C273 1.254 . S
O269 Zn266 2.031 . S
O269 C273 1.269 . S
O270 Zn267 1.986 1_565 S
O270 C277 1.262 . S
O271 Zn266 2.049 . S
O271 C279 1.260 . S
O272 Zn267 1.996 . S
O272 C279 1.257 . S
C273 O268 1.254 . S
C273 O269 1.269 . S
C274 O275 1.249 . S
C274 O276 1.270 . S
O275 Zn267 1.943 . S
O275 C274 1.249 . S
O276 Zn266 2.067 . S
O276 C274 1.270 . S
C277 O270 1.262 . S
C277 O278 1.232 1_565 S
O278 C277 1.232 1_545 S
C279 O271 1.260 . S
C279 O272 1.257 . S
Zn280 O283 2.031 . S
Zn280 O285 2.049 . S
Zn280 O290 2.067 . S
Zn281 O282 1.962 . S
Zn281 O284 1.986 . S
Zn281 O286 1.996 . S
Zn281 O289 1.943 . S
O282 Zn281 1.962 . S
O282 C287 1.254 . S
O283 Zn280 2.031 . S
O283 C287 1.269 . S
O284 Zn281 1.986 . S
O284 C291 1.262 . S
O285 Zn280 2.049 . S
O285 C293 1.260 . S
O286 Zn281 1.996 . S
O286 C293 1.257 . S
C287 O282 1.254 . S
C287 O283 1.269 . S
C288 O289 1.249 . S
C288 O290 1.270 . S
O289 Zn281 1.943 . S
O289 C288 1.249 . S
O290 Zn280 2.067 . S
O290 C288 1.270 . S
C291 O284 1.262 . S
C291 O292 1.232 . S
O292 C291 1.232 . S
C293 O285 1.260 . S
C293 O286 1.257 . S
Zn294 O297 2.031 . S
Zn294 O299 2.049 . S
Zn294 O304 2.067 . S
Zn295 O296 1.962 . S
Zn295 O298 1.986 . S
Zn295 O300 1.996 . S
Zn295 O303 1.943 . S
O296 Zn295 1.962 . S
O296 C301 1.254 . S
O297 Zn294 2.031 . S
O297 C301 1.269 . S
O298 Zn295 1.986 . S
O298 C305 1.262 . S
O299 Zn294 2.049 . S
O299 C307 1.260 . S
O300 Zn295 1.996 . S
O300 C307 1.257 . S
C301 O296 1.254 . S
C301 O297 1.269 . S
C302 O303 1.249 . S
C302 O304 1.270 . S
O303 Zn295 1.943 . S
O303 C302 1.249 . S
O304 Zn294 2.067 . S
O304 C302 1.270 . S
C305 O298 1.262 . S
C305 O306 1.232 . S
O306 C305 1.232 . S
C307 O299 1.260 . S
C307 O300 1.257 . S
Zn308 O311 2.031 . S
Zn308 O313 2.049 . S
Zn308 O318 2.067 . S
Zn309 O310 1.962 . S
Zn309 O312 1.986 . S
Zn309 O314 1.996 . S
Zn309 O317 1.943 . S
O310 Zn309 1.962 . S
O310 C315 1.254 . S
O311 Zn308 2.031 . S
O311 C315 1.269 . S
O312 Zn309 1.986 . S
O312 C319 1.262 . S
O313 Zn308 2.049 . S
O313 C321 1.260 . S
O314 Zn309 1.996 . S
O314 C321 1.257 . S
C315 O310 1.254 . S
C315 O311 1.269 . S
C316 O317 1.249 . S
C316 O318 1.270 . S
O317 Zn309 1.943 . S
O317 C316 1.249 . S
O318 Zn308 2.067 . S
O318 C316 1.270 . S
C319 O312 1.262 . S
C319 O320 1.232 . S
O320 C319 1.232 . S
C321 O313 1.260 . S
C321 O314 1.257 . S
Zn322 O325 2.031 . S
Zn322 O327 2.049 . S
Zn322 O332 2.067 . S
Zn323 O324 1.962 . S
Zn323 O326 1.986 . S
Zn323 O328 1.996 . S
Zn323 O331 1.943 . S
O324 Zn323 1.962 . S
O324 C329 1.254 . S
O325 Zn322 2.031 . S
O325 C329 1.269 . S
O326 Zn323 1.986 . S
O326 C333 1.262 . S
O327 Zn322 2.049 . S
O327 C335 1.260 . S
O328 Zn323 1.996 . S
O328 C335 1.257 . S
C329 O324 1.254 . S
C329 O325 1.269 . S
C330 O331 1.249 . S
C330 O332 1.270 . S
O331 Zn323 1.943 . S
O331 C330 1.249 . S
O332 Zn322 2.067 . S
O332 C330 1.270 . S
C333 O326 1.262 . S
C333 O334 1.232 . S
O334 C333 1.232 . S
C335 O327 1.260 . S
C335 O328 1.257 . S
Tb336 C338 2.809 1_455 S
Tb336 O356 2.484 1_455 S
Tb336 O357 2.440 1_455 S
Tb336 O358 2.658 . S
Tb336 O359 2.409 . S
Tb336 O360 2.378 . S
Tb336 O364 2.325 . S
Tb336 O367 2.341 1_545 S
Tb337 C347 2.809 . S
Tb337 O358 2.325 . S
Tb337 O361 2.341 . S
Tb337 O362 2.484 . S
Tb337 O363 2.440 . S
Tb337 O364 2.658 . S
Tb337 O365 2.409 . S
Tb337 O366 2.378 1_545 S
C338 Tb336 2.809 1_655 S
C338 C339 1.514 . S
C338 O356 1.248 . S
C338 O357 1.266 . S
C339 C338 1.514 . S
C339 C340 1.359 . S
C339 C344 1.348 . S
C340 C339 1.359 . S
C340 C341 1.380 . S
C340 H368 0.929 . S
C341 C340 1.380 . S
C341 C342 1.347 . S
C341 H369 0.931 . S
C342 C341 1.347 . S
C342 C343 1.369 . S
C343 C342 1.369 . S
C343 C344 1.408 . S
C343 H370 0.930 . S
C344 C339 1.348 . S
C344 C343 1.408 . S
C344 H371 0.930 . S
C345 O358 1.281 . S
C345 O359 1.254 . S
C346 O360 1.236 . S
C346 O361 1.266 . S
C347 Tb337 2.809 . S
C347 C348 1.514 1_545 S
C347 O362 1.248 . S
C347 O363 1.266 . S
C348 C347 1.514 1_565 S
C348 C349 1.359 . S
C348 C353 1.348 . S
C349 C348 1.359 . S
C349 C350 1.380 . S
C349 H372 0.929 . S
C350 C349 1.380 . S
C350 C351 1.347 . S
C350 H373 0.931 . S
C351 C350 1.347 . S
C351 C352 1.369 . S
C352 C351 1.369 . S
C352 C353 1.408 . S
C352 H374 0.930 . S
C353 C348 1.348 . S
C353 C352 1.408 . S
C353 H375 0.930 1_565 S
C354 O364 1.281 . S
C354 O365 1.254 . S
C355 O366 1.236 . S
C355 O367 1.266 . S
O356 Tb336 2.484 1_655 S
O356 C338 1.248 . S
O357 Tb336 2.440 1_655 S
O357 C338 1.266 . S
O358 Tb336 2.658 . S
O358 Tb337 2.325 . S
O358 C345 1.281 . S
O359 Tb336 2.409 . S
O359 C345 1.254 . S
O360 Tb336 2.378 . S
O360 C346 1.236 . S
O361 Tb337 2.341 . S
O361 C346 1.266 . S
O362 Tb337 2.484 . S
O362 C347 1.248 . S
O363 Tb337 2.440 . S
O363 C347 1.266 . S
O364 Tb336 2.325 . S
O364 Tb337 2.658 . S
O364 C354 1.281 . S
O365 Tb337 2.409 . S
O365 C354 1.254 . S
O366 Tb337 2.378 1_565 S
O366 C355 1.236 . S
O367 Tb336 2.341 1_565 S
O367 C355 1.266 . S
H368 C340 0.929 . S
H369 C341 0.931 . S
H370 C343 0.930 . S
H371 C344 0.930 . S
H372 C349 0.929 . S
H373 C350 0.931 . S
H374 C352 0.930 . S
H375 C353 0.930 1_545 S
Tb376 C378 2.809 . S
Tb376 O396 2.484 . S
Tb376 O397 2.440 . S
Tb376 O398 2.658 . S
Tb376 O399 2.409 . S
Tb376 O400 2.378 . S
Tb376 O404 2.325 . S
Tb376 O407 2.341 . S
Tb377 C387 2.809 . S
Tb377 O398 2.325 . S
Tb377 O401 2.341 . S
Tb377 O402 2.484 . S
Tb377 O403 2.440 . S
Tb377 O404 2.658 . S
Tb377 O405 2.409 . S
Tb377 O406 2.378 . S
C378 Tb376 2.809 . S
C378 C379 1.514 . S
C378 O396 1.248 . S
C378 O397 1.266 . S
C379 C378 1.514 . S
C379 C380 1.359 . S
C379 C384 1.348 . S
C380 C379 1.359 . S
C380 C381 1.380 . S
C380 H408 0.929 . S
C381 C380 1.380 . S
C381 C382 1.347 . S
C381 H409 0.931 . S
C382 C381 1.347 . S
C382 C383 1.369 . S
C383 C382 1.369 . S
C383 C384 1.408 . S
C383 H410 0.930 . S
C384 C379 1.348 . S
C384 C383 1.408 . S
C384 H411 0.930 . S
C385 O398 1.281 . S
C385 O399 1.254 . S
C386 O400 1.236 . S
C386 O401 1.266 . S
C387 Tb377 2.809 . S
C387 C388 1.514 . S
C387 O402 1.248 . S
C387 O403 1.266 . S
C388 C387 1.514 . S
C388 C389 1.359 . S
C388 C393 1.348 . S
C389 C388 1.359 . S
C389 C390 1.380 . S
C389 H412 0.929 . S
C390 C389 1.380 . S
C390 C391 1.347 . S
C390 H413 0.931 . S
C391 C390 1.347 . S
C391 C392 1.369 . S
C392 C391 1.369 . S
C392 C393 1.408 . S
C392 H414 0.930 . S
C393 C388 1.348 . S
C393 C392 1.408 . S
C393 H415 0.930 . S
C394 O404 1.281 . S
C394 O405 1.254 . S
C395 O406 1.236 . S
C395 O407 1.266 . S
O396 Tb376 2.484 . S
O396 C378 1.248 . S
O397 Tb376 2.440 . S
O397 C378 1.266 . S
O398 Tb376 2.658 . S
O398 Tb377 2.325 . S
O398 C385 1.281 . S
O399 Tb376 2.409 . S
O399 C385 1.254 . S
O400 Tb376 2.378 . S
O400 C386 1.236 . S
O401 Tb377 2.341 . S
O401 C386 1.266 . S
O402 Tb377 2.484 . S
O402 C387 1.248 . S
O403 Tb377 2.440 . S
O403 C387 1.266 . S
O404 Tb376 2.325 . S
O404 Tb377 2.658 . S
O404 C394 1.281 . S
O405 Tb377 2.409 . S
O405 C394 1.254 . S
O406 Tb377 2.378 . S
O406 C395 1.236 . S
O407 Tb376 2.341 . S
O407 C395 1.266 . S
H408 C380 0.929 . S
H409 C381 0.931 . S
H410 C383 0.930 . S
H411 C384 0.930 . S
H412 C389 0.929 . S
H413 C390 0.931 . S
H414 C392 0.930 . S
H415 C393 0.930 . S
Tb416 C418 2.809 . S
Tb416 O436 2.484 . S
Tb416 O437 2.440 . S
Tb416 O438 2.658 . S
Tb416 O439 2.409 . S
Tb416 O440 2.378 1_545 S
Tb416 O444 2.325 . S
Tb416 O447 2.341 . S
Tb417 C427 2.809 . S
Tb417 O438 2.325 . S
Tb417 O441 2.341 1_545 S
Tb417 O442 2.484 . S
Tb417 O443 2.440 . S
Tb417 O444 2.658 . S
Tb417 O445 2.409 . S
Tb417 O446 2.378 . S
C418 Tb416 2.809 . S
C418 C419 1.514 1_545 S
C418 O436 1.248 . S
C418 O437 1.266 . S
C419 C418 1.514 1_565 S
C419 C420 1.359 . S
C419 C424 1.348 . S
C420 C419 1.359 . S
C420 C421 1.380 . S
C420 H448 0.929 . S
C421 C420 1.380 . S
C421 C422 1.347 . S
C421 H449 0.931 . S
C422 C421 1.347 . S
C422 C423 1.369 . S
C423 C422 1.369 . S
C423 C424 1.408 . S
C423 H450 0.930 . S
C424 C419 1.348 . S
C424 C423 1.408 . S
C424 H451 0.930 . S
C425 O438 1.281 . S
C425 O439 1.254 . S
C426 O440 1.236 . S
C426 O441 1.266 . S
C427 Tb417 2.809 . S
C427 C428 1.514 . S
C427 O442 1.248 . S
C427 O443 1.266 . S
C428 C427 1.514 . S
C428 C429 1.359 . S
C428 C433 1.348 . S
C429 C428 1.359 . S
C429 C430 1.380 . S
C429 H452 0.929 . S
C430 C429 1.380 . S
C430 C431 1.347 . S
C430 H453 0.931 . S
C431 C430 1.347 . S
C431 C432 1.369 . S
C432 C431 1.369 . S
C432 C433 1.408 . S
C432 H454 0.930 . S
C433 C428 1.348 . S
C433 C432 1.408 . S
C433 H455 0.930 . S
C434 O444 1.281 . S
C434 O445 1.254 . S
C435 O446 1.236 . S
C435 O447 1.266 . S
O436 Tb416 2.484 . S
O436 C418 1.248 . S
O437 Tb416 2.440 . S
O437 C418 1.266 . S
O438 Tb416 2.658 . S
O438 Tb417 2.325 . S
O438 C425 1.281 . S
O439 Tb416 2.409 . S
O439 C425 1.254 . S
O440 Tb416 2.378 1_565 S
O440 C426 1.236 . S
O441 Tb417 2.341 1_565 S
O441 C426 1.266 . S
O442 Tb417 2.484 . S
O442 C427 1.248 . S
O443 Tb417 2.440 . S
O443 C427 1.266 . S
O444 Tb416 2.325 . S
O444 Tb417 2.658 . S
O444 C434 1.281 . S
O445 Tb417 2.409 . S
O445 C434 1.254 . S
O446 Tb417 2.378 . S
O446 C435 1.236 . S
O447 Tb416 2.341 . S
O447 C435 1.266 . S
H448 C420 0.929 . S
H449 C421 0.931 . S
H450 C423 0.930 . S
H451 C424 0.930 . S
H452 C429 0.929 . S
H453 C430 0.931 . S
H454 C432 0.930 . S
H455 C433 0.930 . S
Tb456 C458 2.809 . S
Tb456 O476 2.484 . S
Tb456 O477 2.440 . S
Tb456 O478 2.658 . S
Tb456 O479 2.409 . S
Tb456 O480 2.378 . S
Tb456 O484 2.325 . S
Tb456 O487 2.341 . S
Tb457 C467 2.809 . S
Tb457 O478 2.325 . S
Tb457 O481 2.341 . S
Tb457 O482 2.484 . S
Tb457 O483 2.440 . S
Tb457 O484 2.658 . S
Tb457 O485 2.409 . S
Tb457 O486 2.378 . S
C458 Tb456 2.809 . S
C458 C459 1.514 . S
C458 O476 1.248 . S
C458 O477 1.266 . S
C459 C458 1.514 . S
C459 C460 1.359 . S
C459 C464 1.348 . S
C460 C459 1.359 . S
C460 C461 1.380 . S
C460 H488 0.929 . S
C461 C460 1.380 . S
C461 C462 1.347 . S
C461 H489 0.931 . S
C462 C461 1.347 . S
C462 C463 1.369 . S
C463 C462 1.369 . S
C463 C464 1.408 . S
C463 H490 0.930 . S
C464 C459 1.348 . S
C464 C463 1.408 . S
C464 H491 0.930 . S
C465 O478 1.281 . S
C465 O479 1.254 . S
C466 O480 1.236 . S
C466 O481 1.266 . S
C467 Tb457 2.809 . S
C467 C468 1.514 . S
C467 O482 1.248 . S
C467 O483 1.266 . S
C468 C467 1.514 . S
C468 C469 1.359 . S
C468 C473 1.348 . S
C469 C468 1.359 . S
C469 C470 1.380 . S
C469 H492 0.929 . S
C470 C469 1.380 . S
C470 C471 1.347 . S
C470 H493 0.931 . S
C471 C470 1.347 . S
C471 C472 1.369 . S
C472 C471 1.369 . S
C472 C473 1.408 . S
C472 H494 0.930 . S
C473 C468 1.348 . S
C473 C472 1.408 . S
C473 H495 0.930 . S
C474 O484 1.281 . S
C474 O485 1.254 . S
C475 O486 1.236 . S
C475 O487 1.266 . S
O476 Tb456 2.484 . S
O476 C458 1.248 . S
O477 Tb456 2.440 . S
O477 C458 1.266 . S
O478 Tb456 2.658 . S
O478 Tb457 2.325 . S
O478 C465 1.281 . S
O479 Tb456 2.409 . S
O479 C465 1.254 . S
O480 Tb456 2.378 . S
O480 C466 1.236 . S
O481 Tb457 2.341 . S
O481 C466 1.266 . S
O482 Tb457 2.484 . S
O482 C467 1.248 . S
O483 Tb457 2.440 . S
O483 C467 1.266 . S
O484 Tb456 2.325 . S
O484 Tb457 2.658 . S
O484 C474 1.281 . S
O485 Tb457 2.409 . S
O485 C474 1.254 . S
O486 Tb457 2.378 . S
O486 C475 1.236 . S
O487 Tb456 2.341 . S
O487 C475 1.266 . S
H488 C460 0.929 . S
H489 C461 0.931 . S
H490 C463 0.930 . S
H491 C464 0.930 . S
H492 C469 0.929 . S
H493 C470 0.931 . S
H494 C472 0.930 . S
H495 C473 0.930 . S
Tb496 C498 2.809 . S
Tb496 O516 2.484 . S
Tb496 O517 2.440 . S
Tb496 O518 2.658 . S
Tb496 O519 2.409 1_455 S
Tb496 O520 2.378 . S
Tb496 O524 2.325 . S
Tb496 O527 2.341 . S
Tb497 C507 2.809 . S
Tb497 O518 2.325 1_565 S
Tb497 O521 2.341 1_565 S
Tb497 O522 2.484 . S
Tb497 O523 2.440 . S
Tb497 O524 2.658 1_565 S
Tb497 O525 2.409 1_565 S
Tb497 O526 2.378 1_565 S
C498 Tb496 2.809 . S
C498 C499 1.514 . S
C498 O516 1.248 . S
C498 O517 1.266 . S
C499 C498 1.514 . S
C499 C500 1.359 . S
C499 C504 1.348 1_455 S
C500 C499 1.359 . S
C500 C501 1.380 . S
C500 H528 0.929 . S
C501 C500 1.380 . S
C501 C502 1.347 . S
C501 H529 0.931 . S
C502 C501 1.347 . S
C502 C503 1.369 1_455 S
C503 C502 1.369 1_655 S
C503 C504 1.408 . S
C503 H530 0.930 . S
C504 C499 1.348 1_655 S
C504 C503 1.408 . S
C504 H531 0.930 . S
C505 O518 1.281 1_655 S
C505 O519 1.254 . S
C506 O520 1.236 . S
C506 O521 1.266 . S
C507 Tb497 2.809 . S
C507 C508 1.514 . S
C507 O522 1.248 . S
C507 O523 1.266 . S
C508 C507 1.514 . S
C508 C509 1.359 . S
C508 C513 1.348 . S
C509 C508 1.359 . S
C509 C510 1.380 . S
C509 H532 0.929 . S
C510 C509 1.380 . S
C510 C511 1.347 . S
C510 H533 0.931 . S
C511 C510 1.347 . S
C511 C512 1.369 . S
C512 C511 1.369 . S
C512 C513 1.408 . S
C512 H534 0.930 . S
C513 C508 1.348 . S
C513 C512 1.408 . S
C513 H535 0.930 . S
C514 O524 1.281 . S
C514 O525 1.254 . S
C515 O526 1.236 . S
C515 O527 1.266 . S
O516 Tb496 2.484 . S
O516 C498 1.248 . S
O517 Tb496 2.440 . S
O517 C498 1.266 . S
O518 Tb496 2.658 . S
O518 Tb497 2.325 1_545 S
O518 C505 1.281 1_455 S
O519 Tb496 2.409 1_655 S
O519 C505 1.254 . S
O520 Tb496 2.378 . S
O520 C506 1.236 . S
O521 Tb497 2.341 1_545 S
O521 C506 1.266 . S
O522 Tb497 2.484 . S
O522 C507 1.248 . S
O523 Tb497 2.440 . S
O523 C507 1.266 . S
O524 Tb496 2.325 . S
O524 Tb497 2.658 1_545 S
O524 C514 1.281 . S
O525 Tb497 2.409 1_545 S
O525 C514 1.254 . S
O526 Tb497 2.378 1_545 S
O526 C515 1.236 . S
O527 Tb496 2.341 . S
O527 C515 1.266 . S
H528 C500 0.929 . S
H529 C501 0.931 . S
H530 C503 0.930 . S
H531 C504 0.930 . S
H532 C509 0.929 . S
H533 C510 0.931 . S
H534 C512 0.930 . S
H535 C513 0.930 . S
Tb536 C538 2.809 . S
Tb536 O556 2.484 . S
Tb536 O557 2.440 . S
Tb536 O558 2.658 . S
Tb536 O559 2.409 . S
Tb536 O560 2.378 . S
Tb536 O564 2.325 . S
Tb536 O567 2.341 . S
Tb537 C547 2.809 . S
Tb537 O558 2.325 . S
Tb537 O561 2.341 . S
Tb537 O562 2.484 . S
Tb537 O563 2.440 . S
Tb537 O564 2.658 . S
Tb537 O565 2.409 . S
Tb537 O566 2.378 . S
C538 Tb536 2.809 . S
C538 C539 1.514 . S
C538 O556 1.248 . S
C538 O557 1.266 . S
C539 C538 1.514 . S
C539 C540 1.359 . S
C539 C544 1.348 . S
C540 C539 1.359 . S
C540 C541 1.380 . S
C540 H568 0.929 . S
C541 C540 1.380 . S
C541 C542 1.347 . S
C541 H569 0.931 . S
C542 C541 1.347 . S
C542 C543 1.369 . S
C543 C542 1.369 . S
C543 C544 1.408 . S
C543 H570 0.930 . S
C544 C539 1.348 . S
C544 C543 1.408 . S
C544 H571 0.930 . S
C545 O558 1.281 . S
C545 O559 1.254 . S
C546 O560 1.236 . S
C546 O561 1.266 . S
C547 Tb537 2.809 . S
C547 C548 1.514 . S
C547 O562 1.248 . S
C547 O563 1.266 . S
C548 C547 1.514 . S
C548 C549 1.359 . S
C548 C553 1.348 . S
C549 C548 1.359 . S
C549 C550 1.380 . S
C549 H572 0.929 . S
C550 C549 1.380 . S
C550 C551 1.347 . S
C550 H573 0.931 . S
C551 C550 1.347 . S
C551 C552 1.369 . S
C552 C551 1.369 . S
C552 C553 1.408 . S
C552 H574 0.930 . S
C553 C548 1.348 . S
C553 C552 1.408 . S
C553 H575 0.930 . S
C554 O564 1.281 . S
C554 O565 1.254 . S
C555 O566 1.236 . S
C555 O567 1.266 . S
O556 Tb536 2.484 . S
O556 C538 1.248 . S
O557 Tb536 2.440 . S
O557 C538 1.266 . S
O558 Tb536 2.658 . S
O558 Tb537 2.325 . S
O558 C545 1.281 . S
O559 Tb536 2.409 . S
O559 C545 1.254 . S
O560 Tb536 2.378 . S
O560 C546 1.236 . S
O561 Tb537 2.341 . S
O561 C546 1.266 . S
O562 Tb537 2.484 . S
O562 C547 1.248 . S
O563 Tb537 2.440 . S
O563 C547 1.266 . S
O564 Tb536 2.325 . S
O564 Tb537 2.658 . S
O564 C554 1.281 . S
O565 Tb537 2.409 . S
O565 C554 1.254 . S
O566 Tb537 2.378 . S
O566 C555 1.236 . S
O567 Tb536 2.341 . S
O567 C555 1.266 . S
H568 C540 0.929 . S
H569 C541 0.931 . S
H570 C543 0.930 . S
H571 C544 0.930 . S
H572 C549 0.929 . S
H573 C550 0.931 . S
H574 C552 0.930 . S
H575 C553 0.930 . S
Tb576 C578 2.809 . S
Tb576 O596 2.484 1_545 S
Tb576 O597 2.440 . S
Tb576 O598 2.658 . S
Tb576 O599 2.409 . S
Tb576 O600 2.378 . S
Tb576 O604 2.325 . S
Tb576 O607 2.341 . S
Tb577 C587 2.809 . S
Tb577 O598 2.325 . S
Tb577 O601 2.341 . S
Tb577 O602 2.484 . S
Tb577 O603 2.440 . S
Tb577 O604 2.658 . S
Tb577 O605 2.409 1_545 S
Tb577 O606 2.378 . S
C578 Tb576 2.809 . S
C578 C579 1.514 1_545 S
C578 O596 1.248 1_545 S
C578 O597 1.266 . S
C579 C578 1.514 1_565 S
C579 C580 1.359 . S
C579 C584 1.348 1_565 S
C580 C579 1.359 . S
C580 C581 1.380 . S
C580 H608 0.929 . S
C581 C580 1.380 . S
C581 C582 1.347 . S
C581 H609 0.931 . S
C582 C581 1.347 . S
C582 C583 1.369 1_565 S
C583 C582 1.369 1_545 S
C583 C584 1.408 . S
C583 H610 0.930 . S
C584 C579 1.348 1_545 S
C584 C583 1.408 . S
C584 H611 0.930 . S
C585 O598 1.281 . S
C585 O599 1.254 . S
C586 O600 1.236 . S
C586 O601 1.266 . S
C587 Tb577 2.809 . S
C587 C588 1.514 . S
C587 O602 1.248 . S
C587 O603 1.266 . S
C588 C587 1.514 . S
C588 C589 1.359 . S
C588 C593 1.348 . S
C589 C588 1.359 . S
C589 C590 1.380 . S
C589 H612 0.929 . S
C590 C589 1.380 . S
C590 C591 1.347 . S
C590 H613 0.931 . S
C591 C590 1.347 . S
C591 C592 1.369 . S
C592 C591 1.369 . S
C592 C593 1.408 . S
C592 H614 0.930 . S
C593 C588 1.348 . S
C593 C592 1.408 . S
C593 H615 0.930 . S
C594 O604 1.281 1_565 S
C594 O605 1.254 . S
C595 O606 1.236 . S
C595 O607 1.266 . S
O596 Tb576 2.484 1_565 S
O596 C578 1.248 1_565 S
O597 Tb576 2.440 . S
O597 C578 1.266 . S
O598 Tb576 2.658 . S
O598 Tb577 2.325 . S
O598 C585 1.281 . S
O599 Tb576 2.409 . S
O599 C585 1.254 . S
O600 Tb576 2.378 . S
O600 C586 1.236 . S
O601 Tb577 2.341 . S
O601 C586 1.266 . S
O602 Tb577 2.484 . S
O602 C587 1.248 . S
O603 Tb577 2.440 . S
O603 C587 1.266 . S
O604 Tb576 2.325 . S
O604 Tb577 2.658 . S
O604 C594 1.281 1_545 S
O605 Tb577 2.409 1_565 S
O605 C594 1.254 . S
O606 Tb577 2.378 . S
O606 C595 1.236 . S
O607 Tb576 2.341 . S
O607 C595 1.266 . S
H608 C580 0.929 . S
H609 C581 0.931 . S
H610 C583 0.930 . S
H611 C584 0.930 . S
H612 C589 0.929 . S
H613 C590 0.931 . S
H614 C592 0.930 . S
H615 C593 0.930 . S
Tb616 C618 2.809 . S
Tb616 O636 2.484 . S
Tb616 O637 2.440 . S
Tb616 O638 2.658 . S
Tb616 O639 2.409 . S
Tb616 O640 2.378 . S
Tb616 O644 2.325 . S
Tb616 O647 2.341 . S
Tb617 C627 2.809 . S
Tb617 O638 2.325 . S
Tb617 O641 2.341 . S
Tb617 O642 2.484 . S
Tb617 O643 2.440 . S
Tb617 O644 2.658 . S
Tb617 O645 2.409 . S
Tb617 O646 2.378 . S
C618 Tb616 2.809 . S
C618 C619 1.514 . S
C618 O636 1.248 . S
C618 O637 1.266 . S
C619 C618 1.514 . S
C619 C620 1.359 . S
C619 C624 1.348 . S
C620 C619 1.359 . S
C620 C621 1.380 . S
C620 H648 0.929 . S
C621 C620 1.380 . S
C621 C622 1.347 . S
C621 H649 0.931 . S
C622 C621 1.347 . S
C622 C623 1.369 . S
C623 C622 1.369 . S
C623 C624 1.408 . S
C623 H650 0.930 . S
C624 C619 1.348 . S
C624 C623 1.408 . S
C624 H651 0.930 . S
C625 O638 1.281 . S
C625 O639 1.254 . S
C626 O640 1.236 . S
C626 O641 1.266 . S
C627 Tb617 2.809 . S
C627 C628 1.514 . S
C627 O642 1.248 . S
C627 O643 1.266 . S
C628 C627 1.514 . S
C628 C629 1.359 . S
C628 C633 1.348 . S
C629 C628 1.359 . S
C629 C630 1.380 . S
C629 H652 0.929 . S
C630 C629 1.380 . S
C630 C631 1.347 . S
C630 H653 0.931 . S
C631 C630 1.347 . S
C631 C632 1.369 . S
C632 C631 1.369 . S
C632 C633 1.408 . S
C632 H654 0.930 . S
C633 C628 1.348 . S
C633 C632 1.408 . S
C633 H655 0.930 . S
C634 O644 1.281 . S
C634 O645 1.254 . S
C635 O646 1.236 . S
C635 O647 1.266 . S
O636 Tb616 2.484 . S
O636 C618 1.248 . S
O637 Tb616 2.440 . S
O637 C618 1.266 . S
O638 Tb616 2.658 . S
O638 Tb617 2.325 . S
O638 C625 1.281 . S
O639 Tb616 2.409 . S
O639 C625 1.254 . S
O640 Tb616 2.378 . S
O640 C626 1.236 . S
O641 Tb617 2.341 . S
O641 C626 1.266 . S
O642 Tb617 2.484 . S
O642 C627 1.248 . S
O643 Tb617 2.440 . S
O643 C627 1.266 . S
O644 Tb616 2.325 . S
O644 Tb617 2.658 . S
O644 C634 1.281 . S
O645 Tb617 2.409 . S
O645 C634 1.254 . S
O646 Tb617 2.378 . S
O646 C635 1.236 . S
O647 Tb616 2.341 . S
O647 C635 1.266 . S
H648 C620 0.929 . S
H649 C621 0.931 . S
H650 C623 0.930 . S
H651 C624 0.930 . S
H652 C629 0.929 . S
H653 C630 0.931 . S
H654 C632 0.930 . S
H655 C633 0.930 . S
Tb656 C658 2.809 . S
Tb656 O676 2.484 . S
Tb656 O677 2.440 . S
Tb656 O678 2.658 . S
Tb656 O679 2.409 . S
Tb656 O680 2.378 . S
Tb656 O684 2.325 . S
Tb656 O687 2.341 . S
Tb657 C667 2.809 . S
Tb657 O678 2.325 . S
Tb657 O681 2.341 . S
Tb657 O682 2.484 . S
Tb657 O683 2.440 . S
Tb657 O684 2.658 . S
Tb657 O685 2.409 . S
Tb657 O686 2.378 . S
C658 Tb656 2.809 . S
C658 C659 1.514 . S
C658 O676 1.248 . S
C658 O677 1.266 . S
C659 C658 1.514 . S
C659 C660 1.359 . S
C659 C664 1.348 . S
C660 C659 1.359 . S
C660 C661 1.380 1_554 S
C660 H688 0.929 . S
C661 C660 1.380 1_556 S
C661 C662 1.347 . S
C661 H689 0.931 . S
C662 C661 1.347 . S
C662 C663 1.369 1_556 S
C663 C662 1.369 1_554 S
C663 C664 1.408 . S
C663 H690 0.930 . S
C664 C659 1.348 . S
C664 C663 1.408 . S
C664 H691 0.930 . S
C665 O678 1.281 . S
C665 O679 1.254 . S
C666 O680 1.236 . S
C666 O681 1.266 . S
C667 Tb657 2.809 . S
C667 C668 1.514 . S
C667 O682 1.248 . S
C667 O683 1.266 . S
C668 C667 1.514 . S
C668 C669 1.359 . S
C668 C673 1.348 . S
C669 C668 1.359 . S
C669 C670 1.380 . S
C669 H692 0.929 . S
C670 C669 1.380 . S
C670 C671 1.347 . S
C670 H693 0.931 . S
C671 C670 1.347 . S
C671 C672 1.369 . S
C672 C671 1.369 . S
C672 C673 1.408 . S
C672 H694 0.930 . S
C673 C668 1.348 . S
C673 C672 1.408 . S
C673 H695 0.930 . S
C674 O684 1.281 . S
C674 O685 1.254 . S
C675 O686 1.236 . S
C675 O687 1.266 . S
O676 Tb656 2.484 . S
O676 C658 1.248 . S
O677 Tb656 2.440 . S
O677 C658 1.266 . S
O678 Tb656 2.658 . S
O678 Tb657 2.325 . S
O678 C665 1.281 . S
O679 Tb656 2.409 . S
O679 C665 1.254 . S
O680 Tb656 2.378 . S
O680 C666 1.236 . S
O681 Tb657 2.341 . S
O681 C666 1.266 . S
O682 Tb657 2.484 . S
O682 C667 1.248 . S
O683 Tb657 2.440 . S
O683 C667 1.266 . S
O684 Tb656 2.325 . S
O684 Tb657 2.658 . S
O684 C674 1.281 . S
O685 Tb657 2.409 . S
O685 C674 1.254 . S
O686 Tb657 2.378 . S
O686 C675 1.236 . S
O687 Tb656 2.341 . S
O687 C675 1.266 . S
H688 C660 0.929 . S
H689 C661 0.931 . S
H690 C663 0.930 . S
H691 C664 0.930 . S
H692 C669 0.929 . S
H693 C670 0.931 . S
H694 C672 0.930 . S
H695 C673 0.930 . S
Tb696 C698 2.809 . S
Tb696 O716 2.484 . S
Tb696 O717 2.440 . S
Tb696 O718 2.658 . S
Tb696 O719 2.409 . S
Tb696 O720 2.378 . S
Tb696 O724 2.325 . S
Tb696 O727 2.341 . S
Tb697 C707 2.809 . S
Tb697 O718 2.325 . S
Tb697 O721 2.341 . S
Tb697 O722 2.484 . S
Tb697 O723 2.440 . S
Tb697 O724 2.658 . S
Tb697 O725 2.409 . S
Tb697 O726 2.378 . S
C698 Tb696 2.809 . S
C698 C699 1.514 . S
C698 O716 1.248 . S
C698 O717 1.266 . S
C699 C698 1.514 . S
C699 C700 1.359 . S
C699 C704 1.348 . S
C700 C699 1.359 . S
C700 C701 1.380 . S
C700 H728 0.929 . S
C701 C700 1.380 . S
C701 C702 1.347 . S
C701 H729 0.931 . S
C702 C701 1.347 . S
C702 C703 1.369 . S
C703 C702 1.369 . S
C703 C704 1.408 . S
C703 H730 0.930 . S
C704 C699 1.348 . S
C704 C703 1.408 . S
C704 H731 0.930 . S
C705 O718 1.281 . S
C705 O719 1.254 . S
C706 O720 1.236 . S
C706 O721 1.266 . S
C707 Tb697 2.809 . S
C707 C708 1.514 . S
C707 O722 1.248 . S
C707 O723 1.266 . S
C708 C707 1.514 . S
C708 C709 1.359 . S
C708 C713 1.348 . S
C709 C708 1.359 . S
C709 C710 1.380 . S
C709 H732 0.929 . S
C710 C709 1.380 . S
C710 C711 1.347 . S
C710 H733 0.931 . S
C711 C710 1.347 . S
C711 C712 1.369 . S
C712 C711 1.369 . S
C712 C713 1.408 . S
C712 H734 0.930 . S
C713 C708 1.348 . S
C713 C712 1.408 . S
C713 H735 0.930 . S
C714 O724 1.281 . S
C714 O725 1.254 . S
C715 O726 1.236 . S
C715 O727 1.266 . S
O716 Tb696 2.484 . S
O716 C698 1.248 . S
O717 Tb696 2.440 . S
O717 C698 1.266 . S
O718 Tb696 2.658 . S
O718 Tb697 2.325 . S
O718 C705 1.281 . S
O719 Tb696 2.409 . S
O719 C705 1.254 . S
O720 Tb696 2.378 . S
O720 C706 1.236 . S
O721 Tb697 2.341 . S
O721 C706 1.266 . S
O722 Tb697 2.484 . S
O722 C707 1.248 . S
O723 Tb697 2.440 . S
O723 C707 1.266 . S
O724 Tb696 2.325 . S
O724 Tb697 2.658 . S
O724 C714 1.281 . S
O725 Tb697 2.409 . S
O725 C714 1.254 . S
O726 Tb697 2.378 . S
O726 C715 1.236 . S
O727 Tb696 2.341 . S
O727 C715 1.266 . S
H728 C700 0.929 . S
H729 C701 0.931 . S
H730 C703 0.930 . S
H731 C704 0.930 . S
H732 C709 0.929 . S
H733 C710 0.931 . S
H734 C712 0.930 . S
H735 C713 0.930 . S
Tb736 C738 2.772 1_455 S
Tb736 O756 2.460 1_455 S
Tb736 O757 2.399 1_455 S
Tb736 O758 2.682 . S
Tb736 O759 2.402 . S
Tb736 O760 2.367 1_455 S
Tb736 O764 2.352 . S
Tb736 O767 2.376 . S
Tb737 C747 2.809 . S
Tb737 O758 2.325 . S
Tb737 O761 2.341 . S
Tb737 O762 2.484 . S
Tb737 O763 2.440 . S
Tb737 O764 2.658 . S
Tb737 O765 2.409 . S
Tb737 O766 2.378 . S
C738 Tb736 2.772 1_655 S
C738 C739 1.514 . S
C738 O756 1.248 . S
C738 O757 1.266 . S
C739 C738 1.514 . S
C739 C740 1.359 . S
C739 C744 1.348 . S
C740 C739 1.359 . S
C740 C741 1.380 . S
C740 H768 0.929 . S
C741 C740 1.380 . S
C741 C742 1.347 . S
C741 H769 0.931 . S
C742 C741 1.347 . S
C742 C743 1.369 . S
C743 C742 1.369 . S
C743 C744 1.408 . S
C743 H770 0.930 . S
C744 C739 1.348 . S
C744 C743 1.408 . S
C744 H771 0.930 . S
C745 O758 1.281 . S
C745 O759 1.254 . S
C746 O760 1.236 1_455 S
C746 O761 1.266 . S
C747 Tb737 2.809 . S
C747 C748 1.514 . S
C747 O762 1.248 . S
C747 O763 1.266 . S
C748 C747 1.514 . S
C748 C749 1.359 . S
C748 C753 1.348 . S
C749 C748 1.359 . S
C749 C750 1.380 . S
C749 H772 0.929 . S
C750 C749 1.380 . S
C750 C751 1.347 . S
C750 H773 0.931 . S
C751 C750 1.347 . S
C751 C752 1.369 . S
C752 C751 1.369 . S
C752 C753 1.408 . S
C752 H774 0.930 . S
C753 C748 1.348 . S
C753 C752 1.408 . S
C753 H775 0.930 . S
C754 O764 1.281 . S
C754 O765 1.254 . S
C755 O766 1.236 . S
C755 O767 1.266 . S
O756 Tb736 2.460 1_655 S
O756 C738 1.248 . S
O757 Tb736 2.399 1_655 S
O757 C738 1.266 . S
O758 Tb736 2.682 . S
O758 Tb737 2.325 . S
O758 C745 1.281 . S
O759 Tb736 2.402 . S
O759 C745 1.254 . S
O760 Tb736 2.367 1_655 S
O760 C746 1.236 1_655 S
O761 Tb737 2.341 . S
O761 C746 1.266 . S
O762 Tb737 2.484 . S
O762 C747 1.248 . S
O763 Tb737 2.440 . S
O763 C747 1.266 . S
O764 Tb736 2.352 . S
O764 Tb737 2.658 . S
O764 C754 1.281 . S
O765 Tb737 2.409 . S
O765 C754 1.254 . S
O766 Tb737 2.378 . S
O766 C755 1.236 . S
O767 Tb736 2.376 . S
O767 C755 1.266 . S
H768 C740 0.929 . S
H769 C741 0.931 . S
H770 C743 0.930 . S
H771 C744 0.930 . S
H772 C749 0.929 . S
H773 C750 0.931 . S
H774 C752 0.930 . S
H775 C753 0.930 . S
Tb776 C778 2.809 . S
Tb776 O796 2.484 . S
Tb776 O797 2.440 . S
Tb776 O798 2.658 . S
Tb776 O799 2.409 . S
Tb776 O800 2.378 . S
Tb776 O804 2.325 . S
Tb776 O807 2.341 . S
Tb777 C787 2.809 . S
Tb777 O798 2.325 . S
Tb777 O801 2.341 . S
Tb777 O802 2.484 . S
Tb777 O803 2.440 . S
Tb777 O804 2.658 . S
Tb777 O805 2.409 . S
Tb777 O806 2.378 . S
C778 Tb776 2.809 . S
C778 C779 1.514 . S
C778 O796 1.248 . S
C778 O797 1.266 . S
C779 C778 1.514 . S
C779 C780 1.359 . S
C779 C784 1.348 . S
C780 C779 1.359 . S
C780 C781 1.380 . S
C780 H808 0.929 . S
C781 C780 1.380 . S
C781 C782 1.347 . S
C781 H809 0.931 . S
C782 C781 1.347 . S
C782 C783 1.369 . S
C783 C782 1.369 . S
C783 C784 1.408 . S
C783 H810 0.930 . S
C784 C779 1.348 . S
C784 C783 1.408 . S
C784 H811 0.930 . S
C785 O798 1.281 . S
C785 O799 1.254 . S
C786 O800 1.236 . S
C786 O801 1.266 . S
C787 Tb777 2.809 . S
C787 C788 1.514 . S
C787 O802 1.248 . S
C787 O803 1.266 . S
C788 C787 1.514 . S
C788 C789 1.359 . S
C788 C793 1.348 . S
C789 C788 1.359 . S
C789 C790 1.380 . S
C789 H812 0.929 . S
C790 C789 1.380 . S
C790 C791 1.347 . S
C790 H813 0.931 . S
C791 C790 1.347 . S
C791 C792 1.369 . S
C792 C791 1.369 . S
C792 C793 1.408 . S
C792 H814 0.930 . S
C793 C788 1.348 . S
C793 C792 1.408 . S
C793 H815 0.930 . S
C794 O804 1.281 . S
C794 O805 1.254 . S
C795 O806 1.236 . S
C795 O807 1.266 . S
O796 Tb776 2.484 . S
O796 C778 1.248 . S
O797 Tb776 2.440 . S
O797 C778 1.266 . S
O798 Tb776 2.658 . S
O798 Tb777 2.325 . S
O798 C785 1.281 . S
O799 Tb776 2.409 . S
O799 C785 1.254 . S
O800 Tb776 2.378 . S
O800 C786 1.236 . S
O801 Tb777 2.341 . S
O801 C786 1.266 . S
O802 Tb777 2.484 . S
O802 C787 1.248 . S
O803 Tb777 2.440 . S
O803 C787 1.266 . S
O804 Tb776 2.325 . S
O804 Tb777 2.658 . S
O804 C794 1.281 . S
O805 Tb777 2.409 . S
O805 C794 1.254 . S
O806 Tb777 2.378 . S
O806 C795 1.236 . S
O807 Tb776 2.341 . S
O807 C795 1.266 . S
H808 C780 0.929 . S
H809 C781 0.931 . S
H810 C783 0.930 . S
H811 C784 0.930 . S
H812 C789 0.929 . S
H813 C790 0.931 . S
H814 C792 0.930 . S
H815 C793 0.930 . S
Tb816 C818 2.809 . S
Tb816 O836 2.484 . S
Tb816 O837 2.440 . S
Tb816 O838 2.658 . S
Tb816 O839 2.409 . S
Tb816 O840 2.378 . S
Tb816 O844 2.325 . S
Tb816 O847 2.341 . S
Tb817 C827 2.809 . S
Tb817 O838 2.325 . S
Tb817 O841 2.341 . S
Tb817 O842 2.484 . S
Tb817 O843 2.440 . S
Tb817 O844 2.658 . S
Tb817 O845 2.409 . S
Tb817 O846 2.378 . S
C818 Tb816 2.809 . S
C818 C819 1.514 . S
C818 O836 1.248 . S
C818 O837 1.266 . S
C819 C818 1.514 . S
C819 C820 1.359 . S
C819 C824 1.348 . S
C820 C819 1.359 . S
C820 C821 1.380 . S
C820 H848 0.929 . S
C821 C820 1.380 . S
C821 C822 1.347 . S
C821 H849 0.931 . S
C822 C821 1.347 . S
C822 C823 1.369 . S
C823 C822 1.369 . S
C823 C824 1.408 . S
C823 H850 0.930 . S
C824 C819 1.348 . S
C824 C823 1.408 . S
C824 H851 0.930 . S
C825 O838 1.281 . S
C825 O839 1.254 . S
C826 O840 1.236 . S
C826 O841 1.266 . S
C827 Tb817 2.809 . S
C827 C828 1.514 . S
C827 O842 1.248 . S
C827 O843 1.266 . S
C828 C827 1.514 . S
C828 C829 1.359 . S
C828 C833 1.348 . S
C829 C828 1.359 . S
C829 C830 1.380 1_556 S
C829 H852 0.929 . S
C830 C829 1.380 1_554 S
C830 C831 1.347 . S
C830 H853 0.931 . S
C831 C830 1.347 . S
C831 C832 1.369 . S
C832 C831 1.369 . S
C832 C833 1.408 1_554 S
C832 H854 0.930 . S
C833 C828 1.348 . S
C833 C832 1.408 1_556 S
C833 H855 0.930 . S
C834 O844 1.281 . S
C834 O845 1.254 . S
C835 O846 1.236 . S
C835 O847 1.266 . S
O836 Tb816 2.484 . S
O836 C818 1.248 . S
O837 Tb816 2.440 . S
O837 C818 1.266 . S
O838 Tb816 2.658 . S
O838 Tb817 2.325 . S
O838 C825 1.281 . S
O839 Tb816 2.409 . S
O839 C825 1.254 . S
O840 Tb816 2.378 . S
O840 C826 1.236 . S
O841 Tb817 2.341 . S
O841 C826 1.266 . S
O842 Tb817 2.484 . S
O842 C827 1.248 . S
O843 Tb817 2.440 . S
O843 C827 1.266 . S
O844 Tb816 2.325 . S
O844 Tb817 2.658 . S
O844 C834 1.281 . S
O845 Tb817 2.409 . S
O845 C834 1.254 . S
O846 Tb817 2.378 . S
O846 C835 1.236 . S
O847 Tb816 2.341 . S
O847 C835 1.266 . S
H848 C820 0.929 . S
H849 C821 0.931 . S
H850 C823 0.930 . S
H851 C824 0.930 . S
H852 C829 0.929 . S
H853 C830 0.931 . S
H854 C832 0.930 . S
H855 C833 0.930 . S
Tb856 C858 2.809 . S
Tb856 O876 2.484 . S
Tb856 O877 2.440 . S
Tb856 O878 2.658 . S
Tb856 O879 2.409 . S
Tb856 O880 2.378 . S
Tb856 O884 2.325 . S
Tb856 O887 2.341 . S
Tb857 C867 2.809 . S
Tb857 O878 2.325 . S
Tb857 O881 2.341 . S
Tb857 O882 2.484 . S
Tb857 O883 2.440 . S
Tb857 O884 2.658 . S
Tb857 O885 2.409 . S
Tb857 O886 2.378 . S
C858 Tb856 2.809 . S
C858 C859 1.514 . S
C858 O876 1.248 . S
C858 O877 1.266 . S
C859 C858 1.514 . S
C859 C860 1.359 . S
C859 C864 1.348 . S
C860 C859 1.359 . S
C860 C861 1.380 . S
C860 H888 0.929 . S
C861 C860 1.380 . S
C861 C862 1.347 . S
C861 H889 0.931 . S
C862 C861 1.347 . S
C862 C863 1.369 . S
C863 C862 1.369 . S
C863 C864 1.408 . S
C863 H890 0.930 . S
C864 C859 1.348 . S
C864 C863 1.408 . S
C864 H891 0.930 . S
C865 O878 1.281 . S
C865 O879 1.254 . S
C866 O880 1.236 . S
C866 O881 1.266 . S
C867 Tb857 2.809 . S
C867 C868 1.514 . S
C867 O882 1.248 . S
C867 O883 1.266 . S
C868 C867 1.514 . S
C868 C869 1.359 . S
C868 C873 1.348 . S
C869 C868 1.359 . S
C869 C870 1.380 . S
C869 H892 0.929 . S
C870 C869 1.380 . S
C870 C871 1.347 . S
C870 H893 0.931 . S
C871 C870 1.347 . S
C871 C872 1.369 . S
C872 C871 1.369 . S
C872 C873 1.408 . S
C872 H894 0.930 . S
C873 C868 1.348 . S
C873 C872 1.408 . S
C873 H895 0.930 . S
C874 O884 1.281 . S
C874 O885 1.254 . S
C875 O886 1.236 . S
C875 O887 1.266 . S
O876 Tb856 2.484 . S
O876 C858 1.248 . S
O877 Tb856 2.440 . S
O877 C858 1.266 . S
O878 Tb856 2.658 . S
O878 Tb857 2.325 . S
O878 C865 1.281 . S
O879 Tb856 2.409 . S
O879 C865 1.254 . S
O880 Tb856 2.378 . S
O880 C866 1.236 . S
O881 Tb857 2.341 . S
O881 C866 1.266 . S
O882 Tb857 2.484 . S
O882 C867 1.248 . S
O883 Tb857 2.440 . S
O883 C867 1.266 . S
O884 Tb856 2.325 . S
O884 Tb857 2.658 . S
O884 C874 1.281 . S
O885 Tb857 2.409 . S
O885 C874 1.254 . S
O886 Tb857 2.378 . S
O886 C875 1.236 . S
O887 Tb856 2.341 . S
O887 C875 1.266 . S
H888 C860 0.929 . S
H889 C861 0.931 . S
H890 C863 0.930 . S
H891 C864 0.930 . S
H892 C869 0.929 . S
H893 C870 0.931 . S
H894 C872 0.930 . S
H895 C873 0.930 . S
Tb896 C898 2.809 . S
Tb896 O916 2.484 . S
Tb896 O917 2.440 . S
Tb896 O918 2.658 . S
Tb896 O919 2.409 . S
Tb896 O920 2.378 . S
Tb896 O924 2.325 . S
Tb896 O927 2.341 . S
Tb897 C907 2.809 . S
Tb897 O918 2.325 . S
Tb897 O921 2.341 . S
Tb897 O922 2.484 . S
Tb897 O923 2.440 . S
Tb897 O924 2.658 . S
Tb897 O925 2.409 . S
Tb897 O926 2.378 . S
C898 Tb896 2.809 . S
C898 C899 1.514 . S
C898 O916 1.248 . S
C898 O917 1.266 . S
C899 C898 1.514 . S
C899 C900 1.359 . S
C899 C904 1.348 . S
C900 C899 1.359 . S
C900 C901 1.380 . S
C900 H928 0.929 . S
C901 C900 1.380 . S
C901 C902 1.347 . S
C901 H929 0.931 . S
C902 C901 1.347 . S
C902 C903 1.369 . S
C903 C902 1.369 . S
C903 C904 1.408 . S
C903 H930 0.930 . S
C904 C899 1.348 . S
C904 C903 1.408 . S
C904 H931 0.930 . S
C905 O918 1.281 . S
C905 O919 1.254 . S
C906 O920 1.236 . S
C906 O921 1.266 . S
C907 Tb897 2.809 . S
C907 C908 1.514 . S
C907 O922 1.248 . S
C907 O923 1.266 . S
C908 C907 1.514 . S
C908 C909 1.359 . S
C908 C913 1.348 . S
C909 C908 1.359 . S
C909 C910 1.380 . S
C909 H932 0.929 . S
C910 C909 1.380 . S
C910 C911 1.347 . S
C910 H933 0.931 . S
C911 C910 1.347 . S
C911 C912 1.369 . S
C912 C911 1.369 . S
C912 C913 1.408 . S
C912 H934 0.930 . S
C913 C908 1.348 . S
C913 C912 1.408 . S
C913 H935 0.930 . S
C914 O924 1.281 . S
C914 O925 1.254 . S
C915 O926 1.236 . S
C915 O927 1.266 . S
O916 Tb896 2.484 . S
O916 C898 1.248 . S
O917 Tb896 2.440 . S
O917 C898 1.266 . S
O918 Tb896 2.658 . S
O918 Tb897 2.325 . S
O918 C905 1.281 . S
O919 Tb896 2.409 . S
O919 C905 1.254 . S
O920 Tb896 2.378 . S
O920 C906 1.236 . S
O921 Tb897 2.341 . S
O921 C906 1.266 . S
O922 Tb897 2.484 . S
O922 C907 1.248 . S
O923 Tb897 2.440 . S
O923 C907 1.266 . S
O924 Tb896 2.325 . S
O924 Tb897 2.658 . S
O924 C914 1.281 . S
O925 Tb897 2.409 . S
O925 C914 1.254 . S
O926 Tb897 2.378 . S
O926 C915 1.236 . S
O927 Tb896 2.341 . S
O927 C915 1.266 . S
H928 C900 0.929 . S
H929 C901 0.931 . S
H930 C903 0.930 . S
H931 C904 0.930 . S
H932 C909 0.929 . S
H933 C910 0.931 . S
H934 C912 0.930 . S
H935 C913 0.930 . S
Tb936 C938 2.809 . S
Tb936 O956 2.484 . S
Tb936 O957 2.440 . S
Tb936 O958 2.658 . S
Tb936 O959 2.409 . S
Tb936 O960 2.378 . S
Tb936 O964 2.325 . S
Tb936 O967 2.341 . S
Tb937 C947 2.809 1_455 S
Tb937 O958 2.325 . S
Tb937 O961 2.341 . S
Tb937 O962 2.484 1_455 S
Tb937 O963 2.440 1_455 S
Tb937 O964 2.658 . S
Tb937 O965 2.409 . S
Tb937 O966 2.378 . S
C938 Tb936 2.809 . S
C938 C939 1.514 . S
C938 O956 1.248 . S
C938 O957 1.266 . S
C939 C938 1.514 . S
C939 C940 1.359 . S
C939 C944 1.348 . S
C940 C939 1.359 . S
C940 C941 1.380 . S
C940 H968 0.929 . S
C941 C940 1.380 . S
C941 C942 1.347 . S
C941 H969 0.931 . S
C942 C941 1.347 . S
C942 C943 1.369 . S
C943 C942 1.369 . S
C943 C944 1.408 . S
C943 H970 0.930 . S
C944 C939 1.348 . S
C944 C943 1.408 . S
C944 H971 0.930 . S
C945 O958 1.281 . S
C945 O959 1.254 . S
C946 O960 1.236 . S
C946 O961 1.266 . S
C947 Tb937 2.809 1_655 S
C947 C948 1.514 . S
C947 O962 1.248 . S
C947 O963 1.266 . S
C948 C947 1.514 . S
C948 C949 1.359 . S
C948 C953 1.348 . S
C949 C948 1.359 . S
C949 C950 1.380 . S
C949 H972 0.929 . S
C950 C949 1.380 . S
C950 C951 1.347 . S
C950 H973 0.931 . S
C951 C950 1.347 . S
C951 C952 1.369 . S
C952 C951 1.369 . S
C952 C953 1.408 . S
C952 H974 0.930 . S
C953 C948 1.348 . S
C953 C952 1.408 . S
C953 H975 0.930 . S
C954 O964 1.281 . S
C954 O965 1.254 . S
C955 O966 1.236 . S
C955 O967 1.266 . S
O956 Tb936 2.484 . S
O956 C938 1.248 . S
O957 Tb936 2.440 . S
O957 C938 1.266 . S
O958 Tb936 2.658 . S
O958 Tb937 2.325 . S
O958 C945 1.281 . S
O959 Tb936 2.409 . S
O959 C945 1.254 . S
O960 Tb936 2.378 . S
O960 C946 1.236 . S
O961 Tb937 2.341 . S
O961 C946 1.266 . S
O962 Tb937 2.484 1_655 S
O962 C947 1.248 . S
O963 Tb937 2.440 1_655 S
O963 C947 1.266 . S
O964 Tb936 2.325 . S
O964 Tb937 2.658 . S
O964 C954 1.281 . S
O965 Tb937 2.409 . S
O965 C954 1.254 . S
O966 Tb937 2.378 . S
O966 C955 1.236 . S
O967 Tb936 2.341 . S
O967 C955 1.266 . S
H968 C940 0.929 . S
H969 C941 0.931 . S
H970 C943 0.930 . S
H971 C944 0.930 . S
H972 C949 0.929 . S
H973 C950 0.931 . S
H974 C952 0.930 . S
H975 C953 0.930 . S
C976 C977 1.369 . S
C976 C978 1.419 . S
C976 H980 0.930 . S
C977 C976 1.369 . S
C977 C986 1.429 . S
C978 C976 1.419 . S
C978 C979 1.363 . S
C978 H981 0.929 . S
C979 C978 1.363 . S
C979 C985 1.428 . S
H980 C976 0.930 . S
H981 C978 0.929 . S
S982 N983 1.613 . S
S982 N984 1.610 1_656 S
N983 S982 1.613 . S
N983 C986 1.350 1_656 S
N984 S982 1.610 1_454 S
N984 C985 1.351 . S
C985 C979 1.428 . S
C985 N984 1.351 . S
C985 C986 1.434 . S
C986 C977 1.429 . S
C986 N983 1.350 1_454 S
C986 C985 1.434 . S
C987 C988 1.369 . S
C987 C989 1.419 . S
C987 H991 0.930 . S
C988 C987 1.369 . S
C988 C997 1.429 . S
C989 C987 1.419 . S
C989 C990 1.363 . S
C989 H992 0.929 . S
C990 C989 1.363 . S
C990 C996 1.428 . S
H991 C987 0.930 . S
H992 C989 0.929 . S
S993 N994 1.613 . S
S993 N995 1.610 . S
N994 S993 1.613 . S
N994 C997 1.350 . S
N995 S993 1.610 . S
N995 C996 1.351 . S
C996 C990 1.428 . S
C996 N995 1.351 . S
C996 C997 1.434 . S
C997 C988 1.429 . S
C997 N994 1.350 . S
C997 C996 1.434 . S
C998 C999 1.369 . S
C998 C1000 1.419 . S
C998 H1002 0.930 . S
C999 C998 1.369 . S
C999 C1008 1.429 . S
C1000 C998 1.419 . S
C1000 C1001 1.363 . S
C1000 H1003 0.929 . S
C1001 C1000 1.363 . S
C1001 C1007 1.428 . S
H1002 C998 0.930 . S
H1003 C1000 0.929 . S
S1004 N1005 1.613 . S
S1004 N1006 1.610 . S
N1005 S1004 1.613 . S
N1005 C1008 1.350 . S
N1006 S1004 1.610 . S
N1006 C1007 1.351 . S
C1007 C1001 1.428 . S
C1007 N1006 1.351 . S
C1007 C1008 1.434 . S
C1008 C999 1.429 . S
C1008 N1005 1.350 . S
C1008 C1007 1.434 . S
C1009 C1010 1.369 . S
C1009 C1011 1.419 . S
C1009 H1013 0.930 . S
C1010 C1009 1.369 . S
C1010 C1019 1.429 . S
C1011 C1009 1.419 . S
C1011 C1012 1.363 . S
C1011 H1014 0.929 . S
C1012 C1011 1.363 . S
C1012 C1018 1.428 . S
H1013 C1009 0.930 . S
H1014 C1011 0.929 . S
S1015 N1016 1.613 . S
S1015 N1017 1.610 . S
N1016 S1015 1.613 . S
N1016 C1019 1.350 . S
N1017 S1015 1.610 . S
N1017 C1018 1.351 . S
C1018 C1012 1.428 . S
C1018 N1017 1.351 . S
C1018 C1019 1.434 . S
C1019 C1010 1.429 . S
C1019 N1016 1.350 . S
C1019 C1018 1.434 . S
C1020 C1021 1.369 . S
C1020 C1022 1.419 . S
C1020 H1024 0.930 . S
C1021 C1020 1.369 . S
C1021 C1030 1.429 . S
C1022 C1020 1.419 . S
C1022 C1023 1.363 . S
C1022 H1025 0.929 . S
C1023 C1022 1.363 . S
C1023 C1029 1.428 . S
H1024 C1020 0.930 . S
H1025 C1022 0.929 . S
S1026 N1027 1.613 . S
S1026 N1028 1.610 . S
N1027 S1026 1.613 . S
N1027 C1030 1.350 . S
N1028 S1026 1.610 . S
N1028 C1029 1.351 . S
C1029 C1023 1.428 . S
C1029 N1028 1.351 . S
C1029 C1030 1.434 . S
C1030 C1021 1.429 . S
C1030 N1027 1.350 . S
C1030 C1029 1.434 . S
C1031 C1032 1.369 . S
C1031 C1033 1.419 . S
C1031 H1035 0.930 . S
C1032 C1031 1.369 . S
C1032 C1041 1.429 . S
C1033 C1031 1.419 . S
C1033 C1034 1.363 . S
C1033 H1036 0.929 . S
C1034 C1033 1.363 . S
C1034 C1040 1.428 . S
H1035 C1031 0.930 . S
H1036 C1033 0.929 . S
S1037 N1038 1.613 . S
S1037 N1039 1.610 . S
N1038 S1037 1.613 . S
N1038 C1041 1.350 . S
N1039 S1037 1.610 . S
N1039 C1040 1.351 . S
C1040 C1034 1.428 . S
C1040 N1039 1.351 . S
C1040 C1041 1.434 . S
C1041 C1032 1.429 . S
C1041 N1038 1.350 . S
C1041 C1040 1.434 . S
C1042 C1043 1.369 . S
C1042 C1044 1.419 . S
C1042 H1046 0.930 . S
C1043 C1042 1.369 . S
C1043 C1052 1.429 . S
C1044 C1042 1.419 . S
C1044 C1045 1.363 . S
C1044 H1047 0.929 . S
C1045 C1044 1.363 . S
C1045 C1051 1.428 . S
H1046 C1042 0.930 . S
H1047 C1044 0.929 . S
S1048 N1049 1.613 . S
S1048 N1050 1.610 . S
N1049 S1048 1.613 . S
N1049 C1052 1.350 . S
N1050 S1048 1.610 . S
N1050 C1051 1.351 . S
C1051 C1045 1.428 . S
C1051 N1050 1.351 . S
C1051 C1052 1.434 . S
C1052 C1043 1.429 . S
C1052 N1049 1.350 . S
C1052 C1051 1.434 . S
C1053 C1054 1.369 . S
C1053 C1055 1.419 . S
C1053 H1057 0.930 . S
C1054 C1053 1.369 . S
C1054 C1063 1.429 . S
C1055 C1053 1.419 . S
C1055 C1056 1.363 . S
C1055 H1058 0.929 . S
C1056 C1055 1.363 . S
C1056 C1062 1.428 . S
H1057 C1053 0.930 . S
H1058 C1055 0.929 . S
S1059 N1060 1.613 . S
S1059 N1061 1.610 . S
N1060 S1059 1.613 . S
N1060 C1063 1.350 . S
N1061 S1059 1.610 . S
N1061 C1062 1.351 . S
C1062 C1056 1.428 . S
C1062 N1061 1.351 . S
C1062 C1063 1.434 . S
C1063 C1054 1.429 . S
C1063 N1060 1.350 . S
C1063 C1062 1.434 . S
C1064 C1065 1.369 . S
C1064 C1066 1.419 . S
C1064 H1068 0.930 . S
C1065 C1064 1.369 . S
C1065 C1074 1.429 1_655 S
C1066 C1064 1.419 . S
C1066 C1067 1.363 1_655 S
C1066 H1069 0.929 . S
C1067 C1066 1.363 1_455 S
C1067 C1073 1.428 . S
H1068 C1064 0.930 . S
H1069 C1066 0.929 . S
S1070 N1071 1.613 . S
S1070 N1072 1.610 . S
N1071 S1070 1.613 . S
N1071 C1074 1.350 . S
N1072 S1070 1.610 . S
N1072 C1073 1.351 . S
C1073 C1067 1.428 . S
C1073 N1072 1.351 . S
C1073 C1074 1.434 . S
C1074 C1065 1.429 1_455 S
C1074 N1071 1.350 . S
C1074 C1073 1.434 . S
C1075 C1076 1.369 . S
C1075 C1077 1.419 . S
C1075 H1079 0.930 . S
C1076 C1075 1.369 . S
C1076 C1085 1.429 . S
C1077 C1075 1.419 . S
C1077 C1078 1.363 . S
C1077 H1080 0.929 . S
C1078 C1077 1.363 . S
C1078 C1084 1.428 . S
H1079 C1075 0.930 . S
H1080 C1077 0.929 . S
S1081 N1082 1.613 . S
S1081 N1083 1.610 . S
N1082 S1081 1.613 . S
N1082 C1085 1.350 . S
N1083 S1081 1.610 . S
N1083 C1084 1.351 . S
C1084 C1078 1.428 . S
C1084 N1083 1.351 . S
C1084 C1085 1.434 . S
C1085 C1076 1.429 . S
C1085 N1082 1.350 . S
C1085 C1084 1.434 . S
C1086 C1087 1.369 . S
C1086 C1088 1.419 . S
C1086 H1090 0.930 1_545 S
C1087 C1086 1.369 . S
C1087 C1096 1.429 . S
C1088 C1086 1.419 . S
C1088 C1089 1.363 . S
C1088 H1091 0.929 1_545 S
C1089 C1088 1.363 . S
C1089 C1095 1.428 . S
H1090 C1086 0.930 1_565 S
H1091 C1088 0.929 1_565 S
S1092 N1093 1.613 . S
S1092 N1094 1.610 . S
N1093 S1092 1.613 . S
N1093 C1096 1.350 . S
N1094 S1092 1.610 . S
N1094 C1095 1.351 . S
C1095 C1089 1.428 . S
C1095 N1094 1.351 . S
C1095 C1096 1.434 . S
C1096 C1087 1.429 . S
C1096 N1093 1.350 . S
C1096 C1095 1.434 . S
C1097 C1098 1.369 1_556 S
C1097 C1099 1.419 . S
C1097 H1101 0.930 . S
C1098 C1097 1.369 1_554 S
C1098 C1107 1.429 1_554 S
C1099 C1097 1.419 . S
C1099 C1100 1.363 . S
C1099 H1102 0.929 . S
C1100 C1099 1.363 . S
C1100 C1106 1.428 . S
H1101 C1097 0.930 . S
H1102 C1099 0.929 . S
S1103 N1104 1.613 1_556 S
S1103 N1105 1.610 . S
N1104 S1103 1.613 1_554 S
N1104 C1107 1.350 1_554 S
N1105 S1103 1.610 . S
N1105 C1106 1.351 . S
C1106 C1100 1.428 . S
C1106 N1105 1.351 . S
C1106 C1107 1.434 . S
C1107 C1098 1.429 1_556 S
C1107 N1104 1.350 1_556 S
C1107 C1106 1.434 . S
C1108 C1109 1.369 1_455 S
C1108 C1110 1.419 . S
C1108 H1112 0.930 1_545 S
C1109 C1108 1.369 1_655 S
C1109 C1118 1.429 . S
C1110 C1108 1.419 . S
C1110 C1111 1.363 . S
C1110 H1113 0.929 . S
C1111 C1110 1.363 . S
C1111 C1117 1.428 1_455 S
H1112 C1108 0.930 1_565 S
H1113 C1110 0.929 . S
S1114 N1115 1.613 . S
S1114 N1116 1.610 . S
N1115 S1114 1.613 . S
N1115 C1118 1.350 . S
N1116 S1114 1.610 . S
N1116 C1117 1.351 . S
C1117 C1111 1.428 1_655 S
C1117 N1116 1.351 . S
C1117 C1118 1.434 . S
C1118 C1109 1.429 . S
C1118 N1115 1.350 . S
C1118 C1117 1.434 . S
C1119 C1120 1.369 . S
C1119 C1121 1.419 . S
C1119 H1123 0.930 . S
C1120 C1119 1.369 . S
C1120 C1129 1.429 . S
C1121 C1119 1.419 . S
C1121 C1122 1.363 . S
C1121 H1124 0.929 . S
C1122 C1121 1.363 . S
C1122 C1128 1.428 . S
H1123 C1119 0.930 . S
H1124 C1121 0.929 . S
S1125 N1126 1.613 . S
S1125 N1127 1.610 . S
N1126 S1125 1.613 . S
N1126 C1129 1.350 . S
N1127 S1125 1.610 . S
N1127 C1128 1.351 . S
C1128 C1122 1.428 . S
C1128 N1127 1.351 . S
C1128 C1129 1.434 . S
C1129 C1120 1.429 . S
C1129 N1126 1.350 . S
C1129 C1128 1.434 . S
C1130 C1131 1.369 . S
C1130 C1132 1.419 . S
C1130 H1134 0.930 . S
C1131 C1130 1.369 . S
C1131 C1140 1.429 . S
C1132 C1130 1.419 . S
C1132 C1133 1.342 1_556 S
C1132 H1135 0.929 . S
C1133 C1132 1.342 1_554 S
C1133 C1139 1.433 . S
H1134 C1130 0.930 . S
H1135 C1132 0.929 . S
S1136 N1137 1.613 . S
S1136 N1138 1.610 . S
N1137 S1136 1.613 . S
N1137 C1140 1.350 1_554 S
N1138 S1136 1.610 . S
N1138 C1139 1.351 . S
C1139 C1133 1.433 . S
C1139 N1138 1.351 . S
C1139 C1140 1.434 1_554 S
C1140 C1131 1.429 . S
C1140 N1137 1.350 1_556 S
C1140 C1139 1.434 1_556 S
C1141 C1142 1.369 . S
C1141 C1143 1.419 . S
C1141 H1145 0.930 . S
C1142 C1141 1.369 . S
C1142 C1151 1.429 . S
C1143 C1141 1.419 . S
C1143 C1144 1.363 . S
C1143 H1146 0.929 . S
C1144 C1143 1.363 . S
C1144 C1150 1.428 . S
H1145 C1141 0.930 . S
H1146 C1143 0.929 . S
S1147 N1148 1.613 . S
S1147 N1149 1.610 . S
N1148 S1147 1.613 . S
N1148 C1151 1.350 . S
N1149 S1147 1.610 . S
N1149 C1150 1.351 . S
C1150 C1144 1.428 . S
C1150 N1149 1.351 . S
C1150 C1151 1.434 . S
C1151 C1142 1.429 . S
C1151 N1148 1.350 . S
C1151 C1150 1.434 . S
C1152 C1153 1.369 . S
C1152 C1154 1.419 . S
C1152 H1156 0.930 . S
C1153 C1152 1.369 . S
C1153 C1162 1.429 . S
C1154 C1152 1.419 . S
C1154 C1155 1.363 . S
C1154 H1157 0.929 . S
C1155 C1154 1.363 . S
C1155 C1161 1.428 . S
H1156 C1152 0.930 . S
H1157 C1154 0.929 . S
S1158 N1159 1.613 . S
S1158 N1160 1.610 . S
N1159 S1158 1.613 . S
N1159 C1162 1.350 . S
N1160 S1158 1.610 . S
N1160 C1161 1.351 . S
C1161 C1155 1.428 . S
C1161 N1160 1.351 . S
C1161 C1162 1.434 . S
C1162 C1153 1.429 . S
C1162 N1159 1.350 . S
C1162 C1161 1.434 . S
C1163 C1164 1.369 . S
C1163 C1165 1.419 . S
C1163 H1167 0.930 . S
C1164 C1163 1.369 . S
C1164 C1173 1.429 . S
C1165 C1163 1.419 . S
C1165 C1166 1.363 . S
C1165 H1168 0.929 . S
C1166 C1165 1.363 . S
C1166 C1172 1.428 . S
H1167 C1163 0.930 . S
H1168 C1165 0.929 . S
S1169 N1170 1.613 1_556 S
S1169 N1171 1.610 1_556 S
N1170 S1169 1.613 1_554 S
N1170 C1173 1.350 . S
N1171 S1169 1.610 1_554 S
N1171 C1172 1.351 . S
C1172 C1166 1.428 . S
C1172 N1171 1.351 . S
C1172 C1173 1.434 . S
C1173 C1164 1.429 . S
C1173 N1170 1.350 . S
C1173 C1172 1.434 . S
C1174 C1175 1.369 . S
C1174 C1176 1.419 . S
C1174 H1178 0.930 . S
C1175 C1174 1.369 . S
C1175 C1184 1.429 . S
C1176 C1174 1.419 . S
C1176 C1177 1.363 . S
C1176 H1179 0.929 . S
C1177 C1176 1.363 . S
C1177 C1183 1.428 . S
H1178 C1174 0.930 . S
H1179 C1176 0.929 . S
S1180 N1181 1.613 . S
S1180 N1182 1.610 . S
N1181 S1180 1.613 . S
N1181 C1184 1.350 . S
N1182 S1180 1.610 . S
N1182 C1183 1.351 . S
C1183 C1177 1.428 . S
C1183 N1182 1.351 . S
C1183 C1184 1.434 . S
C1184 C1175 1.429 . S
C1184 N1181 1.350 . S
C1184 C1183 1.434 . S
C1185 C1186 1.369 . S
C1185 C1187 1.419 . S
C1185 H1189 0.930 . S
C1186 C1185 1.369 . S
C1186 C1195 1.429 . S
C1187 C1185 1.419 . S
C1187 C1188 1.363 . S
C1187 H1190 0.929 . S
C1188 C1187 1.363 . S
C1188 C1194 1.428 . S
H1189 C1185 0.930 . S
H1190 C1187 0.929 . S
S1191 N1192 1.613 . S
S1191 N1193 1.610 . S
N1192 S1191 1.613 . S
N1192 C1195 1.350 . S
N1193 S1191 1.610 . S
N1193 C1194 1.351 . S
C1194 C1188 1.428 . S
C1194 N1193 1.351 . S
C1194 C1195 1.434 . S
C1195 C1186 1.429 . S
C1195 N1192 1.350 . S
C1195 C1194 1.434 . S
C1196 C1197 1.369 . S
C1196 C1198 1.419 . S
C1196 H1200 0.930 . S
C1197 C1196 1.369 . S
C1197 C1206 1.429 . S
C1198 C1196 1.419 . S
C1198 C1199 1.363 . S
C1198 H1201 0.929 . S
C1199 C1198 1.363 . S
C1199 C1205 1.428 . S
H1200 C1196 0.930 . S
H1201 C1198 0.929 . S
S1202 N1203 1.613 . S
S1202 N1204 1.610 . S
N1203 S1202 1.613 . S
N1203 C1206 1.350 . S
N1204 S1202 1.610 . S
N1204 C1205 1.351 . S
C1205 C1199 1.428 . S
C1205 N1204 1.351 . S
C1205 C1206 1.434 . S
C1206 C1197 1.429 . S
C1206 N1203 1.350 . S
C1206 C1205 1.434 . S
C1207 C1208 1.369 . S
C1207 C1209 1.419 . S
C1207 H1211 0.930 . S
C1208 C1207 1.369 . S
C1208 C1217 1.429 . S
C1209 C1207 1.419 . S
C1209 C1210 1.363 . S
C1209 H1212 0.929 . S
C1210 C1209 1.363 . S
C1210 C1216 1.428 . S
H1211 C1207 0.930 . S
H1212 C1209 0.929 . S
S1213 N1214 1.613 . S
S1213 N1215 1.610 . S
N1214 S1213 1.613 . S
N1214 C1217 1.350 . S
N1215 S1213 1.610 . S
N1215 C1216 1.351 . S
C1216 C1210 1.428 . S
C1216 N1215 1.351 . S
C1216 C1217 1.434 . S
C1217 C1208 1.429 . S
C1217 N1214 1.350 . S
C1217 C1216 1.434 . S
C1218 C1219 1.369 . S
C1218 C1220 1.419 . S
C1218 H1222 0.930 . S
C1219 C1218 1.369 . S
C1219 C1228 1.429 . S
C1220 C1218 1.419 . S
C1220 C1221 1.363 . S
C1220 H1223 0.929 . S
C1221 C1220 1.363 . S
C1221 C1227 1.428 . S
H1222 C1218 0.930 . S
H1223 C1220 0.929 . S
S1224 N1225 1.613 . S
S1224 N1226 1.610 . S
N1225 S1224 1.613 . S
N1225 C1228 1.350 . S
N1226 S1224 1.610 . S
N1226 C1227 1.351 . S
C1227 C1221 1.428 . S
C1227 N1226 1.351 . S
C1227 C1228 1.434 . S
C1228 C1219 1.429 . S
C1228 N1225 1.350 . S
C1228 C1227 1.434 . S
C1229 C1230 1.369 . S
C1229 C1231 1.419 . S
C1229 H1233 0.930 . S
C1230 C1229 1.369 . S
C1230 C1239 1.429 . S
C1231 C1229 1.419 . S
C1231 C1232 1.363 . S
C1231 H1234 0.929 . S
C1232 C1231 1.363 . S
C1232 C1238 1.428 . S
H1233 C1229 0.930 . S
H1234 C1231 0.929 . S
S1235 N1236 1.613 . S
S1235 N1237 1.610 . S
N1236 S1235 1.613 . S
N1236 C1239 1.350 . S
N1237 S1235 1.610 . S
N1237 C1238 1.351 . S
C1238 C1232 1.428 . S
C1238 N1237 1.351 . S
C1238 C1239 1.434 . S
C1239 C1230 1.429 . S
C1239 N1236 1.350 . S
C1239 C1238 1.434 . S
C1240 C1241 1.369 . S
C1240 C1242 1.419 . S
C1240 H1244 0.930 . S
C1241 C1240 1.369 . S
C1241 C1250 1.429 . S
C1242 C1240 1.419 . S
C1242 C1243 1.363 . S
C1242 H1245 0.929 . S
C1243 C1242 1.363 . S
C1243 C1249 1.428 . S
H1244 C1240 0.930 . S
H1245 C1242 0.929 . S
S1246 N1247 1.613 . S
S1246 N1248 1.610 . S
N1247 S1246 1.613 . S
N1247 C1250 1.350 . S
N1248 S1246 1.610 . S
N1248 C1249 1.351 . S
C1249 C1243 1.428 . S
C1249 N1248 1.351 . S
C1249 C1250 1.434 . S
C1250 C1241 1.429 . S
C1250 N1247 1.350 . S
C1250 C1249 1.434 . S
C1251 C1252 1.369 . S
C1251 C1253 1.419 . S
C1251 H1255 0.930 . S
C1252 C1251 1.369 . S
C1252 C1261 1.429 . S
C1253 C1251 1.419 . S
C1253 C1254 1.363 . S
C1253 H1256 0.929 . S
C1254 C1253 1.363 . S
C1254 C1260 1.428 . S
H1255 C1251 0.930 . S
H1256 C1253 0.929 . S
S1257 N1258 1.613 . S
S1257 N1259 1.610 . S
N1258 S1257 1.613 . S
N1258 C1261 1.350 . S
N1259 S1257 1.610 . S
N1259 C1260 1.351 . S
C1260 C1254 1.428 . S
C1260 N1259 1.351 . S
C1260 C1261 1.434 . S
C1261 C1252 1.429 . S
C1261 N1258 1.350 . S
C1261 C1260 1.434 . S
C1262 C1263 1.369 . S
C1262 C1264 1.419 . S
C1262 H1266 0.930 . S
C1263 C1262 1.369 . S
C1263 C1272 1.429 . S
C1264 C1262 1.419 . S
C1264 C1265 1.363 . S
C1264 H1267 0.929 . S
C1265 C1264 1.363 . S
C1265 C1271 1.428 . S
H1266 C1262 0.930 . S
H1267 C1264 0.929 . S
S1268 N1269 1.613 . S
S1268 N1270 1.610 . S
N1269 S1268 1.613 . S
N1269 C1272 1.350 . S
N1270 S1268 1.610 . S
N1270 C1271 1.351 . S
C1271 C1265 1.428 . S
C1271 N1270 1.351 . S
C1271 C1272 1.434 . S
C1272 C1263 1.429 . S
C1272 N1269 1.350 . S
C1272 C1271 1.434 . S
C1273 C1274 1.369 . S
C1273 C1275 1.419 . S
C1273 H1277 0.930 . S
C1274 C1273 1.369 . S
C1274 C1283 1.429 . S
C1275 C1273 1.419 . S
C1275 C1276 1.363 . S
C1275 H1278 0.929 . S
C1276 C1275 1.363 . S
C1276 C1282 1.428 . S
H1277 C1273 0.930 . S
H1278 C1275 0.929 . S
S1279 N1280 1.613 . S
S1279 N1281 1.610 . S
N1280 S1279 1.613 . S
N1280 C1283 1.350 . S
N1281 S1279 1.610 . S
N1281 C1282 1.351 . S
C1282 C1276 1.428 . S
C1282 N1281 1.351 . S
C1282 C1283 1.434 . S
C1283 C1274 1.429 . S
C1283 N1280 1.350 . S
C1283 C1282 1.434 . S
C1284 C1285 1.346 1_655 S
C1284 C1286 1.419 . S
C1284 H1288 0.930 . S
C1285 C1284 1.346 1_455 S
C1285 C1294 1.458 . S
C1286 C1284 1.419 . S
C1286 C1287 1.402 . S
C1286 H1289 0.929 . S
C1287 C1286 1.402 . S
C1287 C1293 1.397 1_655 S
H1288 C1284 0.930 . S
H1289 C1286 0.929 . S
S1290 N1291 1.613 . S
S1290 N1292 1.610 . S
N1291 S1290 1.613 . S
N1291 C1294 1.350 . S
N1292 S1290 1.610 . S
N1292 C1293 1.351 . S
C1293 C1287 1.397 1_455 S
C1293 N1292 1.351 . S
C1293 C1294 1.434 . S
C1294 C1285 1.458 . S
C1294 N1291 1.350 . S
C1294 C1293 1.434 . S
C1295 C1296 1.369 . S
C1295 C1297 1.419 . S
C1295 H1299 0.930 . S
C1296 C1295 1.369 . S
C1296 C1305 1.429 . S
C1297 C1295 1.419 . S
C1297 C1298 1.363 . S
C1297 H1300 0.929 . S
C1298 C1297 1.363 . S
C1298 C1304 1.428 . S
H1299 C1295 0.930 . S
H1300 C1297 0.929 . S
S1301 N1302 1.613 . S
S1301 N1303 1.610 . S
N1302 S1301 1.613 . S
N1302 C1305 1.350 . S
N1303 S1301 1.610 . S
N1303 C1304 1.351 . S
C1304 C1298 1.428 . S
C1304 N1303 1.351 . S
C1304 C1305 1.434 . S
C1305 C1296 1.429 . S
C1305 N1302 1.350 . S
C1305 C1304 1.434 . S
C1306 C1307 1.369 1_554 S
C1306 C1308 1.419 . S
C1306 H1310 0.930 . S
C1307 C1306 1.369 1_556 S
C1307 C1316 1.429 . S
C1308 C1306 1.419 . S
C1308 C1309 1.363 . S
C1308 H1311 0.929 . S
C1309 C1308 1.363 . S
C1309 C1315 1.428 . S
H1310 C1306 0.930 . S
H1311 C1308 0.929 . S
S1312 N1313 1.613 . S
S1312 N1314 1.610 . S
N1313 S1312 1.613 . S
N1313 C1316 1.350 . S
N1314 S1312 1.610 . S
N1314 C1315 1.351 1_556 S
C1315 C1309 1.428 . S
C1315 N1314 1.351 1_554 S
C1315 C1316 1.434 1_554 S
C1316 C1307 1.429 . S
C1316 N1313 1.350 . S
C1316 C1315 1.434 1_556 S
C1317 C1318 1.369 . S
C1317 C1319 1.419 1_455 S
C1317 H1321 0.930 . S
C1318 C1317 1.369 . S
C1318 C1327 1.429 . S
C1319 C1317 1.419 1_655 S
C1319 C1320 1.363 . S
C1319 H1322 0.929 . S
C1320 C1319 1.363 . S
C1320 C1326 1.428 . S
H1321 C1317 0.930 . S
H1322 C1319 0.929 . S
S1323 N1324 1.613 . S
S1323 N1325 1.610 1_455 S
N1324 S1323 1.613 . S
N1324 C1327 1.350 . S
N1325 S1323 1.610 1_655 S
N1325 C1326 1.351 . S
C1326 C1320 1.428 . S
C1326 N1325 1.351 . S
C1326 C1327 1.434 1_655 S
C1327 C1318 1.429 . S
C1327 N1324 1.350 . S
C1327 C1326 1.434 1_455 S
C1328 C1329 1.369 . S
C1328 C1330 1.419 . S
C1328 H1332 0.930 . S
C1329 C1328 1.369 . S
C1329 C1338 1.429 . S
C1330 C1328 1.419 . S
C1330 C1331 1.363 . S
C1330 H1333 0.929 1_556 S
C1331 C1330 1.363 . S
C1331 C1337 1.428 . S
H1332 C1328 0.930 . S
H1333 C1330 0.929 1_554 S
S1334 N1335 1.613 1_565 S
S1334 N1336 1.610 . S
N1335 S1334 1.613 1_545 S
N1335 C1338 1.350 . S
N1336 S1334 1.610 . S
N1336 C1337 1.351 1_565 S
C1337 C1331 1.428 . S
C1337 N1336 1.351 1_545 S
C1337 C1338 1.434 . S
C1338 C1329 1.429 . S
C1338 N1335 1.350 . S
C1338 C1337 1.434 . S
C1339 C1340 1.369 . S
C1339 C1341 1.419 . S
C1339 H1343 0.930 . S
C1340 C1339 1.369 . S
C1340 C1349 1.429 . S
C1341 C1339 1.419 . S
C1341 C1342 1.363 . S
C1341 H1344 0.929 . S
C1342 C1341 1.363 . S
C1342 C1348 1.428 . S
H1343 C1339 0.930 . S
H1344 C1341 0.929 . S
S1345 N1346 1.613 . S
S1345 N1347 1.610 . S
N1346 S1345 1.613 . S
N1346 C1349 1.350 . S
N1347 S1345 1.610 . S
N1347 C1348 1.351 . S
C1348 C1342 1.428 . S
C1348 N1347 1.351 . S
C1348 C1349 1.434 . S
C1349 C1340 1.429 . S
C1349 N1346 1.350 . S
C1349 C1348 1.434 . S
C1350 C1351 1.369 . S
C1350 C1352 1.419 . S
C1350 H1354 0.930 . S
C1351 C1350 1.369 . S
C1351 C1360 1.429 . S
C1352 C1350 1.419 . S
C1352 C1353 1.363 . S
C1352 H1355 0.929 . S
C1353 C1352 1.363 . S
C1353 C1359 1.428 . S
H1354 C1350 0.930 . S
H1355 C1352 0.929 . S
S1356 N1357 1.613 . S
S1356 N1358 1.610 . S
N1357 S1356 1.613 . S
N1357 C1360 1.350 1_565 S
N1358 S1356 1.610 . S
N1358 C1359 1.351 1_565 S
C1359 C1353 1.428 . S
C1359 N1358 1.351 1_545 S
C1359 C1360 1.434 . S
C1360 C1351 1.429 . S
C1360 N1357 1.350 1_545 S
C1360 C1359 1.434 . S
C1361 C1362 1.369 . S
C1361 C1363 1.419 . S
C1361 H1365 0.930 . S
C1362 C1361 1.369 . S
C1362 C1371 1.429 . S
C1363 C1361 1.419 . S
C1363 C1364 1.363 . S
C1363 H1366 0.929 . S
C1364 C1363 1.363 . S
C1364 C1370 1.428 . S
H1365 C1361 0.930 . S
H1366 C1363 0.929 . S
S1367 N1368 1.613 . S
S1367 N1369 1.610 . S
N1368 S1367 1.613 . S
N1368 C1371 1.350 . S
N1369 S1367 1.610 . S
N1369 C1370 1.351 . S
C1370 C1364 1.428 . S
C1370 N1369 1.351 . S
C1370 C1371 1.434 . S
C1371 C1362 1.429 . S
C1371 N1368 1.350 . S
C1371 C1370 1.434 . S
C1372 C1373 1.369 . S
C1372 C1374 1.419 . S
C1372 H1376 0.930 . S
C1373 C1372 1.369 . S
C1373 C1382 1.429 . S
C1374 C1372 1.419 . S
C1374 C1375 1.363 . S
C1374 H1377 0.929 . S
C1375 C1374 1.363 . S
C1375 C1381 1.428 . S
H1376 C1372 0.930 . S
H1377 C1374 0.929 . S
S1378 N1379 1.613 . S
S1378 N1380 1.610 . S
N1379 S1378 1.613 . S
N1379 C1382 1.350 . S
N1380 S1378 1.610 . S
N1380 C1381 1.351 . S
C1381 C1375 1.428 . S
C1381 N1380 1.351 . S
C1381 C1382 1.434 . S
C1382 C1373 1.429 . S
C1382 N1379 1.350 . S
C1382 C1381 1.434 . S
C1383 C1384 1.369 . S
C1383 C1385 1.419 . S
C1383 H1387 0.930 . S
C1384 C1383 1.369 . S
C1384 C1393 1.429 . S
C1385 C1383 1.419 . S
C1385 C1386 1.363 . S
C1385 H1388 0.929 . S
C1386 C1385 1.363 . S
C1386 C1392 1.428 . S
H1387 C1383 0.930 . S
H1388 C1385 0.929 . S
S1389 N1390 1.613 . S
S1389 N1391 1.610 . S
N1390 S1389 1.613 . S
N1390 C1393 1.350 . S
N1391 S1389 1.610 . S
N1391 C1392 1.351 . S
C1392 C1386 1.428 . S
C1392 N1391 1.351 . S
C1392 C1393 1.434 . S
C1393 C1384 1.429 . S
C1393 N1390 1.350 . S
C1393 C1392 1.434 . S
C1394 C1395 1.369 . S
C1394 C1396 1.419 . S
C1394 H1398 0.930 . S
C1395 C1394 1.369 . S
C1395 C1404 1.429 . S
C1396 C1394 1.419 . S
C1396 C1397 1.363 . S
C1396 H1399 0.929 . S
C1397 C1396 1.363 . S
C1397 C1403 1.428 . S
H1398 C1394 0.930 . S
H1399 C1396 0.929 . S
S1400 N1401 1.613 . S
S1400 N1402 1.610 . S
N1401 S1400 1.613 . S
N1401 C1404 1.350 . S
N1402 S1400 1.610 . S
N1402 C1403 1.351 . S
C1403 C1397 1.428 . S
C1403 N1402 1.351 . S
C1403 C1404 1.434 . S
C1404 C1395 1.429 . S
C1404 N1401 1.350 . S
C1404 C1403 1.434 . S
C1405 C1406 1.369 . S
C1405 C1407 1.419 . S
C1405 H1409 0.930 1_556 S
C1406 C1405 1.369 . S
C1406 C1415 1.429 . S
C1407 C1405 1.419 . S
C1407 C1408 1.363 . S
C1407 H1410 0.929 . S
C1408 C1407 1.363 . S
C1408 C1414 1.428 . S
H1409 C1405 0.930 1_554 S
H1410 C1407 0.929 . S
S1411 N1412 1.613 . S
S1411 N1413 1.610 . S
N1412 S1411 1.613 . S
N1412 C1415 1.350 . S
N1413 S1411 1.610 . S
N1413 C1414 1.351 . S
C1414 C1408 1.428 . S
C1414 N1413 1.351 . S
C1414 C1415 1.434 . S
C1415 C1406 1.429 . S
C1415 N1412 1.350 . S
C1415 C1414 1.434 . S
C1416 C1417 1.369 . S
C1416 C1418 1.419 . S
C1416 H1420 0.930 . S
C1417 C1416 1.369 . S
C1417 C1426 1.429 . S
C1418 C1416 1.419 . S
C1418 C1419 1.363 . S
C1418 H1421 0.929 . S
C1419 C1418 1.363 . S
C1419 C1425 1.428 . S
H1420 C1416 0.930 . S
H1421 C1418 0.929 . S
S1422 N1423 1.613 . S
S1422 N1424 1.610 . S
N1423 S1422 1.613 . S
N1423 C1426 1.350 . S
N1424 S1422 1.610 . S
N1424 C1425 1.351 . S
C1425 C1419 1.428 . S
C1425 N1424 1.351 . S
C1425 C1426 1.434 . S
C1426 C1417 1.429 . S
C1426 N1423 1.350 . S
C1426 C1425 1.434 . S
C1427 C1428 1.369 . S
C1427 C1429 1.419 . S
C1427 H1431 0.930 . S
C1428 C1427 1.369 . S
C1428 C1437 1.429 . S
C1429 C1427 1.419 . S
C1429 C1430 1.363 . S
C1429 H1432 0.929 . S
C1430 C1429 1.363 . S
C1430 C1436 1.428 . S
H1431 C1427 0.930 . S
H1432 C1429 0.929 . S
S1433 N1434 1.613 . S
S1433 N1435 1.610 . S
N1434 S1433 1.613 . S
N1434 C1437 1.350 . S
N1435 S1433 1.610 . S
N1435 C1436 1.351 . S
C1436 C1430 1.428 . S
C1436 N1435 1.351 . S
C1436 C1437 1.434 . S
C1437 C1428 1.429 . S
C1437 N1434 1.350 . S
C1437 C1436 1.434 . S
C1438 C1439 1.369 . S
C1438 C1440 1.419 . S
C1438 H1442 0.930 . S
C1439 C1438 1.369 . S
C1439 C1448 1.429 . S
C1440 C1438 1.419 . S
C1440 C1441 1.363 . S
C1440 H1443 0.929 . S
C1441 C1440 1.363 . S
C1441 C1447 1.428 . S
H1442 C1438 0.930 . S
H1443 C1440 0.929 . S
S1444 N1445 1.613 . S
S1444 N1446 1.610 . S
N1445 S1444 1.613 . S
N1445 C1448 1.350 . S
N1446 S1444 1.610 . S
N1446 C1447 1.351 . S
C1447 C1441 1.428 . S
C1447 N1446 1.351 . S
C1447 C1448 1.434 . S
C1448 C1439 1.429 . S
C1448 N1445 1.350 . S
C1448 C1447 1.434 . S
C1449 C1450 1.369 . S
C1449 C1451 1.419 . S
C1449 H1453 0.930 . S
C1450 C1449 1.369 . S
C1450 C1459 1.429 . S
C1451 C1449 1.419 . S
C1451 C1452 1.363 . S
C1451 H1454 0.929 . S
C1452 C1451 1.363 . S
C1452 C1458 1.428 . S
H1453 C1449 0.930 . S
H1454 C1451 0.929 . S
S1455 N1456 1.613 . S
S1455 N1457 1.610 . S
N1456 S1455 1.613 . S
N1456 C1459 1.350 . S
N1457 S1455 1.610 . S
N1457 C1458 1.351 . S
C1458 C1452 1.428 . S
C1458 N1457 1.351 . S
C1458 C1459 1.434 . S
C1459 C1450 1.429 . S
C1459 N1456 1.350 . S
C1459 C1458 1.434 . S
C1460 C1461 1.369 . S
C1460 C1462 1.419 . S
C1460 H1464 0.930 . S
C1461 C1460 1.369 . S
C1461 C1470 1.429 . S
C1462 C1460 1.419 . S
C1462 C1463 1.363 . S
C1462 H1465 0.929 . S
C1463 C1462 1.363 . S
C1463 C1469 1.428 . S
H1464 C1460 0.930 . S
H1465 C1462 0.929 . S
S1466 N1467 1.613 . S
S1466 N1468 1.610 . S
N1467 S1466 1.613 . S
N1467 C1470 1.350 . S
N1468 S1466 1.610 . S
N1468 C1469 1.351 . S
C1469 C1463 1.428 . S
C1469 N1468 1.351 . S
C1469 C1470 1.434 . S
C1470 C1461 1.429 . S
C1470 N1467 1.350 . S
C1470 C1469 1.434 . S
C1471 C1472 1.369 . S
C1471 C1473 1.419 . S
C1471 H1475 0.930 . S
C1472 C1471 1.369 . S
C1472 C1481 1.429 . S
C1473 C1471 1.419 . S
C1473 C1474 1.363 . S
C1473 H1476 0.929 . S
C1474 C1473 1.363 . S
C1474 C1480 1.428 . S
H1475 C1471 0.930 . S
H1476 C1473 0.929 . S
S1477 N1478 1.613 . S
S1477 N1479 1.610 . S
N1478 S1477 1.613 . S
N1478 C1481 1.350 . S
N1479 S1477 1.610 . S
N1479 C1480 1.351 . S
C1480 C1474 1.428 . S
C1480 N1479 1.351 . S
C1480 C1481 1.434 . S
C1481 C1472 1.429 . S
C1481 N1478 1.350 . S
C1481 C1480 1.434 . S
C1482 C1483 1.369 . S
C1482 C1484 1.419 . S
C1482 H1486 0.930 . S
C1483 C1482 1.369 . S
C1483 C1492 1.429 . S
C1484 C1482 1.419 . S
C1484 C1485 1.363 . S
C1484 H1487 0.929 . S
C1485 C1484 1.363 . S
C1485 C1491 1.428 . S
H1486 C1482 0.930 . S
H1487 C1484 0.929 . S
S1488 N1489 1.613 . S
S1488 N1490 1.610 . S
N1489 S1488 1.613 . S
N1489 C1492 1.350 . S
N1490 S1488 1.610 . S
N1490 C1491 1.351 . S
C1491 C1485 1.428 . S
C1491 N1490 1.351 . S
C1491 C1492 1.434 . S
C1492 C1483 1.429 . S
C1492 N1489 1.350 . S
C1492 C1491 1.434 . S
C1493 C1494 1.369 . S
C1493 C1495 1.419 . S
C1493 H1497 0.930 . S
C1494 C1493 1.369 . S
C1494 C1503 1.429 . S
C1495 C1493 1.419 . S
C1495 C1496 1.363 . S
C1495 H1498 0.929 . S
C1496 C1495 1.363 . S
C1496 C1502 1.428 . S
H1497 C1493 0.930 . S
H1498 C1495 0.929 . S
S1499 N1500 1.613 . S
S1499 N1501 1.610 . S
N1500 S1499 1.613 . S
N1500 C1503 1.350 . S
N1501 S1499 1.610 . S
N1501 C1502 1.351 . S
C1502 C1496 1.428 . S
C1502 N1501 1.351 . S
C1502 C1503 1.434 . S
C1503 C1494 1.429 . S
C1503 N1500 1.350 . S
C1503 C1502 1.434 . S
C1504 C1505 1.369 . S
C1504 C1506 1.419 . S
C1504 H1508 0.930 . S
C1505 C1504 1.369 . S
C1505 C1514 1.429 . S
C1506 C1504 1.419 . S
C1506 C1507 1.363 . S
C1506 H1509 0.929 . S
C1507 C1506 1.363 . S
C1507 C1513 1.428 . S
H1508 C1504 0.930 . S
H1509 C1506 0.929 . S
S1510 N1511 1.613 . S
S1510 N1512 1.610 . S
N1511 S1510 1.613 . S
N1511 C1514 1.350 . S
N1512 S1510 1.610 . S
N1512 C1513 1.351 . S
C1513 C1507 1.428 . S
C1513 N1512 1.351 . S
C1513 C1514 1.434 . S
C1514 C1505 1.429 . S
C1514 N1511 1.350 . S
C1514 C1513 1.434 . S
C1515 C1516 1.369 . S
C1515 C1517 1.419 . S
C1515 H1519 0.930 . S
C1516 C1515 1.369 . S
C1516 C1525 1.429 . S
C1517 C1515 1.419 . S
C1517 C1518 1.363 . S
C1517 H1520 0.929 . S
C1518 C1517 1.363 . S
C1518 C1524 1.428 . S
H1519 C1515 0.930 . S
H1520 C1517 0.929 . S
S1521 N1522 1.613 . S
S1521 N1523 1.610 . S
N1522 S1521 1.613 . S
N1522 C1525 1.350 . S
N1523 S1521 1.610 . S
N1523 C1524 1.351 . S
C1524 C1518 1.428 . S
C1524 N1523 1.351 . S
C1524 C1525 1.434 . S
C1525 C1516 1.429 . S
C1525 N1522 1.350 . S
C1525 C1524 1.434 . S
C1526 C1527 1.369 . S
C1526 C1528 1.419 . S
C1526 H1530 0.930 1_455 S
C1527 C1526 1.369 . S
C1527 C1536 1.429 . S
C1528 C1526 1.419 . S
C1528 C1529 1.363 . S
C1528 H1531 0.929 1_455 S
C1529 C1528 1.363 . S
C1529 C1535 1.428 . S
H1530 C1526 0.930 1_655 S
H1531 C1528 0.929 1_655 S
S1532 N1533 1.613 . S
S1532 N1534 1.610 . S
N1533 S1532 1.613 . S
N1533 C1536 1.350 . S
N1534 S1532 1.610 . S
N1534 C1535 1.351 . S
C1535 C1529 1.428 . S
C1535 N1534 1.351 . S
C1535 C1536 1.434 . S
C1536 C1527 1.429 . S
C1536 N1533 1.350 . S
C1536 C1535 1.434 . S
C1537 C1538 1.369 1_655 S
C1537 C1539 1.419 . S
C1537 H1541 0.930 . S
C1538 C1537 1.369 1_455 S
C1538 C1547 1.429 . S
C1539 C1537 1.419 . S
C1539 C1540 1.363 . S
C1539 H1542 0.929 . S
C1540 C1539 1.363 . S
C1540 C1546 1.428 . S
H1541 C1537 0.930 . S
H1542 C1539 0.929 . S
S1543 N1544 1.613 . S
S1543 N1545 1.610 1_455 S
N1544 S1543 1.613 . S
N1544 C1547 1.350 . S
N1545 S1543 1.610 1_655 S
N1545 C1546 1.351 . S
C1546 C1540 1.428 . S
C1546 N1545 1.351 . S
C1546 C1547 1.434 1_655 S
C1547 C1538 1.429 . S
C1547 N1544 1.350 . S
C1547 C1546 1.434 1_455 S
C1548 C1549 1.369 . S
C1548 C1550 1.419 . S
C1548 H1552 0.930 . S
C1549 C1548 1.369 . S
C1549 C1558 1.429 . S
C1550 C1548 1.419 . S
C1550 C1551 1.363 . S
C1550 H1553 0.929 . S
C1551 C1550 1.363 . S
C1551 C1557 1.428 . S
H1552 C1548 0.930 . S
H1553 C1550 0.929 . S
S1554 N1555 1.613 . S
S1554 N1556 1.610 . S
N1555 S1554 1.613 . S
N1555 C1558 1.350 . S
N1556 S1554 1.610 . S
N1556 C1557 1.351 . S
C1557 C1551 1.428 . S
C1557 N1556 1.351 . S
C1557 C1558 1.434 . S
C1558 C1549 1.429 . S
C1558 N1555 1.350 . S
C1558 C1557 1.434 . S
C1559 C1560 1.369 . S
C1559 C1561 1.419 . S
C1559 H1563 0.930 . S
C1560 C1559 1.369 . S
C1560 C1569 1.429 . S
C1561 C1559 1.419 . S
C1561 C1562 1.363 . S
C1561 H1564 0.929 . S
C1562 C1561 1.363 . S
C1562 C1568 1.428 . S
H1563 C1559 0.930 . S
H1564 C1561 0.929 . S
S1565 N1566 1.613 . S
S1565 N1567 1.610 . S
N1566 S1565 1.613 . S
N1566 C1569 1.350 . S
N1567 S1565 1.610 . S
N1567 C1568 1.351 . S
C1568 C1562 1.428 . S
C1568 N1567 1.351 . S
C1568 C1569 1.434 . S
C1569 C1560 1.429 . S
C1569 N1566 1.350 . S
C1569 C1568 1.434 . S
C1570 C1571 1.369 . S
C1570 C1572 1.419 . S
C1570 H1574 0.930 . S
C1571 C1570 1.369 . S
C1571 C1580 1.429 . S
C1572 C1570 1.419 . S
C1572 C1573 1.363 . S
C1572 H1575 0.929 . S
C1573 C1572 1.363 . S
C1573 C1579 1.428 . S
H1574 C1570 0.930 . S
H1575 C1572 0.929 . S
S1576 N1577 1.613 1_655 S
S1576 N1578 1.610 1_655 S
N1577 S1576 1.613 1_455 S
N1577 C1580 1.350 . S
N1578 S1576 1.610 1_455 S
N1578 C1579 1.351 . S
C1579 C1573 1.428 . S
C1579 N1578 1.351 . S
C1579 C1580 1.434 . S
C1580 C1571 1.429 . S
C1580 N1577 1.350 . S
C1580 C1579 1.434 . S
C1581 C1582 1.369 . S
C1581 C1583 1.419 . S
C1581 H1585 0.930 . S
C1582 C1581 1.369 . S
C1582 C1591 1.429 . S
C1583 C1581 1.419 . S
C1583 C1584 1.363 . S
C1583 H1586 0.929 . S
C1584 C1583 1.363 . S
C1584 C1590 1.428 . S
H1585 C1581 0.930 . S
H1586 C1583 0.929 . S
S1587 N1588 1.613 . S
S1587 N1589 1.610 . S
N1588 S1587 1.613 . S
N1588 C1591 1.350 . S
N1589 S1587 1.610 . S
N1589 C1590 1.351 . S
C1590 C1584 1.428 . S
C1590 N1589 1.351 . S
C1590 C1591 1.434 . S
C1591 C1582 1.429 . S
C1591 N1588 1.350 . S
C1591 C1590 1.434 . S
C1592 C1593 1.369 . S
C1592 C1594 1.419 . S
C1592 H1596 0.930 . S
C1593 C1592 1.369 . S
C1593 C1602 1.429 . S
C1594 C1592 1.419 . S
C1594 C1595 1.363 . S
C1594 H1597 0.929 . S
C1595 C1594 1.363 . S
C1595 C1601 1.428 . S
H1596 C1592 0.930 . S
H1597 C1594 0.929 . S
S1598 N1599 1.613 . S
S1598 N1600 1.610 . S
N1599 S1598 1.613 . S
N1599 C1602 1.350 . S
N1600 S1598 1.610 . S
N1600 C1601 1.351 . S
C1601 C1595 1.428 . S
C1601 N1600 1.351 . S
C1601 C1602 1.434 . S
C1602 C1593 1.429 . S
C1602 N1599 1.350 . S
C1602 C1601 1.434 . S
C1603 C1604 1.369 . S
C1603 C1605 1.419 . S
C1603 H1607 0.930 . S
C1604 C1603 1.369 . S
C1604 C1613 1.429 . S
C1605 C1603 1.419 . S
C1605 C1606 1.363 . S
C1605 H1608 0.929 . S
C1606 C1605 1.363 . S
C1606 C1612 1.428 . S
H1607 C1603 0.930 . S
H1608 C1605 0.929 . S
S1609 N1610 1.613 . S
S1609 N1611 1.610 . S
N1610 S1609 1.613 . S
N1610 C1613 1.350 . S
N1611 S1609 1.610 . S
N1611 C1612 1.351 . S
C1612 C1606 1.428 . S
C1612 N1611 1.351 . S
C1612 C1613 1.434 . S
C1613 C1604 1.429 . S
C1613 N1610 1.350 . S
C1613 C1612 1.434 . S
C1614 C1615 1.369 . S
C1614 C1616 1.419 . S
C1614 H1618 0.930 . S
C1615 C1614 1.369 . S
C1615 C1624 1.429 . S
C1616 C1614 1.419 . S
C1616 C1617 1.363 . S
C1616 H1619 0.929 . S
C1617 C1616 1.363 . S
C1617 C1623 1.428 . S
H1618 C1614 0.930 . S
H1619 C1616 0.929 . S
S1620 N1621 1.613 . S
S1620 N1622 1.610 . S
N1621 S1620 1.613 . S
N1621 C1624 1.350 . S
N1622 S1620 1.610 . S
N1622 C1623 1.351 . S
C1623 C1617 1.428 . S
C1623 N1622 1.351 . S
C1623 C1624 1.434 . S
C1624 C1615 1.429 . S
C1624 N1621 1.350 . S
C1624 C1623 1.434 . S
C1625 C1626 1.369 . S
C1625 C1627 1.419 . S
C1625 H1629 0.930 . S
C1626 C1625 1.369 . S
C1626 C1635 1.429 . S
C1627 C1625 1.419 . S
C1627 C1628 1.363 . S
C1627 H1630 0.929 . S
C1628 C1627 1.363 . S
C1628 C1634 1.428 . S
H1629 C1625 0.930 . S
H1630 C1627 0.929 . S
S1631 N1632 1.613 . S
S1631 N1633 1.610 . S
N1632 S1631 1.613 . S
N1632 C1635 1.350 . S
N1633 S1631 1.610 . S
N1633 C1634 1.351 . S
C1634 C1628 1.428 . S
C1634 N1633 1.351 . S
C1634 C1635 1.434 . S
C1635 C1626 1.429 . S
C1635 N1632 1.350 . S
C1635 C1634 1.434 . S
C1636 C1637 1.369 . S
C1636 C1638 1.419 . S
C1636 H1640 0.930 . S
C1637 C1636 1.369 . S
C1637 C1646 1.429 . S
C1638 C1636 1.419 . S
C1638 C1639 1.363 . S
C1638 H1641 0.929 . S
C1639 C1638 1.363 . S
C1639 C1645 1.428 . S
H1640 C1636 0.930 . S
H1641 C1638 0.929 . S
S1642 N1643 1.613 . S
S1642 N1644 1.610 . S
N1643 S1642 1.613 . S
N1643 C1646 1.350 . S
N1644 S1642 1.610 . S
N1644 C1645 1.351 . S
C1645 C1639 1.428 . S
C1645 N1644 1.351 . S
C1645 C1646 1.434 . S
C1646 C1637 1.429 . S
C1646 N1643 1.350 . S
C1646 C1645 1.434 . S
C1647 C1648 1.369 . S
C1647 C1649 1.419 . S
C1647 H1651 0.930 . S
C1648 C1647 1.369 . S
C1648 C1657 1.429 . S
C1649 C1647 1.419 . S
C1649 C1650 1.363 . S
C1649 H1652 0.929 . S
C1650 C1649 1.363 . S
C1650 C1656 1.428 . S
H1651 C1647 0.930 . S
H1652 C1649 0.929 . S
S1653 N1654 1.613 . S
S1653 N1655 1.610 . S
N1654 S1653 1.613 . S
N1654 C1657 1.350 . S
N1655 S1653 1.610 . S
N1655 C1656 1.351 . S
C1656 C1650 1.428 . S
C1656 N1655 1.351 . S
C1656 C1657 1.434 . S
C1657 C1648 1.429 . S
C1657 N1654 1.350 . S
C1657 C1656 1.434 . S
C1658 C1659 1.369 . S
C1658 C1660 1.419 . S
C1658 H1662 0.930 . S
C1659 C1658 1.369 . S
C1659 C1668 1.429 . S
C1660 C1658 1.419 . S
C1660 C1661 1.363 . S
C1660 H1663 0.929 . S
C1661 C1660 1.363 . S
C1661 C1667 1.428 . S
H1662 C1658 0.930 . S
H1663 C1660 0.929 . S
S1664 N1665 1.613 . S
S1664 N1666 1.610 . S
N1665 S1664 1.613 . S
N1665 C1668 1.350 . S
N1666 S1664 1.610 . S
N1666 C1667 1.351 . S
C1667 C1661 1.428 . S
C1667 N1666 1.351 . S
C1667 C1668 1.434 . S
C1668 C1659 1.429 . S
C1668 N1665 1.350 . S
C1668 C1667 1.434 . S
C1669 C1670 1.369 . S
C1669 C1671 1.419 . S
C1669 H1673 0.930 . S
C1670 C1669 1.369 . S
C1670 C1679 1.429 . S
C1671 C1669 1.419 . S
C1671 C1672 1.363 . S
C1671 H1674 0.929 . S
C1672 C1671 1.363 . S
C1672 C1678 1.428 . S
H1673 C1669 0.930 . S
H1674 C1671 0.929 . S
S1675 N1676 1.613 . S
S1675 N1677 1.610 . S
N1676 S1675 1.613 . S
N1676 C1679 1.350 . S
N1677 S1675 1.610 . S
N1677 C1678 1.351 . S
C1678 C1672 1.428 . S
C1678 N1677 1.351 . S
C1678 C1679 1.434 . S
C1679 C1670 1.429 . S
C1679 N1676 1.350 . S
C1679 C1678 1.434 . S
C1680 C1681 1.369 . S
C1680 C1682 1.419 . S
C1680 H1684 0.930 . S
C1681 C1680 1.369 . S
C1681 C1690 1.429 . S
C1682 C1680 1.419 . S
C1682 C1683 1.363 . S
C1682 H1685 0.929 . S
C1683 C1682 1.363 . S
C1683 C1689 1.428 . S
H1684 C1680 0.930 . S
H1685 C1682 0.929 . S
S1686 N1687 1.613 . S
S1686 N1688 1.610 . S
N1687 S1686 1.613 . S
N1687 C1690 1.350 . S
N1688 S1686 1.610 . S
N1688 C1689 1.351 . S
C1689 C1683 1.428 . S
C1689 N1688 1.351 . S
C1689 C1690 1.434 . S
C1690 C1681 1.429 . S
C1690 N1687 1.350 . S
C1690 C1689 1.434 . S
C1691 C1692 1.369 . S
C1691 C1693 1.419 . S
C1691 H1695 0.930 . S
C1692 C1691 1.369 . S
C1692 C1701 1.429 . S
C1693 C1691 1.419 . S
C1693 C1694 1.363 . S
C1693 H1696 0.929 . S
C1694 C1693 1.363 . S
C1694 C1700 1.428 . S
H1695 C1691 0.930 . S
H1696 C1693 0.929 . S
S1697 N1698 1.613 . S
S1697 N1699 1.610 . S
N1698 S1697 1.613 . S
N1698 C1701 1.350 . S
N1699 S1697 1.610 . S
N1699 C1700 1.351 . S
C1700 C1694 1.428 . S
C1700 N1699 1.351 . S
C1700 C1701 1.434 . S
C1701 C1692 1.429 . S
C1701 N1698 1.350 . S
C1701 C1700 1.434 . S
C1702 C1703 1.369 1_565 S
C1702 C1704 1.419 . S
C1702 H1706 0.930 . S
C1703 C1702 1.369 1_545 S
C1703 C1712 1.429 . S
C1704 C1702 1.419 . S
C1704 C1705 1.363 . S
C1704 H1707 0.929 . S
C1705 C1704 1.363 . S
C1705 C1711 1.428 . S
H1706 C1702 0.930 . S
H1707 C1704 0.929 . S
S1708 N1709 1.613 . S
S1708 N1710 1.610 . S
N1709 S1708 1.613 . S
N1709 C1712 1.350 . S
N1710 S1708 1.610 . S
N1710 C1711 1.351 1_545 S
C1711 C1705 1.428 . S
C1711 N1710 1.351 1_565 S
C1711 C1712 1.434 1_565 S
C1712 C1703 1.429 . S
C1712 N1709 1.350 . S
C1712 C1711 1.434 1_545 S
C1713 C1714 1.369 . S
C1713 C1715 1.419 . S
C1713 H1717 0.930 . S
C1714 C1713 1.369 . S
C1714 C1723 1.429 1_554 S
C1715 C1713 1.419 . S
C1715 C1716 1.363 . S
C1715 H1718 0.929 . S
C1716 C1715 1.363 . S
C1716 C1722 1.428 . S
H1717 C1713 0.930 . S
H1718 C1715 0.929 . S
S1719 N1720 1.613 . S
S1719 N1721 1.610 . S
N1720 S1719 1.613 . S
N1720 C1723 1.350 . S
N1721 S1719 1.610 . S
N1721 C1722 1.351 1_556 S
C1722 C1716 1.428 . S
C1722 N1721 1.351 1_554 S
C1722 C1723 1.434 1_554 S
C1723 C1714 1.429 1_556 S
C1723 N1720 1.350 . S
C1723 C1722 1.434 1_556 S
C1724 C1725 1.369 . S
C1724 C1726 1.419 . S
C1724 H1728 0.930 . S
C1725 C1724 1.369 . S
C1725 C1734 1.429 . S
C1726 C1724 1.419 . S
C1726 C1727 1.363 . S
C1726 H1729 0.929 . S
C1727 C1726 1.363 . S
C1727 C1733 1.428 . S
H1728 C1724 0.930 . S
H1729 C1726 0.929 . S
S1730 N1731 1.613 . S
S1730 N1732 1.610 . S
N1731 S1730 1.613 . S
N1731 C1734 1.350 . S
N1732 S1730 1.610 . S
N1732 C1733 1.351 . S
C1733 C1727 1.428 . S
C1733 N1732 1.351 . S
C1733 C1734 1.434 . S
C1734 C1725 1.429 . S
C1734 N1731 1.350 . S
C1734 C1733 1.434 . S
C1735 C1736 1.369 . S
C1735 C1737 1.419 . S
C1735 H1739 0.930 . S
C1736 C1735 1.369 . S
C1736 C1745 1.429 . S
C1737 C1735 1.419 . S
C1737 C1738 1.363 . S
C1737 H1740 0.929 . S
C1738 C1737 1.363 . S
C1738 C1744 1.428 . S
H1739 C1735 0.930 . S
H1740 C1737 0.929 . S
S1741 N1742 1.613 . S
S1741 N1743 1.610 . S
N1742 S1741 1.613 . S
N1742 C1745 1.350 . S
N1743 S1741 1.610 . S
N1743 C1744 1.351 . S
C1744 C1738 1.428 . S
C1744 N1743 1.351 . S
C1744 C1745 1.434 . S
C1745 C1736 1.429 . S
C1745 N1742 1.350 . S
C1745 C1744 1.434 . S
C1746 C1747 1.369 . S
C1746 C1748 1.419 . S
C1746 H1750 0.930 . S
C1747 C1746 1.369 . S
C1747 C1756 1.429 . S
C1748 C1746 1.419 . S
C1748 C1749 1.363 . S
C1748 H1751 0.929 . S
C1749 C1748 1.363 . S
C1749 C1755 1.428 . S
H1750 C1746 0.930 . S
H1751 C1748 0.929 . S
S1752 N1753 1.613 . S
S1752 N1754 1.610 . S
N1753 S1752 1.613 . S
N1753 C1756 1.350 . S
N1754 S1752 1.610 . S
N1754 C1755 1.351 . S
C1755 C1749 1.428 . S
C1755 N1754 1.351 . S
C1755 C1756 1.434 . S
C1756 C1747 1.429 . S
C1756 N1753 1.350 . S
C1756 C1755 1.434 . S
C1757 C1758 1.369 . S
C1757 C1759 1.419 . S
C1757 H1761 0.930 . S
C1758 C1757 1.369 . S
C1758 C1767 1.429 . S
C1759 C1757 1.419 . S
C1759 C1760 1.363 . S
C1759 H1762 0.929 . S
C1760 C1759 1.363 . S
C1760 C1766 1.428 . S
H1761 C1757 0.930 . S
H1762 C1759 0.929 . S
S1763 N1764 1.613 . S
S1763 N1765 1.610 . S
N1764 S1763 1.613 . S
N1764 C1767 1.350 . S
N1765 S1763 1.610 . S
N1765 C1766 1.351 . S
C1766 C1760 1.428 . S
C1766 N1765 1.351 . S
C1766 C1767 1.434 . S
C1767 C1758 1.429 . S
C1767 N1764 1.350 . S
C1767 C1766 1.434 . S
C1768 C1769 1.369 . S
C1768 C1770 1.419 . S
C1768 H1772 0.930 . S
C1769 C1768 1.369 . S
C1769 C1778 1.429 . S
C1770 C1768 1.419 . S
C1770 C1771 1.363 . S
C1770 H1773 0.929 . S
C1771 C1770 1.363 . S
C1771 C1777 1.428 . S
H1772 C1768 0.930 . S
H1773 C1770 0.929 . S
S1774 N1775 1.613 . S
S1774 N1776 1.610 . S
N1775 S1774 1.613 . S
N1775 C1778 1.350 . S
N1776 S1774 1.610 . S
N1776 C1777 1.351 . S
C1777 C1771 1.428 . S
C1777 N1776 1.351 . S
C1777 C1778 1.434 . S
C1778 C1769 1.429 . S
C1778 N1775 1.350 . S
C1778 C1777 1.434 . S
C1779 C1780 1.369 . S
C1779 C1781 1.419 . S
C1779 H1783 0.930 . S
C1780 C1779 1.369 . S
C1780 C1789 1.429 . S
C1781 C1779 1.419 . S
C1781 C1782 1.363 . S
C1781 H1784 0.929 . S
C1782 C1781 1.363 . S
C1782 C1788 1.428 . S
H1783 C1779 0.930 . S
H1784 C1781 0.929 . S
S1785 N1786 1.613 . S
S1785 N1787 1.610 . S
N1786 S1785 1.613 . S
N1786 C1789 1.350 . S
N1787 S1785 1.610 . S
N1787 C1788 1.351 . S
C1788 C1782 1.428 . S
C1788 N1787 1.351 . S
C1788 C1789 1.434 . S
C1789 C1780 1.429 . S
C1789 N1786 1.350 . S
C1789 C1788 1.434 . S
C1790 C1791 1.369 . S
C1790 C1792 1.419 . S
C1790 H1794 0.930 . S
C1791 C1790 1.369 . S
C1791 C1800 1.429 . S
C1792 C1790 1.419 . S
C1792 C1793 1.363 . S
C1792 H1795 0.929 . S
C1793 C1792 1.363 . S
C1793 C1799 1.428 . S
H1794 C1790 0.930 . S
H1795 C1792 0.929 . S
S1796 N1797 1.613 . S
S1796 N1798 1.610 . S
N1797 S1796 1.613 . S
N1797 C1800 1.350 . S
N1798 S1796 1.610 . S
N1798 C1799 1.351 . S
C1799 C1793 1.428 . S
C1799 N1798 1.351 . S
C1799 C1800 1.434 . S
C1800 C1791 1.429 . S
C1800 N1797 1.350 . S
C1800 C1799 1.434 . S
C1801 C1802 1.369 . S
C1801 C1803 1.419 . S
C1801 H1805 0.930 . S
C1802 C1801 1.369 . S
C1802 C1811 1.429 . S
C1803 C1801 1.419 . S
C1803 C1804 1.363 . S
C1803 H1806 0.929 . S
C1804 C1803 1.363 . S
C1804 C1810 1.428 . S
H1805 C1801 0.930 . S
H1806 C1803 0.929 . S
S1807 N1808 1.613 . S
S1807 N1809 1.610 . S
N1808 S1807 1.613 . S
N1808 C1811 1.350 . S
N1809 S1807 1.610 . S
N1809 C1810 1.351 . S
C1810 C1804 1.428 . S
C1810 N1809 1.351 . S
C1810 C1811 1.434 . S
C1811 C1802 1.429 . S
C1811 N1808 1.350 . S
C1811 C1810 1.434 . S
C1812 C1813 1.369 . S
C1812 C1814 1.419 . S
C1812 H1816 0.930 . S
C1813 C1812 1.369 . S
C1813 C1822 1.429 . S
C1814 C1812 1.419 . S
C1814 C1815 1.363 . S
C1814 H1817 0.929 . S
C1815 C1814 1.363 . S
C1815 C1821 1.428 . S
H1816 C1812 0.930 . S
H1817 C1814 0.929 . S
S1818 N1819 1.613 . S
S1818 N1820 1.610 . S
N1819 S1818 1.613 . S
N1819 C1822 1.350 . S
N1820 S1818 1.610 . S
N1820 C1821 1.351 . S
C1821 C1815 1.428 . S
C1821 N1820 1.351 . S
C1821 C1822 1.434 . S
C1822 C1813 1.429 . S
C1822 N1819 1.350 . S
C1822 C1821 1.434 . S
C1823 C1824 1.369 . S
C1823 C1825 1.419 . S
C1823 H1827 0.930 . S
C1824 C1823 1.369 . S
C1824 C1833 1.429 . S
C1825 C1823 1.419 . S
C1825 C1826 1.363 . S
C1825 H1828 0.929 . S
C1826 C1825 1.363 . S
C1826 C1832 1.428 . S
H1827 C1823 0.930 . S
H1828 C1825 0.929 . S
S1829 N1830 1.613 . S
S1829 N1831 1.610 . S
N1830 S1829 1.613 . S
N1830 C1833 1.350 . S
N1831 S1829 1.610 . S
N1831 C1832 1.351 . S
C1832 C1826 1.428 . S
C1832 N1831 1.351 . S
C1832 C1833 1.434 . S
C1833 C1824 1.429 . S
C1833 N1830 1.350 . S
C1833 C1832 1.434 . S
C1834 C1835 1.369 . S
C1834 C1836 1.419 . S
C1834 H1838 0.930 . S
C1835 C1834 1.369 . S
C1835 C1844 1.429 . S
C1836 C1834 1.419 . S
C1836 C1837 1.363 . S
C1836 H1839 0.929 . S
C1837 C1836 1.363 . S
C1837 C1843 1.428 . S
H1838 C1834 0.930 . S
H1839 C1836 0.929 . S
S1840 N1841 1.613 . S
S1840 N1842 1.610 . S
N1841 S1840 1.613 . S
N1841 C1844 1.350 1_655 S
N1842 S1840 1.610 . S
N1842 C1843 1.351 1_655 S
C1843 C1837 1.428 . S
C1843 N1842 1.351 1_455 S
C1843 C1844 1.434 . S
C1844 C1835 1.429 . S
C1844 N1841 1.350 1_455 S
C1844 C1843 1.434 . S
C1845 C1846 1.369 . S
C1845 C1847 1.419 . S
C1845 H1849 0.930 . S
C1846 C1845 1.369 . S
C1846 C1855 1.429 . S
C1847 C1845 1.419 . S
C1847 C1848 1.363 . S
C1847 H1850 0.929 . S
C1848 C1847 1.363 . S
C1848 C1854 1.428 . S
H1849 C1845 0.930 . S
H1850 C1847 0.929 . S
S1851 N1852 1.613 . S
S1851 N1853 1.610 . S
N1852 S1851 1.613 . S
N1852 C1855 1.350 . S
N1853 S1851 1.610 . S
N1853 C1854 1.351 . S
C1854 C1848 1.428 . S
C1854 N1853 1.351 . S
C1854 C1855 1.434 . S
C1855 C1846 1.429 . S
C1855 N1852 1.350 . S
C1855 C1854 1.434 . S
C1856 C1857 1.369 . S
C1856 C1858 1.419 . S
C1856 H1860 0.930 . S
C1857 C1856 1.369 . S
C1857 C1866 1.429 . S
C1858 C1856 1.419 . S
C1858 C1859 1.363 . S
C1858 H1861 0.929 . S
C1859 C1858 1.363 . S
C1859 C1865 1.428 . S
H1860 C1856 0.930 . S
H1861 C1858 0.929 . S
S1862 N1863 1.613 . S
S1862 N1864 1.610 . S
N1863 S1862 1.613 . S
N1863 C1866 1.350 . S
N1864 S1862 1.610 . S
N1864 C1865 1.351 . S
C1865 C1859 1.428 . S
C1865 N1864 1.351 . S
C1865 C1866 1.434 . S
C1866 C1857 1.429 . S
C1866 N1863 1.350 . S
C1866 C1865 1.434 . S
C1867 C1868 1.369 . S
C1867 C1869 1.419 . S
C1867 H1871 0.930 . S
C1868 C1867 1.369 . S
C1868 C1877 1.429 . S
C1869 C1867 1.419 . S
C1869 C1870 1.363 . S
C1869 H1872 0.929 . S
C1870 C1869 1.363 . S
C1870 C1876 1.428 . S
H1871 C1867 0.930 . S
H1872 C1869 0.929 . S
S1873 N1874 1.613 . S
S1873 N1875 1.610 . S
N1874 S1873 1.613 . S
N1874 C1877 1.350 . S
N1875 S1873 1.610 . S
N1875 C1876 1.351 . S
C1876 C1870 1.428 . S
C1876 N1875 1.351 . S
C1876 C1877 1.434 . S
C1877 C1868 1.429 . S
C1877 N1874 1.350 . S
C1877 C1876 1.434 . S
C1878 C1879 1.369 . S
C1878 C1880 1.419 . S
C1878 H1882 0.930 . S
C1879 C1878 1.369 . S
C1879 C1888 1.429 . S
C1880 C1878 1.419 . S
C1880 C1881 1.363 . S
C1880 H1883 0.929 . S
C1881 C1880 1.363 . S
C1881 C1887 1.428 1_655 S
H1882 C1878 0.930 . S
H1883 C1880 0.929 . S
S1884 N1885 1.613 . S
S1884 N1886 1.610 . S
N1885 S1884 1.613 . S
N1885 C1888 1.350 1_455 S
N1886 S1884 1.610 . S
N1886 C1887 1.351 . S
C1887 C1881 1.428 1_455 S
C1887 N1886 1.351 . S
C1887 C1888 1.434 1_455 S
C1888 C1879 1.429 . S
C1888 N1885 1.350 1_655 S
C1888 C1887 1.434 1_655 S
C1889 C1890 1.369 . S
C1889 C1891 1.419 . S
C1889 H1893 0.930 . S
C1890 C1889 1.369 . S
C1890 C1899 1.429 . S
C1891 C1889 1.419 . S
C1891 C1892 1.363 . S
C1891 H1894 0.929 . S
C1892 C1891 1.363 . S
C1892 C1898 1.428 . S
H1893 C1889 0.930 . S
H1894 C1891 0.929 . S
S1895 N1896 1.613 . S
S1895 N1897 1.610 . S
N1896 S1895 1.613 . S
N1896 C1899 1.350 . S
N1897 S1895 1.610 . S
N1897 C1898 1.351 . S
C1898 C1892 1.428 . S
C1898 N1897 1.351 . S
C1898 C1899 1.434 . S
C1899 C1890 1.429 . S
C1899 N1896 1.350 . S
C1899 C1898 1.434 . S
C1900 C1901 1.369 . S
C1900 C1902 1.419 . S
C1900 H1904 0.930 . S
C1901 C1900 1.369 . S
C1901 C1910 1.429 . S
C1902 C1900 1.419 . S
C1902 C1903 1.363 . S
C1902 H1905 0.929 . S
C1903 C1902 1.363 . S
C1903 C1909 1.428 . S
H1904 C1900 0.930 . S
H1905 C1902 0.929 . S
S1906 N1907 1.613 . S
S1906 N1908 1.610 . S
N1907 S1906 1.613 . S
N1907 C1910 1.350 . S
N1908 S1906 1.610 . S
N1908 C1909 1.351 . S
C1909 C1903 1.428 . S
C1909 N1908 1.351 . S
C1909 C1910 1.434 . S
C1910 C1901 1.429 . S
C1910 N1907 1.350 . S
C1910 C1909 1.434 . S
C1911 C1912 1.369 . S
C1911 C1913 1.419 . S
C1911 H1915 0.930 . S
C1912 C1911 1.369 . S
C1912 C1921 1.429 . S
C1913 C1911 1.419 . S
C1913 C1914 1.363 . S
C1913 H1916 0.929 . S
C1914 C1913 1.363 . S
C1914 C1920 1.428 . S
H1915 C1911 0.930 . S
H1916 C1913 0.929 . S
S1917 N1918 1.613 . S
S1917 N1919 1.610 . S
N1918 S1917 1.613 . S
N1918 C1921 1.350 . S
N1919 S1917 1.610 . S
N1919 C1920 1.351 . S
C1920 C1914 1.428 . S
C1920 N1919 1.351 . S
C1920 C1921 1.434 . S
C1921 C1912 1.429 . S
C1921 N1918 1.350 . S
C1921 C1920 1.434 . S
C1922 C1923 1.369 . S
C1922 C1924 1.419 . S
C1922 H1926 0.930 . S
C1923 C1922 1.369 . S
C1923 C1932 1.429 . S
C1924 C1922 1.419 . S
C1924 C1925 1.363 . S
C1924 H1927 0.929 . S
C1925 C1924 1.363 . S
C1925 C1931 1.428 . S
H1926 C1922 0.930 . S
H1927 C1924 0.929 . S
S1928 N1929 1.613 . S
S1928 N1930 1.610 . S
N1929 S1928 1.613 . S
N1929 C1932 1.350 . S
N1930 S1928 1.610 . S
N1930 C1931 1.351 . S
C1931 C1925 1.428 . S
C1931 N1930 1.351 . S
C1931 C1932 1.434 . S
C1932 C1923 1.429 . S
C1932 N1929 1.350 . S
C1932 C1931 1.434 . S
C1933 C1934 1.369 . S
C1933 C1935 1.419 . S
C1933 H1937 0.930 . S
C1934 C1933 1.369 . S
C1934 C1943 1.429 . S
C1935 C1933 1.419 . S
C1935 C1936 1.363 . S
C1935 H1938 0.929 . S
C1936 C1935 1.363 . S
C1936 C1942 1.428 . S
H1937 C1933 0.930 . S
H1938 C1935 0.929 . S
S1939 N1940 1.613 . S
S1939 N1941 1.610 . S
N1940 S1939 1.613 . S
N1940 C1943 1.350 . S
N1941 S1939 1.610 . S
N1941 C1942 1.351 . S
C1942 C1936 1.428 . S
C1942 N1941 1.351 . S
C1942 C1943 1.434 . S
C1943 C1934 1.429 . S
C1943 N1940 1.350 . S
C1943 C1942 1.434 . S
C1944 C1945 1.369 . S
C1944 C1946 1.419 . S
C1944 H1948 0.930 . S
C1945 C1944 1.369 . S
C1945 C1954 1.429 . S
C1946 C1944 1.419 . S
C1946 C1947 1.363 . S
C1946 H1949 0.929 . S
C1947 C1946 1.363 . S
C1947 C1953 1.428 . S
H1948 C1944 0.930 . S
H1949 C1946 0.929 . S
S1950 N1951 1.613 . S
S1950 N1952 1.610 . S
N1951 S1950 1.613 . S
N1951 C1954 1.350 . S
N1952 S1950 1.610 . S
N1952 C1953 1.351 . S
C1953 C1947 1.428 . S
C1953 N1952 1.351 . S
C1953 C1954 1.434 . S
C1954 C1945 1.429 . S
C1954 N1951 1.350 . S
C1954 C1953 1.434 . S
C1955 C1956 1.369 . S
C1955 C1957 1.419 . S
C1955 H1959 0.930 . S
C1956 C1955 1.369 . S
C1956 C1965 1.429 . S
C1957 C1955 1.419 . S
C1957 C1958 1.363 . S
C1957 H1960 0.929 . S
C1958 C1957 1.363 . S
C1958 C1964 1.426 1_565 S
H1959 C1955 0.930 . S
H1960 C1957 0.929 . S
S1961 N1962 1.601 1_545 S
S1961 N1963 1.610 . S
N1962 S1961 1.601 1_565 S
N1962 C1965 1.360 . S
N1963 S1961 1.610 . S
N1963 C1964 1.355 . S
C1964 C1958 1.426 1_545 S
C1964 N1963 1.355 . S
C1964 C1965 1.433 1_545 S
C1965 C1956 1.429 . S
C1965 N1962 1.360 . S
C1965 C1964 1.433 1_565 S
C1966 C1967 1.369 . S
C1966 C1968 1.419 . S
C1966 H1970 0.930 . S
C1967 C1966 1.369 . S
C1967 C1976 1.429 . S
C1968 C1966 1.419 . S
C1968 C1969 1.363 . S
C1968 H1971 0.929 . S
C1969 C1968 1.363 . S
C1969 C1975 1.428 . S
H1970 C1966 0.930 . S
H1971 C1968 0.929 . S
S1972 N1973 1.613 . S
S1972 N1974 1.610 . S
N1973 S1972 1.613 . S
N1973 C1976 1.350 . S
N1974 S1972 1.610 . S
N1974 C1975 1.351 . S
C1975 C1969 1.428 . S
C1975 N1974 1.351 . S
C1975 C1976 1.434 . S
C1976 C1967 1.429 . S
C1976 N1973 1.350 . S
C1976 C1975 1.434 . S
C1977 C1978 1.369 . S
C1977 C1979 1.419 . S
C1977 H1981 0.930 . S
C1978 C1977 1.369 . S
C1978 C1987 1.429 . S
C1979 C1977 1.419 . S
C1979 C1980 1.363 . S
C1979 H1982 0.929 . S
C1980 C1979 1.363 . S
C1980 C1986 1.428 . S
H1981 C1977 0.930 . S
H1982 C1979 0.929 . S
S1983 N1984 1.613 . S
S1983 N1985 1.610 . S
N1984 S1983 1.613 . S
N1984 C1987 1.350 . S
N1985 S1983 1.610 . S
N1985 C1986 1.351 . S
C1986 C1980 1.428 . S
C1986 N1985 1.351 . S
C1986 C1987 1.434 . S
C1987 C1978 1.429 . S
C1987 N1984 1.350 . S
C1987 C1986 1.434 . S
C1988 C1989 1.369 . S
C1988 C1990 1.419 . S
C1988 H1992 0.930 . S
C1989 C1988 1.369 . S
C1989 C1998 1.429 . S
C1990 C1988 1.419 . S
C1990 C1991 1.363 . S
C1990 H1993 0.929 . S
C1991 C1990 1.363 . S
C1991 C1997 1.428 . S
H1992 C1988 0.930 . S
H1993 C1990 0.929 . S
S1994 N1995 1.613 . S
S1994 N1996 1.610 . S
N1995 S1994 1.613 . S
N1995 C1998 1.350 . S
N1996 S1994 1.610 . S
N1996 C1997 1.351 . S
C1997 C1991 1.428 . S
C1997 N1996 1.351 . S
C1997 C1998 1.434 . S
C1998 C1989 1.429 . S
C1998 N1995 1.350 . S
C1998 C1997 1.434 . S
C1999 C2000 1.369 . S
C1999 C2001 1.419 . S
C1999 H2003 0.930 . S
C2000 C1999 1.369 . S
C2000 C2009 1.429 . S
C2001 C1999 1.419 . S
C2001 C2002 1.363 . S
C2001 H2004 0.929 . S
C2002 C2001 1.363 . S
C2002 C2008 1.428 . S
H2003 C1999 0.930 . S
H2004 C2001 0.929 . S
S2005 N2006 1.613 . S
S2005 N2007 1.610 . S
N2006 S2005 1.613 . S
N2006 C2009 1.350 . S
N2007 S2005 1.610 . S
N2007 C2008 1.351 . S
C2008 C2002 1.428 . S
C2008 N2007 1.351 . S
C2008 C2009 1.434 . S
C2009 C2000 1.429 . S
C2009 N2006 1.350 . S
C2009 C2008 1.434 . S
C2010 C2011 1.369 . S
C2010 C2012 1.419 . S
C2010 H2014 0.930 . S
C2011 C2010 1.369 . S
C2011 C2020 1.429 . S
C2012 C2010 1.419 . S
C2012 C2013 1.363 . S
C2012 H2015 0.929 . S
C2013 C2012 1.363 . S
C2013 C2019 1.428 . S
H2014 C2010 0.930 . S
H2015 C2012 0.929 . S
S2016 N2017 1.613 . S
S2016 N2018 1.610 . S
N2017 S2016 1.613 . S
N2017 C2020 1.350 . S
N2018 S2016 1.610 . S
N2018 C2019 1.351 . S
C2019 C2013 1.428 . S
C2019 N2018 1.351 . S
C2019 C2020 1.434 . S
C2020 C2011 1.429 . S
C2020 N2017 1.350 . S
C2020 C2019 1.434 . S
C2021 C2022 1.369 . S
C2021 C2023 1.419 . S
C2021 H2025 0.930 . S
C2022 C2021 1.369 . S
C2022 C2031 1.429 . S
C2023 C2021 1.419 . S
C2023 C2024 1.363 . S
C2023 H2026 0.929 . S
C2024 C2023 1.363 . S
C2024 C2030 1.428 . S
H2025 C2021 0.930 . S
H2026 C2023 0.929 . S
S2027 N2028 1.613 . S
S2027 N2029 1.610 . S
N2028 S2027 1.613 . S
N2028 C2031 1.350 . S
N2029 S2027 1.610 . S
N2029 C2030 1.351 . S
C2030 C2024 1.428 . S
C2030 N2029 1.351 . S
C2030 C2031 1.434 . S
C2031 C2022 1.429 . S
C2031 N2028 1.350 . S
C2031 C2030 1.434 . S
C977 C111 2.386 1_455 S
C979 C346 2.305 . S
C988 C64 1.958 . S
C990 C394 2.054 . S
C999 C77 1.469 . S
C1001 C426 1.470 . S
C1012 C471 1.519 . S
C1010 C95 1.616 . S
C1021 C25 0.808 . S
C1023 C511 0.814 . S
C1034 C546 1.152 . S
C1032 C36 1.032 . S
C1045 C585 1.325 . S
C1043 C50 1.325 . S
C1054 C11 1.280 . S
C1056 C622 1.257 . S
C1067 C354 2.135 . S
C1065 C237 2.073 1_545 S
C1076 C245 0.911 . S
C1078 C391 0.913 . S
C1089 C434 2.239 . S
C1087 C279 2.068 . S
C1100 C466 1.147 . S
C1098 C175 1.145 . S
C1109 C231 1.394 . S
C1111 C506 1.382 . S
C1122 C554 0.722 . S
C1120 C251 0.770 . S
C1133 C595 2.146 . S
C1131 C273 2.218 . S
C1144 C625 2.067 . S
C1142 C181 2.025 . S
C1155 C351 1.970 . S
C1153 C165 2.117 1_554 S
C1164 C288 2.045 . S
C1166 C674 2.121 . S
C1177 C711 1.156 . S
C1175 C333 1.181 . S
C1188 C742 1.174 . S
C1186 C316 1.285 . S
C1197 C123 2.647 . S
C1199 C635 2.602 . S
C1208 C137 1.392 . S
C1210 C431 1.354 . S
C1219 C330 1.629 . S
C1221 C794 1.726 . S
C1232 C826 1.930 . S
C1230 C302 1.904 . S
C1243 C355 2.369 . S
C1241 C63 2.462 . S
C1254 C825 2.085 . S
C1252 C106 2.102 . S
C1263 C97 1.491 . S
C1265 C435 1.538 . S
C1274 C81 1.600 . S
C1276 C782 1.574 . S
C1287 C502 0.915 1_655 S
C1285 C13 0.909 1_455 S
C1296 C55 1.241 . S
C1298 C715 1.272 . S
C1309 C594 1.171 . S
C1307 C35 1.161 . S
C1320 C871 1.388 . S
C1318 C21 1.385 . S
C1331 C345 2.240 1_556 S
C1329 C147 2.223 . S
C1342 C822 0.904 . S
C1340 C321 0.841 . S
C1351 C119 2.294 . S
C1353 C425 2.284 . S
C1362 C293 1.227 . S
C1364 C795 1.285 . S
C1373 C153 1.475 . S
C1375 C515 1.514 . S
C1386 C705 0.749 . S
C1384 C315 0.744 . S
C1395 C125 2.040 . S
C1397 C586 2.123 . S
C1406 C287 2.131 1_556 S
C1408 C874 2.129 . S
C1417 C193 1.944 . S
C1419 C342 1.945 . S
C1428 C176 2.157 . S
C1430 C665 2.146 . S
C1439 C263 1.177 . S
C1441 C542 1.181 . S
C1450 C246 1.139 . S
C1452 C751 1.068 . S
C1463 C866 2.700 . S
C1461 C277 2.745 . S
C1472 C221 1.389 . S
C1474 C422 1.395 . S
C1485 C465 1.730 . S
C1483 C260 1.759 . S
C1496 C395 1.999 . S
C1494 C204 1.833 . S
C1505 C83 2.387 . S
C1507 C906 2.305 . S
C1518 C834 2.051 . S
C1516 C92 1.963 . S
C1527 C105 1.472 . S
C1529 C946 1.471 . S
C1538 C67 1.614 . S
C1540 C791 1.525 . S
C1549 C53 0.810 . S
C1551 C671 0.807 . S
C1562 C706 1.150 . S
C1560 C8 1.046 . S
C1573 C745 1.320 . S
C1571 C22 1.331 . S
C1584 C862 1.253 . S
C1582 C39 1.282 . S
C1595 C914 2.135 . S
C1593 C265 2.073 . S
C1604 C189 0.912 . S
C1606 C831 0.913 . S
C1617 C954 2.238 . S
C1615 C209 2.075 . S
C1628 C786 1.149 . S
C1626 C217 1.148 . S
C1639 C666 1.380 1_556 S
C1637 C259 1.395 . S
C1648 C195 0.795 . S
C1650 C714 0.699 . S
C1661 C755 2.129 . S
C1659 C203 2.219 . S
C1670 C223 2.031 . S
C1672 C865 2.067 . S
C1683 C911 1.970 . S
C1681 C319 2.116 . S
C1692 C134 2.046 . S
C1694 C514 2.120 . S
C1705 C551 1.159 . S
C1703 C151 1.180 . S
C1716 C582 1.172 . S
C1714 C162 1.291 . S
C1727 C875 2.600 . S
C1725 C305 2.646 . S
C1736 C291 1.395 . S
C1738 C951 1.353 . S
C1749 C474 1.723 . S
C1747 C148 1.634 . S
C1760 C386 1.929 . S
C1758 C120 1.901 . S
C1769 C91 2.460 . S
C1771 C915 2.369 . S
C1782 C385 2.085 . S
C1780 C78 2.102 . S
C1791 C69 1.488 . S
C1793 C955 1.538 . S
C1802 C109 1.592 . S
C1804 C462 1.581 . S
C1813 C41 0.926 . S
C1815 C662 0.928 . S
C1826 C555 1.271 . S
C1824 C27 1.239 . S
C1835 C7 1.161 . S
C1837 C754 1.171 . S
C1846 C49 1.392 . S
C1848 C631 1.384 . S
C1859 C905 2.240 . S
C1857 C329 2.224 . S
C1868 C167 0.868 . S
C1870 C382 0.888 . S
C1881 C945 2.281 1_656 S
C1879 C301 2.294 . S
C1890 C139 1.235 . S
C1892 C475 1.287 . S
C1901 C335 1.470 . S
C1903 C675 1.514 . S
C1914 C545 0.753 . S
C1912 C161 0.739 . S
C1923 C307 2.033 . S
C1925 C746 2.124 1_655 S
C1936 C634 2.129 . S
C1934 C133 2.130 . S
C1947 C902 1.941 . S
C1945 C249 1.950 . S
C1958 C505 2.145 1_565 S
C1956 C218 2.160 . S
C1967 C235 1.167 . S
C1969 C702 1.188 . S
C1980 C591 1.057 . S
C1978 C190 1.143 . S
C1989 C207 2.745 . S
C1991 C626 2.697 . S
C2000 C179 1.388 . S
C2002 C942 1.394 . S
C2013 C785 1.727 . S
C2011 C232 1.761 . S
C2024 C835 2.001 . S
C2022 C274 1.842 . S
