# Generated by pormake.
# Topology anh, (6,3)-cn, num edge types: 1
# Building blocks:
#     Node 0, Type 0, BuildingBlock: BETGAK_clean_sbu_0, # of connection points: 6
#     Node 1, Type 0, BuildingBlock: BETGAK_clean_sbu_0, # of connection points: 6
#     Node 2, Type 0, BuildingBlock: BETGAK_clean_sbu_0, # of connection points: 6
#     Node 3, Type 1, BuildingBlock: WUSLED_clean_sbu_0, # of connection points: 3
#     Node 4, Type 1, BuildingBlock: WUSLED_clean_sbu_0, # of connection points: 3
#     Node 5, Type 1, BuildingBlock: WUSLED_clean_sbu_0, # of connection points: 3
#     Node 6, Type 1, BuildingBlock: WUSLED_clean_sbu_0, # of connection points: 3
#     Node 7, Type 1, BuildingBlock: WUSLED_clean_sbu_0, # of connection points: 3
#     Node 8, Type 1, BuildingBlock: WUSLED_clean_sbu_0, # of connection points: 3
#     Edge 9, Type (0, 1), BuildingBlock: XIVTED_clean_linker_0, # of connection points: 2
#     Edge 10, Type (0, 1), BuildingBlock: XIVTED_clean_linker_0, # of connection points: 2
#     Edge 11, Type (0, 1), BuildingBlock: XIVTED_clean_linker_0, # of connection points: 2
#     Edge 12, Type (0, 1), BuildingBlock: XIVTED_clean_linker_0, # of connection points: 2
#     Edge 13, Type (0, 1), BuildingBlock: XIVTED_clean_linker_0, # of connection points: 2
#     Edge 14, Type (0, 1), BuildingBlock: XIVTED_clean_linker_0, # of connection points: 2
#     Edge 15, Type (0, 1), BuildingBlock: XIVTED_clean_linker_0, # of connection points: 2
#     Edge 16, Type (0, 1), BuildingBlock: XIVTED_clean_linker_0, # of connection points: 2
#     Edge 17, Type (0, 1), BuildingBlock: XIVTED_clean_linker_0, # of connection points: 2
#     Edge 18, Type (0, 1), BuildingBlock: XIVTED_clean_linker_0, # of connection points: 2
#     Edge 19, Type (0, 1), BuildingBlock: XIVTED_clean_linker_0, # of connection points: 2
#     Edge 20, Type (0, 1), BuildingBlock: XIVTED_clean_linker_0, # of connection points: 2
#     Edge 21, Type (0, 1), BuildingBlock: XIVTED_clean_linker_0, # of connection points: 2
#     Edge 22, Type (0, 1), BuildingBlock: XIVTED_clean_linker_0, # of connection points: 2
#     Edge 23, Type (0, 1), BuildingBlock: XIVTED_clean_linker_0, # of connection points: 2
#     Edge 24, Type (0, 1), BuildingBlock: XIVTED_clean_linker_0, # of connection points: 2
#     Edge 25, Type (0, 1), BuildingBlock: XIVTED_clean_linker_0, # of connection points: 2
#     Edge 26, Type (0, 1), BuildingBlock: XIVTED_clean_linker_0, # of connection points: 2
# Relax obj value: 0.170
# Max RMSD: 0.200
# Mean RMSD: 0.148
data_MOF--net-anh--node1-BETGAK_clean_sbu_0--node2-WUSLED_clean_sbu_0--edge1-XIVTED_clean_linker_0
_symmetry_space_group_name_H-M    P1
_symmetry_Int_Tables_number       1
_symmetry_cell_setting            triclinic
loop_
_symmetry_equiv_pos_as_xyz
'x, y, z'
_cell_length_a     40.903306
_cell_length_b     46.632996
_cell_length_c     69.947953
_cell_angle_alpha  91.934908
_cell_angle_beta   89.89456
_cell_angle_gamma 128.08737
loop_
_atom_site_label
_atom_site_type_symbol
_atom_site_fract_x
_atom_site_fract_y
_atom_site_fract_z
_atom_type_partial_charge
La0 La 0.08753 0.4984 0.16791 0.0
La1 La 1.04102 0.53191 0.16981 0.0
C2 C 0.13268 0.48471 0.15514 0.0
C3 C 0.17441 0.50267 0.16276 0.0
C4 C 0.18188 0.50831 0.18265 0.0
C5 C 0.22195 0.52749 0.19005 0.0
C6 C 0.25487 0.54061 0.17765 0.0
C7 C 0.24798 0.53848 0.15777 0.0
C8 C 0.20777 0.51946 0.15036 0.0
C9 C 0.07635 0.50885 0.20462 0.0
C10 C 0.13896 0.58542 0.17174 0.0
C11 C 1.00297 0.55283 0.18325 0.0
C12 C 0.95842 0.52829 0.18598 0.0
C13 C 0.93126 0.51421 0.17002 0.0
C14 C 0.88923 0.48735 0.17225 0.0
C15 C 0.87372 0.475 0.19055 0.0
C16 C 0.90087 0.48693 0.20624 0.0
C17 C 0.94313 0.51368 0.204 0.0
C18 C 0.04956 0.51751 0.13329 0.0
C19 C 0.98923 0.44523 0.16886 0.0
O20 O 0.10236 0.46274 0.16675 0.0
O21 O 0.12851 0.50709 0.14679 0.0
O22 O 0.0933 0.49409 0.1989 0.0
O23 O 0.06736 0.51695 0.18937 0.0
O24 O 0.13983 0.55734 0.17131 0.0
O25 O 0.1042 0.58151 0.17106 0.0
O26 O 1.01469 0.55795 0.16542 0.0
O27 O 1.02362 0.54628 0.194 0.0
O28 O 1.03178 0.5318 0.13836 0.0
O29 O 0.06039 0.51217 0.1488 0.0
O30 O 0.98962 0.4736 0.17276 0.0
O31 O 1.02313 0.44903 0.16402 0.0
H32 H 0.1568 0.49712 0.19258 0.0
H33 H 0.22677 0.52926 0.20541 0.0
H34 H 0.27302 0.54859 0.14789 0.0
H35 H 0.20259 0.51708 0.13501 0.0
H36 H 0.94221 0.52416 0.15582 0.0
H37 H 0.86852 0.47907 0.16001 0.0
H38 H 0.88901 0.4779 0.22044 0.0
H39 H 0.96379 0.52324 0.21638 0.0
La40 La 0.58034 1.00392 0.49207 0.0
La41 La 0.53431 0.03209 0.49102 0.0
C42 C 0.60521 0.96688 0.49776 0.0
C43 C 0.58735 0.92785 0.49763 0.0
C44 C 0.58943 0.91087 0.48118 0.0
C45 C 0.57762 0.87564 0.48172 0.0
C46 C 0.56387 0.85665 0.4988 0.0
C47 C 0.55978 0.87298 0.51495 0.0
C48 C 0.57136 0.90811 0.51437 0.0
C49 C 0.57065 0.01938 0.45741 0.0
C50 C 0.48074 0.94892 0.48963 0.0
C51 C 0.51246 0.07052 0.48332 0.0
C52 C 0.53002 0.10909 0.48721 0.0
C53 C 0.52939 0.12162 0.50565 0.0
C54 C 0.54047 0.15638 0.50862 0.0
C55 C 0.55223 0.17936 0.49323 0.0
C56 C 0.55646 0.16817 0.47512 0.0
C57 C 0.54527 0.13323 0.47213 0.0
C58 C 0.54365 0.01786 0.52614 0.0
C59 C 0.63388 0.08782 0.49287 0.0
O60 O 0.60689 0.98009 0.48133 0.0
O61 O 0.5944 0.97915 0.51144 0.0
O62 O 0.60378 0.02476 0.46367 0.0
O63 O 0.54338 1.00376 0.47002 0.0
O64 O 0.51517 0.95489 0.49577 0.0
O65 O 0.48199 0.97603 0.48352 0.0
O66 O 0.49884 0.04938 0.49791 0.0
O67 O 0.53284 0.0647 0.47156 0.0
O68 O 0.51142 0.01376 0.51958 0.0
O69 O 0.57111 0.03222 0.51344 0.0
O70 O 0.59834 0.08127 0.48877 0.0
O71 O 0.63482 0.06106 0.49749 0.0
H72 H 0.60146 0.92523 0.468 0.0
H73 H 0.58031 0.8637 0.46886 0.0
H74 H 0.54969 0.85951 0.52842 0.0
H75 H 0.5693 0.92031 0.52731 0.0
H76 H 0.5187 0.10411 0.51771 0.0
H77 H 0.53786 0.16465 0.52284 0.0
H78 H 0.56568 0.18537 0.46302 0.0
H79 H 0.54674 0.12449 0.45782 0.0
La80 La 0.61612 0.57322 0.84089 0.0
La81 La 0.56231 0.49443 0.84152 0.0
C82 C 0.64667 0.63791 0.83363 0.0
C83 C 0.63102 0.65945 0.83375 0.0
C84 C 0.6382 0.68204 0.84969 0.0
C85 C 0.62507 0.7036 0.84942 0.0
C86 C 0.60527 0.70394 0.83301 0.0
C87 C 0.59768 0.68067 0.81723 0.0
C88 C 0.60998 0.65862 0.81768 0.0
C89 C 0.60541 0.54811 0.87484 0.0
C90 C 0.51458 0.52872 0.84557 0.0
C91 C 0.52967 0.42824 0.84624 0.0
C92 C 0.54286 0.40486 0.84414 0.0
C93 C 0.54014 0.3888 0.82622 0.0
C94 C 0.54954 0.36466 0.82443 0.0
C95 C 0.56158 0.35563 0.84053 0.0
C96 C 0.56519 0.37223 0.85841 0.0
C97 C 0.55602 0.39664 0.86018 0.0
C98 C 0.5705 0.51954 0.80719 0.0
C99 C 0.66408 0.539 0.84283 0.0
O100 O 0.6506 0.62817 0.85021 0.0
O101 O 0.63127 0.61159 0.8205 0.0
O102 O 0.63969 0.57815 0.86965 0.0
O103 O 0.57787 0.53523 0.86198 0.0
O104 O 0.55169 0.55917 0.84068 0.0
O105 O 0.51227 0.49941 0.84895 0.0
O106 O 0.52568 0.44035 0.83056 0.0
O107 O 0.54703 0.45329 0.86008 0.0
O108 O 0.53632 0.49205 0.81416 0.0
O109 O 0.59988 0.53233 0.81935 0.0
O110 O 0.62576 0.50817 0.84543 0.0
O111 O 0.66791 0.56874 0.83855 0.0
H112 H 0.65431 0.68333 0.86236 0.0
H113 H 0.63083 0.72005 0.86215 0.0
H114 H 0.5835 0.68008 0.80406 0.0
H115 H 0.60385 0.64156 0.80514 0.0
H116 H 0.5299 0.39424 0.81355 0.0
H117 H 0.546 0.35209 0.81049 0.0
H118 H 0.57488 0.36617 0.87103 0.0
H119 H 0.55851 0.40856 0.87419 0.0
C120 C 0.64987 0.11715 0.19188 0.0
C121 C 0.67033 0.1415 0.20778 0.0
C122 C 0.72452 0.18896 0.18715 0.0
C123 C 0.70729 0.17709 0.20543 0.0
C124 C 0.70331 0.1643 0.17135 0.0
C125 C 0.66665 0.12899 0.17372 0.0
U126 U 0.5568 0.02626 0.21569 0.0
O127 O 0.4927 0.98929 0.20343 0.0
O128 O 0.53137 0.97129 0.20421 0.0
C129 C 0.49618 0.96383 0.1985 0.0
C130 C 0.61127 0.07919 0.19327 0.0
C131 C 0.45857 0.92524 0.1964 0.0
C132 C 0.40749 0.87417 0.17478 0.0
C133 C 0.44172 0.91091 0.17791 0.0
C134 C 0.40584 0.86523 0.20874 0.0
C135 C 0.38898 0.85062 0.19012 0.0
C136 C 0.44036 0.90217 0.21184 0.0
C137 C 0.56105 0.03348 0.27369 0.0
C138 C 0.52691 0.99633 0.30143 0.0
C139 C 0.58549 0.06022 0.30598 0.0
C140 C 0.58846 0.06355 0.28615 0.0
C141 C 0.55475 0.0266 0.31402 0.0
C142 C 0.53004 0.99972 0.28143 0.0
C143 C 0.5675 0.03908 0.25291 0.0
O144 O 0.61488 0.05506 0.19961 0.0
O145 O 0.57768 0.07426 0.1992 0.0
O146 O 0.54422 0.0437 0.24269 0.0
O147 O 0.5826 0.02521 0.24313 0.0
H148 H 0.65796 0.13299 0.22195 0.0
H149 H 0.72271 0.19506 0.21798 0.0
H150 H 0.71474 0.17234 0.15702 0.0
H151 H 0.65127 0.11075 0.16122 0.0
H152 H 0.39616 0.86411 0.16023 0.0
H153 H 0.45553 0.92814 0.16573 0.0
H154 H 0.39219 0.84818 0.22096 0.0
H155 H 0.4529 0.9126 0.22622 0.0
H156 H 0.50253 0.97006 0.30703 0.0
H157 H 0.60807 0.08401 0.315 0.0
H158 H 0.61281 0.08982 0.2805 0.0
H159 H 0.50852 0.97611 0.27207 0.0
C160 C 0.55225 0.58171 0.53556 0.0
C161 C 0.55121 0.60221 0.55037 0.0
C162 C 0.55147 0.64011 0.52699 0.0
C163 C 0.55074 0.63115 0.54611 0.0
C164 C 0.55237 0.61929 0.51228 0.0
C165 C 0.55277 0.59044 0.51654 0.0
U166 U 0.55861 0.5218 0.56945 0.0
O167 O 0.52847 0.46309 0.56688 0.0
O168 O 0.59664 0.50326 0.56686 0.0
C169 C 0.56405 0.46866 0.56561 0.0
C170 C 0.55383 0.55173 0.53948 0.0
C171 C 0.56588 0.4448 0.55207 0.0
C172 C 0.56053 0.41874 0.5203 0.0
C173 C 0.56056 0.44386 0.53211 0.0
C174 C 0.57201 0.39646 0.54828 0.0
C175 C 0.56566 0.39452 0.52845 0.0
C176 C 0.57217 0.42132 0.55992 0.0
C177 C 0.56467 0.5427 0.62449 0.0
C178 C 0.56084 0.50851 0.6512 0.0
C179 C 0.58151 0.56922 0.65693 0.0
C180 C 0.577 0.57157 0.63739 0.0
C181 C 0.57348 0.53773 0.66412 0.0
C182 C 0.55674 0.51106 0.63148 0.0
C183 C 0.56039 0.54701 0.60401 0.0
O184 O 0.5891 0.56165 0.54687 0.0
O185 O 0.52106 0.52322 0.54752 0.0
O186 O 0.52583 0.52037 0.59492 0.0
O187 O 0.59363 0.56105 0.59372 0.0
H188 H 0.55105 0.59599 0.56517 0.0
H189 H 0.5505 0.64686 0.5578 0.0
H190 H 0.55232 0.62501 0.49741 0.0
H191 H 0.55358 0.57493 0.50493 0.0
H192 H 0.55518 0.41737 0.50502 0.0
H193 H 0.55567 0.46186 0.52578 0.0
H194 H 0.5758 0.37792 0.55486 0.0
H195 H 0.57635 0.42165 0.57525 0.0
H196 H 0.55447 0.4839 0.65635 0.0
H197 H 0.59051 0.59187 0.66651 0.0
H198 H 0.583 0.59609 0.63231 0.0
H199 H 0.5473 0.48845 0.62176 0.0
C200 C 0.99105 0.53313 0.8688 0.0
C201 C 0.95715 0.51639 0.88147 0.0
C202 C 0.91912 0.53444 0.86331 0.0
C203 C 0.9226 0.51714 0.87886 0.0
C204 C 0.95321 0.55095 0.8507 0.0
C205 C 0.98762 0.55028 0.85335 0.0
U206 U 0.08474 0.52807 0.88841 0.0
O207 O 0.10703 0.49899 0.87427 0.0
O208 O 0.14889 0.55793 0.87645 0.0
C209 C 0.14458 0.52859 0.87064 0.0
C210 C 1.02846 0.53158 0.8701 0.0
C211 C 0.18299 0.52841 0.86942 0.0
C212 C 0.24129 0.53875 0.85013 0.0
C213 C 0.20664 0.53918 0.8525 0.0
C214 C 0.23131 0.5164 0.88153 0.0
C215 C 0.25516 0.52733 0.86451 0.0
C216 C 0.19653 0.51694 0.88391 0.0
C217 C 0.07972 0.52282 0.94758 0.0
C218 C 0.11238 0.53028 0.97874 0.0
C219 C 1.04203 0.50997 0.97749 0.0
C220 C 1.04371 0.51175 0.95733 0.0
C221 C 0.07638 0.51928 0.9886 0.0
C222 C 0.11399 0.53197 0.95858 0.0
C223 C 0.08152 0.52472 0.92613 0.0
O224 O 0.06584 0.56011 0.87601 0.0
O225 O 1.02257 0.50122 0.87382 0.0
O226 O 0.05991 0.49555 0.91459 0.0
O227 O 0.10488 0.55569 0.91738 0.0
H228 H 0.95712 0.50246 0.89354 0.0
H229 H 0.89852 0.50406 0.88936 0.0
H230 H 0.95336 0.5642 0.83827 0.0
H231 H 1.01181 0.5631 0.84285 0.0
H232 H 0.25682 0.54699 0.83659 0.0
H233 H 0.19801 0.54788 0.84068 0.0
H234 H 0.23973 0.50761 0.89336 0.0
H235 H 0.18018 0.50825 0.89725 0.0
H236 H 0.13932 0.53721 0.98661 0.0
H237 H 1.01394 0.50186 0.98442 0.0
H238 H 1.01684 0.50475 0.94935 0.0
H239 H 0.14207 0.54024 0.95156 0.0
C240 C 0.95124 0.42533 0.47169 0.0
C241 C 0.92499 0.40199 0.45641 0.0
C242 C 0.88212 0.35194 0.47826 0.0
C243 C 0.89077 0.36566 0.45966 0.0
C244 C 0.90843 0.37582 0.49349 0.0
C245 C 0.94249 0.41196 0.49022 0.0
U246 U 1.04436 0.51968 0.44886 0.0
O247 O 0.10672 0.55308 0.46269 0.0
O248 O 0.06957 0.57243 0.46366 0.0
C249 C 0.10404 0.57834 0.46913 0.0
C250 C 0.98848 0.46349 0.46921 0.0
C251 C 0.14259 0.61643 0.47107 0.0
C252 C 0.19276 0.66856 0.49238 0.0
C253 C 0.15625 0.63275 0.48954 0.0
C254 C 0.20292 0.67249 0.4582 0.0
C255 C 0.2167 0.68911 0.47676 0.0
C256 C 0.16623 0.6365 0.45538 0.0
C257 C 1.04098 0.51631 0.38991 0.0
C258 C 0.06336 0.54766 0.35967 0.0
C259 C 1.01865 0.48185 0.35926 0.0
C260 C 1.0186 0.48292 0.37939 0.0
C261 C 1.04147 0.5142 0.34898 0.0
C262 C 0.06302 0.54866 0.37984 0.0
C263 C 1.04204 0.5173 0.41126 0.0
O264 O 1.02243 0.4693 0.46312 0.0
O265 O 0.98381 0.48722 0.46323 0.0
O266 O 1.02483 0.52866 0.42159 0.0
O267 O 0.06036 0.50705 0.42112 0.0
H268 H 0.93115 0.4117 0.44201 0.0
H269 H 0.87158 0.34814 0.4475 0.0
H270 H 0.90259 0.36675 0.50802 0.0
H271 H 0.96225 0.42958 0.50226 0.0
H272 H 0.20177 0.6803 0.50684 0.0
H273 H 0.13849 0.6177 0.50188 0.0
H274 H 0.22075 0.68714 0.44582 0.0
H275 H 0.15644 0.62437 0.44102 0.0
H276 H 0.08174 0.57321 0.35247 0.0
H277 H 1.00067 0.45548 0.35173 0.0
H278 H 1.00101 0.45754 0.38677 0.0
H279 H 0.08075 0.57482 0.3876 0.0
C280 C 0.55561 0.94544 0.79847 0.0
C281 C 0.55803 0.92566 0.78374 0.0
C282 C 0.56188 0.89009 0.80726 0.0
C283 C 0.56115 0.89824 0.78809 0.0
C284 C 0.55896 0.90984 0.82189 0.0
C285 C 0.55591 0.93718 0.81752 0.0
U286 U 0.55008 1.00696 0.76499 0.0
O287 O 0.51631 0.0296 0.76906 0.0
O288 O 0.58456 0.06638 0.76762 0.0
C289 C 0.55067 0.06346 0.76952 0.0
C290 C 0.55388 0.9754 0.79451 0.0
C291 C 0.55308 0.09093 0.78201 0.0
C292 C 0.56077 0.12142 0.81271 0.0
C293 C 0.556 0.09262 0.80214 0.0
C294 C 0.55894 0.14598 0.78314 0.0
C295 C 0.56322 0.14886 0.80317 0.0
C296 C 0.554 0.11752 0.77277 0.0
C297 C 0.5465 0.98838 0.70939 0.0
C298 C 0.5543 0.02464 0.68279 0.0
C299 C 0.54243 0.96755 0.67642 0.0
C300 C 0.54094 0.96246 0.6961 0.0
C301 C 0.54977 0.99894 0.66937 0.0
C302 C 0.55277 0.01944 0.70262 0.0
C303 C 0.54744 0.98241 0.73002 0.0
O304 O 0.5868 1.00389 0.78658 0.0
O305 O 0.51878 0.96593 0.78713 0.0
O306 O 0.51405 0.9703 0.73984 0.0
O307 O 0.58214 1.00687 0.73968 0.0
H308 H 0.55795 0.93167 0.76892 0.0
H309 H 0.56378 0.88394 0.77644 0.0
H310 H 0.55867 0.904 0.83677 0.0
H311 H 0.55397 0.95208 0.82909 0.0
H312 H 0.56377 0.12286 0.82817 0.0
H313 H 0.55526 0.07223 0.80959 0.0
H314 H 0.55978 0.16612 0.77537 0.0
H315 H 0.55158 0.11665 0.7573 0.0
H316 H 0.5601 0.04923 0.67803 0.0
H317 H 0.53768 0.94662 0.66674 0.0
H318 H 0.5359 0.93822 0.70097 0.0
H319 H 0.55713 0.03987 0.71261 0.0
C320 C 0.58892 0.4726 0.13691 0.0
C321 C 0.61237 0.47182 0.12254 0.0
C322 C 0.66182 0.48421 0.14652 0.0
C323 C 0.64873 0.47739 0.12736 0.0
C324 C 0.63944 0.48673 0.16077 0.0
C325 C 0.60275 0.48076 0.15595 0.0
U326 U 0.52396 0.4606 0.09705 0.0
O327 O 0.45624 0.42563 0.09242 0.0
O328 O 0.49393 0.48535 0.09122 0.0
C329 C 0.45688 0.45421 0.09338 0.0
C330 C 0.55078 0.46589 0.13153 0.0
C331 C 0.43618 0.45581 0.10979 0.0
C332 C 0.44153 0.47027 0.14384 0.0
C333 C 0.45232 0.45888 0.12816 0.0
C334 C 0.39555 0.47249 0.12314 0.0
C335 C 0.41404 0.47807 0.14119 0.0
C336 C 0.40683 0.46156 0.10738 0.0
C337 C 0.56362 0.47176 0.04811 0.0
C338 C 0.53102 0.48198 0.02332 0.0
C339 C 0.58714 0.47929 0.01579 0.0
C340 C 0.59023 0.47351 0.03484 0.0
C341 C 0.55762 0.48363 0.00998 0.0
C342 C 0.53381 0.47576 0.04234 0.0
C343 C 0.56858 0.46829 0.0682 0.0
O344 O 0.55686 0.49358 0.12321 0.0
O345 O 0.52381 0.43422 0.12243 0.0
O346 O 0.53943 0.43621 0.07503 0.0
O347 O 0.57734 0.49592 0.07898 0.0
H348 H 0.6019 0.46596 0.10769 0.0
H349 H 0.66569 0.47494 0.11636 0.0
H350 H 0.6491 0.4912 0.17569 0.0
H351 H 0.58482 0.48167 0.16703 0.0
H352 H 0.45613 0.47478 0.15771 0.0
H353 H 0.47531 0.45476 0.13016 0.0
H354 H 0.3741 0.47849 0.1211 0.0
H355 H 0.39461 0.45971 0.09328 0.0
H356 H 0.5081 0.48526 0.01901 0.0
H357 H 0.60828 0.48103 1.00563 0.0
H358 H 0.61365 0.47091 0.03925 0.0
H359 H 0.51325 0.47467 0.05263 0.0
H360 H 0.25518 0.49483 0.19984 0.0
H361 H 0.45105 0.54957 0.14571 0.0
H362 H 0.3366 0.59428 0.16967 0.0
H363 H 0.3611 0.44577 0.1705 0.0
H364 H 0.42531 0.57605 0.16515 0.0
H365 H 0.3087 0.48755 0.20037 0.0
C366 C 0.28527 0.5163 0.19424 0.0
C367 C 0.29158 0.54512 0.18453 0.0
C368 C 0.41208 0.54781 0.16686 0.0
C369 C 0.35247 0.53621 0.18455 0.0
C370 C 0.42677 0.53282 0.15583 0.0
C371 C 0.40743 0.49561 0.15654 0.0
C372 C 0.37751 0.52503 0.1783 0.0
C373 C 0.37627 0.47461 0.16964 0.0
C374 C 0.31572 0.51185 0.19435 0.0
C375 C 0.33065 0.57153 0.1771 0.0
N376 N 0.36151 0.48949 0.1798 0.0
N377 N 0.35947 0.56596 0.17684 0.0
H378 H 0.64198 0.13949 0.47205 0.0
H379 H 0.8764 0.30504 0.50399 0.0
H380 H 0.71286 0.12417 0.50987 0.0
H381 H 0.80467 0.30951 0.46074 0.0
H382 H 0.81717 0.241 0.50859 0.0
H383 H 0.70137 0.20288 0.46971 0.0
C384 C 0.67016 0.14946 0.47996 0.0
C385 C 0.67214 0.1262 0.49126 0.0
C386 C 0.81458 0.25603 0.49805 0.0
C387 C 0.7414 0.20001 0.48855 0.0
C388 C 0.8483 0.29277 0.49548 0.0
C389 C 0.84603 0.31298 0.48172 0.0
C390 C 0.77812 0.23924 0.48686 0.0
C391 C 0.80862 0.29518 0.47116 0.0
C392 C 0.70431 0.18592 0.47855 0.0
C393 C 0.70993 0.141 0.50092 0.0
N394 N 0.77646 0.25959 0.47393 0.0
N395 N 0.7431 0.17709 0.49942 0.0
H396 H 0.63919 0.7694 0.85363 0.0
H397 H 0.52691 0.8241 0.78831 0.0
H398 H 0.54579 0.69768 0.80983 0.0
H399 H 0.60571 0.89007 0.8372 0.0
H400 H 0.53435 0.77778 0.79612 0.0
H401 H 0.6254 0.81247 0.84905 0.0
C402 C 0.61566 0.7622 0.84311 0.0
C403 C 0.59457 0.72952 0.83179 0.0
C404 C 0.54983 0.80229 0.80523 0.0
C405 C 0.57994 0.78032 0.826 0.0
C406 C 0.54591 0.82899 0.80066 0.0
C407 C 0.56577 0.86127 0.81204 0.0
C408 C 0.57394 0.80774 0.82129 0.0
C409 C 0.58939 0.86554 0.82809 0.0
C410 C 0.60817 0.78732 0.84039 0.0
C411 C 0.56457 0.72279 0.81841 0.0
N412 N 0.59294 0.83921 0.83218 0.0
N413 N 0.5587 0.74806 0.81574 0.0
H414 H 0.85525 0.51284 0.21 0.0
H415 H 0.65828 0.42521 0.14189 0.0
H416 H 0.80064 0.41346 0.17607 0.0
H417 H 0.73453 0.53583 0.16524 0.0
H418 H 0.70248 0.41491 0.15841 0.0
H419 H 0.79916 0.51349 0.20001 0.0
C420 C 0.82973 0.48972 0.20149 0.0
C421 C 0.83213 0.46301 0.19373 0.0
C422 C 0.70981 0.44154 0.15973 0.0
C423 C 0.76925 0.46434 0.18174 0.0
C424 C 0.6852 0.44755 0.15011 0.0
C425 C 0.69351 0.48139 0.15233 0.0
C426 C 0.74262 0.46967 0.1715 0.0
C427 C 0.7277 0.50946 0.16334 0.0
C428 C 0.79839 0.49067 0.19536 0.0
C429 C 0.79932 0.43431 0.1823 0.0
N430 N 0.75126 0.50294 0.17265 0.0
N431 N 0.76937 0.43616 0.17619 0.0
H432 H 0.41299 0.92126 0.46633 0.0
H433 H 0.27568 0.71941 0.50626 0.0
H434 H 0.45743 0.89072 0.51096 0.0
H435 H 0.24615 0.74764 0.45443 0.0
H436 H 0.33853 0.78282 0.51063 0.0
H437 H 0.34836 0.85876 0.46413 0.0
C438 C 0.40903 0.90144 0.47578 0.0
C439 C 0.44083 0.91123 0.48875 0.0
C440 C 0.31832 0.77505 0.49827 0.0
C441 C 0.36645 0.83932 0.48641 0.0
C442 C 0.28219 0.73882 0.4958 0.0
C443 C 0.25539 0.72775 0.4798 0.0
C444 C 0.32782 0.80064 0.48473 0.0
C445 C 0.26601 0.75441 0.46675 0.0
C446 C 0.37212 0.86566 0.47447 0.0
C447 C 0.43392 0.88425 0.50059 0.0
N448 N 0.30118 0.78939 0.46951 0.0
N449 N 0.39747 0.84958 0.49918 0.0
H450 H 0.53452 0.2985 0.86367 0.0
H451 H 0.62054 0.21963 0.79435 0.0
H452 H 0.60425 0.34922 0.81279 0.0
H453 H 0.5246 0.15261 0.83477 0.0
H454 H 0.62556 0.27192 0.80613 0.0
H455 H 0.54058 0.2496 0.85803 0.0
C456 C 0.55159 0.29964 0.85148 0.0
C457 C 0.56859 0.32787 0.83858 0.0
C458 C 0.60364 0.24594 0.81262 0.0
C459 C 0.57558 0.2721 0.83208 0.0
C460 C 0.60081 0.21603 0.80591 0.0
C461 C 0.5715 0.18149 0.81329 0.0
C462 C 0.57706 0.24165 0.82694 0.0
C463 C 0.54741 0.17869 0.82857 0.0
C464 C 0.55478 0.27161 0.84822 0.0
C465 C 0.59012 0.3278 0.82296 0.0
N466 N 0.55031 0.20833 0.83475 0.0
N467 N 0.59285 0.30038 0.82015 0.0
H468 H 0.60762 0.83622 0.4816 0.0
H469 H 0.50673 0.65999 0.54359 0.0
H470 H 0.50599 0.79705 0.51976 0.0
H471 H 0.59572 0.69064 0.49952 0.0
H472 H 0.50634 0.71027 0.5352 0.0
H473 H 0.60214 0.78215 0.48718 0.0
C474 C 0.58367 0.81607 0.49093 0.0
C475 C 0.55748 0.82164 0.50035 0.0
C476 C 0.5258 0.70588 0.5273 0.0
C477 C 0.55193 0.75982 0.50725 0.0
C478 C 0.52632 0.67735 0.53221 0.0
C479 C 0.55126 0.67095 0.52226 0.0
C480 C 0.5506 0.72844 0.51241 0.0
C481 C 0.57557 0.69415 0.50744 0.0
C482 C 0.58087 0.78527 0.49425 0.0
C483 C 0.52756 0.79454 0.51251 0.0
N484 N 0.57473 0.72187 0.50303 0.0
N485 N 0.52587 0.76505 0.51573 0.0
H486 H 0.74916 0.59182 0.8331 0.0
H487 H 0.83687 0.48977 0.87787 0.0
H488 H 0.67003 0.48738 0.85857 0.0
H489 H 0.91091 0.58069 0.84131 0.0
H490 H 0.77855 0.49138 0.87287 0.0
H491 H 0.80869 0.59095 0.83745 0.0
C492 C 0.74378 0.56857 0.83964 0.0
C493 C 0.70289 0.53955 0.8453 0.0
C494 C 0.80748 0.5111 0.86587 0.0
C495 C 0.77372 0.53864 0.8508 0.0
C496 C 0.84173 0.5104 0.86884 0.0
C497 C 0.88099 0.53513 0.86021 0.0
C498 C 0.81082 0.53703 0.85419 0.0
C499 C 0.88249 0.56048 0.84845 0.0
C500 C 0.7784 0.5681 0.84214 0.0
C501 C 0.6999 0.51059 0.85373 0.0
N502 N 0.84893 0.56079 0.84598 0.0
N503 N 0.73395 0.51108 0.85623 0.0
H504 H 0.21328 0.61225 0.18991 0.0
H505 H 0.32373 0.81982 0.16397 0.0
H506 H 0.15339 0.64564 0.15729 0.0
H507 H 0.37099 0.79065 0.20804 0.0
H508 H 0.26512 0.75534 0.15844 0.0
H509 H 0.27501 0.67667 0.19401 0.0
C510 C 0.21334 0.63303 0.18339 0.0
C511 C 0.17817 0.62351 0.17321 0.0
C512 C 0.28825 0.76305 0.16937 0.0
C513 C 0.24858 0.69716 0.17777 0.0
C514 C 0.32203 0.79998 0.17247 0.0
C515 C 0.35261 0.8111 0.18662 0.0
C516 C 0.28482 0.73667 0.18038 0.0
C517 C 0.34803 0.78373 0.19723 0.0
C518 C 0.24842 0.66979 0.18584 0.0
C519 C 0.17974 0.65168 0.16531 0.0
N520 N 0.31494 0.74794 0.19388 0.0
N521 N 0.21425 0.68705 0.1677 0.0
H522 H 0.49593 0.18282 0.51084 0.0
H523 H 0.61841 0.39711 0.50257 0.0
H524 H 0.61073 0.24941 0.48054 0.0
H525 H 0.50153 0.32329 0.53018 0.0
H526 H 0.61452 0.34442 0.49088 0.0
H527 H 0.49643 0.23474 0.51531 0.0
C528 C 0.5216 0.20864 0.50528 0.0
C529 C 0.55377 0.21194 0.49567 0.0
C530 C 0.58943 0.33982 0.4992 0.0
C531 C 0.55439 0.27214 0.50053 0.0
C532 C 0.59146 0.36975 0.50569 0.0
C533 C 0.56013 0.36427 0.51728 0.0
C534 C 0.55595 0.30452 0.50453 0.0
C535 C 0.52617 0.32854 0.5212 0.0
C536 C 0.5217 0.23835 0.50767 0.0
C537 C 0.5855 0.24585 0.4882 0.0
N538 N 0.52522 0.3002 0.51502 0.0
N539 N 0.58529 0.27488 0.49096 0.0
H540 H 0.50191 0.57882 0.834 0.0
H541 H 0.27495 0.48491 0.88171 0.0
H542 H 0.43636 0.47753 0.86257 0.0
H543 H 0.3257 0.56839 0.84052 0.0
H544 H 0.33445 0.48454 0.87696 0.0
H545 H 0.44126 0.57799 0.83792 0.0
C546 C 0.47505 0.55626 0.84117 0.0
C547 C 0.47583 0.52823 0.84789 0.0
C548 C 0.33281 0.50305 0.8689 0.0
C549 C 0.40374 0.52743 0.85287 0.0
C550 C 0.29829 0.5035 0.87171 0.0
C551 C 0.2934 0.52679 0.86169 0.0
C552 C 0.3648 0.52651 0.85605 0.0
C553 C 0.32623 0.54947 0.84876 0.0
C554 C 0.43983 0.55583 0.84341 0.0
C555 C 0.43861 0.50004 0.857 0.0
N556 N 0.35963 0.54888 0.84654 0.0
N557 N 0.40518 0.50059 0.85927 0.0
H558 H 0.92033 0.42435 0.18886 0.0
H559 H 0.7874 0.21049 0.16195 0.0
H560 H 0.96768 0.37976 0.15406 0.0
H561 H 0.75295 0.25404 0.20585 0.0
H562 H 0.85085 0.27214 0.15701 0.0
H563 H 0.85688 0.36247 0.19346 0.0
C564 C 0.91728 0.40162 0.18199 0.0
C565 C 0.94952 0.40755 0.17091 0.0
C566 C 0.82951 0.26821 0.16778 0.0
C567 C 0.87636 0.33608 0.17617 0.0
C568 C 0.79294 0.23292 0.17055 0.0
C569 C 0.76427 0.22665 0.18438 0.0
C570 C 0.83781 0.29787 0.17882 0.0
C571 C 0.77402 0.25712 0.1952 0.0
C572 C 0.88103 0.36617 0.18474 0.0
C573 C 0.94376 0.37669 0.16268 0.0
N574 N 0.8097 0.29122 0.19214 0.0
N575 N 0.90794 0.34244 0.16538 0.0
H576 H 1.00494 0.45768 0.10819 0.0
H577 H 0.13577 0.56957 0.01564 0.0
H578 H 0.11326 0.57036 0.11151 0.0
H579 H 1.01347 0.4659 0.01142 0.0
H580 H 0.13231 0.56747 0.05069 0.0
H581 H 1.01243 0.4568 0.07321 0.0
C582 C 1.03101 0.48197 0.10164 0.0
C583 C 0.05909 0.51391 0.11298 0.0
C584 C 0.10625 0.54504 0.04214 0.0
C585 C 0.06722 0.51355 0.07257 0.0
C586 C 0.10826 0.54616 0.02202 0.0
C587 C 0.07485 0.51792 0.01029 0.0
C588 C 0.07079 0.51514 0.05094 0.0
C589 C 1.03991 0.48855 0.01969 0.0
C590 C 1.03499 0.48161 0.08158 0.0
C591 C 0.09143 0.54489 0.10348 0.0
N592 N 1.0389 0.48787 0.03928 0.0
N593 N 0.09458 0.54394 0.08399 0.0
H594 H 0.57734 0.07196 0.43747 0.0
H595 H 0.53569 0.96924 0.33514 0.0
H596 H 0.5468 0.96577 0.43055 0.0
H597 H 0.56964 0.07699 0.34194 0.0
H598 H 0.53567 0.96604 0.36998 0.0
H599 H 0.57075 0.07299 0.4026 0.0
C600 C 0.56858 0.04863 0.42857 0.0
C601 C 0.56207 0.01855 0.4368 0.0
C602 C 0.54301 0.99036 0.36384 0.0
C603 C 0.55522 0.01965 0.39692 0.0
C604 C 0.54273 0.99211 0.34388 0.0
C605 C 0.55271 0.02345 0.33537 0.0
C606 C 0.55329 0.02011 0.37557 0.0
C607 C 0.56232 0.05242 0.34767 0.0
C608 C 0.56507 0.04927 0.40868 0.0
C609 C 0.5516 0.98928 0.42469 0.0
N610 N 0.56244 0.05006 0.36703 0.0
N611 N 0.54858 0.99057 0.40539 0.0
H612 H 0.50728 0.48667 0.78135 0.0
H613 H 0.63744 0.58821 0.68898 0.0
H614 H 0.64073 0.56691 0.78547 0.0
H615 H 0.51702 0.48249 0.6872 0.0
H616 H 0.63947 0.58623 0.72404 0.0
H617 H 0.51012 0.49145 0.74689 0.0
C618 C 0.53736 0.50547 0.775 0.0
C619 C 0.57391 0.52605 0.78637 0.0
C620 C 0.61282 0.56339 0.71595 0.0
C621 C 0.57728 0.53169 0.74647 0.0
C622 C 0.61155 0.56449 0.69597 0.0
C623 C 0.57697 0.53543 0.68514 0.0
C624 C 0.57889 0.53332 0.7252 0.0
C625 C 0.54442 0.50534 0.69491 0.0
C626 C 0.5389 0.50803 0.75522 0.0
C627 C 0.61184 0.55032 0.77723 0.0
N628 N 0.54601 0.50526 0.71434 0.0
N629 N 0.61259 0.55249 0.75774 0.0
H630 H 0.52417 0.04687 0.5537 0.0
H631 H 0.58321 0.9801 0.64209 0.0
H632 H 0.57978 0.99342 0.54638 0.0
H633 H 0.52391 0.03077 0.64786 0.0
H634 H 0.58547 0.98695 0.60753 0.0
H635 H 0.52881 0.04487 0.58836 0.0
C636 C 0.53768 0.0349 0.55943 0.0
C637 C 0.55168 0.02035 0.5471 0.0
C638 C 0.57211 0.99671 0.61636 0.0
C639 C 0.55629 0.01718 0.58705 0.0
C640 C 0.57046 0.99255 0.63618 0.0
C641 C 0.55298 1.00457 0.64817 0.0
C642 C 0.55639 0.01322 0.60824 0.0
C643 C 0.53803 0.02132 0.63944 0.0
C644 C 0.54021 0.03366 0.57927 0.0
C645 C 0.56903 1.0053 0.55535 0.0
N646 N 0.53997 0.02499 0.62011 0.0
N647 N 0.57049 1.00378 0.5748 0.0
H648 H 0.58759 0.48774 0.88981 0.0
H649 H 0.56219 0.53957 0.99551 0.0
H650 H 0.60155 0.5854 0.90402 0.0
H651 H 0.54815 0.44238 0.97931 0.0
H652 H 0.56894 0.55422 0.96166 0.0
H653 H 0.56651 0.46818 0.92235 0.0
C654 C 0.58567 0.50476 0.89985 0.0
C655 C 0.59573 0.5378 0.89451 0.0
C656 C 0.56385 0.52947 0.96553 0.0
C657 C 0.57266 0.51643 0.93167 0.0
C658 C 0.55978 0.52107 0.98473 0.0
C659 C 0.55523 0.49007 0.98994 0.0
C660 C 0.5632 0.50652 0.95172 0.0
C661 C 0.55232 0.46683 0.9757 0.0
C662 C 0.57391 0.49382 0.91842 0.0
C663 C 0.59419 0.55977 0.90795 0.0
N664 N 0.55671 0.47571 0.9572 0.0
N665 N 0.58287 0.5487 0.92609 0.0
H666 H 0.05733 0.5509 0.22452 0.0
H667 H 1.04494 0.46709 0.32595 0.0
H668 H 0.07423 0.46963 0.23281 0.0
H669 H 1.0434 0.55838 0.32228 0.0
H670 H 0.04945 0.4652 0.29126 0.0
H671 H 1.04566 0.55143 0.25917 0.0
C672 C 0.05772 0.53262 0.23337 0.0
C673 C 0.06606 0.50965 0.22534 0.0
C674 C 0.04803 0.48568 0.29793 0.0
C675 C 0.05405 0.51099 0.26541 0.0
C676 C 1.04512 0.48662 0.3179 0.0
C677 C 1.04362 0.51287 0.32737 0.0
C678 C 0.0494 0.51111 0.2869 0.0
C679 C 1.04488 0.53781 0.31581 0.0
C680 C 0.05164 0.53332 0.25331 0.0
C681 C 0.06773 0.48772 0.23805 0.0
N682 N 0.04763 0.5363 0.29629 0.0
N683 N 0.06186 0.48895 0.25716 0.0
loop_
_geom_bond_atom_site_label_1
_geom_bond_atom_site_label_2
_geom_bond_distance
_geom_bond_site_symmetry_2
_ccdc_geom_bond_type
La0 C2 2.928 . S
La0 O20 2.521 . S
La0 O21 2.628 . S
La0 O22 2.554 . S
La0 O23 2.757 . S
La0 O24 2.470 . S
La0 O29 2.482 . S
La0 O31 2.503 1_455 S
La1 C11 2.928 . S
La1 O23 2.482 1_655 S
La1 O25 2.503 1_655 S
La1 O26 2.521 . S
La1 O27 2.628 . S
La1 O28 2.554 . S
La1 O29 2.757 1_655 S
La1 O30 2.470 . S
C2 La0 2.928 . S
C2 C3 1.503 . S
C2 O20 1.261 . S
C2 O21 1.243 . S
C3 C2 1.503 . S
C3 C4 1.394 . S
C3 C8 1.373 . S
C4 C3 1.394 . S
C4 C5 1.380 . S
C4 H32 0.930 . S
C5 C4 1.380 . S
C5 C6 1.376 . S
C5 H33 0.930 . S
C6 C5 1.376 . S
C6 C7 1.370 . S
C7 C6 1.370 . S
C7 C8 1.396 . S
C7 H34 0.929 . S
C8 C3 1.373 . S
C8 C7 1.396 . S
C8 H35 0.929 . S
C9 O22 1.240 . S
C9 O23 1.289 . S
C10 O24 1.258 . S
C10 O25 1.256 . S
C11 La1 2.928 . S
C11 C12 1.503 . S
C11 O26 1.261 . S
C11 O27 1.243 . S
C12 C11 1.503 . S
C12 C13 1.394 . S
C12 C17 1.373 . S
C13 C12 1.394 . S
C13 C14 1.380 . S
C13 H36 0.930 . S
C14 C13 1.380 . S
C14 C15 1.376 . S
C14 H37 0.930 . S
C15 C14 1.376 . S
C15 C16 1.370 . S
C16 C15 1.370 . S
C16 C17 1.396 . S
C16 H38 0.929 . S
C17 C12 1.373 . S
C17 C16 1.396 . S
C17 H39 0.929 . S
C18 O28 1.240 1_455 S
C18 O29 1.289 . S
C19 O30 1.258 . S
C19 O31 1.256 . S
O20 La0 2.521 . S
O20 C2 1.261 . S
O21 La0 2.628 . S
O21 C2 1.243 . S
O22 La0 2.554 . S
O22 C9 1.240 . S
O23 La0 2.757 . S
O23 La1 2.482 1_455 S
O23 C9 1.289 . S
O24 La0 2.470 . S
O24 C10 1.258 . S
O25 La1 2.503 1_455 S
O25 C10 1.256 . S
O26 La1 2.521 . S
O26 C11 1.261 . S
O27 La1 2.628 . S
O27 C11 1.243 . S
O28 La1 2.554 . S
O28 C18 1.240 1_655 S
O29 La0 2.482 . S
O29 La1 2.757 1_455 S
O29 C18 1.289 . S
O30 La1 2.470 . S
O30 C19 1.258 . S
O31 La0 2.503 1_655 S
O31 C19 1.256 . S
H32 C4 0.930 . S
H33 C5 0.930 . S
H34 C7 0.929 . S
H35 C8 0.929 . S
H36 C13 0.930 . S
H37 C14 0.930 . S
H38 C16 0.929 . S
H39 C17 0.929 . S
La40 C42 2.928 . S
La40 O60 2.521 . S
La40 O61 2.628 . S
La40 O62 2.554 . S
La40 O63 2.757 1_565 S
La40 O64 2.470 . S
La40 O69 2.482 . S
La40 O71 2.503 1_565 S
La41 C51 2.928 . S
La41 O63 2.482 . S
La41 O65 2.503 1_545 S
La41 O66 2.521 . S
La41 O67 2.628 . S
La41 O68 2.554 . S
La41 O69 2.757 1_545 S
La41 O70 2.470 . S
C42 La40 2.928 . S
C42 C43 1.503 . S
C42 O60 1.261 . S
C42 O61 1.243 . S
C43 C42 1.503 . S
C43 C44 1.394 . S
C43 C48 1.373 . S
C44 C43 1.394 . S
C44 C45 1.380 . S
C44 H72 0.930 . S
C45 C44 1.380 . S
C45 C46 1.376 . S
C45 H73 0.930 . S
C46 C45 1.376 . S
C46 C47 1.370 . S
C47 C46 1.370 . S
C47 C48 1.396 . S
C47 H74 0.929 . S
C48 C43 1.373 . S
C48 C47 1.396 . S
C48 H75 0.929 . S
C49 O62 1.240 1_545 S
C49 O63 1.289 . S
C50 O64 1.258 . S
C50 O65 1.256 . S
C51 La41 2.928 . S
C51 C52 1.503 . S
C51 O66 1.261 . S
C51 O67 1.243 . S
C52 C51 1.503 . S
C52 C53 1.394 . S
C52 C57 1.373 . S
C53 C52 1.394 . S
C53 C54 1.380 . S
C53 H76 0.930 . S
C54 C53 1.380 . S
C54 C55 1.376 . S
C54 H77 0.930 . S
C55 C54 1.376 . S
C55 C56 1.370 . S
C56 C55 1.370 . S
C56 C57 1.396 . S
C56 H78 0.929 . S
C57 C52 1.373 . S
C57 C56 1.396 . S
C57 H79 0.929 . S
C58 O68 1.240 . S
C58 O69 1.289 1_545 S
C59 O70 1.258 . S
C59 O71 1.256 . S
O60 La40 2.521 . S
O60 C42 1.261 . S
O61 La40 2.628 . S
O61 C42 1.243 . S
O62 La40 2.554 . S
O62 C49 1.240 1_565 S
O63 La40 2.757 1_545 S
O63 La41 2.482 . S
O63 C49 1.289 . S
O64 La40 2.470 . S
O64 C50 1.258 . S
O65 La41 2.503 1_565 S
O65 C50 1.256 . S
O66 La41 2.521 . S
O66 C51 1.261 . S
O67 La41 2.628 . S
O67 C51 1.243 . S
O68 La41 2.554 . S
O68 C58 1.240 . S
O69 La40 2.482 . S
O69 La41 2.757 1_565 S
O69 C58 1.289 1_565 S
O70 La41 2.470 . S
O70 C59 1.258 . S
O71 La40 2.503 1_545 S
O71 C59 1.256 . S
H72 C44 0.930 . S
H73 C45 0.930 . S
H74 C47 0.929 . S
H75 C48 0.929 . S
H76 C53 0.930 . S
H77 C54 0.930 . S
H78 C56 0.929 . S
H79 C57 0.929 . S
La80 C82 2.928 . S
La80 O100 2.521 . S
La80 O101 2.628 . S
La80 O102 2.554 . S
La80 O103 2.757 . S
La80 O104 2.470 . S
La80 O109 2.482 . S
La80 O111 2.503 . S
La81 C91 2.928 . S
La81 O103 2.482 . S
La81 O105 2.503 . S
La81 O106 2.521 . S
La81 O107 2.628 . S
La81 O108 2.554 . S
La81 O109 2.757 . S
La81 O110 2.470 . S
C82 La80 2.928 . S
C82 C83 1.503 . S
C82 O100 1.261 . S
C82 O101 1.243 . S
C83 C82 1.503 . S
C83 C84 1.394 . S
C83 C88 1.373 . S
C84 C83 1.394 . S
C84 C85 1.380 . S
C84 H112 0.930 . S
C85 C84 1.380 . S
C85 C86 1.376 . S
C85 H113 0.930 . S
C86 C85 1.376 . S
C86 C87 1.370 . S
C87 C86 1.370 . S
C87 C88 1.396 . S
C87 H114 0.929 . S
C88 C83 1.373 . S
C88 C87 1.396 . S
C88 H115 0.929 . S
C89 O102 1.240 . S
C89 O103 1.289 . S
C90 O104 1.258 . S
C90 O105 1.256 . S
C91 La81 2.928 . S
C91 C92 1.503 . S
C91 O106 1.261 . S
C91 O107 1.243 . S
C92 C91 1.503 . S
C92 C93 1.394 . S
C92 C97 1.373 . S
C93 C92 1.394 . S
C93 C94 1.380 . S
C93 H116 0.930 . S
C94 C93 1.380 . S
C94 C95 1.376 . S
C94 H117 0.930 . S
C95 C94 1.376 . S
C95 C96 1.370 . S
C96 C95 1.370 . S
C96 C97 1.396 . S
C96 H118 0.929 . S
C97 C92 1.373 . S
C97 C96 1.396 . S
C97 H119 0.929 . S
C98 O108 1.240 . S
C98 O109 1.289 . S
C99 O110 1.258 . S
C99 O111 1.256 . S
O100 La80 2.521 . S
O100 C82 1.261 . S
O101 La80 2.628 . S
O101 C82 1.243 . S
O102 La80 2.554 . S
O102 C89 1.240 . S
O103 La80 2.757 . S
O103 La81 2.482 . S
O103 C89 1.289 . S
O104 La80 2.470 . S
O104 C90 1.258 . S
O105 La81 2.503 . S
O105 C90 1.256 . S
O106 La81 2.521 . S
O106 C91 1.261 . S
O107 La81 2.628 . S
O107 C91 1.243 . S
O108 La81 2.554 . S
O108 C98 1.240 . S
O109 La80 2.482 . S
O109 La81 2.757 . S
O109 C98 1.289 . S
O110 La81 2.470 . S
O110 C99 1.258 . S
O111 La80 2.503 . S
O111 C99 1.256 . S
H112 C84 0.930 . S
H113 C85 0.930 . S
H114 C87 0.929 . S
H115 C88 0.929 . S
H116 C93 0.930 . S
H117 C94 0.930 . S
H118 C96 0.929 . S
H119 C97 0.929 . S
C120 C121 1.264 . S
C120 C125 1.479 . S
C120 C130 1.465 . S
C121 C120 1.264 . S
C121 C123 1.339 . S
C121 H148 0.931 . S
C122 C123 1.395 . S
C122 C124 1.320 . S
C123 C121 1.339 . S
C123 C122 1.395 . S
C123 H149 0.929 . S
C124 C122 1.320 . S
C124 C125 1.405 . S
C124 H150 0.930 . S
C125 C120 1.479 . S
C125 C124 1.405 . S
C125 H151 0.931 . S
U126 O127 2.454 1_545 S
U126 O128 2.458 1_545 S
U126 C129 2.984 1_545 S
U126 C130 2.847 . S
U126 C143 2.882 . S
U126 O144 2.441 . S
U126 O145 2.420 . S
U126 O146 2.455 1_545 S
U126 O147 2.449 . S
O127 U126 2.454 1_565 S
O127 C129 1.353 . S
O128 U126 2.458 1_565 S
O128 C129 1.286 . S
C129 U126 2.984 1_565 S
C129 O127 1.353 . S
C129 O128 1.286 . S
C129 C131 1.363 . S
C130 C120 1.465 . S
C130 U126 2.847 . S
C130 O144 1.249 . S
C130 O145 1.202 . S
C131 C129 1.363 . S
C131 C133 1.408 . S
C131 C136 1.342 . S
C132 C133 1.310 . S
C132 C135 1.461 . S
C132 H152 0.932 . S
C133 C131 1.408 . S
C133 C132 1.310 . S
C133 H153 0.930 . S
C134 C135 1.474 . S
C134 C136 1.285 . S
C134 H154 0.929 . S
C135 C132 1.461 . S
C135 C134 1.474 . S
C136 C131 1.342 . S
C136 C134 1.285 . S
C136 H155 0.930 . S
C137 C140 1.424 . S
C137 C142 1.245 1_545 S
C137 C143 1.428 . S
C138 C141 1.260 1_565 S
C138 C142 1.477 . S
C138 H156 0.932 . S
C139 C140 1.384 . S
C139 C141 1.479 . S
C139 H157 0.929 . S
C140 C137 1.424 . S
C140 C139 1.384 . S
C140 H158 0.928 . S
C141 C138 1.260 1_545 S
C141 C139 1.479 . S
C142 C137 1.245 1_565 S
C142 C138 1.477 . S
C142 H159 0.932 . S
C143 U126 2.882 . S
C143 C137 1.428 . S
C143 O146 1.301 1_545 S
C143 O147 1.282 . S
O144 U126 2.441 . S
O144 C130 1.249 . S
O145 U126 2.420 . S
O145 C130 1.202 . S
O146 U126 2.455 1_565 S
O146 C143 1.301 1_565 S
O147 U126 2.449 . S
O147 C143 1.282 . S
H148 C121 0.931 . S
H149 C123 0.929 . S
H150 C124 0.930 . S
H151 C125 0.931 . S
H152 C132 0.932 . S
H153 C133 0.930 . S
H154 C134 0.929 . S
H155 C136 0.930 . S
H156 C138 0.932 . S
H157 C139 0.929 . S
H158 C140 0.928 . S
H159 C142 0.932 . S
C160 C161 1.264 . S
C160 C165 1.479 . S
C160 C170 1.465 . S
C161 C160 1.264 . S
C161 C163 1.339 . S
C161 H188 0.931 . S
C162 C163 1.395 . S
C162 C164 1.320 . S
C163 C161 1.339 . S
C163 C162 1.395 . S
C163 H189 0.929 . S
C164 C162 1.320 . S
C164 C165 1.405 . S
C164 H190 0.930 . S
C165 C160 1.479 . S
C165 C164 1.405 . S
C165 H191 0.931 . S
U166 O167 2.454 . S
U166 O168 2.458 . S
U166 C169 2.984 . S
U166 C170 2.847 . S
U166 C183 2.882 . S
U166 O184 2.441 . S
U166 O185 2.420 . S
U166 O186 2.455 . S
U166 O187 2.449 . S
O167 U166 2.454 . S
O167 C169 1.353 . S
O168 U166 2.458 . S
O168 C169 1.286 . S
C169 U166 2.984 . S
C169 O167 1.353 . S
C169 O168 1.286 . S
C169 C171 1.363 . S
C170 C160 1.465 . S
C170 U166 2.847 . S
C170 O184 1.249 . S
C170 O185 1.202 . S
C171 C169 1.363 . S
C171 C173 1.408 . S
C171 C176 1.342 . S
C172 C173 1.310 . S
C172 C175 1.461 . S
C172 H192 0.932 . S
C173 C171 1.408 . S
C173 C172 1.310 . S
C173 H193 0.930 . S
C174 C175 1.474 . S
C174 C176 1.285 . S
C174 H194 0.929 . S
C175 C172 1.461 . S
C175 C174 1.474 . S
C176 C171 1.342 . S
C176 C174 1.285 . S
C176 H195 0.930 . S
C177 C180 1.424 . S
C177 C182 1.245 . S
C177 C183 1.428 . S
C178 C181 1.260 . S
C178 C182 1.477 . S
C178 H196 0.932 . S
C179 C180 1.384 . S
C179 C181 1.479 . S
C179 H197 0.929 . S
C180 C177 1.424 . S
C180 C179 1.384 . S
C180 H198 0.928 . S
C181 C178 1.260 . S
C181 C179 1.479 . S
C182 C177 1.245 . S
C182 C178 1.477 . S
C182 H199 0.932 . S
C183 U166 2.882 . S
C183 C177 1.428 . S
C183 O186 1.301 . S
C183 O187 1.282 . S
O184 U166 2.441 . S
O184 C170 1.249 . S
O185 U166 2.420 . S
O185 C170 1.202 . S
O186 U166 2.455 . S
O186 C183 1.301 . S
O187 U166 2.449 . S
O187 C183 1.282 . S
H188 C161 0.931 . S
H189 C163 0.929 . S
H190 C164 0.930 . S
H191 C165 0.931 . S
H192 C172 0.932 . S
H193 C173 0.930 . S
H194 C174 0.929 . S
H195 C176 0.930 . S
H196 C178 0.932 . S
H197 C179 0.929 . S
H198 C180 0.928 . S
H199 C182 0.932 . S
C200 C201 1.264 . S
C200 C205 1.479 . S
C200 C210 1.465 . S
C201 C200 1.264 . S
C201 C203 1.339 . S
C201 H228 0.931 . S
C202 C203 1.395 . S
C202 C204 1.320 . S
C203 C201 1.339 . S
C203 C202 1.395 . S
C203 H229 0.929 . S
C204 C202 1.320 . S
C204 C205 1.405 . S
C204 H230 0.930 . S
C205 C200 1.479 . S
C205 C204 1.405 . S
C205 H231 0.931 . S
U206 O207 2.454 . S
U206 O208 2.458 . S
U206 C209 2.984 . S
U206 C210 2.847 1_455 S
U206 C223 2.882 . S
U206 O224 2.441 . S
U206 O225 2.420 1_455 S
U206 O226 2.455 . S
U206 O227 2.449 1_455 S
O207 U206 2.454 . S
O207 C209 1.353 . S
O208 U206 2.458 . S
O208 C209 1.286 . S
C209 U206 2.984 . S
C209 O207 1.353 . S
C209 O208 1.286 . S
C209 C211 1.363 . S
C210 C200 1.465 . S
C210 U206 2.847 1_655 S
C210 O224 1.249 1_655 S
C210 O225 1.202 . S
C211 C209 1.363 . S
C211 C213 1.408 . S
C211 C216 1.342 . S
C212 C213 1.310 . S
C212 C215 1.461 . S
C212 H232 0.932 . S
C213 C211 1.408 . S
C213 C212 1.310 . S
C213 H233 0.930 . S
C214 C215 1.474 . S
C214 C216 1.285 . S
C214 H234 0.929 . S
C215 C212 1.461 . S
C215 C214 1.474 . S
C216 C211 1.342 . S
C216 C214 1.285 . S
C216 H235 0.930 . S
C217 C220 1.424 . S
C217 C222 1.245 . S
C217 C223 1.428 . S
C218 C221 1.260 . S
C218 C222 1.477 . S
C218 H236 0.932 . S
C219 C220 1.384 . S
C219 C221 1.480 . S
C219 H237 0.927 1_455 S
C220 C217 1.424 . S
C220 C219 1.384 . S
C220 H238 0.928 1_455 S
C221 C218 1.260 . S
C221 C219 1.480 . S
C222 C217 1.245 . S
C222 C218 1.477 . S
C222 H239 0.932 . S
C223 U206 2.882 . S
C223 C217 1.428 . S
C223 O226 1.301 . S
C223 O227 1.282 1_455 S
O224 U206 2.441 . S
O224 C210 1.249 1_455 S
O225 U206 2.420 1_655 S
O225 C210 1.202 . S
O226 U206 2.455 . S
O226 C223 1.301 . S
O227 U206 2.449 1_655 S
O227 C223 1.282 1_655 S
H228 C201 0.931 . S
H229 C203 0.929 . S
H230 C204 0.930 . S
H231 C205 0.931 . S
H232 C212 0.932 . S
H233 C213 0.930 . S
H234 C214 0.929 . S
H235 C216 0.930 . S
H236 C218 0.932 . S
H237 C219 0.927 1_655 S
H238 C220 0.928 1_655 S
H239 C222 0.932 . S
C240 C241 1.264 . S
C240 C245 1.479 . S
C240 C250 1.465 . S
C241 C240 1.264 . S
C241 C243 1.339 . S
C241 H268 0.931 . S
C242 C243 1.395 . S
C242 C244 1.320 . S
C243 C241 1.339 . S
C243 C242 1.395 . S
C243 H269 0.929 . S
C244 C242 1.320 . S
C244 C245 1.405 . S
C244 H270 0.930 . S
C245 C240 1.479 . S
C245 C244 1.405 . S
C245 H271 0.931 . S
U246 O247 2.454 1_655 S
U246 O248 2.458 1_655 S
U246 C249 2.984 1_655 S
U246 C250 2.847 . S
U246 C263 2.882 . S
U246 O264 2.441 . S
U246 O265 2.420 . S
U246 O266 2.455 1_655 S
U246 O267 2.449 . S
O247 U246 2.454 1_455 S
O247 C249 1.353 . S
O248 U246 2.458 1_455 S
O248 C249 1.286 . S
C249 U246 2.984 1_455 S
C249 O247 1.353 . S
C249 O248 1.286 . S
C249 C251 1.363 . S
C250 C240 1.465 . S
C250 U246 2.847 . S
C250 O264 1.249 . S
C250 O265 1.202 . S
C251 C249 1.363 . S
C251 C253 1.408 . S
C251 C256 1.342 . S
C252 C253 1.310 . S
C252 C255 1.461 . S
C252 H272 0.932 . S
C253 C251 1.408 . S
C253 C252 1.310 . S
C253 H273 0.930 . S
C254 C255 1.474 . S
C254 C256 1.285 . S
C254 H274 0.929 . S
C255 C252 1.461 . S
C255 C254 1.474 . S
C256 C251 1.342 . S
C256 C254 1.285 . S
C256 H275 0.930 . S
C257 C260 1.424 . S
C257 C262 1.245 1_655 S
C257 C263 1.428 . S
C258 C261 1.260 1_455 S
C258 C262 1.477 . S
C258 H276 0.932 . S
C259 C260 1.384 . S
C259 C261 1.479 . S
C259 H277 0.929 . S
C260 C257 1.424 . S
C260 C259 1.384 . S
C260 H278 0.928 . S
C261 C258 1.260 1_655 S
C261 C259 1.479 . S
C262 C257 1.245 1_455 S
C262 C258 1.477 . S
C262 H279 0.932 . S
C263 U246 2.882 . S
C263 C257 1.428 . S
C263 O266 1.301 1_655 S
C263 O267 1.282 . S
O264 U246 2.441 . S
O264 C250 1.249 . S
O265 U246 2.420 . S
O265 C250 1.202 . S
O266 U246 2.455 1_455 S
O266 C263 1.301 1_455 S
O267 U246 2.449 . S
O267 C263 1.282 . S
H268 C241 0.931 . S
H269 C243 0.929 . S
H270 C244 0.930 . S
H271 C245 0.931 . S
H272 C252 0.932 . S
H273 C253 0.930 . S
H274 C254 0.929 . S
H275 C256 0.930 . S
H276 C258 0.932 . S
H277 C259 0.929 . S
H278 C260 0.928 . S
H279 C262 0.932 . S
C280 C281 1.264 . S
C280 C285 1.479 . S
C280 C290 1.465 . S
C281 C280 1.264 . S
C281 C283 1.339 . S
C281 H308 0.931 . S
C282 C283 1.395 . S
C282 C284 1.320 . S
C283 C281 1.339 . S
C283 C282 1.395 . S
C283 H309 0.929 . S
C284 C282 1.320 . S
C284 C285 1.405 . S
C284 H310 0.930 . S
C285 C280 1.479 . S
C285 C284 1.405 . S
C285 H311 0.931 . S
U286 O287 2.454 1_565 S
U286 O288 2.458 1_565 S
U286 C289 2.984 1_565 S
U286 C290 2.847 . S
U286 C303 2.882 . S
U286 O304 2.441 . S
U286 O305 2.420 . S
U286 O306 2.455 1_565 S
U286 O307 2.449 . S
O287 U286 2.454 1_545 S
O287 C289 1.353 . S
O288 U286 2.458 1_545 S
O288 C289 1.286 . S
C289 U286 2.984 1_545 S
C289 O287 1.353 . S
C289 O288 1.286 . S
C289 C291 1.363 . S
C290 C280 1.465 . S
C290 U286 2.847 . S
C290 O304 1.249 . S
C290 O305 1.202 . S
C291 C289 1.363 . S
C291 C293 1.408 . S
C291 C296 1.342 . S
C292 C293 1.310 . S
C292 C295 1.461 . S
C292 H312 0.932 . S
C293 C291 1.408 . S
C293 C292 1.310 . S
C293 H313 0.930 . S
C294 C295 1.474 . S
C294 C296 1.285 . S
C294 H314 0.929 . S
C295 C292 1.461 . S
C295 C294 1.474 . S
C296 C291 1.342 . S
C296 C294 1.285 . S
C296 H315 0.930 . S
C297 C300 1.424 . S
C297 C302 1.245 1_565 S
C297 C303 1.428 . S
C298 C301 1.260 1_545 S
C298 C302 1.477 . S
C298 H316 0.932 . S
C299 C300 1.384 . S
C299 C301 1.479 . S
C299 H317 0.929 . S
C300 C297 1.424 . S
C300 C299 1.384 . S
C300 H318 0.928 . S
C301 C298 1.260 1_565 S
C301 C299 1.479 . S
C302 C297 1.245 1_545 S
C302 C298 1.477 . S
C302 H319 0.932 . S
C303 U286 2.882 . S
C303 C297 1.428 . S
C303 O306 1.301 1_565 S
C303 O307 1.282 . S
O304 U286 2.441 . S
O304 C290 1.249 . S
O305 U286 2.420 . S
O305 C290 1.202 . S
O306 U286 2.455 1_545 S
O306 C303 1.301 1_545 S
O307 U286 2.449 . S
O307 C303 1.282 . S
H308 C281 0.931 . S
H309 C283 0.929 . S
H310 C284 0.930 . S
H311 C285 0.931 . S
H312 C292 0.932 . S
H313 C293 0.930 . S
H314 C294 0.929 . S
H315 C296 0.930 . S
H316 C298 0.932 . S
H317 C299 0.929 . S
H318 C300 0.928 . S
H319 C302 0.932 . S
C320 C321 1.264 . S
C320 C325 1.479 . S
C320 C330 1.465 . S
C321 C320 1.264 . S
C321 C323 1.339 . S
C321 H348 0.931 . S
C322 C323 1.395 . S
C322 C324 1.320 . S
C323 C321 1.339 . S
C323 C322 1.395 . S
C323 H349 0.929 . S
C324 C322 1.320 . S
C324 C325 1.405 . S
C324 H350 0.930 . S
C325 C320 1.479 . S
C325 C324 1.405 . S
C325 H351 0.931 . S
U326 O327 2.454 . S
U326 O328 2.458 . S
U326 C329 2.984 . S
U326 C330 2.847 . S
U326 C343 2.882 . S
U326 O344 2.441 . S
U326 O345 2.420 . S
U326 O346 2.455 . S
U326 O347 2.449 . S
O327 U326 2.454 . S
O327 C329 1.353 . S
O328 U326 2.458 . S
O328 C329 1.286 . S
C329 U326 2.984 . S
C329 O327 1.353 . S
C329 O328 1.286 . S
C329 C331 1.363 . S
C330 C320 1.465 . S
C330 U326 2.847 . S
C330 O344 1.249 . S
C330 O345 1.202 . S
C331 C329 1.363 . S
C331 C333 1.408 . S
C331 C336 1.342 . S
C332 C333 1.310 . S
C332 C335 1.461 . S
C332 H352 0.932 . S
C333 C331 1.408 . S
C333 C332 1.310 . S
C333 H353 0.930 . S
C334 C335 1.474 . S
C334 C336 1.285 . S
C334 H354 0.929 . S
C335 C332 1.461 . S
C335 C334 1.474 . S
C336 C331 1.342 . S
C336 C334 1.285 . S
C336 H355 0.930 . S
C337 C340 1.424 . S
C337 C342 1.245 . S
C337 C343 1.428 . S
C338 C341 1.260 1_554 S
C338 C342 1.477 . S
C338 H356 0.901 1_554 S
C339 C340 1.384 . S
C339 C341 1.479 1_554 S
C339 H357 0.929 . S
C340 C337 1.424 . S
C340 C339 1.384 . S
C340 H358 0.928 . S
C341 C338 1.260 1_556 S
C341 C339 1.479 1_556 S
C342 C337 1.245 . S
C342 C338 1.477 . S
C342 H359 0.932 . S
C343 U326 2.882 . S
C343 C337 1.428 . S
C343 O346 1.301 . S
C343 O347 1.282 . S
O344 U326 2.441 . S
O344 C330 1.249 . S
O345 U326 2.420 . S
O345 C330 1.202 . S
O346 U326 2.455 . S
O346 C343 1.301 . S
O347 U326 2.449 . S
O347 C343 1.282 . S
H348 C321 0.931 . S
H349 C323 0.929 . S
H350 C324 0.930 . S
H351 C325 0.931 . S
H352 C332 0.932 . S
H353 C333 0.930 . S
H354 C334 0.929 . S
H355 C336 0.930 . S
H356 C338 0.901 1_556 S
H357 C339 0.929 . S
H358 C340 0.928 . S
H359 C342 0.932 . S
H360 C366 0.930 . S
H361 C370 0.930 . S
H362 C375 0.929 . S
H363 C373 0.929 . S
H364 C368 0.929 . S
H365 C374 0.929 . S
C366 H360 0.930 . S
C366 C367 1.367 . S
C366 C374 1.378 . S
C367 C366 1.367 . S
C367 C375 1.433 . S
C368 H364 0.929 . S
C368 C370 1.378 . S
C368 C372 1.350 . S
C369 C372 1.463 . S
C369 C374 1.350 . S
C369 N377 1.427 . S
C370 H361 0.930 . S
C370 C368 1.378 . S
C370 C371 1.367 . S
C371 C370 1.367 . S
C371 C373 1.433 . S
C372 C368 1.350 . S
C372 C369 1.463 . S
C372 N376 1.427 . S
C373 H363 0.929 . S
C373 C371 1.433 . S
C373 N376 1.384 . S
C374 H365 0.929 . S
C374 C366 1.378 . S
C374 C369 1.350 . S
C375 H362 0.929 . S
C375 C367 1.433 . S
C375 N377 1.384 . S
N376 C372 1.427 . S
N376 C373 1.384 . S
N377 C369 1.427 . S
N377 C375 1.384 . S
H378 C384 0.930 . S
H379 C388 0.930 . S
H380 C393 0.929 . S
H381 C391 0.929 . S
H382 C386 0.929 . S
H383 C392 0.929 . S
C384 H378 0.930 . S
C384 C385 1.367 . S
C384 C392 1.378 . S
C385 C384 1.367 . S
C385 C393 1.433 . S
C386 H382 0.929 . S
C386 C388 1.378 . S
C386 C390 1.350 . S
C387 C390 1.463 . S
C387 C392 1.350 . S
C387 N395 1.427 . S
C388 H379 0.930 . S
C388 C386 1.378 . S
C388 C389 1.367 . S
C389 C388 1.367 . S
C389 C391 1.433 . S
C390 C386 1.350 . S
C390 C387 1.463 . S
C390 N394 1.427 . S
C391 H381 0.929 . S
C391 C389 1.433 . S
C391 N394 1.384 . S
C392 H383 0.929 . S
C392 C384 1.378 . S
C392 C387 1.350 . S
C393 H380 0.929 . S
C393 C385 1.433 . S
C393 N395 1.384 . S
N394 C390 1.427 . S
N394 C391 1.384 . S
N395 C387 1.427 . S
N395 C393 1.384 . S
H396 C402 0.930 . S
H397 C406 0.930 . S
H398 C411 0.929 . S
H399 C409 0.929 . S
H400 C404 0.929 . S
H401 C410 0.929 . S
C402 H396 0.930 . S
C402 C403 1.367 . S
C402 C410 1.378 . S
C403 C402 1.367 . S
C403 C411 1.433 . S
C404 H400 0.929 . S
C404 C406 1.378 . S
C404 C408 1.350 . S
C405 C408 1.463 . S
C405 C410 1.350 . S
C405 N413 1.427 . S
C406 H397 0.930 . S
C406 C404 1.378 . S
C406 C407 1.367 . S
C407 C406 1.367 . S
C407 C409 1.433 . S
C408 C404 1.350 . S
C408 C405 1.463 . S
C408 N412 1.427 . S
C409 H399 0.929 . S
C409 C407 1.433 . S
C409 N412 1.384 . S
C410 H401 0.929 . S
C410 C402 1.378 . S
C410 C405 1.350 . S
C411 H398 0.929 . S
C411 C403 1.433 . S
C411 N413 1.384 . S
N412 C408 1.427 . S
N412 C409 1.384 . S
N413 C405 1.427 . S
N413 C411 1.384 . S
H414 C420 0.930 . S
H415 C424 0.930 . S
H416 C429 0.929 . S
H417 C427 0.929 . S
H418 C422 0.929 . S
H419 C428 0.929 . S
C420 H414 0.930 . S
C420 C421 1.367 . S
C420 C428 1.378 . S
C421 C420 1.367 . S
C421 C429 1.433 . S
C422 H418 0.929 . S
C422 C424 1.378 . S
C422 C426 1.350 . S
C423 C426 1.463 . S
C423 C428 1.350 . S
C423 N431 1.427 . S
C424 H415 0.930 . S
C424 C422 1.378 . S
C424 C425 1.367 . S
C425 C424 1.367 . S
C425 C427 1.433 . S
C426 C422 1.350 . S
C426 C423 1.463 . S
C426 N430 1.427 . S
C427 H417 0.929 . S
C427 C425 1.433 . S
C427 N430 1.384 . S
C428 H419 0.929 . S
C428 C420 1.378 . S
C428 C423 1.350 . S
C429 H416 0.929 . S
C429 C421 1.433 . S
C429 N431 1.384 . S
N430 C426 1.427 . S
N430 C427 1.384 . S
N431 C423 1.427 . S
N431 C429 1.384 . S
H432 C438 0.930 . S
H433 C442 0.930 . S
H434 C447 0.929 . S
H435 C445 0.929 . S
H436 C440 0.929 . S
H437 C446 0.929 . S
C438 H432 0.930 . S
C438 C439 1.367 . S
C438 C446 1.378 . S
C439 C438 1.367 . S
C439 C447 1.433 . S
C440 H436 0.929 . S
C440 C442 1.378 . S
C440 C444 1.350 . S
C441 C444 1.463 . S
C441 C446 1.350 . S
C441 N449 1.427 . S
C442 H433 0.930 . S
C442 C440 1.378 . S
C442 C443 1.367 . S
C443 C442 1.367 . S
C443 C445 1.433 . S
C444 C440 1.350 . S
C444 C441 1.463 . S
C444 N448 1.427 . S
C445 H435 0.929 . S
C445 C443 1.433 . S
C445 N448 1.384 . S
C446 H437 0.929 . S
C446 C438 1.378 . S
C446 C441 1.350 . S
C447 H434 0.929 . S
C447 C439 1.433 . S
C447 N449 1.384 . S
N448 C444 1.427 . S
N448 C445 1.384 . S
N449 C441 1.427 . S
N449 C447 1.384 . S
H450 C456 0.930 . S
H451 C460 0.930 . S
H452 C465 0.929 . S
H453 C463 0.929 . S
H454 C458 0.929 . S
H455 C464 0.929 . S
C456 H450 0.930 . S
C456 C457 1.367 . S
C456 C464 1.378 . S
C457 C456 1.367 . S
C457 C465 1.433 . S
C458 H454 0.929 . S
C458 C460 1.378 . S
C458 C462 1.350 . S
C459 C462 1.463 . S
C459 C464 1.350 . S
C459 N467 1.427 . S
C460 H451 0.930 . S
C460 C458 1.378 . S
C460 C461 1.367 . S
C461 C460 1.367 . S
C461 C463 1.433 . S
C462 C458 1.350 . S
C462 C459 1.463 . S
C462 N466 1.427 . S
C463 H453 0.929 . S
C463 C461 1.433 . S
C463 N466 1.384 . S
C464 H455 0.929 . S
C464 C456 1.378 . S
C464 C459 1.350 . S
C465 H452 0.929 . S
C465 C457 1.433 . S
C465 N467 1.384 . S
N466 C462 1.427 . S
N466 C463 1.384 . S
N467 C459 1.427 . S
N467 C465 1.384 . S
H468 C474 0.930 . S
H469 C478 0.930 . S
H470 C483 0.929 . S
H471 C481 0.929 . S
H472 C476 0.929 . S
H473 C482 0.929 . S
C474 H468 0.930 . S
C474 C475 1.367 . S
C474 C482 1.378 . S
C475 C474 1.367 . S
C475 C483 1.433 . S
C476 H472 0.929 . S
C476 C478 1.378 . S
C476 C480 1.350 . S
C477 C480 1.463 . S
C477 C482 1.350 . S
C477 N485 1.427 . S
C478 H469 0.930 . S
C478 C476 1.378 . S
C478 C479 1.367 . S
C479 C478 1.367 . S
C479 C481 1.433 . S
C480 C476 1.350 . S
C480 C477 1.463 . S
C480 N484 1.427 . S
C481 H471 0.929 . S
C481 C479 1.433 . S
C481 N484 1.384 . S
C482 H473 0.929 . S
C482 C474 1.378 . S
C482 C477 1.350 . S
C483 H470 0.929 . S
C483 C475 1.433 . S
C483 N485 1.384 . S
N484 C480 1.427 . S
N484 C481 1.384 . S
N485 C477 1.427 . S
N485 C483 1.384 . S
H486 C492 0.930 . S
H487 C496 0.930 . S
H488 C501 0.929 . S
H489 C499 0.929 . S
H490 C494 0.929 . S
H491 C500 0.929 . S
C492 H486 0.930 . S
C492 C493 1.367 . S
C492 C500 1.378 . S
C493 C492 1.367 . S
C493 C501 1.433 . S
C494 H490 0.929 . S
C494 C496 1.378 . S
C494 C498 1.350 . S
C495 C498 1.463 . S
C495 C500 1.350 . S
C495 N503 1.427 . S
C496 H487 0.930 . S
C496 C494 1.378 . S
C496 C497 1.367 . S
C497 C496 1.367 . S
C497 C499 1.433 . S
C498 C494 1.350 . S
C498 C495 1.463 . S
C498 N502 1.427 . S
C499 H489 0.929 . S
C499 C497 1.433 . S
C499 N502 1.384 . S
C500 H491 0.929 . S
C500 C492 1.378 . S
C500 C495 1.350 . S
C501 H488 0.929 . S
C501 C493 1.433 . S
C501 N503 1.384 . S
N502 C498 1.427 . S
N502 C499 1.384 . S
N503 C495 1.427 . S
N503 C501 1.384 . S
H504 C510 0.930 . S
H505 C514 0.930 . S
H506 C519 0.929 . S
H507 C517 0.929 . S
H508 C512 0.929 . S
H509 C518 0.929 . S
C510 H504 0.930 . S
C510 C511 1.367 . S
C510 C518 1.378 . S
C511 C510 1.367 . S
C511 C519 1.433 . S
C512 H508 0.929 . S
C512 C514 1.378 . S
C512 C516 1.350 . S
C513 C516 1.463 . S
C513 C518 1.350 . S
C513 N521 1.427 . S
C514 H505 0.930 . S
C514 C512 1.378 . S
C514 C515 1.367 . S
C515 C514 1.367 . S
C515 C517 1.433 . S
C516 C512 1.350 . S
C516 C513 1.463 . S
C516 N520 1.427 . S
C517 H507 0.929 . S
C517 C515 1.433 . S
C517 N520 1.384 . S
C518 H509 0.929 . S
C518 C510 1.378 . S
C518 C513 1.350 . S
C519 H506 0.929 . S
C519 C511 1.433 . S
C519 N521 1.384 . S
N520 C516 1.427 . S
N520 C517 1.384 . S
N521 C513 1.427 . S
N521 C519 1.384 . S
H522 C528 0.930 . S
H523 C532 0.930 . S
H524 C537 0.929 . S
H525 C535 0.929 . S
H526 C530 0.929 . S
H527 C536 0.929 . S
C528 H522 0.930 . S
C528 C529 1.367 . S
C528 C536 1.378 . S
C529 C528 1.367 . S
C529 C537 1.433 . S
C530 H526 0.929 . S
C530 C532 1.378 . S
C530 C534 1.350 . S
C531 C534 1.463 . S
C531 C536 1.350 . S
C531 N539 1.427 . S
C532 H523 0.930 . S
C532 C530 1.378 . S
C532 C533 1.367 . S
C533 C532 1.367 . S
C533 C535 1.433 . S
C534 C530 1.350 . S
C534 C531 1.463 . S
C534 N538 1.427 . S
C535 H525 0.929 . S
C535 C533 1.433 . S
C535 N538 1.384 . S
C536 H527 0.929 . S
C536 C528 1.378 . S
C536 C531 1.350 . S
C537 H524 0.929 . S
C537 C529 1.433 . S
C537 N539 1.384 . S
N538 C534 1.427 . S
N538 C535 1.384 . S
N539 C531 1.427 . S
N539 C537 1.384 . S
H540 C546 0.930 . S
H541 C550 0.930 . S
H542 C555 0.929 . S
H543 C553 0.929 . S
H544 C548 0.929 . S
H545 C554 0.929 . S
C546 H540 0.930 . S
C546 C547 1.367 . S
C546 C554 1.378 . S
C547 C546 1.367 . S
C547 C555 1.433 . S
C548 H544 0.929 . S
C548 C550 1.378 . S
C548 C552 1.350 . S
C549 C552 1.463 . S
C549 C554 1.350 . S
C549 N557 1.427 . S
C550 H541 0.930 . S
C550 C548 1.378 . S
C550 C551 1.367 . S
C551 C550 1.367 . S
C551 C553 1.433 . S
C552 C548 1.350 . S
C552 C549 1.463 . S
C552 N556 1.427 . S
C553 H543 0.929 . S
C553 C551 1.433 . S
C553 N556 1.384 . S
C554 H545 0.929 . S
C554 C546 1.378 . S
C554 C549 1.350 . S
C555 H542 0.929 . S
C555 C547 1.433 . S
C555 N557 1.384 . S
N556 C552 1.427 . S
N556 C553 1.384 . S
N557 C549 1.427 . S
N557 C555 1.384 . S
H558 C564 0.930 . S
H559 C568 0.930 . S
H560 C573 0.929 . S
H561 C571 0.929 . S
H562 C566 0.929 . S
H563 C572 0.929 . S
C564 H558 0.930 . S
C564 C565 1.367 . S
C564 C572 1.378 . S
C565 C564 1.367 . S
C565 C573 1.433 . S
C566 H562 0.929 . S
C566 C568 1.378 . S
C566 C570 1.350 . S
C567 C570 1.463 . S
C567 C572 1.350 . S
C567 N575 1.427 . S
C568 H559 0.930 . S
C568 C566 1.378 . S
C568 C569 1.367 . S
C569 C568 1.367 . S
C569 C571 1.433 . S
C570 C566 1.350 . S
C570 C567 1.463 . S
C570 N574 1.427 . S
C571 H561 0.929 . S
C571 C569 1.433 . S
C571 N574 1.384 . S
C572 H563 0.929 . S
C572 C564 1.378 . S
C572 C567 1.350 . S
C573 H560 0.929 . S
C573 C565 1.433 . S
C573 N575 1.384 . S
N574 C570 1.427 . S
N574 C571 1.384 . S
N575 C567 1.427 . S
N575 C573 1.384 . S
H576 C582 0.930 . S
H577 C586 0.930 . S
H578 C591 0.929 . S
H579 C589 0.929 1_655 S
H580 C584 0.929 . S
H581 C590 0.929 . S
C582 H576 0.930 . S
C582 C583 1.367 1_655 S
C582 C590 1.378 . S
C583 C582 1.367 1_455 S
C583 C591 1.433 . S
C584 H580 0.929 . S
C584 C586 1.378 . S
C584 C588 1.350 . S
C585 C588 1.463 . S
C585 C590 1.350 1_455 S
C585 N593 1.427 . S
C586 H577 0.930 . S
C586 C584 1.378 . S
C586 C587 1.367 . S
C587 C586 1.367 . S
C587 C589 1.433 . S
C588 C584 1.350 . S
C588 C585 1.463 . S
C588 N592 1.422 1_455 S
C589 H579 0.929 1_455 S
C589 C587 1.433 . S
C589 N592 1.383 1_455 S
C590 H581 0.929 . S
C590 C582 1.378 . S
C590 C585 1.350 1_655 S
C591 H578 0.929 . S
C591 C583 1.433 . S
C591 N593 1.384 . S
N592 C588 1.422 1_655 S
N592 C589 1.383 1_655 S
N593 C585 1.427 . S
N593 C591 1.384 . S
H594 C600 0.930 . S
H595 C604 0.930 . S
H596 C609 0.929 . S
H597 C607 0.929 . S
H598 C602 0.929 . S
H599 C608 0.929 . S
C600 H594 0.930 . S
C600 C601 1.367 . S
C600 C608 1.378 . S
C601 C600 1.367 . S
C601 C609 1.433 1_545 S
C602 H598 0.929 . S
C602 C604 1.378 . S
C602 C606 1.350 1_565 S
C603 C606 1.463 . S
C603 C608 1.350 . S
C603 N611 1.427 1_545 S
C604 H595 0.930 . S
C604 C602 1.378 . S
C604 C605 1.367 1_565 S
C605 C604 1.367 1_545 S
C605 C607 1.433 . S
C606 C602 1.350 1_545 S
C606 C603 1.463 . S
C606 N610 1.427 . S
C607 H597 0.929 . S
C607 C605 1.433 . S
C607 N610 1.384 . S
C608 H599 0.929 . S
C608 C600 1.378 . S
C608 C603 1.350 . S
C609 H596 0.929 . S
C609 C601 1.433 1_565 S
C609 N611 1.384 . S
N610 C606 1.427 . S
N610 C607 1.384 . S
N611 C603 1.427 1_565 S
N611 C609 1.384 . S
H612 C618 0.930 . S
H613 C622 0.930 . S
H614 C627 0.929 . S
H615 C625 0.929 . S
H616 C620 0.929 . S
H617 C626 0.929 . S
C618 H612 0.930 . S
C618 C619 1.367 . S
C618 C626 1.378 . S
C619 C618 1.367 . S
C619 C627 1.433 . S
C620 H616 0.929 . S
C620 C622 1.378 . S
C620 C624 1.350 . S
C621 C624 1.463 . S
C621 C626 1.350 . S
C621 N629 1.427 . S
C622 H613 0.930 . S
C622 C620 1.378 . S
C622 C623 1.367 . S
C623 C622 1.367 . S
C623 C625 1.433 . S
C624 C620 1.350 . S
C624 C621 1.463 . S
C624 N628 1.427 . S
C625 H615 0.929 . S
C625 C623 1.433 . S
C625 N628 1.384 . S
C626 H617 0.929 . S
C626 C618 1.378 . S
C626 C621 1.350 . S
C627 H614 0.929 . S
C627 C619 1.433 . S
C627 N629 1.384 . S
N628 C624 1.427 . S
N628 C625 1.384 . S
N629 C621 1.427 . S
N629 C627 1.384 . S
H630 C636 0.930 . S
H631 C640 0.930 . S
H632 C645 0.929 . S
H633 C643 0.929 . S
H634 C638 0.929 . S
H635 C644 0.929 . S
C636 H630 0.930 . S
C636 C637 1.367 . S
C636 C644 1.378 . S
C637 C636 1.367 . S
C637 C645 1.433 1_545 S
C638 H634 0.929 . S
C638 C640 1.378 . S
C638 C642 1.350 . S
C639 C642 1.463 1_545 S
C639 C644 1.350 . S
C639 N647 1.427 1_545 S
C640 H631 0.930 . S
C640 C638 1.378 . S
C640 C641 1.367 . S
C641 C640 1.367 . S
C641 C643 1.433 1_565 S
C642 C638 1.350 . S
C642 C639 1.463 1_565 S
C642 N646 1.427 1_565 S
C643 H633 0.929 . S
C643 C641 1.433 1_545 S
C643 N646 1.384 . S
C644 H635 0.929 . S
C644 C636 1.378 . S
C644 C639 1.350 . S
C645 H632 0.929 . S
C645 C637 1.433 1_565 S
C645 N647 1.384 . S
N646 C642 1.427 1_545 S
N646 C643 1.384 . S
N647 C639 1.427 1_565 S
N647 C645 1.384 . S
H648 C654 0.930 . S
H649 C658 0.930 . S
H650 C663 0.929 . S
H651 C661 0.929 . S
H652 C656 0.929 . S
H653 C662 0.929 . S
C654 H648 0.930 . S
C654 C655 1.367 . S
C654 C662 1.378 . S
C655 C654 1.367 . S
C655 C663 1.433 . S
C656 H652 0.929 . S
C656 C658 1.378 . S
C656 C660 1.350 . S
C657 C660 1.463 . S
C657 C662 1.350 . S
C657 N665 1.427 . S
C658 H649 0.930 . S
C658 C656 1.378 . S
C658 C659 1.367 . S
C659 C658 1.367 . S
C659 C661 1.433 . S
C660 C656 1.350 . S
C660 C657 1.463 . S
C660 N664 1.427 . S
C661 H651 0.929 . S
C661 C659 1.433 . S
C661 N664 1.384 . S
C662 H653 0.929 . S
C662 C654 1.378 . S
C662 C657 1.350 . S
C663 H650 0.929 . S
C663 C655 1.433 . S
C663 N665 1.384 . S
N664 C660 1.427 . S
N664 C661 1.384 . S
N665 C657 1.427 . S
N665 C663 1.384 . S
H666 C672 0.930 . S
H667 C676 0.930 . S
H668 C681 0.929 . S
H669 C679 0.929 . S
H670 C674 0.929 . S
H671 C680 0.929 . S
C672 H666 0.930 . S
C672 C673 1.367 1_655 S
C672 C680 1.378 . S
C673 C672 1.367 1_455 S
C673 C681 1.433 . S
C674 H670 0.929 . S
C674 C676 1.378 . S
C674 C678 1.350 . S
C675 C678 1.463 . S
C675 C680 1.350 1_455 S
C675 N683 1.427 . S
C676 H667 0.930 . S
C676 C674 1.378 . S
C676 C677 1.367 1_455 S
C677 C676 1.367 1_655 S
C677 C679 1.433 . S
C678 C674 1.350 . S
C678 C675 1.463 . S
C678 N682 1.427 1_455 S
C679 H669 0.929 . S
C679 C677 1.433 . S
C679 N682 1.384 . S
C680 H671 0.929 . S
C680 C672 1.378 . S
C680 C675 1.350 1_655 S
C681 H668 0.929 . S
C681 C673 1.433 . S
C681 N683 1.384 . S
N682 C678 1.427 1_655 S
N682 C679 1.384 . S
N683 C675 1.427 . S
N683 C681 1.384 . S
C367 C6 0.550 . S
C371 C335 0.535 . S
C385 C59 1.966 . S
C389 C242 1.950 . S
C403 C86 1.213 . S
C407 C282 1.213 . S
C421 C15 0.350 . S
C425 C322 0.277 . S
C443 C255 2.068 . S
C439 C50 2.119 . S
C461 C295 1.311 . S
C457 C95 1.323 . S
C475 C46 1.188 . S
C479 C162 1.177 . S
C493 C99 3.168 . S
C497 C202 3.139 . S
C511 C10 2.147 . S
C515 C135 2.103 . S
C533 C175 1.305 . S
C529 C55 1.296 . S
C551 C215 3.044 . S
C547 C90 3.090 . S
C565 C19 1.959 . S
C569 C122 1.948 . S
C587 C221 1.760 1_554 S
C583 C18 1.701 . S
C601 C49 1.344 . S
C605 C141 1.381 . S
C619 C98 1.450 . S
C623 C181 1.508 . S
C641 C301 1.491 . S
C637 C58 1.438 . S
C659 C341 1.112 . S
C655 C89 1.099 . S
C673 C9 1.340 . S
C677 C261 1.371 . S
