# Generated by pormake.
# Topology nia, (6,6)-cn, num edge types: 1
# Building blocks:
#     Node 0, Type 0, BuildingBlock: JUFBIX_clean_sbu_0, # of connection points: 6
#     Node 1, Type 0, BuildingBlock: JUFBIX_clean_sbu_0, # of connection points: 6
#     Node 2, Type 1, BuildingBlock: MIDCAF_clean_sbu_0, # of connection points: 6
#     Node 3, Type 1, BuildingBlock: MIDCAF_clean_sbu_0, # of connection points: 6
#     Edge 4, Type (0, 1), BuildingBlock: FUNLAD_clean_linker_0, # of connection points: 2
#     Edge 5, Type (0, 1), BuildingBlock: FUNLAD_clean_linker_0, # of connection points: 2
#     Edge 6, Type (0, 1), BuildingBlock: FUNLAD_clean_linker_0, # of connection points: 2
#     Edge 7, Type (0, 1), BuildingBlock: FUNLAD_clean_linker_0, # of connection points: 2
#     Edge 8, Type (0, 1), BuildingBlock: FUNLAD_clean_linker_0, # of connection points: 2
#     Edge 9, Type (0, 1), BuildingBlock: FUNLAD_clean_linker_0, # of connection points: 2
#     Edge 10, Type (0, 1), BuildingBlock: FUNLAD_clean_linker_0, # of connection points: 2
#     Edge 11, Type (0, 1), BuildingBlock: FUNLAD_clean_linker_0, # of connection points: 2
#     Edge 12, Type (0, 1), BuildingBlock: FUNLAD_clean_linker_0, # of connection points: 2
#     Edge 13, Type (0, 1), BuildingBlock: FUNLAD_clean_linker_0, # of connection points: 2
#     Edge 14, Type (0, 1), BuildingBlock: FUNLAD_clean_linker_0, # of connection points: 2
#     Edge 15, Type (0, 1), BuildingBlock: FUNLAD_clean_linker_0, # of connection points: 2
# Relax obj value: 0.143
# Max RMSD: 0.237
# Mean RMSD: 0.152
data_MOF--net-nia--node1-JUFBIX_clean_sbu_0--node2-MIDCAF_clean_sbu_0--edge1-FUNLAD_clean_linker_0
_symmetry_space_group_name_H-M    P1
_symmetry_Int_Tables_number       1
_symmetry_cell_setting            triclinic
loop_
_symmetry_equiv_pos_as_xyz
'x, y, z'
_cell_length_a     27.114718
_cell_length_b     27.188223
_cell_length_c     39.997176
_cell_angle_alpha  85.868649
_cell_angle_beta   86.030595
_cell_angle_gamma 121.12598
loop_
_atom_site_label
_atom_site_type_symbol
_atom_site_fract_x
_atom_site_fract_y
_atom_site_fract_z
_atom_type_partial_charge
Co0 Co 0.98657 0.96831 1.01563 0.0
C1 C 0.91362 0.97011 0.06964 0.0
Co2 Co 0.02208 0.04866 0.03978 0.0
C3 C 0.96544 0.87239 0.97688 0.0
C4 C 0.88871 0.87002 0.99651 0.0
N5 N 0.94684 0.89947 0.99664 0.0
N6 N 0.9209 0.82716 0.96474 0.0
C7 C 0.8728 0.8259 0.97725 0.0
H8 H 0.01072 0.88671 0.97066 0.0
H9 H 0.85957 0.88173 1.008 0.0
C10 C 0.09565 0.04698 0.98625 0.0
N11 N 0.06005 0.11829 0.05772 0.0
C12 C 0.0644 0.12908 0.09022 0.0
C13 C 0.09421 0.17057 0.03917 0.0
N14 N 0.10072 0.18595 0.09245 0.0
C15 C 0.11941 0.21207 0.0604 0.0
C16 C 0.04245 0.96498 0.06948 0.0
O17 O 0.05363 -0.00354 0.98361 0.0
O18 O 0.08987 0.07467 1.00894 0.0
O19 O 0.04971 0.01487 0.07153 0.0
O20 O 0.01632 0.93676 0.04582 0.0
O21 O 0.95399 0.02212 0.07062 0.0
H22 H 0.10129 0.17788 1.01186 0.0
H23 H 0.04295 0.09579 0.11174 0.0
O24 O 0.92065 0.94135 0.04821 0.0
O25 O 0.95681 -0.0002 0.98564 0.0
O26 O -0.00633 0.08116 1.00766 0.0
C27 C 0.96484 0.05 0.9857 0.0
H28 H 0.82926 0.79731 0.97133 0.0
H29 H 0.14925 0.25802 0.05289 0.0
Co30 Co 0.03933 0.02608 0.53497 0.0
C31 C 0.03818 0.09282 0.47835 0.0
Co32 Co 0.9572 0.98614 0.51227 0.0
C33 C 0.13327 0.04421 0.57429 0.0
C34 C 0.14062 0.1228 0.55336 0.0
N35 N 0.10871 0.06475 0.55363 0.0
N36 N 0.17845 0.08727 0.58715 0.0
C37 C 0.18337 0.13667 0.57376 0.0
H38 H 0.11637 -0.00139 0.58136 0.0
H39 H 0.13162 0.15323 0.54062 0.0
C40 C 0.95859 0.91887 0.56847 0.0
N41 N 0.88746 0.9497 0.49449 0.0
C42 C 0.878 0.94513 0.46182 0.0
C43 C 0.83424 0.92492 0.51211 0.0
N44 N 0.821 0.91922 0.45844 0.0
C45 C 0.79334 0.90641 0.49001 0.0
C46 C 0.03763 0.96094 0.48476 0.0
O47 O 0.01 0.96138 0.56845 0.0
O48 O 0.92832 0.92108 0.54614 0.0
O49 O 0.98697 0.95225 0.48356 0.0
O50 O 0.06876 0.99217 0.50609 0.0
O51 O 0.98632 0.05118 0.47852 0.0
H52 H 0.82583 0.92156 0.53927 0.0
H53 H 0.91232 0.9622 0.44088 0.0
O54 O 0.06778 0.09001 0.50083 0.0
O55 O 0.00946 0.05974 0.56377 0.0
O56 O 0.92841 0.02074 0.54104 0.0
C57 C 0.95928 0.05175 0.56236 0.0
H58 H 0.21472 0.17976 0.5791 0.0
H59 H 0.74685 0.88528 0.49659 0.0
Zn60 Zn 0.29734 0.69249 0.20867 0.0
Zn61 Zn 0.32605 0.69063 0.33913 0.0
Zn62 Zn 0.31069 0.69366 0.27493 0.0
C63 C 0.43539 0.7448 0.3041 0.0
C64 C 0.25488 0.57665 0.32907 0.0
O65 O 0.26513 0.74006 0.26411 0.0
O66 O 0.26034 0.73917 0.209 0.0
C67 C 0.4165 0.74926 0.21339 0.0
O68 O 0.40558 0.73967 0.27939 0.0
O69 O 0.41046 0.72371 0.3338 0.0
O70 O 0.27626 0.60652 0.35273 0.0
O71 O 0.26396 0.60157 0.29867 0.0
O72 O 0.3815 0.73038 0.19165 0.0
O73 O 0.39754 0.7403 0.24505 0.0
O74 O 0.26009 0.60215 0.26395 0.0
O75 O 0.24629 0.60757 0.21016 0.0
C76 C 0.23848 0.57754 0.23779 0.0
O77 O 0.27327 0.74046 0.29827 0.0
O78 O 0.29791 0.74272 0.35002 0.0
C79 C 0.25024 0.75371 0.23671 0.0
C80 C 0.27518 0.75701 0.32779 0.0
Zn81 Zn 0.68786 0.31792 0.83416 0.0
Zn82 Zn 0.69624 0.32296 0.70914 0.0
Zn83 Zn 0.69404 0.32054 0.77194 0.0
C84 C 0.72757 0.43278 0.72031 0.0
C85 C 0.58443 0.24069 0.73331 0.0
O86 O 0.74134 0.27949 0.79064 0.0
O87 O 0.70518 0.25669 0.84451 0.0
C88 C 0.76239 0.43214 0.80993 0.0
O89 O 0.73151 0.41196 0.74932 0.0
O90 O 0.70625 0.40009 0.6978 0.0
O91 O 0.61887 0.25351 0.70681 0.0
O92 O 0.60379 0.26515 0.75986 0.0
O93 O 0.75172 0.39838 0.83639 0.0
O94 O 0.73946 0.41155 0.7832 0.0
O95 O 0.60079 0.27088 0.79415 0.0
O96 O 0.60682 0.29801 0.84519 0.0
C97 C 0.57623 0.27168 0.82273 0.0
O98 O 0.7479 0.28516 0.75486 0.0
O99 O 0.7645 0.31547 0.70026 0.0
C100 C 0.73578 0.254 0.82033 0.0
C101 C 0.77414 0.29193 0.72523 0.0
C102 C 0.08763 0.96695 0.12272 0.0
C103 C 0.06214 0.93872 0.09496 0.0
C104 C 0.10421 0.9406 0.14722 0.0
C105 C 0.09575 0.88548 0.14429 0.0
C106 C 0.0702 0.85757 0.11654 0.0
C107 C 0.05376 0.88378 0.09218 0.0
C108 C 0.11231 0.85474 0.16917 0.0
C109 C 0.14846 0.87943 0.19255 0.0
C110 C 0.17003 0.84749 0.21241 0.0
C111 C 0.22781 0.87729 0.21955 0.0
C112 C 0.25306 0.84662 0.23129 0.0
C113 C 0.22049 0.78592 0.23645 0.0
H114 H 0.09065 0.76278 0.21738 0.0
C115 C 0.1613 0.75645 0.23273 0.0
C116 C 0.136 0.78698 0.2212 0.0
H117 H 0.13559 0.70953 0.23648 0.0
H118 H 0.09424 0.00915 0.12574 0.0
H119 H 0.12275 0.9633 0.16845 0.0
H120 H 0.06301 0.81513 0.11353 0.0
H121 H 0.03412 0.86063 0.07123 0.0
H122 H 0.09713 0.8099 0.16611 0.0
H123 H 0.16827 0.92535 0.19427 0.0
H124 H 0.25476 0.92393 0.21348 0.0
H125 H 0.29905 0.87001 0.23367 0.0
C126 C 0.23081 0.1214 0.63642 0.0
C127 C 0.21181 0.08254 0.61223 0.0
C128 C 0.26852 0.12179 0.65852 0.0
C129 C 0.28818 0.08308 0.65698 0.0
C130 C 0.26731 0.04262 0.63364 0.0
C131 C 0.22895 0.04192 0.61167 0.0
C132 C 0.33633 0.08969 0.67572 0.0
C133 C 0.34917 0.11543 0.70418 0.0
C134 C 0.40649 0.13891 0.71703 0.0
C135 C 0.4244 0.18404 0.7373 0.0
C136 C 0.48174 0.21517 0.74458 0.0
C137 C 0.52193 0.20117 0.73208 0.0
H138 H 0.43357 0.0862 0.69247 0.0
C139 C 0.50315 0.15342 0.71404 0.0
C140 C 0.44585 0.1221 0.70689 0.0
H141 H 0.53345 0.14159 0.70438 0.0
H142 H 0.21762 0.15268 0.63768 0.0
H143 H 0.28453 0.15475 0.67534 0.0
H144 H 0.28223 0.01275 0.63165 0.0
H145 H 0.21499 0.01167 0.59317 0.0
H146 H 0.36473 0.07753 0.66354 0.0
H147 H 0.31935 0.12595 0.7164 0.0
H148 H 0.39503 0.19773 0.74574 0.0
H149 H 0.49546 0.25241 0.75809 0.0
C150 C 0.07663 0.20111 0.15009 0.0
C151 C 0.11781 0.21423 0.12226 0.0
C152 C 0.09227 0.23502 0.17677 0.0
C153 C 0.14961 0.28205 0.1761 0.0
C154 C 0.19141 0.29203 0.14944 0.0
C155 C 0.17557 0.25895 0.12265 0.0
C156 C 0.16688 0.32483 0.20077 0.0
C157 C 0.13097 0.3409 0.21387 0.0
C158 C 0.1534 0.39759 0.22694 0.0
C159 C 0.12728 0.42925 0.21891 0.0
C160 C 0.15354 0.48718 0.22432 0.0
C161 C 0.20552 0.51409 0.23882 0.0
H162 H 0.22375 0.39956 0.25095 0.0
C163 C 0.22918 0.48128 0.24966 0.0
C164 C 0.20338 0.42334 0.24367 0.0
H165 H 0.2693 0.50131 0.26092 0.0
H166 H 0.03188 0.16662 0.15035 0.0
H167 H 0.05925 0.22526 0.19737 0.0
H168 H 0.23594 0.32759 0.14839 0.0
H169 H 0.20823 0.26926 0.10169 0.0
H170 H 0.21294 0.35111 0.20306 0.0
H171 H 0.08602 0.31807 0.20887 0.0
H172 H 0.08862 0.4104 0.20623 0.0
H173 H 0.13452 0.51174 0.21585 0.0
C174 C 0.96465 0.10165 0.6135 0.0
C175 C 0.93765 0.07916 0.58482 0.0
C176 C 0.9454 0.12951 0.63401 0.0
C177 C 0.89928 0.13596 0.62591 0.0
C178 C 0.87216 0.11314 0.59742 0.0
C179 C 0.89065 0.08443 0.57729 0.0
C180 C 0.88143 0.17029 0.64475 0.0
C181 C 0.88437 0.17488 0.67797 0.0
C182 C 0.86484 0.21008 0.69439 0.0
C183 C 0.82643 0.18728 0.72452 0.0
C184 C 0.79946 0.21601 0.73645 0.0
C185 C 0.81158 0.26828 0.71862 0.0
H186 H 0.91126 0.28393 0.65555 0.0
C187 C 0.85415 0.29343 0.69032 0.0
C188 C 0.88051 0.26468 0.67833 0.0
H189 H 0.86483 0.33403 0.6763 0.0
H190 H 0.00098 0.09817 0.61993 0.0
H191 H 0.96796 0.14768 0.65542 0.0
H192 H 0.83679 0.11796 0.59053 0.0
H193 H 0.86909 0.06771 0.55533 0.0
H194 H 0.86284 0.19122 0.63069 0.0
H195 H 0.89688 0.14961 0.69347 0.0
H196 H 0.81417 0.1454 0.73744 0.0
H197 H 0.76625 0.1953 0.75804 0.0
C198 C 0.84292 0.9739 0.11227 0.0
C199 C 0.85854 0.94202 0.09268 0.0
C200 C 0.78885 0.94631 0.13237 0.0
C201 C 0.74969 0.88621 0.13331 0.0
C202 C 0.76658 0.8545 0.11459 0.0
C203 C 0.81998 0.88194 0.09445 0.0
C204 C 0.69023 0.85417 0.15226 0.0
C205 C 0.66155 0.87876 0.1643 0.0
C206 C 0.59893 0.84372 0.17798 0.0
C207 C 0.57672 0.864 0.20256 0.0
C208 C 0.51737 0.83283 0.21454 0.0
C209 C 0.47931 0.78108 0.20203 0.0
H210 H 0.57516 0.77627 0.1452 0.0
C211 C 0.50115 0.7613 0.17705 0.0
C212 C 0.56029 0.79216 0.16515 0.0
H213 H 0.47236 0.72198 0.16658 0.0
H214 H 0.87195 0.02022 0.11159 0.0
H215 H 0.77824 0.97232 0.14692 0.0
H216 H 0.73769 0.80821 0.11488 0.0
H217 H 0.83074 0.85582 0.07999 0.0
H218 H 0.66759 0.8072 0.1547 0.0
H219 H 0.68328 0.9254 0.16351 0.0
H220 H 0.60521 0.90418 0.21234 0.0
H221 H 0.50081 0.85008 0.23267 0.0
C222 C 0.87677 0.82109 0.59469 0.0
C223 C 0.93462 0.86675 0.59362 0.0
C224 C 0.85469 0.77068 0.61727 0.0
C225 C 0.88992 0.7648 0.63952 0.0
C226 C 0.94763 0.81062 0.63858 0.0
C227 C 0.96968 0.86123 0.61605 0.0
C228 C 0.86931 0.70976 0.66176 0.0
C229 C 0.81276 0.67124 0.67249 0.0
C230 C 0.79047 0.6114 0.68868 0.0
C231 C 0.73454 0.56779 0.68351 0.0
C232 C 0.71361 0.50992 0.69489 0.0
C233 C 0.74757 0.49448 0.71248 0.0
H234 H 0.86649 0.62882 0.71277 0.0
C235 C 0.80237 0.53805 0.71931 0.0
C236 C 0.82379 0.59622 0.7075 0.0
H237 H 0.82945 0.52695 0.73262 0.0
H238 H 0.84867 0.82378 0.57763 0.0
H239 H 0.81064 0.73578 0.61622 0.0
H240 H 0.97594 0.80703 0.6551 0.0
H241 H 0.01454 0.89553 0.6158 0.0
H242 H 0.90184 0.69986 0.66797 0.0
H243 H 0.78055 0.68174 0.6665 0.0
H244 H 0.7078 0.57823 0.66931 0.0
H245 H 0.67116 0.47696 0.68934 0.0
C246 C 0.11815 0.94974 0.46 0.0
C247 C 0.06059 0.9363 0.46084 0.0
C248 C 0.14028 0.92753 0.43698 0.0
C249 C 0.10539 0.89149 0.41408 0.0
C250 C 0.0476 0.87731 0.41528 0.0
C251 C 0.02551 0.8998 0.43822 0.0
C252 C 0.12701 0.86501 0.39043 0.0
C253 C 0.1836 0.89002 0.37871 0.0
C254 C 0.20781 0.85919 0.36147 0.0
C255 C 0.26308 0.87175 0.3678 0.0
C256 C 0.28538 0.8395 0.35572 0.0
C257 C 0.25361 0.79498 0.3362 0.0
H258 H 0.13466 0.80665 0.33453 0.0
C259 C 0.19997 0.78473 0.32773 0.0
C260 C 0.17685 0.81633 0.34056 0.0
H261 H 0.17481 0.7506 0.31266 0.0
H262 H 0.14622 0.97737 0.47721 0.0
H263 H 0.18432 0.93767 0.43787 0.0
H264 H 0.01953 0.84895 0.39832 0.0
H265 H 0.98086 0.88842 0.43826 0.0
H266 H 0.09562 0.82269 0.38384 0.0
H267 H 0.21463 0.9326 0.38513 0.0
H268 H 0.28803 0.90485 0.38353 0.0
H269 H 0.32716 0.84857 0.36229 0.0
C270 C 0.16028 0.04659 0.93771 0.0
C271 C 0.1513 0.07439 0.96371 0.0
C272 C 0.21389 0.07362 0.9171 0.0
C273 C 0.25937 0.12893 0.92227 0.0
C274 C 0.24986 0.15635 0.94817 0.0
C275 C 0.19672 0.12969 0.96849 0.0
C276 C 0.31823 0.15976 0.90263 0.0
C277 C 0.33312 0.14645 0.87326 0.0
C278 C 0.39388 0.18081 0.85599 0.0
C279 C 0.41725 0.15348 0.83791 0.0
C280 C 0.47641 0.18378 0.82524 0.0
C281 C 0.51267 0.24191 0.83027 0.0
H282 H 0.4128 0.26372 0.87083 0.0
C283 C 0.48856 0.27015 0.84634 0.0
C284 C 0.42971 0.24027 0.85861 0.0
H285 H 0.51565 0.3152 0.85012 0.0
H286 H 0.12611 0.0039 0.93344 0.0
H287 H 0.21957 0.05057 0.89775 0.0
H288 H 0.2839 0.19885 0.95285 0.0
H289 H 0.19155 0.15259 0.98819 0.0
H290 H 0.35166 0.19619 0.9135 0.0
H291 H 0.30164 0.10889 0.86235 0.0
H292 H 0.39043 0.10801 0.835 0.0
H293 H 0.49429 0.16114 0.81298 0.0
C294 C 0.0313 0.15582 0.43183 0.0
C295 C 0.06498 0.14391 0.45227 0.0
C296 C 0.05766 0.20597 0.40829 0.0
C297 C 0.11826 0.24459 0.40464 0.0
C298 C 0.15171 0.23122 0.42425 0.0
C299 C 0.12548 0.18189 0.44793 0.0
C300 C 0.14904 0.30055 0.38211 0.0
C301 C 0.12443 0.3303 0.37179 0.0
C302 C 0.16024 0.39268 0.35788 0.0
C303 C 0.13855 0.41714 0.33552 0.0
C304 C 0.16998 0.47701 0.32491 0.0
C305 C 0.22315 0.51312 0.33686 0.0
H306 H 0.23112 0.41283 0.38769 0.0
C307 C 0.24478 0.48863 0.35903 0.0
C308 C 0.21385 0.4293 0.36942 0.0
H309 H 0.2854 0.5157 0.3689 0.0
H310 H 0.98458 0.12702 0.43444 0.0
H311 H 0.03048 0.21413 0.39317 0.0
H312 H 0.19845 0.25998 0.42195 0.0
H313 H 0.15282 0.17372 0.46298 0.0
H314 H 0.19583 0.32103 0.37664 0.0
H315 H 0.07768 0.31058 0.37582 0.0
H316 H 0.09693 0.39007 0.3267 0.0
H317 H 0.15188 0.49523 0.30838 0.0
C318 C 0.95422 0.12806 0.95545 0.0
C319 C 0.93959 0.07014 0.96046 0.0
C320 C 0.92888 0.14548 0.9316 0.0
C321 C 0.88824 0.10504 0.91256 0.0
C322 C 0.87406 0.04746 0.91757 0.0
C323 C 0.89967 0.03028 0.94098 0.0
C324 C 0.85529 0.1195 0.88986 0.0
C325 C 0.87503 0.17284 0.87398 0.0
C326 C 0.8371 0.18716 0.85586 0.0
C327 C 0.86181 0.23388 0.82987 0.0
C328 C 0.82769 0.25298 0.81585 0.0
C329 C 0.76859 0.22609 0.82808 0.0
H330 H 0.75657 0.12336 0.88716 0.0
C331 C 0.74342 0.17785 0.85291 0.0
C332 C 0.77714 0.15848 0.86662 0.0
H333 H 0.69805 0.15685 0.86302 0.0
H334 H 0.98481 0.15972 0.97009 0.0
H335 H 0.93968 0.18997 0.929 0.0
H336 H 0.84246 0.01534 0.90355 0.0
H337 H 0.88721 0.98524 0.9442 0.0
H338 H 0.8126 0.08412 0.88613 0.0
H339 H 0.91966 0.20726 0.87476 0.0
H340 H 0.90793 0.25694 0.82127 0.0
H341 H 0.84825 0.29094 0.79711 0.0
C342 C 0.74706 0.91587 0.42484 0.0
C343 C 0.79458 0.90919 0.42772 0.0
C344 C 0.71801 0.90187 0.39633 0.0
C345 C 0.73562 0.88039 0.37004 0.0
C346 C 0.7839 0.87471 0.37262 0.0
C347 C 0.81372 0.88979 0.40104 0.0
C348 C 0.69932 0.85672 0.34236 0.0
C349 C 0.66715 0.8777 0.33122 0.0
C350 C 0.61442 0.84446 0.3141 0.0
C351 C 0.58482 0.87199 0.3044 0.0
C352 C 0.52742 0.83959 0.29751 0.0
C353 C 0.49902 0.77921 0.29946 0.0
H354 H 0.60771 0.76078 0.32075 0.0
C355 C 0.52986 0.75197 0.30615 0.0
C356 C 0.58722 0.78423 0.31324 0.0
H357 H 0.50812 0.70518 0.30853 0.0
H358 H 0.73175 0.93106 0.445 0.0
H359 H 0.67997 0.9052 0.39583 0.0
H360 H 0.79776 0.85743 0.35299 0.0
H361 H 0.85006 0.88394 0.40287 0.0
H362 H 0.69592 0.81861 0.33322 0.0
H363 H 0.67573 0.91892 0.33853 0.0
H364 H 0.60436 0.91815 0.30494 0.0
H365 H 0.50379 0.86124 0.29342 0.0
C366 C 0.87224 0.7371 0.93849 0.0
C367 C 0.92257 0.79082 0.94066 0.0
C368 C 0.87045 0.70428 0.91299 0.0
C369 C 0.91924 0.7237 0.88917 0.0
C370 C 0.97085 0.77556 0.89228 0.0
C371 C 0.97238 0.80931 0.91763 0.0
C372 C 0.91648 0.68748 0.86256 0.0
C373 C 0.86857 0.65977 0.84687 0.0
C374 C 0.85238 0.60779 0.82964 0.0
C375 C 0.80561 0.58761 0.81037 0.0
C376 C 0.77882 0.53151 0.80126 0.0
C377 C 0.7984 0.49479 0.81138 0.0
H378 H 0.90986 0.58546 0.85261 0.0
C379 C 0.84767 0.51622 0.82844 0.0
C380 C 0.8747 0.57228 0.83734 0.0
H381 H 0.86322 0.48834 0.83666 0.0
H382 H 0.83372 0.72031 0.95642 0.0
H383 H 0.8308 0.66316 0.91217 0.0
H384 H 0.00939 0.79066 0.87459 0.0
H385 H 0.01189 0.85036 0.91857 0.0
H386 H 0.95227 0.68067 0.85778 0.0
H387 H 0.83614 0.67181 0.85002 0.0
H388 H 0.78726 0.61385 0.8043 0.0
H389 H 0.74025 0.51549 0.78861 0.0
loop_
_geom_bond_atom_site_label_1
_geom_bond_atom_site_label_2
_geom_bond_distance
_geom_bond_site_symmetry_2
_ccdc_geom_bond_type
Co0 N5 2.057 . S
Co0 O17 2.021 1_665 S
Co0 O20 2.062 1_656 S
Co0 O24 2.117 1_556 S
Co0 O25 2.020 1_565 S
C1 O21 1.259 1_565 S
C1 O24 1.258 . S
Co2 N11 2.057 . S
Co2 O18 2.117 1_554 S
Co2 O19 2.020 . S
Co2 O21 2.021 1_455 S
Co2 O26 2.062 1_554 S
C3 N5 1.316 . S
C3 N6 1.347 . S
C3 H8 0.931 1_655 S
C4 N5 1.375 . S
C4 C7 1.350 . S
C4 H9 0.930 . S
N5 Co0 2.057 . S
N5 C3 1.316 . S
N5 C4 1.375 . S
N6 C3 1.347 . S
N6 C7 1.373 . S
C7 C4 1.350 . S
C7 N6 1.373 . S
C7 H28 0.931 . S
H8 C3 0.931 1_455 S
H9 C4 0.930 . S
C10 O17 1.259 . S
C10 O18 1.258 . S
N11 Co2 2.057 . S
N11 C12 1.316 . S
N11 C13 1.375 . S
C12 N11 1.316 . S
C12 N14 1.347 . S
C12 H23 0.931 . S
C13 N11 1.375 . S
C13 C15 1.350 . S
C13 H22 0.930 . S
N14 C12 1.347 . S
N14 C15 1.373 . S
C15 C13 1.350 . S
C15 N14 1.373 . S
C15 H29 0.931 . S
C16 O19 1.256 1_565 S
C16 O20 1.255 . S
O17 Co0 2.021 1_445 S
O17 C10 1.259 . S
O18 Co2 2.117 1_556 S
O18 C10 1.258 . S
O19 Co2 2.020 . S
O19 C16 1.256 1_545 S
O20 Co0 2.062 1_454 S
O20 C16 1.255 . S
O21 C1 1.259 1_545 S
O21 Co2 2.021 1_655 S
H22 C13 0.930 . S
H23 C12 0.931 . S
O24 Co0 2.117 1_554 S
O24 C1 1.258 . S
O25 Co0 2.020 1_545 S
O25 C27 1.256 . S
O26 Co2 2.062 1_556 S
O26 C27 1.255 1_455 S
C27 O25 1.256 . S
C27 O26 1.255 1_655 S
H28 C7 0.931 . S
H29 C15 0.931 . S
Co30 N35 2.057 . S
Co30 O47 2.021 1_545 S
Co30 O50 2.062 1_545 S
Co30 O54 2.117 . S
Co30 O55 2.020 . S
C31 O51 1.259 . S
C31 O54 1.258 . S
Co32 N41 2.057 . S
Co32 O48 2.117 . S
Co32 O49 2.020 1_655 S
Co32 O51 2.021 1_665 S
Co32 O56 2.062 1_565 S
C33 N35 1.316 . S
C33 N36 1.347 . S
C33 H38 0.931 . S
C34 N35 1.375 . S
C34 C37 1.350 . S
C34 H39 0.930 . S
N35 Co30 2.057 . S
N35 C33 1.316 . S
N35 C34 1.375 . S
N36 C33 1.347 . S
N36 C37 1.373 . S
C37 C34 1.350 . S
C37 N36 1.373 . S
C37 H58 0.931 . S
H38 C33 0.931 . S
H39 C34 0.930 . S
C40 O47 1.259 1_655 S
C40 O48 1.258 . S
N41 Co32 2.057 . S
N41 C42 1.316 . S
N41 C43 1.375 . S
C42 N41 1.316 . S
C42 N44 1.347 . S
C42 H53 0.931 . S
C43 N41 1.375 . S
C43 C45 1.350 . S
C43 H52 0.930 . S
N44 C42 1.347 . S
N44 C45 1.373 . S
C45 C43 1.350 . S
C45 N44 1.373 . S
C45 H59 0.931 . S
C46 O49 1.256 . S
C46 O50 1.255 . S
O47 Co30 2.021 1_565 S
O47 C40 1.259 1_455 S
O48 Co32 2.117 . S
O48 C40 1.258 . S
O49 Co32 2.020 1_455 S
O49 C46 1.256 . S
O50 Co30 2.062 1_565 S
O50 C46 1.255 . S
O51 C31 1.259 . S
O51 Co32 2.021 1_445 S
H52 C43 0.930 . S
H53 C42 0.931 . S
O54 Co30 2.117 . S
O54 C31 1.258 . S
O55 Co30 2.020 . S
O55 C57 1.256 1_455 S
O56 Co32 2.062 1_545 S
O56 C57 1.255 . S
C57 O55 1.256 1_655 S
C57 O56 1.255 . S
H58 C37 0.931 . S
H59 C45 0.931 . S
Zn60 O66 1.920 . S
Zn60 O72 1.898 . S
Zn60 O75 1.905 . S
Zn61 O69 1.905 . S
Zn61 O70 1.898 . S
Zn61 O78 1.920 . S
Zn62 O65 2.080 . S
Zn62 O68 2.114 . S
Zn62 O71 2.120 . S
Zn62 O73 2.120 . S
Zn62 O74 2.114 . S
Zn62 O77 2.080 . S
C63 O68 1.166 . S
C63 O69 1.182 . S
C64 O70 1.167 . S
C64 O71 1.299 . S
O65 Zn62 2.080 . S
O65 C79 1.305 . S
O66 Zn60 1.920 . S
O66 C79 1.234 . S
C67 O72 1.167 . S
C67 O73 1.299 . S
O68 Zn62 2.114 . S
O68 C63 1.166 . S
O69 Zn61 1.905 . S
O69 C63 1.182 . S
O70 Zn61 1.898 . S
O70 C64 1.167 . S
O71 Zn62 2.120 . S
O71 C64 1.299 . S
O72 Zn60 1.898 . S
O72 C67 1.167 . S
O73 Zn62 2.120 . S
O73 C67 1.299 . S
O74 Zn62 2.114 . S
O74 C76 1.166 . S
O75 Zn60 1.905 . S
O75 C76 1.182 . S
C76 O74 1.166 . S
C76 O75 1.182 . S
O77 Zn62 2.080 . S
O77 C80 1.305 . S
O78 Zn61 1.920 . S
O78 C80 1.234 . S
C79 O65 1.305 . S
C79 O66 1.234 . S
C80 O77 1.305 . S
C80 O78 1.234 . S
Zn81 O87 1.920 . S
Zn81 O93 1.898 . S
Zn81 O96 1.905 . S
Zn82 O90 1.905 . S
Zn82 O91 1.898 . S
Zn82 O99 1.920 . S
Zn83 O86 2.080 . S
Zn83 O89 2.114 . S
Zn83 O92 2.120 . S
Zn83 O94 2.120 . S
Zn83 O95 2.114 . S
Zn83 O98 2.080 . S
C84 O89 1.166 . S
C84 O90 1.182 . S
C85 O91 1.167 . S
C85 O92 1.299 . S
O86 Zn83 2.080 . S
O86 C100 1.305 . S
O87 Zn81 1.920 . S
O87 C100 1.234 . S
C88 O93 1.167 . S
C88 O94 1.299 . S
O89 Zn83 2.114 . S
O89 C84 1.166 . S
O90 Zn82 1.905 . S
O90 C84 1.182 . S
O91 Zn82 1.898 . S
O91 C85 1.167 . S
O92 Zn83 2.120 . S
O92 C85 1.299 . S
O93 Zn81 1.898 . S
O93 C88 1.167 . S
O94 Zn83 2.120 . S
O94 C88 1.299 . S
O95 Zn83 2.114 . S
O95 C97 1.166 . S
O96 Zn81 1.905 . S
O96 C97 1.182 . S
C97 O95 1.166 . S
C97 O96 1.182 . S
O98 Zn83 2.080 . S
O98 C101 1.305 . S
O99 Zn82 1.920 . S
O99 C101 1.234 . S
C100 O86 1.305 . S
C100 O87 1.234 . S
C101 O98 1.305 . S
C101 O99 1.234 . S
C102 C103 1.386 . S
C102 C104 1.383 . S
C102 H118 0.951 . S
C103 C102 1.386 . S
C103 C107 1.383 . S
C104 C102 1.383 . S
C104 C105 1.402 . S
C104 H119 0.951 . S
C105 C104 1.402 . S
C105 C106 1.375 . S
C105 C108 1.481 . S
C106 C105 1.375 . S
C106 C107 1.367 . S
C106 H120 0.951 . S
C107 C103 1.383 . S
C107 C106 1.367 . S
C107 H121 0.950 1_455 S
C108 C105 1.481 . S
C108 C109 1.297 . S
C108 H122 0.950 . S
C109 C108 1.297 . S
C109 C110 1.479 . S
C109 H123 0.950 . S
C110 C109 1.479 . S
C110 C111 1.375 . S
C110 C116 1.404 . S
C111 C110 1.375 . S
C111 C112 1.369 . S
C111 H124 0.950 . S
C112 C111 1.369 . S
C112 C113 1.392 . S
C112 H125 0.951 . S
C113 C112 1.392 . S
C113 C115 1.384 . S
H114 C116 0.949 . S
C115 C113 1.384 . S
C115 C116 1.385 . S
C115 H117 0.950 . S
C116 C110 1.404 . S
C116 H114 0.949 . S
C116 C115 1.385 . S
H117 C115 0.950 . S
H118 C102 0.951 . S
H119 C104 0.951 . S
H120 C106 0.951 . S
H121 C107 0.950 1_655 S
H122 C108 0.950 . S
H123 C109 0.950 . S
H124 C111 0.950 . S
H125 C112 0.951 . S
C126 C127 1.386 . S
C126 C128 1.383 . S
C126 H142 0.951 . S
C127 C126 1.386 . S
C127 C131 1.383 . S
C128 C126 1.383 . S
C128 C129 1.402 . S
C128 H143 0.951 . S
C129 C128 1.402 . S
C129 C130 1.375 . S
C129 C132 1.481 . S
C130 C129 1.375 . S
C130 C131 1.367 . S
C130 H144 0.951 . S
C131 C127 1.383 . S
C131 C130 1.367 . S
C131 H145 0.950 . S
C132 C129 1.481 . S
C132 C133 1.297 . S
C132 H146 0.950 . S
C133 C132 1.297 . S
C133 C134 1.479 . S
C133 H147 0.950 . S
C134 C133 1.479 . S
C134 C135 1.375 . S
C134 C140 1.404 . S
C135 C134 1.375 . S
C135 C136 1.369 . S
C135 H148 0.950 . S
C136 C135 1.369 . S
C136 C137 1.392 . S
C136 H149 0.951 . S
C137 C136 1.392 . S
C137 C139 1.384 . S
H138 C140 0.949 . S
C139 C137 1.384 . S
C139 C140 1.385 . S
C139 H141 0.950 . S
C140 C134 1.404 . S
C140 H138 0.949 . S
C140 C139 1.385 . S
H141 C139 0.950 . S
H142 C126 0.951 . S
H143 C128 0.951 . S
H144 C130 0.951 . S
H145 C131 0.950 . S
H146 C132 0.950 . S
H147 C133 0.950 . S
H148 C135 0.950 . S
H149 C136 0.951 . S
C150 C151 1.386 . S
C150 C152 1.383 . S
C150 H166 0.951 . S
C151 C150 1.386 . S
C151 C155 1.383 . S
C152 C150 1.383 . S
C152 C153 1.402 . S
C152 H167 0.951 . S
C153 C152 1.402 . S
C153 C154 1.375 . S
C153 C156 1.481 . S
C154 C153 1.375 . S
C154 C155 1.367 . S
C154 H168 0.951 . S
C155 C151 1.383 . S
C155 C154 1.367 . S
C155 H169 0.950 . S
C156 C153 1.481 . S
C156 C157 1.297 . S
C156 H170 0.950 . S
C157 C156 1.297 . S
C157 C158 1.479 . S
C157 H171 0.950 . S
C158 C157 1.479 . S
C158 C159 1.375 . S
C158 C164 1.404 . S
C159 C158 1.375 . S
C159 C160 1.369 . S
C159 H172 0.950 . S
C160 C159 1.369 . S
C160 C161 1.392 . S
C160 H173 0.951 . S
C161 C160 1.392 . S
C161 C163 1.384 . S
H162 C164 0.949 . S
C163 C161 1.384 . S
C163 C164 1.385 . S
C163 H165 0.950 . S
C164 C158 1.404 . S
C164 H162 0.949 . S
C164 C163 1.385 . S
H165 C163 0.950 . S
H166 C150 0.951 . S
H167 C152 0.951 . S
H168 C154 0.951 . S
H169 C155 0.950 . S
H170 C156 0.950 . S
H171 C157 0.950 . S
H172 C159 0.950 . S
H173 C160 0.951 . S
C174 C175 1.386 . S
C174 C176 1.383 . S
C174 H190 0.951 . S
C175 C174 1.386 . S
C175 C179 1.383 . S
C176 C174 1.383 . S
C176 C177 1.402 . S
C176 H191 0.951 . S
C177 C176 1.402 . S
C177 C178 1.375 . S
C177 C180 1.481 . S
C178 C177 1.375 . S
C178 C179 1.367 . S
C178 H192 0.951 . S
C179 C175 1.383 . S
C179 C178 1.367 . S
C179 H193 0.950 . S
C180 C177 1.481 . S
C180 C181 1.297 . S
C180 H194 0.950 . S
C181 C180 1.297 . S
C181 C182 1.479 . S
C181 H195 0.950 . S
C182 C181 1.479 . S
C182 C183 1.375 . S
C182 C188 1.404 . S
C183 C182 1.375 . S
C183 C184 1.369 . S
C183 H196 0.950 . S
C184 C183 1.369 . S
C184 C185 1.392 . S
C184 H197 0.951 . S
C185 C184 1.392 . S
C185 C187 1.384 . S
H186 C188 0.949 . S
C187 C185 1.384 . S
C187 C188 1.385 . S
C187 H189 0.950 . S
C188 C182 1.404 . S
C188 H186 0.949 . S
C188 C187 1.385 . S
H189 C187 0.950 . S
H190 C174 0.951 . S
H191 C176 0.951 . S
H192 C178 0.951 . S
H193 C179 0.950 . S
H194 C180 0.950 . S
H195 C181 0.950 . S
H196 C183 0.950 . S
H197 C184 0.951 . S
C198 C199 1.386 . S
C198 C200 1.383 . S
C198 H214 0.951 . S
C199 C198 1.386 . S
C199 C203 1.383 . S
C200 C198 1.383 . S
C200 C201 1.402 . S
C200 H215 0.951 . S
C201 C200 1.402 . S
C201 C202 1.375 . S
C201 C204 1.481 . S
C202 C201 1.375 . S
C202 C203 1.367 . S
C202 H216 0.951 . S
C203 C199 1.383 . S
C203 C202 1.367 . S
C203 H217 0.950 . S
C204 C201 1.481 . S
C204 C205 1.297 . S
C204 H218 0.950 . S
C205 C204 1.297 . S
C205 C206 1.479 . S
C205 H219 0.950 . S
C206 C205 1.479 . S
C206 C207 1.375 . S
C206 C212 1.404 . S
C207 C206 1.375 . S
C207 C208 1.369 . S
C207 H220 0.950 . S
C208 C207 1.369 . S
C208 C209 1.392 . S
C208 H221 0.951 . S
C209 C208 1.392 . S
C209 C211 1.384 . S
H210 C212 0.949 . S
C211 C209 1.384 . S
C211 C212 1.385 . S
C211 H213 0.950 . S
C212 C206 1.404 . S
C212 H210 0.949 . S
C212 C211 1.385 . S
H213 C211 0.950 . S
H214 C198 0.951 . S
H215 C200 0.951 . S
H216 C202 0.951 . S
H217 C203 0.950 . S
H218 C204 0.950 . S
H219 C205 0.950 . S
H220 C207 0.950 . S
H221 C208 0.951 . S
C222 C223 1.386 . S
C222 C224 1.383 . S
C222 H238 0.951 . S
C223 C222 1.386 . S
C223 C227 1.383 . S
C224 C222 1.383 . S
C224 C225 1.402 . S
C224 H239 0.951 . S
C225 C224 1.402 . S
C225 C226 1.375 . S
C225 C228 1.481 . S
C226 C225 1.375 . S
C226 C227 1.367 . S
C226 H240 0.951 . S
C227 C223 1.383 . S
C227 C226 1.367 . S
C227 H241 0.950 . S
C228 C225 1.481 . S
C228 C229 1.297 . S
C228 H242 0.950 . S
C229 C228 1.297 . S
C229 C230 1.479 . S
C229 H243 0.950 . S
C230 C229 1.479 . S
C230 C231 1.375 . S
C230 C236 1.404 . S
C231 C230 1.375 . S
C231 C232 1.369 . S
C231 H244 0.950 . S
C232 C231 1.369 . S
C232 C233 1.392 . S
C232 H245 0.951 . S
C233 C232 1.392 . S
C233 C235 1.384 . S
H234 C236 0.949 . S
C235 C233 1.384 . S
C235 C236 1.385 . S
C235 H237 0.950 . S
C236 C230 1.404 . S
C236 H234 0.949 . S
C236 C235 1.385 . S
H237 C235 0.950 . S
H238 C222 0.951 . S
H239 C224 0.951 . S
H240 C226 0.951 . S
H241 C227 0.950 . S
H242 C228 0.950 . S
H243 C229 0.950 . S
H244 C231 0.950 . S
H245 C232 0.951 . S
C246 C247 1.386 . S
C246 C248 1.383 . S
C246 H262 0.951 1_565 S
C247 C246 1.386 . S
C247 C251 1.383 . S
C248 C246 1.383 . S
C248 C249 1.402 . S
C248 H263 0.951 . S
C249 C248 1.402 . S
C249 C250 1.375 . S
C249 C252 1.481 . S
C250 C249 1.375 . S
C250 C251 1.367 . S
C250 H264 0.951 . S
C251 C247 1.383 . S
C251 C250 1.367 . S
C251 H265 0.950 . S
C252 C249 1.481 . S
C252 C253 1.297 . S
C252 H266 0.950 . S
C253 C252 1.297 . S
C253 C254 1.479 . S
C253 H267 0.950 . S
C254 C253 1.479 . S
C254 C255 1.375 . S
C254 C260 1.404 . S
C255 C254 1.375 . S
C255 C256 1.369 . S
C255 H268 0.950 . S
C256 C255 1.369 . S
C256 C257 1.392 . S
C256 H269 0.951 . S
C257 C256 1.392 . S
C257 C259 1.384 . S
H258 C260 0.949 . S
C259 C257 1.384 . S
C259 C260 1.385 . S
C259 H261 0.950 . S
C260 C254 1.404 . S
C260 H258 0.949 . S
C260 C259 1.385 . S
H261 C259 0.950 . S
H262 C246 0.951 1_545 S
H263 C248 0.951 . S
H264 C250 0.951 . S
H265 C251 0.950 . S
H266 C252 0.950 . S
H267 C253 0.950 . S
H268 C255 0.950 . S
H269 C256 0.951 . S
C270 C271 1.386 . S
C270 C272 1.383 . S
C270 H286 0.951 . S
C271 C270 1.386 . S
C271 C275 1.383 . S
C272 C270 1.383 . S
C272 C273 1.402 . S
C272 H287 0.951 . S
C273 C272 1.402 . S
C273 C274 1.375 . S
C273 C276 1.481 . S
C274 C273 1.375 . S
C274 C275 1.367 . S
C274 H288 0.951 . S
C275 C271 1.383 . S
C275 C274 1.367 . S
C275 H289 0.950 . S
C276 C273 1.481 . S
C276 C277 1.297 . S
C276 H290 0.950 . S
C277 C276 1.297 . S
C277 C278 1.479 . S
C277 H291 0.950 . S
C278 C277 1.479 . S
C278 C279 1.375 . S
C278 C284 1.404 . S
C279 C278 1.375 . S
C279 C280 1.369 . S
C279 H292 0.950 . S
C280 C279 1.369 . S
C280 C281 1.392 . S
C280 H293 0.951 . S
C281 C280 1.392 . S
C281 C283 1.384 . S
H282 C284 0.949 . S
C283 C281 1.384 . S
C283 C284 1.385 . S
C283 H285 0.950 . S
C284 C278 1.404 . S
C284 H282 0.949 . S
C284 C283 1.385 . S
H285 C283 0.950 . S
H286 C270 0.951 . S
H287 C272 0.951 . S
H288 C274 0.951 . S
H289 C275 0.950 . S
H290 C276 0.950 . S
H291 C277 0.950 . S
H292 C279 0.950 . S
H293 C280 0.951 . S
C294 C295 1.386 . S
C294 C296 1.383 . S
C294 H310 0.951 . S
C295 C294 1.386 . S
C295 C299 1.383 . S
C296 C294 1.383 . S
C296 C297 1.402 . S
C296 H311 0.951 . S
C297 C296 1.402 . S
C297 C298 1.375 . S
C297 C300 1.481 . S
C298 C297 1.375 . S
C298 C299 1.367 . S
C298 H312 0.951 . S
C299 C295 1.383 . S
C299 C298 1.367 . S
C299 H313 0.950 . S
C300 C297 1.481 . S
C300 C301 1.297 . S
C300 H314 0.950 . S
C301 C300 1.297 . S
C301 C302 1.479 . S
C301 H315 0.950 . S
C302 C301 1.479 . S
C302 C303 1.375 . S
C302 C308 1.404 . S
C303 C302 1.375 . S
C303 C304 1.369 . S
C303 H316 0.950 . S
C304 C303 1.369 . S
C304 C305 1.392 . S
C304 H317 0.951 . S
C305 C304 1.392 . S
C305 C307 1.384 . S
H306 C308 0.949 . S
C307 C305 1.384 . S
C307 C308 1.385 . S
C307 H309 0.950 . S
C308 C302 1.404 . S
C308 H306 0.949 . S
C308 C307 1.385 . S
H309 C307 0.950 . S
H310 C294 0.951 . S
H311 C296 0.951 . S
H312 C298 0.951 . S
H313 C299 0.950 . S
H314 C300 0.950 . S
H315 C301 0.950 . S
H316 C303 0.950 . S
H317 C304 0.951 . S
C318 C319 1.386 . S
C318 C320 1.383 . S
C318 H334 0.951 . S
C319 C318 1.386 . S
C319 C323 1.383 . S
C320 C318 1.383 . S
C320 C321 1.402 . S
C320 H335 0.951 . S
C321 C320 1.402 . S
C321 C322 1.375 . S
C321 C324 1.481 . S
C322 C321 1.375 . S
C322 C323 1.367 . S
C322 H336 0.951 . S
C323 C319 1.383 . S
C323 C322 1.367 . S
C323 H337 0.950 . S
C324 C321 1.481 . S
C324 C325 1.297 . S
C324 H338 0.950 . S
C325 C324 1.297 . S
C325 C326 1.479 . S
C325 H339 0.950 . S
C326 C325 1.479 . S
C326 C327 1.375 . S
C326 C332 1.404 . S
C327 C326 1.375 . S
C327 C328 1.369 . S
C327 H340 0.950 . S
C328 C327 1.369 . S
C328 C329 1.392 . S
C328 H341 0.951 . S
C329 C328 1.392 . S
C329 C331 1.384 . S
H330 C332 0.949 . S
C331 C329 1.384 . S
C331 C332 1.385 . S
C331 H333 0.950 . S
C332 C326 1.404 . S
C332 H330 0.949 . S
C332 C331 1.385 . S
H333 C331 0.950 . S
H334 C318 0.951 . S
H335 C320 0.951 . S
H336 C322 0.951 . S
H337 C323 0.950 . S
H338 C324 0.950 . S
H339 C325 0.950 . S
H340 C327 0.950 . S
H341 C328 0.951 . S
C342 C343 1.386 . S
C342 C344 1.383 . S
C342 H358 0.951 . S
C343 C342 1.386 . S
C343 C347 1.383 . S
C344 C342 1.383 . S
C344 C345 1.402 . S
C344 H359 0.951 . S
C345 C344 1.402 . S
C345 C346 1.375 . S
C345 C348 1.481 . S
C346 C345 1.375 . S
C346 C347 1.367 . S
C346 H360 0.951 . S
C347 C343 1.383 . S
C347 C346 1.367 . S
C347 H361 0.950 . S
C348 C345 1.481 . S
C348 C349 1.297 . S
C348 H362 0.950 . S
C349 C348 1.297 . S
C349 C350 1.479 . S
C349 H363 0.950 . S
C350 C349 1.479 . S
C350 C351 1.375 . S
C350 C356 1.404 . S
C351 C350 1.375 . S
C351 C352 1.369 . S
C351 H364 0.950 . S
C352 C351 1.369 . S
C352 C353 1.392 . S
C352 H365 0.951 . S
C353 C352 1.392 . S
C353 C355 1.384 . S
H354 C356 0.949 . S
C355 C353 1.384 . S
C355 C356 1.385 . S
C355 H357 0.950 . S
C356 C350 1.404 . S
C356 H354 0.949 . S
C356 C355 1.385 . S
H357 C355 0.950 . S
H358 C342 0.951 . S
H359 C344 0.951 . S
H360 C346 0.951 . S
H361 C347 0.950 . S
H362 C348 0.950 . S
H363 C349 0.950 . S
H364 C351 0.950 . S
H365 C352 0.951 . S
C366 C367 1.386 . S
C366 C368 1.383 . S
C366 H382 0.951 . S
C367 C366 1.386 . S
C367 C371 1.383 . S
C368 C366 1.383 . S
C368 C369 1.402 . S
C368 H383 0.951 . S
C369 C368 1.402 . S
C369 C370 1.375 . S
C369 C372 1.481 . S
C370 C369 1.375 . S
C370 C371 1.367 . S
C370 H384 0.951 . S
C371 C367 1.383 . S
C371 C370 1.367 . S
C371 H385 0.950 1_655 S
C372 C369 1.481 . S
C372 C373 1.297 . S
C372 H386 0.950 . S
C373 C372 1.297 . S
C373 C374 1.479 . S
C373 H387 0.950 . S
C374 C373 1.479 . S
C374 C375 1.375 . S
C374 C380 1.404 . S
C375 C374 1.375 . S
C375 C376 1.369 . S
C375 H388 0.950 . S
C376 C375 1.369 . S
C376 C377 1.392 . S
C376 H389 0.951 . S
C377 C376 1.392 . S
C377 C379 1.384 . S
H378 C380 0.949 . S
C379 C377 1.384 . S
C379 C380 1.385 . S
C379 H381 0.950 . S
C380 C374 1.404 . S
C380 H378 0.949 . S
C380 C379 1.385 . S
H381 C379 0.950 . S
H382 C366 0.951 . S
H383 C368 0.951 . S
H384 C370 0.951 . S
H385 C371 0.950 1_455 S
H386 C372 0.950 . S
H387 C373 0.950 . S
H388 C375 0.950 . S
H389 C376 0.951 . S
C103 C16 1.493 . S
C113 C79 1.408 . S
C127 N36 1.206 . S
C137 C85 1.172 . S
C151 N14 1.174 . S
C161 C76 1.152 . S
C175 C57 1.601 . S
C185 C101 1.504 . S
C199 C1 1.781 . S
C209 C67 1.649 . S
C233 C84 1.499 . S
C223 C40 1.669 . S
C247 C46 1.493 . S
C257 C80 1.279 . S
C281 C97 1.597 . S
C271 C10 1.673 . S
C305 C64 1.612 . S
C295 C31 1.785 . S
C329 C100 1.427 . S
C319 C27 1.613 . S
C353 C63 1.097 . S
C343 N44 1.196 . S
C377 C88 1.141 . S
C367 N6 1.190 . S
