# Generated by pormake.
# Topology ocu, (6,8)-cn, num edge types: 1
# Building blocks:
#     Node 0, Type 0, BuildingBlock: MIFKUJ_clean_sbu_0, # of connection points: 6
#     Node 1, Type 0, BuildingBlock: MIFKUJ_clean_sbu_0, # of connection points: 6
#     Node 2, Type 0, BuildingBlock: MIFKUJ_clean_sbu_0, # of connection points: 6
#     Node 3, Type 0, BuildingBlock: MIFKUJ_clean_sbu_0, # of connection points: 6
#     Node 4, Type 0, BuildingBlock: MIFKUJ_clean_sbu_0, # of connection points: 6
#     Node 5, Type 0, BuildingBlock: MIFKUJ_clean_sbu_0, # of connection points: 6
#     Node 6, Type 0, BuildingBlock: MIFKUJ_clean_sbu_0, # of connection points: 6
#     Node 7, Type 0, BuildingBlock: MIFKUJ_clean_sbu_0, # of connection points: 6
#     Node 8, Type 1, BuildingBlock: VETTIZ_charged_sbu_0, # of connection points: 8
#     Node 9, Type 1, BuildingBlock: VETTIZ_charged_sbu_0, # of connection points: 8
#     Node 10, Type 1, BuildingBlock: VETTIZ_charged_sbu_0, # of connection points: 8
#     Node 11, Type 1, BuildingBlock: VETTIZ_charged_sbu_0, # of connection points: 8
#     Node 12, Type 1, BuildingBlock: VETTIZ_charged_sbu_0, # of connection points: 8
#     Node 13, Type 1, BuildingBlock: VETTIZ_charged_sbu_0, # of connection points: 8
#     Edge 14, Type (0, 1), BuildingBlock: KIFKEQ_clean_linker_1, # of connection points: 2
#     Edge 15, Type (0, 1), BuildingBlock: KIFKEQ_clean_linker_1, # of connection points: 2
#     Edge 16, Type (0, 1), BuildingBlock: KIFKEQ_clean_linker_1, # of connection points: 2
#     Edge 17, Type (0, 1), BuildingBlock: KIFKEQ_clean_linker_1, # of connection points: 2
#     Edge 18, Type (0, 1), BuildingBlock: KIFKEQ_clean_linker_1, # of connection points: 2
#     Edge 19, Type (0, 1), BuildingBlock: KIFKEQ_clean_linker_1, # of connection points: 2
#     Edge 20, Type (0, 1), BuildingBlock: KIFKEQ_clean_linker_1, # of connection points: 2
#     Edge 21, Type (0, 1), BuildingBlock: KIFKEQ_clean_linker_1, # of connection points: 2
#     Edge 22, Type (0, 1), BuildingBlock: KIFKEQ_clean_linker_1, # of connection points: 2
#     Edge 23, Type (0, 1), BuildingBlock: KIFKEQ_clean_linker_1, # of connection points: 2
#     Edge 24, Type (0, 1), BuildingBlock: KIFKEQ_clean_linker_1, # of connection points: 2
#     Edge 25, Type (0, 1), BuildingBlock: KIFKEQ_clean_linker_1, # of connection points: 2
#     Edge 26, Type (0, 1), BuildingBlock: KIFKEQ_clean_linker_1, # of connection points: 2
#     Edge 27, Type (0, 1), BuildingBlock: KIFKEQ_clean_linker_1, # of connection points: 2
#     Edge 28, Type (0, 1), BuildingBlock: KIFKEQ_clean_linker_1, # of connection points: 2
#     Edge 29, Type (0, 1), BuildingBlock: KIFKEQ_clean_linker_1, # of connection points: 2
#     Edge 30, Type (0, 1), BuildingBlock: KIFKEQ_clean_linker_1, # of connection points: 2
#     Edge 31, Type (0, 1), BuildingBlock: KIFKEQ_clean_linker_1, # of connection points: 2
#     Edge 32, Type (0, 1), BuildingBlock: KIFKEQ_clean_linker_1, # of connection points: 2
#     Edge 33, Type (0, 1), BuildingBlock: KIFKEQ_clean_linker_1, # of connection points: 2
#     Edge 34, Type (0, 1), BuildingBlock: KIFKEQ_clean_linker_1, # of connection points: 2
#     Edge 35, Type (0, 1), BuildingBlock: KIFKEQ_clean_linker_1, # of connection points: 2
#     Edge 36, Type (0, 1), BuildingBlock: KIFKEQ_clean_linker_1, # of connection points: 2
#     Edge 37, Type (0, 1), BuildingBlock: KIFKEQ_clean_linker_1, # of connection points: 2
#     Edge 38, Type (0, 1), BuildingBlock: KIFKEQ_clean_linker_1, # of connection points: 2
#     Edge 39, Type (0, 1), BuildingBlock: KIFKEQ_clean_linker_1, # of connection points: 2
#     Edge 40, Type (0, 1), BuildingBlock: KIFKEQ_clean_linker_1, # of connection points: 2
#     Edge 41, Type (0, 1), BuildingBlock: KIFKEQ_clean_linker_1, # of connection points: 2
#     Edge 42, Type (0, 1), BuildingBlock: KIFKEQ_clean_linker_1, # of connection points: 2
#     Edge 43, Type (0, 1), BuildingBlock: KIFKEQ_clean_linker_1, # of connection points: 2
#     Edge 44, Type (0, 1), BuildingBlock: KIFKEQ_clean_linker_1, # of connection points: 2
#     Edge 45, Type (0, 1), BuildingBlock: KIFKEQ_clean_linker_1, # of connection points: 2
#     Edge 46, Type (0, 1), BuildingBlock: KIFKEQ_clean_linker_1, # of connection points: 2
#     Edge 47, Type (0, 1), BuildingBlock: KIFKEQ_clean_linker_1, # of connection points: 2
#     Edge 48, Type (0, 1), BuildingBlock: KIFKEQ_clean_linker_1, # of connection points: 2
#     Edge 49, Type (0, 1), BuildingBlock: KIFKEQ_clean_linker_1, # of connection points: 2
#     Edge 50, Type (0, 1), BuildingBlock: KIFKEQ_clean_linker_1, # of connection points: 2
#     Edge 51, Type (0, 1), BuildingBlock: KIFKEQ_clean_linker_1, # of connection points: 2
#     Edge 52, Type (0, 1), BuildingBlock: KIFKEQ_clean_linker_1, # of connection points: 2
#     Edge 53, Type (0, 1), BuildingBlock: KIFKEQ_clean_linker_1, # of connection points: 2
#     Edge 54, Type (0, 1), BuildingBlock: KIFKEQ_clean_linker_1, # of connection points: 2
#     Edge 55, Type (0, 1), BuildingBlock: KIFKEQ_clean_linker_1, # of connection points: 2
#     Edge 56, Type (0, 1), BuildingBlock: KIFKEQ_clean_linker_1, # of connection points: 2
#     Edge 57, Type (0, 1), BuildingBlock: KIFKEQ_clean_linker_1, # of connection points: 2
#     Edge 58, Type (0, 1), BuildingBlock: KIFKEQ_clean_linker_1, # of connection points: 2
#     Edge 59, Type (0, 1), BuildingBlock: KIFKEQ_clean_linker_1, # of connection points: 2
#     Edge 60, Type (0, 1), BuildingBlock: KIFKEQ_clean_linker_1, # of connection points: 2
#     Edge 61, Type (0, 1), BuildingBlock: KIFKEQ_clean_linker_1, # of connection points: 2
# Relax obj value: 0.053
# Max RMSD: 0.188
# Mean RMSD: 0.106
data_MOF--net-ocu--node1-MIFKUJ_clean_sbu_0--node2-VETTIZ_charged_sbu_0--edge1-KIFKEQ_clean_linker_1
_symmetry_space_group_name_H-M    P1
_symmetry_Int_Tables_number       1
_symmetry_cell_setting            triclinic
loop_
_symmetry_equiv_pos_as_xyz
'x, y, z'
_cell_length_a     39.073657
_cell_length_b     40.536367
_cell_length_c     38.656603
_cell_angle_alpha  92.118716
_cell_angle_beta   93.237477
_cell_angle_gamma 97.706451
loop_
_atom_site_label
_atom_site_type_symbol
_atom_site_fract_x
_atom_site_fract_y
_atom_site_fract_z
_atom_type_partial_charge
Zn0 Zn 0.21516 0.28737 0.23909 0.0
Zn1 Zn 0.29223 0.22991 0.25671 0.0
C2 C 0.20078 0.3252 0.30093 0.0
O3 O 0.20548 0.29795 0.31684 0.0
C4 C 0.32634 0.17758 0.22698 0.0
O5 O 0.3505 0.18918 0.25096 0.0
O6 O 0.17843 0.28835 0.20048 0.0
O7 O 0.26331 0.30106 0.21994 0.0
O8 O 0.30712 0.27263 0.23093 0.0
C9 C 0.18343 0.29406 0.16893 0.0
O10 O 0.2149 0.29568 0.15823 0.0
O11 O 0.2059 0.32674 0.26884 0.0
C12 C 0.31604 0.20151 0.31489 0.0
O13 O 0.29099 0.17947 0.30084 0.0
O14 O 0.32472 0.22808 0.2992 0.0
O15 O 0.2445 0.21795 0.27643 0.0
O16 O 0.20037 0.24584 0.26723 0.0
O17 O 0.29904 0.19138 0.22351 0.0
C18 C 0.29494 0.29708 0.21718 0.0
C19 C 0.21323 0.22177 0.28088 0.0
Zn20 Zn 0.75374 0.2907 0.22287 0.0
Zn21 Zn 0.73893 0.2282 0.29264 0.0
C22 C 0.69684 0.30476 0.17625 0.0
O23 O 0.70843 0.28226 0.15636 0.0
C24 C 0.77804 0.19048 0.33226 0.0
O25 O 0.76275 0.20807 0.35441 0.0
O26 O 0.79046 0.31472 0.19757 0.0
O27 O 0.76965 0.30477 0.27279 0.0
O28 O 0.75866 0.27171 0.31624 0.0
C29 C 0.7953 0.34609 0.20274 0.0
O30 O 0.77564 0.36021 0.22368 0.0
O31 O 0.7106 0.31096 0.2069 0.0
C32 C 0.69283 0.17686 0.30719 0.0
O33 O 0.70829 0.1663 0.28043 0.0
O34 O 0.70064 0.20688 0.31852 0.0
O35 O 0.71559 0.22848 0.24488 0.0
O36 O 0.75161 0.24274 0.20565 0.0
O37 O 0.77472 0.19609 0.30005 0.0
C38 C 0.77136 0.29944 0.30501 0.0
C39 C 0.73032 0.22072 0.21805 0.0
Zn40 Zn 0.78839 0.72862 0.23787 0.0
Zn41 Zn 0.71657 0.79354 0.26168 0.0
C42 C 0.83712 0.69413 0.27037 0.0
O43 O 0.85717 0.71732 0.25539 0.0
C44 C 0.69712 0.81453 0.19294 0.0
O45 O 0.70069 0.78396 0.18279 0.0
O46 O 0.81345 0.71925 0.19429 0.0
O47 O 0.73669 0.71506 0.2312 0.0
O48 O 0.69701 0.74687 0.24525 0.0
C49 C 0.8014 0.69368 0.17503 0.0
O50 O 0.77044 0.67831 0.18013 0.0
O51 O 0.8046 0.69433 0.26805 0.0
C52 C 0.69438 0.83711 0.31276 0.0
O53 O 0.72019 0.85697 0.30119 0.0
O54 O 0.68841 0.80707 0.30086 0.0
O55 O 0.76717 0.8038 0.27688 0.0
O56 O 0.80753 0.77244 0.2635 0.0
O57 O 0.70463 0.82408 0.22443 0.0
C58 C 0.70528 0.71947 0.23366 0.0
C59 C 0.79853 0.79838 0.27804 0.0
Zn60 Zn 0.22236 0.77772 0.27245 0.0
Zn61 Zn 0.29051 0.7379 0.22822 0.0
C62 C 0.18469 0.72016 0.29986 0.0
O63 O 0.16654 0.72092 0.27034 0.0
C64 C 0.34427 0.79045 0.21585 0.0
O65 O 0.36214 0.77451 0.2379 0.0
O66 O 0.1974 0.81639 0.28665 0.0
O67 O 0.27347 0.79046 0.27273 0.0
O68 O 0.29751 0.74529 0.28037 0.0
C69 C 0.20094 0.82846 0.31768 0.0
O70 O 0.22235 0.81673 0.33998 0.0
O71 O 0.21085 0.74211 0.30693 0.0
C72 C 0.32365 0.70332 0.17722 0.0
O73 O 0.31416 0.72819 0.15987 0.0
O74 O 0.3162 0.701 0.20884 0.0
O75 O 0.24175 0.7298 0.2064 0.0
O76 O 0.2025 0.75977 0.22603 0.0
O77 O 0.3125 0.77986 0.2087 0.0
C78 C 0.29065 0.77321 0.29214 0.0
C79 C 0.21173 0.73887 0.20435 0.0
Zn80 Zn 0.24364 0.78567 0.71682 0.0
Zn81 Zn 0.26659 0.72293 0.77051 0.0
C82 C 0.23513 0.84169 0.67592 0.0
O83 O 0.26909 0.84471 0.67793 0.0
C84 C 0.33071 0.70467 0.80533 0.0
O85 O 0.34142 0.73683 0.80859 0.0
O86 O 0.28249 0.77877 0.68731 0.0
O87 O 0.26158 0.80953 0.76081 0.0
O88 O 0.27881 0.76965 0.79257 0.0
C89 C 0.31385 0.78005 0.69835 0.0
O90 O 0.32125 0.77868 0.73178 0.0
O91 O 0.21801 0.81792 0.69087 0.0
C92 C 0.21478 0.67263 0.78556 0.0
O93 O 0.23266 0.65664 0.76435 0.0
O94 O 0.22402 0.70353 0.79236 0.0
O95 O 0.25396 0.71274 0.71882 0.0
O96 O 0.21198 0.74352 0.72042 0.0
O97 O 0.30196 0.69431 0.78876 0.0
C98 C 0.27554 0.80008 0.78838 0.0
C99 C 0.22386 0.71821 0.70827 0.0
Zn100 Zn 0.28519 0.21356 0.75856 0.0
Zn101 Zn 0.2187 0.28524 0.76483 0.0
C102 C 0.29996 0.15888 0.80105 0.0
O103 O 0.2913 0.14099 0.77209 0.0
C104 C 0.17223 0.32568 0.73486 0.0
O105 O 0.15177 0.31003 0.75652 0.0
O106 O 0.31504 0.19557 0.72332 0.0
O107 O 0.23553 0.20189 0.73801 0.0
O108 O 0.20085 0.24104 0.7403 0.0
C109 C 0.30302 0.17454 0.69895 0.0
O110 O 0.26954 0.1648 0.69523 0.0
O111 O 0.29614 0.18958 0.8021 0.0
C112 C 0.20533 0.32041 0.82645 0.0
O113 O 0.23552 0.33667 0.82 0.0
O114 O 0.19393 0.2939 0.80844 0.0
O115 O 0.26998 0.29918 0.77292 0.0
O116 O 0.3061 0.26165 0.76855 0.0
O117 O 0.20276 0.31859 0.73263 0.0
C118 C 0.20647 0.21189 0.73115 0.0
C119 C 0.30048 0.29154 0.77388 0.0
Zn120 Zn 0.70677 0.26762 0.76856 0.0
Zn121 Zn 0.7825 0.23703 0.70539 0.0
C122 C 0.65899 0.21615 0.79256 0.0
O123 O 0.63914 0.22602 0.76753 0.0
C124 C 0.79811 0.2981 0.67258 0.0
O125 O 0.78649 0.30954 0.70126 0.0
O126 O 0.68916 0.30779 0.78973 0.0
O127 O 0.76012 0.27042 0.77162 0.0
O128 O 0.80775 0.25704 0.74943 0.0
C129 C 0.69802 0.31637 0.82128 0.0
O130 O 0.72043 0.3006 0.83831 0.0
O131 O 0.68986 0.23047 0.79802 0.0
C132 C 0.79251 0.18128 0.66281 0.0
O133 O 0.77865 0.19939 0.63975 0.0
O134 O 0.79423 0.19099 0.69458 0.0
O135 O 0.73418 0.243 0.71165 0.0
O136 O 0.68319 0.25432 0.72068 0.0
O137 O 0.79861 0.26698 0.66803 0.0
C138 C 0.79305 0.27178 0.77297 0.0
C139 C 0.70282 0.24107 0.70109 0.0
Zn140 Zn 0.7232 0.78514 0.74784 0.0
Zn141 Zn 0.79848 0.7284 0.7558 0.0
C142 C 0.6806 0.82233 0.78508 0.0
O143 O 0.65797 0.79854 0.7699 0.0
C144 C 0.82538 0.6669 0.73819 0.0
O145 O 0.82925 0.66488 0.77199 0.0
O146 O 0.68792 0.78254 0.70793 0.0
O147 O 0.76825 0.8017 0.72444 0.0
O148 O 0.80958 0.76971 0.72656 0.0
C149 C 0.6924 0.80732 0.68883 0.0
O150 O 0.71719 0.83182 0.69769 0.0
O151 O 0.71249 0.82231 0.78016 0.0
C152 C 0.82861 0.73867 0.82639 0.0
O153 O 0.79738 0.74369 0.83422 0.0
O154 O 0.83471 0.73383 0.79485 0.0
O155 O 0.75245 0.70971 0.77738 0.0
O156 O 0.71103 0.74179 0.77331 0.0
O157 O 0.81154 0.69095 0.72578 0.0
C158 C 0.79803 0.79586 0.71638 0.0
C159 C 0.72189 0.71528 0.7834 0.0
Fe160 Fe 0.99783 0.08274 0.4809 0.0
O161 O 0.99868 0.03433 0.47861 0.0
Fe162 Fe 0.04543 0.01683 0.4938 0.0
Fe163 Fe 0.96456 1.00187 0.50177 0.0
O164 O 1.00254 0.03502 0.47753 0.0
O165 O 0.01141 0.98477 0.51764 0.0
O166 O 0.00742 0.98413 0.51888 0.0
Fe167 Fe 0.01182 0.93631 0.51587 0.0
C168 C 0.95945 0.06234 0.54587 0.0
O169 O 0.95428 0.06851 0.44861 0.0
O170 O 0.92463 0.02589 0.4782 0.0
O171 O 0.04339 0.93725 0.47491 0.0
O172 O 0.04229 0.98591 0.44994 0.0
O173 O 0.07514 0.05417 0.46513 0.0
O174 O 0.03411 0.08538 0.44394 0.0
O175 O 0.95993 0.97099 0.45787 0.0
O176 O 0.96965 0.92348 0.48103 0.0
C177 C 0.06499 0.07686 0.44493 0.0
O178 O 0.05642 0.95068 0.54663 0.0
O179 O 0.08553 0.9928 0.51606 0.0
O180 O 0.96467 0.08086 0.52032 0.0
O181 O 0.96652 0.03262 0.54562 0.0
C182 C 0.92666 0.04842 0.45464 0.0
C183 C 0.95721 0.93937 0.4566 0.0
C184 C 0.94513 0.94239 0.55171 0.0
O185 O 0.93482 0.96427 0.53045 0.0
O186 O 0.97636 0.93461 0.55372 0.0
C187 C 0.0481 0.95574 0.44924 0.0
O188 O 0.05164 0.04745 0.53779 0.0
O189 O 0.03877 0.09543 0.51767 0.0
C190 C 0.08389 0.97065 0.53985 0.0
C191 C 0.05291 0.07891 0.54057 0.0
Fe192 Fe 0.49885 0.93143 0.97461 0.0
O193 O 0.50352 0.97984 0.98178 0.0
Fe194 Fe 0.46632 1.00032 0.00938 0.0
Fe195 Fe 0.54556 0.00709 0.00469 0.0
O196 O 0.50021 0.97974 0.98174 0.0
O197 O 0.50823 0.02777 0.03209 0.0
O198 O 0.51157 0.02775 0.0323 0.0
Fe199 Fe 0.51231 0.0762 0.03878 0.0
C200 C 0.55258 0.94221 0.03652 0.0
O201 O 0.53541 0.94419 0.93929 0.0
O202 O 0.57569 0.98175 0.9717 0.0
O203 O 0.47061 0.08116 0.00429 0.0
O204 O 0.46194 0.03404 0.97172 0.0
O205 O 0.42645 0.96849 0.98147 0.0
O206 O 0.45508 0.93691 0.94458 0.0
O207 O 0.54269 0.041 0.9672 0.0
O208 O 0.54548 0.08766 1.00012 0.0
C209 C 0.42759 0.94825 0.9547 0.0
O210 O 0.47595 0.0636 0.07411 0.0
O211 O 0.43598 0.02554 0.0422 0.0
O212 O 0.53995 0.92609 0.00879 0.0
O213 O 0.55017 0.97292 0.04201 0.0
C214 C 0.56598 0.96117 0.94511 0.0
C215 C 0.54962 0.07239 0.97162 0.0
C216 C 0.58366 0.05878 0.06016 0.0
O217 O 0.58536 0.03895 0.03312 0.0
O218 O 0.55616 0.0709 0.06921 0.0
C219 C 0.45803 0.06439 0.97685 0.0
O220 O 0.46932 0.96635 0.047 0.0
O221 O 0.46576 0.91989 0.01351 0.0
C222 C 0.44548 0.04639 0.06859 0.0
C223 C 0.46233 0.93494 0.04235 0.0
Fe224 Fe 1.00223 0.54777 0.99452 0.0
O225 O 0.97269 0.51033 0.96797 0.0
Fe226 Fe 0.07584 0.51231 0.01965 0.0
Fe227 Fe 0.92233 0.50627 0.96376 0.0
O228 O 0.02532 0.51146 0.01545 0.0
O229 O 0.02569 0.50827 0.01411 0.0
O230 O 0.97314 0.50703 0.96652 0.0
Fe231 Fe 0.99623 0.47072 0.98774 0.0
C232 C 0.93729 0.55078 0.031 0.0
O233 O 0.97406 0.58084 0.96846 0.0
O234 O 0.93256 0.54697 0.93372 0.0
O235 O 0.02956 0.47035 0.94839 0.0
O236 O 0.07962 0.47746 0.98047 0.0
O237 O 0.08545 0.54898 0.98449 0.0
O238 O 0.0349 0.5505 0.95503 0.0
O239 O 0.92615 0.46885 0.92751 0.0
O240 O 0.96106 0.43601 0.95683 0.0
C241 C 0.06774 0.55559 0.95755 0.0
O242 O 0.02411 0.43765 0.01481 0.0
O243 O 0.06465 0.47201 0.05032 0.0
O244 O 0.96932 0.54776 0.03449 0.0
O245 O 0.91882 0.54072 0.00352 0.0
C246 C 0.94962 0.57586 0.94371 0.0
C247 C 0.93855 0.44101 0.93193 0.0
C248 C 0.93148 0.46376 0.02539 0.0
O249 O 0.91329 0.46918 0.9984 0.0
O250 O 0.96418 0.46901 0.02723 0.0
C251 C 0.06156 0.46738 0.95272 0.0
O252 O 0.07144 0.55015 0.05547 0.0
O253 O 0.03668 0.58239 0.02518 0.0
C254 C 0.04712 0.44316 0.04093 0.0
C255 C 0.0586 0.57769 0.05056 0.0
Fe256 Fe 0.51047 0.5089 0.95946 0.0
O257 O 0.53473 0.52952 0.00355 0.0
Fe258 Fe 0.42924 0.47728 0.98727 0.0
Fe259 Fe 0.58521 0.53416 0.01323 0.0
O260 O 0.48008 0.48286 0.99227 0.0
O261 O 0.47979 0.48185 0.99614 0.0
O262 O 0.5345 0.52845 0.00736 0.0
Fe263 Fe 0.50388 0.50275 0.0401 0.0
C264 C 0.57413 0.47471 0.95989 0.0
O265 O 0.54724 0.5401 0.93101 0.0
O266 O 0.58496 0.56784 0.97387 0.0
O267 O 0.47308 0.5402 0.04028 0.0
O268 O 0.4214 0.51099 0.02682 0.0
O269 O 0.42798 0.51415 0.95188 0.0
O270 O 0.47919 0.54612 0.95776 0.0
O271 O 0.57533 0.56453 0.05431 0.0
O272 O 0.53377 0.53011 0.08153 0.0
C273 C 0.44734 0.54133 0.94735 0.0
O274 O 0.46721 0.47178 0.06866 0.0
O275 O 0.43022 0.44315 0.02585 0.0
O276 O 0.54129 0.47178 0.95843 0.0
O277 O 0.59327 0.49957 0.97502 0.0
C278 C 0.57306 0.56314 0.94167 0.0
C279 C 0.55718 0.55628 0.08063 0.0
C280 C 0.5671 0.47007 0.0529 0.0
O281 O 0.58612 0.49762 0.04912 0.0
O282 O 0.53519 0.46541 0.04255 0.0
C283 C 0.44032 0.53642 0.04115 0.0
O284 O 0.4385 0.44743 0.94553 0.0
O285 O 0.48011 0.48151 0.91797 0.0
C286 C 0.44196 0.44821 0.05803 0.0
C287 C 0.45643 0.45549 0.91902 0.0
Fe288 Fe 0.02586 0.4358 0.49464 0.0
O289 O 0.02745 0.48435 0.49895 0.0
Fe290 Fe 0.00536 0.50825 0.45789 0.0
Fe291 Fe 0.00668 0.50687 0.53785 0.0
O292 O 0.02745 0.48439 0.4955 0.0
O293 O 0.98553 0.53133 0.49697 0.0
O294 O 0.98561 0.53134 0.50023 0.0
Fe295 Fe 0.9866 0.57969 0.50172 0.0
C296 C 0.96323 0.44073 0.53702 0.0
O297 O 0.06124 0.44552 0.53654 0.0
O298 O 0.03229 0.47803 0.57216 0.0
O299 O 0.02386 0.58979 0.46636 0.0
O300 O 0.04835 0.54346 0.45982 0.0
O301 O 0.02988 0.48063 0.42171 0.0
O302 O 0.05862 0.44573 0.45545 0.0
O303 O 0.04991 0.54188 0.54354 0.0
O304 O 0.02538 0.58842 0.54072 0.0
C305 C 0.05284 0.46045 0.42687 0.0
O306 O 0.95157 0.57019 0.45965 0.0
O307 O 0.97871 0.53642 0.42364 0.0
O308 O 0.98931 0.42631 0.53062 0.0
O309 O 0.96346 0.47184 0.53398 0.0
C310 C 0.05612 0.45921 0.56641 0.0
C311 C 0.05092 0.57313 0.54882 0.0
C312 C 0.95761 0.55314 0.56839 0.0
O313 O 0.98114 0.53361 0.57388 0.0
O314 O 0.95291 0.56877 0.54014 0.0
C315 C 0.04884 0.57471 0.45751 0.0
O316 O 0.96208 0.47324 0.45399 0.0
O317 O 0.98645 0.42667 0.45597 0.0
C318 C 0.95548 0.55585 0.42978 0.0
C319 C 0.96082 0.44202 0.44829 0.0
Fe320 Fe 0.49021 0.95798 0.51057 0.0
O321 O 0.51855 0.99794 0.53423 0.0
Fe322 Fe 0.45899 0.98636 0.43363 0.0
Fe323 Fe 0.52605 1.00438 0.58489 0.0
O324 O 0.46679 0.99055 0.48407 0.0
O325 O 0.46671 0.99352 0.48421 0.0
O326 O 0.51836 1.00073 0.53443 0.0
Fe327 Fe 0.49605 0.03346 0.50685 0.0
C328 C 0.45973 0.95348 0.57834 0.0
O329 O 0.51848 0.92876 0.54115 0.0
O330 O 0.55516 0.96601 0.57783 0.0
O331 O 0.53243 0.03102 0.47158 0.0
O332 O 0.49868 0.02227 0.42279 0.0
O333 O 0.49204 0.95072 0.42691 0.0
O334 O 0.52679 0.95662 0.47485 0.0
O335 O 0.56191 0.04415 0.57325 0.0
O336 O 0.53015 0.07152 0.534 0.0
C337 C 0.52057 0.94726 0.44317 0.0
O338 O 0.46891 0.06298 0.47482 0.0
O339 O 0.43057 0.0254 0.44047 0.0
O340 O 0.45389 0.95801 0.54639 0.0
O341 O 0.48742 0.96672 0.59519 0.0
C342 C 0.54497 0.93664 0.56315 0.0
C343 C 0.55659 0.06994 0.5557 0.0
C344 C 0.46538 0.04523 0.57425 0.0
O345 O 0.49247 0.03921 0.5915 0.0
O346 O 0.45964 0.03705 0.54221 0.0
C347 C 0.52794 0.03137 0.43886 0.0
O348 O 0.42308 0.94728 0.44604 0.0
O349 O 0.45699 0.91968 0.4829 0.0
C350 C 0.44154 0.05519 0.45376 0.0
C351 C 0.42962 0.92121 0.46248 0.0
H352 H 0.23488 0.17613 0.32602 0.0
H353 H 0.14282 0.21483 0.28894 0.0
H354 H 0.20133 0.1404 0.36453 0.0
H355 H 0.10884 0.17863 0.32704 0.0
H356 H 0.06168 0.13957 0.42371 0.0
H357 H 0.09692 0.17224 0.38471 0.0
H358 H 0.15979 0.09308 0.37368 0.0
H359 H 0.12427 0.06012 0.41424 0.0
C360 C 0.2074 0.17672 0.32546 0.0
C361 C 0.19193 0.19857 0.30376 0.0
C362 C 0.18791 0.15598 0.34781 0.0
C363 C 0.15203 0.15628 0.34952 0.0
C364 C 0.13643 0.17781 0.32738 0.0
C365 C 0.15599 0.19862 0.30512 0.0
C366 C 0.08293 0.12876 0.41307 0.0
C367 C 0.08962 0.09672 0.42221 0.0
C368 C 0.10321 0.14768 0.39019 0.0
C369 C 0.13115 0.13548 0.37497 0.0
C370 C 0.13863 0.10368 0.38471 0.0
C371 C 0.11823 0.08461 0.40807 0.0
H372 H 0.75618 0.15004 0.38268 0.0
H373 H 0.83671 0.16706 0.31102 0.0
H374 H 0.78477 0.10669 0.40896 0.0
H375 H 0.86688 0.12488 0.33863 0.0
H376 H 0.9133 0.04197 0.38515 0.0
H377 H 0.87194 0.06996 0.35143 0.0
H378 H 0.83168 0.103 0.44685 0.0
H379 H 0.87178 0.07336 0.47989 0.0
C380 C 0.7802 0.14446 0.37261 0.0
C381 C 0.79454 0.16217 0.34512 0.0
C382 C 0.79674 0.11968 0.38783 0.0
C383 C 0.82859 0.11241 0.37653 0.0
C384 C 0.84222 0.12932 0.34794 0.0
C385 C 0.82514 0.15372 0.33215 0.0
C386 C 0.89441 0.054 0.39861 0.0
C387 C 0.8952 0.05511 0.43499 0.0
C388 C 0.87116 0.07064 0.37939 0.0
C389 C 0.84875 0.0895 0.39623 0.0
C390 C 0.84808 0.08854 0.43268 0.0
C391 C 0.87095 0.07137 0.45181 0.0
H392 H 0.86681 0.79235 0.29375 0.0
H393 H 0.78966 0.85725 0.31107 0.0
H394 H 0.90789 0.82806 0.3334 0.0
H395 H 0.83037 0.89235 0.35109 0.0
H396 H 0.94997 0.87214 0.44222 0.0
H397 H 0.91423 0.84012 0.39579 0.0
H398 H 0.88387 0.93099 0.35653 0.0
H399 H 0.91918 0.96314 0.40347 0.0
C400 C 0.85865 0.81435 0.30571 0.0
C401 C 0.82476 0.82174 0.2993 0.0
C402 C 0.88215 0.8347 0.32864 0.0
C403 C 0.87237 0.86297 0.34563 0.0
C404 C 0.83892 0.871 0.33823 0.0
C405 C 0.81545 0.85067 0.31538 0.0
C406 C 0.93583 0.88539 0.42363 0.0
C407 C 0.93728 0.92024 0.42682 0.0
C408 C 0.91554 0.867 0.39678 0.0
C409 C 0.89611 0.88295 0.37243 0.0
C410 C 0.8982 0.91788 0.37509 0.0
C411 C 0.9186 0.93633 0.40192 0.0
H412 H 0.13667 0.83746 0.29103 0.0
H413 H 0.21461 0.87378 0.37214 0.0
H414 H 0.09704 0.87264 0.31592 0.0
H415 H 0.17535 0.90955 0.39631 0.0
H416 H 0.10253 0.98685 0.4163 0.0
H417 H 0.13979 0.96002 0.37806 0.0
H418 H 0.07079 0.8676 0.3791 0.0
H419 H 0.03424 0.89406 0.41803 0.0
C420 C 0.14561 0.85352 0.31366 0.0
C421 C 0.17868 0.85281 0.32975 0.0
C422 C 0.12292 0.87355 0.32789 0.0
C423 C 0.13326 0.89388 0.35788 0.0
C424 C 0.16691 0.89439 0.37293 0.0
C425 C 0.18926 0.87379 0.35923 0.0
C426 C 0.09486 0.9611 0.40746 0.0
C427 C 0.06558 0.94246 0.41999 0.0
C428 C 0.11625 0.94574 0.38585 0.0
C429 C 0.10814 0.91177 0.37577 0.0
C430 C 0.07747 0.89387 0.38629 0.0
C431 C 0.05662 0.90896 0.40854 0.0
H432 H 0.1669 0.8492 0.67585 0.0
H433 H 0.26264 0.88865 0.63235 0.0
H434 H 0.13693 0.88858 0.64411 0.0
H435 H 0.23237 0.92835 0.60045 0.0
H436 H 0.14326 0.95206 0.51645 0.0
H437 H 0.18535 0.92532 0.55126 0.0
H438 H 0.13573 0.94981 0.64409 0.0
H439 H 0.09358 0.97573 0.60925 0.0
C440 C 0.18159 0.86638 0.65962 0.0
C441 C 0.21713 0.86584 0.65669 0.0
C442 C 0.16449 0.88917 0.64166 0.0
C443 C 0.18244 0.91186 0.62016 0.0
C444 C 0.21795 0.91122 0.61693 0.0
C445 C 0.23522 0.88856 0.63524 0.0
C446 C 0.14246 0.95293 0.54444 0.0
C447 C 0.11538 0.96579 0.56036 0.0
C448 C 0.16635 0.9375 0.56434 0.0
C449 C 0.16324 0.93485 0.60027 0.0
C450 C 0.13825 0.95088 0.61638 0.0
C451 C 0.1144 0.96601 0.59655 0.0
H452 H 0.15772 0.23285 0.68714 0.0
H453 H 0.19658 0.14378 0.72062 0.0
H454 H 0.12004 0.20041 0.6429 0.0
H455 H 0.1568 0.11047 0.678 0.0
H456 H 0.11175 0.0636 0.57372 0.0
H457 H 0.14672 0.09463 0.62118 0.0
H458 H 0.07245 0.16475 0.62525 0.0
H459 H 0.03925 0.13489 0.57581 0.0
C460 C 0.15751 0.20608 0.68565 0.0
C461 C 0.18026 0.19095 0.70745 0.0
C462 C 0.13559 0.18724 0.66021 0.0
C463 C 0.13501 0.15244 0.65627 0.0
C464 C 0.15686 0.13718 0.67923 0.0
C465 C 0.1795 0.15623 0.70412 0.0
C466 C 0.10301 0.08571 0.58484 0.0
C467 C 0.07296 0.09701 0.57084 0.0
C468 C 0.12293 0.10347 0.61244 0.0
C469 C 0.11284 0.1326 0.62757 0.0
C470 C 0.08195 0.14315 0.61404 0.0
C471 C 0.06261 0.12588 0.58575 0.0
H472 H 0.83476 0.14632 0.70225 0.0
H473 H 0.79597 0.15675 0.59677 0.0
H474 H 0.87672 0.11175 0.68074 0.0
H475 H 0.8379 0.12253 0.57577 0.0
H476 H 0.95939 0.12657 0.56738 0.0
H477 H 0.91624 0.1488 0.6013 0.0
H478 H 0.86975 0.04902 0.62011 0.0
H479 H 0.91312 0.02632 0.58577 0.0
C480 C 0.83448 0.14052 0.67465 0.0
C481 C 0.81231 0.15465 0.65116 0.0
C482 C 0.85843 0.12073 0.66247 0.0
C483 C 0.86033 0.11474 0.62675 0.0
C484 C 0.83666 0.12684 0.60349 0.0
C485 C 0.81275 0.14647 0.61556 0.0
C486 C 0.94059 0.10929 0.57949 0.0
C487 C 0.93939 0.07473 0.57366 0.0
C488 C 0.91597 0.12204 0.59886 0.0
C489 C 0.88979 0.10052 0.61291 0.0
C490 C 0.88994 0.06595 0.60951 0.0
C491 C 0.91478 0.05306 0.59006 0.0
H492 H 0.8664 0.79747 0.70101 0.0
H493 H 0.77784 0.84777 0.67866 0.0
H494 H 0.89983 0.83369 0.66278 0.0
H495 H 0.81058 0.88303 0.63895 0.0
H496 H 0.88804 0.96009 0.58574 0.0
H497 H 0.85289 0.92671 0.62618 0.0
H498 H 0.91031 0.84464 0.6069 0.0
H499 H 0.94561 0.87807 0.56847 0.0
C500 C 0.85381 0.81609 0.68778 0.0
C501 C 0.81902 0.81918 0.69323 0.0
C502 C 0.87304 0.83694 0.6653 0.0
C503 C 0.85823 0.86154 0.64669 0.0
C504 C 0.82351 0.86492 0.6526 0.0
C505 C 0.80441 0.8443 0.67548 0.0
C506 C 0.89294 0.93486 0.5901 0.0
C507 C 0.92015 0.92217 0.57388 0.0
C508 C 0.8727 0.91549 0.61342 0.0
C509 C 0.87875 0.88266 0.62095 0.0
C510 C 0.90513 0.8699 0.6034 0.0
C511 C 0.92542 0.88921 0.58075 0.0
H512 H 0.35267 0.12251 0.24651 0.0
H513 H 0.31262 0.16859 0.15686 0.0
H514 H 0.3719 0.07987 0.20913 0.0
H515 H 0.33384 0.12709 0.11893 0.0
H516 H 0.37575 0.04795 0.05599 0.0
H517 H 0.33715 0.07133 0.09542 0.0
H518 H 0.42028 0.08582 0.17555 0.0
H519 H 0.45776 0.06197 0.13696 0.0
C520 C 0.34766 0.12318 0.21869 0.0
C521 C 0.33177 0.14899 0.2044 0.0
C522 C 0.35877 0.09888 0.19725 0.0
C523 C 0.3553 0.10053 0.16096 0.0
C524 C 0.33686 0.12493 0.14674 0.0
C525 C 0.32489 0.14885 0.16838 0.0
C526 C 0.38519 0.05519 0.08244 0.0
C527 C 0.41978 0.05345 0.0934 0.0
C528 C 0.36326 0.06888 0.10488 0.0
C529 C 0.37558 0.08067 0.13865 0.0
C530 C 0.40953 0.07664 0.15003 0.0
C531 C 0.43126 0.0632 0.12775 0.0
H532 H 0.84358 0.32408 0.16324 0.0
H533 H 0.80396 0.41359 0.19781 0.0
H534 H 0.88037 0.3564 0.12452 0.0
H535 H 0.84112 0.44596 0.15888 0.0
H536 H 0.86561 0.46775 0.04266 0.0
H537 H 0.83692 0.4428 0.0918 0.0
H538 H 0.93054 0.40382 0.1247 0.0
H539 H 0.95928 0.42863 0.07567 0.0
C540 C 0.84313 0.35074 0.16294 0.0
C541 C 0.8206 0.36633 0.18307 0.0
C542 C 0.86436 0.36921 0.141 0.0
C543 C 0.86324 0.40348 0.13878 0.0
C544 C 0.84203 0.41943 0.16011 0.0
C545 C 0.82094 0.40096 0.18233 0.0
C546 C 0.88 0.45393 0.06047 0.0
C547 C 0.9144 0.44972 0.05529 0.0
C548 C 0.86381 0.4401 0.08873 0.0
C549 C 0.88174 0.42162 0.11184 0.0
C550 C 0.91634 0.41801 0.10708 0.0
C551 C 0.93265 0.43215 0.0791 0.0
H552 H 0.67503 0.87405 0.20932 0.0
H553 H 0.67888 0.80314 0.12382 0.0
H554 H 0.63988 0.90571 0.17273 0.0
H555 H 0.64471 0.83543 0.08687 0.0
H556 H 0.54988 0.87535 0.04294 0.0
H557 H 0.58622 0.84622 0.08085 0.0
H558 H 0.63878 0.94063 0.12409 0.0
H559 H 0.60147 0.96986 0.08675 0.0
C560 C 0.6689 0.86552 0.18252 0.0
C561 C 0.67959 0.83593 0.16952 0.0
C562 C 0.6488 0.88377 0.1615 0.0
C563 C 0.63911 0.87295 0.12695 0.0
C564 C 0.65101 0.84407 0.1136 0.0
C565 C 0.6709 0.8257 0.13468 0.0
C566 C 0.56909 0.88992 0.06065 0.0
C567 C 0.57297 0.92491 0.06168 0.0
C568 C 0.59014 0.87321 0.0822 0.0
C569 C 0.61587 0.89105 0.10512 0.0
C570 C 0.61913 0.9261 0.10687 0.0
C571 C 0.59777 0.94286 0.08546 0.0
H572 H 0.14233 0.74348 0.19756 0.0
H573 H 0.22317 0.69779 0.15007 0.0
H574 H 0.09893 0.70935 0.15847 0.0
H575 H 0.17964 0.66402 0.11142 0.0
H576 H 0.0874 0.57552 0.11577 0.0
H577 H 0.12088 0.62142 0.15033 0.0
H578 H 0.09572 0.69038 0.07364 0.0
H579 H 0.06194 0.64426 0.03838 0.0
C580 C 0.15093 0.72683 0.17833 0.0
C581 C 0.18614 0.72289 0.17727 0.0
C582 C 0.1261 0.70754 0.15598 0.0
C583 C 0.13632 0.68439 0.1323 0.0
C584 C 0.1715 0.68199 0.1296 0.0
C585 C 0.19627 0.70115 0.15184 0.0
C586 C 0.0884 0.60049 0.10645 0.0
C587 C 0.07259 0.60626 0.07411 0.0
C588 C 0.1074 0.62665 0.12629 0.0
C589 C 0.11079 0.65896 0.11422 0.0
C590 C 0.09313 0.66544 0.0832 0.0
C591 C 0.0739 0.63914 0.06322 0.0
H592 H 0.27356 0.79499 0.85814 0.0
H593 H 0.30885 0.86195 0.77943 0.0
H594 H 0.29988 0.83577 0.90317 0.0
H595 H 0.3375 0.90178 0.82401 0.0
H596 H 0.38399 0.97354 0.90792 0.0
H597 H 0.33796 0.94069 0.87045 0.0
H598 H 0.35589 0.85238 0.92468 0.0
H599 H 0.40007 0.8855 0.96236 0.0
C600 C 0.2871 0.81848 0.85061 0.0
C601 C 0.28963 0.82532 0.81553 0.0
C602 C 0.30227 0.84184 0.8763 0.0
C603 C 0.32134 0.872 0.86736 0.0
C604 C 0.32264 0.8792 0.83207 0.0
C605 C 0.30657 0.85622 0.80644 0.0
C606 C 0.37686 0.94735 0.91237 0.0
C607 C 0.39508 0.9318 0.93783 0.0
C608 C 0.35093 0.92841 0.89074 0.0
C609 C 0.34335 0.89369 0.89416 0.0
C610 C 0.36036 0.87898 0.92139 0.0
C611 C 0.38589 0.89787 0.94297 0.0
H612 H 0.13431 0.31181 0.82272 0.0
H613 H 0.22375 0.36798 0.87798 0.0
H614 H 0.09718 0.34807 0.84905 0.0
H615 H 0.18665 0.40275 0.90629 0.0
H616 H 0.12329 0.48353 0.92512 0.0
H617 H 0.15616 0.44626 0.89418 0.0
H618 H 0.07088 0.36659 0.89726 0.0
H619 H 0.03737 0.40498 0.92621 0.0
C620 C 0.14596 0.3314 0.84118 0.0
C621 C 0.18205 0.33731 0.84792 0.0
C622 C 0.12461 0.35226 0.85639 0.0
C623 C 0.13881 0.37907 0.87929 0.0
C624 C 0.17473 0.38332 0.88778 0.0
C625 C 0.19607 0.36299 0.872 0.0
C626 C 0.11133 0.45829 0.91818 0.0
C627 C 0.07779 0.44714 0.92764 0.0
C628 C 0.13036 0.43663 0.90104 0.0
C629 C 0.11672 0.40293 0.89394 0.0
C630 C 0.08235 0.39229 0.90203 0.0
C631 C 0.06299 0.41429 0.91849 0.0
H632 H 0.59576 0.17787 0.78594 0.0
H633 H 0.69003 0.19705 0.85202 0.0
H634 H 0.56999 0.14005 0.82803 0.0
H635 H 0.66415 0.15927 0.89386 0.0
H636 H 0.58558 0.13476 0.97732 0.0
H637 H 0.61364 0.16607 0.93182 0.0
H638 H 0.57824 0.08484 0.85746 0.0
H639 H 0.55001 0.05313 0.90312 0.0
C640 C 0.61109 0.17373 0.80921 0.0
C641 C 0.64472 0.19072 0.81594 0.0
C642 C 0.59641 0.15198 0.83312 0.0
C643 C 0.61507 0.14715 0.86416 0.0
C644 C 0.64918 0.163 0.87021 0.0
C645 C 0.66395 0.1845 0.84623 0.0
C646 C 0.58361 0.12357 0.95127 0.0
C647 C 0.56553 0.09155 0.94372 0.0
C648 C 0.59995 0.14137 0.92536 0.0
C649 C 0.59823 0.12764 0.89136 0.0
C650 C 0.57983 0.09584 0.88357 0.0
C651 C 0.5638 0.07778 0.90965 0.0
H652 H 0.89738 0.73549 0.82125 0.0
H653 H 0.81507 0.71846 0.89134 0.0
H654 H 0.93212 0.70196 0.85642 0.0
H655 H 0.84985 0.6848 0.92618 0.0
H656 H 0.88574 0.57884 0.91386 0.0
H657 H 0.86177 0.62756 0.89443 0.0
H658 H 0.95936 0.68892 0.92127 0.0
H659 H 0.98378 0.63969 0.94173 0.0
C660 C 0.88727 0.72567 0.84488 0.0
C661 C 0.85323 0.72889 0.85315 0.0
C662 C 0.90724 0.70665 0.86504 0.0
C663 C 0.89328 0.69048 0.8935 0.0
C664 C 0.86093 0.69694 0.9041 0.0
C665 C 0.84111 0.71626 0.88419 0.0
C666 C 0.90236 0.60257 0.91552 0.0
C667 C 0.93678 0.60535 0.92914 0.0
C668 C 0.88839 0.63055 0.90488 0.0
C669 C 0.90858 0.66194 0.90711 0.0
C670 C 0.94327 0.66491 0.91983 0.0
C671 C 0.95719 0.63682 0.93125 0.0
H672 H 0.18398 0.30886 0.10031 0.0
H673 H 0.11998 0.30664 0.18807 0.0
H674 H 0.14293 0.33855 0.06808 0.0
H675 H 0.07935 0.33651 0.15589 0.0
H676 H 0.0524 0.38093 0.01396 0.0
H677 H 0.0792 0.3371 0.04302 0.0
H678 H 0.09153 0.39735 0.13851 0.0
H679 H 0.06543 0.44111 0.1095 0.0
C680 C 0.16082 0.31399 0.11244 0.0
C681 C 0.15556 0.30578 0.14694 0.0
C682 C 0.13724 0.33086 0.09391 0.0
C683 C 0.10817 0.34009 0.10966 0.0
C684 C 0.10172 0.32993 0.14327 0.0
C685 C 0.12501 0.31274 0.16163 0.0
C686 C 0.06005 0.38434 0.04137 0.0
C687 C 0.05693 0.41437 0.05954 0.0
C688 C 0.07558 0.35942 0.05788 0.0
C689 C 0.08744 0.36388 0.09297 0.0
C690 C 0.08233 0.39309 0.11154 0.0
C691 C 0.06753 0.41819 0.09493 0.0
H692 H 0.16833 0.69816 0.82552 0.0
H693 H 0.19968 0.60533 0.78892 0.0
H694 H 0.1286 0.66758 0.86344 0.0
H695 H 0.16015 0.57498 0.82702 0.0
H696 H 0.13361 0.5506 0.9412 0.0
H697 H 0.16471 0.57721 0.89442 0.0
H698 H 0.0744 0.62172 0.86209 0.0
H699 H 0.04295 0.59479 0.90877 0.0
C700 C 0.16635 0.67124 0.82519 0.0
C701 C 0.18738 0.65414 0.80463 0.0
C702 C 0.14352 0.65379 0.84671 0.0
C703 C 0.1417 0.61907 0.84823 0.0
C704 C 0.16143 0.60183 0.82644 0.0
C705 C 0.18392 0.6192 0.80461 0.0
C706 C 0.12035 0.56594 0.92402 0.0
C707 C 0.086 0.57081 0.92865 0.0
C708 C 0.13801 0.58088 0.89713 0.0
C709 C 0.12178 0.60132 0.87474 0.0
C710 C 0.08735 0.60604 0.87912 0.0
C711 C 0.06944 0.5906 0.9057 0.0
H712 H 0.33993 0.19306 0.85461 0.0
H713 H 0.3056 0.09349 0.81173 0.0
H714 H 0.37855 0.1711 0.89674 0.0
H715 H 0.34294 0.07118 0.85495 0.0
H716 H 0.44006 0.04383 0.90935 0.0
H717 H 0.40109 0.06689 0.86842 0.0
H718 H 0.38455 0.14122 0.94662 0.0
H719 H 0.42489 0.11902 0.98693 0.0
C720 C 0.34004 0.16636 0.85468 0.0
C721 C 0.31968 0.14504 0.82973 0.0
C722 C 0.36222 0.15368 0.87897 0.0
C723 C 0.3643 0.11927 0.87927 0.0
C724 C 0.34283 0.09787 0.8551 0.0
C725 C 0.32103 0.11061 0.8305 0.0
C726 C 0.42828 0.06525 0.91771 0.0
C727 C 0.43568 0.07961 0.95141 0.0
C728 C 0.40558 0.07833 0.89432 0.0
C729 C 0.38918 0.10583 0.90412 0.0
C730 C 0.39692 0.12036 0.93781 0.0
C731 C 0.42005 0.10756 0.96105 0.0
H732 H 0.77692 0.3251 0.81004 0.0
H733 H 0.85832 0.26408 0.79787 0.0
H734 H 0.81485 0.36247 0.85083 0.0
H735 H 0.89667 0.30206 0.83852 0.0
H736 H 0.93649 0.37347 0.94079 0.0
H737 H 0.90167 0.32828 0.90494 0.0
H738 H 0.87062 0.40027 0.83426 0.0
H739 H 0.90522 0.44486 0.86906 0.0
C740 C 0.80254 0.31912 0.81688 0.0
C741 C 0.81456 0.2916 0.80098 0.0
C742 C 0.82439 0.3407 0.8399 0.0
C743 C 0.8587 0.33518 0.84749 0.0
C744 C 0.87027 0.30671 0.83311 0.0
C745 C 0.84842 0.28518 0.80978 0.0
C746 C 0.92278 0.37947 0.91721 0.0
C747 C 0.92314 0.41282 0.90812 0.0
C748 C 0.9028 0.35369 0.89688 0.0
C749 C 0.88288 0.36107 0.86746 0.0
C750 C 0.88506 0.39407 0.85734 0.0
C751 C 0.90502 0.41958 0.87729 0.0
H752 H 0.71914 0.86892 0.83032 0.0
H753 H 0.6146 0.83512 0.78943 0.0
H754 H 0.69758 0.91094 0.86761 0.0
H755 H 0.59331 0.87633 0.82643 0.0
H756 H 0.55992 0.96306 0.87541 0.0
H757 H 0.59342 0.93587 0.8343 0.0
H758 H 0.66151 0.91191 0.91894 0.0
H759 H 0.62847 0.94043 0.95995 0.0
C760 C 0.69167 0.8706 0.82912 0.0
C761 C 0.66855 0.84864 0.807 0.0
C762 C 0.67935 0.89456 0.85051 0.0
C763 C 0.64379 0.89724 0.84973 0.0
C764 C 0.62094 0.8755 0.8272 0.0
C765 C 0.63313 0.85154 0.80619 0.0
C766 C 0.58282 0.95303 0.88499 0.0
C767 C 0.59168 0.95368 0.92067 0.0
C768 C 0.60181 0.93719 0.86157 0.0
C769 C 0.62958 0.92099 0.87346 0.0
C770 C 0.64031 0.9242 0.90895 0.0
C771 C 0.6215 0.94058 0.93243 0.0
H772 H 0.87164 0.69406 0.18285 0.0
H773 H 0.78175 0.65473 0.11671 0.0
H774 H 0.90645 0.65866 0.15141 0.0
H775 H 0.81658 0.6209 0.0839 0.0
H776 H 0.87235 0.53725 0.05263 0.0
H777 H 0.84163 0.57291 0.08802 0.0
H778 H 0.93393 0.64525 0.10163 0.0
H779 H 0.96511 0.60818 0.06771 0.0
C780 C 0.85956 0.67854 0.16092 0.0
C781 C 0.82393 0.67717 0.15224 0.0
C782 C 0.87952 0.65811 0.14285 0.0
C783 C 0.86442 0.63618 0.11533 0.0
C784 C 0.82911 0.6364 0.10562 0.0
C785 C 0.8091 0.65624 0.12409 0.0
C786 C 0.88622 0.56049 0.06382 0.0
C787 C 0.9211 0.56991 0.05747 0.0
C788 C 0.86847 0.58131 0.08371 0.0
C789 C 0.88481 0.61267 0.09709 0.0
C790 C 0.92031 0.62138 0.09198 0.0
C791 C 0.93831 0.6001 0.07259 0.0
H792 H 0.41305 0.81591 0.21969 0.0
H793 H 0.31498 0.82488 0.16558 0.0
H794 H 0.44261 0.85399 0.17977 0.0
H795 H 0.34464 0.86251 0.12588 0.0
H796 H 0.41694 0.87804 0.03497 0.0
H797 H 0.38848 0.84691 0.08055 0.0
H798 H 0.4435 0.9167 0.15815 0.0
H799 H 0.47179 0.94848 0.11228 0.0
C800 C 0.39777 0.82641 0.19973 0.0
C801 C 0.36174 0.81707 0.1955 0.0
C802 C 0.41468 0.8482 0.17702 0.0
C803 C 0.39581 0.8607 0.14969 0.0
C804 C 0.3597 0.85278 0.14658 0.0
C805 C 0.34279 0.83131 0.16937 0.0
C806 C 0.42313 0.88666 0.06175 0.0
C807 C 0.44653 0.91561 0.07019 0.0
C808 C 0.40666 0.86903 0.08774 0.0
C809 C 0.41372 0.87967 0.12267 0.0
C810 C 0.4377 0.90816 0.13131 0.0
C811 C 0.45372 0.92627 0.10517 0.0
H812 H 0.75669 0.19316 0.16102 0.0
H813 H 0.66903 0.18148 0.22492 0.0
H814 H 0.72911 0.14625 0.12301 0.0
H815 H 0.64155 0.13555 0.18719 0.0
H816 H 0.59831 0.04652 0.12714 0.0
H817 H 0.64142 0.07982 0.16685 0.0
H818 H 0.68071 0.1355 0.08085 0.0
H819 H 0.63855 0.10084 0.04118 0.0
C820 C 0.73173 0.18044 0.16712 0.0
C821 C 0.71515 0.19102 0.19608 0.0
C822 C 0.71591 0.1536 0.14534 0.0
C823 C 0.68318 0.13687 0.15208 0.0
C824 C 0.66712 0.14713 0.18154 0.0
C825 C 0.68287 0.17375 0.2032 0.0
C826 C 0.61722 0.06497 0.11672 0.0
C827 C 0.61543 0.07118 0.0813 0.0
C828 C 0.64159 0.08436 0.13942 0.0
C829 C 0.66397 0.11098 0.12722 0.0
C830 C 0.66405 0.11518 0.09121 0.0
C831 C 0.63997 0.09532 0.0684 0.0
H832 H 0.65144 0.7118 0.79125 0.0
H833 H 0.73938 0.66352 0.82246 0.0
H834 H 0.61461 0.67426 0.82637 0.0
H835 H 0.70268 0.62632 0.85773 0.0
H836 H 0.63879 0.59646 0.95089 0.0
H837 H 0.67258 0.63076 0.91162 0.0
H838 H 0.58779 0.61398 0.83392 0.0
H839 H 0.55341 0.57872 0.87371 0.0
C840 C 0.66302 0.69312 0.80542 0.0
C841 C 0.69874 0.69106 0.80379 0.0
C842 C 0.64169 0.67135 0.82551 0.0
C843 C 0.65537 0.64705 0.84529 0.0
C844 C 0.691 0.64477 0.8433 0.0
C845 C 0.71217 0.66614 0.8228 0.0
C846 C 0.62692 0.59989 0.92552 0.0
C847 C 0.59286 0.58453 0.91596 0.0
C848 C 0.64671 0.61957 0.90268 0.0
C849 C 0.63336 0.62534 0.86921 0.0
C850 C 0.59914 0.61036 0.85946 0.0
C851 C 0.57935 0.58995 0.8823 0.0
H852 H 0.30585 0.64176 0.82246 0.0
H853 H 0.39801 0.71406 0.83231 0.0
H854 H 0.33476 0.60397 0.85713 0.0
H855 H 0.42803 0.67529 0.86552 0.0
H856 H 0.46152 0.60976 0.95283 0.0
H857 H 0.43424 0.64973 0.91832 0.0
H858 H 0.37494 0.56787 0.85706 0.0
H859 H 0.40045 0.52862 0.89278 0.0
C860 C 0.33262 0.64933 0.83146 0.0
C861 C 0.34968 0.68086 0.82436 0.0
C862 C 0.3494 0.62749 0.85132 0.0
C863 C 0.38408 0.63617 0.86409 0.0
C864 C 0.40126 0.66772 0.85667 0.0
C865 C 0.38416 0.68989 0.83728 0.0
C866 C 0.44258 0.60054 0.93197 0.0
C867 C 0.43273 0.56614 0.92582 0.0
C868 C 0.42704 0.62339 0.91198 0.0
C869 C 0.40187 0.61225 0.88493 0.0
C870 C 0.39321 0.57768 0.87823 0.0
C871 C 0.40806 0.55503 0.89862 0.0
H872 H 0.369 0.28438 0.78598 0.0
H873 H 0.29887 0.35827 0.78643 0.0
H874 H 0.41534 0.32585 0.81172 0.0
H875 H 0.3449 0.39933 0.81277 0.0
H876 H 0.43327 0.47245 0.85495 0.0
H877 H 0.4012 0.43385 0.81024 0.0
H878 H 0.42383 0.35062 0.87018 0.0
H879 H 0.45566 0.38904 0.91417 0.0
C880 C 0.36352 0.30954 0.79106 0.0
C881 C 0.32995 0.31775 0.78466 0.0
C882 C 0.39012 0.33331 0.80591 0.0
C883 C 0.38381 0.36587 0.81465 0.0
C884 C 0.35085 0.37463 0.80612 0.0
C885 C 0.32427 0.35089 0.79131 0.0
C886 C 0.43253 0.44585 0.85762 0.0
C887 C 0.44698 0.43358 0.88777 0.0
C888 C 0.41383 0.42376 0.83234 0.0
C889 C 0.4096 0.38911 0.83678 0.0
C890 C 0.42676 0.37702 0.86562 0.0
C891 C 0.44502 0.39902 0.89091 0.0
H892 H 0.63011 0.3241 0.81379 0.0
H893 H 0.7256 0.36251 0.87158 0.0
H894 H 0.59913 0.35999 0.84855 0.0
H895 H 0.69561 0.40088 0.90452 0.0
H896 H 0.63099 0.44672 0.98065 0.0
H897 H 0.66008 0.40769 0.94753 0.0
H898 H 0.58554 0.4111 0.86081 0.0
H899 H 0.55509 0.44756 0.89543 0.0
C900 C 0.64457 0.34098 0.83345 0.0
C901 C 0.68019 0.34072 0.83998 0.0
C902 C 0.62687 0.3618 0.8534 0.0
C903 C 0.64458 0.38372 0.87969 0.0
C904 C 0.68061 0.38393 0.88536 0.0
C905 C 0.69805 0.36226 0.86615 0.0
C906 C 0.62077 0.43863 0.95462 0.0
C907 C 0.59081 0.44989 0.94058 0.0
C908 C 0.63765 0.41655 0.93532 0.0
C909 C 0.62564 0.40614 0.90101 0.0
C910 C 0.59543 0.41765 0.88721 0.0
C911 C 0.57795 0.43881 0.90697 0.0
H912 H 0.67979 0.36343 0.2034 0.0
H913 H 0.65782 0.29434 0.11468 0.0
H914 H 0.64496 0.40161 0.17511 0.0
H915 H 0.62298 0.33262 0.08643 0.0
H916 H 0.54181 0.40338 0.05768 0.0
H917 H 0.56903 0.36139 0.08958 0.0
H918 H 0.65469 0.43621 0.12369 0.0
H919 H 0.628 0.47773 0.09216 0.0
C920 C 0.66709 0.3561 0.17812 0.0
C921 C 0.67184 0.32586 0.16126 0.0
C922 C 0.64729 0.3781 0.1618 0.0
C923 C 0.63143 0.37032 0.12835 0.0
C924 C 0.63468 0.33933 0.11223 0.0
C925 C 0.65481 0.31746 0.1284 0.0
C926 C 0.5664 0.41082 0.07207 0.0
C927 C 0.58268 0.44399 0.07219 0.0
C928 C 0.58203 0.38676 0.09026 0.0
C929 C 0.61393 0.39551 0.10943 0.0
C930 C 0.6299 0.42869 0.10969 0.0
C931 C 0.61464 0.45249 0.09126 0.0
H932 H 0.63618 0.72346 0.22244 0.0
H933 H 0.71127 0.65463 0.21559 0.0
H934 H 0.59191 0.68146 0.19412 0.0
H935 H 0.66705 0.61291 0.18694 0.0
H936 H 0.57957 0.5381 0.1442 0.0
H937 H 0.61013 0.57593 0.19042 0.0
H938 H 0.58743 0.66034 0.13245 0.0
H939 H 0.55743 0.62264 0.08661 0.0
C940 C 0.64316 0.69923 0.21544 0.0
C941 C 0.67747 0.69262 0.22073 0.0
C942 C 0.61776 0.6752 0.1992 0.0
C943 C 0.62604 0.64398 0.18817 0.0
C944 C 0.65977 0.63662 0.19545 0.0
C945 C 0.68524 0.6607 0.21149 0.0
C946 C 0.58005 0.56475 0.1422 0.0
C947 C 0.56622 0.57767 0.11213 0.0
C948 C 0.59777 0.58635 0.16837 0.0
C949 C 0.60137 0.62107 0.16491 0.0
C950 C 0.58485 0.63377 0.13607 0.0
C951 C 0.56771 0.61225 0.10979 0.0
H952 H 0.3302 0.63901 0.1944 0.0
H953 H 0.35989 0.71237 0.11957 0.0
H954 H 0.35912 0.59841 0.16222 0.0
H955 H 0.38896 0.67219 0.08796 0.0
H956 H 0.46772 0.60023 0.06273 0.0
H957 H 0.44087 0.64028 0.09741 0.0
H958 H 0.34918 0.5685 0.1012 0.0
H959 H 0.3757 0.52855 0.0662 0.0
C960 C 0.34313 0.64655 0.17134 0.0
C961 C 0.34265 0.67887 0.15951 0.0
C962 C 0.3595 0.62329 0.15283 0.0
C963 C 0.37631 0.63214 0.12255 0.0
C964 C 0.37648 0.66469 0.11129 0.0
C965 C 0.35964 0.68765 0.12935 0.0
C966 C 0.4418 0.593 0.07084 0.0
C967 C 0.42381 0.56122 0.06143 0.0
C968 C 0.42642 0.61595 0.0907 0.0
C969 C 0.39297 0.60747 0.10215 0.0
C970 C 0.37511 0.57563 0.09305 0.0
C971 C 0.39022 0.55288 0.0727 0.0
H972 H 0.36581 0.30209 0.21129 0.0
H973 H 0.27667 0.34678 0.1759 0.0
H974 H 0.4024 0.3394 0.17574 0.0
H975 H 0.31311 0.38376 0.14042 0.0
H976 H 0.37753 0.4124 0.0481 0.0
H977 H 0.34426 0.37812 0.08765 0.0
H978 H 0.42737 0.39985 0.16678 0.0
H979 H 0.46132 0.43502 0.12662 0.0
C980 C 0.35392 0.31992 0.19613 0.0
C981 C 0.31796 0.32103 0.1966 0.0
C982 C 0.37508 0.34154 0.17581 0.0
C983 C 0.36094 0.3647 0.15484 0.0
C984 C 0.32509 0.36611 0.15577 0.0
C985 C 0.30407 0.34485 0.17636 0.0
C986 C 0.38915 0.41005 0.07383 0.0
C987 C 0.42257 0.42674 0.08375 0.0
C988 C 0.36966 0.3904 0.0968 0.0
C989 C 0.38272 0.38612 0.13075 0.0
C990 C 0.41634 0.40238 0.14084 0.0
C991 C 0.43583 0.4227 0.11782 0.0
H992 H 0.82349 0.66577 0.66759 0.0
H993 H 0.8618 0.61594 0.75574 0.0
H994 H 0.85291 0.63197 0.6292 0.0
H995 H 0.89071 0.58117 0.7169 0.0
H996 H 0.97529 0.56486 0.63772 0.0
H997 H 0.93988 0.58719 0.68087 0.0
H998 H 0.85327 0.5775 0.60477 0.0
H999 H 0.88909 0.55673 0.56166 0.0
C1000 C 0.83773 0.64718 0.67876 0.0
C1001 C 0.84036 0.64367 0.71476 0.0
C1002 C 0.85446 0.62754 0.65666 0.0
C1003 C 0.87412 0.60367 0.6699 0.0
C1004 C 0.87604 0.5995 0.70588 0.0
C1005 C 0.85928 0.61928 0.72809 0.0
C1006 C 0.94845 0.56688 0.63062 0.0
C1007 C 0.93498 0.55961 0.59636 0.0
C1008 C 0.92812 0.57961 0.65528 0.0
C1009 C 0.8939 0.58482 0.64607 0.0
C1010 C 0.87978 0.57477 0.61248 0.0
C1011 C 0.9002 0.56265 0.58784 0.0
H1012 H 0.38254 0.80087 0.71564 0.0
H1013 H 0.30517 0.79356 0.63019 0.0
H1014 H 0.42054 0.84003 0.68399 0.0
H1015 H 0.34189 0.8339 0.59975 0.0
H1016 H 0.42012 0.90028 0.54503 0.0
H1017 H 0.39076 0.85154 0.57076 0.0
H1018 H 0.42009 0.8969 0.6731 0.0
H1019 H 0.45133 0.94493 0.64713 0.0
C1020 C 0.37394 0.80701 0.68983 0.0
C1021 C 0.34052 0.79477 0.67581 0.0
C1022 C 0.39547 0.82987 0.67192 0.0
C1023 C 0.38381 0.84103 0.63986 0.0
C1024 C 0.35183 0.82605 0.62438 0.0
C1025 C 0.33061 0.80288 0.64198 0.0
C1026 C 0.41997 0.90002 0.57304 0.0
C1027 C 0.43775 0.92653 0.59415 0.0
C1028 C 0.40323 0.87195 0.58782 0.0
C1029 C 0.40324 0.87006 0.62404 0.0
C1030 C 0.42034 0.89704 0.64512 0.0
C1031 C 0.43772 0.92485 0.6303 0.0
H1032 H 0.1884 0.34035 0.66926 0.0
H1033 H 0.12768 0.36824 0.75265 0.0
H1034 H 0.16305 0.37879 0.63197 0.0
H1035 H 0.10405 0.40872 0.71648 0.0
H1036 H 0.03262 0.43769 0.62727 0.0
H1037 H 0.06393 0.40988 0.67103 0.0
H1038 H 0.15772 0.43214 0.61677 0.0
H1039 H 0.12528 0.45759 0.57171 0.0
C1040 C 0.17017 0.35538 0.67976 0.0
C1041 C 0.15958 0.35118 0.71349 0.0
C1042 C 0.15581 0.37772 0.65856 0.0
C1043 C 0.13127 0.39699 0.67105 0.0
C1044 C 0.12213 0.3938 0.70558 0.0
C1045 C 0.13578 0.37077 0.72641 0.0
C1046 C 0.0601 0.43716 0.62525 0.0
C1047 C 0.07663 0.4494 0.59623 0.0
C1048 C 0.0782 0.42132 0.65038 0.0
C1049 C 0.11342 0.41819 0.64731 0.0
C1050 C 0.13044 0.43304 0.6195 0.0
C1051 C 0.11205 0.44799 0.59389 0.0
H1052 H 0.65384 0.25742 0.65417 0.0
H1053 H 0.71887 0.1822 0.67698 0.0
H1054 H 0.62264 0.22117 0.60768 0.0
H1055 H 0.68673 0.14494 0.63261 0.0
H1056 H 0.62658 0.07779 0.5543 0.0
H1057 H 0.66718 0.12506 0.57849 0.0
H1058 H 0.58081 0.17623 0.60406 0.0
H1059 H 0.54097 0.13011 0.57711 0.0
C1060 C 0.66179 0.23327 0.6487 0.0
C1061 C 0.68886 0.22258 0.66881 0.0
C1062 C 0.64368 0.21224 0.62236 0.0
C1063 C 0.65144 0.17959 0.6165 0.0
C1064 C 0.68002 0.16989 0.63555 0.0
C1065 C 0.69865 0.19128 0.66117 0.0
C1066 C 0.6166 0.09973 0.56422 0.0
C1067 C 0.58085 0.10049 0.56407 0.0
C1068 C 0.63977 0.12671 0.5785 0.0
C1069 C 0.62757 0.15446 0.59422 0.0
C1070 C 0.5916 0.15578 0.59199 0.0
C1071 C 0.56854 0.12921 0.57669 0.0
H1072 H 0.78631 0.29425 0.37453 0.0
H1073 H 0.80476 0.36094 0.29078 0.0
H1074 H 0.82829 0.33089 0.41222 0.0
H1075 H 0.84691 0.39734 0.3285 0.0
H1076 H 0.90734 0.46652 0.41323 0.0
H1077 H 0.85671 0.43477 0.38179 0.0
H1078 H 0.8921 0.343 0.41217 0.0
H1079 H 0.94243 0.37453 0.4437 0.0
C1080 C 0.79884 0.31696 0.36425 0.0
C1081 C 0.79234 0.32441 0.32942 0.0
C1082 C 0.82308 0.33785 0.38585 0.0
C1083 C 0.84124 0.36677 0.37321 0.0
C1084 C 0.83323 0.37532 0.33907 0.0
C1085 C 0.80911 0.35434 0.3174 0.0
C1086 C 0.90415 0.43957 0.41346 0.0
C1087 C 0.9291 0.42304 0.43076 0.0
C1088 C 0.87522 0.42141 0.39533 0.0
C1089 C 0.8704 0.38639 0.39449 0.0
C1090 C 0.89483 0.36996 0.41264 0.0
C1091 C 0.92388 0.38805 0.43045 0.0
H1092 H 0.62908 0.80936 0.32692 0.0
H1093 H 0.70487 0.89629 0.3503 0.0
H1094 H 0.58727 0.83509 0.35995 0.0
H1095 H 0.66311 0.92187 0.38332 0.0
H1096 H 0.58736 0.9429 0.46601 0.0
H1097 H 0.62982 0.91447 0.43709 0.0
H1098 H 0.55513 0.88466 0.35132 0.0
H1099 H 0.51255 0.91307 0.38011 0.0
C1100 C 0.63698 0.83374 0.33947 0.0
C1101 C 0.67026 0.85084 0.33588 0.0
C1102 C 0.61294 0.84857 0.35814 0.0
C1103 C 0.62184 0.88058 0.374 0.0
C1104 C 0.65554 0.89711 0.37153 0.0
C1105 C 0.67942 0.88249 0.35252 0.0
C1106 C 0.57994 0.93031 0.44097 0.0
C1107 C 0.54652 0.93036 0.42535 0.0
C1108 C 0.60433 0.9141 0.42439 0.0
C1109 C 0.59576 0.89724 0.39201 0.0
C1110 C 0.56234 0.89711 0.37647 0.0
C1111 C 0.53805 0.91362 0.39285 0.0
H1112 H 0.20129 0.72236 0.36986 0.0
H1113 H 0.14086 0.66259 0.28729 0.0
H1114 H 0.1755 0.6846 0.41236 0.0
H1115 H 0.11555 0.62502 0.32951 0.0
H1116 H 0.09032 0.55111 0.41055 0.0
H1117 H 0.13078 0.58403 0.37506 0.0
H1118 H 0.11209 0.67407 0.42975 0.0
H1119 H 0.07147 0.64128 0.46508 0.0
C1120 C 0.18304 0.70086 0.36076 0.0
C1121 C 0.17285 0.69553 0.32532 0.0
C1122 C 0.16827 0.67938 0.38505 0.0
C1123 C 0.14361 0.65192 0.37416 0.0
C1124 C 0.1348 0.64575 0.33859 0.0
C1125 C 0.1491 0.66743 0.31445 0.0
C1126 C 0.09544 0.57785 0.41552 0.0
C1127 C 0.07742 0.59373 0.44024 0.0
C1128 C 0.11848 0.59665 0.39514 0.0
C1129 C 0.12434 0.63156 0.39957 0.0
C1130 C 0.10819 0.64718 0.42595 0.0
C1131 C 0.08475 0.62846 0.44595 0.0
H1132 H 0.28969 0.17178 0.37035 0.0
H1133 H 0.38623 0.20971 0.32792 0.0
H1134 H 0.32064 0.14273 0.41349 0.0
H1135 H 0.41742 0.17952 0.37044 0.0
H1136 H 0.46441 0.12238 0.45627 0.0
H1137 H 0.43464 0.16621 0.4313 0.0
H1138 H 0.34661 0.09286 0.39978 0.0
H1139 H 0.37582 0.04953 0.42483 0.0
C1140 C 0.3177 0.17456 0.37095 0.0
C1141 C 0.33568 0.19253 0.34576 0.0
C1142 C 0.33539 0.15782 0.39547 0.0
C1143 C 0.37132 0.15815 0.39475 0.0
C1144 C 0.38971 0.17884 0.37165 0.0
C1145 C 0.37194 0.19611 0.34732 0.0
C1146 C 0.43843 0.11579 0.44456 0.0
C1147 C 0.42254 0.08242 0.4423 0.0
C1148 C 0.42152 0.14086 0.43015 0.0
C1149 C 0.38828 0.13302 0.41372 0.0
C1150 C 0.37198 0.09987 0.41278 0.0
C1151 C 0.3889 0.07491 0.42684 0.0
H1152 H 0.62315 0.7862 0.68373 0.0
H1153 H 0.70628 0.83868 0.62985 0.0
H1154 H 0.58094 0.80796 0.64454 0.0
H1155 H 0.66418 0.85968 0.59034 0.0
H1156 H 0.5728 0.89075 0.52432 0.0
H1157 H 0.60425 0.84627 0.54644 0.0
H1158 H 0.5852 0.87636 0.6512 0.0
H1159 H 0.55527 0.92115 0.62933 0.0
C1160 C 0.63228 0.80107 0.66254 0.0
C1161 C 0.66772 0.81144 0.65999 0.0
C1162 C 0.60823 0.81338 0.64017 0.0
C1163 C 0.61958 0.83548 0.61477 0.0
C1164 C 0.65497 0.84242 0.6096 0.0
C1165 C 0.67896 0.83071 0.63235 0.0
C1166 C 0.57529 0.88745 0.552 0.0
C1167 C 0.56245 0.90934 0.57539 0.0
C1168 C 0.59283 0.86204 0.5645 0.0
C1169 C 0.59639 0.85776 0.60033 0.0
C1170 C 0.58209 0.87885 0.62342 0.0
C1171 C 0.56555 0.90469 0.61104 0.0
H1172 H 0.66473 0.18804 0.36862 0.0
H1173 H 0.67116 0.11181 0.28875 0.0
H1174 H 0.6292 0.14759 0.40104 0.0
H1175 H 0.63603 0.07131 0.32157 0.0
H1176 H 0.53034 0.03303 0.3687 0.0
H1177 H 0.57407 0.06525 0.33677 0.0
H1178 H 0.6344 0.0951 0.43264 0.0
H1179 H 0.59051 0.06331 0.46488 0.0
C1180 C 0.65855 0.16268 0.35803 0.0
C1181 C 0.67039 0.15304 0.32613 0.0
C1182 C 0.63867 0.13949 0.37677 0.0
C1183 C 0.63032 0.10642 0.36379 0.0
C1184 C 0.6422 0.09675 0.33195 0.0
C1185 C 0.66216 0.11991 0.31324 0.0
C1186 C 0.55313 0.0461 0.38295 0.0
C1187 C 0.55666 0.04632 0.4193 0.0
C1188 C 0.57824 0.06427 0.36464 0.0
C1189 C 0.60716 0.08287 0.38246 0.0
C1190 C 0.61192 0.08128 0.41854 0.0
C1191 C 0.58687 0.06303 0.43687 0.0
H1192 H 0.80296 0.63994 0.29979 0.0
H1193 H 0.90545 0.68842 0.28173 0.0
H1194 H 0.82835 0.59747 0.33177 0.0
H1195 H 0.9307 0.6465 0.31425 0.0
H1196 H 0.97063 0.56048 0.36171 0.0
H1197 H 0.93883 0.58743 0.31693 0.0
H1198 H 0.85967 0.5999 0.38817 0.0
H1199 H 0.89087 0.57263 0.43227 0.0
C1200 C 0.83087 0.64148 0.30257 0.0
C1201 C 0.85223 0.66775 0.28868 0.0
C1202 C 0.84538 0.61713 0.32077 0.0
C1203 C 0.88149 0.61865 0.32549 0.0
C1204 C 0.90279 0.6443 0.31056 0.0
C1205 C 0.8883 0.66858 0.29231 0.0
C1206 C 0.94591 0.56809 0.36732 0.0
C1207 C 0.93344 0.56502 0.40055 0.0
C1208 C 0.92788 0.58374 0.34185 0.0
C1209 C 0.89704 0.59618 0.34924 0.0
C1210 C 0.88324 0.59047 0.38156 0.0
C1211 C 0.90128 0.57509 0.40696 0.0
H1212 H 0.28648 0.83513 0.3187 0.0
H1213 H 0.33104 0.74567 0.34116 0.0
H1214 H 0.31572 0.86275 0.37034 0.0
H1215 H 0.36082 0.77384 0.39396 0.0
H1216 H 0.44741 0.86259 0.43858 0.0
H1217 H 0.40888 0.81896 0.40513 0.0
H1218 H 0.32095 0.86685 0.43205 0.0
H1219 H 0.35988 0.91135 0.46367 0.0
C1220 C 0.30191 0.82099 0.33517 0.0
C1221 C 0.3063 0.78811 0.32579 0.0
C1222 C 0.31857 0.83686 0.36513 0.0
C1223 C 0.34037 0.82043 0.38663 0.0
C1224 C 0.34416 0.78715 0.37791 0.0
C1225 C 0.32714 0.77105 0.34774 0.0
C1226 C 0.41971 0.86297 0.43833 0.0
C1227 C 0.40642 0.89034 0.45307 0.0
C1228 C 0.3976 0.83796 0.41925 0.0
C1229 C 0.36193 0.83994 0.41517 0.0
C1230 C 0.34843 0.86516 0.4339 0.0
C1231 C 0.37057 0.8905 0.45218 0.0
H1232 H 0.19036 0.38644 0.27752 0.0
H1233 H 0.17093 0.32189 0.36289 0.0
H1234 H 0.15374 0.42487 0.30225 0.0
H1235 H 0.13415 0.3599 0.38685 0.0
H1236 H 0.03439 0.40458 0.38758 0.0
H1237 H 0.07309 0.37539 0.35385 0.0
H1238 H 0.1526 0.46027 0.36915 0.0
H1239 H 0.11374 0.48941 0.40361 0.0
C1240 C 0.17872 0.38068 0.30173 0.0
C1241 C 0.18335 0.35098 0.31814 0.0
C1242 C 0.15782 0.40264 0.31575 0.0
C1243 C 0.14088 0.3949 0.34602 0.0
C1244 C 0.1467 0.36607 0.36319 0.0
C1245 C 0.16792 0.34446 0.34956 0.0
C1246 C 0.05958 0.41751 0.3824 0.0
C1247 C 0.0711 0.44927 0.39757 0.0
C1248 C 0.08177 0.40074 0.3635 0.0
C1249 C 0.11577 0.41557 0.35936 0.0
C1250 C 0.12639 0.44851 0.37198 0.0
C1251 C 0.10419 0.46521 0.39135 0.0
H1252 H 0.28607 0.12592 0.64768 0.0
H1253 H 0.37371 0.18653 0.70179 0.0
H1254 H 0.32525 0.09548 0.61641 0.0
H1255 H 0.41285 0.15647 0.66997 0.0
H1256 H 0.46829 0.06738 0.64219 0.0
H1257 H 0.4292 0.10043 0.67006 0.0
H1258 H 0.36859 0.10059 0.57309 0.0
H1259 H 0.40731 0.06699 0.54519 0.0
C1260 C 0.31369 0.13305 0.65259 0.0
C1261 C 0.32677 0.15845 0.67746 0.0
C1262 C 0.33614 0.11568 0.63454 0.0
C1263 C 0.37214 0.12336 0.64096 0.0
C1264 C 0.38522 0.14956 0.66493 0.0
C1265 C 0.36278 0.16693 0.68298 0.0
C1266 C 0.44659 0.07433 0.62678 0.0
C1267 C 0.44092 0.06439 0.59147 0.0
C1268 C 0.42434 0.09354 0.64271 0.0
C1269 C 0.39592 0.10329 0.62373 0.0
C1270 C 0.39009 0.09322 0.58848 0.0
C1271 C 0.41235 0.074 0.57251 0.0
H1272 H 0.82059 0.36454 0.68339 0.0
H1273 H 0.81183 0.28383 0.60582 0.0
H1274 H 0.85509 0.40051 0.64559 0.0
H1275 H 0.84519 0.32015 0.56743 0.0
H1276 H 0.95135 0.37341 0.54129 0.0
H1277 H 0.90543 0.3409 0.56963 0.0
H1278 H 0.85997 0.43017 0.59242 0.0
H1279 H 0.90691 0.46319 0.56471 0.0
C1280 C 0.82532 0.35475 0.65791 0.0
C1281 C 0.8141 0.32125 0.64775 0.0
C1282 C 0.84491 0.37543 0.63614 0.0
C1283 C 0.85328 0.36304 0.60368 0.0
C1284 C 0.83986 0.3302 0.59261 0.0
C1285 C 0.82067 0.30943 0.61453 0.0
C1286 C 0.93149 0.38619 0.55209 0.0
C1287 C 0.93307 0.42096 0.55114 0.0
C1288 C 0.90486 0.36744 0.56804 0.0
C1289 C 0.87899 0.38292 0.5833 0.0
C1290 C 0.87975 0.41757 0.5812 0.0
C1291 C 0.90653 0.43644 0.5652 0.0
H1292 H 0.16254 0.72832 0.67696 0.0
H1293 H 0.23637 0.65787 0.67982 0.0
H1294 H 0.12543 0.69212 0.63543 0.0
H1295 H 0.19901 0.62145 0.63693 0.0
H1296 H 0.09646 0.55152 0.59657 0.0
H1297 H 0.14252 0.58594 0.63228 0.0
H1298 H 0.12191 0.67223 0.5763 0.0
H1299 H 0.07527 0.63819 0.5418 0.0
C1300 C 0.17106 0.70516 0.66848 0.0
C1301 C 0.20248 0.69601 0.68177 0.0
C1302 C 0.14983 0.68447 0.64429 0.0
C1303 C 0.15938 0.65402 0.63248 0.0
C1304 C 0.1909 0.64474 0.64559 0.0
C1305 C 0.21234 0.66563 0.66998 0.0
C1306 C 0.10218 0.57777 0.5917 0.0
C1307 C 0.08187 0.5924 0.567 0.0
C1308 C 0.12865 0.59745 0.612 0.0
C1309 C 0.13544 0.63196 0.6076 0.0
C1310 C 0.11669 0.64592 0.58106 0.0
C1311 C 0.09002 0.62644 0.56122 0.0
loop_
_geom_bond_atom_site_label_1
_geom_bond_atom_site_label_2
_geom_bond_distance
_geom_bond_site_symmetry_2
_ccdc_geom_bond_type
Zn0 O6 1.969 . S
Zn0 O7 1.965 . S
Zn0 O11 2.024 . S
Zn0 O16 1.969 . S
Zn1 O8 1.969 . S
Zn1 O14 1.969 . S
Zn1 O15 1.965 . S
Zn1 O17 2.024 . S
C2 O3 1.229 . S
C2 O11 1.058 . S
O3 C2 1.229 . S
C4 O5 1.229 . S
C4 O17 1.058 . S
O5 C4 1.229 . S
O6 Zn0 1.969 . S
O6 C9 1.267 . S
O7 Zn0 1.965 . S
O7 C18 1.260 . S
O8 Zn1 1.969 . S
O8 C18 1.258 . S
C9 O6 1.267 . S
C9 O10 1.228 . S
O10 C9 1.228 . S
O11 Zn0 2.024 . S
O11 C2 1.058 . S
C12 O13 1.228 . S
C12 O14 1.267 . S
O13 C12 1.228 . S
O14 Zn1 1.969 . S
O14 C12 1.267 . S
O15 Zn1 1.965 . S
O15 C19 1.260 . S
O16 Zn0 1.969 . S
O16 C19 1.258 . S
O17 Zn1 2.024 . S
O17 C4 1.058 . S
C18 O7 1.260 . S
C18 O8 1.258 . S
C19 O15 1.260 . S
C19 O16 1.258 . S
Zn20 O26 1.969 . S
Zn20 O27 1.965 . S
Zn20 O31 2.024 . S
Zn20 O36 1.969 . S
Zn21 O28 1.969 . S
Zn21 O34 1.969 . S
Zn21 O35 1.965 . S
Zn21 O37 2.024 . S
C22 O23 1.229 . S
C22 O31 1.058 . S
O23 C22 1.229 . S
C24 O25 1.229 . S
C24 O37 1.058 . S
O25 C24 1.229 . S
O26 Zn20 1.969 . S
O26 C29 1.267 . S
O27 Zn20 1.965 . S
O27 C38 1.260 . S
O28 Zn21 1.969 . S
O28 C38 1.258 . S
C29 O26 1.267 . S
C29 O30 1.228 . S
O30 C29 1.228 . S
O31 Zn20 2.024 . S
O31 C22 1.058 . S
C32 O33 1.228 . S
C32 O34 1.267 . S
O33 C32 1.228 . S
O34 Zn21 1.969 . S
O34 C32 1.267 . S
O35 Zn21 1.965 . S
O35 C39 1.260 . S
O36 Zn20 1.969 . S
O36 C39 1.258 . S
O37 Zn21 2.024 . S
O37 C24 1.058 . S
C38 O27 1.260 . S
C38 O28 1.258 . S
C39 O35 1.260 . S
C39 O36 1.258 . S
Zn40 O46 1.969 . S
Zn40 O47 1.965 . S
Zn40 O51 2.024 . S
Zn40 O56 1.969 . S
Zn41 O48 1.969 . S
Zn41 O54 1.969 . S
Zn41 O55 1.965 . S
Zn41 O57 2.024 . S
C42 O43 1.229 . S
C42 O51 1.058 . S
O43 C42 1.229 . S
C44 O45 1.229 . S
C44 O57 1.058 . S
O45 C44 1.229 . S
O46 Zn40 1.969 . S
O46 C49 1.267 . S
O47 Zn40 1.965 . S
O47 C58 1.260 . S
O48 Zn41 1.969 . S
O48 C58 1.258 . S
C49 O46 1.267 . S
C49 O50 1.228 . S
O50 C49 1.228 . S
O51 Zn40 2.024 . S
O51 C42 1.058 . S
C52 O53 1.228 . S
C52 O54 1.267 . S
O53 C52 1.228 . S
O54 Zn41 1.969 . S
O54 C52 1.267 . S
O55 Zn41 1.965 . S
O55 C59 1.260 . S
O56 Zn40 1.969 . S
O56 C59 1.258 . S
O57 Zn41 2.024 . S
O57 C44 1.058 . S
C58 O47 1.260 . S
C58 O48 1.258 . S
C59 O55 1.260 . S
C59 O56 1.258 . S
Zn60 O66 1.969 . S
Zn60 O67 1.965 . S
Zn60 O71 2.024 . S
Zn60 O76 1.969 . S
Zn61 O68 1.969 . S
Zn61 O74 1.969 . S
Zn61 O75 1.965 . S
Zn61 O77 2.024 . S
C62 O63 1.229 . S
C62 O71 1.058 . S
O63 C62 1.229 . S
C64 O65 1.229 . S
C64 O77 1.058 . S
O65 C64 1.229 . S
O66 Zn60 1.969 . S
O66 C69 1.267 . S
O67 Zn60 1.965 . S
O67 C78 1.260 . S
O68 Zn61 1.969 . S
O68 C78 1.258 . S
C69 O66 1.267 . S
C69 O70 1.228 . S
O70 C69 1.228 . S
O71 Zn60 2.024 . S
O71 C62 1.058 . S
C72 O73 1.228 . S
C72 O74 1.267 . S
O73 C72 1.228 . S
O74 Zn61 1.969 . S
O74 C72 1.267 . S
O75 Zn61 1.965 . S
O75 C79 1.260 . S
O76 Zn60 1.969 . S
O76 C79 1.258 . S
O77 Zn61 2.024 . S
O77 C64 1.058 . S
C78 O67 1.260 . S
C78 O68 1.258 . S
C79 O75 1.260 . S
C79 O76 1.258 . S
Zn80 O86 1.969 . S
Zn80 O87 1.965 . S
Zn80 O91 2.024 . S
Zn80 O96 1.969 . S
Zn81 O88 1.969 . S
Zn81 O94 1.969 . S
Zn81 O95 1.965 . S
Zn81 O97 2.024 . S
C82 O83 1.229 . S
C82 O91 1.058 . S
O83 C82 1.229 . S
C84 O85 1.229 . S
C84 O97 1.058 . S
O85 C84 1.229 . S
O86 Zn80 1.969 . S
O86 C89 1.267 . S
O87 Zn80 1.965 . S
O87 C98 1.260 . S
O88 Zn81 1.969 . S
O88 C98 1.258 . S
C89 O86 1.267 . S
C89 O90 1.228 . S
O90 C89 1.228 . S
O91 Zn80 2.024 . S
O91 C82 1.058 . S
C92 O93 1.228 . S
C92 O94 1.267 . S
O93 C92 1.228 . S
O94 Zn81 1.969 . S
O94 C92 1.267 . S
O95 Zn81 1.965 . S
O95 C99 1.260 . S
O96 Zn80 1.969 . S
O96 C99 1.258 . S
O97 Zn81 2.024 . S
O97 C84 1.058 . S
C98 O87 1.260 . S
C98 O88 1.258 . S
C99 O95 1.260 . S
C99 O96 1.258 . S
Zn100 O106 1.969 . S
Zn100 O107 1.965 . S
Zn100 O111 2.024 . S
Zn100 O116 1.969 . S
Zn101 O108 1.969 . S
Zn101 O114 1.969 . S
Zn101 O115 1.965 . S
Zn101 O117 2.024 . S
C102 O103 1.229 . S
C102 O111 1.058 . S
O103 C102 1.229 . S
C104 O105 1.229 . S
C104 O117 1.058 . S
O105 C104 1.229 . S
O106 Zn100 1.969 . S
O106 C109 1.267 . S
O107 Zn100 1.965 . S
O107 C118 1.260 . S
O108 Zn101 1.969 . S
O108 C118 1.258 . S
C109 O106 1.267 . S
C109 O110 1.228 . S
O110 C109 1.228 . S
O111 Zn100 2.024 . S
O111 C102 1.058 . S
C112 O113 1.228 . S
C112 O114 1.267 . S
O113 C112 1.228 . S
O114 Zn101 1.969 . S
O114 C112 1.267 . S
O115 Zn101 1.965 . S
O115 C119 1.260 . S
O116 Zn100 1.969 . S
O116 C119 1.258 . S
O117 Zn101 2.024 . S
O117 C104 1.058 . S
C118 O107 1.260 . S
C118 O108 1.258 . S
C119 O115 1.260 . S
C119 O116 1.258 . S
Zn120 O126 1.969 . S
Zn120 O127 1.965 . S
Zn120 O131 2.024 . S
Zn120 O136 1.969 . S
Zn121 O128 1.969 . S
Zn121 O134 1.969 . S
Zn121 O135 1.965 . S
Zn121 O137 2.024 . S
C122 O123 1.229 . S
C122 O131 1.058 . S
O123 C122 1.229 . S
C124 O125 1.229 . S
C124 O137 1.058 . S
O125 C124 1.229 . S
O126 Zn120 1.969 . S
O126 C129 1.267 . S
O127 Zn120 1.965 . S
O127 C138 1.260 . S
O128 Zn121 1.969 . S
O128 C138 1.258 . S
C129 O126 1.267 . S
C129 O130 1.228 . S
O130 C129 1.228 . S
O131 Zn120 2.024 . S
O131 C122 1.058 . S
C132 O133 1.228 . S
C132 O134 1.267 . S
O133 C132 1.228 . S
O134 Zn121 1.969 . S
O134 C132 1.267 . S
O135 Zn121 1.965 . S
O135 C139 1.260 . S
O136 Zn120 1.969 . S
O136 C139 1.258 . S
O137 Zn121 2.024 . S
O137 C124 1.058 . S
C138 O127 1.260 . S
C138 O128 1.258 . S
C139 O135 1.260 . S
C139 O136 1.258 . S
Zn140 O146 1.969 . S
Zn140 O147 1.965 . S
Zn140 O151 2.024 . S
Zn140 O156 1.969 . S
Zn141 O148 1.969 . S
Zn141 O154 1.969 . S
Zn141 O155 1.965 . S
Zn141 O157 2.024 . S
C142 O143 1.229 . S
C142 O151 1.058 . S
O143 C142 1.229 . S
C144 O145 1.229 . S
C144 O157 1.058 . S
O145 C144 1.229 . S
O146 Zn140 1.969 . S
O146 C149 1.267 . S
O147 Zn140 1.965 . S
O147 C158 1.260 . S
O148 Zn141 1.969 . S
O148 C158 1.258 . S
C149 O146 1.267 . S
C149 O150 1.228 . S
O150 C149 1.228 . S
O151 Zn140 2.024 . S
O151 C142 1.058 . S
C152 O153 1.228 . S
C152 O154 1.267 . S
O153 C152 1.228 . S
O154 Zn141 1.969 . S
O154 C152 1.267 . S
O155 Zn141 1.965 . S
O155 C159 1.260 . S
O156 Zn140 1.969 . S
O156 C159 1.258 . S
O157 Zn141 2.024 . S
O157 C144 1.058 . S
C158 O147 1.260 . S
C158 O148 1.258 . S
C159 O155 1.260 . S
C159 O156 1.258 . S
Fe160 O161 1.886 1_455 S
Fe160 O164 1.715 . S
Fe160 O169 2.077 1_455 S
Fe160 O174 1.935 . S
Fe160 O180 2.077 1_455 S
Fe160 O189 1.935 . S
O161 Fe160 1.886 1_655 S
O161 Fe163 1.715 1_545 S
Fe162 O164 1.886 . S
Fe162 O165 1.715 1_545 S
Fe162 O172 1.935 1_545 S
Fe162 O173 2.077 . S
Fe162 O179 1.935 1_545 S
Fe162 O188 2.077 . S
Fe163 O161 1.715 1_565 S
Fe163 O166 1.886 . S
Fe163 O170 1.935 1_565 S
Fe163 O175 2.077 . S
Fe163 O181 1.935 1_565 S
Fe163 O185 2.077 . S
O164 Fe160 1.715 . S
O164 Fe162 1.886 . S
O165 Fe162 1.715 1_565 S
O165 Fe167 1.886 1_455 S
O166 Fe163 1.886 . S
O166 Fe167 1.715 . S
Fe167 O165 1.886 1_655 S
Fe167 O166 1.715 . S
Fe167 O171 2.077 1_655 S
Fe167 O176 1.935 . S
Fe167 O178 2.077 1_655 S
Fe167 O186 1.935 . S
C168 O180 1.381 . S
C168 O181 1.421 . S
O169 Fe160 2.077 1_655 S
O169 C182 1.381 . S
O170 Fe163 1.935 1_545 S
O170 C182 1.421 . S
O171 Fe167 2.077 1_455 S
O171 C187 1.381 . S
O172 Fe162 1.935 1_565 S
O172 C187 1.421 . S
O173 Fe162 2.077 . S
O173 C177 1.381 . S
O174 Fe160 1.935 . S
O174 C177 1.421 . S
O175 Fe163 2.077 . S
O175 C183 1.381 . S
O176 Fe167 1.935 . S
O176 C183 1.421 . S
C177 O173 1.381 . S
C177 O174 1.421 . S
O178 Fe167 2.077 1_455 S
O178 C190 1.381 . S
O179 Fe162 1.935 1_565 S
O179 C190 1.421 . S
O180 Fe160 2.077 1_655 S
O180 C168 1.381 . S
O181 Fe163 1.935 1_545 S
O181 C168 1.421 . S
C182 O169 1.381 . S
C182 O170 1.421 . S
C183 O175 1.381 . S
C183 O176 1.421 . S
C184 O185 1.381 . S
C184 O186 1.421 . S
O185 Fe163 2.077 . S
O185 C184 1.381 . S
O186 Fe167 1.935 . S
O186 C184 1.421 . S
C187 O171 1.381 . S
C187 O172 1.421 . S
O188 Fe162 2.077 . S
O188 C191 1.381 . S
O189 Fe160 1.935 . S
O189 C191 1.421 . S
C190 O178 1.381 . S
C190 O179 1.421 . S
C191 O188 1.381 . S
C191 O189 1.421 . S
Fe192 O193 1.887 1_556 S
Fe192 O196 1.715 . S
Fe192 O201 2.077 . S
Fe192 O206 1.935 . S
Fe192 O212 2.077 1_556 S
Fe192 O221 1.935 1_556 S
O193 Fe192 1.887 1_554 S
O193 Fe195 1.714 1_565 S
Fe194 O196 1.886 . S
Fe194 O197 1.715 1_565 S
Fe194 O204 1.935 1_565 S
Fe194 O205 2.077 . S
Fe194 O211 1.935 1_566 S
Fe194 O220 2.077 1_556 S
Fe195 O193 1.714 1_545 S
Fe195 O198 1.886 . S
Fe195 O202 1.935 1_544 S
Fe195 O207 2.077 1_554 S
Fe195 O213 1.935 1_545 S
Fe195 O217 2.077 . S
O196 Fe192 1.715 . S
O196 Fe194 1.886 . S
O197 Fe194 1.715 1_545 S
O197 Fe199 1.886 1_556 S
O198 Fe195 1.886 . S
O198 Fe199 1.715 . S
Fe199 O197 1.886 1_554 S
Fe199 O198 1.715 . S
Fe199 O203 2.077 1_554 S
Fe199 O208 1.935 1_554 S
Fe199 O210 2.077 . S
Fe199 O218 1.935 . S
C200 O212 1.381 . S
C200 O213 1.421 . S
O201 Fe192 2.077 . S
O201 C214 1.381 . S
O202 Fe195 1.935 1_566 S
O202 C214 1.421 . S
O203 Fe199 2.077 1_556 S
O203 C219 1.381 . S
O204 Fe194 1.935 1_545 S
O204 C219 1.421 . S
O205 Fe194 2.077 . S
O205 C209 1.381 . S
O206 Fe192 1.935 . S
O206 C209 1.421 . S
O207 Fe195 2.077 1_556 S
O207 C215 1.381 . S
O208 Fe199 1.935 1_556 S
O208 C215 1.421 . S
C209 O205 1.381 . S
C209 O206 1.421 . S
O210 Fe199 2.077 . S
O210 C222 1.381 . S
O211 Fe194 1.935 1_544 S
O211 C222 1.421 . S
O212 Fe192 2.077 1_554 S
O212 C200 1.381 . S
O213 Fe195 1.935 1_565 S
O213 C200 1.421 . S
C214 O201 1.381 . S
C214 O202 1.421 . S
C215 O207 1.381 . S
C215 O208 1.421 . S
C216 O217 1.381 . S
C216 O218 1.421 . S
O217 Fe195 2.077 . S
O217 C216 1.381 . S
O218 Fe199 1.935 . S
O218 C216 1.421 . S
C219 O203 1.381 . S
C219 O204 1.421 . S
O220 Fe194 2.077 1_554 S
O220 C223 1.381 . S
O221 Fe192 1.935 1_554 S
O221 C223 1.421 . S
C222 O210 1.381 . S
C222 O211 1.421 . S
C223 O220 1.381 . S
C223 O221 1.421 . S
Fe224 O225 1.886 1_454 S
Fe224 O228 1.715 . S
Fe224 O233 2.077 1_454 S
Fe224 O238 1.935 1_554 S
Fe224 O244 2.077 1_455 S
Fe224 O253 1.935 . S
O225 Fe224 1.886 1_656 S
O225 Fe227 1.715 . S
Fe226 O228 1.886 . S
Fe226 O229 1.714 . S
Fe226 O236 1.935 1_554 S
Fe226 O237 2.077 1_554 S
Fe226 O243 1.935 . S
Fe226 O252 2.077 . S
Fe227 O225 1.715 . S
Fe227 O230 1.886 . S
Fe227 O234 1.935 . S
Fe227 O239 2.077 . S
Fe227 O245 1.935 1_556 S
Fe227 O249 2.077 1_556 S
O228 Fe224 1.715 . S
O228 Fe226 1.886 . S
O229 Fe226 1.714 . S
O229 Fe231 1.887 1_454 S
O230 Fe227 1.886 . S
O230 Fe231 1.715 . S
Fe231 O229 1.887 1_656 S
Fe231 O230 1.715 . S
Fe231 O235 2.077 1_655 S
Fe231 O240 1.935 . S
Fe231 O242 2.077 1_656 S
Fe231 O250 1.935 1_556 S
C232 O244 1.381 . S
C232 O245 1.421 . S
O233 Fe224 2.077 1_656 S
O233 C246 1.381 . S
O234 Fe227 1.935 . S
O234 C246 1.421 . S
O235 Fe231 2.077 1_455 S
O235 C251 1.381 . S
O236 Fe226 1.935 1_556 S
O236 C251 1.421 . S
O237 Fe226 2.077 1_556 S
O237 C241 1.381 . S
O238 Fe224 1.935 1_556 S
O238 C241 1.421 . S
O239 Fe227 2.077 . S
O239 C247 1.381 . S
O240 Fe231 1.935 . S
O240 C247 1.421 . S
C241 O237 1.381 . S
C241 O238 1.421 . S
O242 Fe231 2.077 1_454 S
O242 C254 1.381 . S
O243 Fe226 1.935 . S
O243 C254 1.421 . S
O244 Fe224 2.077 1_655 S
O244 C232 1.381 . S
O245 Fe227 1.935 1_554 S
O245 C232 1.421 . S
C246 O233 1.381 . S
C246 O234 1.421 . S
C247 O239 1.381 . S
C247 O240 1.421 . S
C248 O249 1.381 . S
C248 O250 1.421 . S
O249 Fe227 2.077 1_554 S
O249 C248 1.381 . S
O250 Fe231 1.935 1_554 S
O250 C248 1.421 . S
C251 O235 1.381 . S
C251 O236 1.421 . S
O252 Fe226 2.077 . S
O252 C255 1.381 . S
O253 Fe224 1.935 . S
O253 C255 1.421 . S
C254 O242 1.381 . S
C254 O243 1.421 . S
C255 O252 1.381 . S
C255 O253 1.421 . S
Fe256 O257 1.886 . S
Fe256 O260 1.715 . S
Fe256 O265 2.077 . S
Fe256 O270 1.935 . S
Fe256 O276 2.077 . S
Fe256 O285 1.935 . S
O257 Fe256 1.886 . S
O257 Fe259 1.715 1_556 S
Fe258 O260 1.886 . S
Fe258 O261 1.715 1_556 S
Fe258 O268 1.935 1_556 S
Fe258 O269 2.077 . S
Fe258 O275 1.935 1_556 S
Fe258 O284 2.077 . S
Fe259 O257 1.715 1_554 S
Fe259 O262 1.886 . S
Fe259 O266 1.935 1_554 S
Fe259 O271 2.077 . S
Fe259 O277 1.935 1_554 S
Fe259 O281 2.077 . S
O260 Fe256 1.715 . S
O260 Fe258 1.886 . S
O261 Fe258 1.715 1_554 S
O261 Fe263 1.886 . S
O262 Fe259 1.886 . S
O262 Fe263 1.715 . S
Fe263 O261 1.886 . S
Fe263 O262 1.715 . S
Fe263 O267 2.077 . S
Fe263 O272 1.935 . S
Fe263 O274 2.077 . S
Fe263 O282 1.935 . S
C264 O276 1.381 . S
C264 O277 1.421 . S
O265 Fe256 2.077 . S
O265 C278 1.381 . S
O266 Fe259 1.935 1_556 S
O266 C278 1.421 . S
O267 Fe263 2.077 . S
O267 C283 1.381 . S
O268 Fe258 1.935 1_554 S
O268 C283 1.421 . S
O269 Fe258 2.077 . S
O269 C273 1.381 . S
O270 Fe256 1.935 . S
O270 C273 1.421 . S
O271 Fe259 2.077 . S
O271 C279 1.381 . S
O272 Fe263 1.935 . S
O272 C279 1.421 . S
C273 O269 1.381 . S
C273 O270 1.421 . S
O274 Fe263 2.077 . S
O274 C286 1.381 . S
O275 Fe258 1.935 1_554 S
O275 C286 1.421 . S
O276 Fe256 2.077 . S
O276 C264 1.381 . S
O277 Fe259 1.935 1_556 S
O277 C264 1.421 . S
C278 O265 1.381 . S
C278 O266 1.421 . S
C279 O271 1.381 . S
C279 O272 1.421 . S
C280 O281 1.381 . S
C280 O282 1.421 . S
O281 Fe259 2.077 . S
O281 C280 1.381 . S
O282 Fe263 1.935 . S
O282 C280 1.421 . S
C283 O267 1.381 . S
C283 O268 1.421 . S
O284 Fe258 2.077 . S
O284 C287 1.381 . S
O285 Fe256 1.935 . S
O285 C287 1.421 . S
C286 O274 1.381 . S
C286 O275 1.421 . S
C287 O284 1.381 . S
C287 O285 1.421 . S
Fe288 O289 1.885 . S
Fe288 O292 1.715 . S
Fe288 O297 2.077 1_655 S
Fe288 O302 1.935 1_655 S
Fe288 O308 2.077 . S
Fe288 O317 1.935 . S
O289 Fe288 1.885 . S
O289 Fe291 1.716 1_655 S
Fe290 O292 1.886 . S
Fe290 O293 1.717 1_655 S
Fe290 O300 1.935 1_655 S
Fe290 O301 2.077 1_655 S
Fe290 O307 1.935 . S
Fe290 O316 2.077 . S
Fe291 O289 1.716 1_455 S
Fe291 O294 1.886 . S
Fe291 O298 1.935 . S
Fe291 O303 2.077 . S
Fe291 O309 1.935 1_455 S
Fe291 O313 2.077 1_455 S
O292 Fe288 1.715 . S
O292 Fe290 1.886 . S
O293 Fe290 1.717 1_455 S
O293 Fe295 1.884 . S
O294 Fe291 1.886 . S
O294 Fe295 1.715 . S
Fe295 O293 1.884 . S
Fe295 O294 1.715 . S
Fe295 O299 2.077 . S
Fe295 O304 1.935 . S
Fe295 O306 2.077 1_455 S
Fe295 O314 1.935 1_455 S
C296 O308 1.381 . S
C296 O309 1.421 . S
O297 Fe288 2.077 1_455 S
O297 C310 1.381 . S
O298 Fe291 1.935 . S
O298 C310 1.421 . S
O299 Fe295 2.077 . S
O299 C315 1.381 . S
O300 Fe290 1.935 1_455 S
O300 C315 1.421 . S
O301 Fe290 2.077 1_455 S
O301 C305 1.381 . S
O302 Fe288 1.935 1_455 S
O302 C305 1.421 . S
O303 Fe291 2.077 . S
O303 C311 1.381 . S
O304 Fe295 1.935 . S
O304 C311 1.421 . S
C305 O301 1.381 . S
C305 O302 1.421 . S
O306 Fe295 2.077 1_655 S
O306 C318 1.381 . S
O307 Fe290 1.935 . S
O307 C318 1.421 . S
O308 Fe288 2.077 . S
O308 C296 1.381 . S
O309 Fe291 1.935 1_655 S
O309 C296 1.421 . S
C310 O297 1.381 . S
C310 O298 1.421 . S
C311 O303 1.381 . S
C311 O304 1.421 . S
C312 O313 1.381 . S
C312 O314 1.421 . S
O313 Fe291 2.077 1_655 S
O313 C312 1.381 . S
O314 Fe295 1.935 1_655 S
O314 C312 1.421 . S
C315 O299 1.381 . S
C315 O300 1.421 . S
O316 Fe290 2.077 . S
O316 C319 1.381 . S
O317 Fe288 1.935 . S
O317 C319 1.421 . S
C318 O306 1.381 . S
C318 O307 1.421 . S
C319 O316 1.381 . S
C319 O317 1.421 . S
Fe320 O321 1.886 . S
Fe320 O324 1.715 . S
Fe320 O329 2.077 . S
Fe320 O334 1.935 . S
Fe320 O340 2.077 . S
Fe320 O349 1.935 . S
O321 Fe320 1.886 . S
O321 Fe323 1.715 1_565 S
Fe322 O324 1.886 . S
Fe322 O325 1.715 1_565 S
Fe322 O332 1.935 1_565 S
Fe322 O333 2.077 . S
Fe322 O339 1.935 1_565 S
Fe322 O348 2.077 . S
Fe323 O321 1.715 1_545 S
Fe323 O326 1.886 . S
Fe323 O330 1.935 1_545 S
Fe323 O335 2.077 . S
Fe323 O341 1.935 1_545 S
Fe323 O345 2.077 . S
O324 Fe320 1.715 . S
O324 Fe322 1.886 . S
O325 Fe322 1.715 1_545 S
O325 Fe327 1.886 . S
O326 Fe323 1.886 . S
O326 Fe327 1.715 . S
Fe327 O325 1.886 . S
Fe327 O326 1.715 . S
Fe327 O331 2.077 . S
Fe327 O336 1.935 . S
Fe327 O338 2.077 . S
Fe327 O346 1.935 . S
C328 O340 1.381 . S
C328 O341 1.421 . S
O329 Fe320 2.077 . S
O329 C342 1.381 . S
O330 Fe323 1.935 1_565 S
O330 C342 1.421 . S
O331 Fe327 2.077 . S
O331 C347 1.381 . S
O332 Fe322 1.935 1_545 S
O332 C347 1.421 . S
O333 Fe322 2.077 . S
O333 C337 1.381 . S
O334 Fe320 1.935 . S
O334 C337 1.421 . S
O335 Fe323 2.077 . S
O335 C343 1.381 . S
O336 Fe327 1.935 . S
O336 C343 1.421 . S
C337 O333 1.381 . S
C337 O334 1.421 . S
O338 Fe327 2.077 . S
O338 C350 1.381 . S
O339 Fe322 1.935 1_545 S
O339 C350 1.421 . S
O340 Fe320 2.077 . S
O340 C328 1.381 . S
O341 Fe323 1.935 1_565 S
O341 C328 1.421 . S
C342 O329 1.381 . S
C342 O330 1.421 . S
C343 O335 1.381 . S
C343 O336 1.421 . S
C344 O345 1.381 . S
C344 O346 1.421 . S
O345 Fe323 2.077 . S
O345 C344 1.381 . S
O346 Fe327 1.935 . S
O346 C344 1.421 . S
C347 O331 1.381 . S
C347 O332 1.421 . S
O348 Fe322 2.077 . S
O348 C351 1.381 . S
O349 Fe320 1.935 . S
O349 C351 1.421 . S
C350 O338 1.381 . S
C350 O339 1.421 . S
C351 O348 1.381 . S
C351 O349 1.421 . S
H352 C360 0.950 . S
H353 C365 0.950 . S
H354 C362 0.950 . S
H355 C364 0.950 . S
H356 C366 0.950 . S
H357 C368 0.950 . S
H358 C370 0.950 . S
H359 C371 0.950 . S
C360 H352 0.950 . S
C360 C361 1.386 . S
C360 C362 1.391 . S
C361 C360 1.386 . S
C361 C365 1.393 . S
C362 H354 0.950 . S
C362 C360 1.391 . S
C362 C363 1.400 . S
C363 C362 1.400 . S
C363 C364 1.398 . S
C363 C369 1.491 . S
C364 H355 0.950 . S
C364 C363 1.398 . S
C364 C365 1.391 . S
C365 H353 0.950 . S
C365 C361 1.393 . S
C365 C364 1.391 . S
C366 H356 0.950 . S
C366 C367 1.386 . S
C366 C368 1.391 . S
C367 C366 1.386 . S
C367 C371 1.393 . S
C368 H357 0.950 . S
C368 C366 1.391 . S
C368 C369 1.400 . S
C369 C363 1.491 . S
C369 C368 1.400 . S
C369 C370 1.398 . S
C370 H358 0.950 . S
C370 C369 1.398 . S
C370 C371 1.391 . S
C371 H359 0.950 . S
C371 C367 1.393 . S
C371 C370 1.391 . S
H372 C380 0.950 . S
H373 C385 0.950 . S
H374 C382 0.950 . S
H375 C384 0.950 . S
H376 C386 0.950 . S
H377 C388 0.950 . S
H378 C390 0.950 . S
H379 C391 0.950 . S
C380 H372 0.950 . S
C380 C381 1.386 . S
C380 C382 1.391 . S
C381 C380 1.386 . S
C381 C385 1.393 . S
C382 H374 0.950 . S
C382 C380 1.391 . S
C382 C383 1.400 . S
C383 C382 1.400 . S
C383 C384 1.398 . S
C383 C389 1.491 . S
C384 H375 0.950 . S
C384 C383 1.398 . S
C384 C385 1.391 . S
C385 H373 0.950 . S
C385 C381 1.393 . S
C385 C384 1.391 . S
C386 H376 0.950 . S
C386 C387 1.386 . S
C386 C388 1.391 . S
C387 C386 1.386 . S
C387 C391 1.393 . S
C388 H377 0.950 . S
C388 C386 1.391 . S
C388 C389 1.400 . S
C389 C383 1.491 . S
C389 C388 1.400 . S
C389 C390 1.398 . S
C390 H378 0.950 . S
C390 C389 1.398 . S
C390 C391 1.391 . S
C391 H379 0.950 . S
C391 C387 1.393 . S
C391 C390 1.391 . S
H392 C400 0.950 . S
H393 C405 0.950 . S
H394 C402 0.950 . S
H395 C404 0.950 . S
H396 C406 0.950 . S
H397 C408 0.950 . S
H398 C410 0.950 . S
H399 C411 0.950 . S
C400 H392 0.950 . S
C400 C401 1.386 . S
C400 C402 1.391 . S
C401 C400 1.386 . S
C401 C405 1.393 . S
C402 H394 0.950 . S
C402 C400 1.391 . S
C402 C403 1.400 . S
C403 C402 1.400 . S
C403 C404 1.398 . S
C403 C409 1.491 . S
C404 H395 0.950 . S
C404 C403 1.398 . S
C404 C405 1.391 . S
C405 H393 0.950 . S
C405 C401 1.393 . S
C405 C404 1.391 . S
C406 H396 0.950 . S
C406 C407 1.386 . S
C406 C408 1.391 . S
C407 C406 1.386 . S
C407 C411 1.393 . S
C408 H397 0.950 . S
C408 C406 1.391 . S
C408 C409 1.400 . S
C409 C403 1.491 . S
C409 C408 1.400 . S
C409 C410 1.398 . S
C410 H398 0.950 . S
C410 C409 1.398 . S
C410 C411 1.391 . S
C411 H399 0.950 . S
C411 C407 1.393 . S
C411 C410 1.391 . S
H412 C420 0.950 . S
H413 C425 0.950 . S
H414 C422 0.950 . S
H415 C424 0.950 . S
H416 C426 0.950 . S
H417 C428 0.950 . S
H418 C430 0.950 . S
H419 C431 0.950 . S
C420 H412 0.950 . S
C420 C421 1.386 . S
C420 C422 1.391 . S
C421 C420 1.386 . S
C421 C425 1.393 . S
C422 H414 0.950 . S
C422 C420 1.391 . S
C422 C423 1.400 . S
C423 C422 1.400 . S
C423 C424 1.398 . S
C423 C429 1.491 . S
C424 H415 0.950 . S
C424 C423 1.398 . S
C424 C425 1.391 . S
C425 H413 0.950 . S
C425 C421 1.393 . S
C425 C424 1.391 . S
C426 H416 0.950 . S
C426 C427 1.386 . S
C426 C428 1.391 . S
C427 C426 1.386 . S
C427 C431 1.393 . S
C428 H417 0.950 . S
C428 C426 1.391 . S
C428 C429 1.400 . S
C429 C423 1.491 . S
C429 C428 1.400 . S
C429 C430 1.398 . S
C430 H418 0.950 . S
C430 C429 1.398 . S
C430 C431 1.391 . S
C431 H419 0.950 . S
C431 C427 1.393 . S
C431 C430 1.391 . S
H432 C440 0.950 . S
H433 C445 0.950 . S
H434 C442 0.950 . S
H435 C444 0.950 . S
H436 C446 0.950 . S
H437 C448 0.950 . S
H438 C450 0.950 . S
H439 C451 0.950 . S
C440 H432 0.950 . S
C440 C441 1.386 . S
C440 C442 1.391 . S
C441 C440 1.386 . S
C441 C445 1.393 . S
C442 H434 0.950 . S
C442 C440 1.391 . S
C442 C443 1.400 . S
C443 C442 1.400 . S
C443 C444 1.398 . S
C443 C449 1.491 . S
C444 H435 0.950 . S
C444 C443 1.398 . S
C444 C445 1.391 . S
C445 H433 0.950 . S
C445 C441 1.393 . S
C445 C444 1.391 . S
C446 H436 0.950 . S
C446 C447 1.386 . S
C446 C448 1.391 . S
C447 C446 1.386 . S
C447 C451 1.393 . S
C448 H437 0.950 . S
C448 C446 1.391 . S
C448 C449 1.400 . S
C449 C443 1.491 . S
C449 C448 1.400 . S
C449 C450 1.398 . S
C450 H438 0.950 . S
C450 C449 1.398 . S
C450 C451 1.391 . S
C451 H439 0.950 . S
C451 C447 1.393 . S
C451 C450 1.391 . S
H452 C460 0.950 . S
H453 C465 0.950 . S
H454 C462 0.950 . S
H455 C464 0.950 . S
H456 C466 0.950 . S
H457 C468 0.950 . S
H458 C470 0.950 . S
H459 C471 0.950 . S
C460 H452 0.950 . S
C460 C461 1.386 . S
C460 C462 1.391 . S
C461 C460 1.386 . S
C461 C465 1.393 . S
C462 H454 0.950 . S
C462 C460 1.391 . S
C462 C463 1.400 . S
C463 C462 1.400 . S
C463 C464 1.398 . S
C463 C469 1.491 . S
C464 H455 0.950 . S
C464 C463 1.398 . S
C464 C465 1.391 . S
C465 H453 0.950 . S
C465 C461 1.393 . S
C465 C464 1.391 . S
C466 H456 0.950 . S
C466 C467 1.386 . S
C466 C468 1.391 . S
C467 C466 1.386 . S
C467 C471 1.393 . S
C468 H457 0.950 . S
C468 C466 1.391 . S
C468 C469 1.400 . S
C469 C463 1.491 . S
C469 C468 1.400 . S
C469 C470 1.398 . S
C470 H458 0.950 . S
C470 C469 1.398 . S
C470 C471 1.391 . S
C471 H459 0.950 . S
C471 C467 1.393 . S
C471 C470 1.391 . S
H472 C480 0.950 . S
H473 C485 0.950 . S
H474 C482 0.950 . S
H475 C484 0.950 . S
H476 C486 0.950 . S
H477 C488 0.950 . S
H478 C490 0.950 . S
H479 C491 0.950 . S
C480 H472 0.950 . S
C480 C481 1.386 . S
C480 C482 1.391 . S
C481 C480 1.386 . S
C481 C485 1.393 . S
C482 H474 0.950 . S
C482 C480 1.391 . S
C482 C483 1.400 . S
C483 C482 1.400 . S
C483 C484 1.398 . S
C483 C489 1.491 . S
C484 H475 0.950 . S
C484 C483 1.398 . S
C484 C485 1.391 . S
C485 H473 0.950 . S
C485 C481 1.393 . S
C485 C484 1.391 . S
C486 H476 0.950 . S
C486 C487 1.386 . S
C486 C488 1.391 . S
C487 C486 1.386 . S
C487 C491 1.393 . S
C488 H477 0.950 . S
C488 C486 1.391 . S
C488 C489 1.400 . S
C489 C483 1.491 . S
C489 C488 1.400 . S
C489 C490 1.398 . S
C490 H478 0.950 . S
C490 C489 1.398 . S
C490 C491 1.391 . S
C491 H479 0.950 . S
C491 C487 1.393 . S
C491 C490 1.391 . S
H492 C500 0.950 . S
H493 C505 0.950 . S
H494 C502 0.950 . S
H495 C504 0.950 . S
H496 C506 0.950 . S
H497 C508 0.950 . S
H498 C510 0.950 . S
H499 C511 0.950 . S
C500 H492 0.950 . S
C500 C501 1.386 . S
C500 C502 1.391 . S
C501 C500 1.386 . S
C501 C505 1.393 . S
C502 H494 0.950 . S
C502 C500 1.391 . S
C502 C503 1.400 . S
C503 C502 1.400 . S
C503 C504 1.398 . S
C503 C509 1.491 . S
C504 H495 0.950 . S
C504 C503 1.398 . S
C504 C505 1.391 . S
C505 H493 0.950 . S
C505 C501 1.393 . S
C505 C504 1.391 . S
C506 H496 0.950 . S
C506 C507 1.386 . S
C506 C508 1.391 . S
C507 C506 1.386 . S
C507 C511 1.393 . S
C508 H497 0.950 . S
C508 C506 1.391 . S
C508 C509 1.400 . S
C509 C503 1.491 . S
C509 C508 1.400 . S
C509 C510 1.398 . S
C510 H498 0.950 . S
C510 C509 1.398 . S
C510 C511 1.391 . S
C511 H499 0.950 . S
C511 C507 1.393 . S
C511 C510 1.391 . S
H512 C520 0.950 . S
H513 C525 0.950 . S
H514 C522 0.950 . S
H515 C524 0.950 . S
H516 C526 0.950 . S
H517 C528 0.950 . S
H518 C530 0.950 . S
H519 C531 0.950 . S
C520 H512 0.950 . S
C520 C521 1.386 . S
C520 C522 1.391 . S
C521 C520 1.386 . S
C521 C525 1.393 . S
C522 H514 0.950 . S
C522 C520 1.391 . S
C522 C523 1.400 . S
C523 C522 1.400 . S
C523 C524 1.398 . S
C523 C529 1.491 . S
C524 H515 0.950 . S
C524 C523 1.398 . S
C524 C525 1.391 . S
C525 H513 0.950 . S
C525 C521 1.393 . S
C525 C524 1.391 . S
C526 H516 0.950 . S
C526 C527 1.386 . S
C526 C528 1.391 . S
C527 C526 1.386 . S
C527 C531 1.393 . S
C528 H517 0.950 . S
C528 C526 1.391 . S
C528 C529 1.400 . S
C529 C523 1.491 . S
C529 C528 1.400 . S
C529 C530 1.398 . S
C530 H518 0.950 . S
C530 C529 1.398 . S
C530 C531 1.391 . S
C531 H519 0.950 . S
C531 C527 1.393 . S
C531 C530 1.391 . S
H532 C540 0.950 . S
H533 C545 0.950 . S
H534 C542 0.950 . S
H535 C544 0.950 . S
H536 C546 0.950 . S
H537 C548 0.950 . S
H538 C550 0.950 . S
H539 C551 0.950 . S
C540 H532 0.950 . S
C540 C541 1.386 . S
C540 C542 1.391 . S
C541 C540 1.386 . S
C541 C545 1.393 . S
C542 H534 0.950 . S
C542 C540 1.391 . S
C542 C543 1.400 . S
C543 C542 1.400 . S
C543 C544 1.398 . S
C543 C549 1.491 . S
C544 H535 0.950 . S
C544 C543 1.398 . S
C544 C545 1.391 . S
C545 H533 0.950 . S
C545 C541 1.393 . S
C545 C544 1.391 . S
C546 H536 0.950 . S
C546 C547 1.386 . S
C546 C548 1.391 . S
C547 C546 1.386 . S
C547 C551 1.393 . S
C548 H537 0.950 . S
C548 C546 1.391 . S
C548 C549 1.400 . S
C549 C543 1.491 . S
C549 C548 1.400 . S
C549 C550 1.398 . S
C550 H538 0.950 . S
C550 C549 1.398 . S
C550 C551 1.391 . S
C551 H539 0.950 . S
C551 C547 1.393 . S
C551 C550 1.391 . S
H552 C560 0.950 . S
H553 C565 0.950 . S
H554 C562 0.950 . S
H555 C564 0.950 . S
H556 C566 0.950 . S
H557 C568 0.950 . S
H558 C570 0.950 . S
H559 C571 0.950 . S
C560 H552 0.950 . S
C560 C561 1.386 . S
C560 C562 1.391 . S
C561 C560 1.386 . S
C561 C565 1.393 . S
C562 H554 0.950 . S
C562 C560 1.391 . S
C562 C563 1.400 . S
C563 C562 1.400 . S
C563 C564 1.398 . S
C563 C569 1.491 . S
C564 H555 0.950 . S
C564 C563 1.398 . S
C564 C565 1.391 . S
C565 H553 0.950 . S
C565 C561 1.393 . S
C565 C564 1.391 . S
C566 H556 0.950 . S
C566 C567 1.386 . S
C566 C568 1.391 . S
C567 C566 1.386 . S
C567 C571 1.393 . S
C568 H557 0.950 . S
C568 C566 1.391 . S
C568 C569 1.400 . S
C569 C563 1.491 . S
C569 C568 1.400 . S
C569 C570 1.398 . S
C570 H558 0.950 . S
C570 C569 1.398 . S
C570 C571 1.391 . S
C571 H559 0.950 . S
C571 C567 1.393 . S
C571 C570 1.391 . S
H572 C580 0.950 . S
H573 C585 0.950 . S
H574 C582 0.950 . S
H575 C584 0.950 . S
H576 C586 0.950 . S
H577 C588 0.950 . S
H578 C590 0.950 . S
H579 C591 0.950 . S
C580 H572 0.950 . S
C580 C581 1.386 . S
C580 C582 1.391 . S
C581 C580 1.386 . S
C581 C585 1.393 . S
C582 H574 0.950 . S
C582 C580 1.391 . S
C582 C583 1.400 . S
C583 C582 1.400 . S
C583 C584 1.398 . S
C583 C589 1.491 . S
C584 H575 0.950 . S
C584 C583 1.398 . S
C584 C585 1.391 . S
C585 H573 0.950 . S
C585 C581 1.393 . S
C585 C584 1.391 . S
C586 H576 0.950 . S
C586 C587 1.386 . S
C586 C588 1.391 . S
C587 C586 1.386 . S
C587 C591 1.393 . S
C588 H577 0.950 . S
C588 C586 1.391 . S
C588 C589 1.400 . S
C589 C583 1.491 . S
C589 C588 1.400 . S
C589 C590 1.398 . S
C590 H578 0.950 . S
C590 C589 1.398 . S
C590 C591 1.391 . S
C591 H579 0.950 . S
C591 C587 1.393 . S
C591 C590 1.391 . S
H592 C600 0.950 . S
H593 C605 0.950 . S
H594 C602 0.950 . S
H595 C604 0.950 . S
H596 C606 0.950 . S
H597 C608 0.950 . S
H598 C610 0.950 . S
H599 C611 0.950 . S
C600 H592 0.950 . S
C600 C601 1.386 . S
C600 C602 1.391 . S
C601 C600 1.386 . S
C601 C605 1.393 . S
C602 H594 0.950 . S
C602 C600 1.391 . S
C602 C603 1.400 . S
C603 C602 1.400 . S
C603 C604 1.398 . S
C603 C609 1.491 . S
C604 H595 0.950 . S
C604 C603 1.398 . S
C604 C605 1.391 . S
C605 H593 0.950 . S
C605 C601 1.393 . S
C605 C604 1.391 . S
C606 H596 0.950 . S
C606 C607 1.386 . S
C606 C608 1.391 . S
C607 C606 1.386 . S
C607 C611 1.393 . S
C608 H597 0.950 . S
C608 C606 1.391 . S
C608 C609 1.400 . S
C609 C603 1.491 . S
C609 C608 1.400 . S
C609 C610 1.398 . S
C610 H598 0.950 . S
C610 C609 1.398 . S
C610 C611 1.391 . S
C611 H599 0.950 . S
C611 C607 1.393 . S
C611 C610 1.391 . S
H612 C620 0.950 . S
H613 C625 0.950 . S
H614 C622 0.950 . S
H615 C624 0.950 . S
H616 C626 0.950 . S
H617 C628 0.950 . S
H618 C630 0.950 . S
H619 C631 0.950 . S
C620 H612 0.950 . S
C620 C621 1.386 . S
C620 C622 1.391 . S
C621 C620 1.386 . S
C621 C625 1.393 . S
C622 H614 0.950 . S
C622 C620 1.391 . S
C622 C623 1.400 . S
C623 C622 1.400 . S
C623 C624 1.398 . S
C623 C629 1.491 . S
C624 H615 0.950 . S
C624 C623 1.398 . S
C624 C625 1.391 . S
C625 H613 0.950 . S
C625 C621 1.393 . S
C625 C624 1.391 . S
C626 H616 0.950 . S
C626 C627 1.386 . S
C626 C628 1.391 . S
C627 C626 1.386 . S
C627 C631 1.393 . S
C628 H617 0.950 . S
C628 C626 1.391 . S
C628 C629 1.400 . S
C629 C623 1.491 . S
C629 C628 1.400 . S
C629 C630 1.398 . S
C630 H618 0.950 . S
C630 C629 1.398 . S
C630 C631 1.391 . S
C631 H619 0.950 . S
C631 C627 1.393 . S
C631 C630 1.391 . S
H632 C640 0.950 . S
H633 C645 0.950 . S
H634 C642 0.950 . S
H635 C644 0.950 . S
H636 C646 0.950 . S
H637 C648 0.950 . S
H638 C650 0.950 . S
H639 C651 0.950 . S
C640 H632 0.950 . S
C640 C641 1.386 . S
C640 C642 1.391 . S
C641 C640 1.386 . S
C641 C645 1.393 . S
C642 H634 0.950 . S
C642 C640 1.391 . S
C642 C643 1.400 . S
C643 C642 1.400 . S
C643 C644 1.398 . S
C643 C649 1.491 . S
C644 H635 0.950 . S
C644 C643 1.398 . S
C644 C645 1.391 . S
C645 H633 0.950 . S
C645 C641 1.393 . S
C645 C644 1.391 . S
C646 H636 0.950 . S
C646 C647 1.386 . S
C646 C648 1.391 . S
C647 C646 1.386 . S
C647 C651 1.393 . S
C648 H637 0.950 . S
C648 C646 1.391 . S
C648 C649 1.400 . S
C649 C643 1.491 . S
C649 C648 1.400 . S
C649 C650 1.398 . S
C650 H638 0.950 . S
C650 C649 1.398 . S
C650 C651 1.391 . S
C651 H639 0.950 . S
C651 C647 1.393 . S
C651 C650 1.391 . S
H652 C660 0.950 . S
H653 C665 0.950 . S
H654 C662 0.950 . S
H655 C664 0.950 . S
H656 C666 0.950 . S
H657 C668 0.950 . S
H658 C670 0.950 . S
H659 C671 0.950 . S
C660 H652 0.950 . S
C660 C661 1.386 . S
C660 C662 1.391 . S
C661 C660 1.386 . S
C661 C665 1.393 . S
C662 H654 0.950 . S
C662 C660 1.391 . S
C662 C663 1.400 . S
C663 C662 1.400 . S
C663 C664 1.398 . S
C663 C669 1.491 . S
C664 H655 0.950 . S
C664 C663 1.398 . S
C664 C665 1.391 . S
C665 H653 0.950 . S
C665 C661 1.393 . S
C665 C664 1.391 . S
C666 H656 0.950 . S
C666 C667 1.386 . S
C666 C668 1.391 . S
C667 C666 1.386 . S
C667 C671 1.393 . S
C668 H657 0.950 . S
C668 C666 1.391 . S
C668 C669 1.400 . S
C669 C663 1.491 . S
C669 C668 1.400 . S
C669 C670 1.398 . S
C670 H658 0.950 . S
C670 C669 1.398 . S
C670 C671 1.391 . S
C671 H659 0.950 . S
C671 C667 1.393 . S
C671 C670 1.391 . S
H672 C680 0.950 . S
H673 C685 0.950 . S
H674 C682 0.950 . S
H675 C684 0.950 . S
H676 C686 0.950 . S
H677 C688 0.950 . S
H678 C690 0.950 . S
H679 C691 0.950 . S
C680 H672 0.950 . S
C680 C681 1.386 . S
C680 C682 1.391 . S
C681 C680 1.386 . S
C681 C685 1.393 . S
C682 H674 0.950 . S
C682 C680 1.391 . S
C682 C683 1.400 . S
C683 C682 1.400 . S
C683 C684 1.398 . S
C683 C689 1.491 . S
C684 H675 0.950 . S
C684 C683 1.398 . S
C684 C685 1.391 . S
C685 H673 0.950 . S
C685 C681 1.393 . S
C685 C684 1.391 . S
C686 H676 0.950 . S
C686 C687 1.386 . S
C686 C688 1.391 . S
C687 C686 1.386 . S
C687 C691 1.393 . S
C688 H677 0.950 . S
C688 C686 1.391 . S
C688 C689 1.400 . S
C689 C683 1.491 . S
C689 C688 1.400 . S
C689 C690 1.398 . S
C690 H678 0.950 . S
C690 C689 1.398 . S
C690 C691 1.391 . S
C691 H679 0.950 . S
C691 C687 1.393 . S
C691 C690 1.391 . S
H692 C700 0.950 . S
H693 C705 0.950 . S
H694 C702 0.950 . S
H695 C704 0.950 . S
H696 C706 0.950 . S
H697 C708 0.950 . S
H698 C710 0.950 . S
H699 C711 0.950 . S
C700 H692 0.950 . S
C700 C701 1.386 . S
C700 C702 1.391 . S
C701 C700 1.386 . S
C701 C705 1.393 . S
C702 H694 0.950 . S
C702 C700 1.391 . S
C702 C703 1.400 . S
C703 C702 1.400 . S
C703 C704 1.398 . S
C703 C709 1.491 . S
C704 H695 0.950 . S
C704 C703 1.398 . S
C704 C705 1.391 . S
C705 H693 0.950 . S
C705 C701 1.393 . S
C705 C704 1.391 . S
C706 H696 0.950 . S
C706 C707 1.386 . S
C706 C708 1.391 . S
C707 C706 1.386 . S
C707 C711 1.393 . S
C708 H697 0.950 . S
C708 C706 1.391 . S
C708 C709 1.400 . S
C709 C703 1.491 . S
C709 C708 1.400 . S
C709 C710 1.398 . S
C710 H698 0.950 . S
C710 C709 1.398 . S
C710 C711 1.391 . S
C711 H699 0.950 . S
C711 C707 1.393 . S
C711 C710 1.391 . S
H712 C720 0.950 . S
H713 C725 0.950 . S
H714 C722 0.950 . S
H715 C724 0.950 . S
H716 C726 0.950 . S
H717 C728 0.950 . S
H718 C730 0.950 . S
H719 C731 0.950 . S
C720 H712 0.950 . S
C720 C721 1.386 . S
C720 C722 1.391 . S
C721 C720 1.386 . S
C721 C725 1.393 . S
C722 H714 0.950 . S
C722 C720 1.391 . S
C722 C723 1.400 . S
C723 C722 1.400 . S
C723 C724 1.398 . S
C723 C729 1.491 . S
C724 H715 0.950 . S
C724 C723 1.398 . S
C724 C725 1.391 . S
C725 H713 0.950 . S
C725 C721 1.393 . S
C725 C724 1.391 . S
C726 H716 0.950 . S
C726 C727 1.386 . S
C726 C728 1.391 . S
C727 C726 1.386 . S
C727 C731 1.393 . S
C728 H717 0.950 . S
C728 C726 1.391 . S
C728 C729 1.400 . S
C729 C723 1.491 . S
C729 C728 1.400 . S
C729 C730 1.398 . S
C730 H718 0.950 . S
C730 C729 1.398 . S
C730 C731 1.391 . S
C731 H719 0.950 . S
C731 C727 1.393 . S
C731 C730 1.391 . S
H732 C740 0.950 . S
H733 C745 0.950 . S
H734 C742 0.950 . S
H735 C744 0.950 . S
H736 C746 0.950 . S
H737 C748 0.950 . S
H738 C750 0.950 . S
H739 C751 0.950 . S
C740 H732 0.950 . S
C740 C741 1.386 . S
C740 C742 1.391 . S
C741 C740 1.386 . S
C741 C745 1.393 . S
C742 H734 0.950 . S
C742 C740 1.391 . S
C742 C743 1.400 . S
C743 C742 1.400 . S
C743 C744 1.398 . S
C743 C749 1.491 . S
C744 H735 0.950 . S
C744 C743 1.398 . S
C744 C745 1.391 . S
C745 H733 0.950 . S
C745 C741 1.393 . S
C745 C744 1.391 . S
C746 H736 0.950 . S
C746 C747 1.386 . S
C746 C748 1.391 . S
C747 C746 1.386 . S
C747 C751 1.393 . S
C748 H737 0.950 . S
C748 C746 1.391 . S
C748 C749 1.400 . S
C749 C743 1.491 . S
C749 C748 1.400 . S
C749 C750 1.398 . S
C750 H738 0.950 . S
C750 C749 1.398 . S
C750 C751 1.391 . S
C751 H739 0.950 . S
C751 C747 1.393 . S
C751 C750 1.391 . S
H752 C760 0.950 . S
H753 C765 0.950 . S
H754 C762 0.950 . S
H755 C764 0.950 . S
H756 C766 0.950 . S
H757 C768 0.950 . S
H758 C770 0.950 . S
H759 C771 0.950 . S
C760 H752 0.950 . S
C760 C761 1.386 . S
C760 C762 1.391 . S
C761 C760 1.386 . S
C761 C765 1.393 . S
C762 H754 0.950 . S
C762 C760 1.391 . S
C762 C763 1.400 . S
C763 C762 1.400 . S
C763 C764 1.398 . S
C763 C769 1.491 . S
C764 H755 0.950 . S
C764 C763 1.398 . S
C764 C765 1.391 . S
C765 H753 0.950 . S
C765 C761 1.393 . S
C765 C764 1.391 . S
C766 H756 0.950 . S
C766 C767 1.386 . S
C766 C768 1.391 . S
C767 C766 1.386 . S
C767 C771 1.393 . S
C768 H757 0.950 . S
C768 C766 1.391 . S
C768 C769 1.400 . S
C769 C763 1.491 . S
C769 C768 1.400 . S
C769 C770 1.398 . S
C770 H758 0.950 . S
C770 C769 1.398 . S
C770 C771 1.391 . S
C771 H759 0.950 . S
C771 C767 1.393 . S
C771 C770 1.391 . S
H772 C780 0.950 . S
H773 C785 0.950 . S
H774 C782 0.950 . S
H775 C784 0.950 . S
H776 C786 0.950 . S
H777 C788 0.950 . S
H778 C790 0.950 . S
H779 C791 0.950 . S
C780 H772 0.950 . S
C780 C781 1.386 . S
C780 C782 1.391 . S
C781 C780 1.386 . S
C781 C785 1.393 . S
C782 H774 0.950 . S
C782 C780 1.391 . S
C782 C783 1.400 . S
C783 C782 1.400 . S
C783 C784 1.398 . S
C783 C789 1.491 . S
C784 H775 0.950 . S
C784 C783 1.398 . S
C784 C785 1.391 . S
C785 H773 0.950 . S
C785 C781 1.393 . S
C785 C784 1.391 . S
C786 H776 0.950 . S
C786 C787 1.386 . S
C786 C788 1.391 . S
C787 C786 1.386 . S
C787 C791 1.393 . S
C788 H777 0.950 . S
C788 C786 1.391 . S
C788 C789 1.400 . S
C789 C783 1.491 . S
C789 C788 1.400 . S
C789 C790 1.398 . S
C790 H778 0.950 . S
C790 C789 1.398 . S
C790 C791 1.391 . S
C791 H779 0.950 . S
C791 C787 1.393 . S
C791 C790 1.391 . S
H792 C800 0.950 . S
H793 C805 0.950 . S
H794 C802 0.950 . S
H795 C804 0.950 . S
H796 C806 0.950 . S
H797 C808 0.950 . S
H798 C810 0.950 . S
H799 C811 0.950 . S
C800 H792 0.950 . S
C800 C801 1.386 . S
C800 C802 1.391 . S
C801 C800 1.386 . S
C801 C805 1.393 . S
C802 H794 0.950 . S
C802 C800 1.391 . S
C802 C803 1.400 . S
C803 C802 1.400 . S
C803 C804 1.398 . S
C803 C809 1.491 . S
C804 H795 0.950 . S
C804 C803 1.398 . S
C804 C805 1.391 . S
C805 H793 0.950 . S
C805 C801 1.393 . S
C805 C804 1.391 . S
C806 H796 0.950 . S
C806 C807 1.386 . S
C806 C808 1.391 . S
C807 C806 1.386 . S
C807 C811 1.393 . S
C808 H797 0.950 . S
C808 C806 1.391 . S
C808 C809 1.400 . S
C809 C803 1.491 . S
C809 C808 1.400 . S
C809 C810 1.398 . S
C810 H798 0.950 . S
C810 C809 1.398 . S
C810 C811 1.391 . S
C811 H799 0.950 . S
C811 C807 1.393 . S
C811 C810 1.391 . S
H812 C820 0.950 . S
H813 C825 0.950 . S
H814 C822 0.950 . S
H815 C824 0.950 . S
H816 C826 0.950 . S
H817 C828 0.950 . S
H818 C830 0.950 . S
H819 C831 0.950 . S
C820 H812 0.950 . S
C820 C821 1.386 . S
C820 C822 1.391 . S
C821 C820 1.386 . S
C821 C825 1.393 . S
C822 H814 0.950 . S
C822 C820 1.391 . S
C822 C823 1.400 . S
C823 C822 1.400 . S
C823 C824 1.398 . S
C823 C829 1.491 . S
C824 H815 0.950 . S
C824 C823 1.398 . S
C824 C825 1.391 . S
C825 H813 0.950 . S
C825 C821 1.393 . S
C825 C824 1.391 . S
C826 H816 0.950 . S
C826 C827 1.386 . S
C826 C828 1.391 . S
C827 C826 1.386 . S
C827 C831 1.393 . S
C828 H817 0.950 . S
C828 C826 1.391 . S
C828 C829 1.400 . S
C829 C823 1.491 . S
C829 C828 1.400 . S
C829 C830 1.398 . S
C830 H818 0.950 . S
C830 C829 1.398 . S
C830 C831 1.391 . S
C831 H819 0.950 . S
C831 C827 1.393 . S
C831 C830 1.391 . S
H832 C840 0.950 . S
H833 C845 0.950 . S
H834 C842 0.950 . S
H835 C844 0.950 . S
H836 C846 0.950 . S
H837 C848 0.950 . S
H838 C850 0.950 . S
H839 C851 0.950 . S
C840 H832 0.950 . S
C840 C841 1.386 . S
C840 C842 1.391 . S
C841 C840 1.386 . S
C841 C845 1.393 . S
C842 H834 0.950 . S
C842 C840 1.391 . S
C842 C843 1.400 . S
C843 C842 1.400 . S
C843 C844 1.398 . S
C843 C849 1.491 . S
C844 H835 0.950 . S
C844 C843 1.398 . S
C844 C845 1.391 . S
C845 H833 0.950 . S
C845 C841 1.393 . S
C845 C844 1.391 . S
C846 H836 0.950 . S
C846 C847 1.386 . S
C846 C848 1.391 . S
C847 C846 1.386 . S
C847 C851 1.393 . S
C848 H837 0.950 . S
C848 C846 1.391 . S
C848 C849 1.400 . S
C849 C843 1.491 . S
C849 C848 1.400 . S
C849 C850 1.398 . S
C850 H838 0.950 . S
C850 C849 1.398 . S
C850 C851 1.391 . S
C851 H839 0.950 . S
C851 C847 1.393 . S
C851 C850 1.391 . S
H852 C860 0.950 . S
H853 C865 0.950 . S
H854 C862 0.950 . S
H855 C864 0.950 . S
H856 C866 0.950 . S
H857 C868 0.950 . S
H858 C870 0.950 . S
H859 C871 0.950 . S
C860 H852 0.950 . S
C860 C861 1.386 . S
C860 C862 1.391 . S
C861 C860 1.386 . S
C861 C865 1.393 . S
C862 H854 0.950 . S
C862 C860 1.391 . S
C862 C863 1.400 . S
C863 C862 1.400 . S
C863 C864 1.398 . S
C863 C869 1.491 . S
C864 H855 0.950 . S
C864 C863 1.398 . S
C864 C865 1.391 . S
C865 H853 0.950 . S
C865 C861 1.393 . S
C865 C864 1.391 . S
C866 H856 0.950 . S
C866 C867 1.386 . S
C866 C868 1.391 . S
C867 C866 1.386 . S
C867 C871 1.393 . S
C868 H857 0.950 . S
C868 C866 1.391 . S
C868 C869 1.400 . S
C869 C863 1.491 . S
C869 C868 1.400 . S
C869 C870 1.398 . S
C870 H858 0.950 . S
C870 C869 1.398 . S
C870 C871 1.391 . S
C871 H859 0.950 . S
C871 C867 1.393 . S
C871 C870 1.391 . S
H872 C880 0.950 . S
H873 C885 0.950 . S
H874 C882 0.950 . S
H875 C884 0.950 . S
H876 C886 0.950 . S
H877 C888 0.950 . S
H878 C890 0.950 . S
H879 C891 0.950 . S
C880 H872 0.950 . S
C880 C881 1.386 . S
C880 C882 1.391 . S
C881 C880 1.386 . S
C881 C885 1.393 . S
C882 H874 0.950 . S
C882 C880 1.391 . S
C882 C883 1.400 . S
C883 C882 1.400 . S
C883 C884 1.398 . S
C883 C889 1.491 . S
C884 H875 0.950 . S
C884 C883 1.398 . S
C884 C885 1.391 . S
C885 H873 0.950 . S
C885 C881 1.393 . S
C885 C884 1.391 . S
C886 H876 0.950 . S
C886 C887 1.386 . S
C886 C888 1.391 . S
C887 C886 1.386 . S
C887 C891 1.393 . S
C888 H877 0.950 . S
C888 C886 1.391 . S
C888 C889 1.400 . S
C889 C883 1.491 . S
C889 C888 1.400 . S
C889 C890 1.398 . S
C890 H878 0.950 . S
C890 C889 1.398 . S
C890 C891 1.391 . S
C891 H879 0.950 . S
C891 C887 1.393 . S
C891 C890 1.391 . S
H892 C900 0.950 . S
H893 C905 0.950 . S
H894 C902 0.950 . S
H895 C904 0.950 . S
H896 C906 0.950 . S
H897 C908 0.950 . S
H898 C910 0.950 . S
H899 C911 0.950 . S
C900 H892 0.950 . S
C900 C901 1.386 . S
C900 C902 1.391 . S
C901 C900 1.386 . S
C901 C905 1.393 . S
C902 H894 0.950 . S
C902 C900 1.391 . S
C902 C903 1.400 . S
C903 C902 1.400 . S
C903 C904 1.398 . S
C903 C909 1.491 . S
C904 H895 0.950 . S
C904 C903 1.398 . S
C904 C905 1.391 . S
C905 H893 0.950 . S
C905 C901 1.393 . S
C905 C904 1.391 . S
C906 H896 0.950 . S
C906 C907 1.386 . S
C906 C908 1.391 . S
C907 C906 1.386 . S
C907 C911 1.393 . S
C908 H897 0.950 . S
C908 C906 1.391 . S
C908 C909 1.400 . S
C909 C903 1.491 . S
C909 C908 1.400 . S
C909 C910 1.398 . S
C910 H898 0.950 . S
C910 C909 1.398 . S
C910 C911 1.391 . S
C911 H899 0.950 . S
C911 C907 1.393 . S
C911 C910 1.391 . S
H912 C920 0.950 . S
H913 C925 0.950 . S
H914 C922 0.950 . S
H915 C924 0.950 . S
H916 C926 0.950 . S
H917 C928 0.950 . S
H918 C930 0.950 . S
H919 C931 0.950 . S
C920 H912 0.950 . S
C920 C921 1.386 . S
C920 C922 1.391 . S
C921 C920 1.386 . S
C921 C925 1.393 . S
C922 H914 0.950 . S
C922 C920 1.391 . S
C922 C923 1.400 . S
C923 C922 1.400 . S
C923 C924 1.398 . S
C923 C929 1.491 . S
C924 H915 0.950 . S
C924 C923 1.398 . S
C924 C925 1.391 . S
C925 H913 0.950 . S
C925 C921 1.393 . S
C925 C924 1.391 . S
C926 H916 0.950 . S
C926 C927 1.386 . S
C926 C928 1.391 . S
C927 C926 1.386 . S
C927 C931 1.393 . S
C928 H917 0.950 . S
C928 C926 1.391 . S
C928 C929 1.400 . S
C929 C923 1.491 . S
C929 C928 1.400 . S
C929 C930 1.398 . S
C930 H918 0.950 . S
C930 C929 1.398 . S
C930 C931 1.391 . S
C931 H919 0.950 . S
C931 C927 1.393 . S
C931 C930 1.391 . S
H932 C940 0.950 . S
H933 C945 0.950 . S
H934 C942 0.950 . S
H935 C944 0.950 . S
H936 C946 0.950 . S
H937 C948 0.950 . S
H938 C950 0.950 . S
H939 C951 0.950 . S
C940 H932 0.950 . S
C940 C941 1.386 . S
C940 C942 1.391 . S
C941 C940 1.386 . S
C941 C945 1.393 . S
C942 H934 0.950 . S
C942 C940 1.391 . S
C942 C943 1.400 . S
C943 C942 1.400 . S
C943 C944 1.398 . S
C943 C949 1.491 . S
C944 H935 0.950 . S
C944 C943 1.398 . S
C944 C945 1.391 . S
C945 H933 0.950 . S
C945 C941 1.393 . S
C945 C944 1.391 . S
C946 H936 0.950 . S
C946 C947 1.386 . S
C946 C948 1.391 . S
C947 C946 1.386 . S
C947 C951 1.393 . S
C948 H937 0.950 . S
C948 C946 1.391 . S
C948 C949 1.400 . S
C949 C943 1.491 . S
C949 C948 1.400 . S
C949 C950 1.398 . S
C950 H938 0.950 . S
C950 C949 1.398 . S
C950 C951 1.391 . S
C951 H939 0.950 . S
C951 C947 1.393 . S
C951 C950 1.391 . S
H952 C960 0.950 . S
H953 C965 0.950 . S
H954 C962 0.950 . S
H955 C964 0.950 . S
H956 C966 0.950 . S
H957 C968 0.950 . S
H958 C970 0.950 . S
H959 C971 0.950 . S
C960 H952 0.950 . S
C960 C961 1.386 . S
C960 C962 1.391 . S
C961 C960 1.386 . S
C961 C965 1.393 . S
C962 H954 0.950 . S
C962 C960 1.391 . S
C962 C963 1.400 . S
C963 C962 1.400 . S
C963 C964 1.398 . S
C963 C969 1.491 . S
C964 H955 0.950 . S
C964 C963 1.398 . S
C964 C965 1.391 . S
C965 H953 0.950 . S
C965 C961 1.393 . S
C965 C964 1.391 . S
C966 H956 0.950 . S
C966 C967 1.386 . S
C966 C968 1.391 . S
C967 C966 1.386 . S
C967 C971 1.393 . S
C968 H957 0.950 . S
C968 C966 1.391 . S
C968 C969 1.400 . S
C969 C963 1.491 . S
C969 C968 1.400 . S
C969 C970 1.398 . S
C970 H958 0.950 . S
C970 C969 1.398 . S
C970 C971 1.391 . S
C971 H959 0.950 . S
C971 C967 1.393 . S
C971 C970 1.391 . S
H972 C980 0.950 . S
H973 C985 0.950 . S
H974 C982 0.950 . S
H975 C984 0.950 . S
H976 C986 0.950 . S
H977 C988 0.950 . S
H978 C990 0.950 . S
H979 C991 0.950 . S
C980 H972 0.950 . S
C980 C981 1.386 . S
C980 C982 1.391 . S
C981 C980 1.386 . S
C981 C985 1.393 . S
C982 H974 0.950 . S
C982 C980 1.391 . S
C982 C983 1.400 . S
C983 C982 1.400 . S
C983 C984 1.398 . S
C983 C989 1.491 . S
C984 H975 0.950 . S
C984 C983 1.398 . S
C984 C985 1.391 . S
C985 H973 0.950 . S
C985 C981 1.393 . S
C985 C984 1.391 . S
C986 H976 0.950 . S
C986 C987 1.386 . S
C986 C988 1.391 . S
C987 C986 1.386 . S
C987 C991 1.393 . S
C988 H977 0.950 . S
C988 C986 1.391 . S
C988 C989 1.400 . S
C989 C983 1.491 . S
C989 C988 1.400 . S
C989 C990 1.398 . S
C990 H978 0.950 . S
C990 C989 1.398 . S
C990 C991 1.391 . S
C991 H979 0.950 . S
C991 C987 1.393 . S
C991 C990 1.391 . S
H992 C1000 0.950 . S
H993 C1005 0.950 . S
H994 C1002 0.950 . S
H995 C1004 0.950 . S
H996 C1006 0.950 . S
H997 C1008 0.950 . S
H998 C1010 0.950 . S
H999 C1011 0.950 . S
C1000 H992 0.950 . S
C1000 C1001 1.386 . S
C1000 C1002 1.391 . S
C1001 C1000 1.386 . S
C1001 C1005 1.393 . S
C1002 H994 0.950 . S
C1002 C1000 1.391 . S
C1002 C1003 1.400 . S
C1003 C1002 1.400 . S
C1003 C1004 1.398 . S
C1003 C1009 1.491 . S
C1004 H995 0.950 . S
C1004 C1003 1.398 . S
C1004 C1005 1.391 . S
C1005 H993 0.950 . S
C1005 C1001 1.393 . S
C1005 C1004 1.391 . S
C1006 H996 0.950 . S
C1006 C1007 1.386 . S
C1006 C1008 1.391 . S
C1007 C1006 1.386 . S
C1007 C1011 1.393 . S
C1008 H997 0.950 . S
C1008 C1006 1.391 . S
C1008 C1009 1.400 . S
C1009 C1003 1.491 . S
C1009 C1008 1.400 . S
C1009 C1010 1.398 . S
C1010 H998 0.950 . S
C1010 C1009 1.398 . S
C1010 C1011 1.391 . S
C1011 H999 0.950 . S
C1011 C1007 1.393 . S
C1011 C1010 1.391 . S
H1012 C1020 0.950 . S
H1013 C1025 0.950 . S
H1014 C1022 0.950 . S
H1015 C1024 0.950 . S
H1016 C1026 0.950 . S
H1017 C1028 0.950 . S
H1018 C1030 0.950 . S
H1019 C1031 0.950 . S
C1020 H1012 0.950 . S
C1020 C1021 1.386 . S
C1020 C1022 1.391 . S
C1021 C1020 1.386 . S
C1021 C1025 1.393 . S
C1022 H1014 0.950 . S
C1022 C1020 1.391 . S
C1022 C1023 1.400 . S
C1023 C1022 1.400 . S
C1023 C1024 1.398 . S
C1023 C1029 1.491 . S
C1024 H1015 0.950 . S
C1024 C1023 1.398 . S
C1024 C1025 1.391 . S
C1025 H1013 0.950 . S
C1025 C1021 1.393 . S
C1025 C1024 1.391 . S
C1026 H1016 0.950 . S
C1026 C1027 1.386 . S
C1026 C1028 1.391 . S
C1027 C1026 1.386 . S
C1027 C1031 1.393 . S
C1028 H1017 0.950 . S
C1028 C1026 1.391 . S
C1028 C1029 1.400 . S
C1029 C1023 1.491 . S
C1029 C1028 1.400 . S
C1029 C1030 1.398 . S
C1030 H1018 0.950 . S
C1030 C1029 1.398 . S
C1030 C1031 1.391 . S
C1031 H1019 0.950 . S
C1031 C1027 1.393 . S
C1031 C1030 1.391 . S
H1032 C1040 0.950 . S
H1033 C1045 0.950 . S
H1034 C1042 0.950 . S
H1035 C1044 0.950 . S
H1036 C1046 0.950 . S
H1037 C1048 0.950 . S
H1038 C1050 0.950 . S
H1039 C1051 0.950 . S
C1040 H1032 0.950 . S
C1040 C1041 1.386 . S
C1040 C1042 1.391 . S
C1041 C1040 1.386 . S
C1041 C1045 1.393 . S
C1042 H1034 0.950 . S
C1042 C1040 1.391 . S
C1042 C1043 1.400 . S
C1043 C1042 1.400 . S
C1043 C1044 1.398 . S
C1043 C1049 1.491 . S
C1044 H1035 0.950 . S
C1044 C1043 1.398 . S
C1044 C1045 1.391 . S
C1045 H1033 0.950 . S
C1045 C1041 1.393 . S
C1045 C1044 1.391 . S
C1046 H1036 0.950 . S
C1046 C1047 1.386 . S
C1046 C1048 1.391 . S
C1047 C1046 1.386 . S
C1047 C1051 1.393 . S
C1048 H1037 0.950 . S
C1048 C1046 1.391 . S
C1048 C1049 1.400 . S
C1049 C1043 1.491 . S
C1049 C1048 1.400 . S
C1049 C1050 1.398 . S
C1050 H1038 0.950 . S
C1050 C1049 1.398 . S
C1050 C1051 1.391 . S
C1051 H1039 0.950 . S
C1051 C1047 1.393 . S
C1051 C1050 1.391 . S
H1052 C1060 0.950 . S
H1053 C1065 0.950 . S
H1054 C1062 0.950 . S
H1055 C1064 0.950 . S
H1056 C1066 0.950 . S
H1057 C1068 0.950 . S
H1058 C1070 0.950 . S
H1059 C1071 0.950 . S
C1060 H1052 0.950 . S
C1060 C1061 1.386 . S
C1060 C1062 1.391 . S
C1061 C1060 1.386 . S
C1061 C1065 1.393 . S
C1062 H1054 0.950 . S
C1062 C1060 1.391 . S
C1062 C1063 1.400 . S
C1063 C1062 1.400 . S
C1063 C1064 1.398 . S
C1063 C1069 1.491 . S
C1064 H1055 0.950 . S
C1064 C1063 1.398 . S
C1064 C1065 1.391 . S
C1065 H1053 0.950 . S
C1065 C1061 1.393 . S
C1065 C1064 1.391 . S
C1066 H1056 0.950 . S
C1066 C1067 1.386 . S
C1066 C1068 1.391 . S
C1067 C1066 1.386 . S
C1067 C1071 1.393 . S
C1068 H1057 0.950 . S
C1068 C1066 1.391 . S
C1068 C1069 1.400 . S
C1069 C1063 1.491 . S
C1069 C1068 1.400 . S
C1069 C1070 1.398 . S
C1070 H1058 0.950 . S
C1070 C1069 1.398 . S
C1070 C1071 1.391 . S
C1071 H1059 0.950 . S
C1071 C1067 1.393 . S
C1071 C1070 1.391 . S
H1072 C1080 0.950 . S
H1073 C1085 0.950 . S
H1074 C1082 0.950 . S
H1075 C1084 0.950 . S
H1076 C1086 0.950 . S
H1077 C1088 0.950 . S
H1078 C1090 0.950 . S
H1079 C1091 0.950 . S
C1080 H1072 0.950 . S
C1080 C1081 1.386 . S
C1080 C1082 1.391 . S
C1081 C1080 1.386 . S
C1081 C1085 1.393 . S
C1082 H1074 0.950 . S
C1082 C1080 1.391 . S
C1082 C1083 1.400 . S
C1083 C1082 1.400 . S
C1083 C1084 1.398 . S
C1083 C1089 1.491 . S
C1084 H1075 0.950 . S
C1084 C1083 1.398 . S
C1084 C1085 1.391 . S
C1085 H1073 0.950 . S
C1085 C1081 1.393 . S
C1085 C1084 1.391 . S
C1086 H1076 0.950 . S
C1086 C1087 1.386 . S
C1086 C1088 1.391 . S
C1087 C1086 1.386 . S
C1087 C1091 1.393 . S
C1088 H1077 0.950 . S
C1088 C1086 1.391 . S
C1088 C1089 1.400 . S
C1089 C1083 1.491 . S
C1089 C1088 1.400 . S
C1089 C1090 1.398 . S
C1090 H1078 0.950 . S
C1090 C1089 1.398 . S
C1090 C1091 1.391 . S
C1091 H1079 0.950 . S
C1091 C1087 1.393 . S
C1091 C1090 1.391 . S
H1092 C1100 0.950 . S
H1093 C1105 0.950 . S
H1094 C1102 0.950 . S
H1095 C1104 0.950 . S
H1096 C1106 0.950 . S
H1097 C1108 0.950 . S
H1098 C1110 0.950 . S
H1099 C1111 0.950 . S
C1100 H1092 0.950 . S
C1100 C1101 1.386 . S
C1100 C1102 1.391 . S
C1101 C1100 1.386 . S
C1101 C1105 1.393 . S
C1102 H1094 0.950 . S
C1102 C1100 1.391 . S
C1102 C1103 1.400 . S
C1103 C1102 1.400 . S
C1103 C1104 1.398 . S
C1103 C1109 1.491 . S
C1104 H1095 0.950 . S
C1104 C1103 1.398 . S
C1104 C1105 1.391 . S
C1105 H1093 0.950 . S
C1105 C1101 1.393 . S
C1105 C1104 1.391 . S
C1106 H1096 0.950 . S
C1106 C1107 1.386 . S
C1106 C1108 1.391 . S
C1107 C1106 1.386 . S
C1107 C1111 1.393 . S
C1108 H1097 0.950 . S
C1108 C1106 1.391 . S
C1108 C1109 1.400 . S
C1109 C1103 1.491 . S
C1109 C1108 1.400 . S
C1109 C1110 1.398 . S
C1110 H1098 0.950 . S
C1110 C1109 1.398 . S
C1110 C1111 1.391 . S
C1111 H1099 0.950 . S
C1111 C1107 1.393 . S
C1111 C1110 1.391 . S
H1112 C1120 0.950 . S
H1113 C1125 0.950 . S
H1114 C1122 0.950 . S
H1115 C1124 0.950 . S
H1116 C1126 0.950 . S
H1117 C1128 0.950 . S
H1118 C1130 0.950 . S
H1119 C1131 0.950 . S
C1120 H1112 0.950 . S
C1120 C1121 1.386 . S
C1120 C1122 1.391 . S
C1121 C1120 1.386 . S
C1121 C1125 1.393 . S
C1122 H1114 0.950 . S
C1122 C1120 1.391 . S
C1122 C1123 1.400 . S
C1123 C1122 1.400 . S
C1123 C1124 1.398 . S
C1123 C1129 1.491 . S
C1124 H1115 0.950 . S
C1124 C1123 1.398 . S
C1124 C1125 1.391 . S
C1125 H1113 0.950 . S
C1125 C1121 1.393 . S
C1125 C1124 1.391 . S
C1126 H1116 0.950 . S
C1126 C1127 1.386 . S
C1126 C1128 1.391 . S
C1127 C1126 1.386 . S
C1127 C1131 1.393 . S
C1128 H1117 0.950 . S
C1128 C1126 1.391 . S
C1128 C1129 1.400 . S
C1129 C1123 1.491 . S
C1129 C1128 1.400 . S
C1129 C1130 1.398 . S
C1130 H1118 0.950 . S
C1130 C1129 1.398 . S
C1130 C1131 1.391 . S
C1131 H1119 0.950 . S
C1131 C1127 1.393 . S
C1131 C1130 1.391 . S
H1132 C1140 0.950 . S
H1133 C1145 0.950 . S
H1134 C1142 0.950 . S
H1135 C1144 0.950 . S
H1136 C1146 0.950 . S
H1137 C1148 0.950 . S
H1138 C1150 0.950 . S
H1139 C1151 0.950 . S
C1140 H1132 0.950 . S
C1140 C1141 1.386 . S
C1140 C1142 1.391 . S
C1141 C1140 1.386 . S
C1141 C1145 1.393 . S
C1142 H1134 0.950 . S
C1142 C1140 1.391 . S
C1142 C1143 1.400 . S
C1143 C1142 1.400 . S
C1143 C1144 1.398 . S
C1143 C1149 1.491 . S
C1144 H1135 0.950 . S
C1144 C1143 1.398 . S
C1144 C1145 1.391 . S
C1145 H1133 0.950 . S
C1145 C1141 1.393 . S
C1145 C1144 1.391 . S
C1146 H1136 0.950 . S
C1146 C1147 1.386 . S
C1146 C1148 1.391 . S
C1147 C1146 1.386 . S
C1147 C1151 1.393 . S
C1148 H1137 0.950 . S
C1148 C1146 1.391 . S
C1148 C1149 1.400 . S
C1149 C1143 1.491 . S
C1149 C1148 1.400 . S
C1149 C1150 1.398 . S
C1150 H1138 0.950 . S
C1150 C1149 1.398 . S
C1150 C1151 1.391 . S
C1151 H1139 0.950 . S
C1151 C1147 1.393 . S
C1151 C1150 1.391 . S
H1152 C1160 0.950 . S
H1153 C1165 0.950 . S
H1154 C1162 0.950 . S
H1155 C1164 0.950 . S
H1156 C1166 0.950 . S
H1157 C1168 0.950 . S
H1158 C1170 0.950 . S
H1159 C1171 0.950 . S
C1160 H1152 0.950 . S
C1160 C1161 1.386 . S
C1160 C1162 1.391 . S
C1161 C1160 1.386 . S
C1161 C1165 1.393 . S
C1162 H1154 0.950 . S
C1162 C1160 1.391 . S
C1162 C1163 1.400 . S
C1163 C1162 1.400 . S
C1163 C1164 1.398 . S
C1163 C1169 1.491 . S
C1164 H1155 0.950 . S
C1164 C1163 1.398 . S
C1164 C1165 1.391 . S
C1165 H1153 0.950 . S
C1165 C1161 1.393 . S
C1165 C1164 1.391 . S
C1166 H1156 0.950 . S
C1166 C1167 1.386 . S
C1166 C1168 1.391 . S
C1167 C1166 1.386 . S
C1167 C1171 1.393 . S
C1168 H1157 0.950 . S
C1168 C1166 1.391 . S
C1168 C1169 1.400 . S
C1169 C1163 1.491 . S
C1169 C1168 1.400 . S
C1169 C1170 1.398 . S
C1170 H1158 0.950 . S
C1170 C1169 1.398 . S
C1170 C1171 1.391 . S
C1171 H1159 0.950 . S
C1171 C1167 1.393 . S
C1171 C1170 1.391 . S
H1172 C1180 0.950 . S
H1173 C1185 0.950 . S
H1174 C1182 0.950 . S
H1175 C1184 0.950 . S
H1176 C1186 0.950 . S
H1177 C1188 0.950 . S
H1178 C1190 0.950 . S
H1179 C1191 0.950 . S
C1180 H1172 0.950 . S
C1180 C1181 1.386 . S
C1180 C1182 1.391 . S
C1181 C1180 1.386 . S
C1181 C1185 1.393 . S
C1182 H1174 0.950 . S
C1182 C1180 1.391 . S
C1182 C1183 1.400 . S
C1183 C1182 1.400 . S
C1183 C1184 1.398 . S
C1183 C1189 1.491 . S
C1184 H1175 0.950 . S
C1184 C1183 1.398 . S
C1184 C1185 1.391 . S
C1185 H1173 0.950 . S
C1185 C1181 1.393 . S
C1185 C1184 1.391 . S
C1186 H1176 0.950 . S
C1186 C1187 1.386 . S
C1186 C1188 1.391 . S
C1187 C1186 1.386 . S
C1187 C1191 1.393 . S
C1188 H1177 0.950 . S
C1188 C1186 1.391 . S
C1188 C1189 1.400 . S
C1189 C1183 1.491 . S
C1189 C1188 1.400 . S
C1189 C1190 1.398 . S
C1190 H1178 0.950 . S
C1190 C1189 1.398 . S
C1190 C1191 1.391 . S
C1191 H1179 0.950 . S
C1191 C1187 1.393 . S
C1191 C1190 1.391 . S
H1192 C1200 0.950 . S
H1193 C1205 0.950 . S
H1194 C1202 0.950 . S
H1195 C1204 0.950 . S
H1196 C1206 0.950 . S
H1197 C1208 0.950 . S
H1198 C1210 0.950 . S
H1199 C1211 0.950 . S
C1200 H1192 0.950 . S
C1200 C1201 1.386 . S
C1200 C1202 1.391 . S
C1201 C1200 1.386 . S
C1201 C1205 1.393 . S
C1202 H1194 0.950 . S
C1202 C1200 1.391 . S
C1202 C1203 1.400 . S
C1203 C1202 1.400 . S
C1203 C1204 1.398 . S
C1203 C1209 1.491 . S
C1204 H1195 0.950 . S
C1204 C1203 1.398 . S
C1204 C1205 1.391 . S
C1205 H1193 0.950 . S
C1205 C1201 1.393 . S
C1205 C1204 1.391 . S
C1206 H1196 0.950 . S
C1206 C1207 1.386 . S
C1206 C1208 1.391 . S
C1207 C1206 1.386 . S
C1207 C1211 1.393 . S
C1208 H1197 0.950 . S
C1208 C1206 1.391 . S
C1208 C1209 1.400 . S
C1209 C1203 1.491 . S
C1209 C1208 1.400 . S
C1209 C1210 1.398 . S
C1210 H1198 0.950 . S
C1210 C1209 1.398 . S
C1210 C1211 1.391 . S
C1211 H1199 0.950 . S
C1211 C1207 1.393 . S
C1211 C1210 1.391 . S
H1212 C1220 0.950 . S
H1213 C1225 0.950 . S
H1214 C1222 0.950 . S
H1215 C1224 0.950 . S
H1216 C1226 0.950 . S
H1217 C1228 0.950 . S
H1218 C1230 0.950 . S
H1219 C1231 0.950 . S
C1220 H1212 0.950 . S
C1220 C1221 1.386 . S
C1220 C1222 1.391 . S
C1221 C1220 1.386 . S
C1221 C1225 1.393 . S
C1222 H1214 0.950 . S
C1222 C1220 1.391 . S
C1222 C1223 1.400 . S
C1223 C1222 1.400 . S
C1223 C1224 1.398 . S
C1223 C1229 1.491 . S
C1224 H1215 0.950 . S
C1224 C1223 1.398 . S
C1224 C1225 1.391 . S
C1225 H1213 0.950 . S
C1225 C1221 1.393 . S
C1225 C1224 1.391 . S
C1226 H1216 0.950 . S
C1226 C1227 1.386 . S
C1226 C1228 1.391 . S
C1227 C1226 1.386 . S
C1227 C1231 1.393 . S
C1228 H1217 0.950 . S
C1228 C1226 1.391 . S
C1228 C1229 1.400 . S
C1229 C1223 1.491 . S
C1229 C1228 1.400 . S
C1229 C1230 1.398 . S
C1230 H1218 0.950 . S
C1230 C1229 1.398 . S
C1230 C1231 1.391 . S
C1231 H1219 0.950 . S
C1231 C1227 1.393 . S
C1231 C1230 1.391 . S
H1232 C1240 0.950 . S
H1233 C1245 0.950 . S
H1234 C1242 0.950 . S
H1235 C1244 0.950 . S
H1236 C1246 0.950 . S
H1237 C1248 0.950 . S
H1238 C1250 0.950 . S
H1239 C1251 0.950 . S
C1240 H1232 0.950 . S
C1240 C1241 1.386 . S
C1240 C1242 1.391 . S
C1241 C1240 1.386 . S
C1241 C1245 1.393 . S
C1242 H1234 0.950 . S
C1242 C1240 1.391 . S
C1242 C1243 1.400 . S
C1243 C1242 1.400 . S
C1243 C1244 1.398 . S
C1243 C1249 1.491 . S
C1244 H1235 0.950 . S
C1244 C1243 1.398 . S
C1244 C1245 1.391 . S
C1245 H1233 0.950 . S
C1245 C1241 1.393 . S
C1245 C1244 1.391 . S
C1246 H1236 0.950 . S
C1246 C1247 1.386 . S
C1246 C1248 1.391 . S
C1247 C1246 1.386 . S
C1247 C1251 1.393 . S
C1248 H1237 0.950 . S
C1248 C1246 1.391 . S
C1248 C1249 1.400 . S
C1249 C1243 1.491 . S
C1249 C1248 1.400 . S
C1249 C1250 1.398 . S
C1250 H1238 0.950 . S
C1250 C1249 1.398 . S
C1250 C1251 1.391 . S
C1251 H1239 0.950 . S
C1251 C1247 1.393 . S
C1251 C1250 1.391 . S
H1252 C1260 0.950 . S
H1253 C1265 0.950 . S
H1254 C1262 0.950 . S
H1255 C1264 0.950 . S
H1256 C1266 0.950 . S
H1257 C1268 0.950 . S
H1258 C1270 0.950 . S
H1259 C1271 0.950 . S
C1260 H1252 0.950 . S
C1260 C1261 1.386 . S
C1260 C1262 1.391 . S
C1261 C1260 1.386 . S
C1261 C1265 1.393 . S
C1262 H1254 0.950 . S
C1262 C1260 1.391 . S
C1262 C1263 1.400 . S
C1263 C1262 1.400 . S
C1263 C1264 1.398 . S
C1263 C1269 1.491 . S
C1264 H1255 0.950 . S
C1264 C1263 1.398 . S
C1264 C1265 1.391 . S
C1265 H1253 0.950 . S
C1265 C1261 1.393 . S
C1265 C1264 1.391 . S
C1266 H1256 0.950 . S
C1266 C1267 1.386 . S
C1266 C1268 1.391 . S
C1267 C1266 1.386 . S
C1267 C1271 1.393 . S
C1268 H1257 0.950 . S
C1268 C1266 1.391 . S
C1268 C1269 1.400 . S
C1269 C1263 1.491 . S
C1269 C1268 1.400 . S
C1269 C1270 1.398 . S
C1270 H1258 0.950 . S
C1270 C1269 1.398 . S
C1270 C1271 1.391 . S
C1271 H1259 0.950 . S
C1271 C1267 1.393 . S
C1271 C1270 1.391 . S
H1272 C1280 0.950 . S
H1273 C1285 0.950 . S
H1274 C1282 0.950 . S
H1275 C1284 0.950 . S
H1276 C1286 0.950 . S
H1277 C1288 0.950 . S
H1278 C1290 0.950 . S
H1279 C1291 0.950 . S
C1280 H1272 0.950 . S
C1280 C1281 1.386 . S
C1280 C1282 1.391 . S
C1281 C1280 1.386 . S
C1281 C1285 1.393 . S
C1282 H1274 0.950 . S
C1282 C1280 1.391 . S
C1282 C1283 1.400 . S
C1283 C1282 1.400 . S
C1283 C1284 1.398 . S
C1283 C1289 1.491 . S
C1284 H1275 0.950 . S
C1284 C1283 1.398 . S
C1284 C1285 1.391 . S
C1285 H1273 0.950 . S
C1285 C1281 1.393 . S
C1285 C1284 1.391 . S
C1286 H1276 0.950 . S
C1286 C1287 1.386 . S
C1286 C1288 1.391 . S
C1287 C1286 1.386 . S
C1287 C1291 1.393 . S
C1288 H1277 0.950 . S
C1288 C1286 1.391 . S
C1288 C1289 1.400 . S
C1289 C1283 1.491 . S
C1289 C1288 1.400 . S
C1289 C1290 1.398 . S
C1290 H1278 0.950 . S
C1290 C1289 1.398 . S
C1290 C1291 1.391 . S
C1291 H1279 0.950 . S
C1291 C1287 1.393 . S
C1291 C1290 1.391 . S
H1292 C1300 0.950 . S
H1293 C1305 0.950 . S
H1294 C1302 0.950 . S
H1295 C1304 0.950 . S
H1296 C1306 0.950 . S
H1297 C1308 0.950 . S
H1298 C1310 0.950 . S
H1299 C1311 0.950 . S
C1300 H1292 0.950 . S
C1300 C1301 1.386 . S
C1300 C1302 1.391 . S
C1301 C1300 1.386 . S
C1301 C1305 1.393 . S
C1302 H1294 0.950 . S
C1302 C1300 1.391 . S
C1302 C1303 1.400 . S
C1303 C1302 1.400 . S
C1303 C1304 1.398 . S
C1303 C1309 1.491 . S
C1304 H1295 0.950 . S
C1304 C1303 1.398 . S
C1304 C1305 1.391 . S
C1305 H1293 0.950 . S
C1305 C1301 1.393 . S
C1305 C1304 1.391 . S
C1306 H1296 0.950 . S
C1306 C1307 1.386 . S
C1306 C1308 1.391 . S
C1307 C1306 1.386 . S
C1307 C1311 1.393 . S
C1308 H1297 0.950 . S
C1308 C1306 1.391 . S
C1308 C1309 1.400 . S
C1309 C1303 1.491 . S
C1309 C1308 1.400 . S
C1309 C1310 1.398 . S
C1310 H1298 0.950 . S
C1310 C1309 1.398 . S
C1310 C1311 1.391 . S
C1311 H1299 0.950 . S
C1311 C1307 1.393 . S
C1311 C1310 1.391 . S
C367 C177 2.132 . S
C361 C19 2.078 . S
C387 C182 1.491 . S
C381 C24 1.442 . S
C407 C183 1.346 . S
C401 C59 1.346 . S
C421 C69 1.318 . S
C427 C187 1.346 . S
C441 C82 1.436 . S
C447 C190 1.496 . S
C467 C191 1.355 . S
C461 C118 1.328 . S
C481 C132 1.323 . S
C487 C168 1.344 . S
C501 C158 2.087 . S
C507 C184 2.133 . S
C527 C222 1.605 . S
C521 C4 1.531 . S
C541 C29 0.894 . S
C547 C248 0.903 . S
C567 C200 1.484 . S
C561 C44 1.429 . S
C587 C255 1.322 . S
C581 C79 1.324 . S
C601 C98 1.317 . S
C607 C209 1.337 . S
C627 C251 1.321 . S
C621 C112 1.305 . S
C641 C122 1.177 . S
C647 C215 1.187 . S
C661 C152 1.228 . S
C667 C246 1.252 . S
C681 C9 1.223 . S
C687 C254 1.246 . S
C701 C92 0.916 . S
C707 C241 0.903 . S
C727 C219 1.469 . S
C721 C102 1.424 . S
C747 C247 1.320 . S
C741 C138 1.330 . S
C761 C142 1.550 . S
C767 C214 1.620 . S
C781 C49 1.280 . S
C787 C232 1.296 . S
C807 C223 1.217 . S
C801 C64 1.179 . S
C821 C39 1.338 . S
C827 C216 1.308 . S
C841 C159 2.074 . S
C847 C278 2.080 . S
C861 C84 1.435 . S
C867 C273 1.472 . S
C887 C287 1.319 . S
C881 C119 1.326 . S
C907 C264 1.312 . S
C901 C129 1.305 . S
C921 C22 1.404 . S
C927 C280 1.466 . S
C947 C279 1.310 . S
C941 C58 1.313 . S
C961 C72 1.300 . S
C967 C283 1.315 . S
C981 C18 2.058 . S
C987 C286 2.062 . S
C1001 C144 1.542 . S
C1007 C312 1.665 . S
C1027 C328 0.943 . S
C1021 C89 0.953 . S
C1041 C104 1.420 . S
C1047 C310 1.499 . S
C1061 C139 1.347 . S
C1067 C343 1.321 . S
C1087 C319 1.336 . S
C1081 C38 1.312 . S
C1101 C52 1.335 . S
C1107 C337 1.336 . S
C1127 C315 1.214 . S
C1121 C62 1.159 . S
C1147 C350 1.253 . S
C1141 C12 1.216 . S
C1167 C342 1.241 . S
C1161 C149 1.214 . S
C1181 C32 0.921 . S
C1187 C347 0.943 . S
C1201 C42 1.406 . S
C1207 C318 1.512 . S
C1227 C351 1.335 . S
C1221 C78 1.352 . S
C1241 C2 1.525 . S
C1247 C305 1.663 . S
C1261 C109 1.337 . S
C1267 C344 1.341 . S
C1287 C296 1.225 . S
C1281 C124 1.148 . S
C1307 C311 1.311 . S
C1301 C99 1.331 . S
