# Generated by pormake.
# Topology ocu, (6,8)-cn, num edge types: 1
# Building blocks:
#     Node 0, Type 0, BuildingBlock: MIFKUJ_clean_sbu_0, # of connection points: 6
#     Node 1, Type 0, BuildingBlock: MIFKUJ_clean_sbu_0, # of connection points: 6
#     Node 2, Type 0, BuildingBlock: MIFKUJ_clean_sbu_0, # of connection points: 6
#     Node 3, Type 0, BuildingBlock: MIFKUJ_clean_sbu_0, # of connection points: 6
#     Node 4, Type 0, BuildingBlock: MIFKUJ_clean_sbu_0, # of connection points: 6
#     Node 5, Type 0, BuildingBlock: MIFKUJ_clean_sbu_0, # of connection points: 6
#     Node 6, Type 0, BuildingBlock: MIFKUJ_clean_sbu_0, # of connection points: 6
#     Node 7, Type 0, BuildingBlock: MIFKUJ_clean_sbu_0, # of connection points: 6
#     Node 8, Type 1, BuildingBlock: VETTIZ_charged_sbu_0, # of connection points: 8
#     Node 9, Type 1, BuildingBlock: VETTIZ_charged_sbu_0, # of connection points: 8
#     Node 10, Type 1, BuildingBlock: VETTIZ_charged_sbu_0, # of connection points: 8
#     Node 11, Type 1, BuildingBlock: VETTIZ_charged_sbu_0, # of connection points: 8
#     Node 12, Type 1, BuildingBlock: VETTIZ_charged_sbu_0, # of connection points: 8
#     Node 13, Type 1, BuildingBlock: VETTIZ_charged_sbu_0, # of connection points: 8
#     Edge 14, Type (0, 1), BuildingBlock: AJUNOK_clean_linker_0, # of connection points: 2
#     Edge 15, Type (0, 1), BuildingBlock: AJUNOK_clean_linker_0, # of connection points: 2
#     Edge 16, Type (0, 1), BuildingBlock: AJUNOK_clean_linker_0, # of connection points: 2
#     Edge 17, Type (0, 1), BuildingBlock: AJUNOK_clean_linker_0, # of connection points: 2
#     Edge 18, Type (0, 1), BuildingBlock: AJUNOK_clean_linker_0, # of connection points: 2
#     Edge 19, Type (0, 1), BuildingBlock: AJUNOK_clean_linker_0, # of connection points: 2
#     Edge 20, Type (0, 1), BuildingBlock: AJUNOK_clean_linker_0, # of connection points: 2
#     Edge 21, Type (0, 1), BuildingBlock: AJUNOK_clean_linker_0, # of connection points: 2
#     Edge 22, Type (0, 1), BuildingBlock: AJUNOK_clean_linker_0, # of connection points: 2
#     Edge 23, Type (0, 1), BuildingBlock: AJUNOK_clean_linker_0, # of connection points: 2
#     Edge 24, Type (0, 1), BuildingBlock: AJUNOK_clean_linker_0, # of connection points: 2
#     Edge 25, Type (0, 1), BuildingBlock: AJUNOK_clean_linker_0, # of connection points: 2
#     Edge 26, Type (0, 1), BuildingBlock: AJUNOK_clean_linker_0, # of connection points: 2
#     Edge 27, Type (0, 1), BuildingBlock: AJUNOK_clean_linker_0, # of connection points: 2
#     Edge 28, Type (0, 1), BuildingBlock: AJUNOK_clean_linker_0, # of connection points: 2
#     Edge 29, Type (0, 1), BuildingBlock: AJUNOK_clean_linker_0, # of connection points: 2
#     Edge 30, Type (0, 1), BuildingBlock: AJUNOK_clean_linker_0, # of connection points: 2
#     Edge 31, Type (0, 1), BuildingBlock: AJUNOK_clean_linker_0, # of connection points: 2
#     Edge 32, Type (0, 1), BuildingBlock: AJUNOK_clean_linker_0, # of connection points: 2
#     Edge 33, Type (0, 1), BuildingBlock: AJUNOK_clean_linker_0, # of connection points: 2
#     Edge 34, Type (0, 1), BuildingBlock: AJUNOK_clean_linker_0, # of connection points: 2
#     Edge 35, Type (0, 1), BuildingBlock: AJUNOK_clean_linker_0, # of connection points: 2
#     Edge 36, Type (0, 1), BuildingBlock: AJUNOK_clean_linker_0, # of connection points: 2
#     Edge 37, Type (0, 1), BuildingBlock: AJUNOK_clean_linker_0, # of connection points: 2
#     Edge 38, Type (0, 1), BuildingBlock: AJUNOK_clean_linker_0, # of connection points: 2
#     Edge 39, Type (0, 1), BuildingBlock: AJUNOK_clean_linker_0, # of connection points: 2
#     Edge 40, Type (0, 1), BuildingBlock: AJUNOK_clean_linker_0, # of connection points: 2
#     Edge 41, Type (0, 1), BuildingBlock: AJUNOK_clean_linker_0, # of connection points: 2
#     Edge 42, Type (0, 1), BuildingBlock: AJUNOK_clean_linker_0, # of connection points: 2
#     Edge 43, Type (0, 1), BuildingBlock: AJUNOK_clean_linker_0, # of connection points: 2
#     Edge 44, Type (0, 1), BuildingBlock: AJUNOK_clean_linker_0, # of connection points: 2
#     Edge 45, Type (0, 1), BuildingBlock: AJUNOK_clean_linker_0, # of connection points: 2
#     Edge 46, Type (0, 1), BuildingBlock: AJUNOK_clean_linker_0, # of connection points: 2
#     Edge 47, Type (0, 1), BuildingBlock: AJUNOK_clean_linker_0, # of connection points: 2
#     Edge 48, Type (0, 1), BuildingBlock: AJUNOK_clean_linker_0, # of connection points: 2
#     Edge 49, Type (0, 1), BuildingBlock: AJUNOK_clean_linker_0, # of connection points: 2
#     Edge 50, Type (0, 1), BuildingBlock: AJUNOK_clean_linker_0, # of connection points: 2
#     Edge 51, Type (0, 1), BuildingBlock: AJUNOK_clean_linker_0, # of connection points: 2
#     Edge 52, Type (0, 1), BuildingBlock: AJUNOK_clean_linker_0, # of connection points: 2
#     Edge 53, Type (0, 1), BuildingBlock: AJUNOK_clean_linker_0, # of connection points: 2
#     Edge 54, Type (0, 1), BuildingBlock: AJUNOK_clean_linker_0, # of connection points: 2
#     Edge 55, Type (0, 1), BuildingBlock: AJUNOK_clean_linker_0, # of connection points: 2
#     Edge 56, Type (0, 1), BuildingBlock: AJUNOK_clean_linker_0, # of connection points: 2
#     Edge 57, Type (0, 1), BuildingBlock: AJUNOK_clean_linker_0, # of connection points: 2
#     Edge 58, Type (0, 1), BuildingBlock: AJUNOK_clean_linker_0, # of connection points: 2
#     Edge 59, Type (0, 1), BuildingBlock: AJUNOK_clean_linker_0, # of connection points: 2
#     Edge 60, Type (0, 1), BuildingBlock: AJUNOK_clean_linker_0, # of connection points: 2
#     Edge 61, Type (0, 1), BuildingBlock: AJUNOK_clean_linker_0, # of connection points: 2
# Relax obj value: 0.057
# Max RMSD: 0.194
# Mean RMSD: 0.108
data_MOF--net-ocu--node1-MIFKUJ_clean_sbu_0--node2-VETTIZ_charged_sbu_0--edge1-AJUNOK_clean_linker_0
_symmetry_space_group_name_H-M    P1
_symmetry_Int_Tables_number       1
_symmetry_cell_setting            triclinic
loop_
_symmetry_equiv_pos_as_xyz
'x, y, z'
_cell_length_a     29.645407
_cell_length_b     30.747783
_cell_length_c     29.040926
_cell_angle_alpha  92.072364
_cell_angle_beta   94.609988
_cell_angle_gamma 99.168766
loop_
_atom_site_label
_atom_site_type_symbol
_atom_site_fract_x
_atom_site_fract_y
_atom_site_fract_z
_atom_type_partial_charge
Zn0 Zn 0.21787 0.30165 0.27239 0.0
Zn1 Zn 0.29169 0.21699 0.24986 0.0
C2 C 0.1607 0.33865 0.32676 0.0
O3 O 0.1359 0.30242 0.30743 0.0
C4 C 0.33852 0.1712 0.19155 0.0
O5 O 0.37032 0.20272 0.21081 0.0
O6 O 0.16757 0.29947 0.22007 0.0
O7 O 0.27636 0.32969 0.23888 0.0
O8 O 0.31498 0.27724 0.21943 0.0
C9 C 0.16377 0.33822 0.20829 0.0
O10 O 0.19218 0.37188 0.22853 0.0
O11 O 0.20249 0.348 0.31818 0.0
C12 C 0.33638 0.17292 0.3119 0.0
O13 O 0.30308 0.14341 0.29173 0.0
O14 O 0.34217 0.21195 0.29825 0.0
O15 O 0.23597 0.18994 0.2878 0.0
O16 O 0.20162 0.24415 0.30973 0.0
O17 O 0.29725 0.17032 0.20068 0.0
C18 C 0.30898 0.31742 0.21788 0.0
C19 C 0.20715 0.20394 0.31255 0.0
Zn20 Zn 0.73446 0.2989 0.21804 0.0
Zn21 Zn 0.74857 0.20097 0.28781 0.0
C22 C 0.67067 0.32749 0.1559 0.0
O23 O 0.69098 0.30235 0.12959 0.0
C24 C 0.77184 0.13864 0.35271 0.0
O25 O 0.74518 0.15632 0.37926 0.0
O26 O 0.78113 0.33259 0.18371 0.0
O27 O 0.76186 0.31222 0.28431 0.0
O28 O 0.78406 0.25405 0.31659 0.0
C29 C 0.82297 0.34783 0.19498 0.0
O30 O 0.84215 0.34049 0.23567 0.0
O31 O 0.6814 0.33007 0.19946 0.0
C32 C 0.66779 0.15203 0.29852 0.0
O33 O 0.68468 0.12988 0.26642 0.0
O34 O 0.68723 0.19092 0.31028 0.0
O35 O 0.74748 0.1863 0.22226 0.0
O36 O 0.7253 0.24021 0.18323 0.0
O37 O 0.77887 0.15386 0.31353 0.0
C38 C 0.78353 0.29488 0.31656 0.0
C39 C 0.73385 0.2012 0.18482 0.0
Zn40 Zn 0.80451 0.73374 0.2422 0.0
Zn41 Zn 0.7051 0.79487 0.26712 0.0
C42 C 0.84678 0.71247 0.32825 0.0
O43 O 0.87456 0.74822 0.31931 0.0
C44 C 0.64643 0.82829 0.1999 0.0
O45 O 0.61792 0.80069 0.22157 0.0
O46 O 0.84388 0.70816 0.19492 0.0
O47 O 0.74002 0.72085 0.20898 0.0
O48 O 0.68416 0.72902 0.2522 0.0
C49 C 0.86555 0.67589 0.20227 0.0
O50 O 0.86762 0.66035 0.24375 0.0
O51 O 0.81149 0.69911 0.30014 0.0
C52 C 0.67224 0.85138 0.33218 0.0
O53 O 0.71192 0.87599 0.32737 0.0
O54 O 0.66279 0.81329 0.31194 0.0
O55 O 0.76953 0.81441 0.29963 0.0
O56 O 0.82883 0.79814 0.26376 0.0
O57 O 0.68939 0.83098 0.21117 0.0
C58 C 0.70191 0.70538 0.22417 0.0
C59 C 0.81261 0.81812 0.29638 0.0
Zn60 Zn 0.20852 0.77309 0.29189 0.0
Zn61 Zn 0.3077 0.73946 0.22426 0.0
C62 C 0.16356 0.70674 0.33778 0.0
O63 O 0.13063 0.72092 0.31256 0.0
C64 C 0.35189 0.82816 0.2001 0.0
O65 O 0.36331 0.839 0.24411 0.0
O66 O 0.17329 0.81883 0.31449 0.0
O67 O 0.27563 0.79728 0.287 0.0
O68 O 0.32823 0.75509 0.29097 0.0
C69 C 0.1706 0.82276 0.35772 0.0
O70 O 0.19325 0.79935 0.38543 0.0
O71 O 0.20477 0.72479 0.33595 0.0
C72 C 0.34909 0.69107 0.15841 0.0
O73 O 0.34202 0.72474 0.13397 0.0
O74 O 0.33504 0.68808 0.19868 0.0
O75 O 0.23988 0.7317 0.21252 0.0
O76 O 0.17435 0.74553 0.23265 0.0
O77 O 0.32928 0.79048 0.18798 0.0
C78 C 0.30739 0.78248 0.31086 0.0
C79 C 0.19668 0.72668 0.20492 0.0
Zn80 Zn 0.26854 0.78508 0.7146 0.0
Zn81 Zn 0.2415 0.71915 0.79933 0.0
C82 C 0.21594 0.83295 0.65585 0.0
O83 O 0.23894 0.81374 0.62647 0.0
C84 C 0.32466 0.69165 0.85003 0.0
O85 O 0.3261 0.72846 0.8749 0.0
O86 O 0.31678 0.81473 0.68304 0.0
O87 O 0.30055 0.79464 0.77823 0.0
O88 O 0.2501 0.78037 0.82784 0.0
C89 C 0.32308 0.85581 0.69281 0.0
O90 O 0.29881 0.87201 0.7231 0.0
O91 O 0.21824 0.82217 0.698 0.0
C92 C 0.18275 0.64842 0.81549 0.0
O93 O 0.2045 0.63376 0.78203 0.0
O94 O 0.19431 0.68757 0.83218 0.0
O95 O 0.20578 0.7091 0.73637 0.0
O96 O 0.25349 0.7258 0.68355 0.0
O97 O 0.29496 0.68311 0.81499 0.0
C98 C 0.28192 0.80693 0.81302 0.0
C99 C 0.21532 0.70701 0.69474 0.0
Zn100 Zn 0.29597 0.20209 0.74493 0.0
Zn101 Zn 0.19583 0.27748 0.76291 0.0
C102 C 0.34824 0.16701 0.81102 0.0
O103 O 0.37608 0.19913 0.7945 0.0
C104 C 0.14211 0.29685 0.68 0.0
O105 O 0.11428 0.26101 0.68887 0.0
O106 O 0.33995 0.1861 0.6999 0.0
O107 O 0.2331 0.18944 0.70982 0.0
O108 O 0.17681 0.21128 0.7465 0.0
C109 C 0.32971 0.14839 0.67877 0.0
O110 O 0.29005 0.12405 0.68425 0.0
O111 O 0.30607 0.16016 0.79585 0.0
C112 C 0.16289 0.34149 0.81913 0.0
O113 O 0.19366 0.36556 0.79651 0.0
O114 O 0.15649 0.29971 0.81161 0.0
O115 O 0.26294 0.30291 0.78321 0.0
O116 O 0.31882 0.26409 0.77194 0.0
O117 O 0.1791 0.30846 0.70584 0.0
C118 C 0.19082 0.19101 0.71276 0.0
C119 C 0.30528 0.29916 0.78582 0.0
Zn120 Zn 0.69289 0.26885 0.78154 0.0
Zn121 Zn 0.79204 0.23609 0.71346 0.0
C122 C 0.62741 0.20017 0.80598 0.0
O123 O 0.60129 0.2245 0.78343 0.0
C124 C 0.84442 0.29956 0.66994 0.0
O125 O 0.87251 0.28327 0.69941 0.0
O126 O 0.65658 0.31328 0.80898 0.0
O127 O 0.75956 0.28659 0.80553 0.0
O128 O 0.81907 0.26529 0.77431 0.0
C129 C 0.66207 0.32162 0.85258 0.0
O130 O 0.69115 0.30226 0.8777 0.0
O131 O 0.67055 0.21194 0.8091 0.0
C132 C 0.84393 0.18635 0.65624 0.0
O133 O 0.83225 0.21345 0.62522 0.0
O134 O 0.8293 0.18791 0.69623 0.0
O135 O 0.72573 0.21179 0.71542 0.0
O136 O 0.67847 0.25923 0.71228 0.0
O137 O 0.80187 0.28425 0.66791 0.0
C138 C 0.80246 0.286 0.80579 0.0
C139 C 0.69663 0.22999 0.69195 0.0
Zn140 Zn 0.72683 0.79061 0.76327 0.0
Zn141 Zn 0.77955 0.70272 0.732 0.0
C142 C 0.67456 0.84092 0.8109 0.0
O143 O 0.64338 0.81103 0.7881 0.0
C144 C 0.82931 0.66393 0.66672 0.0
O145 O 0.84967 0.70512 0.66734 0.0
O146 O 0.68092 0.79572 0.70832 0.0
O147 O 0.79077 0.8129 0.73984 0.0
O148 O 0.7903 0.75818 0.68936 0.0
C149 C 0.68836 0.83325 0.69084 0.0
O150 O 0.72419 0.86176 0.70767 0.0
O151 O 0.7167 0.83901 0.80805 0.0
C152 C 0.83706 0.66901 0.79968 0.0
O153 O 0.81055 0.63343 0.78102 0.0
O154 O 0.83038 0.70665 0.78595 0.0
O155 O 0.71755 0.67521 0.75901 0.0
O156 O 0.70313 0.73387 0.79744 0.0
O157 O 0.79593 0.65361 0.69118 0.0
C158 C 0.80161 0.79929 0.70088 0.0
C159 C 0.69657 0.692 0.79025 0.0
Fe160 Fe 0.00371 0.09593 0.47681 0.0
O161 O 0.99874 0.0317 0.47981 0.0
Fe162 Fe 0.05804 0.00791 0.50494 0.0
Fe163 Fe 0.94944 0.99283 0.51074 0.0
O164 O 0.00416 0.03248 0.47818 0.0
O165 O 0.00859 0.96875 0.53632 0.0
O166 O 0.00284 0.96768 0.53777 0.0
Fe167 Fe 1.00204 0.90359 0.53634 0.0
C168 C 0.95169 0.07861 0.56428 0.0
O169 O 0.94442 0.07685 0.43484 0.0
O170 O 0.90078 0.02493 0.47588 0.0
O171 O 0.04549 0.90107 0.48576 0.0
O172 O 0.05212 0.96385 0.44887 0.0
O173 O 0.10235 0.05571 0.46498 0.0
O174 O 0.04955 0.09232 0.42756 0.0
O175 O 0.94136 0.95007 0.45312 0.0
O176 O 0.94611 0.88738 0.48688 0.0
C177 C 0.09099 0.08407 0.43426 0.0
O178 O 0.0604 0.92089 0.57992 0.0
O179 O 0.10636 0.97365 0.54128 0.0
O180 O 0.96239 0.10026 0.52916 0.0
O181 O 0.95388 0.03756 0.56675 0.0
C182 C 0.90608 0.05257 0.44298 0.0
C183 C 0.93269 0.90834 0.45271 0.0
C184 C 0.91461 0.91667 0.579 0.0
O185 O 0.90474 0.94584 0.54901 0.0
O186 O 0.95449 0.90464 0.58452 0.0
C187 C 0.05645 0.92353 0.45138 0.0
O188 O 0.06649 0.05216 0.56133 0.0
O189 O 0.0603 0.11344 0.52464 0.0
C190 C 0.09955 0.94456 0.57325 0.0
C191 C 0.07388 0.09397 0.55992 0.0
Fe192 Fe 0.49401 0.90495 0.97104 0.0
O193 O 0.50269 0.96896 0.97407 0.0
Fe194 Fe 0.45365 1.00047 1.00377 0.0
Fe195 Fe 0.55928 0.00783 1.00149 0.0
O196 O 0.49814 0.96945 0.97276 0.0
O197 O 0.51004 0.03839 0.03317 0.0
O198 O 0.51493 0.03814 0.03406 0.0
Fe199 Fe 0.5158 0.10245 0.03553 0.0
C200 C 0.56555 0.92676 0.05576 0.0
O201 O 0.54393 0.9156 0.92594 0.0
O202 O 0.59819 0.97094 0.96269 0.0
O203 O 0.45877 0.10361 0.99023 0.0
O204 O 0.44931 0.04035 0.94907 0.0
O205 O 0.40015 0.95585 0.96684 0.0
O206 O 0.43932 0.91028 0.9257 0.0
O207 O 0.55472 0.04656 0.94616 0.0
O208 O 0.55566 0.11262 0.98152 0.0
C209 C 0.40334 0.92787 0.93278 0.0
O210 O 0.47016 0.08943 0.08423 0.0
O211 O 0.41469 0.03795 0.04314 0.0
O212 O 0.54566 0.9013 0.02207 0.0
O213 O 0.56694 0.96845 0.05684 0.0
C214 C 0.5843 0.93956 0.93102 0.0
C215 C 0.55977 0.08831 0.94629 0.0
C216 C 0.61192 0.08601 0.06413 0.0
O217 O 0.61267 0.05423 0.0336 0.0
O218 O 0.57583 0.10137 0.07552 0.0
C219 C 0.44317 0.08008 0.95377 0.0
O220 O 0.45587 0.96111 0.0581 0.0
O221 O 0.4475 0.8961 0.01988 0.0
C222 C 0.42903 0.06697 0.07735 0.0
C223 C 0.44306 0.91986 0.05548 0.0
Fe224 Fe 0.00937 0.55532 0.00558 0.0
O225 O 0.96475 0.50521 0.97534 0.0
Fe226 Fe 0.10389 0.50436 0.03846 0.0
Fe227 Fe 0.89888 0.50437 0.9724 0.0
O228 O 0.03771 0.5076 0.03626 0.0
O229 O 0.03822 0.50309 0.03408 0.0
O230 O 0.96527 0.50037 0.97298 0.0
Fe231 Fe 0.99325 0.45288 0.00508 0.0
C232 C 0.93005 0.57039 0.05645 0.0
O233 O 0.97366 0.59873 0.96635 0.0
O234 O 0.91347 0.55198 0.92583 0.0
O235 O 0.03231 0.44286 0.95066 0.0
O236 O 0.10151 0.45313 0.98944 0.0
O237 O 0.11605 0.54818 0.98824 0.0
O238 O 0.04746 0.55071 0.95164 0.0
O239 O 0.89494 0.4489 0.92918 0.0
O240 O 0.94095 0.40661 0.9701 0.0
C241 C 0.09068 0.55533 0.95292 0.0
O242 O 0.02773 0.40996 0.04493 0.0
O243 O 0.0885 0.45679 0.08439 0.0
O244 O 0.97065 0.56171 0.06056 0.0
O245 O 0.90268 0.55683 0.02088 0.0
C246 C 0.9403 0.58965 0.9333 0.0
C247 C 0.90962 0.41212 0.9377 0.0
C248 C 0.91239 0.453 0.05832 0.0
O249 O 0.88708 0.461 0.02328 0.0
O250 O 0.95563 0.45946 0.0596 0.0
C251 C 0.07401 0.43681 0.95491 0.0
O252 O 0.1062 0.55837 0.08228 0.0
O253 O 0.06184 0.60188 0.04154 0.0
C254 C 0.06088 0.41955 0.07787 0.0
C255 C 0.09415 0.59604 0.07295 0.0
Fe256 Fe 0.49803 0.50791 0.94578 0.0
O257 O 0.53747 0.53631 1.00138 0.0
Fe258 Fe 0.39377 0.4738 0.99573 0.0
Fe259 Fe 0.60455 0.53964 0.00761 0.0
O260 O 0.46101 0.47762 0.9949 0.0
O261 O 0.46082 0.47696 1.00076 0.0
O262 O 0.53747 0.53526 0.00724 0.0
Fe263 Fe 0.50147 0.50422 0.05623 0.0
C264 C 0.5777 0.45837 0.94059 0.0
O265 O 0.54543 0.5467 0.90226 0.0
O266 O 0.60131 0.58349 0.95581 0.0
O267 O 0.46597 0.55578 0.06054 0.0
O268 O 0.39408 0.52009 0.04911 0.0
O269 O 0.38985 0.5223 0.948 0.0
O270 O 0.4605 0.55948 0.94466 0.0
O271 O 0.60185 0.5821 0.06238 0.0
O272 O 0.55207 0.54055 0.10742 0.0
C273 C 0.41704 0.55605 0.93692 0.0
O274 O 0.45488 0.46471 0.10006 0.0
O275 O 0.39677 0.42891 0.04798 0.0
O276 O 0.53465 0.45594 0.94291 0.0
O277 O 0.60586 0.49242 0.95581 0.0
C278 C 0.58146 0.57758 0.91412 0.0
C279 C 0.58655 0.57219 0.10183 0.0
C280 C 0.58089 0.45704 0.06265 0.0
O281 O 0.60802 0.49217 0.0558 0.0
O282 O 0.53776 0.45289 0.05375 0.0
C283 C 0.42341 0.55311 0.06487 0.0
O284 O 0.39525 0.43201 0.93934 0.0
O285 O 0.44939 0.47022 0.89543 0.0
C286 C 0.41757 0.43496 0.08949 0.0
C287 C 0.41529 0.43856 0.90142 0.0
Fe288 Fe 0.99667 0.45592 0.49778 0.0
O289 O 0.02935 0.50645 0.53923 0.0
Fe290 Fe 0.97459 0.507 0.39537 0.0
Fe291 Fe 0.02672 0.50737 0.60695 0.0
O292 O 0.97293 0.50302 0.46226 0.0
O293 O 0.97305 0.50707 0.46257 0.0
O294 O 0.02851 0.51098 0.54003 0.0
Fe295 Fe 0.00275 0.55744 0.50519 0.0
C296 C 0.94176 0.44 0.5771 0.0
O297 O 0.0283 0.41381 0.54156 0.0
O298 O 0.06926 0.46156 0.59924 0.0
O299 O 0.05996 0.56634 0.47022 0.0
O300 O 0.02883 0.55762 0.39728 0.0
O301 O 0.01875 0.46267 0.38956 0.0
O302 O 0.05299 0.45781 0.45964 0.0
O303 O 0.07423 0.56312 0.60646 0.0
O304 O 0.03902 0.60482 0.5543 0.0
C305 C 0.05096 0.45173 0.41591 0.0
O306 O 0.97054 0.59983 0.46255 0.0
O307 O 0.93345 0.55367 0.40235 0.0
O308 O 0.94024 0.45041 0.53527 0.0
O309 O 0.97618 0.45393 0.60552 0.0
C310 C 0.06069 0.42409 0.57539 0.0
C311 C 0.07063 0.59947 0.58642 0.0
C312 C 0.94528 0.5562 0.5841 0.0
O313 O 0.97816 0.54871 0.61219 0.0
O314 O 0.94565 0.55024 0.54077 0.0
C315 C 0.06194 0.57178 0.42743 0.0
O316 O 0.925 0.45405 0.39661 0.0
O317 O 0.95547 0.40986 0.44967 0.0
C318 C 0.93974 0.59008 0.42744 0.0
C319 C 0.92438 0.41765 0.41774 0.0
Fe320 Fe 0.49827 0.95169 0.50965 0.0
O321 O 0.53816 0.00569 0.53966 0.0
Fe322 Fe 0.45873 0.98691 0.40479 0.0
Fe323 Fe 0.54733 0.01814 0.60722 0.0
O324 O 0.47014 0.99403 0.47149 0.0
O325 O 0.46995 0.99788 0.47177 0.0
O326 O 0.53764 0.00988 0.54022 0.0
Fe327 Fe 0.5089 0.05182 0.50196 0.0
C328 C 0.45598 0.95958 0.59737 0.0
O329 O 0.53361 0.91434 0.55537 0.0
O330 O 0.58398 0.96696 0.60144 0.0
O331 O 0.55708 0.0487 0.45673 0.0
O332 O 0.5116 0.03357 0.39104 0.0
O333 O 0.50073 0.93951 0.39841 0.0
O334 O 0.54618 0.94618 0.46414 0.0
O335 O 0.59607 0.06884 0.59128 0.0
O336 O 0.55368 0.10396 0.53874 0.0
C337 C 0.53759 0.93409 0.42169 0.0
O338 O 0.47446 0.08935 0.45774 0.0
O339 O 0.42255 0.03804 0.41226 0.0
O340 O 0.45063 0.95712 0.55381 0.0
O341 O 0.49434 0.97122 0.62052 0.0
C342 C 0.56977 0.92698 0.58432 0.0
C343 C 0.58878 0.10286 0.56842 0.0
C344 C 0.467 0.06867 0.58879 0.0
O345 O 0.50426 0.06523 0.61251 0.0
O346 O 0.45978 0.05585 0.54654 0.0
C347 C 0.55 0.04836 0.41309 0.0
O348 O 0.4099 0.93744 0.42117 0.0
O349 O 0.45074 0.89989 0.47277 0.0
C350 C 0.438 0.07763 0.42957 0.0
C351 C 0.41548 0.90272 0.4434 0.0
C352 C 0.18712 0.12921 0.35325 0.0
C353 C 0.17967 0.17323 0.34554 0.0
C354 C 0.16099 0.10074 0.38335 0.0
C355 C 0.12564 0.11452 0.40763 0.0
H356 H 0.21318 0.11624 0.33542 0.0
H357 H 0.16759 0.06728 0.38628 0.0
S358 S 0.09372 0.22707 0.40326 0.0
N359 N 0.13474 0.22864 0.36795 0.0
N360 N 0.08734 0.17712 0.42316 0.0
C361 C 0.11914 0.15884 0.4012 0.0
C362 C 0.1454 0.18741 0.37086 0.0
C363 C 0.8401 0.10237 0.3502 0.0
C364 C 0.79965 0.10668 0.37071 0.0
C365 C 0.87244 0.08008 0.37178 0.0
C366 C 0.86564 0.06159 0.41475 0.0
H367 H 0.84857 0.11893 0.31897 0.0
H368 H 0.90455 0.08029 0.35631 0.0
S369 S 0.7593 0.05254 0.47525 0.0
N370 N 0.74963 0.0824 0.43044 0.0
N371 N 0.81138 0.0406 0.47189 0.0
C372 C 0.82281 0.06057 0.43251 0.0
C373 C 0.7896 0.0834 0.41034 0.0
C374 C 0.8794 0.87558 0.32921 0.0
C375 C 0.84406 0.84057 0.33574 0.0
C376 C 0.90795 0.89742 0.36716 0.0
C377 C 0.90329 0.88398 0.41276 0.0
H378 H 0.88434 0.88678 0.29476 0.0
H379 H 0.93411 0.92484 0.36071 0.0
S380 S 0.81726 0.79258 0.4477 0.0
N381 N 0.80635 0.7932 0.39108 0.0
N382 N 0.86102 0.83254 0.46161 0.0
C383 C 0.86881 0.84822 0.41933 0.0
C384 C 0.83897 0.82702 0.38107 0.0
C385 C 0.15577 0.87048 0.423 0.0
C386 C 0.14352 0.85374 0.3774 0.0
C387 C 0.12852 0.89609 0.445 0.0
C388 C 0.0879 0.90567 0.42255 0.0
H389 H 0.18596 0.86271 0.44247 0.0
H390 H 0.13798 0.90665 0.4808 0.0
S391 S 0.04025 0.87005 0.30317 0.0
N392 N 0.08839 0.84932 0.30977 0.0
N393 N 0.03642 0.89733 0.35243 0.0
C394 C 0.07567 0.89058 0.37654 0.0
C395 C 0.10378 0.86458 0.35362 0.0
C396 C 0.20183 0.88914 0.5981 0.0
C397 C 0.19179 0.86928 0.64005 0.0
C398 C 0.17598 0.91977 0.57918 0.0
C399 C 0.13852 0.93076 0.60101 0.0
H400 H 0.22878 0.87974 0.5787 0.0
H401 H 0.18319 0.93202 0.54567 0.0
S402 S 0.10457 0.89624 0.71619 0.0
N403 N 0.14702 0.8692 0.70652 0.0
N404 N 0.09821 0.92618 0.67079 0.0
C405 C 0.13174 0.91523 0.64546 0.0
C406 C 0.15816 0.88436 0.66486 0.0
C407 C 0.12755 0.13006 0.68209 0.0
C408 C 0.15789 0.16876 0.67498 0.0
C409 C 0.10023 0.10611 0.64474 0.0
C410 C 0.10165 0.1206 0.59923 0.0
H411 H 0.12605 0.11748 0.71639 0.0
H412 H 0.07795 0.07596 0.65151 0.0
S413 S 0.17472 0.22115 0.5634 0.0
N414 N 0.18767 0.22081 0.61974 0.0
N415 N 0.13544 0.17711 0.54996 0.0
C416 C 0.13102 0.16009 0.59222 0.0
C417 C 0.15943 0.18376 0.62998 0.0
C418 C 0.91707 0.17554 0.62629 0.0
C419 C 0.87641 0.15701 0.64456 0.0
C420 C 0.94418 0.14893 0.60498 0.0
C421 C 0.93096 0.10277 0.59992 0.0
H422 H 0.9268 0.21107 0.62638 0.0
H423 H 0.97402 0.16498 0.58931 0.0
S424 S 0.82888 0.0383 0.64519 0.0
N425 N 0.82614 0.09002 0.66046 0.0
N426 N 0.87598 0.03964 0.61808 0.0
C427 C 0.89202 0.08362 0.621 0.0
C428 C 0.86485 0.11092 0.64374 0.0
C429 C 0.83845 0.81659 0.6248 0.0
C430 C 0.82721 0.8314 0.66855 0.0
C431 C 0.86359 0.84515 0.59496 0.0
C432 C 0.87852 0.89062 0.60634 0.0
H433 H 0.82869 0.78214 0.6137 0.0
H434 H 0.87286 0.83099 0.56306 0.0
S435 S 0.8598 0.94727 0.71653 0.0
N436 N 0.83398 0.89607 0.72113 0.0
N437 N 0.88107 0.94852 0.66564 0.0
C438 C 0.86724 0.90611 0.64956 0.0
C439 C 0.84167 0.87707 0.68017 0.0
C440 C 0.33566 0.12384 0.11908 0.0
C441 C 0.35264 0.13466 0.16537 0.0
C442 C 0.35749 0.09686 0.09092 0.0
C443 C 0.3965 0.08012 0.1087 0.0
H444 H 0.30795 0.13909 0.10367 0.0
H445 H 0.34644 0.0925 0.05433 0.0
S446 S 0.44826 0.09261 0.2299 0.0
N447 N 0.40597 0.12167 0.22929 0.0
N448 N 0.44699 0.07144 0.17665 0.0
C449 C 0.41057 0.08734 0.15604 0.0
C450 C 0.38864 0.11464 0.18437 0.0
C451 C 0.82535 0.37918 0.1181 0.0
C452 C 0.84801 0.37519 0.16185 0.0
C453 C 0.84618 0.40554 0.08565 0.0
C454 C 0.89075 0.42882 0.0953 0.0
H455 H 0.79101 0.3617 0.10838 0.0
H456 H 0.82732 0.40671 0.05227 0.0
S457 S 0.96495 0.4309 0.20483 0.0
N458 N 0.91735 0.39747 0.21363 0.0
N459 N 0.95713 0.4474 0.15172 0.0
C460 C 0.91412 0.42556 0.13886 0.0
C461 C 0.89262 0.39859 0.17233 0.0
C462 C 0.58014 0.84639 0.14921 0.0
C463 C 0.62737 0.85574 0.16403 0.0
C464 C 0.56042 0.87054 0.11524 0.0
C465 C 0.58674 0.90573 0.09517 0.0
H466 H 0.55805 0.81956 0.16334 0.0
H467 H 0.52422 0.8613 0.10424 0.0
S468 S 0.71123 0.94496 0.12157 0.0
N469 N 0.69971 0.90366 0.15589 0.0
N470 N 0.66212 0.94939 0.09234 0.0
C471 C 0.63358 0.91646 0.11017 0.0
C472 C 0.65401 0.89137 0.14445 0.0
C473 C 0.12656 0.69985 0.15072 0.0
C474 C 0.17272 0.69803 0.16551 0.0
C475 C 0.10147 0.66856 0.11792 0.0
C476 C 0.12178 0.63435 0.09943 0.0
H477 H 0.1092 0.72461 0.1658 0.0
H478 H 0.06547 0.66964 0.10912 0.0
S479 S 0.24264 0.61785 0.12239 0.0
N480 N 0.23835 0.66117 0.15592 0.0
N481 N 0.19175 0.60329 0.09408 0.0
C482 C 0.16866 0.63412 0.11151 0.0
C483 C 0.19402 0.66572 0.14464 0.0
C484 C 0.34375 0.8719 0.82543 0.0
C485 C 0.30508 0.84625 0.84153 0.0
C486 C 0.37188 0.90413 0.85398 0.0
C487 C 0.36344 0.91103 0.9003 0.0
H488 H 0.35477 0.865 0.79172 0.0
H489 H 0.40326 0.92045 0.84115 0.0
S490 S 0.2618 0.86015 0.9567 0.0
N491 N 0.25495 0.83622 0.90417 0.0
N492 N 0.3102 0.89558 0.9591 0.0
C493 C 0.32242 0.88954 0.91554 0.0
C494 C 0.2928 0.85712 0.88589 0.0
C495 C 0.15721 0.40666 0.87099 0.0
C496 C 0.13805 0.36384 0.85348 0.0
C497 C 0.13571 0.42948 0.90313 0.0
C498 C 0.09321 0.41169 0.91831 0.0
H499 H 0.18983 0.42262 0.86057 0.0
H500 H 0.15285 0.46134 0.91666 0.0
S501 S 0.02943 0.29945 0.8862 0.0
N502 N 0.07472 0.30325 0.85598 0.0
N503 N 0.03375 0.34719 0.91567 0.0
C504 C 0.07342 0.3688 0.90147 0.0
C505 C 0.09596 0.34474 0.8693 0.0
C506 C 0.56566 0.17061 0.85435 0.0
C507 C 0.60696 0.16592 0.83554 0.0
C508 C 0.54937 0.14364 0.889 0.0
C509 C 0.57317 0.11044 0.90489 0.0
H510 H 0.54721 0.19699 0.84439 0.0
H511 H 0.51882 0.14976 0.9046 0.0
S512 S 0.67992 0.08133 0.86375 0.0
N513 N 0.66963 0.12357 0.8332 0.0
N514 N 0.63761 0.07167 0.8976 0.0
C515 C 0.61267 0.10326 0.88441 0.0
C516 C 0.62999 0.13143 0.84985 0.0
C517 C 0.87073 0.67038 0.88171 0.0
C518 C 0.87492 0.6632 0.83424 0.0
C519 C 0.89733 0.65106 0.91523 0.0
C520 C 0.92883 0.62404 0.90228 0.0
H521 H 0.84396 0.68752 0.89279 0.0
H522 H 0.89003 0.65382 0.95102 0.0
S523 S 0.95597 0.59916 0.78293 0.0
N524 N 0.9161 0.63089 0.77647 0.0
N525 N 0.9653 0.59435 0.83922 0.0
C526 C 0.93582 0.61974 0.85528 0.0
C527 C 0.90898 0.63935 0.82131 0.0
C528 C 0.10057 0.37941 0.1899 0.0
C529 C 0.12598 0.34718 0.17607 0.0
C530 C 0.07331 0.39849 0.15761 0.0
C531 C 0.07093 0.38634 0.11033 0.0
H532 H 0.10466 0.39254 0.22537 0.0
H533 H 0.05796 0.42623 0.16909 0.0
S534 S 0.12859 0.30149 0.05683 0.0
N535 N 0.14454 0.30137 0.1127 0.0
N536 N 0.09374 0.3383 0.05139 0.0
C537 C 0.09322 0.3517 0.0964 0.0
C538 C 0.12082 0.33185 0.12954 0.0
C539 C 0.11208 0.62529 0.85195 0.0
C540 C 0.15574 0.61777 0.84238 0.0
C541 C 0.09004 0.60304 0.88672 0.0
C542 C 0.11225 0.57438 0.91374 0.0
H543 H 0.09586 0.6497 0.83379 0.0
H544 H 0.05668 0.61026 0.89417 0.0
S545 S 0.22773 0.54576 0.90205 0.0
N546 N 0.21987 0.57944 0.86027 0.0
N547 N 0.1806 0.54085 0.92931 0.0
C548 C 0.15592 0.5667 0.90407 0.0
C549 C 0.17716 0.58761 0.8672 0.0
C550 C 0.39265 0.16642 0.88632 0.0
C551 C 0.36661 0.14235 0.84873 0.0
C552 C 0.41656 0.14578 0.92007 0.0
C553 C 0.41612 0.09993 0.91731 0.0
H554 H 0.39512 0.20179 0.8893 0.0
H555 H 0.43639 0.16636 0.94805 0.0
S556 S 0.35238 0.0215 0.82525 0.0
N557 N 0.3408 0.07019 0.81032 0.0
N558 N 0.3863 0.03064 0.87377 0.0
C559 C 0.38957 0.07507 0.87995 0.0
C560 C 0.36459 0.09641 0.84569 0.0
C561 C 0.81564 0.32501 0.88364 0.0
C562 C 0.83357 0.31211 0.84277 0.0
C563 C 0.84184 0.35546 0.91606 0.0
C564 C 0.887 0.37363 0.90896 0.0
H565 H 0.78054 0.31275 0.88994 0.0
H566 H 0.82604 0.36632 0.94588 0.0
S567 S 0.95134 0.34989 0.80954 0.0
N568 N 0.90061 0.31864 0.7985 0.0
N569 N 0.94958 0.37621 0.85981 0.0
C570 C 0.90638 0.35962 0.86978 0.0
C571 C 0.87975 0.32857 0.8366 0.0
C572 C 0.67746 0.88562 0.88503 0.0
C573 C 0.65971 0.87595 0.83875 0.0
C574 C 0.65572 0.91113 0.91474 0.0
C575 C 0.61617 0.92772 0.89849 0.0
H576 H 0.7058 0.8705 0.89919 0.0
H577 H 0.6674 0.91456 0.95121 0.0
S578 S 0.5623 0.91874 0.77821 0.0
N579 N 0.60483 0.89009 0.77665 0.0
N580 N 0.56438 0.93824 0.83222 0.0
C581 C 0.60124 0.92192 0.85129 0.0
C582 C 0.62292 0.89585 0.8214 0.0
C583 C 0.9154 0.62298 0.17436 0.0
C584 C 0.88438 0.65241 0.16393 0.0
C585 C 0.93071 0.59729 0.13953 0.0
C586 C 0.9148 0.59904 0.09278 0.0
H587 H 0.92777 0.61938 0.20992 0.0
H588 H 0.95426 0.57502 0.14947 0.0
S589 S 0.83548 0.67212 0.04623 0.0
N590 N 0.84039 0.68322 0.10263 0.0
N591 N 0.86785 0.63408 0.03765 0.0
C592 C 0.88442 0.62877 0.08171 0.0
C593 C 0.86963 0.65567 0.11706 0.0
C594 C 0.36697 0.837 0.11807 0.0
C595 C 0.37164 0.85532 0.16368 0.0
C596 C 0.39028 0.85827 0.08355 0.0
C597 C 0.41845 0.89925 0.09289 0.0
H598 H 0.34609 0.80528 0.10878 0.0
H599 H 0.3861 0.84224 0.04927 0.0
S600 S 0.43712 0.96461 0.20475 0.0
N601 N 0.40306 0.91882 0.21538 0.0
N602 N 0.4466 0.95976 0.14969 0.0
C603 C 0.42139 0.91949 0.13754 0.0
C604 C 0.39796 0.89733 0.17311 0.0
C605 C 0.69693 0.18426 0.10495 0.0
C606 C 0.71741 0.16935 0.14546 0.0
C607 C 0.66602 0.15519 0.0751 0.0
C608 C 0.65524 0.11053 0.08469 0.0
H609 H 0.70123 0.21907 0.09849 0.0
H610 H 0.64733 0.16844 0.0467 0.0
S611 S 0.70776 0.0529 0.17914 0.0
N612 N 0.73228 0.10496 0.18764 0.0
N613 N 0.67206 0.05105 0.13218 0.0
C614 C 0.67974 0.09404 0.12124 0.0
C615 C 0.71179 0.12341 0.1514 0.0
C616 C 0.63981 0.62107 0.80471 0.0
C617 C 0.66485 0.66306 0.82025 0.0
C618 C 0.61051 0.5945 0.83341 0.0
C619 C 0.60511 0.6082 0.87949 0.0
H620 H 0.64294 0.60845 0.77003 0.0
H621 H 0.59342 0.56228 0.81992 0.0
S622 S 0.66349 0.71487 0.93772 0.0
N623 N 0.68173 0.71619 0.88555 0.0
N624 N 0.62812 0.66774 0.93839 0.0
C625 C 0.62975 0.65038 0.89492 0.0
C626 C 0.659 0.67722 0.86584 0.0
C627 C 0.33431 0.61235 0.86075 0.0
C628 C 0.35201 0.6576 0.86769 0.0
C629 C 0.35547 0.58005 0.8833 0.0
C630 C 0.39658 0.59128 0.91228 0.0
H631 H 0.30303 0.60183 0.83875 0.0
H632 H 0.33945 0.54584 0.8778 0.0
S633 S 0.46141 0.70445 0.93607 0.0
N634 N 0.41545 0.71155 0.90293 0.0
N635 N 0.45667 0.65083 0.94267 0.0
C636 C 0.41638 0.63613 0.91706 0.0
C637 C 0.39386 0.66919 0.89545 0.0
C638 C 0.33784 0.37974 0.80118 0.0
C639 C 0.33947 0.33514 0.80976 0.0
C640 C 0.3667 0.41415 0.82771 0.0
C641 C 0.39759 0.40496 0.864 0.0
H642 H 0.31305 0.38805 0.77486 0.0
H643 H 0.36248 0.44795 0.82198 0.0
S644 S 0.41402 0.29446 0.90167 0.0
N645 N 0.37502 0.28417 0.85704 0.0
N646 N 0.42753 0.3486 0.90756 0.0
C647 C 0.40027 0.36068 0.87198 0.0
C648 C 0.3717 0.32582 0.84468 0.0
C649 C 0.66411 0.386 0.90771 0.0
C650 C 0.63887 0.35497 0.8749 0.0
C651 C 0.6437 0.41871 0.9289 0.0
C652 C 0.59685 0.42129 0.91895 0.0
H653 H 0.70029 0.38563 0.9164 0.0
H654 H 0.66507 0.44225 0.95334 0.0
S655 S 0.51487 0.3446 0.8384 0.0
N656 N 0.56427 0.32677 0.83519 0.0
N657 N 0.52529 0.38775 0.87556 0.0
C658 C 0.57079 0.38924 0.88734 0.0
C659 C 0.59196 0.35631 0.86511 0.0
C660 C 0.64336 0.40012 0.15468 0.0
C661 C 0.6427 0.35798 0.13384 0.0
C662 C 0.62278 0.43197 0.13137 0.0
C663 C 0.59991 0.42232 0.08707 0.0
H664 H 0.6616 0.40924 0.18834 0.0
H665 H 0.62512 0.46453 0.14789 0.0
S666 S 0.58749 0.31729 0.01751 0.0
N667 N 0.61702 0.30849 0.06607 0.0
N668 N 0.57702 0.3683 0.02323 0.0
C669 C 0.59776 0.38021 0.06628 0.0
C670 C 0.61954 0.34801 0.08947 0.0
C671 C 0.62558 0.65424 0.20457 0.0
C672 C 0.67311 0.6655 0.19948 0.0
C673 C 0.59724 0.62074 0.17594 0.0
C674 C 0.6156 0.59711 0.14162 0.0
H675 H 0.60965 0.67297 0.22907 0.0
H676 H 0.56056 0.6155 0.17858 0.0
S677 S 0.73869 0.60828 0.1193 0.0
N678 N 0.73749 0.64592 0.16087 0.0
N679 N 0.68515 0.58337 0.10847 0.0
C680 C 0.6636 0.60542 0.13928 0.0
C681 C 0.69208 0.63945 0.16774 0.0
C682 C 0.3576 0.61203 0.14664 0.0
C683 C 0.37149 0.65655 0.13779 0.0
C684 C 0.37454 0.5786 0.12267 0.0
C685 C 0.40735 0.58881 0.09066 0.0
H686 H 0.33227 0.60287 0.17092 0.0
H687 H 0.36197 0.54453 0.12929 0.0
S688 S 0.45974 0.70048 0.06037 0.0
N689 N 0.42242 0.70929 0.09749 0.0
N690 N 0.45616 0.64638 0.05444 0.0
C691 C 0.42364 0.63322 0.08369 0.0
C692 C 0.40525 0.66716 0.10682 0.0
C693 C 0.38564 0.34944 0.18394 0.0
C694 C 0.33811 0.34964 0.18794 0.0
C695 C 0.41212 0.37834 0.15469 0.0
C696 C 0.3924 0.40842 0.12662 0.0
H697 H 0.40269 0.32656 0.20361 0.0
H698 H 0.44796 0.37585 0.15282 0.0
S699 S 0.26919 0.42095 0.12127 0.0
N700 N 0.27316 0.38298 0.1595 0.0
N701 N 0.32125 0.4349 0.10453 0.0
C702 C 0.34494 0.40846 0.13009 0.0
C703 C 0.31846 0.38001 0.16049 0.0
C704 C 0.8669 0.59708 0.66714 0.0
C705 C 0.84958 0.63012 0.64239 0.0
C706 C 0.89663 0.57186 0.64745 0.0
C707 C 0.90868 0.57805 0.60193 0.0
H708 H 0.85976 0.59262 0.70279 0.0
H709 H 0.91135 0.54836 0.66844 0.0
S710 S 0.86579 0.65611 0.52092 0.0
N711 N 0.84253 0.66509 0.56939 0.0
N712 N 0.89639 0.61653 0.53117 0.0
C713 C 0.88818 0.60855 0.57571 0.0
C714 C 0.85911 0.63493 0.59629 0.0
C715 C 0.37612 0.86522 0.63252 0.0
C716 C 0.35491 0.88446 0.66781 0.0
C717 C 0.40818 0.89064 0.60881 0.0
C718 C 0.41998 0.93569 0.62011 0.0
H719 H 0.36853 0.8302 0.62332 0.0
H720 H 0.42482 0.87482 0.58243 0.0
S721 S 0.37137 1.00316 0.70488 0.0
N722 N 0.34498 0.95219 0.7098 0.0
N723 N 0.40742 0.99997 0.66492 0.0
C724 C 0.39847 0.95598 0.65379 0.0
C725 C 0.3651 0.93023 0.67779 0.0
C726 C 0.08581 0.31453 0.617 0.0
C727 C 0.12693 0.3272 0.64556 0.0
C728 C 0.06624 0.34528 0.59065 0.0
C729 C 0.08686 0.38984 0.59246 0.0
H730 H 0.06738 0.28112 0.61666 0.0
H731 H 0.03333 0.33461 0.57128 0.0
S732 S 0.19917 0.43816 0.65446 0.0
N733 N 0.1909 0.38614 0.66842 0.0
N734 N 0.1542 0.4436 0.61916 0.0
C735 C 0.1301 0.40193 0.61734 0.0
C736 C 0.1501 0.37072 0.64388 0.0
C737 C 0.62734 0.21026 0.63488 0.0
C738 C 0.67318 0.20655 0.64889 0.0
C739 C 0.60064 0.17924 0.60292 0.0
C740 C 0.61923 0.14403 0.58399 0.0
H741 H 0.61071 0.23464 0.65167 0.0
H742 H 0.56426 0.18021 0.59687 0.0
S743 S 0.73954 0.12573 0.60028 0.0
N744 N 0.73762 0.16935 0.6345 0.0
N745 N 0.68736 0.11166 0.5745 0.0
C746 C 0.66615 0.14338 0.59306 0.0
C747 C 0.6932 0.17453 0.62558 0.0
C748 C 0.81158 0.36856 0.35467 0.0
C749 C 0.81424 0.32356 0.35151 0.0
C750 C 0.84579 0.39802 0.37993 0.0
C751 C 0.88462 0.38384 0.4022 0.0
H752 H 0.78408 0.38155 0.33573 0.0
H753 H 0.84285 0.4327 0.37969 0.0
S754 S 0.90241 0.26819 0.41355 0.0
N755 N 0.85411 0.26482 0.38011 0.0
N756 N 0.91972 0.32129 0.42638 0.0
C757 C 0.88536 0.33855 0.40361 0.0
C758 C 0.84985 0.30812 0.37838 0.0
C759 C 0.6507 0.90381 0.39095 0.0
C760 C 0.63716 0.87002 0.35634 0.0
C761 C 0.61815 0.92393 0.41242 0.0
C762 C 0.571 0.91169 0.39922 0.0
H763 H 0.68672 0.91487 0.40151 0.0
H764 H 0.63006 0.94992 0.43886 0.0
S765 S 0.51759 0.82492 0.3106 0.0
N766 N 0.57324 0.82478 0.31033 0.0
N767 N 0.51221 0.86329 0.35009 0.0
C768 C 0.55695 0.87791 0.3648 0.0
C769 C 0.59 0.85683 0.34356 0.0
C770 C 0.14258 0.62756 0.34781 0.0
C771 C 0.15166 0.67059 0.36763 0.0
C772 C 0.11699 0.59383 0.37009 0.0
C773 C 0.10009 0.60254 0.41265 0.0
H774 H 0.152 0.62076 0.3133 0.0
H775 H 0.10742 0.56164 0.35237 0.0
S776 S 0.1191 0.70926 0.48056 0.0
N777 N 0.14568 0.71979 0.43334 0.0
N778 N 0.09784 0.65611 0.47592 0.0
C779 C 0.11269 0.6446 0.43478 0.0
C780 C 0.1384 0.67896 0.41186 0.0
C781 C 0.34309 0.13262 0.38248 0.0
C782 C 0.36493 0.15974 0.35028 0.0
C783 C 0.36808 0.10892 0.41208 0.0
C784 C 0.41549 0.11214 0.41032 0.0
H785 H 0.30604 0.12732 0.38253 0.0
H786 H 0.34991 0.08564 0.43407 0.0
S787 S 0.48916 0.18112 0.33496 0.0
N788 N 0.4368 0.19109 0.32054 0.0
N789 N 0.4842 0.14625 0.37692 0.0
C790 C 0.43837 0.14188 0.38115 0.0
C791 C 0.41285 0.16597 0.35078 0.0
C792 C 0.67338 0.87932 0.62511 0.0
C793 C 0.65588 0.84769 0.65564 0.0
C794 C 0.64438 0.90214 0.5986 0.0
C795 C 0.5968 0.89397 0.60139 0.0
H796 H 0.71008 0.88837 0.62367 0.0
H797 H 0.65953 0.92832 0.57787 0.0
S798 S 0.53306 0.81279 0.67349 0.0
N799 N 0.5874 0.80751 0.68507 0.0
N800 N 0.53277 0.85074 0.63465 0.0
C801 C 0.57831 0.86039 0.62916 0.0
C802 C 0.60795 0.83705 0.65646 0.0
C803 C 0.61218 0.08646 0.31204 0.0
C804 C 0.63664 0.12766 0.32862 0.0
C805 C 0.58619 0.0596 0.34079 0.0
C806 C 0.58422 0.07294 0.38711 0.0
H807 H 0.61306 0.07481 0.2765 0.0
H808 H 0.56678 0.0285 0.32647 0.0
S809 S 0.64342 0.17647 0.44862 0.0
N810 N 0.65797 0.18021 0.39502 0.0
N811 N 0.60958 0.12848 0.44946 0.0
C812 C 0.60937 0.1133 0.40484 0.0
C813 C 0.63522 0.14123 0.37533 0.0
C814 C 0.8478 0.63747 0.35746 0.0
C815 C 0.86311 0.68307 0.36292 0.0
C816 C 0.87108 0.60794 0.38135 0.0
C817 C 0.91075 0.62272 0.41159 0.0
H818 H 0.81966 0.62419 0.33216 0.0
H819 H 0.85913 0.57302 0.37398 0.0
S820 S 0.9576 0.73933 0.4466 0.0
N821 N 0.91476 0.7421 0.40735 0.0
N822 N 0.95922 0.68626 0.45172 0.0
C823 C 0.92344 0.66831 0.42111 0.0
C824 C 0.89944 0.69854 0.39687 0.0
C825 C 0.37137 0.79708 0.37498 0.0
C826 C 0.32929 0.8065 0.35454 0.0
C827 C 0.39757 0.82537 0.40993 0.0
C828 C 0.38198 0.86338 0.42631 0.0
H829 H 0.38603 0.76969 0.36144 0.0
H830 H 0.43199 0.81986 0.42061 0.0
S831 S 0.27158 0.89943 0.39021 0.0
N832 N 0.27225 0.85506 0.35678 0.0
N833 N 0.31895 0.90502 0.42521 0.0
C834 C 0.33746 0.86975 0.41055 0.0
C835 C 0.31189 0.84237 0.37373 0.0
C836 C 0.09397 0.37678 0.32947 0.0
C837 C 0.13692 0.37081 0.34977 0.0
C838 C 0.06768 0.404 0.35078 0.0
C839 C 0.08253 0.42578 0.39415 0.0
H840 H 0.08014 0.35979 0.29681 0.0
H841 H 0.03457 0.40672 0.33343 0.0
S842 S 0.19293 0.42077 0.46219 0.0
N843 N 0.19413 0.38914 0.41517 0.0
N844 N 0.14369 0.43969 0.45665 0.0
C845 C 0.12577 0.42035 0.41498 0.0
C846 C 0.15326 0.39311 0.39241 0.0
C847 C 0.41116 0.14273 0.66642 0.0
C848 C 0.36406 0.12965 0.6533 0.0
C849 C 0.44428 0.12265 0.64567 0.0
C850 C 0.43156 0.08944 0.61033 0.0
H851 H 0.42254 0.16783 0.69386 0.0
H852 H 0.48013 0.13342 0.65722 0.0
S853 S 0.31274 0.04362 0.56289 0.0
N854 N 0.30638 0.08135 0.60273 0.0
N855 N 0.36857 0.04449 0.56289 0.0
C856 C 0.3846 0.07665 0.59624 0.0
C857 C 0.35087 0.09646 0.618 0.0
C858 C 0.90906 0.33092 0.62678 0.0
C859 C 0.86386 0.33169 0.63758 0.0
C860 C 0.93254 0.36487 0.60342 0.0
C861 C 0.91174 0.40077 0.58987 0.0
H862 H 0.92731 0.30486 0.63831 0.0
H863 H 0.96823 0.36433 0.59836 0.0
S864 S 0.79238 0.41597 0.60406 0.0
N865 N 0.79736 0.36901 0.62852 0.0
N866 N 0.84249 0.43361 0.5843 0.0
C867 C 0.86555 0.40053 0.59687 0.0
C868 C 0.84126 0.36563 0.62082 0.0
C869 C 0.13361 0.69154 0.66413 0.0
C870 C 0.17942 0.68652 0.65932 0.0
C871 C 0.09752 0.66684 0.63572 0.0
C872 C 0.10641 0.63636 0.60203 0.0
H873 H 0.12549 0.7131 0.69153 0.0
H874 H 0.06254 0.66884 0.64277 0.0
S875 S 0.21996 0.61341 0.57313 0.0
N876 N 0.23174 0.65148 0.61592 0.0
N877 N 0.16354 0.60436 0.56293 0.0
C878 C 0.15203 0.63332 0.59467 0.0
C879 C 0.18879 0.65869 0.62327 0.0
loop_
_geom_bond_atom_site_label_1
_geom_bond_atom_site_label_2
_geom_bond_distance
_geom_bond_site_symmetry_2
_ccdc_geom_bond_type
Zn0 O6 1.969 . S
Zn0 O7 1.965 . S
Zn0 O11 2.024 . S
Zn0 O16 1.969 . S
Zn1 O8 1.969 . S
Zn1 O14 1.969 . S
Zn1 O15 1.965 . S
Zn1 O17 2.024 . S
C2 O3 1.229 . S
C2 O11 1.058 . S
O3 C2 1.229 . S
C4 O5 1.229 . S
C4 O17 1.058 . S
O5 C4 1.229 . S
O6 Zn0 1.969 . S
O6 C9 1.267 . S
O7 Zn0 1.965 . S
O7 C18 1.260 . S
O8 Zn1 1.969 . S
O8 C18 1.258 . S
C9 O6 1.267 . S
C9 O10 1.228 . S
O10 C9 1.228 . S
O11 Zn0 2.024 . S
O11 C2 1.058 . S
C12 O13 1.228 . S
C12 O14 1.267 . S
O13 C12 1.228 . S
O14 Zn1 1.969 . S
O14 C12 1.267 . S
O15 Zn1 1.965 . S
O15 C19 1.260 . S
O16 Zn0 1.969 . S
O16 C19 1.258 . S
O17 Zn1 2.024 . S
O17 C4 1.058 . S
C18 O7 1.260 . S
C18 O8 1.258 . S
C19 O15 1.260 . S
C19 O16 1.258 . S
Zn20 O26 1.969 . S
Zn20 O27 1.965 . S
Zn20 O31 2.024 . S
Zn20 O36 1.969 . S
Zn21 O28 1.969 . S
Zn21 O34 1.969 . S
Zn21 O35 1.965 . S
Zn21 O37 2.024 . S
C22 O23 1.229 . S
C22 O31 1.058 . S
O23 C22 1.229 . S
C24 O25 1.229 . S
C24 O37 1.058 . S
O25 C24 1.229 . S
O26 Zn20 1.969 . S
O26 C29 1.267 . S
O27 Zn20 1.965 . S
O27 C38 1.260 . S
O28 Zn21 1.969 . S
O28 C38 1.258 . S
C29 O26 1.267 . S
C29 O30 1.228 . S
O30 C29 1.228 . S
O31 Zn20 2.024 . S
O31 C22 1.058 . S
C32 O33 1.228 . S
C32 O34 1.267 . S
O33 C32 1.228 . S
O34 Zn21 1.969 . S
O34 C32 1.267 . S
O35 Zn21 1.965 . S
O35 C39 1.260 . S
O36 Zn20 1.969 . S
O36 C39 1.258 . S
O37 Zn21 2.024 . S
O37 C24 1.058 . S
C38 O27 1.260 . S
C38 O28 1.258 . S
C39 O35 1.260 . S
C39 O36 1.258 . S
Zn40 O46 1.969 . S
Zn40 O47 1.965 . S
Zn40 O51 2.024 . S
Zn40 O56 1.969 . S
Zn41 O48 1.969 . S
Zn41 O54 1.969 . S
Zn41 O55 1.965 . S
Zn41 O57 2.024 . S
C42 O43 1.229 . S
C42 O51 1.058 . S
O43 C42 1.229 . S
C44 O45 1.229 . S
C44 O57 1.058 . S
O45 C44 1.229 . S
O46 Zn40 1.969 . S
O46 C49 1.267 . S
O47 Zn40 1.965 . S
O47 C58 1.260 . S
O48 Zn41 1.969 . S
O48 C58 1.258 . S
C49 O46 1.267 . S
C49 O50 1.228 . S
O50 C49 1.228 . S
O51 Zn40 2.024 . S
O51 C42 1.058 . S
C52 O53 1.228 . S
C52 O54 1.267 . S
O53 C52 1.228 . S
O54 Zn41 1.969 . S
O54 C52 1.267 . S
O55 Zn41 1.965 . S
O55 C59 1.260 . S
O56 Zn40 1.969 . S
O56 C59 1.258 . S
O57 Zn41 2.024 . S
O57 C44 1.058 . S
C58 O47 1.260 . S
C58 O48 1.258 . S
C59 O55 1.260 . S
C59 O56 1.258 . S
Zn60 O66 1.969 . S
Zn60 O67 1.965 . S
Zn60 O71 2.024 . S
Zn60 O76 1.969 . S
Zn61 O68 1.969 . S
Zn61 O74 1.969 . S
Zn61 O75 1.965 . S
Zn61 O77 2.024 . S
C62 O63 1.229 . S
C62 O71 1.058 . S
O63 C62 1.229 . S
C64 O65 1.229 . S
C64 O77 1.058 . S
O65 C64 1.229 . S
O66 Zn60 1.969 . S
O66 C69 1.267 . S
O67 Zn60 1.965 . S
O67 C78 1.260 . S
O68 Zn61 1.969 . S
O68 C78 1.258 . S
C69 O66 1.267 . S
C69 O70 1.228 . S
O70 C69 1.228 . S
O71 Zn60 2.024 . S
O71 C62 1.058 . S
C72 O73 1.228 . S
C72 O74 1.267 . S
O73 C72 1.228 . S
O74 Zn61 1.969 . S
O74 C72 1.267 . S
O75 Zn61 1.965 . S
O75 C79 1.260 . S
O76 Zn60 1.969 . S
O76 C79 1.258 . S
O77 Zn61 2.024 . S
O77 C64 1.058 . S
C78 O67 1.260 . S
C78 O68 1.258 . S
C79 O75 1.260 . S
C79 O76 1.258 . S
Zn80 O86 1.969 . S
Zn80 O87 1.965 . S
Zn80 O91 2.024 . S
Zn80 O96 1.969 . S
Zn81 O88 1.969 . S
Zn81 O94 1.969 . S
Zn81 O95 1.965 . S
Zn81 O97 2.024 . S
C82 O83 1.229 . S
C82 O91 1.058 . S
O83 C82 1.229 . S
C84 O85 1.229 . S
C84 O97 1.058 . S
O85 C84 1.229 . S
O86 Zn80 1.969 . S
O86 C89 1.267 . S
O87 Zn80 1.965 . S
O87 C98 1.260 . S
O88 Zn81 1.969 . S
O88 C98 1.258 . S
C89 O86 1.267 . S
C89 O90 1.228 . S
O90 C89 1.228 . S
O91 Zn80 2.024 . S
O91 C82 1.058 . S
C92 O93 1.228 . S
C92 O94 1.267 . S
O93 C92 1.228 . S
O94 Zn81 1.969 . S
O94 C92 1.267 . S
O95 Zn81 1.965 . S
O95 C99 1.260 . S
O96 Zn80 1.969 . S
O96 C99 1.258 . S
O97 Zn81 2.024 . S
O97 C84 1.058 . S
C98 O87 1.260 . S
C98 O88 1.258 . S
C99 O95 1.260 . S
C99 O96 1.258 . S
Zn100 O106 1.969 . S
Zn100 O107 1.965 . S
Zn100 O111 2.024 . S
Zn100 O116 1.969 . S
Zn101 O108 1.969 . S
Zn101 O114 1.969 . S
Zn101 O115 1.965 . S
Zn101 O117 2.024 . S
C102 O103 1.229 . S
C102 O111 1.058 . S
O103 C102 1.229 . S
C104 O105 1.229 . S
C104 O117 1.058 . S
O105 C104 1.229 . S
O106 Zn100 1.969 . S
O106 C109 1.267 . S
O107 Zn100 1.965 . S
O107 C118 1.260 . S
O108 Zn101 1.969 . S
O108 C118 1.258 . S
C109 O106 1.267 . S
C109 O110 1.228 . S
O110 C109 1.228 . S
O111 Zn100 2.024 . S
O111 C102 1.058 . S
C112 O113 1.228 . S
C112 O114 1.267 . S
O113 C112 1.228 . S
O114 Zn101 1.969 . S
O114 C112 1.267 . S
O115 Zn101 1.965 . S
O115 C119 1.260 . S
O116 Zn100 1.969 . S
O116 C119 1.258 . S
O117 Zn101 2.024 . S
O117 C104 1.058 . S
C118 O107 1.260 . S
C118 O108 1.258 . S
C119 O115 1.260 . S
C119 O116 1.258 . S
Zn120 O126 1.969 . S
Zn120 O127 1.965 . S
Zn120 O131 2.024 . S
Zn120 O136 1.969 . S
Zn121 O128 1.969 . S
Zn121 O134 1.969 . S
Zn121 O135 1.965 . S
Zn121 O137 2.024 . S
C122 O123 1.229 . S
C122 O131 1.058 . S
O123 C122 1.229 . S
C124 O125 1.229 . S
C124 O137 1.058 . S
O125 C124 1.229 . S
O126 Zn120 1.969 . S
O126 C129 1.267 . S
O127 Zn120 1.965 . S
O127 C138 1.260 . S
O128 Zn121 1.969 . S
O128 C138 1.258 . S
C129 O126 1.267 . S
C129 O130 1.228 . S
O130 C129 1.228 . S
O131 Zn120 2.024 . S
O131 C122 1.058 . S
C132 O133 1.228 . S
C132 O134 1.267 . S
O133 C132 1.228 . S
O134 Zn121 1.969 . S
O134 C132 1.267 . S
O135 Zn121 1.965 . S
O135 C139 1.260 . S
O136 Zn120 1.969 . S
O136 C139 1.258 . S
O137 Zn121 2.024 . S
O137 C124 1.058 . S
C138 O127 1.260 . S
C138 O128 1.258 . S
C139 O135 1.260 . S
C139 O136 1.258 . S
Zn140 O146 1.969 . S
Zn140 O147 1.965 . S
Zn140 O151 2.024 . S
Zn140 O156 1.969 . S
Zn141 O148 1.969 . S
Zn141 O154 1.969 . S
Zn141 O155 1.965 . S
Zn141 O157 2.024 . S
C142 O143 1.229 . S
C142 O151 1.058 . S
O143 C142 1.229 . S
C144 O145 1.229 . S
C144 O157 1.058 . S
O145 C144 1.229 . S
O146 Zn140 1.969 . S
O146 C149 1.267 . S
O147 Zn140 1.965 . S
O147 C158 1.260 . S
O148 Zn141 1.969 . S
O148 C158 1.258 . S
C149 O146 1.267 . S
C149 O150 1.228 . S
O150 C149 1.228 . S
O151 Zn140 2.024 . S
O151 C142 1.058 . S
C152 O153 1.228 . S
C152 O154 1.267 . S
O153 C152 1.228 . S
O154 Zn141 1.969 . S
O154 C152 1.267 . S
O155 Zn141 1.965 . S
O155 C159 1.260 . S
O156 Zn140 1.969 . S
O156 C159 1.258 . S
O157 Zn141 2.024 . S
O157 C144 1.058 . S
C158 O147 1.260 . S
C158 O148 1.258 . S
C159 O155 1.260 . S
C159 O156 1.258 . S
Fe160 O161 1.886 1_455 S
Fe160 O164 1.715 . S
Fe160 O169 2.077 1_455 S
Fe160 O174 1.935 . S
Fe160 O180 2.077 1_455 S
Fe160 O189 1.935 . S
O161 Fe160 1.886 1_655 S
O161 Fe163 1.715 1_545 S
Fe162 O164 1.886 . S
Fe162 O165 1.715 1_545 S
Fe162 O172 1.935 1_545 S
Fe162 O173 2.077 . S
Fe162 O179 1.935 1_545 S
Fe162 O188 2.077 . S
Fe163 O161 1.715 1_565 S
Fe163 O166 1.886 . S
Fe163 O170 1.935 1_565 S
Fe163 O175 2.077 . S
Fe163 O181 1.935 1_565 S
Fe163 O185 2.077 . S
O164 Fe160 1.715 . S
O164 Fe162 1.886 . S
O165 Fe162 1.715 1_565 S
O165 Fe167 1.886 1_455 S
O166 Fe163 1.886 . S
O166 Fe167 1.715 . S
Fe167 O165 1.886 1_655 S
Fe167 O166 1.715 . S
Fe167 O171 2.077 1_655 S
Fe167 O176 1.935 . S
Fe167 O178 2.077 1_655 S
Fe167 O186 1.935 . S
C168 O180 1.381 . S
C168 O181 1.421 . S
O169 Fe160 2.077 1_655 S
O169 C182 1.381 . S
O170 Fe163 1.935 1_545 S
O170 C182 1.421 . S
O171 Fe167 2.077 1_455 S
O171 C187 1.381 . S
O172 Fe162 1.935 1_565 S
O172 C187 1.421 . S
O173 Fe162 2.077 . S
O173 C177 1.381 . S
O174 Fe160 1.935 . S
O174 C177 1.421 . S
O175 Fe163 2.077 . S
O175 C183 1.381 . S
O176 Fe167 1.935 . S
O176 C183 1.421 . S
C177 O173 1.381 . S
C177 O174 1.421 . S
O178 Fe167 2.077 1_455 S
O178 C190 1.381 . S
O179 Fe162 1.935 1_565 S
O179 C190 1.421 . S
O180 Fe160 2.077 1_655 S
O180 C168 1.381 . S
O181 Fe163 1.935 1_545 S
O181 C168 1.421 . S
C182 O169 1.381 . S
C182 O170 1.421 . S
C183 O175 1.381 . S
C183 O176 1.421 . S
C184 O185 1.381 . S
C184 O186 1.421 . S
O185 Fe163 2.077 . S
O185 C184 1.381 . S
O186 Fe167 1.935 . S
O186 C184 1.421 . S
C187 O171 1.381 . S
C187 O172 1.421 . S
O188 Fe162 2.077 . S
O188 C191 1.381 . S
O189 Fe160 1.935 . S
O189 C191 1.421 . S
C190 O178 1.381 . S
C190 O179 1.421 . S
C191 O188 1.381 . S
C191 O189 1.421 . S
Fe192 O193 1.887 1_556 S
Fe192 O196 1.715 . S
Fe192 O201 2.077 . S
Fe192 O206 1.935 . S
Fe192 O212 2.077 1_556 S
Fe192 O221 1.935 1_556 S
O193 Fe192 1.887 1_554 S
O193 Fe195 1.714 1_565 S
Fe194 O196 1.886 . S
Fe194 O197 1.714 1_565 S
Fe194 O204 1.935 1_565 S
Fe194 O205 2.077 . S
Fe194 O211 1.935 1_566 S
Fe194 O220 2.077 1_556 S
Fe195 O193 1.714 1_545 S
Fe195 O198 1.886 . S
Fe195 O202 1.935 1_544 S
Fe195 O207 2.077 1_554 S
Fe195 O213 1.935 1_545 S
Fe195 O217 2.077 . S
O196 Fe192 1.715 . S
O196 Fe194 1.886 . S
O197 Fe194 1.714 1_545 S
O197 Fe199 1.887 1_556 S
O198 Fe195 1.886 . S
O198 Fe199 1.715 . S
Fe199 O197 1.887 1_554 S
Fe199 O198 1.715 . S
Fe199 O203 2.077 1_554 S
Fe199 O208 1.935 1_554 S
Fe199 O210 2.077 . S
Fe199 O218 1.935 . S
C200 O212 1.381 . S
C200 O213 1.421 . S
O201 Fe192 2.077 . S
O201 C214 1.381 . S
O202 Fe195 1.935 1_566 S
O202 C214 1.421 . S
O203 Fe199 2.077 1_556 S
O203 C219 1.381 . S
O204 Fe194 1.935 1_545 S
O204 C219 1.421 . S
O205 Fe194 2.077 . S
O205 C209 1.381 . S
O206 Fe192 1.935 . S
O206 C209 1.421 . S
O207 Fe195 2.077 1_556 S
O207 C215 1.381 . S
O208 Fe199 1.935 1_556 S
O208 C215 1.421 . S
C209 O205 1.381 . S
C209 O206 1.421 . S
O210 Fe199 2.077 . S
O210 C222 1.381 . S
O211 Fe194 1.935 1_544 S
O211 C222 1.421 . S
O212 Fe192 2.077 1_554 S
O212 C200 1.381 . S
O213 Fe195 1.935 1_565 S
O213 C200 1.421 . S
C214 O201 1.381 . S
C214 O202 1.421 . S
C215 O207 1.381 . S
C215 O208 1.421 . S
C216 O217 1.381 . S
C216 O218 1.421 . S
O217 Fe195 2.077 . S
O217 C216 1.381 . S
O218 Fe199 1.935 . S
O218 C216 1.421 . S
C219 O203 1.381 . S
C219 O204 1.421 . S
O220 Fe194 2.077 1_554 S
O220 C223 1.381 . S
O221 Fe192 1.935 1_554 S
O221 C223 1.421 . S
C222 O210 1.381 . S
C222 O211 1.421 . S
C223 O220 1.381 . S
C223 O221 1.421 . S
Fe224 O225 1.887 1_454 S
Fe224 O228 1.715 . S
Fe224 O233 2.077 1_454 S
Fe224 O238 1.935 1_554 S
Fe224 O244 2.077 1_455 S
Fe224 O253 1.935 . S
O225 Fe224 1.887 1_656 S
O225 Fe227 1.714 . S
Fe226 O228 1.886 . S
Fe226 O229 1.714 . S
Fe226 O236 1.935 1_554 S
Fe226 O237 2.077 1_554 S
Fe226 O243 1.935 . S
Fe226 O252 2.077 . S
Fe227 O225 1.714 . S
Fe227 O230 1.886 . S
Fe227 O234 1.935 . S
Fe227 O239 2.077 . S
Fe227 O245 1.935 1_556 S
Fe227 O249 2.077 1_556 S
O228 Fe224 1.715 . S
O228 Fe226 1.886 . S
O229 Fe226 1.714 . S
O229 Fe231 1.887 1_454 S
O230 Fe227 1.886 . S
O230 Fe231 1.715 . S
Fe231 O229 1.887 1_656 S
Fe231 O230 1.715 . S
Fe231 O235 2.077 1_655 S
Fe231 O240 1.935 . S
Fe231 O242 2.077 1_656 S
Fe231 O250 1.935 1_556 S
C232 O244 1.381 . S
C232 O245 1.421 . S
O233 Fe224 2.077 1_656 S
O233 C246 1.381 . S
O234 Fe227 1.935 . S
O234 C246 1.421 . S
O235 Fe231 2.077 1_455 S
O235 C251 1.381 . S
O236 Fe226 1.935 1_556 S
O236 C251 1.421 . S
O237 Fe226 2.077 1_556 S
O237 C241 1.381 . S
O238 Fe224 1.935 1_556 S
O238 C241 1.421 . S
O239 Fe227 2.077 . S
O239 C247 1.381 . S
O240 Fe231 1.935 . S
O240 C247 1.421 . S
C241 O237 1.381 . S
C241 O238 1.421 . S
O242 Fe231 2.077 1_454 S
O242 C254 1.381 . S
O243 Fe226 1.935 . S
O243 C254 1.421 . S
O244 Fe224 2.077 1_655 S
O244 C232 1.381 . S
O245 Fe227 1.935 1_554 S
O245 C232 1.421 . S
C246 O233 1.381 . S
C246 O234 1.421 . S
C247 O239 1.381 . S
C247 O240 1.421 . S
C248 O249 1.381 . S
C248 O250 1.421 . S
O249 Fe227 2.077 1_554 S
O249 C248 1.381 . S
O250 Fe231 1.935 1_554 S
O250 C248 1.421 . S
C251 O235 1.381 . S
C251 O236 1.421 . S
O252 Fe226 2.077 . S
O252 C255 1.381 . S
O253 Fe224 1.935 . S
O253 C255 1.421 . S
C254 O242 1.381 . S
C254 O243 1.421 . S
C255 O252 1.381 . S
C255 O253 1.421 . S
Fe256 O257 1.886 . S
Fe256 O260 1.715 . S
Fe256 O265 2.077 . S
Fe256 O270 1.935 . S
Fe256 O276 2.077 . S
Fe256 O285 1.935 . S
O257 Fe256 1.886 . S
O257 Fe259 1.715 1_556 S
Fe258 O260 1.886 . S
Fe258 O261 1.715 1_556 S
Fe258 O268 1.935 1_556 S
Fe258 O269 2.077 . S
Fe258 O275 1.935 1_556 S
Fe258 O284 2.077 . S
Fe259 O257 1.715 1_554 S
Fe259 O262 1.886 . S
Fe259 O266 1.935 1_554 S
Fe259 O271 2.077 . S
Fe259 O277 1.935 1_554 S
Fe259 O281 2.077 . S
O260 Fe256 1.715 . S
O260 Fe258 1.886 . S
O261 Fe258 1.715 1_554 S
O261 Fe263 1.886 . S
O262 Fe259 1.886 . S
O262 Fe263 1.715 . S
Fe263 O261 1.886 . S
Fe263 O262 1.715 . S
Fe263 O267 2.077 . S
Fe263 O272 1.935 . S
Fe263 O274 2.077 . S
Fe263 O282 1.935 . S
C264 O276 1.381 . S
C264 O277 1.421 . S
O265 Fe256 2.077 . S
O265 C278 1.381 . S
O266 Fe259 1.935 1_556 S
O266 C278 1.421 . S
O267 Fe263 2.077 . S
O267 C283 1.381 . S
O268 Fe258 1.935 1_554 S
O268 C283 1.421 . S
O269 Fe258 2.077 . S
O269 C273 1.381 . S
O270 Fe256 1.935 . S
O270 C273 1.421 . S
O271 Fe259 2.077 . S
O271 C279 1.381 . S
O272 Fe263 1.935 . S
O272 C279 1.421 . S
C273 O269 1.381 . S
C273 O270 1.421 . S
O274 Fe263 2.077 . S
O274 C286 1.381 . S
O275 Fe258 1.935 1_554 S
O275 C286 1.421 . S
O276 Fe256 2.077 . S
O276 C264 1.381 . S
O277 Fe259 1.935 1_556 S
O277 C264 1.421 . S
C278 O265 1.381 . S
C278 O266 1.421 . S
C279 O271 1.381 . S
C279 O272 1.421 . S
C280 O281 1.381 . S
C280 O282 1.421 . S
O281 Fe259 2.077 . S
O281 C280 1.381 . S
O282 Fe263 1.935 . S
O282 C280 1.421 . S
C283 O267 1.381 . S
C283 O268 1.421 . S
O284 Fe258 2.077 . S
O284 C287 1.381 . S
O285 Fe256 1.935 . S
O285 C287 1.421 . S
C286 O274 1.381 . S
C286 O275 1.421 . S
C287 O284 1.381 . S
C287 O285 1.421 . S
Fe288 O289 1.884 . S
Fe288 O292 1.715 . S
Fe288 O297 2.077 1_655 S
Fe288 O302 1.935 1_655 S
Fe288 O308 2.077 . S
Fe288 O317 1.935 . S
O289 Fe288 1.884 . S
O289 Fe291 1.717 1_655 S
Fe290 O292 1.886 . S
Fe290 O293 1.718 1_655 S
Fe290 O300 1.935 1_655 S
Fe290 O301 2.077 1_655 S
Fe290 O307 1.935 . S
Fe290 O316 2.077 . S
Fe291 O289 1.717 1_455 S
Fe291 O294 1.886 . S
Fe291 O298 1.935 . S
Fe291 O303 2.077 . S
Fe291 O309 1.935 1_455 S
Fe291 O313 2.077 1_455 S
O292 Fe288 1.715 . S
O292 Fe290 1.886 . S
O293 Fe290 1.718 1_455 S
O293 Fe295 1.883 . S
O294 Fe291 1.886 . S
O294 Fe295 1.715 . S
Fe295 O293 1.883 . S
Fe295 O294 1.715 . S
Fe295 O299 2.077 . S
Fe295 O304 1.935 . S
Fe295 O306 2.077 1_455 S
Fe295 O314 1.935 1_455 S
C296 O308 1.381 . S
C296 O309 1.421 . S
O297 Fe288 2.077 1_455 S
O297 C310 1.381 . S
O298 Fe291 1.935 . S
O298 C310 1.421 . S
O299 Fe295 2.077 . S
O299 C315 1.381 . S
O300 Fe290 1.935 1_455 S
O300 C315 1.421 . S
O301 Fe290 2.077 1_455 S
O301 C305 1.381 . S
O302 Fe288 1.935 1_455 S
O302 C305 1.421 . S
O303 Fe291 2.077 . S
O303 C311 1.381 . S
O304 Fe295 1.935 . S
O304 C311 1.421 . S
C305 O301 1.381 . S
C305 O302 1.421 . S
O306 Fe295 2.077 1_655 S
O306 C318 1.381 . S
O307 Fe290 1.935 . S
O307 C318 1.421 . S
O308 Fe288 2.077 . S
O308 C296 1.381 . S
O309 Fe291 1.935 1_655 S
O309 C296 1.421 . S
C310 O297 1.381 . S
C310 O298 1.421 . S
C311 O303 1.381 . S
C311 O304 1.421 . S
C312 O313 1.381 . S
C312 O314 1.421 . S
O313 Fe291 2.077 1_655 S
O313 C312 1.381 . S
O314 Fe295 1.935 1_655 S
O314 C312 1.421 . S
C315 O299 1.381 . S
C315 O300 1.421 . S
O316 Fe290 2.077 . S
O316 C319 1.381 . S
O317 Fe288 1.935 . S
O317 C319 1.421 . S
C318 O306 1.381 . S
C318 O307 1.421 . S
C319 O316 1.381 . S
C319 O317 1.421 . S
Fe320 O321 1.886 . S
Fe320 O324 1.715 . S
Fe320 O329 2.077 . S
Fe320 O334 1.935 . S
Fe320 O340 2.077 . S
Fe320 O349 1.935 . S
O321 Fe320 1.886 . S
O321 Fe323 1.715 1_565 S
Fe322 O324 1.886 . S
Fe322 O325 1.715 1_565 S
Fe322 O332 1.935 1_565 S
Fe322 O333 2.077 . S
Fe322 O339 1.935 1_565 S
Fe322 O348 2.077 . S
Fe323 O321 1.715 1_545 S
Fe323 O326 1.886 . S
Fe323 O330 1.935 1_545 S
Fe323 O335 2.077 . S
Fe323 O341 1.935 1_545 S
Fe323 O345 2.077 . S
O324 Fe320 1.715 . S
O324 Fe322 1.886 . S
O325 Fe322 1.715 1_545 S
O325 Fe327 1.886 . S
O326 Fe323 1.886 . S
O326 Fe327 1.715 . S
Fe327 O325 1.886 . S
Fe327 O326 1.715 . S
Fe327 O331 2.077 . S
Fe327 O336 1.935 . S
Fe327 O338 2.077 . S
Fe327 O346 1.935 . S
C328 O340 1.381 . S
C328 O341 1.421 . S
O329 Fe320 2.077 . S
O329 C342 1.381 . S
O330 Fe323 1.935 1_565 S
O330 C342 1.421 . S
O331 Fe327 2.077 . S
O331 C347 1.381 . S
O332 Fe322 1.935 1_545 S
O332 C347 1.421 . S
O333 Fe322 2.077 . S
O333 C337 1.381 . S
O334 Fe320 1.935 . S
O334 C337 1.421 . S
O335 Fe323 2.077 . S
O335 C343 1.381 . S
O336 Fe327 1.935 . S
O336 C343 1.421 . S
C337 O333 1.381 . S
C337 O334 1.421 . S
O338 Fe327 2.077 . S
O338 C350 1.381 . S
O339 Fe322 1.935 1_545 S
O339 C350 1.421 . S
O340 Fe320 2.077 . S
O340 C328 1.381 . S
O341 Fe323 1.935 1_565 S
O341 C328 1.421 . S
C342 O329 1.381 . S
C342 O330 1.421 . S
C343 O335 1.381 . S
C343 O336 1.421 . S
C344 O345 1.381 . S
C344 O346 1.421 . S
O345 Fe323 2.077 . S
O345 C344 1.381 . S
O346 Fe327 1.935 . S
O346 C344 1.421 . S
C347 O331 1.381 . S
C347 O332 1.421 . S
O348 Fe322 2.077 . S
O348 C351 1.381 . S
O349 Fe320 1.935 . S
O349 C351 1.421 . S
C350 O338 1.381 . S
C350 O339 1.421 . S
C351 O348 1.381 . S
C351 O349 1.421 . S
C352 C353 1.369 . S
C352 C354 1.419 . S
C352 H356 0.930 . S
C353 C352 1.369 . S
C353 C362 1.429 . S
C354 C352 1.419 . S
C354 C355 1.363 . S
C354 H357 0.929 . S
C355 C354 1.363 . S
C355 C361 1.428 . S
H356 C352 0.930 . S
H357 C354 0.929 . S
S358 N359 1.613 . S
S358 N360 1.610 . S
N359 S358 1.613 . S
N359 C362 1.350 . S
N360 S358 1.610 . S
N360 C361 1.351 . S
C361 C355 1.428 . S
C361 N360 1.351 . S
C361 C362 1.434 . S
C362 C353 1.429 . S
C362 N359 1.350 . S
C362 C361 1.434 . S
C363 C364 1.369 . S
C363 C365 1.419 . S
C363 H367 0.930 . S
C364 C363 1.369 . S
C364 C373 1.429 . S
C365 C363 1.419 . S
C365 C366 1.363 . S
C365 H368 0.929 . S
C366 C365 1.363 . S
C366 C372 1.428 . S
H367 C363 0.930 . S
H368 C365 0.929 . S
S369 N370 1.613 . S
S369 N371 1.610 . S
N370 S369 1.613 . S
N370 C373 1.350 . S
N371 S369 1.610 . S
N371 C372 1.351 . S
C372 C366 1.428 . S
C372 N371 1.351 . S
C372 C373 1.434 . S
C373 C364 1.429 . S
C373 N370 1.350 . S
C373 C372 1.434 . S
C374 C375 1.369 . S
C374 C376 1.419 . S
C374 H378 0.930 . S
C375 C374 1.369 . S
C375 C384 1.429 . S
C376 C374 1.419 . S
C376 C377 1.363 . S
C376 H379 0.929 . S
C377 C376 1.363 . S
C377 C383 1.428 . S
H378 C374 0.930 . S
H379 C376 0.929 . S
S380 N381 1.613 . S
S380 N382 1.610 . S
N381 S380 1.613 . S
N381 C384 1.350 . S
N382 S380 1.610 . S
N382 C383 1.351 . S
C383 C377 1.428 . S
C383 N382 1.351 . S
C383 C384 1.434 . S
C384 C375 1.429 . S
C384 N381 1.350 . S
C384 C383 1.434 . S
C385 C386 1.369 . S
C385 C387 1.419 . S
C385 H389 0.930 . S
C386 C385 1.369 . S
C386 C395 1.429 . S
C387 C385 1.419 . S
C387 C388 1.363 . S
C387 H390 0.929 . S
C388 C387 1.363 . S
C388 C394 1.428 . S
H389 C385 0.930 . S
H390 C387 0.929 . S
S391 N392 1.613 . S
S391 N393 1.610 . S
N392 S391 1.613 . S
N392 C395 1.350 . S
N393 S391 1.610 . S
N393 C394 1.351 . S
C394 C388 1.428 . S
C394 N393 1.351 . S
C394 C395 1.434 . S
C395 C386 1.429 . S
C395 N392 1.350 . S
C395 C394 1.434 . S
C396 C397 1.369 . S
C396 C398 1.419 . S
C396 H400 0.930 . S
C397 C396 1.369 . S
C397 C406 1.429 . S
C398 C396 1.419 . S
C398 C399 1.363 . S
C398 H401 0.929 . S
C399 C398 1.363 . S
C399 C405 1.428 . S
H400 C396 0.930 . S
H401 C398 0.929 . S
S402 N403 1.613 . S
S402 N404 1.610 . S
N403 S402 1.613 . S
N403 C406 1.350 . S
N404 S402 1.610 . S
N404 C405 1.351 . S
C405 C399 1.428 . S
C405 N404 1.351 . S
C405 C406 1.434 . S
C406 C397 1.429 . S
C406 N403 1.350 . S
C406 C405 1.434 . S
C407 C408 1.369 . S
C407 C409 1.419 . S
C407 H411 0.930 . S
C408 C407 1.369 . S
C408 C417 1.429 . S
C409 C407 1.419 . S
C409 C410 1.363 . S
C409 H412 0.929 . S
C410 C409 1.363 . S
C410 C416 1.428 . S
H411 C407 0.930 . S
H412 C409 0.929 . S
S413 N414 1.613 . S
S413 N415 1.610 . S
N414 S413 1.613 . S
N414 C417 1.350 . S
N415 S413 1.610 . S
N415 C416 1.351 . S
C416 C410 1.428 . S
C416 N415 1.351 . S
C416 C417 1.434 . S
C417 C408 1.429 . S
C417 N414 1.350 . S
C417 C416 1.434 . S
C418 C419 1.369 . S
C418 C420 1.419 . S
C418 H422 0.930 . S
C419 C418 1.369 . S
C419 C428 1.429 . S
C420 C418 1.419 . S
C420 C421 1.363 . S
C420 H423 0.929 . S
C421 C420 1.363 . S
C421 C427 1.428 . S
H422 C418 0.930 . S
H423 C420 0.929 . S
S424 N425 1.613 . S
S424 N426 1.610 . S
N425 S424 1.613 . S
N425 C428 1.350 . S
N426 S424 1.610 . S
N426 C427 1.351 . S
C427 C421 1.428 . S
C427 N426 1.351 . S
C427 C428 1.434 . S
C428 C419 1.429 . S
C428 N425 1.350 . S
C428 C427 1.434 . S
C429 C430 1.369 . S
C429 C431 1.419 . S
C429 H433 0.930 . S
C430 C429 1.369 . S
C430 C439 1.429 . S
C431 C429 1.419 . S
C431 C432 1.363 . S
C431 H434 0.929 . S
C432 C431 1.363 . S
C432 C438 1.428 . S
H433 C429 0.930 . S
H434 C431 0.929 . S
S435 N436 1.613 . S
S435 N437 1.610 . S
N436 S435 1.613 . S
N436 C439 1.350 . S
N437 S435 1.610 . S
N437 C438 1.351 . S
C438 C432 1.428 . S
C438 N437 1.351 . S
C438 C439 1.434 . S
C439 C430 1.429 . S
C439 N436 1.350 . S
C439 C438 1.434 . S
C440 C441 1.369 . S
C440 C442 1.419 . S
C440 H444 0.930 . S
C441 C440 1.369 . S
C441 C450 1.429 . S
C442 C440 1.419 . S
C442 C443 1.363 . S
C442 H445 0.929 . S
C443 C442 1.363 . S
C443 C449 1.428 . S
H444 C440 0.930 . S
H445 C442 0.929 . S
S446 N447 1.613 . S
S446 N448 1.610 . S
N447 S446 1.613 . S
N447 C450 1.350 . S
N448 S446 1.610 . S
N448 C449 1.351 . S
C449 C443 1.428 . S
C449 N448 1.351 . S
C449 C450 1.434 . S
C450 C441 1.429 . S
C450 N447 1.350 . S
C450 C449 1.434 . S
C451 C452 1.369 . S
C451 C453 1.419 . S
C451 H455 0.930 . S
C452 C451 1.369 . S
C452 C461 1.429 . S
C453 C451 1.419 . S
C453 C454 1.363 . S
C453 H456 0.929 . S
C454 C453 1.363 . S
C454 C460 1.428 . S
H455 C451 0.930 . S
H456 C453 0.929 . S
S457 N458 1.613 . S
S457 N459 1.610 . S
N458 S457 1.613 . S
N458 C461 1.350 . S
N459 S457 1.610 . S
N459 C460 1.351 . S
C460 C454 1.428 . S
C460 N459 1.351 . S
C460 C461 1.434 . S
C461 C452 1.429 . S
C461 N458 1.350 . S
C461 C460 1.434 . S
C462 C463 1.369 . S
C462 C464 1.419 . S
C462 H466 0.930 . S
C463 C462 1.369 . S
C463 C472 1.429 . S
C464 C462 1.419 . S
C464 C465 1.363 . S
C464 H467 0.929 . S
C465 C464 1.363 . S
C465 C471 1.428 . S
H466 C462 0.930 . S
H467 C464 0.929 . S
S468 N469 1.613 . S
S468 N470 1.610 . S
N469 S468 1.613 . S
N469 C472 1.350 . S
N470 S468 1.610 . S
N470 C471 1.351 . S
C471 C465 1.428 . S
C471 N470 1.351 . S
C471 C472 1.434 . S
C472 C463 1.429 . S
C472 N469 1.350 . S
C472 C471 1.434 . S
C473 C474 1.369 . S
C473 C475 1.419 . S
C473 H477 0.930 . S
C474 C473 1.369 . S
C474 C483 1.429 . S
C475 C473 1.419 . S
C475 C476 1.363 . S
C475 H478 0.929 . S
C476 C475 1.363 . S
C476 C482 1.428 . S
H477 C473 0.930 . S
H478 C475 0.929 . S
S479 N480 1.613 . S
S479 N481 1.610 . S
N480 S479 1.613 . S
N480 C483 1.350 . S
N481 S479 1.610 . S
N481 C482 1.351 . S
C482 C476 1.428 . S
C482 N481 1.351 . S
C482 C483 1.434 . S
C483 C474 1.429 . S
C483 N480 1.350 . S
C483 C482 1.434 . S
C484 C485 1.369 . S
C484 C486 1.419 . S
C484 H488 0.930 . S
C485 C484 1.369 . S
C485 C494 1.429 . S
C486 C484 1.419 . S
C486 C487 1.363 . S
C486 H489 0.929 . S
C487 C486 1.363 . S
C487 C493 1.428 . S
H488 C484 0.930 . S
H489 C486 0.929 . S
S490 N491 1.613 . S
S490 N492 1.610 . S
N491 S490 1.613 . S
N491 C494 1.350 . S
N492 S490 1.610 . S
N492 C493 1.351 . S
C493 C487 1.428 . S
C493 N492 1.351 . S
C493 C494 1.434 . S
C494 C485 1.429 . S
C494 N491 1.350 . S
C494 C493 1.434 . S
C495 C496 1.369 . S
C495 C497 1.419 . S
C495 H499 0.930 . S
C496 C495 1.369 . S
C496 C505 1.429 . S
C497 C495 1.419 . S
C497 C498 1.363 . S
C497 H500 0.929 . S
C498 C497 1.363 . S
C498 C504 1.428 . S
H499 C495 0.930 . S
H500 C497 0.929 . S
S501 N502 1.613 . S
S501 N503 1.610 . S
N502 S501 1.613 . S
N502 C505 1.350 . S
N503 S501 1.610 . S
N503 C504 1.351 . S
C504 C498 1.428 . S
C504 N503 1.351 . S
C504 C505 1.434 . S
C505 C496 1.429 . S
C505 N502 1.350 . S
C505 C504 1.434 . S
C506 C507 1.369 . S
C506 C508 1.419 . S
C506 H510 0.930 . S
C507 C506 1.369 . S
C507 C516 1.429 . S
C508 C506 1.419 . S
C508 C509 1.363 . S
C508 H511 0.929 . S
C509 C508 1.363 . S
C509 C515 1.428 . S
H510 C506 0.930 . S
H511 C508 0.929 . S
S512 N513 1.613 . S
S512 N514 1.610 . S
N513 S512 1.613 . S
N513 C516 1.350 . S
N514 S512 1.610 . S
N514 C515 1.351 . S
C515 C509 1.428 . S
C515 N514 1.351 . S
C515 C516 1.434 . S
C516 C507 1.429 . S
C516 N513 1.350 . S
C516 C515 1.434 . S
C517 C518 1.369 . S
C517 C519 1.419 . S
C517 H521 0.930 . S
C518 C517 1.369 . S
C518 C527 1.429 . S
C519 C517 1.419 . S
C519 C520 1.363 . S
C519 H522 0.929 . S
C520 C519 1.363 . S
C520 C526 1.428 . S
H521 C517 0.930 . S
H522 C519 0.929 . S
S523 N524 1.613 . S
S523 N525 1.610 . S
N524 S523 1.613 . S
N524 C527 1.350 . S
N525 S523 1.610 . S
N525 C526 1.351 . S
C526 C520 1.428 . S
C526 N525 1.351 . S
C526 C527 1.434 . S
C527 C518 1.429 . S
C527 N524 1.350 . S
C527 C526 1.434 . S
C528 C529 1.369 . S
C528 C530 1.419 . S
C528 H532 0.930 . S
C529 C528 1.369 . S
C529 C538 1.429 . S
C530 C528 1.419 . S
C530 C531 1.363 . S
C530 H533 0.929 . S
C531 C530 1.363 . S
C531 C537 1.428 . S
H532 C528 0.930 . S
H533 C530 0.929 . S
S534 N535 1.613 . S
S534 N536 1.610 . S
N535 S534 1.613 . S
N535 C538 1.350 . S
N536 S534 1.610 . S
N536 C537 1.351 . S
C537 C531 1.428 . S
C537 N536 1.351 . S
C537 C538 1.434 . S
C538 C529 1.429 . S
C538 N535 1.350 . S
C538 C537 1.434 . S
C539 C540 1.369 . S
C539 C541 1.419 . S
C539 H543 0.930 . S
C540 C539 1.369 . S
C540 C549 1.429 . S
C541 C539 1.419 . S
C541 C542 1.363 . S
C541 H544 0.929 . S
C542 C541 1.363 . S
C542 C548 1.428 . S
H543 C539 0.930 . S
H544 C541 0.929 . S
S545 N546 1.613 . S
S545 N547 1.610 . S
N546 S545 1.613 . S
N546 C549 1.350 . S
N547 S545 1.610 . S
N547 C548 1.351 . S
C548 C542 1.428 . S
C548 N547 1.351 . S
C548 C549 1.434 . S
C549 C540 1.429 . S
C549 N546 1.350 . S
C549 C548 1.434 . S
C550 C551 1.369 . S
C550 C552 1.419 . S
C550 H554 0.930 . S
C551 C550 1.369 . S
C551 C560 1.429 . S
C552 C550 1.419 . S
C552 C553 1.363 . S
C552 H555 0.929 . S
C553 C552 1.363 . S
C553 C559 1.428 . S
H554 C550 0.930 . S
H555 C552 0.929 . S
S556 N557 1.613 . S
S556 N558 1.610 . S
N557 S556 1.613 . S
N557 C560 1.350 . S
N558 S556 1.610 . S
N558 C559 1.351 . S
C559 C553 1.428 . S
C559 N558 1.351 . S
C559 C560 1.434 . S
C560 C551 1.429 . S
C560 N557 1.350 . S
C560 C559 1.434 . S
C561 C562 1.369 . S
C561 C563 1.419 . S
C561 H565 0.930 . S
C562 C561 1.369 . S
C562 C571 1.429 . S
C563 C561 1.419 . S
C563 C564 1.363 . S
C563 H566 0.929 . S
C564 C563 1.363 . S
C564 C570 1.428 . S
H565 C561 0.930 . S
H566 C563 0.929 . S
S567 N568 1.613 . S
S567 N569 1.610 . S
N568 S567 1.613 . S
N568 C571 1.350 . S
N569 S567 1.610 . S
N569 C570 1.351 . S
C570 C564 1.428 . S
C570 N569 1.351 . S
C570 C571 1.434 . S
C571 C562 1.429 . S
C571 N568 1.350 . S
C571 C570 1.434 . S
C572 C573 1.369 . S
C572 C574 1.419 . S
C572 H576 0.930 . S
C573 C572 1.369 . S
C573 C582 1.429 . S
C574 C572 1.419 . S
C574 C575 1.363 . S
C574 H577 0.929 . S
C575 C574 1.363 . S
C575 C581 1.428 . S
H576 C572 0.930 . S
H577 C574 0.929 . S
S578 N579 1.613 . S
S578 N580 1.610 . S
N579 S578 1.613 . S
N579 C582 1.350 . S
N580 S578 1.610 . S
N580 C581 1.351 . S
C581 C575 1.428 . S
C581 N580 1.351 . S
C581 C582 1.434 . S
C582 C573 1.429 . S
C582 N579 1.350 . S
C582 C581 1.434 . S
C583 C584 1.369 . S
C583 C585 1.419 . S
C583 H587 0.930 . S
C584 C583 1.369 . S
C584 C593 1.429 . S
C585 C583 1.419 . S
C585 C586 1.363 . S
C585 H588 0.929 . S
C586 C585 1.363 . S
C586 C592 1.428 . S
H587 C583 0.930 . S
H588 C585 0.929 . S
S589 N590 1.613 . S
S589 N591 1.610 . S
N590 S589 1.613 . S
N590 C593 1.350 . S
N591 S589 1.610 . S
N591 C592 1.351 . S
C592 C586 1.428 . S
C592 N591 1.351 . S
C592 C593 1.434 . S
C593 C584 1.429 . S
C593 N590 1.350 . S
C593 C592 1.434 . S
C594 C595 1.369 . S
C594 C596 1.419 . S
C594 H598 0.930 . S
C595 C594 1.369 . S
C595 C604 1.429 . S
C596 C594 1.419 . S
C596 C597 1.363 . S
C596 H599 0.929 . S
C597 C596 1.363 . S
C597 C603 1.428 . S
H598 C594 0.930 . S
H599 C596 0.929 . S
S600 N601 1.613 . S
S600 N602 1.610 . S
N601 S600 1.613 . S
N601 C604 1.350 . S
N602 S600 1.610 . S
N602 C603 1.351 . S
C603 C597 1.428 . S
C603 N602 1.351 . S
C603 C604 1.434 . S
C604 C595 1.429 . S
C604 N601 1.350 . S
C604 C603 1.434 . S
C605 C606 1.369 . S
C605 C607 1.419 . S
C605 H609 0.930 . S
C606 C605 1.369 . S
C606 C615 1.429 . S
C607 C605 1.419 . S
C607 C608 1.363 . S
C607 H610 0.929 . S
C608 C607 1.363 . S
C608 C614 1.428 . S
H609 C605 0.930 . S
H610 C607 0.929 . S
S611 N612 1.613 . S
S611 N613 1.610 . S
N612 S611 1.613 . S
N612 C615 1.350 . S
N613 S611 1.610 . S
N613 C614 1.351 . S
C614 C608 1.428 . S
C614 N613 1.351 . S
C614 C615 1.434 . S
C615 C606 1.429 . S
C615 N612 1.350 . S
C615 C614 1.434 . S
C616 C617 1.369 . S
C616 C618 1.419 . S
C616 H620 0.930 . S
C617 C616 1.369 . S
C617 C626 1.429 . S
C618 C616 1.419 . S
C618 C619 1.363 . S
C618 H621 0.929 . S
C619 C618 1.363 . S
C619 C625 1.428 . S
H620 C616 0.930 . S
H621 C618 0.929 . S
S622 N623 1.613 . S
S622 N624 1.610 . S
N623 S622 1.613 . S
N623 C626 1.350 . S
N624 S622 1.610 . S
N624 C625 1.351 . S
C625 C619 1.428 . S
C625 N624 1.351 . S
C625 C626 1.434 . S
C626 C617 1.429 . S
C626 N623 1.350 . S
C626 C625 1.434 . S
C627 C628 1.369 . S
C627 C629 1.419 . S
C627 H631 0.930 . S
C628 C627 1.369 . S
C628 C637 1.429 . S
C629 C627 1.419 . S
C629 C630 1.363 . S
C629 H632 0.929 . S
C630 C629 1.363 . S
C630 C636 1.428 . S
H631 C627 0.930 . S
H632 C629 0.929 . S
S633 N634 1.613 . S
S633 N635 1.610 . S
N634 S633 1.613 . S
N634 C637 1.350 . S
N635 S633 1.610 . S
N635 C636 1.351 . S
C636 C630 1.428 . S
C636 N635 1.351 . S
C636 C637 1.434 . S
C637 C628 1.429 . S
C637 N634 1.350 . S
C637 C636 1.434 . S
C638 C639 1.369 . S
C638 C640 1.419 . S
C638 H642 0.930 . S
C639 C638 1.369 . S
C639 C648 1.429 . S
C640 C638 1.419 . S
C640 C641 1.363 . S
C640 H643 0.929 . S
C641 C640 1.363 . S
C641 C647 1.428 . S
H642 C638 0.930 . S
H643 C640 0.929 . S
S644 N645 1.613 . S
S644 N646 1.610 . S
N645 S644 1.613 . S
N645 C648 1.350 . S
N646 S644 1.610 . S
N646 C647 1.351 . S
C647 C641 1.428 . S
C647 N646 1.351 . S
C647 C648 1.434 . S
C648 C639 1.429 . S
C648 N645 1.350 . S
C648 C647 1.434 . S
C649 C650 1.369 . S
C649 C651 1.419 . S
C649 H653 0.930 . S
C650 C649 1.369 . S
C650 C659 1.429 . S
C651 C649 1.419 . S
C651 C652 1.363 . S
C651 H654 0.929 . S
C652 C651 1.363 . S
C652 C658 1.428 . S
H653 C649 0.930 . S
H654 C651 0.929 . S
S655 N656 1.613 . S
S655 N657 1.610 . S
N656 S655 1.613 . S
N656 C659 1.350 . S
N657 S655 1.610 . S
N657 C658 1.351 . S
C658 C652 1.428 . S
C658 N657 1.351 . S
C658 C659 1.434 . S
C659 C650 1.429 . S
C659 N656 1.350 . S
C659 C658 1.434 . S
C660 C661 1.369 . S
C660 C662 1.419 . S
C660 H664 0.930 . S
C661 C660 1.369 . S
C661 C670 1.429 . S
C662 C660 1.419 . S
C662 C663 1.363 . S
C662 H665 0.929 . S
C663 C662 1.363 . S
C663 C669 1.428 . S
H664 C660 0.930 . S
H665 C662 0.929 . S
S666 N667 1.613 . S
S666 N668 1.610 . S
N667 S666 1.613 . S
N667 C670 1.350 . S
N668 S666 1.610 . S
N668 C669 1.351 . S
C669 C663 1.428 . S
C669 N668 1.351 . S
C669 C670 1.434 . S
C670 C661 1.429 . S
C670 N667 1.350 . S
C670 C669 1.434 . S
C671 C672 1.369 . S
C671 C673 1.419 . S
C671 H675 0.930 . S
C672 C671 1.369 . S
C672 C681 1.429 . S
C673 C671 1.419 . S
C673 C674 1.363 . S
C673 H676 0.929 . S
C674 C673 1.363 . S
C674 C680 1.428 . S
H675 C671 0.930 . S
H676 C673 0.929 . S
S677 N678 1.613 . S
S677 N679 1.610 . S
N678 S677 1.613 . S
N678 C681 1.350 . S
N679 S677 1.610 . S
N679 C680 1.351 . S
C680 C674 1.428 . S
C680 N679 1.351 . S
C680 C681 1.434 . S
C681 C672 1.429 . S
C681 N678 1.350 . S
C681 C680 1.434 . S
C682 C683 1.369 . S
C682 C684 1.419 . S
C682 H686 0.930 . S
C683 C682 1.369 . S
C683 C692 1.429 . S
C684 C682 1.419 . S
C684 C685 1.363 . S
C684 H687 0.929 . S
C685 C684 1.363 . S
C685 C691 1.428 . S
H686 C682 0.930 . S
H687 C684 0.929 . S
S688 N689 1.613 . S
S688 N690 1.610 . S
N689 S688 1.613 . S
N689 C692 1.350 . S
N690 S688 1.610 . S
N690 C691 1.351 . S
C691 C685 1.428 . S
C691 N690 1.351 . S
C691 C692 1.434 . S
C692 C683 1.429 . S
C692 N689 1.350 . S
C692 C691 1.434 . S
C693 C694 1.369 . S
C693 C695 1.419 . S
C693 H697 0.930 . S
C694 C693 1.369 . S
C694 C703 1.429 . S
C695 C693 1.419 . S
C695 C696 1.363 . S
C695 H698 0.929 . S
C696 C695 1.363 . S
C696 C702 1.428 . S
H697 C693 0.930 . S
H698 C695 0.929 . S
S699 N700 1.613 . S
S699 N701 1.610 . S
N700 S699 1.613 . S
N700 C703 1.350 . S
N701 S699 1.610 . S
N701 C702 1.351 . S
C702 C696 1.428 . S
C702 N701 1.351 . S
C702 C703 1.434 . S
C703 C694 1.429 . S
C703 N700 1.350 . S
C703 C702 1.434 . S
C704 C705 1.369 . S
C704 C706 1.419 . S
C704 H708 0.930 . S
C705 C704 1.369 . S
C705 C714 1.429 . S
C706 C704 1.419 . S
C706 C707 1.363 . S
C706 H709 0.929 . S
C707 C706 1.363 . S
C707 C713 1.428 . S
H708 C704 0.930 . S
H709 C706 0.929 . S
S710 N711 1.613 . S
S710 N712 1.610 . S
N711 S710 1.613 . S
N711 C714 1.350 . S
N712 S710 1.610 . S
N712 C713 1.351 . S
C713 C707 1.428 . S
C713 N712 1.351 . S
C713 C714 1.434 . S
C714 C705 1.429 . S
C714 N711 1.350 . S
C714 C713 1.434 . S
C715 C716 1.369 . S
C715 C717 1.419 . S
C715 H719 0.930 . S
C716 C715 1.369 . S
C716 C725 1.429 . S
C717 C715 1.419 . S
C717 C718 1.363 . S
C717 H720 0.929 . S
C718 C717 1.363 . S
C718 C724 1.428 . S
H719 C715 0.930 . S
H720 C717 0.929 . S
S721 N722 1.613 . S
S721 N723 1.610 . S
N722 S721 1.613 . S
N722 C725 1.350 . S
N723 S721 1.610 . S
N723 C724 1.351 . S
C724 C718 1.428 . S
C724 N723 1.351 . S
C724 C725 1.434 . S
C725 C716 1.429 . S
C725 N722 1.350 . S
C725 C724 1.434 . S
C726 C727 1.369 . S
C726 C728 1.419 . S
C726 H730 0.930 . S
C727 C726 1.369 . S
C727 C736 1.429 . S
C728 C726 1.419 . S
C728 C729 1.363 . S
C728 H731 0.929 . S
C729 C728 1.363 . S
C729 C735 1.428 . S
H730 C726 0.930 . S
H731 C728 0.929 . S
S732 N733 1.613 . S
S732 N734 1.610 . S
N733 S732 1.613 . S
N733 C736 1.350 . S
N734 S732 1.610 . S
N734 C735 1.351 . S
C735 C729 1.428 . S
C735 N734 1.351 . S
C735 C736 1.434 . S
C736 C727 1.429 . S
C736 N733 1.350 . S
C736 C735 1.434 . S
C737 C738 1.369 . S
C737 C739 1.419 . S
C737 H741 0.930 . S
C738 C737 1.369 . S
C738 C747 1.429 . S
C739 C737 1.419 . S
C739 C740 1.363 . S
C739 H742 0.929 . S
C740 C739 1.363 . S
C740 C746 1.428 . S
H741 C737 0.930 . S
H742 C739 0.929 . S
S743 N744 1.613 . S
S743 N745 1.610 . S
N744 S743 1.613 . S
N744 C747 1.350 . S
N745 S743 1.610 . S
N745 C746 1.351 . S
C746 C740 1.428 . S
C746 N745 1.351 . S
C746 C747 1.434 . S
C747 C738 1.429 . S
C747 N744 1.350 . S
C747 C746 1.434 . S
C748 C749 1.369 . S
C748 C750 1.419 . S
C748 H752 0.930 . S
C749 C748 1.369 . S
C749 C758 1.429 . S
C750 C748 1.419 . S
C750 C751 1.363 . S
C750 H753 0.929 . S
C751 C750 1.363 . S
C751 C757 1.428 . S
H752 C748 0.930 . S
H753 C750 0.929 . S
S754 N755 1.613 . S
S754 N756 1.610 . S
N755 S754 1.613 . S
N755 C758 1.350 . S
N756 S754 1.610 . S
N756 C757 1.351 . S
C757 C751 1.428 . S
C757 N756 1.351 . S
C757 C758 1.434 . S
C758 C749 1.429 . S
C758 N755 1.350 . S
C758 C757 1.434 . S
C759 C760 1.369 . S
C759 C761 1.419 . S
C759 H763 0.930 . S
C760 C759 1.369 . S
C760 C769 1.429 . S
C761 C759 1.419 . S
C761 C762 1.363 . S
C761 H764 0.929 . S
C762 C761 1.363 . S
C762 C768 1.428 . S
H763 C759 0.930 . S
H764 C761 0.929 . S
S765 N766 1.613 . S
S765 N767 1.610 . S
N766 S765 1.613 . S
N766 C769 1.350 . S
N767 S765 1.610 . S
N767 C768 1.351 . S
C768 C762 1.428 . S
C768 N767 1.351 . S
C768 C769 1.434 . S
C769 C760 1.429 . S
C769 N766 1.350 . S
C769 C768 1.434 . S
C770 C771 1.369 . S
C770 C772 1.419 . S
C770 H774 0.930 . S
C771 C770 1.369 . S
C771 C780 1.429 . S
C772 C770 1.419 . S
C772 C773 1.363 . S
C772 H775 0.929 . S
C773 C772 1.363 . S
C773 C779 1.428 . S
H774 C770 0.930 . S
H775 C772 0.929 . S
S776 N777 1.613 . S
S776 N778 1.610 . S
N777 S776 1.613 . S
N777 C780 1.350 . S
N778 S776 1.610 . S
N778 C779 1.351 . S
C779 C773 1.428 . S
C779 N778 1.351 . S
C779 C780 1.434 . S
C780 C771 1.429 . S
C780 N777 1.350 . S
C780 C779 1.434 . S
C781 C782 1.369 . S
C781 C783 1.419 . S
C781 H785 0.930 . S
C782 C781 1.369 . S
C782 C791 1.429 . S
C783 C781 1.419 . S
C783 C784 1.363 . S
C783 H786 0.929 . S
C784 C783 1.363 . S
C784 C790 1.428 . S
H785 C781 0.930 . S
H786 C783 0.929 . S
S787 N788 1.613 . S
S787 N789 1.610 . S
N788 S787 1.613 . S
N788 C791 1.350 . S
N789 S787 1.610 . S
N789 C790 1.351 . S
C790 C784 1.428 . S
C790 N789 1.351 . S
C790 C791 1.434 . S
C791 C782 1.429 . S
C791 N788 1.350 . S
C791 C790 1.434 . S
C792 C793 1.369 . S
C792 C794 1.419 . S
C792 H796 0.930 . S
C793 C792 1.369 . S
C793 C802 1.429 . S
C794 C792 1.419 . S
C794 C795 1.363 . S
C794 H797 0.929 . S
C795 C794 1.363 . S
C795 C801 1.428 . S
H796 C792 0.930 . S
H797 C794 0.929 . S
S798 N799 1.613 . S
S798 N800 1.610 . S
N799 S798 1.613 . S
N799 C802 1.350 . S
N800 S798 1.610 . S
N800 C801 1.351 . S
C801 C795 1.428 . S
C801 N800 1.351 . S
C801 C802 1.434 . S
C802 C793 1.429 . S
C802 N799 1.350 . S
C802 C801 1.434 . S
C803 C804 1.369 . S
C803 C805 1.419 . S
C803 H807 0.930 . S
C804 C803 1.369 . S
C804 C813 1.429 . S
C805 C803 1.419 . S
C805 C806 1.363 . S
C805 H808 0.929 . S
C806 C805 1.363 . S
C806 C812 1.428 . S
H807 C803 0.930 . S
H808 C805 0.929 . S
S809 N810 1.613 . S
S809 N811 1.610 . S
N810 S809 1.613 . S
N810 C813 1.350 . S
N811 S809 1.610 . S
N811 C812 1.351 . S
C812 C806 1.428 . S
C812 N811 1.351 . S
C812 C813 1.434 . S
C813 C804 1.429 . S
C813 N810 1.350 . S
C813 C812 1.434 . S
C814 C815 1.369 . S
C814 C816 1.419 . S
C814 H818 0.930 . S
C815 C814 1.369 . S
C815 C824 1.429 . S
C816 C814 1.419 . S
C816 C817 1.363 . S
C816 H819 0.929 . S
C817 C816 1.363 . S
C817 C823 1.428 . S
H818 C814 0.930 . S
H819 C816 0.929 . S
S820 N821 1.613 . S
S820 N822 1.610 . S
N821 S820 1.613 . S
N821 C824 1.350 . S
N822 S820 1.610 . S
N822 C823 1.351 . S
C823 C817 1.428 . S
C823 N822 1.351 . S
C823 C824 1.434 . S
C824 C815 1.429 . S
C824 N821 1.350 . S
C824 C823 1.434 . S
C825 C826 1.369 . S
C825 C827 1.419 . S
C825 H829 0.930 . S
C826 C825 1.369 . S
C826 C835 1.429 . S
C827 C825 1.419 . S
C827 C828 1.363 . S
C827 H830 0.929 . S
C828 C827 1.363 . S
C828 C834 1.428 . S
H829 C825 0.930 . S
H830 C827 0.929 . S
S831 N832 1.613 . S
S831 N833 1.610 . S
N832 S831 1.613 . S
N832 C835 1.350 . S
N833 S831 1.610 . S
N833 C834 1.351 . S
C834 C828 1.428 . S
C834 N833 1.351 . S
C834 C835 1.434 . S
C835 C826 1.429 . S
C835 N832 1.350 . S
C835 C834 1.434 . S
C836 C837 1.369 . S
C836 C838 1.419 . S
C836 H840 0.930 . S
C837 C836 1.369 . S
C837 C846 1.429 . S
C838 C836 1.419 . S
C838 C839 1.363 . S
C838 H841 0.929 . S
C839 C838 1.363 . S
C839 C845 1.428 . S
H840 C836 0.930 . S
H841 C838 0.929 . S
S842 N843 1.613 . S
S842 N844 1.610 . S
N843 S842 1.613 . S
N843 C846 1.350 . S
N844 S842 1.610 . S
N844 C845 1.351 . S
C845 C839 1.428 . S
C845 N844 1.351 . S
C845 C846 1.434 . S
C846 C837 1.429 . S
C846 N843 1.350 . S
C846 C845 1.434 . S
C847 C848 1.369 . S
C847 C849 1.419 . S
C847 H851 0.930 . S
C848 C847 1.369 . S
C848 C857 1.429 . S
C849 C847 1.419 . S
C849 C850 1.363 . S
C849 H852 0.929 . S
C850 C849 1.363 . S
C850 C856 1.428 . S
H851 C847 0.930 . S
H852 C849 0.929 . S
S853 N854 1.613 . S
S853 N855 1.610 . S
N854 S853 1.613 . S
N854 C857 1.350 . S
N855 S853 1.610 . S
N855 C856 1.351 . S
C856 C850 1.428 . S
C856 N855 1.351 . S
C856 C857 1.434 . S
C857 C848 1.429 . S
C857 N854 1.350 . S
C857 C856 1.434 . S
C858 C859 1.369 . S
C858 C860 1.419 . S
C858 H862 0.930 . S
C859 C858 1.369 . S
C859 C868 1.429 . S
C860 C858 1.419 . S
C860 C861 1.363 . S
C860 H863 0.929 . S
C861 C860 1.363 . S
C861 C867 1.428 . S
H862 C858 0.930 . S
H863 C860 0.929 . S
S864 N865 1.613 . S
S864 N866 1.610 . S
N865 S864 1.613 . S
N865 C868 1.350 . S
N866 S864 1.610 . S
N866 C867 1.351 . S
C867 C861 1.428 . S
C867 N866 1.351 . S
C867 C868 1.434 . S
C868 C859 1.429 . S
C868 N865 1.350 . S
C868 C867 1.434 . S
C869 C870 1.369 . S
C869 C871 1.419 . S
C869 H873 0.930 . S
C870 C869 1.369 . S
C870 C879 1.429 . S
C871 C869 1.419 . S
C871 C872 1.363 . S
C871 H874 0.929 . S
C872 C871 1.363 . S
C872 C878 1.428 . S
H873 C869 0.930 . S
H874 C871 0.929 . S
S875 N876 1.613 . S
S875 N877 1.610 . S
N876 S875 1.613 . S
N876 C879 1.350 . S
N877 S875 1.610 . S
N877 C878 1.351 . S
C878 C872 1.428 . S
C878 N877 1.351 . S
C878 C879 1.434 . S
C879 C870 1.429 . S
C879 N876 1.350 . S
C879 C878 1.434 . S
C355 C177 2.183 . S
C353 C19 2.112 . S
C366 C182 1.498 . S
C364 C24 1.446 . S
C377 C183 1.431 . S
C375 C59 1.410 . S
C386 C69 1.333 . S
C388 C187 1.337 . S
C397 C82 1.453 . S
C399 C190 1.502 . S
C410 C191 1.431 . S
C408 C118 1.404 . S
C419 C132 1.331 . S
C421 C168 1.336 . S
C430 C158 2.121 . S
C432 C184 2.187 . S
C443 C222 1.628 . S
C441 C4 1.519 . S
C452 C29 0.942 . S
C454 C248 0.949 . S
C465 C200 1.477 . S
C463 C44 1.421 . S
C476 C255 1.386 . S
C474 C79 1.390 . S
C485 C98 1.403 . S
C487 C209 1.400 . S
C498 C251 1.310 . S
C496 C112 1.293 . S
C507 C122 1.207 . S
C509 C215 1.229 . S
C518 C152 1.222 . S
C520 C246 1.284 . S
C529 C9 1.232 . S
C531 C254 1.269 . S
C540 C92 0.936 . S
C542 C241 0.951 . S
C553 C219 1.479 . S
C551 C102 1.420 . S
C564 C247 1.385 . S
C562 C138 1.397 . S
C573 C142 1.524 . S
C575 C214 1.630 . S
C584 C49 1.288 . S
C586 C232 1.305 . S
C597 C223 1.230 . S
C595 C64 1.205 . S
C606 C39 1.404 . S
C608 C216 1.398 . S
C617 C159 2.095 . S
C619 C278 2.108 . S
C628 C84 1.434 . S
C630 C273 1.486 . S
C641 C287 1.393 . S
C639 C119 1.393 . S
C652 C264 1.335 . S
C650 C129 1.320 . S
C661 C22 1.427 . S
C663 C280 1.484 . S
C674 C279 1.392 . S
C672 C58 1.392 . S
C683 C72 1.312 . S
C685 C283 1.334 . S
C694 C18 2.096 . S
C696 C286 2.103 . S
C705 C144 1.542 . S
C707 C312 1.708 . S
C718 C328 0.965 . S
C716 C89 0.949 . S
C727 C104 1.424 . S
C729 C310 1.520 . S
C738 C139 1.409 . S
C740 C343 1.406 . S
C751 C319 1.406 . S
C749 C38 1.395 . S
C760 C52 1.309 . S
C762 C337 1.323 . S
C773 C315 1.252 . S
C771 C62 1.196 . S
C784 C350 1.271 . S
C782 C12 1.237 . S
C795 C342 1.267 . S
C793 C149 1.251 . S
C804 C32 0.958 . S
C806 C347 0.965 . S
C815 C42 1.423 . S
C817 C318 1.523 . S
C828 C351 1.407 . S
C826 C78 1.407 . S
C837 C2 1.542 . S
C839 C305 1.704 . S
C848 C109 1.303 . S
C850 C344 1.329 . S
C861 C296 1.256 . S
C859 C124 1.205 . S
C872 C311 1.410 . S
C870 C99 1.399 . S
