# Generated by pormake.
# Topology hwx, (6,3)-cn, num edge types: 1
# Building blocks:
#     Node 0, Type 0, BuildingBlock: OJICUG_clean_sbu_0, # of connection points: 6
#     Node 1, Type 0, BuildingBlock: OJICUG_clean_sbu_0, # of connection points: 6
#     Node 2, Type 0, BuildingBlock: OJICUG_clean_sbu_0, # of connection points: 6
#     Node 3, Type 0, BuildingBlock: OJICUG_clean_sbu_0, # of connection points: 6
#     Node 4, Type 1, BuildingBlock: WUSLED_clean_sbu_0, # of connection points: 3
#     Node 5, Type 1, BuildingBlock: WUSLED_clean_sbu_0, # of connection points: 3
#     Node 6, Type 1, BuildingBlock: WUSLED_clean_sbu_0, # of connection points: 3
#     Node 7, Type 1, BuildingBlock: WUSLED_clean_sbu_0, # of connection points: 3
#     Node 8, Type 1, BuildingBlock: WUSLED_clean_sbu_0, # of connection points: 3
#     Node 9, Type 1, BuildingBlock: WUSLED_clean_sbu_0, # of connection points: 3
#     Node 10, Type 1, BuildingBlock: WUSLED_clean_sbu_0, # of connection points: 3
#     Node 11, Type 1, BuildingBlock: WUSLED_clean_sbu_0, # of connection points: 3
#     Edge 12, Type (0, 1), BuildingBlock: MIFKUJ_clean_linker_0, # of connection points: 2
#     Edge 13, Type (0, 1), BuildingBlock: MIFKUJ_clean_linker_0, # of connection points: 2
#     Edge 14, Type (0, 1), BuildingBlock: MIFKUJ_clean_linker_0, # of connection points: 2
#     Edge 15, Type (0, 1), BuildingBlock: MIFKUJ_clean_linker_0, # of connection points: 2
#     Edge 16, Type (0, 1), BuildingBlock: MIFKUJ_clean_linker_0, # of connection points: 2
#     Edge 17, Type (0, 1), BuildingBlock: MIFKUJ_clean_linker_0, # of connection points: 2
#     Edge 18, Type (0, 1), BuildingBlock: MIFKUJ_clean_linker_0, # of connection points: 2
#     Edge 19, Type (0, 1), BuildingBlock: MIFKUJ_clean_linker_0, # of connection points: 2
#     Edge 20, Type (0, 1), BuildingBlock: MIFKUJ_clean_linker_0, # of connection points: 2
#     Edge 21, Type (0, 1), BuildingBlock: MIFKUJ_clean_linker_0, # of connection points: 2
#     Edge 22, Type (0, 1), BuildingBlock: MIFKUJ_clean_linker_0, # of connection points: 2
#     Edge 23, Type (0, 1), BuildingBlock: MIFKUJ_clean_linker_0, # of connection points: 2
#     Edge 24, Type (0, 1), BuildingBlock: MIFKUJ_clean_linker_0, # of connection points: 2
#     Edge 25, Type (0, 1), BuildingBlock: MIFKUJ_clean_linker_0, # of connection points: 2
#     Edge 26, Type (0, 1), BuildingBlock: MIFKUJ_clean_linker_0, # of connection points: 2
#     Edge 27, Type (0, 1), BuildingBlock: MIFKUJ_clean_linker_0, # of connection points: 2
#     Edge 28, Type (0, 1), BuildingBlock: MIFKUJ_clean_linker_0, # of connection points: 2
#     Edge 29, Type (0, 1), BuildingBlock: MIFKUJ_clean_linker_0, # of connection points: 2
#     Edge 30, Type (0, 1), BuildingBlock: MIFKUJ_clean_linker_0, # of connection points: 2
#     Edge 31, Type (0, 1), BuildingBlock: MIFKUJ_clean_linker_0, # of connection points: 2
#     Edge 32, Type (0, 1), BuildingBlock: MIFKUJ_clean_linker_0, # of connection points: 2
#     Edge 33, Type (0, 1), BuildingBlock: MIFKUJ_clean_linker_0, # of connection points: 2
#     Edge 34, Type (0, 1), BuildingBlock: MIFKUJ_clean_linker_0, # of connection points: 2
#     Edge 35, Type (0, 1), BuildingBlock: MIFKUJ_clean_linker_0, # of connection points: 2
# Relax obj value: 0.072
# Max RMSD: 0.099
# Mean RMSD: 0.090
data_MOF--net-hwx--node1-OJICUG_clean_sbu_0--node2-WUSLED_clean_sbu_0--edge1-MIFKUJ_clean_linker_0
_symmetry_space_group_name_H-M    P1
_symmetry_Int_Tables_number       1
_symmetry_cell_setting            triclinic
loop_
_symmetry_equiv_pos_as_xyz
'x, y, z'
_cell_length_a     79.830301
_cell_length_b     79.804106
_cell_length_c     35.861335
_cell_angle_alpha  90.422383
_cell_angle_beta   90.409783
_cell_angle_gamma 90.010432
loop_
_atom_site_label
_atom_site_type_symbol
_atom_site_fract_x
_atom_site_fract_y
_atom_site_fract_z
_atom_type_partial_charge
Sc0 Sc 0.23121 0.22958 0.05506 0.0
Sc1 Sc 0.20286 0.20491 0.00203 0.0
Sc2 Sc 0.23159 0.23135 0.95695 0.0
O3 O 0.22188 0.22193 0.00472 0.0
C4 C 0.22988 0.26386 0.00882 0.0
C5 C 0.19183 0.22767 0.0714 0.0
C6 C 0.19261 0.22914 0.9355 0.0
C7 C 0.22518 0.19049 0.06891 0.0
C8 C 0.2647 0.22774 0.00737 0.0
C9 C 0.2269 0.19277 0.93572 0.0
O10 O 0.23104 0.25575 0.03921 0.0
O11 O 0.18862 0.21753 0.04474 0.0
O12 O 0.20747 0.23433 0.93057 0.0
O13 O 0.23247 0.20431 0.0763 0.0
O14 O 0.25719 0.22975 0.97637 0.0
O15 O 0.2151 0.19038 0.95885 0.0
O16 O 0.25695 0.22682 0.03814 0.0
O17 O 0.21433 0.18886 0.04299 0.0
O18 O 0.23441 0.20676 0.93265 0.0
O19 O 0.20653 0.23314 0.07824 0.0
O20 O 0.22943 0.25677 0.97694 0.0
O21 O 0.18884 0.2189 0.96108 0.0
Sc22 Sc 0.2722 0.73161 0.45512 0.0
Sc23 Sc 0.29951 0.70478 0.50441 0.0
Sc24 Sc 0.27153 0.73093 0.55341 0.0
O25 O 0.28107 0.72243 0.50429 0.0
C26 C 0.27358 0.76469 0.50617 0.0
C27 C 0.31121 0.72835 0.43758 0.0
C28 C 0.31074 0.72795 0.57279 0.0
C29 C 0.27666 0.69252 0.43622 0.0
C30 C 0.23848 0.72891 0.50233 0.0
C31 C 0.27611 0.6921 0.57078 0.0
O32 O 0.27292 0.75727 0.47466 0.0
O33 O 0.31377 0.71711 0.4619 0.0
O34 O 0.29599 0.73328 0.57908 0.0
O35 O 0.27049 0.70695 0.43001 0.0
O36 O 0.24593 0.72965 0.53378 0.0
O37 O 0.28769 0.69007 0.547 0.0
O38 O 0.24633 0.72912 0.47157 0.0
O39 O 0.28695 0.68969 0.46271 0.0
O40 O 0.26849 0.70596 0.57533 0.0
O41 O 0.29702 0.73527 0.43269 0.0
O42 O 0.27352 0.75683 0.53693 0.0
O43 O 0.31411 0.71801 0.54598 0.0
Sc44 Sc 0.77071 0.77377 0.9513 0.0
Sc45 Sc 0.7977 0.80044 0.00258 0.0
Sc46 Sc 0.7698 0.77386 0.04949 0.0
O47 O 0.77943 0.78269 1.0011 0.0
C48 C 0.73696 0.77558 0.99747 0.0
C49 C 0.77535 0.81288 0.9341 0.0
C50 C 0.77312 0.81269 0.06795 0.0
C51 C 0.80988 0.77673 0.93541 0.0
C52 C 0.77257 0.7405 1.00123 0.0
C53 C 0.80861 0.77827 0.07167 0.0
O54 O 0.74485 0.77687 0.96698 0.0
O55 O 0.78523 0.81566 0.96144 0.0
O56 O 0.76552 0.79875 0.07109 0.0
O57 O 0.79564 0.76992 0.9298 0.0
O58 O 0.77343 0.74818 0.0324 0.0
O59 O 0.81233 0.7874 0.04404 0.0
O60 O 0.7708 0.74803 0.97023 0.0
O61 O 0.8123 0.78803 0.96009 0.0
O62 O 0.79382 0.77303 0.07745 0.0
O63 O 0.76951 0.79838 0.92665 0.0
O64 O 0.74431 0.77362 0.02871 0.0
O65 O 0.7852 0.81484 0.04546 0.0
Sc66 Sc 0.73095 0.27222 0.55326 0.0
Sc67 Sc 0.70346 0.29875 0.50358 0.0
Sc68 Sc 0.73278 0.27389 0.45514 0.0
O69 O 0.7224 0.28163 0.50401 0.0
C70 C 0.76513 0.27598 0.50807 0.0
C71 C 0.72543 0.31087 0.57385 0.0
C72 C 0.72756 0.31288 0.43987 0.0
C73 C 0.69156 0.2743 0.5685 0.0
C74 C 0.73052 0.23964 0.50086 0.0
C75 C 0.69394 0.27623 0.43271 0.0
O76 O 0.75698 0.27487 0.53829 0.0
O77 O 0.71497 0.31363 0.54759 0.0
O78 O 0.73533 0.29915 0.43461 0.0
O79 O 0.70609 0.26842 0.57496 0.0
O80 O 0.73118 0.24774 0.47042 0.0
O81 O 0.68985 0.2858 0.45969 0.0
O82 O 0.73047 0.24679 0.53269 0.0
O83 O 0.68872 0.28514 0.54344 0.0
O84 O 0.70887 0.27123 0.42762 0.0
O85 O 0.73219 0.29663 0.57899 0.0
O86 O 0.75806 0.27582 0.47621 0.0
O87 O 0.71576 0.31443 0.46334 0.0
C88 C 0.2474 0.53472 0.88953 0.0
C89 C 0.25964 0.54733 0.89249 0.0
C90 C 0.25029 0.5593 0.83367 0.0
C91 C 0.26114 0.55942 0.86471 0.0
C92 C 0.23798 0.54673 0.83086 0.0
C93 C 0.23661 0.53451 0.85849 0.0
U94 U 0.24599 0.52415 0.99217 0.0
O95 O 0.22959 0.50729 0.0238 0.0
O96 O 0.25681 0.50339 0.02421 0.0
C97 C 0.2421 0.49769 0.0344 0.0
C98 C 0.24537 0.52215 0.91919 0.0
C99 C 0.23961 0.47954 0.02976 0.0
C100 C 0.23896 0.4543 0.99139 0.0
C101 C 0.24061 0.47174 0.99465 0.0
C102 C 0.23508 0.45242 0.05818 0.0
C103 C 0.23634 0.44442 0.02321 0.0
C104 C 0.23672 0.4698 0.06138 0.0
C105 C 0.25232 0.56093 0.06141 0.0
C106 C 0.23998 0.56957 0.12041 0.0
C107 C 0.26877 0.57672 0.10696 0.0
C108 C 0.26741 0.56861 0.07241 0.0
C109 C 0.25501 0.57748 0.13115 0.0
C110 C 0.23864 0.56135 0.08592 0.0
C111 C 0.25087 0.5536 0.02349 0.0
O112 O 0.25882 0.51893 0.93933 0.0
O113 O 0.23175 0.52374 0.93928 0.0
O114 O 0.23602 0.54807 0.01307 0.0
O115 O 0.26318 0.54374 0.01296 0.0
H116 H 0.26798 0.54796 0.91642 0.0
H117 H 0.27059 0.56908 0.86788 0.0
H118 H 0.22951 0.54627 0.80713 0.0
H119 H 0.22703 0.52495 0.85575 0.0
H120 H 0.24013 0.44854 0.9641 0.0
H121 H 0.24288 0.4791 0.96993 0.0
H122 H 0.23278 0.44525 0.08315 0.0
H123 H 0.23587 0.47563 0.08868 0.0
H124 H 0.22921 0.56982 0.13861 0.0
H125 H 0.28046 0.58288 0.11421 0.0
H126 H 0.27808 0.56863 0.0539 0.0
H127 H 0.22681 0.55557 0.07832 0.0
C128 C 0.9668 0.74463 0.61575 0.0
C129 C 0.94995 0.74711 0.60592 0.0
C130 C 0.94208 0.74706 0.67146 0.0
C131 C 0.93771 0.74833 0.63349 0.0
C132 C 0.95902 0.74445 0.6811 0.0
C133 C 0.97127 0.74325 0.65344 0.0
U134 U 0.97778 0.74397 0.51362 0.0
O135 O 0.99775 0.75666 0.48254 0.0
O136 O 0.99606 0.7292 0.48173 0.0
C137 C 0.00475 0.74248 0.47222 0.0
C138 C 0.97969 0.74366 0.58669 0.0
C139 C 0.02301 0.74142 0.47787 0.0
C140 C 0.04742 0.73418 0.51543 0.0
C141 C 0.02999 0.73532 0.51116 0.0
C142 C 0.05101 0.74545 0.45346 0.0
C143 C 0.05814 0.73925 0.4866 0.0
C144 C 0.03363 0.7465 0.44917 0.0
C145 C 0.94005 0.74673 0.44531 0.0
C146 C 0.93719 0.75891 0.38356 0.0
C147 C 0.91658 0.73902 0.40524 0.0
C148 C 0.92541 0.73743 0.43877 0.0
C149 C 0.92215 0.75005 0.37751 0.0
C150 C 0.94608 0.75726 0.41718 0.0
C151 C 0.94797 0.74599 0.48256 0.0
O152 O 0.97938 0.72995 0.56618 0.0
O153 O 0.98143 0.75734 0.5669 0.0
O154 O 0.95672 0.75916 0.49329 0.0
O155 O 0.95498 0.73168 0.49166 0.0
H156 H 0.94629 0.74824 0.57689 0.0
H157 H 0.92486 0.75059 0.62504 0.0
H158 H 0.9628 0.74321 0.71001 0.0
H159 H 0.98422 0.74128 0.6615 0.0
H160 H 0.0525 0.72952 0.54144 0.0
H161 H 0.02197 0.73141 0.53375 0.0
H162 H 0.05888 0.74925 0.43053 0.0
H163 H 0.02847 0.75121 0.42326 0.0
H164 H 0.94178 0.76758 0.36291 0.0
H165 H 0.90524 0.73176 0.40124 0.0
H166 H 0.92058 0.7292 0.46004 0.0
H167 H 0.95738 0.76455 0.4215 0.0
C168 C 0.75688 0.46982 0.12016 0.0
C169 C 0.74238 0.45988 0.12263 0.0
C170 C 0.75378 0.44565 0.17703 0.0
C171 C 0.74083 0.44799 0.15082 0.0
C172 C 0.76828 0.45558 0.17458 0.0
C173 C 0.76977 0.4676 0.14655 0.0
U174 U 0.75915 0.48022 0.01701 0.0
O175 O 0.74796 0.50064 0.98441 0.0
O176 O 0.77529 0.49764 0.98631 0.0
C177 C 0.76258 0.50686 0.97514 0.0
C178 C 0.75888 0.48225 0.09002 0.0
C179 C 0.76444 0.52505 0.98035 0.0
C180 C 0.76558 0.54988 0.02001 0.0
C181 C 0.76432 0.53244 0.01598 0.0
C182 C 0.76725 0.55261 0.95289 0.0
C183 C 0.76692 0.56018 0.98844 0.0
C184 C 0.76601 0.53522 0.94893 0.0
C185 C 0.7549 0.44294 0.94797 0.0
C186 C 0.7406 0.43799 0.88867 0.0
C187 C 0.76539 0.42199 0.90441 0.0
C188 C 0.76669 0.43065 0.93831 0.0
C189 C 0.75213 0.4253 0.87948 0.0
C190 C 0.74196 0.44672 0.92256 0.0
C191 C 0.75567 0.45058 0.98566 0.0
O192 O 0.77278 0.48106 0.0707 0.0
O193 O 0.74559 0.48509 0.0691 0.0
O194 O 0.74294 0.45999 0.9958 0.0
O195 O 0.77025 0.45671 0.99621 0.0
H196 H 0.73223 0.46116 0.10265 0.0
H197 H 0.7296 0.44039 0.15169 0.0
H198 H 0.77841 0.45415 0.19456 0.0
H199 H 0.78105 0.47512 0.14534 0.0
H200 H 0.76515 0.55531 0.04775 0.0
H201 H 0.76308 0.52473 0.04057 0.0
H202 H 0.76854 0.56012 0.92805 0.0
H203 H 0.76618 0.52972 0.92122 0.0
H204 H 0.73015 0.44076 0.87032 0.0
H205 H 0.77467 0.41253 0.89798 0.0
H206 H 0.77676 0.42747 0.95741 0.0
H207 H 0.73262 0.4561 0.9292 0.0
C208 C 0.03631 0.26345 0.39262 0.0
C209 C 0.05321 0.26143 0.40253 0.0
C210 C 0.06092 0.25999 0.33695 0.0
C211 C 0.0654 0.2597 0.37498 0.0
C212 C 0.04392 0.26203 0.32721 0.0
C213 C 0.03172 0.26376 0.35485 0.0
U214 U 0.02574 0.26627 0.49472 0.0
O215 O 0.00794 0.28217 0.52547 0.0
O216 O 0.0057 0.25477 0.52758 0.0
C217 C 0.99911 0.2693 0.53684 0.0
C218 C 0.02353 0.26516 0.42172 0.0
C219 C 0.98086 0.27072 0.5321 0.0
C220 C 0.95552 0.26831 0.49446 0.0
C221 C 0.97299 0.26725 0.49781 0.0
C222 C 0.95374 0.27656 0.55947 0.0
C223 C 0.94567 0.27288 0.52536 0.0
C224 C 0.97115 0.27547 0.56276 0.0
C225 C 0.06303 0.26427 0.56374 0.0
C226 C 0.06706 0.25163 0.62474 0.0
C227 C 0.08399 0.27538 0.6068 0.0
C228 C 0.07563 0.27593 0.57246 0.0
C229 C 0.08003 0.26304 0.63313 0.0
C230 C 0.05863 0.25225 0.59042 0.0
C231 C 0.05551 0.2643 0.52595 0.0
O232 O 0.02163 0.25192 0.44286 0.0
O233 O 0.02413 0.27926 0.44089 0.0
O234 O 0.04885 0.27852 0.515 0.0
O235 O 0.04659 0.2511 0.51617 0.0
H236 H 0.05696 0.26111 0.43162 0.0
H237 H 0.07831 0.25788 0.38352 0.0
H238 H 0.04007 0.26249 0.29822 0.0
H239 H 0.01873 0.26535 0.34674 0.0
H240 H 0.94971 0.26525 0.46789 0.0
H241 H 0.98032 0.26357 0.4738 0.0
H242 H 0.94661 0.28041 0.58364 0.0
H243 H 0.97704 0.27829 0.5894 0.0
H244 H 0.06379 0.24185 0.64414 0.0
H245 H 0.09369 0.28455 0.61255 0.0
H246 H 0.07925 0.28531 0.55236 0.0
H247 H 0.04895 0.24307 0.58453 0.0
C248 C 0.74351 0.9698 0.61437 0.0
C249 C 0.74642 0.95301 0.60464 0.0
C250 C 0.74621 0.94515 0.67013 0.0
C251 C 0.74777 0.9408 0.63221 0.0
C252 C 0.74328 0.96204 0.67974 0.0
C253 C 0.74193 0.97427 0.65204 0.0
U254 U 0.74445 0.97984 0.51236 0.0
O255 O 0.72919 0.99654 0.4774 0.0
O256 O 0.7564 1.00022 0.48123 0.0
C257 C 0.74203 0.00604 0.46877 0.0
C258 C 0.7423 0.98255 0.58509 0.0
C259 C 0.73956 0.02421 0.47319 0.0
C260 C 0.73126 0.04851 0.50995 0.0
C261 C 0.73345 0.03115 0.50649 0.0
C262 C 0.7414 0.05212 0.44701 0.0
C263 C 0.7352 0.05923 0.48021 0.0
C264 C 0.74353 0.0348 0.44357 0.0
C265 C 0.75178 0.94159 0.44786 0.0
C266 C 0.74849 0.94068 0.38044 0.0
C267 C 0.76108 0.91724 0.41281 0.0
C268 C 0.7591 0.92566 0.44673 0.0
C269 C 0.75577 0.92461 0.37924 0.0
C270 C 0.74655 0.94914 0.41453 0.0
C271 C 0.74953 0.94979 0.48429 0.0
O272 O 0.75625 0.98516 0.56678 0.0
O273 O 0.72913 0.98115 0.56308 0.0
O274 O 0.73455 0.95589 0.49102 0.0
O275 O 0.76173 0.95975 0.49531 0.0
H276 H 0.74775 0.94935 0.57565 0.0
H277 H 0.7503 0.92799 0.62381 0.0
H278 H 0.74186 0.96578 0.70864 0.0
H279 H 0.73966 0.98718 0.66001 0.0
H280 H 0.72631 0.05351 0.53577 0.0
H281 H 0.73035 0.02315 0.52972 0.0
H282 H 0.74488 0.05997 0.4238 0.0
H283 H 0.74837 0.02966 0.41775 0.0
H284 H 0.74441 0.94675 0.35503 0.0
H285 H 0.76648 0.90479 0.41298 0.0
H286 H 0.76315 0.91963 0.47224 0.0
H287 H 0.74092 0.96149 0.41491 0.0
C288 C 0.53547 0.24036 0.88792 0.0
C289 C 0.54996 0.23036 0.88867 0.0
C290 C 0.55987 0.24321 0.8314 0.0
C291 C 0.56196 0.2317 0.86062 0.0
C292 C 0.54529 0.25314 0.83069 0.0
C293 C 0.53321 0.25168 0.85859 0.0
U294 U 0.52535 0.23947 0.9911 0.0
O295 O 0.50578 0.25237 0.02343 0.0
O296 O 0.50709 0.22489 0.02299 0.0
C297 C 0.4987 0.23826 0.03356 0.0
C298 C 0.523 0.23964 0.91814 0.0
C299 C 0.48041 0.23734 0.02882 0.0
C300 C 0.45558 0.23204 0.99086 0.0
C301 C 0.47303 0.2334 0.99421 0.0
C302 C 0.45278 0.23879 0.0565 0.0
C303 C 0.44524 0.2346 0.02208 0.0
C304 C 0.47018 0.24012 0.0598 0.0
C305 C 0.56313 0.24105 0.05905 0.0
C306 C 0.56653 0.25339 0.12092 0.0
C307 C 0.58578 0.23194 0.09976 0.0
C308 C 0.57704 0.23078 0.06595 0.0
C309 C 0.58087 0.24352 0.12737 0.0
C310 C 0.55773 0.25215 0.0871 0.0
C311 C 0.55531 0.24067 0.02162 0.0
O312 O 0.52277 0.22581 0.93788 0.0
O313 O 0.52182 0.2533 0.93867 0.0
O314 O 0.54687 0.25407 0.01162 0.0
O315 O 0.548 0.22657 0.01162 0.0
H316 H 0.55211 0.22157 0.91108 0.0
H317 H 0.57286 0.22365 0.86187 0.0
H318 H 0.54334 0.26234 0.80904 0.0
H319 H 0.5222 0.25961 0.85759 0.0
H320 H 0.45021 0.22867 0.96402 0.0
H321 H 0.48077 0.23121 0.96996 0.0
H322 H 0.44523 0.24116 0.08094 0.0
H323 H 0.47567 0.24325 0.08669 0.0
H324 H 0.56247 0.26253 0.14142 0.0
H325 H 0.59655 0.22392 0.10403 0.0
H326 H 0.58139 0.22209 0.04478 0.0
H327 H 0.54699 0.2602 0.08255 0.0
C328 C 0.25374 0.03455 0.39141 0.0
C329 C 0.24099 0.04669 0.3925 0.0
C330 C 0.25029 0.05808 0.33333 0.0
C331 C 0.23923 0.05826 0.36366 0.0
C332 C 0.26313 0.04603 0.3324 0.0
C333 C 0.26477 0.03432 0.3611 0.0
U334 U 0.25708 0.025 0.4948 0.0
O335 O 0.24595 0.00492 0.52838 0.0
O336 O 0.2733 0.00767 0.52589 0.0
C337 C 0.26061 0.99856 0.5373 0.0
C338 C 0.2559 0.02234 0.4219 0.0
C339 C 0.26221 0.98029 0.53238 0.0
C340 C 0.27088 0.9558 0.49664 0.0
C341 C 0.26926 0.97323 0.50014 0.0
C342 C 0.25812 0.95237 0.55719 0.0
C343 C 0.26539 0.94515 0.52523 0.0
C344 C 0.25659 0.96975 0.56071 0.0
C345 C 0.25445 0.06281 0.56196 0.0
C346 C 0.25068 0.06151 0.62912 0.0
C347 C 0.25754 0.08791 0.59996 0.0
C348 C 0.25778 0.07998 0.56515 0.0
C349 C 0.25396 0.0788 0.63239 0.0
C350 C 0.25098 0.05355 0.59415 0.0
C351 C 0.25449 0.05502 0.52469 0.0
O352 O 0.27004 0.0235 0.44077 0.0
O353 O 0.24281 0.01998 0.44331 0.0
O354 O 0.24149 0.04559 0.51616 0.0
O355 O 0.26882 0.04851 0.51407 0.0
H356 H 0.23241 0.04734 0.41572 0.0
H357 H 0.22937 0.06756 0.36543 0.0
H358 H 0.27177 0.04554 0.30928 0.0
H359 H 0.27472 0.02511 0.3597 0.0
H360 H 0.27667 0.95071 0.4718 0.0
H361 H 0.27362 0.98117 0.47783 0.0
H362 H 0.25345 0.94458 0.57943 0.0
H363 H 0.25101 0.97497 0.58567 0.0
H364 H 0.24798 0.05414 0.65359 0.0
H365 H 0.25983 0.10128 0.60135 0.0
H366 H 0.26043 0.08732 0.54058 0.0
H367 H 0.24845 0.04023 0.59219 0.0
C368 C 0.46769 0.76013 0.11868 0.0
C369 C 0.45603 0.74692 0.11783 0.0
C370 C 0.44354 0.75706 0.17548 0.0
C371 C 0.44416 0.74535 0.14605 0.0
C372 C 0.45517 0.7703 0.17626 0.0
C373 C 0.46718 0.77177 0.1482 0.0
U374 U 0.47714 0.76248 0.01554 0.0
O375 O 0.49387 0.77891 0.98373 0.0
O376 O 0.49735 0.75164 0.98172 0.0
C377 C 0.50322 0.76637 0.97217 0.0
C378 C 0.47998 0.76227 0.08839 0.0
C379 C 0.52141 0.76856 0.9768 0.0
C380 C 0.54636 0.77057 0.01586 0.0
C381 C 0.52895 0.76886 0.01226 0.0
C382 C 0.54878 0.77178 0.94862 0.0
C383 C 0.5565 0.77201 0.98404 0.0
C384 C 0.53141 0.77007 0.94509 0.0
C385 C 0.43891 0.75771 0.94998 0.0
C386 C 0.44003 0.75667 0.88229 0.0
C387 C 0.41323 0.75618 0.91357 0.0
C388 C 0.42141 0.75703 0.94805 0.0
C389 C 0.42241 0.75602 0.88023 0.0
C390 C 0.44823 0.75754 0.91695 0.0
C391 C 0.44703 0.75853 0.98681 0.0
O392 O 0.48279 0.74901 0.06736 0.0
O393 O 0.47845 0.77615 0.06913 0.0
O394 O 0.4532 0.7732 0.99655 0.0
O395 O 0.45695 0.74596 0.99522 0.0
H396 H 0.45594 0.73786 0.09519 0.0
H397 H 0.43522 0.73515 0.14443 0.0
H398 H 0.45505 0.77945 0.19872 0.0
H399 H 0.476 0.78208 0.14938 0.0
H400 H 0.55186 0.77087 0.04354 0.0
H401 H 0.52138 0.76772 0.03707 0.0
H402 H 0.55619 0.77259 0.92352 0.0
H403 H 0.5258 0.76978 0.91749 0.0
H404 H 0.44746 0.75668 0.85713 0.0
H405 H 0.39968 0.7554 0.91306 0.0
H406 H 0.41404 0.75708 0.97332 0.0
H407 H 0.46178 0.7581 0.91801 0.0
H408 H 0.15881 0.21822 0.06757 0.0
H409 H 0.13644 0.22528 0.11094 0.0
H410 H 0.17079 0.25576 0.1754 0.0
H411 H 0.19335 0.24859 0.13247 0.0
H412 H 0.15307 0.23572 0.2196 0.0
H413 H 0.14055 0.27352 0.12011 0.0
H414 H 0.13491 0.28166 0.05503 0.0
H415 H 0.09148 0.2499 0.05214 0.0
H416 H 0.097 0.24138 0.11707 0.0
H417 H 0.09238 0.27372 0.33581 0.0
H418 H 0.11421 0.26944 0.28931 0.0
H419 H 0.0809 0.23769 0.22522 0.0
H420 H 0.05901 0.24178 0.27183 0.0
H421 H 0.0981 0.25901 0.18064 0.0
H422 H 0.11106 0.22065 0.27921 0.0
H423 H 0.11674 0.21226 0.34413 0.0
H424 H 0.15945 0.24496 0.34841 0.0
H425 H 0.15388 0.25372 0.28365 0.0
C426 C 0.16163 0.22653 0.09078 0.0
C427 C 0.17795 0.23281 0.09645 0.0
C428 C 0.14877 0.23062 0.11551 0.0
C429 C 0.15189 0.24117 0.14629 0.0
C430 C 0.16809 0.2476 0.15184 0.0
C431 C 0.18097 0.24351 0.12715 0.0
C432 C 0.13841 0.24496 0.17349 0.0
C433 C 0.14116 0.24107 0.21115 0.0
C434 C 0.12269 0.25153 0.16235 0.0
C435 C 0.11928 0.2567 0.12336 0.0
C436 C 0.12987 0.26817 0.10551 0.0
C437 C 0.12668 0.27287 0.06866 0.0
C438 C 0.11287 0.26627 0.04943 0.0
C439 C 0.10219 0.25499 0.06705 0.0
C440 C 0.10533 0.25023 0.10389 0.0
C441 C 0.08971 0.26574 0.31196 0.0
C442 C 0.07396 0.25799 0.30774 0.0
C443 C 0.10219 0.26334 0.28533 0.0
C444 C 0.09926 0.25307 0.254 0.0
C445 C 0.08343 0.24567 0.24916 0.0
C446 C 0.07092 0.24806 0.2758 0.0
C447 C 0.11281 0.24981 0.2267 0.0
C448 C 0.11006 0.25374 0.18906 0.0
C449 C 0.12854 0.24326 0.23781 0.0
C450 C 0.13195 0.23797 0.27672 0.0
C451 C 0.12159 0.22615 0.2941 0.0
C452 C 0.1248 0.22131 0.33085 0.0
C453 C 0.13842 0.22811 0.35042 0.0
C454 C 0.14888 0.23973 0.33324 0.0
C455 C 0.14572 0.24463 0.2965 0.0
H456 H 0.14089 0.22434 0.37886 0.0
H457 H 0.11043 0.26992 0.0209 0.0
H458 H 0.24645 0.68574 0.60614 0.0
H459 H 0.24017 0.66253 0.64806 0.0
H460 H 0.29052 0.64379 0.6346 0.0
H461 H 0.29651 0.66637 0.59129 0.0
H462 H 0.27113 0.6188 0.63497 0.0
H463 H 0.27629 0.6673 0.71452 0.0
H464 H 0.2699 0.69591 0.73669 0.0
H465 H 0.21873 0.68176 0.7551 0.0
H466 H 0.22478 0.65311 0.7326 0.0
H467 H 0.27877 0.57049 0.80024 0.0
H468 H 0.28132 0.5925 0.7534 0.0
H469 H 0.22779 0.59971 0.75467 0.0
H470 H 0.22516 0.57769 0.80167 0.0
H471 H 0.24666 0.62988 0.7595 0.0
H472 H 0.2437 0.57992 0.68352 0.0
H473 H 0.25209 0.55142 0.66427 0.0
H474 H 0.30195 0.56885 0.64268 0.0
H475 H 0.29393 0.59741 0.66232 0.0
C476 C 0.25613 0.67661 0.61204 0.0
C477 C 0.27197 0.67789 0.59544 0.0
C478 C 0.25258 0.66339 0.63621 0.0
C479 C 0.26496 0.65151 0.64517 0.0
C480 C 0.28071 0.65272 0.62819 0.0
C481 C 0.28414 0.66568 0.60342 0.0
C482 C 0.26167 0.63783 0.67228 0.0
C483 C 0.26594 0.62131 0.66232 0.0
C484 C 0.2546 0.64093 0.70784 0.0
C485 C 0.25095 0.65812 0.72151 0.0
C486 C 0.26365 0.67032 0.72306 0.0
C487 C 0.26009 0.68654 0.73572 0.0
C488 C 0.24391 0.69066 0.74719 0.0
C489 C 0.23126 0.67856 0.74614 0.0
C490 C 0.23474 0.66233 0.73347 0.0
C491 C 0.26755 0.57679 0.79057 0.0
C492 C 0.25176 0.57236 0.80457 0.0
C493 C 0.26901 0.58928 0.76369 0.0
C494 C 0.25473 0.59766 0.75044 0.0
C495 C 0.23895 0.59336 0.7645 0.0
C496 C 0.23746 0.58072 0.79111 0.0
C497 C 0.25636 0.61106 0.72222 0.0
C498 C 0.25176 0.62746 0.73202 0.0
C499 C 0.26344 0.60792 0.68683 0.0
C500 C 0.26824 0.59078 0.67468 0.0
C501 C 0.25649 0.57765 0.67493 0.0
C502 C 0.26117 0.56149 0.6639 0.0
C503 C 0.27755 0.55832 0.65233 0.0
C504 C 0.28927 0.57132 0.65167 0.0
C505 C 0.28466 0.5875 0.66271 0.0
H506 H 0.28115 0.5458 0.64382 0.0
H507 H 0.24117 0.70322 0.75697 0.0
H508 H 0.80412 0.76921 0.1441 0.0
H509 H 0.8255 0.76531 0.19224 0.0
H510 H 0.8642 0.7752 0.1121 0.0
H511 H 0.84279 0.77941 0.06355 0.0
H512 H 0.87041 0.74676 0.15976 0.0
H513 H 0.85675 0.80471 0.16773 0.0
H514 H 0.83916 0.82999 0.17274 0.0
H515 H 0.82007 0.81296 0.27746 0.0
H516 H 0.83734 0.7874 0.27279 0.0
H517 H 0.93269 0.7538 0.3051 0.0
H518 H 0.91535 0.75912 0.24975 0.0
H519 H 0.87094 0.75774 0.31749 0.0
H520 H 0.88813 0.75302 0.37284 0.0
H521 H 0.87007 0.78375 0.27157 0.0
H522 H 0.88232 0.72463 0.26072 0.0
H523 H 0.90075 0.6999 0.25639 0.0
H524 H 0.92291 0.71954 0.15709 0.0
H525 H 0.90475 0.7445 0.16113 0.0
C526 C 0.81717 0.7704 0.13649 0.0
C527 C 0.82175 0.77461 0.09992 0.0
C528 C 0.82937 0.76827 0.16414 0.0
C529 C 0.8464 0.7701 0.15576 0.0
C530 C 0.8511 0.77378 0.11909 0.0
C531 C 0.83886 0.77619 0.09145 0.0
C532 C 0.85916 0.76837 0.18572 0.0
C533 C 0.87055 0.755 0.18396 0.0
C534 C 0.85915 0.77901 0.21744 0.0
C535 C 0.84826 0.79406 0.21974 0.0
C536 C 0.84865 0.80624 0.1916 0.0
C537 C 0.83878 0.82066 0.19446 0.0
C538 C 0.82857 0.82312 0.22548 0.0
C539 C 0.82806 0.81107 0.25354 0.0
C540 C 0.83787 0.79661 0.25078 0.0
C541 C 0.91924 0.75472 0.3082 0.0
C542 C 0.9118 0.75287 0.34341 0.0
C543 C 0.90933 0.75761 0.27649 0.0
C544 C 0.89182 0.75867 0.2794 0.0
C545 C 0.88441 0.75693 0.31452 0.0
C546 C 0.89427 0.75405 0.34612 0.0
C547 C 0.88106 0.76186 0.2462 0.0
C548 C 0.87003 0.77555 0.2473 0.0
C549 C 0.88142 0.75152 0.21394 0.0
C550 C 0.89232 0.73652 0.21148 0.0
C551 C 0.89122 0.72374 0.23815 0.0
C552 C 0.9016 0.70967 0.23571 0.0
C553 C 0.91303 0.70818 0.20655 0.0
C554 C 0.91408 0.72073 0.1797 0.0
C555 C 0.90374 0.73483 0.18204 0.0
H556 H 0.92105 0.69727 0.2047 0.0
H557 H 0.82102 0.83433 0.22775 0.0
H558 H 0.7424 0.30826 0.63997 0.0
H559 H 0.74654 0.32982 0.68756 0.0
H560 H 0.72133 0.36588 0.61808 0.0
H561 H 0.71693 0.34426 0.56996 0.0
H562 H 0.7518 0.37791 0.65615 0.0
H563 H 0.69939 0.35115 0.68194 0.0
H564 H 0.68065 0.32698 0.69103 0.0
H565 H 0.71069 0.3109 0.78388 0.0
H566 H 0.72978 0.33483 0.77495 0.0
H567 H 0.74213 0.43548 0.80958 0.0
H568 H 0.73727 0.41793 0.75424 0.0
H569 H 0.75248 0.37426 0.81607 0.0
H570 H 0.75669 0.39152 0.87165 0.0
H571 H 0.72483 0.36789 0.77824 0.0
H572 H 0.77814 0.39303 0.75097 0.0
H573 H 0.79793 0.41631 0.74149 0.0
H574 H 0.76729 0.43485 0.65196 0.0
H575 H 0.74719 0.41178 0.66126 0.0
C576 C 0.73784 0.32079 0.63444 0.0
C577 C 0.7292 0.32446 0.60114 0.0
C578 C 0.74021 0.3331 0.66179 0.0
C579 C 0.7341 0.34937 0.65643 0.0
C580 C 0.7261 0.35336 0.62269 0.0
C581 C 0.72356 0.34097 0.59533 0.0
C582 C 0.73541 0.36184 0.68712 0.0
C583 C 0.74569 0.37594 0.68268 0.0
C584 C 0.72766 0.35903 0.72184 0.0
C585 C 0.7161 0.34471 0.72756 0.0
C586 C 0.70208 0.34239 0.70411 0.0
C587 C 0.69138 0.32874 0.70926 0.0
C588 C 0.6945 0.31739 0.73796 0.0
C589 C 0.7083 0.31969 0.76163 0.0
C590 C 0.71906 0.33331 0.75656 0.0
C591 C 0.74437 0.42212 0.81142 0.0
C592 C 0.74987 0.41494 0.84509 0.0
C593 C 0.74174 0.41213 0.77965 0.0
C594 C 0.74465 0.39478 0.78088 0.0
C595 C 0.75018 0.38762 0.81439 0.0
C596 C 0.75276 0.39755 0.8461 0.0
C597 C 0.74154 0.38389 0.74774 0.0
C598 C 0.73086 0.37004 0.75168 0.0
C599 C 0.74901 0.38691 0.71269 0.0
C600 C 0.76106 0.4008 0.70711 0.0
C601 C 0.77555 0.40215 0.72949 0.0
C602 C 0.78684 0.41529 0.7241 0.0
C603 C 0.78384 0.42708 0.69622 0.0
C604 C 0.76957 0.42573 0.6736 0.0
C605 C 0.75823 0.41262 0.6789 0.0
H606 H 0.7926 0.43724 0.69208 0.0
H607 H 0.6862 0.30683 0.7419 0.0
H608 H 0.65965 0.27788 0.4389 0.0
H609 H 0.63871 0.27155 0.39034 0.0
H610 H 0.67812 0.25795 0.31437 0.0
H611 H 0.69905 0.26396 0.36251 0.0
H612 H 0.65446 0.28159 0.28598 0.0
H613 H 0.65662 0.22805 0.34723 0.0
H614 H 0.65495 0.20923 0.40123 0.0
H615 H 0.60396 0.22419 0.41932 0.0
H616 H 0.60542 0.2433 0.36563 0.0
H617 H 0.61502 0.2438 0.13294 0.0
H618 H 0.63223 0.24874 0.18825 0.0
H619 H 0.58776 0.25454 0.25472 0.0
H620 H 0.57032 0.24895 0.19941 0.0
H621 H 0.61179 0.23646 0.29142 0.0
H622 H 0.60887 0.28867 0.22779 0.0
H623 H 0.61056 0.30777 0.17423 0.0
H624 H 0.66273 0.29613 0.16167 0.0
H625 H 0.66131 0.27675 0.21484 0.0
C626 C 0.66384 0.27341 0.41195 0.0
C627 C 0.68104 0.27145 0.40461 0.0
C628 C 0.65187 0.26977 0.38431 0.0
C629 C 0.65691 0.26432 0.34882 0.0
C630 C 0.674 0.26218 0.34158 0.0
C631 C 0.68594 0.26556 0.36925 0.0
C632 C 0.6445 0.26141 0.31855 0.0
C633 C 0.64521 0.27164 0.28699 0.0
C634 C 0.63214 0.24877 0.32052 0.0
C635 C 0.6312 0.23726 0.35271 0.0
C636 C 0.64511 0.22745 0.36294 0.0
C637 C 0.64419 0.2167 0.39345 0.0
C638 C 0.62937 0.21555 0.4138 0.0
C639 C 0.61544 0.22512 0.40358 0.0
C640 C 0.6163 0.2359 0.3731 0.0
C641 C 0.60884 0.24583 0.15937 0.0
C642 C 0.59125 0.24597 0.16166 0.0
C643 C 0.61872 0.24884 0.19095 0.0
C644 C 0.61129 0.25226 0.22553 0.0
C645 C 0.59376 0.25201 0.22826 0.0
C646 C 0.58382 0.24896 0.19657 0.0
C647 C 0.62196 0.25644 0.2584 0.0
C648 C 0.62092 0.24652 0.29049 0.0
C649 C 0.63401 0.26945 0.25707 0.0
C650 C 0.63494 0.28115 0.22514 0.0
C651 C 0.62068 0.29008 0.21344 0.0
C652 C 0.62159 0.30097 0.18317 0.0
C653 C 0.63673 0.30313 0.16451 0.0
C654 C 0.65101 0.29443 0.17613 0.0
C655 C 0.65016 0.2835 0.20636 0.0
H656 H 0.63741 0.31157 0.14108 0.0
H657 H 0.62868 0.20722 0.43741 0.0
H658 H 0.21136 0.16232 0.92578 0.0
H659 H 0.21772 0.1408 0.87917 0.0
H660 H 0.25944 0.17021 0.84076 0.0
H661 H 0.25304 0.19189 0.88673 0.0
H662 H 0.24046 0.16058 0.78409 0.0
H663 H 0.26503 0.1337 0.8902 0.0
H664 H 0.26571 0.12248 0.95409 0.0
H665 H 0.22646 0.0878 0.92555 0.0
H666 H 0.22536 0.09898 0.86162 0.0
H667 H 0.27546 0.10259 0.65989 0.0
H668 H 0.27235 0.11955 0.71639 0.0
H669 H 0.22784 0.09193 0.74469 0.0
H670 H 0.23079 0.07494 0.68787 0.0
H671 H 0.24816 0.09984 0.80738 0.0
H672 H 0.22311 0.12762 0.70219 0.0
H673 H 0.22256 0.1389 0.63837 0.0
H674 H 0.26312 0.17217 0.66619 0.0
H675 H 0.26408 0.16089 0.73006 0.0
C676 C 0.22201 0.16415 0.90773 0.0
C677 C 0.23161 0.17893 0.90992 0.0
C678 C 0.22567 0.15177 0.88117 0.0
C679 C 0.23911 0.15384 0.85654 0.0
C680 C 0.24898 0.16835 0.85939 0.0
C681 C 0.2453 0.18075 0.88577 0.0
C682 C 0.24222 0.1415 0.82614 0.0
C683 C 0.24241 0.14735 0.78934 0.0
C684 C 0.24429 0.12414 0.83282 0.0
C685 C 0.245 0.1173 0.87119 0.0
C686 C 0.25645 0.12377 0.89761 0.0
C687 C 0.25693 0.11741 0.93383 0.0
C688 C 0.24611 0.10447 0.94389 0.0
C689 C 0.23482 0.09784 0.91772 0.0
C690 C 0.23428 0.10418 0.88148 0.0
C691 C 0.26505 0.10005 0.6782 0.0
C692 C 0.25322 0.08758 0.66907 0.0
C693 C 0.26334 0.1097 0.71058 0.0
C694 C 0.24974 0.10715 0.73444 0.0
C695 C 0.23843 0.09409 0.72663 0.0
C696 C 0.24014 0.0844 0.69416 0.0
C697 C 0.24661 0.11904 0.76564 0.0
C698 C 0.2463 0.1131 0.80238 0.0
C699 C 0.24445 0.13637 0.75906 0.0
C700 C 0.24378 0.14329 0.72079 0.0
C701 C 0.232 0.13725 0.69462 0.0
C702 C 0.2316 0.14366 0.65845 0.0
C703 C 0.24282 0.15621 0.6482 0.0
C704 C 0.25444 0.16243 0.67415 0.0
C705 C 0.25492 0.15604 0.71035 0.0
H706 H 0.2425 0.16116 0.62018 0.0
H707 H 0.2465 0.09956 0.97194 0.0
H708 H 0.33814 0.70917 0.41908 0.0
H709 H 0.3608 0.71597 0.37671 0.0
H710 H 0.33915 0.7648 0.3583 0.0
H711 H 0.31587 0.75768 0.3995 0.0
H712 H 0.34911 0.75328 0.29562 0.0
H713 H 0.37565 0.75796 0.41468 0.0
H714 H 0.38395 0.74926 0.478 0.0
H715 H 0.41042 0.70707 0.43251 0.0
H716 H 0.40208 0.71538 0.36892 0.0
H717 H 0.42345 0.78168 0.20426 0.0
H718 H 0.40143 0.77873 0.25113 0.0
H719 H 0.41245 0.726 0.25977 0.0
H720 H 0.43449 0.72887 0.21308 0.0
H721 H 0.40845 0.74218 0.32926 0.0
H722 H 0.37987 0.7377 0.20991 0.0
H723 H 0.37176 0.74759 0.14734 0.0
H724 H 0.34964 0.79164 0.19572 0.0
H725 H 0.35784 0.78211 0.25857 0.0
C726 C 0.33825 0.72142 0.40626 0.0
C727 C 0.32527 0.73294 0.41289 0.0
C728 C 0.35129 0.72534 0.38212 0.0
C729 C 0.35198 0.74107 0.36486 0.0
C730 C 0.33899 0.75261 0.37137 0.0
C731 C 0.32571 0.74855 0.39498 0.0
C732 C 0.36596 0.74517 0.33915 0.0
C733 C 0.36209 0.75115 0.30335 0.0
C734 C 0.38297 0.74222 0.34882 0.0
C735 C 0.38813 0.73724 0.38703 0.0
C736 C 0.38315 0.74677 0.41818 0.0
C737 C 0.38788 0.74192 0.45413 0.0
C738 C 0.39768 0.7276 0.45928 0.0
C739 C 0.40282 0.71814 0.42848 0.0
C740 C 0.39812 0.72294 0.39247 0.0
C741 C 0.42127 0.7695 0.21643 0.0
C742 C 0.43065 0.75549 0.20493 0.0
C743 C 0.40864 0.76782 0.243 0.0
C744 C 0.40525 0.75212 0.25872 0.0
C745 C 0.41486 0.73821 0.24794 0.0
C746 C 0.42736 0.73985 0.22112 0.0
C747 C 0.3915 0.75006 0.28593 0.0
C748 C 0.39545 0.74447 0.32191 0.0
C749 C 0.37462 0.75361 0.27664 0.0
C750 C 0.36963 0.75928 0.23889 0.0
C751 C 0.3734 0.74956 0.20718 0.0
C752 C 0.36877 0.75509 0.17167 0.0
C753 C 0.36024 0.77026 0.16755 0.0
C754 C 0.35628 0.77991 0.19895 0.0
C755 C 0.3609 0.77445 0.23451 0.0
H756 H 0.35666 0.77452 0.14004 0.0
H757 H 0.40132 0.72386 0.48713 0.0
H758 H 0.75564 0.81206 0.87112 0.0
H759 H 0.74965 0.83498 0.82835 0.0
H760 H 0.77905 0.8686 0.89706 0.0
H761 H 0.78499 0.84581 0.94032 0.0
H762 H 0.75035 0.88345 0.87306 0.0
H763 H 0.79541 0.85222 0.81861 0.0
H764 H 0.80975 0.8269 0.79533 0.0
H765 H 0.77075 0.81932 0.71386 0.0
H766 H 0.75605 0.84448 0.73702 0.0
H767 H 0.76259 0.94739 0.73752 0.0
H768 H 0.76618 0.92544 0.78414 0.0
H769 H 0.73738 0.89132 0.71535 0.0
H770 H 0.73361 0.91322 0.66879 0.0
H771 H 0.7657 0.87685 0.73992 0.0
H772 H 0.72084 0.90855 0.79412 0.0
H773 H 0.70675 0.93398 0.81756 0.0
H774 H 0.74569 0.94092 0.89947 0.0
H775 H 0.76013 0.91564 0.87616 0.0
C776 C 0.76078 0.82433 0.87735 0.0
C777 C 0.77092 0.82701 0.90912 0.0
C778 C 0.75738 0.83742 0.85274 0.0
C779 C 0.76409 0.85345 0.85923 0.0
C780 C 0.77377 0.85632 0.89146 0.0
C781 C 0.7772 0.84323 0.9161 0.0
C782 C 0.76135 0.86711 0.83193 0.0
C783 C 0.75388 0.88209 0.84404 0.0
C784 C 0.76569 0.86523 0.79392 0.0
C785 C 0.77454 0.85013 0.77981 0.0
C786 C 0.78982 0.84508 0.79593 0.0
C787 C 0.79803 0.83077 0.78272 0.0
C788 C 0.79114 0.82148 0.7532 0.0
C789 C 0.77606 0.82651 0.73676 0.0
C790 C 0.76779 0.8408 0.7499 0.0
C791 C 0.75681 0.9353 0.73255 0.0
C792 C 0.74783 0.93207 0.69935 0.0
C793 C 0.7589 0.92274 0.75921 0.0
C794 C 0.75197 0.90675 0.75335 0.0
C795 C 0.74289 0.90354 0.72041 0.0
C796 C 0.7408 0.91607 0.69376 0.0
C797 C 0.7546 0.89319 0.78096 0.0
C798 C 0.76211 0.87821 0.76891 0.0
C799 C 0.75033 0.89511 0.81901 0.0
C800 C 0.74165 0.91029 0.83314 0.0
C801 C 0.72647 0.91557 0.81693 0.0
C802 C 0.71841 0.92995 0.83023 0.0
C803 C 0.72534 0.93908 0.85992 0.0
C804 C 0.74034 0.93384 0.87644 0.0
C805 C 0.74846 0.91948 0.86321 0.0
H806 H 0.71908 0.95021 0.87018 0.0
H807 H 0.79752 0.8104 0.74301 0.0
H808 H 0.80929 0.75624 0.87356 0.0
H809 H 0.83234 0.74992 0.83133 0.0
H810 H 0.86577 0.7797 0.89974 0.0
H811 H 0.84275 0.78636 0.94176 0.0
H812 H 0.86941 0.78735 0.82873 0.0
H813 H 0.86751 0.73628 0.89827 0.0
H814 H 0.85425 0.71126 0.92516 0.0
H815 H 0.84097 0.6937 0.81541 0.0
H816 H 0.85396 0.71874 0.78788 0.0
H817 H 0.94443 0.76359 0.73865 0.0
H818 H 0.9227 0.76709 0.78571 0.0
H819 H 0.8883 0.73841 0.71738 0.0
H820 H 0.91016 0.73431 0.67079 0.0
H821 H 0.88555 0.72989 0.78936 0.0
H822 H 0.88658 0.78122 0.72011 0.0
H823 H 0.89957 0.80632 0.69293 0.0
H824 H 0.91421 0.82342 0.8022 0.0
H825 H 0.9015 0.79828 0.83001 0.0
C826 C 0.82157 0.76133 0.87989 0.0
C827 C 0.82411 0.77184 0.91113 0.0
C828 C 0.83477 0.75765 0.85572 0.0
C829 C 0.85085 0.76422 0.86248 0.0
C830 C 0.85348 0.7745 0.89391 0.0
C831 C 0.84028 0.77826 0.91798 0.0
C832 C 0.86476 0.76098 0.83597 0.0
C833 C 0.87311 0.77476 0.82062 0.0
C834 C 0.86932 0.74459 0.82457 0.0
C835 C 0.86158 0.72947 0.84104 0.0
C836 C 0.86166 0.72715 0.87989 0.0
C837 C 0.8542 0.71295 0.89524 0.0
C838 C 0.84673 0.70092 0.87201 0.0
C839 C 0.84674 0.70304 0.83337 0.0
C840 C 0.85417 0.71722 0.81787 0.0
C841 C 0.93232 0.75781 0.73382 0.0
C842 C 0.92904 0.74874 0.70078 0.0
C843 C 0.91985 0.75997 0.76062 0.0
C844 C 0.90377 0.75322 0.75485 0.0
C845 C 0.90057 0.7438 0.72237 0.0
C846 C 0.91305 0.74161 0.69559 0.0
C847 C 0.8902 0.75626 0.78229 0.0
C848 C 0.88189 0.74246 0.79768 0.0
C849 C 0.88564 0.77264 0.79374 0.0
C850 C 0.89324 0.78779 0.77709 0.0
C851 C 0.89268 0.79027 0.73832 0.0
C852 C 0.89997 0.80451 0.7228 0.0
C853 C 0.90775 0.81644 0.74581 0.0
C854 C 0.90821 0.81416 0.78441 0.0
C855 C 0.90095 0.79992 0.80006 0.0
H856 H 0.91339 0.82746 0.73375 0.0
H857 H 0.84097 0.68994 0.88395 0.0
H858 H 0.75549 0.31755 0.39687 0.0
H859 H 0.7612 0.34084 0.35464 0.0
H860 H 0.71469 0.36422 0.38623 0.0
H861 H 0.70893 0.34118 0.42871 0.0
H862 H 0.71928 0.36122 0.30836 0.0
H863 H 0.74925 0.38068 0.41752 0.0
H864 H 0.76982 0.37837 0.46884 0.0
H865 H 0.80947 0.37221 0.38961 0.0
H866 H 0.78908 0.37425 0.33779 0.0
H867 H 0.72669 0.43941 0.22092 0.0
H868 H 0.72351 0.41739 0.26732 0.0
H869 H 0.77389 0.40051 0.24577 0.0
H870 H 0.77723 0.42276 0.19969 0.0
H871 H 0.76812 0.39951 0.31798 0.0
H872 H 0.73943 0.37981 0.20907 0.0
H873 H 0.71957 0.38088 0.15617 0.0
H874 H 0.67849 0.38569 0.23213 0.0
H875 H 0.69813 0.38489 0.28551 0.0
C876 C 0.74654 0.32772 0.39509 0.0
C877 C 0.73174 0.32747 0.4162 0.0
C878 C 0.74985 0.34103 0.37101 0.0
C879 C 0.73836 0.35424 0.36736 0.0
C880 C 0.7237 0.35413 0.38865 0.0
C881 C 0.72048 0.34097 0.41306 0.0
C882 C 0.74125 0.36788 0.34026 0.0
C883 C 0.72983 0.36975 0.3107 0.0
C884 C 0.75534 0.37859 0.34268 0.0
C885 C 0.76761 0.37743 0.37379 0.0
C886 C 0.76234 0.37868 0.41104 0.0
C887 C 0.77397 0.37745 0.44022 0.0
C888 C 0.79094 0.37509 0.43249 0.0
C889 C 0.79632 0.37401 0.39556 0.0
C890 C 0.78473 0.37521 0.36627 0.0
C891 C 0.73708 0.43099 0.22603 0.0
C892 C 0.75216 0.43273 0.20644 0.0
C893 C 0.73525 0.41839 0.25254 0.0
C894 C 0.74835 0.40706 0.25959 0.0
C895 C 0.76359 0.40906 0.24078 0.0
C896 C 0.76549 0.42178 0.21448 0.0
C897 C 0.74602 0.39302 0.28615 0.0
C898 C 0.75756 0.39101 0.31554 0.0
C899 C 0.73215 0.38199 0.28331 0.0
C900 C 0.72028 0.38245 0.25128 0.0
C901 C 0.72617 0.38123 0.21449 0.0
C902 C 0.71495 0.38176 0.18442 0.0
C903 C 0.69778 0.3834 0.19078 0.0
C904 C 0.69179 0.38445 0.22724 0.0
C905 C 0.70297 0.38395 0.25742 0.0
H906 H 0.68911 0.3838 0.16746 0.0
H907 H 0.79992 0.37415 0.45512 0.0
H908 H 0.19667 0.24533 0.86934 0.0
H909 H 0.17522 0.25302 0.82413 0.0
H910 H 0.13696 0.23368 0.8965 0.0
H911 H 0.15852 0.2254 0.94164 0.0
H912 H 0.13125 0.22345 0.82844 0.0
H913 H 0.14265 0.27672 0.88311 0.0
H914 H 0.16009 0.30013 0.90626 0.0
H915 H 0.17885 0.30804 0.79587 0.0
H916 H 0.16171 0.28451 0.77212 0.0
H917 H 0.06876 0.25545 0.70337 0.0
H918 H 0.08553 0.25165 0.76016 0.0
H919 H 0.13035 0.2636 0.69943 0.0
H920 H 0.11383 0.2671 0.64258 0.0
H921 H 0.12953 0.27917 0.76809 0.0
H922 H 0.12026 0.22348 0.71643 0.0
H923 H 0.10269 0.19998 0.69415 0.0
H924 H 0.07919 0.19722 0.80127 0.0
H925 H 0.09647 0.22087 0.82402 0.0
C926 C 0.18369 0.24283 0.87594 0.0
C927 C 0.17934 0.23476 0.90923 0.0
C928 C 0.17139 0.24734 0.85005 0.0
C929 C 0.1544 0.2442 0.8571 0.0
C930 C 0.14997 0.23628 0.89047 0.0
C931 C 0.16232 0.23158 0.91628 0.0
C932 C 0.14147 0.24846 0.82865 0.0
C933 C 0.13064 0.23575 0.81585 0.0
C934 C 0.14076 0.26445 0.81181 0.0
C935 C 0.15095 0.27876 0.82587 0.0
C936 C 0.15056 0.28338 0.86379 0.0
C937 C 0.16039 0.29669 0.87703 0.0
C938 C 0.17059 0.30555 0.85256 0.0
C939 C 0.17094 0.30116 0.81479 0.0
C940 C 0.16115 0.28785 0.80141 0.0
C941 C 0.0822 0.25721 0.70206 0.0
C942 C 0.08993 0.26157 0.66832 0.0
C943 C 0.09174 0.2551 0.73458 0.0
C944 C 0.1092 0.25726 0.73395 0.0
C945 C 0.11689 0.26197 0.70059 0.0
C946 C 0.10739 0.26403 0.66811 0.0
C947 C 0.11965 0.25408 0.76754 0.0
C948 C 0.12999 0.26698 0.78123 0.0
C949 C 0.11982 0.23832 0.78541 0.0
C950 C 0.10951 0.22406 0.77178 0.0
C951 C 0.11125 0.21795 0.73513 0.0
C952 C 0.10136 0.20459 0.72243 0.0
C953 C 0.08979 0.19714 0.74624 0.0
C954 C 0.08813 0.20302 0.78283 0.0
C955 C 0.09797 0.21639 0.79565 0.0
H956 H 0.08215 0.1868 0.73636 0.0
H957 H 0.1782 0.31583 0.86287 0.0
H958 H 0.29348 0.66295 0.42678 0.0
H959 H 0.28857 0.6415 0.37895 0.0
H960 H 0.24587 0.66908 0.3382 0.0
H961 H 0.25075 0.69076 0.38575 0.0
H962 H 0.24127 0.63287 0.34272 0.0
H963 H 0.27949 0.67419 0.294 0.0
H964 H 0.30494 0.69169 0.29598 0.0
H965 H 0.33557 0.64751 0.30018 0.0
H966 H 0.31026 0.62974 0.29884 0.0
H967 H 0.23218 0.59949 0.15976 0.0
H968 H 0.23489 0.61683 0.21589 0.0
H969 H 0.28319 0.59477 0.23885 0.0
H970 H 0.28062 0.57753 0.18236 0.0
H971 H 0.28516 0.62721 0.24612 0.0
H972 H 0.24792 0.58552 0.29153 0.0
H973 H 0.22295 0.56734 0.29183 0.0
H974 H 0.19111 0.61066 0.29633 0.0
H975 H 0.21589 0.62912 0.29552 0.0
C976 C 0.28289 0.66438 0.40803 0.0
C977 C 0.27257 0.67866 0.40994 0.0
C978 C 0.28014 0.65211 0.38067 0.0
C979 C 0.26694 0.6538 0.35495 0.0
C980 C 0.25612 0.66759 0.35784 0.0
C981 C 0.25899 0.67999 0.38491 0.0
C982 C 0.26512 0.64176 0.32357 0.0
C983 C 0.25075 0.6317 0.32133 0.0
C984 C 0.27774 0.63999 0.29636 0.0
C985 C 0.29298 0.65064 0.29674 0.0
C986 C 0.29164 0.66821 0.29567 0.0
C987 C 0.30604 0.67818 0.29662 0.0
C988 C 0.32186 0.67072 0.29832 0.0
C989 C 0.32331 0.65327 0.29894 0.0
C990 C 0.30894 0.64325 0.29807 0.0
C991 C 0.24325 0.59813 0.1771 0.0
C992 C 0.25618 0.58713 0.16666 0.0
C993 C 0.24479 0.60805 0.20922 0.0
C994 C 0.25917 0.607 0.23189 0.0
C995 C 0.27198 0.59582 0.22181 0.0
C996 C 0.27051 0.586 0.18951 0.0
C997 C 0.26122 0.61819 0.26495 0.0
C998 C 0.27567 0.62819 0.26753 0.0
C999 C 0.24872 0.61976 0.29264 0.0
C1000 C 0.23377 0.60871 0.29311 0.0
C1001 C 0.23559 0.59118 0.29227 0.0
C1002 C 0.22147 0.58082 0.29259 0.0
C1003 C 0.20545 0.58784 0.294 0.0
C1004 C 0.20352 0.60524 0.29519 0.0
C1005 C 0.21761 0.61566 0.29484 0.0
H1006 H 0.19453 0.5798 0.29426 0.0
H1007 H 0.333 0.67846 0.29907 0.0
H1008 H 0.34321 0.71664 0.57423 0.0
H1009 H 0.36486 0.72294 0.62077 0.0
H1010 H 0.33098 0.75641 0.6775 0.0
H1011 H 0.30927 0.75033 0.63104 0.0
H1012 H 0.36294 0.7692 0.67437 0.0
H1013 H 0.33609 0.71727 0.70813 0.0
H1014 H 0.32646 0.68827 0.6971 0.0
H1015 H 0.37714 0.6726 0.67779 0.0
H1016 H 0.38704 0.70158 0.68819 0.0
H1017 H 0.39391 0.77249 0.859 0.0
H1018 H 0.37792 0.769 0.80127 0.0
H1019 H 0.4148 0.73399 0.76052 0.0
H1020 H 0.43063 0.737 0.81897 0.0
H1021 H 0.38402 0.72192 0.75055 0.0
H1022 H 0.41129 0.77346 0.72348 0.0
H1023 H 0.42081 0.80246 0.73469 0.0
H1024 H 0.36974 0.81902 0.74131 0.0
H1025 H 0.3599 0.79006 0.73067 0.0
C1026 C 0.34038 0.72549 0.59635 0.0
C1027 C 0.3244 0.73285 0.59901 0.0
C1028 C 0.35278 0.72903 0.623 0.0
C1029 C 0.34946 0.73998 0.65284 0.0
C1030 C 0.3338 0.7479 0.65473 0.0
C1031 C 0.32137 0.74434 0.62818 0.0
C1032 C 0.36195 0.74258 0.68319 0.0
C1033 C 0.36749 0.7589 0.69122 0.0
C1034 C 0.3682 0.72906 0.7045 0.0
C1035 C 0.36228 0.71162 0.69851 0.0
C1036 C 0.34516 0.70766 0.70124 0.0
C1037 C 0.33966 0.69123 0.69515 0.0
C1038 C 0.35118 0.67861 0.68664 0.0
C1039 C 0.36823 0.6824 0.68431 0.0
C1040 C 0.37379 0.69882 0.69032 0.0
C1041 C 0.39864 0.76404 0.83777 0.0
C1042 C 0.41351 0.75495 0.84371 0.0
C1043 C 0.38957 0.7622 0.80457 0.0
C1044 C 0.39523 0.75136 0.77634 0.0
C1045 C 0.41022 0.74248 0.78185 0.0
C1046 C 0.41932 0.74431 0.81515 0.0
C1047 C 0.38492 0.74861 0.74216 0.0
C1048 C 0.37972 0.73223 0.73344 0.0
C1049 C 0.379 0.7621 0.72023 0.0
C1050 C 0.38486 0.77955 0.72655 0.0
C1051 C 0.40209 0.78326 0.7276 0.0
C1052 C 0.40754 0.7997 0.73381 0.0
C1053 C 0.39589 0.81257 0.73878 0.0
C1054 C 0.37875 0.80903 0.73747 0.0
C1055 C 0.37323 0.79261 0.73131 0.0
H1056 H 0.40014 0.82529 0.74358 0.0
H1057 H 0.34689 0.6659 0.68193 0.0
H1058 H 0.78809 0.8435 0.07473 0.0
H1059 H 0.7837 0.86441 0.1237 0.0
H1060 H 0.74384 0.83446 0.1689 0.0
H1061 H 0.74825 0.81333 0.12037 0.0
H1062 H 0.75813 0.88396 0.14944 0.0
H1063 H 0.7492 0.83498 0.26622 0.0
H1064 H 0.75549 0.8052 0.2778 0.0
H1065 H 0.79668 0.80736 0.2017 0.0
H1066 H 0.79113 0.83733 0.19093 0.0
H1067 H 0.73302 0.92191 0.32184 0.0
H1068 H 0.73534 0.90485 0.26509 0.0
H1069 H 0.78476 0.88903 0.29918 0.0
H1070 H 0.78256 0.90608 0.35578 0.0
H1071 H 0.76645 0.86284 0.27806 0.0
H1072 H 0.77932 0.91685 0.22846 0.0
H1073 H 0.77475 0.94684 0.21587 0.0
H1074 H 0.7293 0.93508 0.1565 0.0
H1075 H 0.73348 0.90502 0.16918 0.0
C1076 C 0.7782 0.84144 0.09469 0.0
C1077 C 0.76871 0.82656 0.0939 0.0
C1078 C 0.77567 0.85347 0.1226 0.0
C1079 C 0.76364 0.85085 0.15027 0.0
C1080 C 0.75337 0.83659 0.1481 0.0
C1081 C 0.75592 0.82452 0.12029 0.0
C1082 C 0.76291 0.86223 0.18312 0.0
C1083 C 0.75985 0.87935 0.17759 0.0
C1084 C 0.76555 0.85623 0.21978 0.0
C1085 C 0.76957 0.83839 0.22738 0.0
C1086 C 0.75971 0.82916 0.25225 0.0
C1087 C 0.76318 0.81225 0.25876 0.0
C1088 C 0.77648 0.80441 0.2405 0.0
C1089 C 0.78642 0.81348 0.21592 0.0
C1090 C 0.78314 0.83045 0.20968 0.0
C1091 C 0.74449 0.91501 0.31694 0.0
C1092 C 0.75757 0.9153 0.34342 0.0
C1093 C 0.74578 0.90524 0.28453 0.0
C1094 C 0.76024 0.89568 0.27784 0.0
C1095 C 0.77344 0.89622 0.30386 0.0
C1096 C 0.77215 0.90594 0.33624 0.0
C1097 C 0.7614 0.88458 0.24452 0.0
C1098 C 0.7646 0.86747 0.24996 0.0
C1099 C 0.75917 0.89064 0.20781 0.0
C1100 C 0.75663 0.9087 0.20009 0.0
C1101 C 0.76828 0.92067 0.21298 0.0
C1102 C 0.76578 0.93768 0.20578 0.0
C1103 C 0.75173 0.94287 0.18548 0.0
C1104 C 0.74017 0.93105 0.17226 0.0
C1105 C 0.74261 0.91402 0.17942 0.0
H1106 H 0.74981 0.95605 0.17992 0.0
H1107 H 0.77909 0.7913 0.2454 0.0
H1108 H 0.6933 0.25931 0.63677 0.0
H1109 H 0.67024 0.25258 0.6783 0.0
H1110 H 0.63481 0.27022 0.59605 0.0
H1111 H 0.6579 0.27756 0.55485 0.0
H1112 H 0.62641 0.28194 0.66027 0.0
H1113 H 0.64059 0.22733 0.61607 0.0
H1114 H 0.65908 0.20348 0.60133 0.0
H1115 H 0.67211 0.19888 0.71718 0.0
H1116 H 0.65387 0.22287 0.73257 0.0
H1117 H 0.55557 0.24913 0.75644 0.0
H1118 H 0.57723 0.25314 0.70945 0.0
H1119 H 0.61552 0.24512 0.79276 0.0
H1120 H 0.59405 0.24165 0.84021 0.0
H1121 H 0.62123 0.22758 0.7254 0.0
H1122 H 0.60735 0.28361 0.76731 0.0
H1123 H 0.58814 0.30712 0.78015 0.0
H1124 H 0.57339 0.30804 0.6648 0.0
H1125 H 0.59235 0.28437 0.65137 0.0
C1126 C 0.6806 0.26159 0.62729 0.0
C1127 C 0.67747 0.26895 0.59242 0.0
C1128 C 0.66738 0.25767 0.65107 0.0
C1129 C 0.65071 0.26067 0.6402 0.0
C1130 C 0.64754 0.26778 0.60513 0.0
C1131 C 0.66077 0.27193 0.58155 0.0
C1132 C 0.63666 0.25709 0.66608 0.0
C1133 C 0.62514 0.26993 0.67393 0.0
C1134 C 0.63507 0.24152 0.68452 0.0
C1135 C 0.64596 0.227 0.67543 0.0
C1136 C 0.64748 0.22131 0.63838 0.0
C1137 C 0.65791 0.20775 0.62991 0.0
C1138 C 0.66679 0.19969 0.65829 0.0
C1139 C 0.66523 0.20514 0.69522 0.0
C1140 C 0.65483 0.21871 0.70384 0.0
C1141 C 0.56859 0.24837 0.76494 0.0
C1142 C 0.573 0.2451 0.80229 0.0
C1143 C 0.58095 0.25057 0.73795 0.0
C1144 C 0.59797 0.24948 0.74766 0.0
C1145 C 0.60245 0.24592 0.78464 0.0
C1146 C 0.59012 0.24386 0.81172 0.0
C1147 C 0.61117 0.25244 0.7195 0.0
C1148 C 0.6225 0.2395 0.71135 0.0
C1149 C 0.61246 0.26782 0.7004 0.0
C1150 C 0.60113 0.2821 0.70843 0.0
C1151 C 0.5999 0.28873 0.74475 0.0
C1152 C 0.58908 0.30211 0.75212 0.0
C1153 C 0.57952 0.30904 0.72333 0.0
C1154 C 0.58079 0.30264 0.68708 0.0
C1155 C 0.59158 0.28926 0.67957 0.0
H1156 H 0.57115 0.31939 0.72909 0.0
H1157 H 0.67486 0.1892 0.65168 0.0
H1158 H 0.25361 0.18411 0.1097 0.0
H1159 H 0.25879 0.16038 0.15142 0.0
H1160 H 0.20995 0.14042 0.12472 0.0
H1161 H 0.20482 0.16378 0.08232 0.0
H1162 H 0.21906 0.14495 0.20556 0.0
H1163 H 0.23784 0.12027 0.09006 0.0
H1164 H 0.25456 0.11932 0.03255 0.0
H1165 H 0.29992 0.1208 0.09759 0.0
H1166 H 0.28344 0.12203 0.15552 0.0
H1167 H 0.22159 0.06747 0.29731 0.0
H1168 H 0.21827 0.08903 0.24978 0.0
H1169 H 0.27143 0.09875 0.25386 0.0
H1170 H 0.27485 0.07689 0.30096 0.0
H1171 H 0.26079 0.09988 0.18403 0.0
H1172 H 0.24302 0.12444 0.29911 0.0
H1173 H 0.22705 0.12653 0.35756 0.0
H1174 H 0.18091 0.12687 0.29528 0.0
H1175 H 0.1966 0.12453 0.23644 0.0
C1176 C 0.24404 0.17459 0.1125 0.0
C1177 C 0.22881 0.17581 0.09271 0.0
C1178 C 0.24703 0.16105 0.13624 0.0
C1179 C 0.23474 0.1487 0.14105 0.0
C1180 C 0.21958 0.14984 0.12127 0.0
C1181 C 0.21672 0.16316 0.09697 0.0
C1182 C 0.2374 0.13492 0.16785 0.0
C1183 C 0.22802 0.13495 0.20072 0.0
C1184 C 0.24946 0.12225 0.16186 0.0
C1185 C 0.2594 0.12145 0.12711 0.0
C1186 C 0.25137 0.12058 0.09209 0.0
C1187 C 0.26081 0.11994 0.05942 0.0
C1188 C 0.27829 0.12005 0.06141 0.0
C1189 C 0.28637 0.12074 0.09609 0.0
C1190 C 0.27699 0.1214 0.12885 0.0
C1191 C 0.23257 0.07421 0.28807 0.0
C1192 C 0.24846 0.0706 0.3031 0.0
C1193 C 0.23066 0.08654 0.26093 0.0
C1194 C 0.24455 0.09577 0.24871 0.0
C1195 C 0.26051 0.09184 0.26287 0.0
C1196 C 0.26246 0.07935 0.28977 0.0
C1197 C 0.24231 0.10974 0.22187 0.0
C1198 C 0.25181 0.10983 0.18902 0.0
C1199 C 0.23047 0.12269 0.22806 0.0
C1200 C 0.22099 0.12415 0.26339 0.0
C1201 C 0.22946 0.12484 0.29789 0.0
C1202 C 0.22046 0.12608 0.33109 0.0
C1203 C 0.20298 0.12679 0.33014 0.0
C1204 C 0.19446 0.12629 0.29598 0.0
C1205 C 0.2034 0.12502 0.26269 0.0
H1206 H 0.19603 0.12776 0.35588 0.0
H1207 H 0.28558 0.11955 0.03608 0.0
H1208 H 0.21665 0.28514 0.95705 0.0
H1209 H 0.2163 0.31574 0.95884 0.0
H1210 H 0.24199 0.31518 0.06514 0.0
H1211 H 0.24168 0.28454 0.06426 0.0
H1212 H 0.21943 0.33817 0.06693 0.0
H1213 H 0.26219 0.32352 0.97824 0.0
H1214 H 0.27351 0.30954 0.92225 0.0
H1215 H 0.23801 0.33565 0.85344 0.0
H1216 H 0.22636 0.34965 0.9091 0.0
H1217 H 0.25029 0.4212 0.06976 0.0
H1218 H 0.24789 0.39074 0.06625 0.0
H1219 H 0.21773 0.39491 0.9665 0.0
H1220 H 0.21999 0.42551 0.96995 0.0
H1221 H 0.2412 0.37043 0.95991 0.0
H1222 H 0.19959 0.38619 0.04951 0.0
H1223 H 0.18896 0.40031 0.10597 0.0
H1224 H 0.22323 0.37215 0.17378 0.0
H1225 H 0.23424 0.35802 0.11765 0.0
C1226 C 0.22221 0.29154 0.98085 0.0
C1227 C 0.22929 0.28242 0.01042 0.0
C1228 C 0.22208 0.30906 0.98175 0.0
C1229 C 0.22946 0.31785 0.01174 0.0
C1230 C 0.23626 0.30873 0.04162 0.0
C1231 C 0.2361 0.2912 0.04108 0.0
C1232 C 0.23014 0.33651 0.01204 0.0
C1233 C 0.2244 0.34519 0.04369 0.0
C1234 C 0.23621 0.34578 0.98137 0.0
C1235 C 0.24331 0.33751 0.94786 0.0
C1236 C 0.25675 0.32621 0.95119 0.0
C1237 C 0.26323 0.31829 0.91952 0.0
C1238 C 0.25646 0.32168 0.88433 0.0
C1239 C 0.24323 0.33303 0.88072 0.0
C1240 C 0.2367 0.34097 0.91231 0.0
C1241 C 0.243 0.41567 0.04725 0.0
C1242 C 0.2352 0.42583 0.02032 0.0
C1243 C 0.24167 0.39824 0.04525 0.0
C1244 C 0.23242 0.39054 0.01644 0.0
C1245 C 0.2249 0.40059 0.98904 0.0
C1246 C 0.22624 0.41807 0.99098 0.0
C1247 C 0.2307 0.372 0.01495 0.0
C1248 C 0.23621 0.36338 0.98308 0.0
C1249 C 0.22453 0.36277 0.0455 0.0
C1250 C 0.21783 0.37115 0.07933 0.0
C1251 C 0.20494 0.38309 0.07643 0.0
C1252 C 0.19884 0.39108 0.10838 0.0
C1253 C 0.20544 0.38716 0.14343 0.0
C1254 C 0.21814 0.37519 0.14661 0.0
C1255 C 0.2243 0.36717 0.11474 0.0
H1256 H 0.2007 0.39336 0.16813 0.0
H1257 H 0.26148 0.31553 0.85984 0.0
H1258 H 0.21761 0.72726 0.44119 0.0
H1259 H 0.18702 0.72831 0.44007 0.0
H1260 H 0.18643 0.7304 0.56024 0.0
H1261 H 0.21699 0.72954 0.56174 0.0
H1262 H 0.16275 0.70845 0.46725 0.0
H1263 H 0.15457 0.75621 0.58747 0.0
H1264 H 0.17008 0.77942 0.61773 0.0
H1265 H 0.19664 0.78835 0.51607 0.0
H1266 H 0.18117 0.76534 0.48515 0.0
H1267 H 0.07648 0.71346 0.51632 0.0
H1268 H 0.10702 0.71108 0.52075 0.0
H1269 H 0.11222 0.7596 0.46989 0.0
H1270 H 0.08175 0.76222 0.46617 0.0
H1271 H 0.13361 0.75631 0.52757 0.0
H1272 H 0.11778 0.72418 0.41905 0.0
H1273 H 0.10229 0.70232 0.38419 0.0
H1274 H 0.12391 0.66443 0.45399 0.0
H1275 H 0.13936 0.68611 0.48962 0.0
C1276 C 0.21101 0.72787 0.46745 0.0
C1277 C 0.21985 0.72844 0.50156 0.0
C1278 C 0.19349 0.72841 0.46673 0.0
C1279 C 0.18442 0.72964 0.50004 0.0
C1280 C 0.19316 0.72971 0.53415 0.0
C1281 C 0.21067 0.72916 0.53493 0.0
C1282 C 0.16587 0.73127 0.49899 0.0
C1283 C 0.15638 0.71888 0.48058 0.0
C1284 C 0.15754 0.74499 0.51592 0.0
C1285 C 0.16683 0.75894 0.53415 0.0
C1286 C 0.1637 0.76316 0.57158 0.0
C1287 C 0.17249 0.77627 0.58885 0.0
C1288 C 0.18438 0.78532 0.56889 0.0
C1289 C 0.18749 0.78129 0.53158 0.0
C1290 C 0.17872 0.7682 0.51418 0.0
C1291 C 0.08412 0.7237 0.50649 0.0
C1292 C 0.07667 0.73799 0.49071 0.0
C1293 C 0.10158 0.72227 0.50875 0.0
C1294 C 0.11192 0.73508 0.49527 0.0
C1295 C 0.1045 0.74953 0.48036 0.0
C1296 C 0.08708 0.75095 0.47798 0.0
C1297 C 0.13047 0.73341 0.49615 0.0
C1298 C 0.13997 0.7458 0.51453 0.0
C1299 C 0.13881 0.71983 0.47868 0.0
C1300 C 0.12959 0.70678 0.45723 0.0
C1301 C 0.11913 0.7112 0.42715 0.0
C1302 C 0.11037 0.69884 0.40722 0.0
C1303 C 0.11208 0.682 0.41694 0.0
C1304 C 0.12258 0.67748 0.44654 0.0
C1305 C 0.13134 0.6898 0.46659 0.0
H1306 H 0.10529 0.67245 0.40147 0.0
H1307 H 0.19115 0.79547 0.58233 0.0
H1308 H 0.76003 0.71901 0.9483 0.0
H1309 H 0.75963 0.68835 0.94984 0.0
H1310 H 0.78607 0.68924 0.05507 0.0
H1311 H 0.78623 0.71997 0.0542 0.0
H1312 H 0.79865 0.66534 0.99974 0.0
H1313 H 0.74841 0.68148 0.06154 0.0
H1314 H 0.72171 0.69644 0.0703 0.0
H1315 H 0.70148 0.67264 0.9721 0.0
H1316 H 0.7282 0.65776 0.96234 0.0
H1317 H 0.78465 0.57886 0.03989 0.0
H1318 H 0.78614 0.60944 0.04515 0.0
H1319 H 0.75285 0.61406 0.95051 0.0
H1320 H 0.75091 0.58358 0.94578 0.0
H1321 H 0.74421 0.63543 0.00494 0.0
H1322 H 0.79515 0.61996 0.94223 0.0
H1323 H 0.82187 0.60489 0.93448 0.0
H1324 H 0.84086 0.62737 0.03541 0.0
H1325 H 0.81414 0.6424 0.04402 0.0
C1326 C 0.76585 0.7127 0.97168 0.0
C1327 C 0.77312 0.72193 1.00118 0.0
C1328 C 0.76556 0.69519 0.97256 0.0
C1329 C 0.77276 0.68657 0.00264 0.0
C1330 C 0.78045 0.69569 0.03164 0.0
C1331 C 0.78047 0.71322 0.03114 0.0
C1332 C 0.7719 0.66803 0.004 0.0
C1333 C 0.78678 0.65876 0.00143 0.0
C1334 C 0.75639 0.65952 0.00565 0.0
C1335 C 0.74038 0.66865 0.01098 0.0
C1336 C 0.73835 0.6796 0.04153 0.0
C1337 C 0.7232 0.68803 0.04674 0.0
C1338 C 0.70992 0.68552 0.02174 0.0
C1339 C 0.71179 0.67459 0.99141 0.0
C1340 C 0.72694 0.66615 0.98603 0.0
C1341 C 0.77753 0.58639 0.02042 0.0
C1342 C 0.76774 0.57876 0.99226 0.0
C1343 C 0.77851 0.60387 0.02325 0.0
C1344 C 0.76977 0.61406 0.99793 0.0
C1345 C 0.75977 0.60647 0.97026 0.0
C1346 C 0.75879 0.58903 0.96739 0.0
C1347 C 0.77095 0.63264 1.00012 0.0
C1348 C 0.75611 0.64196 0.00338 0.0
C1349 C 0.78651 0.64117 0.99914 0.0
C1350 C 0.80258 0.63216 0.99399 0.0
C1351 C 0.80497 0.62158 0.96294 0.0
C1352 C 0.82013 0.61307 0.95836 0.0
C1353 C 0.83304 0.61513 0.9845 0.0
C1354 C 0.83084 0.62576 0.01522 0.0
C1355 C 0.81569 0.63428 0.01995 0.0
H1356 H 0.84477 0.60854 0.98089 0.0
H1357 H 0.69817 0.69197 0.02602 0.0
H1358 H 0.78577 0.26846 0.56695 0.0
H1359 H 0.81634 0.26901 0.56875 0.0
H1360 H 0.81712 0.28687 0.45549 0.0
H1361 H 0.78654 0.2858 0.45306 0.0
H1362 H 0.83948 0.26366 0.46287 0.0
H1363 H 0.82581 0.31287 0.53315 0.0
H1364 H 0.81183 0.32941 0.58223 0.0
H1365 H 0.83566 0.2996 0.66651 0.0
H1366 H 0.84962 0.28273 0.61791 0.0
H1367 H 0.92651 0.2851 0.46771 0.0
H1368 H 0.89592 0.28657 0.46364 0.0
H1369 H 0.89214 0.26408 0.57224 0.0
H1370 H 0.92264 0.2624 0.57637 0.0
H1371 H 0.87151 0.29095 0.56561 0.0
H1372 H 0.88447 0.24133 0.49351 0.0
H1373 H 0.8985 0.22542 0.44348 0.0
H1374 H 0.87604 0.25733 0.36123 0.0
H1375 H 0.86205 0.27358 0.41083 0.0
C1376 C 0.79243 0.27262 0.54249 0.0
C1377 C 0.78368 0.2771 0.50988 0.0
C1378 C 0.80994 0.273 0.5436 0.0
C1379 C 0.81909 0.27821 0.51242 0.0
C1380 C 0.81037 0.2828 0.47991 0.0
C1381 C 0.79287 0.28221 0.4786 0.0
C1382 C 0.83775 0.2784 0.51332 0.0
C1383 C 0.84646 0.26988 0.48504 0.0
C1384 C 0.84694 0.28624 0.54254 0.0
C1385 C 0.83865 0.29644 0.57186 0.0
C1386 C 0.82798 0.30977 0.56214 0.0
C1387 C 0.82007 0.31921 0.58987 0.0
C1388 C 0.82282 0.31553 0.62746 0.0
C1389 C 0.83353 0.30243 0.63738 0.0
C1390 C 0.84146 0.29293 0.60975 0.0
C1391 C 0.91917 0.28031 0.49056 0.0
C1392 C 0.92706 0.27364 0.52239 0.0
C1393 C 0.90168 0.2812 0.48824 0.0
C1394 C 0.89173 0.27536 0.51757 0.0
C1395 C 0.89956 0.26875 0.54936 0.0
C1396 C 0.91702 0.26784 0.55171 0.0
C1397 C 0.87315 0.27614 0.51535 0.0
C1398 C 0.86448 0.28484 0.54337 0.0
C1399 C 0.86401 0.26859 0.48574 0.0
C1400 C 0.87235 0.25877 0.45591 0.0
C1401 C 0.88262 0.24503 0.46477 0.0
C1402 C 0.89055 0.23594 0.43649 0.0
C1403 C 0.8882 0.24039 0.3992 0.0
C1404 C 0.87787 0.25392 0.39012 0.0
C1405 C 0.86993 0.26306 0.4183 0.0
H1406 H 0.89435 0.23333 0.37735 0.0
H1407 H 0.81668 0.32286 0.64889 0.0
H1408 H 0.72368 0.21934 0.44049 0.0
H1409 H 0.72309 0.18867 0.43852 0.0
H1410 H 0.73558 0.18716 0.55561 0.0
H1411 H 0.73613 0.21776 0.55799 0.0
H1412 H 0.75507 0.16571 0.51255 0.0
H1413 H 0.69701 0.17848 0.53059 0.0
H1414 H 0.67009 0.19234 0.51688 0.0
H1415 H 0.6689 0.16935 0.40826 0.0
H1416 H 0.69594 0.15549 0.42118 0.0
H1417 H 0.74193 0.07923 0.54113 0.0
H1418 H 0.73958 0.10969 0.54594 0.0
H1419 H 0.72214 0.11175 0.43195 0.0
H1420 H 0.72375 0.08123 0.42741 0.0
H1421 H 0.70482 0.13311 0.47415 0.0
H1422 H 0.76305 0.12073 0.45545 0.0
H1423 H 0.79015 0.10712 0.46868 0.0
H1424 H 0.79133 0.12979 0.57763 0.0
H1425 H 0.76411 0.14337 0.56523 0.0
C1426 C 0.72629 0.2125 0.46585 0.0
C1427 C 0.72996 0.22104 0.4994 0.0
C1428 C 0.72586 0.19497 0.4647 0.0
C1429 C 0.72921 0.18565 0.49697 0.0
C1430 C 0.73295 0.19412 0.5304 0.0
C1431 C 0.7332 0.21162 0.5317 0.0
C1432 C 0.72917 0.16706 0.49573 0.0
C1433 C 0.74402 0.15856 0.50466 0.0
C1434 C 0.71486 0.15779 0.4846 0.0
C1435 C 0.69859 0.16607 0.47672 0.0
C1436 C 0.69109 0.17649 0.50366 0.0
C1437 C 0.67579 0.18432 0.49606 0.0
C1438 C 0.66781 0.18175 0.4617 0.0
C1439 C 0.6751 0.17133 0.43486 0.0
C1440 C 0.69041 0.16347 0.44233 0.0
C1441 C 0.73734 0.08611 0.51724 0.0
C1442 C 0.73315 0.07774 0.48378 0.0
C1443 C 0.73617 0.10357 0.51991 0.0
C1444 C 0.73095 0.11306 0.4891 0.0
C1445 C 0.72629 0.10472 0.45604 0.0
C1446 C 0.72739 0.08726 0.45338 0.0
C1447 C 0.73075 0.13169 0.491 0.0
C1448 C 0.71587 0.14023 0.48212 0.0
C1449 C 0.74506 0.14103 0.50206 0.0
C1450 C 0.76146 0.13292 0.50955 0.0
C1451 C 0.76903 0.12271 0.48233 0.0
C1452 C 0.78442 0.11502 0.48967 0.0
C1453 C 0.79244 0.11755 0.52401 0.0
C1454 C 0.7851 0.12782 0.55106 0.0
C1455 C 0.76969 0.13553 0.54389 0.0
H1456 H 0.80436 0.11159 0.52964 0.0
H1457 H 0.65594 0.18779 0.45591 0.0
H1458 H 0.28539 0.21683 0.06353 0.0
H1459 H 0.316 0.21673 0.06478 0.0
H1460 H 0.31673 0.23739 0.95395 0.0
H1461 H 0.28616 0.23699 0.95199 0.0
H1462 H 0.34009 0.21482 0.9594 0.0
H1463 H 0.3235 0.26186 0.03463 0.0
H1464 H 0.30847 0.27637 0.0853 0.0
H1465 H 0.33355 0.24577 0.16632 0.0
H1466 H 0.34857 0.23092 0.11608 0.0
H1467 H 0.42446 0.24501 0.96539 0.0
H1468 H 0.39393 0.2426 0.96163 0.0
H1469 H 0.39349 0.21795 0.06823 0.0
H1470 H 0.42397 0.22012 0.07202 0.0
H1471 H 0.37014 0.2424 0.06472 0.0
H1472 H 0.3873 0.19591 0.9877 0.0
H1473 H 0.40245 0.18226 0.93606 0.0
H1474 H 0.37644 0.21317 0.85708 0.0
H1475 H 0.3613 0.22717 0.90832 0.0
C1476 C 0.29206 0.22131 0.03936 0.0
C1477 C 0.28329 0.22702 0.00775 0.0
C1478 C 0.30958 0.22132 0.04018 0.0
C1479 C 0.31873 0.22736 0.00974 0.0
C1480 C 0.31 0.2327 0.97783 0.0
C1481 C 0.29249 0.23248 0.97679 0.0
C1482 C 0.33735 0.22834 0.01125 0.0
C1483 C 0.34664 0.22104 0.98223 0.0
C1484 C 0.34598 0.2362 0.04129 0.0
C1485 C 0.33704 0.24518 0.07157 0.0
C1486 C 0.32572 0.25815 0.06324 0.0
C1487 C 0.31722 0.26645 0.09188 0.0
C1488 C 0.32002 0.26197 0.129 0.0
C1489 C 0.33137 0.24921 0.13756 0.0
C1490 C 0.3399 0.24086 0.10901 0.0
C1491 C 0.4179 0.23888 0.98782 0.0
C1492 C 0.4267 0.2328 0.01906 0.0
C1493 C 0.40043 0.23754 0.98566 0.0
C1494 C 0.39142 0.23001 0.01457 0.0
C1495 C 0.40016 0.22387 0.04567 0.0
C1496 C 0.4176 0.22519 0.04784 0.0
C1497 C 0.37284 0.22887 0.01295 0.0
C1498 C 0.36357 0.23617 0.04195 0.0
C1499 C 0.36424 0.22115 0.98273 0.0
C1500 C 0.37329 0.21269 0.95188 0.0
C1501 C 0.38491 0.19989 0.95935 0.0
C1502 C 0.39347 0.19207 0.93014 0.0
C1503 C 0.39044 0.19687 0.89332 0.0
C1504 C 0.37879 0.20947 0.88562 0.0
C1505 C 0.37021 0.21734 0.91473 0.0
H1506 H 0.39708 0.19081 0.87074 0.0
H1507 H 0.31342 0.2684 0.15113 0.0
H1508 H 0.27833 0.78535 0.56681 0.0
H1509 H 0.27789 0.81592 0.56853 0.0
H1510 H 0.26905 0.81692 0.44978 0.0
H1511 H 0.26983 0.78633 0.44759 0.0
H1512 H 0.29083 0.84058 0.46903 0.0
H1513 H 0.23715 0.8231 0.51183 0.0
H1514 H 0.21734 0.80735 0.55056 0.0
H1515 H 0.23662 0.83173 0.649 0.0
H1516 H 0.25679 0.84744 0.61086 0.0
H1517 H 0.26093 0.92521 0.46309 0.0
H1518 H 0.26345 0.89471 0.45857 0.0
H1519 H 0.27618 0.89252 0.57549 0.0
H1520 H 0.27405 0.92298 0.58013 0.0
H1521 H 0.25215 0.86956 0.55591 0.0
H1522 H 0.30598 0.88723 0.51075 0.0
H1523 H 0.32512 0.90293 0.47016 0.0
H1524 H 0.30419 0.87832 0.37367 0.0
H1525 H 0.28475 0.86264 0.41367 0.0
C1526 C 0.27634 0.79203 0.54099 0.0
C1527 C 0.27399 0.78331 0.50709 0.0
C1528 C 0.27603 0.80955 0.54205 0.0
C1529 C 0.27316 0.81874 0.50938 0.0
C1530 C 0.27124 0.81011 0.47537 0.0
C1531 C 0.27165 0.79259 0.47421 0.0
C1532 C 0.27186 0.83734 0.51081 0.0
C1533 C 0.28222 0.84691 0.48769 0.0
C1534 C 0.26078 0.84564 0.53548 0.0
C1535 C 0.24859 0.83632 0.55852 0.0
C1536 C 0.23725 0.82502 0.54177 0.0
C1537 C 0.22594 0.81611 0.56362 0.0
C1538 C 0.22573 0.81851 0.60224 0.0
C1539 C 0.23681 0.82987 0.61908 0.0
C1540 C 0.24818 0.83878 0.59736 0.0
C1541 C 0.2645 0.91828 0.48774 0.0
C1542 C 0.26725 0.9266 0.522 0.0
C1543 C 0.26588 0.90083 0.48513 0.0
C1544 C 0.27007 0.89134 0.51667 0.0
C1545 C 0.27286 0.89958 0.55083 0.0
C1546 C 0.27156 0.91701 0.55345 0.0
C1547 C 0.27121 0.87278 0.51438 0.0
C1548 C 0.26077 0.86322 0.53728 0.0
C1549 C 0.28208 0.86451 0.48925 0.0
C1550 C 0.2938 0.87389 0.46518 0.0
C1551 C 0.30537 0.88527 0.48085 0.0
C1552 C 0.31629 0.89414 0.45796 0.0
C1553 C 0.31584 0.89165 0.41936 0.0
C1554 C 0.30451 0.88025 0.40358 0.0
C1555 C 0.29354 0.87136 0.42635 0.0
H1556 H 0.32431 0.89853 0.40168 0.0
H1557 H 0.21696 0.81159 0.6191 0.0
H1558 H 0.71535 0.76208 0.04778 0.0
H1559 H 0.68469 0.7621 0.04541 0.0
H1560 H 0.68583 0.7903 0.9434 0.0
H1561 H 0.71656 0.79003 0.94505 0.0
H1562 H 0.66253 0.80249 1.00064 0.0
H1563 H 0.67731 0.753 0.93239 0.0
H1564 H 0.69144 0.72602 0.92086 0.0
H1565 H 0.66697 0.70477 0.01569 0.0
H1566 H 0.6529 0.73176 0.02821 0.0
H1567 H 0.57762 0.79196 0.94387 0.0
H1568 H 0.60816 0.79321 0.94728 0.0
H1569 H 0.60803 0.75699 0.03597 0.0
H1570 H 0.57748 0.75522 0.0318 0.0
H1571 H 0.63112 0.74917 0.98548 0.0
H1572 H 0.61581 0.79879 0.05312 0.0
H1573 H 0.60144 0.82574 0.0636 0.0
H1574 H 0.62675 0.84686 0.96974 0.0
H1575 H 0.64112 0.81996 0.95837 0.0
C1576 C 0.70909 0.76834 0.02489 0.0
C1577 C 0.71839 0.77603 0.99655 0.0
C1578 C 0.69158 0.7683 0.02354 0.0
C1579 C 0.68303 0.77617 0.9942 0.0
C1580 C 0.69223 0.78416 0.96628 0.0
C1581 C 0.70976 0.78393 0.96719 0.0
C1582 C 0.66447 0.77582 0.99253 0.0
C1583 C 0.65562 0.79088 0.99687 0.0
C1584 C 0.65553 0.76061 0.98843 0.0
C1585 C 0.66421 0.74446 0.9815 0.0
C1586 C 0.67511 0.74264 0.95109 0.0
C1587 C 0.68307 0.72734 0.94431 0.0
C1588 C 0.68012 0.7137 0.96755 0.0
C1589 C 0.66925 0.71536 0.99773 0.0
C1590 C 0.66128 0.73066 0.00469 0.0
C1591 C 0.58408 0.7842 0.96401 0.0
C1592 C 0.57506 0.77347 0.98753 0.0
C1593 C 0.60155 0.78506 0.9662 0.0
C1594 C 0.61042 0.77532 0.99215 0.0
C1595 C 0.60146 0.76467 0.0158 0.0
C1596 C 0.58398 0.76378 0.01361 0.0
C1597 C 0.62904 0.77586 0.99379 0.0
C1598 C 0.63795 0.76081 0.98942 0.0
C1599 C 0.63802 0.7911 0.99789 0.0
C1600 C 0.62942 0.8073 0.00468 0.0
C1601 C 0.61821 0.80914 0.03452 0.0
C1602 C 0.61008 0.82442 0.04066 0.0
C1603 C 0.61315 0.83799 0.01729 0.0
C1604 C 0.62438 0.83633 0.98779 0.0
C1605 C 0.63253 0.82107 0.9815 0.0
H1606 H 0.60684 0.84981 0.02209 0.0
H1607 H 0.6862 0.70184 0.96205 0.0
loop_
_geom_bond_atom_site_label_1
_geom_bond_atom_site_label_2
_geom_bond_distance
_geom_bond_site_symmetry_2
_ccdc_geom_bond_type
Sc0 O3 2.025 . S
Sc0 O10 2.105 . S
Sc0 O13 2.105 . S
Sc0 O16 2.105 . S
Sc0 O19 2.105 . S
Sc1 O3 2.025 . S
Sc1 O11 2.105 . S
Sc1 O15 2.105 1_554 S
Sc1 O17 2.105 . S
Sc1 O21 2.105 1_554 S
Sc2 O3 2.025 1_556 S
Sc2 O12 2.105 . S
Sc2 O14 2.105 . S
Sc2 O18 2.105 . S
Sc2 O20 2.105 . S
O3 Sc0 2.025 . S
O3 Sc1 2.025 . S
O3 Sc2 2.025 1_554 S
C4 O10 1.268 . S
C4 O20 1.268 1_554 S
C5 O11 1.268 . S
C5 O19 1.268 . S
C6 O12 1.268 . S
C6 O21 1.268 . S
C7 O13 1.268 . S
C7 O17 1.268 . S
C8 O14 1.268 1_554 S
C8 O16 1.268 . S
C9 O15 1.268 . S
C9 O18 1.268 . S
O10 Sc0 2.105 . S
O10 C4 1.268 . S
O11 Sc1 2.105 . S
O11 C5 1.268 . S
O12 Sc2 2.105 . S
O12 C6 1.268 . S
O13 Sc0 2.105 . S
O13 C7 1.268 . S
O14 Sc2 2.105 . S
O14 C8 1.268 1_556 S
O15 Sc1 2.105 1_556 S
O15 C9 1.268 . S
O16 Sc0 2.105 . S
O16 C8 1.268 . S
O17 Sc1 2.105 . S
O17 C7 1.268 . S
O18 Sc2 2.105 . S
O18 C9 1.268 . S
O19 Sc0 2.105 . S
O19 C5 1.268 . S
O20 Sc2 2.105 . S
O20 C4 1.268 1_556 S
O21 Sc1 2.105 1_556 S
O21 C6 1.268 . S
Sc22 O25 2.025 . S
Sc22 O32 2.105 . S
Sc22 O35 2.105 . S
Sc22 O38 2.105 . S
Sc22 O41 2.105 . S
Sc23 O25 2.025 . S
Sc23 O33 2.105 . S
Sc23 O37 2.105 . S
Sc23 O39 2.105 . S
Sc23 O43 2.105 . S
Sc24 O25 2.025 . S
Sc24 O34 2.105 . S
Sc24 O36 2.105 . S
Sc24 O40 2.105 . S
Sc24 O42 2.105 . S
O25 Sc22 2.025 . S
O25 Sc23 2.025 . S
O25 Sc24 2.025 . S
C26 O32 1.268 . S
C26 O42 1.268 . S
C27 O33 1.268 . S
C27 O41 1.268 . S
C28 O34 1.268 . S
C28 O43 1.268 . S
C29 O35 1.268 . S
C29 O39 1.268 . S
C30 O36 1.268 . S
C30 O38 1.268 . S
C31 O37 1.268 . S
C31 O40 1.268 . S
O32 Sc22 2.105 . S
O32 C26 1.268 . S
O33 Sc23 2.105 . S
O33 C27 1.268 . S
O34 Sc24 2.105 . S
O34 C28 1.268 . S
O35 Sc22 2.105 . S
O35 C29 1.268 . S
O36 Sc24 2.105 . S
O36 C30 1.268 . S
O37 Sc23 2.105 . S
O37 C31 1.268 . S
O38 Sc22 2.105 . S
O38 C30 1.268 . S
O39 Sc23 2.105 . S
O39 C29 1.268 . S
O40 Sc24 2.105 . S
O40 C31 1.268 . S
O41 Sc22 2.105 . S
O41 C27 1.268 . S
O42 Sc24 2.105 . S
O42 C26 1.268 . S
O43 Sc23 2.105 . S
O43 C28 1.268 . S
Sc44 O47 2.025 1_556 S
Sc44 O54 2.105 . S
Sc44 O57 2.105 . S
Sc44 O60 2.105 . S
Sc44 O63 2.105 . S
Sc45 O47 2.025 . S
Sc45 O55 2.105 1_554 S
Sc45 O59 2.105 . S
Sc45 O61 2.105 1_554 S
Sc45 O65 2.105 . S
Sc46 O47 2.025 . S
Sc46 O56 2.105 . S
Sc46 O58 2.105 . S
Sc46 O62 2.105 . S
Sc46 O64 2.105 . S
O47 Sc44 2.025 1_554 S
O47 Sc45 2.025 . S
O47 Sc46 2.025 . S
C48 O54 1.268 1_554 S
C48 O64 1.268 . S
C49 O55 1.268 . S
C49 O63 1.268 . S
C50 O56 1.268 . S
C50 O65 1.268 . S
C51 O57 1.268 . S
C51 O61 1.268 . S
C52 O58 1.268 . S
C52 O60 1.268 1_554 S
C53 O59 1.268 . S
C53 O62 1.268 . S
O54 Sc44 2.105 . S
O54 C48 1.268 1_556 S
O55 Sc45 2.105 1_556 S
O55 C49 1.268 . S
O56 Sc46 2.105 . S
O56 C50 1.268 . S
O57 Sc44 2.105 . S
O57 C51 1.268 . S
O58 Sc46 2.105 . S
O58 C52 1.268 . S
O59 Sc45 2.105 . S
O59 C53 1.268 . S
O60 Sc44 2.105 . S
O60 C52 1.268 1_556 S
O61 Sc45 2.105 1_556 S
O61 C51 1.268 . S
O62 Sc46 2.105 . S
O62 C53 1.268 . S
O63 Sc44 2.105 . S
O63 C49 1.268 . S
O64 Sc46 2.105 . S
O64 C48 1.268 . S
O65 Sc45 2.105 . S
O65 C50 1.268 . S
Sc66 O69 2.025 . S
Sc66 O76 2.105 . S
Sc66 O79 2.105 . S
Sc66 O82 2.105 . S
Sc66 O85 2.105 . S
Sc67 O69 2.025 . S
Sc67 O77 2.105 . S
Sc67 O81 2.105 . S
Sc67 O83 2.105 . S
Sc67 O87 2.105 . S
Sc68 O69 2.025 . S
Sc68 O78 2.105 . S
Sc68 O80 2.105 . S
Sc68 O84 2.105 . S
Sc68 O86 2.105 . S
O69 Sc66 2.025 . S
O69 Sc67 2.025 . S
O69 Sc68 2.025 . S
C70 O76 1.268 . S
C70 O86 1.268 . S
C71 O77 1.268 . S
C71 O85 1.268 . S
C72 O78 1.268 . S
C72 O87 1.268 . S
C73 O79 1.268 . S
C73 O83 1.268 . S
C74 O80 1.268 . S
C74 O82 1.268 . S
C75 O81 1.268 . S
C75 O84 1.268 . S
O76 Sc66 2.105 . S
O76 C70 1.268 . S
O77 Sc67 2.105 . S
O77 C71 1.268 . S
O78 Sc68 2.105 . S
O78 C72 1.268 . S
O79 Sc66 2.105 . S
O79 C73 1.268 . S
O80 Sc68 2.105 . S
O80 C74 1.268 . S
O81 Sc67 2.105 . S
O81 C75 1.268 . S
O82 Sc66 2.105 . S
O82 C74 1.268 . S
O83 Sc67 2.105 . S
O83 C73 1.268 . S
O84 Sc68 2.105 . S
O84 C75 1.268 . S
O85 Sc66 2.105 . S
O85 C71 1.268 . S
O86 Sc68 2.105 . S
O86 C70 1.268 . S
O87 Sc67 2.105 . S
O87 C72 1.268 . S
C88 C89 1.264 . S
C88 C93 1.479 . S
C88 C98 1.465 . S
C89 C88 1.264 . S
C89 C91 1.339 . S
C89 H116 0.931 . S
C90 C91 1.395 . S
C90 C92 1.320 . S
C91 C89 1.339 . S
C91 C90 1.395 . S
C91 H117 0.929 . S
C92 C90 1.320 . S
C92 C93 1.405 . S
C92 H118 0.930 . S
C93 C88 1.479 . S
C93 C92 1.405 . S
C93 H119 0.931 . S
U94 O95 2.454 . S
U94 O96 2.458 1_556 S
U94 C97 2.984 . S
U94 C98 2.847 . S
U94 C111 2.882 1_556 S
U94 O112 2.441 . S
U94 O113 2.420 . S
U94 O114 2.455 1_556 S
U94 O115 2.449 1_556 S
O95 U94 2.454 . S
O95 C97 1.353 . S
O96 U94 2.458 1_554 S
O96 C97 1.286 1_554 S
C97 U94 2.984 . S
C97 O95 1.353 . S
C97 O96 1.286 1_556 S
C97 C99 1.363 . S
C98 C88 1.465 . S
C98 U94 2.847 . S
C98 O112 1.249 . S
C98 O113 1.202 . S
C99 C97 1.363 . S
C99 C101 1.412 . S
C99 C104 1.338 1_556 S
C100 C101 1.310 . S
C100 C103 1.461 1_556 S
C100 H120 0.932 . S
C101 C99 1.412 . S
C101 C100 1.310 . S
C101 H121 0.930 . S
C102 C103 1.474 . S
C102 C104 1.285 . S
C102 H122 0.929 . S
C103 C100 1.461 1_554 S
C103 C102 1.474 . S
C104 C99 1.338 1_554 S
C104 C102 1.285 . S
C104 H123 0.930 . S
C105 C108 1.424 . S
C105 C110 1.245 . S
C105 C111 1.428 . S
C106 C109 1.260 . S
C106 C110 1.477 . S
C106 H124 0.932 . S
C107 C108 1.384 . S
C107 C109 1.479 . S
C107 H125 0.929 . S
C108 C105 1.424 . S
C108 C107 1.384 . S
C108 H126 0.928 . S
C109 C106 1.260 . S
C109 C107 1.479 . S
C110 C105 1.245 . S
C110 C106 1.477 . S
C110 H127 0.932 . S
C111 U94 2.882 1_554 S
C111 C105 1.428 . S
C111 O114 1.301 . S
C111 O115 1.282 . S
O112 U94 2.441 . S
O112 C98 1.249 . S
O113 U94 2.420 . S
O113 C98 1.202 . S
O114 U94 2.455 1_554 S
O114 C111 1.301 . S
O115 U94 2.449 1_554 S
O115 C111 1.282 . S
H116 C89 0.931 . S
H117 C91 0.929 . S
H118 C92 0.930 . S
H119 C93 0.931 . S
H120 C100 0.932 . S
H121 C101 0.930 . S
H122 C102 0.929 . S
H123 C104 0.930 . S
H124 C106 0.932 . S
H125 C107 0.929 . S
H126 C108 0.928 . S
H127 C110 0.932 . S
C128 C129 1.264 . S
C128 C133 1.479 . S
C128 C138 1.465 . S
C129 C128 1.264 . S
C129 C131 1.339 . S
C129 H156 0.931 . S
C130 C131 1.395 . S
C130 C132 1.320 . S
C131 C129 1.339 . S
C131 C130 1.395 . S
C131 H157 0.929 . S
C132 C130 1.320 . S
C132 C133 1.405 . S
C132 H158 0.930 . S
C133 C128 1.479 . S
C133 C132 1.405 . S
C133 H159 0.931 . S
U134 O135 2.454 1_655 S
U134 O136 2.458 1_655 S
U134 C137 2.984 1_655 S
U134 C138 2.847 . S
U134 C151 2.882 . S
U134 O152 2.441 . S
U134 O153 2.420 . S
U134 O154 2.455 . S
U134 O155 2.449 . S
O135 U134 2.454 1_455 S
O135 C137 1.353 . S
O136 U134 2.458 1_455 S
O136 C137 1.286 . S
C137 U134 2.984 1_455 S
C137 O135 1.353 . S
C137 O136 1.286 . S
C137 C139 1.363 . S
C138 C128 1.465 . S
C138 U134 2.847 . S
C138 O152 1.249 . S
C138 O153 1.202 . S
C139 C137 1.363 . S
C139 C141 1.408 . S
C139 C144 1.342 . S
C140 C141 1.310 . S
C140 C143 1.461 . S
C140 H160 0.932 . S
C141 C139 1.408 . S
C141 C140 1.310 . S
C141 H161 0.930 . S
C142 C143 1.474 . S
C142 C144 1.285 . S
C142 H162 0.929 . S
C143 C140 1.461 . S
C143 C142 1.474 . S
C144 C139 1.342 . S
C144 C142 1.285 . S
C144 H163 0.930 . S
C145 C148 1.424 . S
C145 C150 1.245 . S
C145 C151 1.428 . S
C146 C149 1.260 . S
C146 C150 1.477 . S
C146 H164 0.932 . S
C147 C148 1.384 . S
C147 C149 1.479 . S
C147 H165 0.929 . S
C148 C145 1.424 . S
C148 C147 1.384 . S
C148 H166 0.928 . S
C149 C146 1.260 . S
C149 C147 1.479 . S
C150 C145 1.245 . S
C150 C146 1.477 . S
C150 H167 0.932 . S
C151 U134 2.882 . S
C151 C145 1.428 . S
C151 O154 1.301 . S
C151 O155 1.282 . S
O152 U134 2.441 . S
O152 C138 1.249 . S
O153 U134 2.420 . S
O153 C138 1.202 . S
O154 U134 2.455 . S
O154 C151 1.301 . S
O155 U134 2.449 . S
O155 C151 1.282 . S
H156 C129 0.931 . S
H157 C131 0.929 . S
H158 C132 0.930 . S
H159 C133 0.931 . S
H160 C140 0.932 . S
H161 C141 0.930 . S
H162 C142 0.929 . S
H163 C144 0.930 . S
H164 C146 0.932 . S
H165 C147 0.929 . S
H166 C148 0.928 . S
H167 C150 0.932 . S
C168 C169 1.264 . S
C168 C173 1.479 . S
C168 C178 1.465 . S
C169 C168 1.264 . S
C169 C171 1.339 . S
C169 H196 0.931 . S
C170 C171 1.395 . S
C170 C172 1.320 . S
C171 C169 1.339 . S
C171 C170 1.395 . S
C171 H197 0.929 . S
C172 C170 1.320 . S
C172 C173 1.405 . S
C172 H198 0.930 . S
C173 C168 1.479 . S
C173 C172 1.405 . S
C173 H199 0.931 . S
U174 O175 2.454 . S
U174 O176 2.458 1_554 S
U174 C177 2.984 . S
U174 C178 2.847 . S
U174 C191 2.882 1_554 S
U174 O192 2.441 . S
U174 O193 2.420 . S
U174 O194 2.455 1_554 S
U174 O195 2.449 1_554 S
O175 U174 2.454 . S
O175 C177 1.353 . S
O176 U174 2.458 1_556 S
O176 C177 1.286 1_556 S
C177 U174 2.984 . S
C177 O175 1.353 . S
C177 O176 1.286 1_554 S
C177 C179 1.363 . S
C178 C168 1.465 . S
C178 U174 2.847 . S
C178 O192 1.249 . S
C178 O193 1.202 . S
C179 C177 1.363 . S
C179 C181 1.408 . S
C179 C184 1.342 1_554 S
C180 C181 1.310 . S
C180 C183 1.461 . S
C180 H200 0.932 . S
C181 C179 1.408 . S
C181 C180 1.310 . S
C181 H201 0.930 . S
C182 C183 1.474 1_556 S
C182 C184 1.285 . S
C182 H202 0.929 . S
C183 C180 1.461 . S
C183 C182 1.474 1_554 S
C184 C179 1.342 1_556 S
C184 C182 1.285 . S
C184 H203 0.930 . S
C185 C188 1.424 . S
C185 C190 1.245 . S
C185 C191 1.428 . S
C186 C189 1.260 . S
C186 C190 1.477 . S
C186 H204 0.932 . S
C187 C188 1.384 . S
C187 C189 1.479 . S
C187 H205 0.929 . S
C188 C185 1.424 . S
C188 C187 1.384 . S
C188 H206 0.928 . S
C189 C186 1.260 . S
C189 C187 1.479 . S
C190 C185 1.245 . S
C190 C186 1.477 . S
C190 H207 0.932 . S
C191 U174 2.882 1_556 S
C191 C185 1.428 . S
C191 O194 1.301 . S
C191 O195 1.282 . S
O192 U174 2.441 . S
O192 C178 1.249 . S
O193 U174 2.420 . S
O193 C178 1.202 . S
O194 U174 2.455 1_556 S
O194 C191 1.301 . S
O195 U174 2.449 1_556 S
O195 C191 1.282 . S
H196 C169 0.931 . S
H197 C171 0.929 . S
H198 C172 0.930 . S
H199 C173 0.931 . S
H200 C180 0.932 . S
H201 C181 0.930 . S
H202 C182 0.929 . S
H203 C184 0.930 . S
H204 C186 0.932 . S
H205 C187 0.929 . S
H206 C188 0.928 . S
H207 C190 0.932 . S
C208 C209 1.264 . S
C208 C213 1.479 . S
C208 C218 1.465 . S
C209 C208 1.264 . S
C209 C211 1.339 . S
C209 H236 0.931 . S
C210 C211 1.395 . S
C210 C212 1.320 . S
C211 C209 1.339 . S
C211 C210 1.395 . S
C211 H237 0.929 . S
C212 C210 1.320 . S
C212 C213 1.405 . S
C212 H238 0.930 . S
C213 C208 1.479 . S
C213 C212 1.405 . S
C213 H239 0.931 . S
U214 O215 2.454 1_455 S
U214 O216 2.458 1_455 S
U214 C217 2.984 1_455 S
U214 C218 2.847 . S
U214 C231 2.882 . S
U214 O232 2.441 . S
U214 O233 2.420 . S
U214 O234 2.455 . S
U214 O235 2.449 . S
O215 U214 2.454 1_655 S
O215 C217 1.353 . S
O216 U214 2.458 1_655 S
O216 C217 1.286 . S
C217 U214 2.984 1_655 S
C217 O215 1.353 . S
C217 O216 1.286 . S
C217 C219 1.363 . S
C218 C208 1.465 . S
C218 U214 2.847 . S
C218 O232 1.249 . S
C218 O233 1.202 . S
C219 C217 1.363 . S
C219 C221 1.408 . S
C219 C224 1.342 . S
C220 C221 1.310 . S
C220 C223 1.461 . S
C220 H240 0.932 . S
C221 C219 1.408 . S
C221 C220 1.310 . S
C221 H241 0.930 . S
C222 C223 1.474 . S
C222 C224 1.285 . S
C222 H242 0.929 . S
C223 C220 1.461 . S
C223 C222 1.474 . S
C224 C219 1.342 . S
C224 C222 1.285 . S
C224 H243 0.930 . S
C225 C228 1.424 . S
C225 C230 1.245 . S
C225 C231 1.428 . S
C226 C229 1.260 . S
C226 C230 1.477 . S
C226 H244 0.932 . S
C227 C228 1.384 . S
C227 C229 1.479 . S
C227 H245 0.929 . S
C228 C225 1.424 . S
C228 C227 1.384 . S
C228 H246 0.928 . S
C229 C226 1.260 . S
C229 C227 1.479 . S
C230 C225 1.245 . S
C230 C226 1.477 . S
C230 H247 0.932 . S
C231 U214 2.882 . S
C231 C225 1.428 . S
C231 O234 1.301 . S
C231 O235 1.282 . S
O232 U214 2.441 . S
O232 C218 1.249 . S
O233 U214 2.420 . S
O233 C218 1.202 . S
O234 U214 2.455 . S
O234 C231 1.301 . S
O235 U214 2.449 . S
O235 C231 1.282 . S
H236 C209 0.931 . S
H237 C211 0.929 . S
H238 C212 0.930 . S
H239 C213 0.931 . S
H240 C220 0.932 . S
H241 C221 0.930 . S
H242 C222 0.929 . S
H243 C224 0.930 . S
H244 C226 0.932 . S
H245 C227 0.929 . S
H246 C228 0.928 . S
H247 C230 0.932 . S
C248 C249 1.264 . S
C248 C253 1.479 . S
C248 C258 1.465 . S
C249 C248 1.264 . S
C249 C251 1.339 . S
C249 H276 0.931 . S
C250 C251 1.395 . S
C250 C252 1.320 . S
C251 C249 1.339 . S
C251 C250 1.395 . S
C251 H277 0.929 . S
C252 C250 1.320 . S
C252 C253 1.405 . S
C252 H278 0.930 . S
C253 C248 1.479 . S
C253 C252 1.405 . S
C253 H279 0.931 . S
U254 O255 2.454 1_565 S
U254 O256 2.458 1_565 S
U254 C257 2.984 1_565 S
U254 C258 2.847 . S
U254 C271 2.882 . S
U254 O272 2.441 . S
U254 O273 2.420 . S
U254 O274 2.455 . S
U254 O275 2.449 . S
O255 U254 2.454 1_545 S
O255 C257 1.353 . S
O256 U254 2.458 1_545 S
O256 C257 1.286 . S
C257 U254 2.984 1_545 S
C257 O255 1.353 . S
C257 O256 1.286 . S
C257 C259 1.363 . S
C258 C248 1.465 . S
C258 U254 2.847 . S
C258 O272 1.249 . S
C258 O273 1.202 . S
C259 C257 1.363 . S
C259 C261 1.408 . S
C259 C264 1.342 . S
C260 C261 1.310 . S
C260 C263 1.461 . S
C260 H280 0.932 . S
C261 C259 1.408 . S
C261 C260 1.310 . S
C261 H281 0.930 . S
C262 C263 1.474 . S
C262 C264 1.285 . S
C262 H282 0.929 . S
C263 C260 1.461 . S
C263 C262 1.474 . S
C264 C259 1.342 . S
C264 C262 1.285 . S
C264 H283 0.930 . S
C265 C268 1.424 . S
C265 C270 1.245 . S
C265 C271 1.428 . S
C266 C269 1.260 . S
C266 C270 1.477 . S
C266 H284 0.932 . S
C267 C268 1.384 . S
C267 C269 1.479 . S
C267 H285 0.929 . S
C268 C265 1.424 . S
C268 C267 1.384 . S
C268 H286 0.928 . S
C269 C266 1.260 . S
C269 C267 1.479 . S
C270 C265 1.245 . S
C270 C266 1.477 . S
C270 H287 0.932 . S
C271 U254 2.882 . S
C271 C265 1.428 . S
C271 O274 1.301 . S
C271 O275 1.282 . S
O272 U254 2.441 . S
O272 C258 1.249 . S
O273 U254 2.420 . S
O273 C258 1.202 . S
O274 U254 2.455 . S
O274 C271 1.301 . S
O275 U254 2.449 . S
O275 C271 1.282 . S
H276 C249 0.931 . S
H277 C251 0.929 . S
H278 C252 0.930 . S
H279 C253 0.931 . S
H280 C260 0.932 . S
H281 C261 0.930 . S
H282 C262 0.929 . S
H283 C264 0.930 . S
H284 C266 0.932 . S
H285 C267 0.929 . S
H286 C268 0.928 . S
H287 C270 0.932 . S
C288 C289 1.264 . S
C288 C293 1.479 . S
C288 C298 1.465 . S
C289 C288 1.264 . S
C289 C291 1.339 . S
C289 H316 0.931 . S
C290 C291 1.395 . S
C290 C292 1.320 . S
C291 C289 1.339 . S
C291 C290 1.395 . S
C291 H317 0.929 . S
C292 C290 1.320 . S
C292 C293 1.405 . S
C292 H318 0.930 . S
C293 C288 1.479 . S
C293 C292 1.405 . S
C293 H319 0.931 . S
U294 O295 2.454 . S
U294 O296 2.458 1_556 S
U294 C297 2.984 . S
U294 C298 2.847 . S
U294 C311 2.882 1_556 S
U294 O312 2.441 . S
U294 O313 2.420 . S
U294 O314 2.455 1_556 S
U294 O315 2.449 1_556 S
O295 U294 2.454 . S
O295 C297 1.353 . S
O296 U294 2.458 1_554 S
O296 C297 1.286 1_554 S
C297 U294 2.984 . S
C297 O295 1.353 . S
C297 O296 1.286 1_556 S
C297 C299 1.363 . S
C298 C288 1.465 . S
C298 U294 2.847 . S
C298 O312 1.249 . S
C298 O313 1.202 . S
C299 C297 1.363 . S
C299 C301 1.409 . S
C299 C304 1.341 1_556 S
C300 C301 1.310 . S
C300 C303 1.461 1_556 S
C300 H320 0.932 . S
C301 C299 1.409 . S
C301 C300 1.310 . S
C301 H321 0.930 . S
C302 C303 1.474 . S
C302 C304 1.285 . S
C302 H322 0.929 . S
C303 C300 1.461 1_554 S
C303 C302 1.474 . S
C304 C299 1.341 1_554 S
C304 C302 1.285 . S
C304 H323 0.930 . S
C305 C308 1.424 . S
C305 C310 1.245 . S
C305 C311 1.428 . S
C306 C309 1.260 . S
C306 C310 1.477 . S
C306 H324 0.932 . S
C307 C308 1.384 . S
C307 C309 1.479 . S
C307 H325 0.929 . S
C308 C305 1.424 . S
C308 C307 1.384 . S
C308 H326 0.928 . S
C309 C306 1.260 . S
C309 C307 1.479 . S
C310 C305 1.245 . S
C310 C306 1.477 . S
C310 H327 0.932 . S
C311 U294 2.882 1_554 S
C311 C305 1.428 . S
C311 O314 1.301 . S
C311 O315 1.282 . S
O312 U294 2.441 . S
O312 C298 1.249 . S
O313 U294 2.420 . S
O313 C298 1.202 . S
O314 U294 2.455 1_554 S
O314 C311 1.301 . S
O315 U294 2.449 1_554 S
O315 C311 1.282 . S
H316 C289 0.931 . S
H317 C291 0.929 . S
H318 C292 0.930 . S
H319 C293 0.931 . S
H320 C300 0.932 . S
H321 C301 0.930 . S
H322 C302 0.929 . S
H323 C304 0.930 . S
H324 C306 0.932 . S
H325 C307 0.929 . S
H326 C308 0.928 . S
H327 C310 0.932 . S
C328 C329 1.264 . S
C328 C333 1.479 . S
C328 C338 1.465 . S
C329 C328 1.264 . S
C329 C331 1.339 . S
C329 H356 0.931 . S
C330 C331 1.395 . S
C330 C332 1.320 . S
C331 C329 1.339 . S
C331 C330 1.395 . S
C331 H357 0.929 . S
C332 C330 1.320 . S
C332 C333 1.405 . S
C332 H358 0.930 . S
C333 C328 1.479 . S
C333 C332 1.405 . S
C333 H359 0.931 . S
U334 O335 2.454 1_545 S
U334 O336 2.458 1_545 S
U334 C337 2.984 1_545 S
U334 C338 2.847 . S
U334 C351 2.882 . S
U334 O352 2.441 . S
U334 O353 2.420 . S
U334 O354 2.455 . S
U334 O355 2.449 . S
O335 U334 2.454 1_565 S
O335 C337 1.353 . S
O336 U334 2.458 1_565 S
O336 C337 1.286 . S
C337 U334 2.984 1_565 S
C337 O335 1.353 . S
C337 O336 1.286 . S
C337 C339 1.363 . S
C338 C328 1.465 . S
C338 U334 2.847 . S
C338 O352 1.249 . S
C338 O353 1.202 . S
C339 C337 1.363 . S
C339 C341 1.408 . S
C339 C344 1.342 . S
C340 C341 1.310 . S
C340 C343 1.461 . S
C340 H360 0.932 . S
C341 C339 1.408 . S
C341 C340 1.310 . S
C341 H361 0.930 . S
C342 C343 1.474 . S
C342 C344 1.285 . S
C342 H362 0.929 . S
C343 C340 1.461 . S
C343 C342 1.474 . S
C344 C339 1.342 . S
C344 C342 1.285 . S
C344 H363 0.930 . S
C345 C348 1.424 . S
C345 C350 1.245 . S
C345 C351 1.428 . S
C346 C349 1.260 . S
C346 C350 1.477 . S
C346 H364 0.932 . S
C347 C348 1.384 . S
C347 C349 1.479 . S
C347 H365 0.929 . S
C348 C345 1.424 . S
C348 C347 1.384 . S
C348 H366 0.928 . S
C349 C346 1.260 . S
C349 C347 1.479 . S
C350 C345 1.245 . S
C350 C346 1.477 . S
C350 H367 0.932 . S
C351 U334 2.882 . S
C351 C345 1.428 . S
C351 O354 1.301 . S
C351 O355 1.282 . S
O352 U334 2.441 . S
O352 C338 1.249 . S
O353 U334 2.420 . S
O353 C338 1.202 . S
O354 U334 2.455 . S
O354 C351 1.301 . S
O355 U334 2.449 . S
O355 C351 1.282 . S
H356 C329 0.931 . S
H357 C331 0.929 . S
H358 C332 0.930 . S
H359 C333 0.931 . S
H360 C340 0.932 . S
H361 C341 0.930 . S
H362 C342 0.929 . S
H363 C344 0.930 . S
H364 C346 0.932 . S
H365 C347 0.929 . S
H366 C348 0.928 . S
H367 C350 0.932 . S
C368 C369 1.264 . S
C368 C373 1.479 . S
C368 C378 1.465 . S
C369 C368 1.264 . S
C369 C371 1.339 . S
C369 H396 0.931 . S
C370 C371 1.395 . S
C370 C372 1.320 . S
C371 C369 1.339 . S
C371 C370 1.395 . S
C371 H397 0.929 . S
C372 C370 1.320 . S
C372 C373 1.405 . S
C372 H398 0.930 . S
C373 C368 1.479 . S
C373 C372 1.405 . S
C373 H399 0.931 . S
U374 O375 2.454 . S
U374 O376 2.458 1_554 S
U374 C377 2.984 . S
U374 C378 2.847 . S
U374 C391 2.882 1_554 S
U374 O392 2.441 . S
U374 O393 2.420 . S
U374 O394 2.455 1_554 S
U374 O395 2.449 1_554 S
O375 U374 2.454 . S
O375 C377 1.353 . S
O376 U374 2.458 1_556 S
O376 C377 1.286 1_556 S
C377 U374 2.984 . S
C377 O375 1.353 . S
C377 O376 1.286 1_554 S
C377 C379 1.363 . S
C378 C368 1.465 . S
C378 U374 2.847 . S
C378 O392 1.249 . S
C378 O393 1.202 . S
C379 C377 1.363 . S
C379 C381 1.408 . S
C379 C384 1.342 1_554 S
C380 C381 1.310 . S
C380 C383 1.461 . S
C380 H400 0.932 . S
C381 C379 1.408 . S
C381 C380 1.310 . S
C381 H401 0.930 . S
C382 C383 1.474 1_556 S
C382 C384 1.285 . S
C382 H402 0.929 . S
C383 C380 1.461 . S
C383 C382 1.474 1_554 S
C384 C379 1.342 1_556 S
C384 C382 1.285 . S
C384 H403 0.930 . S
C385 C388 1.424 . S
C385 C390 1.245 . S
C385 C391 1.428 . S
C386 C389 1.260 . S
C386 C390 1.477 . S
C386 H404 0.932 . S
C387 C388 1.384 . S
C387 C389 1.479 . S
C387 H405 0.929 . S
C388 C385 1.424 . S
C388 C387 1.384 . S
C388 H406 0.928 . S
C389 C386 1.260 . S
C389 C387 1.479 . S
C390 C385 1.245 . S
C390 C386 1.477 . S
C390 H407 0.932 . S
C391 U374 2.882 1_556 S
C391 C385 1.428 . S
C391 O394 1.301 . S
C391 O395 1.282 . S
O392 U374 2.441 . S
O392 C378 1.249 . S
O393 U374 2.420 . S
O393 C378 1.202 . S
O394 U374 2.455 1_556 S
O394 C391 1.301 . S
O395 U374 2.449 1_556 S
O395 C391 1.282 . S
H396 C369 0.931 . S
H397 C371 0.929 . S
H398 C372 0.930 . S
H399 C373 0.931 . S
H400 C380 0.932 . S
H401 C381 0.930 . S
H402 C382 0.929 . S
H403 C384 0.930 . S
H404 C386 0.932 . S
H405 C387 0.929 . S
H406 C388 0.928 . S
H407 C390 0.932 . S
H408 C426 0.951 . S
H409 C428 0.951 . S
H410 C430 0.950 . S
H411 C431 0.950 . S
H412 C433 0.950 . S
H413 C436 0.950 . S
H414 C437 0.950 . S
H415 C439 0.950 . S
H416 C440 0.950 . S
H417 C441 0.951 . S
H418 C443 0.951 . S
H419 C445 0.950 . S
H420 C446 0.950 . S
H421 C448 0.950 . S
H422 C451 0.950 . S
H423 C452 0.950 . S
H424 C454 0.950 . S
H425 C455 0.950 . S
C426 H408 0.951 . S
C426 C427 1.366 . S
C426 C428 1.388 . S
C427 C426 1.366 . S
C427 C431 1.385 . S
C428 H409 0.951 . S
C428 C426 1.388 . S
C428 C429 1.366 . S
C429 C428 1.366 . S
C429 C430 1.414 . S
C429 C432 1.499 . S
C430 H410 0.950 . S
C430 C429 1.414 . S
C430 C431 1.374 . S
C431 H411 0.950 . S
C431 C427 1.385 . S
C431 C430 1.374 . S
C432 C429 1.499 . S
C432 C433 1.373 . S
C432 C434 1.389 . S
C433 H412 0.950 . S
C433 C432 1.373 . S
C433 C449 1.377 . S
C434 C432 1.389 . S
C434 C435 1.524 . S
C434 C448 1.377 . S
C435 C434 1.524 . S
C435 C436 1.397 . S
C435 C440 1.363 . S
C436 H413 0.950 . S
C436 C435 1.397 . S
C436 C437 1.334 . S
C437 H414 0.950 . S
C437 C436 1.334 . S
C437 C438 1.287 . S
C438 C437 1.287 . S
C438 C439 1.524 . S
C438 H457 0.913 . S
C439 H415 0.950 . S
C439 C438 1.524 . S
C439 C440 1.415 . S
C440 H416 0.950 . S
C440 C435 1.363 . S
C440 C439 1.415 . S
C441 H417 0.951 . S
C441 C442 1.366 . S
C441 C443 1.388 . S
C442 C441 1.366 . S
C442 C446 1.385 . S
C443 H418 0.951 . S
C443 C441 1.388 . S
C443 C444 1.366 . S
C444 C443 1.366 . S
C444 C445 1.414 . S
C444 C447 1.499 . S
C445 H419 0.950 . S
C445 C444 1.414 . S
C445 C446 1.374 . S
C446 H420 0.950 . S
C446 C442 1.385 . S
C446 C445 1.374 . S
C447 C444 1.499 . S
C447 C448 1.373 . S
C447 C449 1.389 . S
C448 H421 0.950 . S
C448 C434 1.377 . S
C448 C447 1.373 . S
C449 C433 1.377 . S
C449 C447 1.389 . S
C449 C450 1.524 . S
C450 C449 1.524 . S
C450 C451 1.397 . S
C450 C455 1.363 . S
C451 H422 0.950 . S
C451 C450 1.397 . S
C451 C452 1.334 . S
C452 H423 0.950 . S
C452 C451 1.334 . S
C452 C453 1.287 . S
C453 C452 1.287 . S
C453 C454 1.524 . S
C453 H456 0.999 . S
C454 H424 0.950 . S
C454 C453 1.524 . S
C454 C455 1.415 . S
C455 H425 0.950 . S
C455 C450 1.363 . S
C455 C454 1.415 . S
H456 C453 0.999 . S
H457 C438 0.913 . S
H458 C476 0.951 . S
H459 C478 0.951 . S
H460 C480 0.950 . S
H461 C481 0.950 . S
H462 C483 0.950 . S
H463 C486 0.950 . S
H464 C487 0.950 . S
H465 C489 0.950 . S
H466 C490 0.950 . S
H467 C491 0.951 . S
H468 C493 0.951 . S
H469 C495 0.950 . S
H470 C496 0.950 . S
H471 C498 0.950 . S
H472 C501 0.950 . S
H473 C502 0.950 . S
H474 C504 0.950 . S
H475 C505 0.950 . S
C476 H458 0.951 . S
C476 C477 1.366 . S
C476 C478 1.388 . S
C477 C476 1.366 . S
C477 C481 1.385 . S
C478 H459 0.951 . S
C478 C476 1.388 . S
C478 C479 1.366 . S
C479 C478 1.366 . S
C479 C480 1.414 . S
C479 C482 1.499 . S
C480 H460 0.950 . S
C480 C479 1.414 . S
C480 C481 1.374 . S
C481 H461 0.950 . S
C481 C477 1.385 . S
C481 C480 1.374 . S
C482 C479 1.499 . S
C482 C483 1.373 . S
C482 C484 1.389 . S
C483 H462 0.950 . S
C483 C482 1.373 . S
C483 C499 1.377 . S
C484 C482 1.389 . S
C484 C485 1.524 . S
C484 C498 1.377 . S
C485 C484 1.524 . S
C485 C486 1.397 . S
C485 C490 1.363 . S
C486 H463 0.950 . S
C486 C485 1.397 . S
C486 C487 1.334 . S
C487 H464 0.950 . S
C487 C486 1.334 . S
C487 C488 1.287 . S
C488 C487 1.287 . S
C488 C489 1.524 . S
C488 H507 0.913 . S
C489 H465 0.950 . S
C489 C488 1.524 . S
C489 C490 1.415 . S
C490 H466 0.950 . S
C490 C485 1.363 . S
C490 C489 1.415 . S
C491 H467 0.951 . S
C491 C492 1.366 . S
C491 C493 1.388 . S
C492 C491 1.366 . S
C492 C496 1.385 . S
C493 H468 0.951 . S
C493 C491 1.388 . S
C493 C494 1.366 . S
C494 C493 1.366 . S
C494 C495 1.414 . S
C494 C497 1.499 . S
C495 H469 0.950 . S
C495 C494 1.414 . S
C495 C496 1.374 . S
C496 H470 0.950 . S
C496 C492 1.385 . S
C496 C495 1.374 . S
C497 C494 1.499 . S
C497 C498 1.373 . S
C497 C499 1.389 . S
C498 H471 0.950 . S
C498 C484 1.377 . S
C498 C497 1.373 . S
C499 C483 1.377 . S
C499 C497 1.389 . S
C499 C500 1.524 . S
C500 C499 1.524 . S
C500 C501 1.397 . S
C500 C505 1.363 . S
C501 H472 0.950 . S
C501 C500 1.397 . S
C501 C502 1.334 . S
C502 H473 0.950 . S
C502 C501 1.334 . S
C502 C503 1.287 . S
C503 C502 1.287 . S
C503 C504 1.524 . S
C503 H506 0.999 . S
C504 H474 0.950 . S
C504 C503 1.524 . S
C504 C505 1.415 . S
C505 H475 0.950 . S
C505 C500 1.363 . S
C505 C504 1.415 . S
H506 C503 0.999 . S
H507 C488 0.913 . S
H508 C526 0.951 . S
H509 C528 0.951 . S
H510 C530 0.950 . S
H511 C531 0.950 . S
H512 C533 0.950 . S
H513 C536 0.950 . S
H514 C537 0.950 . S
H515 C539 0.950 . S
H516 C540 0.950 . S
H517 C541 0.951 . S
H518 C543 0.951 . S
H519 C545 0.950 . S
H520 C546 0.950 . S
H521 C548 0.950 . S
H522 C551 0.950 . S
H523 C552 0.950 . S
H524 C554 0.950 . S
H525 C555 0.950 . S
C526 H508 0.951 . S
C526 C527 1.366 . S
C526 C528 1.388 . S
C527 C526 1.366 . S
C527 C531 1.385 . S
C528 H509 0.951 . S
C528 C526 1.388 . S
C528 C529 1.366 . S
C529 C528 1.366 . S
C529 C530 1.414 . S
C529 C532 1.499 . S
C530 H510 0.950 . S
C530 C529 1.414 . S
C530 C531 1.374 . S
C531 H511 0.950 . S
C531 C527 1.385 . S
C531 C530 1.374 . S
C532 C529 1.499 . S
C532 C533 1.373 . S
C532 C534 1.389 . S
C533 H512 0.950 . S
C533 C532 1.373 . S
C533 C549 1.377 . S
C534 C532 1.389 . S
C534 C535 1.524 . S
C534 C548 1.377 . S
C535 C534 1.524 . S
C535 C536 1.397 . S
C535 C540 1.363 . S
C536 H513 0.950 . S
C536 C535 1.397 . S
C536 C537 1.334 . S
C537 H514 0.950 . S
C537 C536 1.334 . S
C537 C538 1.287 . S
C538 C537 1.287 . S
C538 C539 1.524 . S
C538 H557 0.913 . S
C539 H515 0.950 . S
C539 C538 1.524 . S
C539 C540 1.415 . S
C540 H516 0.950 . S
C540 C535 1.363 . S
C540 C539 1.415 . S
C541 H517 0.951 . S
C541 C542 1.366 . S
C541 C543 1.388 . S
C542 C541 1.366 . S
C542 C546 1.385 . S
C543 H518 0.951 . S
C543 C541 1.388 . S
C543 C544 1.366 . S
C544 C543 1.366 . S
C544 C545 1.414 . S
C544 C547 1.499 . S
C545 H519 0.950 . S
C545 C544 1.414 . S
C545 C546 1.374 . S
C546 H520 0.950 . S
C546 C542 1.385 . S
C546 C545 1.374 . S
C547 C544 1.499 . S
C547 C548 1.373 . S
C547 C549 1.389 . S
C548 H521 0.950 . S
C548 C534 1.377 . S
C548 C547 1.373 . S
C549 C533 1.377 . S
C549 C547 1.389 . S
C549 C550 1.524 . S
C550 C549 1.524 . S
C550 C551 1.397 . S
C550 C555 1.363 . S
C551 H522 0.950 . S
C551 C550 1.397 . S
C551 C552 1.334 . S
C552 H523 0.950 . S
C552 C551 1.334 . S
C552 C553 1.287 . S
C553 C552 1.287 . S
C553 C554 1.524 . S
C553 H556 0.999 . S
C554 H524 0.950 . S
C554 C553 1.524 . S
C554 C555 1.415 . S
C555 H525 0.950 . S
C555 C550 1.363 . S
C555 C554 1.415 . S
H556 C553 0.999 . S
H557 C538 0.913 . S
H558 C576 0.951 . S
H559 C578 0.951 . S
H560 C580 0.950 . S
H561 C581 0.950 . S
H562 C583 0.950 . S
H563 C586 0.950 . S
H564 C587 0.950 . S
H565 C589 0.950 . S
H566 C590 0.950 . S
H567 C591 0.951 . S
H568 C593 0.951 . S
H569 C595 0.950 . S
H570 C596 0.950 . S
H571 C598 0.950 . S
H572 C601 0.950 . S
H573 C602 0.950 . S
H574 C604 0.950 . S
H575 C605 0.950 . S
C576 H558 0.951 . S
C576 C577 1.366 . S
C576 C578 1.388 . S
C577 C576 1.366 . S
C577 C581 1.385 . S
C578 H559 0.951 . S
C578 C576 1.388 . S
C578 C579 1.366 . S
C579 C578 1.366 . S
C579 C580 1.414 . S
C579 C582 1.499 . S
C580 H560 0.950 . S
C580 C579 1.414 . S
C580 C581 1.374 . S
C581 H561 0.950 . S
C581 C577 1.385 . S
C581 C580 1.374 . S
C582 C579 1.499 . S
C582 C583 1.373 . S
C582 C584 1.389 . S
C583 H562 0.950 . S
C583 C582 1.373 . S
C583 C599 1.377 . S
C584 C582 1.389 . S
C584 C585 1.524 . S
C584 C598 1.377 . S
C585 C584 1.524 . S
C585 C586 1.397 . S
C585 C590 1.363 . S
C586 H563 0.950 . S
C586 C585 1.397 . S
C586 C587 1.334 . S
C587 H564 0.950 . S
C587 C586 1.334 . S
C587 C588 1.287 . S
C588 C587 1.287 . S
C588 C589 1.524 . S
C588 H607 0.913 . S
C589 H565 0.950 . S
C589 C588 1.524 . S
C589 C590 1.415 . S
C590 H566 0.950 . S
C590 C585 1.363 . S
C590 C589 1.415 . S
C591 H567 0.951 . S
C591 C592 1.366 . S
C591 C593 1.388 . S
C592 C591 1.366 . S
C592 C596 1.385 . S
C593 H568 0.951 . S
C593 C591 1.388 . S
C593 C594 1.366 . S
C594 C593 1.366 . S
C594 C595 1.414 . S
C594 C597 1.499 . S
C595 H569 0.950 . S
C595 C594 1.414 . S
C595 C596 1.374 . S
C596 H570 0.950 . S
C596 C592 1.385 . S
C596 C595 1.374 . S
C597 C594 1.499 . S
C597 C598 1.373 . S
C597 C599 1.389 . S
C598 H571 0.950 . S
C598 C584 1.377 . S
C598 C597 1.373 . S
C599 C583 1.377 . S
C599 C597 1.389 . S
C599 C600 1.524 . S
C600 C599 1.524 . S
C600 C601 1.397 . S
C600 C605 1.363 . S
C601 H572 0.950 . S
C601 C600 1.397 . S
C601 C602 1.334 . S
C602 H573 0.950 . S
C602 C601 1.334 . S
C602 C603 1.287 . S
C603 C602 1.287 . S
C603 C604 1.524 . S
C603 H606 0.999 . S
C604 H574 0.950 . S
C604 C603 1.524 . S
C604 C605 1.415 . S
C605 H575 0.950 . S
C605 C600 1.363 . S
C605 C604 1.415 . S
H606 C603 0.999 . S
H607 C588 0.913 . S
H608 C626 0.951 . S
H609 C628 0.951 . S
H610 C630 0.950 . S
H611 C631 0.950 . S
H612 C633 0.950 . S
H613 C636 0.950 . S
H614 C637 0.950 . S
H615 C639 0.950 . S
H616 C640 0.950 . S
H617 C641 0.951 . S
H618 C643 0.951 . S
H619 C645 0.950 . S
H620 C646 0.950 . S
H621 C648 0.950 . S
H622 C651 0.950 . S
H623 C652 0.950 . S
H624 C654 0.950 . S
H625 C655 0.950 . S
C626 H608 0.951 . S
C626 C627 1.366 . S
C626 C628 1.388 . S
C627 C626 1.366 . S
C627 C631 1.385 . S
C628 H609 0.951 . S
C628 C626 1.388 . S
C628 C629 1.366 . S
C629 C628 1.366 . S
C629 C630 1.414 . S
C629 C632 1.499 . S
C630 H610 0.950 . S
C630 C629 1.414 . S
C630 C631 1.374 . S
C631 H611 0.950 . S
C631 C627 1.385 . S
C631 C630 1.374 . S
C632 C629 1.499 . S
C632 C633 1.373 . S
C632 C634 1.389 . S
C633 H612 0.950 . S
C633 C632 1.373 . S
C633 C649 1.377 . S
C634 C632 1.389 . S
C634 C635 1.524 . S
C634 C648 1.377 . S
C635 C634 1.524 . S
C635 C636 1.397 . S
C635 C640 1.363 . S
C636 H613 0.950 . S
C636 C635 1.397 . S
C636 C637 1.334 . S
C637 H614 0.950 . S
C637 C636 1.334 . S
C637 C638 1.287 . S
C638 C637 1.287 . S
C638 C639 1.524 . S
C638 H657 0.913 . S
C639 H615 0.950 . S
C639 C638 1.524 . S
C639 C640 1.415 . S
C640 H616 0.950 . S
C640 C635 1.363 . S
C640 C639 1.415 . S
C641 H617 0.951 . S
C641 C642 1.366 . S
C641 C643 1.388 . S
C642 C641 1.366 . S
C642 C646 1.385 . S
C643 H618 0.951 . S
C643 C641 1.388 . S
C643 C644 1.366 . S
C644 C643 1.366 . S
C644 C645 1.414 . S
C644 C647 1.499 . S
C645 H619 0.950 . S
C645 C644 1.414 . S
C645 C646 1.374 . S
C646 H620 0.950 . S
C646 C642 1.385 . S
C646 C645 1.374 . S
C647 C644 1.499 . S
C647 C648 1.373 . S
C647 C649 1.389 . S
C648 H621 0.950 . S
C648 C634 1.377 . S
C648 C647 1.373 . S
C649 C633 1.377 . S
C649 C647 1.389 . S
C649 C650 1.524 . S
C650 C649 1.524 . S
C650 C651 1.397 . S
C650 C655 1.363 . S
C651 H622 0.950 . S
C651 C650 1.397 . S
C651 C652 1.334 . S
C652 H623 0.950 . S
C652 C651 1.334 . S
C652 C653 1.287 . S
C653 C652 1.287 . S
C653 C654 1.524 . S
C653 H656 0.999 . S
C654 H624 0.950 . S
C654 C653 1.524 . S
C654 C655 1.415 . S
C655 H625 0.950 . S
C655 C650 1.363 . S
C655 C654 1.415 . S
H656 C653 0.999 . S
H657 C638 0.913 . S
H658 C676 0.951 . S
H659 C678 0.951 . S
H660 C680 0.950 . S
H661 C681 0.950 . S
H662 C683 0.950 . S
H663 C686 0.950 . S
H664 C687 0.950 . S
H665 C689 0.950 . S
H666 C690 0.950 . S
H667 C691 0.951 . S
H668 C693 0.951 . S
H669 C695 0.950 . S
H670 C696 0.950 . S
H671 C698 0.950 . S
H672 C701 0.950 . S
H673 C702 0.950 . S
H674 C704 0.950 . S
H675 C705 0.950 . S
C676 H658 0.951 . S
C676 C677 1.366 . S
C676 C678 1.388 . S
C677 C676 1.366 . S
C677 C681 1.385 . S
C678 H659 0.951 . S
C678 C676 1.388 . S
C678 C679 1.366 . S
C679 C678 1.366 . S
C679 C680 1.414 . S
C679 C682 1.499 . S
C680 H660 0.950 . S
C680 C679 1.414 . S
C680 C681 1.374 . S
C681 H661 0.950 . S
C681 C677 1.385 . S
C681 C680 1.374 . S
C682 C679 1.499 . S
C682 C683 1.373 . S
C682 C684 1.389 . S
C683 H662 0.950 . S
C683 C682 1.373 . S
C683 C699 1.377 . S
C684 C682 1.389 . S
C684 C685 1.524 . S
C684 C698 1.377 . S
C685 C684 1.524 . S
C685 C686 1.397 . S
C685 C690 1.363 . S
C686 H663 0.950 . S
C686 C685 1.397 . S
C686 C687 1.334 . S
C687 H664 0.950 . S
C687 C686 1.334 . S
C687 C688 1.287 . S
C688 C687 1.287 . S
C688 C689 1.524 . S
C688 H707 0.913 . S
C689 H665 0.950 . S
C689 C688 1.524 . S
C689 C690 1.415 . S
C690 H666 0.950 . S
C690 C685 1.363 . S
C690 C689 1.415 . S
C691 H667 0.951 . S
C691 C692 1.366 . S
C691 C693 1.388 . S
C692 C691 1.366 . S
C692 C696 1.385 . S
C693 H668 0.951 . S
C693 C691 1.388 . S
C693 C694 1.366 . S
C694 C693 1.366 . S
C694 C695 1.414 . S
C694 C697 1.499 . S
C695 H669 0.950 . S
C695 C694 1.414 . S
C695 C696 1.374 . S
C696 H670 0.950 . S
C696 C692 1.385 . S
C696 C695 1.374 . S
C697 C694 1.499 . S
C697 C698 1.373 . S
C697 C699 1.389 . S
C698 H671 0.950 . S
C698 C684 1.377 . S
C698 C697 1.373 . S
C699 C683 1.377 . S
C699 C697 1.389 . S
C699 C700 1.524 . S
C700 C699 1.524 . S
C700 C701 1.397 . S
C700 C705 1.363 . S
C701 H672 0.950 . S
C701 C700 1.397 . S
C701 C702 1.334 . S
C702 H673 0.950 . S
C702 C701 1.334 . S
C702 C703 1.287 . S
C703 C702 1.287 . S
C703 C704 1.524 . S
C703 H706 0.999 . S
C704 H674 0.950 . S
C704 C703 1.524 . S
C704 C705 1.415 . S
C705 H675 0.950 . S
C705 C700 1.363 . S
C705 C704 1.415 . S
H706 C703 0.999 . S
H707 C688 0.913 . S
H708 C726 0.951 . S
H709 C728 0.951 . S
H710 C730 0.950 . S
H711 C731 0.950 . S
H712 C733 0.950 . S
H713 C736 0.950 . S
H714 C737 0.950 . S
H715 C739 0.950 . S
H716 C740 0.950 . S
H717 C741 0.951 . S
H718 C743 0.951 . S
H719 C745 0.950 . S
H720 C746 0.950 . S
H721 C748 0.950 . S
H722 C751 0.950 . S
H723 C752 0.950 . S
H724 C754 0.950 . S
H725 C755 0.950 . S
C726 H708 0.951 . S
C726 C727 1.366 . S
C726 C728 1.388 . S
C727 C726 1.366 . S
C727 C731 1.385 . S
C728 H709 0.951 . S
C728 C726 1.388 . S
C728 C729 1.366 . S
C729 C728 1.366 . S
C729 C730 1.414 . S
C729 C732 1.499 . S
C730 H710 0.950 . S
C730 C729 1.414 . S
C730 C731 1.374 . S
C731 H711 0.950 . S
C731 C727 1.385 . S
C731 C730 1.374 . S
C732 C729 1.499 . S
C732 C733 1.373 . S
C732 C734 1.389 . S
C733 H712 0.950 . S
C733 C732 1.373 . S
C733 C749 1.377 . S
C734 C732 1.389 . S
C734 C735 1.524 . S
C734 C748 1.377 . S
C735 C734 1.524 . S
C735 C736 1.397 . S
C735 C740 1.363 . S
C736 H713 0.950 . S
C736 C735 1.397 . S
C736 C737 1.334 . S
C737 H714 0.950 . S
C737 C736 1.334 . S
C737 C738 1.287 . S
C738 C737 1.287 . S
C738 C739 1.524 . S
C738 H757 0.913 . S
C739 H715 0.950 . S
C739 C738 1.524 . S
C739 C740 1.415 . S
C740 H716 0.950 . S
C740 C735 1.363 . S
C740 C739 1.415 . S
C741 H717 0.951 . S
C741 C742 1.366 . S
C741 C743 1.388 . S
C742 C741 1.366 . S
C742 C746 1.385 . S
C743 H718 0.951 . S
C743 C741 1.388 . S
C743 C744 1.366 . S
C744 C743 1.366 . S
C744 C745 1.414 . S
C744 C747 1.499 . S
C745 H719 0.950 . S
C745 C744 1.414 . S
C745 C746 1.374 . S
C746 H720 0.950 . S
C746 C742 1.385 . S
C746 C745 1.374 . S
C747 C744 1.499 . S
C747 C748 1.373 . S
C747 C749 1.389 . S
C748 H721 0.950 . S
C748 C734 1.377 . S
C748 C747 1.373 . S
C749 C733 1.377 . S
C749 C747 1.389 . S
C749 C750 1.524 . S
C750 C749 1.524 . S
C750 C751 1.397 . S
C750 C755 1.363 . S
C751 H722 0.950 . S
C751 C750 1.397 . S
C751 C752 1.334 . S
C752 H723 0.950 . S
C752 C751 1.334 . S
C752 C753 1.287 . S
C753 C752 1.287 . S
C753 C754 1.524 . S
C753 H756 0.999 . S
C754 H724 0.950 . S
C754 C753 1.524 . S
C754 C755 1.415 . S
C755 H725 0.950 . S
C755 C750 1.363 . S
C755 C754 1.415 . S
H756 C753 0.999 . S
H757 C738 0.913 . S
H758 C776 0.951 . S
H759 C778 0.951 . S
H760 C780 0.950 . S
H761 C781 0.950 . S
H762 C783 0.950 . S
H763 C786 0.950 . S
H764 C787 0.950 . S
H765 C789 0.950 . S
H766 C790 0.950 . S
H767 C791 0.951 . S
H768 C793 0.951 . S
H769 C795 0.950 . S
H770 C796 0.950 . S
H771 C798 0.950 . S
H772 C801 0.950 . S
H773 C802 0.950 . S
H774 C804 0.950 . S
H775 C805 0.950 . S
C776 H758 0.951 . S
C776 C777 1.366 . S
C776 C778 1.388 . S
C777 C776 1.366 . S
C777 C781 1.385 . S
C778 H759 0.951 . S
C778 C776 1.388 . S
C778 C779 1.366 . S
C779 C778 1.366 . S
C779 C780 1.414 . S
C779 C782 1.499 . S
C780 H760 0.950 . S
C780 C779 1.414 . S
C780 C781 1.374 . S
C781 H761 0.950 . S
C781 C777 1.385 . S
C781 C780 1.374 . S
C782 C779 1.499 . S
C782 C783 1.373 . S
C782 C784 1.389 . S
C783 H762 0.950 . S
C783 C782 1.373 . S
C783 C799 1.377 . S
C784 C782 1.389 . S
C784 C785 1.524 . S
C784 C798 1.377 . S
C785 C784 1.524 . S
C785 C786 1.397 . S
C785 C790 1.363 . S
C786 H763 0.950 . S
C786 C785 1.397 . S
C786 C787 1.334 . S
C787 H764 0.950 . S
C787 C786 1.334 . S
C787 C788 1.287 . S
C788 C787 1.287 . S
C788 C789 1.524 . S
C788 H807 0.913 . S
C789 H765 0.950 . S
C789 C788 1.524 . S
C789 C790 1.415 . S
C790 H766 0.950 . S
C790 C785 1.363 . S
C790 C789 1.415 . S
C791 H767 0.951 . S
C791 C792 1.366 . S
C791 C793 1.388 . S
C792 C791 1.366 . S
C792 C796 1.385 . S
C793 H768 0.951 . S
C793 C791 1.388 . S
C793 C794 1.366 . S
C794 C793 1.366 . S
C794 C795 1.414 . S
C794 C797 1.499 . S
C795 H769 0.950 . S
C795 C794 1.414 . S
C795 C796 1.374 . S
C796 H770 0.950 . S
C796 C792 1.385 . S
C796 C795 1.374 . S
C797 C794 1.499 . S
C797 C798 1.373 . S
C797 C799 1.389 . S
C798 H771 0.950 . S
C798 C784 1.377 . S
C798 C797 1.373 . S
C799 C783 1.377 . S
C799 C797 1.389 . S
C799 C800 1.524 . S
C800 C799 1.524 . S
C800 C801 1.397 . S
C800 C805 1.363 . S
C801 H772 0.950 . S
C801 C800 1.397 . S
C801 C802 1.334 . S
C802 H773 0.950 . S
C802 C801 1.334 . S
C802 C803 1.287 . S
C803 C802 1.287 . S
C803 C804 1.524 . S
C803 H806 0.999 . S
C804 H774 0.950 . S
C804 C803 1.524 . S
C804 C805 1.415 . S
C805 H775 0.950 . S
C805 C800 1.363 . S
C805 C804 1.415 . S
H806 C803 0.999 . S
H807 C788 0.913 . S
H808 C826 0.951 . S
H809 C828 0.951 . S
H810 C830 0.950 . S
H811 C831 0.950 . S
H812 C833 0.950 . S
H813 C836 0.950 . S
H814 C837 0.950 . S
H815 C839 0.950 . S
H816 C840 0.950 . S
H817 C841 0.951 . S
H818 C843 0.951 . S
H819 C845 0.950 . S
H820 C846 0.950 . S
H821 C848 0.950 . S
H822 C851 0.950 . S
H823 C852 0.950 . S
H824 C854 0.950 . S
H825 C855 0.950 . S
C826 H808 0.951 . S
C826 C827 1.366 . S
C826 C828 1.388 . S
C827 C826 1.366 . S
C827 C831 1.385 . S
C828 H809 0.951 . S
C828 C826 1.388 . S
C828 C829 1.366 . S
C829 C828 1.366 . S
C829 C830 1.414 . S
C829 C832 1.499 . S
C830 H810 0.950 . S
C830 C829 1.414 . S
C830 C831 1.374 . S
C831 H811 0.950 . S
C831 C827 1.385 . S
C831 C830 1.374 . S
C832 C829 1.499 . S
C832 C833 1.373 . S
C832 C834 1.389 . S
C833 H812 0.950 . S
C833 C832 1.373 . S
C833 C849 1.377 . S
C834 C832 1.389 . S
C834 C835 1.524 . S
C834 C848 1.377 . S
C835 C834 1.524 . S
C835 C836 1.397 . S
C835 C840 1.363 . S
C836 H813 0.950 . S
C836 C835 1.397 . S
C836 C837 1.334 . S
C837 H814 0.950 . S
C837 C836 1.334 . S
C837 C838 1.287 . S
C838 C837 1.287 . S
C838 C839 1.524 . S
C838 H857 0.913 . S
C839 H815 0.950 . S
C839 C838 1.524 . S
C839 C840 1.415 . S
C840 H816 0.950 . S
C840 C835 1.363 . S
C840 C839 1.415 . S
C841 H817 0.951 . S
C841 C842 1.366 . S
C841 C843 1.388 . S
C842 C841 1.366 . S
C842 C846 1.385 . S
C843 H818 0.951 . S
C843 C841 1.388 . S
C843 C844 1.366 . S
C844 C843 1.366 . S
C844 C845 1.414 . S
C844 C847 1.499 . S
C845 H819 0.950 . S
C845 C844 1.414 . S
C845 C846 1.374 . S
C846 H820 0.950 . S
C846 C842 1.385 . S
C846 C845 1.374 . S
C847 C844 1.499 . S
C847 C848 1.373 . S
C847 C849 1.389 . S
C848 H821 0.950 . S
C848 C834 1.377 . S
C848 C847 1.373 . S
C849 C833 1.377 . S
C849 C847 1.389 . S
C849 C850 1.524 . S
C850 C849 1.524 . S
C850 C851 1.397 . S
C850 C855 1.363 . S
C851 H822 0.950 . S
C851 C850 1.397 . S
C851 C852 1.334 . S
C852 H823 0.950 . S
C852 C851 1.334 . S
C852 C853 1.287 . S
C853 C852 1.287 . S
C853 C854 1.524 . S
C853 H856 0.999 . S
C854 H824 0.950 . S
C854 C853 1.524 . S
C854 C855 1.415 . S
C855 H825 0.950 . S
C855 C850 1.363 . S
C855 C854 1.415 . S
H856 C853 0.999 . S
H857 C838 0.913 . S
H858 C876 0.951 . S
H859 C878 0.951 . S
H860 C880 0.950 . S
H861 C881 0.950 . S
H862 C883 0.950 . S
H863 C886 0.950 . S
H864 C887 0.950 . S
H865 C889 0.950 . S
H866 C890 0.950 . S
H867 C891 0.951 . S
H868 C893 0.951 . S
H869 C895 0.950 . S
H870 C896 0.950 . S
H871 C898 0.950 . S
H872 C901 0.950 . S
H873 C902 0.950 . S
H874 C904 0.950 . S
H875 C905 0.950 . S
C876 H858 0.951 . S
C876 C877 1.366 . S
C876 C878 1.388 . S
C877 C876 1.366 . S
C877 C881 1.385 . S
C878 H859 0.951 . S
C878 C876 1.388 . S
C878 C879 1.366 . S
C879 C878 1.366 . S
C879 C880 1.414 . S
C879 C882 1.499 . S
C880 H860 0.950 . S
C880 C879 1.414 . S
C880 C881 1.374 . S
C881 H861 0.950 . S
C881 C877 1.385 . S
C881 C880 1.374 . S
C882 C879 1.499 . S
C882 C883 1.373 . S
C882 C884 1.389 . S
C883 H862 0.950 . S
C883 C882 1.373 . S
C883 C899 1.377 . S
C884 C882 1.389 . S
C884 C885 1.524 . S
C884 C898 1.377 . S
C885 C884 1.524 . S
C885 C886 1.397 . S
C885 C890 1.363 . S
C886 H863 0.950 . S
C886 C885 1.397 . S
C886 C887 1.334 . S
C887 H864 0.950 . S
C887 C886 1.334 . S
C887 C888 1.287 . S
C888 C887 1.287 . S
C888 C889 1.524 . S
C888 H907 0.913 . S
C889 H865 0.950 . S
C889 C888 1.524 . S
C889 C890 1.415 . S
C890 H866 0.950 . S
C890 C885 1.363 . S
C890 C889 1.415 . S
C891 H867 0.951 . S
C891 C892 1.366 . S
C891 C893 1.388 . S
C892 C891 1.366 . S
C892 C896 1.385 . S
C893 H868 0.951 . S
C893 C891 1.388 . S
C893 C894 1.366 . S
C894 C893 1.366 . S
C894 C895 1.414 . S
C894 C897 1.499 . S
C895 H869 0.950 . S
C895 C894 1.414 . S
C895 C896 1.374 . S
C896 H870 0.950 . S
C896 C892 1.385 . S
C896 C895 1.374 . S
C897 C894 1.499 . S
C897 C898 1.373 . S
C897 C899 1.389 . S
C898 H871 0.950 . S
C898 C884 1.377 . S
C898 C897 1.373 . S
C899 C883 1.377 . S
C899 C897 1.389 . S
C899 C900 1.524 . S
C900 C899 1.524 . S
C900 C901 1.397 . S
C900 C905 1.363 . S
C901 H872 0.950 . S
C901 C900 1.397 . S
C901 C902 1.334 . S
C902 H873 0.950 . S
C902 C901 1.334 . S
C902 C903 1.287 . S
C903 C902 1.287 . S
C903 C904 1.524 . S
C903 H906 0.999 . S
C904 H874 0.950 . S
C904 C903 1.524 . S
C904 C905 1.415 . S
C905 H875 0.950 . S
C905 C900 1.363 . S
C905 C904 1.415 . S
H906 C903 0.999 . S
H907 C888 0.913 . S
H908 C926 0.951 . S
H909 C928 0.951 . S
H910 C930 0.950 . S
H911 C931 0.950 . S
H912 C933 0.950 . S
H913 C936 0.950 . S
H914 C937 0.950 . S
H915 C939 0.950 . S
H916 C940 0.950 . S
H917 C941 0.951 . S
H918 C943 0.951 . S
H919 C945 0.950 . S
H920 C946 0.950 . S
H921 C948 0.950 . S
H922 C951 0.950 . S
H923 C952 0.950 . S
H924 C954 0.950 . S
H925 C955 0.950 . S
C926 H908 0.951 . S
C926 C927 1.366 . S
C926 C928 1.388 . S
C927 C926 1.366 . S
C927 C931 1.385 . S
C928 H909 0.951 . S
C928 C926 1.388 . S
C928 C929 1.366 . S
C929 C928 1.366 . S
C929 C930 1.414 . S
C929 C932 1.499 . S
C930 H910 0.950 . S
C930 C929 1.414 . S
C930 C931 1.374 . S
C931 H911 0.950 . S
C931 C927 1.385 . S
C931 C930 1.374 . S
C932 C929 1.499 . S
C932 C933 1.373 . S
C932 C934 1.389 . S
C933 H912 0.950 . S
C933 C932 1.373 . S
C933 C949 1.377 . S
C934 C932 1.389 . S
C934 C935 1.524 . S
C934 C948 1.377 . S
C935 C934 1.524 . S
C935 C936 1.397 . S
C935 C940 1.363 . S
C936 H913 0.950 . S
C936 C935 1.397 . S
C936 C937 1.334 . S
C937 H914 0.950 . S
C937 C936 1.334 . S
C937 C938 1.287 . S
C938 C937 1.287 . S
C938 C939 1.524 . S
C938 H957 0.913 . S
C939 H915 0.950 . S
C939 C938 1.524 . S
C939 C940 1.415 . S
C940 H916 0.950 . S
C940 C935 1.363 . S
C940 C939 1.415 . S
C941 H917 0.951 . S
C941 C942 1.366 . S
C941 C943 1.388 . S
C942 C941 1.366 . S
C942 C946 1.385 . S
C943 H918 0.951 . S
C943 C941 1.388 . S
C943 C944 1.366 . S
C944 C943 1.366 . S
C944 C945 1.414 . S
C944 C947 1.499 . S
C945 H919 0.950 . S
C945 C944 1.414 . S
C945 C946 1.374 . S
C946 H920 0.950 . S
C946 C942 1.385 . S
C946 C945 1.374 . S
C947 C944 1.499 . S
C947 C948 1.373 . S
C947 C949 1.389 . S
C948 H921 0.950 . S
C948 C934 1.377 . S
C948 C947 1.373 . S
C949 C933 1.377 . S
C949 C947 1.389 . S
C949 C950 1.524 . S
C950 C949 1.524 . S
C950 C951 1.397 . S
C950 C955 1.363 . S
C951 H922 0.950 . S
C951 C950 1.397 . S
C951 C952 1.334 . S
C952 H923 0.950 . S
C952 C951 1.334 . S
C952 C953 1.287 . S
C953 C952 1.287 . S
C953 C954 1.524 . S
C953 H956 0.999 . S
C954 H924 0.950 . S
C954 C953 1.524 . S
C954 C955 1.415 . S
C955 H925 0.950 . S
C955 C950 1.363 . S
C955 C954 1.415 . S
H956 C953 0.999 . S
H957 C938 0.913 . S
H958 C976 0.951 . S
H959 C978 0.951 . S
H960 C980 0.950 . S
H961 C981 0.950 . S
H962 C983 0.950 . S
H963 C986 0.950 . S
H964 C987 0.950 . S
H965 C989 0.950 . S
H966 C990 0.950 . S
H967 C991 0.951 . S
H968 C993 0.951 . S
H969 C995 0.950 . S
H970 C996 0.950 . S
H971 C998 0.950 . S
H972 C1001 0.950 . S
H973 C1002 0.950 . S
H974 C1004 0.950 . S
H975 C1005 0.950 . S
C976 H958 0.951 . S
C976 C977 1.366 . S
C976 C978 1.388 . S
C977 C976 1.366 . S
C977 C981 1.385 . S
C978 H959 0.951 . S
C978 C976 1.388 . S
C978 C979 1.366 . S
C979 C978 1.366 . S
C979 C980 1.414 . S
C979 C982 1.499 . S
C980 H960 0.950 . S
C980 C979 1.414 . S
C980 C981 1.374 . S
C981 H961 0.950 . S
C981 C977 1.385 . S
C981 C980 1.374 . S
C982 C979 1.499 . S
C982 C983 1.373 . S
C982 C984 1.389 . S
C983 H962 0.950 . S
C983 C982 1.373 . S
C983 C999 1.377 . S
C984 C982 1.389 . S
C984 C985 1.524 . S
C984 C998 1.377 . S
C985 C984 1.524 . S
C985 C986 1.397 . S
C985 C990 1.363 . S
C986 H963 0.950 . S
C986 C985 1.397 . S
C986 C987 1.334 . S
C987 H964 0.950 . S
C987 C986 1.334 . S
C987 C988 1.287 . S
C988 C987 1.287 . S
C988 C989 1.524 . S
C988 H1007 0.913 . S
C989 H965 0.950 . S
C989 C988 1.524 . S
C989 C990 1.415 . S
C990 H966 0.950 . S
C990 C985 1.363 . S
C990 C989 1.415 . S
C991 H967 0.951 . S
C991 C992 1.366 . S
C991 C993 1.388 . S
C992 C991 1.366 . S
C992 C996 1.385 . S
C993 H968 0.951 . S
C993 C991 1.388 . S
C993 C994 1.366 . S
C994 C993 1.366 . S
C994 C995 1.414 . S
C994 C997 1.499 . S
C995 H969 0.950 . S
C995 C994 1.414 . S
C995 C996 1.374 . S
C996 H970 0.950 . S
C996 C992 1.385 . S
C996 C995 1.374 . S
C997 C994 1.499 . S
C997 C998 1.373 . S
C997 C999 1.389 . S
C998 H971 0.950 . S
C998 C984 1.377 . S
C998 C997 1.373 . S
C999 C983 1.377 . S
C999 C997 1.389 . S
C999 C1000 1.524 . S
C1000 C999 1.524 . S
C1000 C1001 1.397 . S
C1000 C1005 1.363 . S
C1001 H972 0.950 . S
C1001 C1000 1.397 . S
C1001 C1002 1.334 . S
C1002 H973 0.950 . S
C1002 C1001 1.334 . S
C1002 C1003 1.287 . S
C1003 C1002 1.287 . S
C1003 C1004 1.524 . S
C1003 H1006 0.999 . S
C1004 H974 0.950 . S
C1004 C1003 1.524 . S
C1004 C1005 1.415 . S
C1005 H975 0.950 . S
C1005 C1000 1.363 . S
C1005 C1004 1.415 . S
H1006 C1003 0.999 . S
H1007 C988 0.913 . S
H1008 C1026 0.951 . S
H1009 C1028 0.951 . S
H1010 C1030 0.950 . S
H1011 C1031 0.950 . S
H1012 C1033 0.950 . S
H1013 C1036 0.950 . S
H1014 C1037 0.950 . S
H1015 C1039 0.950 . S
H1016 C1040 0.950 . S
H1017 C1041 0.951 . S
H1018 C1043 0.951 . S
H1019 C1045 0.950 . S
H1020 C1046 0.950 . S
H1021 C1048 0.950 . S
H1022 C1051 0.950 . S
H1023 C1052 0.950 . S
H1024 C1054 0.950 . S
H1025 C1055 0.950 . S
C1026 H1008 0.951 . S
C1026 C1027 1.366 . S
C1026 C1028 1.388 . S
C1027 C1026 1.366 . S
C1027 C1031 1.385 . S
C1028 H1009 0.951 . S
C1028 C1026 1.388 . S
C1028 C1029 1.366 . S
C1029 C1028 1.366 . S
C1029 C1030 1.414 . S
C1029 C1032 1.499 . S
C1030 H1010 0.950 . S
C1030 C1029 1.414 . S
C1030 C1031 1.374 . S
C1031 H1011 0.950 . S
C1031 C1027 1.385 . S
C1031 C1030 1.374 . S
C1032 C1029 1.499 . S
C1032 C1033 1.373 . S
C1032 C1034 1.389 . S
C1033 H1012 0.950 . S
C1033 C1032 1.373 . S
C1033 C1049 1.377 . S
C1034 C1032 1.389 . S
C1034 C1035 1.524 . S
C1034 C1048 1.377 . S
C1035 C1034 1.524 . S
C1035 C1036 1.397 . S
C1035 C1040 1.363 . S
C1036 H1013 0.950 . S
C1036 C1035 1.397 . S
C1036 C1037 1.334 . S
C1037 H1014 0.950 . S
C1037 C1036 1.334 . S
C1037 C1038 1.287 . S
C1038 C1037 1.287 . S
C1038 C1039 1.524 . S
C1038 H1057 0.913 . S
C1039 H1015 0.950 . S
C1039 C1038 1.524 . S
C1039 C1040 1.415 . S
C1040 H1016 0.950 . S
C1040 C1035 1.363 . S
C1040 C1039 1.415 . S
C1041 H1017 0.951 . S
C1041 C1042 1.366 . S
C1041 C1043 1.388 . S
C1042 C1041 1.366 . S
C1042 C1046 1.385 . S
C1043 H1018 0.951 . S
C1043 C1041 1.388 . S
C1043 C1044 1.366 . S
C1044 C1043 1.366 . S
C1044 C1045 1.414 . S
C1044 C1047 1.499 . S
C1045 H1019 0.950 . S
C1045 C1044 1.414 . S
C1045 C1046 1.374 . S
C1046 H1020 0.950 . S
C1046 C1042 1.385 . S
C1046 C1045 1.374 . S
C1047 C1044 1.499 . S
C1047 C1048 1.373 . S
C1047 C1049 1.389 . S
C1048 H1021 0.950 . S
C1048 C1034 1.377 . S
C1048 C1047 1.373 . S
C1049 C1033 1.377 . S
C1049 C1047 1.389 . S
C1049 C1050 1.524 . S
C1050 C1049 1.524 . S
C1050 C1051 1.397 . S
C1050 C1055 1.363 . S
C1051 H1022 0.950 . S
C1051 C1050 1.397 . S
C1051 C1052 1.334 . S
C1052 H1023 0.950 . S
C1052 C1051 1.334 . S
C1052 C1053 1.287 . S
C1053 C1052 1.287 . S
C1053 C1054 1.524 . S
C1053 H1056 0.999 . S
C1054 H1024 0.950 . S
C1054 C1053 1.524 . S
C1054 C1055 1.415 . S
C1055 H1025 0.950 . S
C1055 C1050 1.363 . S
C1055 C1054 1.415 . S
H1056 C1053 0.999 . S
H1057 C1038 0.913 . S
H1058 C1076 0.951 . S
H1059 C1078 0.951 . S
H1060 C1080 0.950 . S
H1061 C1081 0.950 . S
H1062 C1083 0.950 . S
H1063 C1086 0.950 . S
H1064 C1087 0.950 . S
H1065 C1089 0.950 . S
H1066 C1090 0.950 . S
H1067 C1091 0.951 . S
H1068 C1093 0.951 . S
H1069 C1095 0.950 . S
H1070 C1096 0.950 . S
H1071 C1098 0.950 . S
H1072 C1101 0.950 . S
H1073 C1102 0.950 . S
H1074 C1104 0.950 . S
H1075 C1105 0.950 . S
C1076 H1058 0.951 . S
C1076 C1077 1.366 . S
C1076 C1078 1.388 . S
C1077 C1076 1.366 . S
C1077 C1081 1.385 . S
C1078 H1059 0.951 . S
C1078 C1076 1.388 . S
C1078 C1079 1.366 . S
C1079 C1078 1.366 . S
C1079 C1080 1.414 . S
C1079 C1082 1.499 . S
C1080 H1060 0.950 . S
C1080 C1079 1.414 . S
C1080 C1081 1.374 . S
C1081 H1061 0.950 . S
C1081 C1077 1.385 . S
C1081 C1080 1.374 . S
C1082 C1079 1.499 . S
C1082 C1083 1.373 . S
C1082 C1084 1.389 . S
C1083 H1062 0.950 . S
C1083 C1082 1.373 . S
C1083 C1099 1.377 . S
C1084 C1082 1.389 . S
C1084 C1085 1.524 . S
C1084 C1098 1.377 . S
C1085 C1084 1.524 . S
C1085 C1086 1.397 . S
C1085 C1090 1.363 . S
C1086 H1063 0.950 . S
C1086 C1085 1.397 . S
C1086 C1087 1.334 . S
C1087 H1064 0.950 . S
C1087 C1086 1.334 . S
C1087 C1088 1.287 . S
C1088 C1087 1.287 . S
C1088 C1089 1.524 . S
C1088 H1107 0.913 . S
C1089 H1065 0.950 . S
C1089 C1088 1.524 . S
C1089 C1090 1.415 . S
C1090 H1066 0.950 . S
C1090 C1085 1.363 . S
C1090 C1089 1.415 . S
C1091 H1067 0.951 . S
C1091 C1092 1.366 . S
C1091 C1093 1.388 . S
C1092 C1091 1.366 . S
C1092 C1096 1.385 . S
C1093 H1068 0.951 . S
C1093 C1091 1.388 . S
C1093 C1094 1.366 . S
C1094 C1093 1.366 . S
C1094 C1095 1.414 . S
C1094 C1097 1.499 . S
C1095 H1069 0.950 . S
C1095 C1094 1.414 . S
C1095 C1096 1.374 . S
C1096 H1070 0.950 . S
C1096 C1092 1.385 . S
C1096 C1095 1.374 . S
C1097 C1094 1.499 . S
C1097 C1098 1.373 . S
C1097 C1099 1.389 . S
C1098 H1071 0.950 . S
C1098 C1084 1.377 . S
C1098 C1097 1.373 . S
C1099 C1083 1.377 . S
C1099 C1097 1.389 . S
C1099 C1100 1.524 . S
C1100 C1099 1.524 . S
C1100 C1101 1.397 . S
C1100 C1105 1.363 . S
C1101 H1072 0.950 . S
C1101 C1100 1.397 . S
C1101 C1102 1.334 . S
C1102 H1073 0.950 . S
C1102 C1101 1.334 . S
C1102 C1103 1.287 . S
C1103 C1102 1.287 . S
C1103 C1104 1.524 . S
C1103 H1106 0.999 . S
C1104 H1074 0.950 . S
C1104 C1103 1.524 . S
C1104 C1105 1.415 . S
C1105 H1075 0.950 . S
C1105 C1100 1.363 . S
C1105 C1104 1.415 . S
H1106 C1103 0.999 . S
H1107 C1088 0.913 . S
H1108 C1126 0.951 . S
H1109 C1128 0.951 . S
H1110 C1130 0.950 . S
H1111 C1131 0.950 . S
H1112 C1133 0.950 . S
H1113 C1136 0.950 . S
H1114 C1137 0.950 . S
H1115 C1139 0.950 . S
H1116 C1140 0.950 . S
H1117 C1141 0.951 . S
H1118 C1143 0.951 . S
H1119 C1145 0.950 . S
H1120 C1146 0.950 . S
H1121 C1148 0.950 . S
H1122 C1151 0.950 . S
H1123 C1152 0.950 . S
H1124 C1154 0.950 . S
H1125 C1155 0.950 . S
C1126 H1108 0.951 . S
C1126 C1127 1.366 . S
C1126 C1128 1.388 . S
C1127 C1126 1.366 . S
C1127 C1131 1.385 . S
C1128 H1109 0.951 . S
C1128 C1126 1.388 . S
C1128 C1129 1.366 . S
C1129 C1128 1.366 . S
C1129 C1130 1.414 . S
C1129 C1132 1.499 . S
C1130 H1110 0.950 . S
C1130 C1129 1.414 . S
C1130 C1131 1.374 . S
C1131 H1111 0.950 . S
C1131 C1127 1.385 . S
C1131 C1130 1.374 . S
C1132 C1129 1.499 . S
C1132 C1133 1.373 . S
C1132 C1134 1.389 . S
C1133 H1112 0.950 . S
C1133 C1132 1.373 . S
C1133 C1149 1.377 . S
C1134 C1132 1.389 . S
C1134 C1135 1.524 . S
C1134 C1148 1.377 . S
C1135 C1134 1.524 . S
C1135 C1136 1.397 . S
C1135 C1140 1.363 . S
C1136 H1113 0.950 . S
C1136 C1135 1.397 . S
C1136 C1137 1.334 . S
C1137 H1114 0.950 . S
C1137 C1136 1.334 . S
C1137 C1138 1.287 . S
C1138 C1137 1.287 . S
C1138 C1139 1.524 . S
C1138 H1157 0.913 . S
C1139 H1115 0.950 . S
C1139 C1138 1.524 . S
C1139 C1140 1.415 . S
C1140 H1116 0.950 . S
C1140 C1135 1.363 . S
C1140 C1139 1.415 . S
C1141 H1117 0.951 . S
C1141 C1142 1.366 . S
C1141 C1143 1.388 . S
C1142 C1141 1.366 . S
C1142 C1146 1.385 . S
C1143 H1118 0.951 . S
C1143 C1141 1.388 . S
C1143 C1144 1.366 . S
C1144 C1143 1.366 . S
C1144 C1145 1.414 . S
C1144 C1147 1.499 . S
C1145 H1119 0.950 . S
C1145 C1144 1.414 . S
C1145 C1146 1.374 . S
C1146 H1120 0.950 . S
C1146 C1142 1.385 . S
C1146 C1145 1.374 . S
C1147 C1144 1.499 . S
C1147 C1148 1.373 . S
C1147 C1149 1.389 . S
C1148 H1121 0.950 . S
C1148 C1134 1.377 . S
C1148 C1147 1.373 . S
C1149 C1133 1.377 . S
C1149 C1147 1.389 . S
C1149 C1150 1.524 . S
C1150 C1149 1.524 . S
C1150 C1151 1.397 . S
C1150 C1155 1.363 . S
C1151 H1122 0.950 . S
C1151 C1150 1.397 . S
C1151 C1152 1.334 . S
C1152 H1123 0.950 . S
C1152 C1151 1.334 . S
C1152 C1153 1.287 . S
C1153 C1152 1.287 . S
C1153 C1154 1.524 . S
C1153 H1156 0.999 . S
C1154 H1124 0.950 . S
C1154 C1153 1.524 . S
C1154 C1155 1.415 . S
C1155 H1125 0.950 . S
C1155 C1150 1.363 . S
C1155 C1154 1.415 . S
H1156 C1153 0.999 . S
H1157 C1138 0.913 . S
H1158 C1176 0.951 . S
H1159 C1178 0.951 . S
H1160 C1180 0.950 . S
H1161 C1181 0.950 . S
H1162 C1183 0.950 . S
H1163 C1186 0.950 . S
H1164 C1187 0.950 . S
H1165 C1189 0.950 . S
H1166 C1190 0.950 . S
H1167 C1191 0.951 . S
H1168 C1193 0.951 . S
H1169 C1195 0.950 . S
H1170 C1196 0.950 . S
H1171 C1198 0.950 . S
H1172 C1201 0.950 . S
H1173 C1202 0.950 . S
H1174 C1204 0.950 . S
H1175 C1205 0.950 . S
C1176 H1158 0.951 . S
C1176 C1177 1.366 . S
C1176 C1178 1.388 . S
C1177 C1176 1.366 . S
C1177 C1181 1.385 . S
C1178 H1159 0.951 . S
C1178 C1176 1.388 . S
C1178 C1179 1.366 . S
C1179 C1178 1.366 . S
C1179 C1180 1.414 . S
C1179 C1182 1.499 . S
C1180 H1160 0.950 . S
C1180 C1179 1.414 . S
C1180 C1181 1.374 . S
C1181 H1161 0.950 . S
C1181 C1177 1.385 . S
C1181 C1180 1.374 . S
C1182 C1179 1.499 . S
C1182 C1183 1.373 . S
C1182 C1184 1.389 . S
C1183 H1162 0.950 . S
C1183 C1182 1.373 . S
C1183 C1199 1.377 . S
C1184 C1182 1.389 . S
C1184 C1185 1.524 . S
C1184 C1198 1.377 . S
C1185 C1184 1.524 . S
C1185 C1186 1.397 . S
C1185 C1190 1.363 . S
C1186 H1163 0.950 . S
C1186 C1185 1.397 . S
C1186 C1187 1.334 . S
C1187 H1164 0.950 . S
C1187 C1186 1.334 . S
C1187 C1188 1.287 . S
C1188 C1187 1.287 . S
C1188 C1189 1.524 . S
C1188 H1207 0.913 . S
C1189 H1165 0.950 . S
C1189 C1188 1.524 . S
C1189 C1190 1.415 . S
C1190 H1166 0.950 . S
C1190 C1185 1.363 . S
C1190 C1189 1.415 . S
C1191 H1167 0.951 . S
C1191 C1192 1.366 . S
C1191 C1193 1.388 . S
C1192 C1191 1.366 . S
C1192 C1196 1.385 . S
C1193 H1168 0.951 . S
C1193 C1191 1.388 . S
C1193 C1194 1.366 . S
C1194 C1193 1.366 . S
C1194 C1195 1.414 . S
C1194 C1197 1.499 . S
C1195 H1169 0.950 . S
C1195 C1194 1.414 . S
C1195 C1196 1.374 . S
C1196 H1170 0.950 . S
C1196 C1192 1.385 . S
C1196 C1195 1.374 . S
C1197 C1194 1.499 . S
C1197 C1198 1.373 . S
C1197 C1199 1.389 . S
C1198 H1171 0.950 . S
C1198 C1184 1.377 . S
C1198 C1197 1.373 . S
C1199 C1183 1.377 . S
C1199 C1197 1.389 . S
C1199 C1200 1.524 . S
C1200 C1199 1.524 . S
C1200 C1201 1.397 . S
C1200 C1205 1.363 . S
C1201 H1172 0.950 . S
C1201 C1200 1.397 . S
C1201 C1202 1.334 . S
C1202 H1173 0.950 . S
C1202 C1201 1.334 . S
C1202 C1203 1.287 . S
C1203 C1202 1.287 . S
C1203 C1204 1.524 . S
C1203 H1206 0.999 . S
C1204 H1174 0.950 . S
C1204 C1203 1.524 . S
C1204 C1205 1.415 . S
C1205 H1175 0.950 . S
C1205 C1200 1.363 . S
C1205 C1204 1.415 . S
H1206 C1203 0.999 . S
H1207 C1188 0.913 . S
H1208 C1226 0.951 . S
H1209 C1228 0.951 . S
H1210 C1230 0.950 . S
H1211 C1231 0.950 . S
H1212 C1233 0.950 . S
H1213 C1236 0.950 . S
H1214 C1237 0.950 . S
H1215 C1239 0.950 . S
H1216 C1240 0.950 . S
H1217 C1241 0.951 . S
H1218 C1243 0.951 . S
H1219 C1245 0.950 . S
H1220 C1246 0.950 . S
H1221 C1248 0.950 . S
H1222 C1251 0.950 . S
H1223 C1252 0.950 . S
H1224 C1254 0.950 . S
H1225 C1255 0.950 . S
C1226 H1208 0.951 . S
C1226 C1227 1.366 1_556 S
C1226 C1228 1.388 . S
C1227 C1226 1.366 1_554 S
C1227 C1231 1.385 . S
C1228 H1209 0.951 . S
C1228 C1226 1.388 . S
C1228 C1229 1.365 1_556 S
C1229 C1228 1.365 1_554 S
C1229 C1230 1.415 . S
C1229 C1232 1.499 . S
C1230 H1210 0.950 . S
C1230 C1229 1.415 . S
C1230 C1231 1.374 . S
C1231 H1211 0.950 . S
C1231 C1227 1.385 . S
C1231 C1230 1.374 . S
C1232 C1229 1.499 . S
C1232 C1233 1.381 . S
C1232 C1234 1.382 1_554 S
C1233 H1212 0.950 . S
C1233 C1232 1.381 . S
C1233 C1249 1.377 . S
C1234 C1232 1.382 1_556 S
C1234 C1235 1.524 . S
C1234 C1248 1.377 . S
C1235 C1234 1.524 . S
C1235 C1236 1.397 . S
C1235 C1240 1.363 . S
C1236 H1213 0.950 . S
C1236 C1235 1.397 . S
C1236 C1237 1.334 . S
C1237 H1214 0.950 . S
C1237 C1236 1.334 . S
C1237 C1238 1.287 . S
C1238 C1237 1.287 . S
C1238 C1239 1.524 . S
C1238 H1257 0.913 . S
C1239 H1215 0.950 . S
C1239 C1238 1.524 . S
C1239 C1240 1.415 . S
C1240 H1216 0.950 . S
C1240 C1235 1.363 . S
C1240 C1239 1.415 . S
C1241 H1217 0.951 . S
C1241 C1242 1.366 . S
C1241 C1243 1.388 . S
C1242 C1241 1.366 . S
C1242 C1246 1.385 1_554 S
C1243 H1218 0.951 . S
C1243 C1241 1.388 . S
C1243 C1244 1.366 . S
C1244 C1243 1.366 . S
C1244 C1245 1.414 1_554 S
C1244 C1247 1.499 . S
C1245 H1219 0.950 . S
C1245 C1244 1.414 1_556 S
C1245 C1246 1.374 . S
C1246 H1220 0.950 . S
C1246 C1242 1.385 1_556 S
C1246 C1245 1.374 . S
C1247 C1244 1.499 . S
C1247 C1248 1.373 1_554 S
C1247 C1249 1.389 . S
C1248 H1221 0.950 . S
C1248 C1234 1.377 . S
C1248 C1247 1.373 1_556 S
C1249 C1233 1.377 . S
C1249 C1247 1.389 . S
C1249 C1250 1.524 . S
C1250 C1249 1.524 . S
C1250 C1251 1.397 . S
C1250 C1255 1.363 . S
C1251 H1222 0.950 . S
C1251 C1250 1.397 . S
C1251 C1252 1.334 . S
C1252 H1223 0.950 . S
C1252 C1251 1.334 . S
C1252 C1253 1.287 . S
C1253 C1252 1.287 . S
C1253 C1254 1.524 . S
C1253 H1256 0.999 . S
C1254 H1224 0.950 . S
C1254 C1253 1.524 . S
C1254 C1255 1.415 . S
C1255 H1225 0.950 . S
C1255 C1250 1.363 . S
C1255 C1254 1.415 . S
H1256 C1253 0.999 . S
H1257 C1238 0.913 . S
H1258 C1276 0.951 . S
H1259 C1278 0.951 . S
H1260 C1280 0.950 . S
H1261 C1281 0.950 . S
H1262 C1283 0.950 . S
H1263 C1286 0.950 . S
H1264 C1287 0.950 . S
H1265 C1289 0.950 . S
H1266 C1290 0.950 . S
H1267 C1291 0.951 . S
H1268 C1293 0.951 . S
H1269 C1295 0.950 . S
H1270 C1296 0.950 . S
H1271 C1298 0.950 . S
H1272 C1301 0.950 . S
H1273 C1302 0.950 . S
H1274 C1304 0.950 . S
H1275 C1305 0.950 . S
C1276 H1258 0.951 . S
C1276 C1277 1.366 . S
C1276 C1278 1.388 . S
C1277 C1276 1.366 . S
C1277 C1281 1.385 . S
C1278 H1259 0.951 . S
C1278 C1276 1.388 . S
C1278 C1279 1.366 . S
C1279 C1278 1.366 . S
C1279 C1280 1.414 . S
C1279 C1282 1.499 . S
C1280 H1260 0.950 . S
C1280 C1279 1.414 . S
C1280 C1281 1.374 . S
C1281 H1261 0.950 . S
C1281 C1277 1.385 . S
C1281 C1280 1.374 . S
C1282 C1279 1.499 . S
C1282 C1283 1.373 . S
C1282 C1284 1.389 . S
C1283 H1262 0.950 . S
C1283 C1282 1.373 . S
C1283 C1299 1.377 . S
C1284 C1282 1.389 . S
C1284 C1285 1.524 . S
C1284 C1298 1.377 . S
C1285 C1284 1.524 . S
C1285 C1286 1.397 . S
C1285 C1290 1.363 . S
C1286 H1263 0.950 . S
C1286 C1285 1.397 . S
C1286 C1287 1.334 . S
C1287 H1264 0.950 . S
C1287 C1286 1.334 . S
C1287 C1288 1.287 . S
C1288 C1287 1.287 . S
C1288 C1289 1.524 . S
C1288 H1307 0.913 . S
C1289 H1265 0.950 . S
C1289 C1288 1.524 . S
C1289 C1290 1.415 . S
C1290 H1266 0.950 . S
C1290 C1285 1.363 . S
C1290 C1289 1.415 . S
C1291 H1267 0.951 . S
C1291 C1292 1.366 . S
C1291 C1293 1.388 . S
C1292 C1291 1.366 . S
C1292 C1296 1.385 . S
C1293 H1268 0.951 . S
C1293 C1291 1.388 . S
C1293 C1294 1.366 . S
C1294 C1293 1.366 . S
C1294 C1295 1.414 . S
C1294 C1297 1.499 . S
C1295 H1269 0.950 . S
C1295 C1294 1.414 . S
C1295 C1296 1.374 . S
C1296 H1270 0.950 . S
C1296 C1292 1.385 . S
C1296 C1295 1.374 . S
C1297 C1294 1.499 . S
C1297 C1298 1.373 . S
C1297 C1299 1.389 . S
C1298 H1271 0.950 . S
C1298 C1284 1.377 . S
C1298 C1297 1.373 . S
C1299 C1283 1.377 . S
C1299 C1297 1.389 . S
C1299 C1300 1.524 . S
C1300 C1299 1.524 . S
C1300 C1301 1.397 . S
C1300 C1305 1.363 . S
C1301 H1272 0.950 . S
C1301 C1300 1.397 . S
C1301 C1302 1.334 . S
C1302 H1273 0.950 . S
C1302 C1301 1.334 . S
C1302 C1303 1.287 . S
C1303 C1302 1.287 . S
C1303 C1304 1.524 . S
C1303 H1306 0.999 . S
C1304 H1274 0.950 . S
C1304 C1303 1.524 . S
C1304 C1305 1.415 . S
C1305 H1275 0.950 . S
C1305 C1300 1.363 . S
C1305 C1304 1.415 . S
H1306 C1303 0.999 . S
H1307 C1288 0.913 . S
H1308 C1326 0.951 . S
H1309 C1328 0.951 . S
H1310 C1330 0.950 . S
H1311 C1331 0.950 . S
H1312 C1333 0.949 1_556 S
H1313 C1336 0.950 . S
H1314 C1337 0.950 . S
H1315 C1339 0.950 1_556 S
H1316 C1340 0.950 . S
H1317 C1341 0.951 . S
H1318 C1343 0.951 . S
H1319 C1345 0.950 . S
H1320 C1346 0.950 . S
H1321 C1348 0.950 . S
H1322 C1351 0.950 . S
H1323 C1352 0.950 . S
H1324 C1354 0.950 . S
H1325 C1355 0.950 . S
C1326 H1308 0.951 . S
C1326 C1327 1.366 1_556 S
C1326 C1328 1.388 . S
C1327 C1326 1.366 1_554 S
C1327 C1331 1.385 . S
C1328 H1309 0.951 . S
C1328 C1326 1.388 . S
C1328 C1329 1.366 1_556 S
C1329 C1328 1.366 1_554 S
C1329 C1330 1.414 . S
C1329 C1332 1.499 . S
C1330 H1310 0.950 . S
C1330 C1329 1.414 . S
C1330 C1331 1.374 . S
C1331 H1311 0.950 . S
C1331 C1327 1.385 . S
C1331 C1330 1.374 . S
C1332 C1329 1.499 . S
C1332 C1333 1.377 . S
C1332 C1334 1.389 . S
C1333 H1312 0.949 1_554 S
C1333 C1332 1.377 . S
C1333 C1349 1.375 1_554 S
C1334 C1332 1.389 . S
C1334 C1335 1.524 . S
C1334 C1348 1.377 . S
C1335 C1334 1.524 . S
C1335 C1336 1.397 . S
C1335 C1340 1.363 1_554 S
C1336 H1313 0.950 . S
C1336 C1335 1.397 . S
C1336 C1337 1.334 . S
C1337 H1314 0.950 . S
C1337 C1336 1.334 . S
C1337 C1338 1.287 . S
C1338 C1337 1.287 . S
C1338 C1339 1.524 . S
C1338 H1357 0.913 . S
C1339 H1315 0.950 1_554 S
C1339 C1338 1.524 . S
C1339 C1340 1.415 1_554 S
C1340 H1316 0.950 . S
C1340 C1335 1.363 1_556 S
C1340 C1339 1.415 1_556 S
C1341 H1317 0.951 . S
C1341 C1342 1.366 . S
C1341 C1343 1.388 . S
C1342 C1341 1.366 . S
C1342 C1346 1.385 1_554 S
C1343 H1318 0.951 . S
C1343 C1341 1.388 . S
C1343 C1344 1.366 . S
C1344 C1343 1.366 . S
C1344 C1345 1.414 1_554 S
C1344 C1347 1.499 . S
C1345 H1319 0.950 . S
C1345 C1344 1.414 1_556 S
C1345 C1346 1.374 . S
C1346 H1320 0.950 . S
C1346 C1342 1.385 1_556 S
C1346 C1345 1.374 . S
C1347 C1344 1.499 . S
C1347 C1348 1.375 . S
C1347 C1349 1.388 1_554 S
C1348 H1321 0.950 . S
C1348 C1334 1.377 . S
C1348 C1347 1.375 . S
C1349 C1333 1.375 1_556 S
C1349 C1347 1.388 1_556 S
C1349 C1350 1.524 . S
C1350 C1349 1.524 . S
C1350 C1351 1.397 . S
C1350 C1355 1.363 1_556 S
C1351 H1322 0.950 . S
C1351 C1350 1.397 . S
C1351 C1352 1.334 . S
C1352 H1323 0.950 . S
C1352 C1351 1.334 . S
C1352 C1353 1.287 . S
C1353 C1352 1.287 . S
C1353 C1354 1.524 1_556 S
C1353 H1356 0.999 . S
C1354 H1324 0.950 . S
C1354 C1353 1.524 1_554 S
C1354 C1355 1.415 . S
C1355 H1325 0.950 . S
C1355 C1350 1.363 1_554 S
C1355 C1354 1.415 . S
H1356 C1353 0.999 . S
H1357 C1338 0.913 . S
H1358 C1376 0.951 . S
H1359 C1378 0.951 . S
H1360 C1380 0.950 . S
H1361 C1381 0.950 . S
H1362 C1383 0.950 . S
H1363 C1386 0.950 . S
H1364 C1387 0.950 . S
H1365 C1389 0.950 . S
H1366 C1390 0.950 . S
H1367 C1391 0.951 . S
H1368 C1393 0.951 . S
H1369 C1395 0.950 . S
H1370 C1396 0.950 . S
H1371 C1398 0.950 . S
H1372 C1401 0.950 . S
H1373 C1402 0.950 . S
H1374 C1404 0.950 . S
H1375 C1405 0.950 . S
C1376 H1358 0.951 . S
C1376 C1377 1.366 . S
C1376 C1378 1.388 . S
C1377 C1376 1.366 . S
C1377 C1381 1.385 . S
C1378 H1359 0.951 . S
C1378 C1376 1.388 . S
C1378 C1379 1.366 . S
C1379 C1378 1.366 . S
C1379 C1380 1.414 . S
C1379 C1382 1.499 . S
C1380 H1360 0.950 . S
C1380 C1379 1.414 . S
C1380 C1381 1.374 . S
C1381 H1361 0.950 . S
C1381 C1377 1.385 . S
C1381 C1380 1.374 . S
C1382 C1379 1.499 . S
C1382 C1383 1.373 . S
C1382 C1384 1.389 . S
C1383 H1362 0.950 . S
C1383 C1382 1.373 . S
C1383 C1399 1.377 . S
C1384 C1382 1.389 . S
C1384 C1385 1.524 . S
C1384 C1398 1.377 . S
C1385 C1384 1.524 . S
C1385 C1386 1.397 . S
C1385 C1390 1.363 . S
C1386 H1363 0.950 . S
C1386 C1385 1.397 . S
C1386 C1387 1.334 . S
C1387 H1364 0.950 . S
C1387 C1386 1.334 . S
C1387 C1388 1.287 . S
C1388 C1387 1.287 . S
C1388 C1389 1.524 . S
C1388 H1407 0.913 . S
C1389 H1365 0.950 . S
C1389 C1388 1.524 . S
C1389 C1390 1.415 . S
C1390 H1366 0.950 . S
C1390 C1385 1.363 . S
C1390 C1389 1.415 . S
C1391 H1367 0.951 . S
C1391 C1392 1.366 . S
C1391 C1393 1.388 . S
C1392 C1391 1.366 . S
C1392 C1396 1.385 . S
C1393 H1368 0.951 . S
C1393 C1391 1.388 . S
C1393 C1394 1.366 . S
C1394 C1393 1.366 . S
C1394 C1395 1.414 . S
C1394 C1397 1.499 . S
C1395 H1369 0.950 . S
C1395 C1394 1.414 . S
C1395 C1396 1.374 . S
C1396 H1370 0.950 . S
C1396 C1392 1.385 . S
C1396 C1395 1.374 . S
C1397 C1394 1.499 . S
C1397 C1398 1.373 . S
C1397 C1399 1.389 . S
C1398 H1371 0.950 . S
C1398 C1384 1.377 . S
C1398 C1397 1.373 . S
C1399 C1383 1.377 . S
C1399 C1397 1.389 . S
C1399 C1400 1.524 . S
C1400 C1399 1.524 . S
C1400 C1401 1.397 . S
C1400 C1405 1.363 . S
C1401 H1372 0.950 . S
C1401 C1400 1.397 . S
C1401 C1402 1.334 . S
C1402 H1373 0.950 . S
C1402 C1401 1.334 . S
C1402 C1403 1.287 . S
C1403 C1402 1.287 . S
C1403 C1404 1.524 . S
C1403 H1406 0.999 . S
C1404 H1374 0.950 . S
C1404 C1403 1.524 . S
C1404 C1405 1.415 . S
C1405 H1375 0.950 . S
C1405 C1400 1.363 . S
C1405 C1404 1.415 . S
H1406 C1403 0.999 . S
H1407 C1388 0.913 . S
H1408 C1426 0.951 . S
H1409 C1428 0.951 . S
H1410 C1430 0.950 . S
H1411 C1431 0.950 . S
H1412 C1433 0.950 . S
H1413 C1436 0.950 . S
H1414 C1437 0.950 . S
H1415 C1439 0.950 . S
H1416 C1440 0.950 . S
H1417 C1441 0.951 . S
H1418 C1443 0.951 . S
H1419 C1445 0.950 . S
H1420 C1446 0.950 . S
H1421 C1448 0.950 . S
H1422 C1451 0.950 . S
H1423 C1452 0.950 . S
H1424 C1454 0.950 . S
H1425 C1455 0.950 . S
C1426 H1408 0.951 . S
C1426 C1427 1.366 . S
C1426 C1428 1.388 . S
C1427 C1426 1.366 . S
C1427 C1431 1.385 . S
C1428 H1409 0.951 . S
C1428 C1426 1.388 . S
C1428 C1429 1.366 . S
C1429 C1428 1.366 . S
C1429 C1430 1.414 . S
C1429 C1432 1.499 . S
C1430 H1410 0.950 . S
C1430 C1429 1.414 . S
C1430 C1431 1.374 . S
C1431 H1411 0.950 . S
C1431 C1427 1.385 . S
C1431 C1430 1.374 . S
C1432 C1429 1.499 . S
C1432 C1433 1.373 . S
C1432 C1434 1.389 . S
C1433 H1412 0.950 . S
C1433 C1432 1.373 . S
C1433 C1449 1.377 . S
C1434 C1432 1.389 . S
C1434 C1435 1.524 . S
C1434 C1448 1.377 . S
C1435 C1434 1.524 . S
C1435 C1436 1.397 . S
C1435 C1440 1.363 . S
C1436 H1413 0.950 . S
C1436 C1435 1.397 . S
C1436 C1437 1.334 . S
C1437 H1414 0.950 . S
C1437 C1436 1.334 . S
C1437 C1438 1.287 . S
C1438 C1437 1.287 . S
C1438 C1439 1.524 . S
C1438 H1457 0.913 . S
C1439 H1415 0.950 . S
C1439 C1438 1.524 . S
C1439 C1440 1.415 . S
C1440 H1416 0.950 . S
C1440 C1435 1.363 . S
C1440 C1439 1.415 . S
C1441 H1417 0.951 . S
C1441 C1442 1.366 . S
C1441 C1443 1.388 . S
C1442 C1441 1.366 . S
C1442 C1446 1.385 . S
C1443 H1418 0.951 . S
C1443 C1441 1.388 . S
C1443 C1444 1.366 . S
C1444 C1443 1.366 . S
C1444 C1445 1.414 . S
C1444 C1447 1.499 . S
C1445 H1419 0.950 . S
C1445 C1444 1.414 . S
C1445 C1446 1.374 . S
C1446 H1420 0.950 . S
C1446 C1442 1.385 . S
C1446 C1445 1.374 . S
C1447 C1444 1.499 . S
C1447 C1448 1.373 . S
C1447 C1449 1.389 . S
C1448 H1421 0.950 . S
C1448 C1434 1.377 . S
C1448 C1447 1.373 . S
C1449 C1433 1.377 . S
C1449 C1447 1.389 . S
C1449 C1450 1.524 . S
C1450 C1449 1.524 . S
C1450 C1451 1.397 . S
C1450 C1455 1.363 . S
C1451 H1422 0.950 . S
C1451 C1450 1.397 . S
C1451 C1452 1.334 . S
C1452 H1423 0.950 . S
C1452 C1451 1.334 . S
C1452 C1453 1.287 . S
C1453 C1452 1.287 . S
C1453 C1454 1.524 . S
C1453 H1456 0.999 . S
C1454 H1424 0.950 . S
C1454 C1453 1.524 . S
C1454 C1455 1.415 . S
C1455 H1425 0.950 . S
C1455 C1450 1.363 . S
C1455 C1454 1.415 . S
H1456 C1453 0.999 . S
H1457 C1438 0.913 . S
H1458 C1476 0.951 . S
H1459 C1478 0.951 . S
H1460 C1480 0.950 . S
H1461 C1481 0.950 . S
H1462 C1483 0.950 . S
H1463 C1486 0.950 . S
H1464 C1487 0.950 . S
H1465 C1489 0.950 . S
H1466 C1490 0.950 . S
H1467 C1491 0.951 . S
H1468 C1493 0.951 . S
H1469 C1495 0.950 . S
H1470 C1496 0.950 . S
H1471 C1498 0.950 . S
H1472 C1501 0.950 . S
H1473 C1502 0.950 . S
H1474 C1504 0.950 . S
H1475 C1505 0.950 . S
C1476 H1458 0.951 . S
C1476 C1477 1.366 . S
C1476 C1478 1.388 . S
C1477 C1476 1.366 . S
C1477 C1481 1.385 1_554 S
C1478 H1459 0.951 . S
C1478 C1476 1.388 . S
C1478 C1479 1.366 . S
C1479 C1478 1.366 . S
C1479 C1480 1.414 1_554 S
C1479 C1482 1.499 . S
C1480 H1460 0.950 . S
C1480 C1479 1.414 1_556 S
C1480 C1481 1.374 . S
C1481 H1461 0.950 . S
C1481 C1477 1.385 1_556 S
C1481 C1480 1.374 . S
C1482 C1479 1.499 . S
C1482 C1483 1.373 1_554 S
C1482 C1484 1.389 . S
C1483 H1462 0.950 . S
C1483 C1482 1.373 1_556 S
C1483 C1499 1.377 . S
C1484 C1482 1.389 . S
C1484 C1485 1.524 . S
C1484 C1498 1.377 . S
C1485 C1484 1.524 . S
C1485 C1486 1.397 . S
C1485 C1490 1.363 . S
C1486 H1463 0.950 . S
C1486 C1485 1.397 . S
C1486 C1487 1.334 . S
C1487 H1464 0.950 . S
C1487 C1486 1.334 . S
C1487 C1488 1.287 . S
C1488 C1487 1.287 . S
C1488 C1489 1.524 . S
C1488 H1507 0.913 . S
C1489 H1465 0.950 . S
C1489 C1488 1.524 . S
C1489 C1490 1.415 . S
C1490 H1466 0.950 . S
C1490 C1485 1.363 . S
C1490 C1489 1.415 . S
C1491 H1467 0.951 . S
C1491 C1492 1.366 1_556 S
C1491 C1493 1.388 . S
C1492 C1491 1.366 1_554 S
C1492 C1496 1.385 . S
C1493 H1468 0.951 . S
C1493 C1491 1.388 . S
C1493 C1494 1.359 1_556 S
C1494 C1493 1.359 1_554 S
C1494 C1495 1.422 . S
C1494 C1497 1.499 . S
C1495 H1469 0.950 . S
C1495 C1494 1.422 . S
C1495 C1496 1.374 . S
C1496 H1470 0.950 . S
C1496 C1492 1.385 . S
C1496 C1495 1.374 . S
C1497 C1494 1.499 . S
C1497 C1498 1.398 . S
C1497 C1499 1.366 1_554 S
C1498 H1471 0.950 . S
C1498 C1484 1.377 . S
C1498 C1497 1.398 . S
C1499 C1483 1.377 . S
C1499 C1497 1.366 1_556 S
C1499 C1500 1.524 . S
C1500 C1499 1.524 . S
C1500 C1501 1.397 . S
C1500 C1505 1.363 . S
C1501 H1472 0.950 . S
C1501 C1500 1.397 . S
C1501 C1502 1.334 . S
C1502 H1473 0.950 . S
C1502 C1501 1.334 . S
C1502 C1503 1.287 . S
C1503 C1502 1.287 . S
C1503 C1504 1.524 . S
C1503 H1506 0.999 . S
C1504 H1474 0.950 . S
C1504 C1503 1.524 . S
C1504 C1505 1.415 . S
C1505 H1475 0.950 . S
C1505 C1500 1.363 . S
C1505 C1504 1.415 . S
H1506 C1503 0.999 . S
H1507 C1488 0.913 . S
H1508 C1526 0.951 . S
H1509 C1528 0.951 . S
H1510 C1530 0.950 . S
H1511 C1531 0.950 . S
H1512 C1533 0.950 . S
H1513 C1536 0.950 . S
H1514 C1537 0.950 . S
H1515 C1539 0.950 . S
H1516 C1540 0.950 . S
H1517 C1541 0.951 . S
H1518 C1543 0.951 . S
H1519 C1545 0.950 . S
H1520 C1546 0.950 . S
H1521 C1548 0.950 . S
H1522 C1551 0.950 . S
H1523 C1552 0.950 . S
H1524 C1554 0.950 . S
H1525 C1555 0.950 . S
C1526 H1508 0.951 . S
C1526 C1527 1.366 . S
C1526 C1528 1.388 . S
C1527 C1526 1.366 . S
C1527 C1531 1.385 . S
C1528 H1509 0.951 . S
C1528 C1526 1.388 . S
C1528 C1529 1.366 . S
C1529 C1528 1.366 . S
C1529 C1530 1.414 . S
C1529 C1532 1.499 . S
C1530 H1510 0.950 . S
C1530 C1529 1.414 . S
C1530 C1531 1.374 . S
C1531 H1511 0.950 . S
C1531 C1527 1.385 . S
C1531 C1530 1.374 . S
C1532 C1529 1.499 . S
C1532 C1533 1.373 . S
C1532 C1534 1.389 . S
C1533 H1512 0.950 . S
C1533 C1532 1.373 . S
C1533 C1549 1.377 . S
C1534 C1532 1.389 . S
C1534 C1535 1.524 . S
C1534 C1548 1.377 . S
C1535 C1534 1.524 . S
C1535 C1536 1.397 . S
C1535 C1540 1.363 . S
C1536 H1513 0.950 . S
C1536 C1535 1.397 . S
C1536 C1537 1.334 . S
C1537 H1514 0.950 . S
C1537 C1536 1.334 . S
C1537 C1538 1.287 . S
C1538 C1537 1.287 . S
C1538 C1539 1.524 . S
C1538 H1557 0.913 . S
C1539 H1515 0.950 . S
C1539 C1538 1.524 . S
C1539 C1540 1.415 . S
C1540 H1516 0.950 . S
C1540 C1535 1.363 . S
C1540 C1539 1.415 . S
C1541 H1517 0.951 . S
C1541 C1542 1.366 . S
C1541 C1543 1.388 . S
C1542 C1541 1.366 . S
C1542 C1546 1.385 . S
C1543 H1518 0.951 . S
C1543 C1541 1.388 . S
C1543 C1544 1.366 . S
C1544 C1543 1.366 . S
C1544 C1545 1.414 . S
C1544 C1547 1.499 . S
C1545 H1519 0.950 . S
C1545 C1544 1.414 . S
C1545 C1546 1.374 . S
C1546 H1520 0.950 . S
C1546 C1542 1.385 . S
C1546 C1545 1.374 . S
C1547 C1544 1.499 . S
C1547 C1548 1.373 . S
C1547 C1549 1.389 . S
C1548 H1521 0.950 . S
C1548 C1534 1.377 . S
C1548 C1547 1.373 . S
C1549 C1533 1.377 . S
C1549 C1547 1.389 . S
C1549 C1550 1.524 . S
C1550 C1549 1.524 . S
C1550 C1551 1.397 . S
C1550 C1555 1.363 . S
C1551 H1522 0.950 . S
C1551 C1550 1.397 . S
C1551 C1552 1.334 . S
C1552 H1523 0.950 . S
C1552 C1551 1.334 . S
C1552 C1553 1.287 . S
C1553 C1552 1.287 . S
C1553 C1554 1.524 . S
C1553 H1556 0.999 . S
C1554 H1524 0.950 . S
C1554 C1553 1.524 . S
C1554 C1555 1.415 . S
C1555 H1525 0.950 . S
C1555 C1550 1.363 . S
C1555 C1554 1.415 . S
H1556 C1553 0.999 . S
H1557 C1538 0.913 . S
H1558 C1576 0.951 . S
H1559 C1578 0.951 . S
H1560 C1580 0.950 . S
H1561 C1581 0.950 . S
H1562 C1583 0.950 . S
H1563 C1586 0.950 . S
H1564 C1587 0.950 . S
H1565 C1589 0.950 . S
H1566 C1590 0.950 . S
H1567 C1591 0.951 . S
H1568 C1593 0.951 . S
H1569 C1595 0.950 . S
H1570 C1596 0.950 . S
H1571 C1598 0.950 . S
H1572 C1601 0.950 . S
H1573 C1602 0.950 . S
H1574 C1604 0.959 . S
H1575 C1605 0.950 . S
C1576 H1558 0.951 . S
C1576 C1577 1.366 . S
C1576 C1578 1.388 . S
C1577 C1576 1.366 . S
C1577 C1581 1.385 1_554 S
C1578 H1559 0.951 . S
C1578 C1576 1.388 . S
C1578 C1579 1.366 . S
C1579 C1578 1.366 . S
C1579 C1580 1.414 1_554 S
C1579 C1582 1.499 . S
C1580 H1560 0.950 . S
C1580 C1579 1.414 1_556 S
C1580 C1581 1.374 . S
C1581 H1561 0.950 . S
C1581 C1577 1.385 1_556 S
C1581 C1580 1.374 . S
C1582 C1579 1.499 . S
C1582 C1583 1.375 . S
C1582 C1584 1.389 1_554 S
C1583 H1562 0.950 . S
C1583 C1582 1.375 . S
C1583 C1599 1.377 . S
C1584 C1582 1.389 1_556 S
C1584 C1585 1.527 . S
C1584 C1598 1.375 1_556 S
C1585 C1584 1.527 . S
C1585 C1586 1.397 . S
C1585 C1590 1.363 1_556 S
C1586 H1563 0.950 . S
C1586 C1585 1.397 . S
C1586 C1587 1.334 . S
C1587 H1564 0.950 . S
C1587 C1586 1.334 . S
C1587 C1588 1.287 . S
C1588 C1587 1.287 . S
C1588 C1589 1.524 1_556 S
C1588 H1607 0.913 . S
C1589 H1565 0.950 . S
C1589 C1588 1.524 1_554 S
C1589 C1590 1.415 . S
C1590 H1566 0.950 . S
C1590 C1585 1.363 1_554 S
C1590 C1589 1.415 . S
C1591 H1567 0.951 . S
C1591 C1592 1.366 1_556 S
C1591 C1593 1.388 . S
C1592 C1591 1.366 1_554 S
C1592 C1596 1.385 . S
C1593 H1568 0.951 . S
C1593 C1591 1.388 . S
C1593 C1594 1.366 1_556 S
C1594 C1593 1.366 1_554 S
C1594 C1595 1.414 . S
C1594 C1597 1.499 . S
C1595 H1569 0.950 . S
C1595 C1594 1.414 . S
C1595 C1596 1.374 . S
C1596 H1570 0.950 . S
C1596 C1592 1.385 . S
C1596 C1595 1.374 . S
C1597 C1594 1.499 . S
C1597 C1598 1.373 . S
C1597 C1599 1.389 . S
C1598 H1571 0.950 . S
C1598 C1584 1.375 1_554 S
C1598 C1597 1.373 . S
C1599 C1583 1.377 . S
C1599 C1597 1.389 . S
C1599 C1600 1.524 . S
C1600 C1599 1.524 . S
C1600 C1601 1.397 . S
C1600 C1605 1.363 1_554 S
C1601 H1572 0.950 . S
C1601 C1600 1.397 . S
C1601 C1602 1.334 . S
C1602 H1573 0.950 . S
C1602 C1601 1.334 . S
C1602 C1603 1.287 . S
C1603 C1602 1.287 . S
C1603 C1604 1.510 1_554 S
C1603 H1606 0.999 . S
C1604 H1574 0.959 . S
C1604 C1603 1.510 1_556 S
C1604 C1605 1.418 . S
C1605 H1575 0.950 . S
C1605 C1600 1.363 1_556 S
C1605 C1604 1.418 . S
H1606 C1603 0.999 . S
H1607 C1588 0.913 . S
C427 C5 1.443 . S
C442 C210 1.460 . S
C477 C31 1.450 . S
C492 C90 1.465 . S
C542 C149 1.430 . S
C527 C53 1.465 . S
C577 C71 1.458 . S
C592 C189 1.425 . S
C642 C309 1.426 . S
C627 C75 1.458 . S
C692 C349 1.431 . S
C677 C9 1.464 . S
C742 C370 1.465 . S
C727 C27 1.450 . S
C792 C250 1.460 . S
C777 C49 1.444 . S
C827 C51 1.444 . S
C842 C130 1.428 . S
C877 C72 1.449 . S
C892 C170 1.433 . S
C927 C6 1.464 . S
C942 C229 1.466 . S
C992 C109 1.461 . S
C977 C29 1.458 . S
C1027 C28 1.459 . S
C1042 C389 1.461 . S
C1092 C269 1.466 . S
C1077 C50 1.465 . S
C1142 C290 1.433 . S
C1127 C73 1.450 . S
C1177 C7 1.443 . S
C1192 C330 1.428 . S
C1242 C103 1.500 . S
C1227 C4 1.496 . S
C1292 C143 1.496 . S
C1277 C30 1.496 . S
C1327 C52 1.497 . S
C1342 C183 1.497 . S
C1377 C70 1.496 . S
C1392 C223 1.500 . S
C1442 C263 1.500 . S
C1427 C74 1.496 . S
C1477 C8 1.496 . S
C1492 C303 1.497 . S
C1527 C26 1.496 . S
C1542 C343 1.497 . S
C1577 C48 1.497 . S
C1592 C383 1.500 . S
