# Generated by pormake.
# Topology iac, (4,6)-cn, num edge types: 1
# Building blocks:
#     Node 0, Type 0, BuildingBlock: CEKHIL_clean_sbu_0, # of connection points: 4
#     Node 1, Type 0, BuildingBlock: CEKHIL_clean_sbu_0, # of connection points: 4
#     Node 2, Type 0, BuildingBlock: CEKHIL_clean_sbu_0, # of connection points: 4
#     Node 3, Type 0, BuildingBlock: CEKHIL_clean_sbu_0, # of connection points: 4
#     Node 4, Type 0, BuildingBlock: CEKHIL_clean_sbu_0, # of connection points: 4
#     Node 5, Type 0, BuildingBlock: CEKHIL_clean_sbu_0, # of connection points: 4
#     Node 6, Type 0, BuildingBlock: CEKHIL_clean_sbu_0, # of connection points: 4
#     Node 7, Type 0, BuildingBlock: CEKHIL_clean_sbu_0, # of connection points: 4
#     Node 8, Type 0, BuildingBlock: CEKHIL_clean_sbu_0, # of connection points: 4
#     Node 9, Type 0, BuildingBlock: CEKHIL_clean_sbu_0, # of connection points: 4
#     Node 10, Type 0, BuildingBlock: CEKHIL_clean_sbu_0, # of connection points: 4
#     Node 11, Type 0, BuildingBlock: CEKHIL_clean_sbu_0, # of connection points: 4
#     Node 12, Type 0, BuildingBlock: CEKHIL_clean_sbu_0, # of connection points: 4
#     Node 13, Type 0, BuildingBlock: CEKHIL_clean_sbu_0, # of connection points: 4
#     Node 14, Type 0, BuildingBlock: CEKHIL_clean_sbu_0, # of connection points: 4
#     Node 15, Type 0, BuildingBlock: CEKHIL_clean_sbu_0, # of connection points: 4
#     Node 16, Type 0, BuildingBlock: CEKHIL_clean_sbu_0, # of connection points: 4
#     Node 17, Type 0, BuildingBlock: CEKHIL_clean_sbu_0, # of connection points: 4
#     Node 18, Type 0, BuildingBlock: CEKHIL_clean_sbu_0, # of connection points: 4
#     Node 19, Type 0, BuildingBlock: CEKHIL_clean_sbu_0, # of connection points: 4
#     Node 20, Type 0, BuildingBlock: CEKHIL_clean_sbu_0, # of connection points: 4
#     Node 21, Type 0, BuildingBlock: CEKHIL_clean_sbu_0, # of connection points: 4
#     Node 22, Type 0, BuildingBlock: CEKHIL_clean_sbu_0, # of connection points: 4
#     Node 23, Type 0, BuildingBlock: CEKHIL_clean_sbu_0, # of connection points: 4
#     Node 24, Type 1, BuildingBlock: FUNLAD_clean_sbu_0, # of connection points: 6
#     Node 25, Type 1, BuildingBlock: FUNLAD_clean_sbu_0, # of connection points: 6
#     Node 26, Type 1, BuildingBlock: FUNLAD_clean_sbu_0, # of connection points: 6
#     Node 27, Type 1, BuildingBlock: FUNLAD_clean_sbu_0, # of connection points: 6
#     Node 28, Type 1, BuildingBlock: FUNLAD_clean_sbu_0, # of connection points: 6
#     Node 29, Type 1, BuildingBlock: FUNLAD_clean_sbu_0, # of connection points: 6
#     Node 30, Type 1, BuildingBlock: FUNLAD_clean_sbu_0, # of connection points: 6
#     Node 31, Type 1, BuildingBlock: FUNLAD_clean_sbu_0, # of connection points: 6
#     Node 32, Type 1, BuildingBlock: FUNLAD_clean_sbu_0, # of connection points: 6
#     Node 33, Type 1, BuildingBlock: FUNLAD_clean_sbu_0, # of connection points: 6
#     Node 34, Type 1, BuildingBlock: FUNLAD_clean_sbu_0, # of connection points: 6
#     Node 35, Type 1, BuildingBlock: FUNLAD_clean_sbu_0, # of connection points: 6
#     Node 36, Type 1, BuildingBlock: FUNLAD_clean_sbu_0, # of connection points: 6
#     Node 37, Type 1, BuildingBlock: FUNLAD_clean_sbu_0, # of connection points: 6
#     Node 38, Type 1, BuildingBlock: FUNLAD_clean_sbu_0, # of connection points: 6
#     Node 39, Type 1, BuildingBlock: FUNLAD_clean_sbu_0, # of connection points: 6
#     Edge 40, Type (0, 1), BuildingBlock: XIVTED_clean_linker_0, # of connection points: 2
#     Edge 41, Type (0, 1), BuildingBlock: XIVTED_clean_linker_0, # of connection points: 2
#     Edge 42, Type (0, 1), BuildingBlock: XIVTED_clean_linker_0, # of connection points: 2
#     Edge 43, Type (0, 1), BuildingBlock: XIVTED_clean_linker_0, # of connection points: 2
#     Edge 44, Type (0, 1), BuildingBlock: XIVTED_clean_linker_0, # of connection points: 2
#     Edge 45, Type (0, 1), BuildingBlock: XIVTED_clean_linker_0, # of connection points: 2
#     Edge 46, Type (0, 1), BuildingBlock: XIVTED_clean_linker_0, # of connection points: 2
#     Edge 47, Type (0, 1), BuildingBlock: XIVTED_clean_linker_0, # of connection points: 2
#     Edge 48, Type (0, 1), BuildingBlock: XIVTED_clean_linker_0, # of connection points: 2
#     Edge 49, Type (0, 1), BuildingBlock: XIVTED_clean_linker_0, # of connection points: 2
#     Edge 50, Type (0, 1), BuildingBlock: XIVTED_clean_linker_0, # of connection points: 2
#     Edge 51, Type (0, 1), BuildingBlock: XIVTED_clean_linker_0, # of connection points: 2
#     Edge 52, Type (0, 1), BuildingBlock: XIVTED_clean_linker_0, # of connection points: 2
#     Edge 53, Type (0, 1), BuildingBlock: XIVTED_clean_linker_0, # of connection points: 2
#     Edge 54, Type (0, 1), BuildingBlock: XIVTED_clean_linker_0, # of connection points: 2
#     Edge 55, Type (0, 1), BuildingBlock: XIVTED_clean_linker_0, # of connection points: 2
#     Edge 56, Type (0, 1), BuildingBlock: XIVTED_clean_linker_0, # of connection points: 2
#     Edge 57, Type (0, 1), BuildingBlock: XIVTED_clean_linker_0, # of connection points: 2
#     Edge 58, Type (0, 1), BuildingBlock: XIVTED_clean_linker_0, # of connection points: 2
#     Edge 59, Type (0, 1), BuildingBlock: XIVTED_clean_linker_0, # of connection points: 2
#     Edge 60, Type (0, 1), BuildingBlock: XIVTED_clean_linker_0, # of connection points: 2
#     Edge 61, Type (0, 1), BuildingBlock: XIVTED_clean_linker_0, # of connection points: 2
#     Edge 62, Type (0, 1), BuildingBlock: XIVTED_clean_linker_0, # of connection points: 2
#     Edge 63, Type (0, 1), BuildingBlock: XIVTED_clean_linker_0, # of connection points: 2
#     Edge 64, Type (0, 1), BuildingBlock: XIVTED_clean_linker_0, # of connection points: 2
#     Edge 65, Type (0, 1), BuildingBlock: XIVTED_clean_linker_0, # of connection points: 2
#     Edge 66, Type (0, 1), BuildingBlock: XIVTED_clean_linker_0, # of connection points: 2
#     Edge 67, Type (0, 1), BuildingBlock: XIVTED_clean_linker_0, # of connection points: 2
#     Edge 68, Type (0, 1), BuildingBlock: XIVTED_clean_linker_0, # of connection points: 2
#     Edge 69, Type (0, 1), BuildingBlock: XIVTED_clean_linker_0, # of connection points: 2
#     Edge 70, Type (0, 1), BuildingBlock: XIVTED_clean_linker_0, # of connection points: 2
#     Edge 71, Type (0, 1), BuildingBlock: XIVTED_clean_linker_0, # of connection points: 2
#     Edge 72, Type (0, 1), BuildingBlock: XIVTED_clean_linker_0, # of connection points: 2
#     Edge 73, Type (0, 1), BuildingBlock: XIVTED_clean_linker_0, # of connection points: 2
#     Edge 74, Type (0, 1), BuildingBlock: XIVTED_clean_linker_0, # of connection points: 2
#     Edge 75, Type (0, 1), BuildingBlock: XIVTED_clean_linker_0, # of connection points: 2
#     Edge 76, Type (0, 1), BuildingBlock: XIVTED_clean_linker_0, # of connection points: 2
#     Edge 77, Type (0, 1), BuildingBlock: XIVTED_clean_linker_0, # of connection points: 2
#     Edge 78, Type (0, 1), BuildingBlock: XIVTED_clean_linker_0, # of connection points: 2
#     Edge 79, Type (0, 1), BuildingBlock: XIVTED_clean_linker_0, # of connection points: 2
#     Edge 80, Type (0, 1), BuildingBlock: XIVTED_clean_linker_0, # of connection points: 2
#     Edge 81, Type (0, 1), BuildingBlock: XIVTED_clean_linker_0, # of connection points: 2
#     Edge 82, Type (0, 1), BuildingBlock: XIVTED_clean_linker_0, # of connection points: 2
#     Edge 83, Type (0, 1), BuildingBlock: XIVTED_clean_linker_0, # of connection points: 2
#     Edge 84, Type (0, 1), BuildingBlock: XIVTED_clean_linker_0, # of connection points: 2
#     Edge 85, Type (0, 1), BuildingBlock: XIVTED_clean_linker_0, # of connection points: 2
#     Edge 86, Type (0, 1), BuildingBlock: XIVTED_clean_linker_0, # of connection points: 2
#     Edge 87, Type (0, 1), BuildingBlock: XIVTED_clean_linker_0, # of connection points: 2
#     Edge 88, Type (0, 1), BuildingBlock: XIVTED_clean_linker_0, # of connection points: 2
#     Edge 89, Type (0, 1), BuildingBlock: XIVTED_clean_linker_0, # of connection points: 2
#     Edge 90, Type (0, 1), BuildingBlock: XIVTED_clean_linker_0, # of connection points: 2
#     Edge 91, Type (0, 1), BuildingBlock: XIVTED_clean_linker_0, # of connection points: 2
#     Edge 92, Type (0, 1), BuildingBlock: XIVTED_clean_linker_0, # of connection points: 2
#     Edge 93, Type (0, 1), BuildingBlock: XIVTED_clean_linker_0, # of connection points: 2
#     Edge 94, Type (0, 1), BuildingBlock: XIVTED_clean_linker_0, # of connection points: 2
#     Edge 95, Type (0, 1), BuildingBlock: XIVTED_clean_linker_0, # of connection points: 2
#     Edge 96, Type (0, 1), BuildingBlock: XIVTED_clean_linker_0, # of connection points: 2
#     Edge 97, Type (0, 1), BuildingBlock: XIVTED_clean_linker_0, # of connection points: 2
#     Edge 98, Type (0, 1), BuildingBlock: XIVTED_clean_linker_0, # of connection points: 2
#     Edge 99, Type (0, 1), BuildingBlock: XIVTED_clean_linker_0, # of connection points: 2
#     Edge 100, Type (0, 1), BuildingBlock: XIVTED_clean_linker_0, # of connection points: 2
#     Edge 101, Type (0, 1), BuildingBlock: XIVTED_clean_linker_0, # of connection points: 2
#     Edge 102, Type (0, 1), BuildingBlock: XIVTED_clean_linker_0, # of connection points: 2
#     Edge 103, Type (0, 1), BuildingBlock: XIVTED_clean_linker_0, # of connection points: 2
#     Edge 104, Type (0, 1), BuildingBlock: XIVTED_clean_linker_0, # of connection points: 2
#     Edge 105, Type (0, 1), BuildingBlock: XIVTED_clean_linker_0, # of connection points: 2
#     Edge 106, Type (0, 1), BuildingBlock: XIVTED_clean_linker_0, # of connection points: 2
#     Edge 107, Type (0, 1), BuildingBlock: XIVTED_clean_linker_0, # of connection points: 2
#     Edge 108, Type (0, 1), BuildingBlock: XIVTED_clean_linker_0, # of connection points: 2
#     Edge 109, Type (0, 1), BuildingBlock: XIVTED_clean_linker_0, # of connection points: 2
#     Edge 110, Type (0, 1), BuildingBlock: XIVTED_clean_linker_0, # of connection points: 2
#     Edge 111, Type (0, 1), BuildingBlock: XIVTED_clean_linker_0, # of connection points: 2
#     Edge 112, Type (0, 1), BuildingBlock: XIVTED_clean_linker_0, # of connection points: 2
#     Edge 113, Type (0, 1), BuildingBlock: XIVTED_clean_linker_0, # of connection points: 2
#     Edge 114, Type (0, 1), BuildingBlock: XIVTED_clean_linker_0, # of connection points: 2
#     Edge 115, Type (0, 1), BuildingBlock: XIVTED_clean_linker_0, # of connection points: 2
#     Edge 116, Type (0, 1), BuildingBlock: XIVTED_clean_linker_0, # of connection points: 2
#     Edge 117, Type (0, 1), BuildingBlock: XIVTED_clean_linker_0, # of connection points: 2
#     Edge 118, Type (0, 1), BuildingBlock: XIVTED_clean_linker_0, # of connection points: 2
#     Edge 119, Type (0, 1), BuildingBlock: XIVTED_clean_linker_0, # of connection points: 2
#     Edge 120, Type (0, 1), BuildingBlock: XIVTED_clean_linker_0, # of connection points: 2
#     Edge 121, Type (0, 1), BuildingBlock: XIVTED_clean_linker_0, # of connection points: 2
#     Edge 122, Type (0, 1), BuildingBlock: XIVTED_clean_linker_0, # of connection points: 2
#     Edge 123, Type (0, 1), BuildingBlock: XIVTED_clean_linker_0, # of connection points: 2
#     Edge 124, Type (0, 1), BuildingBlock: XIVTED_clean_linker_0, # of connection points: 2
#     Edge 125, Type (0, 1), BuildingBlock: XIVTED_clean_linker_0, # of connection points: 2
#     Edge 126, Type (0, 1), BuildingBlock: XIVTED_clean_linker_0, # of connection points: 2
#     Edge 127, Type (0, 1), BuildingBlock: XIVTED_clean_linker_0, # of connection points: 2
#     Edge 128, Type (0, 1), BuildingBlock: XIVTED_clean_linker_0, # of connection points: 2
#     Edge 129, Type (0, 1), BuildingBlock: XIVTED_clean_linker_0, # of connection points: 2
#     Edge 130, Type (0, 1), BuildingBlock: XIVTED_clean_linker_0, # of connection points: 2
#     Edge 131, Type (0, 1), BuildingBlock: XIVTED_clean_linker_0, # of connection points: 2
#     Edge 132, Type (0, 1), BuildingBlock: XIVTED_clean_linker_0, # of connection points: 2
#     Edge 133, Type (0, 1), BuildingBlock: XIVTED_clean_linker_0, # of connection points: 2
#     Edge 134, Type (0, 1), BuildingBlock: XIVTED_clean_linker_0, # of connection points: 2
#     Edge 135, Type (0, 1), BuildingBlock: XIVTED_clean_linker_0, # of connection points: 2
# Relax obj value: 0.319
# Max RMSD: 0.281
# Mean RMSD: 0.132
data_MOF--net-iac--node1-CEKHIL_clean_sbu_0--node2-FUNLAD_clean_sbu_0--edge1-XIVTED_clean_linker_0
_symmetry_space_group_name_H-M    P1
_symmetry_Int_Tables_number       1
_symmetry_cell_setting            triclinic
loop_
_symmetry_equiv_pos_as_xyz
'x, y, z'
_cell_length_a     55.441957
_cell_length_b     52.99244
_cell_length_c     58.643153
_cell_angle_alpha  89.878152
_cell_angle_beta   92.250516
_cell_angle_gamma 90.509251
loop_
_atom_site_label
_atom_site_type_symbol
_atom_site_fract_x
_atom_site_fract_y
_atom_site_fract_z
_atom_type_partial_charge
Co0 Co 0.04756 0.22617 0.12841 0.0
O1 O 0.01719 0.24174 0.13298 0.0
O2 O 0.0377 0.21928 0.15904 0.0
C3 C 0.06525 0.25873 0.11146 0.0
O4 O 0.0798 0.20844 0.12972 0.0
Co5 Co 0.06393 0.21611 0.07937 0.0
O6 O 0.09603 0.21189 0.0953 0.0
C7 C 0.02435 0.18634 0.09777 0.0
C8 C 0.01839 0.23196 0.1533 0.0
C9 C 0.09786 0.2072 0.11663 0.0
O10 O 0.03022 0.19494 0.11763 0.0
O11 O 0.03421 0.19403 0.0796 0.0
O12 O 0.06454 0.25795 0.13359 0.0
O13 O 0.05301 0.24145 0.10046 0.0
Co14 Co 0.04323 0.76561 0.39138 0.0
O15 O 0.07837 0.76723 0.39413 0.0
O16 O 0.05797 0.7561 0.36281 0.0
C17 C 0.03671 0.80338 0.40888 0.0
O18 O 0.007 0.76298 0.38115 0.0
Co19 Co 0.01142 0.76505 0.43403 0.0
O20 O 0.98402 0.76834 0.41155 0.0
C21 C 0.04097 0.72088 0.42353 0.0
C22 C 0.07893 0.76017 0.37298 0.0
C23 C 0.98615 0.76547 0.39014 0.0
O24 O 0.04392 0.72918 0.40304 0.0
O25 O 0.03098 0.73381 0.4389 0.0
O26 O 0.04186 0.80275 0.38742 0.0
O27 O 0.03741 0.78185 0.41901 0.0
Co28 Co 0.54929 0.75278 0.64355 0.0
O29 O 0.51488 0.75236 0.63884 0.0
O30 O 0.53543 0.731 0.66576 0.0
C31 C 0.55583 0.79424 0.64095 0.0
O32 O 0.58422 0.74939 0.65426 0.0
Co33 Co 0.58249 0.76983 0.60489 0.0
O34 O 0.60741 0.77079 0.63014 0.0
C35 C 0.5556 0.72232 0.6007 0.0
C36 C 0.51478 0.73656 0.65584 0.0
C37 C 0.60438 0.7596 0.64908 0.0
O38 O 0.55131 0.72365 0.622 0.0
O39 O 0.56619 0.73996 0.5899 0.0
O40 O 0.54834 0.78472 0.6599 0.0
O41 O 0.55583 0.77908 0.6237 0.0
Co42 Co 0.54664 0.26563 0.88891 0.0
O43 O 0.58163 0.26624 0.89252 0.0
O44 O 0.56168 0.25413 0.8612 0.0
C45 C 0.54117 0.30447 0.90451 0.0
O46 O 0.51061 0.26374 0.87795 0.0
Co47 Co 0.51369 0.26886 0.93063 0.0
O48 O 0.4871 0.27224 0.90736 0.0
C49 C 0.54226 0.22308 0.923 0.0
C50 C 0.58247 0.25819 0.87169 0.0
C51 C 0.48967 0.26784 0.88624 0.0
O52 O 0.54593 0.22994 0.90222 0.0
O53 O 0.53218 0.23731 0.93737 0.0
O54 O 0.54667 0.30247 0.88322 0.0
O55 O 0.54075 0.28352 0.91557 0.0
Co56 Co 0.15507 0.99385 0.26082 0.0
O57 O 0.15558 0.9576 0.26316 0.0
O58 O 0.18539 0.98162 0.2508 0.0
C59 C 0.1401 0.00123 0.29516 0.0
O60 O 0.16235 0.03116 0.25694 0.0
Co61 Co 0.10829 0.02543 0.26197 0.0
O62 O 0.13091 0.05441 0.26704 0.0
C63 C 0.11724 0.9919 0.22306 0.0
C64 C 0.1772 0.95923 0.2554 0.0
C65 C 0.153 0.05238 0.26215 0.0
O66 O 0.13977 0.99077 0.22917 0.0
O67 O 0.10155 0.00282 0.235 0.0
O68 O 0.16309 0.99723 0.29352 0.0
O69 O 0.12709 -0.00114 0.27659 0.0
Co70 Co 0.26934 0.89519 0.53594 0.0
O71 O 0.23479 0.89237 0.53174 0.0
O72 O 0.25394 0.92504 0.54771 0.0
C73 C 0.27872 0.88277 0.50073 0.0
O74 O 0.30498 0.90486 0.54206 0.0
Co75 Co 0.30096 0.84689 0.53233 0.0
O76 O 0.32809 0.87135 0.53428 0.0
C77 C 0.26945 0.8534 0.57091 0.0
C78 C 0.23356 0.91439 0.5412 0.0
C79 C 0.32574 0.89449 0.53959 0.0
O80 O 0.26735 0.87712 0.56634 0.0
O81 O 0.27968 0.83788 0.55779 0.0
O82 O 0.27236 0.90599 0.50408 0.0
O83 O 0.27654 0.8678 0.51784 0.0
Co84 Co 0.40793 0.02152 0.75089 0.0
O85 O 0.40732 0.05772 0.75367 0.0
O86 O 0.3764 0.03391 0.74149 0.0
C87 C 0.42623 0.0138 0.78507 0.0
O88 O 0.40094 0.98386 0.74704 0.0
Co89 Co 0.45582 0.99157 0.75097 0.0
O90 O 0.43461 0.96165 0.75496 0.0
C91 C 0.44203 0.02532 0.71264 0.0
C92 C 0.38493 0.05628 0.74634 0.0
C93 C 0.41186 0.96287 0.75116 0.0
O94 O 0.42002 0.02537 0.71892 0.0
O95 O 0.45923 0.01503 0.72441 0.0
O96 O 0.40307 0.01753 0.78361 0.0
O97 O 0.43753 0.01685 0.76646 0.0
Co98 Co 0.31244 0.13812 0.0208 0.0
O99 O 0.3397 0.12623 0.00491 0.0
O100 O 0.32258 0.10634 0.0336 0.0
C101 C 0.28967 0.14968 0.99047 0.0
O102 O 0.28366 0.14368 0.04033 0.0
Co103 Co 0.29778 0.19437 0.01941 0.0
O104 O 0.26695 0.18096 0.03113 0.0
C105 C 0.34064 0.17924 0.04677 0.0
C106 C 0.33939 0.10706 0.01876 0.0
C107 C 0.2661 0.15936 0.04068 0.0
O108 O 0.33463 0.15609 0.04327 0.0
O109 O 0.32932 0.1977 0.03733 0.0
O110 O 0.29053 0.12605 -0.00355 0.0
O111 O 0.30462 0.16478 0.00122 0.0
Co112 Co 0.78198 0.39728 0.03376 0.0
O113 O 0.74771 0.39415 0.02798 0.0
O114 O 0.76561 0.42619 0.04618 0.0
C115 C 0.79246 0.38653 -0.00161 0.0
O116 O 0.81718 0.40778 0.04103 0.0
Co117 Co 0.81501 0.35026 0.02935 0.0
O118 O 0.84092 0.37614 0.02988 0.0
C119 C 0.7828 0.35417 0.06788 0.0
C120 C 0.74577 0.41582 0.03793 0.0
C121 C 0.83806 0.39875 0.03659 0.0
O122 O 0.77924 0.37777 0.06349 0.0
O123 O 0.79449 0.33971 0.0549 0.0
O124 O 0.78577 0.40951 0.0024 0.0
O125 O 0.79026 0.37085 0.01497 0.0
Co126 Co 0.90296 0.51903 0.2612 0.0
O127 O 0.90627 0.55524 0.25908 0.0
O128 O 0.8747 0.53312 0.2458 0.0
C129 C 0.91485 0.51547 0.29826 0.0
O130 O 0.89209 0.48202 0.26128 0.0
Co131 Co 0.94658 0.48405 0.27352 0.0
O132 O 0.92113 0.45844 0.27833 0.0
C133 C 0.94138 0.50669 0.22746 0.0
C134 C 0.88489 0.55505 0.24919 0.0
C135 C 0.89969 0.4611 0.27011 0.0
O136 O 0.92014 0.51505 0.23144 0.0
O137 O 0.95498 0.49579 0.24253 0.0
O138 O 0.89279 0.52188 0.29281 0.0
O139 O 0.92911 0.51386 0.28153 0.0
Co140 Co 0.82792 0.65232 0.52537 0.0
O141 O 0.8617 0.64568 0.52777 0.0
O142 O 0.83384 0.62744 0.54883 0.0
C143 C 0.82327 0.65028 0.48753 0.0
O144 O 0.79151 0.6537 0.52697 0.0
Co145 Co 0.80855 0.70071 0.50175 0.0
O146 O 0.77803 0.68063 0.49987 0.0
C147 C 0.83273 0.70438 0.54698 0.0
C148 C 0.85637 0.62988 0.54381 0.0
C149 C 0.77459 0.66244 0.51367 0.0
O150 O 0.83275 0.68019 0.5481 0.0
O151 O 0.82493 0.71665 0.52941 0.0
O152 O 0.82365 0.62967 0.49957 0.0
O153 O 0.82857 0.67097 0.49841 0.0
Co154 Co 0.66483 0.49615 0.7555 0.0
O155 O 0.66237 0.45992 0.75684 0.0
O156 O 0.69386 0.48157 0.7447 0.0
C157 C 0.65125 0.50419 0.79039 0.0
O158 O 0.67477 0.53284 0.75241 0.0
Co159 Co 0.61993 0.53085 0.75828 0.0
O160 O 0.64474 0.55773 0.76338 0.0
C161 C 0.62737 0.50029 0.71722 0.0
C162 C 0.68395 0.45984 0.74891 0.0
C163 C 0.66652 0.55446 0.75792 0.0
O164 O 0.64932 0.49585 0.72385 0.0
O165 O 0.61227 0.51159 0.72952 0.0
O166 O 0.67361 0.49772 0.78818 0.0
O167 O 0.63769 0.50314 0.77206 0.0
Co168 Co 0.01715 0.81089 0.9002 0.0
O169 O 0.04953 0.80138 0.90847 0.0
O170 O 0.0263 0.78317 0.88143 0.0
C171 C 0.0253 0.85233 0.89856 0.0
O172 O 0.98367 0.81561 0.88658 0.0
Co173 Co 0.98743 0.8441 0.93148 0.0
O174 O 0.9613 0.84109 0.90756 0.0
C175 C 0.99458 0.79072 0.94282 0.0
C176 C 0.0473 0.78506 0.89202 0.0
C177 C 0.96389 0.82691 0.89035 0.0
O178 O 0.00414 0.78734 0.9235 0.0
O179 O 0.98891 0.8124 0.95042 0.0
O180 O 0.02929 0.83792 0.8813 0.0
O181 O 0.01805 0.84113 0.91672 0.0
Co182 Co 0.02489 0.26511 0.65546 0.0
O183 O 0.99006 0.26269 0.65179 0.0
O184 O 0.01073 0.25166 0.68302 0.0
C185 C 0.02688 0.30518 0.64136 0.0
O186 O 0.06092 0.26601 0.66619 0.0
Co187 Co 0.05731 0.2746 0.61421 0.0
O188 O 0.08299 0.28125 0.63781 0.0
C189 C 0.03704 0.22324 0.62225 0.0
C190 C 0.98974 0.25471 0.67268 0.0
C191 C 0.08116 0.274 0.6584 0.0
O192 O 0.02852 0.23003 0.64153 0.0
O193 O 0.04711 0.23878 0.60873 0.0
O194 O 0.02223 0.30126 0.66261 0.0
O195 O 0.02891 0.28509 0.62929 0.0
Co196 Co 0.48901 0.28325 0.38539 0.0
O197 O 0.51919 0.26585 0.38626 0.0
O198 O 0.49742 0.27477 0.3548 0.0
C199 C 0.50243 0.31371 0.40917 0.0
O200 O 0.45772 0.3012 0.37743 0.0
Co201 Co 0.45906 0.29295 0.42783 0.0
O202 O 0.43773 0.31377 0.40781 0.0
C203 C 0.45641 0.24319 0.4042 0.0
C204 C 0.51726 0.26587 0.36412 0.0
C205 C 0.43991 0.31238 0.38635 0.0
O206 O 0.47077 0.25081 0.3889 0.0
O207 O 0.45079 0.25661 0.42133 0.0
O208 O 0.50632 0.3151 0.38753 0.0
O209 O 0.49117 0.29379 0.41599 0.0
Co210 Co 0.52334 0.76451 0.15444 0.0
O211 O 0.48826 0.76335 0.1514 0.0
O212 O 0.50892 0.7537 0.18291 0.0
C213 C 0.52655 0.80313 0.13743 0.0
O214 O 0.55966 0.76456 0.16479 0.0
Co215 Co 0.55573 0.76947 0.11232 0.0
O216 O 0.58209 0.77608 0.13528 0.0
C217 C 0.53028 0.72127 0.12177 0.0
C218 C 0.48788 0.75676 0.17268 0.0
C219 C 0.58017 0.77075 0.15634 0.0
O220 O 0.52524 0.72848 0.14213 0.0
O221 O 0.53989 0.73584 0.10717 0.0
O222 O 0.52209 0.80148 0.15899 0.0
O223 O 0.52786 0.78189 0.12707 0.0
Co224 Co 0.91074 0.00803 0.81064 0.0
O225 O 0.91628 0.04295 0.80307 0.0
O226 O 0.88222 0.0217 0.79586 0.0
C227 C 0.92671 0.012 0.84637 0.0
O228 O 0.89674 0.97329 0.81645 0.0
Co229 Co 0.94951 0.96973 0.82483 0.0
O230 O 0.9229 0.94672 0.83342 0.0
C231 C 0.94145 0.98286 0.77587 0.0
C232 C 0.89386 0.04306 0.79569 0.0
C233 C 0.90172 0.95201 0.8259 0.0
O234 O 0.92325 0.99651 0.78067 0.0
O235 O 0.95497 0.9721 0.79116 0.0
O236 O 0.90441 0.01799 0.84166 0.0
O237 O 0.93891 0.00416 0.82945 0.0
Co238 Co 0.77656 0.12177 0.48542 0.0
O239 O 0.81096 0.12482 0.49029 0.0
O240 O 0.79013 0.08996 0.49658 0.0
C241 C 0.77633 0.14085 0.4509 0.0
O242 O 0.74072 0.11182 0.48193 0.0
Co243 Co 0.74459 0.16976 0.47774 0.0
O244 O 0.71904 0.14499 0.46897 0.0
C245 C 0.76072 0.15379 0.52467 0.0
C246 C 0.81108 0.10126 0.49619 0.0
C247 C 0.72063 0.12188 0.47482 0.0
O248 O 0.77087 0.13371 0.51738 0.0
O249 O 0.75134 0.17066 0.51147 0.0
O250 O 0.78106 0.11694 0.45262 0.0
O251 O 0.77321 0.15234 0.46981 0.0
Co252 Co 0.65899 0.00659 0.31878 0.0
O253 O 0.65634 0.97048 0.31547 0.0
O254 O 0.68921 0.99306 0.30918 0.0
C255 C 0.64081 0.0066 0.35269 0.0
O256 O 0.66941 0.04361 0.32037 0.0
Co257 Co 0.6151 0.04189 0.32389 0.0
O258 O 0.63903 0.06949 0.32811 0.0
C259 C 0.62918 0.02473 0.27791 0.0
C260 C 0.67885 0.971 0.31015 0.0
C261 C 0.66103 0.06582 0.32375 0.0
O262 O 0.64724 0.01211 0.28622 0.0
O263 O 0.61421 0.03643 0.29007 0.0
O264 O 0.66379 0.00215 0.3519 0.0
O265 O 0.62973 0.0105 0.33331 0.0
Co266 Co 0.7584 0.87014 0.01456 0.0
O267 O 0.73475 0.88344 0.03428 0.0
O268 O 0.75917 0.90635 0.01325 0.0
C269 C 0.73337 0.84129 -0.00178 0.0
O270 O 0.7845 0.86418 0.99193 0.0
Co271 Co 0.77594 0.81485 0.01461 0.0
O272 O 0.79507 0.82379 0.98796 0.0
C273 C 0.79657 0.85192 0.04846 0.0
C274 C 0.74134 0.90552 0.02695 0.0
C275 C 0.79708 0.84699 0.98269 0.0
O276 O 0.7834 0.86977 0.04013 0.0
O277 O 0.79539 0.82909 0.04131 0.0
O278 O 0.73328 0.86453 0.99116 0.0
O279 O 0.74781 0.83628 0.01544 0.0
Co280 Co 0.28893 0.6219 0.98561 0.0
O281 O 0.32347 0.62489 0.98646 0.0
O282 O 0.30352 0.59056 -0.00356 0.0
C283 C 0.28459 0.63952 0.95054 0.0
O284 O 0.25315 0.61208 0.98669 0.0
Co285 Co 0.25702 0.67019 0.98018 0.0
O286 O 0.22999 0.64564 0.9777 0.0
C287 C 0.28115 0.65728 0.02475 0.0
C288 C 0.3242 0.60165 0.99331 0.0
C289 C 0.23235 0.62246 0.98314 0.0
O290 O 0.28756 0.63547 0.01759 0.0
O291 O 0.27146 0.67419 0.01179 0.0
O292 O 0.28929 0.61562 0.95251 0.0
O293 O 0.28382 0.65173 0.96938 0.0
Co294 Co 0.16402 0.51132 0.8163 0.0
O295 O 0.16235 0.47516 0.81306 0.0
O296 O 0.19483 0.49858 0.80735 0.0
C297 C 0.14524 0.51257 0.84976 0.0
O298 O 0.17317 0.54851 0.81818 0.0
Co299 Co 0.11802 0.54478 0.81932 0.0
O300 O 0.14123 0.57301 0.82445 0.0
C301 C 0.13441 0.52714 0.77436 0.0
C302 C 0.18493 0.47628 0.80798 0.0
C303 C 0.16366 0.57024 0.82128 0.0
O304 O 0.15331 0.51661 0.78345 0.0
O305 O 0.11781 0.53699 0.78597 0.0
O306 O 0.16813 0.5075 0.84952 0.0
O307 O 0.13439 0.51497 0.83011 0.0
Co308 Co 0.25207 0.35906 0.49218 0.0
O309 O 0.22155 0.35527 0.50611 0.0
O310 O 0.24607 0.38842 0.51007 0.0
C311 C 0.23756 0.3471 0.45767 0.0
O312 O 0.2839 0.3709 0.48033 0.0
Co313 Co 0.27943 0.31586 0.47144 0.0
O314 O 0.30396 0.34102 0.46232 0.0
C315 C 0.28292 0.32337 0.52113 0.0
C316 C 0.22529 0.37799 0.51383 0.0
C317 C 0.30213 0.36354 0.46942 0.0
O318 O 0.26933 0.34272 0.51868 0.0
O319 O 0.28804 0.3089 0.50459 0.0
O320 O 0.23575 0.3702 0.46457 0.0
O321 O 0.24757 0.33126 0.47201 0.0
Co322 Co 0.39737 0.5004 0.29627 0.0
O323 O 0.40032 0.53642 0.29946 0.0
O324 O 0.36736 0.5161 0.28682 0.0
C325 C 0.41505 0.49261 0.33085 0.0
O326 O 0.38674 0.46404 0.29107 0.0
Co327 Co 0.44135 0.46479 0.29753 0.0
O328 O 0.41757 0.43689 0.29332 0.0
C329 C 0.43041 0.49679 0.25723 0.0
C330 C 0.37786 0.53736 0.2924 0.0
C331 C 0.39523 0.4416 0.28994 0.0
O332 O 0.40943 0.50204 0.26442 0.0
O333 O 0.44655 0.48498 0.26913 0.0
O334 O 0.39214 0.49758 0.32892 0.0
O335 O 0.42646 0.49302 0.31213 0.0
C336 C 0.00918 0.02308 -0.0026 0.0
N337 N 0.98556 0.95821 0.02893 0.0
C338 C 0.96423 0.96977 0.02382 0.0
C339 C 0.94472 0.95621 0.01455 0.0
C340 C 0.94656 0.93008 0.01106 0.0
C341 C 0.96846 0.91829 0.01758 0.0
C342 C 0.98794 0.93285 0.02632 0.0
Zn343 Zn 0.01411 0.98235 0.03475 0.0
C344 C 0.05463 0.96979 0.00435 0.0
N345 N 0.0715 0.03603 0.03787 0.0
C346 C 0.06923 0.06149 0.03582 0.0
C347 C 0.09315 0.02541 0.04352 0.0
C348 C 0.11348 0.04038 0.04769 0.0
C349 C 0.11205 0.0667 0.04511 0.0
C350 C 0.08945 0.07728 0.0392 0.0
Zn351 Zn 0.04307 0.01167 0.0334 0.0
O352 O 1.00084 0.00328 0.00644 0.0
C353 C 0.00251 0.02517 0.06314 0.0
O354 O 0.02862 0.03291 0.0055 0.0
H355 H 0.09476 0.00516 0.04483 0.0
H356 H 0.96267 0.98997 0.02563 0.0
H357 H 0.05181 0.06954 0.03138 0.0
O358 O 0.99334 0.00434 0.0565 0.0
O359 O 0.02294 0.0323 0.05629 0.0
H360 H 0.00516 0.92407 0.03021 0.0
O361 O 0.05713 0.98967 0.0609 0.0
O362 O 0.02776 0.9618 0.06326 0.0
O363 O 0.06248 0.99138 0.01025 0.0
O364 O 0.03538 0.96104 0.01259 0.0
C365 C 0.0481 0.97048 0.07049 0.0
H366 H 0.92872 0.96658 0.0093 0.0
H367 H 0.97075 0.89817 0.01561 0.0
H368 H 0.13018 0.03121 0.05287 0.0
H369 H 0.08742 0.09741 0.03679 0.0
C370 C 0.32735 0.75645 0.25058 0.0
N371 N 0.26001 0.72905 0.22629 0.0
C372 C 0.26447 0.74267 0.20723 0.0
C373 C 0.26079 0.73202 0.18578 0.0
C374 C 0.25279 0.70691 0.1838 0.0
C375 C 0.24731 0.69349 0.20362 0.0
C376 C 0.2509 0.70512 0.22491 0.0
Zn377 Zn 0.27334 0.74403 0.25612 0.0
C378 C 0.29621 0.70423 0.28559 0.0
N379 N 0.30596 0.77543 0.3162 0.0
C380 C 0.31806 0.79782 0.31493 0.0
C381 C 0.30049 0.76511 0.3366 0.0
C382 C 0.30602 0.77811 0.35678 0.0
C383 C 0.31709 0.80203 0.35588 0.0
C384 C 0.32373 0.81159 0.3347 0.0
Zn385 Zn 0.29181 0.75964 0.28712 0.0
O386 O 0.30811 0.7486 0.24019 0.0
C387 C 0.26846 0.79929 0.25751 0.0
O388 O 0.32616 0.76313 0.27133 0.0
H389 H 0.29067 0.74741 0.33714 0.0
H390 H 0.27242 0.76131 0.2086 0.0
H391 H 0.32224 0.80563 0.29849 0.0
O392 O 0.26235 0.78023 0.24555 0.0
O393 O 0.28152 0.79623 0.27555 0.0
H394 H 0.24766 0.69456 0.2403 0.0
O395 O 0.25689 0.75591 0.30284 0.0
O396 O 0.23907 0.73969 0.27217 0.0
O397 O 0.30205 0.72287 0.29832 0.0
O398 O 0.28399 0.70799 0.26717 0.0
C399 C 0.23778 0.74728 0.29271 0.0
H400 H 0.26576 0.74285 0.17097 0.0
H401 H 0.24112 0.67407 0.2027 0.0
H402 H 0.30031 0.77022 0.37276 0.0
H403 H 0.33244 0.82989 0.33336 0.0
C404 C 0.50435 0.04684 0.56205 0.0
N405 N 0.55202 0.98727 0.55817 0.0
C406 C 0.56253 0.99808 0.57721 0.0
C407 C 0.57476 0.98324 0.59351 0.0
C408 C 0.57672 0.95734 0.58962 0.0
C409 C 0.56655 0.94686 0.56947 0.0
C410 C 0.55399 0.96222 0.55397 0.0
Zn411 Zn 0.53217 0.0086 0.53599 0.0
C412 C 0.48197 0.98951 0.52808 0.0
N413 N 0.49049 0.05559 0.49195 0.0
C414 C 0.48775 0.08063 0.49582 0.0
C415 C 0.47935 0.04393 0.47365 0.0
C416 C 0.46522 0.05774 0.458 0.0
C417 C 0.46209 0.08351 0.46172 0.0
C418 C 0.47335 0.09501 0.48091 0.0
Zn419 Zn 0.51073 0.03458 0.5141 0.0
O420 O 0.51891 0.02856 0.5637 0.0
C421 C 0.56114 0.0531 0.52131 0.0
O422 O 0.49733 0.05466 0.54244 0.0
H423 H 0.48147 0.02389 0.4711 0.0
H424 H 0.56095 0.01814 0.58006 0.0
H425 H 0.49684 0.08946 0.51042 0.0
O426 O 0.56162 0.03351 0.5338 0.0
O427 O 0.5413 0.0595 0.51131 0.0
H428 H 0.54532 0.95404 0.53886 0.0
O429 O 0.52399 0.01446 0.48629 0.0
O430 O 0.54605 0.98914 0.50784 0.0
O431 O 0.48119 0.00981 0.51661 0.0
O432 O 0.50185 0.98305 0.53792 0.0
C433 C 0.53935 0.99689 0.48813 0.0
H434 H 0.58222 0.99173 0.60905 0.0
H435 H 0.56733 0.92675 0.56626 0.0
H436 H 0.45688 0.04847 0.44321 0.0
H437 H 0.47158 0.11506 0.48394 0.0
C438 C 0.2981 0.21901 0.757 0.0
N439 N 0.26129 0.24591 0.81232 0.0
C440 C 0.24589 0.22584 0.81023 0.0
C441 C 0.23557 0.2155 0.82948 0.0
C442 C 0.24126 0.22592 0.85103 0.0
C443 C 0.25652 0.24723 0.8525 0.0
C444 C 0.26637 0.25696 0.83284 0.0
Zn445 Zn 0.27738 0.25957 0.78448 0.0
C446 C 0.33103 0.27017 0.79423 0.0
N447 N 0.31108 0.28886 0.72638 0.0
C448 C 0.33058 0.27714 0.71793 0.0
C449 C 0.29955 0.30762 0.71463 0.0
C450 C 0.3067 0.31436 0.69297 0.0
C451 C 0.32565 0.30138 0.68317 0.0
C452 C 0.33809 0.28299 0.69608 0.0
Zn453 Zn 0.29574 0.27555 0.75493 0.0
O454 O 0.28606 0.22239 0.77469 0.0
C455 C 0.24218 0.26497 0.7453 0.0
O456 O 0.30415 0.238 0.74521 0.0
H457 H 0.28389 0.31643 0.72149 0.0
H458 H 0.24202 0.21748 0.79366 0.0
H459 H 0.33955 0.26234 0.72764 0.0
O460 O 0.24361 0.2572 0.7658 0.0
O461 O 0.26125 0.27321 0.7363 0.0
H462 H 0.27861 0.27295 0.83404 0.0
O463 O 0.28712 0.31299 0.76517 0.0
O464 O 0.26845 0.29668 0.79403 0.0
O465 O 0.3298 0.2777 0.77359 0.0
O466 O 0.31182 0.26216 0.80321 0.0
C467 C 0.27449 0.31594 0.78258 0.0
H468 H 0.22382 0.19914 0.82759 0.0
H469 H 0.26185 0.25556 0.86879 0.0
H470 H 0.29639 0.32836 0.68339 0.0
H471 H 0.35279 0.27263 0.68901 0.0
C472 C 0.06899 0.99084 0.53604 0.0
N473 N 0.03889 0.03301 0.48181 0.0
C474 C 0.06219 0.04104 0.48052 0.0
C475 C 0.07222 0.04485 0.45931 0.0
C476 C 0.05791 0.04106 0.43925 0.0
C477 C 0.03311 0.03611 0.44136 0.0
C478 C 0.02408 0.03156 0.46282 0.0
Zn479 Zn 0.02775 0.01643 0.51113 0.0
C480 C 0.01495 0.96149 0.50107 0.0
N481 N 0.00502 0.97894 0.57111 0.0
C482 C 0.01989 0.98252 0.58986 0.0
C483 C 0.98274 0.96826 0.57288 0.0
C484 C 0.9742 0.96199 0.59434 0.0
C485 C 0.98892 0.96645 0.61399 0.0
C486 C 0.01227 0.97618 0.61148 0.0
Zn487 Zn 0.01562 0.99527 0.54144 0.0
O488 O 0.06381 0.00471 0.51891 0.0
C489 C 0.02904 0.05059 0.55054 0.0
O490 O 0.05223 0.984 0.54893 0.0
H491 H 0.97114 0.9657 0.55779 0.0
H492 H 0.07361 0.0426 0.49582 0.0
H493 H 0.03726 0.99163 0.58826 0.0
O494 O 0.03403 0.04995 0.52958 0.0
O495 O 0.0212 0.03059 0.55994 0.0
H496 H 0.00563 0.02512 0.46406 0.0
O497 O 0.97919 0.00644 0.53345 0.0
O498 O 0.99142 0.02811 0.50414 0.0
O499 O 0.01036 0.96063 0.52223 0.0
O500 O 0.02161 0.98237 0.49254 0.0
C501 C 0.97438 0.02099 0.51665 0.0
H502 H 0.09137 0.04876 0.4588 0.0
H503 H 0.02103 0.03408 0.42652 0.0
H504 H 0.95609 0.95444 0.59561 0.0
H505 H 0.02402 0.98035 0.62621 0.0
C506 C 0.26786 0.78 0.72533 0.0
N507 N 0.32388 0.73301 0.74786 0.0
C508 C 0.31955 0.7187 0.72889 0.0
C509 C 0.33858 0.7071 0.71829 0.0
C510 C 0.3622 0.71033 0.72736 0.0
C511 C 0.36593 0.72416 0.74762 0.0
C512 C 0.34641 0.73544 0.75762 0.0
Zn513 Zn 0.29657 0.75214 0.76134 0.0
C514 C 0.3113 0.80645 0.77186 0.0
N515 N 0.23944 0.79278 0.78872 0.0
C516 C 0.21788 0.78873 0.77742 0.0
C517 C 0.24069 0.80176 0.81044 0.0
C518 C 0.21963 0.80424 0.8225 0.0
C519 C 0.19733 0.79723 0.81202 0.0
C520 C 0.19652 0.79079 0.7888 0.0
Zn521 Zn 0.26799 0.77547 0.77536 0.0
O522 O 0.28463 0.76398 0.72819 0.0
C523 C 0.25341 0.72123 0.76582 0.0
O524 O 0.25733 0.78833 0.74253 0.0
H525 H 0.25807 0.8048 0.81907 0.0
H526 H 0.30141 0.71692 0.72156 0.0
H527 H 0.21726 0.78117 0.76031 0.0
O528 O 0.27477 0.7194 0.75909 0.0
O529 O 0.24598 0.74261 0.77202 0.0
H530 H 0.34935 0.74688 0.77274 0.0
O531 O 0.27883 0.76227 0.80816 0.0
O532 O 0.30779 0.73983 0.7943 0.0
O533 O 0.28999 0.80784 0.77899 0.0
O534 O 0.31864 0.78555 0.76412 0.0
C535 C 0.29576 0.7465 0.8112 0.0
H536 H 0.33498 0.69647 0.70275 0.0
H537 H 0.38391 0.72752 0.75496 0.0
H538 H 0.22098 0.80989 0.84024 0.0
H539 H 0.17988 0.78496 0.77998 0.0
C540 C 0.53742 0.96463 0.04712 0.0
N541 N 0.55519 0.03607 0.07186 0.0
C542 C 0.54187 0.02802 0.0895 0.0
C543 C 0.55077 0.03082 0.11188 0.0
C544 C 0.57334 0.04234 0.11604 0.0
C545 C 0.58557 0.05282 0.09776 0.0
C546 C 0.57614 0.0493 0.07554 0.0
Zn547 Zn 0.54728 0.0205 0.04079 0.0
C548 C 0.59238 -0.0006 0.02186 0.0
N549 N 0.53297 0.98387 0.97701 0.0
C550 C 0.51073 0.97328 0.97328 0.0
C551 C 0.54777 0.98827 0.95947 0.0
C552 C 0.53954 0.98403 0.937 0.0
C553 C 0.5155 0.97614 0.93243 0.0
C554 C 0.50148 0.96956 0.95107 0.0
Zn555 Zn 0.5412 -0.00011 0.00808 0.0
O556 O 0.54176 0.98535 0.05735 0.0
C557 C 0.49616 0.02126 0.0275 0.0
O558 O 0.5359 0.96449 0.02538 0.0
H559 H 0.56539 0.99671 0.96273 0.0
H560 H 0.5253 0.01752 0.0862 0.0
H561 H 0.49933 0.96956 0.98746 0.0
O562 O 0.51054 0.02903 0.04338 0.0
O563 O 0.50434 0.00885 0.01107 0.0
H564 H 0.5865 0.05533 0.06123 0.0
O565 O 0.54655 0.03537 0.99126 0.0
O566 O 0.55284 0.05549 0.02364 0.0
O567 O 0.57828 0.99167 0.00569 0.0
O568 O 0.58392 0.01166 0.03823 0.0
C569 C 0.55117 0.05585 0.00192 0.0
H570 H 0.54078 0.02279 0.12569 0.0
H571 H 0.60307 0.06182 0.10047 0.0
H572 H 0.55151 0.98839 0.92337 0.0
H573 H 0.48289 0.96342 0.94874 0.0
C574 C 0.25869 0.20613 0.26241 0.0
N575 N 0.31595 0.22776 0.22175 0.0
C576 C 0.31191 0.20705 0.20849 0.0
C577 C 0.33006 0.19813 0.19491 0.0
C578 C 0.35245 0.21082 0.19487 0.0
C579 C 0.35658 0.23118 0.20976 0.0
C580 C 0.33799 0.23932 0.22319 0.0
Zn581 Zn 0.28841 0.24342 0.23851 0.0
C582 C 0.2429 0.24736 0.21129 0.0
N583 N 0.23361 0.27848 0.27525 0.0
C584 C 0.21243 0.2659 0.2783 0.0
C585 C 0.2386 0.30081 0.28582 0.0
C586 C 0.22282 0.31046 0.30131 0.0
C587 C 0.20202 0.29665 0.30647 0.0
C588 C 0.19637 0.27456 0.29422 0.0
Zn589 Zn 0.26039 0.26237 0.25786 0.0
O590 O 0.27636 0.20734 0.24928 0.0
C591 C 0.30561 0.25935 0.28512 0.0
O592 O 0.24954 0.22643 0.26942 0.0
H593 H 0.25564 0.31035 0.28352 0.0
H594 H 0.29427 0.19815 0.20765 0.0
H595 H 0.20868 0.24831 0.26949 0.0
O596 O 0.31155 0.24723 0.26758 0.0
O597 O 0.28415 0.26715 0.28634 0.0
H598 H 0.34091 0.25563 0.23403 0.0
O599 O 0.27158 0.29798 0.2463 0.0
O600 O 0.30044 0.27977 0.22823 0.0
O601 O 0.23714 0.2579 0.22968 0.0
O602 O 0.26447 0.23994 0.2092 0.0
C603 C 0.29052 0.29978 0.23496 0.0
H604 H 0.32598 0.18262 0.18334 0.0
H605 H 0.37359 0.24142 0.21018 0.0
H606 H 0.22811 0.32728 0.31079 0.0
H607 H 0.18057 0.26336 0.29797 0.0
C608 C 0.58292 0.49601 0.02941 0.0
N609 N 0.55369 0.53824 0.97526 0.0
C610 C 0.57531 0.55061 0.97646 0.0
C611 C 0.58721 0.55647 0.95655 0.0
C612 C 0.57663 0.5496 0.93529 0.0
C613 C 0.55337 0.5388 0.93456 0.0
C614 C 0.5422 0.53319 0.95486 0.0
Zn615 Zn 0.54133 0.52108 0.00365 0.0
C616 C 0.53005 0.46593 0.99336 0.0
N617 N 0.51807 0.48281 0.06274 0.0
C618 C 0.53207 0.48619 0.08206 0.0
C619 C 0.49462 0.47518 0.06372 0.0
C620 C 0.48356 0.47403 0.0847 0.0
C621 C 0.49701 0.48033 0.10472 0.0
C622 C 0.52194 0.48462 0.10333 0.0
Zn623 Zn 0.5301 0.4992 0.03377 0.0
O624 O 0.57729 0.51001 0.01246 0.0
C625 C 0.5407 0.55446 0.04396 0.0
O626 O 0.56646 0.48846 0.04233 0.0
H627 H 0.48381 0.47235 0.04817 0.0
H628 H 0.58411 0.55443 0.9929 0.0
H629 H 0.55056 0.49255 0.08107 0.0
O630 O 0.54549 0.55509 0.02291 0.0
O631 O 0.53465 0.53355 0.05279 0.0
H632 H 0.52512 0.52314 0.95431 0.0
O633 O 0.49399 0.51034 0.02463 0.0
O634 O 0.50539 0.53184 0.99494 0.0
O635 O 0.52541 0.4651 0.01446 0.0
O636 O 0.53668 0.48679 0.98475 0.0
C637 C 0.48866 0.52436 0.00761 0.0
H638 H 0.60499 0.56509 0.95783 0.0
H639 H 0.54463 0.53291 0.91859 0.0
H640 H 0.46433 0.47041 0.08494 0.0
H641 H 0.53319 0.4887 0.11841 0.0
C642 C 0.76143 0.27584 0.22 0.0
N643 N 0.81833 0.2353 0.25032 0.0
C644 C 0.81917 0.22233 0.2304 0.0
C645 C 0.84136 0.21655 0.22142 0.0
C646 C 0.86279 0.22421 0.2331 0.0
C647 C 0.86137 0.23582 0.25447 0.0
C648 C 0.8388 0.24129 0.26279 0.0
Zn649 Zn 0.78661 0.25016 0.25966 0.0
C650 C 0.7948 0.30583 0.27178 0.0
N651 N 0.72203 0.28512 0.27847 0.0
C652 C 0.70279 0.27965 0.26417 0.0
C653 C 0.71899 0.29419 0.29983 0.0
C654 C 0.69584 0.29578 0.30826 0.0
C655 C 0.67583 0.28802 0.29448 0.0
C656 C 0.67941 0.28109 0.27182 0.0
Zn657 Zn 0.75437 0.27123 0.26954 0.0
O658 O 0.77869 0.26106 0.22531 0.0
C659 C 0.74647 0.21513 0.25937 0.0
O660 O 0.74766 0.28318 0.23538 0.0
H661 H 0.73455 0.29833 0.31094 0.0
H662 H 0.80265 0.21772 0.22084 0.0
H663 H 0.70556 0.27195 0.24743 0.0
O664 O 0.76874 0.21503 0.25506 0.0
O665 O 0.73656 0.23596 0.26387 0.0
H666 H 0.83767 0.25169 0.27855 0.0
O667 O 0.76168 0.25905 0.3037 0.0
O668 O 0.79403 0.23918 0.2935 0.0
O669 O 0.77243 0.30602 0.27576 0.0
O670 O 0.80436 0.28549 0.26524 0.0
C671 C 0.77952 0.24492 0.3088 0.0
H672 H 0.84176 0.20727 0.205 0.0
H673 H 0.87745 0.24224 0.26389 0.0
H674 H 0.69374 0.30159 0.32576 0.0
H675 H 0.66454 0.2747 0.2607 0.0
C676 C 0.03552 0.47054 0.55764 0.0
N677 N 0.07202 0.53847 0.57232 0.0
C678 C 0.06091 0.53867 0.59256 0.0
C679 C 0.07367 0.54556 0.61244 0.0
C680 C 0.09824 0.55167 0.61159 0.0
C681 C 0.1093 0.55195 0.59054 0.0
C682 C 0.0956 0.54559 0.57084 0.0
Zn683 Zn 0.0533 0.52307 0.54527 0.0
C684 C 0.08525 0.49152 0.51811 0.0
N685 N 0.01457 0.48794 0.4899 0.0
C686 C 0.9914 0.4798 0.49206 0.0
C687 C 0.02461 0.48935 0.46917 0.0
C688 C 0.01088 0.48376 0.44943 0.0
C689 C 0.98647 0.47691 0.45099 0.0
C690 C 0.97687 0.47431 0.47266 0.0
Zn691 Zn 0.03349 0.50329 0.51695 0.0
O692 O 0.04656 0.49002 0.5655 0.0
C693 C 1.00159 0.53382 0.54568 0.0
O694 O 0.02743 0.47068 0.53705 0.0
H695 H 0.04292 0.49622 0.46781 0.0
H696 H 0.04241 0.53234 0.59356 0.0
H697 H 0.98379 0.47879 0.50874 0.0
O698 O 0.02149 0.53931 0.55587 0.0
O699 O 1.00132 0.5193 0.52848 0.0
H700 H 0.10408 0.5453 0.55455 0.0
O701 O 0.0399 0.53665 0.49673 0.0
O702 O 0.05989 0.5555 0.52492 0.0
O703 O 0.06594 0.48667 0.50651 0.0
O704 O 0.08478 0.50667 0.53474 0.0
C705 C 0.05151 0.55586 0.50441 0.0
H706 H 0.06476 0.54471 0.62855 0.0
H707 H 0.12832 0.55644 0.58946 0.0
H708 H 0.0189 0.4864 0.43304 0.0
H709 H 0.95815 0.46895 0.47453 0.0
C710 C 0.79986 0.71874 0.25473 0.0
N711 N 0.7595 0.73622 0.31089 0.0
C712 C 0.74931 0.71315 0.3066 0.0
C713 C 0.74386 0.69713 0.32461 0.0
C714 C 0.74849 0.7053 0.34706 0.0
C715 C 0.75669 0.73012 0.35095 0.0
C716 C 0.76236 0.74529 0.33248 0.0
Zn717 Zn 0.77511 0.75517 0.28527 0.0
C718 C 0.8277 0.76766 0.29743 0.0
N719 N 0.80971 0.79273 0.23175 0.0
C720 C 0.80869 0.78301 0.21033 0.0
C721 C 0.82166 0.81475 0.23666 0.0
C722 C 0.83264 0.82834 0.21945 0.0
C723 C 0.83173 0.81876 0.19721 0.0
C724 C 0.8198 0.7957 0.19274 0.0
Zn725 Zn 0.79336 0.77393 0.25701 0.0
O726 O 0.78703 0.72024 0.27212 0.0
C727 C 0.74072 0.76151 0.24502 0.0
O728 O 0.80542 0.7388 0.24422 0.0
H729 H 0.82246 0.82196 0.25391 0.0
H730 H 0.74698 0.70645 0.28924 0.0
H731 H 0.79898 0.76558 0.20683 0.0
O732 O 0.74221 0.75252 0.26515 0.0
O733 O 0.7596 0.77125 0.23669 0.0
H734 H 0.77066 0.76359 0.33546 0.0
O735 O 0.78142 0.80879 0.27 0.0
O736 O 0.76306 0.79024 0.29796 0.0
O737 O 0.82634 0.77642 0.27724 0.0
O738 O 0.80876 0.75803 0.30566 0.0
C739 C 0.76847 0.81029 0.28732 0.0
H740 H 0.73767 0.67804 0.32106 0.0
H741 H 0.76089 0.73691 0.36807 0.0
H742 H 0.84154 0.84617 0.22338 0.0
H743 H 0.81827 0.78806 0.17561 0.0
C744 C 0.82938 0.25528 0.74917 0.0
N745 N 0.76218 0.22526 0.72728 0.0
C746 C 0.76453 0.23793 0.70729 0.0
C747 C 0.75814 0.22636 0.68667 0.0
C748 C 0.74979 0.20134 0.68658 0.0
C749 C 0.74707 0.18871 0.70733 0.0
C750 C 0.75314 0.20128 0.72772 0.0
Zn751 Zn 0.77642 0.24187 0.75601 0.0
C752 C 0.80163 0.20363 0.78578 0.0
N753 N 0.80968 0.27562 0.81484 0.0
C754 C 0.82117 0.29824 0.81255 0.0
C755 C 0.80569 0.26562 0.83572 0.0
C756 C 0.81236 0.27907 0.85541 0.0
C757 C 0.82297 0.30311 0.85351 0.0
C758 C 0.82787 0.31247 0.83179 0.0
Zn759 Zn 0.79491 0.25849 0.7866 0.0
O760 O 0.81021 0.24691 0.73903 0.0
C761 C 0.77015 0.2968 0.75633 0.0
O762 O 0.82837 0.2623 0.76983 0.0
H763 H 0.79634 0.24771 0.83709 0.0
H764 H 0.7723 0.2567 0.70723 0.0
H765 H 0.82423 0.30578 0.79575 0.0
O766 O 0.76407 0.27745 0.74472 0.0
O767 O 0.78344 0.29426 0.77429 0.0
H768 H 0.75145 0.19155 0.74381 0.0
O769 O 0.76078 0.25429 0.80334 0.0
O770 O 0.74309 0.23698 0.7731 0.0
O771 O 0.80669 0.2226 0.79835 0.0
O772 O 0.78878 0.20659 0.76761 0.0
C773 C 0.74184 0.24489 0.79351 0.0
H774 H 0.76076 0.23647 0.67087 0.0
H775 H 0.74069 0.16934 0.70773 0.0
H776 H 0.80799 0.27134 0.87187 0.0
H777 H 0.83616 0.33088 0.8297 0.0
C778 C 0.77159 0.70521 0.7806 0.0
N779 N 0.81239 0.75778 0.74461 0.0
C780 C 0.82663 0.73855 0.73811 0.0
C781 C 0.83775 0.73963 0.71718 0.0
C782 C 0.83424 0.76078 0.70295 0.0
C783 C 0.82066 0.78098 0.7108 0.0
C784 C 0.80968 0.77898 0.73167 0.0
Zn785 Zn 0.79292 0.75483 0.7731 0.0
C786 C 0.74193 0.76757 0.76288 0.0
N787 N 0.75158 0.75231 0.83212 0.0
C788 C 0.75398 0.73153 0.84567 0.0
C789 C 0.73536 0.77056 0.83649 0.0
C790 C 0.72141 0.76881 0.85566 0.0
C791 C 0.72408 0.74799 0.87044 0.0
C792 C 0.74023 0.7289 0.86493 0.0
Zn793 Zn 0.77168 0.7555 0.80419 0.0
O794 O 0.78468 0.71596 0.76608 0.0
C795 C 0.82312 0.74428 0.81414 0.0
O796 O 0.76466 0.71771 0.79747 0.0
H797 H 0.73363 0.78678 0.82534 0.0
H798 H 0.82859 0.72194 0.74874 0.0
H799 H 0.76687 0.71713 0.84174 0.0
O800 O 0.82382 0.74524 0.79253 0.0
O801 O 0.80301 0.74657 0.82357 0.0
H802 H 0.79825 0.79406 0.73712 0.0
O803 O 0.77943 0.7937 0.81138 0.0
O804 O 0.80076 0.79337 0.78063 0.0
O805 O 0.74039 0.76493 0.78429 0.0
O806 O 0.76215 0.76482 0.75391 0.0
C807 C 0.79333 0.80494 0.79792 0.0
H808 H 0.84781 0.72346 0.71171 0.0
H809 H 0.81777 0.79778 0.70054 0.0
H810 H 0.70964 0.78432 0.85944 0.0
H811 H 0.74277 0.71248 0.87576 0.0
C812 C 0.51356 0.51503 0.47559 0.0
N813 N 0.48579 0.489 0.53512 0.0
C814 C 0.46623 0.50244 0.52765 0.0
C815 C 0.44398 0.49043 0.52394 0.0
C816 C 0.44194 0.46442 0.52807 0.0
C817 C 0.4616 0.45185 0.53866 0.0
C818 C 0.48356 0.46462 0.54207 0.0
Zn819 Zn 0.5186 0.50199 0.52575 0.0
C820 C 0.54579 0.45903 0.50446 0.0
N821 N 0.58489 0.52584 0.49907 0.0
C822 C 0.58493 0.54829 0.48779 0.0
C823 C 0.6058 0.51493 0.5067 0.0
C824 C 0.62774 0.52768 0.50472 0.0
C825 C 0.62805 0.55191 0.49494 0.0
C826 C 0.60642 0.56174 0.48554 0.0
Zn827 Zn 0.55287 0.51209 0.50961 0.0
O828 O 0.50266 0.50963 0.49356 0.0
C829 C 0.52584 0.55535 0.53049 0.0
O830 O 0.53638 0.51764 0.47663 0.0
H831 H 0.60532 0.49705 0.51561 0.0
H832 H 0.46843 0.52173 0.522 0.0
H833 H 0.56806 0.55666 0.48197 0.0
O834 O 0.51093 0.53868 0.53677 0.0
O835 O 0.5438 0.54889 0.51917 0.0
H836 H 0.49934 0.45431 0.54802 0.0
O837 O 0.56885 0.50561 0.54296 0.0
O838 O 0.53452 0.49404 0.55746 0.0
O839 O 0.56157 0.47557 0.49998 0.0
O840 O 0.52697 0.46541 0.51459 0.0
C841 C 0.55715 0.49762 0.55981 0.0
H842 H 0.42935 0.50089 0.51574 0.0
H843 H 0.46057 0.43191 0.54263 0.0
H844 H 0.6441 0.5192 0.51178 0.0
H845 H 0.60575 0.58041 0.47801 0.0
C846 C 0.02358 0.52686 0.07947 0.0
N847 N 0.06102 0.47195 0.04424 0.0
C848 C 0.0728 0.4665 0.0644 0.0
C849 C 0.08279 0.44268 0.06806 0.0
C850 C 0.08133 0.42453 0.05053 0.0
C851 C 0.0703 0.43139 0.02948 0.0
C852 C 0.05965 0.4549 0.02693 0.0
Zn853 Zn 0.04511 0.50601 0.03896 0.0
C854 C 0.99192 0.49898 0.02689 0.0
N855 N 0.01093 0.57564 0.02426 0.0
C856 C 0.01441 0.59369 0.04054 0.0
C857 C 0.99865 0.58062 0.00428 0.0
C858 C 0.99036 0.60493 -0.0004 0.0
C859 C 0.99434 0.62421 0.01585 0.0
C860 C 0.00588 0.61803 0.03684 0.0
Zn861 Zn 0.02627 0.54143 0.02981 0.0
O862 O 0.03632 0.50844 0.07342 0.0
C863 C 0.07987 0.54773 0.04074 0.0
O864 O 0.01773 0.5437 0.0649 0.0
H865 H 0.996 0.56595 0.99162 0.0
H866 H 0.07395 0.4804 0.07788 0.0
H867 H 0.02442 0.58945 0.05624 0.0
O868 O 0.07859 0.5243 0.04514 0.0
O869 O 0.06058 0.55959 0.03544 0.0
H870 H 0.04999 0.45927 0.01109 0.0
O871 O 0.03494 0.53867 0.99459 0.0
O872 O 0.05386 0.5042 0.00477 0.0
O873 O 0.99241 0.52276 0.02386 0.0
O874 O 0.01144 0.48762 0.0323 0.0
C875 C 0.04818 0.52023 0.98952 0.0
H876 H 0.09071 0.4384 0.08476 0.0
H877 H 0.06924 0.41857 0.01514 0.0
H878 H 0.98195 0.6087 0.98299 0.0
H879 H 0.00893 0.63198 0.05012 0.0
H880 H 1.00051 0.16727 0.05967 0.0
H881 H 0.01042 0.03955 0.10702 0.0
H882 H 0.00848 0.15701 0.13265 0.0
H883 H 0.96501 0.05278 0.04704 0.0
H884 H 1.00089 0.08148 0.1209 0.0
H885 H 0.97915 0.12695 0.05689 0.0
C886 C 0.9974 0.15675 0.07515 0.0
C887 C 0.00715 0.16497 0.09628 0.0
C888 C 0.99205 0.07491 0.10519 0.0
C889 C 0.9829 0.11882 0.09324 0.0
C890 C 0.99742 0.0509 0.09739 0.0
C891 C 0.98863 0.04313 0.07587 0.0
C892 C 0.97888 0.09141 0.09071 0.0
C893 C 0.97215 0.05842 0.06374 0.0
C894 C 0.98494 0.13384 0.07361 0.0
C895 C 1.00192 0.15098 0.11588 0.0
N896 N 0.96846 0.08235 0.07092 0.0
N897 N 0.99078 0.12817 0.11382 0.0
H898 H 0.12493 0.76879 0.39044 0.0
H899 H 0.19228 0.73379 0.27548 0.0
H900 H 0.08666 0.74504 0.32865 0.0
H901 H 0.22898 0.76136 0.3368 0.0
H902 H 0.15376 0.73616 0.29467 0.0
H903 H 0.16308 0.76472 0.37125 0.0
C904 C 0.12449 0.76266 0.37282 0.0
C905 C 0.10234 0.75728 0.36123 0.0
C906 C 0.17024 0.74162 0.30396 0.0
C907 C 0.14646 0.75252 0.33891 0.0
C908 C 0.19234 0.7402 0.29301 0.0
C909 C 0.21414 0.74735 0.30445 0.0
C910 C 0.16974 0.75022 0.32664 0.0
C911 C 0.21281 0.75561 0.32717 0.0
C912 C 0.14639 0.76035 0.36182 0.0
C913 C 0.10317 0.74942 0.33835 0.0
N914 N 0.19114 0.75682 0.33741 0.0
N915 N 0.12476 0.7473 0.32799 0.0
H916 H 0.58654 0.81163 0.60947 0.0
H917 H 0.55987 0.94977 0.63193 0.0
H918 H 0.55107 0.83393 0.67035 0.0
H919 H 0.6144 0.92526 0.58679 0.0
H920 H 0.56385 0.91007 0.65297 0.0
H921 H 0.60344 0.85356 0.60639 0.0
C922 C 0.58245 0.82533 0.62236 0.0
C923 C 0.56705 0.81941 0.63998 0.0
C924 C 0.5757 0.91375 0.63908 0.0
C925 C 0.58593 0.86805 0.63622 0.0
C926 C 0.57354 0.93649 0.62718 0.0
C927 C 0.58639 0.94022 0.60735 0.0
C928 C 0.59052 0.89481 0.63065 0.0
C929 C 0.60384 0.92264 0.60178 0.0
C930 C 0.59231 0.84936 0.62071 0.0
C931 C 0.5626 0.83794 0.65629 0.0
N932 N 0.60497 0.90032 0.61303 0.0
N933 N 0.57151 0.86173 0.6537 0.0
H934 H 0.48427 0.26978 0.83878 0.0
H935 H 0.33929 0.25989 0.83973 0.0
H936 H 0.44312 0.26441 0.8996 0.0
H937 H 0.37683 0.27951 0.77903 0.0
H938 H 0.37794 0.25854 0.8611 0.0
H939 H 0.44605 0.27031 0.81576 0.0
C940 C 0.46733 0.26859 0.84731 0.0
C941 C 0.46711 0.26716 0.87127 0.0
C942 C 0.37781 0.2632 0.84311 0.0
C943 C 0.42327 0.26768 0.845 0.0
C944 C 0.35565 0.26398 0.83085 0.0
C945 C 0.35463 0.26994 0.80749 0.0
C946 C 0.39941 0.26824 0.83203 0.0
C947 C 0.37663 0.27497 0.79702 0.0
C948 C 0.44549 0.269 0.83416 0.0
C949 C 0.44444 0.26573 0.88127 0.0
N950 N 0.39807 0.27395 0.80931 0.0
N951 N 0.42366 0.26599 0.86818 0.0
H952 H 0.02273 0.80709 0.45282 0.0
H953 H 0.02213 0.9583 0.4552 0.0
H954 H 0.03705 0.85303 0.394 0.0
H955 H 0.00744 0.91179 0.51361 0.0
H956 H 0.02534 0.92031 0.43206 0.0
H957 H 0.01496 0.84515 0.47453 0.0
C958 C 0.02414 0.8252 0.44437 0.0
C959 C 0.03066 0.82677 0.42147 0.0
C960 C 0.02125 0.91836 0.44988 0.0
C961 C 0.02181 0.8708 0.44653 0.0
C962 C 0.01935 0.9401 0.46318 0.0
C963 C 0.01454 0.93837 0.48653 0.0
C964 C 0.01841 0.89448 0.45989 0.0
C965 C 0.01114 0.91416 0.49575 0.0
C966 C 0.01968 0.847 0.45686 0.0
C967 C 0.03211 0.85086 0.41157 0.0
N968 N 0.01327 0.89324 0.48246 0.0
N969 N 0.02784 0.8719 0.42417 0.0
H970 H 0.47029 0.7387 0.63452 0.0
H971 H 0.40463 0.68915 0.74328 0.0
H972 H 0.50797 0.70838 0.69415 0.0
H973 H 0.36768 0.71517 0.68159 0.0
H974 H 0.44221 0.68772 0.72291 0.0
H975 H 0.4324 0.72271 0.6488 0.0
C976 C 0.47058 0.72856 0.65059 0.0
C977 C 0.49215 0.72531 0.66344 0.0
C978 C 0.42577 0.6932 0.7137 0.0
C979 C 0.44892 0.707 0.67992 0.0
C980 C 0.40435 0.69404 0.72533 0.0
C981 C 0.38317 0.70283 0.71423 0.0
C982 C 0.42595 0.7015 0.69095 0.0
C983 C 0.38361 0.7084 0.69086 0.0
C984 C 0.44896 0.71928 0.65867 0.0
C985 C 0.49162 0.7116 0.68389 0.0
N986 N 0.40479 0.70813 0.68011 0.0
N987 N 0.47025 0.70327 0.6917 0.0
H988 H 0.54068 0.17687 0.9007 0.0
H989 H 0.56411 0.10237 0.01886 0.0
H990 H 0.55952 0.21169 0.96544 0.0
H991 H 0.54417 0.06439 0.95578 0.0
H992 H 0.56623 0.14216 -0.00191 0.0
H993 H 0.54603 0.13507 0.91881 0.0
C994 C 0.54642 0.17573 0.91854 0.0
C995 C 0.54944 0.19776 0.93163 0.0
C996 C 0.5615 0.12514 0.98869 0.0
C997 C 0.55533 0.15029 0.95246 0.0
C998 C 0.56026 0.10235 0.00061 0.0
C999 C 0.55378 0.07995 0.98914 0.0
C1000 C 0.55609 0.12577 0.96504 0.0
C1001 C 0.54915 0.0812 0.96538 0.0
C1002 C 0.54928 0.15192 0.92892 0.0
C1003 C 0.55668 0.19521 0.95474 0.0
N1004 N 0.55021 0.10373 0.95414 0.0
N1005 N 0.5592 0.17205 0.96437 0.0
H1006 H 0.14226 0.21417 0.09787 0.0
H1007 H 0.19505 0.25513 0.21512 0.0
H1008 H 0.1088 0.19368 0.16069 0.0
H1009 H 0.24623 0.22395 0.16932 0.0
H1010 H 0.16229 0.23908 0.19065 0.0
H1011 H 0.18063 0.22087 0.11948 0.0
C1012 C 0.14308 0.21037 0.11603 0.0
C1013 C 0.12209 0.20405 0.12761 0.0
C1014 C 0.1807 0.23575 0.18594 0.0
C1015 C 0.16551 0.21208 0.1521 0.0
C1016 C 0.19949 0.24515 0.19975 0.0
C1017 C 0.22351 0.24076 0.19434 0.0
C1018 C 0.18577 0.2222 0.16629 0.0
C1019 C 0.22795 0.2277 0.17409 0.0
C1020 C 0.16495 0.21425 0.12828 0.0
C1021 C 0.1243 0.19919 0.15111 0.0
N1022 N 0.20913 0.21889 0.1606 0.0
N1023 N 0.14547 0.20392 0.16265 0.0
H1024 H 0.07152 0.97632 0.21136 0.0
H1025 H 0.09621 0.97037 0.08078 0.0
H1026 H 0.14325 0.98054 0.18545 0.0
H1027 H 0.02756 0.95065 0.10831 0.0
H1028 H 0.11513 0.96709 0.1189 0.0
H1029 H 0.05629 0.96093 0.17444 0.0
C1030 C 0.08412 0.9739 0.19789 0.0
C1031 C 0.10862 0.98029 0.20132 0.0
C1032 C 0.09605 0.96286 0.11661 0.0
C1033 C 0.09121 0.96263 0.15887 0.0
C1034 C 0.08525 0.96465 0.09483 0.0
C1035 C 0.06025 0.96114 0.09155 0.0
C1036 C 0.08161 0.95807 0.13528 0.0
C1037 C 0.04688 0.9536 0.11019 0.0
C1038 C 0.07541 0.96488 0.17684 0.0
C1039 C 0.12418 0.97616 0.18344 0.0
N1040 N 0.05765 0.95291 0.13142 0.0
N1041 N 0.11512 0.96802 0.16282 0.0
H1042 H 0.30262 0.83899 0.49476 0.0
H1043 H 0.30537 0.85178 0.36026 0.0
H1044 H 0.28 0.90653 0.45897 0.0
H1045 H 0.3327 0.78799 0.39879 0.0
H1046 H 0.30136 0.87497 0.39592 0.0
H1047 H 0.31856 0.82285 0.45994 0.0
C1048 C 0.30111 0.85056 0.47956 0.0
C1049 C 0.28971 0.87406 0.47972 0.0
C1050 C 0.30863 0.85607 0.39654 0.0
C1051 C 0.30775 0.85537 0.43939 0.0
C1052 C 0.31109 0.84288 0.37619 0.0
C1053 C 0.31908 0.8178 0.37665 0.0
C1054 C 0.31412 0.84401 0.41741 0.0
C1055 C 0.32603 0.80712 0.39773 0.0
C1056 C 0.31032 0.8413 0.4596 0.0
C1057 C 0.28851 0.88823 0.45949 0.0
N1058 N 0.32312 0.82017 0.41727 0.0
N1059 N 0.29713 0.87848 0.43997 0.0
H1060 H 0.48457 0.04779 0.70359 0.0
H1061 H 0.45682 0.05606 0.56941 0.0
H1062 H 0.41439 0.03102 0.67266 0.0
H1063 H 0.52761 0.05644 0.60249 0.0
H1064 H 0.43888 0.05862 0.60707 0.0
H1065 H 0.49796 0.06284 0.667 0.0
C1066 C 0.47189 0.04741 0.68904 0.0
C1067 C 0.44851 0.03756 0.69102 0.0
C1068 C 0.45834 0.05884 0.606 0.0
C1069 C 0.46387 0.0546 0.64881 0.0
C1070 C 0.46856 0.05768 0.58455 0.0
C1071 C 0.49368 0.05599 0.58301 0.0
C1072 C 0.47347 0.05855 0.6258 0.0
C1073 C 0.50815 0.05764 0.60304 0.0
C1074 C 0.47954 0.05609 0.66814 0.0
C1075 C 0.43267 0.03818 0.67176 0.0
N1076 N 0.49784 0.0586 0.62359 0.0
N1077 N 0.44079 0.04611 0.65126 0.0
H1078 H 0.26401 0.12211 0.95838 0.0
H1079 H 0.22702 0.24686 0.89106 0.0
H1080 H 0.27578 0.19817 0.98278 0.0
H1081 H 0.2402 0.1751 0.85931 0.0
H1082 H 0.22835 0.226 0.92829 0.0
H1083 H 0.23981 0.13883 0.92596 0.0
C1084 C 0.26113 0.14227 0.95712 0.0
C1085 C 0.27239 0.1589 0.97284 0.0
C1086 C 0.23029 0.21476 0.91307 0.0
C1087 C 0.24461 0.17794 0.93629 0.0
C1088 C 0.22961 0.22663 0.89186 0.0
C1089 C 0.23437 0.21285 0.87216 0.0
C1090 C 0.23579 0.189 0.9145 0.0
C1091 C 0.23678 0.18657 0.87406 0.0
C1092 C 0.24729 0.15175 0.93872 0.0
C1093 C 0.26788 0.18478 0.97069 0.0
N1094 N 0.23803 0.17555 0.89497 0.0
N1095 N 0.25455 0.19355 0.95255 0.0
H1096 H 0.16227 0.0197 0.33474 0.0
H1097 H 0.04353 0.01037 0.4036 0.0
H1098 H 0.09255 0.00138 0.30343 0.0
H1099 H 0.09883 0.06506 0.42343 0.0
H1100 H 0.06361 0.00333 0.36843 0.0
H1101 H 0.14201 0.03267 0.3695 0.0
C1102 C 0.14279 0.0184 0.3352 0.0
C1103 C 0.12904 0.00932 0.31632 0.0
C1104 C 0.07122 0.01708 0.38038 0.0
C1105 C 0.10605 0.02387 0.3556 0.0
C1106 C 0.05957 0.02143 0.4005 0.0
C1107 C 0.06919 0.03866 0.4167 0.0
C1108 C 0.09304 0.02952 0.37642 0.0
C1109 C 0.09079 0.05138 0.41171 0.0
C1110 C 0.13129 0.02596 0.35488 0.0
C1111 C 0.10386 0.0082 0.31762 0.0
N1112 N 0.10216 0.04637 0.39208 0.0
N1113 N 0.09322 0.01516 0.33697 0.0
H1114 H 0.26005 0.80435 0.58091 0.0
H1115 H 0.24657 0.82503 0.71436 0.0
H1116 H 0.26069 0.87875 0.61087 0.0
H1117 H 0.27607 0.75834 0.6843 0.0
H1118 H 0.241 0.84346 0.67608 0.0
H1119 H 0.25413 0.78606 0.61831 0.0
C1120 C 0.25871 0.81691 0.59534 0.0
C1121 C 0.26147 0.84313 0.59284 0.0
C1122 C 0.24842 0.8247 0.67794 0.0
C1123 C 0.25467 0.82213 0.63579 0.0
C1124 C 0.2515 0.81412 0.69969 0.0
C1125 C 0.26194 0.79019 0.70243 0.0
C1126 C 0.25541 0.811 0.65891 0.0
C1127 C 0.26814 0.77691 0.68293 0.0
C1128 C 0.25533 0.8064 0.61669 0.0
C1129 C 0.25893 0.85843 0.6121 0.0
N1130 N 0.2648 0.78751 0.66199 0.0
N1131 N 0.25599 0.84766 0.63293 0.0
H1132 H 0.40757 0.99258 0.82351 0.0
H1133 H 0.52714 0.0091 0.89816 0.0
H1134 H 0.47441 0.0164 0.7945 0.0
H1135 H 0.47743 0.94827 0.91275 0.0
H1136 H 0.50611 0.01531 0.86166 0.0
H1137 H 0.43039 0.9799 0.8585 0.0
C1138 C 0.42699 0.99514 0.82453 0.0
C1139 C 0.43915 0.00567 0.80622 0.0
C1140 C 0.49998 0.00044 0.8728 0.0
C1141 C 0.46508 0.9915 0.84588 0.0
C1142 C 0.51218 0.99659 0.89368 0.0
C1143 C 0.50427 0.97799 0.9089 0.0
C1144 C 0.47928 0.9861 0.86713 0.0
C1145 C 0.48403 0.9632 0.90199 0.0
C1146 C 0.43996 0.98774 0.84434 0.0
C1147 C 0.46433 0.0084 0.80825 0.0
N1148 N 0.47202 0.96781 0.88174 0.0
N1149 N 0.47643 0.00164 0.82782 0.0
H1150 H 0.35761 0.22537 0.06204 0.0
H1151 H 0.36805 0.16511 0.17954 0.0
H1152 H 0.36631 0.14532 0.07316 0.0
H1153 H 0.37418 0.2452 0.16765 0.0
H1154 H 0.38207 0.15745 0.14128 0.0
H1155 H 0.37795 0.2333 0.09888 0.0
C1156 C 0.36427 0.20945 0.07197 0.0
C1157 C 0.35911 0.18461 0.06504 0.0
C1158 C 0.38114 0.17673 0.14724 0.0
C1159 C 0.38199 0.19353 0.10744 0.0
C1160 C 0.37312 0.18106 0.16911 0.0
C1161 C 0.36911 0.20579 0.17637 0.0
C1162 C 0.38438 0.1973 0.13244 0.0
C1163 C 0.37652 0.2258 0.16251 0.0
C1164 C 0.37599 0.21399 0.09305 0.0
C1165 C 0.36895 0.1648 0.07826 0.0
N1166 N 0.38305 0.22114 0.14089 0.0
N1167 N 0.37924 0.16965 0.09917 0.0
H1168 H 0.2217 0.18249 0.03874 0.0
H1169 H 0.15805 0.05403 0.03457 0.0
H1170 H 0.25781 0.11504 0.06292 0.0
H1171 H 0.11719 0.11576 0.06128 0.0
H1172 H 0.19467 0.0786 0.04063 0.0
H1173 H 0.18271 0.16159 0.04459 0.0
C1174 C 0.2215 0.1636 0.04582 0.0
C1175 C 0.24308 0.15024 0.04975 0.0
C1176 C 0.17769 0.08664 0.04541 0.0
C1177 C 0.19883 0.12643 0.05602 0.0
C1178 C 0.15667 0.07258 0.04207 0.0
C1179 C 0.13432 0.08248 0.04791 0.0
C1180 C 0.17654 0.1112 0.05397 0.0
C1181 C 0.13391 0.1073 0.05644 0.0
C1182 C 0.19926 0.15176 0.04914 0.0
C1183 C 0.2417 0.12589 0.0591 0.0
N1184 N 0.15476 0.12099 0.05903 0.0
N1185 N 0.21994 0.11455 0.06137 0.0
H1186 H 0.70936 0.41177 0.00606 0.0
H1187 H 0.60625 0.47893 0.06877 0.0
H1188 H 0.72864 0.44898 0.06962 0.0
H1189 H 0.61649 0.49185 -0.0029 0.0
H1190 H 0.64718 0.461 0.07223 0.0
H1191 H 0.67052 0.43334 0.00506 0.0
C1192 C 0.70533 0.42436 0.01991 0.0
C1193 C 0.7222 0.42864 0.03795 0.0
C1194 C 0.64041 0.46804 0.05587 0.0
C1195 C 0.67766 0.45298 0.03705 0.0
C1196 C 0.61713 0.47814 0.05385 0.0
C1197 C 0.60799 0.48688 0.03261 0.0
C1198 C 0.65416 0.46599 0.03638 0.0
C1199 C 0.62283 0.48544 0.01381 0.0
C1200 C 0.68325 0.43673 0.01923 0.0
C1201 C 0.7161 0.4453 0.05537 0.0
N1202 N 0.64499 0.47481 0.01605 0.0
N1203 N 0.69411 0.45671 0.05465 0.0
H1204 H 0.85039 0.45913 0.26152 0.0
H1205 H 0.84381 0.30918 0.27404 0.0
H1206 H 0.91144 0.41233 0.28023 0.0
H1207 H 0.77996 0.35526 0.27322 0.0
H1208 H 0.86867 0.34724 0.27417 0.0
H1209 H 0.82402 0.42173 0.26331 0.0
C1210 C 0.85827 0.44106 0.26593 0.0
C1211 C 0.88321 0.43892 0.27067 0.0
C1212 C 0.84923 0.34912 0.2741 0.0
C1213 C 0.8532 0.3962 0.27275 0.0
C1214 C 0.835 0.32735 0.27401 0.0
C1215 C 0.80975 0.32904 0.27362 0.0
C1216 C 0.83823 0.37288 0.27352 0.0
C1217 C 0.79938 0.35313 0.27364 0.0
C1218 C 0.84319 0.41977 0.26707 0.0
C1219 C 0.89237 0.41501 0.27645 0.0
N1220 N 0.81367 0.37417 0.2734 0.0
N1221 N 0.87741 0.39467 0.27722 0.0
H1222 H 0.85424 0.57974 0.55363 0.0
H1223 H 0.99687 0.57371 0.57439 0.0
H1224 H 0.90128 0.64494 0.55748 0.0
H1225 H 0.9553 0.51873 0.53488 0.0
H1226 H 0.9594 0.59485 0.58341 0.0
H1227 H 0.88922 0.55266 0.56238 0.0
C1228 C 0.8718 0.58833 0.55711 0.0
C1229 C 0.87524 0.61437 0.55455 0.0
C1230 C 0.95856 0.57787 0.57315 0.0
C1231 C 0.91469 0.58398 0.56464 0.0
C1232 C 0.97985 0.56587 0.56791 0.0
C1233 C 0.97912 0.54485 0.55339 0.0
C1234 C 0.9365 0.56857 0.56402 0.0
C1235 C 0.95661 0.53526 0.5457 0.0
C1236 C 0.89165 0.57296 0.56196 0.0
C1237 C 0.89818 0.62481 0.55902 0.0
N1238 N 0.93611 0.54739 0.55093 0.0
N1239 N 0.91718 0.60952 0.56367 0.0
H1240 H 0.14303 0.09951 0.27854 0.0
H1241 H 0.27047 0.15904 0.24716 0.0
H1242 H 0.1995 0.05671 0.24834 0.0
H1243 H 0.21804 0.19799 0.28638 0.0
H1244 H 0.24542 0.12089 0.2484 0.0
H1245 H 0.1704 0.13584 0.2815 0.0
C1246 C 0.16112 0.09776 0.27242 0.0
C1247 C 0.1689 0.075 0.26309 0.0
C1248 C 0.23955 0.13772 0.25696 0.0
C1249 C 0.20042 0.11651 0.26661 0.0
C1250 C 0.25393 0.15947 0.25638 0.0
C1251 C 0.2463 0.18182 0.26656 0.0
C1252 C 0.21731 0.13838 0.26764 0.0
C1253 C 0.22463 0.18125 0.2782 0.0
C1254 C 0.17681 0.11847 0.27426 0.0
C1255 C 0.19265 0.07385 0.25562 0.0
N1256 N 0.21078 0.15999 0.2782 0.0
N1257 N 0.20752 0.09431 0.25748 0.0
H1258 H 0.3313 0.94585 0.53451 0.0
H1259 H 0.47594 0.94288 0.54819 0.0
H1260 H 0.37149 0.878 0.54935 0.0
H1261 H 0.43615 0.00343 0.51532 0.0
H1262 H 0.43763 0.92056 0.55389 0.0
H1263 H 0.36954 0.96944 0.53338 0.0
C1264 C 0.3481 0.936 0.53788 0.0
C1265 C 0.34818 0.90989 0.54185 0.0
C1266 C 0.43736 0.93874 0.54542 0.0
C1267 C 0.39194 0.93665 0.54045 0.0
C1268 C 0.45921 0.95143 0.54212 0.0
C1269 C 0.45933 0.97496 0.53109 0.0
C1270 C 0.41547 0.94979 0.53789 0.0
C1271 C 0.43703 0.98523 0.52372 0.0
C1272 C 0.36993 0.9494 0.53704 0.0
C1273 C 0.37056 0.89807 0.54597 0.0
N1274 N 0.41607 0.97264 0.5273 0.0
N1275 N 0.39149 0.91149 0.5451 0.0
H1276 H 0.90406 0.60241 0.24434 0.0
H1277 H 0.78207 0.67173 0.26386 0.0
H1278 H 0.83622 0.56184 0.24315 0.0
H1279 H 0.84095 0.70973 0.23173 0.0
H1280 H 0.80179 0.63128 0.25773 0.0
H1281 H 0.88193 0.64216 0.24091 0.0
C1282 C 0.88452 0.60186 0.24307 0.0
C1283 C 0.87194 0.57882 0.24412 0.0
C1284 C 0.81021 0.64843 0.25171 0.0
C1285 C 0.84658 0.62417 0.24065 0.0
C1286 C 0.799 0.67151 0.25525 0.0
C1287 C 0.80993 0.6941 0.24834 0.0
C1288 C 0.83281 0.64799 0.24173 0.0
C1289 C 0.83187 0.69274 0.23725 0.0
C1290 C 0.87192 0.62453 0.24105 0.0
C1291 C 0.84662 0.57918 0.24237 0.0
N1292 N 0.84282 0.6701 0.23464 0.0
N1293 N 0.83475 0.60153 0.24112 0.0
H1294 H 0.66509 0.41228 0.7443 0.0
H1295 H 0.78777 0.34322 0.76889 0.0
H1296 H 0.73256 0.45361 0.74665 0.0
H1297 H 0.72904 0.30674 0.73093 0.0
H1298 H 0.7676 0.38382 0.7632 0.0
H1299 H 0.68756 0.37283 0.74186 0.0
C1300 C 0.68462 0.41303 0.74416 0.0
C1301 C 0.69704 0.43614 0.74577 0.0
C1302 C 0.75934 0.36695 0.75584 0.0
C1303 C 0.72272 0.3913 0.7433 0.0
C1304 C 0.77079 0.34383 0.75912 0.0
C1305 C 0.75997 0.32165 0.75043 0.0
C1306 C 0.73669 0.36773 0.74433 0.0
C1307 C 0.73799 0.32344 0.73787 0.0
C1308 C 0.69739 0.39058 0.74264 0.0
C1309 C 0.72233 0.43614 0.74541 0.0
N1310 N 0.72683 0.34606 0.73552 0.0
N1311 N 0.7344 0.41399 0.74456 0.0
H1312 H 0.00498 0.89856 0.90103 0.0
H1313 H 0.07123 0.92193 0.00074 0.0
H1314 H 0.07306 0.85995 0.90382 0.0
H1315 H 0.05751 0.99024 0.96257 0.0
H1316 H 0.07494 0.89913 0.96475 0.0
H1317 H 0.0245 0.93483 0.9202 0.0
C1318 C 0.02428 0.89833 0.9047 0.0
C1319 C 0.03758 0.87657 0.90104 0.0
C1320 C 0.07217 0.91934 0.96429 0.0
C1321 C 0.05948 0.91684 0.92375 0.0
C1322 C 0.06996 0.93221 0.98475 0.0
C1323 C 0.06409 0.95776 0.98432 0.0
C1324 C 0.06717 0.93197 0.94358 0.0
C1325 C 0.06219 0.97044 0.96333 0.0
C1326 C 0.03543 0.91892 0.91557 0.0
C1327 C 0.06241 0.87666 0.90645 0.0
N1328 N 0.06276 0.95717 0.94361 0.0
N1329 N 0.07247 0.89617 0.91846 0.0
H1330 H 0.98226 0.25029 0.71877 0.0
H1331 H 0.83747 0.24692 0.70382 0.0
H1332 H 0.94397 0.25327 0.65339 0.0
H1333 H 0.87512 0.26308 0.76797 0.0
H1334 H 0.87636 0.24508 0.68546 0.0
H1335 H 0.94336 0.25016 0.7375 0.0
C1336 C 0.96571 0.25058 0.70833 0.0
C1337 C 0.96647 0.25178 0.68443 0.0
C1338 C 0.87613 0.2491 0.70354 0.0
C1339 C 0.92178 0.25177 0.7058 0.0
C1340 C 0.85388 0.25019 0.71406 0.0
C1341 C 0.85288 0.25532 0.73751 0.0
C1342 C 0.89773 0.25284 0.71655 0.0
C1343 C 0.87489 0.25925 0.74984 0.0
C1344 C 0.94349 0.2507 0.71905 0.0
C1345 C 0.94435 0.25236 0.67184 0.0
N1346 N 0.89633 0.25782 0.73927 0.0
N1347 N 0.92302 0.25234 0.68263 0.0
H1348 H 0.47196 0.20407 0.37806 0.0
H1349 H 0.42258 0.11219 0.46812 0.0
H1350 H 0.41892 0.22296 0.42711 0.0
H1351 H 0.47274 0.09098 0.41743 0.0
H1352 H 0.40982 0.14781 0.44429 0.0
H1353 H 0.46194 0.1595 0.38296 0.0
C1354 C 0.45786 0.1989 0.38952 0.0
C1355 C 0.44701 0.21711 0.40298 0.0
C1356 C 0.42314 0.13503 0.43797 0.0
C1357 C 0.43557 0.16629 0.40873 0.0
C1358 C 0.43033 0.1147 0.45158 0.0
C1359 C 0.44906 0.09925 0.44483 0.0
C1360 C 0.43552 0.14034 0.41802 0.0
C1361 C 0.45845 0.10288 0.42325 0.0
C1362 C 0.45208 0.17343 0.39226 0.0
C1363 C 0.42846 0.20943 0.41708 0.0
N1364 N 0.4521 0.12358 0.41084 0.0
N1365 N 0.4237 0.18454 0.41997 0.0
H1366 H 0.62406 0.79034 0.14554 0.0
H1367 H 0.69692 0.74281 0.25835 0.0
H1368 H 0.5893 0.75099 0.19995 0.0
H1369 H 0.72964 0.7815 0.20246 0.0
H1370 H 0.65757 0.7456 0.23796 0.0
H1371 H 0.66235 0.78779 0.16695 0.0
C1372 C 0.62436 0.78118 0.16208 0.0
C1373 C 0.60314 0.77075 0.17078 0.0
C1374 C 0.67335 0.75342 0.23013 0.0
C1375 C 0.64771 0.76768 0.19567 0.0
C1376 C 0.69592 0.75178 0.24174 0.0
C1377 C 0.71684 0.76188 0.23215 0.0
C1378 C 0.67148 0.76529 0.20869 0.0
C1379 C 0.71419 0.77335 0.21058 0.0
C1380 C 0.64642 0.77973 0.17434 0.0
C1381 C 0.60503 0.75935 0.19248 0.0
N1382 N 0.69204 0.77475 0.19968 0.0
N1383 N 0.6269 0.75802 0.20411 0.0
H1384 H 0.01087 0.18221 0.63898 0.0
H1385 H 0.05318 0.09293 0.53789 0.0
H1386 H 0.06175 0.20255 0.58798 0.0
H1387 H 0.01053 0.0636 0.5921 0.0
H1388 H 0.05556 0.13342 0.55707 0.0
H1389 H 0.00957 0.13884 0.62341 0.0
C1390 C 0.0218 0.17764 0.62468 0.0
C1391 C 0.03618 0.19633 0.61468 0.0
C1392 C 0.04572 0.11821 0.56497 0.0
C1393 C 0.0348 0.14696 0.59685 0.0
C1394 C 0.04435 0.09497 0.55394 0.0
C1395 C 0.03161 0.07475 0.56332 0.0
C1396 C 0.03408 0.12167 0.5856 0.0
C1397 C 0.02062 0.07866 0.58427 0.0
C1398 C 0.02104 0.15291 0.6158 0.0
C1399 C 0.05003 0.18917 0.59619 0.0
N1400 N 0.02195 0.10174 0.59466 0.0
N1401 N 0.04888 0.16532 0.58796 0.0
H1402 H 0.5234 0.27669 0.31904 0.0
H1403 H 0.66657 0.26643 0.33545 0.0
H1404 H 0.56007 0.24559 0.37887 0.0
H1405 H 0.63087 0.29846 0.27553 0.0
H1406 H 0.62736 0.25566 0.35022 0.0
H1407 H 0.56209 0.27972 0.30055 0.0
C1408 C 0.53948 0.26987 0.32806 0.0
C1409 C 0.53862 0.26123 0.35064 0.0
C1410 C 0.62804 0.26508 0.33385 0.0
C1411 C 0.58287 0.26518 0.32985 0.0
C1412 C 0.65044 0.27157 0.32556 0.0
C1413 C 0.65198 0.28368 0.30437 0.0
C1414 C 0.60694 0.27075 0.3209 0.0
C1415 C 0.63048 0.28915 0.29196 0.0
C1416 C 0.5616 0.27186 0.31759 0.0
C1417 C 0.55998 0.25267 0.36154 0.0
N1418 N 0.60882 0.28272 0.30046 0.0
N1419 N 0.5813 0.25521 0.35115 0.0
H1420 H 0.53431 0.80902 0.09224 0.0
H1421 H 0.53561 0.96 0.09355 0.0
H1422 H 0.5243 0.85217 0.15341 0.0
H1423 H 0.53386 0.91553 0.03192 0.0
H1424 H 0.53324 0.92121 0.11601 0.0
H1425 H 0.53647 0.84806 0.07048 0.0
C1426 C 0.53267 0.82675 0.10118 0.0
C1427 C 0.52911 0.82725 0.12477 0.0
C1428 C 0.5333 0.91992 0.09758 0.0
C1429 C 0.5315 0.87236 0.09968 0.0
C1430 C 0.53465 0.94208 0.08469 0.0
C1431 C 0.53495 0.94109 0.06072 0.0
C1432 C 0.5324 0.89646 0.08652 0.0
C1433 C 0.53365 0.91727 0.0503 0.0
C1434 C 0.53382 0.8491 0.08865 0.0
C1435 C 0.52709 0.85088 0.13529 0.0
N1436 N 0.53254 0.89595 0.06325 0.0
N1437 N 0.52832 0.8725 0.12267 0.0
H1438 H 0.96257 0.80653 0.84772 0.0
H1439 H 0.82792 0.7555 0.85954 0.0
H1440 H 0.91686 0.82705 0.90256 0.0
H1441 H 0.86936 0.74397 0.79962 0.0
H1442 H 0.86248 0.77717 0.87767 0.0
H1443 H 0.9293 0.78203 0.83035 0.0
C1444 C 0.94534 0.80634 0.85583 0.0
C1445 C 0.94249 0.81868 0.87668 0.0
C1446 C 0.8641 0.7696 0.86067 0.0
C1447 C 0.90467 0.7901 0.8573 0.0
C1448 C 0.84451 0.75682 0.85043 0.0
C1449 C 0.8456 0.74837 0.82783 0.0
C1450 C 0.88489 0.77375 0.84826 0.0
C1451 C 0.86762 0.75052 0.81695 0.0
C1452 C 0.92646 0.79211 0.84605 0.0
C1453 C 0.91981 0.81787 0.88644 0.0
N1454 N 0.88631 0.7634 0.82714 0.0
N1455 N 0.90181 0.80348 0.8768 0.0
H1456 H 0.90525 0.0255 0.88564 0.0
H1457 H 0.03024 0.03756 0.9581 0.0
H1458 H 0.97488 0.01128 0.85806 0.0
H1459 H 0.9612 0.02656 0.98815 0.0
H1460 H 0.00973 0.03927 0.92021 0.0
H1461 H 0.9253 0.03568 0.92245 0.0
C1462 C 0.92474 0.02448 0.88735 0.0
C1463 C 0.93842 0.01724 0.86889 0.0
C1464 C 0.99906 0.03708 0.93517 0.0
C1465 C 0.96144 0.02933 0.91071 0.0
C1466 C 0.01071 0.03648 0.95675 0.0
C1467 C 0.9973 0.03191 0.9761 0.0
C1468 C 0.97393 0.03329 0.93318 0.0
C1469 C 0.9721 0.03009 0.97353 0.0
C1470 C 0.93617 0.03041 0.90829 0.0
C1471 C 0.96364 0.01647 0.87196 0.0
N1472 N 0.96122 0.03055 0.95242 0.0
N1473 N 0.97436 0.02243 0.89249 0.0
H1474 H 0.78031 0.12606 0.56087 0.0
H1475 H 0.71924 0.21517 0.65175 0.0
H1476 H 0.73381 0.18928 0.54495 0.0
H1477 H 0.77194 0.15912 0.67146 0.0
H1478 H 0.71909 0.19961 0.61268 0.0
H1479 H 0.77364 0.13285 0.60164 0.0
C1480 C 0.76878 0.14132 0.56588 0.0
C1481 C 0.75789 0.15731 0.54943 0.0
C1482 C 0.73051 0.19041 0.62552 0.0
C1483 C 0.74987 0.16479 0.5957 0.0
C1484 C 0.73042 0.1992 0.64781 0.0
C1485 C 0.74571 0.18844 0.66459 0.0
C1486 C 0.74638 0.17103 0.6199 0.0
C1487 C 0.75988 0.16779 0.65882 0.0
C1488 C 0.7649 0.14508 0.58909 0.0
C1489 C 0.74292 0.17662 0.55689 0.0
N1490 N 0.76021 0.15996 0.63676 0.0
N1491 N 0.73943 0.17977 0.57937 0.0
H1492 H 0.65647 0.9905 0.39555 0.0
H1493 H 0.52365 -1e-05 0.44374 0.0
H1494 H 0.59328 0.01597 0.35709 0.0
H1495 H 0.58568 0.9796 0.48633 0.0
H1496 H 0.54877 -8e-05 0.41063 0.0
H1497 H 0.63116 0.9827 0.42845 0.0
C1498 C 0.63738 0.99465 0.3941 0.0
C1499 C 0.62698 0.00398 0.3736 0.0
C1500 C 0.55692 0.99511 0.42713 0.0
C1501 C 0.59799 0.99464 0.41077 0.0
C1502 C 0.54248 0.9949 0.44602 0.0
C1503 C 0.55262 0.98993 0.4678 0.0
C1504 C 0.5818 0.99066 0.43004 0.0
C1505 C 0.57714 0.98345 0.46978 0.0
C1506 C 0.62293 0.99 0.41277 0.0
C1507 C 0.60213 0.0088 0.37254 0.0
N1508 N 0.59104 0.98441 0.45116 0.0
N1509 N 0.58855 0.00405 0.39079 0.0
H1510 H 0.83864 0.82834 0.0602 0.0
H1511 H 0.82115 0.86749 0.18623 0.0
H1512 H 0.79213 0.88807 0.08128 0.0
H1513 H 0.86179 0.80358 0.16436 0.0
H1514 H 0.82426 0.88618 0.14829 0.0
H1515 H 0.86042 0.8306 0.09705 0.0
C1516 C 0.83327 0.84222 0.07252 0.0
C1517 C 0.813 0.85734 0.06816 0.0
C1518 C 0.8332 0.86847 0.15199 0.0
C1519 C 0.83746 0.8597 0.11043 0.0
C1520 C 0.83154 0.85788 0.17367 0.0
C1521 C 0.84059 0.83366 0.178 0.0
C1522 C 0.84375 0.8545 0.1347 0.0
C1523 C 0.85399 0.822 0.16133 0.0
C1524 C 0.84578 0.84361 0.0935 0.0
C1525 C 0.8073 0.87561 0.08428 0.0
N1526 N 0.85469 0.83227 0.14018 0.0
N1527 N 0.81904 0.87579 0.10505 0.0
H1528 H 0.91598 -0.00077 0.73748 0.0
H1529 H 0.01127 0.9451 0.65162 0.0
H1530 H 0.97913 0.95676 0.75878 0.0
H1531 H 0.94551 0.98212 0.62922 0.0
H1532 H 0.99835 0.94697 0.69091 0.0
H1533 H 0.9254 0.99173 0.69768 0.0
C1534 C 0.93182 0.98836 0.73384 0.0
C1535 C 0.94685 0.97876 0.75159 0.0
C1536 C 0.98659 0.95445 0.67741 0.0
C1537 C 0.95764 0.97 0.70603 0.0
C1538 C 0.99396 0.95335 0.65498 0.0
C1539 C 0.9795 0.9636 0.63718 0.0
C1540 C 0.96469 0.96612 0.68214 0.0
C1541 C 0.95714 0.97386 0.64243 0.0
C1542 C 0.93712 0.98399 0.71109 0.0
C1543 C 0.96704 0.96466 0.74575 0.0
N1544 N 0.95053 0.97513 0.66448 0.0
N1545 N 0.97187 0.96081 0.72352 0.0
H1546 H 0.79397 0.12678 0.40973 0.0
H1547 H 0.75357 0.25427 0.34661 0.0
H1548 H 0.7572 0.18713 0.44292 0.0
H1549 H 0.80823 0.20521 0.32131 0.0
H1550 H 0.75208 0.22822 0.38098 0.0
H1551 H 0.79582 0.15307 0.37525 0.0
C1552 C 0.78605 0.14539 0.40965 0.0
C1553 C 0.77547 0.15483 0.42916 0.0
C1554 C 0.76456 0.22331 0.36798 0.0
C1555 C 0.77764 0.18491 0.39013 0.0
C1556 C 0.76551 0.23826 0.34843 0.0
C1557 C 0.78109 0.23197 0.3311 0.0
C1558 C 0.77906 0.20175 0.37008 0.0
C1559 C 0.79604 0.21086 0.3343 0.0
C1560 C 0.78729 0.16045 0.39011 0.0
C1561 C 0.76561 0.17914 0.42828 0.0
N1562 N 0.79449 0.19636 0.35331 0.0
N1563 N 0.76693 0.19332 0.4091 0.0
H1564 H 0.63643 0.98939 0.24468 0.0
H1565 H 0.59236 0.08059 0.14263 0.0
H1566 H 0.61428 0.06627 0.25482 0.0
H1567 H 0.58163 -8e-05 0.14085 0.0
H1568 H 0.6106 0.07661 0.18139 0.0
H1569 H 0.62651 0.99411 0.20357 0.0
C1570 C 0.62978 0.00729 0.23819 0.0
C1571 C 0.62574 0.02734 0.25304 0.0
C1572 C 0.60436 0.05981 0.17239 0.0
C1573 C 0.61486 0.03297 0.20653 0.0
C1574 C 0.59401 0.06209 0.15041 0.0
C1575 C 0.58518 0.0406 0.13891 0.0
C1576 C 0.60625 0.03583 0.18258 0.0
C1577 C 0.58785 0.01696 0.14948 0.0
C1578 C 0.62408 0.00995 0.21487 0.0
C1579 C 0.61719 0.05022 0.2439 0.0
N1580 N 0.59815 0.01518 0.17078 0.0
N1581 N 0.612 0.05242 0.22122 0.0
H1582 H 0.69847 0.84702 0.96472 0.0
H1583 H 0.67905 0.76462 0.88161 0.0
H1584 H 0.73819 0.79023 0.00286 0.0
H1585 H 0.74457 0.73306 0.91141 0.0
H1586 H 0.66892 0.78005 0.91927 0.0
H1587 H 0.68341 0.81476 0.93842 0.0
C1588 C 0.70355 0.82758 0.96784 0.0
C1589 C 0.72026 0.82134 0.98542 0.0
C1590 C 0.68531 0.76938 0.91758 0.0
C1591 C 0.70289 0.78408 0.95555 0.0
C1592 C 0.69105 0.76047 0.89613 0.0
C1593 C 0.71332 0.74873 0.89315 0.0
C1594 C 0.70221 0.76678 0.9359 0.0
C1595 C 0.72755 0.74267 0.91268 0.0
C1596 C 0.69463 0.80898 0.95298 0.0
C1597 C 0.72583 0.79588 0.98908 0.0
N1598 N 0.72207 0.7524 0.93315 0.0
N1599 N 0.71772 0.77823 0.97383 0.0
H1600 H 0.8049 0.89273 0.96267 0.0
H1601 H 0.947 0.88755 0.98338 0.0
H1602 H 0.83935 0.82141 0.97705 0.0
H1603 H 0.89818 0.93974 0.01397 0.0
H1604 H 0.91188 0.86557 0.9655 0.0
H1605 H 0.84461 0.9128 0.96169 0.0
C1606 C 0.8208 0.88105 0.96463 0.0
C1607 C 0.81881 0.85559 0.97095 0.0
C1608 C 0.9092 0.88216 0.97583 0.0
C1609 C 0.86406 0.87847 0.96999 0.0
C1610 C 0.92911 0.89452 0.98635 0.0
C1611 C 0.92579 0.91582 0.00022 0.0
C1612 C 0.886 0.89164 0.97867 0.0
C1613 C 0.90205 0.92405 0.00297 0.0
C1614 C 0.84343 0.89257 0.96421 0.0
C1615 C 0.84005 0.84127 0.97275 0.0
N1616 N 0.88321 0.91207 0.99222 0.0
N1617 N 0.86195 0.8531 0.97307 0.0
H1618 H 0.33428 0.555 0.01251 0.0
H1619 H 0.47234 0.56001 0.97708 0.0
H1620 H 0.36757 0.61838 0.97929 0.0
H1621 H 0.44782 0.50935 0.02925 0.0
H1622 H 0.43174 0.57729 0.97313 0.0
H1623 H 0.37387 0.53413 0.01499 0.0
C1624 C 0.34986 0.56451 0.00579 0.0
C1625 C 0.34764 0.58852 -0.00421 0.0
C1626 C 0.4352 0.56232 0.98539 0.0
C1627 C 0.39262 0.56471 -0.0018 0.0
C1628 C 0.45838 0.55234 0.98757 0.0
C1629 C 0.46358 0.5333 0.00363 0.0
C1630 C 0.41694 0.55312 -0.00078 0.0
C1631 C 0.44466 0.52412 0.01674 0.0
C1632 C 0.37239 0.55262 0.0072 0.0
C1633 C 0.36839 0.59997 0.98728 0.0
N1634 N 0.42217 0.53415 0.01429 0.0
N1635 N 0.38989 0.58794 0.98859 0.0
H1636 H 0.15045 0.61985 0.82475 0.0
H1637 H 0.26677 0.67176 0.76225 0.0
H1638 H 0.21009 0.57286 0.80679 0.0
H1639 H 0.20772 0.71872 0.78163 0.0
H1640 H 0.24581 0.63506 0.77755 0.0
H1641 H 0.17175 0.65645 0.80995 0.0
C1642 C 0.16819 0.61724 0.81805 0.0
C1643 C 0.17836 0.59311 0.8169 0.0
C1644 C 0.23736 0.65337 0.77829 0.0
C1645 C 0.20267 0.63501 0.79947 0.0
C1646 C 0.2492 0.6743 0.76932 0.0
C1647 C 0.23902 0.69838 0.77068 0.0
C1648 C 0.21519 0.65654 0.7887 0.0
C1649 C 0.21628 0.70053 0.78021 0.0
C1650 C 0.18026 0.63816 0.80941 0.0
C1651 C 0.20145 0.59102 0.80802 0.0
N1652 N 0.20522 0.67992 0.78898 0.0
N1653 N 0.2127 0.61165 0.79946 0.0
H1654 H 0.17799 0.36389 0.51529 0.0
H1655 H 0.1311 0.50391 0.53237 0.0
H1656 H 0.22632 0.42716 0.52782 0.0
H1657 H 0.08885 0.44495 0.49888 0.0
H1658 H 0.16554 0.47548 0.53523 0.0
H1659 H 0.1438 0.39243 0.51624 0.0
C1660 C 0.1814 0.38369 0.51882 0.0
C1661 C 0.20503 0.39327 0.52114 0.0
C1662 C 0.1488 0.46888 0.52706 0.0
C1663 C 0.16609 0.42597 0.52175 0.0
C1664 C 0.12924 0.48511 0.52524 0.0
C1665 C 0.10717 0.47671 0.51533 0.0
C1666 C 0.14612 0.44402 0.51919 0.0
C1667 C 0.10563 0.4522 0.50646 0.0
C1668 C 0.16189 0.4 0.51903 0.0
C1669 C 0.20837 0.41905 0.52574 0.0
N1670 N 0.12482 0.43657 0.50884 0.0
N1671 N 0.18907 0.43462 0.52564 0.0
H1672 H 0.89977 0.90789 0.85085 0.0
H1673 H 0.80378 0.8434 0.76906 0.0
H1674 H 0.86021 0.95113 0.79953 0.0
H1675 H 0.80809 0.82181 0.84003 0.0
H1676 H 0.82745 0.88153 0.7785 0.0
H1677 H 0.86939 0.87398 0.84629 0.0
C1678 C 0.88463 0.91037 0.83884 0.0
C1679 C 0.88261 0.93233 0.82548 0.0
C1680 C 0.82284 0.86864 0.79205 0.0
C1681 C 0.84827 0.89368 0.81999 0.0
C1682 C 0.80935 0.847 0.78668 0.0
C1683 C 0.80381 0.82975 0.80385 0.0
C1684 C 0.83153 0.87253 0.81459 0.0
C1685 C 0.81171 0.83497 0.8264 0.0
C1686 C 0.8673 0.89111 0.83634 0.0
C1687 C 0.86255 0.93457 0.8102 0.0
N1688 N 0.82562 0.85572 0.83111 0.0
N1689 N 0.84641 0.91533 0.8076 0.0
H1690 H 0.67654 0.13192 0.45425 0.0
H1691 H 0.60578 0.04427 0.54087 0.0
H1692 H 0.71172 0.08106 0.50227 0.0
H1693 H 0.56979 0.08858 0.48811 0.0
H1694 H 0.64462 0.05848 0.52735 0.0
H1695 H 0.6374 0.11563 0.46548 0.0
C1696 C 0.67608 0.11697 0.46686 0.0
C1697 C 0.69754 0.10796 0.47741 0.0
C1698 C 0.62826 0.06522 0.51877 0.0
C1699 C 0.6526 0.08964 0.49076 0.0
C1700 C 0.606 0.05731 0.52662 0.0
C1701 C 0.58438 0.06528 0.51566 0.0
C1702 C 0.62908 0.08132 0.49978 0.0
C1703 C 0.58593 0.08208 0.49721 0.0
C1704 C 0.65367 0.10781 0.47338 0.0
C1705 C 0.69573 0.08854 0.49359 0.0
N1706 N 0.6079 0.08947 0.48981 0.0
N1707 N 0.67367 0.08027 0.49997 0.0
H1708 H 0.17203 0.42791 0.81796 0.0
H1709 H 0.28435 0.36212 0.76318 0.0
H1710 H 0.22963 0.47183 0.78973 0.0
H1711 H 0.24124 0.32665 0.81417 0.0
H1712 H 0.26357 0.40204 0.76979 0.0
H1713 H 0.19557 0.38975 0.81305 0.0
C1714 C 0.1896 0.42951 0.81061 0.0
C1715 C 0.19888 0.45308 0.80423 0.0
C1716 C 0.2589 0.38553 0.77965 0.0
C1717 C 0.22596 0.40938 0.79854 0.0
C1718 C 0.27075 0.36277 0.77592 0.0
C1719 C 0.2645 0.34095 0.78809 0.0
C1720 C 0.24042 0.38632 0.79535 0.0
C1721 C 0.24668 0.34292 0.80436 0.0
C1722 C 0.20311 0.40773 0.80796 0.0
C1723 C 0.22183 0.45402 0.79491 0.0
N1724 N 0.23512 0.36508 0.80731 0.0
N1725 N 0.23457 0.43243 0.7922 0.0
H1726 H 0.33219 0.54644 0.27502 0.0
H1727 H 0.3329 0.69063 0.31572 0.0
H1728 H 0.39314 0.58272 0.3098 0.0
H1729 H 0.28099 0.65982 0.26626 0.0
H1730 H 0.35177 0.6491 0.31901 0.0
H1731 H 0.31019 0.58626 0.27615 0.0
C1732 C 0.34095 0.56279 0.28283 0.0
C1733 C 0.36457 0.56136 0.29216 0.0
C1734 C 0.33612 0.65143 0.3076 0.0
C1735 C 0.33946 0.60675 0.29382 0.0
C1736 C 0.32523 0.67505 0.30585 0.0
C1737 C 0.30549 0.67871 0.29056 0.0
C1738 C 0.32705 0.63135 0.29408 0.0
C1739 C 0.29633 0.65788 0.27812 0.0
C1740 C 0.32838 0.58547 0.28353 0.0
C1741 C 0.37503 0.58306 0.30222 0.0
N1742 N 0.30726 0.63513 0.28007 0.0
N1743 N 0.36238 0.60486 0.30281 0.0
H1744 H 0.56475 0.70935 0.55668 0.0
H1745 H 0.49999 0.57456 0.56526 0.0
H1746 H 0.52801 0.68327 0.61609 0.0
H1747 H 0.54771 0.59614 0.512 0.0
H1748 H 0.50314 0.61753 0.5805 0.0
H1749 H 0.55221 0.67076 0.53681 0.0
C1750 C 0.55402 0.69555 0.56555 0.0
C1751 C 0.54777 0.69937 0.58821 0.0
C1752 C 0.51265 0.61289 0.5653 0.0
C1753 C 0.53324 0.65528 0.56552 0.0
C1754 C 0.51074 0.58846 0.55655 0.0
C1755 C 0.52392 0.58178 0.53761 0.0
C1756 C 0.52774 0.63059 0.5549 0.0
C1757 C 0.53757 0.60044 0.52689 0.0
C1758 C 0.54681 0.67356 0.55417 0.0
C1759 C 0.5336 0.68095 0.59874 0.0
N1760 N 0.53931 0.62395 0.53582 0.0
N1761 N 0.52693 0.65961 0.58734 0.0
H1762 H 0.62811 0.26683 0.88985 0.0
H1763 H 0.69691 0.22974 0.77651 0.0
H1764 H 0.59084 0.24161 0.82801 0.0
H1765 H 0.73277 0.25972 0.83733 0.0
H1766 H 0.65829 0.23179 0.79541 0.0
H1767 H 0.66658 0.2623 0.87134 0.0
C1768 C 0.62797 0.26024 0.87237 0.0
C1769 C 0.60604 0.25463 0.86053 0.0
C1770 C 0.67461 0.23783 0.80466 0.0
C1771 C 0.65044 0.24938 0.83903 0.0
C1772 C 0.69675 0.23659 0.79389 0.0
C1773 C 0.71831 0.24455 0.80527 0.0
C1774 C 0.67383 0.24706 0.8271 0.0
C1775 C 0.71675 0.25335 0.82779 0.0
C1776 C 0.65004 0.25769 0.86177 0.0
C1777 C 0.6072 0.24618 0.83786 0.0
N1778 N 0.69501 0.25438 0.83787 0.0
N1779 N 0.62895 0.24385 0.82789 0.0
H1780 H 0.06689 0.26617 0.06558 0.0
H1781 H 0.11725 0.40632 0.08033 0.0
H1782 H 0.09249 0.29722 0.13019 0.0
H1783 H 0.06206 0.38138 0.03093 0.0
H1784 H 0.12256 0.36241 0.09236 0.0
H1785 H 0.08096 0.30425 0.04652 0.0
C1786 C 0.07587 0.2808 0.07571 0.0
C1787 C 0.07783 0.27903 0.09954 0.0
C1788 C 0.10979 0.36675 0.07848 0.0
C1789 C 0.09396 0.32234 0.0779 0.0
C1790 C 0.10648 0.39181 0.07175 0.0
C1791 C 0.08869 0.39795 0.05492 0.0
C1792 C 0.09558 0.34775 0.06798 0.0
C1793 C 0.07609 0.37801 0.04386 0.0
C1794 C 0.08395 0.30244 0.06481 0.0
C1795 C 0.09009 0.29823 0.11181 0.0
N1796 N 0.07962 0.35392 0.05076 0.0
N1797 N 0.09732 0.31942 0.10086 0.0
H1798 H 0.94024 0.75802 0.40428 0.0
H1799 H 0.87262 0.78125 0.2828 0.0
H1800 H 0.97919 0.77127 0.34305 0.0
H1801 H 0.83708 0.75389 0.34225 0.0
H1802 H 0.9114 0.77995 0.3044 0.0
H1803 H 0.90248 0.75846 0.3818 0.0
C1804 C 0.94096 0.76103 0.38605 0.0
C1805 C 0.96321 0.7647 0.37568 0.0
C1806 C 0.89513 0.77423 0.31272 0.0
C1807 C 0.9193 0.76534 0.34953 0.0
C1808 C 0.87289 0.77506 0.30043 0.0
C1809 C 0.85136 0.76773 0.31068 0.0
C1810 C 0.896 0.7662 0.33559 0.0
C1811 C 0.85306 0.75977 0.33356 0.0
C1812 C 0.91921 0.76122 0.37317 0.0
C1813 C 0.96261 0.7683 0.35187 0.0
N1814 N 0.87487 0.75931 0.34518 0.0
N1815 N 0.94105 0.76869 0.33965 0.0
H1816 H 0.52496 0.31092 0.94727 0.0
H1817 H 0.53974 0.46142 0.94799 0.0
H1818 H 0.54677 0.3533 0.88855 0.0
H1819 H 0.51816 0.41746 0.0059 0.0
H1820 H 0.54025 0.42281 0.92521 0.0
H1821 H 0.52008 0.3502 0.96791 0.0
C1822 C 0.52859 0.32854 0.93861 0.0
C1823 C 0.5364 0.32874 0.9161 0.0
C1824 C 0.53528 0.42161 0.94286 0.0
C1825 C 0.53097 0.37416 0.93994 0.0
C1826 C 0.53495 0.44368 0.95592 0.0
C1827 C 0.52896 0.44276 0.97901 0.0
C1828 C 0.5296 0.39833 0.95288 0.0
C1829 C 0.52293 0.41917 0.98824 0.0
C1830 C 0.52581 0.35104 0.95049 0.0
C1831 C 0.54073 0.35224 0.90586 0.0
N1832 N 0.5235 0.39796 0.9752 0.0
N1833 N 0.53811 0.37401 0.9179 0.0
H1834 H 0.01213 0.20882 0.19475 0.0
H1835 H 0.87125 0.23715 0.18931 0.0
H1836 H 0.97647 0.25681 0.14454 0.0
H1837 H 0.9074 0.21049 0.25118 0.0
H1838 H 0.90994 0.23989 0.17135 0.0
H1839 H 0.97439 0.20629 0.21532 0.0
C1840 C 0.99651 0.21908 0.18825 0.0
C1841 C 0.99735 0.2329 0.16784 0.0
C1842 C 0.90947 0.23337 0.18884 0.0
C1843 C 0.95434 0.2297 0.19088 0.0
C1844 C 0.88733 0.23146 0.19901 0.0
C1845 C 0.8861 0.2234 0.22171 0.0
C1846 C 0.93066 0.22708 0.20138 0.0
C1847 C 0.90763 0.21686 0.23363 0.0
C1848 C 0.97501 0.21754 0.19991 0.0
C1849 C 0.97662 0.24579 0.16011 0.0
N1850 N 0.92912 0.21879 0.22329 0.0
N1851 N 0.95594 0.24367 0.17151 0.0
H1852 H 0.03198 0.67497 0.40234 0.0
H1853 H 0.0761 0.59955 0.51524 0.0
H1854 H 0.06688 0.70883 0.46181 0.0
H1855 H 0.03326 0.56474 0.46069 0.0
H1856 H 0.07814 0.63818 0.49273 0.0
H1857 H 0.03784 0.63301 0.41999 0.0
C1858 C 0.04149 0.6735 0.41877 0.0
C1859 C 0.049 0.69534 0.43064 0.0
C1860 C 0.06839 0.62208 0.48556 0.0
C1861 C 0.0554 0.64773 0.45106 0.0
C1862 C 0.06722 0.59994 0.49846 0.0
C1863 C 0.0543 0.57883 0.49001 0.0
C1864 C 0.05649 0.62338 0.46396 0.0
C1865 C 0.04331 0.58056 0.468 0.0
C1866 C 0.04459 0.64963 0.42896 0.0
C1867 C 0.06079 0.69245 0.45209 0.0
N1868 N 0.0445 0.60249 0.45582 0.0
N1869 N 0.06348 0.66922 0.46161 0.0
H1870 H 0.60462 0.73958 0.69217 0.0
H1871 H 0.6946 0.76514 0.7746 0.0
H1872 H 0.64913 0.78135 0.64613 0.0
H1873 H 0.73993 0.7772 0.71725 0.0
H1874 H 0.65929 0.76426 0.74839 0.0
H1875 H 0.63623 0.74376 0.72185 0.0
C1876 C 0.62103 0.74968 0.68829 0.0
C1877 C 0.62419 0.76016 0.66659 0.0
C1878 C 0.67696 0.76681 0.7415 0.0
C1879 C 0.66014 0.7659 0.70084 0.0
C1880 C 0.69708 0.76774 0.75651 0.0
C1881 C 0.72021 0.77083 0.74802 0.0
C1882 C 0.68016 0.76884 0.7179 0.0
C1883 C 0.72243 0.77439 0.72449 0.0
C1884 C 0.63895 0.75244 0.70543 0.0
C1885 C 0.64588 0.77294 0.66257 0.0
N1886 N 0.70265 0.77314 0.71023 0.0
N1887 N 0.66305 0.77539 0.67955 0.0
H1888 H 0.58211 0.48601 0.70352 0.0
H1889 H 0.60506 0.50497 0.57191 0.0
H1890 H 0.65332 0.49853 0.67834 0.0
H1891 H 0.53746 0.47945 0.59845 0.0
H1892 H 0.62417 0.49984 0.61 0.0
H1893 H 0.5665 0.48009 0.66457 0.0
C1894 C 0.5945 0.48728 0.68971 0.0
C1895 C 0.61894 0.4931 0.69404 0.0
C1896 C 0.60523 0.49511 0.60738 0.0
C1897 C 0.60115 0.48675 0.64931 0.0
C1898 C 0.59429 0.49812 0.58569 0.0
C1899 C 0.56954 0.493 0.5821 0.0
C1900 C 0.59125 0.48706 0.62552 0.0
C1901 C 0.5565 0.48396 0.60047 0.0
C1902 C 0.5856 0.48385 0.66746 0.0
C1903 C 0.63431 0.49416 0.67563 0.0
N1904 N 0.56747 0.48151 0.6214 0.0
N1905 N 0.62507 0.49145 0.65392 0.0
H1906 H 0.79196 0.41127 0.95703 0.0
H1907 H 0.84311 0.28998 0.89504 0.0
H1908 H 0.81697 0.34349 0.99096 0.0
H1909 H 0.81033 0.35246 0.85859 0.0
H1910 H 0.84183 0.31409 0.93037 0.0
H1911 H 0.80606 0.39447 0.92086 0.0
C1912 C 0.80069 0.39307 0.95692 0.0
C1913 C 0.80298 0.37857 0.97691 0.0
C1914 C 0.8352 0.32272 0.91461 0.0
C1915 C 0.81918 0.35942 0.93597 0.0
C1916 C 0.83594 0.30894 0.89448 0.0
C1917 C 0.82649 0.31912 0.874 0.0
C1918 C 0.8246 0.34672 0.91433 0.0
C1919 C 0.81777 0.34393 0.87407 0.0
C1920 C 0.80872 0.3835 0.93634 0.0
C1921 C 0.81452 0.35518 0.97594 0.0
N1922 N 0.81664 0.35677 0.89404 0.0
N1923 N 0.82201 0.3463 0.95581 0.0
H1924 H 0.97488 0.477 0.20899 0.0
H1925 H 0.98984 0.55912 0.09589 0.0
H1926 H 0.93123 0.54248 0.194 0.0
H1927 H 0.03256 0.49401 0.1146 0.0
H1928 H 0.96849 0.55464 0.13152 0.0
H1929 H 0.99539 0.48339 0.17377 0.0
C1930 C 0.96951 0.49276 0.19819 0.0
C1931 C 0.95142 0.50938 0.20458 0.0
C1932 C 0.98265 0.54148 0.12786 0.0
C1933 C 0.97519 0.51696 0.16391 0.0
C1934 C 0.99498 0.54411 0.10762 0.0
C1935 C 0.01301 0.52685 0.10222 0.0
C1936 C 0.98841 0.52146 0.14274 0.0
C1937 C 0.0188 0.50772 0.11798 0.0
C1938 C 0.98133 0.49642 0.17802 0.0
C1939 C 0.94505 0.5292 0.18967 0.0
N1940 N 0.00647 0.5055 0.13741 0.0
N1941 N 0.95708 0.53258 0.17002 0.0
H1942 H 0.83233 0.68322 0.4536 0.0
H1943 H 0.72925 0.70871 0.38917 0.0
H1944 H 0.78697 0.61979 0.47046 0.0
H1945 H 0.77356 0.66167 0.34823 0.0
H1946 H 0.74517 0.68689 0.42349 0.0
H1947 H 0.80856 0.68837 0.41773 0.0
C1948 C 0.81764 0.67017 0.44952 0.0
C1949 C 0.8116 0.651 0.46472 0.0
C1950 C 0.75048 0.6807 0.40683 0.0
C1951 C 0.78437 0.65715 0.42452 0.0
C1952 C 0.74147 0.69306 0.38736 0.0
C1953 C 0.75031 0.68705 0.366 0.0
C1954 C 0.76859 0.66269 0.40473 0.0
C1955 C 0.7663 0.66677 0.36445 0.0
C1956 C 0.80418 0.67312 0.42924 0.0
C1957 C 0.79229 0.63458 0.45887 0.0
N1958 N 0.77566 0.65585 0.38373 0.0
N1959 N 0.77892 0.63829 0.43924 0.0
H1960 H 0.60745 0.52529 0.79621 0.0
H1961 H 0.62399 0.53694 0.93084 0.0
H1962 H 0.67437 0.5078 0.83269 0.0
H1963 H 0.56133 0.56298 0.89192 0.0
H1964 H 0.64455 0.53025 0.89532 0.0
H1965 H 0.59181 0.54221 0.83103 0.0
C1966 C 0.61893 0.52508 0.81157 0.0
C1967 C 0.64221 0.51494 0.81158 0.0
C1968 C 0.62645 0.53781 0.89456 0.0
C1969 C 0.62424 0.53424 0.85177 0.0
C1970 C 0.61475 0.54186 0.91486 0.0
C1971 C 0.59077 0.55028 0.91434 0.0
C1972 C 0.61402 0.54205 0.87362 0.0
C1973 C 0.57963 0.556 0.8931 0.0
C1974 C 0.60998 0.53486 0.83148 0.0
C1975 C 0.65626 0.5153 0.832 0.0
N1976 N 0.59124 0.55149 0.87359 0.0
N1977 N 0.64695 0.52459 0.85139 0.0
H1978 H 0.77943 0.30413 0.07767 0.0
H1979 H 0.73929 0.3196 0.20601 0.0
H1980 H 0.76609 0.37741 0.10653 0.0
H1981 H 0.77879 0.25621 0.18104 0.0
H1982 H 0.74027 0.33903 0.16795 0.0
H1983 H 0.76985 0.28458 0.11361 0.0
C1984 C 0.7744 0.31621 0.09155 0.0
C1985 C 0.77409 0.3426 0.08914 0.0
C1986 C 0.74847 0.32076 0.17083 0.0
C1987 C 0.76295 0.31999 0.13061 0.0
C1988 C 0.74779 0.30957 0.19243 0.0
C1989 C 0.75905 0.28627 0.19666 0.0
C1990 C 0.76013 0.30831 0.15334 0.0
C1991 C 0.76999 0.27422 0.17856 0.0
C1992 C 0.76891 0.30493 0.11212 0.0
C1993 C 0.76682 0.35704 0.10769 0.0
N1994 N 0.77025 0.28538 0.15773 0.0
N1995 N 0.76173 0.34553 0.1278 0.0
H1996 H 0.95747 0.49366 0.31046 0.0
H1997 H 0.94173 0.49747 0.44315 0.0
H1998 H 0.8902 0.51683 0.33828 0.0
H1999 H 0.99604 0.4538 0.4108 0.0
H2000 H 0.92076 0.50304 0.40594 0.0
H2001 H 0.97087 0.4785 0.34767 0.0
C2002 C 0.94539 0.49547 0.3244 0.0
C2003 C 0.92263 0.50654 0.32121 0.0
C2004 C 0.93699 0.49181 0.40709 0.0
C2005 C 0.93815 0.48933 0.36431 0.0
C2006 C 0.94888 0.48847 0.42833 0.0
C2007 C 0.97087 0.47549 0.42996 0.0
C2008 C 0.94734 0.48226 0.38747 0.0
C2009 C 0.97943 0.4644 0.41021 0.0
C2010 C 0.95306 0.48665 0.34573 0.0
C2011 C 0.90791 0.50845 0.34006 0.0
N2012 N 0.96784 0.46837 0.38975 0.0
N2013 N 0.91605 0.50016 0.36097 0.0
H2014 H 0.86369 0.68789 0.58077 0.0
H2015 H 0.87625 0.74215 0.68621 0.0
H2016 H 0.8209 0.75224 0.56008 0.0
H2017 H 0.80942 0.77806 0.66496 0.0
H2018 H 0.88416 0.73411 0.64616 0.0
H2019 H 0.872 0.70747 0.61763 0.0
C2020 C 0.85644 0.70644 0.58387 0.0
C2021 C 0.84118 0.71827 0.56755 0.0
C2022 C 0.86781 0.74381 0.65029 0.0
C2023 C 0.85098 0.74113 0.60971 0.0
C2024 C 0.86334 0.7485 0.67314 0.0
C2025 C 0.84186 0.76023 0.67901 0.0
C2026 C 0.85048 0.75063 0.6333 0.0
C2027 C 0.82618 0.76885 0.66134 0.0
C2028 C 0.86149 0.71783 0.60488 0.0
C2029 C 0.83257 0.7424 0.5723 0.0
N2030 N 0.83063 0.76353 0.63932 0.0
N2031 N 0.83713 0.75279 0.5932 0.0
H2032 H 0.75732 0.62895 0.54468 0.0
H2033 H 0.64562 0.58524 0.46344 0.0
H2034 H 0.73886 0.6647 0.48016 0.0
H2035 H 0.6601 0.55595 0.53133 0.0
H2036 H 0.67993 0.61425 0.46888 0.0
H2037 H 0.72139 0.60236 0.54013 0.0
C2038 C 0.74554 0.63144 0.52969 0.0
C2039 C 0.75112 0.64907 0.51278 0.0
C2040 C 0.67561 0.6014 0.48254 0.0
C2041 C 0.71013 0.61835 0.50725 0.0
C2042 C 0.65605 0.58483 0.47944 0.0
C2043 C 0.65004 0.56801 0.4969 0.0
C2044 C 0.68923 0.60115 0.50325 0.0
C2045 C 0.66432 0.56819 0.51721 0.0
C2046 C 0.72506 0.61617 0.52705 0.0
C2047 C 0.73517 0.65147 0.4937 0.0
N2048 N 0.6832 0.5845 0.51982 0.0
N2049 N 0.7155 0.6361 0.49135 0.0
H2050 H 0.18998 0.89126 0.54545 0.0
H2051 H 0.11086 0.01172 0.52097 0.0
H2052 H 0.22322 0.96502 0.54266 0.0
H2053 H 0.08406 0.9489 0.55977 0.0
H2054 H 0.1517 0.99437 0.52515 0.0
H2055 H 0.15039 0.91111 0.54709 0.0
C2056 C 0.18894 0.91167 0.5453 0.0
C2057 C 0.2099 0.92654 0.54392 0.0
C2058 C 0.1369 0.98457 0.53294 0.0
C2059 C 0.16458 0.94934 0.54535 0.0
C2060 C 0.11359 0.99438 0.5305 0.0
C2061 C 0.09401 0.98171 0.54002 0.0
C2062 C 0.14056 0.96159 0.54446 0.0
C2063 C 0.09863 0.95933 0.55223 0.0
C2064 C 0.16635 0.92296 0.54633 0.0
C2065 C 0.2075 0.9529 0.54384 0.0
N2066 N 0.12135 0.94979 0.5538 0.0
N2067 N 0.18519 0.96349 0.54419 0.0
H2068 H 0.42778 0.91395 0.75255 0.0
H2069 H 0.29851 0.85543 0.77942 0.0
H2070 H 0.36276 0.95809 0.75412 0.0
H2071 H 0.35889 0.80992 0.76092 0.0
H2072 H 0.32295 0.89337 0.77384 0.0
H2073 H 0.40375 0.87574 0.75839 0.0
C2074 C 0.40844 0.91563 0.75398 0.0
C2075 C 0.3973 0.93934 0.7528 0.0
C2076 C 0.33087 0.87508 0.77106 0.0
C2077 C 0.36973 0.89561 0.75981 0.0
C2078 C 0.31698 0.85338 0.77441 0.0
C2079 C 0.32664 0.82941 0.77062 0.0
C2080 C 0.35469 0.87287 0.76406 0.0
C2081 C 0.35068 0.82799 0.76401 0.0
C2082 C 0.39474 0.89378 0.75733 0.0
C2083 C 0.37215 0.94026 0.75479 0.0
N2084 N 0.36387 0.84941 0.76095 0.0
N2085 N 0.35926 0.91875 0.75834 0.0
H2086 H 0.36758 0.0943 0.98372 0.0
H2087 H 0.47008 0.03836 0.06291 0.0
H2088 H 0.35546 0.07794 0.05448 0.0
H2089 H 0.46391 0.01978 0.99124 0.0
H2090 H 0.42855 0.05383 0.06065 0.0
H2091 H 0.40347 0.06777 0.98597 0.0
C2092 C 0.37233 0.08481 -0.00038 0.0
C2093 C 0.35874 0.08833 0.01898 0.0
C2094 C 0.43622 0.04599 0.04554 0.0
C2095 C 0.39982 0.05853 0.0218 0.0
C2096 C 0.45991 0.03732 0.04678 0.0
C2097 C 0.47047 0.02806 0.02718 0.0
C2098 C 0.42333 0.04588 0.02446 0.0
C2099 C 0.45647 0.0269 0.00674 0.0
C2100 C 0.39271 0.06964 0.00089 0.0
C2101 C 0.36552 0.07561 0.03918 0.0
N2102 N 0.43372 0.03614 0.00581 0.0
N2103 N 0.38594 0.0616 0.04022 0.0
H2104 H 0.7078 0.56177 0.73434 0.0
H2105 H 0.75101 0.676 0.81246 0.0
H2106 H 0.66394 0.59587 0.78491 0.0
H2107 H 0.76946 0.67596 0.74157 0.0
H2108 H 0.72699 0.63797 0.8059 0.0
H2109 H 0.7371 0.59673 0.73933 0.0
C2110 C 0.7043 0.57664 0.74638 0.0
C2111 C 0.68342 0.57604 0.75922 0.0
C2112 C 0.7365 0.64614 0.79184 0.0
C2113 C 0.7169 0.61521 0.76533 0.0
C2114 C 0.75033 0.66776 0.79554 0.0
C2115 C 0.76188 0.67944 0.77739 0.0
C2116 C 0.73431 0.63588 0.76989 0.0
C2117 C 0.76068 0.66761 0.75596 0.0
C2118 C 0.72096 0.59646 0.74916 0.0
C2119 C 0.67969 0.59571 0.77456 0.0
N2120 N 0.74682 0.64645 0.75269 0.0
N2121 N 0.69641 0.61435 0.77737 0.0
H2122 H 0.84136 0.45088 0.03538 0.0
H2123 H 0.98564 0.44802 0.02926 0.0
H2124 H 0.88483 0.38377 0.04034 0.0
H2125 H 0.94544 0.51735 0.02452 0.0
H2126 H 0.9481 0.42471 0.03309 0.0
H2127 H 0.87852 0.47627 0.03242 0.0
C2128 C 0.85866 0.44153 0.03619 0.0
C2129 C 0.85993 0.41512 0.038 0.0
C2130 C 0.94735 0.44502 0.03113 0.0
C2131 C 0.90234 0.44391 0.03429 0.0
C2132 C 0.96886 0.45837 0.02882 0.0
C2133 C 0.96876 0.48472 0.02655 0.0
C2134 C 0.92536 0.45799 0.03126 0.0
C2135 C 0.94636 0.49702 0.02613 0.0
C2136 C 0.87984 0.456 0.0343 0.0
C2137 C 0.88286 0.40401 0.03876 0.0
N2138 N 0.92554 0.48356 0.02856 0.0
N2139 N 0.90301 0.4184 0.03681 0.0
H2140 H 0.33555 0.05894 0.74398 0.0
H2141 H 0.28155 0.17325 0.772 0.0
H2142 H 0.39989 0.10537 0.7443 0.0
H2143 H 0.33561 0.20704 0.7303 0.0
H2144 H 0.30006 0.132 0.76663 0.0
H2145 H 0.31103 0.0973 0.7436 0.0
C2146 C 0.34449 0.07719 0.74384 0.0
C2147 C 0.36978 0.07903 0.74444 0.0
C2148 C 0.30751 0.14835 0.75822 0.0
C2149 C 0.34196 0.12279 0.7441 0.0
C2150 C 0.29706 0.17191 0.7614 0.0
C2151 C 0.30704 0.1936 0.75156 0.0
C2152 C 0.32833 0.14657 0.74543 0.0
C2153 C 0.32724 0.19081 0.73809 0.0
C2154 C 0.33051 0.09903 0.74382 0.0
C2155 C 0.38045 0.10313 0.74413 0.0
N2156 N 0.33747 0.16779 0.73576 0.0
N2157 N 0.36648 0.12407 0.74391 0.0
H2158 H 0.22629 0.95666 0.25505 0.0
H2159 H 0.22884 0.8092 0.23009 0.0
H2160 H 0.16174 0.91071 0.24882 0.0
H2161 H 0.28347 0.84569 0.27329 0.0
H2162 H 0.20755 0.84932 0.22644 0.0
H2163 H 0.25069 0.91846 0.25193 0.0
C2164 C 0.21729 0.93856 0.2528 0.0
C2165 C 0.19202 0.93669 0.25236 0.0
C2166 C 0.22437 0.84854 0.23645 0.0
C2167 C 0.21966 0.89337 0.24836 0.0
C2168 C 0.23662 0.82576 0.23843 0.0
C2169 C 0.25785 0.82412 0.25219 0.0
C2170 C 0.23364 0.86987 0.24795 0.0
C2171 C 0.26705 0.84614 0.26267 0.0
C2172 C 0.23119 0.91688 0.25108 0.0
C2173 C 0.18119 0.91286 0.24946 0.0
N2174 N 0.25484 0.86819 0.26039 0.0
N2175 N 0.19509 0.89207 0.24748 0.0
H2176 H 0.49487 0.31667 0.45471 0.0
H2177 H 0.57343 0.44267 0.46999 0.0
H2178 H 0.5329 0.35291 0.40056 0.0
H2179 H 0.52066 0.41746 0.51745 0.0
H2180 H 0.56734 0.40336 0.4487 0.0
H2181 H 0.51182 0.34795 0.48151 0.0
C2182 C 0.50679 0.33122 0.44849 0.0
C2183 C 0.51223 0.33254 0.42538 0.0
C2184 C 0.55745 0.40628 0.46402 0.0
C2185 C 0.53187 0.36798 0.45587 0.0
C2186 C 0.56106 0.42858 0.47626 0.0
C2187 C 0.54713 0.43344 0.49517 0.0
C2188 C 0.53991 0.38888 0.47088 0.0
C2189 C 0.53141 0.41457 0.50267 0.0
C2190 C 0.51655 0.34894 0.46378 0.0
C2191 C 0.52798 0.35152 0.41821 0.0
N2192 N 0.52795 0.39322 0.49028 0.0
N2193 N 0.53719 0.36863 0.43342 0.0
H2194 H 0.48059 0.75329 0.21899 0.0
H2195 H 0.33551 0.74905 0.20505 0.0
H2196 H 0.44173 0.75619 0.15392 0.0
H2197 H 0.37334 0.76399 0.26934 0.0
H2198 H 0.37431 0.74809 0.18645 0.0
H2199 H 0.44184 0.75323 0.23807 0.0
C2200 C 0.46395 0.75367 0.20868 0.0
C2201 C 0.46457 0.75472 0.18474 0.0
C2202 C 0.37417 0.75164 0.20462 0.0
C2203 C 0.41994 0.75471 0.20657 0.0
C2204 C 0.35194 0.7522 0.2153 0.0
C2205 C 0.35096 0.75672 0.23887 0.0
C2206 C 0.39585 0.75531 0.21754 0.0
C2207 C 0.37305 0.76058 0.25113 0.0
C2208 C 0.4418 0.75379 0.21962 0.0
C2209 C 0.44229 0.75538 0.17238 0.0
N2210 N 0.39448 0.75968 0.24039 0.0
N2211 N 0.42103 0.75531 0.18337 0.0
H2212 H 0.97648 0.7464 0.92682 0.0
H2213 H 0.01902 0.66707 0.02987 0.0
H2214 H 1.00003 0.78405 0.98902 0.0
H2215 H 0.95703 0.64266 0.98826 0.0
H2216 H 0.0132 0.70978 0.01575 0.0
H2217 H 0.97035 0.70755 0.94845 0.0
C2218 C 0.98019 0.74644 0.9451 0.0
C2219 C 0.98901 0.76819 0.95623 0.0
C2220 C 1.00062 0.69511 0.0101 0.0
C2221 C 0.98232 0.72401 0.98089 0.0
C2222 C 0.0038 0.67063 0.01822 0.0
C2223 C 0.98869 0.6509 0.01004 0.0
C2224 C 0.98264 0.69983 0.99326 0.0
C2225 C 0.96964 0.65696 0.99453 0.0
C2226 C 0.97648 0.72442 0.95743 0.0
C2227 C 0.99328 0.76752 0.97992 0.0
N2228 N 0.96747 0.68081 0.98625 0.0
N2229 N 0.9904 0.74551 0.99149 0.0
H2230 H 0.08936 0.25365 0.70178 0.0
H2231 H 0.23204 0.28338 0.70224 0.0
H2232 H 0.12538 0.29325 0.64823 0.0
H2233 H 0.19782 0.24838 0.75923 0.0
H2234 H 0.19272 0.28608 0.68219 0.0
H2235 H 0.12827 0.25108 0.72338 0.0
C2236 C 0.1053 0.26195 0.69461 0.0
C2237 C 0.10391 0.2736 0.67302 0.0
C2238 C 0.19373 0.27776 0.69907 0.0
C2239 C 0.14859 0.27052 0.69759 0.0
C2240 C 0.21628 0.27613 0.71053 0.0
C2241 C 0.21838 0.2656 0.73249 0.0
C2242 C 0.1729 0.26877 0.70953 0.0
C2243 C 0.19715 0.25663 0.74232 0.0
C2244 C 0.12755 0.2604 0.70692 0.0
C2245 C 0.12534 0.28393 0.66467 0.0
N2246 N 0.17535 0.25841 0.7308 0.0
N2247 N 0.14661 0.28206 0.67685 0.0
H2248 H 0.51207 0.70745 0.08043 0.0
H2249 H 0.53758 0.55986 0.09052 0.0
H2250 H 0.53917 0.67573 0.14405 0.0
H2251 H 0.54065 0.60306 0.02822 0.0
H2252 H 0.53202 0.5993 0.11174 0.0
H2253 H 0.514 0.66607 0.06276 0.0
C2254 C 0.51796 0.69157 0.09084 0.0
C2255 C 0.52559 0.6951 0.11373 0.0
C2256 C 0.53405 0.60005 0.09346 0.0
C2257 C 0.52836 0.64746 0.09332 0.0
C2258 C 0.53728 0.57761 0.08132 0.0
C2259 C 0.53969 0.57812 0.0575 0.0
C2260 C 0.53269 0.62308 0.08162 0.0
C2261 C 0.53905 0.60166 0.04652 0.0
C2262 C 0.5193 0.66798 0.08065 0.0
C2263 C 0.53298 0.67379 0.1264 0.0
N2264 N 0.53541 0.62306 0.05861 0.0
N2265 N 0.53443 0.65081 0.11594 0.0
H2266 H 0.05217 0.76725 0.84897 0.0
H2267 H 0.19537 0.77848 0.85558 0.0
H2268 H 0.09192 0.7801 0.91272 0.0
H2269 H 0.14983 0.8052 0.79921 0.0
H2270 H 0.1592 0.76703 0.87594 0.0
H2271 H 0.09031 0.76557 0.82956 0.0
C2272 C 0.06893 0.76874 0.85903 0.0
C2273 C 0.06899 0.77444 0.88235 0.0
C2274 C 0.15729 0.77531 0.85907 0.0
C2275 C 0.11232 0.77289 0.8603 0.0
C2276 C 0.17785 0.78228 0.84756 0.0
C2277 C 0.17569 0.79299 0.82562 0.0
C2278 C 0.13452 0.77864 0.84838 0.0
C2279 C 0.15244 0.79672 0.81592 0.0
C2280 C 0.09062 0.76811 0.84789 0.0
C2281 C 0.0912 0.77614 0.89459 0.0
N2282 N 0.13276 0.78943 0.82732 0.0
N2283 N 0.1121 0.77584 0.88332 0.0
H2284 H 0.02606 0.35148 0.66264 0.0
H2285 H 0.04701 0.4648 0.60339 0.0
H2286 H 0.0317 0.317 0.59651 0.0
H2287 H 0.01948 0.42354 0.54443 0.0
H2288 H 0.04547 0.42597 0.62592 0.0
H2289 H 0.02752 0.39316 0.64446 0.0
C2290 C 0.02786 0.35269 0.64434 0.0
C2291 C 0.0289 0.33071 0.63111 0.0
C2292 C 0.03933 0.42545 0.60819 0.0
C2293 C 0.03076 0.37833 0.61013 0.0
C2294 C 0.04037 0.44764 0.59523 0.0
C2295 C 0.03326 0.44752 0.57196 0.0
C2296 C 0.03124 0.40287 0.59776 0.0
C2297 C 0.02501 0.42463 0.56231 0.0
C2298 C 0.02885 0.37652 0.63396 0.0
C2299 C 0.03098 0.3334 0.60743 0.0
N2300 N 0.02442 0.40327 0.57519 0.0
N2301 N 0.03168 0.3567 0.59774 0.0
H2302 H 0.39277 0.31815 0.39796 0.0
H2303 H 0.35416 0.25625 0.2811 0.0
H2304 H 0.43841 0.31702 0.33997 0.0
H2305 H 0.30026 0.28494 0.3253 0.0
H2306 H 0.38526 0.27766 0.30424 0.0
H2307 H 0.35792 0.30872 0.37251 0.0
C2308 C 0.39539 0.31688 0.37979 0.0
C2309 C 0.41868 0.31753 0.37115 0.0
C2310 C 0.36663 0.27934 0.3089 0.0
C2311 C 0.37911 0.30609 0.34226 0.0
C2312 C 0.34887 0.26674 0.29591 0.0
C2313 C 0.32456 0.26865 0.30137 0.0
C2314 C 0.36018 0.29371 0.32774 0.0
C2315 C 0.31882 0.28283 0.32061 0.0
C2316 C 0.37548 0.31122 0.36532 0.0
C2317 C 0.42088 0.31596 0.34746 0.0
N2318 N 0.33657 0.29475 0.33324 0.0
N2319 N 0.40144 0.30961 0.3339 0.0
H2320 H 0.39783 0.50097 0.37336 0.0
H2321 H 0.5304 0.51173 0.43231 0.0
H2322 H 0.46325 0.48563 0.3385 0.0
H2323 H 0.46479 0.5175 0.46918 0.0
H2324 H 0.50604 0.50499 0.39706 0.0
H2325 H 0.42201 0.50806 0.40863 0.0
C2326 C 0.41722 0.49871 0.37322 0.0
C2327 C 0.42856 0.4928 0.35299 0.0
C2328 C 0.497 0.50789 0.41287 0.0
C2329 C 0.45634 0.50139 0.39302 0.0
C2330 C 0.51091 0.512 0.43292 0.0
C2331 C 0.49961 0.51509 0.45367 0.0
C2332 C 0.47168 0.50697 0.41365 0.0
C2333 C 0.47426 0.51507 0.45355 0.0
C2334 C 0.43104 0.50296 0.39328 0.0
C2335 C 0.45377 0.49025 0.35371 0.0
N2336 N 0.46116 0.51094 0.43388 0.0
N2337 N 0.46683 0.49475 0.37335 0.0
H2338 H 0.28142 0.70331 0.0448 0.0
H2339 H 0.27161 0.66092 0.17298 0.0
H2340 H 0.28182 0.6237 0.06076 0.0
H2341 H 0.23526 0.72547 0.14324 0.0
H2342 H 0.28048 0.64638 0.1344 0.0
H2343 H 0.2728 0.71246 0.08418 0.0
C2344 C 0.28005 0.68773 0.05669 0.0
C2345 C 0.28193 0.66268 0.04941 0.0
C2346 C 0.27024 0.66348 0.13644 0.0
C2347 C 0.27174 0.6731 0.09451 0.0
C2348 C 0.26495 0.67165 0.15834 0.0
C2349 C 0.25298 0.69462 0.16122 0.0
C2350 C 0.26377 0.67866 0.11761 0.0
C2351 C 0.24494 0.70793 0.14176 0.0
C2352 C 0.2749 0.69298 0.07911 0.0
C2353 C 0.28041 0.64329 0.0657 0.0
N2354 N 0.25084 0.69998 0.1208 0.0
N2355 N 0.27516 0.64889 0.08762 0.0
H2356 H 0.15824 0.49669 0.89296 0.0
H2357 H 0.04241 0.55126 0.95185 0.0
H2358 H 0.10188 0.53534 0.85433 0.0
H2359 H 0.08179 0.48635 0.97725 0.0
H2360 H 0.06676 0.55087 0.91768 0.0
H2361 H 0.13369 0.49893 0.92681 0.0
C2362 C 0.14087 0.50589 0.89168 0.0
C2363 C 0.13201 0.51572 0.87085 0.0
C2364 C 0.06985 0.53667 0.93076 0.0
C2365 C 0.10399 0.51838 0.90926 0.0
C2366 C 0.05591 0.5368 0.95015 0.0
C2367 C 0.06002 0.51882 0.96742 0.0
C2368 C 0.08821 0.51874 0.92896 0.0
C2369 C 0.07791 0.5006 0.9644 0.0
C2370 C 0.12681 0.50701 0.9109 0.0
C2371 C 0.10932 0.52738 0.87005 0.0
N2372 N 0.09147 0.5012 0.94569 0.0
N2373 N 0.09608 0.52843 0.889 0.0
H2374 H 0.30366 0.28001 0.53884 0.0
H2375 H 0.33046 0.34562 0.65985 0.0
H2376 H 0.28927 0.35778 0.55503 0.0
H2377 H 0.32913 0.26486 0.65075 0.0
H2378 H 0.32625 0.35094 0.61853 0.0
H2379 H 0.32219 0.27466 0.57734 0.0
C2380 C 0.30446 0.29591 0.55042 0.0
C2381 C 0.29446 0.31921 0.54391 0.0
C2382 C 0.32729 0.33203 0.62552 0.0
C2383 C 0.31599 0.31342 0.58743 0.0
C2384 C 0.32982 0.32903 0.64906 0.0
C2385 C 0.32973 0.3048 0.65864 0.0
C2386 C 0.32436 0.31065 0.61152 0.0
C2387 C 0.32918 0.28388 0.64397 0.0
C2388 C 0.31509 0.29289 0.57228 0.0
C2389 C 0.29623 0.33931 0.55945 0.0
N2390 N 0.32602 0.28726 0.62108 0.0
N2391 N 0.30668 0.33591 0.58045 0.0
H2392 H 0.40238 0.48591 0.21931 0.0
H2393 H 0.50781 0.51804 0.13515 0.0
H2394 H 0.47125 0.51758 0.24144 0.0
H2395 H 0.4578 0.45606 0.12292 0.0
H2396 H 0.4884 0.52701 0.17064 0.0
H2397 H 0.41622 0.48477 0.17994 0.0
C2398 C 0.42009 0.49338 0.2157 0.0
C2399 C 0.4358 0.50187 0.23342 0.0
C2400 C 0.48168 0.51148 0.16015 0.0
C2401 C 0.45159 0.50047 0.18901 0.0
C2402 C 0.49293 0.50607 0.14001 0.0
C2403 C 0.4849 0.48573 0.12627 0.0
C2404 C 0.46199 0.49675 0.16655 0.0
C2405 C 0.46472 0.47178 0.13303 0.0
C2406 C 0.42803 0.49244 0.1934 0.0
C2407 C 0.4587 0.51091 0.22813 0.0
N2408 N 0.45399 0.47747 0.15282 0.0
N2409 N 0.46597 0.50989 0.20637 0.0
H2410 H 0.26326 0.68442 0.94198 0.0
H2411 H 0.32122 0.70328 0.82039 0.0
H2412 H 0.30436 0.62657 0.90995 0.0
H2413 H 0.27407 0.75685 0.85107 0.0
H2414 H 0.31746 0.67581 0.85369 0.0
H2415 H 0.26757 0.71115 0.90865 0.0
C2416 C 0.27293 0.6772 0.92773 0.0
C2417 C 0.2835 0.65328 0.9287 0.0
C2418 C 0.30813 0.69368 0.85319 0.0
C2419 C 0.28901 0.68409 0.89055 0.0
C2420 C 0.3105 0.70953 0.83433 0.0
C2421 C 0.29792 0.73243 0.83294 0.0
C2422 C 0.29316 0.70083 0.87077 0.0
C2423 C 0.28409 0.73939 0.85138 0.0
C2424 C 0.27552 0.69256 0.90872 0.0
C2425 C 0.2958 0.64486 0.90975 0.0
N2426 N 0.28198 0.7236 0.86944 0.0
N2427 N 0.29844 0.66039 0.89146 0.0
H2428 H 0.16391 0.50894 0.74122 0.0
H2429 H 0.09149 0.58659 0.64428 0.0
H2430 H 0.10115 0.55512 0.75057 0.0
H2431 H 0.13531 0.52278 0.62817 0.0
H2432 H 0.10531 0.58314 0.68418 0.0
H2433 H 0.16158 0.51956 0.70029 0.0
C2434 C 0.14963 0.52113 0.73473 0.0
C2435 C 0.1326 0.53095 0.74939 0.0
C2436 C 0.11232 0.57017 0.67187 0.0
C2437 C 0.13043 0.54373 0.70312 0.0
C2438 C 0.10464 0.57235 0.64914 0.0
C2439 C 0.11218 0.55482 0.6332 0.0
C2440 C 0.12727 0.55003 0.6787 0.0
C2441 C 0.12917 0.53662 0.64015 0.0
C2442 C 0.14846 0.52731 0.71149 0.0
C2443 C 0.11462 0.54685 0.74007 0.0
N2444 N 0.13583 0.53431 0.66262 0.0
N2445 N 0.1141 0.55276 0.71764 0.0
H2446 H 0.20471 0.37392 0.43225 0.0
H2447 H 0.18497 0.34192 0.32067 0.0
H2448 H 0.23906 0.30118 0.43634 0.0
H2449 H 0.19473 0.26459 0.34165 0.0
H2450 H 0.18483 0.35445 0.36039 0.0
H2451 H 0.1827 0.36063 0.39768 0.0
C2452 C 0.20785 0.3552 0.42568 0.0
C2453 C 0.22429 0.33884 0.43678 0.0
C2454 C 0.18587 0.33456 0.35657 0.0
C2455 C 0.19951 0.32369 0.39677 0.0
C2456 C 0.18583 0.32743 0.33374 0.0
C2457 C 0.19042 0.30234 0.328 0.0
C2458 C 0.19069 0.31636 0.37363 0.0
C2459 C 0.1914 0.28421 0.34544 0.0
C2460 C 0.19523 0.34762 0.40587 0.0
C2461 C 0.22695 0.31454 0.428 0.0
N2462 N 0.19239 0.29169 0.36756 0.0
N2463 N 0.2149 0.3078 0.4083 0.0
H2464 H 0.34953 0.35166 0.46317 0.0
H2465 H 0.39407 0.47761 0.52645 0.0
H2466 H 0.30303 0.41431 0.47695 0.0
H2467 H 0.44234 0.41899 0.50612 0.0
H2468 H 0.36077 0.45549 0.5064 0.0
H2469 H 0.38443 0.37762 0.47503 0.0
C2470 C 0.34669 0.37108 0.46805 0.0
C2471 C 0.32329 0.38067 0.4695 0.0
C2472 C 0.37866 0.44746 0.50633 0.0
C2473 C 0.36301 0.41018 0.48368 0.0
C2474 C 0.39764 0.46004 0.51787 0.0
C2475 C 0.42099 0.45004 0.5182 0.0
C2476 C 0.38301 0.42467 0.49505 0.0
C2477 C 0.42455 0.42713 0.50682 0.0
C2478 C 0.36661 0.38581 0.47509 0.0
C2479 C 0.32073 0.40598 0.47597 0.0
N2480 N 0.40576 0.41521 0.49575 0.0
N2481 N 0.3403 0.41971 0.48321 0.0
H2482 H 0.81943 0.0533 0.51362 0.0
H2483 H 0.95995 0.05872 0.48748 0.0
H2484 H 0.85596 0.11902 0.48776 0.0
H2485 H 0.93225 0.00613 0.53651 0.0
H2486 H 0.91986 0.07705 0.48273 0.0
H2487 H 0.85881 0.03216 0.51831 0.0
C2488 C 0.83566 0.06329 0.50902 0.0
C2489 C 0.83436 0.08801 0.50036 0.0
C2490 C 0.9225 0.06145 0.4945 0.0
C2491 C 0.87919 0.06387 0.50524 0.0
C2492 C 0.9454 0.05086 0.49714 0.0
C2493 C 0.94958 0.0309 0.51251 0.0
C2494 C 0.9034 0.05192 0.50711 0.0
C2495 C 0.9299 0.02158 0.52455 0.0
C2496 C 0.85808 0.05124 0.51169 0.0
C2497 C 0.85599 0.10003 0.4946 0.0
N2498 N 0.90764 0.03215 0.52159 0.0
N2499 N 0.87736 0.08782 0.49699 0.0
H2500 H 0.64935 0.11585 0.32658 0.0
H2501 H 0.76439 0.16686 0.26176 0.0
H2502 H 0.70654 0.06676 0.30648 0.0
H2503 H 0.69926 0.2094 0.27007 0.0
H2504 H 0.74494 0.1302 0.27912 0.0
H2505 H 0.67001 0.15126 0.30913 0.0
C2506 C 0.66646 0.11252 0.31886 0.0
C2507 C 0.67605 0.08811 0.3179 0.0
C2508 C 0.73486 0.1475 0.27687 0.0
C2509 C 0.69966 0.12876 0.29739 0.0
C2510 C 0.74585 0.16836 0.26672 0.0
C2511 C 0.73349 0.19132 0.26447 0.0
C2512 C 0.71145 0.14971 0.28497 0.0
C2513 C 0.70956 0.19216 0.27147 0.0
C2514 C 0.67814 0.13277 0.30865 0.0
C2515 C 0.69837 0.08517 0.30763 0.0
N2516 N 0.69947 0.1718 0.2816 0.0
N2517 N 0.70933 0.10521 0.29763 0.0
H2518 H 0.73837 0.94778 0.00049 0.0
H2519 H 0.62042 0.98651 0.9864 0.0
H2520 H 0.70899 0.91308 0.06013 0.0
H2521 H 0.62253 0.99672 0.05947 0.0
H2522 H 0.66201 0.9712 0.98925 0.0
H2523 H 0.70512 0.97793 -0.00052 0.0
C2524 C 0.72535 0.94698 0.01378 0.0
C2525 C 0.72608 0.92766 0.03019 0.0
C2526 C 0.65354 0.97744 0.00455 0.0
C2527 C 0.6882 0.96171 0.02892 0.0
C2528 C 0.62978 0.98588 0.00296 0.0
C2529 C 0.61808 0.99271 0.02273 0.0
C2530 C 0.66534 0.97536 0.02611 0.0
C2531 C 0.63096 0.99161 0.04381 0.0
C2532 C 0.7063 0.96398 0.013 0.0
C2533 C 0.70881 0.92749 0.047 0.0
N2534 N 0.65376 0.98248 0.04502 0.0
N2535 N 0.69035 0.94415 0.04582 0.0
H2536 H 0.34581 0.44227 0.28526 0.0
H2537 H 0.33744 0.30775 0.2238 0.0
H2538 H 0.40716 0.39456 0.27484 0.0
H2539 H 0.27538 0.34624 0.24863 0.0
H2540 H 0.36283 0.34346 0.23597 0.0
H2541 H 0.31951 0.41015 0.26733 0.0
C2542 C 0.35376 0.42497 0.2794 0.0
C2543 C 0.37878 0.42111 0.28169 0.0
C2544 C 0.34359 0.34425 0.23843 0.0
C2545 C 0.34877 0.38452 0.26067 0.0
C2546 C 0.32899 0.32401 0.23118 0.0
C2547 C 0.30423 0.32385 0.23541 0.0
C2548 C 0.33336 0.36454 0.24986 0.0
C2549 C 0.2944 0.34546 0.24516 0.0
C2550 C 0.33872 0.40672 0.26904 0.0
C2551 C 0.388 0.39833 0.27364 0.0
N2552 N 0.30904 0.36481 0.25232 0.0
N2553 N 0.37301 0.38097 0.26341 0.0
H2554 H 0.18564 0.63561 0.97283 0.0
H2555 H 0.12502 0.52695 0.0465 0.0
H2556 H 0.22795 0.57814 0.00754 0.0
H2557 H 0.08892 0.59511 0.02437 0.0
H2558 H 0.16263 0.54356 0.03148 0.0
H2559 H 0.1494 0.61787 0.9888 0.0
C2560 C 0.18733 0.61901 0.98357 0.0
C2561 C 0.21003 0.60851 0.98894 0.0
C2562 C 0.14652 0.55496 0.03018 0.0
C2563 C 0.1683 0.58823 0.0077 0.0
C2564 C 0.12507 0.54561 0.03894 0.0
C2565 C 0.10367 0.55962 0.03668 0.0
C2566 C 0.14652 0.57836 0.0189 0.0
C2567 C 0.10488 0.5836 0.02655 0.0
C2568 C 0.16656 0.60902 0.99288 0.0
C2569 C 0.21088 0.58687 0.00287 0.0
N2570 N 0.12582 0.59204 0.01783 0.0
N2571 N 0.19033 0.57753 0.0119 0.0
H2572 H 0.66413 0.92279 0.31893 0.0
H2573 H 0.78132 0.85736 0.27254 0.0
H2574 H 0.72448 0.96557 0.29444 0.0
H2575 H 0.73096 0.81896 0.31523 0.0
H2576 H 0.76023 0.89695 0.27878 0.0
H2577 H 0.68731 0.88412 0.31534 0.0
C2578 C 0.68222 0.92404 0.31266 0.0
C2579 C 0.69237 0.94744 0.3069 0.0
C2580 C 0.75395 0.87991 0.28696 0.0
C2581 C 0.71905 0.9032 0.30283 0.0
C2582 C 0.76599 0.8573 0.28344 0.0
C2583 C 0.75785 0.83479 0.29334 0.0
C2584 C 0.7334 0.87996 0.3002 0.0
C2585 C 0.73789 0.83585 0.3073 0.0
C2586 C 0.69551 0.90196 0.31078 0.0
C2587 C 0.71596 0.94792 0.29903 0.0
N2588 N 0.7262 0.858 0.31011 0.0
N2589 N 0.72848 0.9261 0.29713 0.0
H2590 H 0.84871 0.0491 0.77625 0.0
H2591 H 0.84124 0.19356 0.81353 0.0
H2592 H 0.9093 0.09096 0.8058 0.0
H2593 H 0.78914 0.15813 0.76693 0.0
H2594 H 0.86428 0.15435 0.81483 0.0
H2595 H 0.82511 0.08786 0.77506 0.0
C2596 C 0.85716 0.06653 0.78216 0.0
C2597 C 0.88099 0.06685 0.79112 0.0
C2598 C 0.84772 0.15515 0.80445 0.0
C2599 C 0.85394 0.11104 0.79037 0.0
C2600 C 0.83441 0.1774 0.80393 0.0
C2601 C 0.81329 0.17909 0.79007 0.0
C2602 C 0.83969 0.13446 0.79118 0.0
C2603 C 0.80539 0.15765 0.77779 0.0
C2604 C 0.84364 0.0886 0.78161 0.0
C2605 C 0.89102 0.08991 0.79865 0.0
N2606 N 0.81863 0.13624 0.77858 0.0
N2607 N 0.87735 0.11106 0.79832 0.0
loop_
_geom_bond_atom_site_label_1
_geom_bond_atom_site_label_2
_geom_bond_distance
_geom_bond_site_symmetry_2
_ccdc_geom_bond_type
Co0 O1 2.216 . S
Co0 O2 2.091 . S
Co0 O4 2.004 . S
Co0 O10 2.021 . S
Co0 O12 2.137 . S
Co0 O13 2.244 . S
O1 Co0 2.216 . S
O1 C8 1.247 . S
O2 Co0 2.091 . S
O2 C8 1.261 . S
C3 O12 1.247 . S
C3 O13 1.272 . S
O4 Co0 2.004 . S
O4 C9 1.259 . S
Co5 O6 2.061 . S
Co5 O11 2.052 . S
Co5 O13 2.135 . S
O6 Co5 2.061 . S
O6 C9 1.235 . S
C7 O10 1.238 . S
C7 O11 1.241 . S
C8 O1 1.247 . S
C8 O2 1.261 . S
C9 O4 1.259 . S
C9 O6 1.235 . S
O10 Co0 2.021 . S
O10 C7 1.238 . S
O11 Co5 2.052 . S
O11 C7 1.241 . S
O12 Co0 2.137 . S
O12 C3 1.247 . S
O13 Co0 2.244 . S
O13 C3 1.272 . S
O13 Co5 2.135 . S
Co14 O15 2.216 . S
Co14 O16 2.091 . S
Co14 O18 2.004 . S
Co14 O24 2.021 . S
Co14 O26 2.137 . S
Co14 O27 2.244 . S
O15 Co14 2.216 . S
O15 C22 1.247 . S
O16 Co14 2.091 . S
O16 C22 1.261 . S
C17 O26 1.247 . S
C17 O27 1.272 . S
O18 Co14 2.004 . S
O18 C23 1.259 1_455 S
Co19 O20 2.061 . S
Co19 O25 2.052 1_655 S
Co19 O27 2.135 1_655 S
O20 Co19 2.061 . S
O20 C23 1.235 . S
C21 O24 1.238 . S
C21 O25 1.241 . S
C22 O15 1.247 . S
C22 O16 1.261 . S
C23 O18 1.259 1_655 S
C23 O20 1.235 . S
O24 Co14 2.021 . S
O24 C21 1.238 . S
O25 Co19 2.052 1_455 S
O25 C21 1.241 . S
O26 Co14 2.137 . S
O26 C17 1.247 . S
O27 Co14 2.244 . S
O27 C17 1.272 . S
O27 Co19 2.135 1_455 S
Co28 O29 2.216 . S
Co28 O30 2.091 . S
Co28 O32 2.004 . S
Co28 O38 2.021 . S
Co28 O40 2.137 . S
Co28 O41 2.244 . S
O29 Co28 2.216 . S
O29 C36 1.247 . S
O30 Co28 2.091 . S
O30 C36 1.261 . S
C31 O40 1.247 . S
C31 O41 1.272 . S
O32 Co28 2.004 . S
O32 C37 1.259 . S
Co33 O34 2.061 . S
Co33 O39 2.052 . S
Co33 O41 2.135 . S
O34 Co33 2.061 . S
O34 C37 1.235 . S
C35 O38 1.238 . S
C35 O39 1.241 . S
C36 O29 1.247 . S
C36 O30 1.261 . S
C37 O32 1.259 . S
C37 O34 1.235 . S
O38 Co28 2.021 . S
O38 C35 1.238 . S
O39 Co33 2.052 . S
O39 C35 1.241 . S
O40 Co28 2.137 . S
O40 C31 1.247 . S
O41 Co28 2.244 . S
O41 C31 1.272 . S
O41 Co33 2.135 . S
Co42 O43 2.216 . S
Co42 O44 2.091 . S
Co42 O46 2.004 . S
Co42 O52 2.021 . S
Co42 O54 2.137 . S
Co42 O55 2.244 . S
O43 Co42 2.216 . S
O43 C50 1.247 . S
O44 Co42 2.091 . S
O44 C50 1.261 . S
C45 O54 1.247 . S
C45 O55 1.272 . S
O46 Co42 2.004 . S
O46 C51 1.259 . S
Co47 O48 2.061 . S
Co47 O53 2.052 . S
Co47 O55 2.135 . S
O48 Co47 2.061 . S
O48 C51 1.235 . S
C49 O52 1.238 . S
C49 O53 1.241 . S
C50 O43 1.247 . S
C50 O44 1.261 . S
C51 O46 1.259 . S
C51 O48 1.235 . S
O52 Co42 2.021 . S
O52 C49 1.238 . S
O53 Co47 2.052 . S
O53 C49 1.241 . S
O54 Co42 2.137 . S
O54 C45 1.247 . S
O55 Co42 2.244 . S
O55 C45 1.272 . S
O55 Co47 2.135 . S
Co56 O57 2.216 1_545 S
Co56 O58 2.091 1_545 S
Co56 O60 2.004 . S
Co56 O66 2.021 . S
Co56 O68 2.137 . S
Co56 O69 2.244 . S
O57 Co56 2.216 1_565 S
O57 C64 1.247 . S
O58 Co56 2.091 1_565 S
O58 C64 1.261 . S
C59 O68 1.247 . S
C59 O69 1.272 . S
O60 Co56 2.004 . S
O60 C65 1.259 . S
Co61 O62 2.061 . S
Co61 O67 2.052 . S
Co61 O69 2.135 . S
O62 Co61 2.061 . S
O62 C65 1.235 . S
C63 O66 1.238 . S
C63 O67 1.241 . S
C64 O57 1.247 . S
C64 O58 1.261 . S
C65 O60 1.259 . S
C65 O62 1.235 . S
O66 Co56 2.021 . S
O66 C63 1.238 . S
O67 Co61 2.052 . S
O67 C63 1.241 . S
O68 Co56 2.137 . S
O68 C59 1.247 . S
O69 Co56 2.244 . S
O69 C59 1.272 . S
O69 Co61 2.135 . S
Co70 O71 2.216 . S
Co70 O72 2.091 . S
Co70 O74 2.004 . S
Co70 O80 2.021 . S
Co70 O82 2.137 . S
Co70 O83 2.244 . S
O71 Co70 2.216 . S
O71 C78 1.247 . S
O72 Co70 2.091 . S
O72 C78 1.261 . S
C73 O82 1.247 . S
C73 O83 1.272 . S
O74 Co70 2.004 . S
O74 C79 1.259 . S
Co75 O76 2.061 . S
Co75 O81 2.052 . S
Co75 O83 2.135 . S
O76 Co75 2.061 . S
O76 C79 1.235 . S
C77 O80 1.238 . S
C77 O81 1.241 . S
C78 O71 1.247 . S
C78 O72 1.261 . S
C79 O74 1.259 . S
C79 O76 1.235 . S
O80 Co70 2.021 . S
O80 C77 1.238 . S
O81 Co75 2.052 . S
O81 C77 1.241 . S
O82 Co70 2.137 . S
O82 C73 1.247 . S
O83 Co70 2.244 . S
O83 C73 1.272 . S
O83 Co75 2.135 . S
Co84 O85 2.216 . S
Co84 O86 2.091 . S
Co84 O88 2.004 1_545 S
Co84 O94 2.021 . S
Co84 O96 2.137 . S
Co84 O97 2.244 . S
O85 Co84 2.216 . S
O85 C92 1.247 . S
O86 Co84 2.091 . S
O86 C92 1.261 . S
C87 O96 1.247 . S
C87 O97 1.272 . S
O88 Co84 2.004 1_565 S
O88 C93 1.259 . S
Co89 O90 2.061 . S
Co89 O95 2.052 . S
Co89 O97 2.135 1_565 S
O90 Co89 2.061 . S
O90 C93 1.235 . S
C91 O94 1.238 . S
C91 O95 1.241 1_545 S
C92 O85 1.247 . S
C92 O86 1.261 . S
C93 O88 1.259 . S
C93 O90 1.235 . S
O94 Co84 2.021 . S
O94 C91 1.238 . S
O95 Co89 2.052 . S
O95 C91 1.241 1_565 S
O96 Co84 2.137 . S
O96 C87 1.247 . S
O97 Co84 2.244 . S
O97 C87 1.272 . S
O97 Co89 2.135 1_545 S
Co98 O99 2.216 . S
Co98 O100 2.091 . S
Co98 O102 2.004 . S
Co98 O108 2.021 . S
Co98 O110 2.137 1_554 S
Co98 O111 2.244 . S
O99 Co98 2.216 . S
O99 C106 1.247 . S
O100 Co98 2.091 . S
O100 C106 1.261 . S
C101 O110 1.247 . S
C101 O111 1.272 1_556 S
O102 Co98 2.004 . S
O102 C107 1.259 . S
Co103 O104 2.061 . S
Co103 O109 2.052 . S
Co103 O111 2.135 . S
O104 Co103 2.061 . S
O104 C107 1.235 . S
C105 O108 1.238 . S
C105 O109 1.241 . S
C106 O99 1.247 . S
C106 O100 1.261 . S
C107 O102 1.259 . S
C107 O104 1.235 . S
O108 Co98 2.021 . S
O108 C105 1.238 . S
O109 Co103 2.052 . S
O109 C105 1.241 . S
O110 Co98 2.137 1_556 S
O110 C101 1.247 . S
O111 Co98 2.244 . S
O111 C101 1.272 1_554 S
O111 Co103 2.135 . S
Co112 O113 2.216 . S
Co112 O114 2.091 . S
Co112 O116 2.004 . S
Co112 O122 2.021 . S
Co112 O124 2.137 . S
Co112 O125 2.244 . S
O113 Co112 2.216 . S
O113 C120 1.247 . S
O114 Co112 2.091 . S
O114 C120 1.261 . S
C115 O124 1.247 . S
C115 O125 1.272 . S
O116 Co112 2.004 . S
O116 C121 1.259 . S
Co117 O118 2.061 . S
Co117 O123 2.052 . S
Co117 O125 2.135 . S
O118 Co117 2.061 . S
O118 C121 1.235 . S
C119 O122 1.238 . S
C119 O123 1.241 . S
C120 O113 1.247 . S
C120 O114 1.261 . S
C121 O116 1.259 . S
C121 O118 1.235 . S
O122 Co112 2.021 . S
O122 C119 1.238 . S
O123 Co117 2.052 . S
O123 C119 1.241 . S
O124 Co112 2.137 . S
O124 C115 1.247 . S
O125 Co112 2.244 . S
O125 C115 1.272 . S
O125 Co117 2.135 . S
Co126 O127 2.216 . S
Co126 O128 2.091 . S
Co126 O130 2.004 . S
Co126 O136 2.021 . S
Co126 O138 2.137 . S
Co126 O139 2.244 . S
O127 Co126 2.216 . S
O127 C134 1.247 . S
O128 Co126 2.091 . S
O128 C134 1.261 . S
C129 O138 1.247 . S
C129 O139 1.272 . S
O130 Co126 2.004 . S
O130 C135 1.259 . S
Co131 O132 2.061 . S
Co131 O137 2.052 . S
Co131 O139 2.135 . S
O132 Co131 2.061 . S
O132 C135 1.235 . S
C133 O136 1.238 . S
C133 O137 1.241 . S
C134 O127 1.247 . S
C134 O128 1.261 . S
C135 O130 1.259 . S
C135 O132 1.235 . S
O136 Co126 2.021 . S
O136 C133 1.238 . S
O137 Co131 2.052 . S
O137 C133 1.241 . S
O138 Co126 2.137 . S
O138 C129 1.247 . S
O139 Co126 2.244 . S
O139 C129 1.272 . S
O139 Co131 2.135 . S
Co140 O141 2.216 . S
Co140 O142 2.091 . S
Co140 O144 2.004 . S
Co140 O150 2.021 . S
Co140 O152 2.137 . S
Co140 O153 2.244 . S
O141 Co140 2.216 . S
O141 C148 1.247 . S
O142 Co140 2.091 . S
O142 C148 1.261 . S
C143 O152 1.247 . S
C143 O153 1.272 . S
O144 Co140 2.004 . S
O144 C149 1.259 . S
Co145 O146 2.061 . S
Co145 O151 2.052 . S
Co145 O153 2.135 . S
O146 Co145 2.061 . S
O146 C149 1.235 . S
C147 O150 1.238 . S
C147 O151 1.241 . S
C148 O141 1.247 . S
C148 O142 1.261 . S
C149 O144 1.259 . S
C149 O146 1.235 . S
O150 Co140 2.021 . S
O150 C147 1.238 . S
O151 Co145 2.052 . S
O151 C147 1.241 . S
O152 Co140 2.137 . S
O152 C143 1.247 . S
O153 Co140 2.244 . S
O153 C143 1.272 . S
O153 Co145 2.135 . S
Co154 O155 2.216 . S
Co154 O156 2.091 . S
Co154 O158 2.004 . S
Co154 O164 2.021 . S
Co154 O166 2.137 . S
Co154 O167 2.244 . S
O155 Co154 2.216 . S
O155 C162 1.247 . S
O156 Co154 2.091 . S
O156 C162 1.261 . S
C157 O166 1.247 . S
C157 O167 1.272 . S
O158 Co154 2.004 . S
O158 C163 1.259 . S
Co159 O160 2.061 . S
Co159 O165 2.052 . S
Co159 O167 2.135 . S
O160 Co159 2.061 . S
O160 C163 1.235 . S
C161 O164 1.238 . S
C161 O165 1.241 . S
C162 O155 1.247 . S
C162 O156 1.261 . S
C163 O158 1.259 . S
C163 O160 1.235 . S
O164 Co154 2.021 . S
O164 C161 1.238 . S
O165 Co159 2.052 . S
O165 C161 1.241 . S
O166 Co154 2.137 . S
O166 C157 1.247 . S
O167 Co154 2.244 . S
O167 C157 1.272 . S
O167 Co159 2.135 . S
Co168 O169 2.216 . S
Co168 O170 2.091 . S
Co168 O172 2.004 1_455 S
Co168 O178 2.021 . S
Co168 O180 2.137 . S
Co168 O181 2.244 1_455 S
O169 Co168 2.216 . S
O169 C176 1.247 . S
O170 Co168 2.091 . S
O170 C176 1.261 . S
C171 O180 1.247 . S
C171 O181 1.272 1_455 S
O172 Co168 2.004 1_655 S
O172 C177 1.259 . S
Co173 O174 2.061 . S
Co173 O179 2.052 . S
Co173 O181 2.135 . S
O174 Co173 2.061 . S
O174 C177 1.235 . S
C175 O178 1.238 1_655 S
C175 O179 1.241 . S
C176 O169 1.247 . S
C176 O170 1.261 . S
C177 O172 1.259 . S
C177 O174 1.235 . S
O178 Co168 2.021 . S
O178 C175 1.238 1_455 S
O179 Co173 2.052 . S
O179 C175 1.241 . S
O180 Co168 2.137 . S
O180 C171 1.247 . S
O181 Co168 2.244 1_655 S
O181 C171 1.272 1_655 S
O181 Co173 2.135 . S
Co182 O183 2.216 1_455 S
Co182 O184 2.091 . S
Co182 O186 2.004 . S
Co182 O192 2.021 . S
Co182 O194 2.137 . S
Co182 O195 2.244 . S
O183 Co182 2.216 1_655 S
O183 C190 1.247 . S
O184 Co182 2.091 . S
O184 C190 1.261 1_455 S
C185 O194 1.247 . S
C185 O195 1.272 . S
O186 Co182 2.004 . S
O186 C191 1.259 . S
Co187 O188 2.061 . S
Co187 O193 2.052 . S
Co187 O195 2.135 . S
O188 Co187 2.061 . S
O188 C191 1.235 . S
C189 O192 1.238 . S
C189 O193 1.241 . S
C190 O183 1.247 . S
C190 O184 1.261 1_655 S
C191 O186 1.259 . S
C191 O188 1.235 . S
O192 Co182 2.021 . S
O192 C189 1.238 . S
O193 Co187 2.052 . S
O193 C189 1.241 . S
O194 Co182 2.137 . S
O194 C185 1.247 . S
O195 Co182 2.244 . S
O195 C185 1.272 . S
O195 Co187 2.135 . S
Co196 O197 2.216 . S
Co196 O198 2.091 . S
Co196 O200 2.004 . S
Co196 O206 2.021 . S
Co196 O208 2.137 . S
Co196 O209 2.244 . S
O197 Co196 2.216 . S
O197 C204 1.247 . S
O198 Co196 2.091 . S
O198 C204 1.261 . S
C199 O208 1.247 . S
C199 O209 1.272 . S
O200 Co196 2.004 . S
O200 C205 1.259 . S
Co201 O202 2.061 . S
Co201 O207 2.052 . S
Co201 O209 2.135 . S
O202 Co201 2.061 . S
O202 C205 1.235 . S
C203 O206 1.238 . S
C203 O207 1.241 . S
C204 O197 1.247 . S
C204 O198 1.261 . S
C205 O200 1.259 . S
C205 O202 1.235 . S
O206 Co196 2.021 . S
O206 C203 1.238 . S
O207 Co201 2.052 . S
O207 C203 1.241 . S
O208 Co196 2.137 . S
O208 C199 1.247 . S
O209 Co196 2.244 . S
O209 C199 1.272 . S
O209 Co201 2.135 . S
Co210 O211 2.216 . S
Co210 O212 2.091 . S
Co210 O214 2.004 . S
Co210 O220 2.021 . S
Co210 O222 2.137 . S
Co210 O223 2.244 . S
O211 Co210 2.216 . S
O211 C218 1.247 . S
O212 Co210 2.091 . S
O212 C218 1.261 . S
C213 O222 1.247 . S
C213 O223 1.272 . S
O214 Co210 2.004 . S
O214 C219 1.259 . S
Co215 O216 2.061 . S
Co215 O221 2.052 . S
Co215 O223 2.135 . S
O216 Co215 2.061 . S
O216 C219 1.235 . S
C217 O220 1.238 . S
C217 O221 1.241 . S
C218 O211 1.247 . S
C218 O212 1.261 . S
C219 O214 1.259 . S
C219 O216 1.235 . S
O220 Co210 2.021 . S
O220 C217 1.238 . S
O221 Co215 2.052 . S
O221 C217 1.241 . S
O222 Co210 2.137 . S
O222 C213 1.247 . S
O223 Co210 2.244 . S
O223 C213 1.272 . S
O223 Co215 2.135 . S
Co224 O225 2.216 . S
Co224 O226 2.091 . S
Co224 O228 2.004 1_545 S
Co224 O234 2.021 . S
Co224 O236 2.137 . S
Co224 O237 2.244 1_545 S
O225 Co224 2.216 . S
O225 C232 1.247 . S
O226 Co224 2.091 . S
O226 C232 1.261 . S
C227 O236 1.247 . S
C227 O237 1.272 1_545 S
O228 Co224 2.004 1_565 S
O228 C233 1.259 . S
Co229 O230 2.061 . S
Co229 O235 2.052 . S
Co229 O237 2.135 . S
O230 Co229 2.061 . S
O230 C233 1.235 . S
C231 O234 1.238 . S
C231 O235 1.241 1_545 S
C232 O225 1.247 . S
C232 O226 1.261 . S
C233 O228 1.259 . S
C233 O230 1.235 . S
O234 Co224 2.021 . S
O234 C231 1.238 . S
O235 Co229 2.052 . S
O235 C231 1.241 1_565 S
O236 Co224 2.137 . S
O236 C227 1.247 . S
O237 Co224 2.244 1_565 S
O237 C227 1.272 1_565 S
O237 Co229 2.135 . S
Co238 O239 2.216 . S
Co238 O240 2.091 . S
Co238 O242 2.004 . S
Co238 O248 2.021 . S
Co238 O250 2.137 . S
Co238 O251 2.244 . S
O239 Co238 2.216 . S
O239 C246 1.247 . S
O240 Co238 2.091 . S
O240 C246 1.261 . S
C241 O250 1.247 . S
C241 O251 1.272 . S
O242 Co238 2.004 . S
O242 C247 1.259 . S
Co243 O244 2.061 . S
Co243 O249 2.052 . S
Co243 O251 2.135 . S
O244 Co243 2.061 . S
O244 C247 1.235 . S
C245 O248 1.238 . S
C245 O249 1.241 . S
C246 O239 1.247 . S
C246 O240 1.261 . S
C247 O242 1.259 . S
C247 O244 1.235 . S
O248 Co238 2.021 . S
O248 C245 1.238 . S
O249 Co243 2.052 . S
O249 C245 1.241 . S
O250 Co238 2.137 . S
O250 C241 1.247 . S
O251 Co238 2.244 . S
O251 C241 1.272 . S
O251 Co243 2.135 . S
Co252 O253 2.216 1_545 S
Co252 O254 2.091 1_545 S
Co252 O256 2.004 . S
Co252 O262 2.021 . S
Co252 O264 2.137 . S
Co252 O265 2.244 . S
O253 Co252 2.216 1_565 S
O253 C260 1.247 . S
O254 Co252 2.091 1_565 S
O254 C260 1.261 . S
C255 O264 1.247 . S
C255 O265 1.272 . S
O256 Co252 2.004 . S
O256 C261 1.259 . S
Co257 O258 2.061 . S
Co257 O263 2.052 . S
Co257 O265 2.135 . S
O258 Co257 2.061 . S
O258 C261 1.235 . S
C259 O262 1.238 . S
C259 O263 1.241 . S
C260 O253 1.247 . S
C260 O254 1.261 . S
C261 O256 1.259 . S
C261 O258 1.235 . S
O262 Co252 2.021 . S
O262 C259 1.238 . S
O263 Co257 2.052 . S
O263 C259 1.241 . S
O264 Co252 2.137 . S
O264 C255 1.247 . S
O265 Co252 2.244 . S
O265 C255 1.272 . S
O265 Co257 2.135 . S
Co266 O267 2.216 . S
Co266 O268 2.091 . S
Co266 O270 2.004 . S
Co266 O276 2.021 . S
Co266 O278 2.137 1_554 S
Co266 O279 2.244 . S
O267 Co266 2.216 . S
O267 C274 1.247 . S
O268 Co266 2.091 . S
O268 C274 1.261 . S
C269 O278 1.247 . S
C269 O279 1.272 1_556 S
O270 Co266 2.004 . S
O270 C275 1.259 . S
Co271 O272 2.061 . S
Co271 O277 2.052 . S
Co271 O279 2.135 . S
O272 Co271 2.061 . S
O272 C275 1.235 . S
C273 O276 1.238 . S
C273 O277 1.241 . S
C274 O267 1.247 . S
C274 O268 1.261 . S
C275 O270 1.259 . S
C275 O272 1.235 . S
O276 Co266 2.021 . S
O276 C273 1.238 . S
O277 Co271 2.052 . S
O277 C273 1.241 . S
O278 Co266 2.137 1_556 S
O278 C269 1.247 . S
O279 Co266 2.244 . S
O279 C269 1.272 1_554 S
O279 Co271 2.135 . S
Co280 O281 2.216 . S
Co280 O282 2.087 1_556 S
Co280 O284 2.004 . S
Co280 O290 2.021 1_556 S
Co280 O292 2.137 . S
Co280 O293 2.244 . S
O281 Co280 2.216 . S
O281 C288 1.243 1_556 S
O282 Co280 2.087 1_554 S
O282 C288 1.261 . S
C283 O292 1.247 . S
C283 O293 1.272 . S
O284 Co280 2.004 . S
O284 C289 1.259 . S
Co285 O286 2.061 1_556 S
Co285 O291 2.052 1_556 S
Co285 O293 2.135 . S
O286 Co285 2.061 1_554 S
O286 C289 1.234 1_554 S
C287 O290 1.238 . S
C287 O291 1.241 . S
C288 O281 1.243 1_554 S
C288 O282 1.261 . S
C289 O284 1.259 . S
C289 O286 1.234 1_556 S
O290 Co280 2.021 1_554 S
O290 C287 1.238 . S
O291 Co285 2.052 1_554 S
O291 C287 1.241 . S
O292 Co280 2.137 . S
O292 C283 1.247 . S
O293 Co280 2.244 . S
O293 C283 1.272 . S
O293 Co285 2.135 . S
Co294 O295 2.216 . S
Co294 O296 2.091 . S
Co294 O298 2.004 . S
Co294 O304 2.021 . S
Co294 O306 2.137 . S
Co294 O307 2.244 . S
O295 Co294 2.216 . S
O295 C302 1.247 . S
O296 Co294 2.091 . S
O296 C302 1.261 . S
C297 O306 1.247 . S
C297 O307 1.272 . S
O298 Co294 2.004 . S
O298 C303 1.259 . S
Co299 O300 2.061 . S
Co299 O305 2.052 . S
Co299 O307 2.135 . S
O300 Co299 2.061 . S
O300 C303 1.235 . S
C301 O304 1.238 . S
C301 O305 1.241 . S
C302 O295 1.247 . S
C302 O296 1.261 . S
C303 O298 1.259 . S
C303 O300 1.235 . S
O304 Co294 2.021 . S
O304 C301 1.238 . S
O305 Co299 2.052 . S
O305 C301 1.241 . S
O306 Co294 2.137 . S
O306 C297 1.247 . S
O307 Co294 2.244 . S
O307 C297 1.272 . S
O307 Co299 2.135 . S
Co308 O309 2.216 . S
Co308 O310 2.091 . S
Co308 O312 2.004 . S
Co308 O318 2.021 . S
Co308 O320 2.137 . S
Co308 O321 2.244 . S
O309 Co308 2.216 . S
O309 C316 1.247 . S
O310 Co308 2.091 . S
O310 C316 1.261 . S
C311 O320 1.247 . S
C311 O321 1.272 . S
O312 Co308 2.004 . S
O312 C317 1.259 . S
Co313 O314 2.061 . S
Co313 O319 2.052 . S
Co313 O321 2.135 . S
O314 Co313 2.061 . S
O314 C317 1.235 . S
C315 O318 1.238 . S
C315 O319 1.241 . S
C316 O309 1.247 . S
C316 O310 1.261 . S
C317 O312 1.259 . S
C317 O314 1.235 . S
O318 Co308 2.021 . S
O318 C315 1.238 . S
O319 Co313 2.052 . S
O319 C315 1.241 . S
O320 Co308 2.137 . S
O320 C311 1.247 . S
O321 Co308 2.244 . S
O321 C311 1.272 . S
O321 Co313 2.135 . S
Co322 O323 2.216 . S
Co322 O324 2.091 . S
Co322 O326 2.004 . S
Co322 O332 2.021 . S
Co322 O334 2.137 . S
Co322 O335 2.244 . S
O323 Co322 2.216 . S
O323 C330 1.247 . S
O324 Co322 2.091 . S
O324 C330 1.261 . S
C325 O334 1.247 . S
C325 O335 1.272 . S
O326 Co322 2.004 . S
O326 C331 1.259 . S
Co327 O328 2.061 . S
Co327 O333 2.052 . S
Co327 O335 2.135 . S
O328 Co327 2.061 . S
O328 C331 1.235 . S
C329 O332 1.238 . S
C329 O333 1.241 . S
C330 O323 1.247 . S
C330 O324 1.261 . S
C331 O326 1.259 . S
C331 O328 1.235 . S
O332 Co322 2.021 . S
O332 C329 1.238 . S
O333 Co327 2.052 . S
O333 C329 1.241 . S
O334 Co322 2.137 . S
O334 C325 1.247 . S
O335 Co322 2.244 . S
O335 C325 1.272 . S
O335 Co327 2.135 . S
C336 O352 1.254 1_455 S
C336 O354 1.254 . S
N337 C338 1.333 1_565 S
N337 C342 1.307 . S
N337 Zn343 2.020 1_665 S
C338 N337 1.333 1_545 S
C338 C339 1.381 . S
C338 H356 0.952 . S
C339 C338 1.381 . S
C339 C340 1.386 1_545 S
C339 H366 0.952 . S
C340 C339 1.386 1_565 S
C340 C341 1.357 . S
C341 C340 1.357 . S
C341 C342 1.370 . S
C341 H367 0.950 . S
C342 N337 1.307 . S
C342 C341 1.370 . S
C342 H360 0.948 . S
Zn343 N337 2.020 1_445 S
Zn343 O352 2.035 1_454 S
Zn343 O358 2.034 . S
Zn343 O362 2.025 1_545 S
Zn343 O364 2.024 1_545 S
C344 O363 1.246 . S
C344 O364 1.249 . S
N345 C346 1.307 1_554 S
N345 C347 1.333 . S
N345 Zn351 2.020 . S
C346 N345 1.307 1_556 S
C346 C350 1.370 . S
C346 H357 0.948 . S
C347 N345 1.333 . S
C347 C348 1.379 . S
C347 H355 0.952 . S
C348 C347 1.379 . S
C348 C349 1.394 . S
C348 H368 0.949 . S
C349 C348 1.394 . S
C349 C350 1.355 1_554 S
C350 C346 1.370 . S
C350 C349 1.355 1_556 S
C350 H369 0.950 . S
Zn351 N345 2.020 . S
Zn351 O354 2.025 1_554 S
Zn351 O359 2.024 . S
Zn351 O361 2.039 . S
Zn351 O363 2.034 1_545 S
O352 C336 1.254 1_655 S
O352 Zn343 2.035 1_656 S
C353 O358 1.246 . S
C353 O359 1.249 . S
O354 C336 1.254 . S
O354 Zn351 2.025 1_556 S
H355 C347 0.952 . S
H356 C338 0.952 . S
H357 C346 0.948 . S
O358 Zn343 2.034 . S
O358 C353 1.246 . S
O359 Zn351 2.024 . S
O359 C353 1.249 . S
H360 C342 0.948 . S
O361 Zn351 2.039 . S
O361 C365 1.251 1_545 S
O362 Zn343 2.025 1_565 S
O362 C365 1.254 . S
O363 C344 1.246 . S
O363 Zn351 2.034 1_565 S
O364 Zn343 2.024 1_565 S
O364 C344 1.249 . S
C365 O361 1.251 1_565 S
C365 O362 1.254 . S
H366 C339 0.952 . S
H367 C341 0.950 . S
H368 C348 0.949 . S
H369 C350 0.950 . S
C370 O386 1.251 . S
C370 O388 1.254 . S
N371 C372 1.333 . S
N371 C376 1.307 . S
N371 Zn377 2.020 . S
C372 N371 1.333 . S
C372 C373 1.379 . S
C372 H390 0.952 . S
C373 C372 1.379 . S
C373 C374 1.390 . S
C373 H400 0.949 . S
C374 C373 1.390 . S
C374 C375 1.357 . S
C375 C374 1.357 . S
C375 C376 1.370 . S
C375 H401 0.950 . S
C376 N371 1.307 . S
C376 C375 1.370 . S
C376 H394 0.948 . S
Zn377 N371 2.020 . S
Zn377 O386 2.039 . S
Zn377 O392 2.034 . S
Zn377 O396 2.025 . S
Zn377 O398 2.024 . S
C378 O397 1.246 . S
C378 O398 1.249 . S
N379 C380 1.307 . S
N379 C381 1.333 . S
N379 Zn385 2.020 . S
C380 N379 1.307 . S
C380 C384 1.370 . S
C380 H391 0.948 . S
C381 N379 1.333 . S
C381 C382 1.379 . S
C381 H389 0.952 . S
C382 C381 1.379 . S
C382 C383 1.390 . S
C382 H402 0.949 . S
C383 C382 1.390 . S
C383 C384 1.357 . S
C384 C380 1.370 . S
C384 C383 1.357 . S
C384 H403 0.950 . S
Zn385 N379 2.020 . S
Zn385 O388 2.025 . S
Zn385 O393 2.024 . S
Zn385 O395 2.039 . S
Zn385 O397 2.034 . S
O386 C370 1.251 . S
O386 Zn377 2.039 . S
C387 O392 1.246 . S
C387 O393 1.249 . S
O388 C370 1.254 . S
O388 Zn385 2.025 . S
H389 C381 0.952 . S
H390 C372 0.952 . S
H391 C380 0.948 . S
O392 Zn377 2.034 . S
O392 C387 1.246 . S
O393 Zn385 2.024 . S
O393 C387 1.249 . S
H394 C376 0.948 . S
O395 Zn385 2.039 . S
O395 C399 1.251 . S
O396 Zn377 2.025 . S
O396 C399 1.254 . S
O397 C378 1.246 . S
O397 Zn385 2.034 . S
O398 Zn377 2.024 . S
O398 C378 1.249 . S
C399 O395 1.251 . S
C399 O396 1.254 . S
H400 C373 0.949 . S
H401 C375 0.950 . S
H402 C382 0.949 . S
H403 C384 0.950 . S
C404 O420 1.288 . S
C404 O422 1.254 . S
N405 C406 1.333 . S
N405 C410 1.307 . S
N405 Zn411 2.020 . S
C406 N405 1.333 . S
C406 C407 1.379 . S
C406 H424 0.952 . S
C407 C406 1.379 . S
C407 C408 1.390 . S
C407 H434 0.949 . S
C408 C407 1.390 . S
C408 C409 1.357 . S
C409 C408 1.357 . S
C409 C410 1.370 . S
C409 H435 0.950 . S
C410 N405 1.307 . S
C410 C409 1.370 . S
C410 H428 0.948 . S
Zn411 N405 2.020 . S
Zn411 O420 2.024 1_565 S
Zn411 O426 2.034 1_565 S
Zn411 O430 2.025 . S
Zn411 O432 2.024 . S
C412 O431 1.246 1_565 S
C412 O432 1.249 . S
N413 C414 1.307 . S
N413 C415 1.333 . S
N413 Zn419 2.020 . S
C414 N413 1.307 . S
C414 C418 1.370 . S
C414 H425 0.948 . S
C415 N413 1.333 . S
C415 C416 1.379 . S
C415 H423 0.952 . S
C416 C415 1.379 . S
C416 C417 1.390 . S
C416 H436 0.949 . S
C417 C416 1.390 . S
C417 C418 1.357 . S
C418 C414 1.370 . S
C418 C417 1.357 . S
C418 H437 0.950 . S
Zn419 N413 2.020 . S
Zn419 O422 2.025 . S
Zn419 O427 2.024 . S
Zn419 O429 2.039 . S
Zn419 O431 2.034 . S
O420 C404 1.288 . S
O420 Zn411 2.024 1_545 S
C421 O426 1.246 . S
C421 O427 1.249 . S
O422 C404 1.254 . S
O422 Zn419 2.025 . S
H423 C415 0.952 . S
H424 C406 0.952 . S
H425 C414 0.948 . S
O426 Zn411 2.034 1_545 S
O426 C421 1.246 . S
O427 Zn419 2.024 . S
O427 C421 1.249 . S
H428 C410 0.948 . S
O429 Zn419 2.039 . S
O429 C433 1.251 . S
O430 Zn411 2.025 . S
O430 C433 1.254 1_565 S
O431 C412 1.246 1_545 S
O431 Zn419 2.034 . S
O432 Zn411 2.024 . S
O432 C412 1.249 . S
C433 O429 1.251 . S
C433 O430 1.254 1_545 S
H434 C407 0.949 . S
H435 C409 0.950 . S
H436 C416 0.949 . S
H437 C418 0.950 . S
C438 O454 1.251 . S
C438 O456 1.254 . S
N439 C440 1.333 . S
N439 C444 1.307 . S
N439 Zn445 2.020 . S
C440 N439 1.333 . S
C440 C441 1.379 . S
C440 H458 0.952 . S
C441 C440 1.379 . S
C441 C442 1.390 . S
C441 H468 0.949 . S
C442 C441 1.390 . S
C442 C443 1.357 . S
C443 C442 1.357 . S
C443 C444 1.370 . S
C443 H469 0.950 . S
C444 N439 1.307 . S
C444 C443 1.370 . S
C444 H462 0.948 . S
Zn445 N439 2.020 . S
Zn445 O454 2.039 . S
Zn445 O460 2.034 . S
Zn445 O464 2.025 . S
Zn445 O466 2.024 . S
C446 O465 1.246 . S
C446 O466 1.249 . S
N447 C448 1.307 . S
N447 C449 1.333 . S
N447 Zn453 2.020 . S
C448 N447 1.307 . S
C448 C452 1.370 . S
C448 H459 0.948 . S
C449 N447 1.333 . S
C449 C450 1.379 . S
C449 H457 0.952 . S
C450 C449 1.379 . S
C450 C451 1.390 . S
C450 H470 0.949 . S
C451 C450 1.390 . S
C451 C452 1.357 . S
C452 C448 1.370 . S
C452 C451 1.357 . S
C452 H471 0.950 . S
Zn453 N447 2.020 . S
Zn453 O456 2.025 . S
Zn453 O461 2.024 . S
Zn453 O463 2.039 . S
Zn453 O465 2.034 . S
O454 C438 1.251 . S
O454 Zn445 2.039 . S
C455 O460 1.246 . S
C455 O461 1.249 . S
O456 C438 1.254 . S
O456 Zn453 2.025 . S
H457 C449 0.952 . S
H458 C440 0.952 . S
H459 C448 0.948 . S
O460 Zn445 2.034 . S
O460 C455 1.246 . S
O461 Zn453 2.024 . S
O461 C455 1.249 . S
H462 C444 0.948 . S
O463 Zn453 2.039 . S
O463 C467 1.251 . S
O464 Zn445 2.025 . S
O464 C467 1.254 . S
O465 C446 1.246 . S
O465 Zn453 2.034 . S
O466 Zn445 2.024 . S
O466 C446 1.249 . S
C467 O463 1.251 . S
C467 O464 1.254 . S
H468 C441 0.949 . S
H469 C443 0.950 . S
H470 C450 0.949 . S
H471 C452 0.950 . S
C472 O488 1.251 1_565 S
C472 O490 1.254 . S
N473 C474 1.333 . S
N473 C478 1.307 . S
N473 Zn479 2.020 . S
C474 N473 1.333 . S
C474 C475 1.379 . S
C474 H492 0.952 . S
C475 C474 1.379 . S
C475 C476 1.390 . S
C475 H502 0.949 . S
C476 C475 1.390 . S
C476 C477 1.357 . S
C477 C476 1.357 . S
C477 C478 1.370 . S
C477 H503 0.950 . S
C478 N473 1.307 . S
C478 C477 1.370 . S
C478 H496 0.948 . S
Zn479 N473 2.020 . S
Zn479 O488 2.039 . S
Zn479 O494 2.034 . S
Zn479 O498 2.025 . S
Zn479 O500 2.024 1_545 S
C480 O499 1.246 . S
C480 O500 1.249 . S
N481 C482 1.307 . S
N481 C483 1.333 1_455 S
N481 Zn487 2.020 1_565 S
C482 N481 1.307 . S
C482 C486 1.370 . S
C482 H493 0.950 . S
C483 N481 1.333 1_655 S
C483 C484 1.379 . S
C483 H491 0.952 . S
C484 C483 1.379 . S
C484 C485 1.390 . S
C484 H504 0.949 . S
C485 C484 1.390 . S
C485 C486 1.357 1_655 S
C486 C482 1.370 . S
C486 C485 1.357 1_455 S
C486 H505 0.950 . S
Zn487 N481 2.020 1_545 S
Zn487 O490 2.025 1_545 S
Zn487 O495 2.024 . S
Zn487 O497 2.039 1_455 S
Zn487 O499 2.034 1_545 S
O488 C472 1.251 1_545 S
O488 Zn479 2.039 . S
C489 O494 1.246 . S
C489 O495 1.249 . S
O490 C472 1.254 . S
O490 Zn487 2.025 1_565 S
H491 C483 0.952 . S
H492 C474 0.952 . S
H493 C482 0.950 . S
O494 Zn479 2.034 . S
O494 C489 1.246 . S
O495 Zn487 2.024 . S
O495 C489 1.249 . S
H496 C478 0.948 . S
O497 Zn487 2.039 1_655 S
O497 C501 1.251 . S
O498 Zn479 2.025 . S
O498 C501 1.254 1_455 S
O499 C480 1.246 . S
O499 Zn487 2.034 1_565 S
O500 Zn479 2.024 1_565 S
O500 C480 1.249 . S
C501 O497 1.251 . S
C501 O498 1.254 1_655 S
H502 C475 0.949 . S
H503 C477 0.950 . S
H504 C484 0.949 . S
H505 C486 0.950 . S
C506 O522 1.251 . S
C506 O524 1.254 . S
N507 C508 1.333 . S
N507 C512 1.307 . S
N507 Zn513 2.020 . S
C508 N507 1.333 . S
C508 C509 1.379 . S
C508 H526 0.952 . S
C509 C508 1.379 . S
C509 C510 1.390 . S
C509 H536 0.949 . S
C510 C509 1.390 . S
C510 C511 1.357 . S
C511 C510 1.357 . S
C511 C512 1.370 . S
C511 H537 0.950 . S
C512 N507 1.307 . S
C512 C511 1.370 . S
C512 H530 0.948 . S
Zn513 N507 2.020 . S
Zn513 O522 2.039 . S
Zn513 O528 2.034 . S
Zn513 O532 2.025 . S
Zn513 O534 2.024 . S
C514 O533 1.246 . S
C514 O534 1.249 . S
N515 C516 1.307 . S
N515 C517 1.333 . S
N515 Zn521 2.020 . S
C516 N515 1.307 . S
C516 C520 1.370 . S
C516 H527 0.948 . S
C517 N515 1.333 . S
C517 C518 1.379 . S
C517 H525 0.952 . S
C518 C517 1.379 . S
C518 C519 1.390 . S
C518 H538 0.949 . S
C519 C518 1.390 . S
C519 C520 1.357 . S
C520 C516 1.370 . S
C520 C519 1.357 . S
C520 H539 0.950 . S
Zn521 N515 2.020 . S
Zn521 O524 2.025 . S
Zn521 O529 2.024 . S
Zn521 O531 2.039 . S
Zn521 O533 2.034 . S
O522 C506 1.251 . S
O522 Zn513 2.039 . S
C523 O528 1.246 . S
C523 O529 1.249 . S
O524 C506 1.254 . S
O524 Zn521 2.025 . S
H525 C517 0.952 . S
H526 C508 0.952 . S
H527 C516 0.948 . S
O528 Zn513 2.034 . S
O528 C523 1.246 . S
O529 Zn521 2.024 . S
O529 C523 1.249 . S
H530 C512 0.948 . S
O531 Zn521 2.039 . S
O531 C535 1.251 . S
O532 Zn513 2.025 . S
O532 C535 1.254 . S
O533 C514 1.246 . S
O533 Zn521 2.034 . S
O534 Zn513 2.024 . S
O534 C514 1.249 . S
C535 O531 1.251 . S
C535 O532 1.254 . S
H536 C509 0.949 . S
H537 C511 0.950 . S
H538 C518 0.949 . S
H539 C520 0.950 . S
C540 O556 1.251 . S
C540 O558 1.254 . S
N541 C542 1.333 . S
N541 C546 1.307 . S
N541 Zn547 2.020 . S
C542 N541 1.333 . S
C542 C543 1.379 . S
C542 H560 0.952 . S
C543 C542 1.379 . S
C543 C544 1.390 . S
C543 H570 0.949 . S
C544 C543 1.390 . S
C544 C545 1.357 . S
C545 C544 1.357 . S
C545 C546 1.370 . S
C545 H571 0.950 . S
C546 N541 1.307 . S
C546 C545 1.370 . S
C546 H564 0.948 . S
Zn547 N541 2.020 . S
Zn547 O556 2.039 1_545 S
Zn547 O562 2.034 . S
Zn547 O566 2.025 . S
Zn547 O568 2.024 . S
C548 O567 1.246 . S
C548 O568 1.249 1_565 S
N549 C550 1.307 . S
N549 C551 1.333 1_565 S
N549 Zn555 2.020 1_566 S
C550 N549 1.307 . S
C550 C554 1.370 . S
C550 H561 0.948 . S
C551 N549 1.333 1_545 S
C551 C552 1.381 . S
C551 H559 0.952 . S
C552 C551 1.381 . S
C552 C553 1.384 1_545 S
C552 H572 0.954 . S
C553 C552 1.384 1_565 S
C553 C554 1.357 . S
C554 C550 1.370 . S
C554 C553 1.357 . S
C554 H573 0.950 . S
Zn555 N549 2.020 1_544 S
Zn555 O558 2.025 1_545 S
Zn555 O563 2.024 . S
Zn555 O565 2.039 1_554 S
Zn555 O567 2.034 1_545 S
O556 C540 1.251 . S
O556 Zn547 2.039 1_565 S
C557 O562 1.246 . S
C557 O563 1.249 . S
O558 C540 1.254 . S
O558 Zn555 2.025 1_565 S
H559 C551 0.952 . S
H560 C542 0.952 . S
H561 C550 0.948 . S
O562 Zn547 2.034 . S
O562 C557 1.246 . S
O563 Zn555 2.024 . S
O563 C557 1.249 . S
H564 C546 0.948 . S
O565 Zn555 2.039 1_556 S
O565 C569 1.251 1_556 S
O566 Zn547 2.025 . S
O566 C569 1.254 . S
O567 C548 1.246 . S
O567 Zn555 2.034 1_565 S
O568 Zn547 2.024 . S
O568 C548 1.249 1_545 S
C569 O565 1.251 1_554 S
C569 O566 1.254 . S
H570 C543 0.949 . S
H571 C545 0.950 . S
H572 C552 0.954 . S
H573 C554 0.950 . S
C574 O590 1.251 . S
C574 O592 1.254 . S
N575 C576 1.333 . S
N575 C580 1.307 . S
N575 Zn581 2.020 . S
C576 N575 1.333 . S
C576 C577 1.379 . S
C576 H594 0.952 . S
C577 C576 1.379 . S
C577 C578 1.390 . S
C577 H604 0.949 . S
C578 C577 1.390 . S
C578 C579 1.357 . S
C579 C578 1.357 . S
C579 C580 1.370 . S
C579 H605 0.950 . S
C580 N575 1.307 . S
C580 C579 1.370 . S
C580 H598 0.948 . S
Zn581 N575 2.020 . S
Zn581 O590 2.039 . S
Zn581 O596 2.034 . S
Zn581 O600 2.025 . S
Zn581 O602 2.024 . S
C582 O601 1.246 . S
C582 O602 1.249 . S
N583 C584 1.307 . S
N583 C585 1.333 . S
N583 Zn589 2.020 . S
C584 N583 1.307 . S
C584 C588 1.370 . S
C584 H595 0.948 . S
C585 N583 1.333 . S
C585 C586 1.379 . S
C585 H593 0.952 . S
C586 C585 1.379 . S
C586 C587 1.390 . S
C586 H606 0.949 . S
C587 C586 1.390 . S
C587 C588 1.357 . S
C588 C584 1.370 . S
C588 C587 1.357 . S
C588 H607 0.950 . S
Zn589 N583 2.020 . S
Zn589 O592 2.025 . S
Zn589 O597 2.024 . S
Zn589 O599 2.039 . S
Zn589 O601 2.034 . S
O590 C574 1.251 . S
O590 Zn581 2.039 . S
C591 O596 1.246 . S
C591 O597 1.249 . S
O592 C574 1.254 . S
O592 Zn589 2.025 . S
H593 C585 0.952 . S
H594 C576 0.952 . S
H595 C584 0.948 . S
O596 Zn581 2.034 . S
O596 C591 1.246 . S
O597 Zn589 2.024 . S
O597 C591 1.249 . S
H598 C580 0.948 . S
O599 Zn589 2.039 . S
O599 C603 1.251 . S
O600 Zn581 2.025 . S
O600 C603 1.254 . S
O601 C582 1.246 . S
O601 Zn589 2.034 . S
O602 Zn581 2.024 . S
O602 C582 1.249 . S
C603 O599 1.251 . S
C603 O600 1.254 . S
H604 C577 0.949 . S
H605 C579 0.950 . S
H606 C586 0.949 . S
H607 C588 0.950 . S
C608 O624 1.251 . S
C608 O626 1.254 . S
N609 C610 1.333 . S
N609 C614 1.307 . S
N609 Zn615 2.020 1_556 S
C610 N609 1.333 . S
C610 C611 1.379 . S
C610 H628 0.952 . S
C611 C610 1.379 . S
C611 C612 1.390 . S
C611 H638 0.949 . S
C612 C611 1.390 . S
C612 C613 1.357 . S
C613 C612 1.357 . S
C613 C614 1.370 . S
C613 H639 0.950 . S
C614 N609 1.307 . S
C614 C613 1.370 . S
C614 H632 0.948 . S
Zn615 N609 2.020 1_554 S
Zn615 O624 2.039 . S
Zn615 O630 2.034 . S
Zn615 O634 2.027 . S
Zn615 O636 2.024 1_554 S
C616 O635 1.246 . S
C616 O636 1.249 1_554 S
N617 C618 1.307 . S
N617 C619 1.333 . S
N617 Zn623 2.020 . S
C618 N617 1.307 . S
C618 C622 1.370 . S
C618 H629 0.948 . S
C619 N617 1.333 . S
C619 C620 1.379 . S
C619 H627 0.952 . S
C620 C619 1.379 . S
C620 C621 1.390 . S
C620 H640 0.949 . S
C621 C620 1.390 . S
C621 C622 1.357 . S
C622 C618 1.370 . S
C622 C621 1.357 . S
C622 H641 0.950 . S
Zn623 N617 2.020 . S
Zn623 O626 2.025 . S
Zn623 O631 2.024 . S
Zn623 O633 2.039 . S
Zn623 O635 2.034 . S
O624 C608 1.251 . S
O624 Zn615 2.039 . S
C625 O630 1.246 . S
C625 O631 1.249 . S
O626 C608 1.254 . S
O626 Zn623 2.025 . S
H627 C619 0.952 . S
H628 C610 0.952 . S
H629 C618 0.948 . S
O630 Zn615 2.034 . S
O630 C625 1.246 . S
O631 Zn623 2.024 . S
O631 C625 1.249 . S
H632 C614 0.948 . S
O633 Zn623 2.039 . S
O633 C637 1.251 . S
O634 Zn615 2.027 . S
O634 C637 1.280 . S
O635 C616 1.246 . S
O635 Zn623 2.034 . S
O636 Zn615 2.024 1_556 S
O636 C616 1.249 1_556 S
C637 O633 1.251 . S
C637 O634 1.280 . S
H638 C611 0.949 . S
H639 C613 0.950 . S
H640 C620 0.949 . S
H641 C622 0.950 . S
C642 O658 1.251 . S
C642 O660 1.254 . S
N643 C644 1.333 . S
N643 C648 1.307 . S
N643 Zn649 2.020 . S
C644 N643 1.333 . S
C644 C645 1.379 . S
C644 H662 0.952 . S
C645 C644 1.379 . S
C645 C646 1.390 . S
C645 H672 0.949 . S
C646 C645 1.390 . S
C646 C647 1.357 . S
C647 C646 1.357 . S
C647 C648 1.370 . S
C647 H673 0.950 . S
C648 N643 1.307 . S
C648 C647 1.370 . S
C648 H666 0.948 . S
Zn649 N643 2.020 . S
Zn649 O658 2.039 . S
Zn649 O664 2.034 . S
Zn649 O668 2.025 . S
Zn649 O670 2.024 . S
C650 O669 1.246 . S
C650 O670 1.249 . S
N651 C652 1.307 . S
N651 C653 1.333 . S
N651 Zn657 2.020 . S
C652 N651 1.307 . S
C652 C656 1.370 . S
C652 H663 0.948 . S
C653 N651 1.333 . S
C653 C654 1.379 . S
C653 H661 0.952 . S
C654 C653 1.379 . S
C654 C655 1.390 . S
C654 H674 0.949 . S
C655 C654 1.390 . S
C655 C656 1.357 . S
C656 C652 1.370 . S
C656 C655 1.357 . S
C656 H675 0.950 . S
Zn657 N651 2.020 . S
Zn657 O660 2.025 . S
Zn657 O665 2.024 . S
Zn657 O667 2.039 . S
Zn657 O669 2.034 . S
O658 C642 1.251 . S
O658 Zn649 2.039 . S
C659 O664 1.246 . S
C659 O665 1.249 . S
O660 C642 1.254 . S
O660 Zn657 2.025 . S
H661 C653 0.952 . S
H662 C644 0.952 . S
H663 C652 0.948 . S
O664 Zn649 2.034 . S
O664 C659 1.246 . S
O665 Zn657 2.024 . S
O665 C659 1.249 . S
H666 C648 0.948 . S
O667 Zn657 2.039 . S
O667 C671 1.251 . S
O668 Zn649 2.025 . S
O668 C671 1.254 . S
O669 C650 1.246 . S
O669 Zn657 2.034 . S
O670 Zn649 2.024 . S
O670 C650 1.249 . S
C671 O667 1.251 . S
C671 O668 1.254 . S
H672 C645 0.949 . S
H673 C647 0.950 . S
H674 C654 0.949 . S
H675 C656 0.950 . S
C676 O692 1.251 . S
C676 O694 1.254 . S
N677 C678 1.333 . S
N677 C682 1.307 . S
N677 Zn683 2.020 . S
C678 N677 1.333 . S
C678 C679 1.379 . S
C678 H696 0.952 . S
C679 C678 1.379 . S
C679 C680 1.390 . S
C679 H706 0.949 . S
C680 C679 1.390 . S
C680 C681 1.357 . S
C681 C680 1.357 . S
C681 C682 1.370 . S
C681 H707 0.950 . S
C682 N677 1.307 . S
C682 C681 1.370 . S
C682 H700 0.948 . S
Zn683 N677 2.020 . S
Zn683 O692 2.039 . S
Zn683 O698 2.034 . S
Zn683 O702 2.025 . S
Zn683 O704 2.024 . S
C684 O703 1.246 . S
C684 O704 1.249 . S
N685 C686 1.307 1_455 S
N685 C687 1.333 . S
N685 Zn691 2.020 . S
C686 N685 1.307 1_655 S
C686 C690 1.370 . S
C686 H697 0.948 . S
C687 N685 1.333 . S
C687 C688 1.379 . S
C687 H695 0.952 . S
C688 C687 1.379 . S
C688 C689 1.390 1_455 S
C688 H708 0.949 . S
C689 C688 1.390 1_655 S
C689 C690 1.357 . S
C690 C686 1.370 . S
C690 C689 1.357 . S
C690 H709 0.950 . S
Zn691 N685 2.020 . S
Zn691 O694 2.025 . S
Zn691 O699 2.024 1_455 S
Zn691 O701 2.039 . S
Zn691 O703 2.034 . S
O692 C676 1.251 . S
O692 Zn683 2.039 . S
C693 O698 1.246 1_655 S
C693 O699 1.249 . S
O694 C676 1.254 . S
O694 Zn691 2.025 . S
H695 C687 0.952 . S
H696 C678 0.952 . S
H697 C686 0.948 . S
O698 Zn683 2.034 . S
O698 C693 1.246 1_455 S
O699 Zn691 2.024 1_655 S
O699 C693 1.249 . S
H700 C682 0.948 . S
O701 Zn691 2.039 . S
O701 C705 1.251 . S
O702 Zn683 2.025 . S
O702 C705 1.254 . S
O703 C684 1.246 . S
O703 Zn691 2.034 . S
O704 Zn683 2.024 . S
O704 C684 1.249 . S
C705 O701 1.251 . S
C705 O702 1.254 . S
H706 C679 0.949 . S
H707 C681 0.950 . S
H708 C688 0.949 . S
H709 C690 0.950 . S
C710 O726 1.251 . S
C710 O728 1.254 . S
N711 C712 1.333 . S
N711 C716 1.307 . S
N711 Zn717 2.020 . S
C712 N711 1.333 . S
C712 C713 1.379 . S
C712 H730 0.952 . S
C713 C712 1.379 . S
C713 C714 1.390 . S
C713 H740 0.949 . S
C714 C713 1.390 . S
C714 C715 1.357 . S
C715 C714 1.357 . S
C715 C716 1.370 . S
C715 H741 0.950 . S
C716 N711 1.307 . S
C716 C715 1.370 . S
C716 H734 0.948 . S
Zn717 N711 2.020 . S
Zn717 O726 2.039 . S
Zn717 O732 2.034 . S
Zn717 O736 2.025 . S
Zn717 O738 2.024 . S
C718 O737 1.246 . S
C718 O738 1.249 . S
N719 C720 1.307 . S
N719 C721 1.333 . S
N719 Zn725 2.020 . S
C720 N719 1.307 . S
C720 C724 1.370 . S
C720 H731 0.948 . S
C721 N719 1.333 . S
C721 C722 1.379 . S
C721 H729 0.952 . S
C722 C721 1.379 . S
C722 C723 1.390 . S
C722 H742 0.949 . S
C723 C722 1.390 . S
C723 C724 1.357 . S
C724 C720 1.370 . S
C724 C723 1.357 . S
C724 H743 0.950 . S
Zn725 N719 2.020 . S
Zn725 O728 2.025 . S
Zn725 O733 2.024 . S
Zn725 O735 2.039 . S
Zn725 O737 2.034 . S
O726 C710 1.251 . S
O726 Zn717 2.039 . S
C727 O732 1.246 . S
C727 O733 1.249 . S
O728 C710 1.254 . S
O728 Zn725 2.025 . S
H729 C721 0.952 . S
H730 C712 0.952 . S
H731 C720 0.948 . S
O732 Zn717 2.034 . S
O732 C727 1.246 . S
O733 Zn725 2.024 . S
O733 C727 1.249 . S
H734 C716 0.948 . S
O735 Zn725 2.039 . S
O735 C739 1.251 . S
O736 Zn717 2.025 . S
O736 C739 1.254 . S
O737 C718 1.246 . S
O737 Zn725 2.034 . S
O738 Zn717 2.024 . S
O738 C718 1.249 . S
C739 O735 1.251 . S
C739 O736 1.254 . S
H740 C713 0.949 . S
H741 C715 0.950 . S
H742 C722 0.949 . S
H743 C724 0.950 . S
C744 O760 1.251 . S
C744 O762 1.254 . S
N745 C746 1.333 . S
N745 C750 1.307 . S
N745 Zn751 2.020 . S
C746 N745 1.333 . S
C746 C747 1.379 . S
C746 H764 0.952 . S
C747 C746 1.379 . S
C747 C748 1.390 . S
C747 H774 0.949 . S
C748 C747 1.390 . S
C748 C749 1.357 . S
C749 C748 1.357 . S
C749 C750 1.370 . S
C749 H775 0.950 . S
C750 N745 1.307 . S
C750 C749 1.370 . S
C750 H768 0.948 . S
Zn751 N745 2.020 . S
Zn751 O760 2.039 . S
Zn751 O766 2.034 . S
Zn751 O770 2.025 . S
Zn751 O772 2.024 . S
C752 O771 1.246 . S
C752 O772 1.249 . S
N753 C754 1.307 . S
N753 C755 1.333 . S
N753 Zn759 2.020 . S
C754 N753 1.307 . S
C754 C758 1.370 . S
C754 H765 0.948 . S
C755 N753 1.333 . S
C755 C756 1.379 . S
C755 H763 0.952 . S
C756 C755 1.379 . S
C756 C757 1.390 . S
C756 H776 0.949 . S
C757 C756 1.390 . S
C757 C758 1.357 . S
C758 C754 1.370 . S
C758 C757 1.357 . S
C758 H777 0.950 . S
Zn759 N753 2.020 . S
Zn759 O762 2.025 . S
Zn759 O767 2.024 . S
Zn759 O769 2.039 . S
Zn759 O771 2.034 . S
O760 C744 1.251 . S
O760 Zn751 2.039 . S
C761 O766 1.246 . S
C761 O767 1.249 . S
O762 C744 1.254 . S
O762 Zn759 2.025 . S
H763 C755 0.952 . S
H764 C746 0.952 . S
H765 C754 0.948 . S
O766 Zn751 2.034 . S
O766 C761 1.246 . S
O767 Zn759 2.024 . S
O767 C761 1.249 . S
H768 C750 0.948 . S
O769 Zn759 2.039 . S
O769 C773 1.251 . S
O770 Zn751 2.025 . S
O770 C773 1.254 . S
O771 C752 1.246 . S
O771 Zn759 2.034 . S
O772 Zn751 2.024 . S
O772 C752 1.249 . S
C773 O769 1.251 . S
C773 O770 1.254 . S
H774 C747 0.949 . S
H775 C749 0.950 . S
H776 C756 0.949 . S
H777 C758 0.950 . S
C778 O794 1.251 . S
C778 O796 1.254 . S
N779 C780 1.333 . S
N779 C784 1.307 . S
N779 Zn785 2.020 . S
C780 N779 1.333 . S
C780 C781 1.379 . S
C780 H798 0.952 . S
C781 C780 1.379 . S
C781 C782 1.390 . S
C781 H808 0.949 . S
C782 C781 1.390 . S
C782 C783 1.357 . S
C783 C782 1.357 . S
C783 C784 1.370 . S
C783 H809 0.950 . S
C784 N779 1.307 . S
C784 C783 1.370 . S
C784 H802 0.948 . S
Zn785 N779 2.020 . S
Zn785 O794 2.039 . S
Zn785 O800 2.034 . S
Zn785 O804 2.025 . S
Zn785 O806 2.024 . S
C786 O805 1.246 . S
C786 O806 1.249 . S
N787 C788 1.307 . S
N787 C789 1.333 . S
N787 Zn793 2.020 . S
C788 N787 1.307 . S
C788 C792 1.370 . S
C788 H799 0.948 . S
C789 N787 1.333 . S
C789 C790 1.379 . S
C789 H797 0.952 . S
C790 C789 1.379 . S
C790 C791 1.390 . S
C790 H810 0.949 . S
C791 C790 1.390 . S
C791 C792 1.357 . S
C792 C788 1.370 . S
C792 C791 1.357 . S
C792 H811 0.950 . S
Zn793 N787 2.020 . S
Zn793 O796 2.025 . S
Zn793 O801 2.024 . S
Zn793 O803 2.039 . S
Zn793 O805 2.034 . S
O794 C778 1.251 . S
O794 Zn785 2.039 . S
C795 O800 1.246 . S
C795 O801 1.249 . S
O796 C778 1.254 . S
O796 Zn793 2.025 . S
H797 C789 0.952 . S
H798 C780 0.952 . S
H799 C788 0.948 . S
O800 Zn785 2.034 . S
O800 C795 1.246 . S
O801 Zn793 2.024 . S
O801 C795 1.249 . S
H802 C784 0.948 . S
O803 Zn793 2.039 . S
O803 C807 1.251 . S
O804 Zn785 2.025 . S
O804 C807 1.254 . S
O805 C786 1.246 . S
O805 Zn793 2.034 . S
O806 Zn785 2.024 . S
O806 C786 1.249 . S
C807 O803 1.251 . S
C807 O804 1.254 . S
H808 C781 0.949 . S
H809 C783 0.950 . S
H810 C790 0.949 . S
H811 C792 0.950 . S
C812 O828 1.251 . S
C812 O830 1.254 . S
N813 C814 1.333 . S
N813 C818 1.307 . S
N813 Zn819 2.020 . S
C814 N813 1.333 . S
C814 C815 1.379 . S
C814 H832 0.952 . S
C815 C814 1.379 . S
C815 C816 1.390 . S
C815 H842 0.949 . S
C816 C815 1.390 . S
C816 C817 1.357 . S
C817 C816 1.357 . S
C817 C818 1.370 . S
C817 H843 0.950 . S
C818 N813 1.307 . S
C818 C817 1.370 . S
C818 H836 0.948 . S
Zn819 N813 2.020 . S
Zn819 O828 2.039 . S
Zn819 O834 2.034 . S
Zn819 O838 2.025 . S
Zn819 O840 2.024 . S
C820 O839 1.246 . S
C820 O840 1.249 . S
N821 C822 1.307 . S
N821 C823 1.333 . S
N821 Zn827 2.020 . S
C822 N821 1.307 . S
C822 C826 1.370 . S
C822 H833 0.948 . S
C823 N821 1.333 . S
C823 C824 1.379 . S
C823 H831 0.952 . S
C824 C823 1.379 . S
C824 C825 1.390 . S
C824 H844 0.949 . S
C825 C824 1.390 . S
C825 C826 1.357 . S
C826 C822 1.370 . S
C826 C825 1.357 . S
C826 H845 0.950 . S
Zn827 N821 2.020 . S
Zn827 O830 2.025 . S
Zn827 O835 2.024 . S
Zn827 O837 2.039 . S
Zn827 O839 2.034 . S
O828 C812 1.251 . S
O828 Zn819 2.039 . S
C829 O834 1.246 . S
C829 O835 1.249 . S
O830 C812 1.254 . S
O830 Zn827 2.025 . S
H831 C823 0.952 . S
H832 C814 0.952 . S
H833 C822 0.948 . S
O834 Zn819 2.034 . S
O834 C829 1.246 . S
O835 Zn827 2.024 . S
O835 C829 1.249 . S
H836 C818 0.948 . S
O837 Zn827 2.039 . S
O837 C841 1.251 . S
O838 Zn819 2.025 . S
O838 C841 1.254 . S
O839 C820 1.246 . S
O839 Zn827 2.034 . S
O840 Zn819 2.024 . S
O840 C820 1.249 . S
C841 O837 1.251 . S
C841 O838 1.254 . S
H842 C815 0.949 . S
H843 C817 0.950 . S
H844 C824 0.949 . S
H845 C826 0.950 . S
C846 O862 1.251 . S
C846 O864 1.254 . S
N847 C848 1.333 . S
N847 C852 1.307 . S
N847 Zn853 2.020 . S
C848 N847 1.333 . S
C848 C849 1.379 . S
C848 H866 0.952 . S
C849 C848 1.379 . S
C849 C850 1.390 . S
C849 H876 0.949 . S
C850 C849 1.390 . S
C850 C851 1.357 . S
C851 C850 1.357 . S
C851 C852 1.370 . S
C851 H877 0.950 . S
C852 N847 1.307 . S
C852 C851 1.370 . S
C852 H870 0.948 . S
Zn853 N847 2.020 . S
Zn853 O862 2.039 . S
Zn853 O868 2.034 . S
Zn853 O872 2.023 . S
Zn853 O874 2.024 . S
C854 O873 1.246 . S
C854 O874 1.249 1_655 S
N855 C856 1.307 . S
N855 C857 1.333 1_554 S
N855 Zn861 2.020 . S
C856 N855 1.307 . S
C856 C860 1.370 . S
C856 H867 0.948 . S
C857 N855 1.333 1_556 S
C857 C858 1.392 . S
C857 H865 0.952 . S
C858 C857 1.392 . S
C858 C859 1.383 1_455 S
C858 H878 0.942 1_455 S
C859 C858 1.383 1_655 S
C859 C860 1.346 1_656 S
C860 C856 1.370 . S
C860 C859 1.346 1_454 S
C860 H879 0.950 . S
Zn861 N855 2.020 . S
Zn861 O864 2.025 . S
Zn861 O869 2.024 . S
Zn861 O871 2.039 1_554 S
Zn861 O873 2.034 1_455 S
O862 C846 1.251 . S
O862 Zn853 2.039 . S
C863 O868 1.246 . S
C863 O869 1.249 . S
O864 C846 1.254 . S
O864 Zn861 2.025 . S
H865 C857 0.952 . S
H866 C848 0.952 . S
H867 C856 0.948 . S
O868 Zn853 2.034 . S
O868 C863 1.246 . S
O869 Zn861 2.024 . S
O869 C863 1.249 . S
H870 C852 0.948 . S
O871 Zn861 2.039 1_556 S
O871 C875 1.251 . S
O872 Zn853 2.023 . S
O872 C875 1.256 1_554 S
O873 C854 1.246 . S
O873 Zn861 2.034 1_655 S
O874 Zn853 2.024 . S
O874 C854 1.249 1_455 S
C875 O871 1.251 . S
C875 O872 1.256 1_556 S
H876 C849 0.949 . S
H877 C851 0.950 . S
H878 C858 0.942 1_655 S
H879 C860 0.950 . S
H880 C886 0.930 . S
H881 C890 0.930 . S
H882 C895 0.929 . S
H883 C893 0.929 . S
H884 C888 0.929 . S
H885 C894 0.929 . S
C886 H880 0.930 . S
C886 C887 1.367 . S
C886 C894 1.378 . S
C887 C886 1.367 . S
C887 C895 1.433 . S
C888 H884 0.929 . S
C888 C890 1.378 . S
C888 C892 1.350 . S
C889 C892 1.463 . S
C889 C894 1.350 . S
C889 N897 1.427 . S
C890 H881 0.930 . S
C890 C888 1.378 . S
C890 C891 1.367 . S
C891 C890 1.367 . S
C891 C893 1.433 . S
C892 C888 1.350 . S
C892 C889 1.463 . S
C892 N896 1.427 . S
C893 H883 0.929 . S
C893 C891 1.433 . S
C893 N896 1.384 . S
C894 H885 0.929 . S
C894 C886 1.378 . S
C894 C889 1.350 . S
C895 H882 0.929 . S
C895 C887 1.433 . S
C895 N897 1.384 . S
N896 C892 1.427 . S
N896 C893 1.384 . S
N897 C889 1.427 . S
N897 C895 1.384 . S
H898 C904 0.930 . S
H899 C908 0.930 . S
H900 C913 0.929 . S
H901 C911 0.929 . S
H902 C906 0.929 . S
H903 C912 0.929 . S
C904 H898 0.930 . S
C904 C905 1.367 . S
C904 C912 1.378 . S
C905 C904 1.367 . S
C905 C913 1.433 . S
C906 H902 0.929 . S
C906 C908 1.378 . S
C906 C910 1.350 . S
C907 C910 1.463 . S
C907 C912 1.350 . S
C907 N915 1.427 . S
C908 H899 0.930 . S
C908 C906 1.378 . S
C908 C909 1.367 . S
C909 C908 1.367 . S
C909 C911 1.433 . S
C910 C906 1.350 . S
C910 C907 1.463 . S
C910 N914 1.427 . S
C911 H901 0.929 . S
C911 C909 1.433 . S
C911 N914 1.384 . S
C912 H903 0.929 . S
C912 C904 1.378 . S
C912 C907 1.350 . S
C913 H900 0.929 . S
C913 C905 1.433 . S
C913 N915 1.384 . S
N914 C910 1.427 . S
N914 C911 1.384 . S
N915 C907 1.427 . S
N915 C913 1.384 . S
H916 C922 0.930 . S
H917 C926 0.930 . S
H918 C931 0.929 . S
H919 C929 0.929 . S
H920 C924 0.929 . S
H921 C930 0.929 . S
C922 H916 0.930 . S
C922 C923 1.367 . S
C922 C930 1.378 . S
C923 C922 1.367 . S
C923 C931 1.433 . S
C924 H920 0.929 . S
C924 C926 1.378 . S
C924 C928 1.350 . S
C925 C928 1.463 . S
C925 C930 1.350 . S
C925 N933 1.427 . S
C926 H917 0.930 . S
C926 C924 1.378 . S
C926 C927 1.367 . S
C927 C926 1.367 . S
C927 C929 1.433 . S
C928 C924 1.350 . S
C928 C925 1.463 . S
C928 N932 1.427 . S
C929 H919 0.929 . S
C929 C927 1.433 . S
C929 N932 1.384 . S
C930 H921 0.929 . S
C930 C922 1.378 . S
C930 C925 1.350 . S
C931 H918 0.929 . S
C931 C923 1.433 . S
C931 N933 1.384 . S
N932 C928 1.427 . S
N932 C929 1.384 . S
N933 C925 1.427 . S
N933 C931 1.384 . S
H934 C940 0.930 . S
H935 C944 0.930 . S
H936 C949 0.929 . S
H937 C947 0.929 . S
H938 C942 0.929 . S
H939 C948 0.929 . S
C940 H934 0.930 . S
C940 C941 1.367 . S
C940 C948 1.378 . S
C941 C940 1.367 . S
C941 C949 1.433 . S
C942 H938 0.929 . S
C942 C944 1.378 . S
C942 C946 1.350 . S
C943 C946 1.463 . S
C943 C948 1.350 . S
C943 N951 1.427 . S
C944 H935 0.930 . S
C944 C942 1.378 . S
C944 C945 1.367 . S
C945 C944 1.367 . S
C945 C947 1.433 . S
C946 C942 1.350 . S
C946 C943 1.463 . S
C946 N950 1.427 . S
C947 H937 0.929 . S
C947 C945 1.433 . S
C947 N950 1.384 . S
C948 H939 0.929 . S
C948 C940 1.378 . S
C948 C943 1.350 . S
C949 H936 0.929 . S
C949 C941 1.433 . S
C949 N951 1.384 . S
N950 C946 1.427 . S
N950 C947 1.384 . S
N951 C943 1.427 . S
N951 C949 1.384 . S
H952 C958 0.930 1_655 S
H953 C962 0.930 . S
H954 C967 0.929 . S
H955 C965 0.929 1_655 S
H956 C960 0.929 . S
H957 C966 0.929 1_655 S
C958 H952 0.930 1_455 S
C958 C959 1.367 . S
C958 C966 1.378 . S
C959 C958 1.367 . S
C959 C967 1.433 . S
C960 H956 0.929 . S
C960 C962 1.378 . S
C960 C964 1.350 . S
C961 C964 1.463 . S
C961 C966 1.350 . S
C961 N969 1.427 . S
C962 H953 0.930 . S
C962 C960 1.378 . S
C962 C963 1.367 . S
C963 C962 1.367 . S
C963 C965 1.433 . S
C964 C960 1.350 . S
C964 C961 1.463 . S
C964 N968 1.427 . S
C965 H955 0.929 1_455 S
C965 C963 1.433 . S
C965 N968 1.384 . S
C966 H957 0.929 1_455 S
C966 C958 1.378 . S
C966 C961 1.350 . S
C967 H954 0.929 . S
C967 C959 1.433 . S
C967 N969 1.384 . S
N968 C964 1.427 . S
N968 C965 1.384 . S
N969 C961 1.427 . S
N969 C967 1.384 . S
H970 C976 0.930 . S
H971 C980 0.930 . S
H972 C985 0.929 . S
H973 C983 0.929 . S
H974 C978 0.929 . S
H975 C984 0.929 . S
C976 H970 0.930 . S
C976 C977 1.367 . S
C976 C984 1.378 . S
C977 C976 1.367 . S
C977 C985 1.433 . S
C978 H974 0.929 . S
C978 C980 1.378 . S
C978 C982 1.350 . S
C979 C982 1.463 . S
C979 C984 1.350 . S
C979 N987 1.427 . S
C980 H971 0.930 . S
C980 C978 1.378 . S
C980 C981 1.367 . S
C981 C980 1.367 . S
C981 C983 1.433 . S
C982 C978 1.350 . S
C982 C979 1.463 . S
C982 N986 1.427 . S
C983 H973 0.929 . S
C983 C981 1.433 . S
C983 N986 1.384 . S
C984 H975 0.929 . S
C984 C976 1.378 . S
C984 C979 1.350 . S
C985 H972 0.929 . S
C985 C977 1.433 . S
C985 N987 1.384 . S
N986 C982 1.427 . S
N986 C983 1.384 . S
N987 C979 1.427 . S
N987 C985 1.384 . S
H988 C994 0.930 . S
H989 C998 0.930 1_554 S
H990 C1003 0.929 . S
H991 C1001 0.929 . S
H992 C996 0.929 . S
H993 C1002 0.929 . S
C994 H988 0.930 . S
C994 C995 1.367 . S
C994 C1002 1.378 . S
C995 C994 1.367 . S
C995 C1003 1.433 . S
C996 H992 0.929 . S
C996 C998 1.378 . S
C996 C1000 1.350 . S
C997 C1000 1.463 . S
C997 C1002 1.350 . S
C997 N1005 1.427 . S
C998 H989 0.930 1_556 S
C998 C996 1.378 . S
C998 C999 1.367 . S
C999 C998 1.367 . S
C999 C1001 1.433 . S
C1000 C996 1.350 . S
C1000 C997 1.463 . S
C1000 N1004 1.427 . S
C1001 H991 0.929 . S
C1001 C999 1.433 . S
C1001 N1004 1.384 . S
C1002 H993 0.929 . S
C1002 C994 1.378 . S
C1002 C997 1.350 . S
C1003 H990 0.929 . S
C1003 C995 1.433 . S
C1003 N1005 1.384 . S
N1004 C1000 1.427 . S
N1004 C1001 1.384 . S
N1005 C997 1.427 . S
N1005 C1003 1.384 . S
H1006 C1012 0.930 . S
H1007 C1016 0.930 . S
H1008 C1021 0.929 . S
H1009 C1019 0.929 . S
H1010 C1014 0.929 . S
H1011 C1020 0.929 . S
C1012 H1006 0.930 . S
C1012 C1013 1.367 . S
C1012 C1020 1.378 . S
C1013 C1012 1.367 . S
C1013 C1021 1.433 . S
C1014 H1010 0.929 . S
C1014 C1016 1.378 . S
C1014 C1018 1.350 . S
C1015 C1018 1.463 . S
C1015 C1020 1.350 . S
C1015 N1023 1.427 . S
C1016 H1007 0.930 . S
C1016 C1014 1.378 . S
C1016 C1017 1.367 . S
C1017 C1016 1.367 . S
C1017 C1019 1.433 . S
C1018 C1014 1.350 . S
C1018 C1015 1.463 . S
C1018 N1022 1.427 . S
C1019 H1009 0.929 . S
C1019 C1017 1.433 . S
C1019 N1022 1.384 . S
C1020 H1011 0.929 . S
C1020 C1012 1.378 . S
C1020 C1015 1.350 . S
C1021 H1008 0.929 . S
C1021 C1013 1.433 . S
C1021 N1023 1.384 . S
N1022 C1018 1.427 . S
N1022 C1019 1.384 . S
N1023 C1015 1.427 . S
N1023 C1021 1.384 . S
H1024 C1030 0.930 . S
H1025 C1034 0.930 . S
H1026 C1039 0.929 . S
H1027 C1037 0.929 . S
H1028 C1032 0.929 . S
H1029 C1038 0.929 . S
C1030 H1024 0.930 . S
C1030 C1031 1.367 1_565 S
C1030 C1038 1.378 . S
C1031 C1030 1.367 1_545 S
C1031 C1039 1.433 . S
C1032 H1028 0.929 . S
C1032 C1034 1.378 . S
C1032 C1036 1.350 . S
C1033 C1036 1.463 . S
C1033 C1038 1.350 1_545 S
C1033 N1041 1.427 . S
C1034 H1025 0.930 . S
C1034 C1032 1.378 . S
C1034 C1035 1.367 1_545 S
C1035 C1034 1.367 1_565 S
C1035 C1037 1.433 . S
C1036 C1032 1.350 . S
C1036 C1033 1.463 . S
C1036 N1040 1.427 1_545 S
C1037 H1027 0.929 . S
C1037 C1035 1.433 . S
C1037 N1040 1.384 . S
C1038 H1029 0.929 . S
C1038 C1030 1.378 . S
C1038 C1033 1.350 1_565 S
C1039 H1026 0.929 . S
C1039 C1031 1.433 . S
C1039 N1041 1.384 . S
N1040 C1036 1.427 1_565 S
N1040 C1037 1.384 . S
N1041 C1033 1.427 . S
N1041 C1039 1.384 . S
H1042 C1048 0.930 . S
H1043 C1052 0.930 . S
H1044 C1057 0.929 . S
H1045 C1055 0.929 . S
H1046 C1050 0.929 . S
H1047 C1056 0.929 . S
C1048 H1042 0.930 . S
C1048 C1049 1.367 . S
C1048 C1056 1.378 . S
C1049 C1048 1.367 . S
C1049 C1057 1.433 . S
C1050 H1046 0.929 . S
C1050 C1052 1.378 . S
C1050 C1054 1.350 . S
C1051 C1054 1.463 . S
C1051 C1056 1.350 . S
C1051 N1059 1.427 . S
C1052 H1043 0.930 . S
C1052 C1050 1.378 . S
C1052 C1053 1.367 . S
C1053 C1052 1.367 . S
C1053 C1055 1.433 . S
C1054 C1050 1.350 . S
C1054 C1051 1.463 . S
C1054 N1058 1.427 . S
C1055 H1045 0.929 . S
C1055 C1053 1.433 . S
C1055 N1058 1.384 . S
C1056 H1047 0.929 . S
C1056 C1048 1.378 . S
C1056 C1051 1.350 . S
C1057 H1044 0.929 . S
C1057 C1049 1.433 . S
C1057 N1059 1.384 . S
N1058 C1054 1.427 . S
N1058 C1055 1.384 . S
N1059 C1051 1.427 . S
N1059 C1057 1.384 . S
H1060 C1066 0.930 . S
H1061 C1070 0.930 . S
H1062 C1075 0.929 . S
H1063 C1073 0.929 1_565 S
H1064 C1068 0.929 . S
H1065 C1074 0.929 . S
C1066 H1060 0.930 . S
C1066 C1067 1.367 1_565 S
C1066 C1074 1.378 . S
C1067 C1066 1.367 1_545 S
C1067 C1075 1.433 . S
C1068 H1064 0.929 . S
C1068 C1070 1.378 . S
C1068 C1072 1.350 . S
C1069 C1072 1.463 . S
C1069 C1074 1.350 1_545 S
C1069 N1077 1.427 . S
C1070 H1061 0.930 . S
C1070 C1068 1.378 . S
C1070 C1071 1.367 . S
C1071 C1070 1.367 . S
C1071 C1073 1.433 . S
C1072 C1068 1.350 . S
C1072 C1069 1.463 . S
C1072 N1076 1.420 1_545 S
C1073 H1063 0.929 1_545 S
C1073 C1071 1.433 . S
C1073 N1076 1.383 1_545 S
C1074 H1065 0.929 . S
C1074 C1066 1.378 . S
C1074 C1069 1.350 1_565 S
C1075 H1062 0.929 . S
C1075 C1067 1.433 . S
C1075 N1077 1.384 . S
N1076 C1072 1.420 1_565 S
N1076 C1073 1.383 1_565 S
N1077 C1069 1.427 . S
N1077 C1075 1.384 . S
H1078 C1084 0.930 . S
H1079 C1088 0.930 . S
H1080 C1093 0.929 . S
H1081 C1091 0.929 . S
H1082 C1086 0.929 . S
H1083 C1092 0.929 . S
C1084 H1078 0.930 . S
C1084 C1085 1.367 . S
C1084 C1092 1.378 . S
C1085 C1084 1.367 . S
C1085 C1093 1.433 . S
C1086 H1082 0.929 . S
C1086 C1088 1.378 . S
C1086 C1090 1.350 . S
C1087 C1090 1.463 . S
C1087 C1092 1.350 . S
C1087 N1095 1.427 . S
C1088 H1079 0.930 . S
C1088 C1086 1.378 . S
C1088 C1089 1.367 . S
C1089 C1088 1.367 . S
C1089 C1091 1.433 . S
C1090 C1086 1.350 . S
C1090 C1087 1.463 . S
C1090 N1094 1.427 . S
C1091 H1081 0.929 . S
C1091 C1089 1.433 . S
C1091 N1094 1.384 . S
C1092 H1083 0.929 . S
C1092 C1084 1.378 . S
C1092 C1087 1.350 . S
C1093 H1080 0.929 . S
C1093 C1085 1.433 . S
C1093 N1095 1.384 . S
N1094 C1090 1.427 . S
N1094 C1091 1.384 . S
N1095 C1087 1.427 . S
N1095 C1093 1.384 . S
H1096 C1102 0.930 . S
H1097 C1106 0.930 . S
H1098 C1111 0.890 1_565 S
H1099 C1109 0.929 . S
H1100 C1104 0.949 . S
H1101 C1110 0.929 . S
C1102 H1096 0.930 . S
C1102 C1103 1.367 . S
C1102 C1110 1.378 . S
C1103 C1102 1.367 . S
C1103 C1111 1.466 . S
C1104 H1100 0.949 . S
C1104 C1106 1.378 . S
C1104 C1108 1.350 . S
C1105 C1108 1.463 . S
C1105 C1110 1.350 . S
C1105 N1113 1.427 . S
C1106 H1097 0.930 . S
C1106 C1104 1.378 . S
C1106 C1107 1.367 . S
C1107 C1106 1.367 . S
C1107 C1109 1.433 . S
C1108 C1104 1.350 . S
C1108 C1105 1.463 . S
C1108 N1112 1.427 . S
C1109 H1099 0.929 . S
C1109 C1107 1.433 . S
C1109 N1112 1.384 . S
C1110 H1101 0.929 . S
C1110 C1102 1.378 . S
C1110 C1105 1.350 . S
C1111 H1098 0.890 1_545 S
C1111 C1103 1.466 . S
C1111 N1113 1.393 . S
N1112 C1108 1.427 . S
N1112 C1109 1.384 . S
N1113 C1105 1.427 . S
N1113 C1111 1.393 . S
H1114 C1120 0.930 . S
H1115 C1124 0.930 . S
H1116 C1129 0.929 . S
H1117 C1127 0.929 . S
H1118 C1122 0.929 . S
H1119 C1128 0.929 . S
C1120 H1114 0.930 . S
C1120 C1121 1.367 . S
C1120 C1128 1.378 . S
C1121 C1120 1.367 . S
C1121 C1129 1.433 . S
C1122 H1118 0.929 . S
C1122 C1124 1.378 . S
C1122 C1126 1.350 . S
C1123 C1126 1.463 . S
C1123 C1128 1.350 . S
C1123 N1131 1.427 . S
C1124 H1115 0.930 . S
C1124 C1122 1.378 . S
C1124 C1125 1.367 . S
C1125 C1124 1.367 . S
C1125 C1127 1.433 . S
C1126 C1122 1.350 . S
C1126 C1123 1.463 . S
C1126 N1130 1.427 . S
C1127 H1117 0.929 . S
C1127 C1125 1.433 . S
C1127 N1130 1.384 . S
C1128 H1119 0.929 . S
C1128 C1120 1.378 . S
C1128 C1123 1.350 . S
C1129 H1116 0.929 . S
C1129 C1121 1.433 . S
C1129 N1131 1.384 . S
N1130 C1126 1.427 . S
N1130 C1127 1.384 . S
N1131 C1123 1.427 . S
N1131 C1129 1.384 . S
H1132 C1138 0.930 . S
H1133 C1142 0.930 . S
H1134 C1147 0.929 . S
H1135 C1145 0.929 . S
H1136 C1140 0.929 . S
H1137 C1146 0.929 . S
C1138 H1132 0.930 . S
C1138 C1139 1.367 1_565 S
C1138 C1146 1.378 . S
C1139 C1138 1.367 1_545 S
C1139 C1147 1.433 . S
C1140 H1136 0.929 . S
C1140 C1142 1.378 . S
C1140 C1144 1.350 1_545 S
C1141 C1144 1.463 . S
C1141 C1146 1.350 . S
C1141 N1149 1.427 1_565 S
C1142 H1133 0.930 . S
C1142 C1140 1.378 . S
C1142 C1143 1.367 1_545 S
C1143 C1142 1.367 1_565 S
C1143 C1145 1.433 . S
C1144 C1140 1.350 1_565 S
C1144 C1141 1.463 . S
C1144 N1148 1.427 . S
C1145 H1135 0.929 . S
C1145 C1143 1.433 . S
C1145 N1148 1.384 . S
C1146 H1137 0.929 . S
C1146 C1138 1.378 . S
C1146 C1141 1.350 . S
C1147 H1134 0.929 . S
C1147 C1139 1.433 . S
C1147 N1149 1.384 . S
N1148 C1144 1.427 . S
N1148 C1145 1.384 . S
N1149 C1141 1.427 1_545 S
N1149 C1147 1.384 . S
H1150 C1156 0.930 . S
H1151 C1160 0.930 . S
H1152 C1165 0.929 . S
H1153 C1163 0.929 . S
H1154 C1158 0.929 . S
H1155 C1164 0.929 . S
C1156 H1150 0.930 . S
C1156 C1157 1.367 . S
C1156 C1164 1.378 . S
C1157 C1156 1.367 . S
C1157 C1165 1.433 . S
C1158 H1154 0.929 . S
C1158 C1160 1.378 . S
C1158 C1162 1.350 . S
C1159 C1162 1.463 . S
C1159 C1164 1.350 . S
C1159 N1167 1.427 . S
C1160 H1151 0.930 . S
C1160 C1158 1.378 . S
C1160 C1161 1.367 . S
C1161 C1160 1.367 . S
C1161 C1163 1.433 . S
C1162 C1158 1.350 . S
C1162 C1159 1.463 . S
C1162 N1166 1.427 . S
C1163 H1153 0.929 . S
C1163 C1161 1.433 . S
C1163 N1166 1.384 . S
C1164 H1155 0.929 . S
C1164 C1156 1.378 . S
C1164 C1159 1.350 . S
C1165 H1152 0.929 . S
C1165 C1157 1.433 . S
C1165 N1167 1.384 . S
N1166 C1162 1.427 . S
N1166 C1163 1.384 . S
N1167 C1159 1.427 . S
N1167 C1165 1.384 . S
H1168 C1174 0.930 . S
H1169 C1178 0.930 . S
H1170 C1183 0.929 1_556 S
H1171 C1181 0.929 . S
H1172 C1176 0.929 . S
H1173 C1182 0.929 . S
C1174 H1168 0.930 . S
C1174 C1175 1.367 . S
C1174 C1182 1.378 . S
C1175 C1174 1.367 . S
C1175 C1183 1.433 . S
C1176 H1172 0.929 . S
C1176 C1178 1.378 . S
C1176 C1180 1.350 1_556 S
C1177 C1180 1.463 . S
C1177 C1182 1.350 . S
C1177 N1185 1.427 . S
C1178 H1169 0.930 . S
C1178 C1176 1.378 . S
C1178 C1179 1.367 . S
C1179 C1178 1.367 . S
C1179 C1181 1.433 1_556 S
C1180 C1176 1.350 1_554 S
C1180 C1177 1.463 . S
C1180 N1184 1.427 . S
C1181 H1171 0.929 . S
C1181 C1179 1.433 1_554 S
C1181 N1184 1.384 . S
C1182 H1173 0.929 . S
C1182 C1174 1.378 . S
C1182 C1177 1.350 . S
C1183 H1170 0.929 1_554 S
C1183 C1175 1.433 . S
C1183 N1185 1.384 . S
N1184 C1180 1.427 . S
N1184 C1181 1.384 . S
N1185 C1177 1.427 . S
N1185 C1183 1.384 . S
H1186 C1192 0.930 . S
H1187 C1196 0.930 . S
H1188 C1201 0.929 . S
H1189 C1199 0.929 . S
H1190 C1194 0.929 . S
H1191 C1200 0.929 . S
C1192 H1186 0.930 . S
C1192 C1193 1.367 . S
C1192 C1200 1.378 . S
C1193 C1192 1.367 . S
C1193 C1201 1.433 . S
C1194 H1190 0.929 . S
C1194 C1196 1.378 . S
C1194 C1198 1.350 . S
C1195 C1198 1.463 . S
C1195 C1200 1.350 . S
C1195 N1203 1.427 . S
C1196 H1187 0.930 . S
C1196 C1194 1.378 . S
C1196 C1197 1.367 . S
C1197 C1196 1.367 . S
C1197 C1199 1.433 . S
C1198 C1194 1.350 . S
C1198 C1195 1.463 . S
C1198 N1202 1.427 . S
C1199 H1189 0.929 . S
C1199 C1197 1.433 . S
C1199 N1202 1.384 . S
C1200 H1191 0.929 . S
C1200 C1192 1.378 . S
C1200 C1195 1.350 . S
C1201 H1188 0.929 . S
C1201 C1193 1.433 . S
C1201 N1203 1.384 . S
N1202 C1198 1.427 . S
N1202 C1199 1.384 . S
N1203 C1195 1.427 . S
N1203 C1201 1.384 . S
H1204 C1210 0.930 . S
H1205 C1214 0.930 . S
H1206 C1219 0.929 . S
H1207 C1217 0.929 . S
H1208 C1212 0.929 . S
H1209 C1218 0.929 . S
C1210 H1204 0.930 . S
C1210 C1211 1.367 . S
C1210 C1218 1.378 . S
C1211 C1210 1.367 . S
C1211 C1219 1.433 . S
C1212 H1208 0.929 . S
C1212 C1214 1.378 . S
C1212 C1216 1.350 . S
C1213 C1216 1.463 . S
C1213 C1218 1.350 . S
C1213 N1221 1.427 . S
C1214 H1205 0.930 . S
C1214 C1212 1.378 . S
C1214 C1215 1.367 . S
C1215 C1214 1.367 . S
C1215 C1217 1.433 . S
C1216 C1212 1.350 . S
C1216 C1213 1.463 . S
C1216 N1220 1.427 . S
C1217 H1207 0.929 . S
C1217 C1215 1.433 . S
C1217 N1220 1.384 . S
C1218 H1209 0.929 . S
C1218 C1210 1.378 . S
C1218 C1213 1.350 . S
C1219 H1206 0.929 . S
C1219 C1211 1.433 . S
C1219 N1221 1.384 . S
N1220 C1216 1.427 . S
N1220 C1217 1.384 . S
N1221 C1213 1.427 . S
N1221 C1219 1.384 . S
H1222 C1228 0.930 . S
H1223 C1232 0.930 . S
H1224 C1237 0.929 . S
H1225 C1235 0.929 . S
H1226 C1230 0.929 . S
H1227 C1236 0.929 . S
C1228 H1222 0.930 . S
C1228 C1229 1.367 . S
C1228 C1236 1.378 . S
C1229 C1228 1.367 . S
C1229 C1237 1.433 . S
C1230 H1226 0.929 . S
C1230 C1232 1.378 . S
C1230 C1234 1.350 . S
C1231 C1234 1.463 . S
C1231 C1236 1.350 . S
C1231 N1239 1.427 . S
C1232 H1223 0.930 . S
C1232 C1230 1.378 . S
C1232 C1233 1.367 . S
C1233 C1232 1.367 . S
C1233 C1235 1.433 . S
C1234 C1230 1.350 . S
C1234 C1231 1.463 . S
C1234 N1238 1.427 . S
C1235 H1225 0.929 . S
C1235 C1233 1.433 . S
C1235 N1238 1.384 . S
C1236 H1227 0.929 . S
C1236 C1228 1.378 . S
C1236 C1231 1.350 . S
C1237 H1224 0.929 . S
C1237 C1229 1.433 . S
C1237 N1239 1.384 . S
N1238 C1234 1.427 . S
N1238 C1235 1.384 . S
N1239 C1231 1.427 . S
N1239 C1237 1.384 . S
H1240 C1246 0.930 . S
H1241 C1250 0.930 . S
H1242 C1255 0.929 . S
H1243 C1253 0.929 . S
H1244 C1248 0.929 . S
H1245 C1254 0.929 . S
C1246 H1240 0.930 . S
C1246 C1247 1.367 . S
C1246 C1254 1.378 . S
C1247 C1246 1.367 . S
C1247 C1255 1.433 . S
C1248 H1244 0.929 . S
C1248 C1250 1.378 . S
C1248 C1252 1.350 . S
C1249 C1252 1.463 . S
C1249 C1254 1.350 . S
C1249 N1257 1.427 . S
C1250 H1241 0.930 . S
C1250 C1248 1.378 . S
C1250 C1251 1.367 . S
C1251 C1250 1.367 . S
C1251 C1253 1.433 . S
C1252 C1248 1.350 . S
C1252 C1249 1.463 . S
C1252 N1256 1.427 . S
C1253 H1243 0.929 . S
C1253 C1251 1.433 . S
C1253 N1256 1.384 . S
C1254 H1245 0.929 . S
C1254 C1246 1.378 . S
C1254 C1249 1.350 . S
C1255 H1242 0.929 . S
C1255 C1247 1.433 . S
C1255 N1257 1.384 . S
N1256 C1252 1.427 . S
N1256 C1253 1.384 . S
N1257 C1249 1.427 . S
N1257 C1255 1.384 . S
H1258 C1264 0.930 . S
H1259 C1268 0.930 . S
H1260 C1273 0.929 . S
H1261 C1271 0.929 1_545 S
H1262 C1266 0.929 . S
H1263 C1272 0.929 . S
C1264 H1258 0.930 . S
C1264 C1265 1.367 . S
C1264 C1272 1.378 . S
C1265 C1264 1.367 . S
C1265 C1273 1.433 . S
C1266 H1262 0.929 . S
C1266 C1268 1.378 . S
C1266 C1270 1.350 . S
C1267 C1270 1.463 . S
C1267 C1272 1.350 . S
C1267 N1275 1.427 . S
C1268 H1259 0.930 . S
C1268 C1266 1.378 . S
C1268 C1269 1.367 . S
C1269 C1268 1.367 . S
C1269 C1271 1.433 . S
C1270 C1266 1.350 . S
C1270 C1267 1.463 . S
C1270 N1274 1.427 . S
C1271 H1261 0.929 1_565 S
C1271 C1269 1.433 . S
C1271 N1274 1.384 . S
C1272 H1263 0.929 . S
C1272 C1264 1.378 . S
C1272 C1267 1.350 . S
C1273 H1260 0.929 . S
C1273 C1265 1.433 . S
C1273 N1275 1.384 . S
N1274 C1270 1.427 . S
N1274 C1271 1.384 . S
N1275 C1267 1.427 . S
N1275 C1273 1.384 . S
H1276 C1282 0.930 . S
H1277 C1286 0.930 . S
H1278 C1291 0.929 . S
H1279 C1289 0.929 . S
H1280 C1284 0.929 . S
H1281 C1290 0.929 . S
C1282 H1276 0.930 . S
C1282 C1283 1.367 . S
C1282 C1290 1.378 . S
C1283 C1282 1.367 . S
C1283 C1291 1.433 . S
C1284 H1280 0.929 . S
C1284 C1286 1.378 . S
C1284 C1288 1.350 . S
C1285 C1288 1.463 . S
C1285 C1290 1.350 . S
C1285 N1293 1.427 . S
C1286 H1277 0.930 . S
C1286 C1284 1.378 . S
C1286 C1287 1.367 . S
C1287 C1286 1.367 . S
C1287 C1289 1.433 . S
C1288 C1284 1.350 . S
C1288 C1285 1.463 . S
C1288 N1292 1.427 . S
C1289 H1279 0.929 . S
C1289 C1287 1.433 . S
C1289 N1292 1.384 . S
C1290 H1281 0.929 . S
C1290 C1282 1.378 . S
C1290 C1285 1.350 . S
C1291 H1278 0.929 . S
C1291 C1283 1.433 . S
C1291 N1293 1.384 . S
N1292 C1288 1.427 . S
N1292 C1289 1.384 . S
N1293 C1285 1.427 . S
N1293 C1291 1.384 . S
H1294 C1300 0.930 . S
H1295 C1304 0.930 . S
H1296 C1309 0.929 . S
H1297 C1307 0.929 . S
H1298 C1302 0.929 . S
H1299 C1308 0.929 . S
C1300 H1294 0.930 . S
C1300 C1301 1.367 . S
C1300 C1308 1.378 . S
C1301 C1300 1.367 . S
C1301 C1309 1.433 . S
C1302 H1298 0.929 . S
C1302 C1304 1.378 . S
C1302 C1306 1.350 . S
C1303 C1306 1.463 . S
C1303 C1308 1.350 . S
C1303 N1311 1.427 . S
C1304 H1295 0.930 . S
C1304 C1302 1.378 . S
C1304 C1305 1.367 . S
C1305 C1304 1.367 . S
C1305 C1307 1.433 . S
C1306 C1302 1.350 . S
C1306 C1303 1.463 . S
C1306 N1310 1.427 . S
C1307 H1297 0.929 . S
C1307 C1305 1.433 . S
C1307 N1310 1.384 . S
C1308 H1299 0.929 . S
C1308 C1300 1.378 . S
C1308 C1303 1.350 . S
C1309 H1296 0.929 . S
C1309 C1301 1.433 . S
C1309 N1311 1.384 . S
N1310 C1306 1.427 . S
N1310 C1307 1.384 . S
N1311 C1303 1.427 . S
N1311 C1309 1.384 . S
H1312 C1318 0.930 . S
H1313 C1322 0.955 . S
H1314 C1327 0.929 . S
H1315 C1325 0.929 . S
H1316 C1320 0.929 . S
H1317 C1326 0.945 . S
C1318 H1312 0.930 . S
C1318 C1319 1.353 1_655 S
C1318 C1326 1.389 . S
C1319 C1318 1.353 1_455 S
C1319 C1327 1.457 . S
C1320 H1316 0.929 . S
C1320 C1322 1.356 1_556 S
C1320 C1324 1.350 . S
C1321 C1324 1.463 . S
C1321 C1326 1.324 1_455 S
C1321 N1329 1.427 . S
C1322 H1313 0.955 . S
C1322 C1320 1.356 1_554 S
C1322 C1323 1.364 1_554 S
C1323 C1322 1.364 1_556 S
C1323 C1325 1.433 . S
C1324 C1320 1.350 . S
C1324 C1321 1.463 . S
C1324 N1328 1.427 . S
C1325 H1315 0.929 . S
C1325 C1323 1.433 . S
C1325 N1328 1.384 . S
C1326 H1317 0.945 . S
C1326 C1318 1.389 . S
C1326 C1321 1.324 1_655 S
C1327 H1314 0.929 . S
C1327 C1319 1.457 . S
C1327 N1329 1.384 . S
N1328 C1324 1.427 . S
N1328 C1325 1.384 . S
N1329 C1321 1.427 . S
N1329 C1327 1.384 . S
H1330 C1336 0.930 . S
H1331 C1340 0.930 . S
H1332 C1345 0.929 . S
H1333 C1343 0.929 . S
H1334 C1338 0.929 . S
H1335 C1344 0.929 . S
C1336 H1330 0.930 . S
C1336 C1337 1.367 . S
C1336 C1344 1.378 . S
C1337 C1336 1.367 . S
C1337 C1345 1.433 . S
C1338 H1334 0.929 . S
C1338 C1340 1.378 . S
C1338 C1342 1.350 . S
C1339 C1342 1.463 . S
C1339 C1344 1.350 . S
C1339 N1347 1.427 . S
C1340 H1331 0.930 . S
C1340 C1338 1.378 . S
C1340 C1341 1.367 . S
C1341 C1340 1.367 . S
C1341 C1343 1.433 . S
C1342 C1338 1.350 . S
C1342 C1339 1.463 . S
C1342 N1346 1.427 . S
C1343 H1333 0.929 . S
C1343 C1341 1.433 . S
C1343 N1346 1.384 . S
C1344 H1335 0.929 . S
C1344 C1336 1.378 . S
C1344 C1339 1.350 . S
C1345 H1332 0.929 . S
C1345 C1337 1.433 . S
C1345 N1347 1.384 . S
N1346 C1342 1.427 . S
N1346 C1343 1.384 . S
N1347 C1339 1.427 . S
N1347 C1345 1.384 . S
H1348 C1354 0.930 . S
H1349 C1358 0.930 . S
H1350 C1363 0.929 . S
H1351 C1361 0.929 . S
H1352 C1356 0.929 . S
H1353 C1362 0.929 . S
C1354 H1348 0.930 . S
C1354 C1355 1.367 . S
C1354 C1362 1.378 . S
C1355 C1354 1.367 . S
C1355 C1363 1.433 . S
C1356 H1352 0.929 . S
C1356 C1358 1.378 . S
C1356 C1360 1.350 . S
C1357 C1360 1.463 . S
C1357 C1362 1.350 . S
C1357 N1365 1.427 . S
C1358 H1349 0.930 . S
C1358 C1356 1.378 . S
C1358 C1359 1.367 . S
C1359 C1358 1.367 . S
C1359 C1361 1.433 . S
C1360 C1356 1.350 . S
C1360 C1357 1.463 . S
C1360 N1364 1.427 . S
C1361 H1351 0.929 . S
C1361 C1359 1.433 . S
C1361 N1364 1.384 . S
C1362 H1353 0.929 . S
C1362 C1354 1.378 . S
C1362 C1357 1.350 . S
C1363 H1350 0.929 . S
C1363 C1355 1.433 . S
C1363 N1365 1.384 . S
N1364 C1360 1.427 . S
N1364 C1361 1.384 . S
N1365 C1357 1.427 . S
N1365 C1363 1.384 . S
H1366 C1372 0.930 . S
H1367 C1376 0.930 . S
H1368 C1381 0.929 . S
H1369 C1379 0.929 . S
H1370 C1374 0.929 . S
H1371 C1380 0.929 . S
C1372 H1366 0.930 . S
C1372 C1373 1.367 . S
C1372 C1380 1.378 . S
C1373 C1372 1.367 . S
C1373 C1381 1.433 . S
C1374 H1370 0.929 . S
C1374 C1376 1.378 . S
C1374 C1378 1.350 . S
C1375 C1378 1.463 . S
C1375 C1380 1.350 . S
C1375 N1383 1.427 . S
C1376 H1367 0.930 . S
C1376 C1374 1.378 . S
C1376 C1377 1.367 . S
C1377 C1376 1.367 . S
C1377 C1379 1.433 . S
C1378 C1374 1.350 . S
C1378 C1375 1.463 . S
C1378 N1382 1.427 . S
C1379 H1369 0.929 . S
C1379 C1377 1.433 . S
C1379 N1382 1.384 . S
C1380 H1371 0.929 . S
C1380 C1372 1.378 . S
C1380 C1375 1.350 . S
C1381 H1368 0.929 . S
C1381 C1373 1.433 . S
C1381 N1383 1.384 . S
N1382 C1378 1.427 . S
N1382 C1379 1.384 . S
N1383 C1375 1.427 . S
N1383 C1381 1.384 . S
H1384 C1390 0.930 . S
H1385 C1394 0.930 . S
H1386 C1399 0.929 . S
H1387 C1397 0.929 . S
H1388 C1392 0.929 . S
H1389 C1398 0.929 . S
C1390 H1384 0.930 . S
C1390 C1391 1.367 . S
C1390 C1398 1.378 . S
C1391 C1390 1.367 . S
C1391 C1399 1.433 . S
C1392 H1388 0.929 . S
C1392 C1394 1.378 . S
C1392 C1396 1.350 . S
C1393 C1396 1.463 . S
C1393 C1398 1.350 . S
C1393 N1401 1.427 . S
C1394 H1385 0.930 . S
C1394 C1392 1.378 . S
C1394 C1395 1.367 . S
C1395 C1394 1.367 . S
C1395 C1397 1.433 . S
C1396 C1392 1.350 . S
C1396 C1393 1.463 . S
C1396 N1400 1.427 . S
C1397 H1387 0.929 . S
C1397 C1395 1.433 . S
C1397 N1400 1.384 . S
C1398 H1389 0.929 . S
C1398 C1390 1.378 . S
C1398 C1393 1.350 . S
C1399 H1386 0.929 . S
C1399 C1391 1.433 . S
C1399 N1401 1.384 . S
N1400 C1396 1.427 . S
N1400 C1397 1.384 . S
N1401 C1393 1.427 . S
N1401 C1399 1.384 . S
H1402 C1408 0.930 . S
H1403 C1412 0.930 . S
H1404 C1417 0.929 . S
H1405 C1415 0.929 . S
H1406 C1410 0.929 . S
H1407 C1416 0.929 . S
C1408 H1402 0.930 . S
C1408 C1409 1.367 . S
C1408 C1416 1.378 . S
C1409 C1408 1.367 . S
C1409 C1417 1.433 . S
C1410 H1406 0.929 . S
C1410 C1412 1.378 . S
C1410 C1414 1.350 . S
C1411 C1414 1.463 . S
C1411 C1416 1.350 . S
C1411 N1419 1.427 . S
C1412 H1403 0.930 . S
C1412 C1410 1.378 . S
C1412 C1413 1.367 . S
C1413 C1412 1.367 . S
C1413 C1415 1.433 . S
C1414 C1410 1.350 . S
C1414 C1411 1.463 . S
C1414 N1418 1.427 . S
C1415 H1405 0.929 . S
C1415 C1413 1.433 . S
C1415 N1418 1.384 . S
C1416 H1407 0.929 . S
C1416 C1408 1.378 . S
C1416 C1411 1.350 . S
C1417 H1404 0.929 . S
C1417 C1409 1.433 . S
C1417 N1419 1.384 . S
N1418 C1414 1.427 . S
N1418 C1415 1.384 . S
N1419 C1411 1.427 . S
N1419 C1417 1.384 . S
H1420 C1426 0.930 . S
H1421 C1430 0.930 . S
H1422 C1435 0.929 . S
H1423 C1433 0.929 . S
H1424 C1428 0.929 . S
H1425 C1434 0.929 . S
C1426 H1420 0.930 . S
C1426 C1427 1.367 . S
C1426 C1434 1.378 . S
C1427 C1426 1.367 . S
C1427 C1435 1.433 . S
C1428 H1424 0.929 . S
C1428 C1430 1.378 . S
C1428 C1432 1.350 . S
C1429 C1432 1.463 . S
C1429 C1434 1.350 . S
C1429 N1437 1.427 . S
C1430 H1421 0.930 . S
C1430 C1428 1.378 . S
C1430 C1431 1.367 . S
C1431 C1430 1.367 . S
C1431 C1433 1.433 . S
C1432 C1428 1.350 . S
C1432 C1429 1.463 . S
C1432 N1436 1.427 . S
C1433 H1423 0.929 . S
C1433 C1431 1.433 . S
C1433 N1436 1.384 . S
C1434 H1425 0.929 . S
C1434 C1426 1.378 . S
C1434 C1429 1.350 . S
C1435 H1422 0.929 . S
C1435 C1427 1.433 . S
C1435 N1437 1.384 . S
N1436 C1432 1.427 . S
N1436 C1433 1.384 . S
N1437 C1429 1.427 . S
N1437 C1435 1.384 . S
H1438 C1444 0.930 . S
H1439 C1448 0.930 . S
H1440 C1453 0.929 . S
H1441 C1451 0.929 . S
H1442 C1446 0.929 . S
H1443 C1452 0.929 . S
C1444 H1438 0.930 . S
C1444 C1445 1.367 . S
C1444 C1452 1.378 . S
C1445 C1444 1.367 . S
C1445 C1453 1.433 . S
C1446 H1442 0.929 . S
C1446 C1448 1.378 . S
C1446 C1450 1.350 . S
C1447 C1450 1.463 . S
C1447 C1452 1.350 . S
C1447 N1455 1.427 . S
C1448 H1439 0.930 . S
C1448 C1446 1.378 . S
C1448 C1449 1.367 . S
C1449 C1448 1.367 . S
C1449 C1451 1.433 . S
C1450 C1446 1.350 . S
C1450 C1447 1.463 . S
C1450 N1454 1.427 . S
C1451 H1441 0.929 . S
C1451 C1449 1.433 . S
C1451 N1454 1.384 . S
C1452 H1443 0.929 . S
C1452 C1444 1.378 . S
C1452 C1447 1.350 . S
C1453 H1440 0.929 . S
C1453 C1445 1.433 . S
C1453 N1455 1.384 . S
N1454 C1450 1.427 . S
N1454 C1451 1.384 . S
N1455 C1447 1.427 . S
N1455 C1453 1.384 . S
H1456 C1462 0.930 . S
H1457 C1466 0.930 . S
H1458 C1471 0.929 . S
H1459 C1469 0.929 1_565 S
H1460 C1464 0.929 . S
H1461 C1470 0.929 . S
C1462 H1456 0.930 . S
C1462 C1463 1.367 1_565 S
C1462 C1470 1.378 . S
C1463 C1462 1.367 1_545 S
C1463 C1471 1.433 . S
C1464 H1460 0.929 . S
C1464 C1466 1.378 1_655 S
C1464 C1468 1.350 . S
C1465 C1468 1.463 . S
C1465 C1470 1.350 1_545 S
C1465 N1473 1.427 . S
C1466 H1457 0.930 . S
C1466 C1464 1.378 1_455 S
C1466 C1467 1.369 . S
C1467 C1466 1.369 . S
C1467 C1469 1.413 1_455 S
C1468 C1464 1.350 . S
C1468 C1465 1.463 . S
C1468 N1472 1.427 1_545 S
C1469 H1459 0.929 1_545 S
C1469 C1467 1.413 1_655 S
C1469 N1472 1.384 1_545 S
C1470 H1461 0.929 . S
C1470 C1462 1.378 . S
C1470 C1465 1.350 1_565 S
C1471 H1458 0.929 . S
C1471 C1463 1.433 . S
C1471 N1473 1.384 . S
N1472 C1468 1.427 1_565 S
N1472 C1469 1.384 1_565 S
N1473 C1465 1.427 . S
N1473 C1471 1.384 . S
H1474 C1480 0.930 . S
H1475 C1484 0.930 . S
H1476 C1489 0.929 . S
H1477 C1487 0.929 . S
H1478 C1482 0.929 . S
H1479 C1488 0.929 . S
C1480 H1474 0.930 . S
C1480 C1481 1.367 . S
C1480 C1488 1.378 . S
C1481 C1480 1.367 . S
C1481 C1489 1.433 . S
C1482 H1478 0.929 . S
C1482 C1484 1.378 . S
C1482 C1486 1.350 . S
C1483 C1486 1.463 . S
C1483 C1488 1.350 . S
C1483 N1491 1.427 . S
C1484 H1475 0.930 . S
C1484 C1482 1.378 . S
C1484 C1485 1.367 . S
C1485 C1484 1.367 . S
C1485 C1487 1.433 . S
C1486 C1482 1.350 . S
C1486 C1483 1.463 . S
C1486 N1490 1.427 . S
C1487 H1477 0.929 . S
C1487 C1485 1.433 . S
C1487 N1490 1.384 . S
C1488 H1479 0.929 . S
C1488 C1480 1.378 . S
C1488 C1483 1.350 . S
C1489 H1476 0.929 . S
C1489 C1481 1.433 . S
C1489 N1491 1.384 . S
N1490 C1486 1.427 . S
N1490 C1487 1.384 . S
N1491 C1483 1.427 . S
N1491 C1489 1.384 . S
H1492 C1498 0.930 . S
H1493 C1502 0.930 . S
H1494 C1507 0.929 . S
H1495 C1505 0.929 . S
H1496 C1500 0.929 . S
H1497 C1506 0.929 . S
C1498 H1492 0.930 . S
C1498 C1499 1.367 1_565 S
C1498 C1506 1.378 . S
C1499 C1498 1.367 1_545 S
C1499 C1507 1.433 . S
C1500 H1496 0.929 . S
C1500 C1502 1.378 . S
C1500 C1504 1.350 . S
C1501 C1504 1.463 . S
C1501 C1506 1.350 1_545 S
C1501 N1509 1.427 . S
C1502 H1493 0.930 . S
C1502 C1500 1.378 . S
C1502 C1503 1.396 . S
C1503 C1502 1.396 . S
C1503 C1505 1.408 1_545 S
C1504 C1500 1.350 . S
C1504 C1501 1.463 . S
C1504 N1508 1.427 1_545 S
C1505 H1495 0.929 . S
C1505 C1503 1.408 1_565 S
C1505 N1508 1.384 . S
C1506 H1497 0.929 . S
C1506 C1498 1.378 . S
C1506 C1501 1.350 1_565 S
C1507 H1494 0.929 . S
C1507 C1499 1.433 . S
C1507 N1509 1.384 . S
N1508 C1504 1.427 1_565 S
N1508 C1505 1.384 . S
N1509 C1501 1.427 . S
N1509 C1507 1.384 . S
H1510 C1516 0.930 . S
H1511 C1520 0.930 . S
H1512 C1525 0.929 . S
H1513 C1523 0.929 . S
H1514 C1518 0.929 . S
H1515 C1524 0.929 . S
C1516 H1510 0.930 . S
C1516 C1517 1.367 . S
C1516 C1524 1.378 . S
C1517 C1516 1.367 . S
C1517 C1525 1.433 . S
C1518 H1514 0.929 . S
C1518 C1520 1.378 . S
C1518 C1522 1.350 . S
C1519 C1522 1.463 . S
C1519 C1524 1.350 . S
C1519 N1527 1.427 . S
C1520 H1511 0.930 . S
C1520 C1518 1.378 . S
C1520 C1521 1.367 . S
C1521 C1520 1.367 . S
C1521 C1523 1.433 . S
C1522 C1518 1.350 . S
C1522 C1519 1.463 . S
C1522 N1526 1.427 . S
C1523 H1513 0.929 . S
C1523 C1521 1.433 . S
C1523 N1526 1.384 . S
C1524 H1515 0.929 . S
C1524 C1516 1.378 . S
C1524 C1519 1.350 . S
C1525 H1512 0.929 . S
C1525 C1517 1.433 . S
C1525 N1527 1.384 . S
N1526 C1522 1.427 . S
N1526 C1523 1.384 . S
N1527 C1519 1.427 . S
N1527 C1525 1.384 . S
H1528 C1534 0.930 . S
H1529 C1538 0.930 1_455 S
H1530 C1543 0.929 . S
H1531 C1541 0.929 . S
H1532 C1536 0.929 . S
H1533 C1542 0.929 . S
C1534 H1528 0.930 . S
C1534 C1535 1.367 . S
C1534 C1542 1.378 . S
C1535 C1534 1.367 . S
C1535 C1543 1.433 1_545 S
C1536 H1532 0.929 . S
C1536 C1538 1.378 . S
C1536 C1540 1.350 . S
C1537 C1540 1.463 . S
C1537 C1542 1.350 1_565 S
C1537 N1545 1.427 . S
C1538 H1529 0.930 1_655 S
C1538 C1536 1.378 . S
C1538 C1539 1.367 . S
C1539 C1538 1.367 . S
C1539 C1541 1.433 . S
C1540 C1536 1.350 . S
C1540 C1537 1.463 . S
C1540 N1544 1.427 . S
C1541 H1531 0.929 . S
C1541 C1539 1.433 . S
C1541 N1544 1.384 . S
C1542 H1533 0.929 . S
C1542 C1534 1.378 . S
C1542 C1537 1.350 1_545 S
C1543 H1530 0.929 . S
C1543 C1535 1.433 1_565 S
C1543 N1545 1.384 . S
N1544 C1540 1.427 . S
N1544 C1541 1.384 . S
N1545 C1537 1.427 . S
N1545 C1543 1.384 . S
H1546 C1552 0.930 . S
H1547 C1556 0.930 . S
H1548 C1561 0.929 . S
H1549 C1559 0.929 . S
H1550 C1554 0.929 . S
H1551 C1560 0.929 . S
C1552 H1546 0.930 . S
C1552 C1553 1.367 . S
C1552 C1560 1.378 . S
C1553 C1552 1.367 . S
C1553 C1561 1.433 . S
C1554 H1550 0.929 . S
C1554 C1556 1.378 . S
C1554 C1558 1.350 . S
C1555 C1558 1.463 . S
C1555 C1560 1.350 . S
C1555 N1563 1.427 . S
C1556 H1547 0.930 . S
C1556 C1554 1.378 . S
C1556 C1557 1.367 . S
C1557 C1556 1.367 . S
C1557 C1559 1.433 . S
C1558 C1554 1.350 . S
C1558 C1555 1.463 . S
C1558 N1562 1.427 . S
C1559 H1549 0.929 . S
C1559 C1557 1.433 . S
C1559 N1562 1.384 . S
C1560 H1551 0.929 . S
C1560 C1552 1.378 . S
C1560 C1555 1.350 . S
C1561 H1548 0.929 . S
C1561 C1553 1.433 . S
C1561 N1563 1.384 . S
N1562 C1558 1.427 . S
N1562 C1559 1.384 . S
N1563 C1555 1.427 . S
N1563 C1561 1.384 . S
H1564 C1570 0.930 . S
H1565 C1574 0.930 . S
H1566 C1579 0.929 . S
H1567 C1577 0.929 . S
H1568 C1572 0.929 . S
H1569 C1578 0.947 . S
C1570 H1564 0.930 . S
C1570 C1571 1.367 1_565 S
C1570 C1578 1.383 . S
C1571 C1570 1.367 1_545 S
C1571 C1579 1.433 . S
C1572 H1568 0.929 . S
C1572 C1574 1.378 . S
C1572 C1576 1.350 . S
C1573 C1576 1.463 . S
C1573 C1578 1.326 1_545 S
C1573 N1581 1.427 . S
C1574 H1565 0.930 . S
C1574 C1572 1.378 . S
C1574 C1575 1.367 . S
C1575 C1574 1.367 . S
C1575 C1577 1.433 . S
C1576 C1572 1.350 . S
C1576 C1573 1.463 . S
C1576 N1580 1.427 . S
C1577 H1567 0.929 . S
C1577 C1575 1.433 . S
C1577 N1580 1.384 . S
C1578 H1569 0.947 . S
C1578 C1570 1.383 . S
C1578 C1573 1.326 1_565 S
C1579 H1566 0.929 . S
C1579 C1571 1.433 . S
C1579 N1581 1.384 . S
N1580 C1576 1.427 . S
N1580 C1577 1.384 . S
N1581 C1573 1.427 . S
N1581 C1579 1.384 . S
H1582 C1588 0.930 . S
H1583 C1592 0.930 . S
H1584 C1597 0.929 . S
H1585 C1595 0.929 . S
H1586 C1590 0.929 . S
H1587 C1596 0.929 . S
C1588 H1582 0.930 . S
C1588 C1589 1.367 . S
C1588 C1596 1.378 . S
C1589 C1588 1.367 . S
C1589 C1597 1.433 . S
C1590 H1586 0.929 . S
C1590 C1592 1.378 . S
C1590 C1594 1.350 . S
C1591 C1594 1.463 . S
C1591 C1596 1.350 . S
C1591 N1599 1.427 . S
C1592 H1583 0.930 . S
C1592 C1590 1.378 . S
C1592 C1593 1.367 . S
C1593 C1592 1.367 . S
C1593 C1595 1.433 . S
C1594 C1590 1.350 . S
C1594 C1591 1.463 . S
C1594 N1598 1.427 . S
C1595 H1585 0.929 . S
C1595 C1593 1.433 . S
C1595 N1598 1.384 . S
C1596 H1587 0.929 . S
C1596 C1588 1.378 . S
C1596 C1591 1.350 . S
C1597 H1584 0.929 . S
C1597 C1589 1.433 . S
C1597 N1599 1.384 . S
N1598 C1594 1.427 . S
N1598 C1595 1.384 . S
N1599 C1591 1.427 . S
N1599 C1597 1.384 . S
H1600 C1606 0.930 . S
H1601 C1610 0.930 . S
H1602 C1615 0.929 . S
H1603 C1613 0.929 1_545 S
H1604 C1608 0.929 . S
H1605 C1614 0.929 . S
C1606 H1600 0.930 . S
C1606 C1607 1.367 . S
C1606 C1614 1.378 . S
C1607 C1606 1.367 . S
C1607 C1615 1.433 . S
C1608 H1604 0.929 . S
C1608 C1610 1.378 . S
C1608 C1612 1.350 . S
C1609 C1612 1.463 . S
C1609 C1614 1.350 . S
C1609 N1617 1.427 . S
C1610 H1601 0.930 . S
C1610 C1608 1.378 . S
C1610 C1611 1.367 . S
C1611 C1610 1.367 . S
C1611 C1613 1.433 . S
C1612 C1608 1.350 . S
C1612 C1609 1.463 . S
C1612 N1616 1.427 . S
C1613 H1603 0.929 1_565 S
C1613 C1611 1.433 . S
C1613 N1616 1.384 . S
C1614 H1605 0.929 . S
C1614 C1606 1.378 . S
C1614 C1609 1.350 . S
C1615 H1602 0.929 . S
C1615 C1607 1.433 . S
C1615 N1617 1.384 . S
N1616 C1612 1.427 . S
N1616 C1613 1.384 . S
N1617 C1609 1.427 . S
N1617 C1615 1.384 . S
H1618 C1624 0.930 . S
H1619 C1628 0.930 1_556 S
H1620 C1633 0.929 . S
H1621 C1631 0.929 . S
H1622 C1626 0.927 1_556 S
H1623 C1632 0.929 . S
C1624 H1618 0.930 . S
C1624 C1625 1.367 . S
C1624 C1632 1.378 . S
C1625 C1624 1.367 . S
C1625 C1633 1.433 1_554 S
C1626 H1622 0.927 1_554 S
C1626 C1628 1.378 . S
C1626 C1630 1.352 . S
C1627 C1630 1.463 . S
C1627 C1632 1.350 . S
C1627 N1635 1.427 1_554 S
C1628 H1619 0.930 1_554 S
C1628 C1626 1.378 . S
C1628 C1629 1.367 . S
C1629 C1628 1.367 . S
C1629 C1631 1.433 . S
C1630 C1626 1.352 . S
C1630 C1627 1.463 . S
C1630 N1634 1.427 . S
C1631 H1621 0.929 . S
C1631 C1629 1.433 . S
C1631 N1634 1.384 . S
C1632 H1623 0.929 . S
C1632 C1624 1.378 . S
C1632 C1627 1.350 . S
C1633 H1620 0.929 . S
C1633 C1625 1.433 1_556 S
C1633 N1635 1.384 . S
N1634 C1630 1.427 . S
N1634 C1631 1.384 . S
N1635 C1627 1.427 1_556 S
N1635 C1633 1.384 . S
H1636 C1642 0.930 . S
H1637 C1646 0.930 . S
H1638 C1651 0.929 . S
H1639 C1649 0.929 . S
H1640 C1644 0.929 . S
H1641 C1650 0.929 . S
C1642 H1636 0.930 . S
C1642 C1643 1.367 . S
C1642 C1650 1.378 . S
C1643 C1642 1.367 . S
C1643 C1651 1.433 . S
C1644 H1640 0.929 . S
C1644 C1646 1.378 . S
C1644 C1648 1.350 . S
C1645 C1648 1.463 . S
C1645 C1650 1.350 . S
C1645 N1653 1.427 . S
C1646 H1637 0.930 . S
C1646 C1644 1.378 . S
C1646 C1647 1.367 . S
C1647 C1646 1.367 . S
C1647 C1649 1.433 . S
C1648 C1644 1.350 . S
C1648 C1645 1.463 . S
C1648 N1652 1.427 . S
C1649 H1639 0.929 . S
C1649 C1647 1.433 . S
C1649 N1652 1.384 . S
C1650 H1641 0.929 . S
C1650 C1642 1.378 . S
C1650 C1645 1.350 . S
C1651 H1638 0.929 . S
C1651 C1643 1.433 . S
C1651 N1653 1.384 . S
N1652 C1648 1.427 . S
N1652 C1649 1.384 . S
N1653 C1645 1.427 . S
N1653 C1651 1.384 . S
H1654 C1660 0.930 . S
H1655 C1664 0.930 . S
H1656 C1669 0.929 . S
H1657 C1667 0.929 . S
H1658 C1662 0.929 . S
H1659 C1668 0.929 . S
C1660 H1654 0.930 . S
C1660 C1661 1.367 . S
C1660 C1668 1.378 . S
C1661 C1660 1.367 . S
C1661 C1669 1.433 . S
C1662 H1658 0.929 . S
C1662 C1664 1.378 . S
C1662 C1666 1.350 . S
C1663 C1666 1.463 . S
C1663 C1668 1.350 . S
C1663 N1671 1.427 . S
C1664 H1655 0.930 . S
C1664 C1662 1.378 . S
C1664 C1665 1.367 . S
C1665 C1664 1.367 . S
C1665 C1667 1.433 . S
C1666 C1662 1.350 . S
C1666 C1663 1.463 . S
C1666 N1670 1.427 . S
C1667 H1657 0.929 . S
C1667 C1665 1.433 . S
C1667 N1670 1.384 . S
C1668 H1659 0.929 . S
C1668 C1660 1.378 . S
C1668 C1663 1.350 . S
C1669 H1656 0.929 . S
C1669 C1661 1.433 . S
C1669 N1671 1.384 . S
N1670 C1666 1.427 . S
N1670 C1667 1.384 . S
N1671 C1663 1.427 . S
N1671 C1669 1.384 . S
H1672 C1678 0.930 . S
H1673 C1682 0.930 . S
H1674 C1687 0.929 . S
H1675 C1685 0.929 . S
H1676 C1680 0.929 . S
H1677 C1686 0.929 . S
C1678 H1672 0.930 . S
C1678 C1679 1.367 . S
C1678 C1686 1.378 . S
C1679 C1678 1.367 . S
C1679 C1687 1.433 . S
C1680 H1676 0.929 . S
C1680 C1682 1.378 . S
C1680 C1684 1.350 . S
C1681 C1684 1.463 . S
C1681 C1686 1.350 . S
C1681 N1689 1.427 . S
C1682 H1673 0.930 . S
C1682 C1680 1.378 . S
C1682 C1683 1.367 . S
C1683 C1682 1.367 . S
C1683 C1685 1.433 . S
C1684 C1680 1.350 . S
C1684 C1681 1.463 . S
C1684 N1688 1.427 . S
C1685 H1675 0.929 . S
C1685 C1683 1.433 . S
C1685 N1688 1.384 . S
C1686 H1677 0.929 . S
C1686 C1678 1.378 . S
C1686 C1681 1.350 . S
C1687 H1674 0.929 . S
C1687 C1679 1.433 . S
C1687 N1689 1.384 . S
N1688 C1684 1.427 . S
N1688 C1685 1.384 . S
N1689 C1681 1.427 . S
N1689 C1687 1.384 . S
H1690 C1696 0.930 . S
H1691 C1700 0.930 . S
H1692 C1705 0.929 . S
H1693 C1703 0.929 . S
H1694 C1698 0.929 . S
H1695 C1704 0.929 . S
C1696 H1690 0.930 . S
C1696 C1697 1.367 . S
C1696 C1704 1.378 . S
C1697 C1696 1.367 . S
C1697 C1705 1.433 . S
C1698 H1694 0.929 . S
C1698 C1700 1.378 . S
C1698 C1702 1.350 . S
C1699 C1702 1.463 . S
C1699 C1704 1.350 . S
C1699 N1707 1.427 . S
C1700 H1691 0.930 . S
C1700 C1698 1.378 . S
C1700 C1701 1.367 . S
C1701 C1700 1.367 . S
C1701 C1703 1.433 . S
C1702 C1698 1.350 . S
C1702 C1699 1.463 . S
C1702 N1706 1.427 . S
C1703 H1693 0.929 . S
C1703 C1701 1.433 . S
C1703 N1706 1.384 . S
C1704 H1695 0.929 . S
C1704 C1696 1.378 . S
C1704 C1699 1.350 . S
C1705 H1692 0.929 . S
C1705 C1697 1.433 . S
C1705 N1707 1.384 . S
N1706 C1702 1.427 . S
N1706 C1703 1.384 . S
N1707 C1699 1.427 . S
N1707 C1705 1.384 . S
H1708 C1714 0.930 . S
H1709 C1718 0.930 . S
H1710 C1723 0.929 . S
H1711 C1721 0.929 . S
H1712 C1716 0.929 . S
H1713 C1722 0.929 . S
C1714 H1708 0.930 . S
C1714 C1715 1.367 . S
C1714 C1722 1.378 . S
C1715 C1714 1.367 . S
C1715 C1723 1.433 . S
C1716 H1712 0.929 . S
C1716 C1718 1.378 . S
C1716 C1720 1.350 . S
C1717 C1720 1.463 . S
C1717 C1722 1.350 . S
C1717 N1725 1.427 . S
C1718 H1709 0.930 . S
C1718 C1716 1.378 . S
C1718 C1719 1.367 . S
C1719 C1718 1.367 . S
C1719 C1721 1.433 . S
C1720 C1716 1.350 . S
C1720 C1717 1.463 . S
C1720 N1724 1.427 . S
C1721 H1711 0.929 . S
C1721 C1719 1.433 . S
C1721 N1724 1.384 . S
C1722 H1713 0.929 . S
C1722 C1714 1.378 . S
C1722 C1717 1.350 . S
C1723 H1710 0.929 . S
C1723 C1715 1.433 . S
C1723 N1725 1.384 . S
N1724 C1720 1.427 . S
N1724 C1721 1.384 . S
N1725 C1717 1.427 . S
N1725 C1723 1.384 . S
H1726 C1732 0.930 . S
H1727 C1736 0.930 . S
H1728 C1741 0.929 . S
H1729 C1739 0.929 . S
H1730 C1734 0.929 . S
H1731 C1740 0.929 . S
C1732 H1726 0.930 . S
C1732 C1733 1.367 . S
C1732 C1740 1.378 . S
C1733 C1732 1.367 . S
C1733 C1741 1.433 . S
C1734 H1730 0.929 . S
C1734 C1736 1.378 . S
C1734 C1738 1.350 . S
C1735 C1738 1.463 . S
C1735 C1740 1.350 . S
C1735 N1743 1.427 . S
C1736 H1727 0.930 . S
C1736 C1734 1.378 . S
C1736 C1737 1.367 . S
C1737 C1736 1.367 . S
C1737 C1739 1.433 . S
C1738 C1734 1.350 . S
C1738 C1735 1.463 . S
C1738 N1742 1.427 . S
C1739 H1729 0.929 . S
C1739 C1737 1.433 . S
C1739 N1742 1.384 . S
C1740 H1731 0.929 . S
C1740 C1732 1.378 . S
C1740 C1735 1.350 . S
C1741 H1728 0.929 . S
C1741 C1733 1.433 . S
C1741 N1743 1.384 . S
N1742 C1738 1.427 . S
N1742 C1739 1.384 . S
N1743 C1735 1.427 . S
N1743 C1741 1.384 . S
H1744 C1750 0.930 . S
H1745 C1754 0.930 . S
H1746 C1759 0.929 . S
H1747 C1757 0.929 . S
H1748 C1752 0.929 . S
H1749 C1758 0.929 . S
C1750 H1744 0.930 . S
C1750 C1751 1.367 . S
C1750 C1758 1.378 . S
C1751 C1750 1.367 . S
C1751 C1759 1.433 . S
C1752 H1748 0.929 . S
C1752 C1754 1.378 . S
C1752 C1756 1.350 . S
C1753 C1756 1.463 . S
C1753 C1758 1.350 . S
C1753 N1761 1.427 . S
C1754 H1745 0.930 . S
C1754 C1752 1.378 . S
C1754 C1755 1.367 . S
C1755 C1754 1.367 . S
C1755 C1757 1.433 . S
C1756 C1752 1.350 . S
C1756 C1753 1.463 . S
C1756 N1760 1.427 . S
C1757 H1747 0.929 . S
C1757 C1755 1.433 . S
C1757 N1760 1.384 . S
C1758 H1749 0.929 . S
C1758 C1750 1.378 . S
C1758 C1753 1.350 . S
C1759 H1746 0.929 . S
C1759 C1751 1.433 . S
C1759 N1761 1.384 . S
N1760 C1756 1.427 . S
N1760 C1757 1.384 . S
N1761 C1753 1.427 . S
N1761 C1759 1.384 . S
H1762 C1768 0.930 . S
H1763 C1772 0.930 . S
H1764 C1777 0.929 . S
H1765 C1775 0.929 . S
H1766 C1770 0.929 . S
H1767 C1776 0.929 . S
C1768 H1762 0.930 . S
C1768 C1769 1.367 . S
C1768 C1776 1.378 . S
C1769 C1768 1.367 . S
C1769 C1777 1.433 . S
C1770 H1766 0.929 . S
C1770 C1772 1.378 . S
C1770 C1774 1.350 . S
C1771 C1774 1.463 . S
C1771 C1776 1.350 . S
C1771 N1779 1.427 . S
C1772 H1763 0.930 . S
C1772 C1770 1.378 . S
C1772 C1773 1.367 . S
C1773 C1772 1.367 . S
C1773 C1775 1.433 . S
C1774 C1770 1.350 . S
C1774 C1771 1.463 . S
C1774 N1778 1.427 . S
C1775 H1765 0.929 . S
C1775 C1773 1.433 . S
C1775 N1778 1.384 . S
C1776 H1767 0.929 . S
C1776 C1768 1.378 . S
C1776 C1771 1.350 . S
C1777 H1764 0.929 . S
C1777 C1769 1.433 . S
C1777 N1779 1.384 . S
N1778 C1774 1.427 . S
N1778 C1775 1.384 . S
N1779 C1771 1.427 . S
N1779 C1777 1.384 . S
H1780 C1786 0.930 . S
H1781 C1790 0.930 . S
H1782 C1795 0.929 . S
H1783 C1793 0.929 . S
H1784 C1788 0.929 . S
H1785 C1794 0.929 . S
C1786 H1780 0.930 . S
C1786 C1787 1.367 . S
C1786 C1794 1.378 . S
C1787 C1786 1.367 . S
C1787 C1795 1.433 . S
C1788 H1784 0.929 . S
C1788 C1790 1.378 . S
C1788 C1792 1.350 . S
C1789 C1792 1.463 . S
C1789 C1794 1.350 . S
C1789 N1797 1.427 . S
C1790 H1781 0.930 . S
C1790 C1788 1.378 . S
C1790 C1791 1.367 . S
C1791 C1790 1.367 . S
C1791 C1793 1.433 . S
C1792 C1788 1.350 . S
C1792 C1789 1.463 . S
C1792 N1796 1.427 . S
C1793 H1783 0.929 . S
C1793 C1791 1.433 . S
C1793 N1796 1.384 . S
C1794 H1785 0.929 . S
C1794 C1786 1.378 . S
C1794 C1789 1.350 . S
C1795 H1782 0.929 . S
C1795 C1787 1.433 . S
C1795 N1797 1.384 . S
N1796 C1792 1.427 . S
N1796 C1793 1.384 . S
N1797 C1789 1.427 . S
N1797 C1795 1.384 . S
H1798 C1804 0.930 . S
H1799 C1808 0.930 . S
H1800 C1813 0.929 . S
H1801 C1811 0.929 . S
H1802 C1806 0.929 . S
H1803 C1812 0.929 . S
C1804 H1798 0.930 . S
C1804 C1805 1.367 . S
C1804 C1812 1.378 . S
C1805 C1804 1.367 . S
C1805 C1813 1.433 . S
C1806 H1802 0.929 . S
C1806 C1808 1.378 . S
C1806 C1810 1.350 . S
C1807 C1810 1.463 . S
C1807 C1812 1.350 . S
C1807 N1815 1.427 . S
C1808 H1799 0.930 . S
C1808 C1806 1.378 . S
C1808 C1809 1.367 . S
C1809 C1808 1.367 . S
C1809 C1811 1.433 . S
C1810 C1806 1.350 . S
C1810 C1807 1.463 . S
C1810 N1814 1.427 . S
C1811 H1801 0.929 . S
C1811 C1809 1.433 . S
C1811 N1814 1.384 . S
C1812 H1803 0.929 . S
C1812 C1804 1.378 . S
C1812 C1807 1.350 . S
C1813 H1800 0.929 . S
C1813 C1805 1.433 . S
C1813 N1815 1.384 . S
N1814 C1810 1.427 . S
N1814 C1811 1.384 . S
N1815 C1807 1.427 . S
N1815 C1813 1.384 . S
H1816 C1822 0.930 . S
H1817 C1826 0.930 . S
H1818 C1831 0.929 . S
H1819 C1829 0.929 . S
H1820 C1824 0.929 . S
H1821 C1830 0.929 . S
C1822 H1816 0.930 . S
C1822 C1823 1.367 . S
C1822 C1830 1.378 . S
C1823 C1822 1.367 . S
C1823 C1831 1.433 . S
C1824 H1820 0.929 . S
C1824 C1826 1.378 . S
C1824 C1828 1.350 . S
C1825 C1828 1.463 . S
C1825 C1830 1.350 . S
C1825 N1833 1.427 . S
C1826 H1817 0.930 . S
C1826 C1824 1.378 . S
C1826 C1827 1.367 . S
C1827 C1826 1.367 . S
C1827 C1829 1.433 1_556 S
C1828 C1824 1.350 . S
C1828 C1825 1.463 . S
C1828 N1832 1.427 . S
C1829 H1819 0.929 . S
C1829 C1827 1.433 1_554 S
C1829 N1832 1.384 1_554 S
C1830 H1821 0.929 . S
C1830 C1822 1.378 . S
C1830 C1825 1.350 . S
C1831 H1818 0.929 . S
C1831 C1823 1.433 . S
C1831 N1833 1.384 . S
N1832 C1828 1.427 . S
N1832 C1829 1.384 1_556 S
N1833 C1825 1.427 . S
N1833 C1831 1.384 . S
H1834 C1840 0.917 1_455 S
H1835 C1844 0.930 . S
H1836 C1849 0.929 . S
H1837 C1847 0.929 . S
H1838 C1842 0.929 . S
H1839 C1848 0.929 . S
C1840 H1834 0.917 1_655 S
C1840 C1841 1.362 1_655 S
C1840 C1848 1.393 . S
C1841 C1840 1.362 1_455 S
C1841 C1849 1.396 1_455 S
C1842 H1838 0.929 . S
C1842 C1844 1.378 . S
C1842 C1846 1.350 . S
C1843 C1846 1.463 . S
C1843 C1848 1.350 . S
C1843 N1851 1.427 . S
C1844 H1835 0.930 . S
C1844 C1842 1.378 . S
C1844 C1845 1.367 . S
C1845 C1844 1.367 . S
C1845 C1847 1.433 . S
C1846 C1842 1.350 . S
C1846 C1843 1.463 . S
C1846 N1850 1.427 . S
C1847 H1837 0.929 . S
C1847 C1845 1.433 . S
C1847 N1850 1.384 . S
C1848 H1839 0.929 . S
C1848 C1840 1.393 . S
C1848 C1843 1.350 . S
C1849 H1836 0.929 . S
C1849 C1841 1.396 1_655 S
C1849 N1851 1.384 . S
N1850 C1846 1.427 . S
N1850 C1847 1.384 . S
N1851 C1843 1.427 . S
N1851 C1849 1.384 . S
H1852 C1858 0.930 . S
H1853 C1862 0.930 . S
H1854 C1867 0.929 . S
H1855 C1865 0.929 . S
H1856 C1860 0.929 . S
H1857 C1866 0.929 . S
C1858 H1852 0.930 . S
C1858 C1859 1.367 . S
C1858 C1866 1.378 . S
C1859 C1858 1.367 . S
C1859 C1867 1.433 . S
C1860 H1856 0.929 . S
C1860 C1862 1.378 . S
C1860 C1864 1.350 . S
C1861 C1864 1.463 . S
C1861 C1866 1.350 . S
C1861 N1869 1.427 . S
C1862 H1853 0.930 . S
C1862 C1860 1.378 . S
C1862 C1863 1.367 . S
C1863 C1862 1.367 . S
C1863 C1865 1.433 . S
C1864 C1860 1.350 . S
C1864 C1861 1.463 . S
C1864 N1868 1.427 . S
C1865 H1855 0.929 . S
C1865 C1863 1.433 . S
C1865 N1868 1.384 . S
C1866 H1857 0.929 . S
C1866 C1858 1.378 . S
C1866 C1861 1.350 . S
C1867 H1854 0.929 . S
C1867 C1859 1.433 . S
C1867 N1869 1.384 . S
N1868 C1864 1.427 . S
N1868 C1865 1.384 . S
N1869 C1861 1.427 . S
N1869 C1867 1.384 . S
H1870 C1876 0.930 . S
H1871 C1880 0.930 . S
H1872 C1885 0.929 . S
H1873 C1883 0.929 . S
H1874 C1878 0.929 . S
H1875 C1884 0.929 . S
C1876 H1870 0.930 . S
C1876 C1877 1.367 . S
C1876 C1884 1.378 . S
C1877 C1876 1.367 . S
C1877 C1885 1.433 . S
C1878 H1874 0.929 . S
C1878 C1880 1.378 . S
C1878 C1882 1.350 . S
C1879 C1882 1.463 . S
C1879 C1884 1.350 . S
C1879 N1887 1.427 . S
C1880 H1871 0.930 . S
C1880 C1878 1.378 . S
C1880 C1881 1.367 . S
C1881 C1880 1.367 . S
C1881 C1883 1.433 . S
C1882 C1878 1.350 . S
C1882 C1879 1.463 . S
C1882 N1886 1.427 . S
C1883 H1873 0.929 . S
C1883 C1881 1.433 . S
C1883 N1886 1.384 . S
C1884 H1875 0.929 . S
C1884 C1876 1.378 . S
C1884 C1879 1.350 . S
C1885 H1872 0.929 . S
C1885 C1877 1.433 . S
C1885 N1887 1.384 . S
N1886 C1882 1.427 . S
N1886 C1883 1.384 . S
N1887 C1879 1.427 . S
N1887 C1885 1.384 . S
H1888 C1894 0.930 . S
H1889 C1898 0.930 . S
H1890 C1903 0.929 . S
H1891 C1901 0.929 . S
H1892 C1896 0.929 . S
H1893 C1902 0.929 . S
C1894 H1888 0.930 . S
C1894 C1895 1.367 . S
C1894 C1902 1.378 . S
C1895 C1894 1.367 . S
C1895 C1903 1.433 . S
C1896 H1892 0.929 . S
C1896 C1898 1.378 . S
C1896 C1900 1.350 . S
C1897 C1900 1.463 . S
C1897 C1902 1.350 . S
C1897 N1905 1.427 . S
C1898 H1889 0.930 . S
C1898 C1896 1.378 . S
C1898 C1899 1.367 . S
C1899 C1898 1.367 . S
C1899 C1901 1.433 . S
C1900 C1896 1.350 . S
C1900 C1897 1.463 . S
C1900 N1904 1.427 . S
C1901 H1891 0.929 . S
C1901 C1899 1.433 . S
C1901 N1904 1.384 . S
C1902 H1893 0.929 . S
C1902 C1894 1.378 . S
C1902 C1897 1.350 . S
C1903 H1890 0.929 . S
C1903 C1895 1.433 . S
C1903 N1905 1.384 . S
N1904 C1900 1.427 . S
N1904 C1901 1.384 . S
N1905 C1897 1.427 . S
N1905 C1903 1.384 . S
H1906 C1912 0.930 . S
H1907 C1916 0.930 . S
H1908 C1921 0.929 1_554 S
H1909 C1919 0.929 . S
H1910 C1914 0.929 . S
H1911 C1920 0.929 . S
C1912 H1906 0.930 . S
C1912 C1913 1.367 . S
C1912 C1920 1.378 . S
C1913 C1912 1.367 . S
C1913 C1921 1.433 . S
C1914 H1910 0.929 . S
C1914 C1916 1.378 . S
C1914 C1918 1.350 . S
C1915 C1918 1.463 . S
C1915 C1920 1.350 . S
C1915 N1923 1.427 . S
C1916 H1907 0.930 . S
C1916 C1914 1.378 . S
C1916 C1917 1.367 . S
C1917 C1916 1.367 . S
C1917 C1919 1.433 . S
C1918 C1914 1.350 . S
C1918 C1915 1.463 . S
C1918 N1922 1.427 . S
C1919 H1909 0.929 . S
C1919 C1917 1.433 . S
C1919 N1922 1.384 . S
C1920 H1911 0.929 . S
C1920 C1912 1.378 . S
C1920 C1915 1.350 . S
C1921 H1908 0.929 1_556 S
C1921 C1913 1.433 . S
C1921 N1923 1.384 . S
N1922 C1918 1.427 . S
N1922 C1919 1.384 . S
N1923 C1915 1.427 . S
N1923 C1921 1.384 . S
H1924 C1930 0.930 . S
H1925 C1934 0.930 . S
H1926 C1939 0.929 . S
H1927 C1937 0.929 . S
H1928 C1932 0.929 . S
H1929 C1938 0.929 . S
C1930 H1924 0.930 . S
C1930 C1931 1.367 . S
C1930 C1938 1.378 . S
C1931 C1930 1.367 . S
C1931 C1939 1.433 . S
C1932 H1928 0.929 . S
C1932 C1934 1.378 1_655 S
C1932 C1936 1.350 . S
C1933 C1936 1.463 . S
C1933 C1938 1.350 . S
C1933 N1941 1.427 . S
C1934 H1925 0.930 . S
C1934 C1932 1.378 1_455 S
C1934 C1935 1.369 . S
C1935 C1934 1.369 . S
C1935 C1937 1.404 1_455 S
C1936 C1932 1.350 . S
C1936 C1933 1.463 . S
C1936 N1940 1.427 . S
C1937 H1927 0.929 . S
C1937 C1935 1.404 1_655 S
C1937 N1940 1.384 . S
C1938 H1929 0.929 . S
C1938 C1930 1.378 . S
C1938 C1933 1.350 . S
C1939 H1926 0.929 . S
C1939 C1931 1.433 . S
C1939 N1941 1.384 . S
N1940 C1936 1.427 . S
N1940 C1937 1.384 . S
N1941 C1933 1.427 . S
N1941 C1939 1.384 . S
H1942 C1948 0.930 . S
H1943 C1952 0.930 . S
H1944 C1957 0.929 . S
H1945 C1955 0.929 . S
H1946 C1950 0.929 . S
H1947 C1956 0.929 . S
C1948 H1942 0.930 . S
C1948 C1949 1.367 . S
C1948 C1956 1.378 . S
C1949 C1948 1.367 . S
C1949 C1957 1.433 . S
C1950 H1946 0.929 . S
C1950 C1952 1.378 . S
C1950 C1954 1.350 . S
C1951 C1954 1.463 . S
C1951 C1956 1.350 . S
C1951 N1959 1.427 . S
C1952 H1943 0.930 . S
C1952 C1950 1.378 . S
C1952 C1953 1.367 . S
C1953 C1952 1.367 . S
C1953 C1955 1.433 . S
C1954 C1950 1.350 . S
C1954 C1951 1.463 . S
C1954 N1958 1.427 . S
C1955 H1945 0.929 . S
C1955 C1953 1.433 . S
C1955 N1958 1.384 . S
C1956 H1947 0.929 . S
C1956 C1948 1.378 . S
C1956 C1951 1.350 . S
C1957 H1944 0.929 . S
C1957 C1949 1.433 . S
C1957 N1959 1.384 . S
N1958 C1954 1.427 . S
N1958 C1955 1.384 . S
N1959 C1951 1.427 . S
N1959 C1957 1.384 . S
H1960 C1966 0.930 . S
H1961 C1970 0.930 . S
H1962 C1975 0.929 . S
H1963 C1973 0.929 . S
H1964 C1968 0.929 . S
H1965 C1974 0.929 . S
C1966 H1960 0.930 . S
C1966 C1967 1.367 . S
C1966 C1974 1.378 . S
C1967 C1966 1.367 . S
C1967 C1975 1.433 . S
C1968 H1964 0.929 . S
C1968 C1970 1.378 . S
C1968 C1972 1.350 . S
C1969 C1972 1.463 . S
C1969 C1974 1.350 . S
C1969 N1977 1.427 . S
C1970 H1961 0.930 . S
C1970 C1968 1.378 . S
C1970 C1971 1.367 . S
C1971 C1970 1.367 . S
C1971 C1973 1.433 . S
C1972 C1968 1.350 . S
C1972 C1969 1.463 . S
C1972 N1976 1.427 . S
C1973 H1963 0.929 . S
C1973 C1971 1.433 . S
C1973 N1976 1.384 . S
C1974 H1965 0.929 . S
C1974 C1966 1.378 . S
C1974 C1969 1.350 . S
C1975 H1962 0.929 . S
C1975 C1967 1.433 . S
C1975 N1977 1.384 . S
N1976 C1972 1.427 . S
N1976 C1973 1.384 . S
N1977 C1969 1.427 . S
N1977 C1975 1.384 . S
H1978 C1984 0.930 . S
H1979 C1988 0.930 . S
H1980 C1993 0.929 . S
H1981 C1991 0.929 . S
H1982 C1986 0.929 . S
H1983 C1992 0.929 . S
C1984 H1978 0.930 . S
C1984 C1985 1.367 . S
C1984 C1992 1.378 . S
C1985 C1984 1.367 . S
C1985 C1993 1.433 . S
C1986 H1982 0.929 . S
C1986 C1988 1.378 . S
C1986 C1990 1.350 . S
C1987 C1990 1.463 . S
C1987 C1992 1.350 . S
C1987 N1995 1.427 . S
C1988 H1979 0.930 . S
C1988 C1986 1.378 . S
C1988 C1989 1.367 . S
C1989 C1988 1.367 . S
C1989 C1991 1.433 . S
C1990 C1986 1.350 . S
C1990 C1987 1.463 . S
C1990 N1994 1.427 . S
C1991 H1981 0.929 . S
C1991 C1989 1.433 . S
C1991 N1994 1.384 . S
C1992 H1983 0.929 . S
C1992 C1984 1.378 . S
C1992 C1987 1.350 . S
C1993 H1980 0.929 . S
C1993 C1985 1.433 . S
C1993 N1995 1.384 . S
N1994 C1990 1.427 . S
N1994 C1991 1.384 . S
N1995 C1987 1.427 . S
N1995 C1993 1.384 . S
H1996 C2002 0.930 . S
H1997 C2006 0.930 . S
H1998 C2011 0.929 . S
H1999 C2009 0.929 . S
H2000 C2004 0.929 . S
H2001 C2010 0.929 . S
C2002 H1996 0.930 . S
C2002 C2003 1.367 . S
C2002 C2010 1.378 . S
C2003 C2002 1.367 . S
C2003 C2011 1.433 . S
C2004 H2000 0.929 . S
C2004 C2006 1.378 . S
C2004 C2008 1.350 . S
C2005 C2008 1.463 . S
C2005 C2010 1.350 . S
C2005 N2013 1.427 . S
C2006 H1997 0.930 . S
C2006 C2004 1.378 . S
C2006 C2007 1.367 . S
C2007 C2006 1.367 . S
C2007 C2009 1.433 . S
C2008 C2004 1.350 . S
C2008 C2005 1.463 . S
C2008 N2012 1.427 . S
C2009 H1999 0.929 . S
C2009 C2007 1.433 . S
C2009 N2012 1.384 . S
C2010 H2001 0.929 . S
C2010 C2002 1.378 . S
C2010 C2005 1.350 . S
C2011 H1998 0.929 . S
C2011 C2003 1.433 . S
C2011 N2013 1.384 . S
N2012 C2008 1.427 . S
N2012 C2009 1.384 . S
N2013 C2005 1.427 . S
N2013 C2011 1.384 . S
H2014 C2020 0.930 . S
H2015 C2024 0.930 . S
H2016 C2029 0.929 . S
H2017 C2027 0.929 . S
H2018 C2022 0.929 . S
H2019 C2028 0.929 . S
C2020 H2014 0.930 . S
C2020 C2021 1.367 . S
C2020 C2028 1.378 . S
C2021 C2020 1.367 . S
C2021 C2029 1.433 . S
C2022 H2018 0.929 . S
C2022 C2024 1.378 . S
C2022 C2026 1.350 . S
C2023 C2026 1.463 . S
C2023 C2028 1.350 . S
C2023 N2031 1.427 . S
C2024 H2015 0.930 . S
C2024 C2022 1.378 . S
C2024 C2025 1.367 . S
C2025 C2024 1.367 . S
C2025 C2027 1.433 . S
C2026 C2022 1.350 . S
C2026 C2023 1.463 . S
C2026 N2030 1.427 . S
C2027 H2017 0.929 . S
C2027 C2025 1.433 . S
C2027 N2030 1.384 . S
C2028 H2019 0.929 . S
C2028 C2020 1.378 . S
C2028 C2023 1.350 . S
C2029 H2016 0.929 . S
C2029 C2021 1.433 . S
C2029 N2031 1.384 . S
N2030 C2026 1.427 . S
N2030 C2027 1.384 . S
N2031 C2023 1.427 . S
N2031 C2029 1.384 . S
H2032 C2038 0.930 . S
H2033 C2042 0.930 . S
H2034 C2047 0.929 . S
H2035 C2045 0.929 . S
H2036 C2040 0.929 . S
H2037 C2046 0.929 . S
C2038 H2032 0.930 . S
C2038 C2039 1.367 . S
C2038 C2046 1.378 . S
C2039 C2038 1.367 . S
C2039 C2047 1.433 . S
C2040 H2036 0.929 . S
C2040 C2042 1.378 . S
C2040 C2044 1.350 . S
C2041 C2044 1.463 . S
C2041 C2046 1.350 . S
C2041 N2049 1.427 . S
C2042 H2033 0.930 . S
C2042 C2040 1.378 . S
C2042 C2043 1.367 . S
C2043 C2042 1.367 . S
C2043 C2045 1.433 . S
C2044 C2040 1.350 . S
C2044 C2041 1.463 . S
C2044 N2048 1.427 . S
C2045 H2035 0.929 . S
C2045 C2043 1.433 . S
C2045 N2048 1.384 . S
C2046 H2037 0.929 . S
C2046 C2038 1.378 . S
C2046 C2041 1.350 . S
C2047 H2034 0.929 . S
C2047 C2039 1.433 . S
C2047 N2049 1.384 . S
N2048 C2044 1.427 . S
N2048 C2045 1.384 . S
N2049 C2041 1.427 . S
N2049 C2047 1.384 . S
H2050 C2056 0.930 . S
H2051 C2060 0.930 . S
H2052 C2065 0.929 . S
H2053 C2063 0.929 . S
H2054 C2058 0.929 1_545 S
H2055 C2064 0.929 . S
C2056 H2050 0.930 . S
C2056 C2057 1.367 . S
C2056 C2064 1.378 . S
C2057 C2056 1.367 . S
C2057 C2065 1.433 . S
C2058 H2054 0.929 1_565 S
C2058 C2060 1.378 1_565 S
C2058 C2062 1.350 . S
C2059 C2062 1.463 . S
C2059 C2064 1.350 . S
C2059 N2067 1.427 . S
C2060 H2051 0.930 . S
C2060 C2058 1.378 1_545 S
C2060 C2061 1.367 1_545 S
C2061 C2060 1.367 1_565 S
C2061 C2063 1.433 . S
C2062 C2058 1.350 . S
C2062 C2059 1.463 . S
C2062 N2066 1.427 . S
C2063 H2053 0.929 . S
C2063 C2061 1.433 . S
C2063 N2066 1.384 . S
C2064 H2055 0.929 . S
C2064 C2056 1.378 . S
C2064 C2059 1.350 . S
C2065 H2052 0.929 . S
C2065 C2057 1.433 . S
C2065 N2067 1.384 . S
N2066 C2062 1.427 . S
N2066 C2063 1.384 . S
N2067 C2059 1.427 . S
N2067 C2065 1.384 . S
H2068 C2074 0.930 . S
H2069 C2078 0.930 . S
H2070 C2083 0.929 . S
H2071 C2081 0.929 . S
H2072 C2076 0.929 . S
H2073 C2082 0.929 . S
C2074 H2068 0.930 . S
C2074 C2075 1.367 . S
C2074 C2082 1.378 . S
C2075 C2074 1.367 . S
C2075 C2083 1.433 . S
C2076 H2072 0.929 . S
C2076 C2078 1.378 . S
C2076 C2080 1.350 . S
C2077 C2080 1.463 . S
C2077 C2082 1.350 . S
C2077 N2085 1.427 . S
C2078 H2069 0.930 . S
C2078 C2076 1.378 . S
C2078 C2079 1.367 . S
C2079 C2078 1.367 . S
C2079 C2081 1.433 . S
C2080 C2076 1.350 . S
C2080 C2077 1.463 . S
C2080 N2084 1.427 . S
C2081 H2071 0.929 . S
C2081 C2079 1.433 . S
C2081 N2084 1.384 . S
C2082 H2073 0.929 . S
C2082 C2074 1.378 . S
C2082 C2077 1.350 . S
C2083 H2070 0.929 . S
C2083 C2075 1.433 . S
C2083 N2085 1.384 . S
N2084 C2080 1.427 . S
N2084 C2081 1.384 . S
N2085 C2077 1.427 . S
N2085 C2083 1.384 . S
H2086 C2092 0.930 1_556 S
H2087 C2096 0.930 . S
H2088 C2101 0.929 . S
H2089 C2099 0.929 . S
H2090 C2094 0.929 . S
H2091 C2100 0.938 . S
C2092 H2086 0.930 1_554 S
C2092 C2093 1.367 . S
C2092 C2100 1.378 . S
C2093 C2092 1.367 . S
C2093 C2101 1.433 . S
C2094 H2090 0.929 . S
C2094 C2096 1.378 . S
C2094 C2098 1.350 . S
C2095 C2098 1.463 . S
C2095 C2100 1.350 . S
C2095 N2103 1.427 . S
C2096 H2087 0.930 . S
C2096 C2094 1.378 . S
C2096 C2097 1.367 . S
C2097 C2096 1.367 . S
C2097 C2099 1.433 . S
C2098 C2094 1.350 . S
C2098 C2095 1.463 . S
C2098 N2102 1.427 . S
C2099 H2089 0.929 . S
C2099 C2097 1.433 . S
C2099 N2102 1.384 . S
C2100 H2091 0.938 . S
C2100 C2092 1.378 . S
C2100 C2095 1.350 . S
C2101 H2088 0.929 . S
C2101 C2093 1.433 . S
C2101 N2103 1.384 . S
N2102 C2098 1.427 . S
N2102 C2099 1.384 . S
N2103 C2095 1.427 . S
N2103 C2101 1.384 . S
H2104 C2110 0.930 . S
H2105 C2114 0.930 . S
H2106 C2119 0.929 . S
H2107 C2117 0.929 . S
H2108 C2112 0.929 . S
H2109 C2118 0.929 . S
C2110 H2104 0.930 . S
C2110 C2111 1.367 . S
C2110 C2118 1.378 . S
C2111 C2110 1.367 . S
C2111 C2119 1.433 . S
C2112 H2108 0.929 . S
C2112 C2114 1.378 . S
C2112 C2116 1.350 . S
C2113 C2116 1.463 . S
C2113 C2118 1.350 . S
C2113 N2121 1.427 . S
C2114 H2105 0.930 . S
C2114 C2112 1.378 . S
C2114 C2115 1.367 . S
C2115 C2114 1.367 . S
C2115 C2117 1.433 . S
C2116 C2112 1.350 . S
C2116 C2113 1.463 . S
C2116 N2120 1.427 . S
C2117 H2107 0.929 . S
C2117 C2115 1.433 . S
C2117 N2120 1.384 . S
C2118 H2109 0.929 . S
C2118 C2110 1.378 . S
C2118 C2113 1.350 . S
C2119 H2106 0.929 . S
C2119 C2111 1.433 . S
C2119 N2121 1.384 . S
N2120 C2116 1.427 . S
N2120 C2117 1.384 . S
N2121 C2113 1.427 . S
N2121 C2119 1.384 . S
H2122 C2128 0.930 . S
H2123 C2132 0.930 . S
H2124 C2137 0.929 . S
H2125 C2135 0.929 1_556 S
H2126 C2130 0.929 . S
H2127 C2136 0.929 . S
C2128 H2122 0.930 . S
C2128 C2129 1.367 . S
C2128 C2136 1.378 . S
C2129 C2128 1.367 . S
C2129 C2137 1.433 . S
C2130 H2126 0.929 . S
C2130 C2132 1.378 . S
C2130 C2134 1.350 . S
C2131 C2134 1.463 . S
C2131 C2136 1.350 . S
C2131 N2139 1.427 . S
C2132 H2123 0.930 . S
C2132 C2130 1.378 . S
C2132 C2133 1.367 . S
C2133 C2132 1.367 . S
C2133 C2135 1.433 . S
C2134 C2130 1.350 . S
C2134 C2131 1.463 . S
C2134 N2138 1.427 . S
C2135 H2125 0.929 1_554 S
C2135 C2133 1.433 . S
C2135 N2138 1.384 . S
C2136 H2127 0.929 . S
C2136 C2128 1.378 . S
C2136 C2131 1.350 . S
C2137 H2124 0.929 . S
C2137 C2129 1.433 . S
C2137 N2139 1.384 . S
N2138 C2134 1.427 . S
N2138 C2135 1.384 . S
N2139 C2131 1.427 . S
N2139 C2137 1.384 . S
H2140 C2146 0.930 . S
H2141 C2150 0.930 . S
H2142 C2155 0.929 . S
H2143 C2153 0.929 . S
H2144 C2148 0.929 . S
H2145 C2154 0.929 . S
C2146 H2140 0.930 . S
C2146 C2147 1.367 . S
C2146 C2154 1.378 . S
C2147 C2146 1.367 . S
C2147 C2155 1.433 . S
C2148 H2144 0.929 . S
C2148 C2150 1.378 . S
C2148 C2152 1.350 . S
C2149 C2152 1.463 . S
C2149 C2154 1.350 . S
C2149 N2157 1.427 . S
C2150 H2141 0.930 . S
C2150 C2148 1.378 . S
C2150 C2151 1.367 . S
C2151 C2150 1.367 . S
C2151 C2153 1.433 . S
C2152 C2148 1.350 . S
C2152 C2149 1.463 . S
C2152 N2156 1.427 . S
C2153 H2143 0.929 . S
C2153 C2151 1.433 . S
C2153 N2156 1.384 . S
C2154 H2145 0.929 . S
C2154 C2146 1.378 . S
C2154 C2149 1.350 . S
C2155 H2142 0.929 . S
C2155 C2147 1.433 . S
C2155 N2157 1.384 . S
N2156 C2152 1.427 . S
N2156 C2153 1.384 . S
N2157 C2149 1.427 . S
N2157 C2155 1.384 . S
H2158 C2164 0.930 . S
H2159 C2168 0.930 . S
H2160 C2173 0.929 . S
H2161 C2171 0.929 . S
H2162 C2166 0.929 . S
H2163 C2172 0.929 . S
C2164 H2158 0.930 . S
C2164 C2165 1.367 . S
C2164 C2172 1.378 . S
C2165 C2164 1.367 . S
C2165 C2173 1.433 . S
C2166 H2162 0.929 . S
C2166 C2168 1.378 . S
C2166 C2170 1.350 . S
C2167 C2170 1.463 . S
C2167 C2172 1.350 . S
C2167 N2175 1.427 . S
C2168 H2159 0.930 . S
C2168 C2166 1.378 . S
C2168 C2169 1.367 . S
C2169 C2168 1.367 . S
C2169 C2171 1.433 . S
C2170 C2166 1.350 . S
C2170 C2167 1.463 . S
C2170 N2174 1.427 . S
C2171 H2161 0.929 . S
C2171 C2169 1.433 . S
C2171 N2174 1.384 . S
C2172 H2163 0.929 . S
C2172 C2164 1.378 . S
C2172 C2167 1.350 . S
C2173 H2160 0.929 . S
C2173 C2165 1.433 . S
C2173 N2175 1.384 . S
N2174 C2170 1.427 . S
N2174 C2171 1.384 . S
N2175 C2167 1.427 . S
N2175 C2173 1.384 . S
H2176 C2182 0.930 . S
H2177 C2186 0.930 . S
H2178 C2191 0.929 . S
H2179 C2189 0.929 . S
H2180 C2184 0.929 . S
H2181 C2190 0.929 . S
C2182 H2176 0.930 . S
C2182 C2183 1.367 . S
C2182 C2190 1.378 . S
C2183 C2182 1.367 . S
C2183 C2191 1.433 . S
C2184 H2180 0.929 . S
C2184 C2186 1.378 . S
C2184 C2188 1.350 . S
C2185 C2188 1.463 . S
C2185 C2190 1.350 . S
C2185 N2193 1.427 . S
C2186 H2177 0.930 . S
C2186 C2184 1.378 . S
C2186 C2187 1.367 . S
C2187 C2186 1.367 . S
C2187 C2189 1.433 . S
C2188 C2184 1.350 . S
C2188 C2185 1.463 . S
C2188 N2192 1.427 . S
C2189 H2179 0.929 . S
C2189 C2187 1.433 . S
C2189 N2192 1.384 . S
C2190 H2181 0.929 . S
C2190 C2182 1.378 . S
C2190 C2185 1.350 . S
C2191 H2178 0.929 . S
C2191 C2183 1.433 . S
C2191 N2193 1.384 . S
N2192 C2188 1.427 . S
N2192 C2189 1.384 . S
N2193 C2185 1.427 . S
N2193 C2191 1.384 . S
H2194 C2200 0.930 . S
H2195 C2204 0.930 . S
H2196 C2209 0.929 . S
H2197 C2207 0.929 . S
H2198 C2202 0.929 . S
H2199 C2208 0.929 . S
C2200 H2194 0.930 . S
C2200 C2201 1.367 . S
C2200 C2208 1.378 . S
C2201 C2200 1.367 . S
C2201 C2209 1.433 . S
C2202 H2198 0.929 . S
C2202 C2204 1.378 . S
C2202 C2206 1.350 . S
C2203 C2206 1.463 . S
C2203 C2208 1.350 . S
C2203 N2211 1.427 . S
C2204 H2195 0.930 . S
C2204 C2202 1.378 . S
C2204 C2205 1.367 . S
C2205 C2204 1.367 . S
C2205 C2207 1.433 . S
C2206 C2202 1.350 . S
C2206 C2203 1.463 . S
C2206 N2210 1.427 . S
C2207 H2197 0.929 . S
C2207 C2205 1.433 . S
C2207 N2210 1.384 . S
C2208 H2199 0.929 . S
C2208 C2200 1.378 . S
C2208 C2203 1.350 . S
C2209 H2196 0.929 . S
C2209 C2201 1.433 . S
C2209 N2211 1.384 . S
N2210 C2206 1.427 . S
N2210 C2207 1.384 . S
N2211 C2203 1.427 . S
N2211 C2209 1.384 . S
H2212 C2218 0.930 . S
H2213 C2222 0.946 . S
H2214 C2227 0.929 . S
H2215 C2225 0.929 . S
H2216 C2220 0.929 . S
H2217 C2226 0.929 . S
C2218 H2212 0.930 . S
C2218 C2219 1.364 . S
C2218 C2226 1.378 . S
C2219 C2218 1.364 . S
C2219 C2227 1.436 1_655 S
C2220 H2216 0.929 . S
C2220 C2222 1.378 . S
C2220 C2224 1.350 1_455 S
C2221 C2224 1.463 . S
C2221 C2226 1.350 . S
C2221 N2229 1.427 1_655 S
C2222 H2213 0.946 . S
C2222 C2220 1.378 . S
C2222 C2223 1.367 1_455 S
C2223 C2222 1.367 1_655 S
C2223 C2225 1.433 . S
C2224 C2220 1.350 1_655 S
C2224 C2221 1.463 . S
C2224 N2228 1.427 . S
C2225 H2215 0.929 . S
C2225 C2223 1.433 . S
C2225 N2228 1.384 . S
C2226 H2217 0.929 . S
C2226 C2218 1.378 . S
C2226 C2221 1.350 . S
C2227 H2214 0.929 . S
C2227 C2219 1.436 1_455 S
C2227 N2229 1.384 . S
N2228 C2224 1.427 . S
N2228 C2225 1.384 . S
N2229 C2221 1.427 1_455 S
N2229 C2227 1.384 . S
H2230 C2236 0.930 . S
H2231 C2240 0.930 . S
H2232 C2245 0.929 . S
H2233 C2243 0.929 . S
H2234 C2238 0.929 . S
H2235 C2244 0.929 . S
C2236 H2230 0.930 . S
C2236 C2237 1.367 . S
C2236 C2244 1.378 . S
C2237 C2236 1.367 . S
C2237 C2245 1.433 . S
C2238 H2234 0.929 . S
C2238 C2240 1.378 . S
C2238 C2242 1.350 . S
C2239 C2242 1.463 . S
C2239 C2244 1.350 . S
C2239 N2247 1.427 . S
C2240 H2231 0.930 . S
C2240 C2238 1.378 . S
C2240 C2241 1.367 . S
C2241 C2240 1.367 . S
C2241 C2243 1.433 . S
C2242 C2238 1.350 . S
C2242 C2239 1.463 . S
C2242 N2246 1.427 . S
C2243 H2233 0.929 . S
C2243 C2241 1.433 . S
C2243 N2246 1.384 . S
C2244 H2235 0.929 . S
C2244 C2236 1.378 . S
C2244 C2239 1.350 . S
C2245 H2232 0.929 . S
C2245 C2237 1.433 . S
C2245 N2247 1.384 . S
N2246 C2242 1.427 . S
N2246 C2243 1.384 . S
N2247 C2239 1.427 . S
N2247 C2245 1.384 . S
H2248 C2254 0.930 . S
H2249 C2258 0.930 . S
H2250 C2263 0.929 . S
H2251 C2261 0.929 . S
H2252 C2256 0.929 . S
H2253 C2262 0.929 . S
C2254 H2248 0.930 . S
C2254 C2255 1.367 . S
C2254 C2262 1.378 . S
C2255 C2254 1.367 . S
C2255 C2263 1.433 . S
C2256 H2252 0.929 . S
C2256 C2258 1.378 . S
C2256 C2260 1.350 . S
C2257 C2260 1.463 . S
C2257 C2262 1.350 . S
C2257 N2265 1.427 . S
C2258 H2249 0.930 . S
C2258 C2256 1.378 . S
C2258 C2259 1.367 . S
C2259 C2258 1.367 . S
C2259 C2261 1.433 . S
C2260 C2256 1.350 . S
C2260 C2257 1.463 . S
C2260 N2264 1.427 . S
C2261 H2251 0.929 . S
C2261 C2259 1.433 . S
C2261 N2264 1.384 . S
C2262 H2253 0.929 . S
C2262 C2254 1.378 . S
C2262 C2257 1.350 . S
C2263 H2250 0.929 . S
C2263 C2255 1.433 . S
C2263 N2265 1.384 . S
N2264 C2260 1.427 . S
N2264 C2261 1.384 . S
N2265 C2257 1.427 . S
N2265 C2263 1.384 . S
H2266 C2272 0.930 . S
H2267 C2276 0.930 . S
H2268 C2281 0.929 . S
H2269 C2279 0.929 . S
H2270 C2274 0.929 . S
H2271 C2280 0.929 . S
C2272 H2266 0.930 . S
C2272 C2273 1.367 . S
C2272 C2280 1.378 . S
C2273 C2272 1.367 . S
C2273 C2281 1.433 . S
C2274 H2270 0.929 . S
C2274 C2276 1.378 . S
C2274 C2278 1.350 . S
C2275 C2278 1.463 . S
C2275 C2280 1.350 . S
C2275 N2283 1.427 . S
C2276 H2267 0.930 . S
C2276 C2274 1.378 . S
C2276 C2277 1.367 . S
C2277 C2276 1.367 . S
C2277 C2279 1.433 . S
C2278 C2274 1.350 . S
C2278 C2275 1.463 . S
C2278 N2282 1.427 . S
C2279 H2269 0.929 . S
C2279 C2277 1.433 . S
C2279 N2282 1.384 . S
C2280 H2271 0.929 . S
C2280 C2272 1.378 . S
C2280 C2275 1.350 . S
C2281 H2268 0.929 . S
C2281 C2273 1.433 . S
C2281 N2283 1.384 . S
N2282 C2278 1.427 . S
N2282 C2279 1.384 . S
N2283 C2275 1.427 . S
N2283 C2281 1.384 . S
H2284 C2290 0.930 1_655 S
H2285 C2294 0.930 . S
H2286 C2299 0.929 . S
H2287 C2297 0.929 1_655 S
H2288 C2292 0.929 . S
H2289 C2298 0.929 1_655 S
C2290 H2284 0.930 1_455 S
C2290 C2291 1.367 . S
C2290 C2298 1.378 . S
C2291 C2290 1.367 . S
C2291 C2299 1.433 . S
C2292 H2288 0.929 . S
C2292 C2294 1.378 . S
C2292 C2296 1.350 . S
C2293 C2296 1.463 . S
C2293 C2298 1.350 . S
C2293 N2301 1.427 . S
C2294 H2285 0.930 . S
C2294 C2292 1.378 . S
C2294 C2295 1.367 . S
C2295 C2294 1.367 . S
C2295 C2297 1.433 . S
C2296 C2292 1.350 . S
C2296 C2293 1.463 . S
C2296 N2300 1.427 . S
C2297 H2287 0.929 1_455 S
C2297 C2295 1.433 . S
C2297 N2300 1.384 . S
C2298 H2289 0.929 1_455 S
C2298 C2290 1.378 . S
C2298 C2293 1.350 . S
C2299 H2286 0.929 . S
C2299 C2291 1.433 . S
C2299 N2301 1.384 . S
N2300 C2296 1.427 . S
N2300 C2297 1.384 . S
N2301 C2293 1.427 . S
N2301 C2299 1.384 . S
H2302 C2308 0.930 . S
H2303 C2312 0.930 . S
H2304 C2317 0.929 . S
H2305 C2315 0.929 . S
H2306 C2310 0.929 . S
H2307 C2316 0.929 . S
C2308 H2302 0.930 . S
C2308 C2309 1.367 . S
C2308 C2316 1.378 . S
C2309 C2308 1.367 . S
C2309 C2317 1.433 . S
C2310 H2306 0.929 . S
C2310 C2312 1.378 . S
C2310 C2314 1.350 . S
C2311 C2314 1.463 . S
C2311 C2316 1.350 . S
C2311 N2319 1.427 . S
C2312 H2303 0.930 . S
C2312 C2310 1.378 . S
C2312 C2313 1.367 . S
C2313 C2312 1.367 . S
C2313 C2315 1.433 . S
C2314 C2310 1.350 . S
C2314 C2311 1.463 . S
C2314 N2318 1.427 . S
C2315 H2305 0.929 . S
C2315 C2313 1.433 . S
C2315 N2318 1.384 . S
C2316 H2307 0.929 . S
C2316 C2308 1.378 . S
C2316 C2311 1.350 . S
C2317 H2304 0.929 . S
C2317 C2309 1.433 . S
C2317 N2319 1.384 . S
N2318 C2314 1.427 . S
N2318 C2315 1.384 . S
N2319 C2311 1.427 . S
N2319 C2317 1.384 . S
H2320 C2326 0.930 . S
H2321 C2330 0.930 . S
H2322 C2335 0.929 . S
H2323 C2333 0.929 . S
H2324 C2328 0.929 . S
H2325 C2334 0.929 . S
C2326 H2320 0.930 . S
C2326 C2327 1.367 . S
C2326 C2334 1.378 . S
C2327 C2326 1.367 . S
C2327 C2335 1.433 . S
C2328 H2324 0.929 . S
C2328 C2330 1.378 . S
C2328 C2332 1.350 . S
C2329 C2332 1.463 . S
C2329 C2334 1.350 . S
C2329 N2337 1.427 . S
C2330 H2321 0.930 . S
C2330 C2328 1.378 . S
C2330 C2331 1.367 . S
C2331 C2330 1.367 . S
C2331 C2333 1.433 . S
C2332 C2328 1.350 . S
C2332 C2329 1.463 . S
C2332 N2336 1.427 . S
C2333 H2323 0.929 . S
C2333 C2331 1.433 . S
C2333 N2336 1.384 . S
C2334 H2325 0.929 . S
C2334 C2326 1.378 . S
C2334 C2329 1.350 . S
C2335 H2322 0.929 . S
C2335 C2327 1.433 . S
C2335 N2337 1.384 . S
N2336 C2332 1.427 . S
N2336 C2333 1.384 . S
N2337 C2329 1.427 . S
N2337 C2335 1.384 . S
H2338 C2344 0.930 . S
H2339 C2348 0.930 . S
H2340 C2353 0.929 . S
H2341 C2351 0.929 . S
H2342 C2346 0.929 . S
H2343 C2352 0.929 . S
C2344 H2338 0.930 . S
C2344 C2345 1.367 . S
C2344 C2352 1.378 . S
C2345 C2344 1.367 . S
C2345 C2353 1.433 . S
C2346 H2342 0.929 . S
C2346 C2348 1.378 . S
C2346 C2350 1.350 . S
C2347 C2350 1.463 . S
C2347 C2352 1.350 . S
C2347 N2355 1.427 . S
C2348 H2339 0.930 . S
C2348 C2346 1.378 . S
C2348 C2349 1.367 . S
C2349 C2348 1.367 . S
C2349 C2351 1.433 . S
C2350 C2346 1.350 . S
C2350 C2347 1.463 . S
C2350 N2354 1.427 . S
C2351 H2341 0.929 . S
C2351 C2349 1.433 . S
C2351 N2354 1.384 . S
C2352 H2343 0.929 . S
C2352 C2344 1.378 . S
C2352 C2347 1.350 . S
C2353 H2340 0.929 . S
C2353 C2345 1.433 . S
C2353 N2355 1.384 . S
N2354 C2350 1.427 . S
N2354 C2351 1.384 . S
N2355 C2347 1.427 . S
N2355 C2353 1.384 . S
H2356 C2362 0.930 . S
H2357 C2366 0.930 . S
H2358 C2371 0.929 . S
H2359 C2369 0.929 . S
H2360 C2364 0.929 . S
H2361 C2370 0.929 . S
C2362 H2356 0.930 . S
C2362 C2363 1.367 . S
C2362 C2370 1.378 . S
C2363 C2362 1.367 . S
C2363 C2371 1.433 . S
C2364 H2360 0.929 . S
C2364 C2366 1.378 . S
C2364 C2368 1.350 . S
C2365 C2368 1.463 . S
C2365 C2370 1.350 . S
C2365 N2373 1.427 . S
C2366 H2357 0.930 . S
C2366 C2364 1.378 . S
C2366 C2367 1.367 . S
C2367 C2366 1.367 . S
C2367 C2369 1.433 . S
C2368 C2364 1.350 . S
C2368 C2365 1.463 . S
C2368 N2372 1.427 . S
C2369 H2359 0.929 . S
C2369 C2367 1.433 . S
C2369 N2372 1.384 . S
C2370 H2361 0.929 . S
C2370 C2362 1.378 . S
C2370 C2365 1.350 . S
C2371 H2358 0.929 . S
C2371 C2363 1.433 . S
C2371 N2373 1.384 . S
N2372 C2368 1.427 . S
N2372 C2369 1.384 . S
N2373 C2365 1.427 . S
N2373 C2371 1.384 . S
H2374 C2380 0.930 . S
H2375 C2384 0.930 . S
H2376 C2389 0.929 . S
H2377 C2387 0.929 . S
H2378 C2382 0.929 . S
H2379 C2388 0.929 . S
C2380 H2374 0.930 . S
C2380 C2381 1.367 . S
C2380 C2388 1.378 . S
C2381 C2380 1.367 . S
C2381 C2389 1.433 . S
C2382 H2378 0.929 . S
C2382 C2384 1.378 . S
C2382 C2386 1.350 . S
C2383 C2386 1.463 . S
C2383 C2388 1.350 . S
C2383 N2391 1.427 . S
C2384 H2375 0.930 . S
C2384 C2382 1.378 . S
C2384 C2385 1.367 . S
C2385 C2384 1.367 . S
C2385 C2387 1.433 . S
C2386 C2382 1.350 . S
C2386 C2383 1.463 . S
C2386 N2390 1.427 . S
C2387 H2377 0.929 . S
C2387 C2385 1.433 . S
C2387 N2390 1.384 . S
C2388 H2379 0.929 . S
C2388 C2380 1.378 . S
C2388 C2383 1.350 . S
C2389 H2376 0.929 . S
C2389 C2381 1.433 . S
C2389 N2391 1.384 . S
N2390 C2386 1.427 . S
N2390 C2387 1.384 . S
N2391 C2383 1.427 . S
N2391 C2389 1.384 . S
H2392 C2398 0.930 . S
H2393 C2402 0.930 . S
H2394 C2407 0.929 . S
H2395 C2405 0.929 . S
H2396 C2400 0.929 . S
H2397 C2406 0.929 . S
C2398 H2392 0.930 . S
C2398 C2399 1.367 . S
C2398 C2406 1.378 . S
C2399 C2398 1.367 . S
C2399 C2407 1.433 . S
C2400 H2396 0.929 . S
C2400 C2402 1.378 . S
C2400 C2404 1.350 . S
C2401 C2404 1.463 . S
C2401 C2406 1.350 . S
C2401 N2409 1.427 . S
C2402 H2393 0.930 . S
C2402 C2400 1.378 . S
C2402 C2403 1.367 . S
C2403 C2402 1.367 . S
C2403 C2405 1.433 . S
C2404 C2400 1.350 . S
C2404 C2401 1.463 . S
C2404 N2408 1.427 . S
C2405 H2395 0.929 . S
C2405 C2403 1.433 . S
C2405 N2408 1.384 . S
C2406 H2397 0.929 . S
C2406 C2398 1.378 . S
C2406 C2401 1.350 . S
C2407 H2394 0.929 . S
C2407 C2399 1.433 . S
C2407 N2409 1.384 . S
N2408 C2404 1.427 . S
N2408 C2405 1.384 . S
N2409 C2401 1.427 . S
N2409 C2407 1.384 . S
H2410 C2416 0.930 . S
H2411 C2420 0.930 . S
H2412 C2425 0.929 . S
H2413 C2423 0.929 . S
H2414 C2418 0.929 . S
H2415 C2424 0.929 . S
C2416 H2410 0.930 . S
C2416 C2417 1.367 . S
C2416 C2424 1.378 . S
C2417 C2416 1.367 . S
C2417 C2425 1.433 . S
C2418 H2414 0.929 . S
C2418 C2420 1.378 . S
C2418 C2422 1.350 . S
C2419 C2422 1.463 . S
C2419 C2424 1.350 . S
C2419 N2427 1.427 . S
C2420 H2411 0.930 . S
C2420 C2418 1.378 . S
C2420 C2421 1.367 . S
C2421 C2420 1.367 . S
C2421 C2423 1.433 . S
C2422 C2418 1.350 . S
C2422 C2419 1.463 . S
C2422 N2426 1.427 . S
C2423 H2413 0.929 . S
C2423 C2421 1.433 . S
C2423 N2426 1.384 . S
C2424 H2415 0.929 . S
C2424 C2416 1.378 . S
C2424 C2419 1.350 . S
C2425 H2412 0.929 . S
C2425 C2417 1.433 . S
C2425 N2427 1.384 . S
N2426 C2422 1.427 . S
N2426 C2423 1.384 . S
N2427 C2419 1.427 . S
N2427 C2425 1.384 . S
H2428 C2434 0.930 . S
H2429 C2438 0.930 . S
H2430 C2443 0.929 . S
H2431 C2441 0.929 . S
H2432 C2436 0.929 . S
H2433 C2442 0.929 . S
C2434 H2428 0.930 . S
C2434 C2435 1.367 . S
C2434 C2442 1.378 . S
C2435 C2434 1.367 . S
C2435 C2443 1.433 . S
C2436 H2432 0.929 . S
C2436 C2438 1.378 . S
C2436 C2440 1.350 . S
C2437 C2440 1.463 . S
C2437 C2442 1.350 . S
C2437 N2445 1.427 . S
C2438 H2429 0.930 . S
C2438 C2436 1.378 . S
C2438 C2439 1.367 . S
C2439 C2438 1.367 . S
C2439 C2441 1.433 . S
C2440 C2436 1.350 . S
C2440 C2437 1.463 . S
C2440 N2444 1.427 . S
C2441 H2431 0.929 . S
C2441 C2439 1.433 . S
C2441 N2444 1.384 . S
C2442 H2433 0.929 . S
C2442 C2434 1.378 . S
C2442 C2437 1.350 . S
C2443 H2430 0.929 . S
C2443 C2435 1.433 . S
C2443 N2445 1.384 . S
N2444 C2440 1.427 . S
N2444 C2441 1.384 . S
N2445 C2437 1.427 . S
N2445 C2443 1.384 . S
H2446 C2452 0.930 . S
H2447 C2456 0.930 . S
H2448 C2461 0.929 . S
H2449 C2459 0.929 . S
H2450 C2454 0.929 . S
H2451 C2460 0.929 . S
C2452 H2446 0.930 . S
C2452 C2453 1.367 . S
C2452 C2460 1.378 . S
C2453 C2452 1.367 . S
C2453 C2461 1.433 . S
C2454 H2450 0.929 . S
C2454 C2456 1.378 . S
C2454 C2458 1.350 . S
C2455 C2458 1.463 . S
C2455 C2460 1.350 . S
C2455 N2463 1.427 . S
C2456 H2447 0.930 . S
C2456 C2454 1.378 . S
C2456 C2457 1.367 . S
C2457 C2456 1.367 . S
C2457 C2459 1.433 . S
C2458 C2454 1.350 . S
C2458 C2455 1.463 . S
C2458 N2462 1.427 . S
C2459 H2449 0.929 . S
C2459 C2457 1.433 . S
C2459 N2462 1.384 . S
C2460 H2451 0.929 . S
C2460 C2452 1.378 . S
C2460 C2455 1.350 . S
C2461 H2448 0.929 . S
C2461 C2453 1.433 . S
C2461 N2463 1.384 . S
N2462 C2458 1.427 . S
N2462 C2459 1.384 . S
N2463 C2455 1.427 . S
N2463 C2461 1.384 . S
H2464 C2470 0.930 . S
H2465 C2474 0.930 . S
H2466 C2479 0.929 . S
H2467 C2477 0.929 . S
H2468 C2472 0.929 . S
H2469 C2478 0.929 . S
C2470 H2464 0.930 . S
C2470 C2471 1.367 . S
C2470 C2478 1.378 . S
C2471 C2470 1.367 . S
C2471 C2479 1.433 . S
C2472 H2468 0.929 . S
C2472 C2474 1.378 . S
C2472 C2476 1.350 . S
C2473 C2476 1.463 . S
C2473 C2478 1.350 . S
C2473 N2481 1.427 . S
C2474 H2465 0.930 . S
C2474 C2472 1.378 . S
C2474 C2475 1.367 . S
C2475 C2474 1.367 . S
C2475 C2477 1.433 . S
C2476 C2472 1.350 . S
C2476 C2473 1.463 . S
C2476 N2480 1.427 . S
C2477 H2467 0.929 . S
C2477 C2475 1.433 . S
C2477 N2480 1.384 . S
C2478 H2469 0.929 . S
C2478 C2470 1.378 . S
C2478 C2473 1.350 . S
C2479 H2466 0.929 . S
C2479 C2471 1.433 . S
C2479 N2481 1.384 . S
N2480 C2476 1.427 . S
N2480 C2477 1.384 . S
N2481 C2473 1.427 . S
N2481 C2479 1.384 . S
H2482 C2488 0.930 . S
H2483 C2492 0.930 . S
H2484 C2497 0.929 . S
H2485 C2495 0.929 . S
H2486 C2490 0.929 . S
H2487 C2496 0.929 . S
C2488 H2482 0.930 . S
C2488 C2489 1.367 . S
C2488 C2496 1.378 . S
C2489 C2488 1.367 . S
C2489 C2497 1.433 . S
C2490 H2486 0.929 . S
C2490 C2492 1.378 . S
C2490 C2494 1.350 . S
C2491 C2494 1.463 . S
C2491 C2496 1.350 . S
C2491 N2499 1.427 . S
C2492 H2483 0.930 . S
C2492 C2490 1.378 . S
C2492 C2493 1.367 . S
C2493 C2492 1.367 . S
C2493 C2495 1.433 . S
C2494 C2490 1.350 . S
C2494 C2491 1.463 . S
C2494 N2498 1.427 . S
C2495 H2485 0.929 . S
C2495 C2493 1.433 . S
C2495 N2498 1.384 . S
C2496 H2487 0.929 . S
C2496 C2488 1.378 . S
C2496 C2491 1.350 . S
C2497 H2484 0.929 . S
C2497 C2489 1.433 . S
C2497 N2499 1.384 . S
N2498 C2494 1.427 . S
N2498 C2495 1.384 . S
N2499 C2491 1.427 . S
N2499 C2497 1.384 . S
H2500 C2506 0.930 . S
H2501 C2510 0.930 . S
H2502 C2515 0.929 . S
H2503 C2513 0.929 . S
H2504 C2508 0.929 . S
H2505 C2514 0.929 . S
C2506 H2500 0.930 . S
C2506 C2507 1.367 . S
C2506 C2514 1.378 . S
C2507 C2506 1.367 . S
C2507 C2515 1.433 . S
C2508 H2504 0.929 . S
C2508 C2510 1.378 . S
C2508 C2512 1.350 . S
C2509 C2512 1.463 . S
C2509 C2514 1.350 . S
C2509 N2517 1.427 . S
C2510 H2501 0.930 . S
C2510 C2508 1.378 . S
C2510 C2511 1.367 . S
C2511 C2510 1.367 . S
C2511 C2513 1.433 . S
C2512 C2508 1.350 . S
C2512 C2509 1.463 . S
C2512 N2516 1.427 . S
C2513 H2503 0.929 . S
C2513 C2511 1.433 . S
C2513 N2516 1.384 . S
C2514 H2505 0.929 . S
C2514 C2506 1.378 . S
C2514 C2509 1.350 . S
C2515 H2502 0.929 . S
C2515 C2507 1.433 . S
C2515 N2517 1.384 . S
N2516 C2512 1.427 . S
N2516 C2513 1.384 . S
N2517 C2509 1.427 . S
N2517 C2515 1.384 . S
H2518 C2524 0.930 1_556 S
H2519 C2528 0.930 . S
H2520 C2533 0.929 . S
H2521 C2531 0.929 . S
H2522 C2526 0.929 . S
H2523 C2532 0.929 1_556 S
C2524 H2518 0.930 1_554 S
C2524 C2525 1.367 . S
C2524 C2532 1.378 . S
C2525 C2524 1.367 . S
C2525 C2533 1.433 . S
C2526 H2522 0.929 . S
C2526 C2528 1.378 . S
C2526 C2530 1.350 . S
C2527 C2530 1.463 . S
C2527 C2532 1.350 . S
C2527 N2535 1.427 . S
C2528 H2519 0.930 . S
C2528 C2526 1.378 . S
C2528 C2529 1.367 . S
C2529 C2528 1.367 . S
C2529 C2531 1.433 1_554 S
C2530 C2526 1.350 . S
C2530 C2527 1.463 . S
C2530 N2534 1.427 1_554 S
C2531 H2521 0.929 . S
C2531 C2529 1.433 1_556 S
C2531 N2534 1.384 . S
C2532 H2523 0.929 1_554 S
C2532 C2524 1.378 . S
C2532 C2527 1.350 . S
C2533 H2520 0.929 . S
C2533 C2525 1.433 . S
C2533 N2535 1.384 . S
N2534 C2530 1.427 1_556 S
N2534 C2531 1.384 . S
N2535 C2527 1.427 . S
N2535 C2533 1.384 . S
H2536 C2542 0.930 . S
H2537 C2546 0.930 . S
H2538 C2551 0.929 . S
H2539 C2549 0.929 . S
H2540 C2544 0.929 . S
H2541 C2550 0.929 . S
C2542 H2536 0.930 . S
C2542 C2543 1.367 . S
C2542 C2550 1.378 . S
C2543 C2542 1.367 . S
C2543 C2551 1.433 . S
C2544 H2540 0.929 . S
C2544 C2546 1.378 . S
C2544 C2548 1.350 . S
C2545 C2548 1.463 . S
C2545 C2550 1.350 . S
C2545 N2553 1.427 . S
C2546 H2537 0.930 . S
C2546 C2544 1.378 . S
C2546 C2547 1.367 . S
C2547 C2546 1.367 . S
C2547 C2549 1.433 . S
C2548 C2544 1.350 . S
C2548 C2545 1.463 . S
C2548 N2552 1.427 . S
C2549 H2539 0.929 . S
C2549 C2547 1.433 . S
C2549 N2552 1.384 . S
C2550 H2541 0.929 . S
C2550 C2542 1.378 . S
C2550 C2545 1.350 . S
C2551 H2538 0.929 . S
C2551 C2543 1.433 . S
C2551 N2553 1.384 . S
N2552 C2548 1.427 . S
N2552 C2549 1.384 . S
N2553 C2545 1.427 . S
N2553 C2551 1.384 . S
H2554 C2560 0.930 . S
H2555 C2564 0.930 . S
H2556 C2569 0.929 . S
H2557 C2567 0.929 . S
H2558 C2562 0.929 . S
H2559 C2568 0.929 . S
C2560 H2554 0.930 . S
C2560 C2561 1.367 1_556 S
C2560 C2568 1.378 . S
C2561 C2560 1.367 1_554 S
C2561 C2569 1.433 . S
C2562 H2558 0.929 . S
C2562 C2564 1.378 . S
C2562 C2566 1.350 . S
C2563 C2566 1.463 . S
C2563 C2568 1.350 1_554 S
C2563 N2571 1.427 . S
C2564 H2555 0.930 . S
C2564 C2562 1.378 . S
C2564 C2565 1.367 . S
C2565 C2564 1.367 . S
C2565 C2567 1.433 . S
C2566 C2562 1.350 . S
C2566 C2563 1.463 . S
C2566 N2570 1.427 . S
C2567 H2557 0.929 . S
C2567 C2565 1.433 . S
C2567 N2570 1.384 . S
C2568 H2559 0.929 . S
C2568 C2560 1.378 . S
C2568 C2563 1.350 1_556 S
C2569 H2556 0.929 . S
C2569 C2561 1.433 . S
C2569 N2571 1.384 . S
N2570 C2566 1.427 . S
N2570 C2567 1.384 . S
N2571 C2563 1.427 . S
N2571 C2569 1.384 . S
H2572 C2578 0.930 . S
H2573 C2582 0.930 . S
H2574 C2587 0.929 . S
H2575 C2585 0.929 . S
H2576 C2580 0.929 . S
H2577 C2586 0.929 . S
C2578 H2572 0.930 . S
C2578 C2579 1.367 . S
C2578 C2586 1.378 . S
C2579 C2578 1.367 . S
C2579 C2587 1.433 . S
C2580 H2576 0.929 . S
C2580 C2582 1.378 . S
C2580 C2584 1.350 . S
C2581 C2584 1.463 . S
C2581 C2586 1.350 . S
C2581 N2589 1.427 . S
C2582 H2573 0.930 . S
C2582 C2580 1.378 . S
C2582 C2583 1.367 . S
C2583 C2582 1.367 . S
C2583 C2585 1.433 . S
C2584 C2580 1.350 . S
C2584 C2581 1.463 . S
C2584 N2588 1.427 . S
C2585 H2575 0.929 . S
C2585 C2583 1.433 . S
C2585 N2588 1.384 . S
C2586 H2577 0.929 . S
C2586 C2578 1.378 . S
C2586 C2581 1.350 . S
C2587 H2574 0.929 . S
C2587 C2579 1.433 . S
C2587 N2589 1.384 . S
N2588 C2584 1.427 . S
N2588 C2585 1.384 . S
N2589 C2581 1.427 . S
N2589 C2587 1.384 . S
H2590 C2596 0.930 . S
H2591 C2600 0.930 . S
H2592 C2605 0.929 . S
H2593 C2603 0.929 . S
H2594 C2598 0.929 . S
H2595 C2604 0.929 . S
C2596 H2590 0.930 . S
C2596 C2597 1.367 . S
C2596 C2604 1.378 . S
C2597 C2596 1.367 . S
C2597 C2605 1.433 . S
C2598 H2594 0.929 . S
C2598 C2600 1.378 . S
C2598 C2602 1.350 . S
C2599 C2602 1.463 . S
C2599 C2604 1.350 . S
C2599 N2607 1.427 . S
C2600 H2591 0.930 . S
C2600 C2598 1.378 . S
C2600 C2601 1.367 . S
C2601 C2600 1.367 . S
C2601 C2603 1.433 . S
C2602 C2598 1.350 . S
C2602 C2599 1.463 . S
C2602 N2606 1.427 . S
C2603 H2593 0.929 . S
C2603 C2601 1.433 . S
C2603 N2606 1.384 . S
C2604 H2595 0.929 . S
C2604 C2596 1.378 . S
C2604 C2599 1.350 . S
C2605 H2592 0.929 . S
C2605 C2597 1.433 . S
C2605 N2607 1.384 . S
N2606 C2602 1.427 . S
N2606 C2603 1.384 . S
N2607 C2599 1.427 . S
N2607 C2605 1.384 . S
C891 C353 1.070 . S
C887 C7 1.057 . S
C905 C22 1.891 . S
C909 C399 1.883 . S
C923 C31 0.947 . S
C927 C408 0.935 . S
C945 C446 1.696 . S
C941 C51 1.727 . S
C959 C17 1.691 . S
C963 C480 1.658 . S
C981 C510 0.828 . S
C977 C36 0.822 . S
C999 C569 1.675 1_556 S
C995 C49 1.658 . S
C1013 C9 1.020 . S
C1017 C582 1.022 . S
C1031 C63 1.398 . S
C1035 C365 1.389 . S
C1049 C73 1.205 . S
C1053 C383 1.187 . S
C1071 C404 1.707 . S
C1067 C91 1.685 . S
C1089 C442 0.826 . S
C1085 C101 0.830 . S
C1103 C59 1.310 . S
C1107 C476 1.282 . S
C1125 C506 1.621 . S
C1121 C77 1.608 . S
C1143 C553 1.240 . S
C1139 C87 1.262 . S
C1161 C578 0.716 . S
C1157 C105 0.705 . S
C1179 C349 0.698 1_556 S
C1175 C107 0.689 . S
C1197 C608 1.609 . S
C1193 C120 1.605 . S
C1211 C135 1.410 . S
C1215 C650 1.400 . S
C1233 C693 0.536 . S
C1229 C148 0.526 . S
C1247 C65 1.363 . S
C1251 C574 1.340 . S
C1269 C412 1.502 . S
C1265 C79 1.505 . S
C1283 C134 1.341 . S
C1287 C710 1.344 . S
C1305 C761 1.557 . S
C1301 C162 1.562 . S
C1319 C171 1.048 . S
C1323 C344 1.043 1_556 S
C1341 C744 1.833 . S
C1337 C190 1.840 . S
C1355 C203 0.922 . S
C1359 C417 0.927 . S
C1373 C219 1.677 . S
C1377 C727 1.651 . S
C1395 C489 1.625 . S
C1391 C189 1.595 . S
C1413 C655 0.791 . S
C1409 C204 0.796 . S
C1431 C540 1.625 . S
C1427 C213 1.641 . S
C1449 C795 0.979 . S
C1445 C177 0.994 . S
C1467 C336 1.373 . S
C1463 C227 1.373 . S
C1481 C245 1.145 . S
C1485 C748 1.169 . S
C1503 C433 1.655 . S
C1499 C255 1.678 . S
C1517 C273 0.771 . S
C1521 C723 0.786 . S
C1535 C231 1.249 . S
C1539 C485 1.263 . S
C1553 C241 1.595 . S
C1557 C671 1.576 . S
C1575 C544 1.224 . S
C1571 C259 1.199 . S
C1589 C269 0.677 . S
C1593 C791 0.690 . S
C1607 C275 0.676 . S
C1611 C340 0.663 . S
C1625 C288 1.577 . S
C1629 C637 1.571 . S
C1643 C303 1.369 . S
C1647 C523 1.359 . S
C1661 C316 0.496 . S
C1665 C684 0.503 . S
C1683 C807 1.314 . S
C1679 C233 1.335 . S
C1701 C421 1.468 . S
C1697 C247 1.471 . S
C1719 C467 1.309 . S
C1715 C302 1.311 . S
C1737 C378 1.526 . S
C1733 C330 1.526 . S
C1751 C35 1.056 . S
C1755 C829 1.078 . S
C1773 C773 1.882 . S
C1769 C50 1.890 . S
C1791 C850 0.944 . S
C1787 C3 0.947 . S
C1805 C23 1.729 . S
C1809 C718 1.702 . S
C1823 C45 1.691 . S
C1827 C616 1.660 1_556 S
C1845 C646 0.818 . S
C1841 C8 0.866 . S
C1863 C705 1.678 . S
C1859 C21 1.658 . S
C1881 C786 1.026 . S
C1877 C37 1.028 . S
C1899 C841 1.389 . S
C1895 C161 1.400 . S
C1913 C115 1.202 1_556 S
C1917 C757 1.192 . S
C1931 C133 1.686 . S
C1935 C846 1.732 . S
C1953 C714 0.829 . S
C1949 C143 0.833 . S
C1971 C612 1.284 . S
C1967 C157 1.312 . S
C1985 C119 1.608 . S
C1989 C642 1.623 . S
C2007 C689 1.237 . S
C2003 C129 1.262 . S
C2021 C147 0.705 . S
C2025 C782 0.716 . S
C2043 C825 0.697 . S
C2039 C149 0.698 . S
C2061 C472 1.607 . S
C2057 C78 1.607 . S
C2079 C514 1.409 . S
C2075 C93 1.410 . S
C2093 C106 0.528 . S
C2097 C557 0.552 . S
C2115 C778 1.349 . S
C2111 C163 1.370 . S
C2129 C121 1.501 . S
C2133 C854 1.500 . S
C2151 C438 1.342 . S
C2147 C92 1.341 . S
C2169 C387 1.558 . S
C2165 C64 1.558 . S
C2183 C199 1.035 . S
C2187 C820 1.028 . S
C2205 C370 1.833 . S
C2201 C218 1.839 . S
C2223 C859 0.931 . S
C2219 C175 0.913 . S
C2237 C191 1.680 . S
C2241 C455 1.644 . S
C2255 C217 1.582 . S
C2259 C625 1.616 . S
C2273 C176 0.796 . S
C2277 C519 0.785 . S
C2291 C185 1.640 . S
C2295 C676 1.626 . S
C2309 C205 0.976 . S
C2313 C591 0.970 . S
C2331 C812 1.345 . S
C2327 C325 1.368 . S
C2345 C287 1.136 . S
C2349 C374 1.160 . S
C2367 C875 1.652 . S
C2363 C297 1.677 . S
C2381 C315 0.806 . S
C2385 C451 0.813 . S
C2399 C329 1.239 . S
C2403 C621 1.256 . S
C2421 C535 1.572 . S
C2417 C283 1.599 . S
C2435 C301 1.188 . S
C2439 C680 1.216 . S
C2457 C587 0.690 . S
C2453 C311 0.677 . S
C2475 C816 0.679 . S
C2471 C317 0.669 . S
C2493 C501 1.572 . S
C2489 C246 1.574 . S
C2507 C261 1.378 . S
C2511 C659 1.366 . S
C2529 C548 0.490 . S
C2525 C274 0.484 . S
C2547 C603 1.312 . S
C2543 C331 1.336 . S
C2561 C289 1.469 1_554 S
C2565 C863 1.468 . S
C2583 C739 1.308 . S
C2579 C260 1.311 . S
C2601 C752 1.527 . S
C2597 C232 1.527 . S
