# Generated by pormake.
# Topology iac, (4,6)-cn, num edge types: 1
# Building blocks:
#     Node 0, Type 0, BuildingBlock: NAHDIM_clean_sbu_0, # of connection points: 4
#     Node 1, Type 0, BuildingBlock: NAHDIM_clean_sbu_0, # of connection points: 4
#     Node 2, Type 0, BuildingBlock: NAHDIM_clean_sbu_0, # of connection points: 4
#     Node 3, Type 0, BuildingBlock: NAHDIM_clean_sbu_0, # of connection points: 4
#     Node 4, Type 0, BuildingBlock: NAHDIM_clean_sbu_0, # of connection points: 4
#     Node 5, Type 0, BuildingBlock: NAHDIM_clean_sbu_0, # of connection points: 4
#     Node 6, Type 0, BuildingBlock: NAHDIM_clean_sbu_0, # of connection points: 4
#     Node 7, Type 0, BuildingBlock: NAHDIM_clean_sbu_0, # of connection points: 4
#     Node 8, Type 0, BuildingBlock: NAHDIM_clean_sbu_0, # of connection points: 4
#     Node 9, Type 0, BuildingBlock: NAHDIM_clean_sbu_0, # of connection points: 4
#     Node 10, Type 0, BuildingBlock: NAHDIM_clean_sbu_0, # of connection points: 4
#     Node 11, Type 0, BuildingBlock: NAHDIM_clean_sbu_0, # of connection points: 4
#     Node 12, Type 0, BuildingBlock: NAHDIM_clean_sbu_0, # of connection points: 4
#     Node 13, Type 0, BuildingBlock: NAHDIM_clean_sbu_0, # of connection points: 4
#     Node 14, Type 0, BuildingBlock: NAHDIM_clean_sbu_0, # of connection points: 4
#     Node 15, Type 0, BuildingBlock: NAHDIM_clean_sbu_0, # of connection points: 4
#     Node 16, Type 0, BuildingBlock: NAHDIM_clean_sbu_0, # of connection points: 4
#     Node 17, Type 0, BuildingBlock: NAHDIM_clean_sbu_0, # of connection points: 4
#     Node 18, Type 0, BuildingBlock: NAHDIM_clean_sbu_0, # of connection points: 4
#     Node 19, Type 0, BuildingBlock: NAHDIM_clean_sbu_0, # of connection points: 4
#     Node 20, Type 0, BuildingBlock: NAHDIM_clean_sbu_0, # of connection points: 4
#     Node 21, Type 0, BuildingBlock: NAHDIM_clean_sbu_0, # of connection points: 4
#     Node 22, Type 0, BuildingBlock: NAHDIM_clean_sbu_0, # of connection points: 4
#     Node 23, Type 0, BuildingBlock: NAHDIM_clean_sbu_0, # of connection points: 4
#     Node 24, Type 1, BuildingBlock: LEVNOQ01_clean_sbu_1, # of connection points: 6
#     Node 25, Type 1, BuildingBlock: LEVNOQ01_clean_sbu_1, # of connection points: 6
#     Node 26, Type 1, BuildingBlock: LEVNOQ01_clean_sbu_1, # of connection points: 6
#     Node 27, Type 1, BuildingBlock: LEVNOQ01_clean_sbu_1, # of connection points: 6
#     Node 28, Type 1, BuildingBlock: LEVNOQ01_clean_sbu_1, # of connection points: 6
#     Node 29, Type 1, BuildingBlock: LEVNOQ01_clean_sbu_1, # of connection points: 6
#     Node 30, Type 1, BuildingBlock: LEVNOQ01_clean_sbu_1, # of connection points: 6
#     Node 31, Type 1, BuildingBlock: LEVNOQ01_clean_sbu_1, # of connection points: 6
#     Node 32, Type 1, BuildingBlock: LEVNOQ01_clean_sbu_1, # of connection points: 6
#     Node 33, Type 1, BuildingBlock: LEVNOQ01_clean_sbu_1, # of connection points: 6
#     Node 34, Type 1, BuildingBlock: LEVNOQ01_clean_sbu_1, # of connection points: 6
#     Node 35, Type 1, BuildingBlock: LEVNOQ01_clean_sbu_1, # of connection points: 6
#     Node 36, Type 1, BuildingBlock: LEVNOQ01_clean_sbu_1, # of connection points: 6
#     Node 37, Type 1, BuildingBlock: LEVNOQ01_clean_sbu_1, # of connection points: 6
#     Node 38, Type 1, BuildingBlock: LEVNOQ01_clean_sbu_1, # of connection points: 6
#     Node 39, Type 1, BuildingBlock: LEVNOQ01_clean_sbu_1, # of connection points: 6
#     Edge 40, Type (0, 1), BuildingBlock: XIVTED_clean_linker_0, # of connection points: 2
#     Edge 41, Type (0, 1), BuildingBlock: XIVTED_clean_linker_0, # of connection points: 2
#     Edge 42, Type (0, 1), BuildingBlock: XIVTED_clean_linker_0, # of connection points: 2
#     Edge 43, Type (0, 1), BuildingBlock: XIVTED_clean_linker_0, # of connection points: 2
#     Edge 44, Type (0, 1), BuildingBlock: XIVTED_clean_linker_0, # of connection points: 2
#     Edge 45, Type (0, 1), BuildingBlock: XIVTED_clean_linker_0, # of connection points: 2
#     Edge 46, Type (0, 1), BuildingBlock: XIVTED_clean_linker_0, # of connection points: 2
#     Edge 47, Type (0, 1), BuildingBlock: XIVTED_clean_linker_0, # of connection points: 2
#     Edge 48, Type (0, 1), BuildingBlock: XIVTED_clean_linker_0, # of connection points: 2
#     Edge 49, Type (0, 1), BuildingBlock: XIVTED_clean_linker_0, # of connection points: 2
#     Edge 50, Type (0, 1), BuildingBlock: XIVTED_clean_linker_0, # of connection points: 2
#     Edge 51, Type (0, 1), BuildingBlock: XIVTED_clean_linker_0, # of connection points: 2
#     Edge 52, Type (0, 1), BuildingBlock: XIVTED_clean_linker_0, # of connection points: 2
#     Edge 53, Type (0, 1), BuildingBlock: XIVTED_clean_linker_0, # of connection points: 2
#     Edge 54, Type (0, 1), BuildingBlock: XIVTED_clean_linker_0, # of connection points: 2
#     Edge 55, Type (0, 1), BuildingBlock: XIVTED_clean_linker_0, # of connection points: 2
#     Edge 56, Type (0, 1), BuildingBlock: XIVTED_clean_linker_0, # of connection points: 2
#     Edge 57, Type (0, 1), BuildingBlock: XIVTED_clean_linker_0, # of connection points: 2
#     Edge 58, Type (0, 1), BuildingBlock: XIVTED_clean_linker_0, # of connection points: 2
#     Edge 59, Type (0, 1), BuildingBlock: XIVTED_clean_linker_0, # of connection points: 2
#     Edge 60, Type (0, 1), BuildingBlock: XIVTED_clean_linker_0, # of connection points: 2
#     Edge 61, Type (0, 1), BuildingBlock: XIVTED_clean_linker_0, # of connection points: 2
#     Edge 62, Type (0, 1), BuildingBlock: XIVTED_clean_linker_0, # of connection points: 2
#     Edge 63, Type (0, 1), BuildingBlock: XIVTED_clean_linker_0, # of connection points: 2
#     Edge 64, Type (0, 1), BuildingBlock: XIVTED_clean_linker_0, # of connection points: 2
#     Edge 65, Type (0, 1), BuildingBlock: XIVTED_clean_linker_0, # of connection points: 2
#     Edge 66, Type (0, 1), BuildingBlock: XIVTED_clean_linker_0, # of connection points: 2
#     Edge 67, Type (0, 1), BuildingBlock: XIVTED_clean_linker_0, # of connection points: 2
#     Edge 68, Type (0, 1), BuildingBlock: XIVTED_clean_linker_0, # of connection points: 2
#     Edge 69, Type (0, 1), BuildingBlock: XIVTED_clean_linker_0, # of connection points: 2
#     Edge 70, Type (0, 1), BuildingBlock: XIVTED_clean_linker_0, # of connection points: 2
#     Edge 71, Type (0, 1), BuildingBlock: XIVTED_clean_linker_0, # of connection points: 2
#     Edge 72, Type (0, 1), BuildingBlock: XIVTED_clean_linker_0, # of connection points: 2
#     Edge 73, Type (0, 1), BuildingBlock: XIVTED_clean_linker_0, # of connection points: 2
#     Edge 74, Type (0, 1), BuildingBlock: XIVTED_clean_linker_0, # of connection points: 2
#     Edge 75, Type (0, 1), BuildingBlock: XIVTED_clean_linker_0, # of connection points: 2
#     Edge 76, Type (0, 1), BuildingBlock: XIVTED_clean_linker_0, # of connection points: 2
#     Edge 77, Type (0, 1), BuildingBlock: XIVTED_clean_linker_0, # of connection points: 2
#     Edge 78, Type (0, 1), BuildingBlock: XIVTED_clean_linker_0, # of connection points: 2
#     Edge 79, Type (0, 1), BuildingBlock: XIVTED_clean_linker_0, # of connection points: 2
#     Edge 80, Type (0, 1), BuildingBlock: XIVTED_clean_linker_0, # of connection points: 2
#     Edge 81, Type (0, 1), BuildingBlock: XIVTED_clean_linker_0, # of connection points: 2
#     Edge 82, Type (0, 1), BuildingBlock: XIVTED_clean_linker_0, # of connection points: 2
#     Edge 83, Type (0, 1), BuildingBlock: XIVTED_clean_linker_0, # of connection points: 2
#     Edge 84, Type (0, 1), BuildingBlock: XIVTED_clean_linker_0, # of connection points: 2
#     Edge 85, Type (0, 1), BuildingBlock: XIVTED_clean_linker_0, # of connection points: 2
#     Edge 86, Type (0, 1), BuildingBlock: XIVTED_clean_linker_0, # of connection points: 2
#     Edge 87, Type (0, 1), BuildingBlock: XIVTED_clean_linker_0, # of connection points: 2
#     Edge 88, Type (0, 1), BuildingBlock: XIVTED_clean_linker_0, # of connection points: 2
#     Edge 89, Type (0, 1), BuildingBlock: XIVTED_clean_linker_0, # of connection points: 2
#     Edge 90, Type (0, 1), BuildingBlock: XIVTED_clean_linker_0, # of connection points: 2
#     Edge 91, Type (0, 1), BuildingBlock: XIVTED_clean_linker_0, # of connection points: 2
#     Edge 92, Type (0, 1), BuildingBlock: XIVTED_clean_linker_0, # of connection points: 2
#     Edge 93, Type (0, 1), BuildingBlock: XIVTED_clean_linker_0, # of connection points: 2
#     Edge 94, Type (0, 1), BuildingBlock: XIVTED_clean_linker_0, # of connection points: 2
#     Edge 95, Type (0, 1), BuildingBlock: XIVTED_clean_linker_0, # of connection points: 2
#     Edge 96, Type (0, 1), BuildingBlock: XIVTED_clean_linker_0, # of connection points: 2
#     Edge 97, Type (0, 1), BuildingBlock: XIVTED_clean_linker_0, # of connection points: 2
#     Edge 98, Type (0, 1), BuildingBlock: XIVTED_clean_linker_0, # of connection points: 2
#     Edge 99, Type (0, 1), BuildingBlock: XIVTED_clean_linker_0, # of connection points: 2
#     Edge 100, Type (0, 1), BuildingBlock: XIVTED_clean_linker_0, # of connection points: 2
#     Edge 101, Type (0, 1), BuildingBlock: XIVTED_clean_linker_0, # of connection points: 2
#     Edge 102, Type (0, 1), BuildingBlock: XIVTED_clean_linker_0, # of connection points: 2
#     Edge 103, Type (0, 1), BuildingBlock: XIVTED_clean_linker_0, # of connection points: 2
#     Edge 104, Type (0, 1), BuildingBlock: XIVTED_clean_linker_0, # of connection points: 2
#     Edge 105, Type (0, 1), BuildingBlock: XIVTED_clean_linker_0, # of connection points: 2
#     Edge 106, Type (0, 1), BuildingBlock: XIVTED_clean_linker_0, # of connection points: 2
#     Edge 107, Type (0, 1), BuildingBlock: XIVTED_clean_linker_0, # of connection points: 2
#     Edge 108, Type (0, 1), BuildingBlock: XIVTED_clean_linker_0, # of connection points: 2
#     Edge 109, Type (0, 1), BuildingBlock: XIVTED_clean_linker_0, # of connection points: 2
#     Edge 110, Type (0, 1), BuildingBlock: XIVTED_clean_linker_0, # of connection points: 2
#     Edge 111, Type (0, 1), BuildingBlock: XIVTED_clean_linker_0, # of connection points: 2
#     Edge 112, Type (0, 1), BuildingBlock: XIVTED_clean_linker_0, # of connection points: 2
#     Edge 113, Type (0, 1), BuildingBlock: XIVTED_clean_linker_0, # of connection points: 2
#     Edge 114, Type (0, 1), BuildingBlock: XIVTED_clean_linker_0, # of connection points: 2
#     Edge 115, Type (0, 1), BuildingBlock: XIVTED_clean_linker_0, # of connection points: 2
#     Edge 116, Type (0, 1), BuildingBlock: XIVTED_clean_linker_0, # of connection points: 2
#     Edge 117, Type (0, 1), BuildingBlock: XIVTED_clean_linker_0, # of connection points: 2
#     Edge 118, Type (0, 1), BuildingBlock: XIVTED_clean_linker_0, # of connection points: 2
#     Edge 119, Type (0, 1), BuildingBlock: XIVTED_clean_linker_0, # of connection points: 2
#     Edge 120, Type (0, 1), BuildingBlock: XIVTED_clean_linker_0, # of connection points: 2
#     Edge 121, Type (0, 1), BuildingBlock: XIVTED_clean_linker_0, # of connection points: 2
#     Edge 122, Type (0, 1), BuildingBlock: XIVTED_clean_linker_0, # of connection points: 2
#     Edge 123, Type (0, 1), BuildingBlock: XIVTED_clean_linker_0, # of connection points: 2
#     Edge 124, Type (0, 1), BuildingBlock: XIVTED_clean_linker_0, # of connection points: 2
#     Edge 125, Type (0, 1), BuildingBlock: XIVTED_clean_linker_0, # of connection points: 2
#     Edge 126, Type (0, 1), BuildingBlock: XIVTED_clean_linker_0, # of connection points: 2
#     Edge 127, Type (0, 1), BuildingBlock: XIVTED_clean_linker_0, # of connection points: 2
#     Edge 128, Type (0, 1), BuildingBlock: XIVTED_clean_linker_0, # of connection points: 2
#     Edge 129, Type (0, 1), BuildingBlock: XIVTED_clean_linker_0, # of connection points: 2
#     Edge 130, Type (0, 1), BuildingBlock: XIVTED_clean_linker_0, # of connection points: 2
#     Edge 131, Type (0, 1), BuildingBlock: XIVTED_clean_linker_0, # of connection points: 2
#     Edge 132, Type (0, 1), BuildingBlock: XIVTED_clean_linker_0, # of connection points: 2
#     Edge 133, Type (0, 1), BuildingBlock: XIVTED_clean_linker_0, # of connection points: 2
#     Edge 134, Type (0, 1), BuildingBlock: XIVTED_clean_linker_0, # of connection points: 2
#     Edge 135, Type (0, 1), BuildingBlock: XIVTED_clean_linker_0, # of connection points: 2
# Relax obj value: 0.106
# Max RMSD: 0.165
# Mean RMSD: 0.130
data_MOF--net-iac--node1-NAHDIM_clean_sbu_0--node2-LEVNOQ01_clean_sbu_1--edge1-XIVTED_clean_linker_0
_symmetry_space_group_name_H-M    P1
_symmetry_Int_Tables_number       1
_symmetry_cell_setting            triclinic
loop_
_symmetry_equiv_pos_as_xyz
'x, y, z'
_cell_length_a     55.540353
_cell_length_b     54.06644
_cell_length_c     52.922059
_cell_angle_alpha  90.069907
_cell_angle_beta   90.2939
_cell_angle_gamma 90.800027
loop_
_atom_site_label
_atom_site_type_symbol
_atom_site_fract_x
_atom_site_fract_y
_atom_site_fract_z
_atom_type_partial_charge
C0 C 0.94009 0.26455 0.13393 0.0
O1 O 0.93938 0.27324 0.11077 0.0
O2 O 0.98886 0.21281 0.10347 0.0
Zn3 Zn 0.98704 0.24611 0.12 0.0
O4 O 0.98818 0.275 0.09598 0.0
C5 C 0.02275 0.23039 0.15761 0.0
O6 O 0.01144 0.20888 0.1575 0.0
O7 O 0.95755 0.25111 0.14094 0.0
C8 C 0.00099 0.29346 0.10295 0.0
O9 O 0.01575 0.29101 0.12218 0.0
C10 C 0.00802 0.20725 0.09179 0.0
O11 O 0.02467 0.22433 0.08807 0.0
O12 O 0.01518 0.24778 0.14369 0.0
C13 C 0.03982 0.73561 0.34576 0.0
O14 O 0.03747 0.73568 0.37046 0.0
O15 O -0.0066 0.71032 0.37849 0.0
Zn16 Zn 0.99193 0.73739 0.35327 0.0
O17 O -0.0073 0.76916 0.37227 0.0
C18 C 0.94358 0.72481 0.34367 0.0
O19 O 0.94687 0.70847 0.36163 0.0
O20 O 0.0211 0.73632 0.33198 0.0
C21 C 0.97999 0.78806 0.36798 0.0
O22 O 0.9648 0.78804 0.34889 0.0
C23 C 0.98731 0.7124 0.4015 0.0
O24 O 0.97864 0.73335 0.40982 0.0
O25 O 0.96166 0.73568 0.33394 0.0
C26 C 0.44401 0.7563 0.63123 0.0
O27 O 0.44263 0.77062 0.61126 0.0
O28 O 0.49814 0.71379 0.59414 0.0
Zn29 Zn 0.49225 0.74524 0.61316 0.0
O30 O 0.48934 0.77579 0.59191 0.0
C31 C 0.52767 0.73064 0.6496 0.0
O32 O 0.51846 0.70848 0.64543 0.0
O33 O 0.46248 0.74298 0.63455 0.0
C34 C 0.49118 0.7958 0.60448 0.0
O35 O 0.49715 0.79477 0.6285 0.0
C36 C 0.51771 0.70958 0.58259 0.0
O37 O 0.53375 0.72743 0.57974 0.0
O38 O 0.5196 0.74908 0.6375 0.0
C39 C 0.52918 0.25557 0.8226 0.0
O40 O 0.52443 0.27719 0.83262 0.0
O41 O 0.50904 0.21667 0.888 0.0
Zn42 Zn 0.4954 0.23693 0.85995 0.0
O43 O 0.49106 0.27207 0.87124 0.0
C44 C 0.44737 0.21365 0.86207 0.0
O45 O 0.45171 0.21002 0.88619 0.0
O46 O 0.51866 0.23628 0.83105 0.0
C47 C 0.47103 0.28147 0.87725 0.0
O48 O 0.45141 0.26764 0.87713 0.0
C49 C 0.50453 0.2193 0.91136 0.0
O50 O 0.48952 0.23642 0.91869 0.0
O51 O 0.46369 0.22315 0.84823 0.0
C52 C 0.14642 0.94172 0.27181 0.0
O53 O 0.12366 0.94295 0.27826 0.0
O54 O 0.11661 0.98603 0.22031 0.0
Zn55 Zn 0.13724 0.98953 0.25122 0.0
O56 O 0.11668 -0.00507 0.28105 0.0
C57 C 0.15522 0.03509 0.22968 0.0
O58 O 0.13469 0.03415 0.21728 0.0
O59 O 0.15589 0.95909 0.25888 0.0
C60 C 0.10102 0.01153 0.28362 0.0
O61 O 0.09839 0.02837 0.26599 0.0
C62 C 0.09386 0.98338 0.21871 0.0
O63 O 0.08106 0.97953 0.23916 0.0
O64 O 0.16004 0.01822 0.2456 0.0
C65 C 0.19711 0.90177 0.4972 0.0
O66 O 0.19264 0.87805 0.50036 0.0
O67 O 0.23452 0.86014 0.52303 0.0
Zn68 Zn 0.24256 0.88296 0.49476 0.0
O69 O 0.2431 0.86483 0.46238 0.0
C70 C 0.28877 0.89399 0.5179 0.0
O71 O 0.28133 0.88088 0.53729 0.0
O72 O 0.2184 0.9091 0.49298 0.0
C73 C 0.26318 0.86089 0.45192 0.0
O74 O 0.28333 0.86739 0.46329 0.0
C75 C 0.24396 0.83913 0.5261 0.0
O76 O 0.26026 0.83149 0.51008 0.0
O77 O 0.27444 0.89861 0.49988 0.0
C78 C 0.35515 0.04915 0.73981 0.0
O79 O 0.37551 0.0476 0.75241 0.0
O80 O 0.39841 0.00089 0.70936 0.0
Zn81 Zn 0.36874 0.00099 0.73044 0.0
O82 O 0.37736 -0.00067 0.76717 0.0
C83 C 0.36008 0.95041 0.71819 0.0
O84 O 0.38136 0.95176 0.70752 0.0
O85 O 0.34842 0.03107 0.72604 0.0
C86 C 0.38621 0.98021 0.77729 0.0
O87 O 0.39187 0.96128 0.76307 0.0
C88 C 0.41874 0.01046 0.7151 0.0
O89 O 0.42132 0.02343 0.73595 0.0
O90 O 0.34969 0.97018 0.72472 0.0
C91 C 0.2999 0.09519 0.97851 0.0
O92 O 0.29894 0.11932 0.98125 0.0
O93 O 0.25701 0.11845 0.02806 0.0
Zn94 Zn 0.25319 0.10249 0.99382 0.0
O95 O 0.25317 0.1271 0.9658 0.0
C96 C 0.2049 0.0862 0.00786 0.0
O97 O 0.21075 0.09397 0.03062 0.0
O98 O 0.2818 0.08195 0.985 0.0
C99 C 0.25082 0.11699 0.94418 0.0
O100 O 0.24624 0.09312 0.94273 0.0
C101 C 0.24469 0.13751 0.03278 0.0
O102 O 0.23101 0.14666 0.01485 0.0
O103 O 0.22089 0.08552 0.99078 0.0
C104 C 0.70424 0.40236 0.00043 0.0
O105 O 0.70428 0.38487 0.9832 0.0
O106 O 0.74899 0.35056 0.03185 0.0
Zn107 Zn 0.74893 0.38138 0.01153 0.0
O108 O 0.75006 0.37265 0.97503 0.0
C109 C 0.79683 0.39104 0.02902 0.0
O110 O 0.79449 0.37003 0.04123 0.0
O111 O 0.72095 0.40325 0.01686 0.0
C112 C 0.76905 0.37008 0.9621 0.0
O113 O 0.79023 0.3723 0.97306 0.0
C114 C 0.74312 0.32906 0.02411 0.0
O115 O 0.73339 0.32585 0.00166 0.0
O116 O 0.7786 0.40046 0.01844 0.0
C117 C 0.85224 0.54747 0.23895 0.0
O118 O 0.87063 0.54798 0.25465 0.0
O119 O 0.9017 0.50062 0.21052 0.0
Zn120 Zn 0.87161 0.50085 0.23081 0.0
O121 O 0.8792 0.50052 0.2679 0.0
C122 C 0.86438 0.44963 0.21928 0.0
O123 O 0.88566 0.45102 0.20864 0.0
O124 O 0.84969 0.52923 0.22401 0.0
C125 C 0.88822 0.48138 0.27781 0.0
O126 O 0.89473 0.46303 0.26322 0.0
C127 C 0.92187 0.51027 0.21663 0.0
O128 O 0.92392 0.5238 0.23717 0.0
O129 O 0.85378 0.46932 0.22562 0.0
C130 C 0.80203 0.59175 0.48815 0.0
O131 O 0.7998 0.61538 0.49337 0.0
O132 O 0.75994 0.61813 0.52896 0.0
Zn133 Zn 0.75545 0.59891 0.49619 0.0
O134 O 0.75856 0.6208 0.46621 0.0
C135 C 0.70673 0.58897 0.51001 0.0
O136 O 0.71347 0.60141 0.53022 0.0
O137 O 0.78376 0.57743 0.49046 0.0
C138 C 0.74187 0.63233 0.45529 0.0
O139 O 0.71999 0.63202 0.46455 0.0
C140 C 0.75551 0.64111 0.52952 0.0
O141 O 0.74825 0.65203 0.50876 0.0
O142 O 0.72242 0.58323 0.49368 0.0
C143 C 0.63852 0.44511 0.76788 0.0
O144 O 0.61836 0.44854 0.78017 0.0
O145 O 0.60782 0.49723 0.72626 0.0
Zn146 Zn 0.63172 0.49587 0.75481 0.0
O147 O 0.61602 0.49784 0.78822 0.0
C148 C 0.65165 0.54188 0.73671 0.0
O149 O 0.63059 0.54304 0.72541 0.0
O150 O 0.6476 0.46276 0.75495 0.0
C151 C 0.59467 0.50445 0.79254 0.0
O152 O 0.58217 0.51544 0.77478 0.0
C153 C 0.58676 0.4879 0.72418 0.0
O154 O 0.57772 0.47443 0.74257 0.0
O155 O 0.65628 0.52337 0.75065 0.0
C156 C 0.05352 0.73956 0.85244 0.0
O157 O 0.05083 0.73783 0.87702 0.0
O158 O 0.00288 0.71726 0.87814 0.0
Zn159 Zn 0.00384 0.74798 0.85677 0.0
O160 O 0.00158 0.7781 0.87963 0.0
C161 C 0.95627 0.73891 0.84142 0.0
O162 O 0.95681 0.72914 0.86413 0.0
O163 O 0.03564 0.74588 0.83888 0.0
C164 C 0.98383 0.7928 0.87991 0.0
O165 O 0.96618 0.78979 0.86355 0.0
C166 C 0.00446 0.7175 0.9021 0.0
O167 O 0.00537 0.73872 0.9142 0.0
O168 O 0.97567 0.74784 0.83238 0.0
C169 C 0.94909 0.24641 0.64826 0.0
O170 O 0.94579 0.25552 0.62552 0.0
O171 O 0.98899 0.20965 0.60236 0.0
Zn172 Zn -0.00616 0.23709 0.62638 0.0
O173 O 0.99163 0.26852 0.60695 0.0
C174 C 0.04509 0.22443 0.63552 0.0
O175 O 0.0444 0.20972 0.61575 0.0
O176 O 0.96883 0.23607 0.65345 0.0
C177 C 0.01005 0.28083 0.59996 0.0
O178 O 0.03162 0.27357 0.60665 0.0
C179 C -0.00194 0.21048 0.58041 0.0
O180 O 0.01047 0.2301 0.57331 0.0
O181 O 0.02628 0.2357 0.64241 0.0
C182 C 0.55573 0.23883 0.35046 0.0
O183 O 0.55395 0.23911 0.37521 0.0
O184 O 0.50427 0.21714 0.3778 0.0
Zn185 Zn 0.5063 0.24704 0.35593 0.0
O186 O 0.50768 0.27773 0.37714 0.0
C187 C 0.46492 0.22892 0.3283 0.0
O188 O 0.47287 0.20758 0.33648 0.0
O189 O 0.53714 0.24306 0.33706 0.0
C190 C 0.48902 0.28961 0.38342 0.0
O191 O 0.46767 0.28157 0.37608 0.0
C192 C 0.49903 0.21659 0.40107 0.0
O193 O 0.49349 0.23709 0.41289 0.0
O194 O 0.47705 0.24846 0.33316 0.0
C195 C 0.45734 0.75309 0.14505 0.0
O196 O 0.45705 0.76478 0.12332 0.0
O197 O 0.49897 0.71849 0.09864 0.0
Zn198 Zn 0.50212 0.74301 0.12589 0.0
O199 O 0.50306 0.77729 0.11234 0.0
C200 C 0.5512 0.73048 0.1308 0.0
O201 O 0.55091 0.7322 0.10604 0.0
O202 O 0.47527 0.73996 0.15068 0.0
C203 C 0.5064 0.7824 0.08923 0.0
O204 O 0.51156 0.76465 0.07327 0.0
C205 C 0.48123 0.7117 0.08509 0.0
O206 O 0.46019 0.72213 0.08784 0.0
O207 O 0.53242 0.73535 0.14331 0.0
C208 C 0.85112 0.04659 0.74257 0.0
O209 O 0.87283 0.04627 0.75247 0.0
O210 O 0.87754 -0.00253 0.70243 0.0
Zn211 Zn 0.86239 -0.00358 0.73624 0.0
O212 O 0.88584 -0.00141 0.76467 0.0
C213 C 0.85733 0.94478 0.74128 0.0
O214 O 0.87948 0.94603 0.73276 0.0
O215 O 0.84099 0.02625 0.73627 0.0
C216 C 0.9075 0.99174 0.76719 0.0
O217 O 0.91937 0.98301 0.74781 0.0
C218 C 0.89263 0.01463 0.69747 0.0
O219 O 0.90123 0.02858 0.71579 0.0
O220 O 0.84499 0.96439 0.74256 0.0
C221 C 0.78782 0.08799 0.47766 0.0
O222 O 0.78688 0.11081 0.46923 0.0
O223 O 0.7532 0.11973 0.53117 0.0
Zn224 Zn 0.7444 0.10363 0.49879 0.0
O225 O 0.73867 0.12765 0.4703 0.0
C226 C 0.69725 0.10183 0.51496 0.0
O227 O 0.70149 0.12578 0.5154 0.0
O228 O 0.77027 0.07952 0.49043 0.0
C229 C 0.73509 0.15082 0.47136 0.0
O230 O 0.73528 0.16231 0.49323 0.0
C231 C 0.76722 0.13786 0.53558 0.0
O232 O 0.7788 0.14872 0.51697 0.0
O233 O 0.71336 0.08732 0.50697 0.0
C234 C 0.64628 0.95723 0.22614 0.0
O235 O 0.62309 0.95256 0.22394 0.0
O236 O 0.60198 -0.00145 0.20834 0.0
Zn237 Zn 0.62671 0.0028 0.23459 0.0
O238 O 0.61124 -0.00359 0.26754 0.0
C239 C 0.6273 0.05481 0.22332 0.0
O240 O 0.60855 0.04991 0.20885 0.0
O241 O 0.65338 0.97934 0.22955 0.0
C242 C 0.59519 0.01142 0.27449 0.0
O243 O 0.59044 0.03068 0.26031 0.0
C244 C 0.5814 0.98839 0.21066 0.0
O245 O 0.57461 0.97808 0.23195 0.0
O246 O 0.63812 0.03745 0.23463 0.0
C247 C 0.69031 0.90914 0.02791 0.0
O248 O 0.69326 0.89932 0.05037 0.0
O249 O 0.72793 0.86379 0.04761 0.0
Zn250 Zn 0.73383 0.88231 0.01546 0.0
O251 O 0.73101 0.85968 0.98535 0.0
C252 C 0.78374 0.88929 0.03049 0.0
O253 O 0.77799 0.87213 0.04702 0.0
O254 O 0.7066 0.90648 0.01128 0.0
C255 C 0.73949 0.86707 0.96435 0.0
O256 O 0.75118 0.88835 0.96347 0.0
C257 C 0.71601 0.84368 0.04971 0.0
O258 O 0.70768 0.8324 0.02942 0.0
O259 O 0.76755 0.89749 0.01567 0.0
C260 C 0.29292 0.58615 0.98845 0.0
O261 O 0.29781 0.60992 0.98644 0.0
O262 O 0.26136 0.62261 0.03391 0.0
Zn263 Zn 0.25127 0.60782 0.00186 0.0
O264 O 0.252 0.6311 0.97277 0.0
C265 C 0.20184 0.60877 0.01833 0.0
O266 O 0.20887 0.62555 0.03485 0.0
O267 O 0.27207 0.57923 -0.00477 0.0
C268 C 0.23974 0.65073 0.97131 0.0
O269 O 0.22756 0.6585 0.99091 0.0
C270 C 0.26926 0.64447 0.03671 0.0
O271 O 0.2742 0.65807 0.01681 0.0
O272 O 0.21708 0.59807 0.00437 0.0
C273 C 0.14618 0.45346 0.72961 0.0
O274 O 0.12305 0.448 0.72879 0.0
O275 O 0.1013 0.49307 0.714 0.0
Zn276 Zn 0.12666 0.49917 0.73908 0.0
O277 O 0.11204 0.49336 0.77264 0.0
C278 C 0.13087 0.54996 0.72133 0.0
O279 O 0.11499 0.54384 0.70388 0.0
O280 O 0.15283 0.4757 0.73316 0.0
C281 C 0.10322 0.51142 0.78459 0.0
O282 O 0.10639 0.53398 0.77593 0.0
C283 C 0.08011 0.50125 0.7158 0.0
O284 O 0.07396 0.51431 0.73562 0.0
O285 O 0.13855 0.53378 0.73665 0.0
C286 C 0.18537 0.39718 0.53093 0.0
O287 O 0.18312 0.37342 0.5356 0.0
O288 O 0.22832 0.3558 0.54418 0.0
Zn289 Zn 0.23285 0.3821 0.51821 0.0
O290 O 0.22992 0.36903 0.48254 0.0
C291 C 0.28381 0.38729 0.53094 0.0
O292 O 0.28209 0.36341 0.53529 0.0
O293 O 0.20558 0.40576 0.52344 0.0
C294 C 0.24761 0.36014 0.4706 0.0
O295 O 0.26856 0.35846 0.48201 0.0
C296 C 0.22151 0.33344 0.5415 0.0
O297 O 0.21868 0.32393 0.51881 0.0
O298 O 0.26523 0.39897 0.52373 0.0
C299 C 0.3372 0.53183 0.22883 0.0
O300 O 0.33897 0.52245 0.20602 0.0
O301 O 0.38286 0.4951 0.20647 0.0
Zn302 Zn 0.37344 0.49591 0.24274 0.0
O303 O 0.40216 0.50404 0.26393 0.0
C304 C 0.3567 0.44554 0.24027 0.0
O305 O 0.36624 0.44686 0.21765 0.0
O306 O 0.34969 0.52305 0.24684 0.0
C307 C 0.41874 0.48881 0.26882 0.0
O308 O 0.4176 0.46645 0.2591 0.0
C309 C 0.3935 0.51395 0.19724 0.0
O310 O 0.39907 0.53272 0.21204 0.0
O311 O 0.35808 0.46417 0.25478 0.0
O312 O 0.94488 0.02793 0.95902 0.0
Mg313 Mg 0.94181 0.02996 -0.00087 0.0
O314 O 0.97781 0.00491 0.95564 0.0
Mg315 Mg -0.00594 -0.00106 -0.00454 0.0
O316 O 0.97625 0.03214 0.01059 0.0
O317 O 0.9515 0.06142 0.02131 0.0
O318 O 0.01079 0.99338 0.035 0.0
O319 O 0.02582 0.02687 0.98622 0.0
Mg320 Mg 0.04494 0.97823 0.98573 0.0
O321 O 0.01141 0.96365 0.9808 0.0
O322 O 0.04886 0.98531 0.02536 0.0
O323 O 0.0505 0.00804 0.96066 0.0
O324 O 0.04437 0.94251 0.97197 0.0
C325 C 0.93913 0.97507 0.01286 0.0
C326 C 0.95997 0.01607 0.94577 0.0
C327 C 0.97291 0.05267 0.02203 0.0
C328 C 0.03265 0.98996 0.04158 0.0
C329 C 0.04348 0.02777 0.9709 0.0
C330 C 0.0212 0.94368 0.97251 0.0
O331 O 0.929 -0.00403 0.01448 0.0
O332 O 0.96093 0.97288 0.00541 0.0
O333 O 0.28874 0.76241 0.28732 0.0
Mg334 Mg 0.2603 0.73596 0.28371 0.0
O335 O 0.25714 0.77891 0.27154 0.0
Mg336 Mg 0.24908 0.75116 0.23907 0.0
O337 O 0.26295 0.71219 0.25437 0.0
O338 O 0.27098 0.70252 0.29488 0.0
O339 O 0.23765 0.72856 0.20451 0.0
O340 O 0.28704 0.75766 0.22464 0.0
Mg341 Mg 0.24906 0.78673 0.18566 0.0
O342 O 0.23755 0.78543 0.22116 0.0
O343 O 0.23055 0.75437 0.1724 0.0
O344 O 0.28724 0.78369 0.1919 0.0
O345 O 0.23149 0.81899 0.19947 0.0
C346 C 0.20673 0.74351 0.27788 0.0
C347 C 0.27575 0.78111 0.28524 0.0
C348 C 0.26981 0.69629 0.27136 0.0
C349 C 0.22938 0.73296 0.18246 0.0
C350 C 0.29817 0.77066 0.20831 0.0
C351 C 0.22985 0.80748 0.22065 0.0
O352 O 0.22364 0.74221 0.29406 0.0
O353 O 0.21144 0.74522 0.25448 0.0
O354 O 0.53149 0.96108 0.4458 0.0
Mg355 Mg 0.5404 0.9549 0.48422 0.0
O356 O 0.50441 0.99109 0.44947 0.0
Mg357 Mg 0.49495 -0.00467 0.49201 0.0
O358 O 0.50829 0.95796 0.50036 0.0
O359 O 0.52773 0.92321 0.50388 0.0
O360 O 0.48905 -0.00367 0.53663 0.0
O361 O 0.45951 0.97519 0.48367 0.0
Mg362 Mg 0.46401 0.02472 0.51196 0.0
O363 O 0.48103 0.03486 0.47945 0.0
O364 O 0.48377 0.03562 0.54392 0.0
O365 O 0.44185 0.99245 0.51595 0.0
O366 O 0.44747 0.05265 0.49431 0.0
C367 C 0.55257 0.00631 0.50682 0.0
C368 C 0.51741 0.97685 0.43603 0.0
C369 C 0.50904 0.93599 0.50914 0.0
C370 C 0.48912 0.01451 0.55207 0.0
C371 C 0.44296 0.97513 0.49998 0.0
C372 C 0.46524 0.05249 0.47867 0.0
O373 O 0.5592 0.98414 0.50314 0.0
O374 O 0.53146 0.01369 0.50126 0.0
O375 O 0.30498 0.28409 0.76 0.0
Mg376 Mg 0.29338 0.25855 0.73218 0.0
O377 O 0.28138 0.26158 0.78395 0.0
Mg378 Mg 0.24497 0.2577 0.76219 0.0
O379 O 0.25906 0.26594 0.72295 0.0
O380 O 0.28827 0.26919 0.69483 0.0
O381 O 0.20774 0.25345 0.743 0.0
O382 O 0.23925 0.29935 0.76883 0.0
Mg383 Mg 0.20115 0.27019 0.80454 0.0
O384 O 0.22923 0.24829 0.79886 0.0
O385 O 0.17963 0.26217 0.77168 0.0
O386 O 0.21805 0.30556 0.80386 0.0
O387 O 0.2085 0.24401 0.83358 0.0
C388 C 0.27321 0.20738 0.75063 0.0
C389 C 0.30058 0.27445 0.78126 0.0
C390 C 0.26572 0.27072 0.70018 0.0
C391 C 0.18574 0.25607 0.74933 0.0
C392 C 0.23104 0.31368 0.78586 0.0
C393 C 0.2262 0.23711 0.81982 0.0
O394 O 0.29114 0.22037 0.74314 0.0
O395 O 0.25298 0.21678 0.75625 0.0
O396 O -0.00068 0.92153 0.51388 0.0
Mg397 Mg 0.00602 0.9431 0.54717 0.0
O398 O -0.00633 0.95066 0.48445 0.0
Mg399 Mg -0.00153 0.98893 0.50359 0.0
O400 O 0.98663 0.97282 0.53915 0.0
O401 O 0.97859 0.95251 0.57368 0.0
O402 O 0.0029 0.02477 0.52962 0.0
O403 O 0.95897 -0.00148 0.49499 0.0
Mg404 Mg 0.00631 0.02734 0.48649 0.0
O405 O 0.01122 0.00056 0.46127 0.0
O406 O 0.03555 0.03631 0.51088 0.0
O407 O 0.97002 0.0376 0.4939 0.0
O408 O 0.01313 0.04132 0.4524 0.0
C409 C 0.05029 0.97351 0.53187 0.0
C410 C -0.00516 0.92796 0.49116 0.0
C411 C 0.97421 0.97098 0.55917 0.0
C412 C 0.02176 0.03839 0.5295 0.0
C413 C 0.95343 0.02127 0.49398 0.0
C414 C 0.01451 0.01859 0.44527 0.0
O415 O 0.04093 0.9599 0.54894 0.0
O416 O 0.03802 0.98172 0.51331 0.0
O417 O 0.25601 0.69728 0.78207 0.0
Mg418 Mg 0.27179 0.70039 0.74543 0.0
O419 O 0.257 0.73696 0.79175 0.0
Mg420 Mg 0.25232 0.75326 0.75234 0.0
O421 O 0.28498 0.73473 0.7354 0.0
O422 O 0.30907 0.70494 0.74727 0.0
O423 O 0.24541 0.77093 0.71356 0.0
O424 O 0.2778 0.78542 0.76395 0.0
Mg425 Mg 0.22265 0.80737 0.75892 0.0
O426 O 0.22099 0.77166 0.76824 0.0
O427 O 0.22247 0.80427 0.71843 0.0
O428 O 0.25644 0.81833 0.77502 0.0
O429 O 0.19226 0.79576 0.78077 0.0
C430 C 0.22614 0.70371 0.72437 0.0
C431 C 0.25367 0.71455 0.79805 0.0
C432 C 0.30643 0.72775 0.74108 0.0
C433 C 0.23332 0.78879 0.70443 0.0
C434 C 0.27644 0.80724 0.77304 0.0
C435 C 0.201 0.77389 0.77968 0.0
O436 O 0.24611 0.69583 0.71638 0.0
O437 O 0.2258 0.72135 0.74044 0.0
O438 O 0.46916 0.97021 0.04775 0.0
Mg439 Mg 0.46328 0.00951 0.04834 0.0
O440 O 0.48595 0.96305 0.01 0.0
Mg441 Mg 0.49288 0.00169 0.99293 0.0
O442 O 0.46105 0.01502 0.01179 0.0
O443 O 0.43031 0.02507 0.0347 0.0
O444 O 0.50074 0.04221 0.97971 0.0
O445 O 0.46647 0.99298 0.96035 0.0
Mg446 Mg 0.52054 0.00621 0.93866 0.0
O447 O 0.52562 0.98803 0.97209 0.0
O448 O 0.5303 0.04206 0.95142 0.0
O449 O 0.48476 0.00275 0.92449 0.0
O450 O 0.54007 0.97319 0.93707 0.0
C451 C 0.51532 0.02412 0.04689 0.0
C452 C 0.47767 0.95546 0.03124 0.0
C453 C 0.43987 0.02353 0.01271 0.0
C454 C 0.51721 0.05345 0.96715 0.0
C455 C 0.46615 -0.00393 0.93658 0.0
C456 C 0.53662 0.97032 0.96093 0.0
O457 O 0.49487 0.03124 0.05452 0.0
O458 O 0.51744 0.01061 0.0272 0.0
O459 O 0.2686 0.24955 0.19244 0.0
Mg460 Mg 0.24146 0.27509 0.20009 0.0
O461 O 0.24827 0.22362 0.21612 0.0
Mg462 Mg 0.2403 0.24764 0.25266 0.0
O463 O 0.24812 0.28559 0.2358 0.0
O464 O 0.25057 0.312 0.20383 0.0
O465 O 0.2326 0.27176 0.28838 0.0
O466 O 0.28016 0.24515 0.26615 0.0
Mg467 Mg 0.24006 0.22083 0.30692 0.0
O468 O 0.23199 0.21084 0.271 0.0
O469 O 0.21683 0.24931 0.31884 0.0
O470 O 0.27788 0.22857 0.30479 0.0
O471 O 0.22826 0.1844 0.30263 0.0
C472 C 0.19151 0.25513 0.21738 0.0
C473 C 0.26104 0.22782 0.19655 0.0
C474 C 0.25285 0.30759 0.22765 0.0
C475 C 0.22225 0.27028 0.30977 0.0
C476 C 0.29007 0.23765 0.2866 0.0
C477 C 0.227 0.18878 0.27872 0.0
O478 O 0.20445 0.26392 0.19963 0.0
O479 O 0.20052 0.24935 0.23885 0.0
O480 O 0.45667 0.53118 0.96431 0.0
Mg481 Mg 0.49312 0.54369 0.96343 0.0
O482 O 0.45771 0.49793 0.98959 0.0
Mg483 Mg 0.49787 0.49062 -0.00239 0.0
O484 O 0.50829 0.51091 0.96369 0.0
O485 O 0.51514 0.53574 0.9319 0.0
O486 O 0.53788 0.48455 0.00431 0.0
O487 O 0.49437 0.4551 0.97327 0.0
Mg488 Mg 0.50928 0.43993 0.0331 0.0
O489 O 0.48831 0.46984 0.03186 0.0
O490 O 0.54491 0.45593 0.03357 0.0
O491 O 0.49863 0.42225 -0.00144 0.0
O492 O 0.48414 0.44388 0.06318 0.0
C493 C 0.5066 0.54849 0.01924 0.0
C494 C 0.44631 0.51323 0.97572 0.0
C495 C 0.51818 0.51454 0.94235 0.0
C496 C 0.55221 0.47288 0.01866 0.0
C497 C 0.49427 0.43176 0.97703 0.0
C498 C 0.47758 0.46397 0.05229 0.0
O499 O 0.50699 0.55847 -0.00249 0.0
O500 O 0.50113 0.52573 0.02259 0.0
O501 O 0.76761 0.2018 0.29082 0.0
Mg502 Mg 0.78155 0.19839 0.25339 0.0
O503 O 0.75253 0.24002 0.29099 0.0
Mg504 Mg 0.75429 0.25305 0.24951 0.0
O505 O 0.7886 0.2336 0.24419 0.0
O506 O 0.81781 0.20693 0.24354 0.0
O507 O 0.7546 0.26448 0.20734 0.0
O508 O 0.777 0.28679 0.26123 0.0
Mg509 Mg 0.7239 0.30643 0.24038 0.0
O510 O 0.72057 0.27287 0.25586 0.0
O511 O 0.72967 0.29619 0.20183 0.0
O512 O 0.75465 0.32078 0.26045 0.0
O513 O 0.69026 0.29803 0.25798 0.0
C514 C 0.73377 0.19806 0.22843 0.0
C515 C 0.75731 0.21964 0.30201 0.0
C516 C 0.81079 0.22924 0.23994 0.0
C517 C 0.74331 0.27949 0.19309 0.0
C518 C 0.77423 0.30976 0.26555 0.0
C519 C 0.69905 0.27671 0.26301 0.0
O520 O 0.75436 0.18822 0.2269 0.0
O521 O 0.73111 0.21935 0.23822 0.0
O522 O 0.96781 0.44961 0.5386 0.0
Mg523 Mg 0.96193 0.48704 0.5496 0.0
O524 O 0.9919 0.45439 0.50496 0.0
Mg525 Mg -0.00701 0.49592 0.49387 0.0
O526 O 0.96095 0.50222 0.51596 0.0
O527 O 0.92987 0.50684 0.54029 0.0
O528 O -0.00557 0.53787 0.48522 0.0
O529 O 0.96695 0.48779 0.46054 0.0
Mg530 Mg 0.01887 0.50719 0.43805 0.0
O531 O 0.02586 0.48918 0.47051 0.0
O532 O 0.01729 0.54414 0.4512 0.0
O533 O 0.98608 0.49164 0.42381 0.0
O534 O 0.05227 0.48936 0.43968 0.0
C535 C 0.01344 0.51053 0.55098 0.0
C536 C 0.98101 0.44081 0.52121 0.0
C537 C 0.94021 0.51122 0.51907 0.0
C538 C 0.00576 0.55222 0.47014 0.0
C539 C 0.96734 0.48642 0.43652 0.0
C540 C 0.04685 0.4834 0.46253 0.0
O541 O -0.0066 0.50621 0.56186 0.0
O542 O 0.01745 0.50512 0.52791 0.0
O543 O 0.7063 0.80126 0.29502 0.0
Mg544 Mg 0.69453 0.76384 0.29925 0.0
O545 O 0.73458 0.79554 0.26591 0.0
Mg546 Mg 0.74381 0.7545 0.26272 0.0
O547 O 0.72595 0.74649 0.29864 0.0
O548 O 0.70378 0.74388 0.33249 0.0
O549 O 0.75438 0.71341 0.25938 0.0
O550 O 0.7769 0.76386 0.28648 0.0
Mg551 Mg 0.79532 0.75077 0.23014 0.0
O552 O 0.76181 0.76323 0.22632 0.0
O553 O 0.78752 0.71231 0.23545 0.0
O554 O 0.80865 0.77103 0.26201 0.0
O555 O 0.78721 0.76745 0.19496 0.0
C556 C 0.68703 0.74217 0.24529 0.0
C557 C 0.72199 0.80969 0.2797 0.0
C558 C 0.72339 0.73841 0.32107 0.0
C559 C 0.77067 0.70156 0.24768 0.0
C560 C 0.79831 0.77176 0.28339 0.0
C561 C 0.76583 0.77031 0.20364 0.0
O562 O 0.67803 0.74709 0.26682 0.0
O563 O 0.70935 0.74526 0.24044 0.0
O564 O 0.7433 0.24289 0.82298 0.0
Mg565 Mg 0.7333 0.2103 0.8022 0.0
O566 O 0.75074 0.26813 0.79046 0.0
Mg567 Mg 0.74743 0.24727 0.75271 0.0
O568 O 0.75465 0.21175 0.77147 0.0
O569 O 0.75553 0.17915 0.79583 0.0
O570 O 0.74434 0.22648 0.71437 0.0
O571 O 0.78888 0.2531 0.74768 0.0
Mg572 Mg 0.76013 0.28607 0.70442 0.0
O573 O 0.73912 0.28293 0.73461 0.0
O574 O 0.74899 0.2544 0.68354 0.0
O575 O 0.79499 0.28452 0.72101 0.0
O576 O 0.73613 0.31553 0.71036 0.0
C577 C 0.69135 0.22743 0.76929 0.0
C578 C 0.74906 0.26403 0.8141 0.0
C579 C 0.76283 0.19019 0.77571 0.0
C580 C 0.74428 0.23249 0.69101 0.0
C581 C 0.80285 0.26872 0.73674 0.0
C582 C 0.72893 0.30349 0.72994 0.0
O583 O 0.69817 0.2121 0.78601 0.0
O584 O 0.70623 0.24159 0.75769 0.0
O585 O 0.74109 0.76494 0.68006 0.0
Mg586 Mg 0.72563 0.79339 0.70267 0.0
O587 O 0.74862 0.73571 0.70885 0.0
Mg588 Mg 0.7401 0.75241 0.74862 0.0
O589 O 0.74513 0.79006 0.73418 0.0
O590 O 0.74581 0.82536 0.71424 0.0
O591 O 0.73031 0.77169 0.78775 0.0
O592 O 0.78114 0.75385 0.75734 0.0
Mg593 Mg 0.74685 0.72602 0.79673 0.0
O594 O 0.73409 0.71282 0.76267 0.0
O595 O 0.71783 0.74298 0.81439 0.0
O596 O 0.77889 0.74793 0.79836 0.0
O597 O 0.75468 0.68953 0.7893 0.0
C598 C 0.68366 0.76594 0.7278 0.0
C599 C 0.74836 0.7434 0.68594 0.0
C600 C 0.75359 0.81206 0.7326 0.0
C601 C 0.72001 0.76563 0.80853 0.0
C602 C 0.79067 0.75496 0.77921 0.0
C603 C 0.74444 0.69207 0.76756 0.0
O604 O 0.69013 0.78487 0.71511 0.0
O605 O 0.69893 0.75203 0.73881 0.0
O606 O 0.55054 0.506 0.50907 0.0
Mg607 Mg 0.52742 0.4745 0.51059 0.0
O608 O 0.52363 0.52558 0.48646 0.0
Mg609 Mg 0.49014 0.50206 0.49782 0.0
O610 O 0.50482 0.46408 0.48198 0.0
O611 O 0.54044 0.44635 0.49036 0.0
O612 O 0.4546 0.48094 0.50955 0.0
O613 O 0.4771 0.50629 0.4568 0.0
Mg614 Mg 0.44184 0.53988 0.49271 0.0
O615 O 0.47493 0.53789 0.50769 0.0
O616 O 0.42535 0.509 0.51113 0.0
O617 O 0.44846 0.53457 0.45307 0.0
O618 O 0.45522 0.57214 0.51208 0.0
C619 C 0.50879 0.48281 0.55562 0.0
C620 C 0.54461 0.52442 0.49591 0.0
C621 C 0.52038 0.44669 0.47797 0.0
C622 C 0.43299 0.48715 0.51482 0.0
C623 C 0.46293 0.5192 0.4433 0.0
C624 C 0.47471 0.56009 0.51582 0.0
O625 O 0.51528 0.46289 0.54562 0.0
O626 O 0.5024 0.50056 0.54129 0.0
O627 O 0.0256 0.45845 0.9421 0.0
Mg628 Mg 0.04211 0.45869 0.97807 0.0
O629 O 0.00274 0.49148 0.94837 0.0
Mg630 Mg -0.00346 0.49681 0.99147 0.0
O631 O 0.0137 0.4612 0.0008 0.0
O632 O 0.03695 0.42882 0.0032 0.0
O633 O 0.99074 0.5015 0.03433 0.0
O634 O 0.96259 0.47205 0.98698 0.0
Mg635 Mg 0.94955 0.52198 -0.00158 0.0
O636 O 0.98029 0.53565 0.98237 0.0
O637 O 0.9549 0.5187 0.03806 0.0
O638 O 0.93149 0.49467 0.97701 0.0
O639 O 0.946 0.55688 0.98566 0.0
C640 C 0.05471 0.51314 0.99263 0.0
C641 C 0.01205 0.47538 0.93375 0.0
C642 C 0.01802 0.44012 0.01066 0.0
C643 C 0.97393 0.5101 0.04789 0.0
C644 C 0.94116 0.47378 0.97881 0.0
C645 C 0.96823 0.55585 0.9788 0.0
O646 O 0.06197 0.49174 0.98635 0.0
O647 O 0.03248 0.51804 -0.0045 0.0
H648 H 0.03618 0.1899 0.05332 0.0
H649 H 0.98091 0.05534 0.07236 0.0
H650 H 0.99059 0.16577 0.11449 0.0
H651 H 0.00701 0.08263 0.00105 0.0
H652 H 0.00084 0.09023 0.09372 0.0
H653 H 0.0399 0.14657 0.03976 0.0
C654 C 0.02719 0.17546 0.06403 0.0
C655 C 0.01233 0.18138 0.08447 0.0
C656 C 0.00289 0.08822 0.07348 0.0
C657 C 0.01704 0.13209 0.06962 0.0
C658 C 0.99171 0.0682 0.06137 0.0
C659 C 0.99216 0.0665 0.03501 0.0
C660 C 0.01384 0.10693 0.05894 0.0
C661 C 0.00618 0.08358 0.02147 0.0
C662 C 0.02945 0.1508 0.0564 0.0
C663 C 0.00151 0.16204 0.09807 0.0
N664 N 0.01602 0.10356 0.03352 0.0
N665 N 0.0039 0.13831 0.09027 0.0
H666 H 0.08102 0.721 0.36851 0.0
H667 H 0.16586 0.75744 0.25258 0.0
H668 H 0.05325 0.74867 0.2978 0.0
H669 H 0.19062 0.7248 0.32228 0.0
H670 H 0.12433 0.75388 0.26782 0.0
H671 H 0.1213 0.7214 0.35081 0.0
C672 C 0.08345 0.72718 0.34921 0.0
C673 C 0.0639 0.73492 0.33459 0.0
C674 C 0.13889 0.74744 0.27968 0.0
C675 C 0.10999 0.73565 0.31422 0.0
C676 C 0.16253 0.7495 0.27104 0.0
C677 C 0.18164 0.74169 0.28637 0.0
C678 C 0.13449 0.73733 0.30369 0.0
C679 C 0.17644 0.73146 0.31005 0.0
C680 C 0.10645 0.72736 0.33907 0.0
C681 C 0.06795 0.7425 0.30962 0.0
N682 N 0.15337 0.72959 0.31796 0.0
N683 N 0.09067 0.74286 0.30022 0.0
H684 H 0.46431 0.80392 0.5618 0.0
H685 H 0.50693 0.94192 0.55934 0.0
H686 H 0.5018 0.84195 0.62234 0.0
H687 H 0.47188 0.90503 0.4969 0.0
H688 H 0.49046 0.91081 0.588 0.0
H689 H 0.45468 0.84394 0.54301 0.0
C690 C 0.47053 0.8207 0.5711 0.0
C691 C 0.48449 0.81967 0.59322 0.0
C692 C 0.48555 0.9099 0.56819 0.0
C693 C 0.47343 0.8654 0.57199 0.0
C694 C 0.4946 0.92796 0.55194 0.0
C695 C 0.49078 0.92573 0.52594 0.0
C696 C 0.4736 0.88906 0.55796 0.0
C697 C 0.47534 0.90703 0.51696 0.0
C698 C 0.46477 0.84353 0.56057 0.0
C699 C 0.49139 0.84192 0.60499 0.0
N700 N 0.46782 0.88888 0.5329 0.0
N701 N 0.48616 0.86386 0.59399 0.0
H702 H 0.40566 0.21835 0.88931 0.0
H703 H 0.34807 0.28521 0.77317 0.0
H704 H 0.43253 0.21244 0.81318 0.0
H705 H 0.30004 0.25234 0.828 0.0
H706 H 0.38186 0.26611 0.79453 0.0
H707 H 0.36765 0.23436 0.87231 0.0
C708 C 0.40331 0.21966 0.86903 0.0
C709 C 0.42245 0.21471 0.85259 0.0
C710 C 0.3639 0.26328 0.80201 0.0
C711 C 0.37979 0.23361 0.83344 0.0
C712 C 0.34461 0.27447 0.79007 0.0
C713 C 0.32106 0.26981 0.79843 0.0
C714 C 0.35975 0.24775 0.82276 0.0
C715 C 0.31787 0.25596 0.82068 0.0
C716 C 0.38177 0.22903 0.85943 0.0
C717 C 0.41844 0.21665 0.82652 0.0
N718 N 0.33706 0.24514 0.83206 0.0
N719 N 0.39775 0.22651 0.81777 0.0
H720 H 0.00932 0.79266 0.40892 0.0
H721 H 0.97224 0.9303 0.44481 0.0
H722 H 0.95557 0.83211 0.3663 0.0
H723 H 0.01076 0.8808 0.49404 0.0
H724 H 0.96803 0.89666 0.4137 0.0
H725 H 0.01258 0.82718 0.43796 0.0
C726 C -0.00182 0.80864 0.40562 0.0
C727 C 0.98212 0.80948 0.38514 0.0
C728 C 0.97735 0.89327 0.43136 0.0
C729 C 0.98575 0.84927 0.41861 0.0
C730 C 0.97983 0.91242 0.44903 0.0
C731 C 0.99181 0.90829 0.47204 0.0
C732 C 0.98729 0.8701 0.43669 0.0
C733 C 0.00121 0.88479 0.47666 0.0
C734 C 1e-05 0.82837 0.42231 0.0
C735 C 0.9682 0.83074 0.38187 0.0
N736 N -0.00117 0.86667 0.45911 0.0
N737 N 0.97033 0.8499 0.39849 0.0
H738 H 0.44321 0.7319 0.67629 0.0
H739 H 0.30824 0.76571 0.70663 0.0
H740 H 0.40219 0.78288 0.63108 0.0
H741 H 0.35317 0.72112 0.75465 0.0
H742 H 0.34403 0.77876 0.68307 0.0
H743 H 0.41201 0.73281 0.70829 0.0
C744 C 0.42762 0.74332 0.67308 0.0
C745 C 0.42512 0.75698 0.65075 0.0
C746 C 0.34612 0.76652 0.69909 0.0
C747 C 0.3892 0.75822 0.68753 0.0
C748 C 0.32571 0.75919 0.71265 0.0
C749 C 0.32772 0.74166 0.73206 0.0
C750 C 0.36851 0.75612 0.70503 0.0
C751 C 0.35078 0.73412 0.73932 0.0
C752 C 0.40985 0.74399 0.6915 0.0
C753 C 0.40466 0.77173 0.64785 0.0
N754 N 0.37022 0.74099 0.72548 0.0
N755 N 0.38733 0.77174 0.66591 0.0
H756 H 0.54409 0.19079 0.90649 0.0
H757 H 0.48584 0.08697 0.98723 0.0
H758 H 0.48477 0.20493 0.95654 0.0
H759 H 0.55627 0.08148 0.95376 0.0
H760 H 0.4887 0.13202 0.98354 0.0
H761 H 0.55308 0.1536 0.93027 0.0
C762 C 0.53324 0.18628 0.92286 0.0
C763 C 0.51328 0.20052 0.92918 0.0
C764 C 0.50375 0.12099 0.97752 0.0
C765 C 0.52309 0.15761 0.95622 0.0
C766 C 0.50208 0.09526 0.97951 0.0
C767 C 0.5204 0.08048 0.96974 0.0
C768 C 0.52382 0.13182 0.96555 0.0
C769 C 0.54128 0.09216 0.96055 0.0
C770 C 0.53841 0.16504 0.93652 0.0
C771 C 0.50009 0.19414 0.95081 0.0
N772 N 0.54222 0.11712 0.95823 0.0
N773 N 0.50481 0.1727 0.9632 0.0
H774 H 0.04922 0.19598 0.18383 0.0
H775 H 0.16429 0.28319 0.18648 0.0
H776 H 0.04828 0.27328 0.16342 0.0
H777 H 0.15958 0.22051 0.2367 0.0
H778 H 0.12197 0.27758 0.17583 0.0
H779 H 0.08958 0.2024 0.2023 0.0
C780 C 0.05733 0.21431 0.18351 0.0
C781 C 0.04554 0.23404 0.1717 0.0
C782 C 0.13004 0.26514 0.18938 0.0
C783 C 0.09144 0.24136 0.19249 0.0
C784 C 0.15426 0.26827 0.19538 0.0
C785 C 0.16542 0.25231 0.21253 0.0
C786 C 0.11682 0.24559 0.20018 0.0
C787 C 0.15152 0.23332 0.22353 0.0
C788 C 0.08029 0.21794 0.19406 0.0
C789 C 0.05681 0.25742 0.17192 0.0
N790 N 0.1279 0.23025 0.21692 0.0
N791 N 0.07919 0.26033 0.18184 0.0
H792 H 0.04709 0.97207 0.20408 0.0
H793 H 0.07788 -0.00353 0.06012 0.0
H794 H 0.11381 0.00415 0.17714 0.0
H795 H 0.00401 0.98822 0.08414 0.0
H796 H 0.09058 -0.00195 0.10387 0.0
H797 H 0.02977 0.97704 0.16142 0.0
C798 C 0.05803 0.98021 0.18929 0.0
C799 C 0.08214 0.98706 0.19395 0.0
C800 C 0.07154 -0.00396 0.09973 0.0
C801 C 0.06253 0.99295 0.14565 0.0
C802 C 0.06426 -0.00502 0.07465 0.0
C803 C 0.03986 0.9919 0.06843 0.0
C804 C 0.05439 0.99369 0.11899 0.0
C805 C 0.02304 0.99044 0.08817 0.0
C806 C 0.04811 0.98315 0.16507 0.0
C807 C 0.09538 -0.00208 0.17431 0.0
N808 N 0.03065 0.99106 0.1127 0.0
N809 N 0.08547 0.00034 0.15108 0.0
H810 H 0.23045 0.82992 0.43004 0.0
H811 H 0.2928 0.82843 0.29465 0.0
H812 H 0.29683 0.86992 0.41589 0.0
H813 H 0.25228 0.7674 0.32625 0.0
H814 H 0.28764 0.85129 0.33482 0.0
H815 H 0.23135 0.81391 0.38688 0.0
C816 C 0.24513 0.83538 0.41774 0.0
C817 C 0.26373 0.85094 0.42635 0.0
C818 C 0.27988 0.83291 0.3327 0.0
C819 C 0.26468 0.83322 0.37728 0.0
C820 C 0.28287 0.82001 0.31004 0.0
C821 C 0.2732 0.7961 0.30774 0.0
C822 C 0.26688 0.82167 0.35244 0.0
C823 C 0.26007 0.78582 0.32766 0.0
C824 C 0.24562 0.82634 0.39322 0.0
C825 C 0.28239 0.85758 0.40986 0.0
N826 N 0.25731 0.79866 0.34925 0.0
N827 N 0.28242 0.84865 0.38591 0.0
H828 H 0.45544 0.04336 0.70479 0.0
H829 H 0.48062 0.9715 0.57737 0.0
H830 H 0.42747 0.97101 0.68522 0.0
H831 H 0.49856 0.04849 0.58928 0.0
H832 H 0.4737 0.96683 0.62247 0.0
H833 H 0.48297 0.04118 0.66867 0.0
C834 C 0.45553 0.02681 0.69325 0.0
C835 C 0.43877 0.00764 0.69736 0.0
C836 C 0.47972 0.98464 0.61537 0.0
C837 C 0.46997 0.00496 0.65644 0.0
C838 C 0.48395 0.98721 0.5896 0.0
C839 C 0.49001 0.0104 0.57957 0.0
C840 C 0.48112 0.00554 0.63113 0.0
C841 C 0.4935 0.03034 0.59627 0.0
C842 C 0.47116 0.02558 0.67266 0.0
C843 C 0.43969 0.98648 0.68214 0.0
N844 N 0.48856 0.02758 0.62123 0.0
N845 N 0.45478 0.98584 0.66215 0.0
H846 H 0.2362 0.1055 0.89618 0.0
H847 H 0.26368 0.24121 0.85198 0.0
H848 H 0.27564 0.16049 0.93941 0.0
H849 H 0.22267 0.18842 0.8079 0.0
H850 H 0.28009 0.20744 0.87696 0.0
H851 H 0.24108 0.13109 0.85841 0.0
C852 C 0.24608 0.12287 0.89764 0.0
C853 C 0.25488 0.13136 0.92102 0.0
C854 C 0.26803 0.20304 0.8614 0.0
C855 C 0.26083 0.16043 0.878 0.0
C856 C 0.25892 0.22231 0.84702 0.0
C857 C 0.2418 0.21733 0.82824 0.0
C858 C 0.25897 0.17891 0.85757 0.0
C859 C 0.23577 0.19276 0.82254 0.0
C860 C 0.24902 0.13736 0.87606 0.0
C861 C 0.26789 0.1537 0.92187 0.0
N862 N 0.24387 0.17436 0.83766 0.0
N863 N 0.27024 0.1676 0.90071 0.0
H864 H 0.09876 0.97543 0.31943 0.0
H865 H 0.00627 0.04796 0.40476 0.0
H866 H 0.06601 0.04418 0.29735 0.0
H867 H 0.0373 0.9782 0.42592 0.0
H868 H 0.02302 0.04355 0.36259 0.0
H869 H 0.07243 0.97341 0.3559 0.0
C870 C 0.086 0.99015 0.32224 0.0
C871 C 0.0848 0.01024 0.3055 0.0
C872 C 0.02598 0.02905 0.37631 0.0
C873 C 0.05451 0.00791 0.3473 0.0
C874 C 0.01644 0.03156 0.40038 0.0
C875 C 0.02093 0.01365 0.4189 0.0
C876 C 0.04043 0.00869 0.37088 0.0
C877 C 0.03369 0.99252 0.41218 0.0
C878 C 0.07086 0.98887 0.34303 0.0
C879 C 0.06771 0.02852 0.30993 0.0
N880 N 0.04341 0.99082 0.38876 0.0
N881 N 0.05334 0.02703 0.33058 0.0
H882 H 0.26956 0.80124 0.54718 0.0
H883 H 0.19969 0.81405 0.67748 0.0
H884 H 0.2065 0.84572 0.55813 0.0
H885 H 0.2628 0.76923 0.66841 0.0
H886 H 0.19847 0.82046 0.63196 0.0
H887 H 0.26382 0.7837 0.58943 0.0
C888 C 0.2543 0.80699 0.55829 0.0
C889 C 0.23876 0.82529 0.54942 0.0
C890 C 0.21254 0.80911 0.63986 0.0
C891 C 0.23219 0.80554 0.59757 0.0
C892 C 0.21331 0.80557 0.66588 0.0
C893 C 0.23165 0.7915 0.67677 0.0
C894 C 0.23046 0.79884 0.6246 0.0
C895 C 0.2485 0.78043 0.66078 0.0
C896 C 0.25107 0.79704 0.58241 0.0
C897 C 0.21919 0.832 0.56446 0.0
N898 N 0.2477 0.78462 0.63549 0.0
N899 N 0.21663 0.82233 0.58791 0.0
H900 H 0.4046 0.94242 0.80543 0.0
H901 H 0.43447 0.02987 0.91951 0.0
H902 H 0.37681 0.01633 0.81192 0.0
H903 H 0.44908 0.95187 0.91989 0.0
H904 H 0.40613 0.02338 0.88448 0.0
H905 H 0.41483 0.94334 0.8503 0.0
C906 C 0.40047 0.95877 0.81634 0.0
C907 C 0.39044 0.97957 0.8048 0.0
C908 C 0.41498 0.00752 0.89262 0.0
C909 C 0.40203 0.98076 0.85618 0.0
C910 C 0.43102 0.01125 0.91265 0.0
C911 C 0.44409 0.99136 0.92215 0.0
C912 C 0.41274 0.98387 0.88167 0.0
C913 C 0.43927 0.96761 0.9128 0.0
C914 C 0.40615 0.95923 0.84203 0.0
C915 C 0.38504 8e-05 0.81994 0.0
N916 N 0.42434 0.96455 0.89262 0.0
N917 N 0.39127 0.00031 0.84477 0.0
H918 H 0.22458 0.1809 0.04727 0.0
H919 H 0.25822 0.17635 0.19382 0.0
H920 H 0.26457 0.11921 0.07658 0.0
H921 H 0.25716 0.24256 0.14822 0.0
H922 H 0.25193 0.15158 0.15476 0.0
H923 H 0.22629 0.20013 0.08893 0.0
C924 C 0.23366 0.17134 0.06247 0.0
C925 C 0.24488 0.14866 0.0583 0.0
C926 C 0.2532 0.17155 0.15361 0.0
C927 C 0.24671 0.17052 0.10613 0.0
C928 C 0.25685 0.1856 0.17573 0.0
C929 C 0.25875 0.21149 0.1742 0.0
C930 C 0.25063 0.18373 0.13027 0.0
C931 C 0.25642 0.22265 0.15037 0.0
C932 C 0.23461 0.18231 0.08625 0.0
C933 C 0.25609 0.13697 0.0789 0.0
N934 N 0.25232 0.20877 0.12953 0.0
N935 N 0.25685 0.1481 0.10201 0.0
H936 H 0.18604 0.07882 0.96066 0.0
H937 H 0.05253 0.05893 0.01067 0.0
H938 H 0.16534 0.08665 0.03877 0.0
H939 H 0.07538 0.04268 0.93475 0.0
H940 H 0.09086 0.08041 0.01837 0.0
H941 H 0.14371 0.07488 0.94889 0.0
C942 C 0.1726 0.07952 0.97539 0.0
C943 C 0.1793 0.08255 0.00083 0.0
C944 C 0.08724 0.07272 -0.00019 0.0
C945 C 0.13064 0.07831 0.98737 0.0
C946 C 0.06517 0.06078 -0.00475 0.0
C947 C 0.06102 0.04852 0.97219 0.0
C948 C 0.10514 0.07232 0.98115 0.0
C949 C 0.07811 0.05145 0.95297 0.0
C950 C 0.14839 0.07753 0.96861 0.0
C951 C 0.16102 0.08393 0.01898 0.0
N952 N 0.09964 0.0626 0.95804 0.0
N953 N 0.13752 0.08156 0.01193 0.0
H954 H 0.66825 0.40771 0.96574 0.0
H955 H 0.58783 0.47491 0.05444 0.0
H956 H 0.69897 0.44144 0.03279 0.0
H957 H 0.57514 0.47806 0.97414 0.0
H958 H 0.63076 0.46929 0.04641 0.0
H959 H 0.63608 0.43778 0.96659 0.0
C960 C 0.66834 0.42158 0.98053 0.0
C961 C 0.68581 0.42159 -0.00027 0.0
C962 C 0.61871 0.47202 0.03054 0.0
C963 C 0.64916 0.45608 0.00073 0.0
C964 C 0.59426 0.47506 0.03515 0.0
C965 C 0.57812 0.47631 0.01486 0.0
C966 C 0.62656 0.46906 0.00554 0.0
C967 C 0.58717 0.47692 0.99021 0.0
C968 C 0.65016 0.43899 0.98079 0.0
C969 C 0.68538 0.44033 0.01808 0.0
N970 N 0.61077 0.47244 0.98614 0.0
N971 N 0.66696 0.45654 0.01849 0.0
H972 H 0.87533 0.40186 0.20646 0.0
H973 H 0.77567 0.35091 0.2952 0.0
H974 H 0.83794 0.44534 0.26195 0.0
H975 H 0.82058 0.30341 0.25069 0.0
H976 H 0.80634 0.38336 0.29265 0.0
H977 H 0.86232 0.36419 0.2287 0.0
C978 C 0.86441 0.40343 0.22327 0.0
C979 C 0.85681 0.42658 0.23177 0.0
C980 C 0.80985 0.36567 0.28388 0.0
C981 C 0.8426 0.38401 0.25765 0.0
C982 C 0.79235 0.34714 0.28548 0.0
C983 C 0.79531 0.325 0.27226 0.0
C984 C 0.82978 0.36224 0.26802 0.0
C985 C 0.81742 0.32063 0.26052 0.0
C986 C 0.85729 0.38203 0.23617 0.0
C987 C 0.84332 0.42779 0.25406 0.0
N988 N 0.83355 0.3395 0.25781 0.0
N989 N 0.83647 0.40682 0.26605 0.0
H990 H 0.81221 0.54677 0.46704 0.0
H991 H 0.94028 0.56084 0.51591 0.0
H992 H 0.84487 0.61674 0.48822 0.0
H993 H 0.91358 0.49469 0.47944 0.0
H994 H 0.91124 0.58508 0.49211 0.0
H995 H 0.85218 0.53079 0.45809 0.0
C996 C 0.8278 0.55878 0.46969 0.0
C997 C 0.82541 0.58263 0.47959 0.0
C998 C 0.91208 0.56537 0.48861 0.0
C999 C 0.87104 0.56458 0.46958 0.0
C1000 C 0.92869 0.55164 0.50217 0.0
C1001 C 0.92863 0.52597 0.49979 0.0
C1002 C 0.89456 0.55291 0.47387 0.0
C1003 C 0.91357 0.51458 0.48195 0.0
C1004 C 0.8506 0.5498 0.46427 0.0
C1005 C 0.846 0.59785 0.48155 0.0
N1006 N 0.89652 0.52809 0.4701 0.0
N1007 N 0.86803 0.58837 0.47723 0.0
H1008 H 0.20154 0.0402 0.24665 0.0
H1009 H 0.19697 0.18608 0.23732 0.0
H1010 H 0.14609 0.07921 0.20624 0.0
H1011 H 0.24854 0.14469 0.28056 0.0
H1012 H 0.18489 0.14769 0.21524 0.0
H1013 H 0.22557 0.07817 0.2483 0.0
C1014 C 0.19452 0.05673 0.2379 0.0
C1015 C 0.17146 0.05677 0.22705 0.0
C1016 C 0.19924 0.14716 0.22914 0.0
C1017 C 0.19871 0.10048 0.22919 0.0
C1018 C 0.2061 0.16901 0.24165 0.0
C1019 C 0.22312 0.1681 0.26121 0.0
C1020 C 0.20969 0.12462 0.23636 0.0
C1021 C 0.23476 0.14582 0.26605 0.0
C1022 C 0.20828 0.07843 0.23876 0.0
C1023 C 0.16356 0.07854 0.21536 0.0
N1024 N 0.22761 0.12489 0.25397 0.0
N1025 N 0.17693 0.09972 0.21725 0.0
H1026 H 0.31073 0.90908 0.47471 0.0
H1027 H 0.42723 0.95303 0.54254 0.0
H1028 H 0.32533 0.89108 0.55277 0.0
H1029 H 0.42086 0.94979 0.46138 0.0
H1030 H 0.39359 0.92384 0.54616 0.0
H1031 H 0.35303 0.91847 0.46862 0.0
C1032 C 0.32286 0.90708 0.49064 0.0
C1033 C 0.31444 0.89977 0.51448 0.0
C1034 C 0.39973 0.92913 0.52752 0.0
C1035 C 0.36304 0.91068 0.50756 0.0
C1036 C 0.41874 0.94593 0.52547 0.0
C1037 C 0.42589 0.95445 0.50167 0.0
C1038 C 0.3874 0.92157 0.5056 0.0
C1039 C 0.41525 0.94408 0.48007 0.0
C1040 C 0.34713 0.91217 0.48702 0.0
C1041 C 0.33107 0.89709 0.53422 0.0
N1042 N 0.39596 0.9286 0.48254 0.0
N1043 N 0.35461 0.90299 0.53043 0.0
H1044 H 0.81619 0.55817 0.20504 0.0
H1045 H 0.7721 0.67143 0.28885 0.0
H1046 H 0.84486 0.57875 0.27821 0.0
H1047 H 0.77 0.67077 0.20746 0.0
H1048 H 0.78405 0.62785 0.28834 0.0
H1049 H 0.786 0.59075 0.20921 0.0
C1050 C 0.81603 0.56941 0.222 0.0
C1051 C 0.8334 0.56625 0.24103 0.0
C1052 C 0.78023 0.63708 0.27064 0.0
C1053 C 0.79874 0.6027 0.24617 0.0
C1054 C 0.77328 0.66178 0.27096 0.0
C1055 C 0.77059 0.67451 0.24815 0.0
C1056 C 0.78436 0.62535 0.24736 0.0
C1057 C 0.77241 0.66146 0.22538 0.0
C1058 C 0.79875 0.58778 0.22443 0.0
C1059 C 0.83218 0.58097 0.26281 0.0
N1060 N 0.77956 0.63758 0.22551 0.0
N1061 N 0.81524 0.59866 0.26471 0.0
H1062 H 0.67822 0.43085 0.74197 0.0
H1063 H 0.73216 0.32 0.77838 0.0
H1064 H 0.62548 0.40406 0.79554 0.0
H1065 H 0.68311 0.31108 0.71561 0.0
H1066 H 0.70582 0.35197 0.79585 0.0
H1067 H 0.69612 0.38984 0.74149 0.0
C1068 C 0.67053 0.41647 0.75381 0.0
C1069 C 0.65021 0.42081 0.76864 0.0
C1070 C 0.70026 0.34197 0.779 0.0
C1071 C 0.67077 0.37424 0.76825 0.0
C1072 C 0.71517 0.3238 0.76909 0.0
C1073 C 0.70971 0.31339 0.74548 0.0
C1074 C 0.68007 0.34933 0.76505 0.0
C1075 C 0.68784 0.31903 0.73379 0.0
C1076 C 0.6808 0.39322 0.75358 0.0
C1077 C 0.64103 0.40137 0.78365 0.0
N1078 N 0.67403 0.33721 0.74337 0.0
N1079 N 0.65126 0.37864 0.78289 0.0
H1080 H 0.00949 0.79729 0.92373 0.0
H1081 H 0.98226 0.93968 0.94044 0.0
H1082 H 0.95621 0.83458 0.87865 0.0
H1083 H 0.02829 0.89747 0.98938 0.0
H1084 H 0.9664 0.90074 0.92221 0.0
H1085 H 0.01095 0.83255 0.95233 0.0
C1086 C -0.00194 0.81293 0.91987 0.0
C1087 C 0.98321 0.81329 0.89842 0.0
C1088 C 0.97953 0.90001 0.93738 0.0
C1089 C 0.98492 0.85403 0.93102 0.0
C1090 C 0.98845 0.92218 0.94781 0.0
C1091 C 0.00692 0.92154 0.96592 0.0
C1092 C 0.98925 0.87735 0.94531 0.0
C1093 C 0.01441 0.8986 0.97498 0.0
C1094 C -0.00124 0.83306 0.93631 0.0
C1095 C 0.96828 0.83377 0.89475 0.0
N1096 N 0.00579 0.87744 0.96437 0.0
N1097 N 0.96985 0.85358 0.91062 0.0
H1098 H 0.91701 0.28346 0.65015 0.0
H1099 H 0.8293 0.22668 0.74304 0.0
H1100 H 0.94084 0.21951 0.69156 0.0
H1101 H 0.83628 0.30573 0.73433 0.0
H1102 H 0.8711 0.22239 0.72915 0.0
H1103 H 0.88712 0.29096 0.68252 0.0
C1104 C 0.91593 0.27099 0.66613 0.0
C1105 C 0.9312 0.25073 0.66812 0.0
C1106 C 0.86373 0.24072 0.73122 0.0
C1107 C 0.89696 0.25917 0.70532 0.0
C1108 C 0.83993 0.24319 0.73927 0.0
C1109 C 0.82918 0.26652 0.73886 0.0
C1110 C 0.87636 0.26171 0.72256 0.0
C1111 C 0.84374 0.28733 0.73401 0.0
C1112 C 0.8991 0.27547 0.68481 0.0
C1113 C 0.92923 0.23529 0.68938 0.0
N1114 N 0.86641 0.2844 0.72531 0.0
N1115 N 0.91198 0.23952 0.70702 0.0
H1116 H 0.52351 0.17462 0.39036 0.0
H1117 H 0.43413 0.09008 0.46976 0.0
H1118 H 0.46923 0.20373 0.43981 0.0
H1119 H 0.50559 0.06533 0.45149 0.0
H1120 H 0.44375 0.13012 0.45104 0.0
H1121 H 0.51545 0.13311 0.40723 0.0
C1122 C 0.51002 0.17224 0.40491 0.0
C1123 C 0.49678 0.19246 0.41359 0.0
C1124 C 0.45729 0.11588 0.45108 0.0
C1125 C 0.48716 0.14527 0.43231 0.0
C1126 C 0.45177 0.09294 0.46155 0.0
C1127 C 0.46926 0.07447 0.46263 0.0
C1128 C 0.48037 0.12038 0.44142 0.0
C1129 C 0.49165 0.07913 0.45125 0.0
C1130 C 0.50545 0.14863 0.41445 0.0
C1131 C 0.47975 0.18858 0.43261 0.0
N1132 N 0.49667 0.10178 0.44124 0.0
N1133 N 0.47515 0.16532 0.44109 0.0
H1134 H 0.55413 0.7114 0.17789 0.0
H1135 H 0.69008 0.74943 0.19424 0.0
H1136 H 0.59799 0.73392 0.11466 0.0
H1137 H 0.64757 0.71297 0.2515 0.0
H1138 H 0.65932 0.73821 0.1627 0.0
H1139 H 0.59023 0.70576 0.20299 0.0
C1140 C 0.57147 0.71494 0.16923 0.0
C1141 C 0.57316 0.72374 0.14444 0.0
C1142 C 0.65699 0.73221 0.18206 0.0
C1143 C 0.61467 0.71764 0.17316 0.0
C1144 C 0.6745 0.73863 0.20001 0.0
C1145 C 0.67089 0.73263 0.22548 0.0
C1146 C 0.63594 0.71975 0.18986 0.0
C1147 C 0.65059 0.71855 0.23212 0.0
C1148 C 0.59214 0.71159 0.18353 0.0
C1149 C 0.59603 0.72749 0.13391 0.0
N1150 N 0.63374 0.71283 0.21445 0.0
N1151 N 0.61601 0.72495 0.14856 0.0
H1152 H 0.03619 0.1947 0.55284 0.0
H1153 H 0.98762 0.05566 0.56157 0.0
H1154 H 0.96528 0.17313 0.57826 0.0
H1155 H 0.05613 0.07513 0.52827 0.0
H1156 H 0.98143 0.09884 0.57156 0.0
H1157 H 0.04433 0.1514 0.54285 0.0
C1158 C 0.0221 0.18092 0.55556 0.0
C1159 C 0.00022 0.18716 0.56679 0.0
C1160 C -0.00205 0.09368 0.56227 0.0
C1161 C 0.00957 0.138 0.5563 0.0
C1162 C 0.00172 0.06889 0.55703 0.0
C1163 C 0.02214 0.06185 0.54353 0.0
C1164 C 0.01474 0.11149 0.55397 0.0
C1165 C 0.03986 0.07988 0.53824 0.0
C1166 C 0.02688 0.15622 0.55027 0.0
C1167 C 0.98253 0.16881 0.57003 0.0
N1168 N 0.03554 0.10405 0.54305 0.0
N1169 N 0.98772 0.14493 0.56512 0.0
H1170 H 0.56402 0.22533 0.30163 0.0
H1171 H 0.70145 0.26227 0.31215 0.0
H1172 H 0.60062 0.24078 0.37214 0.0
H1173 H 0.66291 0.24962 0.24242 0.0
H1174 H 0.66856 0.2417 0.3352 0.0
H1175 H 0.60293 0.22189 0.28092 0.0
C1176 C 0.58028 0.2279 0.31277 0.0
C1177 C 0.57912 0.23412 0.33843 0.0
C1178 C 0.66759 0.24275 0.31478 0.0
C1179 C 0.62376 0.23045 0.31483 0.0
C1180 C 0.68639 0.25432 0.30169 0.0
C1181 C 0.68439 0.25786 0.27559 0.0
C1182 C 0.64676 0.23512 0.3015 0.0
C1183 C 0.66474 0.24743 0.26268 0.0
C1184 C 0.60252 0.22576 0.30099 0.0
C1185 C 0.60073 0.23649 0.35216 0.0
N1186 N 0.64642 0.23688 0.27583 0.0
N1187 N 0.62221 0.23518 0.34007 0.0
H1188 H 0.48895 0.82098 0.11639 0.0
H1189 H 0.49365 0.91707 0.00186 0.0
H1190 H 0.51305 0.8013 0.04164 0.0
H1191 H 0.46612 0.93356 0.07614 0.0
H1192 H 0.49966 0.87424 0.01515 0.0
H1193 H 0.47992 0.86222 0.10125 0.0
C1194 C 0.49251 0.82538 0.09678 0.0
C1195 C 0.50193 0.80771 0.08026 0.0
C1196 C 0.49219 0.88726 0.02844 0.0
C1197 C 0.49147 0.85503 0.06272 0.0
C1198 C 0.4887 0.91169 0.02086 0.0
C1199 C 0.47948 0.92902 0.03792 0.0
C1200 C 0.48658 0.88021 0.05328 0.0
C1201 C 0.47334 0.92095 0.0623 0.0
C1202 C 0.48721 0.84895 0.0881 0.0
C1203 C 0.5059 0.81442 0.05501 0.0
N1204 N 0.47715 0.89721 0.06926 0.0
N1205 N 0.5007 0.83762 0.047 0.0
H1206 H 0.91208 0.73213 0.86186 0.0
H1207 H 0.82878 0.74925 0.74652 0.0
H1208 H 0.94688 0.75595 0.79307 0.0
H1209 H 0.81073 0.77594 0.82079 0.0
H1210 H 0.87162 0.74936 0.75913 0.0
H1211 H 0.87341 0.74265 0.84365 0.0
C1212 C 0.91162 0.73945 0.84282 0.0
C1213 C 0.93281 0.74329 0.82903 0.0
C1214 C 0.85824 0.7558 0.77232 0.0
C1215 C 0.88832 0.75544 0.80806 0.0
C1216 C 0.83389 0.75581 0.76515 0.0
C1217 C 0.81624 0.76177 0.78298 0.0
C1218 C 0.86454 0.76157 0.7974 0.0
C1219 C 0.82374 0.7704 0.80677 0.0
C1220 C 0.88952 0.74569 0.83254 0.0
C1221 C 0.93094 0.7528 0.80435 0.0
N1222 N 0.84725 0.76949 0.81349 0.0
N1223 N 0.90894 0.75842 0.79447 0.0
H1224 H 0.95538 0.9934 0.78222 0.0
H1225 H 0.9156 0.01173 0.92572 0.0
H1226 H 0.88274 0.98905 0.81066 0.0
H1227 H 0.99067 0.0092 0.90539 0.0
H1228 H 0.90455 0.002 0.88268 0.0
H1229 H 0.97026 -0.00291 0.82618 0.0
C1230 C 0.94266 0.99304 0.79766 0.0
C1231 C 0.91779 0.99161 0.79286 0.0
C1232 C 0.92351 0.0037 0.88733 0.0
C1233 C 0.93445 -0.00436 0.84256 0.0
C1234 C 0.92982 0.00953 0.91197 0.0
C1235 C 0.95406 0.01173 0.91898 0.0
C1236 C 0.94152 0.00043 0.86915 0.0
C1237 C 0.97174 0.00787 0.90054 0.0
C1238 C 0.95111 -0.00484 0.82263 0.0
C1239 C 0.90202 0.99085 0.8134 0.0
N1240 N 0.96511 0.00263 0.87623 0.0
N1241 N 0.91061 0.99302 0.83719 0.0
H1242 H 0.76627 0.11559 0.58157 0.0
H1243 H 0.71993 0.23815 0.64718 0.0
H1244 H 0.76137 0.18659 0.54504 0.0
H1245 H 0.75974 0.18451 0.69012 0.0
H1246 H 0.723 0.21187 0.60986 0.0
H1247 H 0.7551 0.13499 0.62189 0.0
C1248 C 0.76324 0.13533 0.58223 0.0
C1249 C 0.76517 0.14975 0.56028 0.0
C1250 C 0.73078 0.2057 0.62754 0.0
C1251 C 0.75128 0.17147 0.60546 0.0
C1252 C 0.72891 0.22055 0.64881 0.0
C1253 C 0.74019 0.21369 0.67141 0.0
C1254 C 0.74422 0.18401 0.62889 0.0
C1255 C 0.75109 0.19049 0.67284 0.0
C1256 C 0.75665 0.14624 0.60503 0.0
C1257 C 0.76063 0.17505 0.56174 0.0
N1258 N 0.75331 0.17656 0.65157 0.0
N1259 N 0.75364 0.18509 0.58395 0.0
H1260 H 0.59788 0.97109 0.30506 0.0
H1261 H 0.50979 0.01922 0.40882 0.0
H1262 H 0.55862 0.03871 0.29422 0.0
H1263 H 0.52914 0.94257 0.40088 0.0
H1264 H 0.52472 0.02703 0.36599 0.0
H1265 H 0.57223 0.96103 0.34075 0.0
C1266 C 0.58382 0.98382 0.31017 0.0
C1267 C 0.58036 0.00577 0.29669 0.0
C1268 C 0.52513 0.0084 0.37345 0.0
C1269 C 0.55077 -0.00573 0.33745 0.0
C1270 C 0.51648 0.00391 0.39778 0.0
C1271 C 0.51894 0.98039 0.40855 0.0
C1272 C 0.53635 0.98924 0.36021 0.0
C1273 C 0.52758 0.96115 0.39348 0.0
C1274 C 0.56901 0.97795 0.33041 0.0
C1275 C 0.56189 0.02161 0.3042 0.0
N1276 N 0.53645 0.9661 0.37024 0.0
N1277 N 0.54783 0.01563 0.32427 0.0
H1278 H 0.71586 0.86804 0.09458 0.0
H1279 H 0.73777 0.74465 0.1707 0.0
H1280 H 0.70814 0.79503 0.06234 0.0
H1281 H 0.75294 0.81804 0.19864 0.0
H1282 H 0.71482 0.76242 0.13557 0.0
H1283 H 0.71706 0.84983 0.13664 0.0
C1284 C 0.71419 0.84814 0.09642 0.0
C1285 C 0.71264 0.83292 0.075 0.0
C1286 C 0.72256 0.77464 0.14976 0.0
C1287 C 0.71433 0.81192 0.12303 0.0
C1288 C 0.7355 0.76451 0.1698 0.0
C1289 C 0.74698 0.78007 0.18737 0.0
C1290 C 0.72168 0.80048 0.1472 0.0
C1291 C 0.74399 0.80558 0.18549 0.0
C1292 C 0.71478 0.83775 0.12044 0.0
C1293 C 0.7098 0.80734 0.07842 0.0
N1294 N 0.73189 0.81506 0.16548 0.0
N1295 N 0.71129 0.79755 0.10202 0.0
H1296 H 0.92964 0.04388 0.68035 0.0
H1297 H 0.92548 0.96997 0.55553 0.0
H1298 H 0.87046 -0.00247 0.65477 0.0
H1299 H 0.9858 0.01422 0.58123 0.0
H1300 H 0.89881 -0.00549 0.58194 0.0
H1301 H 0.94366 0.04713 0.63682 0.0
C1302 C 0.91946 0.03462 0.66552 0.0
C1303 C 0.89959 0.01941 0.6712 0.0
C1304 C 0.91775 -0.0005 0.5812 0.0
C1305 C 0.91536 0.02311 0.62155 0.0
C1306 C 0.93286 0.98552 0.56609 0.0
C1307 C 0.95765 0.99005 0.56686 0.0
C1308 C 0.92792 0.01709 0.59789 0.0
C1309 C 0.96663 0.01027 0.58054 0.0
C1310 C 0.92732 0.03666 0.64064 0.0
C1311 C 0.88655 0.00851 0.65128 0.0
N1312 N 0.95183 0.02272 0.59616 0.0
N1313 N 0.89495 0.01017 0.62737 0.0
H1314 H 0.71647 0.13332 0.42734 0.0
H1315 H 0.76521 0.24626 0.34563 0.0
H1316 H 0.74603 0.19959 0.4616 0.0
H1317 H 0.72818 0.18208 0.31553 0.0
H1318 H 0.7538 0.23309 0.38859 0.0
H1319 H 0.71559 0.15419 0.38673 0.0
C1320 C 0.72264 0.15239 0.42628 0.0
C1321 C 0.73175 0.16463 0.44767 0.0
C1322 C 0.74781 0.22217 0.37253 0.0
C1323 C 0.73122 0.18866 0.40107 0.0
C1324 C 0.7543 0.2297 0.34814 0.0
C1325 C 0.74798 0.21486 0.32738 0.0
C1326 C 0.73486 0.19983 0.3758 0.0
C1327 C 0.73381 0.19365 0.33128 0.0
C1328 C 0.72208 0.16438 0.40309 0.0
C1329 C 0.73907 0.18948 0.4454 0.0
N1330 N 0.7279 0.18666 0.35502 0.0
N1331 N 0.7391 0.2006 0.42233 0.0
H1332 H 0.57137 0.95449 0.17456 0.0
H1333 H 0.52578 0.05983 0.08163 0.0
H1334 H 0.55731 0.02911 0.19825 0.0
H1335 H 0.54635 0.98709 0.05695 0.0
H1336 H 0.54036 0.05022 0.12398 0.0
H1337 H 0.5599 0.96556 0.13133 0.0
C1338 C 0.56484 0.97291 0.17072 0.0
C1339 C 0.56499 0.99096 0.1896 0.0
C1340 C 0.54213 0.03652 0.10918 0.0
C1341 C 0.55352 0.00418 0.14057 0.0
C1342 C 0.53431 0.04221 0.08493 0.0
C1343 C 0.53429 0.02395 0.06611 0.0
C1344 C 0.5498 0.01242 0.1144 0.0
C1345 C 0.54573 0.00154 0.0711 0.0
C1346 C 0.55894 0.97943 0.14605 0.0
C1347 C 0.55706 0.01474 0.18395 0.0
N1348 N 0.55241 -0.00393 0.09508 0.0
N1349 N 0.55194 0.02083 0.15975 0.0
H1350 H 0.71074 0.82592 0.95817 0.0
H1351 H 0.73748 0.81333 0.81026 0.0
H1352 H 0.75669 0.87644 0.91683 0.0
H1353 H 0.69534 0.76042 0.8529 0.0
H1354 H 0.73997 0.83985 0.84766 0.0
H1355 H 0.70153 0.80406 0.91881 0.0
C1356 C 0.71898 0.83237 0.94083 0.0
C1357 C 0.73457 0.85301 0.94083 0.0
C1358 C 0.7299 0.82259 0.84874 0.0
C1359 C 0.72395 0.82814 0.89558 0.0
C1360 C 0.72827 0.80753 0.82729 0.0
C1361 C 0.71654 0.78439 0.82856 0.0
C1362 C 0.71967 0.81449 0.87156 0.0
C1363 C 0.70491 0.77791 0.85116 0.0
C1364 C 0.7136 0.81996 0.91832 0.0
C1365 C 0.74457 0.86061 0.91774 0.0
N1366 N 0.70703 0.79272 0.87184 0.0
N1367 N 0.73914 0.84815 0.89607 0.0
H1368 H 0.81983 0.88585 0.06571 0.0
H1369 H 0.91982 0.94629 0.9759 0.0
H1370 H 0.80555 0.91144 0.98996 0.0
H1371 H 0.92106 0.95623 0.05665 0.0
H1372 H 0.88328 0.92052 0.97997 0.0
H1373 H 0.86177 0.90019 0.06156 0.0
C1374 C 0.82552 0.89441 0.04819 0.0
C1375 C 0.80909 0.89781 0.02827 0.0
C1376 C 0.89197 0.92776 -0.00315 0.0
C1377 C 0.85706 0.91354 0.02325 0.0
C1378 C 0.91296 0.94213 -0.00542 0.0
C1379 C 0.92343 0.95318 0.01604 0.0
C1380 C 0.8816 0.92432 0.02075 0.0
C1381 C 0.91354 0.94782 0.03974 0.0
C1382 C 0.84943 0.90249 0.04586 0.0
C1383 C 0.8175 0.90882 0.00593 0.0
N1384 N 0.89302 0.93387 0.0415 0.0
N1385 N 0.84091 0.91626 0.00401 0.0
H1386 H 0.29753 0.5395 0.00791 0.0
H1387 H 0.42009 0.52282 0.93395 0.0
H1388 H 0.33056 0.59194 0.95685 0.0
H1389 H 0.41315 0.4994 0.01151 0.0
H1390 H 0.37727 0.53204 0.93295 0.0
H1391 H 0.33139 0.51132 0.0008 0.0
C1392 C 0.31166 0.54483 -0.00511 0.0
C1393 C 0.31154 0.56805 0.98304 0.0
C1394 C 0.38499 0.52422 0.94995 0.0
C1395 C 0.34928 0.536 0.97441 0.0
C1396 C 0.40934 0.51901 0.95057 0.0
C1397 C 0.4201 0.51123 0.97313 0.0
C1398 C 0.37153 0.52197 0.97214 0.0
C1399 C 0.40542 0.50591 0.99394 0.0
C1400 C 0.3308 0.52882 0.99088 0.0
C1401 C 0.33015 0.57428 0.96648 0.0
N1402 N 0.38177 0.51209 0.99322 0.0
N1403 N 0.3483 0.55833 0.96266 0.0
H1404 H 0.15539 0.56963 0.76101 0.0
H1405 H 0.18598 0.69824 0.6937 0.0
H1406 H 0.12563 0.58875 0.68815 0.0
H1407 H 0.22298 0.66764 0.75799 0.0
H1408 H 0.15687 0.66317 0.69532 0.0
H1409 H 0.17289 0.6107 0.7644 0.0
C1410 C 0.15252 0.58253 0.74567 0.0
C1411 C 0.13961 0.57559 0.72394 0.0
C1412 C 0.17124 0.66442 0.70918 0.0
C1413 C 0.15985 0.62282 0.72762 0.0
C1414 C 0.18769 0.68429 0.70825 0.0
C1415 C 0.20672 0.68542 0.72568 0.0
C1416 C 0.17423 0.64594 0.7276 0.0
C1417 C 0.20844 0.66725 0.74428 0.0
C1418 C 0.16247 0.60607 0.74765 0.0
C1419 C 0.13591 0.59331 0.705 0.0
N1420 N 0.19253 0.64817 0.74462 0.0
N1421 N 0.14636 0.61614 0.70707 0.0
H1422 H 0.13846 0.38289 0.5387 0.0
H1423 H 0.09218 0.50074 0.46729 0.0
H1424 H 0.18292 0.44692 0.52211 0.0
H1425 H 0.0436 0.44485 0.49575 0.0
H1426 H 0.12461 0.48342 0.49247 0.0
H1427 H 0.10267 0.40701 0.52918 0.0
C1428 C 0.1407 0.40215 0.53349 0.0
C1429 C 0.16376 0.41273 0.53041 0.0
C1430 C 0.10685 0.47497 0.49358 0.0
C1431 C 0.12292 0.4403 0.51944 0.0
C1432 C 0.08841 0.48479 0.47908 0.0
C1433 C 0.06545 0.47388 0.47944 0.0
C1434 C 0.10247 0.4536 0.50798 0.0
C1435 C 0.06121 0.45357 0.49521 0.0
C1436 C 0.12023 0.4159 0.52809 0.0
C1437 C 0.16554 0.43783 0.52408 0.0
N1438 N 0.07974 0.44368 0.50857 0.0
N1439 N 0.14541 0.45064 0.51839 0.0
H1440 H 0.82249 0.9377 0.77663 0.0
H1441 H 0.80098 0.8012 0.73071 0.0
H1442 H 0.87017 0.89795 0.72752 0.0
H1443 H 0.74958 0.8455 0.77034 0.0
H1444 H 0.83324 0.82962 0.74447 0.0
H1445 H 0.8032 0.89861 0.78849 0.0
C1446 C 0.82889 0.92069 0.76836 0.0
C1447 C 0.84726 0.92106 0.75032 0.0
C1448 C 0.81506 0.83265 0.75097 0.0
C1449 C 0.82517 0.87632 0.76361 0.0
C1450 C 0.79672 0.81632 0.74331 0.0
C1451 C 0.77275 0.82153 0.74909 0.0
C1452 C 0.80902 0.85431 0.76408 0.0
C1453 C 0.76792 0.84123 0.76527 0.0
C1454 C 0.81806 0.89835 0.77533 0.0
C1455 C 0.85558 0.89846 0.74099 0.0
N1456 N 0.78587 0.85728 0.7718 0.0
N1457 N 0.84406 0.877 0.74726 0.0
H1458 H 0.65364 0.1247 0.51506 0.0
H1459 H 0.58895 -0.00439 0.53911 0.0
H1460 H 0.6885 0.0566 0.53508 0.0
H1461 H 0.55503 0.05668 0.50124 0.0
H1462 H 0.62146 0.02329 0.55271 0.0
H1463 H 0.61445 0.1051 0.52403 0.0
C1464 C 0.65302 0.10577 0.52175 0.0
C1465 C 0.67407 0.09185 0.52355 0.0
C1466 C 0.60677 0.03074 0.54168 0.0
C1467 C 0.62983 0.06971 0.53413 0.0
C1468 C 0.58833 0.01493 0.53379 0.0
C1469 C 0.56993 0.02376 0.51818 0.0
C1470 C 0.60712 0.05535 0.53331 0.0
C1471 C 0.56935 0.0491 0.51269 0.0
C1472 C 0.63075 0.09468 0.52691 0.0
C1473 C 0.67253 0.06763 0.53267 0.0
N1474 N 0.58813 0.064 0.5197 0.0
N1475 N 0.65073 0.05723 0.53737 0.0
H1476 H 0.19319 0.45165 0.71473 0.0
H1477 H 0.21601 0.34999 0.81782 0.0
H1478 H 0.13863 0.41221 0.75697 0.0
H1479 H 0.24788 0.33894 0.74442 0.0
H1480 H 0.20083 0.3896 0.80342 0.0
H1481 H 0.22361 0.42277 0.7312 0.0
C1482 C 0.18767 0.43677 0.7272 0.0
C1483 C 0.16355 0.43408 0.73458 0.0
C1484 C 0.21189 0.3788 0.79083 0.0
C1485 C 0.19785 0.40276 0.75432 0.0
C1486 C 0.2206 0.35624 0.79899 0.0
C1487 C 0.23192 0.34057 0.78173 0.0
C1488 C 0.21483 0.38557 0.7655 0.0
C1489 C 0.23824 0.35007 0.75793 0.0
C1490 C 0.20494 0.42068 0.73672 0.0
C1491 C 0.15704 0.41472 0.75072 0.0
N1492 N 0.22883 0.3718 0.75008 0.0
N1493 N 0.17422 0.39998 0.7604 0.0
H1494 H 0.32128 0.56573 0.19417 0.0
H1495 H 0.28235 0.65891 0.30285 0.0
H1496 H 0.32068 0.54857 0.27379 0.0
H1497 H 0.27321 0.67599 0.22369 0.0
H1498 H 0.2953 0.61784 0.29157 0.0
H1499 H 0.30197 0.60527 0.20347 0.0
C1500 C 0.31674 0.57012 0.21353 0.0
C1501 C 0.32282 0.55405 0.23332 0.0
C1502 C 0.29031 0.6304 0.27657 0.0
C1503 C 0.30095 0.59901 0.24401 0.0
C1504 C 0.28293 0.65399 0.28301 0.0
C1505 C 0.27671 0.67099 0.26417 0.0
C1506 C 0.29166 0.6236 0.25104 0.0
C1507 C 0.27786 0.66344 0.23881 0.0
C1508 C 0.30582 0.59268 0.21882 0.0
C1509 C 0.31663 0.56059 0.25803 0.0
N1510 N 0.28536 0.64026 0.23293 0.0
N1511 N 0.3062 0.5826 0.26266 0.0
H1512 H 0.54393 0.69348 0.54191 0.0
H1513 H 0.49051 0.55922 0.56445 0.0
H1514 H 0.50502 0.66769 0.60729 0.0
H1515 H 0.5061 0.59004 0.49128 0.0
H1516 H 0.51509 0.5921 0.58405 0.0
H1517 H 0.54762 0.65028 0.5277 0.0
C1518 C 0.53654 0.6787 0.55343 0.0
C1519 C 0.52327 0.68404 0.5752 0.0
C1520 C 0.51385 0.59118 0.56363 0.0
C1521 C 0.52799 0.63503 0.55962 0.0
C1522 C 0.49996 0.57238 0.55251 0.0
C1523 C 0.49599 0.57254 0.52642 0.0
C1524 C 0.52313 0.61039 0.54845 0.0
C1525 C 0.50852 0.5898 0.5116 0.0
C1526 C 0.53879 0.65414 0.54545 0.0
C1527 C 0.51456 0.66433 0.58985 0.0
N1528 N 0.52111 0.60851 0.52286 0.0
N1529 N 0.51681 0.64074 0.58165 0.0
H1530 H 0.56158 0.29118 0.80739 0.0
H1531 H 0.65588 0.19246 0.77387 0.0
H1532 H 0.54221 0.21428 0.79645 0.0
H1533 H 0.66767 0.26958 0.75639 0.0
H1534 H 0.61278 0.1999 0.77685 0.0
H1535 H 0.59869 0.28448 0.78393 0.0
C1536 C 0.56487 0.27301 0.79961 0.0
C1537 C 0.54909 0.25309 0.80444 0.0
C1538 C 0.62468 0.21513 0.7718 0.0
C1539 C 0.59153 0.24529 0.77775 0.0
C1540 C 0.64928 0.21088 0.77017 0.0
C1541 C 0.66531 0.23054 0.76539 0.0
C1542 C 0.61616 0.23935 0.76937 0.0
C1543 C 0.65586 0.25398 0.76038 0.0
C1544 C 0.58604 0.26921 0.78614 0.0
C1545 C 0.55417 0.23002 0.7937 0.0
N1546 N 0.6319 0.2579 0.76317 0.0
N1547 N 0.57518 0.22663 0.78128 0.0
H1548 H 0.02195 0.33666 0.11814 0.0
H1549 H 0.98057 0.40952 0.00013 0.0
H1550 H 0.96974 0.30709 0.06499 0.0
H1551 H 0.02114 0.44182 0.06161 0.0
H1552 H 0.96707 0.37622 0.0281 0.0
H1553 H 0.01482 0.3778 0.10198 0.0
C1554 C 0.00896 0.33881 0.10299 0.0
C1555 C -0.00317 0.3183 0.0925 0.0
C1556 C 0.97819 0.39103 0.03582 0.0
C1557 C 0.9885 0.36569 0.07381 0.0
C1558 C 0.98565 0.41016 0.01992 0.0
C1559 C 0.00202 0.42811 0.02875 0.0
C1560 C 0.98805 0.3896 0.06026 0.0
C1561 C 0.00852 0.42813 0.05425 0.0
C1562 C 0.00466 0.36244 0.09396 0.0
C1563 C 0.97989 0.32235 0.07323 0.0
N1564 N 0.00197 0.40874 0.06906 0.0
N1565 N 0.97649 0.34559 0.06419 0.0
H1566 H 0.93315 0.76516 0.31542 0.0
H1567 H 0.79777 0.74817 0.32865 0.0
H1568 H 0.90113 0.7126 0.36722 0.0
H1569 H 0.83235 0.8081 0.28859 0.0
H1570 H 0.83325 0.74466 0.35556 0.0
H1571 H 0.89641 0.78829 0.31548 0.0
C1572 C 0.91828 0.75835 0.32673 0.0
C1573 C 0.92014 0.73671 0.34109 0.0
C1574 C 0.83278 0.75928 0.3416 0.0
C1575 C 0.87747 0.76308 0.34089 0.0
C1576 C 0.81243 0.76139 0.32633 0.0
C1577 C 0.813 0.7775 0.30562 0.0
C1578 C 0.8535 0.77315 0.33549 0.0
C1579 C 0.83195 0.79459 0.30368 0.0
C1580 C 0.89732 0.77184 0.32707 0.0
C1581 C 0.90029 0.72896 0.35549 0.0
N1582 N 0.85188 0.79155 0.31804 0.0
N1583 N 0.87955 0.74194 0.35468 0.0
H1584 H 0.43503 0.3044 0.90308 0.0
H1585 H 0.51576 0.42513 0.93113 0.0
H1586 H 0.50533 0.31752 0.87092 0.0
H1587 H 0.45624 0.40043 0.97697 0.0
H1588 H 0.50624 0.39188 0.90066 0.0
H1589 H 0.4367 0.34579 0.9218 0.0
C1590 C 0.45067 0.31611 0.89968 0.0
C1591 C 0.47033 0.30735 0.88595 0.0
C1592 C 0.49502 0.39407 0.91716 0.0
C1593 C 0.47232 0.3546 0.90719 0.0
C1594 C 0.5004 0.413 0.93441 0.0
C1595 C 0.48691 0.41503 0.95656 0.0
C1596 C 0.47589 0.37746 0.92218 0.0
C1597 C 0.46721 0.39904 0.96018 0.0
C1598 C 0.45162 0.3397 0.91037 0.0
C1599 C 0.49002 0.32338 0.88189 0.0
N1600 N 0.46236 0.38079 0.94324 0.0
N1601 N 0.49064 0.34616 0.89269 0.0
H1602 H 0.9446 0.26682 0.18493 0.0
H1603 H 0.80372 0.26383 0.20325 0.0
H1604 H 0.8934 0.2783 0.12465 0.0
H1605 H 0.85649 0.23721 0.25611 0.0
H1606 H 0.83595 0.28526 0.17989 0.0
H1607 H 0.91261 0.27241 0.21563 0.0
C1608 C 0.92657 0.27059 0.17818 0.0
C1609 C 0.92136 0.27108 0.15227 0.0
C1610 C 0.84035 0.27538 0.19705 0.0
C1611 C 0.8846 0.27722 0.18727 0.0
C1612 C 0.82198 0.26328 0.21038 0.0
C1613 C 0.82777 0.24824 0.23099 0.0
C1614 C 0.8644 0.27237 0.20475 0.0
C1615 C 0.85153 0.24816 0.23981 0.0
C1616 C 0.90836 0.27401 0.1957 0.0
C1617 C 0.89796 0.27708 0.14452 0.0
N1618 N 0.86906 0.2597 0.22641 0.0
N1619 N 0.88022 0.27928 0.16199 0.0
H1620 H 0.00542 0.6679 0.38914 0.0
H1621 H 0.96815 0.58106 0.48499 0.0
H1622 H 0.97705 0.70864 0.45247 0.0
H1623 H 0.04301 0.58424 0.4641 0.0
H1624 H 0.96556 0.62585 0.47761 0.0
H1625 H 0.01258 0.63315 0.41679 0.0
C1626 C 0.0008 0.66965 0.40891 0.0
C1627 C 0.99083 0.6913 0.41857 0.0
C1628 C 0.98277 0.61684 0.47586 0.0
C1629 C -0.00088 0.65144 0.45026 0.0
C1630 C 0.98422 0.59136 0.4799 0.0
C1631 C 0.00553 0.57905 0.47407 0.0
C1632 C 0.00274 0.62948 0.46581 0.0
C1633 C 0.02599 0.59307 0.46779 0.0
C1634 C 0.00508 0.64986 0.42468 0.0
C1635 C 0.98488 0.69223 0.44438 0.0
N1636 N 0.02394 0.61752 0.46311 0.0
N1637 N 0.98891 0.6723 0.45951 0.0
H1638 H 0.54138 0.77354 0.6725 0.0
H1639 H 0.6638 0.71922 0.72618 0.0
H1640 H 0.55868 0.69607 0.66857 0.0
H1641 H 0.64525 0.79641 0.72625 0.0
H1642 H 0.62232 0.70869 0.71345 0.0
H1643 H 0.57606 0.78052 0.69995 0.0
C1644 C 0.55249 0.75796 0.67751 0.0
C1645 C 0.54745 0.7343 0.66791 0.0
C1646 C 0.62721 0.72788 0.71681 0.0
C1647 C 0.58744 0.74216 0.69921 0.0
C1648 C 0.6508 0.73387 0.72427 0.0
C1649 C 0.65796 0.75875 0.72685 0.0
C1650 C 0.61084 0.74695 0.71208 0.0
C1651 C 0.64052 0.77703 0.72403 0.0
C1652 C 0.57226 0.76192 0.69329 0.0
C1653 C 0.56213 0.71467 0.67542 0.0
N1654 N 0.61788 0.77078 0.71651 0.0
N1655 N 0.58175 0.7191 0.69035 0.0
H1656 H 0.60453 0.50445 0.67959 0.0
H1657 H 0.48452 0.50104 0.59729 0.0
H1658 H 0.53827 0.48024 0.71474 0.0
H1659 H 0.55365 0.47588 0.57182 0.0
H1660 H 0.50175 0.50614 0.64044 0.0
H1661 H 0.58334 0.50794 0.63949 0.0
C1662 C 0.58544 0.5001 0.67897 0.0
C1663 C 0.57323 0.4916 0.70045 0.0
C1664 C 0.51296 0.49959 0.62521 0.0
C1665 C 0.54885 0.49587 0.65453 0.0
C1666 C 0.50324 0.4968 0.60079 0.0
C1667 C 0.51772 0.48777 0.5813 0.0
C1668 C 0.5373 0.49402 0.62949 0.0
C1669 C 0.54187 0.48259 0.58649 0.0
C1670 C 0.57338 0.50213 0.65606 0.0
C1671 C 0.54841 0.48641 0.69846 0.0
N1672 N 0.5509 0.48588 0.61001 0.0
N1673 N 0.53695 0.48849 0.67573 0.0
H1674 H 0.72815 0.36699 0.93371 0.0
H1675 H 0.78786 0.2954 0.81867 0.0
H1676 H 0.80484 0.35528 0.93001 0.0
H1677 H 0.71739 0.27955 0.84884 0.0
H1678 H 0.7934 0.32817 0.8508 0.0
H1679 H 0.72342 0.34691 0.89274 0.0
C1680 C 0.74406 0.36045 0.92415 0.0
C1681 C 0.76685 0.36205 0.93561 0.0
C1682 C 0.77665 0.31768 0.85005 0.0
C1683 C 0.76146 0.33919 0.88878 0.0
C1684 C 0.77352 0.2991 0.83188 0.0
C1685 C 0.75233 0.28471 0.83166 0.0
C1686 C 0.75814 0.3221 0.86737 0.0
C1687 C 0.73413 0.29007 0.84886 0.0
C1688 C 0.74131 0.34905 0.90078 0.0
C1689 C 0.78688 0.3539 0.92204 0.0
N1690 N 0.73744 0.30838 0.86606 0.0
N1691 N 0.78369 0.34238 0.89939 0.0
H1692 H 0.93486 0.46951 0.19059 0.0
H1693 H 0.96564 0.54894 0.07868 0.0
H1694 H 0.95352 0.54641 0.20169 0.0
H1695 H 0.98839 0.47308 0.07933 0.0
H1696 H 0.96512 0.5488 0.12484 0.0
H1697 H 0.95919 0.46915 0.1523 0.0
C1698 C 0.94471 0.48614 0.18527 0.0
C1699 C 0.94182 0.5082 0.19876 0.0
C1700 C 0.9708 0.53233 0.11497 0.0
C1701 C 0.96894 0.50814 0.15481 0.0
C1702 C 0.97083 0.53235 0.08868 0.0
C1703 C 0.97668 0.51086 0.07544 0.0
C1704 C 0.97577 0.51038 0.128 0.0
C1705 C 0.98361 0.48991 0.08906 0.0
C1706 C 0.95865 0.48591 0.1635 0.0
C1707 C 0.9551 0.52916 0.19147 0.0
N1708 N 0.98232 0.48994 0.11471 0.0
N1709 N 0.96751 0.52887 0.16941 0.0
H1710 H 0.76054 0.61744 0.41055 0.0
H1711 H 0.75151 0.75446 0.35942 0.0
H1712 H 0.73838 0.68188 0.45187 0.0
H1713 H 0.73583 0.69075 0.31297 0.0
H1714 H 0.76904 0.72742 0.39142 0.0
H1715 H 0.7702 0.64401 0.374 0.0
C1716 C 0.75793 0.63723 0.41186 0.0
C1717 C 0.74799 0.64769 0.43362 0.0
C1718 C 0.76258 0.71943 0.37381 0.0
C1719 C 0.76008 0.67782 0.39308 0.0
C1720 C 0.75271 0.73481 0.35561 0.0
C1721 C 0.74191 0.7245 0.33408 0.0
C1722 C 0.76067 0.69372 0.37063 0.0
C1723 C 0.74386 0.69912 0.32966 0.0
C1724 C 0.76368 0.65226 0.39128 0.0
C1725 C 0.74534 0.67325 0.43499 0.0
N1726 N 0.75242 0.68431 0.34827 0.0
N1727 N 0.75128 0.6875 0.41488 0.0
H1728 H 0.54689 0.50566 0.80481 0.0
H1729 H 0.56607 0.50775 0.94054 0.0
H1730 H 0.61611 0.4822 0.83285 0.0
H1731 H 0.49822 0.47983 0.91211 0.0
H1732 H 0.58618 0.49039 0.9039 0.0
H1733 H 0.52856 0.49134 0.84408 0.0
C1734 C 0.5582 0.49744 0.81917 0.0
C1735 C 0.58313 0.49585 0.81593 0.0
C1736 C 0.56705 0.48696 0.90616 0.0
C1737 C 0.5623 0.47903 0.86053 0.0
C1738 C 0.55567 0.49669 0.9272 0.0
C1739 C 0.53064 0.49525 0.92889 0.0
C1740 C 0.55289 0.47729 0.88633 0.0
C1741 C 0.51765 0.48138 0.91101 0.0
C1742 C 0.54768 0.48879 0.84134 0.0
C1743 C 0.59688 0.48442 0.83488 0.0
N1744 N 0.52882 0.4737 0.88975 0.0
N1745 N 0.58635 0.47692 0.85665 0.0
H1746 H 0.78385 0.31765 0.0492 0.0
H1747 H 0.70585 0.27956 0.16036 0.0
H1748 H 0.71001 0.29429 0.03873 0.0
H1749 H 0.78291 0.27156 0.16353 0.0
H1750 H 0.70749 0.27834 0.11435 0.0
H1751 H 0.78582 0.29333 0.08792 0.0
C1752 C 0.76828 0.30667 0.05475 0.0
C1753 C 0.74655 0.30833 0.04139 0.0
C1754 C 0.72405 0.27636 0.12502 0.0
C1755 C 0.74832 0.28133 0.08589 0.0
C1756 C 0.72312 0.27737 0.15125 0.0
C1757 C 0.74435 0.27626 0.16556 0.0
C1758 C 0.74646 0.2751 0.113 0.0
C1759 C 0.76621 0.27281 0.15304 0.0
C1760 C 0.76939 0.29278 0.07681 0.0
C1761 C 0.72696 0.29366 0.0489 0.0
N1762 N 0.76681 0.273 0.12735 0.0
N1763 N 0.72804 0.28131 0.07122 0.0
H1764 H 0.87991 0.51708 0.31343 0.0
H1765 H 0.9526 0.44274 0.41598 0.0
H1766 H 0.9029 0.44156 0.30512 0.0
H1767 H 0.93281 0.51902 0.42423 0.0
H1768 H 0.92334 0.43827 0.38147 0.0
H1769 H 0.88901 0.51484 0.35861 0.0
C1770 C 0.88669 0.49997 0.32114 0.0
C1771 C 0.89139 0.47972 0.3054 0.0
C1772 C 0.9249 0.45586 0.3912 0.0
C1773 C 0.90166 0.47698 0.35699 0.0
C1774 C 0.94144 0.45828 0.41097 0.0
C1775 C 0.9451 0.48129 0.42251 0.0
C1776 C 0.91269 0.47685 0.38252 0.0
C1777 C 0.93043 0.50101 0.41551 0.0
C1778 C 0.89174 0.49865 0.34696 0.0
C1779 C 0.89965 0.45785 0.31646 0.0
N1780 N 0.91521 0.49853 0.39548 0.0
N1781 N 0.90485 0.45719 0.3415 0.0
H1782 H 0.75326 0.69101 0.53504 0.0
H1783 H 0.74901 0.69229 0.68495 0.0
H1784 H 0.76272 0.62399 0.57801 0.0
H1785 H 0.76309 0.75674 0.63898 0.0
H1786 H 0.75401 0.66613 0.64728 0.0
H1787 H 0.75565 0.71481 0.57394 0.0
C1788 C 0.75595 0.68127 0.55268 0.0
C1789 C 0.75779 0.65547 0.55324 0.0
C1790 C 0.75633 0.68598 0.64562 0.0
C1791 C 0.7605 0.68274 0.59815 0.0
C1792 C 0.75357 0.70089 0.6671 0.0
C1793 C 0.75522 0.72677 0.665 0.0
C1794 C 0.76066 0.69713 0.62205 0.0
C1795 C 0.76115 0.73693 0.64142 0.0
C1796 C 0.75744 0.69492 0.57495 0.0
C1797 C 0.76127 0.6439 0.57674 0.0
N1798 N 0.76338 0.72214 0.6209 0.0
N1799 N 0.76232 0.65762 0.59836 0.0
H1800 H 0.68527 0.57315 0.46596 0.0
H1801 H 0.5573 0.55916 0.5303 0.0
H1802 H 0.66913 0.59632 0.54204 0.0
H1803 H 0.57262 0.53394 0.45495 0.0
H1804 H 0.59514 0.58283 0.53055 0.0
H1805 H 0.64219 0.56695 0.45801 0.0
C1806 C 0.67268 0.5768 0.48104 0.0
C1807 C 0.68084 0.58467 0.50491 0.0
C1808 C 0.59005 0.57263 0.51368 0.0
C1809 C 0.63153 0.57791 0.49584 0.0
C1810 C 0.56838 0.55932 0.5135 0.0
C1811 C 0.56222 0.54452 0.49268 0.0
C1812 C 0.60587 0.5704 0.49317 0.0
C1813 C 0.57699 0.54513 0.47137 0.0
C1814 C 0.64807 0.57353 0.4764 0.0
C1815 C 0.66369 0.5898 0.52349 0.0
N1816 N 0.59849 0.55744 0.47234 0.0
N1817 N 0.6399 0.58607 0.51865 0.0
H1818 H 0.17155 0.90022 0.53996 0.0
H1819 H 0.07864 0.9916 0.49371 0.0
H1820 H 0.18445 0.94458 0.47365 0.0
H1821 H 0.08189 0.96537 0.57065 0.0
H1822 H 0.12162 0.98434 0.48959 0.0
H1823 H 0.14293 0.93048 0.55474 0.0
C1824 C 0.16809 0.91638 0.52846 0.0
C1825 C 0.17959 0.91979 0.50533 0.0
C1826 C 0.1131 0.98086 0.50763 0.0
C1827 C 0.14691 0.95446 0.52188 0.0
C1828 C 0.08851 0.9849 0.50997 0.0
C1829 C 0.07652 0.97739 0.53199 0.0
C1830 C 0.12532 0.96896 0.52734 0.0
C1831 C 0.09028 0.96998 0.55281 0.0
C1832 C 0.15212 0.9339 0.53706 0.0
C1833 C 0.17535 0.94129 0.49141 0.0
N1834 N 0.11394 0.96524 0.54976 0.0
N1835 N 0.15878 0.95766 0.49961 0.0
H1836 H 0.33414 0.94594 0.76121 0.0
H1837 H 0.31958 0.80185 0.74911 0.0
H1838 H 0.37083 0.90266 0.70505 0.0
H1839 H 0.28349 0.84702 0.80402 0.0
H1840 H 0.34806 0.8358 0.74144 0.0
H1841 H 0.32388 0.90839 0.7838 0.0
C1842 C 0.33972 0.92842 0.75337 0.0
C1843 C 0.35264 0.92731 0.73071 0.0
C1844 C 0.33435 0.83803 0.75571 0.0
C1845 C 0.34101 0.884 0.75675 0.0
C1846 C 0.31821 0.81856 0.76028 0.0
C1847 C 0.29856 0.82217 0.77638 0.0
C1848 C 0.33059 0.86099 0.76737 0.0
C1849 C 0.2979 0.84392 0.79072 0.0
C1850 C 0.33419 0.90696 0.76656 0.0
C1851 C 0.3603 0.90419 0.72213 0.0
N1852 N 0.3133 0.8628 0.7854 0.0
N1853 N 0.35397 0.88331 0.73493 0.0
H1854 H 0.34204 0.11862 0.96583 0.0
H1855 H 0.40719 -0.00453 0.98724 0.0
H1856 H 0.30784 0.04646 0.96739 0.0
H1857 H 0.44161 0.06728 0.98801 0.0
H1858 H 0.37476 0.01201 0.96114 0.0
H1859 H 0.38026 0.09929 0.95624 0.0
C1860 C 0.34249 0.09869 0.96386 0.0
C1861 C 0.322 0.08397 0.96867 0.0
C1862 C 0.38975 0.02405 0.96628 0.0
C1863 C 0.36571 0.06176 0.95769 0.0
C1864 C 0.40825 0.01455 0.98106 0.0
C1865 C 0.42643 0.03037 0.99014 0.0
C1866 C 0.38913 0.04966 0.96175 0.0
C1867 C 0.42742 0.05479 0.98164 0.0
C1868 C 0.36432 0.08767 0.95815 0.0
C1869 C 0.32346 0.0584 0.96492 0.0
N1870 N 0.40854 0.06397 0.96845 0.0
N1871 N 0.3451 0.04803 0.96022 0.0
H1872 H 0.64741 0.58404 0.70845 0.0
H1873 H 0.76348 0.64599 0.77197 0.0
H1874 H 0.69615 0.5466 0.7589 0.0
H1875 H 0.70997 0.68676 0.73051 0.0
H1876 H 0.745 0.60742 0.7571 0.0
H1877 H 0.67521 0.61947 0.70749 0.0
C1878 C 0.66404 0.58316 0.71917 0.0
C1879 C 0.66927 0.56247 0.73414 0.0
C1880 C 0.73749 0.62479 0.75095 0.0
C1881 C 0.70117 0.60293 0.73301 0.0
C1882 C 0.74808 0.64683 0.75937 0.0
C1883 C 0.73766 0.66956 0.75325 0.0
C1884 C 0.71624 0.62552 0.7365 0.0
C1885 C 0.71818 0.6696 0.73626 0.0
C1886 C 0.67994 0.60338 0.71852 0.0
C1887 C 0.69123 0.56226 0.74734 0.0
N1888 N 0.70772 0.64785 0.72892 0.0
N1889 N 0.70624 0.5823 0.74668 0.0
H1890 H 0.84133 0.37581 0.04522 0.0
H1891 H 0.90491 0.46406 0.94532 0.0
H1892 H 0.80636 0.42406 0.99174 0.0
H1893 H 0.94182 0.43424 0.01007 0.0
H1894 H 0.87135 0.43542 0.95305 0.0
H1895 H 0.88023 0.38649 0.02581 0.0
C1896 C 0.84184 0.38868 0.02955 0.0
C1897 C 0.82066 0.39928 0.02028 0.0
C1898 C 0.88708 0.4347 0.96521 0.0
C1899 C 0.86452 0.4106 -0.00246 0.0
C1900 C 0.90621 0.45089 0.96068 0.0
C1901 C 0.9257 0.45173 0.97749 0.0
C1902 C 0.8873 0.42008 0.98715 0.0
C1903 C 0.92692 0.43412 -0.00316 0.0
C1904 C 0.8639 0.39444 0.0183 0.0
C1905 C 0.82222 0.41565 -0.00021 0.0
N1906 N 0.90754 0.41942 0.0017 0.0
N1907 N 0.84373 0.42072 0.98912 0.0
H1908 H 0.35921 0.08359 0.77696 0.0
H1909 H 0.25516 0.16856 0.72317 0.0
H1910 H 0.3146 0.06243 0.71325 0.0
H1911 H 0.30123 0.18729 0.78625 0.0
H1912 H 0.27097 0.12627 0.72379 0.0
H1913 H 0.33331 0.11853 0.78461 0.0
C1914 C 0.34399 0.08637 0.76446 0.0
C1915 C 0.33931 0.07034 0.74414 0.0
C1916 C 0.2772 0.13947 0.73786 0.0
C1917 C 0.30942 0.1105 0.75281 0.0
C1918 C 0.26805 0.16342 0.7376 0.0
C1919 C 0.27716 0.18109 0.75459 0.0
C1920 C 0.29559 0.13357 0.75512 0.0
C1921 C 0.29398 0.17399 0.7728 0.0
C1922 C 0.32905 0.10626 0.76897 0.0
C1923 C 0.319 0.07457 0.72894 0.0
N1924 N 0.30288 0.15082 0.77241 0.0
N1925 N 0.30491 0.09448 0.73339 0.0
H1926 H 0.13004 0.89566 0.28572 0.0
H1927 H 0.25432 0.84357 0.24517 0.0
H1928 H 0.19523 0.93823 0.2735 0.0
H1929 H 0.18837 0.80084 0.24695 0.0
H1930 H 0.23667 0.87369 0.27381 0.0
H1931 H 0.15406 0.85813 0.28873 0.0
C1932 C 0.14944 0.89717 0.28415 0.0
C1933 C 0.16065 0.91984 0.2783 0.0
C1934 C 0.22619 0.85742 0.26855 0.0
C1935 C 0.18809 0.87724 0.28189 0.0
C1936 C 0.23629 0.84029 0.25227 0.0
C1937 C 0.22235 0.82039 0.24337 0.0
C1938 C 0.20171 0.85501 0.27486 0.0
C1939 C 0.19933 0.81642 0.25319 0.0
C1940 C 0.16314 0.87578 0.286 0.0
C1941 C 0.18582 0.92092 0.27705 0.0
N1942 N 0.18935 0.83409 0.26791 0.0
N1943 N 0.19866 0.89983 0.27837 0.0
H1944 H 0.45493 0.32502 0.39258 0.0
H1945 H 0.55238 0.41627 0.45571 0.0
H1946 H 0.52928 0.30723 0.40706 0.0
H1947 H 0.4762 0.43025 0.46039 0.0
H1948 H 0.54363 0.37862 0.4322 0.0
H1949 H 0.46152 0.3651 0.41373 0.0
C1950 C 0.47256 0.32946 0.40031 0.0
C1951 C 0.4917 0.31293 0.39775 0.0
C1952 C 0.52875 0.38986 0.4383 0.0
C1953 C 0.49932 0.35854 0.4216 0.0
C1954 C 0.53375 0.41147 0.45163 0.0
C1955 C 0.51496 0.42619 0.46035 0.0
C1956 C 0.50475 0.38271 0.43367 0.0
C1957 C 0.4912 0.41929 0.45409 0.0
C1958 C 0.4763 0.35232 0.41228 0.0
C1959 C 0.51411 0.31953 0.4082 0.0
N1960 N 0.4867 0.39782 0.44129 0.0
N1961 N 0.51729 0.34182 0.41952 0.0
H1962 H 0.44028 0.72222 0.18248 0.0
H1963 H 0.32809 0.80938 0.19799 0.0
H1964 H 0.43187 0.79471 0.14987 0.0
H1965 H 0.328 0.73302 0.22149 0.0
H1966 H 0.37178 0.80837 0.19431 0.0
H1967 H 0.40493 0.72967 0.20922 0.0
C1968 C 0.43118 0.73978 0.18125 0.0
C1969 C 0.43828 0.7576 0.16344 0.0
C1970 C 0.36227 0.79183 0.20044 0.0
C1971 C 0.39864 0.76633 0.19389 0.0
C1972 C 0.33736 0.79239 0.20232 0.0
C1973 C 0.32454 0.77094 0.2089 0.0
C1974 C 0.37426 0.7694 0.20418 0.0
C1975 C 0.33735 0.74971 0.21554 0.0
C1976 C 0.41118 0.74405 0.19652 0.0
C1977 C 0.42639 0.78019 0.16279 0.0
N1978 N 0.36158 0.74921 0.21231 0.0
N1979 N 0.40702 0.78381 0.17759 0.0
H1980 H -0.0039 0.7098 0.95235 0.0
H1981 H 0.00322 0.56218 0.94247 0.0
H1982 H 0.01505 0.67175 0.88366 0.0
H1983 H 0.95996 0.60172 -0.00388 0.0
H1984 H 0.01827 0.60222 0.92605 0.0
H1985 H -0.00627 0.66992 0.97408 0.0
C1986 C 0.0 0.69308 0.94192 0.0
C1987 C 0.0052 0.69396 0.91606 0.0
C1988 C 0.00572 0.60197 0.94164 0.0
C1989 C 0.00273 0.64846 0.94075 0.0
C1990 C -0.00278 0.57924 0.95097 0.0
C1991 C 0.98002 0.57884 0.97023 0.0
C1992 C -0.00277 0.62412 0.95213 0.0
C1993 C 0.97284 0.60132 0.98084 0.0
C1994 C -0.00134 0.67037 0.9543 0.0
C1995 C 0.0104 0.67178 0.9035 0.0
N1996 N 0.98139 0.62304 0.97159 0.0
N1997 N 0.00885 0.64986 0.91593 0.0
H1998 H 0.08865 0.20035 0.63235 0.0
H1999 H 0.14147 0.27643 0.74955 0.0
H2000 H 0.0534 0.26116 0.66926 0.0
H2001 H 0.18657 0.22865 0.7054 0.0
H2002 H 0.10916 0.27019 0.71922 0.0
H2003 H 0.12515 0.20953 0.65757 0.0
C2004 C 0.08861 0.21562 0.64562 0.0
C2005 C 0.06781 0.22969 0.64912 0.0
C2006 C 0.1261 0.26105 0.71598 0.0
C2007 C 0.10914 0.24026 0.67764 0.0
C2008 C 0.14454 0.26452 0.73344 0.0
C2009 C 0.16661 0.25278 0.73016 0.0
C2010 C 0.12946 0.24537 0.69515 0.0
C2011 C 0.16971 0.23791 0.70864 0.0
C2012 C 0.1094 0.22087 0.6599 0.0
C2013 C 0.06877 0.24943 0.66629 0.0
N2014 N 0.15118 0.23436 0.69201 0.0
N2015 N 0.08896 0.25398 0.67993 0.0
H2016 H 0.44691 0.67552 0.07844 0.0
H2017 H 0.54376 0.57871 0.03239 0.0
H2018 H 0.52146 0.69367 0.06388 0.0
H2019 H 0.47107 0.55817 0.05218 0.0
H2020 H 0.53752 0.61968 0.05028 0.0
H2021 H 0.45538 0.63199 0.06975 0.0
C2022 C 0.46488 0.6704 0.07275 0.0
C2023 C 0.48361 0.68796 0.07216 0.0
C2024 C 0.52306 0.60608 0.05131 0.0
C2025 C 0.49361 0.63852 0.06329 0.0
C2026 C 0.52684 0.58256 0.04163 0.0
C2027 C 0.50774 0.56547 0.04056 0.0
C2028 C 0.49988 0.61241 0.05935 0.0
C2029 C 0.48614 0.57111 0.0526 0.0
C2030 C 0.46984 0.64555 0.06837 0.0
C2031 C 0.5066 0.6805 0.06481 0.0
N2032 N 0.48245 0.59452 0.06085 0.0
N2033 N 0.51103 0.65627 0.06092 0.0
H2034 H 0.06409 0.73448 0.8022 0.0
H2035 H 0.19972 0.75617 0.82765 0.0
H2036 H 0.09606 0.72998 0.87654 0.0
H2037 H 0.16983 0.74511 0.75324 0.0
H2038 H 0.16492 0.73444 0.84566 0.0
H2039 H 0.10364 0.72798 0.78369 0.0
C2040 C 0.07942 0.73202 0.81463 0.0
C2041 C 0.07692 0.73364 0.84092 0.0
C2042 C 0.16624 0.736 0.82532 0.0
C2043 C 0.12231 0.72619 0.8199 0.0
C2044 C 0.18621 0.74823 0.81509 0.0
C2045 C 0.18711 0.75275 0.78912 0.0
C2046 C 0.14685 0.72931 0.80938 0.0
C2047 C 0.16939 0.74219 0.77348 0.0
C2048 C 0.102 0.72803 0.80407 0.0
C2049 C 0.09727 0.72956 0.85614 0.0
N2050 N 0.14952 0.73156 0.78391 0.0
N2051 N 0.11919 0.72654 0.84541 0.0
H2052 H 0.04472 0.31341 0.5834 0.0
H2053 H 0.94836 0.40314 0.52292 0.0
H2054 H 0.96861 0.29665 0.57794 0.0
H2055 H 0.02455 0.41903 0.52436 0.0
H2056 H 0.95641 0.36077 0.53624 0.0
H2057 H 0.03876 0.34945 0.55633 0.0
C2058 C 0.0268 0.31724 0.57641 0.0
C2059 C 0.00707 0.30226 0.5832 0.0
C2060 C 0.97147 0.37331 0.53307 0.0
C2061 C 0.00016 0.34321 0.55214 0.0
C2062 C 0.96684 0.39738 0.52532 0.0
C2063 C 0.98588 0.41432 0.52235 0.0
C2064 C -0.00475 0.36649 0.5386 0.0
C2065 C 0.00949 0.40626 0.5259 0.0
C2066 C 0.02342 0.33772 0.56086 0.0
C2067 C 0.98428 0.30792 0.57347 0.0
N2068 N 0.01353 0.38298 0.53433 0.0
N2069 N 0.98143 0.32805 0.55859 0.0
H2070 H 0.44161 0.27017 0.31086 0.0
H2071 H 0.31585 0.19804 0.29984 0.0
H2072 H 0.43258 0.19126 0.32001 0.0
H2073 H 0.32396 0.27442 0.27791 0.0
H2074 H 0.35925 0.19552 0.30562 0.0
H2075 H 0.39954 0.27256 0.29687 0.0
C2076 C 0.4309 0.25332 0.30965 0.0
C2077 C 0.44061 0.23049 0.31684 0.0
C2078 C 0.35172 0.21288 0.29945 0.0
C2079 C 0.39248 0.23316 0.30109 0.0
C2080 C 0.32692 0.21431 0.29623 0.0
C2081 C 0.31646 0.23647 0.28851 0.0
C2082 C 0.36626 0.23395 0.29548 0.0
C2083 C 0.3315 0.25698 0.28381 0.0
C2084 C 0.40689 0.25472 0.30168 0.0
C2085 C 0.4259 0.20928 0.31482 0.0
N2086 N 0.35573 0.25533 0.28769 0.0
N2087 N 0.40258 0.21118 0.30739 0.0
H2088 H 0.43162 0.53451 0.28619 0.0
H2089 H 0.4805 0.48028 0.41624 0.0
H2090 H 0.44443 0.4569 0.29847 0.0
H2091 H 0.44694 0.55131 0.40724 0.0
H2092 H 0.47877 0.47446 0.37036 0.0
H2093 H 0.45032 0.54379 0.32698 0.0
C2094 C 0.43881 0.51946 0.29728 0.0
C2095 C 0.43579 0.49484 0.2894 0.0
C2096 C 0.47208 0.49143 0.37846 0.0
C2097 C 0.45681 0.50529 0.33613 0.0
C2098 C 0.473 0.49476 0.4046 0.0
C2099 C 0.46344 0.51614 0.41558 0.0
C2100 C 0.46178 0.50972 0.36323 0.0
C2101 C 0.45409 0.53435 0.39962 0.0
C2102 C 0.44941 0.52476 0.32057 0.0
C2103 C 0.446 0.47611 0.30412 0.0
N2104 N 0.45338 0.53065 0.37426 0.0
N2105 N 0.45561 0.48166 0.32714 0.0
H2106 H 0.27531 0.6255 0.08353 0.0
H2107 H 0.19937 0.73375 0.14154 0.0
H2108 H 0.24657 0.68782 0.04313 0.0
H2109 H 0.24263 0.6847 0.18657 0.0
H2110 H 0.20281 0.70544 0.10593 0.0
H2111 H 0.25411 0.63893 0.12154 0.0
C2112 C 0.265 0.64237 0.08296 0.0
C2113 C 0.26306 0.65601 0.06057 0.0
C2114 C 0.21107 0.70059 0.1238 0.0
C2115 C 0.2379 0.67053 0.10307 0.0
C2116 C 0.209 0.71663 0.14413 0.0
C2117 C 0.22211 0.71218 0.16629 0.0
C2118 C 0.22675 0.68057 0.12585 0.0
C2119 C 0.23325 0.68929 0.16926 0.0
C2120 C 0.25252 0.64964 0.10434 0.0
C2121 C 0.24907 0.67728 0.06031 0.0
N2122 N 0.23617 0.67461 0.14879 0.0
N2123 N 0.2369 0.68386 0.0813 0.0
H2124 H 0.07314 0.54429 0.80713 0.0
H2125 H 0.01768 0.44085 0.89683 0.0
H2126 H 0.09273 0.46724 0.80703 0.0
H2127 H 0.00768 0.51905 0.90839 0.0
H2128 H 0.03482 0.44963 0.85546 0.0
H2129 H 0.04156 0.53483 0.83778 0.0
C2130 C 0.07091 0.52543 0.81368 0.0
C2131 C 0.08566 0.50654 0.80469 0.0
C2132 C 0.02837 0.46485 0.86679 0.0
C2133 C 0.04936 0.49558 0.8392 0.0
C2134 C 0.01836 0.45983 0.89027 0.0
C2135 C 0.01213 0.47936 0.90631 0.0
C2136 C 0.0323 0.48954 0.85958 0.0
C2137 C 0.01279 0.50351 0.89675 0.0
C2138 C 0.05272 0.52002 0.83091 0.0
C2139 C 0.08181 0.48239 0.81353 0.0
N2140 N 0.02348 0.50804 0.8742 0.0
N2141 N 0.06407 0.47762 0.83038 0.0
H2142 H 0.22531 0.28329 0.5483 0.0
H2143 H 0.2284 0.30326 0.69695 0.0
H2144 H 0.20589 0.35058 0.58653 0.0
H2145 H 0.26365 0.24463 0.65693 0.0
H2146 H 0.20596 0.31321 0.65812 0.0
H2147 H 0.22485 0.26174 0.58911 0.0
C2148 C 0.22045 0.29335 0.5652 0.0
C2149 C 0.21654 0.31885 0.56435 0.0
C2150 C 0.21815 0.29774 0.65806 0.0
C2151 C 0.21594 0.29459 0.61073 0.0
C2152 C 0.23087 0.29212 0.68015 0.0
C2153 C 0.24826 0.27366 0.67962 0.0
C2154 C 0.22294 0.28464 0.63565 0.0
C2155 C 0.2508 0.2595 0.65767 0.0
C2156 C 0.22017 0.28111 0.58844 0.0
C2157 C 0.20989 0.33103 0.58662 0.0
N2158 N 0.23854 0.26549 0.6364 0.0
N2159 N 0.2102 0.31889 0.609 0.0
H2160 H 0.42599 0.54447 0.17346 0.0
H2161 H 0.43075 0.45197 0.05903 0.0
H2162 H 0.37536 0.48463 0.15969 0.0
H2163 H 0.48312 0.51022 0.07159 0.0
H2164 H 0.40328 0.47246 0.08794 0.0
H2165 H 0.44044 0.54041 0.13004 0.0
C2166 C 0.41766 0.53075 0.16117 0.0
C2167 C 0.40002 0.51431 0.17033 0.0
C2168 C 0.42055 0.48114 0.08403 0.0
C2169 C 0.41629 0.50966 0.12083 0.0
C2170 C 0.43612 0.46947 0.06749 0.0
C2171 C 0.45913 0.47938 0.06348 0.0
C2172 C 0.4286 0.50222 0.09737 0.0
C2173 C 0.46544 0.50208 0.07453 0.0
C2174 C 0.42585 0.52849 0.13638 0.0
C2175 C 0.38954 0.49717 0.15358 0.0
N2176 N 0.45046 0.51249 0.09162 0.0
N2177 N 0.39807 0.49506 0.12976 0.0
H2178 H 0.23518 0.62677 0.92707 0.0
H2179 H 0.258 0.7428 0.8412 0.0
H2180 H 0.23603 0.70008 0.9593 0.0
H2181 H 0.23101 0.67254 0.81346 0.0
H2182 H 0.24835 0.72957 0.88445 0.0
H2183 H 0.23211 0.64456 0.88518 0.0
C2184 C 0.23473 0.64672 0.92521 0.0
C2185 C 0.23636 0.66206 0.94645 0.0
C2186 C 0.24425 0.71727 0.8688 0.0
C2187 C 0.23305 0.6827 0.89847 0.0
C2188 C 0.24988 0.72471 0.8442 0.0
C2189 C 0.24613 0.70833 0.82391 0.0
C2190 C 0.23485 0.69337 0.87287 0.0
C2191 C 0.23507 0.68538 0.82866 0.0
C2192 C 0.23275 0.6569 0.90131 0.0
C2193 C 0.2351 0.68775 0.94318 0.0
N2194 N 0.23009 0.6785 0.85266 0.0
N2195 N 0.23401 0.6974 0.91944 0.0
H2196 H 0.07616 0.46623 0.67979 0.0
H2197 H 0.0145 0.55166 0.5799 0.0
H2198 H 0.05533 0.54066 0.69812 0.0
H2199 H 0.0552 0.48719 0.56049 0.0
H2200 H 0.03278 0.55166 0.6219 0.0
H2201 H 0.06705 0.47417 0.63551 0.0
C2202 C 0.06903 0.48405 0.67444 0.0
C2203 C 0.06659 0.5029 0.69231 0.0
C2204 C 0.03836 0.538 0.60822 0.0
C2205 C 0.05723 0.51252 0.64189 0.0
C2206 C 0.02829 0.53828 0.58415 0.0
C2207 C 0.03297 0.51894 0.56733 0.0
C2208 C 0.05275 0.51801 0.61515 0.0
C2209 C 0.05093 0.50212 0.57332 0.0
C2210 C 0.06441 0.48879 0.64918 0.0
C2211 C 0.05729 0.52566 0.68474 0.0
N2212 N 0.05964 0.50146 0.59725 0.0
N2213 N 0.05314 0.52998 0.65987 0.0
H2214 H 0.20882 0.36626 0.43891 0.0
H2215 H 0.26451 0.28038 0.33166 0.0
H2216 H 0.27956 0.33428 0.44215 0.0
H2217 H 0.19061 0.3035 0.33067 0.0
H2218 H 0.27209 0.30636 0.36858 0.0
H2219 H 0.2036 0.34956 0.39612 0.0
C2220 C 0.22326 0.35576 0.43063 0.0
C2221 C 0.24454 0.35135 0.44428 0.0
C2222 C 0.25432 0.30628 0.36008 0.0
C2223 C 0.23866 0.33227 0.3954 0.0
C2224 C 0.25006 0.29162 0.33888 0.0
C2225 C 0.22699 0.29004 0.3282 0.0
C2226 C 0.23532 0.31954 0.37073 0.0
C2227 C 0.20866 0.30438 0.33848 0.0
C2228 C 0.22028 0.3463 0.40619 0.0
C2229 C 0.26278 0.33799 0.43245 0.0
N2230 N 0.21319 0.31853 0.35935 0.0
N2231 N 0.25934 0.32878 0.40881 0.0
H2232 H 0.29205 0.43698 0.53368 0.0
H2233 H 0.43002 0.43685 0.50546 0.0
H2234 H 0.32911 0.36734 0.53334 0.0
H2235 H 0.39556 0.49578 0.54599 0.0
H2236 H 0.39487 0.40986 0.51425 0.0
H2237 H 0.33077 0.4586 0.53547 0.0
C2238 C 0.30835 0.42622 0.53412 0.0
C2239 C 0.30732 0.40033 0.53329 0.0
C2240 C 0.39535 0.42855 0.52163 0.0
C2241 C 0.35188 0.42504 0.53517 0.0
C2242 C 0.41538 0.44389 0.5167 0.0
C2243 C 0.41536 0.46875 0.52446 0.0
C2244 C 0.37535 0.43836 0.53417 0.0
C2245 C 0.39601 0.47694 0.53903 0.0
C2246 C 0.33047 0.43856 0.5353 0.0
C2247 C 0.32912 0.38735 0.53396 0.0
N2248 N 0.37666 0.46197 0.54302 0.0
N2249 N 0.35061 0.39986 0.5345 0.0
H2250 H 0.79892 0.04322 0.49915 0.0
H2251 H 0.93856 0.06558 0.47665 0.0
H2252 H 0.82864 0.10161 0.45271 0.0
H2253 H 0.9112 -0.00476 0.50338 0.0
H2254 H 0.8977 0.07909 0.46966 0.0
H2255 H 0.83892 0.02464 0.50156 0.0
C2256 C 0.81374 0.05192 0.48915 0.0
C2257 C 0.81053 0.07422 0.47601 0.0
C2258 C 0.9005 0.06064 0.47695 0.0
C2259 C 0.85615 0.05326 0.47897 0.0
C2260 C 0.92389 0.05294 0.48117 0.0
C2261 C 0.9283 0.02921 0.49064 0.0
C2262 C 0.88114 0.0447 0.48254 0.0
C2263 C 0.90853 0.01365 0.49595 0.0
C2264 C 0.83653 0.04133 0.49059 0.0
C2265 C 0.8303 0.08462 0.46333 0.0
N2266 N 0.88568 0.02174 0.49199 0.0
N2267 N 0.85228 0.07422 0.46539 0.0
H2268 H 0.61991 0.09556 0.19332 0.0
H2269 H 0.72732 0.16397 0.2635 0.0
H2270 H 0.65323 0.07203 0.26296 0.0
H2271 H 0.69351 0.19504 0.19753 0.0
H2272 H 0.69454 0.13431 0.26717 0.0
H2273 H 0.64025 0.13604 0.19797 0.0
C2274 C 0.63121 0.09907 0.20972 0.0
C2275 C 0.63575 0.08028 0.22729 0.0
C2276 C 0.694 0.14754 0.25184 0.0
C2277 C 0.65865 0.12599 0.23275 0.0
C2278 C 0.71285 0.1643 0.24966 0.0
C2279 C 0.71327 0.18113 0.22972 0.0
C2280 C 0.67566 0.14715 0.23349 0.0
C2281 C 0.6939 0.18166 0.21273 0.0
C2282 C 0.64273 0.12209 0.21238 0.0
C2283 C 0.64997 0.08575 0.24849 0.0
N2284 N 0.67592 0.16439 0.21465 0.0
N2285 N 0.66114 0.10798 0.25044 0.0
H2286 H 0.6762 0.92527 0.98133 0.0
H2287 H 0.54593 0.96802 0.01223 0.0
H2288 H 0.64961 0.91353 0.05699 0.0
H2289 H 0.56488 0.93468 0.94104 0.0
H2290 H 0.58261 0.9507 0.03113 0.0
H2291 H 0.63546 0.93479 0.96753 0.0
C2292 C 0.66186 0.92489 -0.00488 0.0
C2293 C 0.66637 0.91842 0.02033 0.0
C2294 C 0.57838 0.94686 0.01151 0.0
C2295 C 0.61954 0.92911 0.00452 0.0
C2296 C 0.55742 0.95658 0.00076 0.0
C2297 C 0.55285 0.95357 0.97481 0.0
C2298 C 0.59478 0.93453 -0.00404 0.0
C2299 C 0.56807 0.93815 0.96095 0.0
C2300 C 0.63855 0.93005 0.98716 0.0
C2301 C 0.64695 0.9184 0.03735 0.0
N2302 N 0.5887 0.92982 0.97149 0.0
N2303 N 0.62431 0.92372 0.02915 0.0
H2304 H 0.35187 0.41913 0.28451 0.0
H2305 H 0.23497 0.35356 0.22887 0.0
H2306 H 0.32229 0.42722 0.20952 0.0
H2307 H 0.2888 0.30764 0.2632 0.0
H2308 H 0.2578 0.39026 0.24216 0.0
H2309 H 0.32142 0.38621 0.29299 0.0
C2310 C 0.33892 0.41402 0.26997 0.0
C2311 C 0.33962 0.42546 0.24616 0.0
C2312 C 0.26413 0.37217 0.24765 0.0
C2313 C 0.30458 0.38952 0.25613 0.0
C2314 C 0.25113 0.35129 0.24016 0.0
C2315 C 0.26053 0.32778 0.2444 0.0
C2316 C 0.28683 0.36935 0.25889 0.0
C2317 C 0.28133 0.32564 0.2593 0.0
C2318 C 0.32163 0.39551 0.27487 0.0
C2319 C 0.32253 0.41852 0.22794 0.0
N2320 N 0.2944 0.34633 0.26536 0.0
N2321 N 0.30562 0.40113 0.23338 0.0
H2322 H 0.16479 0.60744 0.05269 0.0
H2323 H 0.09251 0.5205 0.962 0.0
H2324 H 0.18089 0.59886 0.97354 0.0
H2325 H 0.05748 0.55093 0.02736 0.0
H2326 H 0.12431 0.55142 0.9662 0.0
H2327 H 0.12406 0.5904 0.04457 0.0
C2328 C 0.15954 0.60243 0.03359 0.0
C2329 C 0.17627 0.60351 0.01388 0.0
C2330 C 0.10958 0.55168 0.97953 0.0
C2331 C 0.1304 0.58444 0.00454 0.0
C2332 C 0.09156 0.53386 0.97723 0.0
C2333 C 0.0727 0.53308 -0.00541 0.0
C2334 C 0.10915 0.56846 -0.00021 0.0
C2335 C 0.07197 0.551 0.01376 0.0
C2336 C 0.1364 0.59283 0.02896 0.0
C2337 C 0.1687 0.59735 0.9894 0.0
N2338 N 0.09034 0.56778 0.01624 0.0
N2339 N 0.14644 0.58773 0.98549 0.0
H2340 H 0.63456 0.91503 0.25021 0.0
H2341 H 0.73963 0.83463 0.23857 0.0
H2342 H 0.69486 0.95432 0.2172 0.0
H2343 H 0.70752 0.84602 0.31166 0.0
H2344 H 0.72774 0.87643 0.22629 0.0
H2345 H 0.6621 0.88459 0.26704 0.0
C2346 C 0.65359 0.917 0.24614 0.0
C2347 C 0.66258 0.93712 0.2324 0.0
C2348 C 0.72424 0.87004 0.24534 0.0
C2349 C 0.69403 0.90261 0.2518 0.0
C2350 C 0.73087 0.84621 0.25232 0.0
C2351 C 0.72327 0.83653 0.27561 0.0
C2352 C 0.70995 0.88371 0.26181 0.0
C2353 C 0.71262 0.85245 0.29304 0.0
C2354 C 0.66929 0.89992 0.25612 0.0
C2355 C 0.68745 0.93897 0.22788 0.0
N2356 N 0.70553 0.8751 0.28549 0.0
N2357 N 0.70252 0.92161 0.23739 0.0
H2358 H 0.8053 0.05512 0.72504 0.0
H2359 H 0.81158 0.19193 0.77208 0.0
H2360 H 0.87113 0.09263 0.74752 0.0
H2361 H 0.74788 0.15813 0.73978 0.0
H2362 H 0.83599 0.15997 0.75232 0.0
H2363 H 0.78606 0.09527 0.72044 0.0
C2364 C 0.81574 0.07179 0.72887 0.0
C2365 C 0.83955 0.07052 0.73762 0.0
C2366 C 0.81675 0.15987 0.74888 0.0
C2367 C 0.81777 0.11647 0.73228 0.0
C2368 C 0.80292 0.17822 0.76001 0.0
C2369 C 0.77787 0.17721 0.75766 0.0
C2370 C 0.80516 0.1401 0.73618 0.0
C2371 C 0.76725 0.15915 0.74212 0.0
C2372 C 0.80482 0.09474 0.72603 0.0
C2373 C 0.85245 0.09271 0.74161 0.0
N2374 N 0.78091 0.14088 0.7324 0.0
N2375 N 0.84128 0.11474 0.73933 0.0
loop_
_geom_bond_atom_site_label_1
_geom_bond_atom_site_label_2
_geom_bond_distance
_geom_bond_site_symmetry_2
_ccdc_geom_bond_type
C0 O1 1.160 . S
C0 O7 1.185 . S
O1 C0 1.160 . S
O2 Zn3 1.900 . S
O2 C10 1.284 1_655 S
Zn3 O2 1.900 . S
Zn3 O4 2.038 . S
Zn3 O7 2.102 . S
Zn3 O12 1.960 1_655 S
O4 Zn3 2.038 . S
O4 C8 1.278 1_655 S
C5 O6 1.203 . S
C5 O12 1.267 . S
O6 C5 1.203 . S
O7 C0 1.185 . S
O7 Zn3 2.102 . S
C8 O4 1.278 1_455 S
C8 O9 1.211 . S
O9 C8 1.211 . S
C10 O2 1.284 1_455 S
C10 O11 1.273 . S
O11 C10 1.273 . S
O12 Zn3 1.960 1_455 S
O12 C5 1.267 . S
C13 O14 1.160 . S
C13 O20 1.185 . S
O14 C13 1.160 . S
O15 Zn16 1.899 . S
O15 C23 1.284 . S
Zn16 O15 1.899 . S
Zn16 O17 2.032 . S
Zn16 O20 2.086 . S
Zn16 O25 1.977 1_455 S
O17 Zn16 2.032 . S
O17 C21 1.300 . S
C18 O19 1.203 . S
C18 O25 1.267 . S
O19 C18 1.203 . S
O20 C13 1.185 . S
O20 Zn16 2.086 . S
C21 O17 1.300 . S
C21 O22 1.180 1_455 S
O22 C21 1.180 1_655 S
C23 O15 1.284 . S
C23 O24 1.273 1_455 S
O24 C23 1.273 1_655 S
O25 Zn16 1.977 1_655 S
O25 C18 1.267 . S
C26 O27 1.160 . S
C26 O33 1.185 . S
O27 C26 1.160 . S
O28 Zn29 1.899 . S
O28 C36 1.284 . S
Zn29 O28 1.899 . S
Zn29 O30 2.032 . S
Zn29 O33 2.086 . S
Zn29 O38 1.977 . S
O30 Zn29 2.032 . S
O30 C34 1.278 . S
C31 O32 1.203 . S
C31 O38 1.267 . S
O32 C31 1.203 . S
O33 C26 1.185 . S
O33 Zn29 2.086 . S
C34 O30 1.278 . S
C34 O35 1.211 . S
O35 C34 1.211 . S
C36 O28 1.284 . S
C36 O37 1.273 . S
O37 C36 1.273 . S
O38 Zn29 1.977 . S
O38 C31 1.267 . S
C39 O40 1.160 . S
C39 O46 1.185 . S
O40 C39 1.160 . S
O41 Zn42 1.899 . S
O41 C49 1.284 . S
Zn42 O41 1.899 . S
Zn42 O43 2.032 . S
Zn42 O46 2.086 . S
Zn42 O51 1.977 . S
O43 Zn42 2.032 . S
O43 C47 1.278 . S
C44 O45 1.203 . S
C44 O51 1.267 . S
O45 C44 1.203 . S
O46 C39 1.185 . S
O46 Zn42 2.086 . S
C47 O43 1.278 . S
C47 O48 1.211 . S
O48 C47 1.211 . S
C49 O41 1.284 . S
C49 O50 1.273 . S
O50 C49 1.273 . S
O51 Zn42 1.977 . S
O51 C44 1.267 . S
C52 O53 1.160 . S
C52 O59 1.185 . S
O53 C52 1.160 . S
O54 Zn55 1.899 1_565 S
O54 C62 1.280 1_565 S
Zn55 O54 1.899 1_545 S
Zn55 O56 2.025 1_545 S
Zn55 O59 2.070 1_545 S
Zn55 O64 1.996 . S
O56 Zn55 2.025 1_565 S
O56 C60 1.278 1_565 S
C57 O58 1.203 . S
C57 O64 1.267 . S
O58 C57 1.203 . S
O59 C52 1.185 . S
O59 Zn55 2.070 1_565 S
C60 O56 1.278 1_545 S
C60 O61 1.211 . S
O61 C60 1.211 . S
C62 O54 1.280 1_545 S
C62 O63 1.273 . S
O63 C62 1.273 . S
O64 Zn55 1.996 . S
O64 C57 1.267 . S
C65 O66 1.160 . S
C65 O72 1.185 . S
O66 C65 1.160 . S
O67 Zn68 1.899 . S
O67 C75 1.284 . S
Zn68 O67 1.899 . S
Zn68 O69 2.032 . S
Zn68 O72 2.086 . S
Zn68 O77 1.977 . S
O69 Zn68 2.032 . S
O69 C73 1.278 . S
C70 O71 1.203 . S
C70 O77 1.267 . S
O71 C70 1.203 . S
O72 C65 1.185 . S
O72 Zn68 2.086 . S
C73 O69 1.278 . S
C73 O74 1.211 . S
O74 C73 1.211 . S
C75 O67 1.284 . S
C75 O76 1.273 . S
O76 C75 1.273 . S
O77 Zn68 1.977 . S
O77 C70 1.267 . S
C78 O79 1.160 . S
C78 O85 1.185 . S
O79 C78 1.160 . S
O80 Zn81 1.899 . S
O80 C88 1.284 . S
Zn81 O80 1.899 . S
Zn81 O82 2.032 . S
Zn81 O85 2.086 . S
Zn81 O90 1.977 1_545 S
O82 Zn81 2.032 . S
O82 C86 1.278 . S
C83 O84 1.203 . S
C83 O90 1.267 . S
O84 C83 1.203 . S
O85 C78 1.185 . S
O85 Zn81 2.086 . S
C86 O82 1.278 . S
C86 O87 1.211 1_545 S
O87 C86 1.211 1_565 S
C88 O80 1.284 . S
C88 O89 1.273 1_545 S
O89 C88 1.273 1_565 S
O90 Zn81 1.977 1_565 S
O90 C83 1.267 . S
C91 O92 1.160 . S
C91 O98 1.185 . S
O92 C91 1.160 . S
O93 Zn94 1.899 . S
O93 C101 1.284 . S
Zn94 O93 1.899 . S
Zn94 O95 2.032 1_554 S
Zn94 O98 2.086 . S
Zn94 O103 1.977 . S
O95 Zn94 2.032 1_556 S
O95 C99 1.278 . S
C96 O97 1.203 . S
C96 O103 1.267 . S
O97 C96 1.203 . S
O98 C91 1.185 . S
O98 Zn94 2.086 . S
C99 O95 1.278 . S
C99 O100 1.211 . S
O100 C99 1.211 . S
C101 O93 1.284 . S
C101 O102 1.273 . S
O102 C101 1.273 . S
O103 Zn94 1.977 . S
O103 C96 1.267 . S
C104 O105 1.160 . S
C104 O111 1.185 . S
O105 C104 1.160 . S
O106 Zn107 1.899 . S
O106 C114 1.284 . S
Zn107 O106 1.899 . S
Zn107 O108 2.032 1_554 S
Zn107 O111 2.086 . S
Zn107 O116 1.977 . S
O108 Zn107 2.032 1_556 S
O108 C112 1.278 . S
C109 O110 1.203 . S
C109 O116 1.267 . S
O110 C109 1.203 . S
O111 C104 1.185 . S
O111 Zn107 2.086 . S
C112 O108 1.278 . S
C112 O113 1.211 . S
O113 C112 1.211 . S
C114 O106 1.284 . S
C114 O115 1.273 . S
O115 C114 1.273 . S
O116 Zn107 1.977 . S
O116 C109 1.267 . S
C117 O118 1.160 . S
C117 O124 1.185 . S
O118 C117 1.160 . S
O119 Zn120 1.899 . S
O119 C127 1.284 . S
Zn120 O119 1.899 . S
Zn120 O121 2.032 . S
Zn120 O124 2.086 . S
Zn120 O129 1.977 . S
O121 Zn120 2.032 . S
O121 C125 1.278 . S
C122 O123 1.203 . S
C122 O129 1.267 . S
O123 C122 1.203 . S
O124 C117 1.185 . S
O124 Zn120 2.086 . S
C125 O121 1.278 . S
C125 O126 1.211 . S
O126 C125 1.211 . S
C127 O119 1.284 . S
C127 O128 1.273 . S
O128 C127 1.273 . S
O129 Zn120 1.977 . S
O129 C122 1.267 . S
C130 O131 1.160 . S
C130 O137 1.185 . S
O131 C130 1.160 . S
O132 Zn133 1.899 . S
O132 C140 1.284 . S
Zn133 O132 1.899 . S
Zn133 O134 2.032 . S
Zn133 O137 2.086 . S
Zn133 O142 1.977 . S
O134 Zn133 2.032 . S
O134 C138 1.278 . S
C135 O136 1.203 . S
C135 O142 1.267 . S
O136 C135 1.203 . S
O137 C130 1.185 . S
O137 Zn133 2.086 . S
C138 O134 1.278 . S
C138 O139 1.211 . S
O139 C138 1.211 . S
C140 O132 1.284 . S
C140 O141 1.273 . S
O141 C140 1.273 . S
O142 Zn133 1.977 . S
O142 C135 1.267 . S
C143 O144 1.160 . S
C143 O150 1.185 . S
O144 C143 1.160 . S
O145 Zn146 1.899 . S
O145 C153 1.284 . S
Zn146 O145 1.899 . S
Zn146 O147 2.032 . S
Zn146 O150 2.086 . S
Zn146 O155 1.977 . S
O147 Zn146 2.032 . S
O147 C151 1.278 . S
C148 O149 1.203 . S
C148 O155 1.267 . S
O149 C148 1.203 . S
O150 C143 1.185 . S
O150 Zn146 2.086 . S
C151 O147 1.278 . S
C151 O152 1.211 . S
O152 C151 1.211 . S
C153 O145 1.284 . S
C153 O154 1.273 . S
O154 C153 1.273 . S
O155 Zn146 1.977 . S
O155 C148 1.267 . S
C156 O157 1.160 . S
C156 O163 1.185 . S
O157 C156 1.160 . S
O158 Zn159 1.899 . S
O158 C166 1.284 . S
Zn159 O158 1.899 . S
Zn159 O160 2.032 . S
Zn159 O163 2.086 . S
Zn159 O168 1.977 1_455 S
O160 Zn159 2.032 . S
O160 C164 1.278 . S
C161 O162 1.203 . S
C161 O168 1.267 . S
O162 C161 1.203 . S
O163 C156 1.185 . S
O163 Zn159 2.086 . S
C164 O160 1.278 . S
C164 O165 1.211 1_455 S
O165 C164 1.211 1_655 S
C166 O158 1.284 . S
C166 O167 1.273 1_455 S
O167 C166 1.273 1_655 S
O168 Zn159 1.977 1_655 S
O168 C161 1.267 . S
C169 O170 1.160 . S
C169 O176 1.185 . S
O170 C169 1.160 . S
O171 Zn172 1.899 1_655 S
O171 C179 1.281 1_655 S
Zn172 O171 1.899 1_455 S
Zn172 O173 2.025 1_455 S
Zn172 O176 2.067 1_455 S
Zn172 O181 1.998 . S
O173 Zn172 2.025 1_655 S
O173 C177 1.278 1_655 S
C174 O175 1.203 . S
C174 O181 1.267 . S
O175 C174 1.203 . S
O176 C169 1.185 . S
O176 Zn172 2.067 1_655 S
C177 O173 1.278 1_455 S
C177 O178 1.211 . S
O178 C177 1.211 . S
C179 O171 1.281 1_455 S
C179 O180 1.273 . S
O180 C179 1.273 . S
O181 Zn172 1.998 . S
O181 C174 1.267 . S
C182 O183 1.160 . S
C182 O189 1.185 . S
O183 C182 1.160 . S
O184 Zn185 1.899 . S
O184 C192 1.284 . S
Zn185 O184 1.899 . S
Zn185 O186 2.032 . S
Zn185 O189 2.086 . S
Zn185 O194 1.977 . S
O186 Zn185 2.032 . S
O186 C190 1.278 . S
C187 O188 1.203 . S
C187 O194 1.267 . S
O188 C187 1.203 . S
O189 C182 1.185 . S
O189 Zn185 2.086 . S
C190 O186 1.278 . S
C190 O191 1.211 . S
O191 C190 1.211 . S
C192 O184 1.284 . S
C192 O193 1.273 . S
O193 C192 1.273 . S
O194 Zn185 1.977 . S
O194 C187 1.267 . S
C195 O196 1.160 . S
C195 O202 1.185 . S
O196 C195 1.160 . S
O197 Zn198 1.899 . S
O197 C205 1.284 . S
Zn198 O197 1.899 . S
Zn198 O199 2.032 . S
Zn198 O202 2.086 . S
Zn198 O207 1.977 . S
O199 Zn198 2.032 . S
O199 C203 1.278 . S
C200 O201 1.203 . S
C200 O207 1.267 . S
O201 C200 1.203 . S
O202 C195 1.185 . S
O202 Zn198 2.086 . S
C203 O199 1.278 . S
C203 O204 1.211 . S
O204 C203 1.211 . S
C205 O197 1.284 . S
C205 O206 1.273 . S
O206 C205 1.273 . S
O207 Zn198 1.977 . S
O207 C200 1.267 . S
C208 O209 1.160 . S
C208 O215 1.185 . S
O209 C208 1.160 . S
O210 Zn211 1.899 . S
O210 C218 1.282 1_545 S
Zn211 O210 1.899 . S
Zn211 O212 2.032 . S
Zn211 O215 2.086 . S
Zn211 O220 1.977 1_545 S
O212 Zn211 2.032 . S
O212 C216 1.278 1_545 S
C213 O214 1.203 . S
C213 O220 1.267 . S
O214 C213 1.203 . S
O215 C208 1.185 . S
O215 Zn211 2.086 . S
C216 O212 1.278 1_565 S
C216 O217 1.211 . S
O217 C216 1.211 . S
C218 O210 1.282 1_565 S
C218 O219 1.277 . S
O219 C218 1.277 . S
O220 Zn211 1.977 1_565 S
O220 C213 1.267 . S
C221 O222 1.160 . S
C221 O228 1.185 . S
O222 C221 1.160 . S
O223 Zn224 1.899 . S
O223 C231 1.284 . S
Zn224 O223 1.899 . S
Zn224 O225 2.032 . S
Zn224 O228 2.086 . S
Zn224 O233 1.977 . S
O225 Zn224 2.032 . S
O225 C229 1.278 . S
C226 O227 1.203 . S
C226 O233 1.267 . S
O227 C226 1.203 . S
O228 C221 1.185 . S
O228 Zn224 2.086 . S
C229 O225 1.278 . S
C229 O230 1.211 . S
O230 C229 1.211 . S
C231 O223 1.284 . S
C231 O232 1.273 . S
O232 C231 1.273 . S
O233 Zn224 1.977 . S
O233 C226 1.267 . S
C234 O235 1.160 . S
C234 O241 1.185 . S
O235 C234 1.160 . S
O236 Zn237 1.899 1_565 S
O236 C244 1.282 1_565 S
Zn237 O236 1.899 1_545 S
Zn237 O238 2.021 1_545 S
Zn237 O241 2.056 1_545 S
Zn237 O246 2.010 . S
O238 Zn237 2.021 1_565 S
O238 C242 1.278 1_565 S
C239 O240 1.203 . S
C239 O246 1.267 . S
O240 C239 1.203 . S
O241 C234 1.185 . S
O241 Zn237 2.056 1_565 S
C242 O238 1.278 1_545 S
C242 O243 1.211 . S
O243 C242 1.211 . S
C244 O236 1.282 1_545 S
C244 O245 1.273 . S
O245 C244 1.273 . S
O246 Zn237 2.010 . S
O246 C239 1.267 . S
C247 O248 1.160 . S
C247 O254 1.185 . S
O248 C247 1.160 . S
O249 Zn250 1.899 . S
O249 C257 1.284 . S
Zn250 O249 1.899 . S
Zn250 O251 2.032 1_554 S
Zn250 O254 2.086 . S
Zn250 O259 1.977 . S
O251 Zn250 2.032 1_556 S
O251 C255 1.278 . S
C252 O253 1.203 . S
C252 O259 1.267 . S
O253 C252 1.203 . S
O254 C247 1.185 . S
O254 Zn250 2.086 . S
C255 O251 1.278 . S
C255 O256 1.211 . S
O256 C255 1.211 . S
C257 O249 1.284 . S
C257 O258 1.273 . S
O258 C257 1.273 . S
O259 Zn250 1.977 . S
O259 C252 1.267 . S
C260 O261 1.160 . S
C260 O267 1.185 1_554 S
O261 C260 1.160 . S
O262 Zn263 1.899 . S
O262 C270 1.284 . S
Zn263 O262 1.899 . S
Zn263 O264 2.032 1_554 S
Zn263 O267 2.086 1_554 S
Zn263 O272 1.977 1_554 S
O264 Zn263 2.032 1_556 S
O264 C268 1.278 . S
C265 O266 1.203 . S
C265 O272 1.267 1_554 S
O266 C265 1.203 . S
O267 C260 1.185 1_556 S
O267 Zn263 2.086 1_556 S
C268 O264 1.278 . S
C268 O269 1.211 . S
O269 C268 1.211 . S
C270 O262 1.284 . S
C270 O271 1.273 . S
O271 C270 1.273 . S
O272 Zn263 1.977 1_556 S
O272 C265 1.267 1_556 S
C273 O274 1.160 . S
C273 O280 1.185 . S
O274 C273 1.160 . S
O275 Zn276 1.899 . S
O275 C283 1.284 . S
Zn276 O275 1.899 . S
Zn276 O277 2.032 . S
Zn276 O280 2.086 . S
Zn276 O285 1.977 . S
O277 Zn276 2.032 . S
O277 C281 1.278 . S
C278 O279 1.203 . S
C278 O285 1.267 . S
O279 C278 1.203 . S
O280 C273 1.185 . S
O280 Zn276 2.086 . S
C281 O277 1.278 . S
C281 O282 1.211 . S
O282 C281 1.211 . S
C283 O275 1.284 . S
C283 O284 1.273 . S
O284 C283 1.273 . S
O285 Zn276 1.977 . S
O285 C278 1.267 . S
C286 O287 1.160 . S
C286 O293 1.185 . S
O287 C286 1.160 . S
O288 Zn289 1.899 . S
O288 C296 1.284 . S
Zn289 O288 1.899 . S
Zn289 O290 2.032 . S
Zn289 O293 2.086 . S
Zn289 O298 1.977 . S
O290 Zn289 2.032 . S
O290 C294 1.278 . S
C291 O292 1.203 . S
C291 O298 1.267 . S
O292 C291 1.203 . S
O293 C286 1.185 . S
O293 Zn289 2.086 . S
C294 O290 1.278 . S
C294 O295 1.211 . S
O295 C294 1.211 . S
C296 O288 1.284 . S
C296 O297 1.273 . S
O297 C296 1.273 . S
O298 Zn289 1.977 . S
O298 C291 1.267 . S
C299 O300 1.160 . S
C299 O306 1.185 . S
O300 C299 1.160 . S
O301 Zn302 1.899 . S
O301 C309 1.284 . S
Zn302 O301 1.899 . S
Zn302 O303 2.032 . S
Zn302 O306 2.086 . S
Zn302 O311 1.977 . S
O303 Zn302 2.032 . S
O303 C307 1.278 . S
C304 O305 1.203 . S
C304 O311 1.267 . S
O305 C304 1.203 . S
O306 C299 1.185 . S
O306 Zn302 2.086 . S
C307 O303 1.278 . S
C307 O308 1.211 . S
O308 C307 1.211 . S
C309 O301 1.284 . S
C309 O310 1.273 . S
O310 C309 1.273 . S
O311 Zn302 1.977 . S
O311 C304 1.267 . S
O312 Mg313 1.990 . S
O312 C326 1.253 . S
Mg313 O312 1.990 . S
Mg313 O316 2.180 1_556 S
Mg313 O317 2.117 1_556 S
Mg313 O331 2.026 1_556 S
O314 Mg315 2.072 1_656 S
O314 C326 1.260 . S
Mg315 O314 2.072 1_454 S
Mg315 O316 2.099 1_455 S
Mg315 O318 2.079 1_545 S
Mg315 O319 2.072 . S
Mg315 O321 2.105 1_545 S
Mg315 O332 2.079 1_445 S
O316 Mg313 2.180 1_554 S
O316 Mg315 2.099 1_655 S
O316 C327 1.279 . S
O317 Mg313 2.117 1_554 S
O317 C327 1.250 . S
O318 Mg315 2.079 1_565 S
O318 C328 1.264 . S
O319 Mg315 2.072 . S
O319 C329 1.260 1_554 S
Mg320 O321 2.191 . S
Mg320 O322 2.030 . S
Mg320 O323 2.017 1_554 S
Mg320 O324 2.117 1_554 S
O321 Mg315 2.105 1_565 S
O321 Mg320 2.191 . S
O321 C330 1.255 1_554 S
O322 Mg320 2.030 . S
O322 C328 1.248 . S
O323 Mg320 2.017 1_556 S
O323 C329 1.224 1_565 S
O324 Mg320 2.117 1_556 S
O324 C330 1.250 . S
C325 O331 1.268 1_565 S
C325 O332 1.264 . S
C326 O312 1.253 . S
C326 O314 1.260 . S
C327 O316 1.279 . S
C327 O317 1.250 . S
C328 O318 1.264 . S
C328 O322 1.248 . S
C329 O319 1.260 1_556 S
C329 O323 1.224 1_545 S
C330 O321 1.255 1_556 S
C330 O324 1.250 . S
O331 Mg313 2.026 1_554 S
O331 C325 1.268 1_545 S
O332 Mg315 2.079 1_665 S
O332 C325 1.264 . S
O333 Mg334 1.990 . S
O333 C347 1.253 . S
Mg334 O333 1.990 . S
Mg334 O337 2.180 . S
Mg334 O338 2.117 . S
Mg334 O352 2.030 . S
O335 Mg336 2.072 . S
O335 C347 1.260 . S
Mg336 O335 2.072 . S
Mg336 O337 2.099 . S
Mg336 O339 2.079 . S
Mg336 O340 2.072 . S
Mg336 O342 2.099 . S
Mg336 O353 2.079 . S
O337 Mg334 2.180 . S
O337 Mg336 2.099 . S
O337 C348 1.279 . S
O338 Mg334 2.117 . S
O338 C348 1.250 . S
O339 Mg336 2.079 . S
O339 C349 1.264 . S
O340 Mg336 2.072 . S
O340 C350 1.260 . S
Mg341 O342 2.180 . S
Mg341 O343 2.030 . S
Mg341 O344 1.990 . S
Mg341 O345 2.117 . S
O342 Mg336 2.099 . S
O342 Mg341 2.180 . S
O342 C351 1.279 . S
O343 Mg341 2.030 . S
O343 C349 1.248 . S
O344 Mg341 1.990 . S
O344 C350 1.253 . S
O345 Mg341 2.117 . S
O345 C351 1.250 . S
C346 O352 1.248 . S
C346 O353 1.264 . S
C347 O333 1.253 . S
C347 O335 1.260 . S
C348 O337 1.279 . S
C348 O338 1.250 . S
C349 O339 1.264 . S
C349 O343 1.248 . S
C350 O340 1.260 . S
C350 O344 1.253 . S
C351 O342 1.279 . S
C351 O345 1.250 . S
O352 Mg334 2.030 . S
O352 C346 1.248 . S
O353 Mg336 2.079 . S
O353 C346 1.264 . S
O354 Mg355 1.990 . S
O354 C368 1.253 . S
Mg355 O354 1.990 . S
Mg355 O358 2.180 . S
Mg355 O359 2.117 . S
Mg355 O373 2.030 1_565 S
O356 Mg357 2.072 . S
O356 C368 1.260 1_545 S
Mg357 O356 2.072 . S
Mg357 O358 2.099 1_545 S
Mg357 O360 2.079 . S
Mg357 O361 2.072 1_545 S
Mg357 O363 2.099 . S
Mg357 O374 2.079 . S
O358 Mg355 2.180 . S
O358 Mg357 2.099 1_565 S
O358 C369 1.279 . S
O359 Mg355 2.117 . S
O359 C369 1.250 . S
O360 Mg357 2.079 . S
O360 C370 1.264 . S
O361 Mg357 2.072 1_565 S
O361 C371 1.260 . S
Mg362 O363 2.180 . S
Mg362 O364 2.030 . S
Mg362 O365 1.990 . S
Mg362 O366 2.117 . S
O363 Mg357 2.099 . S
O363 Mg362 2.180 . S
O363 C372 1.279 . S
O364 Mg362 2.030 . S
O364 C370 1.248 . S
O365 Mg362 1.990 . S
O365 C371 1.253 1_545 S
O366 Mg362 2.117 . S
O366 C372 1.250 . S
C367 O373 1.248 . S
C367 O374 1.264 . S
C368 O354 1.253 . S
C368 O356 1.260 1_565 S
C369 O358 1.279 . S
C369 O359 1.250 . S
C370 O360 1.264 . S
C370 O364 1.248 . S
C371 O361 1.260 . S
C371 O365 1.253 1_565 S
C372 O363 1.279 . S
C372 O366 1.250 . S
O373 Mg355 2.030 1_545 S
O373 C367 1.248 . S
O374 Mg357 2.079 . S
O374 C367 1.264 . S
O375 Mg376 1.990 . S
O375 C389 1.253 . S
Mg376 O375 1.990 . S
Mg376 O379 2.180 . S
Mg376 O380 2.117 . S
Mg376 O394 2.030 . S
O377 Mg378 2.072 . S
O377 C389 1.260 . S
Mg378 O377 2.072 . S
Mg378 O379 2.099 . S
Mg378 O381 2.079 . S
Mg378 O382 2.072 . S
Mg378 O384 2.099 . S
Mg378 O395 2.079 . S
O379 Mg376 2.180 . S
O379 Mg378 2.099 . S
O379 C390 1.279 . S
O380 Mg376 2.117 . S
O380 C390 1.250 . S
O381 Mg378 2.079 . S
O381 C391 1.264 . S
O382 Mg378 2.072 . S
O382 C392 1.260 . S
Mg383 O384 2.180 . S
Mg383 O385 2.030 . S
Mg383 O386 1.990 . S
Mg383 O387 2.117 . S
O384 Mg378 2.099 . S
O384 Mg383 2.180 . S
O384 C393 1.279 . S
O385 Mg383 2.030 . S
O385 C391 1.248 . S
O386 Mg383 1.990 . S
O386 C392 1.253 . S
O387 Mg383 2.117 . S
O387 C393 1.250 . S
C388 O394 1.248 . S
C388 O395 1.264 . S
C389 O375 1.253 . S
C389 O377 1.260 . S
C390 O379 1.279 . S
C390 O380 1.250 . S
C391 O381 1.264 . S
C391 O385 1.248 . S
C392 O382 1.260 . S
C392 O386 1.253 . S
C393 O384 1.279 . S
C393 O387 1.250 . S
O394 Mg376 2.030 . S
O394 C388 1.248 . S
O395 Mg378 2.079 . S
O395 C388 1.264 . S
O396 Mg397 1.990 1_655 S
O396 C410 1.254 . S
Mg397 O396 1.990 1_455 S
Mg397 O400 2.180 . S
Mg397 O401 2.117 1_455 S
Mg397 O415 2.030 . S
O398 Mg399 2.072 1_565 S
O398 C410 1.260 1_455 S
Mg399 O398 2.072 1_545 S
Mg399 O400 2.099 1_545 S
Mg399 O402 2.079 . S
Mg399 O403 2.072 1_455 S
Mg399 O405 2.099 . S
Mg399 O416 2.079 1_545 S
O400 Mg397 2.180 . S
O400 Mg399 2.099 1_565 S
O400 C411 1.279 1_455 S
O401 Mg397 2.117 1_655 S
O401 C411 1.250 . S
O402 Mg399 2.079 . S
O402 C412 1.264 . S
O403 Mg399 2.072 1_655 S
O403 C413 1.260 . S
Mg404 O405 2.180 1_655 S
Mg404 O406 2.030 1_655 S
Mg404 O407 1.990 . S
Mg404 O408 2.117 1_655 S
O405 Mg399 2.099 . S
O405 Mg404 2.180 1_455 S
O405 C414 1.279 . S
O406 Mg404 2.030 1_455 S
O406 C412 1.248 . S
O407 Mg404 1.990 . S
O407 C413 1.253 . S
O408 Mg404 2.117 1_455 S
O408 C414 1.250 . S
C409 O415 1.248 . S
C409 O416 1.264 . S
C410 O396 1.254 . S
C410 O398 1.260 1_655 S
C411 O400 1.279 1_655 S
C411 O401 1.250 . S
C412 O402 1.264 . S
C412 O406 1.248 . S
C413 O403 1.260 . S
C413 O407 1.253 . S
C414 O405 1.279 . S
C414 O408 1.250 . S
O415 Mg397 2.030 . S
O415 C409 1.248 . S
O416 Mg399 2.079 1_565 S
O416 C409 1.264 . S
O417 Mg418 1.990 . S
O417 C431 1.253 . S
Mg418 O417 1.990 . S
Mg418 O421 2.180 . S
Mg418 O422 2.117 . S
Mg418 O436 2.030 . S
O419 Mg420 2.072 . S
O419 C431 1.260 . S
Mg420 O419 2.072 . S
Mg420 O421 2.099 . S
Mg420 O423 2.079 . S
Mg420 O424 2.072 . S
Mg420 O426 2.099 . S
Mg420 O437 2.079 . S
O421 Mg418 2.180 . S
O421 Mg420 2.099 . S
O421 C432 1.279 . S
O422 Mg418 2.117 . S
O422 C432 1.250 . S
O423 Mg420 2.079 . S
O423 C433 1.264 . S
O424 Mg420 2.072 . S
O424 C434 1.260 . S
Mg425 O426 2.180 . S
Mg425 O427 2.030 . S
Mg425 O428 1.990 . S
Mg425 O429 2.117 . S
O426 Mg420 2.099 . S
O426 Mg425 2.180 . S
O426 C435 1.279 . S
O427 Mg425 2.030 . S
O427 C433 1.248 . S
O428 Mg425 1.990 . S
O428 C434 1.253 . S
O429 Mg425 2.117 . S
O429 C435 1.250 . S
C430 O436 1.248 . S
C430 O437 1.264 . S
C431 O417 1.253 . S
C431 O419 1.260 . S
C432 O421 1.279 . S
C432 O422 1.250 . S
C433 O423 1.264 . S
C433 O427 1.248 . S
C434 O424 1.260 . S
C434 O428 1.253 . S
C435 O426 1.279 . S
C435 O429 1.250 . S
O436 Mg418 2.030 . S
O436 C430 1.248 . S
O437 Mg420 2.079 . S
O437 C430 1.264 . S
O438 Mg439 1.990 . S
O438 C452 1.253 . S
Mg439 O438 1.990 . S
Mg439 O442 2.180 1_565 S
Mg439 O443 2.117 1_565 S
Mg439 O457 2.030 1_565 S
O440 Mg441 2.072 1_565 S
O440 C452 1.260 . S
Mg441 O440 2.072 1_545 S
Mg441 O442 2.099 . S
Mg441 O444 2.079 1_554 S
Mg441 O445 2.072 1_554 S
Mg441 O447 2.108 1_554 S
Mg441 O458 2.079 . S
O442 Mg439 2.180 1_545 S
O442 Mg441 2.099 . S
O442 C453 1.279 . S
O443 Mg439 2.117 1_545 S
O443 C453 1.250 . S
O444 Mg441 2.079 1_556 S
O444 C454 1.264 . S
O445 Mg441 2.072 1_556 S
O445 C455 1.260 1_545 S
Mg446 O447 2.195 . S
Mg446 O448 2.030 . S
Mg446 O449 1.990 1_545 S
Mg446 O450 2.117 1_545 S
O447 Mg441 2.108 1_556 S
O447 Mg446 2.195 . S
O447 C456 1.247 1_545 S
O448 Mg446 2.030 . S
O448 C454 1.248 . S
O449 Mg446 1.990 1_565 S
O449 C455 1.253 . S
O450 Mg446 2.117 1_565 S
O450 C456 1.250 . S
C451 O457 1.248 . S
C451 O458 1.264 . S
C452 O438 1.253 . S
C452 O440 1.260 . S
C453 O442 1.279 . S
C453 O443 1.250 . S
C454 O444 1.264 . S
C454 O448 1.248 . S
C455 O445 1.260 1_565 S
C455 O449 1.253 . S
C456 O447 1.247 1_565 S
C456 O450 1.250 . S
O457 Mg439 2.030 1_545 S
O457 C451 1.248 . S
O458 Mg441 2.079 . S
O458 C451 1.264 . S
O459 Mg460 1.990 . S
O459 C473 1.253 . S
Mg460 O459 1.990 . S
Mg460 O463 2.180 . S
Mg460 O464 2.117 . S
Mg460 O478 2.030 . S
O461 Mg462 2.072 . S
O461 C473 1.260 . S
Mg462 O461 2.072 . S
Mg462 O463 2.099 . S
Mg462 O465 2.079 . S
Mg462 O466 2.072 . S
Mg462 O468 2.099 . S
Mg462 O479 2.079 . S
O463 Mg460 2.180 . S
O463 Mg462 2.099 . S
O463 C474 1.279 . S
O464 Mg460 2.117 . S
O464 C474 1.250 . S
O465 Mg462 2.079 . S
O465 C475 1.264 . S
O466 Mg462 2.072 . S
O466 C476 1.260 . S
Mg467 O468 2.180 . S
Mg467 O469 2.030 . S
Mg467 O470 1.990 . S
Mg467 O471 2.117 . S
O468 Mg462 2.099 . S
O468 Mg467 2.180 . S
O468 C477 1.279 . S
O469 Mg467 2.030 . S
O469 C475 1.248 . S
O470 Mg467 1.990 . S
O470 C476 1.253 . S
O471 Mg467 2.117 . S
O471 C477 1.250 . S
C472 O478 1.248 . S
C472 O479 1.264 . S
C473 O459 1.253 . S
C473 O461 1.260 . S
C474 O463 1.279 . S
C474 O464 1.250 . S
C475 O465 1.264 . S
C475 O469 1.248 . S
C476 O466 1.260 . S
C476 O470 1.253 . S
C477 O468 1.279 . S
C477 O471 1.250 . S
O478 Mg460 2.030 . S
O478 C472 1.248 . S
O479 Mg462 2.079 . S
O479 C472 1.264 . S
O480 Mg481 1.990 . S
O480 C494 1.253 . S
Mg481 O480 1.990 . S
Mg481 O484 2.180 . S
Mg481 O485 2.117 . S
Mg481 O499 2.030 . S
O482 Mg483 2.074 . S
O482 C494 1.248 1_554 S
Mg483 O482 2.074 . S
Mg483 O484 2.099 1_554 S
Mg483 O486 2.079 . S
Mg483 O487 2.072 1_554 S
Mg483 O489 2.099 . S
Mg483 O500 2.079 . S
O484 Mg481 2.180 . S
O484 Mg483 2.099 1_556 S
O484 C495 1.279 . S
O485 Mg481 2.117 . S
O485 C495 1.250 . S
O486 Mg483 2.079 . S
O486 C496 1.264 . S
O487 Mg483 2.072 1_556 S
O487 C497 1.260 . S
Mg488 O489 2.180 . S
Mg488 O490 2.030 . S
Mg488 O491 1.990 . S
Mg488 O492 2.117 . S
O489 Mg483 2.099 . S
O489 Mg488 2.180 . S
O489 C498 1.279 . S
O490 Mg488 2.030 . S
O490 C496 1.248 . S
O491 Mg488 1.990 . S
O491 C497 1.253 1_554 S
O492 Mg488 2.117 . S
O492 C498 1.250 . S
C493 O499 1.248 1_554 S
C493 O500 1.264 . S
C494 O480 1.253 . S
C494 O482 1.248 1_556 S
C495 O484 1.279 . S
C495 O485 1.250 . S
C496 O486 1.264 . S
C496 O490 1.248 . S
C497 O487 1.260 . S
C497 O491 1.253 1_556 S
C498 O489 1.279 . S
C498 O492 1.250 . S
O499 Mg481 2.030 . S
O499 C493 1.248 1_556 S
O500 Mg483 2.079 . S
O500 C493 1.264 . S
O501 Mg502 1.990 . S
O501 C515 1.253 . S
Mg502 O501 1.990 . S
Mg502 O505 2.180 . S
Mg502 O506 2.117 . S
Mg502 O520 2.030 . S
O503 Mg504 2.072 . S
O503 C515 1.260 . S
Mg504 O503 2.072 . S
Mg504 O505 2.099 . S
Mg504 O507 2.079 . S
Mg504 O508 2.072 . S
Mg504 O510 2.099 . S
Mg504 O521 2.079 . S
O505 Mg502 2.180 . S
O505 Mg504 2.099 . S
O505 C516 1.279 . S
O506 Mg502 2.117 . S
O506 C516 1.250 . S
O507 Mg504 2.079 . S
O507 C517 1.264 . S
O508 Mg504 2.072 . S
O508 C518 1.260 . S
Mg509 O510 2.180 . S
Mg509 O511 2.030 . S
Mg509 O512 1.990 . S
Mg509 O513 2.117 . S
O510 Mg504 2.099 . S
O510 Mg509 2.180 . S
O510 C519 1.279 . S
O511 Mg509 2.030 . S
O511 C517 1.248 . S
O512 Mg509 1.990 . S
O512 C518 1.253 . S
O513 Mg509 2.117 . S
O513 C519 1.250 . S
C514 O520 1.248 . S
C514 O521 1.264 . S
C515 O501 1.253 . S
C515 O503 1.260 . S
C516 O505 1.279 . S
C516 O506 1.250 . S
C517 O507 1.264 . S
C517 O511 1.248 . S
C518 O508 1.260 . S
C518 O512 1.253 . S
C519 O510 1.279 . S
C519 O513 1.250 . S
O520 Mg502 2.030 . S
O520 C514 1.248 . S
O521 Mg504 2.079 . S
O521 C514 1.264 . S
O522 Mg523 1.990 . S
O522 C536 1.253 . S
Mg523 O522 1.990 . S
Mg523 O526 2.180 . S
Mg523 O527 2.117 . S
Mg523 O541 2.057 . S
O524 Mg525 2.072 . S
O524 C536 1.260 1_455 S
Mg525 O524 2.072 . S
Mg525 O526 2.099 1_455 S
Mg525 O528 2.079 . S
Mg525 O529 2.072 1_455 S
Mg525 O531 2.099 . S
Mg525 O542 2.079 . S
O526 Mg523 2.180 . S
O526 Mg525 2.099 1_655 S
O526 C537 1.279 . S
O527 Mg523 2.117 . S
O527 C537 1.250 . S
O528 Mg525 2.079 . S
O528 C538 1.264 . S
O529 Mg525 2.072 1_655 S
O529 C539 1.260 . S
Mg530 O531 2.180 . S
Mg530 O532 2.030 . S
Mg530 O533 1.990 . S
Mg530 O534 2.117 . S
O531 Mg525 2.099 . S
O531 Mg530 2.180 . S
O531 C540 1.279 . S
O532 Mg530 2.030 . S
O532 C538 1.248 . S
O533 Mg530 1.990 . S
O533 C539 1.253 1_455 S
O534 Mg530 2.117 . S
O534 C540 1.250 . S
C535 O541 1.225 1_455 S
C535 O542 1.264 . S
C536 O522 1.253 . S
C536 O524 1.260 1_655 S
C537 O526 1.279 . S
C537 O527 1.250 . S
C538 O528 1.264 . S
C538 O532 1.248 . S
C539 O529 1.260 . S
C539 O533 1.253 1_655 S
C540 O531 1.279 . S
C540 O534 1.250 . S
O541 Mg523 2.057 . S
O541 C535 1.225 1_655 S
O542 Mg525 2.079 . S
O542 C535 1.264 . S
O543 Mg544 1.990 . S
O543 C557 1.253 . S
Mg544 O543 1.990 . S
Mg544 O547 2.180 . S
Mg544 O548 2.117 . S
Mg544 O562 2.030 . S
O545 Mg546 2.072 . S
O545 C557 1.260 . S
Mg546 O545 2.072 . S
Mg546 O547 2.099 . S
Mg546 O549 2.079 . S
Mg546 O550 2.072 . S
Mg546 O552 2.099 . S
Mg546 O563 2.079 . S
O547 Mg544 2.180 . S
O547 Mg546 2.099 . S
O547 C558 1.279 . S
O548 Mg544 2.117 . S
O548 C558 1.250 . S
O549 Mg546 2.079 . S
O549 C559 1.264 . S
O550 Mg546 2.072 . S
O550 C560 1.260 . S
Mg551 O552 2.180 . S
Mg551 O553 2.030 . S
Mg551 O554 1.990 . S
Mg551 O555 2.117 . S
O552 Mg546 2.099 . S
O552 Mg551 2.180 . S
O552 C561 1.279 . S
O553 Mg551 2.030 . S
O553 C559 1.248 . S
O554 Mg551 1.990 . S
O554 C560 1.253 . S
O555 Mg551 2.117 . S
O555 C561 1.250 . S
C556 O562 1.248 . S
C556 O563 1.264 . S
C557 O543 1.253 . S
C557 O545 1.260 . S
C558 O547 1.279 . S
C558 O548 1.250 . S
C559 O549 1.264 . S
C559 O553 1.248 . S
C560 O550 1.260 . S
C560 O554 1.253 . S
C561 O552 1.279 . S
C561 O555 1.250 . S
O562 Mg544 2.030 . S
O562 C556 1.248 . S
O563 Mg546 2.079 . S
O563 C556 1.264 . S
O564 Mg565 1.990 . S
O564 C578 1.253 . S
Mg565 O564 1.990 . S
Mg565 O568 2.180 . S
Mg565 O569 2.117 . S
Mg565 O583 2.030 . S
O566 Mg567 2.072 . S
O566 C578 1.260 . S
Mg567 O566 2.072 . S
Mg567 O568 2.099 . S
Mg567 O570 2.079 . S
Mg567 O571 2.072 . S
Mg567 O573 2.099 . S
Mg567 O584 2.079 . S
O568 Mg565 2.180 . S
O568 Mg567 2.099 . S
O568 C579 1.279 . S
O569 Mg565 2.117 . S
O569 C579 1.250 . S
O570 Mg567 2.079 . S
O570 C580 1.264 . S
O571 Mg567 2.072 . S
O571 C581 1.260 . S
Mg572 O573 2.180 . S
Mg572 O574 2.030 . S
Mg572 O575 1.990 . S
Mg572 O576 2.117 . S
O573 Mg567 2.099 . S
O573 Mg572 2.180 . S
O573 C582 1.279 . S
O574 Mg572 2.030 . S
O574 C580 1.248 . S
O575 Mg572 1.990 . S
O575 C581 1.253 . S
O576 Mg572 2.117 . S
O576 C582 1.250 . S
C577 O583 1.248 . S
C577 O584 1.264 . S
C578 O564 1.253 . S
C578 O566 1.260 . S
C579 O568 1.279 . S
C579 O569 1.250 . S
C580 O570 1.264 . S
C580 O574 1.248 . S
C581 O571 1.260 . S
C581 O575 1.253 . S
C582 O573 1.279 . S
C582 O576 1.250 . S
O583 Mg565 2.030 . S
O583 C577 1.248 . S
O584 Mg567 2.079 . S
O584 C577 1.264 . S
O585 Mg586 1.990 . S
O585 C599 1.253 . S
Mg586 O585 1.990 . S
Mg586 O589 2.180 . S
Mg586 O590 2.117 . S
Mg586 O604 2.030 . S
O587 Mg588 2.072 . S
O587 C599 1.260 . S
Mg588 O587 2.072 . S
Mg588 O589 2.099 . S
Mg588 O591 2.079 . S
Mg588 O592 2.072 . S
Mg588 O594 2.099 . S
Mg588 O605 2.079 . S
O589 Mg586 2.180 . S
O589 Mg588 2.099 . S
O589 C600 1.279 . S
O590 Mg586 2.117 . S
O590 C600 1.250 . S
O591 Mg588 2.079 . S
O591 C601 1.264 . S
O592 Mg588 2.072 . S
O592 C602 1.260 . S
Mg593 O594 2.180 . S
Mg593 O595 2.030 . S
Mg593 O596 1.990 . S
Mg593 O597 2.117 . S
O594 Mg588 2.099 . S
O594 Mg593 2.180 . S
O594 C603 1.279 . S
O595 Mg593 2.030 . S
O595 C601 1.248 . S
O596 Mg593 1.990 . S
O596 C602 1.253 . S
O597 Mg593 2.117 . S
O597 C603 1.250 . S
C598 O604 1.248 . S
C598 O605 1.264 . S
C599 O585 1.253 . S
C599 O587 1.260 . S
C600 O589 1.279 . S
C600 O590 1.250 . S
C601 O591 1.264 . S
C601 O595 1.248 . S
C602 O592 1.260 . S
C602 O596 1.253 . S
C603 O594 1.279 . S
C603 O597 1.250 . S
O604 Mg586 2.030 . S
O604 C598 1.248 . S
O605 Mg588 2.079 . S
O605 C598 1.264 . S
O606 Mg607 1.990 . S
O606 C620 1.253 . S
Mg607 O606 1.990 . S
Mg607 O610 2.180 . S
Mg607 O611 2.117 . S
Mg607 O625 2.030 . S
O608 Mg609 2.072 . S
O608 C620 1.260 . S
Mg609 O608 2.072 . S
Mg609 O610 2.099 . S
Mg609 O612 2.079 . S
Mg609 O613 2.072 . S
Mg609 O615 2.099 . S
Mg609 O626 2.079 . S
O610 Mg607 2.180 . S
O610 Mg609 2.099 . S
O610 C621 1.279 . S
O611 Mg607 2.117 . S
O611 C621 1.250 . S
O612 Mg609 2.079 . S
O612 C622 1.264 . S
O613 Mg609 2.072 . S
O613 C623 1.260 . S
Mg614 O615 2.180 . S
Mg614 O616 2.030 . S
Mg614 O617 1.990 . S
Mg614 O618 2.117 . S
O615 Mg609 2.099 . S
O615 Mg614 2.180 . S
O615 C624 1.279 . S
O616 Mg614 2.030 . S
O616 C622 1.248 . S
O617 Mg614 1.990 . S
O617 C623 1.253 . S
O618 Mg614 2.117 . S
O618 C624 1.250 . S
C619 O625 1.248 . S
C619 O626 1.264 . S
C620 O606 1.253 . S
C620 O608 1.260 . S
C621 O610 1.279 . S
C621 O611 1.250 . S
C622 O612 1.264 . S
C622 O616 1.248 . S
C623 O613 1.260 . S
C623 O617 1.253 . S
C624 O615 1.279 . S
C624 O618 1.250 . S
O625 Mg607 2.030 . S
O625 C619 1.248 . S
O626 Mg609 2.079 . S
O626 C619 1.264 . S
O627 Mg628 1.990 . S
O627 C641 1.253 . S
Mg628 O627 1.990 . S
Mg628 O631 2.180 1_556 S
Mg628 O632 2.117 1_556 S
Mg628 O646 2.030 . S
O629 Mg630 2.072 1_556 S
O629 C641 1.260 . S
Mg630 O629 2.072 1_554 S
Mg630 O631 2.099 . S
Mg630 O633 2.079 1_455 S
Mg630 O634 2.072 1_455 S
Mg630 O636 2.097 1_454 S
Mg630 O647 2.079 . S
O631 Mg628 2.180 1_554 S
O631 Mg630 2.099 . S
O631 C642 1.279 . S
O632 Mg628 2.117 1_554 S
O632 C642 1.250 . S
O633 Mg630 2.079 1_655 S
O633 C643 1.264 . S
O634 Mg630 2.072 1_655 S
O634 C644 1.260 1_554 S
Mg635 O636 2.178 1_554 S
Mg635 O637 2.030 . S
Mg635 O638 1.990 1_554 S
Mg635 O639 2.117 1_554 S
O636 Mg630 2.097 1_656 S
O636 Mg635 2.178 1_556 S
O636 C645 1.285 . S
O637 Mg635 2.030 . S
O637 C643 1.248 . S
O638 Mg635 1.990 1_556 S
O638 C644 1.253 . S
O639 Mg635 2.117 1_556 S
O639 C645 1.250 . S
C640 O646 1.244 1_554 S
C640 O647 1.264 . S
C641 O627 1.253 . S
C641 O629 1.260 . S
C642 O631 1.279 . S
C642 O632 1.250 . S
C643 O633 1.264 . S
C643 O637 1.248 . S
C644 O634 1.260 1_556 S
C644 O638 1.253 . S
C645 O636 1.285 . S
C645 O639 1.250 . S
O646 Mg628 2.030 . S
O646 C640 1.244 1_556 S
O647 Mg630 2.079 . S
O647 C640 1.264 . S
H648 C654 0.930 . S
H649 C658 0.930 . S
H650 C663 0.929 . S
H651 C661 0.929 . S
H652 C656 0.929 . S
H653 C662 0.929 . S
C654 H648 0.930 . S
C654 C655 1.367 . S
C654 C662 1.378 . S
C655 C654 1.367 . S
C655 C663 1.433 1_455 S
C656 H652 0.929 . S
C656 C658 1.378 . S
C656 C660 1.355 . S
C657 C660 1.462 1_455 S
C657 C662 1.350 . S
C657 N665 1.427 1_455 S
C658 H649 0.930 . S
C658 C656 1.378 . S
C658 C659 1.367 . S
C659 C658 1.367 . S
C659 C661 1.433 1_655 S
C660 C656 1.355 . S
C660 C657 1.462 1_655 S
C660 N664 1.423 1_655 S
C661 H651 0.929 . S
C661 C659 1.433 1_455 S
C661 N664 1.384 . S
C662 H653 0.929 . S
C662 C654 1.378 . S
C662 C657 1.350 . S
C663 H650 0.929 . S
C663 C655 1.433 1_655 S
C663 N665 1.384 . S
N664 C660 1.423 1_455 S
N664 C661 1.384 . S
N665 C657 1.427 1_655 S
N665 C663 1.384 . S
H666 C672 0.930 . S
H667 C676 0.930 . S
H668 C681 0.929 . S
H669 C679 0.929 . S
H670 C674 0.929 . S
H671 C680 0.929 . S
C672 H666 0.930 . S
C672 C673 1.367 . S
C672 C680 1.378 . S
C673 C672 1.367 . S
C673 C681 1.433 . S
C674 H670 0.929 . S
C674 C676 1.378 . S
C674 C678 1.350 . S
C675 C678 1.463 . S
C675 C680 1.350 . S
C675 N683 1.427 . S
C676 H667 0.930 . S
C676 C674 1.378 . S
C676 C677 1.367 . S
C677 C676 1.367 . S
C677 C679 1.433 . S
C678 C674 1.350 . S
C678 C675 1.463 . S
C678 N682 1.427 . S
C679 H669 0.929 . S
C679 C677 1.433 . S
C679 N682 1.384 . S
C680 H671 0.929 . S
C680 C672 1.378 . S
C680 C675 1.350 . S
C681 H668 0.929 . S
C681 C673 1.433 . S
C681 N683 1.384 . S
N682 C678 1.427 . S
N682 C679 1.384 . S
N683 C675 1.427 . S
N683 C681 1.384 . S
H684 C690 0.930 . S
H685 C694 0.930 . S
H686 C699 0.929 . S
H687 C697 0.929 . S
H688 C692 0.929 . S
H689 C698 0.929 . S
C690 H684 0.930 . S
C690 C691 1.367 . S
C690 C698 1.378 . S
C691 C690 1.367 . S
C691 C699 1.433 . S
C692 H688 0.929 . S
C692 C694 1.378 . S
C692 C696 1.350 . S
C693 C696 1.463 . S
C693 C698 1.350 . S
C693 N701 1.427 . S
C694 H685 0.930 . S
C694 C692 1.378 . S
C694 C695 1.367 . S
C695 C694 1.367 . S
C695 C697 1.433 . S
C696 C692 1.350 . S
C696 C693 1.463 . S
C696 N700 1.427 . S
C697 H687 0.929 . S
C697 C695 1.433 . S
C697 N700 1.384 . S
C698 H689 0.929 . S
C698 C690 1.378 . S
C698 C693 1.350 . S
C699 H686 0.929 . S
C699 C691 1.433 . S
C699 N701 1.384 . S
N700 C696 1.427 . S
N700 C697 1.384 . S
N701 C693 1.427 . S
N701 C699 1.384 . S
H702 C708 0.930 . S
H703 C712 0.930 . S
H704 C717 0.929 . S
H705 C715 0.929 . S
H706 C710 0.929 . S
H707 C716 0.929 . S
C708 H702 0.930 . S
C708 C709 1.367 . S
C708 C716 1.378 . S
C709 C708 1.367 . S
C709 C717 1.433 . S
C710 H706 0.929 . S
C710 C712 1.378 . S
C710 C714 1.350 . S
C711 C714 1.463 . S
C711 C716 1.350 . S
C711 N719 1.427 . S
C712 H703 0.930 . S
C712 C710 1.378 . S
C712 C713 1.367 . S
C713 C712 1.367 . S
C713 C715 1.433 . S
C714 C710 1.350 . S
C714 C711 1.463 . S
C714 N718 1.427 . S
C715 H705 0.929 . S
C715 C713 1.433 . S
C715 N718 1.384 . S
C716 H707 0.929 . S
C716 C708 1.378 . S
C716 C711 1.350 . S
C717 H704 0.929 . S
C717 C709 1.433 . S
C717 N719 1.384 . S
N718 C714 1.427 . S
N718 C715 1.384 . S
N719 C711 1.427 . S
N719 C717 1.384 . S
H720 C726 0.930 . S
H721 C730 0.930 . S
H722 C735 0.929 . S
H723 C733 0.929 . S
H724 C728 0.929 . S
H725 C734 0.929 . S
C726 H720 0.930 . S
C726 C727 1.367 . S
C726 C734 1.378 . S
C727 C726 1.367 . S
C727 C735 1.433 1_455 S
C728 H724 0.929 . S
C728 C730 1.378 . S
C728 C732 1.350 1_655 S
C729 C732 1.463 . S
C729 C734 1.350 . S
C729 N737 1.427 1_455 S
C730 H721 0.930 . S
C730 C728 1.378 . S
C730 C731 1.378 . S
C731 C730 1.378 . S
C731 C733 1.421 1_655 S
C732 C728 1.350 1_455 S
C732 C729 1.463 . S
C732 N736 1.427 . S
C733 H723 0.929 . S
C733 C731 1.421 1_455 S
C733 N736 1.384 . S
C734 H725 0.929 . S
C734 C726 1.378 . S
C734 C729 1.350 . S
C735 H722 0.929 . S
C735 C727 1.433 1_655 S
C735 N737 1.384 . S
N736 C732 1.427 . S
N736 C733 1.384 . S
N737 C729 1.427 1_655 S
N737 C735 1.384 . S
H738 C744 0.930 . S
H739 C748 0.930 . S
H740 C753 0.929 . S
H741 C751 0.929 . S
H742 C746 0.929 . S
H743 C752 0.929 . S
C744 H738 0.930 . S
C744 C745 1.367 . S
C744 C752 1.378 . S
C745 C744 1.367 . S
C745 C753 1.433 . S
C746 H742 0.929 . S
C746 C748 1.378 . S
C746 C750 1.350 . S
C747 C750 1.463 . S
C747 C752 1.350 . S
C747 N755 1.427 . S
C748 H739 0.930 . S
C748 C746 1.378 . S
C748 C749 1.367 . S
C749 C748 1.367 . S
C749 C751 1.433 . S
C750 C746 1.350 . S
C750 C747 1.463 . S
C750 N754 1.427 . S
C751 H741 0.929 . S
C751 C749 1.433 . S
C751 N754 1.384 . S
C752 H743 0.929 . S
C752 C744 1.378 . S
C752 C747 1.350 . S
C753 H740 0.929 . S
C753 C745 1.433 . S
C753 N755 1.384 . S
N754 C750 1.427 . S
N754 C751 1.384 . S
N755 C747 1.427 . S
N755 C753 1.384 . S
H756 C762 0.930 . S
H757 C766 0.930 1_554 S
H758 C771 0.929 . S
H759 C769 0.929 . S
H760 C764 0.929 . S
H761 C770 0.929 . S
C762 H756 0.930 . S
C762 C763 1.367 . S
C762 C770 1.378 . S
C763 C762 1.367 . S
C763 C771 1.433 . S
C764 H760 0.929 . S
C764 C766 1.378 . S
C764 C768 1.350 . S
C765 C768 1.463 . S
C765 C770 1.350 . S
C765 N773 1.427 . S
C766 H757 0.930 1_556 S
C766 C764 1.378 . S
C766 C767 1.367 . S
C767 C766 1.367 . S
C767 C769 1.433 . S
C768 C764 1.350 . S
C768 C765 1.463 . S
C768 N772 1.427 . S
C769 H759 0.929 . S
C769 C767 1.433 . S
C769 N772 1.384 . S
C770 H761 0.929 . S
C770 C762 1.378 . S
C770 C765 1.350 . S
C771 H758 0.929 . S
C771 C763 1.433 . S
C771 N773 1.384 . S
N772 C768 1.427 . S
N772 C769 1.384 . S
N773 C765 1.427 . S
N773 C771 1.384 . S
H774 C780 0.930 . S
H775 C784 0.930 . S
H776 C789 0.929 . S
H777 C787 0.929 . S
H778 C782 0.929 . S
H779 C788 0.929 . S
C780 H774 0.930 . S
C780 C781 1.367 . S
C780 C788 1.378 . S
C781 C780 1.367 . S
C781 C789 1.433 . S
C782 H778 0.929 . S
C782 C784 1.378 . S
C782 C786 1.350 . S
C783 C786 1.463 . S
C783 C788 1.350 . S
C783 N791 1.427 . S
C784 H775 0.930 . S
C784 C782 1.378 . S
C784 C785 1.367 . S
C785 C784 1.367 . S
C785 C787 1.433 . S
C786 C782 1.350 . S
C786 C783 1.463 . S
C786 N790 1.427 . S
C787 H777 0.929 . S
C787 C785 1.433 . S
C787 N790 1.384 . S
C788 H779 0.929 . S
C788 C780 1.378 . S
C788 C783 1.350 . S
C789 H776 0.929 . S
C789 C781 1.433 . S
C789 N791 1.384 . S
N790 C786 1.427 . S
N790 C787 1.384 . S
N791 C783 1.427 . S
N791 C789 1.384 . S
H792 C798 0.930 . S
H793 C802 0.930 . S
H794 C807 0.929 . S
H795 C805 0.929 . S
H796 C800 0.929 . S
H797 C806 0.929 . S
C798 H792 0.930 . S
C798 C799 1.367 . S
C798 C806 1.378 . S
C799 C798 1.367 . S
C799 C807 1.433 . S
C800 H796 0.929 . S
C800 C802 1.378 . S
C800 C804 1.354 . S
C801 C804 1.460 1_545 S
C801 C806 1.354 . S
C801 N809 1.427 . S
C802 H793 0.930 . S
C802 C800 1.378 . S
C802 C803 1.367 . S
C803 C802 1.367 . S
C803 C805 1.433 . S
C804 C800 1.354 . S
C804 C801 1.460 1_565 S
C804 N808 1.427 . S
C805 H795 0.929 . S
C805 C803 1.433 . S
C805 N808 1.384 . S
C806 H797 0.929 . S
C806 C798 1.378 . S
C806 C801 1.354 . S
C807 H794 0.929 . S
C807 C799 1.433 . S
C807 N809 1.384 . S
N808 C804 1.427 . S
N808 C805 1.384 . S
N809 C801 1.427 . S
N809 C807 1.384 . S
H810 C816 0.930 . S
H811 C820 0.930 . S
H812 C825 0.929 . S
H813 C823 0.929 . S
H814 C818 0.929 . S
H815 C824 0.929 . S
C816 H810 0.930 . S
C816 C817 1.367 . S
C816 C824 1.378 . S
C817 C816 1.367 . S
C817 C825 1.433 . S
C818 H814 0.929 . S
C818 C820 1.378 . S
C818 C822 1.350 . S
C819 C822 1.463 . S
C819 C824 1.350 . S
C819 N827 1.427 . S
C820 H811 0.930 . S
C820 C818 1.378 . S
C820 C821 1.367 . S
C821 C820 1.367 . S
C821 C823 1.433 . S
C822 C818 1.350 . S
C822 C819 1.463 . S
C822 N826 1.427 . S
C823 H813 0.929 . S
C823 C821 1.433 . S
C823 N826 1.384 . S
C824 H815 0.929 . S
C824 C816 1.378 . S
C824 C819 1.350 . S
C825 H812 0.929 . S
C825 C817 1.433 . S
C825 N827 1.384 . S
N826 C822 1.427 . S
N826 C823 1.384 . S
N827 C819 1.427 . S
N827 C825 1.384 . S
H828 C834 0.930 . S
H829 C838 0.930 . S
H830 C843 0.929 . S
H831 C841 0.929 . S
H832 C836 0.929 . S
H833 C842 0.929 . S
C834 H828 0.930 . S
C834 C835 1.367 . S
C834 C842 1.378 . S
C835 C834 1.367 . S
C835 C843 1.433 1_545 S
C836 H832 0.929 . S
C836 C838 1.378 . S
C836 C840 1.350 1_565 S
C837 C840 1.463 . S
C837 C842 1.350 . S
C837 N845 1.427 1_545 S
C838 H829 0.930 . S
C838 C836 1.378 . S
C838 C839 1.367 1_565 S
C839 C838 1.367 1_545 S
C839 C841 1.433 . S
C840 C836 1.350 1_545 S
C840 C837 1.463 . S
C840 N844 1.427 . S
C841 H831 0.929 . S
C841 C839 1.433 . S
C841 N844 1.384 . S
C842 H833 0.929 . S
C842 C834 1.378 . S
C842 C837 1.350 . S
C843 H830 0.929 . S
C843 C835 1.433 1_565 S
C843 N845 1.384 . S
N844 C840 1.427 . S
N844 C841 1.384 . S
N845 C837 1.427 1_565 S
N845 C843 1.384 . S
H846 C852 0.930 . S
H847 C856 0.930 . S
H848 C861 0.929 . S
H849 C859 0.929 . S
H850 C854 0.929 . S
H851 C860 0.929 . S
C852 H846 0.930 . S
C852 C853 1.367 . S
C852 C860 1.378 . S
C853 C852 1.367 . S
C853 C861 1.433 . S
C854 H850 0.929 . S
C854 C856 1.378 . S
C854 C858 1.350 . S
C855 C858 1.463 . S
C855 C860 1.350 . S
C855 N863 1.427 . S
C856 H847 0.930 . S
C856 C854 1.378 . S
C856 C857 1.367 . S
C857 C856 1.367 . S
C857 C859 1.433 . S
C858 C854 1.350 . S
C858 C855 1.463 . S
C858 N862 1.427 . S
C859 H849 0.929 . S
C859 C857 1.433 . S
C859 N862 1.384 . S
C860 H851 0.929 . S
C860 C852 1.378 . S
C860 C855 1.350 . S
C861 H848 0.929 . S
C861 C853 1.433 . S
C861 N863 1.384 . S
N862 C858 1.427 . S
N862 C859 1.384 . S
N863 C855 1.427 . S
N863 C861 1.384 . S
H864 C870 0.930 . S
H865 C874 0.930 . S
H866 C879 0.929 . S
H867 C877 0.929 . S
H868 C872 0.929 . S
H869 C878 0.929 . S
C870 H864 0.930 . S
C870 C871 1.367 1_565 S
C870 C878 1.378 . S
C871 C870 1.367 1_545 S
C871 C879 1.433 . S
C872 H868 0.929 . S
C872 C874 1.378 . S
C872 C876 1.350 . S
C873 C876 1.463 . S
C873 C878 1.350 1_545 S
C873 N881 1.427 . S
C874 H865 0.930 . S
C874 C872 1.378 . S
C874 C875 1.367 . S
C875 C874 1.367 . S
C875 C877 1.433 1_545 S
C876 C872 1.350 . S
C876 C873 1.463 . S
C876 N880 1.427 1_545 S
C877 H867 0.929 . S
C877 C875 1.433 1_565 S
C877 N880 1.384 . S
C878 H869 0.929 . S
C878 C870 1.378 . S
C878 C873 1.350 1_565 S
C879 H866 0.929 . S
C879 C871 1.433 . S
C879 N881 1.384 . S
N880 C876 1.427 1_565 S
N880 C877 1.384 . S
N881 C873 1.427 . S
N881 C879 1.384 . S
H882 C888 0.930 . S
H883 C892 0.930 . S
H884 C897 0.929 . S
H885 C895 0.929 . S
H886 C890 0.929 . S
H887 C896 0.929 . S
C888 H882 0.930 . S
C888 C889 1.367 . S
C888 C896 1.378 . S
C889 C888 1.367 . S
C889 C897 1.433 . S
C890 H886 0.929 . S
C890 C892 1.378 . S
C890 C894 1.350 . S
C891 C894 1.463 . S
C891 C896 1.350 . S
C891 N899 1.427 . S
C892 H883 0.930 . S
C892 C890 1.378 . S
C892 C893 1.367 . S
C893 C892 1.367 . S
C893 C895 1.433 . S
C894 C890 1.350 . S
C894 C891 1.463 . S
C894 N898 1.427 . S
C895 H885 0.929 . S
C895 C893 1.433 . S
C895 N898 1.384 . S
C896 H887 0.929 . S
C896 C888 1.378 . S
C896 C891 1.350 . S
C897 H884 0.929 . S
C897 C889 1.433 . S
C897 N899 1.384 . S
N898 C894 1.427 . S
N898 C895 1.384 . S
N899 C891 1.427 . S
N899 C897 1.384 . S
H900 C906 0.930 . S
H901 C910 0.930 . S
H902 C915 0.929 . S
H903 C913 0.929 . S
H904 C908 0.929 . S
H905 C914 0.929 . S
C906 H900 0.930 . S
C906 C907 1.367 1_565 S
C906 C914 1.378 . S
C907 C906 1.367 1_545 S
C907 C915 1.433 . S
C908 H904 0.929 . S
C908 C910 1.378 . S
C908 C912 1.350 . S
C909 C912 1.463 . S
C909 C914 1.350 1_545 S
C909 N917 1.427 . S
C910 H901 0.930 . S
C910 C908 1.378 . S
C910 C911 1.367 1_545 S
C911 C910 1.367 1_565 S
C911 C913 1.433 . S
C912 C908 1.350 . S
C912 C909 1.463 . S
C912 N916 1.427 1_545 S
C913 H903 0.929 . S
C913 C911 1.433 . S
C913 N916 1.384 . S
C914 H905 0.929 . S
C914 C906 1.378 . S
C914 C909 1.350 1_565 S
C915 H902 0.929 . S
C915 C907 1.433 . S
C915 N917 1.384 . S
N916 C912 1.427 1_565 S
N916 C913 1.384 . S
N917 C909 1.427 . S
N917 C915 1.384 . S
H918 C924 0.930 . S
H919 C928 0.930 . S
H920 C933 0.929 . S
H921 C931 0.929 . S
H922 C926 0.929 . S
H923 C932 0.929 . S
C924 H918 0.930 . S
C924 C925 1.367 . S
C924 C932 1.378 . S
C925 C924 1.367 . S
C925 C933 1.433 . S
C926 H922 0.929 . S
C926 C928 1.378 . S
C926 C930 1.350 . S
C927 C930 1.463 . S
C927 C932 1.350 . S
C927 N935 1.427 . S
C928 H919 0.930 . S
C928 C926 1.378 . S
C928 C929 1.367 . S
C929 C928 1.367 . S
C929 C931 1.433 . S
C930 C926 1.350 . S
C930 C927 1.463 . S
C930 N934 1.427 . S
C931 H921 0.929 . S
C931 C929 1.433 . S
C931 N934 1.384 . S
C932 H923 0.929 . S
C932 C924 1.378 . S
C932 C927 1.350 . S
C933 H920 0.929 . S
C933 C925 1.433 . S
C933 N935 1.384 . S
N934 C930 1.427 . S
N934 C931 1.384 . S
N935 C927 1.427 . S
N935 C933 1.384 . S
H936 C942 0.930 . S
H937 C946 0.930 . S
H938 C951 0.929 . S
H939 C949 0.929 . S
H940 C944 0.929 . S
H941 C950 0.929 . S
C942 H936 0.930 . S
C942 C943 1.367 1_556 S
C942 C950 1.378 . S
C943 C942 1.367 1_554 S
C943 C951 1.433 . S
C944 H940 0.929 . S
C944 C946 1.378 . S
C944 C948 1.350 . S
C945 C948 1.463 . S
C945 C950 1.350 1_554 S
C945 N953 1.427 . S
C946 H937 0.930 . S
C946 C944 1.378 . S
C946 C947 1.367 1_554 S
C947 C946 1.367 1_556 S
C947 C949 1.433 . S
C948 C944 1.350 . S
C948 C945 1.463 . S
C948 N952 1.427 1_554 S
C949 H939 0.929 . S
C949 C947 1.433 . S
C949 N952 1.384 . S
C950 H941 0.929 . S
C950 C942 1.378 . S
C950 C945 1.350 1_556 S
C951 H938 0.929 . S
C951 C943 1.433 . S
C951 N953 1.384 . S
N952 C948 1.427 1_556 S
N952 C949 1.384 . S
N953 C945 1.427 . S
N953 C951 1.384 . S
H954 C960 0.930 . S
H955 C964 0.930 . S
H956 C969 0.929 . S
H957 C967 0.914 1_556 S
H958 C962 0.929 . S
H959 C968 0.929 . S
C960 H954 0.930 . S
C960 C961 1.367 1_556 S
C960 C968 1.378 . S
C961 C960 1.367 1_554 S
C961 C969 1.433 . S
C962 H958 0.929 . S
C962 C964 1.378 . S
C962 C966 1.350 . S
C963 C966 1.463 . S
C963 C968 1.350 1_554 S
C963 N971 1.427 . S
C964 H955 0.930 . S
C964 C962 1.378 . S
C964 C965 1.367 . S
C965 C964 1.367 . S
C965 C967 1.454 . S
C966 C962 1.350 . S
C966 C963 1.463 . S
C966 N970 1.427 1_554 S
C967 H957 0.914 1_554 S
C967 C965 1.454 . S
C967 N970 1.381 1_554 S
C968 H959 0.929 . S
C968 C960 1.378 . S
C968 C963 1.350 1_556 S
C969 H956 0.929 . S
C969 C961 1.433 . S
C969 N971 1.384 . S
N970 C966 1.427 1_556 S
N970 C967 1.381 1_556 S
N971 C963 1.427 . S
N971 C969 1.384 . S
H972 C978 0.930 . S
H973 C982 0.930 . S
H974 C987 0.929 . S
H975 C985 0.929 . S
H976 C980 0.929 . S
H977 C986 0.929 . S
C978 H972 0.930 . S
C978 C979 1.367 . S
C978 C986 1.378 . S
C979 C978 1.367 . S
C979 C987 1.433 . S
C980 H976 0.929 . S
C980 C982 1.378 . S
C980 C984 1.350 . S
C981 C984 1.463 . S
C981 C986 1.350 . S
C981 N989 1.427 . S
C982 H973 0.930 . S
C982 C980 1.378 . S
C982 C983 1.367 . S
C983 C982 1.367 . S
C983 C985 1.433 . S
C984 C980 1.350 . S
C984 C981 1.463 . S
C984 N988 1.427 . S
C985 H975 0.929 . S
C985 C983 1.433 . S
C985 N988 1.384 . S
C986 H977 0.929 . S
C986 C978 1.378 . S
C986 C981 1.350 . S
C987 H974 0.929 . S
C987 C979 1.433 . S
C987 N989 1.384 . S
N988 C984 1.427 . S
N988 C985 1.384 . S
N989 C981 1.427 . S
N989 C987 1.384 . S
H990 C996 0.930 . S
H991 C1000 0.930 . S
H992 C1005 0.929 . S
H993 C1003 0.929 . S
H994 C998 0.929 . S
H995 C1004 0.929 . S
C996 H990 0.930 . S
C996 C997 1.367 . S
C996 C1004 1.378 . S
C997 C996 1.367 . S
C997 C1005 1.433 . S
C998 H994 0.929 . S
C998 C1000 1.378 . S
C998 C1002 1.350 . S
C999 C1002 1.463 . S
C999 C1004 1.350 . S
C999 N1007 1.427 . S
C1000 H991 0.930 . S
C1000 C998 1.378 . S
C1000 C1001 1.367 . S
C1001 C1000 1.367 . S
C1001 C1003 1.433 . S
C1002 C998 1.350 . S
C1002 C999 1.463 . S
C1002 N1006 1.427 . S
C1003 H993 0.929 . S
C1003 C1001 1.433 . S
C1003 N1006 1.384 . S
C1004 H995 0.929 . S
C1004 C996 1.378 . S
C1004 C999 1.350 . S
C1005 H992 0.929 . S
C1005 C997 1.433 . S
C1005 N1007 1.384 . S
N1006 C1002 1.427 . S
N1006 C1003 1.384 . S
N1007 C999 1.427 . S
N1007 C1005 1.384 . S
H1008 C1014 0.930 . S
H1009 C1018 0.930 . S
H1010 C1023 0.929 . S
H1011 C1021 0.929 . S
H1012 C1016 0.929 . S
H1013 C1022 0.929 . S
C1014 H1008 0.930 . S
C1014 C1015 1.367 . S
C1014 C1022 1.378 . S
C1015 C1014 1.367 . S
C1015 C1023 1.433 . S
C1016 H1012 0.929 . S
C1016 C1018 1.378 . S
C1016 C1020 1.350 . S
C1017 C1020 1.463 . S
C1017 C1022 1.350 . S
C1017 N1025 1.427 . S
C1018 H1009 0.930 . S
C1018 C1016 1.378 . S
C1018 C1019 1.367 . S
C1019 C1018 1.367 . S
C1019 C1021 1.433 . S
C1020 C1016 1.350 . S
C1020 C1017 1.463 . S
C1020 N1024 1.427 . S
C1021 H1011 0.929 . S
C1021 C1019 1.433 . S
C1021 N1024 1.384 . S
C1022 H1013 0.929 . S
C1022 C1014 1.378 . S
C1022 C1017 1.350 . S
C1023 H1010 0.929 . S
C1023 C1015 1.433 . S
C1023 N1025 1.384 . S
N1024 C1020 1.427 . S
N1024 C1021 1.384 . S
N1025 C1017 1.427 . S
N1025 C1023 1.384 . S
H1026 C1032 0.930 . S
H1027 C1036 0.930 . S
H1028 C1041 0.929 . S
H1029 C1039 0.929 . S
H1030 C1034 0.929 . S
H1031 C1040 0.929 . S
C1032 H1026 0.930 . S
C1032 C1033 1.367 . S
C1032 C1040 1.378 . S
C1033 C1032 1.367 . S
C1033 C1041 1.433 . S
C1034 H1030 0.929 . S
C1034 C1036 1.378 . S
C1034 C1038 1.350 . S
C1035 C1038 1.463 . S
C1035 C1040 1.350 . S
C1035 N1043 1.427 . S
C1036 H1027 0.930 . S
C1036 C1034 1.378 . S
C1036 C1037 1.367 . S
C1037 C1036 1.367 . S
C1037 C1039 1.433 . S
C1038 C1034 1.350 . S
C1038 C1035 1.463 . S
C1038 N1042 1.427 . S
C1039 H1029 0.929 . S
C1039 C1037 1.433 . S
C1039 N1042 1.384 . S
C1040 H1031 0.929 . S
C1040 C1032 1.378 . S
C1040 C1035 1.350 . S
C1041 H1028 0.929 . S
C1041 C1033 1.433 . S
C1041 N1043 1.384 . S
N1042 C1038 1.427 . S
N1042 C1039 1.384 . S
N1043 C1035 1.427 . S
N1043 C1041 1.384 . S
H1044 C1050 0.930 . S
H1045 C1054 0.930 . S
H1046 C1059 0.929 . S
H1047 C1057 0.929 . S
H1048 C1052 0.929 . S
H1049 C1058 0.929 . S
C1050 H1044 0.930 . S
C1050 C1051 1.367 . S
C1050 C1058 1.378 . S
C1051 C1050 1.367 . S
C1051 C1059 1.433 . S
C1052 H1048 0.929 . S
C1052 C1054 1.378 . S
C1052 C1056 1.350 . S
C1053 C1056 1.463 . S
C1053 C1058 1.350 . S
C1053 N1061 1.427 . S
C1054 H1045 0.930 . S
C1054 C1052 1.378 . S
C1054 C1055 1.367 . S
C1055 C1054 1.367 . S
C1055 C1057 1.433 . S
C1056 C1052 1.350 . S
C1056 C1053 1.463 . S
C1056 N1060 1.427 . S
C1057 H1047 0.929 . S
C1057 C1055 1.433 . S
C1057 N1060 1.384 . S
C1058 H1049 0.929 . S
C1058 C1050 1.378 . S
C1058 C1053 1.350 . S
C1059 H1046 0.929 . S
C1059 C1051 1.433 . S
C1059 N1061 1.384 . S
N1060 C1056 1.427 . S
N1060 C1057 1.384 . S
N1061 C1053 1.427 . S
N1061 C1059 1.384 . S
H1062 C1068 0.930 . S
H1063 C1072 0.930 . S
H1064 C1077 0.929 . S
H1065 C1075 0.929 . S
H1066 C1070 0.929 . S
H1067 C1076 0.929 . S
C1068 H1062 0.930 . S
C1068 C1069 1.367 . S
C1068 C1076 1.378 . S
C1069 C1068 1.367 . S
C1069 C1077 1.433 . S
C1070 H1066 0.929 . S
C1070 C1072 1.378 . S
C1070 C1074 1.350 . S
C1071 C1074 1.463 . S
C1071 C1076 1.350 . S
C1071 N1079 1.427 . S
C1072 H1063 0.930 . S
C1072 C1070 1.378 . S
C1072 C1073 1.367 . S
C1073 C1072 1.367 . S
C1073 C1075 1.433 . S
C1074 C1070 1.350 . S
C1074 C1071 1.463 . S
C1074 N1078 1.427 . S
C1075 H1065 0.929 . S
C1075 C1073 1.433 . S
C1075 N1078 1.384 . S
C1076 H1067 0.929 . S
C1076 C1068 1.378 . S
C1076 C1071 1.350 . S
C1077 H1064 0.929 . S
C1077 C1069 1.433 . S
C1077 N1079 1.384 . S
N1078 C1074 1.427 . S
N1078 C1075 1.384 . S
N1079 C1071 1.427 . S
N1079 C1077 1.384 . S
H1080 C1086 0.930 . S
H1081 C1090 0.930 . S
H1082 C1095 0.929 . S
H1083 C1093 0.929 . S
H1084 C1088 0.929 . S
H1085 C1094 0.929 . S
C1086 H1080 0.930 . S
C1086 C1087 1.367 . S
C1086 C1094 1.378 . S
C1087 C1086 1.367 . S
C1087 C1095 1.433 1_455 S
C1088 H1084 0.929 . S
C1088 C1090 1.378 . S
C1088 C1092 1.350 1_655 S
C1089 C1092 1.463 . S
C1089 C1094 1.350 . S
C1089 N1097 1.427 1_455 S
C1090 H1081 0.930 . S
C1090 C1088 1.378 . S
C1090 C1091 1.367 1_655 S
C1091 C1090 1.367 1_455 S
C1091 C1093 1.433 . S
C1092 C1088 1.350 1_455 S
C1092 C1089 1.463 . S
C1092 N1096 1.427 . S
C1093 H1083 0.929 . S
C1093 C1091 1.433 . S
C1093 N1096 1.384 . S
C1094 H1085 0.929 . S
C1094 C1086 1.378 . S
C1094 C1089 1.350 . S
C1095 H1082 0.929 . S
C1095 C1087 1.433 1_655 S
C1095 N1097 1.384 . S
N1096 C1092 1.427 . S
N1096 C1093 1.384 . S
N1097 C1089 1.427 1_655 S
N1097 C1095 1.384 . S
H1098 C1104 0.930 . S
H1099 C1108 0.930 . S
H1100 C1113 0.929 . S
H1101 C1111 0.929 . S
H1102 C1106 0.929 . S
H1103 C1112 0.929 . S
C1104 H1098 0.930 . S
C1104 C1105 1.367 . S
C1104 C1112 1.378 . S
C1105 C1104 1.367 . S
C1105 C1113 1.433 . S
C1106 H1102 0.929 . S
C1106 C1108 1.378 . S
C1106 C1110 1.350 . S
C1107 C1110 1.463 . S
C1107 C1112 1.350 . S
C1107 N1115 1.427 . S
C1108 H1099 0.930 . S
C1108 C1106 1.378 . S
C1108 C1109 1.367 . S
C1109 C1108 1.367 . S
C1109 C1111 1.433 . S
C1110 C1106 1.350 . S
C1110 C1107 1.463 . S
C1110 N1114 1.427 . S
C1111 H1101 0.929 . S
C1111 C1109 1.433 . S
C1111 N1114 1.384 . S
C1112 H1103 0.929 . S
C1112 C1104 1.378 . S
C1112 C1107 1.350 . S
C1113 H1100 0.929 . S
C1113 C1105 1.433 . S
C1113 N1115 1.384 . S
N1114 C1110 1.427 . S
N1114 C1111 1.384 . S
N1115 C1107 1.427 . S
N1115 C1113 1.384 . S
H1116 C1122 0.930 . S
H1117 C1126 0.930 . S
H1118 C1131 0.929 . S
H1119 C1129 0.929 . S
H1120 C1124 0.929 . S
H1121 C1130 0.929 . S
C1122 H1116 0.930 . S
C1122 C1123 1.367 . S
C1122 C1130 1.378 . S
C1123 C1122 1.367 . S
C1123 C1131 1.433 . S
C1124 H1120 0.929 . S
C1124 C1126 1.378 . S
C1124 C1128 1.350 . S
C1125 C1128 1.463 . S
C1125 C1130 1.350 . S
C1125 N1133 1.427 . S
C1126 H1117 0.930 . S
C1126 C1124 1.378 . S
C1126 C1127 1.367 . S
C1127 C1126 1.367 . S
C1127 C1129 1.433 . S
C1128 C1124 1.350 . S
C1128 C1125 1.463 . S
C1128 N1132 1.427 . S
C1129 H1119 0.929 . S
C1129 C1127 1.433 . S
C1129 N1132 1.384 . S
C1130 H1121 0.929 . S
C1130 C1122 1.378 . S
C1130 C1125 1.350 . S
C1131 H1118 0.929 . S
C1131 C1123 1.433 . S
C1131 N1133 1.384 . S
N1132 C1128 1.427 . S
N1132 C1129 1.384 . S
N1133 C1125 1.427 . S
N1133 C1131 1.384 . S
H1134 C1140 0.930 . S
H1135 C1144 0.930 . S
H1136 C1149 0.929 . S
H1137 C1147 0.929 . S
H1138 C1142 0.929 . S
H1139 C1148 0.929 . S
C1140 H1134 0.930 . S
C1140 C1141 1.367 . S
C1140 C1148 1.378 . S
C1141 C1140 1.367 . S
C1141 C1149 1.433 . S
C1142 H1138 0.929 . S
C1142 C1144 1.378 . S
C1142 C1146 1.350 . S
C1143 C1146 1.463 . S
C1143 C1148 1.350 . S
C1143 N1151 1.427 . S
C1144 H1135 0.930 . S
C1144 C1142 1.378 . S
C1144 C1145 1.367 . S
C1145 C1144 1.367 . S
C1145 C1147 1.433 . S
C1146 C1142 1.350 . S
C1146 C1143 1.463 . S
C1146 N1150 1.427 . S
C1147 H1137 0.929 . S
C1147 C1145 1.433 . S
C1147 N1150 1.384 . S
C1148 H1139 0.929 . S
C1148 C1140 1.378 . S
C1148 C1143 1.350 . S
C1149 H1136 0.929 . S
C1149 C1141 1.433 . S
C1149 N1151 1.384 . S
N1150 C1146 1.427 . S
N1150 C1147 1.384 . S
N1151 C1143 1.427 . S
N1151 C1149 1.384 . S
H1152 C1158 0.930 . S
H1153 C1162 0.930 . S
H1154 C1167 0.929 . S
H1155 C1165 0.929 . S
H1156 C1160 0.929 . S
H1157 C1166 0.929 . S
C1158 H1152 0.930 . S
C1158 C1159 1.367 . S
C1158 C1166 1.378 . S
C1159 C1158 1.367 . S
C1159 C1167 1.433 1_455 S
C1160 H1156 0.929 . S
C1160 C1162 1.378 . S
C1160 C1164 1.350 1_655 S
C1161 C1164 1.463 . S
C1161 C1166 1.350 . S
C1161 N1169 1.427 1_455 S
C1162 H1153 0.930 . S
C1162 C1160 1.378 . S
C1162 C1163 1.367 1_655 S
C1163 C1162 1.367 1_455 S
C1163 C1165 1.433 . S
C1164 C1160 1.350 1_455 S
C1164 C1161 1.463 . S
C1164 N1168 1.427 . S
C1165 H1155 0.929 . S
C1165 C1163 1.433 . S
C1165 N1168 1.384 . S
C1166 H1157 0.929 . S
C1166 C1158 1.378 . S
C1166 C1161 1.350 . S
C1167 H1154 0.929 . S
C1167 C1159 1.433 1_655 S
C1167 N1169 1.384 . S
N1168 C1164 1.427 . S
N1168 C1165 1.384 . S
N1169 C1161 1.427 1_655 S
N1169 C1167 1.384 . S
H1170 C1176 0.930 . S
H1171 C1180 0.930 . S
H1172 C1185 0.929 . S
H1173 C1183 0.929 . S
H1174 C1178 0.929 . S
H1175 C1184 0.929 . S
C1176 H1170 0.930 . S
C1176 C1177 1.367 . S
C1176 C1184 1.378 . S
C1177 C1176 1.367 . S
C1177 C1185 1.433 . S
C1178 H1174 0.929 . S
C1178 C1180 1.378 . S
C1178 C1182 1.350 . S
C1179 C1182 1.463 . S
C1179 C1184 1.350 . S
C1179 N1187 1.427 . S
C1180 H1171 0.930 . S
C1180 C1178 1.378 . S
C1180 C1181 1.367 . S
C1181 C1180 1.367 . S
C1181 C1183 1.433 . S
C1182 C1178 1.350 . S
C1182 C1179 1.463 . S
C1182 N1186 1.427 . S
C1183 H1173 0.929 . S
C1183 C1181 1.433 . S
C1183 N1186 1.384 . S
C1184 H1175 0.929 . S
C1184 C1176 1.378 . S
C1184 C1179 1.350 . S
C1185 H1172 0.929 . S
C1185 C1177 1.433 . S
C1185 N1187 1.384 . S
N1186 C1182 1.427 . S
N1186 C1183 1.384 . S
N1187 C1179 1.427 . S
N1187 C1185 1.384 . S
H1188 C1194 0.930 . S
H1189 C1198 0.930 . S
H1190 C1203 0.929 . S
H1191 C1201 0.929 . S
H1192 C1196 0.929 . S
H1193 C1202 0.929 . S
C1194 H1188 0.930 . S
C1194 C1195 1.367 . S
C1194 C1202 1.378 . S
C1195 C1194 1.367 . S
C1195 C1203 1.433 . S
C1196 H1192 0.929 . S
C1196 C1198 1.378 . S
C1196 C1200 1.350 . S
C1197 C1200 1.463 . S
C1197 C1202 1.350 . S
C1197 N1205 1.427 . S
C1198 H1189 0.930 . S
C1198 C1196 1.378 . S
C1198 C1199 1.367 . S
C1199 C1198 1.367 . S
C1199 C1201 1.433 . S
C1200 C1196 1.350 . S
C1200 C1197 1.463 . S
C1200 N1204 1.427 . S
C1201 H1191 0.929 . S
C1201 C1199 1.433 . S
C1201 N1204 1.384 . S
C1202 H1193 0.929 . S
C1202 C1194 1.378 . S
C1202 C1197 1.350 . S
C1203 H1190 0.929 . S
C1203 C1195 1.433 . S
C1203 N1205 1.384 . S
N1204 C1200 1.427 . S
N1204 C1201 1.384 . S
N1205 C1197 1.427 . S
N1205 C1203 1.384 . S
H1206 C1212 0.930 . S
H1207 C1216 0.930 . S
H1208 C1221 0.929 . S
H1209 C1219 0.929 . S
H1210 C1214 0.929 . S
H1211 C1220 0.929 . S
C1212 H1206 0.930 . S
C1212 C1213 1.367 . S
C1212 C1220 1.378 . S
C1213 C1212 1.367 . S
C1213 C1221 1.433 . S
C1214 H1210 0.929 . S
C1214 C1216 1.378 . S
C1214 C1218 1.350 . S
C1215 C1218 1.463 . S
C1215 C1220 1.350 . S
C1215 N1223 1.427 . S
C1216 H1207 0.930 . S
C1216 C1214 1.378 . S
C1216 C1217 1.367 . S
C1217 C1216 1.367 . S
C1217 C1219 1.433 . S
C1218 C1214 1.350 . S
C1218 C1215 1.463 . S
C1218 N1222 1.427 . S
C1219 H1209 0.929 . S
C1219 C1217 1.433 . S
C1219 N1222 1.384 . S
C1220 H1211 0.929 . S
C1220 C1212 1.378 . S
C1220 C1215 1.350 . S
C1221 H1208 0.929 . S
C1221 C1213 1.433 . S
C1221 N1223 1.384 . S
N1222 C1218 1.427 . S
N1222 C1219 1.384 . S
N1223 C1215 1.427 . S
N1223 C1221 1.384 . S
H1224 C1230 0.930 . S
H1225 C1234 0.930 . S
H1226 C1239 0.929 . S
H1227 C1237 0.929 1_455 S
H1228 C1232 0.929 . S
H1229 C1238 0.929 . S
C1230 H1224 0.930 . S
C1230 C1231 1.367 . S
C1230 C1238 1.378 . S
C1231 C1230 1.367 . S
C1231 C1239 1.433 . S
C1232 H1228 0.929 . S
C1232 C1234 1.378 . S
C1232 C1236 1.350 . S
C1233 C1236 1.463 . S
C1233 C1238 1.350 . S
C1233 N1241 1.427 . S
C1234 H1225 0.930 . S
C1234 C1232 1.378 . S
C1234 C1235 1.367 . S
C1235 C1234 1.367 . S
C1235 C1237 1.433 . S
C1236 C1232 1.350 . S
C1236 C1233 1.463 . S
C1236 N1240 1.427 . S
C1237 H1227 0.929 1_655 S
C1237 C1235 1.433 . S
C1237 N1240 1.384 . S
C1238 H1229 0.929 . S
C1238 C1230 1.378 . S
C1238 C1233 1.350 . S
C1239 H1226 0.929 . S
C1239 C1231 1.433 . S
C1239 N1241 1.384 . S
N1240 C1236 1.427 . S
N1240 C1237 1.384 . S
N1241 C1233 1.427 . S
N1241 C1239 1.384 . S
H1242 C1248 0.930 . S
H1243 C1252 0.930 . S
H1244 C1257 0.929 . S
H1245 C1255 0.929 . S
H1246 C1250 0.929 . S
H1247 C1256 0.929 . S
C1248 H1242 0.930 . S
C1248 C1249 1.367 . S
C1248 C1256 1.378 . S
C1249 C1248 1.367 . S
C1249 C1257 1.433 . S
C1250 H1246 0.929 . S
C1250 C1252 1.378 . S
C1250 C1254 1.350 . S
C1251 C1254 1.463 . S
C1251 C1256 1.350 . S
C1251 N1259 1.427 . S
C1252 H1243 0.930 . S
C1252 C1250 1.378 . S
C1252 C1253 1.367 . S
C1253 C1252 1.367 . S
C1253 C1255 1.433 . S
C1254 C1250 1.350 . S
C1254 C1251 1.463 . S
C1254 N1258 1.427 . S
C1255 H1245 0.929 . S
C1255 C1253 1.433 . S
C1255 N1258 1.384 . S
C1256 H1247 0.929 . S
C1256 C1248 1.378 . S
C1256 C1251 1.350 . S
C1257 H1244 0.929 . S
C1257 C1249 1.433 . S
C1257 N1259 1.384 . S
N1258 C1254 1.427 . S
N1258 C1255 1.384 . S
N1259 C1251 1.427 . S
N1259 C1257 1.384 . S
H1260 C1266 0.930 . S
H1261 C1270 0.930 . S
H1262 C1275 0.929 . S
H1263 C1273 0.929 . S
H1264 C1268 0.929 . S
H1265 C1274 0.929 . S
C1266 H1260 0.930 . S
C1266 C1267 1.367 1_565 S
C1266 C1274 1.378 . S
C1267 C1266 1.367 1_545 S
C1267 C1275 1.433 . S
C1268 H1264 0.929 . S
C1268 C1270 1.378 . S
C1268 C1272 1.340 1_545 S
C1269 C1272 1.463 . S
C1269 C1274 1.354 . S
C1269 N1277 1.423 1_565 S
C1270 H1261 0.930 . S
C1270 C1268 1.378 . S
C1270 C1271 1.367 1_545 S
C1271 C1270 1.367 1_565 S
C1271 C1273 1.433 . S
C1272 C1268 1.340 1_565 S
C1272 C1269 1.463 . S
C1272 N1276 1.438 . S
C1273 H1263 0.929 . S
C1273 C1271 1.433 . S
C1273 N1276 1.384 . S
C1274 H1265 0.929 . S
C1274 C1266 1.378 . S
C1274 C1269 1.354 . S
C1275 H1262 0.929 . S
C1275 C1267 1.433 . S
C1275 N1277 1.384 . S
N1276 C1272 1.438 . S
N1276 C1273 1.384 . S
N1277 C1269 1.423 1_545 S
N1277 C1275 1.384 . S
H1278 C1284 0.930 . S
H1279 C1288 0.930 . S
H1280 C1293 0.929 . S
H1281 C1291 0.929 . S
H1282 C1286 0.929 . S
H1283 C1292 0.929 . S
C1284 H1278 0.930 . S
C1284 C1285 1.367 . S
C1284 C1292 1.378 . S
C1285 C1284 1.367 . S
C1285 C1293 1.433 . S
C1286 H1282 0.929 . S
C1286 C1288 1.378 . S
C1286 C1290 1.350 . S
C1287 C1290 1.463 . S
C1287 C1292 1.350 . S
C1287 N1295 1.427 . S
C1288 H1279 0.930 . S
C1288 C1286 1.378 . S
C1288 C1289 1.367 . S
C1289 C1288 1.367 . S
C1289 C1291 1.433 . S
C1290 C1286 1.350 . S
C1290 C1287 1.463 . S
C1290 N1294 1.427 . S
C1291 H1281 0.929 . S
C1291 C1289 1.433 . S
C1291 N1294 1.384 . S
C1292 H1283 0.929 . S
C1292 C1284 1.378 . S
C1292 C1287 1.350 . S
C1293 H1280 0.929 . S
C1293 C1285 1.433 . S
C1293 N1295 1.384 . S
N1294 C1290 1.427 . S
N1294 C1291 1.384 . S
N1295 C1287 1.427 . S
N1295 C1293 1.384 . S
H1296 C1302 0.930 . S
H1297 C1306 0.930 . S
H1298 C1311 0.929 . S
H1299 C1309 0.929 . S
H1300 C1304 0.929 . S
H1301 C1310 0.929 . S
C1302 H1296 0.930 . S
C1302 C1303 1.337 1_545 S
C1302 C1310 1.378 . S
C1303 C1302 1.337 1_565 S
C1303 C1311 1.467 . S
C1304 H1300 0.929 . S
C1304 C1306 1.378 . S
C1304 C1308 1.350 . S
C1305 C1308 1.463 . S
C1305 C1310 1.350 1_565 S
C1305 N1313 1.427 . S
C1306 H1297 0.930 . S
C1306 C1304 1.378 . S
C1306 C1307 1.367 . S
C1307 C1306 1.367 . S
C1307 C1309 1.433 1_565 S
C1308 C1304 1.350 . S
C1308 C1305 1.463 . S
C1308 N1312 1.427 1_565 S
C1309 H1299 0.929 . S
C1309 C1307 1.433 1_545 S
C1309 N1312 1.384 . S
C1310 H1301 0.929 . S
C1310 C1302 1.378 . S
C1310 C1305 1.350 1_545 S
C1311 H1298 0.929 . S
C1311 C1303 1.467 . S
C1311 N1313 1.384 . S
N1312 C1308 1.427 1_545 S
N1312 C1309 1.384 . S
N1313 C1305 1.427 . S
N1313 C1311 1.384 . S
H1314 C1320 0.930 . S
H1315 C1324 0.930 . S
H1316 C1329 0.929 . S
H1317 C1327 0.929 . S
H1318 C1322 0.929 . S
H1319 C1328 0.929 . S
C1320 H1314 0.930 . S
C1320 C1321 1.367 . S
C1320 C1328 1.378 . S
C1321 C1320 1.367 . S
C1321 C1329 1.433 . S
C1322 H1318 0.929 . S
C1322 C1324 1.378 . S
C1322 C1326 1.350 . S
C1323 C1326 1.463 . S
C1323 C1328 1.350 . S
C1323 N1331 1.427 . S
C1324 H1315 0.930 . S
C1324 C1322 1.378 . S
C1324 C1325 1.367 . S
C1325 C1324 1.367 . S
C1325 C1327 1.433 . S
C1326 C1322 1.350 . S
C1326 C1323 1.463 . S
C1326 N1330 1.427 . S
C1327 H1317 0.929 . S
C1327 C1325 1.433 . S
C1327 N1330 1.384 . S
C1328 H1319 0.929 . S
C1328 C1320 1.378 . S
C1328 C1323 1.350 . S
C1329 H1316 0.929 . S
C1329 C1321 1.433 . S
C1329 N1331 1.384 . S
N1330 C1326 1.427 . S
N1330 C1327 1.384 . S
N1331 C1323 1.427 . S
N1331 C1329 1.384 . S
H1332 C1338 0.930 . S
H1333 C1342 0.930 . S
H1334 C1347 0.929 . S
H1335 C1345 0.929 . S
H1336 C1340 0.929 . S
H1337 C1346 0.929 . S
C1338 H1332 0.930 . S
C1338 C1339 1.367 1_565 S
C1338 C1346 1.378 . S
C1339 C1338 1.367 1_545 S
C1339 C1347 1.433 . S
C1340 H1336 0.929 . S
C1340 C1342 1.378 . S
C1340 C1344 1.350 . S
C1341 C1344 1.463 . S
C1341 C1346 1.350 1_545 S
C1341 N1349 1.427 . S
C1342 H1333 0.930 . S
C1342 C1340 1.378 . S
C1342 C1343 1.367 . S
C1343 C1342 1.367 . S
C1343 C1345 1.433 1_545 S
C1344 C1340 1.350 . S
C1344 C1341 1.463 . S
C1344 N1348 1.427 1_545 S
C1345 H1335 0.929 . S
C1345 C1343 1.433 1_565 S
C1345 N1348 1.384 . S
C1346 H1337 0.929 . S
C1346 C1338 1.378 . S
C1346 C1341 1.350 1_565 S
C1347 H1334 0.929 . S
C1347 C1339 1.433 . S
C1347 N1349 1.384 . S
N1348 C1344 1.427 1_565 S
N1348 C1345 1.384 . S
N1349 C1341 1.427 . S
N1349 C1347 1.384 . S
H1350 C1356 0.930 . S
H1351 C1360 0.930 . S
H1352 C1365 0.929 . S
H1353 C1363 0.929 . S
H1354 C1358 0.929 . S
H1355 C1364 0.929 . S
C1356 H1350 0.930 . S
C1356 C1357 1.367 . S
C1356 C1364 1.378 . S
C1357 C1356 1.367 . S
C1357 C1365 1.433 . S
C1358 H1354 0.929 . S
C1358 C1360 1.378 . S
C1358 C1362 1.350 . S
C1359 C1362 1.463 . S
C1359 C1364 1.350 . S
C1359 N1367 1.427 . S
C1360 H1351 0.930 . S
C1360 C1358 1.378 . S
C1360 C1361 1.367 . S
C1361 C1360 1.367 . S
C1361 C1363 1.433 . S
C1362 C1358 1.350 . S
C1362 C1359 1.463 . S
C1362 N1366 1.427 . S
C1363 H1353 0.929 . S
C1363 C1361 1.433 . S
C1363 N1366 1.384 . S
C1364 H1355 0.929 . S
C1364 C1356 1.378 . S
C1364 C1359 1.350 . S
C1365 H1352 0.929 . S
C1365 C1357 1.433 . S
C1365 N1367 1.384 . S
N1366 C1362 1.427 . S
N1366 C1363 1.384 . S
N1367 C1359 1.427 . S
N1367 C1365 1.384 . S
H1368 C1374 0.930 . S
H1369 C1378 0.930 . S
H1370 C1383 0.929 . S
H1371 C1381 0.929 . S
H1372 C1376 0.929 . S
H1373 C1382 0.929 . S
C1374 H1368 0.930 . S
C1374 C1375 1.367 . S
C1374 C1382 1.378 . S
C1375 C1374 1.367 . S
C1375 C1383 1.433 1_554 S
C1376 H1372 0.929 . S
C1376 C1378 1.378 . S
C1376 C1380 1.350 1_556 S
C1377 C1380 1.463 . S
C1377 C1382 1.350 . S
C1377 N1385 1.427 1_554 S
C1378 H1369 0.930 . S
C1378 C1376 1.378 . S
C1378 C1379 1.367 1_556 S
C1379 C1378 1.367 1_554 S
C1379 C1381 1.433 . S
C1380 C1376 1.350 1_554 S
C1380 C1377 1.463 . S
C1380 N1384 1.427 . S
C1381 H1371 0.929 . S
C1381 C1379 1.433 . S
C1381 N1384 1.384 . S
C1382 H1373 0.929 . S
C1382 C1374 1.378 . S
C1382 C1377 1.350 . S
C1383 H1370 0.929 . S
C1383 C1375 1.433 1_556 S
C1383 N1385 1.384 . S
N1384 C1380 1.427 . S
N1384 C1381 1.384 . S
N1385 C1377 1.427 1_556 S
N1385 C1383 1.384 . S
H1386 C1392 0.930 . S
H1387 C1396 0.930 . S
H1388 C1401 0.929 . S
H1389 C1399 0.929 . S
H1390 C1394 0.929 . S
H1391 C1400 0.929 . S
C1392 H1386 0.930 . S
C1392 C1393 1.367 1_554 S
C1392 C1400 1.378 . S
C1393 C1392 1.367 1_556 S
C1393 C1401 1.433 . S
C1394 H1390 0.929 . S
C1394 C1396 1.378 . S
C1394 C1398 1.350 . S
C1395 C1398 1.463 . S
C1395 C1400 1.350 1_556 S
C1395 N1403 1.427 . S
C1396 H1387 0.930 . S
C1396 C1394 1.378 . S
C1396 C1397 1.367 . S
C1397 C1396 1.367 . S
C1397 C1399 1.433 1_556 S
C1398 C1394 1.350 . S
C1398 C1395 1.463 . S
C1398 N1402 1.427 1_556 S
C1399 H1389 0.929 . S
C1399 C1397 1.433 1_554 S
C1399 N1402 1.384 . S
C1400 H1391 0.929 . S
C1400 C1392 1.378 . S
C1400 C1395 1.350 1_554 S
C1401 H1388 0.929 . S
C1401 C1393 1.433 . S
C1401 N1403 1.384 . S
N1402 C1398 1.427 1_554 S
N1402 C1399 1.384 . S
N1403 C1395 1.427 . S
N1403 C1401 1.384 . S
H1404 C1410 0.930 . S
H1405 C1414 0.930 . S
H1406 C1419 0.929 . S
H1407 C1417 0.929 . S
H1408 C1412 0.929 . S
H1409 C1418 0.929 . S
C1410 H1404 0.930 . S
C1410 C1411 1.367 . S
C1410 C1418 1.378 . S
C1411 C1410 1.367 . S
C1411 C1419 1.433 . S
C1412 H1408 0.929 . S
C1412 C1414 1.378 . S
C1412 C1416 1.350 . S
C1413 C1416 1.463 . S
C1413 C1418 1.350 . S
C1413 N1421 1.427 . S
C1414 H1405 0.930 . S
C1414 C1412 1.378 . S
C1414 C1415 1.367 . S
C1415 C1414 1.367 . S
C1415 C1417 1.433 . S
C1416 C1412 1.350 . S
C1416 C1413 1.463 . S
C1416 N1420 1.427 . S
C1417 H1407 0.929 . S
C1417 C1415 1.433 . S
C1417 N1420 1.384 . S
C1418 H1409 0.929 . S
C1418 C1410 1.378 . S
C1418 C1413 1.350 . S
C1419 H1406 0.929 . S
C1419 C1411 1.433 . S
C1419 N1421 1.384 . S
N1420 C1416 1.427 . S
N1420 C1417 1.384 . S
N1421 C1413 1.427 . S
N1421 C1419 1.384 . S
H1422 C1428 0.930 . S
H1423 C1432 0.930 . S
H1424 C1437 0.929 . S
H1425 C1435 0.929 . S
H1426 C1430 0.929 . S
H1427 C1436 0.929 . S
C1428 H1422 0.930 . S
C1428 C1429 1.367 . S
C1428 C1436 1.378 . S
C1429 C1428 1.367 . S
C1429 C1437 1.433 . S
C1430 H1426 0.929 . S
C1430 C1432 1.378 . S
C1430 C1434 1.350 . S
C1431 C1434 1.463 . S
C1431 C1436 1.350 . S
C1431 N1439 1.427 . S
C1432 H1423 0.930 . S
C1432 C1430 1.378 . S
C1432 C1433 1.367 . S
C1433 C1432 1.367 . S
C1433 C1435 1.433 . S
C1434 C1430 1.350 . S
C1434 C1431 1.463 . S
C1434 N1438 1.427 . S
C1435 H1425 0.929 . S
C1435 C1433 1.433 . S
C1435 N1438 1.384 . S
C1436 H1427 0.929 . S
C1436 C1428 1.378 . S
C1436 C1431 1.350 . S
C1437 H1424 0.929 . S
C1437 C1429 1.433 . S
C1437 N1439 1.384 . S
N1438 C1434 1.427 . S
N1438 C1435 1.384 . S
N1439 C1431 1.427 . S
N1439 C1437 1.384 . S
H1440 C1446 0.930 . S
H1441 C1450 0.930 . S
H1442 C1455 0.929 . S
H1443 C1453 0.929 . S
H1444 C1448 0.929 . S
H1445 C1454 0.929 . S
C1446 H1440 0.930 . S
C1446 C1447 1.367 . S
C1446 C1454 1.378 . S
C1447 C1446 1.367 . S
C1447 C1455 1.433 . S
C1448 H1444 0.929 . S
C1448 C1450 1.378 . S
C1448 C1452 1.350 . S
C1449 C1452 1.463 . S
C1449 C1454 1.350 . S
C1449 N1457 1.427 . S
C1450 H1441 0.930 . S
C1450 C1448 1.378 . S
C1450 C1451 1.367 . S
C1451 C1450 1.367 . S
C1451 C1453 1.433 . S
C1452 C1448 1.350 . S
C1452 C1449 1.463 . S
C1452 N1456 1.427 . S
C1453 H1443 0.929 . S
C1453 C1451 1.433 . S
C1453 N1456 1.384 . S
C1454 H1445 0.929 . S
C1454 C1446 1.378 . S
C1454 C1449 1.350 . S
C1455 H1442 0.929 . S
C1455 C1447 1.433 . S
C1455 N1457 1.384 . S
N1456 C1452 1.427 . S
N1456 C1453 1.384 . S
N1457 C1449 1.427 . S
N1457 C1455 1.384 . S
H1458 C1464 0.930 . S
H1459 C1468 0.930 . S
H1460 C1473 0.929 . S
H1461 C1471 0.929 . S
H1462 C1466 0.929 . S
H1463 C1472 0.929 . S
C1464 H1458 0.930 . S
C1464 C1465 1.367 . S
C1464 C1472 1.378 . S
C1465 C1464 1.367 . S
C1465 C1473 1.433 . S
C1466 H1462 0.929 . S
C1466 C1468 1.378 . S
C1466 C1470 1.350 . S
C1467 C1470 1.463 . S
C1467 C1472 1.350 . S
C1467 N1475 1.427 . S
C1468 H1459 0.930 . S
C1468 C1466 1.378 . S
C1468 C1469 1.367 . S
C1469 C1468 1.367 . S
C1469 C1471 1.433 . S
C1470 C1466 1.350 . S
C1470 C1467 1.463 . S
C1470 N1474 1.427 . S
C1471 H1461 0.929 . S
C1471 C1469 1.433 . S
C1471 N1474 1.384 . S
C1472 H1463 0.929 . S
C1472 C1464 1.378 . S
C1472 C1467 1.350 . S
C1473 H1460 0.929 . S
C1473 C1465 1.433 . S
C1473 N1475 1.384 . S
N1474 C1470 1.427 . S
N1474 C1471 1.384 . S
N1475 C1467 1.427 . S
N1475 C1473 1.384 . S
H1476 C1482 0.930 . S
H1477 C1486 0.930 . S
H1478 C1491 0.929 . S
H1479 C1489 0.929 . S
H1480 C1484 0.929 . S
H1481 C1490 0.929 . S
C1482 H1476 0.930 . S
C1482 C1483 1.367 . S
C1482 C1490 1.378 . S
C1483 C1482 1.367 . S
C1483 C1491 1.433 . S
C1484 H1480 0.929 . S
C1484 C1486 1.378 . S
C1484 C1488 1.350 . S
C1485 C1488 1.463 . S
C1485 C1490 1.350 . S
C1485 N1493 1.427 . S
C1486 H1477 0.930 . S
C1486 C1484 1.378 . S
C1486 C1487 1.367 . S
C1487 C1486 1.367 . S
C1487 C1489 1.433 . S
C1488 C1484 1.350 . S
C1488 C1485 1.463 . S
C1488 N1492 1.427 . S
C1489 H1479 0.929 . S
C1489 C1487 1.433 . S
C1489 N1492 1.384 . S
C1490 H1481 0.929 . S
C1490 C1482 1.378 . S
C1490 C1485 1.350 . S
C1491 H1478 0.929 . S
C1491 C1483 1.433 . S
C1491 N1493 1.384 . S
N1492 C1488 1.427 . S
N1492 C1489 1.384 . S
N1493 C1485 1.427 . S
N1493 C1491 1.384 . S
H1494 C1500 0.930 . S
H1495 C1504 0.930 . S
H1496 C1509 0.929 . S
H1497 C1507 0.929 . S
H1498 C1502 0.929 . S
H1499 C1508 0.929 . S
C1500 H1494 0.930 . S
C1500 C1501 1.367 . S
C1500 C1508 1.378 . S
C1501 C1500 1.367 . S
C1501 C1509 1.433 . S
C1502 H1498 0.929 . S
C1502 C1504 1.378 . S
C1502 C1506 1.350 . S
C1503 C1506 1.463 . S
C1503 C1508 1.350 . S
C1503 N1511 1.427 . S
C1504 H1495 0.930 . S
C1504 C1502 1.378 . S
C1504 C1505 1.367 . S
C1505 C1504 1.367 . S
C1505 C1507 1.433 . S
C1506 C1502 1.350 . S
C1506 C1503 1.463 . S
C1506 N1510 1.427 . S
C1507 H1497 0.929 . S
C1507 C1505 1.433 . S
C1507 N1510 1.384 . S
C1508 H1499 0.929 . S
C1508 C1500 1.378 . S
C1508 C1503 1.350 . S
C1509 H1496 0.929 . S
C1509 C1501 1.433 . S
C1509 N1511 1.384 . S
N1510 C1506 1.427 . S
N1510 C1507 1.384 . S
N1511 C1503 1.427 . S
N1511 C1509 1.384 . S
H1512 C1518 0.930 . S
H1513 C1522 0.930 . S
H1514 C1527 0.929 . S
H1515 C1525 0.929 . S
H1516 C1520 0.929 . S
H1517 C1526 0.929 . S
C1518 H1512 0.930 . S
C1518 C1519 1.367 . S
C1518 C1526 1.378 . S
C1519 C1518 1.367 . S
C1519 C1527 1.433 . S
C1520 H1516 0.929 . S
C1520 C1522 1.378 . S
C1520 C1524 1.350 . S
C1521 C1524 1.463 . S
C1521 C1526 1.350 . S
C1521 N1529 1.427 . S
C1522 H1513 0.930 . S
C1522 C1520 1.378 . S
C1522 C1523 1.367 . S
C1523 C1522 1.367 . S
C1523 C1525 1.433 . S
C1524 C1520 1.350 . S
C1524 C1521 1.463 . S
C1524 N1528 1.427 . S
C1525 H1515 0.929 . S
C1525 C1523 1.433 . S
C1525 N1528 1.384 . S
C1526 H1517 0.929 . S
C1526 C1518 1.378 . S
C1526 C1521 1.350 . S
C1527 H1514 0.929 . S
C1527 C1519 1.433 . S
C1527 N1529 1.384 . S
N1528 C1524 1.427 . S
N1528 C1525 1.384 . S
N1529 C1521 1.427 . S
N1529 C1527 1.384 . S
H1530 C1536 0.930 . S
H1531 C1540 0.930 . S
H1532 C1545 0.929 . S
H1533 C1543 0.929 . S
H1534 C1538 0.929 . S
H1535 C1544 0.929 . S
C1536 H1530 0.930 . S
C1536 C1537 1.367 . S
C1536 C1544 1.378 . S
C1537 C1536 1.367 . S
C1537 C1545 1.433 . S
C1538 H1534 0.929 . S
C1538 C1540 1.378 . S
C1538 C1542 1.350 . S
C1539 C1542 1.463 . S
C1539 C1544 1.350 . S
C1539 N1547 1.427 . S
C1540 H1531 0.930 . S
C1540 C1538 1.378 . S
C1540 C1541 1.367 . S
C1541 C1540 1.367 . S
C1541 C1543 1.433 . S
C1542 C1538 1.350 . S
C1542 C1539 1.463 . S
C1542 N1546 1.427 . S
C1543 H1533 0.929 . S
C1543 C1541 1.433 . S
C1543 N1546 1.384 . S
C1544 H1535 0.929 . S
C1544 C1536 1.378 . S
C1544 C1539 1.350 . S
C1545 H1532 0.929 . S
C1545 C1537 1.433 . S
C1545 N1547 1.384 . S
N1546 C1542 1.427 . S
N1546 C1543 1.384 . S
N1547 C1539 1.427 . S
N1547 C1545 1.384 . S
H1548 C1554 0.930 . S
H1549 C1558 0.930 . S
H1550 C1563 0.929 . S
H1551 C1561 0.929 . S
H1552 C1556 0.929 . S
H1553 C1562 0.929 . S
C1554 H1548 0.930 . S
C1554 C1555 1.367 . S
C1554 C1562 1.378 . S
C1555 C1554 1.367 . S
C1555 C1563 1.433 1_455 S
C1556 H1552 0.929 . S
C1556 C1558 1.378 . S
C1556 C1560 1.350 1_655 S
C1557 C1560 1.463 . S
C1557 C1562 1.350 . S
C1557 N1565 1.427 1_455 S
C1558 H1549 0.930 . S
C1558 C1556 1.378 . S
C1558 C1559 1.367 1_655 S
C1559 C1558 1.367 1_455 S
C1559 C1561 1.433 . S
C1560 C1556 1.350 1_455 S
C1560 C1557 1.463 . S
C1560 N1564 1.427 . S
C1561 H1551 0.929 . S
C1561 C1559 1.433 . S
C1561 N1564 1.384 . S
C1562 H1553 0.929 . S
C1562 C1554 1.378 . S
C1562 C1557 1.350 . S
C1563 H1550 0.929 . S
C1563 C1555 1.433 1_655 S
C1563 N1565 1.384 . S
N1564 C1560 1.427 . S
N1564 C1561 1.384 . S
N1565 C1557 1.427 1_655 S
N1565 C1563 1.384 . S
H1566 C1572 0.930 . S
H1567 C1576 0.930 . S
H1568 C1581 0.929 . S
H1569 C1579 0.929 . S
H1570 C1574 0.929 . S
H1571 C1580 0.929 . S
C1572 H1566 0.930 . S
C1572 C1573 1.367 . S
C1572 C1580 1.378 . S
C1573 C1572 1.367 . S
C1573 C1581 1.433 . S
C1574 H1570 0.929 . S
C1574 C1576 1.378 . S
C1574 C1578 1.350 . S
C1575 C1578 1.463 . S
C1575 C1580 1.350 . S
C1575 N1583 1.427 . S
C1576 H1567 0.930 . S
C1576 C1574 1.378 . S
C1576 C1577 1.367 . S
C1577 C1576 1.367 . S
C1577 C1579 1.433 . S
C1578 C1574 1.350 . S
C1578 C1575 1.463 . S
C1578 N1582 1.427 . S
C1579 H1569 0.929 . S
C1579 C1577 1.433 . S
C1579 N1582 1.384 . S
C1580 H1571 0.929 . S
C1580 C1572 1.378 . S
C1580 C1575 1.350 . S
C1581 H1568 0.929 . S
C1581 C1573 1.433 . S
C1581 N1583 1.384 . S
N1582 C1578 1.427 . S
N1582 C1579 1.384 . S
N1583 C1575 1.427 . S
N1583 C1581 1.384 . S
H1584 C1590 0.930 . S
H1585 C1594 0.930 . S
H1586 C1599 0.929 . S
H1587 C1597 0.929 . S
H1588 C1592 0.929 . S
H1589 C1598 0.929 . S
C1590 H1584 0.930 . S
C1590 C1591 1.367 . S
C1590 C1598 1.378 . S
C1591 C1590 1.367 . S
C1591 C1599 1.433 . S
C1592 H1588 0.929 . S
C1592 C1594 1.378 . S
C1592 C1596 1.350 . S
C1593 C1596 1.463 . S
C1593 C1598 1.350 . S
C1593 N1601 1.427 . S
C1594 H1585 0.930 . S
C1594 C1592 1.378 . S
C1594 C1595 1.367 . S
C1595 C1594 1.367 . S
C1595 C1597 1.433 . S
C1596 C1592 1.350 . S
C1596 C1593 1.463 . S
C1596 N1600 1.427 . S
C1597 H1587 0.929 . S
C1597 C1595 1.433 . S
C1597 N1600 1.384 . S
C1598 H1589 0.929 . S
C1598 C1590 1.378 . S
C1598 C1593 1.350 . S
C1599 H1586 0.929 . S
C1599 C1591 1.433 . S
C1599 N1601 1.384 . S
N1600 C1596 1.427 . S
N1600 C1597 1.384 . S
N1601 C1593 1.427 . S
N1601 C1599 1.384 . S
H1602 C1608 0.930 . S
H1603 C1612 0.930 . S
H1604 C1617 0.929 . S
H1605 C1615 0.929 . S
H1606 C1610 0.929 . S
H1607 C1616 0.929 . S
C1608 H1602 0.930 . S
C1608 C1609 1.367 . S
C1608 C1616 1.378 . S
C1609 C1608 1.367 . S
C1609 C1617 1.433 . S
C1610 H1606 0.929 . S
C1610 C1612 1.378 . S
C1610 C1614 1.350 . S
C1611 C1614 1.463 . S
C1611 C1616 1.350 . S
C1611 N1619 1.427 . S
C1612 H1603 0.930 . S
C1612 C1610 1.378 . S
C1612 C1613 1.367 . S
C1613 C1612 1.367 . S
C1613 C1615 1.433 . S
C1614 C1610 1.350 . S
C1614 C1611 1.463 . S
C1614 N1618 1.427 . S
C1615 H1605 0.929 . S
C1615 C1613 1.433 . S
C1615 N1618 1.384 . S
C1616 H1607 0.929 . S
C1616 C1608 1.378 . S
C1616 C1611 1.350 . S
C1617 H1604 0.929 . S
C1617 C1609 1.433 . S
C1617 N1619 1.384 . S
N1618 C1614 1.427 . S
N1618 C1615 1.384 . S
N1619 C1611 1.427 . S
N1619 C1617 1.384 . S
H1620 C1626 0.930 . S
H1621 C1630 0.930 1_655 S
H1622 C1635 0.929 . S
H1623 C1633 0.929 . S
H1624 C1628 0.918 1_655 S
H1625 C1634 0.929 . S
C1626 H1620 0.930 . S
C1626 C1627 1.367 . S
C1626 C1634 1.378 . S
C1627 C1626 1.367 . S
C1627 C1635 1.433 1_455 S
C1628 H1624 0.918 1_455 S
C1628 C1630 1.381 . S
C1628 C1632 1.358 . S
C1629 C1632 1.463 . S
C1629 C1634 1.350 . S
C1629 N1637 1.427 1_455 S
C1630 H1621 0.930 1_455 S
C1630 C1628 1.381 . S
C1630 C1631 1.367 . S
C1631 C1630 1.367 . S
C1631 C1633 1.433 . S
C1632 C1628 1.358 . S
C1632 C1629 1.463 . S
C1632 N1636 1.427 . S
C1633 H1623 0.929 . S
C1633 C1631 1.433 . S
C1633 N1636 1.384 . S
C1634 H1625 0.929 . S
C1634 C1626 1.378 . S
C1634 C1629 1.350 . S
C1635 H1622 0.929 . S
C1635 C1627 1.433 1_655 S
C1635 N1637 1.384 . S
N1636 C1632 1.427 . S
N1636 C1633 1.384 . S
N1637 C1629 1.427 1_655 S
N1637 C1635 1.384 . S
H1638 C1644 0.930 . S
H1639 C1648 0.930 . S
H1640 C1653 0.929 . S
H1641 C1651 0.929 . S
H1642 C1646 0.929 . S
H1643 C1652 0.929 . S
C1644 H1638 0.930 . S
C1644 C1645 1.367 . S
C1644 C1652 1.378 . S
C1645 C1644 1.367 . S
C1645 C1653 1.433 . S
C1646 H1642 0.929 . S
C1646 C1648 1.378 . S
C1646 C1650 1.350 . S
C1647 C1650 1.463 . S
C1647 C1652 1.350 . S
C1647 N1655 1.427 . S
C1648 H1639 0.930 . S
C1648 C1646 1.378 . S
C1648 C1649 1.367 . S
C1649 C1648 1.367 . S
C1649 C1651 1.433 . S
C1650 C1646 1.350 . S
C1650 C1647 1.463 . S
C1650 N1654 1.427 . S
C1651 H1641 0.929 . S
C1651 C1649 1.433 . S
C1651 N1654 1.384 . S
C1652 H1643 0.929 . S
C1652 C1644 1.378 . S
C1652 C1647 1.350 . S
C1653 H1640 0.929 . S
C1653 C1645 1.433 . S
C1653 N1655 1.384 . S
N1654 C1650 1.427 . S
N1654 C1651 1.384 . S
N1655 C1647 1.427 . S
N1655 C1653 1.384 . S
H1656 C1662 0.930 . S
H1657 C1666 0.930 . S
H1658 C1671 0.929 . S
H1659 C1669 0.929 . S
H1660 C1664 0.929 . S
H1661 C1670 0.929 . S
C1662 H1656 0.930 . S
C1662 C1663 1.367 . S
C1662 C1670 1.378 . S
C1663 C1662 1.367 . S
C1663 C1671 1.433 . S
C1664 H1660 0.929 . S
C1664 C1666 1.378 . S
C1664 C1668 1.350 . S
C1665 C1668 1.463 . S
C1665 C1670 1.350 . S
C1665 N1673 1.427 . S
C1666 H1657 0.930 . S
C1666 C1664 1.378 . S
C1666 C1667 1.367 . S
C1667 C1666 1.367 . S
C1667 C1669 1.433 . S
C1668 C1664 1.350 . S
C1668 C1665 1.463 . S
C1668 N1672 1.427 . S
C1669 H1659 0.929 . S
C1669 C1667 1.433 . S
C1669 N1672 1.384 . S
C1670 H1661 0.929 . S
C1670 C1662 1.378 . S
C1670 C1665 1.350 . S
C1671 H1658 0.929 . S
C1671 C1663 1.433 . S
C1671 N1673 1.384 . S
N1672 C1668 1.427 . S
N1672 C1669 1.384 . S
N1673 C1665 1.427 . S
N1673 C1671 1.384 . S
H1674 C1680 0.930 . S
H1675 C1684 0.930 . S
H1676 C1689 0.929 . S
H1677 C1687 0.929 . S
H1678 C1682 0.929 . S
H1679 C1688 0.929 . S
C1680 H1674 0.930 . S
C1680 C1681 1.367 . S
C1680 C1688 1.378 . S
C1681 C1680 1.367 . S
C1681 C1689 1.433 . S
C1682 H1678 0.929 . S
C1682 C1684 1.378 . S
C1682 C1686 1.350 . S
C1683 C1686 1.463 . S
C1683 C1688 1.350 . S
C1683 N1691 1.427 . S
C1684 H1675 0.930 . S
C1684 C1682 1.378 . S
C1684 C1685 1.367 . S
C1685 C1684 1.367 . S
C1685 C1687 1.433 . S
C1686 C1682 1.350 . S
C1686 C1683 1.463 . S
C1686 N1690 1.427 . S
C1687 H1677 0.929 . S
C1687 C1685 1.433 . S
C1687 N1690 1.384 . S
C1688 H1679 0.929 . S
C1688 C1680 1.378 . S
C1688 C1683 1.350 . S
C1689 H1676 0.929 . S
C1689 C1681 1.433 . S
C1689 N1691 1.384 . S
N1690 C1686 1.427 . S
N1690 C1687 1.384 . S
N1691 C1683 1.427 . S
N1691 C1689 1.384 . S
H1692 C1698 0.930 . S
H1693 C1702 0.930 . S
H1694 C1707 0.929 . S
H1695 C1705 0.929 . S
H1696 C1700 0.929 . S
H1697 C1706 0.929 . S
C1698 H1692 0.930 . S
C1698 C1699 1.367 . S
C1698 C1706 1.378 . S
C1699 C1698 1.367 . S
C1699 C1707 1.433 . S
C1700 H1696 0.929 . S
C1700 C1702 1.378 . S
C1700 C1704 1.350 . S
C1701 C1704 1.463 . S
C1701 C1706 1.350 . S
C1701 N1709 1.427 . S
C1702 H1693 0.930 . S
C1702 C1700 1.378 . S
C1702 C1703 1.367 . S
C1703 C1702 1.367 . S
C1703 C1705 1.433 . S
C1704 C1700 1.350 . S
C1704 C1701 1.463 . S
C1704 N1708 1.427 . S
C1705 H1695 0.929 . S
C1705 C1703 1.433 . S
C1705 N1708 1.384 . S
C1706 H1697 0.929 . S
C1706 C1698 1.378 . S
C1706 C1701 1.350 . S
C1707 H1694 0.929 . S
C1707 C1699 1.433 . S
C1707 N1709 1.384 . S
N1708 C1704 1.427 . S
N1708 C1705 1.384 . S
N1709 C1701 1.427 . S
N1709 C1707 1.384 . S
H1710 C1716 0.930 . S
H1711 C1720 0.930 . S
H1712 C1725 0.929 . S
H1713 C1723 0.929 . S
H1714 C1718 0.929 . S
H1715 C1724 0.929 . S
C1716 H1710 0.930 . S
C1716 C1717 1.367 . S
C1716 C1724 1.378 . S
C1717 C1716 1.367 . S
C1717 C1725 1.433 . S
C1718 H1714 0.929 . S
C1718 C1720 1.378 . S
C1718 C1722 1.350 . S
C1719 C1722 1.463 . S
C1719 C1724 1.350 . S
C1719 N1727 1.427 . S
C1720 H1711 0.930 . S
C1720 C1718 1.378 . S
C1720 C1721 1.367 . S
C1721 C1720 1.367 . S
C1721 C1723 1.433 . S
C1722 C1718 1.350 . S
C1722 C1719 1.463 . S
C1722 N1726 1.427 . S
C1723 H1713 0.929 . S
C1723 C1721 1.433 . S
C1723 N1726 1.384 . S
C1724 H1715 0.929 . S
C1724 C1716 1.378 . S
C1724 C1719 1.350 . S
C1725 H1712 0.929 . S
C1725 C1717 1.433 . S
C1725 N1727 1.384 . S
N1726 C1722 1.427 . S
N1726 C1723 1.384 . S
N1727 C1719 1.427 . S
N1727 C1725 1.384 . S
H1728 C1734 0.930 . S
H1729 C1738 0.930 . S
H1730 C1743 0.929 . S
H1731 C1741 0.929 . S
H1732 C1736 0.929 . S
H1733 C1742 0.929 . S
C1734 H1728 0.930 . S
C1734 C1735 1.367 . S
C1734 C1742 1.378 . S
C1735 C1734 1.367 . S
C1735 C1743 1.433 . S
C1736 H1732 0.929 . S
C1736 C1738 1.378 . S
C1736 C1740 1.350 . S
C1737 C1740 1.463 . S
C1737 C1742 1.350 . S
C1737 N1745 1.427 . S
C1738 H1729 0.930 . S
C1738 C1736 1.378 . S
C1738 C1739 1.367 . S
C1739 C1738 1.367 . S
C1739 C1741 1.433 . S
C1740 C1736 1.350 . S
C1740 C1737 1.463 . S
C1740 N1744 1.427 . S
C1741 H1731 0.929 . S
C1741 C1739 1.433 . S
C1741 N1744 1.384 . S
C1742 H1733 0.929 . S
C1742 C1734 1.378 . S
C1742 C1737 1.350 . S
C1743 H1730 0.929 . S
C1743 C1735 1.433 . S
C1743 N1745 1.384 . S
N1744 C1740 1.427 . S
N1744 C1741 1.384 . S
N1745 C1737 1.427 . S
N1745 C1743 1.384 . S
H1746 C1752 0.930 . S
H1747 C1756 0.930 . S
H1748 C1761 0.929 . S
H1749 C1759 0.929 . S
H1750 C1754 0.929 . S
H1751 C1760 0.929 . S
C1752 H1746 0.930 . S
C1752 C1753 1.367 . S
C1752 C1760 1.378 . S
C1753 C1752 1.367 . S
C1753 C1761 1.433 . S
C1754 H1750 0.929 . S
C1754 C1756 1.378 . S
C1754 C1758 1.350 . S
C1755 C1758 1.463 . S
C1755 C1760 1.350 . S
C1755 N1763 1.427 . S
C1756 H1747 0.930 . S
C1756 C1754 1.378 . S
C1756 C1757 1.367 . S
C1757 C1756 1.367 . S
C1757 C1759 1.433 . S
C1758 C1754 1.350 . S
C1758 C1755 1.463 . S
C1758 N1762 1.427 . S
C1759 H1749 0.929 . S
C1759 C1757 1.433 . S
C1759 N1762 1.384 . S
C1760 H1751 0.929 . S
C1760 C1752 1.378 . S
C1760 C1755 1.350 . S
C1761 H1748 0.929 . S
C1761 C1753 1.433 . S
C1761 N1763 1.384 . S
N1762 C1758 1.427 . S
N1762 C1759 1.384 . S
N1763 C1755 1.427 . S
N1763 C1761 1.384 . S
H1764 C1770 0.930 . S
H1765 C1774 0.930 . S
H1766 C1779 0.929 . S
H1767 C1777 0.929 . S
H1768 C1772 0.929 . S
H1769 C1778 0.929 . S
C1770 H1764 0.930 . S
C1770 C1771 1.367 . S
C1770 C1778 1.378 . S
C1771 C1770 1.367 . S
C1771 C1779 1.433 . S
C1772 H1768 0.929 . S
C1772 C1774 1.378 . S
C1772 C1776 1.350 . S
C1773 C1776 1.463 . S
C1773 C1778 1.350 . S
C1773 N1781 1.427 . S
C1774 H1765 0.930 . S
C1774 C1772 1.378 . S
C1774 C1775 1.367 . S
C1775 C1774 1.367 . S
C1775 C1777 1.433 . S
C1776 C1772 1.350 . S
C1776 C1773 1.463 . S
C1776 N1780 1.427 . S
C1777 H1767 0.929 . S
C1777 C1775 1.433 . S
C1777 N1780 1.384 . S
C1778 H1769 0.929 . S
C1778 C1770 1.378 . S
C1778 C1773 1.350 . S
C1779 H1766 0.929 . S
C1779 C1771 1.433 . S
C1779 N1781 1.384 . S
N1780 C1776 1.427 . S
N1780 C1777 1.384 . S
N1781 C1773 1.427 . S
N1781 C1779 1.384 . S
H1782 C1788 0.930 . S
H1783 C1792 0.930 . S
H1784 C1797 0.929 . S
H1785 C1795 0.929 . S
H1786 C1790 0.929 . S
H1787 C1796 0.929 . S
C1788 H1782 0.930 . S
C1788 C1789 1.367 . S
C1788 C1796 1.378 . S
C1789 C1788 1.367 . S
C1789 C1797 1.433 . S
C1790 H1786 0.929 . S
C1790 C1792 1.378 . S
C1790 C1794 1.350 . S
C1791 C1794 1.463 . S
C1791 C1796 1.350 . S
C1791 N1799 1.427 . S
C1792 H1783 0.930 . S
C1792 C1790 1.378 . S
C1792 C1793 1.367 . S
C1793 C1792 1.367 . S
C1793 C1795 1.433 . S
C1794 C1790 1.350 . S
C1794 C1791 1.463 . S
C1794 N1798 1.427 . S
C1795 H1785 0.929 . S
C1795 C1793 1.433 . S
C1795 N1798 1.384 . S
C1796 H1787 0.929 . S
C1796 C1788 1.378 . S
C1796 C1791 1.350 . S
C1797 H1784 0.929 . S
C1797 C1789 1.433 . S
C1797 N1799 1.384 . S
N1798 C1794 1.427 . S
N1798 C1795 1.384 . S
N1799 C1791 1.427 . S
N1799 C1797 1.384 . S
H1800 C1806 0.930 . S
H1801 C1810 0.930 . S
H1802 C1815 0.929 . S
H1803 C1813 0.929 . S
H1804 C1808 0.929 . S
H1805 C1814 0.929 . S
C1806 H1800 0.930 . S
C1806 C1807 1.367 . S
C1806 C1814 1.378 . S
C1807 C1806 1.367 . S
C1807 C1815 1.433 . S
C1808 H1804 0.929 . S
C1808 C1810 1.378 . S
C1808 C1812 1.350 . S
C1809 C1812 1.463 . S
C1809 C1814 1.350 . S
C1809 N1817 1.427 . S
C1810 H1801 0.930 . S
C1810 C1808 1.378 . S
C1810 C1811 1.367 . S
C1811 C1810 1.367 . S
C1811 C1813 1.433 . S
C1812 C1808 1.350 . S
C1812 C1809 1.463 . S
C1812 N1816 1.427 . S
C1813 H1803 0.929 . S
C1813 C1811 1.433 . S
C1813 N1816 1.384 . S
C1814 H1805 0.929 . S
C1814 C1806 1.378 . S
C1814 C1809 1.350 . S
C1815 H1802 0.929 . S
C1815 C1807 1.433 . S
C1815 N1817 1.384 . S
N1816 C1812 1.427 . S
N1816 C1813 1.384 . S
N1817 C1809 1.427 . S
N1817 C1815 1.384 . S
H1818 C1824 0.930 . S
H1819 C1828 0.930 . S
H1820 C1833 0.929 . S
H1821 C1831 0.929 . S
H1822 C1826 0.929 . S
H1823 C1832 0.929 . S
C1824 H1818 0.930 . S
C1824 C1825 1.367 . S
C1824 C1832 1.378 . S
C1825 C1824 1.367 . S
C1825 C1833 1.433 . S
C1826 H1822 0.929 . S
C1826 C1828 1.378 . S
C1826 C1830 1.350 . S
C1827 C1830 1.463 . S
C1827 C1832 1.350 . S
C1827 N1835 1.427 . S
C1828 H1819 0.930 . S
C1828 C1826 1.378 . S
C1828 C1829 1.367 . S
C1829 C1828 1.367 . S
C1829 C1831 1.433 . S
C1830 C1826 1.350 . S
C1830 C1827 1.463 . S
C1830 N1834 1.427 . S
C1831 H1821 0.929 . S
C1831 C1829 1.433 . S
C1831 N1834 1.384 . S
C1832 H1823 0.929 . S
C1832 C1824 1.378 . S
C1832 C1827 1.350 . S
C1833 H1820 0.929 . S
C1833 C1825 1.433 . S
C1833 N1835 1.384 . S
N1834 C1830 1.427 . S
N1834 C1831 1.384 . S
N1835 C1827 1.427 . S
N1835 C1833 1.384 . S
H1836 C1842 0.930 . S
H1837 C1846 0.930 . S
H1838 C1851 0.929 . S
H1839 C1849 0.929 . S
H1840 C1844 0.929 . S
H1841 C1850 0.929 . S
C1842 H1836 0.930 . S
C1842 C1843 1.367 . S
C1842 C1850 1.378 . S
C1843 C1842 1.367 . S
C1843 C1851 1.433 . S
C1844 H1840 0.929 . S
C1844 C1846 1.378 . S
C1844 C1848 1.350 . S
C1845 C1848 1.463 . S
C1845 C1850 1.350 . S
C1845 N1853 1.427 . S
C1846 H1837 0.930 . S
C1846 C1844 1.378 . S
C1846 C1847 1.367 . S
C1847 C1846 1.367 . S
C1847 C1849 1.433 . S
C1848 C1844 1.350 . S
C1848 C1845 1.463 . S
C1848 N1852 1.427 . S
C1849 H1839 0.929 . S
C1849 C1847 1.433 . S
C1849 N1852 1.384 . S
C1850 H1841 0.929 . S
C1850 C1842 1.378 . S
C1850 C1845 1.350 . S
C1851 H1838 0.929 . S
C1851 C1843 1.433 . S
C1851 N1853 1.384 . S
N1852 C1848 1.427 . S
N1852 C1849 1.384 . S
N1853 C1845 1.427 . S
N1853 C1851 1.384 . S
H1854 C1860 0.930 . S
H1855 C1864 0.930 1_565 S
H1856 C1869 0.931 . S
H1857 C1867 0.929 . S
H1858 C1862 0.934 . S
H1859 C1868 0.929 . S
C1860 H1854 0.930 . S
C1860 C1861 1.367 . S
C1860 C1868 1.378 . S
C1861 C1860 1.367 . S
C1861 C1869 1.432 1_554 S
C1862 H1858 0.934 . S
C1862 C1864 1.378 . S
C1862 C1866 1.350 . S
C1863 C1866 1.463 . S
C1863 C1868 1.350 . S
C1863 N1871 1.427 . S
C1864 H1855 0.930 1_545 S
C1864 C1862 1.378 . S
C1864 C1865 1.367 . S
C1865 C1864 1.367 . S
C1865 C1867 1.433 . S
C1866 C1862 1.350 . S
C1866 C1863 1.463 . S
C1866 N1870 1.427 . S
C1867 H1857 0.929 . S
C1867 C1865 1.433 . S
C1867 N1870 1.384 . S
C1868 H1859 0.929 . S
C1868 C1860 1.378 . S
C1868 C1863 1.350 . S
C1869 H1856 0.931 . S
C1869 C1861 1.432 1_556 S
C1869 N1871 1.383 1_556 S
N1870 C1866 1.427 . S
N1870 C1867 1.384 . S
N1871 C1863 1.427 . S
N1871 C1869 1.383 1_554 S
H1872 C1878 0.930 . S
H1873 C1882 0.930 . S
H1874 C1887 0.929 . S
H1875 C1885 0.929 . S
H1876 C1880 0.929 . S
H1877 C1886 0.929 . S
C1878 H1872 0.930 . S
C1878 C1879 1.367 . S
C1878 C1886 1.378 . S
C1879 C1878 1.367 . S
C1879 C1887 1.433 . S
C1880 H1876 0.929 . S
C1880 C1882 1.378 . S
C1880 C1884 1.350 . S
C1881 C1884 1.463 . S
C1881 C1886 1.350 . S
C1881 N1889 1.427 . S
C1882 H1873 0.930 . S
C1882 C1880 1.378 . S
C1882 C1883 1.367 . S
C1883 C1882 1.367 . S
C1883 C1885 1.433 . S
C1884 C1880 1.350 . S
C1884 C1881 1.463 . S
C1884 N1888 1.427 . S
C1885 H1875 0.929 . S
C1885 C1883 1.433 . S
C1885 N1888 1.384 . S
C1886 H1877 0.929 . S
C1886 C1878 1.378 . S
C1886 C1881 1.350 . S
C1887 H1874 0.929 . S
C1887 C1879 1.433 . S
C1887 N1889 1.384 . S
N1888 C1884 1.427 . S
N1888 C1885 1.384 . S
N1889 C1881 1.427 . S
N1889 C1887 1.384 . S
H1890 C1896 0.930 . S
H1891 C1900 0.930 . S
H1892 C1905 0.929 . S
H1893 C1903 0.929 . S
H1894 C1898 0.929 . S
H1895 C1904 0.929 . S
C1896 H1890 0.930 . S
C1896 C1897 1.367 . S
C1896 C1904 1.378 . S
C1897 C1896 1.367 . S
C1897 C1905 1.433 1_554 S
C1898 H1894 0.929 . S
C1898 C1900 1.378 . S
C1898 C1902 1.369 . S
C1899 C1902 1.460 1_554 S
C1899 C1904 1.350 . S
C1899 N1907 1.427 1_554 S
C1900 H1891 0.930 . S
C1900 C1898 1.378 . S
C1900 C1901 1.367 . S
C1901 C1900 1.367 . S
C1901 C1903 1.433 1_556 S
C1902 C1898 1.369 . S
C1902 C1899 1.460 1_556 S
C1902 N1906 1.410 1_556 S
C1903 H1893 0.929 . S
C1903 C1901 1.433 1_554 S
C1903 N1906 1.384 . S
C1904 H1895 0.929 . S
C1904 C1896 1.378 . S
C1904 C1899 1.350 . S
C1905 H1892 0.929 . S
C1905 C1897 1.433 1_556 S
C1905 N1907 1.384 . S
N1906 C1902 1.410 1_554 S
N1906 C1903 1.384 . S
N1907 C1899 1.427 1_556 S
N1907 C1905 1.384 . S
H1908 C1914 0.930 . S
H1909 C1918 0.930 . S
H1910 C1923 0.929 . S
H1911 C1921 0.929 . S
H1912 C1916 0.929 . S
H1913 C1922 0.929 . S
C1914 H1908 0.930 . S
C1914 C1915 1.367 . S
C1914 C1922 1.378 . S
C1915 C1914 1.367 . S
C1915 C1923 1.433 . S
C1916 H1912 0.929 . S
C1916 C1918 1.378 . S
C1916 C1920 1.350 . S
C1917 C1920 1.463 . S
C1917 C1922 1.350 . S
C1917 N1925 1.427 . S
C1918 H1909 0.930 . S
C1918 C1916 1.378 . S
C1918 C1919 1.367 . S
C1919 C1918 1.367 . S
C1919 C1921 1.433 . S
C1920 C1916 1.350 . S
C1920 C1917 1.463 . S
C1920 N1924 1.427 . S
C1921 H1911 0.929 . S
C1921 C1919 1.433 . S
C1921 N1924 1.384 . S
C1922 H1913 0.929 . S
C1922 C1914 1.378 . S
C1922 C1917 1.350 . S
C1923 H1910 0.929 . S
C1923 C1915 1.433 . S
C1923 N1925 1.384 . S
N1924 C1920 1.427 . S
N1924 C1921 1.384 . S
N1925 C1917 1.427 . S
N1925 C1923 1.384 . S
H1926 C1932 0.930 . S
H1927 C1936 0.930 . S
H1928 C1941 0.929 . S
H1929 C1939 0.929 . S
H1930 C1934 0.929 . S
H1931 C1940 0.929 . S
C1932 H1926 0.930 . S
C1932 C1933 1.367 . S
C1932 C1940 1.378 . S
C1933 C1932 1.367 . S
C1933 C1941 1.433 . S
C1934 H1930 0.929 . S
C1934 C1936 1.378 . S
C1934 C1938 1.350 . S
C1935 C1938 1.463 . S
C1935 C1940 1.350 . S
C1935 N1943 1.427 . S
C1936 H1927 0.930 . S
C1936 C1934 1.378 . S
C1936 C1937 1.367 . S
C1937 C1936 1.367 . S
C1937 C1939 1.433 . S
C1938 C1934 1.350 . S
C1938 C1935 1.463 . S
C1938 N1942 1.427 . S
C1939 H1929 0.929 . S
C1939 C1937 1.433 . S
C1939 N1942 1.384 . S
C1940 H1931 0.929 . S
C1940 C1932 1.378 . S
C1940 C1935 1.350 . S
C1941 H1928 0.929 . S
C1941 C1933 1.433 . S
C1941 N1943 1.384 . S
N1942 C1938 1.427 . S
N1942 C1939 1.384 . S
N1943 C1935 1.427 . S
N1943 C1941 1.384 . S
H1944 C1950 0.930 . S
H1945 C1954 0.930 . S
H1946 C1959 0.929 . S
H1947 C1957 0.929 . S
H1948 C1952 0.929 . S
H1949 C1958 0.929 . S
C1950 H1944 0.930 . S
C1950 C1951 1.367 . S
C1950 C1958 1.378 . S
C1951 C1950 1.367 . S
C1951 C1959 1.433 . S
C1952 H1948 0.929 . S
C1952 C1954 1.378 . S
C1952 C1956 1.350 . S
C1953 C1956 1.463 . S
C1953 C1958 1.350 . S
C1953 N1961 1.427 . S
C1954 H1945 0.930 . S
C1954 C1952 1.378 . S
C1954 C1955 1.367 . S
C1955 C1954 1.367 . S
C1955 C1957 1.433 . S
C1956 C1952 1.350 . S
C1956 C1953 1.463 . S
C1956 N1960 1.427 . S
C1957 H1947 0.929 . S
C1957 C1955 1.433 . S
C1957 N1960 1.384 . S
C1958 H1949 0.929 . S
C1958 C1950 1.378 . S
C1958 C1953 1.350 . S
C1959 H1946 0.929 . S
C1959 C1951 1.433 . S
C1959 N1961 1.384 . S
N1960 C1956 1.427 . S
N1960 C1957 1.384 . S
N1961 C1953 1.427 . S
N1961 C1959 1.384 . S
H1962 C1968 0.930 . S
H1963 C1972 0.930 . S
H1964 C1977 0.929 . S
H1965 C1975 0.929 . S
H1966 C1970 0.929 . S
H1967 C1976 0.929 . S
C1968 H1962 0.930 . S
C1968 C1969 1.367 . S
C1968 C1976 1.378 . S
C1969 C1968 1.367 . S
C1969 C1977 1.433 . S
C1970 H1966 0.929 . S
C1970 C1972 1.378 . S
C1970 C1974 1.350 . S
C1971 C1974 1.463 . S
C1971 C1976 1.350 . S
C1971 N1979 1.427 . S
C1972 H1963 0.930 . S
C1972 C1970 1.378 . S
C1972 C1973 1.367 . S
C1973 C1972 1.367 . S
C1973 C1975 1.433 . S
C1974 C1970 1.350 . S
C1974 C1971 1.463 . S
C1974 N1978 1.427 . S
C1975 H1965 0.929 . S
C1975 C1973 1.433 . S
C1975 N1978 1.384 . S
C1976 H1967 0.929 . S
C1976 C1968 1.378 . S
C1976 C1971 1.350 . S
C1977 H1964 0.929 . S
C1977 C1969 1.433 . S
C1977 N1979 1.384 . S
N1978 C1974 1.427 . S
N1978 C1975 1.384 . S
N1979 C1971 1.427 . S
N1979 C1977 1.384 . S
H1980 C1986 0.930 . S
H1981 C1990 0.930 . S
H1982 C1995 0.929 . S
H1983 C1993 0.929 . S
H1984 C1988 0.929 . S
H1985 C1994 0.929 . S
C1986 H1980 0.930 . S
C1986 C1987 1.367 1_655 S
C1986 C1994 1.378 . S
C1987 C1986 1.367 1_455 S
C1987 C1995 1.433 . S
C1988 H1984 0.929 . S
C1988 C1990 1.378 . S
C1988 C1992 1.350 1_455 S
C1989 C1992 1.463 . S
C1989 C1994 1.350 . S
C1989 N1997 1.427 1_655 S
C1990 H1981 0.930 . S
C1990 C1988 1.378 . S
C1990 C1991 1.367 1_455 S
C1991 C1990 1.367 1_655 S
C1991 C1993 1.433 . S
C1992 C1988 1.350 1_655 S
C1992 C1989 1.463 . S
C1992 N1996 1.427 . S
C1993 H1983 0.929 . S
C1993 C1991 1.433 . S
C1993 N1996 1.384 . S
C1994 H1985 0.929 . S
C1994 C1986 1.378 . S
C1994 C1989 1.350 . S
C1995 H1982 0.929 . S
C1995 C1987 1.433 . S
C1995 N1997 1.384 . S
N1996 C1992 1.427 . S
N1996 C1993 1.384 . S
N1997 C1989 1.427 1_455 S
N1997 C1995 1.384 . S
H1998 C2004 0.930 . S
H1999 C2008 0.930 . S
H2000 C2013 0.929 . S
H2001 C2011 0.929 . S
H2002 C2006 0.929 . S
H2003 C2012 0.929 . S
C2004 H1998 0.930 . S
C2004 C2005 1.367 . S
C2004 C2012 1.378 . S
C2005 C2004 1.367 . S
C2005 C2013 1.433 . S
C2006 H2002 0.929 . S
C2006 C2008 1.378 . S
C2006 C2010 1.350 . S
C2007 C2010 1.463 . S
C2007 C2012 1.350 . S
C2007 N2015 1.427 . S
C2008 H1999 0.930 . S
C2008 C2006 1.378 . S
C2008 C2009 1.367 . S
C2009 C2008 1.367 . S
C2009 C2011 1.433 . S
C2010 C2006 1.350 . S
C2010 C2007 1.463 . S
C2010 N2014 1.427 . S
C2011 H2001 0.929 . S
C2011 C2009 1.433 . S
C2011 N2014 1.384 . S
C2012 H2003 0.929 . S
C2012 C2004 1.378 . S
C2012 C2007 1.350 . S
C2013 H2000 0.929 . S
C2013 C2005 1.433 . S
C2013 N2015 1.384 . S
N2014 C2010 1.427 . S
N2014 C2011 1.384 . S
N2015 C2007 1.427 . S
N2015 C2013 1.384 . S
H2016 C2022 0.930 . S
H2017 C2026 0.930 . S
H2018 C2031 0.929 . S
H2019 C2029 0.929 . S
H2020 C2024 0.929 . S
H2021 C2030 0.929 . S
C2022 H2016 0.930 . S
C2022 C2023 1.367 . S
C2022 C2030 1.378 . S
C2023 C2022 1.367 . S
C2023 C2031 1.433 . S
C2024 H2020 0.929 . S
C2024 C2026 1.378 . S
C2024 C2028 1.350 . S
C2025 C2028 1.463 . S
C2025 C2030 1.350 . S
C2025 N2033 1.427 . S
C2026 H2017 0.930 . S
C2026 C2024 1.378 . S
C2026 C2027 1.367 . S
C2027 C2026 1.367 . S
C2027 C2029 1.433 . S
C2028 C2024 1.350 . S
C2028 C2025 1.463 . S
C2028 N2032 1.427 . S
C2029 H2019 0.929 . S
C2029 C2027 1.433 . S
C2029 N2032 1.384 . S
C2030 H2021 0.929 . S
C2030 C2022 1.378 . S
C2030 C2025 1.350 . S
C2031 H2018 0.929 . S
C2031 C2023 1.433 . S
C2031 N2033 1.384 . S
N2032 C2028 1.427 . S
N2032 C2029 1.384 . S
N2033 C2025 1.427 . S
N2033 C2031 1.384 . S
H2034 C2040 0.930 . S
H2035 C2044 0.930 . S
H2036 C2049 0.929 . S
H2037 C2047 0.929 . S
H2038 C2042 0.929 . S
H2039 C2048 0.929 . S
C2040 H2034 0.930 . S
C2040 C2041 1.367 . S
C2040 C2048 1.378 . S
C2041 C2040 1.367 . S
C2041 C2049 1.433 . S
C2042 H2038 0.929 . S
C2042 C2044 1.378 . S
C2042 C2046 1.350 . S
C2043 C2046 1.463 . S
C2043 C2048 1.350 . S
C2043 N2051 1.427 . S
C2044 H2035 0.930 . S
C2044 C2042 1.378 . S
C2044 C2045 1.367 . S
C2045 C2044 1.367 . S
C2045 C2047 1.433 . S
C2046 C2042 1.350 . S
C2046 C2043 1.463 . S
C2046 N2050 1.427 . S
C2047 H2037 0.929 . S
C2047 C2045 1.433 . S
C2047 N2050 1.384 . S
C2048 H2039 0.929 . S
C2048 C2040 1.378 . S
C2048 C2043 1.350 . S
C2049 H2036 0.929 . S
C2049 C2041 1.433 . S
C2049 N2051 1.384 . S
N2050 C2046 1.427 . S
N2050 C2047 1.384 . S
N2051 C2043 1.427 . S
N2051 C2049 1.384 . S
H2052 C2058 0.930 . S
H2053 C2062 0.930 . S
H2054 C2067 0.929 . S
H2055 C2065 0.929 . S
H2056 C2060 0.929 . S
H2057 C2066 0.929 . S
C2058 H2052 0.930 . S
C2058 C2059 1.367 . S
C2058 C2066 1.378 . S
C2059 C2058 1.367 . S
C2059 C2067 1.433 1_455 S
C2060 H2056 0.929 . S
C2060 C2062 1.378 . S
C2060 C2064 1.350 . S
C2061 C2064 1.466 . S
C2061 C2066 1.327 1_655 S
C2061 N2069 1.449 . S
C2062 H2053 0.930 . S
C2062 C2060 1.378 . S
C2062 C2063 1.367 . S
C2063 C2062 1.367 . S
C2063 C2065 1.433 1_655 S
C2064 C2060 1.350 . S
C2064 C2061 1.466 . S
C2064 N2068 1.427 1_655 S
C2065 H2055 0.929 . S
C2065 C2063 1.433 1_455 S
C2065 N2068 1.384 . S
C2066 H2057 0.929 . S
C2066 C2058 1.378 . S
C2066 C2061 1.327 1_455 S
C2067 H2054 0.929 . S
C2067 C2059 1.433 1_655 S
C2067 N2069 1.384 . S
N2068 C2064 1.427 1_455 S
N2068 C2065 1.384 . S
N2069 C2061 1.449 . S
N2069 C2067 1.384 . S
H2070 C2076 0.930 . S
H2071 C2080 0.930 . S
H2072 C2085 0.929 . S
H2073 C2083 0.929 . S
H2074 C2078 0.929 . S
H2075 C2084 0.929 . S
C2076 H2070 0.930 . S
C2076 C2077 1.367 . S
C2076 C2084 1.378 . S
C2077 C2076 1.367 . S
C2077 C2085 1.433 . S
C2078 H2074 0.929 . S
C2078 C2080 1.378 . S
C2078 C2082 1.350 . S
C2079 C2082 1.463 . S
C2079 C2084 1.350 . S
C2079 N2087 1.427 . S
C2080 H2071 0.930 . S
C2080 C2078 1.378 . S
C2080 C2081 1.367 . S
C2081 C2080 1.367 . S
C2081 C2083 1.433 . S
C2082 C2078 1.350 . S
C2082 C2079 1.463 . S
C2082 N2086 1.427 . S
C2083 H2073 0.929 . S
C2083 C2081 1.433 . S
C2083 N2086 1.384 . S
C2084 H2075 0.929 . S
C2084 C2076 1.378 . S
C2084 C2079 1.350 . S
C2085 H2072 0.929 . S
C2085 C2077 1.433 . S
C2085 N2087 1.384 . S
N2086 C2082 1.427 . S
N2086 C2083 1.384 . S
N2087 C2079 1.427 . S
N2087 C2085 1.384 . S
H2088 C2094 0.930 . S
H2089 C2098 0.930 . S
H2090 C2103 0.929 . S
H2091 C2101 0.929 . S
H2092 C2096 0.929 . S
H2093 C2102 0.929 . S
C2094 H2088 0.930 . S
C2094 C2095 1.367 . S
C2094 C2102 1.378 . S
C2095 C2094 1.367 . S
C2095 C2103 1.433 . S
C2096 H2092 0.929 . S
C2096 C2098 1.378 . S
C2096 C2100 1.350 . S
C2097 C2100 1.463 . S
C2097 C2102 1.350 . S
C2097 N2105 1.427 . S
C2098 H2089 0.930 . S
C2098 C2096 1.378 . S
C2098 C2099 1.367 . S
C2099 C2098 1.367 . S
C2099 C2101 1.433 . S
C2100 C2096 1.350 . S
C2100 C2097 1.463 . S
C2100 N2104 1.427 . S
C2101 H2091 0.929 . S
C2101 C2099 1.433 . S
C2101 N2104 1.384 . S
C2102 H2093 0.929 . S
C2102 C2094 1.378 . S
C2102 C2097 1.350 . S
C2103 H2090 0.929 . S
C2103 C2095 1.433 . S
C2103 N2105 1.384 . S
N2104 C2100 1.427 . S
N2104 C2101 1.384 . S
N2105 C2097 1.427 . S
N2105 C2103 1.384 . S
H2106 C2112 0.930 . S
H2107 C2116 0.930 . S
H2108 C2121 0.929 . S
H2109 C2119 0.929 . S
H2110 C2114 0.929 . S
H2111 C2120 0.929 . S
C2112 H2106 0.930 . S
C2112 C2113 1.367 . S
C2112 C2120 1.378 . S
C2113 C2112 1.367 . S
C2113 C2121 1.433 . S
C2114 H2110 0.929 . S
C2114 C2116 1.378 . S
C2114 C2118 1.350 . S
C2115 C2118 1.463 . S
C2115 C2120 1.350 . S
C2115 N2123 1.427 . S
C2116 H2107 0.930 . S
C2116 C2114 1.378 . S
C2116 C2117 1.367 . S
C2117 C2116 1.367 . S
C2117 C2119 1.433 . S
C2118 C2114 1.350 . S
C2118 C2115 1.463 . S
C2118 N2122 1.427 . S
C2119 H2109 0.929 . S
C2119 C2117 1.433 . S
C2119 N2122 1.384 . S
C2120 H2111 0.929 . S
C2120 C2112 1.378 . S
C2120 C2115 1.350 . S
C2121 H2108 0.929 . S
C2121 C2113 1.433 . S
C2121 N2123 1.384 . S
N2122 C2118 1.427 . S
N2122 C2119 1.384 . S
N2123 C2115 1.427 . S
N2123 C2121 1.384 . S
H2124 C2130 0.930 . S
H2125 C2134 0.930 . S
H2126 C2139 0.929 . S
H2127 C2137 0.929 . S
H2128 C2132 0.929 . S
H2129 C2138 0.929 . S
C2130 H2124 0.930 . S
C2130 C2131 1.367 . S
C2130 C2138 1.378 . S
C2131 C2130 1.367 . S
C2131 C2139 1.433 . S
C2132 H2128 0.929 . S
C2132 C2134 1.378 . S
C2132 C2136 1.350 . S
C2133 C2136 1.463 . S
C2133 C2138 1.350 . S
C2133 N2141 1.427 . S
C2134 H2125 0.930 . S
C2134 C2132 1.378 . S
C2134 C2135 1.367 . S
C2135 C2134 1.367 . S
C2135 C2137 1.433 . S
C2136 C2132 1.350 . S
C2136 C2133 1.463 . S
C2136 N2140 1.427 . S
C2137 H2127 0.929 . S
C2137 C2135 1.433 . S
C2137 N2140 1.384 . S
C2138 H2129 0.929 . S
C2138 C2130 1.378 . S
C2138 C2133 1.350 . S
C2139 H2126 0.929 . S
C2139 C2131 1.433 . S
C2139 N2141 1.384 . S
N2140 C2136 1.427 . S
N2140 C2137 1.384 . S
N2141 C2133 1.427 . S
N2141 C2139 1.384 . S
H2142 C2148 0.930 . S
H2143 C2152 0.930 . S
H2144 C2157 0.929 . S
H2145 C2155 0.929 . S
H2146 C2150 0.929 . S
H2147 C2156 0.929 . S
C2148 H2142 0.930 . S
C2148 C2149 1.367 . S
C2148 C2156 1.378 . S
C2149 C2148 1.367 . S
C2149 C2157 1.433 . S
C2150 H2146 0.929 . S
C2150 C2152 1.378 . S
C2150 C2154 1.350 . S
C2151 C2154 1.463 . S
C2151 C2156 1.350 . S
C2151 N2159 1.427 . S
C2152 H2143 0.930 . S
C2152 C2150 1.378 . S
C2152 C2153 1.367 . S
C2153 C2152 1.367 . S
C2153 C2155 1.433 . S
C2154 C2150 1.350 . S
C2154 C2151 1.463 . S
C2154 N2158 1.427 . S
C2155 H2145 0.929 . S
C2155 C2153 1.433 . S
C2155 N2158 1.384 . S
C2156 H2147 0.929 . S
C2156 C2148 1.378 . S
C2156 C2151 1.350 . S
C2157 H2144 0.929 . S
C2157 C2149 1.433 . S
C2157 N2159 1.384 . S
N2158 C2154 1.427 . S
N2158 C2155 1.384 . S
N2159 C2151 1.427 . S
N2159 C2157 1.384 . S
H2160 C2166 0.930 . S
H2161 C2170 0.930 . S
H2162 C2175 0.929 . S
H2163 C2173 0.929 . S
H2164 C2168 0.929 . S
H2165 C2174 0.929 . S
C2166 H2160 0.930 . S
C2166 C2167 1.367 . S
C2166 C2174 1.378 . S
C2167 C2166 1.367 . S
C2167 C2175 1.433 . S
C2168 H2164 0.929 . S
C2168 C2170 1.378 . S
C2168 C2172 1.350 . S
C2169 C2172 1.463 . S
C2169 C2174 1.350 . S
C2169 N2177 1.427 . S
C2170 H2161 0.930 . S
C2170 C2168 1.378 . S
C2170 C2171 1.367 . S
C2171 C2170 1.367 . S
C2171 C2173 1.433 . S
C2172 C2168 1.350 . S
C2172 C2169 1.463 . S
C2172 N2176 1.427 . S
C2173 H2163 0.929 . S
C2173 C2171 1.433 . S
C2173 N2176 1.384 . S
C2174 H2165 0.929 . S
C2174 C2166 1.378 . S
C2174 C2169 1.350 . S
C2175 H2162 0.929 . S
C2175 C2167 1.433 . S
C2175 N2177 1.384 . S
N2176 C2172 1.427 . S
N2176 C2173 1.384 . S
N2177 C2169 1.427 . S
N2177 C2175 1.384 . S
H2178 C2184 0.930 . S
H2179 C2188 0.930 . S
H2180 C2193 0.929 . S
H2181 C2191 0.929 . S
H2182 C2186 0.929 . S
H2183 C2192 0.929 . S
C2184 H2178 0.930 . S
C2184 C2185 1.367 . S
C2184 C2192 1.378 . S
C2185 C2184 1.367 . S
C2185 C2193 1.433 . S
C2186 H2182 0.929 . S
C2186 C2188 1.378 . S
C2186 C2190 1.350 . S
C2187 C2190 1.463 . S
C2187 C2192 1.350 . S
C2187 N2195 1.427 . S
C2188 H2179 0.930 . S
C2188 C2186 1.378 . S
C2188 C2189 1.367 . S
C2189 C2188 1.367 . S
C2189 C2191 1.433 . S
C2190 C2186 1.350 . S
C2190 C2187 1.463 . S
C2190 N2194 1.427 . S
C2191 H2181 0.929 . S
C2191 C2189 1.433 . S
C2191 N2194 1.384 . S
C2192 H2183 0.929 . S
C2192 C2184 1.378 . S
C2192 C2187 1.350 . S
C2193 H2180 0.929 . S
C2193 C2185 1.433 . S
C2193 N2195 1.384 . S
N2194 C2190 1.427 . S
N2194 C2191 1.384 . S
N2195 C2187 1.427 . S
N2195 C2193 1.384 . S
H2196 C2202 0.930 . S
H2197 C2206 0.930 . S
H2198 C2211 0.929 . S
H2199 C2209 0.929 . S
H2200 C2204 0.929 . S
H2201 C2210 0.929 . S
C2202 H2196 0.930 . S
C2202 C2203 1.367 . S
C2202 C2210 1.378 . S
C2203 C2202 1.367 . S
C2203 C2211 1.433 . S
C2204 H2200 0.929 . S
C2204 C2206 1.378 . S
C2204 C2208 1.350 . S
C2205 C2208 1.463 . S
C2205 C2210 1.350 . S
C2205 N2213 1.427 . S
C2206 H2197 0.930 . S
C2206 C2204 1.378 . S
C2206 C2207 1.367 . S
C2207 C2206 1.367 . S
C2207 C2209 1.433 . S
C2208 C2204 1.350 . S
C2208 C2205 1.463 . S
C2208 N2212 1.427 . S
C2209 H2199 0.929 . S
C2209 C2207 1.433 . S
C2209 N2212 1.384 . S
C2210 H2201 0.929 . S
C2210 C2202 1.378 . S
C2210 C2205 1.350 . S
C2211 H2198 0.929 . S
C2211 C2203 1.433 . S
C2211 N2213 1.384 . S
N2212 C2208 1.427 . S
N2212 C2209 1.384 . S
N2213 C2205 1.427 . S
N2213 C2211 1.384 . S
H2214 C2220 0.930 . S
H2215 C2224 0.930 . S
H2216 C2229 0.929 . S
H2217 C2227 0.929 . S
H2218 C2222 0.929 . S
H2219 C2228 0.929 . S
C2220 H2214 0.930 . S
C2220 C2221 1.367 . S
C2220 C2228 1.378 . S
C2221 C2220 1.367 . S
C2221 C2229 1.433 . S
C2222 H2218 0.929 . S
C2222 C2224 1.378 . S
C2222 C2226 1.350 . S
C2223 C2226 1.463 . S
C2223 C2228 1.350 . S
C2223 N2231 1.427 . S
C2224 H2215 0.930 . S
C2224 C2222 1.378 . S
C2224 C2225 1.367 . S
C2225 C2224 1.367 . S
C2225 C2227 1.433 . S
C2226 C2222 1.350 . S
C2226 C2223 1.463 . S
C2226 N2230 1.427 . S
C2227 H2217 0.929 . S
C2227 C2225 1.433 . S
C2227 N2230 1.384 . S
C2228 H2219 0.929 . S
C2228 C2220 1.378 . S
C2228 C2223 1.350 . S
C2229 H2216 0.929 . S
C2229 C2221 1.433 . S
C2229 N2231 1.384 . S
N2230 C2226 1.427 . S
N2230 C2227 1.384 . S
N2231 C2223 1.427 . S
N2231 C2229 1.384 . S
H2232 C2238 0.930 . S
H2233 C2242 0.930 . S
H2234 C2247 0.929 . S
H2235 C2245 0.929 . S
H2236 C2240 0.929 . S
H2237 C2246 0.929 . S
C2238 H2232 0.930 . S
C2238 C2239 1.367 . S
C2238 C2246 1.378 . S
C2239 C2238 1.367 . S
C2239 C2247 1.433 . S
C2240 H2236 0.929 . S
C2240 C2242 1.378 . S
C2240 C2244 1.350 . S
C2241 C2244 1.463 . S
C2241 C2246 1.350 . S
C2241 N2249 1.427 . S
C2242 H2233 0.930 . S
C2242 C2240 1.378 . S
C2242 C2243 1.367 . S
C2243 C2242 1.367 . S
C2243 C2245 1.433 . S
C2244 C2240 1.350 . S
C2244 C2241 1.463 . S
C2244 N2248 1.427 . S
C2245 H2235 0.929 . S
C2245 C2243 1.433 . S
C2245 N2248 1.384 . S
C2246 H2237 0.929 . S
C2246 C2238 1.378 . S
C2246 C2241 1.350 . S
C2247 H2234 0.929 . S
C2247 C2239 1.433 . S
C2247 N2249 1.384 . S
N2248 C2244 1.427 . S
N2248 C2245 1.384 . S
N2249 C2241 1.427 . S
N2249 C2247 1.384 . S
H2250 C2256 0.930 . S
H2251 C2260 0.930 . S
H2252 C2265 0.929 . S
H2253 C2263 0.929 . S
H2254 C2258 0.929 . S
H2255 C2264 0.929 . S
C2256 H2250 0.930 . S
C2256 C2257 1.367 . S
C2256 C2264 1.378 . S
C2257 C2256 1.367 . S
C2257 C2265 1.433 . S
C2258 H2254 0.929 . S
C2258 C2260 1.378 . S
C2258 C2262 1.350 . S
C2259 C2262 1.463 . S
C2259 C2264 1.350 . S
C2259 N2267 1.427 . S
C2260 H2251 0.930 . S
C2260 C2258 1.378 . S
C2260 C2261 1.367 . S
C2261 C2260 1.367 . S
C2261 C2263 1.433 . S
C2262 C2258 1.350 . S
C2262 C2259 1.463 . S
C2262 N2266 1.427 . S
C2263 H2253 0.929 . S
C2263 C2261 1.433 . S
C2263 N2266 1.384 . S
C2264 H2255 0.929 . S
C2264 C2256 1.378 . S
C2264 C2259 1.350 . S
C2265 H2252 0.929 . S
C2265 C2257 1.433 . S
C2265 N2267 1.384 . S
N2266 C2262 1.427 . S
N2266 C2263 1.384 . S
N2267 C2259 1.427 . S
N2267 C2265 1.384 . S
H2268 C2274 0.930 . S
H2269 C2278 0.930 . S
H2270 C2283 0.929 . S
H2271 C2281 0.929 . S
H2272 C2276 0.929 . S
H2273 C2282 0.929 . S
C2274 H2268 0.930 . S
C2274 C2275 1.367 . S
C2274 C2282 1.378 . S
C2275 C2274 1.367 . S
C2275 C2283 1.433 . S
C2276 H2272 0.929 . S
C2276 C2278 1.378 . S
C2276 C2280 1.350 . S
C2277 C2280 1.463 . S
C2277 C2282 1.350 . S
C2277 N2285 1.427 . S
C2278 H2269 0.930 . S
C2278 C2276 1.378 . S
C2278 C2279 1.367 . S
C2279 C2278 1.367 . S
C2279 C2281 1.433 . S
C2280 C2276 1.350 . S
C2280 C2277 1.463 . S
C2280 N2284 1.427 . S
C2281 H2271 0.929 . S
C2281 C2279 1.433 . S
C2281 N2284 1.384 . S
C2282 H2273 0.929 . S
C2282 C2274 1.378 . S
C2282 C2277 1.350 . S
C2283 H2270 0.929 . S
C2283 C2275 1.433 . S
C2283 N2285 1.384 . S
N2284 C2280 1.427 . S
N2284 C2281 1.384 . S
N2285 C2277 1.427 . S
N2285 C2283 1.384 . S
H2286 C2292 0.930 . S
H2287 C2296 0.930 . S
H2288 C2301 0.929 . S
H2289 C2299 0.929 . S
H2290 C2294 0.929 . S
H2291 C2300 0.929 . S
C2292 H2286 0.930 . S
C2292 C2293 1.367 1_556 S
C2292 C2300 1.378 . S
C2293 C2292 1.367 1_554 S
C2293 C2301 1.433 . S
C2294 H2290 0.929 . S
C2294 C2296 1.378 . S
C2294 C2298 1.350 1_554 S
C2295 C2298 1.464 . S
C2295 C2300 1.378 . S
C2295 N2303 1.396 1_556 S
C2296 H2287 0.930 . S
C2296 C2294 1.378 . S
C2296 C2297 1.367 1_554 S
C2297 C2296 1.367 1_556 S
C2297 C2299 1.433 . S
C2298 C2294 1.350 1_556 S
C2298 C2295 1.464 . S
C2298 N2302 1.427 . S
C2299 H2289 0.929 . S
C2299 C2297 1.433 . S
C2299 N2302 1.384 . S
C2300 H2291 0.929 . S
C2300 C2292 1.378 . S
C2300 C2295 1.378 . S
C2301 H2288 0.929 . S
C2301 C2293 1.433 . S
C2301 N2303 1.384 . S
N2302 C2298 1.427 . S
N2302 C2299 1.384 . S
N2303 C2295 1.396 1_554 S
N2303 C2301 1.384 . S
H2304 C2310 0.930 . S
H2305 C2314 0.930 . S
H2306 C2319 0.929 . S
H2307 C2317 0.929 . S
H2308 C2312 0.929 . S
H2309 C2318 0.929 . S
C2310 H2304 0.930 . S
C2310 C2311 1.367 . S
C2310 C2318 1.378 . S
C2311 C2310 1.367 . S
C2311 C2319 1.433 . S
C2312 H2308 0.929 . S
C2312 C2314 1.378 . S
C2312 C2316 1.350 . S
C2313 C2316 1.463 . S
C2313 C2318 1.350 . S
C2313 N2321 1.427 . S
C2314 H2305 0.930 . S
C2314 C2312 1.378 . S
C2314 C2315 1.367 . S
C2315 C2314 1.367 . S
C2315 C2317 1.433 . S
C2316 C2312 1.350 . S
C2316 C2313 1.463 . S
C2316 N2320 1.427 . S
C2317 H2307 0.929 . S
C2317 C2315 1.433 . S
C2317 N2320 1.384 . S
C2318 H2309 0.929 . S
C2318 C2310 1.378 . S
C2318 C2313 1.350 . S
C2319 H2306 0.929 . S
C2319 C2311 1.433 . S
C2319 N2321 1.384 . S
N2320 C2316 1.427 . S
N2320 C2317 1.384 . S
N2321 C2313 1.427 . S
N2321 C2319 1.384 . S
H2322 C2328 0.930 . S
H2323 C2332 0.930 . S
H2324 C2337 0.929 . S
H2325 C2335 0.929 . S
H2326 C2330 0.929 . S
H2327 C2336 0.929 . S
C2328 H2322 0.930 . S
C2328 C2329 1.367 . S
C2328 C2336 1.378 . S
C2329 C2328 1.367 . S
C2329 C2337 1.433 1_554 S
C2330 H2326 0.929 . S
C2330 C2332 1.378 . S
C2330 C2334 1.350 1_556 S
C2331 C2334 1.463 . S
C2331 C2336 1.350 . S
C2331 N2339 1.427 1_554 S
C2332 H2323 0.930 . S
C2332 C2330 1.378 . S
C2332 C2333 1.367 1_556 S
C2333 C2332 1.367 1_554 S
C2333 C2335 1.433 . S
C2334 C2330 1.350 1_554 S
C2334 C2331 1.463 . S
C2334 N2338 1.427 . S
C2335 H2325 0.929 . S
C2335 C2333 1.433 . S
C2335 N2338 1.384 . S
C2336 H2327 0.929 . S
C2336 C2328 1.378 . S
C2336 C2331 1.350 . S
C2337 H2324 0.929 . S
C2337 C2329 1.433 1_556 S
C2337 N2339 1.384 . S
N2338 C2334 1.427 . S
N2338 C2335 1.384 . S
N2339 C2331 1.427 1_556 S
N2339 C2337 1.384 . S
H2340 C2346 0.930 . S
H2341 C2350 0.930 . S
H2342 C2355 0.929 . S
H2343 C2353 0.929 . S
H2344 C2348 0.929 . S
H2345 C2354 0.929 . S
C2346 H2340 0.930 . S
C2346 C2347 1.367 . S
C2346 C2354 1.378 . S
C2347 C2346 1.367 . S
C2347 C2355 1.433 . S
C2348 H2344 0.929 . S
C2348 C2350 1.378 . S
C2348 C2352 1.350 . S
C2349 C2352 1.463 . S
C2349 C2354 1.350 . S
C2349 N2357 1.427 . S
C2350 H2341 0.930 . S
C2350 C2348 1.378 . S
C2350 C2351 1.367 . S
C2351 C2350 1.367 . S
C2351 C2353 1.433 . S
C2352 C2348 1.350 . S
C2352 C2349 1.463 . S
C2352 N2356 1.427 . S
C2353 H2343 0.929 . S
C2353 C2351 1.433 . S
C2353 N2356 1.384 . S
C2354 H2345 0.929 . S
C2354 C2346 1.378 . S
C2354 C2349 1.350 . S
C2355 H2342 0.929 . S
C2355 C2347 1.433 . S
C2355 N2357 1.384 . S
N2356 C2352 1.427 . S
N2356 C2353 1.384 . S
N2357 C2349 1.427 . S
N2357 C2355 1.384 . S
H2358 C2364 0.930 . S
H2359 C2368 0.930 . S
H2360 C2373 0.929 . S
H2361 C2371 0.929 . S
H2362 C2366 0.929 . S
H2363 C2372 0.929 . S
C2364 H2358 0.930 . S
C2364 C2365 1.367 . S
C2364 C2372 1.378 . S
C2365 C2364 1.367 . S
C2365 C2373 1.433 . S
C2366 H2362 0.929 . S
C2366 C2368 1.378 . S
C2366 C2370 1.350 . S
C2367 C2370 1.463 . S
C2367 C2372 1.350 . S
C2367 N2375 1.427 . S
C2368 H2359 0.930 . S
C2368 C2366 1.378 . S
C2368 C2369 1.367 . S
C2369 C2368 1.367 . S
C2369 C2371 1.433 . S
C2370 C2366 1.350 . S
C2370 C2367 1.463 . S
C2370 N2374 1.427 . S
C2371 H2361 0.929 . S
C2371 C2369 1.433 . S
C2371 N2374 1.384 . S
C2372 H2363 0.929 . S
C2372 C2364 1.378 . S
C2372 C2367 1.350 . S
C2373 H2360 0.929 . S
C2373 C2365 1.433 . S
C2373 N2375 1.384 . S
N2374 C2370 1.427 . S
N2374 C2371 1.384 . S
N2375 C2367 1.427 . S
N2375 C2373 1.384 . S
C659 C327 1.190 . S
C655 C10 1.307 . S
C673 C13 1.057 . S
C677 C346 1.088 . S
C691 C34 1.284 . S
C695 C369 1.201 . S
C713 C389 1.246 . S
C709 C44 1.259 . S
C727 C21 1.296 . S
C731 C410 1.290 . S
C749 C432 1.197 . S
C745 C26 1.241 . S
C767 C454 1.153 . S
C763 C49 1.171 . S
C781 C5 1.234 . S
C785 C472 1.220 . S
C799 C62 1.220 . S
C803 C328 1.182 . S
C817 C73 1.245 . S
C821 C347 1.250 . S
C839 C370 1.096 . S
C835 C88 1.124 . S
C857 C393 1.202 . S
C853 C99 1.269 . S
C871 C60 1.293 . S
C875 C414 1.212 . S
C893 C433 1.052 . S
C889 C75 1.082 . S
C911 C455 1.234 . S
C907 C86 1.226 . S
C929 C473 1.201 . S
C925 C101 1.222 . S
C947 C329 1.205 . S
C943 C96 1.220 . S
C965 C496 1.073 . S
C961 C104 1.053 . S
C979 C122 1.178 . S
C983 C518 1.169 . S
C1001 C537 1.183 . S
C997 C130 1.262 . S
C1015 C57 1.174 . S
C1019 C477 1.114 . S
C1037 C371 1.257 . S
C1033 C70 1.270 . S
C1051 C117 1.004 . S
C1055 C559 1.005 . S
C1073 C582 1.096 . S
C1069 C143 1.122 . S
C1087 C164 1.341 . S
C1091 C330 1.258 . S
C1109 C581 1.216 . S
C1105 C169 1.208 . S
C1123 C192 1.459 . S
C1127 C372 1.315 . S
C1141 C200 1.226 . S
C1145 C556 1.215 . S
C1163 C412 1.235 . S
C1159 C179 1.282 . S
C1181 C519 1.230 . S
C1177 C182 1.312 . S
C1199 C452 1.347 . S
C1195 C203 1.337 . S
C1217 C602 1.381 . S
C1213 C161 1.354 . S
C1235 C326 1.331 . S
C1231 C216 1.341 1_545 S
C1249 C231 1.228 . S
C1253 C580 1.183 . S
C1271 C368 1.247 . S
C1267 C242 1.245 . S
C1285 C257 1.335 . S
C1289 C561 1.222 . S
C1303 C218 1.387 . S
C1307 C411 1.267 . S
C1321 C229 1.257 . S
C1325 C515 1.262 . S
C1343 C451 1.174 . S
C1339 C244 1.202 . S
C1357 C255 1.232 . S
C1361 C601 1.214 . S
C1375 C252 1.237 . S
C1379 C325 1.223 . S
C1393 C260 1.248 1_556 S
C1397 C494 1.247 . S
C1411 C278 1.161 . S
C1415 C430 1.149 . S
C1429 C286 1.289 . S
C1433 C540 1.210 . S
C1451 C600 1.138 . S
C1447 C213 1.221 . S
C1469 C367 1.200 . S
C1465 C226 1.213 . S
C1487 C392 1.166 . S
C1483 C273 1.173 . S
C1505 C348 1.207 . S
C1501 C299 1.287 . S
C1519 C36 1.307 . S
C1523 C624 1.189 . S
C1541 C577 1.080 . S
C1537 C39 1.076 . S
C1559 C642 1.206 . S
C1555 C8 1.269 . S
C1573 C18 1.270 . S
C1577 C560 1.255 . S
C1591 C47 1.277 . S
C1595 C497 1.284 . S
C1613 C516 1.193 . S
C1609 C0 1.247 . S
C1631 C538 1.153 . S
C1627 C23 1.172 . S
C1649 C598 1.224 . S
C1645 C31 1.237 . S
C1667 C619 1.199 . S
C1663 C153 1.225 . S
C1681 C112 1.247 . S
C1685 C578 1.247 . S
C1699 C127 1.129 . S
C1703 C643 1.104 . S
C1721 C558 1.196 . S
C1717 C138 1.272 . S
C1739 C495 1.232 . S
C1735 C151 1.288 . S
C1753 C114 1.085 . S
C1757 C517 1.065 . S
C1775 C539 1.227 . S
C1771 C125 1.232 . S
C1789 C140 1.222 . S
C1793 C599 1.201 . S
C1811 C620 1.207 . S
C1807 C135 1.222 . S
C1829 C409 1.066 . S
C1825 C65 1.045 . S
C1847 C434 1.169 . S
C1843 C83 1.184 . S
C1861 C91 1.249 . S
C1865 C453 1.189 . S
C1883 C603 1.087 . S
C1879 C148 1.163 . S
C1897 C109 1.265 . S
C1901 C644 1.259 . S
C1919 C388 1.014 . S
C1915 C78 1.012 . S
C1937 C351 1.070 . S
C1933 C52 1.130 . S
C1951 C190 1.329 . S
C1955 C621 1.233 . S
C1973 C350 1.204 . S
C1969 C195 1.203 . S
C1991 C645 1.338 . S
C1987 C166 1.457 . S
C2005 C174 1.212 . S
C2009 C391 1.200 . S
C2023 C205 1.284 . S
C2027 C493 1.246 . S
C2041 C156 1.315 . S
C2045 C435 1.236 . S
C2059 C177 1.334 . S
C2063 C536 1.341 . S
C2077 C187 1.366 . S
C2081 C476 1.370 . S
C2099 C623 1.341 . S
C2095 C307 1.341 . S
C2113 C270 1.228 . S
C2117 C349 1.182 . S
C2135 C641 1.233 . S
C2131 C281 1.243 . S
C2149 C296 1.332 . S
C2153 C390 1.236 . S
C2167 C309 1.388 . S
C2171 C498 1.266 . S
C2189 C431 1.264 . S
C2185 C268 1.258 . S
C2203 C283 1.203 . S
C2207 C535 1.171 . S
C2225 C475 1.202 . S
C2221 C294 1.226 . S
C2243 C622 1.236 . S
C2239 C291 1.248 . S
C2261 C413 1.247 . S
C2257 C221 1.250 . S
C2275 C239 1.145 . S
C2279 C514 1.130 . S
C2297 C456 1.234 . S
C2293 C247 1.302 . S
C2315 C474 1.135 . S
C2311 C304 1.217 . S
C2329 C265 1.211 . S
C2333 C640 1.197 . S
C2351 C557 1.180 . S
C2347 C234 1.176 . S
C2369 C579 1.223 . S
C2365 C208 1.295 . S
