# Generated by pormake.
# Topology ssa, (4,4)-cn, num edge types: 1
# Building blocks:
#     Node 0, Type 0, BuildingBlock: KOZSID_clean_sbu_0, # of connection points: 4
#     Node 1, Type 0, BuildingBlock: KOZSID_clean_sbu_0, # of connection points: 4
#     Node 2, Type 0, BuildingBlock: KOZSID_clean_sbu_0, # of connection points: 4
#     Node 3, Type 0, BuildingBlock: KOZSID_clean_sbu_0, # of connection points: 4
#     Node 4, Type 0, BuildingBlock: KOZSID_clean_sbu_0, # of connection points: 4
#     Node 5, Type 0, BuildingBlock: KOZSID_clean_sbu_0, # of connection points: 4
#     Node 6, Type 1, BuildingBlock: KOZSID_clean_sbu_0, # of connection points: 4
#     Node 7, Type 1, BuildingBlock: KOZSID_clean_sbu_0, # of connection points: 4
#     Node 8, Type 1, BuildingBlock: KOZSID_clean_sbu_0, # of connection points: 4
#     Node 9, Type 1, BuildingBlock: KOZSID_clean_sbu_0, # of connection points: 4
#     Node 10, Type 1, BuildingBlock: KOZSID_clean_sbu_0, # of connection points: 4
#     Node 11, Type 1, BuildingBlock: KOZSID_clean_sbu_0, # of connection points: 4
#     Edge 12, Type (0, 1), BuildingBlock: MIFKUJ_clean_linker_0, # of connection points: 2
#     Edge 13, Type (0, 1), BuildingBlock: MIFKUJ_clean_linker_0, # of connection points: 2
#     Edge 14, Type (0, 1), BuildingBlock: MIFKUJ_clean_linker_0, # of connection points: 2
#     Edge 15, Type (0, 1), BuildingBlock: MIFKUJ_clean_linker_0, # of connection points: 2
#     Edge 16, Type (0, 1), BuildingBlock: MIFKUJ_clean_linker_0, # of connection points: 2
#     Edge 17, Type (0, 1), BuildingBlock: MIFKUJ_clean_linker_0, # of connection points: 2
#     Edge 18, Type (0, 1), BuildingBlock: MIFKUJ_clean_linker_0, # of connection points: 2
#     Edge 19, Type (0, 1), BuildingBlock: MIFKUJ_clean_linker_0, # of connection points: 2
#     Edge 20, Type (0, 1), BuildingBlock: MIFKUJ_clean_linker_0, # of connection points: 2
#     Edge 21, Type (0, 1), BuildingBlock: MIFKUJ_clean_linker_0, # of connection points: 2
#     Edge 22, Type (0, 1), BuildingBlock: MIFKUJ_clean_linker_0, # of connection points: 2
#     Edge 23, Type (0, 1), BuildingBlock: MIFKUJ_clean_linker_0, # of connection points: 2
#     Edge 24, Type (0, 1), BuildingBlock: MIFKUJ_clean_linker_0, # of connection points: 2
#     Edge 25, Type (0, 1), BuildingBlock: MIFKUJ_clean_linker_0, # of connection points: 2
#     Edge 26, Type (0, 1), BuildingBlock: MIFKUJ_clean_linker_0, # of connection points: 2
#     Edge 27, Type (0, 1), BuildingBlock: MIFKUJ_clean_linker_0, # of connection points: 2
#     Edge 28, Type (0, 1), BuildingBlock: MIFKUJ_clean_linker_0, # of connection points: 2
#     Edge 29, Type (0, 1), BuildingBlock: MIFKUJ_clean_linker_0, # of connection points: 2
#     Edge 30, Type (0, 1), BuildingBlock: MIFKUJ_clean_linker_0, # of connection points: 2
#     Edge 31, Type (0, 1), BuildingBlock: MIFKUJ_clean_linker_0, # of connection points: 2
#     Edge 32, Type (0, 1), BuildingBlock: MIFKUJ_clean_linker_0, # of connection points: 2
#     Edge 33, Type (0, 1), BuildingBlock: MIFKUJ_clean_linker_0, # of connection points: 2
#     Edge 34, Type (0, 1), BuildingBlock: MIFKUJ_clean_linker_0, # of connection points: 2
#     Edge 35, Type (0, 1), BuildingBlock: MIFKUJ_clean_linker_0, # of connection points: 2
# Relax obj value: 0.007
# Max RMSD: 0.032
# Mean RMSD: 0.016
data_MOF--net-ssa--node1-KOZSID_clean_sbu_0--node2-KOZSID_clean_sbu_0--edge1-MIFKUJ_clean_linker_0
_symmetry_space_group_name_H-M    P1
_symmetry_Int_Tables_number       1
_symmetry_cell_setting            triclinic
loop_
_symmetry_equiv_pos_as_xyz
'x, y, z'
_cell_length_a     72.639523
_cell_length_b     73.977826
_cell_length_c     52.217528
_cell_angle_alpha  90.42563
_cell_angle_beta   92.536979
_cell_angle_gamma 121.88881
loop_
_atom_site_label
_atom_site_type_symbol
_atom_site_fract_x
_atom_site_fract_y
_atom_site_fract_z
_atom_type_partial_charge
C0 C 0.96304 0.50816 0.99315 0.0
C1 C 0.94528 0.50558 0.00546 0.0
C2 C 0.94483 0.49646 0.02821 0.0
C3 C 0.96235 0.49415 0.02861 0.0
N4 N 0.97411 0.50138 0.00757 0.0
Co5 Co 0.00114 0.50146 0.00061 0.0
N6 N 0.99968 0.48686 0.03339 0.0
C7 C 0.98393 0.47975 0.05036 0.0
C8 C 0.98699 0.4699 0.07075 0.0
C9 C 0.00593 0.4709 0.06673 0.0
C10 C 0.01348 0.48155 0.04413 0.0
N11 N 0.02853 0.50206 0.99403 0.0
C12 C 0.04014 0.49621 0.00903 0.0
C13 C 0.05917 0.50094 0.99794 0.0
C14 C 0.05952 0.50988 0.9751 0.0
C15 C 0.04091 0.51035 0.97362 0.0
N16 N 0.00228 0.5156 0.96751 0.0
C17 C 0.01717 0.52131 0.94964 0.0
C18 C 0.01311 0.52949 0.92821 0.0
C19 C 0.99438 0.52881 0.93245 0.0
C20 C 0.98814 0.52035 0.95645 0.0
N21 N 0.01888 0.52958 0.01883 0.0
C22 C 0.0464 0.56812 0.0468 0.0
C23 C 0.05073 0.56517 0.02182 0.0
C24 C 0.03677 0.546 0.00822 0.0
C25 C 0.02749 0.55182 0.05702 0.0
C26 C 0.01412 0.53284 0.04287 0.0
N27 N 0.98339 0.47332 0.98235 0.0
C28 C 0.97701 0.44964 0.94627 0.0
C29 C 0.95643 0.43481 0.95428 0.0
C30 C 0.94987 0.4391 0.97701 0.0
C31 C 0.96359 0.45819 0.99078 0.0
C32 C 0.99011 0.46873 0.96045 0.0
H33 H 0.95762 0.46043 0.00796 0.0
H34 H 0.0054 0.47963 0.95303 0.0
H35 H 0.04106 0.54467 0.98939 0.0
H36 H 1.00026 0.52091 0.052 0.0
C37 C 0.96729 0.48389 0.04756 0.0
C38 C 0.96831 0.51654 0.96751 0.0
C39 C 0.03413 0.48672 0.03411 0.0
C40 C 0.03477 0.51874 0.95352 0.0
H41 H 0.93364 0.50956 0.99851 0.0
H42 H 0.93287 0.49164 0.04248 0.0
H43 H 0.9769 0.46319 0.0869 0.0
H44 H 0.01348 0.46475 0.07926 0.0
H45 H 0.07175 0.49852 0.00564 0.0
H46 H 0.07203 0.5157 0.96141 0.0
H47 H 0.02251 0.53504 0.91135 0.0
H48 H 0.98611 0.53371 0.91916 0.0
H49 H 0.06522 0.57727 0.01303 0.0
H50 H 0.02311 0.55352 0.07605 0.0
H51 H 0.98269 0.44687 0.9287 0.0
H52 H 0.93414 0.42779 0.98409 0.0
C53 C 0.5399 0.01468 0.53689 0.0
C54 C 0.54465 0.00862 0.56016 0.0
C55 C 0.52605 0.99065 0.56665 0.0
C56 C 0.51105 0.98684 0.54716 0.0
N57 N 0.51901 0.00109 0.52836 0.0
Co58 Co 0.50243 0.00259 0.49748 0.0
N59 N 0.47458 0.97727 0.50821 0.0
C60 C 0.47179 0.96566 0.52921 0.0
C61 C 0.45114 0.94839 0.53061 0.0
C62 C 0.44008 0.94877 0.50906 0.0
C63 C 0.45467 0.96647 0.49577 0.0
N64 N 0.48586 0.00439 0.46689 0.0
C65 C 0.46468 0.99157 0.45908 0.0
C66 C 0.45952 0.99868 0.43698 0.0
C67 C 0.47829 0.01633 0.43015 0.0
C68 C 0.4937 0.01905 0.44851 0.0
N69 N 0.53027 0.02764 0.48649 0.0
C70 C 0.53336 0.03856 0.4648 0.0
C71 C 0.55435 0.0551 0.46273 0.0
C72 C 0.56527 0.05495 0.48459 0.0
C73 C 0.55019 0.03831 0.49877 0.0
N74 N 0.50814 0.98312 0.47756 0.0
C75 C 0.51594 0.95523 0.44927 0.0
C76 C 0.5166 0.9726 0.43786 0.0
C77 C 0.51281 0.98625 0.45222 0.0
C78 C 0.5113 0.95216 0.47516 0.0
C79 C 0.50734 0.96602 0.48871 0.0
N80 N 0.49676 0.02204 0.51739 0.0
C81 C 0.49626 0.05444 0.52092 0.0
C82 C 0.48956 0.05019 0.54606 0.0
C83 C 0.4865 0.03146 0.55647 0.0
C84 C 0.48996 0.01769 0.54189 0.0
C85 C 0.49992 0.04043 0.5072 0.0
H86 H 0.48717 0.00368 0.55094 0.0
H87 H 0.50537 0.04486 0.48837 0.0
H88 H 0.51362 0.99915 0.44231 0.0
H89 H 0.50366 0.96251 0.5082 0.0
C90 C 0.48912 0.97074 0.54663 0.0
C91 C 0.55525 0.03419 0.5245 0.0
C92 C 0.44928 0.97171 0.47079 0.0
C93 C 0.51588 0.03425 0.44806 0.0
H94 H 0.55978 0.01664 0.57168 0.0
H95 H 0.52356 0.98181 0.58391 0.0
H96 H 0.44501 0.93656 0.54519 0.0
H97 H 0.42331 0.93699 0.50355 0.0
H98 H 0.44392 0.99146 0.42647 0.0
H99 H 0.48055 0.02567 0.4134 0.0
H100 H 0.56076 0.06643 0.44762 0.0
H101 H 0.58224 0.06619 0.48992 0.0
H102 H 0.51973 0.9756 0.41777 0.0
H103 H 0.5109 0.93921 0.48518 0.0
H104 H 0.49853 0.06844 0.51158 0.0
H105 H 0.48172 0.02745 0.57596 0.0
C106 C 0.5354 0.52781 0.9635 0.0
C107 C 0.53871 0.53882 0.94104 0.0
C108 C 0.51959 0.53725 0.93406 0.0
C109 C 0.50571 0.5253 0.95243 0.0
N110 N 0.51489 0.51943 0.97103 0.0
Co111 Co 0.50007 0.50034 1.00011 0.0
N112 N 0.47148 0.49657 0.98857 0.0
C113 C 0.4674 0.50541 0.96823 0.0
C114 C 0.44645 0.50074 0.96592 0.0
C115 C 0.43661 0.48848 0.98627 0.0
C116 C 0.45221 0.48632 0.99978 0.0
N117 N 0.48519 0.48084 0.02879 0.0
C118 C 0.46449 0.47181 0.0358 0.0
C119 C 0.46065 0.45938 0.05705 0.0
C120 C 0.47977 0.46092 0.06401 0.0
C121 C 0.49408 0.47408 0.04663 0.0
N122 N 0.52871 0.50452 0.01206 0.0
C123 C 0.53305 0.49665 0.03323 0.0
C124 C 0.55433 0.5024 0.03641 0.0
C125 C 0.56411 0.51439 0.01584 0.0
C126 C 0.54809 0.5151 0.00118 0.0
N127 N 0.50648 0.52531 0.02216 0.0
C128 C 0.5145 0.56015 0.05394 0.0
C129 C 0.51693 0.54392 0.06362 0.0
C130 C 0.51286 0.52683 0.04759 0.0
C131 C 0.50813 0.55867 0.02795 0.0
C132 C 0.50426 0.5413 0.01257 0.0
N133 N 0.49366 0.47537 0.97808 0.0
C134 C 0.49563 0.44407 0.97084 0.0
C135 C 0.48556 0.44049 0.94628 0.0
C136 C 0.47952 0.45468 0.93806 0.0
C137 C 0.48376 0.47187 0.95404 0.0
C138 C 0.49939 0.46134 0.98629 0.0
H139 H 0.47893 0.48214 0.94644 0.0
H140 H 0.50714 0.46312 0.00473 0.0
H141 H 0.51492 0.51501 0.0563 0.0
H142 H 0.4993 0.54108 0.99302 0.0
C143 C 0.48375 0.51848 0.95205 0.0
C144 C 0.55171 0.5246 0.97614 0.0
C145 C 0.44837 0.47558 0.02397 0.0
C146 C 0.51638 0.4822 0.04824 0.0
H147 H 0.5532 0.54672 0.93034 0.0
H148 H 0.51604 0.5435 0.91716 0.0
H149 H 0.43933 0.50604 0.95151 0.0
H150 H 0.41999 0.48224 0.99095 0.0
H151 H 0.44572 0.45065 0.06692 0.0
H152 H 0.48306 0.45397 0.0804 0.0
H153 H 0.56166 0.49774 0.05133 0.0
H154 H 0.58094 0.52123 0.0116 0.0
H155 H 0.52216 0.54442 0.0835 0.0
H156 H 0.50572 0.57065 0.01952 0.0
H157 H 0.50098 0.43381 0.97808 0.0
H158 H 0.47136 0.45253 0.9194 0.0
C159 C 0.96362 0.45861 0.5136 0.0
C160 C 0.94374 0.44351 0.50166 0.0
C161 C 0.94228 0.45145 0.47869 0.0
C162 C 0.96124 0.47087 0.4779 0.0
N163 N 0.97486 0.47578 0.4989 0.0
Co164 Co 0.0039 0.50274 0.50595 0.0
N165 N 1.00102 0.51504 0.47291 0.0
C166 C 0.98394 0.50593 0.45545 0.0
C167 C 0.98688 0.51788 0.43434 0.0
C168 C 0.00714 0.53562 0.43838 0.0
C169 C 0.01541 0.53345 0.46185 0.0
N170 N 0.03308 0.52955 0.51282 0.0
C171 C 0.04454 0.54642 0.49778 0.0
C172 C 0.06463 0.56134 0.50941 0.0
C173 C 0.06609 0.55348 0.53245 0.0
C174 C 0.04689 0.53432 0.53359 0.0
N175 N 0.00665 0.49057 0.53916 0.0
C176 C 0.0235 0.49991 0.55692 0.0
C177 C 0.02049 0.48803 0.57811 0.0
C178 C 1.00039 0.47012 0.57385 0.0
C179 C 0.99225 0.47216 0.55021 0.0
N180 N 0.01814 0.49006 0.48802 0.0
C181 C 0.04215 0.47792 0.45964 0.0
C182 C 0.04844 0.48533 0.48512 0.0
C183 C 0.03629 0.49124 0.49885 0.0
C184 C 0.0228 0.47527 0.44923 0.0
C185 C 0.01103 0.4812 0.46374 0.0
N186 N 0.98968 0.51545 0.5239 0.0
C187 C 0.98672 0.53244 0.56184 0.0
C188 C 0.96663 0.5286 0.5525 0.0
C189 C 0.95887 0.51927 0.52798 0.0
C190 C 0.97059 0.51288 0.5141 0.0
C191 C 0.99798 0.52597 0.54723 0.0
H192 H 0.96353 0.50534 0.49584 0.0
H193 H 0.01309 0.52917 0.55552 0.0
H194 H 0.04226 0.49725 0.51792 0.0
H195 H 0.99662 0.47909 0.45458 0.0
C196 C 0.96609 0.48542 0.45852 0.0
C197 C 0.9706 0.45635 0.53939 0.0
C198 C 0.03739 0.5488 0.47217 0.0
C199 C 0.04171 0.5201 0.55341 0.0
H200 H 0.93133 0.42852 0.50904 0.0
H201 H 0.92874 0.4442 0.46456 0.0
H202 H 0.97587 0.51386 0.41763 0.0
H203 H 0.01513 0.54845 0.42524 0.0
H204 H 0.07708 0.5762 0.50181 0.0
H205 H 0.07971 0.56068 0.54647 0.0
H206 H 0.03147 0.49205 0.59485 0.0
H207 H 0.99247 0.45713 0.5868 0.0
H208 H 0.06296 0.48704 0.49433 0.0
H209 H 0.01717 0.46955 0.42957 0.0
H210 H 0.99356 0.54006 0.58057 0.0
H211 H 0.94335 0.51599 0.51997 0.0
C212 C 0.47398 0.99031 0.0488 0.0
C213 C 0.47474 0.99831 0.07325 0.0
C214 C 0.49345 0.01781 0.07591 0.0
C215 C 0.50313 0.0206 0.05315 0.0
N216 N 0.49168 0.0041 0.03595 0.0
Co217 Co 0.50045 0.0013 0.00085 0.0
N218 N 0.5289 0.02922 0.00577 0.0
C219 C 0.53639 0.04227 0.02698 0.0
C220 C 0.55627 0.06046 0.02466 0.0
C221 C 0.56184 0.05905 1.00046 0.0
C222 C 0.54497 0.03995 0.98938 0.0
N223 N 0.50899 0.99873 0.96553 0.0
C224 C 0.52674 0.01252 0.95277 0.0
C225 C 0.52602 0.00469 0.92825 0.0
C226 C 0.50701 0.98545 0.92522 0.0
C227 C 0.49726 0.98259 0.94797 0.0
N228 N 0.47222 0.97316 0.99616 0.0
C229 C 0.46499 0.95982 0.9752 0.0
C230 C 0.44526 0.94148 0.9777 0.0
C231 C 0.43964 0.94299 0.00183 0.0
C232 C 0.45641 0.96222 0.01278 0.0
N233 N 0.48659 0.01625 0.98631 0.0
C234 C 0.47144 0.04001 0.96179 0.0
C235 C 0.46563 0.02001 0.95192 0.0
C236 C 0.47316 0.0084 0.96452 0.0
C237 C 0.4838 0.04737 0.98498 0.0
C238 C 0.49114 0.0353 0.99686 0.0
N239 N 0.51429 0.98633 0.01534 0.0
C240 C 0.51957 0.95674 0.01378 0.0
C241 C 0.52936 0.96194 0.03856 0.0
C242 C 0.53268 0.98036 0.05086 0.0
C243 C 0.5253 0.99235 0.03887 0.0
C244 C 0.51214 0.96898 0.00268 0.0
H245 H 0.52819 0.00608 0.04933 0.0
H246 H 0.50429 0.96376 0.98409 0.0
H247 H 0.46835 0.99339 0.95586 0.0
H248 H 0.50099 0.04201 0.01411 0.0
C249 C 0.52377 0.03766 0.04818 0.0
C250 C 0.45664 0.96916 0.03915 0.0
C251 C 0.54458 0.03319 0.96292 0.0
C252 C 0.47713 0.96494 0.95346 0.0
H253 H 0.46328 0.99067 0.08797 0.0
H254 H 0.49964 0.02838 0.09277 0.0
H255 H 0.56539 0.07345 0.03867 0.0
H256 H 0.57649 0.07096 0.9918 0.0
H257 H 0.53797 0.01217 0.91396 0.0
H258 H 0.50095 0.97486 0.90839 0.0
H259 H 0.43612 0.92848 0.9637 0.0
H260 H 0.42491 0.93118 0.01046 0.0
H261 H 0.45569 0.01352 0.93422 0.0
H262 H 0.48867 0.06283 0.99333 0.0
H263 H 0.51719 0.943 0.00307 0.0
H264 H 0.54015 0.98514 0.0701 0.0
C265 C 0.51025 0.54573 0.50605 0.0
C266 C 0.50558 0.5583 0.52093 0.0
C267 C 0.49354 0.54602 0.54024 0.0
C268 C 0.49138 0.52668 0.53596 0.0
N269 N 0.5017 0.52597 0.5154 0.0
Co270 Co 0.50058 0.50032 0.50042 0.0
N271 N 0.48069 0.48154 0.52704 0.0
C272 C 0.47326 0.48755 0.54665 0.0
C273 C 0.46149 0.47164 0.56313 0.0
C274 C 0.46165 0.45449 0.55377 0.0
C275 C 0.4734 0.46089 0.53182 0.0
N276 N 0.49902 0.47466 0.48493 0.0
C277 C 0.48904 0.45442 0.49297 0.0
C278 C 0.49159 0.44126 0.47636 0.0
C279 C 0.50415 0.45377 0.4575 0.0
C280 C 0.50838 0.47373 0.46353 0.0
N281 N 0.52092 0.51911 0.47429 0.0
C282 C 0.52967 0.51353 0.45582 0.0
C283 C 0.54319 0.53004 0.44089 0.0
C284 C 0.5427 0.5471 0.45006 0.0
C285 C 0.5287 0.53986 0.46996 0.0
N286 N 0.52593 0.50608 0.52328 0.0
C287 C 0.56149 0.51333 0.55606 0.0
C288 C 0.55998 0.5077 0.53006 0.0
C289 C 0.54219 0.50402 0.51427 0.0
C290 C 0.54483 0.51536 0.56522 0.0
C291 C 0.52752 0.51189 0.54865 0.0
N292 N 0.47527 0.49466 0.47755 0.0
C293 C 0.45853 0.4902 0.43494 0.0
C294 C 0.44048 0.48929 0.44484 0.0
C295 C 0.44009 0.49077 0.47151 0.0
C296 C 0.45748 0.4935 0.48732 0.0
C297 C 0.47547 0.4927 0.45145 0.0
H298 H 0.45622 0.49479 0.5074 0.0
H299 H 0.48871 0.4933 0.44261 0.0
H300 H 0.54193 0.49942 0.49484 0.0
H301 H 0.51551 0.51381 0.55692 0.0
C302 C 0.47852 0.50853 0.54978 0.0
C303 C 0.52152 0.55262 0.48228 0.0
C304 C 0.4783 0.44727 0.51699 0.0
C305 C 0.52285 0.49221 0.45109 0.0
H306 H 0.50974 0.57443 0.51784 0.0
H307 H 0.48645 0.55038 0.555 0.0
H308 H 0.45426 0.4726 0.58037 0.0
H309 H 0.45441 0.43923 0.56267 0.0
H310 H 0.48557 0.42449 0.4782 0.0
H311 H 0.51017 0.44906 0.44182 0.0
H312 H 0.55155 0.52951 0.42452 0.0
H313 H 0.55088 0.56283 0.44225 0.0
H314 H 0.57253 0.50624 0.52169 0.0
H315 H 0.54484 0.51929 0.58523 0.0
H316 H 0.45988 0.48939 0.41445 0.0
H317 H 0.42636 0.48974 0.48032 0.0
C318 C 0.21075 0.48194 0.18757 0.0
C319 C 0.21459 0.50085 0.17741 0.0
C320 C 0.23358 0.51681 0.18901 0.0
C321 C 0.24031 0.50677 0.20537 0.0
N322 N 0.22699 0.48531 0.20462 0.0
Co323 Co 0.23046 0.46454 0.22558 0.0
N324 N 0.2572 0.48819 0.24466 0.0
C325 C 0.26673 0.50935 0.24114 0.0
C326 C 0.28526 0.52173 0.25636 0.0
C327 C 0.28786 0.50769 0.2704 0.0
C328 C 0.27059 0.48743 0.26301 0.0
N329 N 0.2339 0.44377 0.24663 0.0
C330 C 0.24941 0.4472 0.2649 0.0
C331 C 0.24561 0.42822 0.27482 0.0
C332 C 0.2273 0.41222 0.26206 0.0
C333 C 0.2209 0.42227 0.24526 0.0
N334 N 0.20367 0.44092 0.2065 0.0
C335 C 0.19452 0.41973 0.20935 0.0
C336 C 0.17558 0.40743 0.19475 0.0
C337 C 0.17221 0.42157 0.18205 0.0
C338 C 0.18944 0.44179 0.18955 0.0
N339 N 0.24891 0.46323 0.19955 0.0
C340 C 0.27788 0.46173 0.16675 0.0
C341 C 0.26041 0.44306 0.17573 0.0
C342 C 0.24619 0.44417 0.19186 0.0
C343 C 0.28 0.48106 0.17349 0.0
C344 C 0.26545 0.48144 0.18971 0.0
N345 N 0.21209 0.4658 0.25156 0.0
C346 C 0.18168 0.44793 0.27856 0.0
C347 C 0.18449 0.46735 0.28644 0.0
C348 C 0.20163 0.48603 0.27698 0.0
C349 C 0.21514 0.48489 0.25971 0.0
C350 C 0.19557 0.44753 0.2613 0.0
H351 H 0.22779 0.49965 0.25296 0.0
H352 H 0.19249 0.43224 0.25599 0.0
H353 H 0.23343 0.4294 0.19825 0.0
H354 H 0.2682 0.4967 0.19429 0.0
C355 C 0.25834 0.5171 0.22273 0.0
C356 C 0.19099 0.46134 0.18124 0.0
C357 C 0.26813 0.468 0.27329 0.0
C358 C 0.20302 0.41196 0.22763 0.0
H359 H 0.20444 0.50295 0.16347 0.0
H360 H 0.24125 0.53374 0.18634 0.0
H361 H 0.29586 0.5389 0.25684 0.0
H362 H 0.30121 0.51195 0.28418 0.0
H363 H 0.25517 0.42615 0.28963 0.0
H364 H 0.21967 0.39527 0.26459 0.0
H365 H 0.16501 0.39026 0.19421 0.0
H366 H 0.15827 0.4174 0.16932 0.0
H367 H 0.25806 0.42766 0.17106 0.0
H368 H 0.29295 0.49594 0.16646 0.0
H369 H 0.16887 0.43306 0.28576 0.0
H370 H 0.20437 0.50145 0.28242 0.0
C371 C 0.72446 0.21468 0.70049 0.0
C372 C 0.70857 0.21866 0.6921 0.0
C373 C 0.71135 0.23517 0.70713 0.0
C374 C 0.72862 0.24022 0.72383 0.0
N375 N 0.73728 0.22815 0.72017 0.0
Co376 Co 0.76167 0.22913 0.74117 0.0
N377 N 0.76477 0.25243 0.76435 0.0
C378 C 0.75299 0.26175 0.7629 0.0
C379 C 0.7591 0.27749 0.78131 0.0
C380 C 0.77602 0.27854 0.79513 0.0
C381 C 0.77933 0.26338 0.78419 0.0
N382 N 0.78578 0.22983 0.76239 0.0
C383 C 0.79834 0.24295 0.78244 0.0
C384 C 0.81387 0.23852 0.7911 0.0
C385 C 0.81101 0.22203 0.77603 0.0
C386 C 0.79408 0.2174 0.759 0.0
N387 N 0.75881 0.20609 0.71774 0.0
C388 C 0.77111 0.19733 0.71857 0.0
C389 C 0.76527 0.18187 0.69986 0.0
C390 C 0.748 0.18044 0.68643 0.0
C391 C 0.74426 0.19511 0.69792 0.0
N392 N 0.78328 0.25114 0.71874 0.0
C393 C 0.81491 0.28369 0.68897 0.0
C394 C 0.81681 0.26665 0.69675 0.0
C395 C 0.80094 0.25068 0.71141 0.0
C396 C 0.79665 0.28384 0.696 0.0
C397 C 0.78126 0.26765 0.71074 0.0
N398 N 0.74007 0.20722 0.76364 0.0
C399 C 0.72521 0.17381 0.78528 0.0
C400 C 0.70876 0.17597 0.7949 0.0
C401 C 0.70844 0.19415 0.78871 0.0
C402 C 0.72404 0.20936 0.77325 0.0
C403 C 0.74053 0.18946 0.76978 0.0
H404 H 0.72272 0.22272 0.76934 0.0
H405 H 0.75252 0.18679 0.76284 0.0
H406 H 0.80345 0.23826 0.71681 0.0
H407 H 0.76795 0.26896 0.71556 0.0
C408 C 0.73647 0.25558 0.74382 0.0
C409 C 0.72604 0.19724 0.69013 0.0
C410 C 0.79697 0.26053 0.79281 0.0
C411 C 0.78696 0.20284 0.73827 0.0
H412 H 0.69596 0.21022 0.67707 0.0
H413 H 0.70158 0.24227 0.70641 0.0
H414 H 0.75224 0.28722 0.78414 0.0
H415 H 0.78513 0.28945 0.81123 0.0
H416 H 0.82643 0.24671 0.80624 0.0
H417 H 0.82065 0.2148 0.77677 0.0
H418 H 0.77233 0.17234 0.69681 0.0
H419 H 0.73885 0.1695 0.67037 0.0
H420 H 0.8307 0.2658 0.69203 0.0
H421 H 0.79407 0.29637 0.69007 0.0
H422 H 0.72609 0.15994 0.78933 0.0
H423 H 0.69632 0.19684 0.796 0.0
C424 C 0.52343 0.72926 0.22501 0.0
C425 C 0.50349 0.71297 0.21445 0.0
C426 C 0.48803 0.71537 0.22493 0.0
C427 C 0.49933 0.73295 0.24115 0.0
N428 N 0.52113 0.74211 0.2415 0.0
Co429 Co 0.54359 0.76771 0.26287 0.0
N430 N 0.52073 0.77106 0.27855 0.0
C431 C 0.499 0.75886 0.27328 0.0
C432 C 0.48746 0.76578 0.28556 0.0
C433 C 0.50267 0.78358 0.29941 0.0
C434 C 0.52275 0.78639 0.29498 0.0
N435 N 0.56601 0.79305 0.28461 0.0
C436 C 0.56372 0.80588 0.30117 0.0
C437 C 0.58357 0.82148 0.31271 0.0
C438 C 0.59898 0.81871 0.30271 0.0
C439 C 0.58773 0.80155 0.28586 0.0
N440 N 0.56648 0.76464 0.24676 0.0
C441 C 0.58824 0.77725 0.25134 0.0
C442 C 0.59985 0.77114 0.23765 0.0
C443 C 0.58461 0.75349 0.22352 0.0
C444 C 0.5645 0.74987 0.2294 0.0
N445 N 0.54556 0.78682 0.23529 0.0
C446 C 0.54807 0.81526 0.19803 0.0
C447 C 0.56684 0.81806 0.21054 0.0
C448 C 0.56523 0.80377 0.22895 0.0
C449 C 0.52807 0.79772 0.20413 0.0
C450 C 0.52721 0.78378 0.22252 0.0
N451 N 0.54164 0.74856 0.29047 0.0
C452 C 0.55873 0.73528 0.3188 0.0
C453 C 0.53859 0.71941 0.32693 0.0
C454 C 0.52006 0.71874 0.31714 0.0
C455 C 0.52193 0.73332 0.29902 0.0
C456 C 0.55988 0.74967 0.30086 0.0
H457 H 0.50716 0.7317 0.29196 0.0
H458 H 0.57571 0.76137 0.29552 0.0
H459 H 0.58011 0.80688 0.23794 0.0
H460 H 0.51147 0.77084 0.2263 0.0
C461 C 0.48994 0.74135 0.25607 0.0
C462 C 0.54401 0.73169 0.21886 0.0
C463 C 0.54327 0.80421 0.30623 0.0
C464 C 0.5972 0.79389 0.26984 0.0
H465 H 0.50041 0.70056 0.20064 0.0
H466 H 0.47061 0.70546 0.22121 0.0
H467 H 0.47008 0.75896 0.28417 0.0
H468 H 0.49928 0.79352 0.31104 0.0
H469 H 0.58663 0.83378 0.32668 0.0
H470 H 0.61636 0.82832 0.30687 0.0
H471 H 0.61728 0.77834 0.23834 0.0
H472 H 0.58794 0.74411 0.21072 0.0
H473 H 0.58276 0.83121 0.20619 0.0
H474 H 0.513 0.79496 0.19523 0.0
H475 H 0.57357 0.7366 0.32625 0.0
H476 H 0.50408 0.70664 0.32285 0.0
C477 C 0.75212 0.55737 0.73977 0.0
C478 C 0.75571 0.57691 0.73228 0.0
C479 C 0.77374 0.59219 0.74618 0.0
C480 C 0.78021 0.58122 0.76122 0.0
N481 N 0.76754 0.55981 0.75759 0.0
Co482 Co 0.77095 0.53797 0.77611 0.0
N483 N 0.79829 0.56055 0.79534 0.0
C484 C 0.80818 0.58187 0.7932 0.0
C485 C 0.8273 0.59336 0.80775 0.0
C486 C 0.83002 0.57849 0.81959 0.0
C487 C 0.81231 0.55871 0.81153 0.0
N488 N 0.77377 0.51613 0.7955 0.0
C489 C 0.78962 0.51851 0.81253 0.0
C490 C 0.7852 0.49903 0.82138 0.0
C491 C 0.76594 0.48382 0.8095 0.0
C492 C 0.75971 0.49479 0.7941 0.0
N493 N 0.74428 0.51533 0.75588 0.0
C494 C 0.73494 0.49399 0.75739 0.0
C495 C 0.71674 0.48235 0.74142 0.0
C496 C 0.7143 0.49708 0.72882 0.0
C497 C 0.73132 0.51701 0.73778 0.0
N498 N 0.78898 0.53755 0.7491 0.0
C499 C 0.8167 0.53748 0.71332 0.0
C500 C 0.80137 0.51865 0.72445 0.0
C501 C 0.78765 0.51901 0.74201 0.0
C502 C 0.8175 0.55622 0.71976 0.0
C503 C 0.80364 0.55592 0.73763 0.0
N504 N 0.75286 0.53847 0.80325 0.0
C505 C 0.7198 0.52076 0.82598 0.0
C506 C 0.72542 0.53979 0.83883 0.0
C507 C 0.74543 0.55799 0.8342 0.0
C508 C 0.7587 0.55702 0.81641 0.0
C509 C 0.73373 0.52041 0.80872 0.0
H510 H 0.77346 0.57158 0.8135 0.0
H511 H 0.72839 0.50536 0.79977 0.0
H512 H 0.77627 0.50415 0.74984 0.0
H513 H 0.80533 0.5708 0.74218 0.0
C514 C 0.79891 0.59056 0.77758 0.0
C515 C 0.73394 0.53699 0.72924 0.0
C516 C 0.80963 0.53867 0.81971 0.0
C517 C 0.74237 0.48539 0.77579 0.0
H518 H 0.74636 0.57986 0.7181 0.0
H519 H 0.78143 0.60929 0.74514 0.0
H520 H 0.83805 0.61051 0.80942 0.0
H521 H 0.84355 0.58179 0.8326 0.0
H522 H 0.79516 0.49599 0.83447 0.0
H523 H 0.75792 0.46673 0.81104 0.0
H524 H 0.70612 0.4652 0.73974 0.0
H525 H 0.70112 0.49345 0.71506 0.0
H526 H 0.79998 0.50369 0.71963 0.0
H527 H 0.82921 0.57119 0.71163 0.0
H528 H 0.70442 0.50618 0.82857 0.0
H529 H 0.75089 0.57305 0.84409 0.0
C530 C 0.25506 0.80741 0.30281 0.0
C531 C 0.25053 0.82272 0.31006 0.0
C532 C 0.23359 0.81961 0.29428 0.0
C533 C 0.22886 0.80281 0.27822 0.0
N534 N 0.24158 0.79478 0.28293 0.0
Co535 Co 0.24145 0.77151 0.26275 0.0
N536 N 0.21737 0.76791 0.23858 0.0
C537 C 0.20694 0.77855 0.2396 0.0
C538 C 0.19046 0.77198 0.22115 0.0
C539 C 0.19019 0.75604 0.20756 0.0
C540 C 0.20674 0.75394 0.2185 0.0
N541 N 0.24171 0.74862 0.24226 0.0
C542 C 0.22915 0.7369 0.22139 0.0
C543 C 0.23495 0.72292 0.2126 0.0
C544 C 0.25162 0.72572 0.22871 0.0
C545 C 0.2551 0.74124 0.24624 0.0
N546 N 0.26516 0.77475 0.28726 0.0
C547 C 0.27462 0.76315 0.28729 0.0
C548 C 0.2901 0.76881 0.30684 0.0
C549 C 0.29075 0.78516 0.31996 0.0
C550 C 0.27569 0.78864 0.30743 0.0
N551 N 0.21942 0.74964 0.28494 0.0
C552 C 0.18817 0.71822 0.31602 0.0
C553 C 0.20607 0.7175 0.30887 0.0
C554 C 0.22123 0.7331 0.29335 0.0
C555 C 0.18612 0.73492 0.30728 0.0
C556 C 0.20189 0.75042 0.29206 0.0
N557 N 0.26347 0.79327 0.24049 0.0
C558 C 0.29788 0.80874 0.22058 0.0
C559 C 0.2943 0.82316 0.20756 0.0
C560 C 0.27508 0.82256 0.21182 0.0
C561 C 0.26013 0.80775 0.22833 0.0
C562 C 0.28241 0.79404 0.23662 0.0
H563 H 0.24591 0.80823 0.23083 0.0
H564 H 0.28617 0.78345 0.24564 0.0
H565 H 0.23421 0.7313 0.28832 0.0
H566 H 0.19954 0.76287 0.28628 0.0
C567 C 0.21302 0.79468 0.25812 0.0
C568 C 0.27286 0.80606 0.31459 0.0
C569 C 0.21122 0.73799 0.20966 0.0
C570 C 0.26979 0.74818 0.26756 0.0
H571 H 0.25883 0.83516 0.32485 0.0
H572 H 0.22594 0.82882 0.29415 0.0
H573 H 0.17977 0.77791 0.2181 0.0
H574 H 0.17889 0.74687 0.19162 0.0
H575 H 0.22766 0.71167 0.19642 0.0
H576 H 0.25992 0.71715 0.22803 0.0
H577 H 0.30013 0.76222 0.31068 0.0
H578 H 0.30147 0.7939 0.33651 0.0
H579 H 0.20821 0.7047 0.31486 0.0
H580 H 0.17258 0.73622 0.31248 0.0
H581 H 0.31268 0.80878 0.21864 0.0
H582 H 0.2713 0.8332 0.20216 0.0
C583 C 0.44037 0.25363 0.76983 0.0
C584 C 0.42036 0.25035 0.77551 0.0
C585 C 0.40501 0.23261 0.76159 0.0
C586 C 0.41648 0.22614 0.74821 0.0
N587 N 0.43824 0.23856 0.75287 0.0
Co588 Co 0.46096 0.23547 0.73641 0.0
N589 N 0.43835 0.20907 0.71636 0.0
C590 C 0.41654 0.1994 0.71711 0.0
C591 C 0.40511 0.18131 0.70175 0.0
C592 C 0.4205 0.17906 0.69076 0.0
C593 C 0.44055 0.19596 0.70017 0.0
N594 N 0.48373 0.23285 0.71927 0.0
C595 C 0.48169 0.21768 0.70255 0.0
C596 C 0.50186 0.2217 0.69608 0.0
C597 C 0.5171 0.24012 0.70886 0.0
C598 C 0.50552 0.24625 0.72253 0.0
N599 N 0.48359 0.26137 0.75722 0.0
C600 C 0.50537 0.27043 0.75745 0.0
C601 C 0.51678 0.28781 0.77395 0.0
C602 C 0.50138 0.29004 0.78496 0.0
C603 C 0.4814 0.27386 0.7744 0.0
N604 N 0.4605 0.21725 0.76432 0.0
C605 C 0.45957 0.18952 0.80148 0.0
C606 C 0.47911 0.20502 0.79169 0.0
C607 C 0.47923 0.21871 0.77342 0.0
C608 C 0.44056 0.18854 0.79304 0.0
C609 C 0.44137 0.20242 0.77451 0.0
N610 N 0.46137 0.2537 0.70844 0.0
C611 C 0.48074 0.28564 0.68427 0.0
C612 C 0.46159 0.28087 0.67068 0.0
C613 C 0.44242 0.26196 0.67593 0.0
C614 C 0.44267 0.24879 0.69476 0.0
C615 C 0.4803 0.27188 0.7027 0.0
H616 H 0.42745 0.23483 0.69798 0.0
H617 H 0.49546 0.27647 0.71226 0.0
H618 H 0.49466 0.23017 0.76675 0.0
H619 H 0.42628 0.2006 0.76844 0.0
C620 C 0.40729 0.20811 0.73182 0.0
C621 C 0.4609 0.27139 0.78086 0.0
C622 C 0.46115 0.19881 0.69312 0.0
C623 C 0.51465 0.26311 0.74068 0.0
H624 H 0.4172 0.25983 0.78836 0.0
H625 H 0.38757 0.22527 0.76131 0.0
H626 H 0.38765 0.17101 0.69882 0.0
H627 H 0.41731 0.16639 0.67731 0.0
H628 H 0.50535 0.21209 0.68394 0.0
H629 H 0.53457 0.2477 0.70897 0.0
H630 H 0.53422 0.2979 0.77722 0.0
H631 H 0.50451 0.30236 0.79894 0.0
H632 H 0.4943 0.20657 0.79806 0.0
H633 H 0.42503 0.1767 0.80012 0.0
H634 H 0.49603 0.30018 0.6812 0.0
H635 H 0.4272 0.25723 0.66557 0.0
H636 H 0.04713 0.45907 0.02324 0.0
H637 H 0.07277 0.45338 0.04851 0.0
H638 H 0.07971 0.499 0.10625 0.0
H639 H 0.055 0.50551 0.08016 0.0
H640 H 0.11732 0.50558 0.09958 0.0
H641 H 0.04876 0.44278 0.11323 0.0
H642 H 0.01315 0.41063 0.10112 0.0
H643 H 0.04452 0.38373 0.06213 0.0
H644 H 0.08032 0.41587 0.07369 0.0
H645 H 0.16664 0.47655 0.19787 0.0
H646 H 0.13847 0.479 0.1733 0.0
H647 H 0.14561 0.44744 0.10818 0.0
H648 H 0.17417 0.4454 0.13262 0.0
H649 H 0.10081 0.4331 0.11919 0.0
H650 H 0.16987 0.49761 0.107 0.0
H651 H 0.20469 0.52936 0.12244 0.0
H652 H 0.17058 0.55264 0.1627 0.0
H653 H 0.13554 0.52082 0.14785 0.0
C654 C 0.05426 0.4679 0.0413 0.0
C655 C 0.04924 0.48277 0.04978 0.0
C656 C 0.06873 0.46452 0.05587 0.0
C657 C 0.078 0.4755 0.07958 0.0
C658 C 0.07284 0.49031 0.08808 0.0
C659 C 0.05866 0.49395 0.07328 0.0
C660 C 0.0934 0.47193 0.09528 0.0
C661 C 0.11349 0.48971 0.10412 0.0
C662 C 0.08871 0.45123 0.101 0.0
C663 C 0.06721 0.43183 0.09412 0.0
C664 C 0.04806 0.43007 0.10192 0.0
C665 C 0.02784 0.41184 0.09518 0.0
C666 C 0.02657 0.39517 0.08082 0.0
C667 C 0.04553 0.39667 0.07323 0.0
C668 C 0.06579 0.41488 0.07989 0.0
C669 C 0.16196 0.46994 0.1784 0.0
C670 C 0.17238 0.46068 0.1671 0.0
C671 C 0.14594 0.47135 0.16442 0.0
C672 C 0.14002 0.46346 0.13891 0.0
C673 C 0.14989 0.45353 0.12787 0.0
C674 C 0.16613 0.45235 0.14179 0.0
C675 C 0.12446 0.4667 0.12337 0.0
C676 C 0.10445 0.4489 0.11459 0.0
C677 C 0.12904 0.48736 0.11805 0.0
C678 C 0.15009 0.50673 0.1265 0.0
C679 C 0.1698 0.50943 0.11928 0.0
C680 C 0.18957 0.52745 0.12791 0.0
C681 C 0.18985 0.54299 0.14359 0.0
C682 C 0.17034 0.54058 0.15058 0.0
C683 C 0.15052 0.52256 0.14205 0.0
H684 H 0.20518 0.55691 0.15027 0.0
H685 H 0.0109 0.38107 0.07561 0.0
H686 H 0.5925 0.03592 0.54002 0.0
H687 H 0.6226 0.06345 0.56812 0.0
H688 H 0.59071 0.09884 0.5698 0.0
H689 H 0.56042 0.07102 0.54245 0.0
H690 H 0.65142 0.10506 0.56518 0.0
H691 H 0.59704 0.12007 0.62921 0.0
H692 H 0.55944 0.10037 0.64305 0.0
H693 H 0.5563 0.04119 0.63209 0.0
H694 H 0.59396 0.06054 0.61862 0.0
H695 H 0.7162 0.20023 0.64007 0.0
H696 H 0.68747 0.17183 0.61154 0.0
H697 H 0.66804 0.12825 0.67363 0.0
H698 H 0.69645 0.15683 0.7022 0.0
H699 H 0.63348 0.12366 0.6481 0.0
H700 H 0.69812 0.12663 0.62736 0.0
H701 H 0.73605 0.14356 0.6153 0.0
H702 H 0.71964 0.16131 0.54374 0.0
H703 H 0.68166 0.14481 0.55558 0.0
C704 C 0.59211 0.04967 0.54644 0.0
C705 C 0.57424 0.05141 0.53962 0.0
C706 C 0.60924 0.06536 0.56229 0.0
C707 C 0.60867 0.08297 0.57135 0.0
C708 C 0.59124 0.08516 0.56341 0.0
C709 C 0.57407 0.0694 0.54777 0.0
C710 C 0.62583 0.09866 0.58991 0.0
C711 C 0.64753 0.10916 0.5833 0.0
C712 C 0.62074 0.10353 0.61385 0.0
C713 C 0.59827 0.09177 0.62268 0.0
C714 C 0.58837 0.10287 0.62992 0.0
C715 C 0.56704 0.09175 0.63768 0.0
C716 C 0.55547 0.06954 0.63838 0.0
C717 C 0.56525 0.05839 0.63147 0.0
C718 C 0.58659 0.06943 0.62377 0.0
C719 C 0.70559 0.1846 0.64751 0.0
C720 C 0.70823 0.18052 0.67313 0.0
C721 C 0.68936 0.16841 0.63128 0.0
C722 C 0.67579 0.1479 0.64044 0.0
C723 C 0.67832 0.14397 0.66621 0.0
C724 C 0.69448 0.16018 0.68245 0.0
C725 C 0.65905 0.13049 0.6231 0.0
C726 C 0.6374 0.1196 0.62997 0.0
C727 C 0.66428 0.12484 0.59977 0.0
C728 C 0.68707 0.13464 0.59247 0.0
C729 C 0.70263 0.13428 0.60914 0.0
C730 C 0.72414 0.14379 0.60233 0.0
C731 C 0.73026 0.15354 0.57879 0.0
C732 C 0.71487 0.15377 0.56198 0.0
C733 C 0.69335 0.14433 0.56873 0.0
H734 H 0.74692 0.16088 0.57354 0.0
H735 H 0.53894 0.06097 0.64432 0.0
H736 H 0.5338 0.60234 0.04233 0.0
H737 H 0.53988 0.63195 0.0701 0.0
H738 H 0.5109 0.58902 0.13185 0.0
H739 H 0.50391 0.55919 0.1039 0.0
H740 H 0.49653 0.61511 0.12933 0.0
H741 H 0.56667 0.62338 0.12988 0.0
H742 H 0.59895 0.62714 0.11088 0.0
H743 H 0.61182 0.68469 0.07571 0.0
H744 H 0.57943 0.68112 0.09423 0.0
H745 H 0.5316 0.69138 0.23138 0.0
H746 H 0.5283 0.66294 0.20328 0.0
H747 H 0.55233 0.70635 0.14113 0.0
H748 H 0.55569 0.73482 0.16939 0.0
H749 H 0.56957 0.68067 0.14342 0.0
H750 H 0.49941 0.67234 0.14373 0.0
H751 H 0.46779 0.66888 0.16415 0.0
H752 H 0.45532 0.61122 0.19863 0.0
H753 H 0.48712 0.61453 0.17878 0.0
C754 C 0.52852 0.59913 0.06174 0.0
C755 C 0.51842 0.57833 0.07086 0.0
C756 C 0.53224 0.61615 0.07771 0.0
C757 C 0.52613 0.61281 0.10323 0.0
C758 C 0.51586 0.59205 0.1123 0.0
C759 C 0.51206 0.57501 0.09633 0.0
C760 C 0.53016 0.63085 0.12041 0.0
C761 C 0.51256 0.6293 0.13264 0.0
C762 C 0.55098 0.64964 0.12434 0.0
C763 C 0.57049 0.65186 0.11323 0.0
C764 C 0.57628 0.63674 0.11793 0.0
C765 C 0.59462 0.63886 0.10727 0.0
C766 C 0.60739 0.65611 0.09204 0.0
C767 C 0.60189 0.67132 0.08748 0.0
C768 C 0.58355 0.66927 0.09807 0.0
C769 C 0.53636 0.6948 0.21178 0.0
C770 C 0.54385 0.71512 0.20239 0.0
C771 C 0.53443 0.67861 0.19575 0.0
C772 C 0.53984 0.68246 0.17001 0.0
C773 C 0.54806 0.70303 0.1609 0.0
C774 C 0.54995 0.71923 0.17696 0.0
C775 C 0.53598 0.66478 0.15239 0.0
C776 C 0.55356 0.66644 0.14005 0.0
C777 C 0.51516 0.64605 0.1484 0.0
C778 C 0.49577 0.64378 0.15994 0.0
C779 C 0.49001 0.65899 0.15579 0.0
C780 C 0.47205 0.65705 0.16726 0.0
C781 C 0.45958 0.63987 0.18272 0.0
C782 C 0.46501 0.62454 0.18667 0.0
C783 C 0.48299 0.62643 0.17531 0.0
H784 H 0.44569 0.6384 0.1916 0.0
H785 H 0.62158 0.65772 0.08381 0.0
H786 H 0.94373 0.54738 0.53959 0.0
H787 H 0.91878 0.55106 0.56618 0.0
H788 H 0.93378 0.52236 0.62876 0.0
H789 H 0.95855 0.51852 0.60236 0.0
H790 H 0.88931 0.50354 0.61665 0.0
H791 H 0.95339 0.57359 0.63253 0.0
H792 H 0.98394 0.60831 0.62002 0.0
H793 H 0.9392 0.62259 0.58344 0.0
H794 H 0.90837 0.5878 0.59542 0.0
H795 H 0.84059 0.51925 0.72022 0.0
H796 H 0.8664 0.51959 0.69152 0.0
H797 H 0.85359 0.55639 0.63806 0.0
H798 H 0.828 0.55646 0.66711 0.0
H799 H 0.89573 0.57141 0.64257 0.0
H800 H 0.83167 0.50273 0.62711 0.0
H801 H 0.80048 0.46792 0.63829 0.0
H802 H 0.84392 0.4506 0.67159 0.0
H803 H 0.87538 0.48544 0.66095 0.0
C804 C 0.94179 0.54202 0.55909 0.0
C805 C 0.95308 0.53272 0.56896 0.0
C806 C 0.92766 0.54422 0.57425 0.0
C807 C 0.92453 0.53701 0.59939 0.0
C808 C 0.93604 0.52804 0.60939 0.0
C809 C 0.95029 0.52602 0.59437 0.0
C810 C 0.90843 0.53772 0.61494 0.0
C811 C 0.8908 0.51838 0.62258 0.0
C812 C 0.91007 0.55706 0.62179 0.0
C813 C 0.92859 0.57799 0.61462 0.0
C814 C 0.95007 0.58404 0.6216 0.0
C815 C 0.96744 0.60376 0.61466 0.0
C816 C 0.96352 0.61762 0.60088 0.0
C817 C 0.94221 0.61182 0.59408 0.0
C818 C 0.92479 0.59211 0.60096 0.0
C819 C 0.84317 0.52727 0.70226 0.0
C820 C 0.83218 0.53765 0.69573 0.0
C821 C 0.8579 0.52746 0.68588 0.0
C822 C 0.86162 0.53769 0.66243 0.0
C823 C 0.8509 0.54835 0.65603 0.0
C824 C 0.83631 0.54837 0.67258 0.0
C825 C 0.87674 0.5372 0.64473 0.0
C826 C 0.89413 0.55655 0.63656 0.0
C827 C 0.87477 0.51782 0.63711 0.0
C828 C 0.85588 0.49678 0.64341 0.0
C829 C 0.83457 0.49156 0.63698 0.0
C830 C 0.81685 0.47181 0.6432 0.0
C831 C 0.82022 0.45707 0.65569 0.0
C832 C 0.84133 0.46204 0.66193 0.0
C833 C 0.85912 0.48177 0.65579 0.0
H834 H 0.80647 0.4418 0.66049 0.0
H835 H 0.97699 0.63288 0.59552 0.0
H836 H 0.44958 0.93164 0.05709 0.0
H837 H 0.42123 0.90715 0.08519 0.0
H838 H 0.39713 0.94931 0.08823 0.0
H839 H 0.42519 0.97356 0.05963 0.0
H840 H 0.40231 0.9343 0.13724 0.0
H841 H 0.36985 0.90744 0.05239 0.0
H842 H 0.36884 0.89476 0.00826 0.0
H843 H 0.37338 0.84305 0.03743 0.0
H844 H 0.37483 0.85567 0.08178 0.0
H845 H 0.30523 0.86425 0.19807 0.0
H846 H 0.33151 0.88902 0.16876 0.0
H847 H 0.34732 0.84238 0.14824 0.0
H848 H 0.31998 0.81699 0.17598 0.0
H849 H 0.34619 0.86056 0.10743 0.0
H850 H 0.38013 0.88705 0.19158 0.0
H851 H 0.38363 0.90013 0.23621 0.0
H852 H 0.37867 0.95224 0.20954 0.0
H853 H 0.37482 0.9393 0.16477 0.0
C854 C 0.43815 0.93557 0.06374 0.0
C855 C 0.4395 0.95443 0.05634 0.0
C856 C 0.42201 0.92163 0.07975 0.0
C857 C 0.40706 0.92641 0.08876 0.0
C858 C 0.40855 0.94537 0.08156 0.0
C859 C 0.4245 0.95916 0.06525 0.0
C860 C 0.38975 0.9115 0.10549 0.0
C861 C 0.38983 0.91826 0.13068 0.0
C862 C 0.37386 0.89043 0.09707 0.0
C863 C 0.37265 0.88262 0.07042 0.0
C864 C 0.37081 0.89347 0.04941 0.0
C865 C 0.37014 0.88628 0.02435 0.0
C866 C 0.37109 0.86813 0.02004 0.0
C867 C 0.37266 0.85711 0.0408 0.0
C868 C 0.3734 0.86427 0.0659 0.0
C869 C 0.31402 0.85908 0.18707 0.0
C870 C 0.31045 0.83853 0.18969 0.0
C871 C 0.32935 0.87344 0.17053 0.0
C872 C 0.34182 0.86781 0.15657 0.0
C873 C 0.33807 0.84724 0.15886 0.0
C874 C 0.32255 0.83278 0.17508 0.0
C875 C 0.3587 0.88322 0.1395 0.0
C876 C 0.35858 0.87658 0.11415 0.0
C877 C 0.37476 0.90434 0.14791 0.0
C878 C 0.37696 0.91208 0.17484 0.0
C879 C 0.3796 0.90119 0.19525 0.0
C880 C 0.38167 0.9086 0.22057 0.0
C881 C 0.38133 0.92698 0.2257 0.0
C882 C 0.3789 0.93799 0.20553 0.0
C883 C 0.37678 0.93064 0.18018 0.0
H884 H 0.38302 0.93275 0.24527 0.0
H885 H 0.37057 0.86259 0.00063 0.0
H886 H 0.43997 0.41073 0.52594 0.0
H887 H 0.43518 0.37953 0.54839 0.0
H888 H 0.5046 0.40783 0.55374 0.0
H889 H 0.50946 0.43939 0.53228 0.0
H890 H 0.47487 0.35982 0.53889 0.0
H891 H 0.48943 0.41571 0.60178 0.0
H892 H 0.48205 0.44213 0.61943 0.0
H893 H 0.41643 0.39236 0.6316 0.0
H894 H 0.42331 0.36569 0.61347 0.0
H895 H 0.49301 0.30548 0.63743 0.0
H896 H 0.49377 0.33138 0.60828 0.0
H897 H 0.43035 0.31504 0.63038 0.0
H898 H 0.43013 0.29022 0.66097 0.0
H899 H 0.4545 0.35559 0.62914 0.0
H900 H 0.43911 0.29901 0.57075 0.0
H901 H 0.44368 0.27152 0.55044 0.0
H902 H 0.5067 0.31984 0.52744 0.0
H903 H 0.50264 0.34761 0.54792 0.0
C904 C 0.45412 0.41014 0.53185 0.0
C905 C 0.47507 0.42744 0.52796 0.0
C906 C 0.45139 0.39237 0.54445 0.0
C907 C 0.46956 0.39153 0.55269 0.0
C908 C 0.49043 0.40825 0.5474 0.0
C909 C 0.49318 0.4262 0.53529 0.0
C910 C 0.46697 0.37421 0.56892 0.0
C911 C 0.47059 0.35888 0.55869 0.0
C912 C 0.46076 0.37282 0.59441 0.0
C913 C 0.45681 0.38875 0.60601 0.0
C914 C 0.47337 0.41043 0.60802 0.0
C915 C 0.46929 0.42544 0.61813 0.0
C916 C 0.44876 0.41894 0.62656 0.0
C917 C 0.43231 0.39738 0.62501 0.0
C918 C 0.43629 0.38231 0.61482 0.0
C919 C 0.47929 0.3075 0.63632 0.0
C920 C 0.46152 0.29572 0.65166 0.0
C921 C 0.4796 0.32211 0.61929 0.0
C922 C 0.46196 0.32494 0.6168 0.0
C923 C 0.44411 0.31307 0.63187 0.0
C924 C 0.44392 0.29868 0.64917 0.0
C925 C 0.46257 0.34097 0.59933 0.0
C926 C 0.45861 0.35622 0.60931 0.0
C927 C 0.46813 0.34202 0.57345 0.0
C928 C 0.47064 0.32538 0.56108 0.0
C929 C 0.45402 0.30376 0.56153 0.0
C930 C 0.4565 0.28814 0.54996 0.0
C931 C 0.47549 0.29393 0.53771 0.0
C932 C 0.49201 0.31538 0.53696 0.0
C933 C 0.48961 0.33107 0.54852 0.0
H934 H 0.47738 0.28181 0.52876 0.0
H935 H 0.44562 0.43059 0.63437 0.0
H936 H 0.49683 0.91195 0.45372 0.0
H937 H 0.50415 0.88801 0.43015 0.0
H938 H 0.55064 0.94039 0.38662 0.0
H939 H 0.54419 0.96475 0.41083 0.0
H940 H 0.52048 0.90283 0.35647 0.0
H941 H 0.56968 0.92371 0.43102 0.0
H942 H 0.57964 0.92906 0.47742 0.0
H943 H 0.53639 0.86215 0.48795 0.0
H944 H 0.52592 0.85645 0.44164 0.0
H945 H 0.56071 0.846 0.29549 0.0
H946 H 0.55895 0.87322 0.32042 0.0
H947 H 0.52325 0.82701 0.37714 0.0
H948 H 0.52612 0.80019 0.35283 0.0
H949 H 0.54949 0.86305 0.40055 0.0
H950 H 0.49841 0.8414 0.3282 0.0
H951 H 0.48646 0.83465 0.28233 0.0
H952 H 0.53003 0.90086 0.26814 0.0
H953 H 0.54249 0.90795 0.31389 0.0
C954 C 0.50889 0.91855 0.43944 0.0
C955 C 0.51999 0.94043 0.43439 0.0
C956 C 0.51293 0.90476 0.42585 0.0
C957 C 0.52802 0.91245 0.40674 0.0
C958 C 0.53888 0.93413 0.40127 0.0
C959 C 0.53505 0.94802 0.41507 0.0
C960 C 0.53238 0.89778 0.39246 0.0
C961 C 0.52713 0.89436 0.36599 0.0
C962 C 0.54049 0.88631 0.40506 0.0
C963 C 0.54686 0.88969 0.43289 0.0
C964 C 0.56215 0.91016 0.44326 0.0
C965 C 0.56792 0.91326 0.46954 0.0
C966 C 0.55861 0.89597 0.48563 0.0
C967 C 0.54356 0.87553 0.47546 0.0
C968 C 0.53772 0.87236 0.4492 0.0
C969 C 0.55274 0.84183 0.31345 0.0
C970 C 0.54331 0.82103 0.32218 0.0
C971 C 0.55156 0.85729 0.32759 0.0
C972 C 0.54048 0.85209 0.35041 0.0
C973 C 0.53177 0.83145 0.35956 0.0
C974 C 0.5333 0.8161 0.34565 0.0
C975 C 0.53746 0.8679 0.36442 0.0
C976 C 0.54292 0.87155 0.3909 0.0
C977 C 0.5292 0.87933 0.35188 0.0
C978 C 0.52154 0.87516 0.32442 0.0
C979 C 0.50554 0.8545 0.31527 0.0
C980 C 0.49867 0.85061 0.2893 0.0
C981 C 0.50752 0.8673 0.27232 0.0
C982 C 0.52321 0.88794 0.2813 0.0
C983 C 0.53018 0.8919 0.30726 0.0
H984 H 0.50218 0.86426 0.25221 0.0
H985 H 0.5631 0.89839 0.50598 0.0
H986 H 0.55946 0.49475 0.95914 0.0
H987 H 0.59143 0.50042 0.93779 0.0
H988 H 0.61838 0.56824 0.94072 0.0
H989 H 0.58659 0.5626 0.96281 0.0
H990 H 0.61859 0.54861 0.89083 0.0
H991 H 0.63927 0.55297 0.98077 0.0
H992 H 0.63332 0.53989 0.02475 0.0
H993 H 0.63031 0.48309 0.99896 0.0
H994 H 0.63581 0.49564 0.9547 0.0
H995 H 0.71879 0.5727 0.84624 0.0
H996 H 0.69221 0.57331 0.87239 0.0
H997 H 0.66952 0.50916 0.89498 0.0
H998 H 0.6973 0.50906 0.87068 0.0
H999 H 0.66848 0.52995 0.93359 0.0
H1000 H 0.64372 0.52161 0.84504 0.0
H1001 H 0.64606 0.53088 0.79953 0.0
H1002 H 0.65306 0.59054 0.82045 0.0
H1003 H 0.65105 0.58174 0.86614 0.0
C1004 C 0.57224 0.51083 0.95515 0.0
C1005 C 0.57068 0.52826 0.9623 0.0
C1006 C 0.59041 0.51404 0.94304 0.0
C1007 C 0.60717 0.53473 0.93779 0.0
C1008 C 0.60551 0.55217 0.94459 0.0
C1009 C 0.58745 0.54897 0.95709 0.0
C1010 C 0.62653 0.538 0.92545 0.0
C1011 C 0.62979 0.54495 0.90025 0.0
C1012 C 0.64059 0.53253 0.93764 0.0
C1013 C 0.63779 0.52518 0.96437 0.0
C1014 C 0.63719 0.53762 0.98443 0.0
C1015 C 0.63391 0.5303 0.00942 0.0
C1016 C 0.6314 0.51065 0.01464 0.0
C1017 C 0.63224 0.4983 0.99489 0.0
C1018 C 0.63545 0.50552 0.96985 0.0
C1019 C 0.70856 0.55888 0.85725 0.0
C1020 C 0.71013 0.54072 0.85605 0.0
C1021 C 0.6931 0.55915 0.87192 0.0
C1022 C 0.67846 0.54109 0.88513 0.0
C1023 C 0.68049 0.52325 0.88477 0.0
C1024 C 0.69624 0.52311 0.87054 0.0
C1025 C 0.66058 0.54043 0.89866 0.0
C1026 C 0.65751 0.53391 0.92413 0.0
C1027 C 0.64637 0.54583 0.88649 0.0
C1028 C 0.64749 0.55112 0.85902 0.0
C1029 C 0.64592 0.53677 0.83994 0.0
C1030 C 0.64716 0.54193 0.81412 0.0
C1031 C 0.64978 0.56132 0.80711 0.0
C1032 C 0.65108 0.57555 0.82591 0.0
C1033 C 0.64988 0.57048 0.85178 0.0
H1034 H 0.65074 0.56528 0.78711 0.0
H1035 H 0.62885 0.50501 0.034 0.0
H1036 H 0.03986 0.58644 0.46532 0.0
H1037 H 0.06458 0.61576 0.43848 0.0
H1038 H 0.09393 0.58052 0.41704 0.0
H1039 H 0.06905 0.55119 0.44376 0.0
H1040 H 0.10825 0.64121 0.44009 0.0
H1041 H 0.10844 0.59153 0.35406 0.0
H1042 H 0.08456 0.55605 0.33303 0.0
H1043 H 0.02857 0.55397 0.36023 0.0
H1044 H 0.05206 0.58962 0.38095 0.0
H1045 H 0.19571 0.70233 0.35959 0.0
H1046 H 0.169 0.67418 0.38589 0.0
H1047 H 0.11708 0.66815 0.3358 0.0
H1048 H 0.14379 0.69637 0.30936 0.0
H1049 H 0.11198 0.62876 0.34746 0.0
H1050 H 0.12598 0.69226 0.39147 0.0
H1051 H 0.1488 0.72794 0.41238 0.0
H1052 H 0.17376 0.70287 0.46837 0.0
H1053 H 0.15131 0.66708 0.44756 0.0
C1054 C 0.05165 0.58509 0.45484 0.0
C1055 C 0.05264 0.5667 0.45637 0.0
C1056 C 0.06577 0.60179 0.43962 0.0
C1057 C 0.081 0.60029 0.42555 0.0
C1058 C 0.08215 0.58195 0.42743 0.0
C1059 C 0.06804 0.56527 0.4427 0.0
C1060 C 0.09557 0.61786 0.40883 0.0
C1061 C 0.10906 0.63846 0.41984 0.0
C1062 C 0.09644 0.61438 0.3823 0.0
C1063 C 0.08206 0.59318 0.36929 0.0
C1064 C 0.09102 0.58357 0.3554 0.0
C1065 C 0.07755 0.56343 0.34353 0.0
C1066 C 0.05507 0.55273 0.34537 0.0
C1067 C 0.04599 0.56224 0.3589 0.0
C1068 C 0.05938 0.58242 0.37071 0.0
C1069 C 0.1786 0.69499 0.35416 0.0
C1070 C 0.17185 0.70158 0.33241 0.0
C1071 C 0.16336 0.67898 0.36927 0.0
C1072 C 0.14104 0.6691 0.36286 0.0
C1073 C 0.13422 0.67556 0.34109 0.0
C1074 C 0.14948 0.69178 0.32613 0.0
C1075 C 0.12489 0.65196 0.37885 0.0
C1076 C 0.11114 0.63147 0.3677 0.0
C1077 C 0.12364 0.65555 0.4052 0.0
C1078 C 0.13711 0.67703 0.41781 0.0
C1079 C 0.13647 0.69439 0.40812 0.0
C1080 C 0.14932 0.71463 0.41997 0.0
C1081 C 0.16276 0.71768 0.44165 0.0
C1082 C 0.16335 0.70049 0.45156 0.0
C1083 C 0.15056 0.68022 0.43975 0.0
H1084 H 0.17269 0.73336 0.45081 0.0
H1085 H 0.04468 0.53709 0.33626 0.0
H1086 H 0.47676 0.04793 0.91117 0.0
H1087 H 0.47186 0.07336 0.88698 0.0
H1088 H 0.45022 0.08925 0.95431 0.0
H1089 H 0.45518 0.06372 0.97884 0.0
H1090 H 0.42539 0.08332 0.90303 0.0
H1091 H 0.49705 0.12199 0.9455 0.0
H1092 H 0.53265 0.12716 0.95836 0.0
H1093 H 0.54672 0.12799 0.87922 0.0
H1094 H 0.51103 0.12247 0.86588 0.0
H1095 H 0.43871 0.1772 0.84631 0.0
H1096 H 0.43842 0.15182 0.87649 0.0
H1097 H 0.47838 0.14131 0.82729 0.0
H1098 H 0.4791 0.16693 0.79754 0.0
H1099 H 0.49329 0.14595 0.87442 0.0
H1100 H 0.42264 0.1051 0.8308 0.0
H1101 H 0.38643 0.09718 0.81546 0.0
H1102 H 0.36977 0.09801 0.89316 0.0
H1103 H 0.40602 0.10623 0.90895 0.0
C1104 C 0.47055 0.05651 0.92071 0.0
C1105 C 0.46633 0.05388 0.94686 0.0
C1106 C 0.46785 0.07107 0.90692 0.0
C1107 C 0.46078 0.08315 0.91896 0.0
C1108 C 0.45567 0.07998 0.94477 0.0
C1109 C 0.45862 0.06555 0.95873 0.0
C1110 C 0.46028 0.10007 0.90481 0.0
C1111 C 0.44019 0.09727 0.89713 0.0
C1112 C 0.47964 0.11789 0.89673 0.0
C1113 C 0.5013 0.12165 0.9047 0.0
C1114 C 0.50767 0.12312 0.93084 0.0
C1115 C 0.52787 0.12614 0.93822 0.0
C1116 C 0.54192 0.12786 0.91962 0.0
C1117 C 0.53581 0.12664 0.89361 0.0
C1118 C 0.51561 0.12359 0.88613 0.0
C1119 C 0.44734 0.16937 0.84197 0.0
C1120 C 0.45901 0.17405 0.81969 0.0
C1121 C 0.44713 0.15486 0.85915 0.0
C1122 C 0.45825 0.14454 0.85405 0.0
C1123 C 0.46979 0.14917 0.83171 0.0
C1124 C 0.47022 0.16381 0.81474 0.0
C1125 C 0.4583 0.12915 0.87204 0.0
C1126 C 0.47841 0.13222 0.88051 0.0
C1127 C 0.43891 0.11145 0.88049 0.0
C1128 C 0.41713 0.10654 0.87104 0.0
C1129 C 0.41132 0.10378 0.8446 0.0
C1130 C 0.39078 0.0992 0.83583 0.0
C1131 C 0.37583 0.09716 0.85332 0.0
C1132 C 0.38138 0.09964 0.87963 0.0
C1133 C 0.40192 0.10425 0.88851 0.0
H1134 H 0.35993 0.0936 0.84649 0.0
H1135 H 0.55754 0.13017 0.92537 0.0
H1136 H 0.42374 0.46608 0.39925 0.0
H1137 H 0.39457 0.4629 0.37064 0.0
H1138 H 0.38612 0.50308 0.42274 0.0
H1139 H 0.41591 0.50717 0.45103 0.0
H1140 H 0.34636 0.46449 0.40448 0.0
H1141 H 0.41058 0.52449 0.37267 0.0
H1142 H 0.44754 0.54312 0.35699 0.0
H1143 H 0.42546 0.49782 0.29363 0.0
H1144 H 0.38843 0.47868 0.3092 0.0
H1145 H 0.27797 0.48364 0.32276 0.0
H1146 H 0.30699 0.48713 0.35231 0.0
H1147 H 0.32525 0.45842 0.29443 0.0
H1148 H 0.29664 0.45562 0.26466 0.0
H1149 H 0.36026 0.49134 0.31624 0.0
H1150 H 0.2967 0.43092 0.34708 0.0
H1151 H 0.2597 0.41076 0.36258 0.0
H1152 H 0.28004 0.45464 0.4272 0.0
H1153 H 0.31712 0.47527 0.41188 0.0
C1154 C 0.41594 0.4745 0.40456 0.0
C1155 C 0.42233 0.48693 0.42755 0.0
C1156 C 0.39913 0.47252 0.38822 0.0
C1157 C 0.38821 0.48276 0.39457 0.0
C1158 C 0.39426 0.49493 0.41758 0.0
C1159 C 0.41125 0.49715 0.4338 0.0
C1160 C 0.37062 0.48093 0.377 0.0
C1161 C 0.3494 0.47061 0.3853 0.0
C1162 C 0.37455 0.48841 0.35177 0.0
C1163 C 0.39677 0.50003 0.34225 0.0
C1164 C 0.41364 0.51839 0.35552 0.0
C1165 C 0.43459 0.52907 0.34663 0.0
C1166 C 0.43885 0.52164 0.32436 0.0
C1167 C 0.42214 0.50354 0.3109 0.0
C1168 C 0.40117 0.49278 0.31974 0.0
C1169 C 0.28822 0.47808 0.31649 0.0
C1170 C 0.28519 0.46938 0.29157 0.0
C1171 C 0.30469 0.47995 0.33336 0.0
C1172 C 0.31821 0.47282 0.32575 0.0
C1173 C 0.31508 0.46405 0.30078 0.0
C1174 C 0.29871 0.46234 0.28385 0.0
C1175 C 0.33582 0.47482 0.34362 0.0
C1176 C 0.35712 0.4852 0.3354 0.0
C1177 C 0.3319 0.46718 0.36885 0.0
C1178 C 0.30964 0.45477 0.37819 0.0
C1179 C 0.29325 0.43637 0.36449 0.0
C1180 C 0.27227 0.42484 0.37326 0.0
C1181 C 0.26751 0.43145 0.39582 0.0
C1182 C 0.28375 0.44957 0.4097 0.0
C1183 C 0.30475 0.46118 0.40099 0.0
H1184 H 0.25126 0.4225 0.40259 0.0
H1185 H 0.45509 0.52992 0.31751 0.0
H1186 H 0.91479 0.42064 0.93862 0.0
H1187 H 0.88963 0.38858 0.91267 0.0
H1188 H 0.93893 0.37294 0.90886 0.0
H1189 H 0.96449 0.40559 0.9342 0.0
H1190 H 0.91874 0.36531 0.86435 0.0
H1191 H 0.89597 0.34626 0.94867 0.0
H1192 H 0.88541 0.35011 0.99165 0.0
H1193 H 0.83006 0.3495 0.95798 0.0
H1194 H 0.84046 0.34596 0.91476 0.0
H1195 H 0.80705 0.25559 0.84209 0.0
H1196 H 0.83675 0.28246 0.87102 0.0
H1197 H 0.85492 0.32899 0.81242 0.0
H1198 H 0.82602 0.30179 0.78319 0.0
H1199 H 0.84393 0.31679 0.89178 0.0
H1200 H 0.90839 0.36597 0.81684 0.0
H1201 H 0.92034 0.35947 0.77619 0.0
H1202 H 0.8947 0.29431 0.79504 0.0
H1203 H 0.8831 0.30052 0.83611 0.0
C1204 C 0.92019 0.41028 0.93234 0.0
C1205 C 0.94144 0.41538 0.93856 0.0
C1206 C 0.90581 0.39195 0.9176 0.0
C1207 C 0.91224 0.3781 0.9093 0.0
C1208 C 0.9336 0.38335 0.91517 0.0
C1209 C 0.94815 0.40193 0.92962 0.0
C1210 C 0.8966 0.35836 0.8942 0.0
C1211 C 0.90242 0.3546 0.87038 0.0
C1212 C 0.87553 0.34401 0.90247 0.0
C1213 C 0.86908 0.34597 0.92845 0.0
C1214 C 0.88162 0.34707 0.95042 0.0
C1215 C 0.87565 0.34919 0.97483 0.0
C1216 C 0.85709 0.35008 0.97754 0.0
C1217 C 0.84443 0.34881 0.95585 0.0
C1218 C 0.85034 0.34672 0.93139 0.0
C1219 C 0.81765 0.27153 0.83546 0.0
C1220 C 0.81463 0.27673 0.81051 0.0
C1221 C 0.83449 0.28685 0.85192 0.0
C1222 C 0.84832 0.30766 0.84375 0.0
C1223 C 0.84488 0.31292 0.81894 0.0
C1224 C 0.82829 0.2975 0.80235 0.0
C1225 C 0.86579 0.32414 0.86146 0.0
C1226 C 0.86032 0.32729 0.88582 0.0
C1227 C 0.88737 0.33746 0.85402 0.0
C1228 C 0.89468 0.33369 0.8295 0.0
C1229 C 0.90541 0.35029 0.81241 0.0
C1230 C 0.9121 0.34665 0.78926 0.0
C1231 C 0.90816 0.32647 0.78296 0.0
C1232 C 0.89766 0.30992 0.79988 0.0
C1233 C 0.89103 0.31349 0.82312 0.0
H1234 H 0.9133 0.32368 0.76499 0.0
H1235 H 0.8525 0.35172 0.99645 0.0
H1236 H 0.92799 0.48678 0.9476 0.0
H1237 H 0.90244 0.49261 0.92225 0.0
H1238 H 0.94869 0.56046 0.92746 0.0
H1239 H 0.97395 0.55455 0.95349 0.0
H1240 H 0.9095 0.55276 0.93392 0.0
H1241 H 0.94112 0.53073 0.87257 0.0
H1242 H 0.95247 0.50766 0.85389 0.0
H1243 H 0.88597 0.45583 0.84592 0.0
H1244 H 0.87424 0.4785 0.86495 0.0
H1245 H 0.84813 0.54678 0.80302 0.0
H1246 H 0.87714 0.5457 0.82765 0.0
H1247 H 0.83962 0.52892 0.8949 0.0
H1248 H 0.81093 0.53052 0.87035 0.0
H1249 H 0.87747 0.5142 0.85007 0.0
H1250 H 0.8731 0.54846 0.94862 0.0
H1251 H 0.86461 0.57435 0.96539 0.0
H1252 H 0.88204 0.60728 0.89474 0.0
H1253 H 0.89095 0.5818 0.8777 0.0
C1254 C 0.93258 0.5029 0.94331 0.0
C1255 C 0.95289 0.52023 0.95221 0.0
C1256 C 0.91808 0.50624 0.92876 0.0
C1257 C 0.92375 0.52697 0.92258 0.0
C1258 C 0.94396 0.54433 0.9319 0.0
C1259 C 0.9584 0.54098 0.94662 0.0
C1260 C 0.90862 0.53049 0.90633 0.0
C1261 C 0.90251 0.54433 0.91558 0.0
C1262 C 0.89986 0.5199 0.8821 0.0
C1263 C 0.90682 0.50628 0.87038 0.0
C1264 C 0.92893 0.51437 0.86699 0.0
C1265 C 0.93543 0.50137 0.85632 0.0
C1266 C 0.91995 0.48028 0.84877 0.0
C1267 C 0.89794 0.47216 0.8518 0.0
C1268 C 0.89135 0.48509 0.86251 0.0
C1269 C 0.84629 0.54306 0.82313 0.0
C1270 C 0.82745 0.53872 0.83492 0.0
C1271 C 0.86275 0.54234 0.83714 0.0
C1272 C 0.86067 0.53737 0.8632 0.0
C1273 C 0.84179 0.53312 0.87496 0.0
C1274 C 0.82539 0.53393 0.86097 0.0
C1275 C 0.87796 0.5361 0.87792 0.0
C1276 C 0.88448 0.52266 0.86838 0.0
C1277 C 0.88749 0.54747 0.90158 0.0
C1278 C 0.88249 0.56308 0.91181 0.0
C1279 C 0.87522 0.56128 0.93672 0.0
C1280 C 0.87032 0.57588 0.94626 0.0
C1281 C 0.87272 0.59241 0.93111 0.0
C1282 C 0.88011 0.59443 0.90642 0.0
C1283 C 0.88506 0.5799 0.8968 0.0
H1284 H 0.8689 0.60368 0.93853 0.0
H1285 H 0.92502 0.47023 0.84052 0.0
H1286 H 0.40683 0.95643 0.47995 0.0
H1287 H 0.37445 0.92909 0.45435 0.0
H1288 H 0.41564 0.92466 0.40088 0.0
H1289 H 0.44788 0.95137 0.42685 0.0
H1290 H 0.37953 0.92788 0.37864 0.0
H1291 H 0.39619 0.88907 0.44069 0.0
H1292 H 0.40296 0.88143 0.48479 0.0
H1293 H 0.33956 0.86632 0.50391 0.0
H1294 H 0.33259 0.87429 0.46 0.0
H1295 H 0.31496 0.83359 0.30509 0.0
H1296 H 0.34306 0.86264 0.33314 0.0
H1297 H 0.29623 0.84742 0.39034 0.0
H1298 H 0.26839 0.81751 0.36268 0.0
H1299 H 0.3325 0.85597 0.41283 0.0
H1300 H 0.31355 0.89096 0.35057 0.0
H1301 H 0.30626 0.89962 0.30726 0.0
H1302 H 0.37219 0.92327 0.28941 0.0
H1303 H 0.37979 0.91443 0.33241 0.0
C1304 C 0.40882 0.94944 0.4628 0.0
C1305 C 0.42963 0.9556 0.4554 0.0
C1306 C 0.39045 0.93401 0.44821 0.0
C1307 C 0.39279 0.92494 0.42585 0.0
C1308 C 0.4136 0.93157 0.41808 0.0
C1309 C 0.43191 0.94668 0.43288 0.0
C1310 C 0.3736 0.90795 0.41088 0.0
C1311 C 0.36925 0.9121 0.38595 0.0
C1312 C 0.35993 0.88768 0.42094 0.0
C1313 C 0.36397 0.88252 0.44717 0.0
C1314 C 0.38377 0.88431 0.45436 0.0
C1315 C 0.38764 0.87989 0.47931 0.0
C1316 C 0.37173 0.87345 0.49717 0.0
C1317 C 0.35189 0.87135 0.49007 0.0
C1318 C 0.34797 0.87581 0.46516 0.0
C1319 C 0.31078 0.83651 0.3237 0.0
C1320 C 0.28962 0.82367 0.33175 0.0
C1321 C 0.32673 0.85316 0.33961 0.0
C1322 C 0.32162 0.85756 0.36359 0.0
C1323 C 0.30049 0.84443 0.37183 0.0
C1324 C 0.28462 0.8275 0.35606 0.0
C1325 C 0.33851 0.87566 0.38013 0.0
C1326 C 0.34248 0.87178 0.40545 0.0
C1327 C 0.35166 0.8963 0.37053 0.0
C1328 C 0.3472 0.90189 0.34469 0.0
C1329 C 0.32647 0.89789 0.33735 0.0
C1330 C 0.32227 0.90284 0.31284 0.0
C1331 C 0.33874 0.91195 0.29555 0.0
C1332 C 0.35944 0.91619 0.30277 0.0
C1333 C 0.36371 0.91124 0.32723 0.0
H1334 H 0.33547 0.91576 0.27657 0.0
H1335 H 0.37475 0.87004 0.51648 0.0
H1336 H 0.47399 0.40014 0.96004 0.0
H1337 H 0.46859 0.37076 0.93236 0.0
H1338 H 0.48197 0.40966 0.86639 0.0
H1339 H 0.4881 0.43939 0.89395 0.0
H1340 H 0.44574 0.36844 0.85796 0.0
H1341 H 0.52006 0.40251 0.89045 0.0
H1342 H 0.54975 0.41705 0.92408 0.0
H1343 H 0.52159 0.35534 0.95646 0.0
H1344 H 0.49152 0.34049 0.92322 0.0
H1345 H 0.46566 0.30903 0.7678 0.0
H1346 H 0.468 0.33671 0.79651 0.0
H1347 H 0.45931 0.29763 0.86138 0.0
H1348 H 0.45718 0.27006 0.83253 0.0
H1349 H 0.49202 0.33808 0.87134 0.0
H1350 H 0.41846 0.30343 0.83824 0.0
H1351 H 0.38856 0.28859 0.80486 0.0
H1352 H 0.41453 0.35065 0.77416 0.0
H1353 H 0.44481 0.36583 0.80711 0.0
C1354 C 0.47604 0.4026 0.9397 0.0
C1355 C 0.4816 0.42228 0.92933 0.0
C1356 C 0.47281 0.38571 0.92387 0.0
C1357 C 0.47499 0.38806 0.89733 0.0
C1358 C 0.48012 0.40748 0.88682 0.0
C1359 C 0.48352 0.42444 0.90264 0.0
C1360 C 0.47228 0.3704 0.88059 0.0
C1361 C 0.45601 0.36194 0.86068 0.0
C1362 C 0.48532 0.36157 0.88456 0.0
C1363 C 0.50342 0.37044 0.90451 0.0
C1364 C 0.52009 0.39208 0.90487 0.0
C1365 C 0.53701 0.40037 0.92384 0.0
C1366 C 0.53752 0.38714 0.94244 0.0
C1367 C 0.52115 0.36557 0.94207 0.0
C1368 C 0.50417 0.35721 0.92316 0.0
C1369 C 0.46407 0.30639 0.78818 0.0
C1370 C 0.46111 0.28754 0.79812 0.0
C1371 C 0.46536 0.32211 0.80454 0.0
C1372 C 0.46362 0.31917 0.8311 0.0
C1373 C 0.46065 0.30023 0.84098 0.0
C1374 C 0.45934 0.2845 0.82458 0.0
C1375 C 0.4655 0.33611 0.84859 0.0
C1376 C 0.48165 0.34446 0.86865 0.0
C1377 C 0.45228 0.34477 0.8448 0.0
C1378 C 0.43403 0.33573 0.82501 0.0
C1379 C 0.4179 0.31389 0.82425 0.0
C1380 C 0.40087 0.30542 0.80542 0.0
C1381 C 0.39967 0.31866 0.78737 0.0
C1382 C 0.41549 0.34041 0.78814 0.0
C1383 C 0.43259 0.34896 0.8069 0.0
H1384 H 0.38647 0.31207 0.77281 0.0
H1385 H 0.55064 0.39358 0.95711 0.0
H1386 H 0.0864 0.502 0.45981 0.0
H1387 H 0.10987 0.49848 0.43102 0.0
H1388 H 0.05401 0.44374 0.39301 0.0
H1389 H 0.03037 0.44648 0.42267 0.0
H1390 H 0.08786 0.43821 0.39873 0.0
H1391 H 0.07611 0.49232 0.36765 0.0
H1392 H 0.07508 0.52499 0.37178 0.0
H1393 H 0.14372 0.56158 0.39077 0.0
H1394 H 0.1451 0.52904 0.38724 0.0
H1395 H 0.14035 0.44116 0.28578 0.0
H1396 H 0.11569 0.44192 0.31551 0.0
H1397 H 0.16996 0.49589 0.35676 0.0
H1398 H 0.19478 0.49516 0.32718 0.0
H1399 H 0.13592 0.50125 0.34836 0.0
H1400 H 0.14718 0.4467 0.38038 0.0
H1401 H 0.14776 0.41372 0.37732 0.0
H1402 H 0.07947 0.37783 0.3561 0.0
H1403 H 0.07855 0.41066 0.35868 0.0
C1404 C 0.07908 0.48888 0.44576 0.0
C1405 C 0.05646 0.47455 0.44349 0.0
C1406 C 0.09253 0.48706 0.4291 0.0
C1407 C 0.08362 0.47112 0.40957 0.0
C1408 C 0.06117 0.45626 0.40785 0.0
C1409 C 0.04768 0.45797 0.42466 0.0
C1410 C 0.09772 0.47049 0.39046 0.0
C1411 C 0.09814 0.45187 0.38744 0.0
C1412 C 0.11134 0.48848 0.37605 0.0
C1413 C 0.11067 0.50819 0.3774 0.0
C1414 C 0.09097 0.50731 0.37283 0.0
C1415 C 0.09032 0.52581 0.37507 0.0
C1416 C 0.10931 0.54534 0.38161 0.0
C1417 C 0.12901 0.54643 0.38575 0.0
C1418 C 0.12975 0.52796 0.38362 0.0
C1419 C 0.14706 0.45308 0.30132 0.0
C1420 C 0.16952 0.46803 0.30425 0.0
C1421 C 0.13295 0.45352 0.31823 0.0
C1422 C 0.14105 0.46882 0.33847 0.0
C1423 C 0.16341 0.48397 0.34123 0.0
C1424 C 0.17754 0.48356 0.32429 0.0
C1425 C 0.12621 0.46903 0.3568 0.0
C1426 C 0.12559 0.48757 0.35961 0.0
C1427 C 0.11234 0.45094 0.37091 0.0
C1428 C 0.11284 0.43117 0.36948 0.0
C1429 C 0.13232 0.4318 0.37487 0.0
C1430 C 0.1327 0.41313 0.37325 0.0
C1431 C 0.11367 0.3937 0.36645 0.0
C1432 C 0.0942 0.3929 0.36133 0.0
C1433 C 0.09374 0.41153 0.36288 0.0
H1434 H 0.114 0.37927 0.36522 0.0
H1435 H 0.10877 0.55962 0.38347 0.0
H1436 H 0.54173 0.05542 0.92333 0.0
H1437 H 0.57027 0.07869 0.89474 0.0
H1438 H 0.61514 0.06633 0.93584 0.0
H1439 H 0.58655 0.04316 0.96455 0.0
H1440 H 0.63407 0.10828 0.92587 0.0
H1441 H 0.59195 0.04195 0.87835 0.0
H1442 H 0.55829 0.01079 0.85932 0.0
H1443 H 0.54711 0.0517 0.81207 0.0
H1444 H 0.58051 0.08318 0.83118 0.0
H1445 H 0.71435 0.15375 0.83328 0.0
H1446 H 0.68707 0.12816 0.86135 0.0
H1447 H 0.6383 0.13603 0.82234 0.0
H1448 H 0.66524 0.16101 0.7937 0.0
H1449 H 0.62213 0.0951 0.83154 0.0
H1450 H 0.66281 0.16136 0.88065 0.0
H1451 H 0.69587 0.1928 0.90038 0.0
H1452 H 0.70943 0.15211 0.94479 0.0
H1453 H 0.67658 0.12041 0.92505 0.0
C1454 C 0.55773 0.05775 0.92617 0.0
C1455 C 0.56207 0.04759 0.94597 0.0
C1456 C 0.57398 0.07095 0.90985 0.0
C1457 C 0.59481 0.07408 0.91295 0.0
C1458 C 0.59921 0.06414 0.93306 0.0
C1459 C 0.58293 0.05092 0.94937 0.0
C1460 C 0.61194 0.08764 0.89512 0.0
C1461 C 0.6316 0.1052 0.90527 0.0
C1462 C 0.60858 0.08388 0.86819 0.0
C1463 C 0.58865 0.06495 0.85636 0.0
C1464 C 0.58224 0.04433 0.86403 0.0
C1465 C 0.56321 0.0266 0.85322 0.0
C1466 C 0.55055 0.02926 0.83453 0.0
C1467 C 0.55693 0.04966 0.82657 0.0
C1468 C 0.57592 0.06746 0.83738 0.0
C1469 C 0.69776 0.14982 0.83044 0.0
C1470 C 0.69207 0.15961 0.81133 0.0
C1471 C 0.68221 0.13533 0.84668 0.0
C1472 C 0.66066 0.13038 0.84425 0.0
C1473 C 0.65481 0.13965 0.82472 0.0
C1474 C 0.67032 0.1541 0.80849 0.0
C1475 C 0.64422 0.11588 0.86226 0.0
C1476 C 0.62467 0.09812 0.85215 0.0
C1477 C 0.64767 0.11948 0.88923 0.0
C1478 C 0.66738 0.13851 0.90117 0.0
C1479 C 0.67294 0.15912 0.89447 0.0
C1480 C 0.69162 0.17698 0.90568 0.0
C1481 C 0.70478 0.17445 0.92377 0.0
C1482 C 0.69924 0.15405 0.93074 0.0
C1483 C 0.68059 0.13612 0.91956 0.0
H1484 H 0.71924 0.18831 0.93243 0.0
H1485 H 0.53582 0.01552 0.82618 0.0
H1486 H 0.5447 0.5949 0.49673 0.0
H1487 H 0.5465 0.62437 0.47332 0.0
H1488 H 0.50523 0.58017 0.41169 0.0
H1489 H 0.5021 0.55066 0.43605 0.0
H1490 H 0.56202 0.64097 0.43129 0.0
H1491 H 0.47619 0.59644 0.37964 0.0
H1492 H 0.43942 0.56612 0.38696 0.0
H1493 H 0.45356 0.57577 0.46837 0.0
H1494 H 0.49025 0.60644 0.46158 0.0
H1495 H 0.55871 0.69714 0.32494 0.0
H1496 H 0.55546 0.66998 0.35395 0.0
H1497 H 0.51152 0.67812 0.39849 0.0
H1498 H 0.51441 0.70509 0.36913 0.0
H1499 H 0.49677 0.63746 0.39178 0.0
H1500 H 0.56494 0.69881 0.4199 0.0
H1501 H 0.60179 0.72998 0.41534 0.0
H1502 H 0.62248 0.68917 0.38733 0.0
H1503 H 0.58567 0.65777 0.39138 0.0
C1504 C 0.53565 0.59156 0.47845 0.0
C1505 C 0.52282 0.57061 0.46839 0.0
C1506 C 0.53684 0.60835 0.46497 0.0
C1507 C 0.52562 0.60447 0.44095 0.0
C1508 C 0.51345 0.58354 0.43052 0.0
C1509 C 0.51181 0.56672 0.4443 0.0
C1510 C 0.52708 0.62235 0.42651 0.0
C1511 C 0.54773 0.64023 0.42279 0.0
C1512 C 0.50841 0.62157 0.41571 0.0
C1513 C 0.48605 0.60366 0.42007 0.0
C1514 C 0.4714 0.59221 0.39911 0.0
C1515 C 0.45059 0.57493 0.40316 0.0
C1516 C 0.4442 0.56894 0.4281 0.0
C1517 C 0.45855 0.58037 0.44905 0.0
C1518 C 0.47935 0.59772 0.44511 0.0
C1519 C 0.54852 0.69327 0.34106 0.0
C1520 C 0.53691 0.70329 0.34491 0.0
C1521 C 0.54668 0.67776 0.35763 0.0
C1522 C 0.5335 0.67224 0.37862 0.0
C1523 C 0.52179 0.68215 0.38243 0.0
C1524 C 0.52345 0.69753 0.36568 0.0
C1525 C 0.53171 0.65588 0.39632 0.0
C1526 C 0.51101 0.63826 0.40055 0.0
C1527 C 0.55028 0.65711 0.4081 0.0
C1528 C 0.57249 0.67595 0.40577 0.0
C1529 C 0.57731 0.6965 0.41261 0.0
C1530 C 0.5982 0.7142 0.41014 0.0
C1531 C 0.61445 0.71156 0.40101 0.0
C1532 C 0.60987 0.6912 0.39438 0.0
C1533 C 0.589 0.67344 0.39679 0.0
H1534 H 0.63061 0.72529 0.39911 0.0
H1535 H 0.42812 0.55548 0.43118 0.0
H1536 H 0.45969 0.04056 0.58263 0.0
H1537 H 0.45411 0.06497 0.60763 0.0
H1538 H 0.50395 0.118 0.56776 0.0
H1539 H 0.51101 0.09394 0.5443 0.0
H1540 H 0.50831 0.12987 0.61414 0.0
H1541 H 0.44654 0.09492 0.55477 0.0
H1542 H 0.41428 0.06467 0.53205 0.0
H1543 H 0.38351 0.04354 0.60336 0.0
H1544 H 0.41572 0.07353 0.62657 0.0
H1545 H 0.47555 0.20281 0.64486 0.0
H1546 H 0.47876 0.17656 0.61954 0.0
H1547 H 0.44958 0.13124 0.67897 0.0
H1548 H 0.44709 0.15777 0.70475 0.0
H1549 H 0.4341 0.11566 0.62313 0.0
H1550 H 0.49823 0.15296 0.68129 0.0
H1551 H 0.52993 0.18572 0.70084 0.0
H1552 H 0.5559 0.20481 0.62674 0.0
H1553 H 0.52409 0.17234 0.60667 0.0
C1554 C 0.46978 0.05743 0.57939 0.0
C1555 C 0.4858 0.06511 0.5612 0.0
C1556 C 0.46627 0.07141 0.59347 0.0
C1557 C 0.47824 0.09338 0.58928 0.0
C1558 C 0.49435 0.10113 0.57133 0.0
C1559 C 0.49818 0.08723 0.5576 0.0
C1560 C 0.47423 0.10833 0.6038 0.0
C1561 C 0.49206 0.12679 0.61575 0.0
C1562 C 0.45304 0.1044 0.60632 0.0
C1563 C 0.43363 0.08635 0.59243 0.0
C1564 C 0.43296 0.08374 0.56563 0.0
C1565 C 0.41467 0.06665 0.55266 0.0
C1566 C 0.39688 0.05216 0.56626 0.0
C1567 C 0.39732 0.05476 0.59286 0.0
C1568 C 0.41557 0.07181 0.60593 0.0
C1569 C 0.46976 0.18719 0.65239 0.0
C1570 C 0.4613 0.18229 0.67678 0.0
C1571 C 0.47153 0.17225 0.63795 0.0
C1572 C 0.46446 0.15203 0.64747 0.0
C1573 C 0.45507 0.14675 0.67132 0.0
C1574 C 0.45369 0.16186 0.68599 0.0
C1575 C 0.46811 0.1369 0.63318 0.0
C1576 C 0.45025 0.11854 0.62138 0.0
C1577 C 0.48926 0.14111 0.63032 0.0
C1578 C 0.50867 0.16033 0.64245 0.0
C1579 C 0.51061 0.16422 0.66913 0.0
C1580 C 0.52861 0.18273 0.68032 0.0
C1581 C 0.5449 0.19737 0.66503 0.0
C1582 C 0.54326 0.19348 0.63855 0.0
C1583 C 0.52525 0.17502 0.62726 0.0
H1584 H 0.55881 0.2117 0.67372 0.0
H1585 H 0.38274 0.03895 0.55618 0.0
H1586 H 0.44893 0.49923 0.06393 0.0
H1587 H 0.4181 0.49335 0.08797 0.0
H1588 H 0.3752 0.4369 0.04077 0.0
H1589 H 0.40619 0.44304 0.01648 0.0
H1590 H 0.35837 0.46172 0.0468 0.0
H1591 H 0.38981 0.43237 0.10118 0.0
H1592 H 0.41942 0.43194 0.12553 0.0
H1593 H 0.431 0.48505 0.17287 0.0
H1594 H 0.4017 0.48605 0.14851 0.0
H1595 H 0.27101 0.43303 0.12818 0.0
H1596 H 0.29839 0.43188 0.10377 0.0
H1597 H 0.34897 0.48816 0.14569 0.0
H1598 H 0.32186 0.48895 0.17078 0.0
H1599 H 0.35969 0.45885 0.14173 0.0
H1600 H 0.33113 0.4905 0.0846 0.0
H1601 H 0.30229 0.49185 0.05961 0.0
H1602 H 0.28569 0.4347 0.01735 0.0
H1603 H 0.31426 0.43286 0.04235 0.0
C1604 C 0.43288 0.48556 0.05887 0.0
C1605 C 0.42968 0.47153 0.03857 0.0
C1606 C 0.41535 0.48215 0.07258 0.0
C1607 C 0.39442 0.46454 0.06632 0.0
C1608 C 0.39123 0.45053 0.04591 0.0
C1609 C 0.40882 0.45397 0.03215 0.0
C1610 C 0.37587 0.46113 0.08086 0.0
C1611 C 0.35843 0.46067 0.06752 0.0
C1612 C 0.37619 0.46012 0.10791 0.0
C1613 C 0.39363 0.45937 0.12289 0.0
C1614 C 0.39875 0.44405 0.11668 0.0
C1615 C 0.41548 0.44369 0.13049 0.0
C1616 C 0.4271 0.45848 0.15071 0.0
C1617 C 0.42198 0.47361 0.1572 0.0
C1618 C 0.4053 0.47407 0.1434 0.0
C1619 C 0.28797 0.44507 0.13231 0.0
C1620 C 0.29425 0.46116 0.15132 0.0
C1621 C 0.30358 0.44448 0.11822 0.0
C1622 C 0.32569 0.46006 0.12277 0.0
C1623 C 0.33199 0.47601 0.14184 0.0
C1624 C 0.31644 0.47658 0.15596 0.0
C1625 C 0.34242 0.4599 0.10773 0.0
C1626 C 0.3595 0.45964 0.12099 0.0
C1627 C 0.34179 0.46028 0.08062 0.0
C1628 C 0.32466 0.46141 0.06554 0.0
C1629 C 0.32121 0.47813 0.07013 0.0
C1630 C 0.30494 0.479 0.05593 0.0
C1631 C 0.29212 0.46334 0.03696 0.0
C1632 C 0.2956 0.4468 0.03209 0.0
C1633 C 0.31184 0.44584 0.04625 0.0
H1634 H 0.27954 0.46404 0.02599 0.0
H1635 H 0.44006 0.45818 0.16138 0.0
H1636 H 0.95931 0.41491 0.53554 0.0
H1637 H 0.93392 0.38523 0.56144 0.0
H1638 H 0.92223 0.42799 0.60431 0.0
H1639 H 0.94794 0.45767 0.57864 0.0
H1640 H 0.92644 0.40207 0.63581 0.0
H1641 H 0.88607 0.39369 0.55675 0.0
H1642 H 0.87925 0.39011 0.50977 0.0
H1643 H 0.88005 0.33248 0.50874 0.0
H1644 H 0.88727 0.33593 0.5557 0.0
H1645 H 0.82996 0.32638 0.69301 0.0
H1646 H 0.85679 0.35499 0.66768 0.0
H1647 H 0.86599 0.30998 0.62618 0.0
H1648 H 0.83828 0.281 0.65062 0.0
H1649 H 0.86386 0.33652 0.59404 0.0
H1650 H 0.90322 0.34482 0.67425 0.0
H1651 H 0.90961 0.34896 0.72132 0.0
H1652 H 0.91005 0.40721 0.72026 0.0
H1653 H 0.90333 0.40327 0.67324 0.0
C1654 C 0.95126 0.41784 0.55053 0.0
C1655 C 0.95533 0.43838 0.55512 0.0
C1656 C 0.93674 0.40094 0.56525 0.0
C1657 C 0.92591 0.40429 0.58466 0.0
C1658 C 0.93033 0.42498 0.58947 0.0
C1659 C 0.94491 0.44188 0.5748 0.0
C1660 C 0.90984 0.38624 0.5998 0.0
C1661 C 0.91263 0.38783 0.62668 0.0
C1662 C 0.89204 0.36744 0.58792 0.0
C1663 C 0.88743 0.36518 0.55972 0.0
C1664 C 0.88495 0.38033 0.54649 0.0
C1665 C 0.881 0.37832 0.51986 0.0
C1666 C 0.87927 0.3611 0.50627 0.0
C1667 C 0.88143 0.34583 0.51929 0.0
C1668 C 0.88544 0.3478 0.54591 0.0
C1669 C 0.83747 0.32245 0.67832 0.0
C1670 C 0.83184 0.30127 0.6739 0.0
C1671 C 0.85307 0.33893 0.66404 0.0
C1672 C 0.86372 0.33475 0.64523 0.0
C1673 C 0.8581 0.31365 0.64066 0.0
C1674 C 0.84238 0.2971 0.65485 0.0
C1675 C 0.88041 0.35236 0.63009 0.0
C1676 C 0.87774 0.35069 0.60319 0.0
C1677 C 0.89827 0.37114 0.64196 0.0
C1678 C 0.9026 0.37366 0.67023 0.0
C1679 C 0.90455 0.35845 0.68407 0.0
C1680 C 0.90824 0.36076 0.71074 0.0
C1681 C 0.91018 0.37832 0.72376 0.0
C1682 C 0.90852 0.39362 0.71014 0.0
C1683 C 0.90479 0.39136 0.68348 0.0
H1684 H 0.91301 0.3801 0.7444 0.0
H1685 H 0.87621 0.35957 0.48565 0.0
H1686 H 0.50639 0.91839 0.03565 0.0
H1687 H 0.51296 0.8945 0.06047 0.0
H1688 H 0.5696 0.94837 0.09862 0.0
H1689 H 0.56397 0.97256 0.07255 0.0
H1690 H 0.57662 0.91697 0.08989 0.0
H1691 H 0.52112 0.92313 0.12677 0.0
H1692 H 0.48702 0.92282 0.12687 0.0
H1693 H 0.4508 0.85676 0.10265 0.0
H1694 H 0.48475 0.85675 0.10202 0.0
H1695 H 0.57493 0.85875 0.20071 0.0
H1696 H 0.57484 0.88433 0.1714 0.0
H1697 H 0.52315 0.83269 0.12445 0.0
H1698 H 0.52352 0.80695 0.15316 0.0
H1699 H 0.51478 0.8641 0.13892 0.0
H1700 H 0.57201 0.85905 0.10283 0.0
H1701 H 0.6068 0.86062 0.10426 0.0
H1702 H 0.6405 0.92624 0.13013 0.0
H1703 H 0.60584 0.92497 0.12921 0.0
C1704 C 0.52061 0.92526 0.04877 0.0
C1705 C 0.53458 0.94747 0.05217 0.0
C1706 C 0.52417 0.91153 0.06322 0.0
C1707 C 0.54146 0.91967 0.08181 0.0
C1708 C 0.55603 0.94177 0.08452 0.0
C1709 C 0.55264 0.95556 0.0698 0.0
C1710 C 0.54359 0.90508 0.0992 0.0
C1711 C 0.5632 0.90559 0.10087 0.0
C1712 C 0.52602 0.89015 0.1134 0.0
C1713 C 0.50551 0.88999 0.11413 0.0
C1714 C 0.5059 0.90857 0.12131 0.0
C1715 C 0.4866 0.90845 0.12147 0.0
C1716 C 0.46676 0.8898 0.11471 0.0
C1717 C 0.46619 0.8712 0.10786 0.0
C1718 C 0.48545 0.87124 0.10761 0.0
C1719 C 0.56386 0.85279 0.18386 0.0
C1720 C 0.54915 0.83079 0.17935 0.0
C1721 C 0.56378 0.86744 0.1672 0.0
C1722 C 0.54899 0.86034 0.14582 0.0
C1723 C 0.53461 0.83843 0.14096 0.0
C1724 C 0.53478 0.82378 0.15746 0.0
C1725 C 0.54764 0.87574 0.12924 0.0
C1726 C 0.52818 0.87547 0.1279 0.0
C1727 C 0.56545 0.89106 0.11572 0.0
C1728 C 0.5863 0.89185 0.1162 0.0
C1729 C 0.58681 0.87376 0.10904 0.0
C1730 C 0.60651 0.87461 0.10972 0.0
C1731 C 0.62584 0.8935 0.11735 0.0
C1732 C 0.62551 0.91161 0.12426 0.0
C1733 C 0.60584 0.91084 0.12365 0.0
H1734 H 0.64108 0.89413 0.11785 0.0
H1735 H 0.45184 0.88975 0.11481 0.0
H1736 H 0.58412 0.49302 0.55426 0.0
H1737 H 0.61436 0.4987 0.58254 0.0
H1738 H 0.61044 0.54581 0.62703 0.0
H1739 H 0.58134 0.54154 0.59754 0.0
H1740 H 0.65051 0.55911 0.62372 0.0
H1741 H 0.5896 0.49277 0.64656 0.0
H1742 H 0.55777 0.45628 0.63968 0.0
H1743 H 0.59851 0.43536 0.6119 0.0
H1744 H 0.63055 0.47182 0.61826 0.0
H1745 H 0.70581 0.55006 0.73733 0.0
H1746 H 0.67758 0.5476 0.70706 0.0
H1747 H 0.69634 0.51928 0.6494 0.0
H1748 H 0.7251 0.52248 0.67932 0.0
H1749 H 0.64903 0.49671 0.66044 0.0
H1750 H 0.71039 0.56544 0.63966 0.0
H1751 H 0.74093 0.60198 0.65043 0.0
H1752 H 0.69689 0.61815 0.67964 0.0
H1753 H 0.6661 0.58156 0.66943 0.0
C1754 C 0.58987 0.5049 0.56973 0.0
C1755 C 0.58005 0.51674 0.5735 0.0
C1756 C 0.60702 0.50789 0.58622 0.0
C1757 C 0.61446 0.52235 0.60736 0.0
C1758 C 0.60495 0.53443 0.611 0.0
C1759 C 0.58804 0.53174 0.59424 0.0
C1760 C 0.6321 0.52485 0.62564 0.0
C1761 C 0.64997 0.54543 0.63195 0.0
C1762 C 0.63165 0.50707 0.63639 0.0
C1763 C 0.61244 0.48508 0.63266 0.0
C1764 C 0.59175 0.48043 0.63882 0.0
C1765 C 0.57367 0.45974 0.63503 0.0
C1766 C 0.57611 0.44352 0.6253 0.0
C1767 C 0.59664 0.44795 0.6194 0.0
C1768 C 0.61477 0.46862 0.62311 0.0
C1769 C 0.70403 0.54359 0.71806 0.0
C1770 C 0.71753 0.53644 0.71055 0.0
C1771 C 0.68793 0.54213 0.70088 0.0
C1772 C 0.68488 0.53321 0.67606 0.0
C1773 C 0.69842 0.52615 0.6685 0.0
C1774 C 0.7148 0.52801 0.68551 0.0
C1775 C 0.66726 0.53083 0.65817 0.0
C1776 C 0.64942 0.51029 0.65208 0.0
C1777 C 0.6675 0.54863 0.64815 0.0
C1778 C 0.68597 0.57069 0.65403 0.0
C1779 C 0.70724 0.57672 0.6486 0.0
C1780 C 0.72459 0.59745 0.65456 0.0
C1781 C 0.72087 0.61236 0.66578 0.0
C1782 C 0.69976 0.60658 0.67098 0.0
C1783 C 0.68235 0.58584 0.6651 0.0
H1784 H 0.73432 0.62841 0.67038 0.0
H1785 H 0.56209 0.42752 0.62237 0.0
H1786 H 0.07073 0.60943 0.03151 0.0
H1787 H 0.09873 0.64056 0.05713 0.0
H1788 H 0.08529 0.60181 0.12329 0.0
H1789 H 0.05786 0.57057 0.09782 0.0
H1790 H 0.0903 0.64147 0.1341 0.0
H1791 H 0.12653 0.61187 0.09004 0.0
H1792 H 0.13637 0.59989 0.05167 0.0
H1793 H 0.16522 0.66251 0.02171 0.0
H1794 H 0.15525 0.67478 0.05977 0.0
H1795 H 0.18147 0.69697 0.21894 0.0
H1796 H 0.1535 0.66987 0.18867 0.0
H1797 H 0.17816 0.71476 0.128 0.0
H1798 H 0.20649 0.74175 0.15833 0.0
H1799 H 0.16707 0.6752 0.11142 0.0
H1800 H 0.13459 0.70616 0.1571 0.0
H1801 H 0.12525 0.71868 0.19539 0.0
H1802 H 0.08913 0.65473 0.2216 0.0
H1803 H 0.09862 0.64187 0.1837 0.0
C1804 C 0.07376 0.60752 0.05149 0.0
C1805 C 0.06209 0.58748 0.06258 0.0
C1806 C 0.08966 0.62533 0.0661 0.0
C1807 C 0.09408 0.62338 0.09201 0.0
C1808 C 0.08199 0.60361 0.10334 0.0
C1809 C 0.06624 0.5858 0.08875 0.0
C1810 C 0.11198 0.64162 0.10718 0.0
C1811 C 0.1071 0.6488 0.12927 0.0
C1812 C 0.13378 0.65149 0.10036 0.0
C1813 C 0.13992 0.64417 0.07759 0.0
C1814 C 0.13481 0.62304 0.07517 0.0
C1815 C 0.14044 0.6162 0.0535 0.0
C1816 C 0.15136 0.63042 0.03422 0.0
C1817 C 0.15672 0.65151 0.03663 0.0
C1818 C 0.1511 0.65841 0.05824 0.0
C1819 C 0.181 0.70084 0.19904 0.0
C1820 C 0.19582 0.72125 0.19075 0.0
C1821 C 0.16503 0.6855 0.18186 0.0
C1822 C 0.16355 0.69049 0.15625 0.0
C1823 C 0.179 0.71067 0.14772 0.0
C1824 C 0.19507 0.72601 0.16493 0.0
C1825 C 0.14545 0.67477 0.1387 0.0
C1826 C 0.15026 0.66809 0.11613 0.0
C1827 C 0.12355 0.66547 0.14499 0.0
C1828 C 0.11746 0.67307 0.16762 0.0
C1829 C 0.12477 0.69478 0.1711 0.0
C1830 C 0.11944 0.70194 0.19274 0.0
C1831 C 0.10662 0.68752 0.21094 0.0
C1832 C 0.09907 0.66589 0.20749 0.0
C1833 C 0.10441 0.65865 0.18592 0.0
H1834 H 0.10252 0.69309 0.22768 0.0
H1835 H 0.1557 0.6251 0.01746 0.0
loop_
_geom_bond_atom_site_label_1
_geom_bond_atom_site_label_2
_geom_bond_distance
_geom_bond_site_symmetry_2
_ccdc_geom_bond_type
C0 C1 1.443 . S
C0 N4 1.376 1_556 S
C0 C38 1.389 . S
C1 C0 1.443 . S
C1 C2 1.340 1_556 S
C1 H41 0.951 . S
C2 C1 1.340 1_554 S
C2 C3 1.439 . S
C2 H42 0.950 . S
C3 C2 1.439 . S
C3 N4 1.374 . S
C3 C37 1.395 . S
N4 C0 1.376 1_554 S
N4 C3 1.374 . S
N4 Co5 1.988 1_655 S
Co5 N4 1.988 1_455 S
Co5 N6 2.010 1_455 S
Co5 N11 2.028 1_554 S
Co5 N16 1.980 1_554 S
Co5 N21 2.292 . S
Co5 N27 2.273 1_454 S
N6 Co5 2.010 1_655 S
N6 C7 1.376 . S
N6 C10 1.383 1_655 S
C7 N6 1.376 . S
C7 C8 1.446 . S
C7 C37 1.391 . S
C8 C7 1.446 . S
C8 C9 1.339 1_655 S
C8 H43 0.949 . S
C9 C8 1.339 1_455 S
C9 C10 1.439 . S
C9 H44 0.950 . S
C10 N6 1.383 1_455 S
C10 C9 1.439 . S
C10 C39 1.392 . S
N11 Co5 2.028 1_556 S
N11 C12 1.376 1_556 S
N11 C15 1.374 . S
C12 N11 1.376 1_554 S
C12 C13 1.443 . S
C12 C39 1.389 . S
C13 C12 1.443 . S
C13 C14 1.340 1_554 S
C13 H45 0.951 . S
C14 C13 1.340 1_556 S
C14 C15 1.439 . S
C14 H46 0.950 . S
C15 N11 1.374 . S
C15 C14 1.439 . S
C15 C40 1.395 . S
N16 Co5 1.980 1_556 S
N16 C17 1.376 . S
N16 C20 1.383 1_455 S
C17 N16 1.376 . S
C17 C18 1.446 . S
C17 C40 1.391 . S
C18 C17 1.446 . S
C18 C19 1.339 1_455 S
C18 H47 0.949 . S
C19 C18 1.339 1_655 S
C19 C20 1.439 . S
C19 H48 0.950 . S
C20 N16 1.383 1_655 S
C20 C19 1.439 . S
C20 C38 1.392 . S
N21 Co5 2.292 . S
N21 C24 1.332 . S
N21 C26 1.332 . S
C22 C23 1.386 . S
C22 C25 1.388 . S
C23 C22 1.386 . S
C23 C24 1.382 . S
C23 H49 0.950 . S
C24 N21 1.332 . S
C24 C23 1.382 . S
C24 H35 0.918 1_554 S
C25 C22 1.388 . S
C25 C26 1.382 . S
C25 H50 0.950 . S
C26 N21 1.332 . S
C26 C25 1.382 . S
C26 H36 0.948 . S
N27 Co5 2.273 1_656 S
N27 C31 1.332 . S
N27 C32 1.332 . S
C28 C29 1.388 . S
C28 C32 1.382 . S
C28 H51 0.950 . S
C29 C28 1.388 . S
C29 C30 1.386 . S
C30 C29 1.386 . S
C30 C31 1.382 . S
C30 H52 0.950 . S
C31 N27 1.332 . S
C31 C30 1.382 . S
C31 H33 0.952 1_556 S
C32 N27 1.332 . S
C32 C28 1.382 . S
C32 H34 0.948 . S
H33 C31 0.952 1_554 S
H34 C32 0.948 . S
H35 C24 0.918 1_556 S
H36 C26 0.948 . S
C37 C3 1.395 . S
C37 C7 1.391 . S
C38 C0 1.389 . S
C38 C20 1.392 . S
C39 C10 1.392 . S
C39 C12 1.389 . S
C40 C15 1.395 . S
C40 C17 1.391 . S
H41 C1 0.951 . S
H42 C2 0.950 . S
H43 C8 0.949 . S
H44 C9 0.950 . S
H45 C13 0.951 . S
H46 C14 0.950 . S
H47 C18 0.949 . S
H48 C19 0.950 . S
H49 C23 0.950 . S
H50 C25 0.950 . S
H51 C28 0.950 . S
H52 C30 0.950 . S
C53 C54 1.443 . S
C53 N57 1.357 1_545 S
C53 C91 1.389 . S
C54 C53 1.443 . S
C54 C55 1.340 1_545 S
C54 H94 0.951 . S
C55 C54 1.340 1_565 S
C55 C56 1.439 . S
C55 H95 0.950 . S
C56 C55 1.439 . S
C56 N57 1.406 . S
C56 C90 1.395 . S
N57 C53 1.357 1_565 S
N57 C56 1.406 . S
N57 Co58 1.983 1_565 S
Co58 N57 1.983 1_545 S
Co58 N59 1.974 1_545 S
Co58 N64 2.020 . S
Co58 N69 2.016 . S
Co58 N74 2.247 1_545 S
Co58 N80 2.319 . S
N59 Co58 1.974 1_565 S
N59 C60 1.376 . S
N59 C63 1.383 . S
C60 N59 1.376 . S
C60 C61 1.446 . S
C60 C90 1.391 . S
C61 C60 1.446 . S
C61 C62 1.339 . S
C61 H96 0.949 . S
C62 C61 1.339 . S
C62 C63 1.439 . S
C62 H97 0.950 . S
C63 N59 1.383 . S
C63 C62 1.439 . S
C63 C92 1.392 . S
N64 Co58 2.020 . S
N64 C65 1.376 1_545 S
N64 C68 1.374 . S
C65 N64 1.376 1_565 S
C65 C66 1.443 . S
C65 C92 1.389 . S
C66 C65 1.443 . S
C66 C67 1.340 1_565 S
C66 H98 0.951 . S
C67 C66 1.340 1_545 S
C67 C68 1.439 . S
C67 H99 0.950 . S
C68 N64 1.374 . S
C68 C67 1.439 . S
C68 C93 1.395 . S
N69 Co58 2.016 . S
N69 C70 1.376 . S
N69 C73 1.383 . S
C70 N69 1.376 . S
C70 C71 1.446 . S
C70 C93 1.391 . S
C71 C70 1.446 . S
C71 C72 1.339 . S
C71 H100 0.949 . S
C72 C71 1.339 . S
C72 C73 1.439 . S
C72 H101 0.950 . S
C73 N69 1.383 . S
C73 C72 1.439 . S
C73 C91 1.392 . S
N74 Co58 2.247 1_565 S
N74 C77 1.332 . S
N74 C79 1.332 . S
C75 C76 1.386 . S
C75 C78 1.388 . S
C76 C75 1.386 . S
C76 C77 1.382 . S
C76 H102 0.950 . S
C77 N74 1.332 . S
C77 C76 1.382 . S
C77 H88 0.952 1_565 S
C78 C75 1.388 . S
C78 C79 1.382 . S
C78 H103 0.950 . S
C79 N74 1.332 . S
C79 C78 1.382 . S
C79 H89 0.948 . S
N80 Co58 2.319 . S
N80 C84 1.332 . S
N80 C85 1.332 . S
C81 C82 1.388 . S
C81 C85 1.382 . S
C81 H104 0.950 . S
C82 C81 1.388 . S
C82 C83 1.386 . S
C83 C82 1.386 . S
C83 C84 1.382 . S
C83 H105 0.950 . S
C84 N80 1.332 . S
C84 C83 1.382 . S
C84 H86 0.952 1_545 S
C85 N80 1.332 . S
C85 C81 1.382 . S
C85 H87 0.948 . S
H86 C84 0.952 1_565 S
H87 C85 0.948 . S
H88 C77 0.952 1_545 S
H89 C79 0.948 . S
C90 C56 1.395 . S
C90 C60 1.391 . S
C91 C53 1.389 . S
C91 C73 1.392 . S
C92 C63 1.392 . S
C92 C65 1.389 . S
C93 C68 1.395 . S
C93 C70 1.391 . S
H94 C54 0.951 . S
H95 C55 0.950 . S
H96 C61 0.949 . S
H97 C62 0.950 . S
H98 C66 0.951 . S
H99 C67 0.950 . S
H100 C71 0.949 . S
H101 C72 0.950 . S
H102 C76 0.950 . S
H103 C78 0.950 . S
H104 C81 0.950 . S
H105 C83 0.950 . S
C106 C107 1.443 . S
C106 N110 1.376 . S
C106 C144 1.389 . S
C107 C106 1.443 . S
C107 C108 1.340 . S
C107 H147 0.951 . S
C108 C107 1.340 . S
C108 C109 1.439 . S
C108 H148 0.950 . S
C109 C108 1.439 . S
C109 N110 1.374 . S
C109 C143 1.395 . S
N110 C106 1.376 . S
N110 C109 1.374 . S
N110 Co111 1.995 1_556 S
Co111 N110 1.995 1_554 S
Co111 N112 1.992 1_554 S
Co111 N117 2.021 . S
Co111 N122 1.997 . S
Co111 N127 2.289 . S
Co111 N133 2.276 1_554 S
N112 Co111 1.992 1_556 S
N112 C113 1.376 . S
N112 C116 1.383 1_556 S
C113 N112 1.376 . S
C113 C114 1.446 . S
C113 C143 1.391 . S
C114 C113 1.446 . S
C114 C115 1.339 . S
C114 H149 0.949 . S
C115 C114 1.339 . S
C115 C116 1.439 1_556 S
C115 H150 0.950 1_556 S
C116 N112 1.383 1_554 S
C116 C115 1.439 1_554 S
C116 C145 1.392 . S
N117 Co111 2.021 . S
N117 C118 1.376 . S
N117 C121 1.374 . S
C118 N117 1.376 . S
C118 C119 1.443 . S
C118 C145 1.389 . S
C119 C118 1.443 . S
C119 C120 1.340 . S
C119 H151 0.951 . S
C120 C119 1.340 . S
C120 C121 1.439 . S
C120 H152 0.950 . S
C121 N117 1.374 . S
C121 C120 1.439 . S
C121 C146 1.395 . S
N122 Co111 1.997 . S
N122 C123 1.376 . S
N122 C126 1.383 1_554 S
C123 N122 1.376 . S
C123 C124 1.446 . S
C123 C146 1.391 . S
C124 C123 1.446 . S
C124 C125 1.339 . S
C124 H153 0.949 . S
C125 C124 1.339 . S
C125 C126 1.439 1_554 S
C125 H154 0.950 1_554 S
C126 N122 1.383 1_556 S
C126 C125 1.439 1_556 S
C126 C144 1.392 . S
N127 Co111 2.289 . S
N127 C130 1.332 . S
N127 C132 1.332 . S
C128 C129 1.386 . S
C128 C131 1.388 . S
C129 C128 1.386 . S
C129 C130 1.382 . S
C129 H155 0.950 . S
C130 N127 1.332 . S
C130 C129 1.382 . S
C130 H141 0.952 . S
C131 C128 1.388 . S
C131 C132 1.382 . S
C131 H156 0.950 . S
C132 N127 1.332 . S
C132 C131 1.382 . S
C132 H142 0.948 . S
N133 Co111 2.276 1_556 S
N133 C137 1.332 . S
N133 C138 1.332 . S
C134 C135 1.388 . S
C134 C138 1.382 . S
C134 H157 0.950 . S
C135 C134 1.388 . S
C135 C136 1.386 . S
C136 C135 1.386 . S
C136 C137 1.382 . S
C136 H158 0.950 . S
C137 N133 1.332 . S
C137 C136 1.382 . S
C137 H139 0.952 . S
C138 N133 1.332 . S
C138 C134 1.382 . S
C138 H140 0.948 . S
H139 C137 0.952 . S
H140 C138 0.948 . S
H141 C130 0.952 . S
H142 C132 0.948 . S
C143 C109 1.395 . S
C143 C113 1.391 . S
C144 C106 1.389 . S
C144 C126 1.392 . S
C145 C116 1.392 . S
C145 C118 1.389 . S
C146 C121 1.395 . S
C146 C123 1.391 . S
H147 C107 0.951 . S
H148 C108 0.950 . S
H149 C114 0.949 . S
H150 C115 0.950 1_554 S
H151 C119 0.951 . S
H152 C120 0.950 . S
H153 C124 0.949 . S
H154 C125 0.950 1_556 S
H155 C129 0.950 . S
H156 C131 0.950 . S
H157 C134 0.950 . S
H158 C136 0.950 . S
C159 C160 1.443 . S
C159 N163 1.376 . S
C159 C197 1.389 . S
C160 C159 1.443 . S
C160 C161 1.340 . S
C160 H200 0.951 . S
C161 C160 1.340 . S
C161 C162 1.439 . S
C161 H201 0.950 . S
C162 C161 1.439 . S
C162 N163 1.374 . S
C162 C196 1.395 . S
N163 C159 1.376 . S
N163 C162 1.374 . S
N163 Co164 1.995 1_655 S
Co164 N163 1.995 1_455 S
Co164 N165 1.986 1_455 S
Co164 N170 2.022 . S
Co164 N175 2.003 . S
Co164 N180 2.300 . S
Co164 N186 2.265 1_455 S
N165 Co164 1.986 1_655 S
N165 C166 1.376 . S
N165 C169 1.383 1_655 S
C166 N165 1.376 . S
C166 C167 1.446 . S
C166 C196 1.391 . S
C167 C166 1.446 . S
C167 C168 1.339 1_655 S
C167 H202 0.949 . S
C168 C167 1.339 1_455 S
C168 C169 1.439 . S
C168 H203 0.950 . S
C169 N165 1.383 1_455 S
C169 C168 1.439 . S
C169 C198 1.392 . S
N170 Co164 2.022 . S
N170 C171 1.376 . S
N170 C174 1.374 . S
C171 N170 1.376 . S
C171 C172 1.443 . S
C171 C198 1.389 . S
C172 C171 1.443 . S
C172 C173 1.340 . S
C172 H204 0.951 . S
C173 C172 1.340 . S
C173 C174 1.439 . S
C173 H205 0.950 . S
C174 N170 1.374 . S
C174 C173 1.439 . S
C174 C199 1.395 . S
N175 Co164 2.003 . S
N175 C176 1.376 . S
N175 C179 1.383 1_455 S
C176 N175 1.376 . S
C176 C177 1.446 . S
C176 C199 1.391 . S
C177 C176 1.446 . S
C177 C178 1.312 1_455 S
C177 H206 0.949 . S
C178 C177 1.312 1_655 S
C178 C179 1.460 . S
C178 H207 0.956 . S
C179 N175 1.383 1_655 S
C179 C178 1.460 . S
C179 C197 1.392 . S
N180 Co164 2.300 . S
N180 C183 1.332 . S
N180 C185 1.332 . S
C181 C182 1.386 . S
C181 C184 1.388 . S
C182 C181 1.386 . S
C182 C183 1.382 . S
C182 H208 0.950 . S
C183 N180 1.332 . S
C183 C182 1.382 . S
C183 H194 0.952 . S
C184 C181 1.388 . S
C184 C185 1.382 . S
C184 H209 0.950 . S
C185 N180 1.332 . S
C185 C184 1.382 . S
C185 H195 0.967 . S
N186 Co164 2.265 1_655 S
N186 C190 1.332 . S
N186 C191 1.332 . S
C187 C188 1.388 . S
C187 C191 1.382 . S
C187 H210 0.950 . S
C188 C187 1.388 . S
C188 C189 1.386 . S
C189 C188 1.386 . S
C189 C190 1.382 . S
C189 H211 0.950 . S
C190 N186 1.332 . S
C190 C189 1.382 . S
C190 H192 0.952 . S
C191 N186 1.332 . S
C191 C187 1.382 . S
C191 H193 0.925 1_655 S
H192 C190 0.952 . S
H193 C191 0.925 1_455 S
H194 C183 0.952 . S
H195 C185 0.967 . S
C196 C162 1.395 . S
C196 C166 1.391 . S
C197 C159 1.389 . S
C197 C179 1.392 . S
C198 C169 1.392 . S
C198 C171 1.389 . S
C199 C174 1.395 . S
C199 C176 1.391 . S
H200 C160 0.951 . S
H201 C161 0.950 . S
H202 C167 0.949 . S
H203 C168 0.950 . S
H204 C172 0.951 . S
H205 C173 0.950 . S
H206 C177 0.949 . S
H207 C178 0.956 . S
H208 C182 0.950 . S
H209 C184 0.950 . S
H210 C187 0.950 . S
H211 C189 0.950 . S
C212 C213 1.443 . S
C212 N216 1.376 1_565 S
C212 C250 1.389 . S
C213 C212 1.443 . S
C213 C214 1.340 1_565 S
C213 H253 0.951 . S
C214 C213 1.340 1_545 S
C214 C215 1.439 . S
C214 H254 0.950 . S
C215 C214 1.439 . S
C215 N216 1.374 . S
C215 C249 1.395 . S
N216 C212 1.376 1_545 S
N216 C215 1.374 . S
N216 Co217 2.034 . S
Co217 N216 2.034 . S
Co217 N218 2.016 . S
Co217 N223 1.983 1_544 S
Co217 N228 1.974 1_544 S
Co217 N233 2.312 1_554 S
Co217 N239 2.254 1_545 S
N218 Co217 2.016 . S
N218 C219 1.376 . S
N218 C222 1.383 1_554 S
C219 N218 1.376 . S
C219 C220 1.446 . S
C219 C249 1.391 . S
C220 C219 1.446 . S
C220 C221 1.339 1_554 S
C220 H255 0.949 . S
C221 C220 1.339 1_556 S
C221 C222 1.439 . S
C221 H256 0.950 . S
C222 N218 1.383 1_556 S
C222 C221 1.439 . S
C222 C251 1.392 . S
N223 Co217 1.983 1_566 S
N223 C224 1.376 1_565 S
N223 C227 1.374 . S
C224 N223 1.376 1_545 S
C224 C225 1.443 . S
C224 C251 1.389 . S
C225 C224 1.443 . S
C225 C226 1.340 1_545 S
C225 H257 0.951 . S
C226 C225 1.340 1_565 S
C226 C227 1.439 . S
C226 H258 0.950 . S
C227 N223 1.374 . S
C227 C226 1.439 . S
C227 C252 1.395 . S
N228 Co217 1.974 1_566 S
N228 C229 1.376 . S
N228 C232 1.383 1_556 S
C229 N228 1.376 . S
C229 C230 1.446 . S
C229 C252 1.391 . S
C230 C229 1.446 . S
C230 C231 1.339 1_556 S
C230 H259 0.949 . S
C231 C230 1.339 1_554 S
C231 C232 1.439 . S
C231 H260 0.950 . S
C232 N228 1.383 1_554 S
C232 C231 1.439 . S
C232 C250 1.392 . S
N233 Co217 2.312 1_556 S
N233 C236 1.332 . S
N233 C238 1.332 . S
C234 C235 1.386 . S
C234 C237 1.388 . S
C235 C234 1.386 . S
C235 C236 1.382 . S
C235 H261 0.950 . S
C236 N233 1.332 . S
C236 C235 1.382 . S
C236 H247 0.952 1_545 S
C237 C234 1.388 . S
C237 C238 1.382 . S
C237 H262 0.950 . S
C238 N233 1.332 . S
C238 C237 1.382 . S
C238 H248 0.948 . S
N239 Co217 2.254 1_565 S
N239 C243 1.332 . S
N239 C244 1.332 . S
C240 C241 1.388 . S
C240 C244 1.382 . S
C240 H263 0.950 . S
C241 C240 1.388 . S
C241 C242 1.386 . S
C242 C241 1.386 . S
C242 C243 1.382 . S
C242 H264 0.950 . S
C243 N239 1.332 . S
C243 C242 1.382 . S
C243 H245 0.952 1_565 S
C244 N239 1.332 . S
C244 C240 1.382 . S
C244 H246 0.948 . S
H245 C243 0.952 1_545 S
H246 C244 0.948 . S
H247 C236 0.952 1_565 S
H248 C238 0.948 . S
C249 C215 1.395 . S
C249 C219 1.391 . S
C250 C212 1.389 . S
C250 C232 1.392 . S
C251 C222 1.392 . S
C251 C224 1.389 . S
C252 C227 1.395 . S
C252 C229 1.391 . S
H253 C213 0.951 . S
H254 C214 0.950 . S
H255 C220 0.949 . S
H256 C221 0.950 . S
H257 C225 0.951 . S
H258 C226 0.950 . S
H259 C230 0.949 . S
H260 C231 0.950 . S
H261 C235 0.950 . S
H262 C237 0.950 . S
H263 C240 0.950 . S
H264 C242 0.950 . S
C265 C266 1.443 . S
C265 N269 1.376 . S
C265 C303 1.389 . S
C266 C265 1.443 . S
C266 C267 1.340 . S
C266 H306 0.951 . S
C267 C266 1.340 . S
C267 C268 1.439 . S
C267 H307 0.950 . S
C268 C267 1.439 . S
C268 N269 1.374 . S
C268 C302 1.395 . S
N269 C265 1.376 . S
N269 C268 1.374 . S
N269 Co270 2.008 . S
Co270 N269 2.008 . S
Co270 N271 1.995 . S
Co270 N276 2.008 . S
Co270 N281 1.995 . S
Co270 N286 2.282 . S
Co270 N292 2.282 . S
N271 Co270 1.995 . S
N271 C272 1.376 . S
N271 C275 1.383 . S
C272 N271 1.376 . S
C272 C273 1.446 . S
C272 C302 1.391 . S
C273 C272 1.446 . S
C273 C274 1.339 . S
C273 H308 0.949 . S
C274 C273 1.339 . S
C274 C275 1.439 . S
C274 H309 0.950 . S
C275 N271 1.383 . S
C275 C274 1.439 . S
C275 C304 1.392 . S
N276 Co270 2.008 . S
N276 C277 1.376 . S
N276 C280 1.374 . S
C277 N276 1.376 . S
C277 C278 1.443 . S
C277 C304 1.389 . S
C278 C277 1.443 . S
C278 C279 1.340 . S
C278 H310 0.951 . S
C279 C278 1.340 . S
C279 C280 1.439 . S
C279 H311 0.950 . S
C280 N276 1.374 . S
C280 C279 1.439 . S
C280 C305 1.395 . S
N281 Co270 1.995 . S
N281 C282 1.376 . S
N281 C285 1.383 . S
C282 N281 1.376 . S
C282 C283 1.446 . S
C282 C305 1.391 . S
C283 C282 1.446 . S
C283 C284 1.339 . S
C283 H312 0.949 . S
C284 C283 1.339 . S
C284 C285 1.439 . S
C284 H313 0.950 . S
C285 N281 1.383 . S
C285 C284 1.439 . S
C285 C303 1.392 . S
N286 Co270 2.282 . S
N286 C289 1.332 . S
N286 C291 1.332 . S
C287 C288 1.386 . S
C287 C290 1.388 . S
C288 C287 1.386 . S
C288 C289 1.382 . S
C288 H314 0.950 . S
C289 N286 1.332 . S
C289 C288 1.382 . S
C289 H300 0.952 . S
C290 C287 1.388 . S
C290 C291 1.382 . S
C290 H315 0.950 . S
C291 N286 1.332 . S
C291 C290 1.382 . S
C291 H301 0.948 . S
N292 Co270 2.282 . S
N292 C296 1.332 . S
N292 C297 1.332 . S
C293 C294 1.388 . S
C293 C297 1.382 . S
C293 H316 0.950 . S
C294 C293 1.388 . S
C294 C295 1.386 . S
C295 C294 1.386 . S
C295 C296 1.382 . S
C295 H317 0.950 . S
C296 N292 1.332 . S
C296 C295 1.382 . S
C296 H298 0.952 . S
C297 N292 1.332 . S
C297 C293 1.382 . S
C297 H299 0.948 . S
H298 C296 0.952 . S
H299 C297 0.948 . S
H300 C289 0.952 . S
H301 C291 0.948 . S
C302 C268 1.395 . S
C302 C272 1.391 . S
C303 C265 1.389 . S
C303 C285 1.392 . S
C304 C275 1.392 . S
C304 C277 1.389 . S
C305 C280 1.395 . S
C305 C282 1.391 . S
H306 C266 0.951 . S
H307 C267 0.950 . S
H308 C273 0.949 . S
H309 C274 0.950 . S
H310 C278 0.951 . S
H311 C279 0.950 . S
H312 C283 0.949 . S
H313 C284 0.950 . S
H314 C288 0.950 . S
H315 C290 0.950 . S
H316 C293 0.950 . S
H317 C295 0.950 . S
C318 C319 1.443 . S
C318 N322 1.376 . S
C318 C356 1.389 . S
C319 C318 1.443 . S
C319 C320 1.340 . S
C319 H359 0.951 . S
C320 C319 1.340 . S
C320 C321 1.439 . S
C320 H360 0.950 . S
C321 C320 1.439 . S
C321 N322 1.374 . S
C321 C355 1.395 . S
N322 C318 1.376 . S
N322 C321 1.374 . S
N322 Co323 2.008 . S
Co323 N322 2.008 . S
Co323 N324 1.995 . S
Co323 N329 2.008 . S
Co323 N334 1.995 . S
Co323 N339 2.282 . S
Co323 N345 2.282 . S
N324 Co323 1.995 . S
N324 C325 1.376 . S
N324 C328 1.383 . S
C325 N324 1.376 . S
C325 C326 1.446 . S
C325 C355 1.391 . S
C326 C325 1.446 . S
C326 C327 1.339 . S
C326 H361 0.949 . S
C327 C326 1.339 . S
C327 C328 1.439 . S
C327 H362 0.950 . S
C328 N324 1.383 . S
C328 C327 1.439 . S
C328 C357 1.392 . S
N329 Co323 2.008 . S
N329 C330 1.376 . S
N329 C333 1.374 . S
C330 N329 1.376 . S
C330 C331 1.443 . S
C330 C357 1.389 . S
C331 C330 1.443 . S
C331 C332 1.340 . S
C331 H363 0.951 . S
C332 C331 1.340 . S
C332 C333 1.439 . S
C332 H364 0.950 . S
C333 N329 1.374 . S
C333 C332 1.439 . S
C333 C358 1.395 . S
N334 Co323 1.995 . S
N334 C335 1.376 . S
N334 C338 1.383 . S
C335 N334 1.376 . S
C335 C336 1.446 . S
C335 C358 1.391 . S
C336 C335 1.446 . S
C336 C337 1.339 . S
C336 H365 0.949 . S
C337 C336 1.339 . S
C337 C338 1.439 . S
C337 H366 0.950 . S
C338 N334 1.383 . S
C338 C337 1.439 . S
C338 C356 1.392 . S
N339 Co323 2.282 . S
N339 C342 1.332 . S
N339 C344 1.332 . S
C340 C341 1.386 . S
C340 C343 1.388 . S
C341 C340 1.386 . S
C341 C342 1.382 . S
C341 H367 0.950 . S
C342 N339 1.332 . S
C342 C341 1.382 . S
C342 H353 0.952 . S
C343 C340 1.388 . S
C343 C344 1.382 . S
C343 H368 0.950 . S
C344 N339 1.332 . S
C344 C343 1.382 . S
C344 H354 0.948 . S
N345 Co323 2.282 . S
N345 C349 1.332 . S
N345 C350 1.332 . S
C346 C347 1.388 . S
C346 C350 1.382 . S
C346 H369 0.950 . S
C347 C346 1.388 . S
C347 C348 1.386 . S
C348 C347 1.386 . S
C348 C349 1.382 . S
C348 H370 0.950 . S
C349 N345 1.332 . S
C349 C348 1.382 . S
C349 H351 0.952 . S
C350 N345 1.332 . S
C350 C346 1.382 . S
C350 H352 0.948 . S
H351 C349 0.952 . S
H352 C350 0.948 . S
H353 C342 0.952 . S
H354 C344 0.948 . S
C355 C321 1.395 . S
C355 C325 1.391 . S
C356 C318 1.389 . S
C356 C338 1.392 . S
C357 C328 1.392 . S
C357 C330 1.389 . S
C358 C333 1.395 . S
C358 C335 1.391 . S
H359 C319 0.951 . S
H360 C320 0.950 . S
H361 C326 0.949 . S
H362 C327 0.950 . S
H363 C331 0.951 . S
H364 C332 0.950 . S
H365 C336 0.949 . S
H366 C337 0.950 . S
H367 C341 0.950 . S
H368 C343 0.950 . S
H369 C346 0.950 . S
H370 C348 0.950 . S
C371 C372 1.443 . S
C371 N375 1.376 . S
C371 C409 1.389 . S
C372 C371 1.443 . S
C372 C373 1.340 . S
C372 H412 0.951 . S
C373 C372 1.340 . S
C373 C374 1.439 . S
C373 H413 0.950 . S
C374 C373 1.439 . S
C374 N375 1.374 . S
C374 C408 1.395 . S
N375 C371 1.376 . S
N375 C374 1.374 . S
N375 Co376 2.008 . S
Co376 N375 2.008 . S
Co376 N377 1.995 . S
Co376 N382 2.008 . S
Co376 N387 1.995 . S
Co376 N392 2.282 . S
Co376 N398 2.282 . S
N377 Co376 1.995 . S
N377 C378 1.376 . S
N377 C381 1.383 . S
C378 N377 1.376 . S
C378 C379 1.446 . S
C378 C408 1.391 . S
C379 C378 1.446 . S
C379 C380 1.339 . S
C379 H414 0.949 . S
C380 C379 1.339 . S
C380 C381 1.439 . S
C380 H415 0.950 . S
C381 N377 1.383 . S
C381 C380 1.439 . S
C381 C410 1.392 . S
N382 Co376 2.008 . S
N382 C383 1.376 . S
N382 C386 1.374 . S
C383 N382 1.376 . S
C383 C384 1.443 . S
C383 C410 1.389 . S
C384 C383 1.443 . S
C384 C385 1.340 . S
C384 H416 0.951 . S
C385 C384 1.340 . S
C385 C386 1.439 . S
C385 H417 0.950 . S
C386 N382 1.374 . S
C386 C385 1.439 . S
C386 C411 1.395 . S
N387 Co376 1.995 . S
N387 C388 1.376 . S
N387 C391 1.383 . S
C388 N387 1.376 . S
C388 C389 1.446 . S
C388 C411 1.391 . S
C389 C388 1.446 . S
C389 C390 1.339 . S
C389 H418 0.949 . S
C390 C389 1.339 . S
C390 C391 1.439 . S
C390 H419 0.950 . S
C391 N387 1.383 . S
C391 C390 1.439 . S
C391 C409 1.392 . S
N392 Co376 2.282 . S
N392 C395 1.332 . S
N392 C397 1.332 . S
C393 C394 1.386 . S
C393 C396 1.388 . S
C394 C393 1.386 . S
C394 C395 1.382 . S
C394 H420 0.950 . S
C395 N392 1.332 . S
C395 C394 1.382 . S
C395 H406 0.952 . S
C396 C393 1.388 . S
C396 C397 1.382 . S
C396 H421 0.950 . S
C397 N392 1.332 . S
C397 C396 1.382 . S
C397 H407 0.948 . S
N398 Co376 2.282 . S
N398 C402 1.332 . S
N398 C403 1.332 . S
C399 C400 1.388 . S
C399 C403 1.382 . S
C399 H422 0.950 . S
C400 C399 1.388 . S
C400 C401 1.386 . S
C401 C400 1.386 . S
C401 C402 1.382 . S
C401 H423 0.950 . S
C402 N398 1.332 . S
C402 C401 1.382 . S
C402 H404 0.952 . S
C403 N398 1.332 . S
C403 C399 1.382 . S
C403 H405 0.948 . S
H404 C402 0.952 . S
H405 C403 0.948 . S
H406 C395 0.952 . S
H407 C397 0.948 . S
C408 C374 1.395 . S
C408 C378 1.391 . S
C409 C371 1.389 . S
C409 C391 1.392 . S
C410 C381 1.392 . S
C410 C383 1.389 . S
C411 C386 1.395 . S
C411 C388 1.391 . S
H412 C372 0.951 . S
H413 C373 0.950 . S
H414 C379 0.949 . S
H415 C380 0.950 . S
H416 C384 0.951 . S
H417 C385 0.950 . S
H418 C389 0.949 . S
H419 C390 0.950 . S
H420 C394 0.950 . S
H421 C396 0.950 . S
H422 C399 0.950 . S
H423 C401 0.950 . S
C424 C425 1.443 . S
C424 N428 1.376 . S
C424 C462 1.389 . S
C425 C424 1.443 . S
C425 C426 1.340 . S
C425 H465 0.951 . S
C426 C425 1.340 . S
C426 C427 1.439 . S
C426 H466 0.950 . S
C427 C426 1.439 . S
C427 N428 1.374 . S
C427 C461 1.395 . S
N428 C424 1.376 . S
N428 C427 1.374 . S
N428 Co429 2.008 . S
Co429 N428 2.008 . S
Co429 N430 1.995 . S
Co429 N435 2.008 . S
Co429 N440 1.995 . S
Co429 N445 2.282 . S
Co429 N451 2.282 . S
N430 Co429 1.995 . S
N430 C431 1.376 . S
N430 C434 1.383 . S
C431 N430 1.376 . S
C431 C432 1.446 . S
C431 C461 1.391 . S
C432 C431 1.446 . S
C432 C433 1.339 . S
C432 H467 0.949 . S
C433 C432 1.339 . S
C433 C434 1.439 . S
C433 H468 0.950 . S
C434 N430 1.383 . S
C434 C433 1.439 . S
C434 C463 1.392 . S
N435 Co429 2.008 . S
N435 C436 1.376 . S
N435 C439 1.374 . S
C436 N435 1.376 . S
C436 C437 1.443 . S
C436 C463 1.389 . S
C437 C436 1.443 . S
C437 C438 1.340 . S
C437 H469 0.951 . S
C438 C437 1.340 . S
C438 C439 1.439 . S
C438 H470 0.950 . S
C439 N435 1.374 . S
C439 C438 1.439 . S
C439 C464 1.395 . S
N440 Co429 1.995 . S
N440 C441 1.376 . S
N440 C444 1.383 . S
C441 N440 1.376 . S
C441 C442 1.446 . S
C441 C464 1.391 . S
C442 C441 1.446 . S
C442 C443 1.339 . S
C442 H471 0.949 . S
C443 C442 1.339 . S
C443 C444 1.439 . S
C443 H472 0.950 . S
C444 N440 1.383 . S
C444 C443 1.439 . S
C444 C462 1.392 . S
N445 Co429 2.282 . S
N445 C448 1.332 . S
N445 C450 1.332 . S
C446 C447 1.386 . S
C446 C449 1.388 . S
C447 C446 1.386 . S
C447 C448 1.382 . S
C447 H473 0.950 . S
C448 N445 1.332 . S
C448 C447 1.382 . S
C448 H459 0.952 . S
C449 C446 1.388 . S
C449 C450 1.382 . S
C449 H474 0.950 . S
C450 N445 1.332 . S
C450 C449 1.382 . S
C450 H460 0.948 . S
N451 Co429 2.282 . S
N451 C455 1.332 . S
N451 C456 1.332 . S
C452 C453 1.388 . S
C452 C456 1.382 . S
C452 H475 0.950 . S
C453 C452 1.388 . S
C453 C454 1.386 . S
C454 C453 1.386 . S
C454 C455 1.382 . S
C454 H476 0.950 . S
C455 N451 1.332 . S
C455 C454 1.382 . S
C455 H457 0.952 . S
C456 N451 1.332 . S
C456 C452 1.382 . S
C456 H458 0.948 . S
H457 C455 0.952 . S
H458 C456 0.948 . S
H459 C448 0.952 . S
H460 C450 0.948 . S
C461 C427 1.395 . S
C461 C431 1.391 . S
C462 C424 1.389 . S
C462 C444 1.392 . S
C463 C434 1.392 . S
C463 C436 1.389 . S
C464 C439 1.395 . S
C464 C441 1.391 . S
H465 C425 0.951 . S
H466 C426 0.950 . S
H467 C432 0.949 . S
H468 C433 0.950 . S
H469 C437 0.951 . S
H470 C438 0.950 . S
H471 C442 0.949 . S
H472 C443 0.950 . S
H473 C447 0.950 . S
H474 C449 0.950 . S
H475 C452 0.950 . S
H476 C454 0.950 . S
C477 C478 1.443 . S
C477 N481 1.376 . S
C477 C515 1.389 . S
C478 C477 1.443 . S
C478 C479 1.340 . S
C478 H518 0.951 . S
C479 C478 1.340 . S
C479 C480 1.439 . S
C479 H519 0.950 . S
C480 C479 1.439 . S
C480 N481 1.374 . S
C480 C514 1.395 . S
N481 C477 1.376 . S
N481 C480 1.374 . S
N481 Co482 2.008 . S
Co482 N481 2.008 . S
Co482 N483 1.995 . S
Co482 N488 2.008 . S
Co482 N493 1.995 . S
Co482 N498 2.282 . S
Co482 N504 2.282 . S
N483 Co482 1.995 . S
N483 C484 1.376 . S
N483 C487 1.383 . S
C484 N483 1.376 . S
C484 C485 1.446 . S
C484 C514 1.391 . S
C485 C484 1.446 . S
C485 C486 1.339 . S
C485 H520 0.949 . S
C486 C485 1.339 . S
C486 C487 1.439 . S
C486 H521 0.950 . S
C487 N483 1.383 . S
C487 C486 1.439 . S
C487 C516 1.392 . S
N488 Co482 2.008 . S
N488 C489 1.376 . S
N488 C492 1.374 . S
C489 N488 1.376 . S
C489 C490 1.443 . S
C489 C516 1.389 . S
C490 C489 1.443 . S
C490 C491 1.340 . S
C490 H522 0.951 . S
C491 C490 1.340 . S
C491 C492 1.439 . S
C491 H523 0.950 . S
C492 N488 1.374 . S
C492 C491 1.439 . S
C492 C517 1.395 . S
N493 Co482 1.995 . S
N493 C494 1.376 . S
N493 C497 1.383 . S
C494 N493 1.376 . S
C494 C495 1.446 . S
C494 C517 1.391 . S
C495 C494 1.446 . S
C495 C496 1.339 . S
C495 H524 0.949 . S
C496 C495 1.339 . S
C496 C497 1.439 . S
C496 H525 0.950 . S
C497 N493 1.383 . S
C497 C496 1.439 . S
C497 C515 1.392 . S
N498 Co482 2.282 . S
N498 C501 1.332 . S
N498 C503 1.332 . S
C499 C500 1.386 . S
C499 C502 1.388 . S
C500 C499 1.386 . S
C500 C501 1.382 . S
C500 H526 0.950 . S
C501 N498 1.332 . S
C501 C500 1.382 . S
C501 H512 0.952 . S
C502 C499 1.388 . S
C502 C503 1.382 . S
C502 H527 0.950 . S
C503 N498 1.332 . S
C503 C502 1.382 . S
C503 H513 0.948 . S
N504 Co482 2.282 . S
N504 C508 1.332 . S
N504 C509 1.332 . S
C505 C506 1.388 . S
C505 C509 1.382 . S
C505 H528 0.950 . S
C506 C505 1.388 . S
C506 C507 1.386 . S
C507 C506 1.386 . S
C507 C508 1.382 . S
C507 H529 0.950 . S
C508 N504 1.332 . S
C508 C507 1.382 . S
C508 H510 0.952 . S
C509 N504 1.332 . S
C509 C505 1.382 . S
C509 H511 0.948 . S
H510 C508 0.952 . S
H511 C509 0.948 . S
H512 C501 0.952 . S
H513 C503 0.948 . S
C514 C480 1.395 . S
C514 C484 1.391 . S
C515 C477 1.389 . S
C515 C497 1.392 . S
C516 C487 1.392 . S
C516 C489 1.389 . S
C517 C492 1.395 . S
C517 C494 1.391 . S
H518 C478 0.951 . S
H519 C479 0.950 . S
H520 C485 0.949 . S
H521 C486 0.950 . S
H522 C490 0.951 . S
H523 C491 0.950 . S
H524 C495 0.949 . S
H525 C496 0.950 . S
H526 C500 0.950 . S
H527 C502 0.950 . S
H528 C505 0.950 . S
H529 C507 0.950 . S
C530 C531 1.443 . S
C530 N534 1.376 . S
C530 C568 1.389 . S
C531 C530 1.443 . S
C531 C532 1.340 . S
C531 H571 0.951 . S
C532 C531 1.340 . S
C532 C533 1.439 . S
C532 H572 0.950 . S
C533 C532 1.439 . S
C533 N534 1.374 . S
C533 C567 1.395 . S
N534 C530 1.376 . S
N534 C533 1.374 . S
N534 Co535 2.008 . S
Co535 N534 2.008 . S
Co535 N536 1.995 . S
Co535 N541 2.008 . S
Co535 N546 1.995 . S
Co535 N551 2.282 . S
Co535 N557 2.282 . S
N536 Co535 1.995 . S
N536 C537 1.376 . S
N536 C540 1.383 . S
C537 N536 1.376 . S
C537 C538 1.446 . S
C537 C567 1.391 . S
C538 C537 1.446 . S
C538 C539 1.339 . S
C538 H573 0.949 . S
C539 C538 1.339 . S
C539 C540 1.439 . S
C539 H574 0.950 . S
C540 N536 1.383 . S
C540 C539 1.439 . S
C540 C569 1.392 . S
N541 Co535 2.008 . S
N541 C542 1.376 . S
N541 C545 1.374 . S
C542 N541 1.376 . S
C542 C543 1.443 . S
C542 C569 1.389 . S
C543 C542 1.443 . S
C543 C544 1.340 . S
C543 H575 0.951 . S
C544 C543 1.340 . S
C544 C545 1.439 . S
C544 H576 0.950 . S
C545 N541 1.374 . S
C545 C544 1.439 . S
C545 C570 1.395 . S
N546 Co535 1.995 . S
N546 C547 1.376 . S
N546 C550 1.383 . S
C547 N546 1.376 . S
C547 C548 1.446 . S
C547 C570 1.391 . S
C548 C547 1.446 . S
C548 C549 1.339 . S
C548 H577 0.949 . S
C549 C548 1.339 . S
C549 C550 1.439 . S
C549 H578 0.950 . S
C550 N546 1.383 . S
C550 C549 1.439 . S
C550 C568 1.392 . S
N551 Co535 2.282 . S
N551 C554 1.332 . S
N551 C556 1.332 . S
C552 C553 1.386 . S
C552 C555 1.388 . S
C553 C552 1.386 . S
C553 C554 1.382 . S
C553 H579 0.950 . S
C554 N551 1.332 . S
C554 C553 1.382 . S
C554 H565 0.952 . S
C555 C552 1.388 . S
C555 C556 1.382 . S
C555 H580 0.950 . S
C556 N551 1.332 . S
C556 C555 1.382 . S
C556 H566 0.948 . S
N557 Co535 2.282 . S
N557 C561 1.332 . S
N557 C562 1.332 . S
C558 C559 1.388 . S
C558 C562 1.382 . S
C558 H581 0.950 . S
C559 C558 1.388 . S
C559 C560 1.386 . S
C560 C559 1.386 . S
C560 C561 1.382 . S
C560 H582 0.950 . S
C561 N557 1.332 . S
C561 C560 1.382 . S
C561 H563 0.952 . S
C562 N557 1.332 . S
C562 C558 1.382 . S
C562 H564 0.948 . S
H563 C561 0.952 . S
H564 C562 0.948 . S
H565 C554 0.952 . S
H566 C556 0.948 . S
C567 C533 1.395 . S
C567 C537 1.391 . S
C568 C530 1.389 . S
C568 C550 1.392 . S
C569 C540 1.392 . S
C569 C542 1.389 . S
C570 C545 1.395 . S
C570 C547 1.391 . S
H571 C531 0.951 . S
H572 C532 0.950 . S
H573 C538 0.949 . S
H574 C539 0.950 . S
H575 C543 0.951 . S
H576 C544 0.950 . S
H577 C548 0.949 . S
H578 C549 0.950 . S
H579 C553 0.950 . S
H580 C555 0.950 . S
H581 C558 0.950 . S
H582 C560 0.950 . S
C583 C584 1.443 . S
C583 N587 1.376 . S
C583 C621 1.389 . S
C584 C583 1.443 . S
C584 C585 1.340 . S
C584 H624 0.951 . S
C585 C584 1.340 . S
C585 C586 1.439 . S
C585 H625 0.950 . S
C586 C585 1.439 . S
C586 N587 1.374 . S
C586 C620 1.395 . S
N587 C583 1.376 . S
N587 C586 1.374 . S
N587 Co588 2.008 . S
Co588 N587 2.008 . S
Co588 N589 1.995 . S
Co588 N594 2.008 . S
Co588 N599 1.995 . S
Co588 N604 2.282 . S
Co588 N610 2.282 . S
N589 Co588 1.995 . S
N589 C590 1.376 . S
N589 C593 1.383 . S
C590 N589 1.376 . S
C590 C591 1.446 . S
C590 C620 1.391 . S
C591 C590 1.446 . S
C591 C592 1.339 . S
C591 H626 0.949 . S
C592 C591 1.339 . S
C592 C593 1.439 . S
C592 H627 0.950 . S
C593 N589 1.383 . S
C593 C592 1.439 . S
C593 C622 1.392 . S
N594 Co588 2.008 . S
N594 C595 1.376 . S
N594 C598 1.374 . S
C595 N594 1.376 . S
C595 C596 1.443 . S
C595 C622 1.389 . S
C596 C595 1.443 . S
C596 C597 1.340 . S
C596 H628 0.951 . S
C597 C596 1.340 . S
C597 C598 1.439 . S
C597 H629 0.950 . S
C598 N594 1.374 . S
C598 C597 1.439 . S
C598 C623 1.395 . S
N599 Co588 1.995 . S
N599 C600 1.376 . S
N599 C603 1.383 . S
C600 N599 1.376 . S
C600 C601 1.446 . S
C600 C623 1.391 . S
C601 C600 1.446 . S
C601 C602 1.339 . S
C601 H630 0.949 . S
C602 C601 1.339 . S
C602 C603 1.439 . S
C602 H631 0.950 . S
C603 N599 1.383 . S
C603 C602 1.439 . S
C603 C621 1.392 . S
N604 Co588 2.282 . S
N604 C607 1.332 . S
N604 C609 1.332 . S
C605 C606 1.386 . S
C605 C608 1.388 . S
C606 C605 1.386 . S
C606 C607 1.382 . S
C606 H632 0.950 . S
C607 N604 1.332 . S
C607 C606 1.382 . S
C607 H618 0.952 . S
C608 C605 1.388 . S
C608 C609 1.382 . S
C608 H633 0.950 . S
C609 N604 1.332 . S
C609 C608 1.382 . S
C609 H619 0.948 . S
N610 Co588 2.282 . S
N610 C614 1.332 . S
N610 C615 1.332 . S
C611 C612 1.388 . S
C611 C615 1.382 . S
C611 H634 0.950 . S
C612 C611 1.388 . S
C612 C613 1.386 . S
C613 C612 1.386 . S
C613 C614 1.382 . S
C613 H635 0.950 . S
C614 N610 1.332 . S
C614 C613 1.382 . S
C614 H616 0.952 . S
C615 N610 1.332 . S
C615 C611 1.382 . S
C615 H617 0.948 . S
H616 C614 0.952 . S
H617 C615 0.948 . S
H618 C607 0.952 . S
H619 C609 0.948 . S
C620 C586 1.395 . S
C620 C590 1.391 . S
C621 C583 1.389 . S
C621 C603 1.392 . S
C622 C593 1.392 . S
C622 C595 1.389 . S
C623 C598 1.395 . S
C623 C600 1.391 . S
H624 C584 0.951 . S
H625 C585 0.950 . S
H626 C591 0.949 . S
H627 C592 0.950 . S
H628 C596 0.951 . S
H629 C597 0.950 . S
H630 C601 0.949 . S
H631 C602 0.950 . S
H632 C606 0.950 . S
H633 C608 0.950 . S
H634 C611 0.950 . S
H635 C613 0.950 . S
H636 C654 0.951 . S
H637 C656 0.951 . S
H638 C658 0.950 . S
H639 C659 0.950 . S
H640 C661 0.950 . S
H641 C664 0.950 . S
H642 C665 0.950 . S
H643 C667 0.950 . S
H644 C668 0.950 . S
H645 C669 0.951 . S
H646 C671 0.951 . S
H647 C673 0.950 . S
H648 C674 0.950 . S
H649 C676 0.950 . S
H650 C679 0.950 . S
H651 C680 0.950 . S
H652 C682 0.950 . S
H653 C683 0.950 . S
C654 H636 0.951 . S
C654 C655 1.366 . S
C654 C656 1.388 . S
C655 C654 1.366 . S
C655 C659 1.385 . S
C656 H637 0.951 . S
C656 C654 1.388 . S
C656 C657 1.366 . S
C657 C656 1.366 . S
C657 C658 1.414 . S
C657 C660 1.499 . S
C658 H638 0.950 . S
C658 C657 1.414 . S
C658 C659 1.374 . S
C659 H639 0.950 . S
C659 C655 1.385 . S
C659 C658 1.374 . S
C660 C657 1.499 . S
C660 C661 1.373 . S
C660 C662 1.389 . S
C661 H640 0.950 . S
C661 C660 1.373 . S
C661 C677 1.377 . S
C662 C660 1.389 . S
C662 C663 1.524 . S
C662 C676 1.377 . S
C663 C662 1.524 . S
C663 C664 1.397 . S
C663 C668 1.363 . S
C664 H641 0.950 . S
C664 C663 1.397 . S
C664 C665 1.334 . S
C665 H642 0.950 . S
C665 C664 1.334 . S
C665 C666 1.287 . S
C666 C665 1.287 . S
C666 C667 1.524 . S
C666 H685 0.913 . S
C667 H643 0.950 . S
C667 C666 1.524 . S
C667 C668 1.415 . S
C668 H644 0.950 . S
C668 C663 1.363 . S
C668 C667 1.415 . S
C669 H645 0.951 . S
C669 C670 1.366 . S
C669 C671 1.388 . S
C670 C669 1.366 . S
C670 C674 1.385 . S
C671 H646 0.951 . S
C671 C669 1.388 . S
C671 C672 1.366 . S
C672 C671 1.366 . S
C672 C673 1.414 . S
C672 C675 1.499 . S
C673 H647 0.950 . S
C673 C672 1.414 . S
C673 C674 1.374 . S
C674 H648 0.950 . S
C674 C670 1.385 . S
C674 C673 1.374 . S
C675 C672 1.499 . S
C675 C676 1.373 . S
C675 C677 1.389 . S
C676 H649 0.950 . S
C676 C662 1.377 . S
C676 C675 1.373 . S
C677 C661 1.377 . S
C677 C675 1.389 . S
C677 C678 1.524 . S
C678 C677 1.524 . S
C678 C679 1.397 . S
C678 C683 1.363 . S
C679 H650 0.950 . S
C679 C678 1.397 . S
C679 C680 1.334 . S
C680 H651 0.950 . S
C680 C679 1.334 . S
C680 C681 1.287 . S
C681 C680 1.287 . S
C681 C682 1.524 . S
C681 H684 0.999 . S
C682 H652 0.950 . S
C682 C681 1.524 . S
C682 C683 1.415 . S
C683 H653 0.950 . S
C683 C678 1.363 . S
C683 C682 1.415 . S
H684 C681 0.999 . S
H685 C666 0.913 . S
H686 C704 0.951 . S
H687 C706 0.951 . S
H688 C708 0.950 . S
H689 C709 0.950 . S
H690 C711 0.950 . S
H691 C714 0.950 . S
H692 C715 0.950 . S
H693 C717 0.950 . S
H694 C718 0.950 . S
H695 C719 0.951 . S
H696 C721 0.951 . S
H697 C723 0.950 . S
H698 C724 0.950 . S
H699 C726 0.950 . S
H700 C729 0.950 . S
H701 C730 0.950 . S
H702 C732 0.950 . S
H703 C733 0.950 . S
C704 H686 0.951 . S
C704 C705 1.366 . S
C704 C706 1.388 . S
C705 C704 1.366 . S
C705 C709 1.385 . S
C706 H687 0.951 . S
C706 C704 1.388 . S
C706 C707 1.366 . S
C707 C706 1.366 . S
C707 C708 1.414 . S
C707 C710 1.499 . S
C708 H688 0.950 . S
C708 C707 1.414 . S
C708 C709 1.374 . S
C709 H689 0.950 . S
C709 C705 1.385 . S
C709 C708 1.374 . S
C710 C707 1.499 . S
C710 C711 1.373 . S
C710 C712 1.389 . S
C711 H690 0.950 . S
C711 C710 1.373 . S
C711 C727 1.377 . S
C712 C710 1.389 . S
C712 C713 1.524 . S
C712 C726 1.377 . S
C713 C712 1.524 . S
C713 C714 1.397 . S
C713 C718 1.363 . S
C714 H691 0.950 . S
C714 C713 1.397 . S
C714 C715 1.334 . S
C715 H692 0.950 . S
C715 C714 1.334 . S
C715 C716 1.287 . S
C716 C715 1.287 . S
C716 C717 1.524 . S
C716 H735 0.913 . S
C717 H693 0.950 . S
C717 C716 1.524 . S
C717 C718 1.415 . S
C718 H694 0.950 . S
C718 C713 1.363 . S
C718 C717 1.415 . S
C719 H695 0.951 . S
C719 C720 1.366 . S
C719 C721 1.388 . S
C720 C719 1.366 . S
C720 C724 1.385 . S
C721 H696 0.951 . S
C721 C719 1.388 . S
C721 C722 1.366 . S
C722 C721 1.366 . S
C722 C723 1.414 . S
C722 C725 1.499 . S
C723 H697 0.950 . S
C723 C722 1.414 . S
C723 C724 1.374 . S
C724 H698 0.950 . S
C724 C720 1.385 . S
C724 C723 1.374 . S
C725 C722 1.499 . S
C725 C726 1.373 . S
C725 C727 1.389 . S
C726 H699 0.950 . S
C726 C712 1.377 . S
C726 C725 1.373 . S
C727 C711 1.377 . S
C727 C725 1.389 . S
C727 C728 1.524 . S
C728 C727 1.524 . S
C728 C729 1.397 . S
C728 C733 1.363 . S
C729 H700 0.950 . S
C729 C728 1.397 . S
C729 C730 1.334 . S
C730 H701 0.950 . S
C730 C729 1.334 . S
C730 C731 1.287 . S
C731 C730 1.287 . S
C731 C732 1.524 . S
C731 H734 0.999 . S
C732 H702 0.950 . S
C732 C731 1.524 . S
C732 C733 1.415 . S
C733 H703 0.950 . S
C733 C728 1.363 . S
C733 C732 1.415 . S
H734 C731 0.999 . S
H735 C716 0.913 . S
H736 C754 0.951 . S
H737 C756 0.951 . S
H738 C758 0.950 . S
H739 C759 0.950 . S
H740 C761 0.950 . S
H741 C764 0.950 . S
H742 C765 0.950 . S
H743 C767 0.950 . S
H744 C768 0.950 . S
H745 C769 0.951 . S
H746 C771 0.951 . S
H747 C773 0.950 . S
H748 C774 0.950 . S
H749 C776 0.950 . S
H750 C779 0.950 . S
H751 C780 0.950 . S
H752 C782 0.950 . S
H753 C783 0.950 . S
C754 H736 0.951 . S
C754 C755 1.366 . S
C754 C756 1.388 . S
C755 C754 1.366 . S
C755 C759 1.385 . S
C756 H737 0.951 . S
C756 C754 1.388 . S
C756 C757 1.366 . S
C757 C756 1.366 . S
C757 C758 1.414 . S
C757 C760 1.499 . S
C758 H738 0.950 . S
C758 C757 1.414 . S
C758 C759 1.374 . S
C759 H739 0.950 . S
C759 C755 1.385 . S
C759 C758 1.374 . S
C760 C757 1.499 . S
C760 C761 1.373 . S
C760 C762 1.389 . S
C761 H740 0.950 . S
C761 C760 1.373 . S
C761 C777 1.377 . S
C762 C760 1.389 . S
C762 C763 1.524 . S
C762 C776 1.377 . S
C763 C762 1.524 . S
C763 C764 1.397 . S
C763 C768 1.363 . S
C764 H741 0.950 . S
C764 C763 1.397 . S
C764 C765 1.334 . S
C765 H742 0.950 . S
C765 C764 1.334 . S
C765 C766 1.287 . S
C766 C765 1.287 . S
C766 C767 1.524 . S
C766 H785 0.913 . S
C767 H743 0.950 . S
C767 C766 1.524 . S
C767 C768 1.415 . S
C768 H744 0.950 . S
C768 C763 1.363 . S
C768 C767 1.415 . S
C769 H745 0.951 . S
C769 C770 1.366 . S
C769 C771 1.388 . S
C770 C769 1.366 . S
C770 C774 1.385 . S
C771 H746 0.951 . S
C771 C769 1.388 . S
C771 C772 1.366 . S
C772 C771 1.366 . S
C772 C773 1.414 . S
C772 C775 1.499 . S
C773 H747 0.950 . S
C773 C772 1.414 . S
C773 C774 1.374 . S
C774 H748 0.950 . S
C774 C770 1.385 . S
C774 C773 1.374 . S
C775 C772 1.499 . S
C775 C776 1.373 . S
C775 C777 1.389 . S
C776 H749 0.950 . S
C776 C762 1.377 . S
C776 C775 1.373 . S
C777 C761 1.377 . S
C777 C775 1.389 . S
C777 C778 1.524 . S
C778 C777 1.524 . S
C778 C779 1.397 . S
C778 C783 1.363 . S
C779 H750 0.950 . S
C779 C778 1.397 . S
C779 C780 1.334 . S
C780 H751 0.950 . S
C780 C779 1.334 . S
C780 C781 1.287 . S
C781 C780 1.287 . S
C781 C782 1.524 . S
C781 H784 0.999 . S
C782 H752 0.950 . S
C782 C781 1.524 . S
C782 C783 1.415 . S
C783 H753 0.950 . S
C783 C778 1.363 . S
C783 C782 1.415 . S
H784 C781 0.999 . S
H785 C766 0.913 . S
H786 C804 0.951 . S
H787 C806 0.951 . S
H788 C808 0.950 . S
H789 C809 0.950 . S
H790 C811 0.950 . S
H791 C814 0.950 . S
H792 C815 0.950 . S
H793 C817 0.950 . S
H794 C818 0.950 . S
H795 C819 0.951 . S
H796 C821 0.951 . S
H797 C823 0.950 . S
H798 C824 0.950 . S
H799 C826 0.950 . S
H800 C829 0.950 . S
H801 C830 0.950 . S
H802 C832 0.950 . S
H803 C833 0.950 . S
C804 H786 0.951 . S
C804 C805 1.366 . S
C804 C806 1.388 . S
C805 C804 1.366 . S
C805 C809 1.385 . S
C806 H787 0.951 . S
C806 C804 1.388 . S
C806 C807 1.366 . S
C807 C806 1.366 . S
C807 C808 1.414 . S
C807 C810 1.499 . S
C808 H788 0.950 . S
C808 C807 1.414 . S
C808 C809 1.374 . S
C809 H789 0.950 . S
C809 C805 1.385 . S
C809 C808 1.374 . S
C810 C807 1.499 . S
C810 C811 1.373 . S
C810 C812 1.389 . S
C811 H790 0.950 . S
C811 C810 1.373 . S
C811 C827 1.377 . S
C812 C810 1.389 . S
C812 C813 1.524 . S
C812 C826 1.377 . S
C813 C812 1.524 . S
C813 C814 1.397 . S
C813 C818 1.363 . S
C814 H791 0.950 . S
C814 C813 1.397 . S
C814 C815 1.334 . S
C815 H792 0.950 . S
C815 C814 1.334 . S
C815 C816 1.287 . S
C816 C815 1.287 . S
C816 C817 1.524 . S
C816 H835 0.913 . S
C817 H793 0.950 . S
C817 C816 1.524 . S
C817 C818 1.415 . S
C818 H794 0.950 . S
C818 C813 1.363 . S
C818 C817 1.415 . S
C819 H795 0.951 . S
C819 C820 1.366 . S
C819 C821 1.388 . S
C820 C819 1.366 . S
C820 C824 1.385 . S
C821 H796 0.951 . S
C821 C819 1.388 . S
C821 C822 1.366 . S
C822 C821 1.366 . S
C822 C823 1.414 . S
C822 C825 1.499 . S
C823 H797 0.950 . S
C823 C822 1.414 . S
C823 C824 1.374 . S
C824 H798 0.950 . S
C824 C820 1.385 . S
C824 C823 1.374 . S
C825 C822 1.499 . S
C825 C826 1.373 . S
C825 C827 1.389 . S
C826 H799 0.950 . S
C826 C812 1.377 . S
C826 C825 1.373 . S
C827 C811 1.377 . S
C827 C825 1.389 . S
C827 C828 1.524 . S
C828 C827 1.524 . S
C828 C829 1.397 . S
C828 C833 1.363 . S
C829 H800 0.950 . S
C829 C828 1.397 . S
C829 C830 1.334 . S
C830 H801 0.950 . S
C830 C829 1.334 . S
C830 C831 1.287 . S
C831 C830 1.287 . S
C831 C832 1.524 . S
C831 H834 0.999 . S
C832 H802 0.950 . S
C832 C831 1.524 . S
C832 C833 1.415 . S
C833 H803 0.950 . S
C833 C828 1.363 . S
C833 C832 1.415 . S
H834 C831 0.999 . S
H835 C816 0.913 . S
H836 C854 0.951 . S
H837 C856 0.951 . S
H838 C858 0.950 . S
H839 C859 0.950 . S
H840 C861 0.950 . S
H841 C864 0.950 . S
H842 C865 0.950 . S
H843 C867 0.950 . S
H844 C868 0.950 . S
H845 C869 0.951 . S
H846 C871 0.951 . S
H847 C873 0.950 . S
H848 C874 0.950 . S
H849 C876 0.950 . S
H850 C879 0.950 . S
H851 C880 0.950 . S
H852 C882 0.950 . S
H853 C883 0.950 . S
C854 H836 0.951 . S
C854 C855 1.366 . S
C854 C856 1.388 . S
C855 C854 1.366 . S
C855 C859 1.385 . S
C856 H837 0.951 . S
C856 C854 1.388 . S
C856 C857 1.366 . S
C857 C856 1.366 . S
C857 C858 1.414 . S
C857 C860 1.499 . S
C858 H838 0.950 . S
C858 C857 1.414 . S
C858 C859 1.374 . S
C859 H839 0.950 . S
C859 C855 1.385 . S
C859 C858 1.374 . S
C860 C857 1.499 . S
C860 C861 1.373 . S
C860 C862 1.389 . S
C861 H840 0.950 . S
C861 C860 1.373 . S
C861 C877 1.377 . S
C862 C860 1.389 . S
C862 C863 1.524 . S
C862 C876 1.377 . S
C863 C862 1.524 . S
C863 C864 1.397 . S
C863 C868 1.363 . S
C864 H841 0.950 . S
C864 C863 1.397 . S
C864 C865 1.334 . S
C865 H842 0.950 . S
C865 C864 1.334 . S
C865 C866 1.287 . S
C866 C865 1.287 . S
C866 C867 1.524 . S
C866 H885 0.872 1_554 S
C867 H843 0.950 . S
C867 C866 1.524 . S
C867 C868 1.415 . S
C868 H844 0.950 . S
C868 C863 1.363 . S
C868 C867 1.415 . S
C869 H845 0.951 . S
C869 C870 1.366 . S
C869 C871 1.388 . S
C870 C869 1.366 . S
C870 C874 1.385 . S
C871 H846 0.951 . S
C871 C869 1.388 . S
C871 C872 1.366 . S
C872 C871 1.366 . S
C872 C873 1.414 . S
C872 C875 1.499 . S
C873 H847 0.950 . S
C873 C872 1.414 . S
C873 C874 1.374 . S
C874 H848 0.950 . S
C874 C870 1.385 . S
C874 C873 1.374 . S
C875 C872 1.499 . S
C875 C876 1.373 . S
C875 C877 1.389 . S
C876 H849 0.950 . S
C876 C862 1.377 . S
C876 C875 1.373 . S
C877 C861 1.377 . S
C877 C875 1.389 . S
C877 C878 1.524 . S
C878 C877 1.524 . S
C878 C879 1.397 . S
C878 C883 1.363 . S
C879 H850 0.950 . S
C879 C878 1.397 . S
C879 C880 1.334 . S
C880 H851 0.950 . S
C880 C879 1.334 . S
C880 C881 1.287 . S
C881 C880 1.287 . S
C881 C882 1.524 . S
C881 H884 0.999 . S
C882 H852 0.950 . S
C882 C881 1.524 . S
C882 C883 1.415 . S
C883 H853 0.950 . S
C883 C878 1.363 . S
C883 C882 1.415 . S
H884 C881 0.999 . S
H885 C866 0.872 1_556 S
H886 C904 0.951 . S
H887 C906 0.951 . S
H888 C908 0.950 . S
H889 C909 0.950 . S
H890 C911 0.950 . S
H891 C914 0.950 . S
H892 C915 0.950 . S
H893 C917 0.950 . S
H894 C918 0.950 . S
H895 C919 0.951 . S
H896 C921 0.951 . S
H897 C923 0.950 . S
H898 C924 0.950 . S
H899 C926 0.950 . S
H900 C929 0.950 . S
H901 C930 0.950 . S
H902 C932 0.950 . S
H903 C933 0.950 . S
C904 H886 0.951 . S
C904 C905 1.366 . S
C904 C906 1.388 . S
C905 C904 1.366 . S
C905 C909 1.385 . S
C906 H887 0.951 . S
C906 C904 1.388 . S
C906 C907 1.366 . S
C907 C906 1.366 . S
C907 C908 1.414 . S
C907 C910 1.499 . S
C908 H888 0.950 . S
C908 C907 1.414 . S
C908 C909 1.374 . S
C909 H889 0.950 . S
C909 C905 1.385 . S
C909 C908 1.374 . S
C910 C907 1.499 . S
C910 C911 1.373 . S
C910 C912 1.389 . S
C911 H890 0.950 . S
C911 C910 1.373 . S
C911 C927 1.377 . S
C912 C910 1.389 . S
C912 C913 1.524 . S
C912 C926 1.377 . S
C913 C912 1.524 . S
C913 C914 1.397 . S
C913 C918 1.363 . S
C914 H891 0.950 . S
C914 C913 1.397 . S
C914 C915 1.334 . S
C915 H892 0.950 . S
C915 C914 1.334 . S
C915 C916 1.287 . S
C916 C915 1.287 . S
C916 C917 1.524 . S
C916 H935 0.913 . S
C917 H893 0.950 . S
C917 C916 1.524 . S
C917 C918 1.415 . S
C918 H894 0.950 . S
C918 C913 1.363 . S
C918 C917 1.415 . S
C919 H895 0.951 . S
C919 C920 1.366 . S
C919 C921 1.388 . S
C920 C919 1.366 . S
C920 C924 1.385 . S
C921 H896 0.951 . S
C921 C919 1.388 . S
C921 C922 1.366 . S
C922 C921 1.366 . S
C922 C923 1.414 . S
C922 C925 1.499 . S
C923 H897 0.950 . S
C923 C922 1.414 . S
C923 C924 1.374 . S
C924 H898 0.950 . S
C924 C920 1.385 . S
C924 C923 1.374 . S
C925 C922 1.499 . S
C925 C926 1.373 . S
C925 C927 1.389 . S
C926 H899 0.950 . S
C926 C912 1.377 . S
C926 C925 1.373 . S
C927 C911 1.377 . S
C927 C925 1.389 . S
C927 C928 1.524 . S
C928 C927 1.524 . S
C928 C929 1.397 . S
C928 C933 1.363 . S
C929 H900 0.950 . S
C929 C928 1.397 . S
C929 C930 1.334 . S
C930 H901 0.950 . S
C930 C929 1.334 . S
C930 C931 1.287 . S
C931 C930 1.287 . S
C931 C932 1.524 . S
C931 H934 0.999 . S
C932 H902 0.950 . S
C932 C931 1.524 . S
C932 C933 1.415 . S
C933 H903 0.950 . S
C933 C928 1.363 . S
C933 C932 1.415 . S
H934 C931 0.999 . S
H935 C916 0.913 . S
H936 C954 0.951 . S
H937 C956 0.951 . S
H938 C958 0.950 . S
H939 C959 0.950 . S
H940 C961 0.950 . S
H941 C964 0.950 . S
H942 C965 0.950 . S
H943 C967 0.950 . S
H944 C968 0.950 . S
H945 C969 0.951 . S
H946 C971 0.951 . S
H947 C973 0.950 . S
H948 C974 0.950 . S
H949 C976 0.950 . S
H950 C979 0.950 . S
H951 C980 0.950 . S
H952 C982 0.950 . S
H953 C983 0.950 . S
C954 H936 0.951 . S
C954 C955 1.366 . S
C954 C956 1.388 . S
C955 C954 1.366 . S
C955 C959 1.385 . S
C956 H937 0.951 . S
C956 C954 1.388 . S
C956 C957 1.366 . S
C957 C956 1.366 . S
C957 C958 1.414 . S
C957 C960 1.499 . S
C958 H938 0.950 . S
C958 C957 1.414 . S
C958 C959 1.374 . S
C959 H939 0.950 . S
C959 C955 1.385 . S
C959 C958 1.374 . S
C960 C957 1.499 . S
C960 C961 1.373 . S
C960 C962 1.389 . S
C961 H940 0.950 . S
C961 C960 1.373 . S
C961 C977 1.377 . S
C962 C960 1.389 . S
C962 C963 1.524 . S
C962 C976 1.377 . S
C963 C962 1.524 . S
C963 C964 1.397 . S
C963 C968 1.363 . S
C964 H941 0.950 . S
C964 C963 1.397 . S
C964 C965 1.334 . S
C965 H942 0.950 . S
C965 C964 1.334 . S
C965 C966 1.287 . S
C966 C965 1.287 . S
C966 C967 1.524 . S
C966 H985 0.913 . S
C967 H943 0.950 . S
C967 C966 1.524 . S
C967 C968 1.415 . S
C968 H944 0.950 . S
C968 C963 1.363 . S
C968 C967 1.415 . S
C969 H945 0.951 . S
C969 C970 1.366 . S
C969 C971 1.388 . S
C970 C969 1.366 . S
C970 C974 1.385 . S
C971 H946 0.951 . S
C971 C969 1.388 . S
C971 C972 1.366 . S
C972 C971 1.366 . S
C972 C973 1.414 . S
C972 C975 1.499 . S
C973 H947 0.950 . S
C973 C972 1.414 . S
C973 C974 1.374 . S
C974 H948 0.950 . S
C974 C970 1.385 . S
C974 C973 1.374 . S
C975 C972 1.499 . S
C975 C976 1.373 . S
C975 C977 1.389 . S
C976 H949 0.950 . S
C976 C962 1.377 . S
C976 C975 1.373 . S
C977 C961 1.377 . S
C977 C975 1.389 . S
C977 C978 1.524 . S
C978 C977 1.524 . S
C978 C979 1.397 . S
C978 C983 1.363 . S
C979 H950 0.950 . S
C979 C978 1.397 . S
C979 C980 1.334 . S
C980 H951 0.950 . S
C980 C979 1.334 . S
C980 C981 1.287 . S
C981 C980 1.287 . S
C981 C982 1.524 . S
C981 H984 0.999 . S
C982 H952 0.950 . S
C982 C981 1.524 . S
C982 C983 1.415 . S
C983 H953 0.950 . S
C983 C978 1.363 . S
C983 C982 1.415 . S
H984 C981 0.999 . S
H985 C966 0.913 . S
H986 C1004 0.951 . S
H987 C1006 0.951 . S
H988 C1008 0.950 . S
H989 C1009 0.950 . S
H990 C1011 0.950 . S
H991 C1014 0.950 . S
H992 C1015 0.975 . S
H993 C1017 0.950 . S
H994 C1018 0.950 . S
H995 C1019 0.951 . S
H996 C1021 0.951 . S
H997 C1023 0.950 . S
H998 C1024 0.950 . S
H999 C1026 0.950 . S
H1000 C1029 0.950 . S
H1001 C1030 0.950 . S
H1002 C1032 0.950 . S
H1003 C1033 0.950 . S
C1004 H986 0.951 . S
C1004 C1005 1.366 . S
C1004 C1006 1.388 . S
C1005 C1004 1.366 . S
C1005 C1009 1.385 . S
C1006 H987 0.951 . S
C1006 C1004 1.388 . S
C1006 C1007 1.366 . S
C1007 C1006 1.366 . S
C1007 C1008 1.414 . S
C1007 C1010 1.499 . S
C1008 H988 0.950 . S
C1008 C1007 1.414 . S
C1008 C1009 1.374 . S
C1009 H989 0.950 . S
C1009 C1005 1.385 . S
C1009 C1008 1.374 . S
C1010 C1007 1.499 . S
C1010 C1011 1.373 . S
C1010 C1012 1.389 . S
C1011 H990 0.950 . S
C1011 C1010 1.373 . S
C1011 C1027 1.377 . S
C1012 C1010 1.389 . S
C1012 C1013 1.524 . S
C1012 C1026 1.377 . S
C1013 C1012 1.524 . S
C1013 C1014 1.397 . S
C1013 C1018 1.363 . S
C1014 H991 0.950 . S
C1014 C1013 1.397 . S
C1014 C1015 1.334 . S
C1015 H992 0.975 . S
C1015 C1014 1.334 . S
C1015 C1016 1.287 . S
C1016 C1015 1.287 . S
C1016 C1017 1.524 . S
C1016 H1035 0.913 . S
C1017 H993 0.950 . S
C1017 C1016 1.524 . S
C1017 C1018 1.415 . S
C1018 H994 0.950 . S
C1018 C1013 1.363 . S
C1018 C1017 1.415 . S
C1019 H995 0.951 . S
C1019 C1020 1.366 . S
C1019 C1021 1.388 . S
C1020 C1019 1.366 . S
C1020 C1024 1.385 . S
C1021 H996 0.951 . S
C1021 C1019 1.388 . S
C1021 C1022 1.366 . S
C1022 C1021 1.366 . S
C1022 C1023 1.414 . S
C1022 C1025 1.499 . S
C1023 H997 0.950 . S
C1023 C1022 1.414 . S
C1023 C1024 1.374 . S
C1024 H998 0.950 . S
C1024 C1020 1.385 . S
C1024 C1023 1.374 . S
C1025 C1022 1.499 . S
C1025 C1026 1.373 . S
C1025 C1027 1.389 . S
C1026 H999 0.950 . S
C1026 C1012 1.377 . S
C1026 C1025 1.373 . S
C1027 C1011 1.377 . S
C1027 C1025 1.389 . S
C1027 C1028 1.524 . S
C1028 C1027 1.524 . S
C1028 C1029 1.397 . S
C1028 C1033 1.363 . S
C1029 H1000 0.950 . S
C1029 C1028 1.397 . S
C1029 C1030 1.334 . S
C1030 H1001 0.950 . S
C1030 C1029 1.334 . S
C1030 C1031 1.287 . S
C1031 C1030 1.287 . S
C1031 C1032 1.524 . S
C1031 H1034 0.999 . S
C1032 H1002 0.950 . S
C1032 C1031 1.524 . S
C1032 C1033 1.415 . S
C1033 H1003 0.950 . S
C1033 C1028 1.363 . S
C1033 C1032 1.415 . S
H1034 C1031 0.999 . S
H1035 C1016 0.913 . S
H1036 C1054 0.951 . S
H1037 C1056 0.951 . S
H1038 C1058 0.950 . S
H1039 C1059 0.950 . S
H1040 C1061 0.950 . S
H1041 C1064 0.950 . S
H1042 C1065 0.950 . S
H1043 C1067 0.950 . S
H1044 C1068 0.950 . S
H1045 C1069 0.951 . S
H1046 C1071 0.951 . S
H1047 C1073 0.950 . S
H1048 C1074 0.950 . S
H1049 C1076 0.950 . S
H1050 C1079 0.950 . S
H1051 C1080 0.950 . S
H1052 C1082 0.950 . S
H1053 C1083 0.950 . S
C1054 H1036 0.951 . S
C1054 C1055 1.366 . S
C1054 C1056 1.388 . S
C1055 C1054 1.366 . S
C1055 C1059 1.385 . S
C1056 H1037 0.951 . S
C1056 C1054 1.388 . S
C1056 C1057 1.366 . S
C1057 C1056 1.366 . S
C1057 C1058 1.414 . S
C1057 C1060 1.499 . S
C1058 H1038 0.950 . S
C1058 C1057 1.414 . S
C1058 C1059 1.374 . S
C1059 H1039 0.950 . S
C1059 C1055 1.385 . S
C1059 C1058 1.374 . S
C1060 C1057 1.499 . S
C1060 C1061 1.373 . S
C1060 C1062 1.389 . S
C1061 H1040 0.950 . S
C1061 C1060 1.373 . S
C1061 C1077 1.377 . S
C1062 C1060 1.389 . S
C1062 C1063 1.524 . S
C1062 C1076 1.377 . S
C1063 C1062 1.524 . S
C1063 C1064 1.397 . S
C1063 C1068 1.363 . S
C1064 H1041 0.950 . S
C1064 C1063 1.397 . S
C1064 C1065 1.334 . S
C1065 H1042 0.950 . S
C1065 C1064 1.334 . S
C1065 C1066 1.287 . S
C1066 C1065 1.287 . S
C1066 C1067 1.524 . S
C1066 H1085 0.913 . S
C1067 H1043 0.950 . S
C1067 C1066 1.524 . S
C1067 C1068 1.415 . S
C1068 H1044 0.950 . S
C1068 C1063 1.363 . S
C1068 C1067 1.415 . S
C1069 H1045 0.951 . S
C1069 C1070 1.366 . S
C1069 C1071 1.388 . S
C1070 C1069 1.366 . S
C1070 C1074 1.385 . S
C1071 H1046 0.951 . S
C1071 C1069 1.388 . S
C1071 C1072 1.366 . S
C1072 C1071 1.366 . S
C1072 C1073 1.414 . S
C1072 C1075 1.499 . S
C1073 H1047 0.950 . S
C1073 C1072 1.414 . S
C1073 C1074 1.374 . S
C1074 H1048 0.950 . S
C1074 C1070 1.385 . S
C1074 C1073 1.374 . S
C1075 C1072 1.499 . S
C1075 C1076 1.373 . S
C1075 C1077 1.389 . S
C1076 H1049 0.950 . S
C1076 C1062 1.377 . S
C1076 C1075 1.373 . S
C1077 C1061 1.377 . S
C1077 C1075 1.389 . S
C1077 C1078 1.524 . S
C1078 C1077 1.524 . S
C1078 C1079 1.397 . S
C1078 C1083 1.363 . S
C1079 H1050 0.950 . S
C1079 C1078 1.397 . S
C1079 C1080 1.334 . S
C1080 H1051 0.950 . S
C1080 C1079 1.334 . S
C1080 C1081 1.287 . S
C1081 C1080 1.287 . S
C1081 C1082 1.524 . S
C1081 H1084 0.999 . S
C1082 H1052 0.950 . S
C1082 C1081 1.524 . S
C1082 C1083 1.415 . S
C1083 H1053 0.950 . S
C1083 C1078 1.363 . S
C1083 C1082 1.415 . S
H1084 C1081 0.999 . S
H1085 C1066 0.913 . S
H1086 C1104 0.951 . S
H1087 C1106 0.951 . S
H1088 C1108 0.950 . S
H1089 C1109 0.950 . S
H1090 C1111 0.950 . S
H1091 C1114 0.950 . S
H1092 C1115 0.950 . S
H1093 C1117 0.950 . S
H1094 C1118 0.950 . S
H1095 C1119 0.951 . S
H1096 C1121 0.951 . S
H1097 C1123 0.950 . S
H1098 C1124 0.950 . S
H1099 C1126 0.950 . S
H1100 C1129 0.950 . S
H1101 C1130 0.950 . S
H1102 C1132 0.950 . S
H1103 C1133 0.950 . S
C1104 H1086 0.951 . S
C1104 C1105 1.366 . S
C1104 C1106 1.388 . S
C1105 C1104 1.366 . S
C1105 C1109 1.385 . S
C1106 H1087 0.951 . S
C1106 C1104 1.388 . S
C1106 C1107 1.366 . S
C1107 C1106 1.366 . S
C1107 C1108 1.414 . S
C1107 C1110 1.499 . S
C1108 H1088 0.950 . S
C1108 C1107 1.414 . S
C1108 C1109 1.374 . S
C1109 H1089 0.950 . S
C1109 C1105 1.385 . S
C1109 C1108 1.374 . S
C1110 C1107 1.499 . S
C1110 C1111 1.373 . S
C1110 C1112 1.389 . S
C1111 H1090 0.950 . S
C1111 C1110 1.373 . S
C1111 C1127 1.377 . S
C1112 C1110 1.389 . S
C1112 C1113 1.524 . S
C1112 C1126 1.377 . S
C1113 C1112 1.524 . S
C1113 C1114 1.397 . S
C1113 C1118 1.363 . S
C1114 H1091 0.950 . S
C1114 C1113 1.397 . S
C1114 C1115 1.334 . S
C1115 H1092 0.950 . S
C1115 C1114 1.334 . S
C1115 C1116 1.287 . S
C1116 C1115 1.287 . S
C1116 C1117 1.524 . S
C1116 H1135 0.913 . S
C1117 H1093 0.950 . S
C1117 C1116 1.524 . S
C1117 C1118 1.415 . S
C1118 H1094 0.950 . S
C1118 C1113 1.363 . S
C1118 C1117 1.415 . S
C1119 H1095 0.951 . S
C1119 C1120 1.366 . S
C1119 C1121 1.388 . S
C1120 C1119 1.366 . S
C1120 C1124 1.385 . S
C1121 H1096 0.951 . S
C1121 C1119 1.388 . S
C1121 C1122 1.366 . S
C1122 C1121 1.366 . S
C1122 C1123 1.414 . S
C1122 C1125 1.499 . S
C1123 H1097 0.950 . S
C1123 C1122 1.414 . S
C1123 C1124 1.374 . S
C1124 H1098 0.950 . S
C1124 C1120 1.385 . S
C1124 C1123 1.374 . S
C1125 C1122 1.499 . S
C1125 C1126 1.373 . S
C1125 C1127 1.389 . S
C1126 H1099 0.950 . S
C1126 C1112 1.377 . S
C1126 C1125 1.373 . S
C1127 C1111 1.377 . S
C1127 C1125 1.389 . S
C1127 C1128 1.524 . S
C1128 C1127 1.524 . S
C1128 C1129 1.397 . S
C1128 C1133 1.363 . S
C1129 H1100 0.950 . S
C1129 C1128 1.397 . S
C1129 C1130 1.334 . S
C1130 H1101 0.950 . S
C1130 C1129 1.334 . S
C1130 C1131 1.287 . S
C1131 C1130 1.287 . S
C1131 C1132 1.524 . S
C1131 H1134 0.999 . S
C1132 H1102 0.950 . S
C1132 C1131 1.524 . S
C1132 C1133 1.415 . S
C1133 H1103 0.950 . S
C1133 C1128 1.363 . S
C1133 C1132 1.415 . S
H1134 C1131 0.999 . S
H1135 C1116 0.913 . S
H1136 C1154 0.951 . S
H1137 C1156 0.951 . S
H1138 C1158 0.950 . S
H1139 C1159 0.950 . S
H1140 C1161 0.950 . S
H1141 C1164 0.950 . S
H1142 C1165 0.950 . S
H1143 C1167 0.950 . S
H1144 C1168 0.950 . S
H1145 C1169 0.951 . S
H1146 C1171 0.951 . S
H1147 C1173 0.950 . S
H1148 C1174 0.950 . S
H1149 C1176 0.950 . S
H1150 C1179 0.950 . S
H1151 C1180 0.950 . S
H1152 C1182 0.950 . S
H1153 C1183 0.950 . S
C1154 H1136 0.951 . S
C1154 C1155 1.366 . S
C1154 C1156 1.388 . S
C1155 C1154 1.366 . S
C1155 C1159 1.385 . S
C1156 H1137 0.951 . S
C1156 C1154 1.388 . S
C1156 C1157 1.366 . S
C1157 C1156 1.366 . S
C1157 C1158 1.414 . S
C1157 C1160 1.499 . S
C1158 H1138 0.950 . S
C1158 C1157 1.414 . S
C1158 C1159 1.374 . S
C1159 H1139 0.950 . S
C1159 C1155 1.385 . S
C1159 C1158 1.374 . S
C1160 C1157 1.499 . S
C1160 C1161 1.373 . S
C1160 C1162 1.389 . S
C1161 H1140 0.950 . S
C1161 C1160 1.373 . S
C1161 C1177 1.377 . S
C1162 C1160 1.389 . S
C1162 C1163 1.524 . S
C1162 C1176 1.377 . S
C1163 C1162 1.524 . S
C1163 C1164 1.397 . S
C1163 C1168 1.363 . S
C1164 H1141 0.950 . S
C1164 C1163 1.397 . S
C1164 C1165 1.334 . S
C1165 H1142 0.950 . S
C1165 C1164 1.334 . S
C1165 C1166 1.287 . S
C1166 C1165 1.287 . S
C1166 C1167 1.524 . S
C1166 H1185 0.913 . S
C1167 H1143 0.950 . S
C1167 C1166 1.524 . S
C1167 C1168 1.415 . S
C1168 H1144 0.950 . S
C1168 C1163 1.363 . S
C1168 C1167 1.415 . S
C1169 H1145 0.951 . S
C1169 C1170 1.366 . S
C1169 C1171 1.388 . S
C1170 C1169 1.366 . S
C1170 C1174 1.385 . S
C1171 H1146 0.951 . S
C1171 C1169 1.388 . S
C1171 C1172 1.366 . S
C1172 C1171 1.366 . S
C1172 C1173 1.414 . S
C1172 C1175 1.499 . S
C1173 H1147 0.950 . S
C1173 C1172 1.414 . S
C1173 C1174 1.374 . S
C1174 H1148 0.950 . S
C1174 C1170 1.385 . S
C1174 C1173 1.374 . S
C1175 C1172 1.499 . S
C1175 C1176 1.373 . S
C1175 C1177 1.389 . S
C1176 H1149 0.950 . S
C1176 C1162 1.377 . S
C1176 C1175 1.373 . S
C1177 C1161 1.377 . S
C1177 C1175 1.389 . S
C1177 C1178 1.524 . S
C1178 C1177 1.524 . S
C1178 C1179 1.397 . S
C1178 C1183 1.363 . S
C1179 H1150 0.950 . S
C1179 C1178 1.397 . S
C1179 C1180 1.334 . S
C1180 H1151 0.950 . S
C1180 C1179 1.334 . S
C1180 C1181 1.287 . S
C1181 C1180 1.287 . S
C1181 C1182 1.524 . S
C1181 H1184 0.999 . S
C1182 H1152 0.950 . S
C1182 C1181 1.524 . S
C1182 C1183 1.415 . S
C1183 H1153 0.950 . S
C1183 C1178 1.363 . S
C1183 C1182 1.415 . S
H1184 C1181 0.999 . S
H1185 C1166 0.913 . S
H1186 C1204 0.951 . S
H1187 C1206 0.951 . S
H1188 C1208 0.950 . S
H1189 C1209 0.950 . S
H1190 C1211 0.950 . S
H1191 C1214 0.950 . S
H1192 C1215 0.950 . S
H1193 C1217 0.950 . S
H1194 C1218 0.950 . S
H1195 C1219 0.951 . S
H1196 C1221 0.951 . S
H1197 C1223 0.950 . S
H1198 C1224 0.950 . S
H1199 C1226 0.950 . S
H1200 C1229 0.950 . S
H1201 C1230 0.950 . S
H1202 C1232 0.950 . S
H1203 C1233 0.950 . S
C1204 H1186 0.951 . S
C1204 C1205 1.366 . S
C1204 C1206 1.388 . S
C1205 C1204 1.366 . S
C1205 C1209 1.385 . S
C1206 H1187 0.951 . S
C1206 C1204 1.388 . S
C1206 C1207 1.366 . S
C1207 C1206 1.366 . S
C1207 C1208 1.414 . S
C1207 C1210 1.499 . S
C1208 H1188 0.950 . S
C1208 C1207 1.414 . S
C1208 C1209 1.374 . S
C1209 H1189 0.950 . S
C1209 C1205 1.385 . S
C1209 C1208 1.374 . S
C1210 C1207 1.499 . S
C1210 C1211 1.373 . S
C1210 C1212 1.389 . S
C1211 H1190 0.950 . S
C1211 C1210 1.373 . S
C1211 C1227 1.377 . S
C1212 C1210 1.389 . S
C1212 C1213 1.524 . S
C1212 C1226 1.377 . S
C1213 C1212 1.524 . S
C1213 C1214 1.397 . S
C1213 C1218 1.363 . S
C1214 H1191 0.950 . S
C1214 C1213 1.397 . S
C1214 C1215 1.334 . S
C1215 H1192 0.950 . S
C1215 C1214 1.334 . S
C1215 C1216 1.287 . S
C1216 C1215 1.287 . S
C1216 C1217 1.524 . S
C1216 H1235 0.913 . S
C1217 H1193 0.950 . S
C1217 C1216 1.524 . S
C1217 C1218 1.415 . S
C1218 H1194 0.950 . S
C1218 C1213 1.363 . S
C1218 C1217 1.415 . S
C1219 H1195 0.951 . S
C1219 C1220 1.366 . S
C1219 C1221 1.388 . S
C1220 C1219 1.366 . S
C1220 C1224 1.385 . S
C1221 H1196 0.951 . S
C1221 C1219 1.388 . S
C1221 C1222 1.366 . S
C1222 C1221 1.366 . S
C1222 C1223 1.414 . S
C1222 C1225 1.499 . S
C1223 H1197 0.950 . S
C1223 C1222 1.414 . S
C1223 C1224 1.374 . S
C1224 H1198 0.950 . S
C1224 C1220 1.385 . S
C1224 C1223 1.374 . S
C1225 C1222 1.499 . S
C1225 C1226 1.373 . S
C1225 C1227 1.389 . S
C1226 H1199 0.950 . S
C1226 C1212 1.377 . S
C1226 C1225 1.373 . S
C1227 C1211 1.377 . S
C1227 C1225 1.389 . S
C1227 C1228 1.524 . S
C1228 C1227 1.524 . S
C1228 C1229 1.397 . S
C1228 C1233 1.363 . S
C1229 H1200 0.950 . S
C1229 C1228 1.397 . S
C1229 C1230 1.334 . S
C1230 H1201 0.950 . S
C1230 C1229 1.334 . S
C1230 C1231 1.287 . S
C1231 C1230 1.287 . S
C1231 C1232 1.524 . S
C1231 H1234 0.999 . S
C1232 H1202 0.950 . S
C1232 C1231 1.524 . S
C1232 C1233 1.415 . S
C1233 H1203 0.950 . S
C1233 C1228 1.363 . S
C1233 C1232 1.415 . S
H1234 C1231 0.999 . S
H1235 C1216 0.913 . S
H1236 C1254 0.951 . S
H1237 C1256 0.951 . S
H1238 C1258 0.950 . S
H1239 C1259 0.950 . S
H1240 C1261 0.950 . S
H1241 C1264 0.950 . S
H1242 C1265 0.950 . S
H1243 C1267 0.950 . S
H1244 C1268 0.950 . S
H1245 C1269 0.951 . S
H1246 C1271 0.951 . S
H1247 C1273 0.950 . S
H1248 C1274 0.950 . S
H1249 C1276 0.950 . S
H1250 C1279 0.950 . S
H1251 C1280 0.950 . S
H1252 C1282 0.950 . S
H1253 C1283 0.950 . S
C1254 H1236 0.951 . S
C1254 C1255 1.366 . S
C1254 C1256 1.388 . S
C1255 C1254 1.366 . S
C1255 C1259 1.385 . S
C1256 H1237 0.951 . S
C1256 C1254 1.388 . S
C1256 C1257 1.366 . S
C1257 C1256 1.366 . S
C1257 C1258 1.414 . S
C1257 C1260 1.499 . S
C1258 H1238 0.950 . S
C1258 C1257 1.414 . S
C1258 C1259 1.374 . S
C1259 H1239 0.950 . S
C1259 C1255 1.385 . S
C1259 C1258 1.374 . S
C1260 C1257 1.499 . S
C1260 C1261 1.373 . S
C1260 C1262 1.389 . S
C1261 H1240 0.950 . S
C1261 C1260 1.373 . S
C1261 C1277 1.377 . S
C1262 C1260 1.389 . S
C1262 C1263 1.524 . S
C1262 C1276 1.377 . S
C1263 C1262 1.524 . S
C1263 C1264 1.397 . S
C1263 C1268 1.363 . S
C1264 H1241 0.950 . S
C1264 C1263 1.397 . S
C1264 C1265 1.334 . S
C1265 H1242 0.950 . S
C1265 C1264 1.334 . S
C1265 C1266 1.287 . S
C1266 C1265 1.287 . S
C1266 C1267 1.524 . S
C1266 H1285 0.913 . S
C1267 H1243 0.950 . S
C1267 C1266 1.524 . S
C1267 C1268 1.415 . S
C1268 H1244 0.950 . S
C1268 C1263 1.363 . S
C1268 C1267 1.415 . S
C1269 H1245 0.951 . S
C1269 C1270 1.366 . S
C1269 C1271 1.388 . S
C1270 C1269 1.366 . S
C1270 C1274 1.385 . S
C1271 H1246 0.951 . S
C1271 C1269 1.388 . S
C1271 C1272 1.366 . S
C1272 C1271 1.366 . S
C1272 C1273 1.414 . S
C1272 C1275 1.499 . S
C1273 H1247 0.950 . S
C1273 C1272 1.414 . S
C1273 C1274 1.374 . S
C1274 H1248 0.950 . S
C1274 C1270 1.385 . S
C1274 C1273 1.374 . S
C1275 C1272 1.499 . S
C1275 C1276 1.373 . S
C1275 C1277 1.389 . S
C1276 H1249 0.950 . S
C1276 C1262 1.377 . S
C1276 C1275 1.373 . S
C1277 C1261 1.377 . S
C1277 C1275 1.389 . S
C1277 C1278 1.524 . S
C1278 C1277 1.524 . S
C1278 C1279 1.397 . S
C1278 C1283 1.363 . S
C1279 H1250 0.950 . S
C1279 C1278 1.397 . S
C1279 C1280 1.334 . S
C1280 H1251 0.950 . S
C1280 C1279 1.334 . S
C1280 C1281 1.287 . S
C1281 C1280 1.287 . S
C1281 C1282 1.524 . S
C1281 H1284 0.999 . S
C1282 H1252 0.950 . S
C1282 C1281 1.524 . S
C1282 C1283 1.415 . S
C1283 H1253 0.950 . S
C1283 C1278 1.363 . S
C1283 C1282 1.415 . S
H1284 C1281 0.999 . S
H1285 C1266 0.913 . S
H1286 C1304 0.951 . S
H1287 C1306 0.951 . S
H1288 C1308 0.950 . S
H1289 C1309 0.950 . S
H1290 C1311 0.950 . S
H1291 C1314 0.950 . S
H1292 C1315 0.950 . S
H1293 C1317 0.950 . S
H1294 C1318 0.950 . S
H1295 C1319 0.951 . S
H1296 C1321 0.951 . S
H1297 C1323 0.950 . S
H1298 C1324 0.950 . S
H1299 C1326 0.950 . S
H1300 C1329 0.950 . S
H1301 C1330 0.950 . S
H1302 C1332 0.950 . S
H1303 C1333 0.950 . S
C1304 H1286 0.951 . S
C1304 C1305 1.366 . S
C1304 C1306 1.388 . S
C1305 C1304 1.366 . S
C1305 C1309 1.385 . S
C1306 H1287 0.951 . S
C1306 C1304 1.388 . S
C1306 C1307 1.366 . S
C1307 C1306 1.366 . S
C1307 C1308 1.414 . S
C1307 C1310 1.499 . S
C1308 H1288 0.950 . S
C1308 C1307 1.414 . S
C1308 C1309 1.374 . S
C1309 H1289 0.950 . S
C1309 C1305 1.385 . S
C1309 C1308 1.374 . S
C1310 C1307 1.499 . S
C1310 C1311 1.373 . S
C1310 C1312 1.389 . S
C1311 H1290 0.950 . S
C1311 C1310 1.373 . S
C1311 C1327 1.377 . S
C1312 C1310 1.389 . S
C1312 C1313 1.524 . S
C1312 C1326 1.377 . S
C1313 C1312 1.524 . S
C1313 C1314 1.397 . S
C1313 C1318 1.363 . S
C1314 H1291 0.950 . S
C1314 C1313 1.397 . S
C1314 C1315 1.334 . S
C1315 H1292 0.950 . S
C1315 C1314 1.334 . S
C1315 C1316 1.287 . S
C1316 C1315 1.287 . S
C1316 C1317 1.524 . S
C1316 H1335 0.913 . S
C1317 H1293 0.950 . S
C1317 C1316 1.524 . S
C1317 C1318 1.415 . S
C1318 H1294 0.950 . S
C1318 C1313 1.363 . S
C1318 C1317 1.415 . S
C1319 H1295 0.951 . S
C1319 C1320 1.366 . S
C1319 C1321 1.388 . S
C1320 C1319 1.366 . S
C1320 C1324 1.385 . S
C1321 H1296 0.951 . S
C1321 C1319 1.388 . S
C1321 C1322 1.366 . S
C1322 C1321 1.366 . S
C1322 C1323 1.414 . S
C1322 C1325 1.499 . S
C1323 H1297 0.950 . S
C1323 C1322 1.414 . S
C1323 C1324 1.374 . S
C1324 H1298 0.950 . S
C1324 C1320 1.385 . S
C1324 C1323 1.374 . S
C1325 C1322 1.499 . S
C1325 C1326 1.373 . S
C1325 C1327 1.389 . S
C1326 H1299 0.950 . S
C1326 C1312 1.377 . S
C1326 C1325 1.373 . S
C1327 C1311 1.377 . S
C1327 C1325 1.389 . S
C1327 C1328 1.524 . S
C1328 C1327 1.524 . S
C1328 C1329 1.397 . S
C1328 C1333 1.363 . S
C1329 H1300 0.950 . S
C1329 C1328 1.397 . S
C1329 C1330 1.334 . S
C1330 H1301 0.950 . S
C1330 C1329 1.334 . S
C1330 C1331 1.287 . S
C1331 C1330 1.287 . S
C1331 C1332 1.524 . S
C1331 H1334 0.999 . S
C1332 H1302 0.950 . S
C1332 C1331 1.524 . S
C1332 C1333 1.415 . S
C1333 H1303 0.950 . S
C1333 C1328 1.363 . S
C1333 C1332 1.415 . S
H1334 C1331 0.999 . S
H1335 C1316 0.913 . S
H1336 C1354 0.951 . S
H1337 C1356 0.951 . S
H1338 C1358 0.950 . S
H1339 C1359 0.950 . S
H1340 C1361 0.950 . S
H1341 C1364 0.950 . S
H1342 C1365 0.950 . S
H1343 C1367 0.950 . S
H1344 C1368 0.950 . S
H1345 C1369 0.951 . S
H1346 C1371 0.951 . S
H1347 C1373 0.950 . S
H1348 C1374 0.950 . S
H1349 C1376 0.950 . S
H1350 C1379 0.950 . S
H1351 C1380 0.950 . S
H1352 C1382 0.950 . S
H1353 C1383 0.950 . S
C1354 H1336 0.951 . S
C1354 C1355 1.366 . S
C1354 C1356 1.388 . S
C1355 C1354 1.366 . S
C1355 C1359 1.385 . S
C1356 H1337 0.951 . S
C1356 C1354 1.388 . S
C1356 C1357 1.366 . S
C1357 C1356 1.366 . S
C1357 C1358 1.414 . S
C1357 C1360 1.499 . S
C1358 H1338 0.950 . S
C1358 C1357 1.414 . S
C1358 C1359 1.374 . S
C1359 H1339 0.950 . S
C1359 C1355 1.385 . S
C1359 C1358 1.374 . S
C1360 C1357 1.499 . S
C1360 C1361 1.373 . S
C1360 C1362 1.389 . S
C1361 H1340 0.950 . S
C1361 C1360 1.373 . S
C1361 C1377 1.377 . S
C1362 C1360 1.389 . S
C1362 C1363 1.524 . S
C1362 C1376 1.377 . S
C1363 C1362 1.524 . S
C1363 C1364 1.397 . S
C1363 C1368 1.363 . S
C1364 H1341 0.950 . S
C1364 C1363 1.397 . S
C1364 C1365 1.334 . S
C1365 H1342 0.950 . S
C1365 C1364 1.334 . S
C1365 C1366 1.287 . S
C1366 C1365 1.287 . S
C1366 C1367 1.524 . S
C1366 H1385 0.913 . S
C1367 H1343 0.950 . S
C1367 C1366 1.524 . S
C1367 C1368 1.415 . S
C1368 H1344 0.950 . S
C1368 C1363 1.363 . S
C1368 C1367 1.415 . S
C1369 H1345 0.951 . S
C1369 C1370 1.366 . S
C1369 C1371 1.388 . S
C1370 C1369 1.366 . S
C1370 C1374 1.385 . S
C1371 H1346 0.951 . S
C1371 C1369 1.388 . S
C1371 C1372 1.366 . S
C1372 C1371 1.366 . S
C1372 C1373 1.414 . S
C1372 C1375 1.499 . S
C1373 H1347 0.950 . S
C1373 C1372 1.414 . S
C1373 C1374 1.374 . S
C1374 H1348 0.950 . S
C1374 C1370 1.385 . S
C1374 C1373 1.374 . S
C1375 C1372 1.499 . S
C1375 C1376 1.373 . S
C1375 C1377 1.389 . S
C1376 H1349 0.950 . S
C1376 C1362 1.377 . S
C1376 C1375 1.373 . S
C1377 C1361 1.377 . S
C1377 C1375 1.389 . S
C1377 C1378 1.524 . S
C1378 C1377 1.524 . S
C1378 C1379 1.397 . S
C1378 C1383 1.363 . S
C1379 H1350 0.950 . S
C1379 C1378 1.397 . S
C1379 C1380 1.334 . S
C1380 H1351 0.950 . S
C1380 C1379 1.334 . S
C1380 C1381 1.287 . S
C1381 C1380 1.287 . S
C1381 C1382 1.524 . S
C1381 H1384 0.999 . S
C1382 H1352 0.950 . S
C1382 C1381 1.524 . S
C1382 C1383 1.415 . S
C1383 H1353 0.950 . S
C1383 C1378 1.363 . S
C1383 C1382 1.415 . S
H1384 C1381 0.999 . S
H1385 C1366 0.913 . S
H1386 C1404 0.951 . S
H1387 C1406 0.951 . S
H1388 C1408 0.950 . S
H1389 C1409 0.950 . S
H1390 C1411 0.950 . S
H1391 C1414 0.950 . S
H1392 C1415 0.950 . S
H1393 C1417 0.950 . S
H1394 C1418 0.950 . S
H1395 C1419 0.951 . S
H1396 C1421 0.951 . S
H1397 C1423 0.950 . S
H1398 C1424 0.950 . S
H1399 C1426 0.950 . S
H1400 C1429 0.950 . S
H1401 C1430 0.950 . S
H1402 C1432 0.950 . S
H1403 C1433 0.950 . S
C1404 H1386 0.951 . S
C1404 C1405 1.366 . S
C1404 C1406 1.388 . S
C1405 C1404 1.366 . S
C1405 C1409 1.385 . S
C1406 H1387 0.951 . S
C1406 C1404 1.388 . S
C1406 C1407 1.366 . S
C1407 C1406 1.366 . S
C1407 C1408 1.414 . S
C1407 C1410 1.499 . S
C1408 H1388 0.950 . S
C1408 C1407 1.414 . S
C1408 C1409 1.374 . S
C1409 H1389 0.950 . S
C1409 C1405 1.385 . S
C1409 C1408 1.374 . S
C1410 C1407 1.499 . S
C1410 C1411 1.373 . S
C1410 C1412 1.389 . S
C1411 H1390 0.950 . S
C1411 C1410 1.373 . S
C1411 C1427 1.377 . S
C1412 C1410 1.389 . S
C1412 C1413 1.524 . S
C1412 C1426 1.377 . S
C1413 C1412 1.524 . S
C1413 C1414 1.397 . S
C1413 C1418 1.363 . S
C1414 H1391 0.950 . S
C1414 C1413 1.397 . S
C1414 C1415 1.334 . S
C1415 H1392 0.950 . S
C1415 C1414 1.334 . S
C1415 C1416 1.287 . S
C1416 C1415 1.287 . S
C1416 C1417 1.524 . S
C1416 H1435 0.913 . S
C1417 H1393 0.950 . S
C1417 C1416 1.524 . S
C1417 C1418 1.415 . S
C1418 H1394 0.950 . S
C1418 C1413 1.363 . S
C1418 C1417 1.415 . S
C1419 H1395 0.951 . S
C1419 C1420 1.366 . S
C1419 C1421 1.388 . S
C1420 C1419 1.366 . S
C1420 C1424 1.385 . S
C1421 H1396 0.951 . S
C1421 C1419 1.388 . S
C1421 C1422 1.366 . S
C1422 C1421 1.366 . S
C1422 C1423 1.414 . S
C1422 C1425 1.499 . S
C1423 H1397 0.950 . S
C1423 C1422 1.414 . S
C1423 C1424 1.374 . S
C1424 H1398 0.950 . S
C1424 C1420 1.385 . S
C1424 C1423 1.374 . S
C1425 C1422 1.499 . S
C1425 C1426 1.373 . S
C1425 C1427 1.389 . S
C1426 H1399 0.950 . S
C1426 C1412 1.377 . S
C1426 C1425 1.373 . S
C1427 C1411 1.377 . S
C1427 C1425 1.389 . S
C1427 C1428 1.524 . S
C1428 C1427 1.524 . S
C1428 C1429 1.397 . S
C1428 C1433 1.363 . S
C1429 H1400 0.950 . S
C1429 C1428 1.397 . S
C1429 C1430 1.334 . S
C1430 H1401 0.950 . S
C1430 C1429 1.334 . S
C1430 C1431 1.287 . S
C1431 C1430 1.287 . S
C1431 C1432 1.524 . S
C1431 H1434 0.999 . S
C1432 H1402 0.950 . S
C1432 C1431 1.524 . S
C1432 C1433 1.415 . S
C1433 H1403 0.950 . S
C1433 C1428 1.363 . S
C1433 C1432 1.415 . S
H1434 C1431 0.999 . S
H1435 C1416 0.913 . S
H1436 C1454 0.951 . S
H1437 C1456 0.951 . S
H1438 C1458 0.950 . S
H1439 C1459 0.950 . S
H1440 C1461 0.950 . S
H1441 C1464 0.950 . S
H1442 C1465 0.950 . S
H1443 C1467 0.950 . S
H1444 C1468 0.950 . S
H1445 C1469 0.951 . S
H1446 C1471 0.951 . S
H1447 C1473 0.950 . S
H1448 C1474 0.950 . S
H1449 C1476 0.950 . S
H1450 C1479 0.950 . S
H1451 C1480 0.950 . S
H1452 C1482 0.950 . S
H1453 C1483 0.950 . S
C1454 H1436 0.951 . S
C1454 C1455 1.366 . S
C1454 C1456 1.388 . S
C1455 C1454 1.366 . S
C1455 C1459 1.385 . S
C1456 H1437 0.951 . S
C1456 C1454 1.388 . S
C1456 C1457 1.366 . S
C1457 C1456 1.366 . S
C1457 C1458 1.414 . S
C1457 C1460 1.499 . S
C1458 H1438 0.950 . S
C1458 C1457 1.414 . S
C1458 C1459 1.374 . S
C1459 H1439 0.950 . S
C1459 C1455 1.385 . S
C1459 C1458 1.374 . S
C1460 C1457 1.499 . S
C1460 C1461 1.373 . S
C1460 C1462 1.389 . S
C1461 H1440 0.950 . S
C1461 C1460 1.373 . S
C1461 C1477 1.377 . S
C1462 C1460 1.389 . S
C1462 C1463 1.524 . S
C1462 C1476 1.377 . S
C1463 C1462 1.524 . S
C1463 C1464 1.397 . S
C1463 C1468 1.363 . S
C1464 H1441 0.950 . S
C1464 C1463 1.397 . S
C1464 C1465 1.334 . S
C1465 H1442 0.950 . S
C1465 C1464 1.334 . S
C1465 C1466 1.287 . S
C1466 C1465 1.287 . S
C1466 C1467 1.524 . S
C1466 H1485 0.913 . S
C1467 H1443 0.950 . S
C1467 C1466 1.524 . S
C1467 C1468 1.415 . S
C1468 H1444 0.950 . S
C1468 C1463 1.363 . S
C1468 C1467 1.415 . S
C1469 H1445 0.951 . S
C1469 C1470 1.366 . S
C1469 C1471 1.388 . S
C1470 C1469 1.366 . S
C1470 C1474 1.385 . S
C1471 H1446 0.951 . S
C1471 C1469 1.388 . S
C1471 C1472 1.366 . S
C1472 C1471 1.366 . S
C1472 C1473 1.414 . S
C1472 C1475 1.499 . S
C1473 H1447 0.950 . S
C1473 C1472 1.414 . S
C1473 C1474 1.374 . S
C1474 H1448 0.950 . S
C1474 C1470 1.385 . S
C1474 C1473 1.374 . S
C1475 C1472 1.499 . S
C1475 C1476 1.373 . S
C1475 C1477 1.389 . S
C1476 H1449 0.950 . S
C1476 C1462 1.377 . S
C1476 C1475 1.373 . S
C1477 C1461 1.377 . S
C1477 C1475 1.389 . S
C1477 C1478 1.524 . S
C1478 C1477 1.524 . S
C1478 C1479 1.397 . S
C1478 C1483 1.363 . S
C1479 H1450 0.950 . S
C1479 C1478 1.397 . S
C1479 C1480 1.334 . S
C1480 H1451 0.950 . S
C1480 C1479 1.334 . S
C1480 C1481 1.287 . S
C1481 C1480 1.287 . S
C1481 C1482 1.524 . S
C1481 H1484 0.999 . S
C1482 H1452 0.950 . S
C1482 C1481 1.524 . S
C1482 C1483 1.415 . S
C1483 H1453 0.950 . S
C1483 C1478 1.363 . S
C1483 C1482 1.415 . S
H1484 C1481 0.999 . S
H1485 C1466 0.913 . S
H1486 C1504 0.951 . S
H1487 C1506 0.951 . S
H1488 C1508 0.950 . S
H1489 C1509 0.950 . S
H1490 C1511 0.950 . S
H1491 C1514 0.950 . S
H1492 C1515 0.950 . S
H1493 C1517 0.950 . S
H1494 C1518 0.950 . S
H1495 C1519 0.951 . S
H1496 C1521 0.951 . S
H1497 C1523 0.950 . S
H1498 C1524 0.950 . S
H1499 C1526 0.950 . S
H1500 C1529 0.950 . S
H1501 C1530 0.950 . S
H1502 C1532 0.950 . S
H1503 C1533 0.950 . S
C1504 H1486 0.951 . S
C1504 C1505 1.366 . S
C1504 C1506 1.388 . S
C1505 C1504 1.366 . S
C1505 C1509 1.385 . S
C1506 H1487 0.951 . S
C1506 C1504 1.388 . S
C1506 C1507 1.366 . S
C1507 C1506 1.366 . S
C1507 C1508 1.414 . S
C1507 C1510 1.499 . S
C1508 H1488 0.950 . S
C1508 C1507 1.414 . S
C1508 C1509 1.374 . S
C1509 H1489 0.950 . S
C1509 C1505 1.385 . S
C1509 C1508 1.374 . S
C1510 C1507 1.499 . S
C1510 C1511 1.373 . S
C1510 C1512 1.389 . S
C1511 H1490 0.950 . S
C1511 C1510 1.373 . S
C1511 C1527 1.377 . S
C1512 C1510 1.389 . S
C1512 C1513 1.524 . S
C1512 C1526 1.377 . S
C1513 C1512 1.524 . S
C1513 C1514 1.397 . S
C1513 C1518 1.363 . S
C1514 H1491 0.950 . S
C1514 C1513 1.397 . S
C1514 C1515 1.334 . S
C1515 H1492 0.950 . S
C1515 C1514 1.334 . S
C1515 C1516 1.287 . S
C1516 C1515 1.287 . S
C1516 C1517 1.524 . S
C1516 H1535 0.913 . S
C1517 H1493 0.950 . S
C1517 C1516 1.524 . S
C1517 C1518 1.415 . S
C1518 H1494 0.950 . S
C1518 C1513 1.363 . S
C1518 C1517 1.415 . S
C1519 H1495 0.951 . S
C1519 C1520 1.366 . S
C1519 C1521 1.388 . S
C1520 C1519 1.366 . S
C1520 C1524 1.385 . S
C1521 H1496 0.951 . S
C1521 C1519 1.388 . S
C1521 C1522 1.366 . S
C1522 C1521 1.366 . S
C1522 C1523 1.414 . S
C1522 C1525 1.499 . S
C1523 H1497 0.950 . S
C1523 C1522 1.414 . S
C1523 C1524 1.374 . S
C1524 H1498 0.950 . S
C1524 C1520 1.385 . S
C1524 C1523 1.374 . S
C1525 C1522 1.499 . S
C1525 C1526 1.373 . S
C1525 C1527 1.389 . S
C1526 H1499 0.950 . S
C1526 C1512 1.377 . S
C1526 C1525 1.373 . S
C1527 C1511 1.377 . S
C1527 C1525 1.389 . S
C1527 C1528 1.524 . S
C1528 C1527 1.524 . S
C1528 C1529 1.397 . S
C1528 C1533 1.363 . S
C1529 H1500 0.950 . S
C1529 C1528 1.397 . S
C1529 C1530 1.334 . S
C1530 H1501 0.950 . S
C1530 C1529 1.334 . S
C1530 C1531 1.287 . S
C1531 C1530 1.287 . S
C1531 C1532 1.524 . S
C1531 H1534 0.999 . S
C1532 H1502 0.950 . S
C1532 C1531 1.524 . S
C1532 C1533 1.415 . S
C1533 H1503 0.950 . S
C1533 C1528 1.363 . S
C1533 C1532 1.415 . S
H1534 C1531 0.999 . S
H1535 C1516 0.913 . S
H1536 C1554 0.951 . S
H1537 C1556 0.951 . S
H1538 C1558 0.950 . S
H1539 C1559 0.950 . S
H1540 C1561 0.950 . S
H1541 C1564 0.950 . S
H1542 C1565 0.950 . S
H1543 C1567 0.950 . S
H1544 C1568 0.950 . S
H1545 C1569 0.951 . S
H1546 C1571 0.951 . S
H1547 C1573 0.950 . S
H1548 C1574 0.950 . S
H1549 C1576 0.950 . S
H1550 C1579 0.950 . S
H1551 C1580 0.950 . S
H1552 C1582 0.950 . S
H1553 C1583 0.950 . S
C1554 H1536 0.951 . S
C1554 C1555 1.366 . S
C1554 C1556 1.388 . S
C1555 C1554 1.366 . S
C1555 C1559 1.385 . S
C1556 H1537 0.951 . S
C1556 C1554 1.388 . S
C1556 C1557 1.366 . S
C1557 C1556 1.366 . S
C1557 C1558 1.414 . S
C1557 C1560 1.499 . S
C1558 H1538 0.950 . S
C1558 C1557 1.414 . S
C1558 C1559 1.374 . S
C1559 H1539 0.950 . S
C1559 C1555 1.385 . S
C1559 C1558 1.374 . S
C1560 C1557 1.499 . S
C1560 C1561 1.373 . S
C1560 C1562 1.389 . S
C1561 H1540 0.950 . S
C1561 C1560 1.373 . S
C1561 C1577 1.377 . S
C1562 C1560 1.389 . S
C1562 C1563 1.524 . S
C1562 C1576 1.377 . S
C1563 C1562 1.524 . S
C1563 C1564 1.397 . S
C1563 C1568 1.363 . S
C1564 H1541 0.950 . S
C1564 C1563 1.397 . S
C1564 C1565 1.334 . S
C1565 H1542 0.950 . S
C1565 C1564 1.334 . S
C1565 C1566 1.287 . S
C1566 C1565 1.287 . S
C1566 C1567 1.524 . S
C1566 H1585 0.913 . S
C1567 H1543 0.950 . S
C1567 C1566 1.524 . S
C1567 C1568 1.415 . S
C1568 H1544 0.950 . S
C1568 C1563 1.363 . S
C1568 C1567 1.415 . S
C1569 H1545 0.951 . S
C1569 C1570 1.366 . S
C1569 C1571 1.388 . S
C1570 C1569 1.366 . S
C1570 C1574 1.385 . S
C1571 H1546 0.951 . S
C1571 C1569 1.388 . S
C1571 C1572 1.366 . S
C1572 C1571 1.366 . S
C1572 C1573 1.414 . S
C1572 C1575 1.499 . S
C1573 H1547 0.950 . S
C1573 C1572 1.414 . S
C1573 C1574 1.374 . S
C1574 H1548 0.950 . S
C1574 C1570 1.385 . S
C1574 C1573 1.374 . S
C1575 C1572 1.499 . S
C1575 C1576 1.373 . S
C1575 C1577 1.389 . S
C1576 H1549 0.950 . S
C1576 C1562 1.377 . S
C1576 C1575 1.373 . S
C1577 C1561 1.377 . S
C1577 C1575 1.389 . S
C1577 C1578 1.524 . S
C1578 C1577 1.524 . S
C1578 C1579 1.397 . S
C1578 C1583 1.363 . S
C1579 H1550 0.950 . S
C1579 C1578 1.397 . S
C1579 C1580 1.334 . S
C1580 H1551 0.950 . S
C1580 C1579 1.334 . S
C1580 C1581 1.287 . S
C1581 C1580 1.287 . S
C1581 C1582 1.524 . S
C1581 H1584 0.999 . S
C1582 H1552 0.950 . S
C1582 C1581 1.524 . S
C1582 C1583 1.415 . S
C1583 H1553 0.950 . S
C1583 C1578 1.363 . S
C1583 C1582 1.415 . S
H1584 C1581 0.999 . S
H1585 C1566 0.913 . S
H1586 C1604 0.951 . S
H1587 C1606 0.951 . S
H1588 C1608 0.950 . S
H1589 C1609 0.950 . S
H1590 C1611 0.950 . S
H1591 C1614 0.950 . S
H1592 C1615 0.950 . S
H1593 C1617 0.950 . S
H1594 C1618 0.950 . S
H1595 C1619 0.951 . S
H1596 C1621 0.951 . S
H1597 C1623 0.950 . S
H1598 C1624 0.950 . S
H1599 C1626 0.950 . S
H1600 C1629 0.950 . S
H1601 C1630 0.950 . S
H1602 C1632 0.950 . S
H1603 C1633 0.950 . S
C1604 H1586 0.951 . S
C1604 C1605 1.366 . S
C1604 C1606 1.388 . S
C1605 C1604 1.366 . S
C1605 C1609 1.385 . S
C1606 H1587 0.951 . S
C1606 C1604 1.388 . S
C1606 C1607 1.366 . S
C1607 C1606 1.366 . S
C1607 C1608 1.414 . S
C1607 C1610 1.499 . S
C1608 H1588 0.950 . S
C1608 C1607 1.414 . S
C1608 C1609 1.374 . S
C1609 H1589 0.950 . S
C1609 C1605 1.385 . S
C1609 C1608 1.374 . S
C1610 C1607 1.499 . S
C1610 C1611 1.373 . S
C1610 C1612 1.389 . S
C1611 H1590 0.950 . S
C1611 C1610 1.373 . S
C1611 C1627 1.377 . S
C1612 C1610 1.389 . S
C1612 C1613 1.524 . S
C1612 C1626 1.377 . S
C1613 C1612 1.524 . S
C1613 C1614 1.397 . S
C1613 C1618 1.363 . S
C1614 H1591 0.950 . S
C1614 C1613 1.397 . S
C1614 C1615 1.334 . S
C1615 H1592 0.950 . S
C1615 C1614 1.334 . S
C1615 C1616 1.287 . S
C1616 C1615 1.287 . S
C1616 C1617 1.524 . S
C1616 H1635 0.913 . S
C1617 H1593 0.950 . S
C1617 C1616 1.524 . S
C1617 C1618 1.415 . S
C1618 H1594 0.950 . S
C1618 C1613 1.363 . S
C1618 C1617 1.415 . S
C1619 H1595 0.951 . S
C1619 C1620 1.366 . S
C1619 C1621 1.388 . S
C1620 C1619 1.366 . S
C1620 C1624 1.385 . S
C1621 H1596 0.951 . S
C1621 C1619 1.388 . S
C1621 C1622 1.366 . S
C1622 C1621 1.366 . S
C1622 C1623 1.414 . S
C1622 C1625 1.499 . S
C1623 H1597 0.950 . S
C1623 C1622 1.414 . S
C1623 C1624 1.374 . S
C1624 H1598 0.950 . S
C1624 C1620 1.385 . S
C1624 C1623 1.374 . S
C1625 C1622 1.499 . S
C1625 C1626 1.373 . S
C1625 C1627 1.389 . S
C1626 H1599 0.950 . S
C1626 C1612 1.377 . S
C1626 C1625 1.373 . S
C1627 C1611 1.377 . S
C1627 C1625 1.389 . S
C1627 C1628 1.524 . S
C1628 C1627 1.524 . S
C1628 C1629 1.397 . S
C1628 C1633 1.363 . S
C1629 H1600 0.950 . S
C1629 C1628 1.397 . S
C1629 C1630 1.334 . S
C1630 H1601 0.950 . S
C1630 C1629 1.334 . S
C1630 C1631 1.287 . S
C1631 C1630 1.287 . S
C1631 C1632 1.524 . S
C1631 H1634 0.999 . S
C1632 H1602 0.950 . S
C1632 C1631 1.524 . S
C1632 C1633 1.415 . S
C1633 H1603 0.950 . S
C1633 C1628 1.363 . S
C1633 C1632 1.415 . S
H1634 C1631 0.999 . S
H1635 C1616 0.913 . S
H1636 C1654 0.951 . S
H1637 C1656 0.951 . S
H1638 C1658 0.950 . S
H1639 C1659 0.950 . S
H1640 C1661 0.950 . S
H1641 C1664 0.950 . S
H1642 C1665 0.950 . S
H1643 C1667 0.950 . S
H1644 C1668 0.950 . S
H1645 C1669 0.951 . S
H1646 C1671 0.951 . S
H1647 C1673 0.950 . S
H1648 C1674 0.950 . S
H1649 C1676 0.950 . S
H1650 C1679 0.950 . S
H1651 C1680 0.950 . S
H1652 C1682 0.950 . S
H1653 C1683 0.950 . S
C1654 H1636 0.951 . S
C1654 C1655 1.366 . S
C1654 C1656 1.388 . S
C1655 C1654 1.366 . S
C1655 C1659 1.385 . S
C1656 H1637 0.951 . S
C1656 C1654 1.388 . S
C1656 C1657 1.366 . S
C1657 C1656 1.366 . S
C1657 C1658 1.414 . S
C1657 C1660 1.499 . S
C1658 H1638 0.950 . S
C1658 C1657 1.414 . S
C1658 C1659 1.374 . S
C1659 H1639 0.950 . S
C1659 C1655 1.385 . S
C1659 C1658 1.374 . S
C1660 C1657 1.499 . S
C1660 C1661 1.373 . S
C1660 C1662 1.389 . S
C1661 H1640 0.950 . S
C1661 C1660 1.373 . S
C1661 C1677 1.377 . S
C1662 C1660 1.389 . S
C1662 C1663 1.524 . S
C1662 C1676 1.377 . S
C1663 C1662 1.524 . S
C1663 C1664 1.397 . S
C1663 C1668 1.363 . S
C1664 H1641 0.950 . S
C1664 C1663 1.397 . S
C1664 C1665 1.334 . S
C1665 H1642 0.950 . S
C1665 C1664 1.334 . S
C1665 C1666 1.287 . S
C1666 C1665 1.287 . S
C1666 C1667 1.524 . S
C1666 H1685 0.913 . S
C1667 H1643 0.950 . S
C1667 C1666 1.524 . S
C1667 C1668 1.415 . S
C1668 H1644 0.950 . S
C1668 C1663 1.363 . S
C1668 C1667 1.415 . S
C1669 H1645 0.951 . S
C1669 C1670 1.366 . S
C1669 C1671 1.388 . S
C1670 C1669 1.366 . S
C1670 C1674 1.385 . S
C1671 H1646 0.951 . S
C1671 C1669 1.388 . S
C1671 C1672 1.366 . S
C1672 C1671 1.366 . S
C1672 C1673 1.414 . S
C1672 C1675 1.499 . S
C1673 H1647 0.950 . S
C1673 C1672 1.414 . S
C1673 C1674 1.374 . S
C1674 H1648 0.950 . S
C1674 C1670 1.385 . S
C1674 C1673 1.374 . S
C1675 C1672 1.499 . S
C1675 C1676 1.373 . S
C1675 C1677 1.389 . S
C1676 H1649 0.950 . S
C1676 C1662 1.377 . S
C1676 C1675 1.373 . S
C1677 C1661 1.377 . S
C1677 C1675 1.389 . S
C1677 C1678 1.524 . S
C1678 C1677 1.524 . S
C1678 C1679 1.397 . S
C1678 C1683 1.363 . S
C1679 H1650 0.950 . S
C1679 C1678 1.397 . S
C1679 C1680 1.334 . S
C1680 H1651 0.950 . S
C1680 C1679 1.334 . S
C1680 C1681 1.287 . S
C1681 C1680 1.287 . S
C1681 C1682 1.524 . S
C1681 H1684 0.999 . S
C1682 H1652 0.950 . S
C1682 C1681 1.524 . S
C1682 C1683 1.415 . S
C1683 H1653 0.950 . S
C1683 C1678 1.363 . S
C1683 C1682 1.415 . S
H1684 C1681 0.999 . S
H1685 C1666 0.913 . S
H1686 C1704 0.951 . S
H1687 C1706 0.951 . S
H1688 C1708 0.950 . S
H1689 C1709 0.950 . S
H1690 C1711 0.950 . S
H1691 C1714 0.950 . S
H1692 C1715 0.950 . S
H1693 C1717 0.950 . S
H1694 C1718 0.950 . S
H1695 C1719 0.951 . S
H1696 C1721 0.951 . S
H1697 C1723 0.950 . S
H1698 C1724 0.950 . S
H1699 C1726 0.950 . S
H1700 C1729 0.950 . S
H1701 C1730 0.950 . S
H1702 C1732 0.950 . S
H1703 C1733 0.950 . S
C1704 H1686 0.951 . S
C1704 C1705 1.366 . S
C1704 C1706 1.388 . S
C1705 C1704 1.366 . S
C1705 C1709 1.385 . S
C1706 H1687 0.951 . S
C1706 C1704 1.388 . S
C1706 C1707 1.366 . S
C1707 C1706 1.366 . S
C1707 C1708 1.414 . S
C1707 C1710 1.499 . S
C1708 H1688 0.950 . S
C1708 C1707 1.414 . S
C1708 C1709 1.374 . S
C1709 H1689 0.950 . S
C1709 C1705 1.385 . S
C1709 C1708 1.374 . S
C1710 C1707 1.499 . S
C1710 C1711 1.373 . S
C1710 C1712 1.389 . S
C1711 H1690 0.950 . S
C1711 C1710 1.373 . S
C1711 C1727 1.377 . S
C1712 C1710 1.389 . S
C1712 C1713 1.524 . S
C1712 C1726 1.377 . S
C1713 C1712 1.524 . S
C1713 C1714 1.397 . S
C1713 C1718 1.363 . S
C1714 H1691 0.950 . S
C1714 C1713 1.397 . S
C1714 C1715 1.334 . S
C1715 H1692 0.950 . S
C1715 C1714 1.334 . S
C1715 C1716 1.287 . S
C1716 C1715 1.287 . S
C1716 C1717 1.524 . S
C1716 H1735 0.913 . S
C1717 H1693 0.950 . S
C1717 C1716 1.524 . S
C1717 C1718 1.415 . S
C1718 H1694 0.950 . S
C1718 C1713 1.363 . S
C1718 C1717 1.415 . S
C1719 H1695 0.951 . S
C1719 C1720 1.366 . S
C1719 C1721 1.388 . S
C1720 C1719 1.366 . S
C1720 C1724 1.385 . S
C1721 H1696 0.951 . S
C1721 C1719 1.388 . S
C1721 C1722 1.366 . S
C1722 C1721 1.366 . S
C1722 C1723 1.414 . S
C1722 C1725 1.499 . S
C1723 H1697 0.950 . S
C1723 C1722 1.414 . S
C1723 C1724 1.374 . S
C1724 H1698 0.950 . S
C1724 C1720 1.385 . S
C1724 C1723 1.374 . S
C1725 C1722 1.499 . S
C1725 C1726 1.373 . S
C1725 C1727 1.389 . S
C1726 H1699 0.950 . S
C1726 C1712 1.377 . S
C1726 C1725 1.373 . S
C1727 C1711 1.377 . S
C1727 C1725 1.389 . S
C1727 C1728 1.524 . S
C1728 C1727 1.524 . S
C1728 C1729 1.397 . S
C1728 C1733 1.363 . S
C1729 H1700 0.950 . S
C1729 C1728 1.397 . S
C1729 C1730 1.334 . S
C1730 H1701 0.950 . S
C1730 C1729 1.334 . S
C1730 C1731 1.287 . S
C1731 C1730 1.287 . S
C1731 C1732 1.524 . S
C1731 H1734 0.999 . S
C1732 H1702 0.950 . S
C1732 C1731 1.524 . S
C1732 C1733 1.415 . S
C1733 H1703 0.950 . S
C1733 C1728 1.363 . S
C1733 C1732 1.415 . S
H1734 C1731 0.999 . S
H1735 C1716 0.913 . S
H1736 C1754 0.951 . S
H1737 C1756 0.951 . S
H1738 C1758 0.950 . S
H1739 C1759 0.950 . S
H1740 C1761 0.950 . S
H1741 C1764 0.950 . S
H1742 C1765 0.950 . S
H1743 C1767 0.950 . S
H1744 C1768 0.950 . S
H1745 C1769 0.951 . S
H1746 C1771 0.951 . S
H1747 C1773 0.950 . S
H1748 C1774 0.950 . S
H1749 C1776 0.950 . S
H1750 C1779 0.950 . S
H1751 C1780 0.950 . S
H1752 C1782 0.950 . S
H1753 C1783 0.950 . S
C1754 H1736 0.951 . S
C1754 C1755 1.366 . S
C1754 C1756 1.388 . S
C1755 C1754 1.366 . S
C1755 C1759 1.385 . S
C1756 H1737 0.951 . S
C1756 C1754 1.388 . S
C1756 C1757 1.366 . S
C1757 C1756 1.366 . S
C1757 C1758 1.414 . S
C1757 C1760 1.499 . S
C1758 H1738 0.950 . S
C1758 C1757 1.414 . S
C1758 C1759 1.374 . S
C1759 H1739 0.950 . S
C1759 C1755 1.385 . S
C1759 C1758 1.374 . S
C1760 C1757 1.499 . S
C1760 C1761 1.373 . S
C1760 C1762 1.389 . S
C1761 H1740 0.950 . S
C1761 C1760 1.373 . S
C1761 C1777 1.377 . S
C1762 C1760 1.389 . S
C1762 C1763 1.524 . S
C1762 C1776 1.377 . S
C1763 C1762 1.524 . S
C1763 C1764 1.397 . S
C1763 C1768 1.363 . S
C1764 H1741 0.950 . S
C1764 C1763 1.397 . S
C1764 C1765 1.334 . S
C1765 H1742 0.950 . S
C1765 C1764 1.334 . S
C1765 C1766 1.287 . S
C1766 C1765 1.287 . S
C1766 C1767 1.524 . S
C1766 H1785 0.913 . S
C1767 H1743 0.950 . S
C1767 C1766 1.524 . S
C1767 C1768 1.415 . S
C1768 H1744 0.950 . S
C1768 C1763 1.363 . S
C1768 C1767 1.415 . S
C1769 H1745 0.951 . S
C1769 C1770 1.366 . S
C1769 C1771 1.388 . S
C1770 C1769 1.366 . S
C1770 C1774 1.385 . S
C1771 H1746 0.951 . S
C1771 C1769 1.388 . S
C1771 C1772 1.366 . S
C1772 C1771 1.366 . S
C1772 C1773 1.414 . S
C1772 C1775 1.499 . S
C1773 H1747 0.950 . S
C1773 C1772 1.414 . S
C1773 C1774 1.374 . S
C1774 H1748 0.950 . S
C1774 C1770 1.385 . S
C1774 C1773 1.374 . S
C1775 C1772 1.499 . S
C1775 C1776 1.373 . S
C1775 C1777 1.389 . S
C1776 H1749 0.950 . S
C1776 C1762 1.377 . S
C1776 C1775 1.373 . S
C1777 C1761 1.377 . S
C1777 C1775 1.389 . S
C1777 C1778 1.524 . S
C1778 C1777 1.524 . S
C1778 C1779 1.397 . S
C1778 C1783 1.363 . S
C1779 H1750 0.950 . S
C1779 C1778 1.397 . S
C1779 C1780 1.334 . S
C1780 H1751 0.950 . S
C1780 C1779 1.334 . S
C1780 C1781 1.287 . S
C1781 C1780 1.287 . S
C1781 C1782 1.524 . S
C1781 H1784 0.999 . S
C1782 H1752 0.950 . S
C1782 C1781 1.524 . S
C1782 C1783 1.415 . S
C1783 H1753 0.950 . S
C1783 C1778 1.363 . S
C1783 C1782 1.415 . S
H1784 C1781 0.999 . S
H1785 C1766 0.913 . S
H1786 C1804 0.951 . S
H1787 C1806 0.951 . S
H1788 C1808 0.950 . S
H1789 C1809 0.950 . S
H1790 C1811 0.950 . S
H1791 C1814 0.950 . S
H1792 C1815 0.950 . S
H1793 C1817 0.950 . S
H1794 C1818 0.950 . S
H1795 C1819 0.951 . S
H1796 C1821 0.951 . S
H1797 C1823 0.950 . S
H1798 C1824 0.950 . S
H1799 C1826 0.950 . S
H1800 C1829 0.950 . S
H1801 C1830 0.950 . S
H1802 C1832 0.950 . S
H1803 C1833 0.950 . S
C1804 H1786 0.951 . S
C1804 C1805 1.366 . S
C1804 C1806 1.388 . S
C1805 C1804 1.366 . S
C1805 C1809 1.385 . S
C1806 H1787 0.951 . S
C1806 C1804 1.388 . S
C1806 C1807 1.366 . S
C1807 C1806 1.366 . S
C1807 C1808 1.414 . S
C1807 C1810 1.499 . S
C1808 H1788 0.950 . S
C1808 C1807 1.414 . S
C1808 C1809 1.374 . S
C1809 H1789 0.950 . S
C1809 C1805 1.385 . S
C1809 C1808 1.374 . S
C1810 C1807 1.499 . S
C1810 C1811 1.373 . S
C1810 C1812 1.389 . S
C1811 H1790 0.950 . S
C1811 C1810 1.373 . S
C1811 C1827 1.377 . S
C1812 C1810 1.389 . S
C1812 C1813 1.524 . S
C1812 C1826 1.377 . S
C1813 C1812 1.524 . S
C1813 C1814 1.397 . S
C1813 C1818 1.363 . S
C1814 H1791 0.950 . S
C1814 C1813 1.397 . S
C1814 C1815 1.334 . S
C1815 H1792 0.950 . S
C1815 C1814 1.334 . S
C1815 C1816 1.287 . S
C1816 C1815 1.287 . S
C1816 C1817 1.524 . S
C1816 H1835 0.913 . S
C1817 H1793 0.950 . S
C1817 C1816 1.524 . S
C1817 C1818 1.415 . S
C1818 H1794 0.950 . S
C1818 C1813 1.363 . S
C1818 C1817 1.415 . S
C1819 H1795 0.951 . S
C1819 C1820 1.366 . S
C1819 C1821 1.388 . S
C1820 C1819 1.366 . S
C1820 C1824 1.385 . S
C1821 H1796 0.951 . S
C1821 C1819 1.388 . S
C1821 C1822 1.366 . S
C1822 C1821 1.366 . S
C1822 C1823 1.414 . S
C1822 C1825 1.499 . S
C1823 H1797 0.950 . S
C1823 C1822 1.414 . S
C1823 C1824 1.374 . S
C1824 H1798 0.950 . S
C1824 C1820 1.385 . S
C1824 C1823 1.374 . S
C1825 C1822 1.499 . S
C1825 C1826 1.373 . S
C1825 C1827 1.389 . S
C1826 H1799 0.950 . S
C1826 C1812 1.377 . S
C1826 C1825 1.373 . S
C1827 C1811 1.377 . S
C1827 C1825 1.389 . S
C1827 C1828 1.524 . S
C1828 C1827 1.524 . S
C1828 C1829 1.397 . S
C1828 C1833 1.363 . S
C1829 H1800 0.950 . S
C1829 C1828 1.397 . S
C1829 C1830 1.334 . S
C1830 H1801 0.950 . S
C1830 C1829 1.334 . S
C1830 C1831 1.287 . S
C1831 C1830 1.287 . S
C1831 C1832 1.524 . S
C1831 H1834 0.999 . S
C1832 H1802 0.950 . S
C1832 C1831 1.524 . S
C1832 C1833 1.415 . S
C1833 H1803 0.950 . S
C1833 C1828 1.363 . S
C1833 C1832 1.415 . S
H1834 C1831 0.999 . S
H1835 C1816 0.913 . S
C655 C39 1.959 . S
C670 C356 1.941 . S
C705 C91 1.644 . S
C720 C409 1.628 . S
C770 C462 1.682 . S
C755 C128 1.703 . S
C820 C499 1.325 . S
C805 C188 1.336 . S
C870 C559 1.698 . S
C855 C250 1.715 . S
C920 C612 1.555 . S
C905 C304 1.576 . S
C955 C75 1.827 . S
C970 C463 1.813 . S
C1005 C144 1.601 . S
C1020 C506 1.583 . S
C1070 C552 1.745 . S
C1055 C198 1.757 . S
C1120 C605 1.332 . S
C1105 C234 1.345 . S
C1155 C294 1.653 . S
C1170 C357 1.640 . S
C1220 C410 1.478 . S
C1205 C29 1.487 . S
C1270 C516 1.940 . S
C1255 C38 1.959 . S
C1305 C92 1.644 . S
C1320 C568 1.633 . S
C1370 C621 1.687 . S
C1355 C135 1.703 . S
C1405 C181 1.336 . S
C1420 C347 1.325 . S
C1455 C251 1.715 . S
C1470 C400 1.702 . S
C1505 C303 1.576 . S
C1520 C453 1.560 . S
C1555 C82 1.827 . S
C1570 C622 1.808 . S
C1620 C340 1.583 . S
C1605 C145 1.601 . S
C1655 C197 1.757 . S
C1670 C393 1.741 . S
C1705 C241 1.345 . S
C1720 C446 1.328 . S
C1755 C287 1.653 . S
C1770 C515 1.640 . S
C1805 C22 1.487 . S
C1820 C569 1.473 . S
