# Generated by pormake.
# Topology gar, (4,6)-cn, num edge types: 1
# Building blocks:
#     Node 0, Type 0, BuildingBlock: AZAVOO_clean_sbu_0, # of connection points: 4
#     Node 1, Type 0, BuildingBlock: AZAVOO_clean_sbu_0, # of connection points: 4
#     Node 2, Type 0, BuildingBlock: AZAVOO_clean_sbu_0, # of connection points: 4
#     Node 3, Type 0, BuildingBlock: AZAVOO_clean_sbu_0, # of connection points: 4
#     Node 4, Type 0, BuildingBlock: AZAVOO_clean_sbu_0, # of connection points: 4
#     Node 5, Type 0, BuildingBlock: AZAVOO_clean_sbu_0, # of connection points: 4
#     Node 6, Type 0, BuildingBlock: AZAVOO_clean_sbu_0, # of connection points: 4
#     Node 7, Type 0, BuildingBlock: AZAVOO_clean_sbu_0, # of connection points: 4
#     Node 8, Type 0, BuildingBlock: AZAVOO_clean_sbu_0, # of connection points: 4
#     Node 9, Type 0, BuildingBlock: AZAVOO_clean_sbu_0, # of connection points: 4
#     Node 10, Type 0, BuildingBlock: AZAVOO_clean_sbu_0, # of connection points: 4
#     Node 11, Type 0, BuildingBlock: AZAVOO_clean_sbu_0, # of connection points: 4
#     Node 12, Type 0, BuildingBlock: AZAVOO_clean_sbu_0, # of connection points: 4
#     Node 13, Type 0, BuildingBlock: AZAVOO_clean_sbu_0, # of connection points: 4
#     Node 14, Type 0, BuildingBlock: AZAVOO_clean_sbu_0, # of connection points: 4
#     Node 15, Type 0, BuildingBlock: AZAVOO_clean_sbu_0, # of connection points: 4
#     Node 16, Type 0, BuildingBlock: AZAVOO_clean_sbu_0, # of connection points: 4
#     Node 17, Type 0, BuildingBlock: AZAVOO_clean_sbu_0, # of connection points: 4
#     Node 18, Type 0, BuildingBlock: AZAVOO_clean_sbu_0, # of connection points: 4
#     Node 19, Type 0, BuildingBlock: AZAVOO_clean_sbu_0, # of connection points: 4
#     Node 20, Type 0, BuildingBlock: AZAVOO_clean_sbu_0, # of connection points: 4
#     Node 21, Type 0, BuildingBlock: AZAVOO_clean_sbu_0, # of connection points: 4
#     Node 22, Type 0, BuildingBlock: AZAVOO_clean_sbu_0, # of connection points: 4
#     Node 23, Type 0, BuildingBlock: AZAVOO_clean_sbu_0, # of connection points: 4
#     Node 24, Type 1, BuildingBlock: CUKXOW_clean_sbu_0, # of connection points: 6
#     Node 25, Type 1, BuildingBlock: CUKXOW_clean_sbu_0, # of connection points: 6
#     Node 26, Type 1, BuildingBlock: CUKXOW_clean_sbu_0, # of connection points: 6
#     Node 27, Type 1, BuildingBlock: CUKXOW_clean_sbu_0, # of connection points: 6
#     Node 28, Type 1, BuildingBlock: CUKXOW_clean_sbu_0, # of connection points: 6
#     Node 29, Type 1, BuildingBlock: CUKXOW_clean_sbu_0, # of connection points: 6
#     Node 30, Type 1, BuildingBlock: CUKXOW_clean_sbu_0, # of connection points: 6
#     Node 31, Type 1, BuildingBlock: CUKXOW_clean_sbu_0, # of connection points: 6
#     Node 32, Type 1, BuildingBlock: CUKXOW_clean_sbu_0, # of connection points: 6
#     Node 33, Type 1, BuildingBlock: CUKXOW_clean_sbu_0, # of connection points: 6
#     Node 34, Type 1, BuildingBlock: CUKXOW_clean_sbu_0, # of connection points: 6
#     Node 35, Type 1, BuildingBlock: CUKXOW_clean_sbu_0, # of connection points: 6
#     Node 36, Type 1, BuildingBlock: CUKXOW_clean_sbu_0, # of connection points: 6
#     Node 37, Type 1, BuildingBlock: CUKXOW_clean_sbu_0, # of connection points: 6
#     Node 38, Type 1, BuildingBlock: CUKXOW_clean_sbu_0, # of connection points: 6
#     Node 39, Type 1, BuildingBlock: CUKXOW_clean_sbu_0, # of connection points: 6
#     Edge 40, Type (0, 1), BuildingBlock: EZIPEK_clean_linker_0, # of connection points: 2
#     Edge 41, Type (0, 1), BuildingBlock: EZIPEK_clean_linker_0, # of connection points: 2
#     Edge 42, Type (0, 1), BuildingBlock: EZIPEK_clean_linker_0, # of connection points: 2
#     Edge 43, Type (0, 1), BuildingBlock: EZIPEK_clean_linker_0, # of connection points: 2
#     Edge 44, Type (0, 1), BuildingBlock: EZIPEK_clean_linker_0, # of connection points: 2
#     Edge 45, Type (0, 1), BuildingBlock: EZIPEK_clean_linker_0, # of connection points: 2
#     Edge 46, Type (0, 1), BuildingBlock: EZIPEK_clean_linker_0, # of connection points: 2
#     Edge 47, Type (0, 1), BuildingBlock: EZIPEK_clean_linker_0, # of connection points: 2
#     Edge 48, Type (0, 1), BuildingBlock: EZIPEK_clean_linker_0, # of connection points: 2
#     Edge 49, Type (0, 1), BuildingBlock: EZIPEK_clean_linker_0, # of connection points: 2
#     Edge 50, Type (0, 1), BuildingBlock: EZIPEK_clean_linker_0, # of connection points: 2
#     Edge 51, Type (0, 1), BuildingBlock: EZIPEK_clean_linker_0, # of connection points: 2
#     Edge 52, Type (0, 1), BuildingBlock: EZIPEK_clean_linker_0, # of connection points: 2
#     Edge 53, Type (0, 1), BuildingBlock: EZIPEK_clean_linker_0, # of connection points: 2
#     Edge 54, Type (0, 1), BuildingBlock: EZIPEK_clean_linker_0, # of connection points: 2
#     Edge 55, Type (0, 1), BuildingBlock: EZIPEK_clean_linker_0, # of connection points: 2
#     Edge 56, Type (0, 1), BuildingBlock: EZIPEK_clean_linker_0, # of connection points: 2
#     Edge 57, Type (0, 1), BuildingBlock: EZIPEK_clean_linker_0, # of connection points: 2
#     Edge 58, Type (0, 1), BuildingBlock: EZIPEK_clean_linker_0, # of connection points: 2
#     Edge 59, Type (0, 1), BuildingBlock: EZIPEK_clean_linker_0, # of connection points: 2
#     Edge 60, Type (0, 1), BuildingBlock: EZIPEK_clean_linker_0, # of connection points: 2
#     Edge 61, Type (0, 1), BuildingBlock: EZIPEK_clean_linker_0, # of connection points: 2
#     Edge 62, Type (0, 1), BuildingBlock: EZIPEK_clean_linker_0, # of connection points: 2
#     Edge 63, Type (0, 1), BuildingBlock: EZIPEK_clean_linker_0, # of connection points: 2
#     Edge 64, Type (0, 1), BuildingBlock: EZIPEK_clean_linker_0, # of connection points: 2
#     Edge 65, Type (0, 1), BuildingBlock: EZIPEK_clean_linker_0, # of connection points: 2
#     Edge 66, Type (0, 1), BuildingBlock: EZIPEK_clean_linker_0, # of connection points: 2
#     Edge 67, Type (0, 1), BuildingBlock: EZIPEK_clean_linker_0, # of connection points: 2
#     Edge 68, Type (0, 1), BuildingBlock: EZIPEK_clean_linker_0, # of connection points: 2
#     Edge 69, Type (0, 1), BuildingBlock: EZIPEK_clean_linker_0, # of connection points: 2
#     Edge 70, Type (0, 1), BuildingBlock: EZIPEK_clean_linker_0, # of connection points: 2
#     Edge 71, Type (0, 1), BuildingBlock: EZIPEK_clean_linker_0, # of connection points: 2
#     Edge 72, Type (0, 1), BuildingBlock: EZIPEK_clean_linker_0, # of connection points: 2
#     Edge 73, Type (0, 1), BuildingBlock: EZIPEK_clean_linker_0, # of connection points: 2
#     Edge 74, Type (0, 1), BuildingBlock: EZIPEK_clean_linker_0, # of connection points: 2
#     Edge 75, Type (0, 1), BuildingBlock: EZIPEK_clean_linker_0, # of connection points: 2
#     Edge 76, Type (0, 1), BuildingBlock: EZIPEK_clean_linker_0, # of connection points: 2
#     Edge 77, Type (0, 1), BuildingBlock: EZIPEK_clean_linker_0, # of connection points: 2
#     Edge 78, Type (0, 1), BuildingBlock: EZIPEK_clean_linker_0, # of connection points: 2
#     Edge 79, Type (0, 1), BuildingBlock: EZIPEK_clean_linker_0, # of connection points: 2
#     Edge 80, Type (0, 1), BuildingBlock: EZIPEK_clean_linker_0, # of connection points: 2
#     Edge 81, Type (0, 1), BuildingBlock: EZIPEK_clean_linker_0, # of connection points: 2
#     Edge 82, Type (0, 1), BuildingBlock: EZIPEK_clean_linker_0, # of connection points: 2
#     Edge 83, Type (0, 1), BuildingBlock: EZIPEK_clean_linker_0, # of connection points: 2
#     Edge 84, Type (0, 1), BuildingBlock: EZIPEK_clean_linker_0, # of connection points: 2
#     Edge 85, Type (0, 1), BuildingBlock: EZIPEK_clean_linker_0, # of connection points: 2
#     Edge 86, Type (0, 1), BuildingBlock: EZIPEK_clean_linker_0, # of connection points: 2
#     Edge 87, Type (0, 1), BuildingBlock: EZIPEK_clean_linker_0, # of connection points: 2
#     Edge 88, Type (0, 1), BuildingBlock: EZIPEK_clean_linker_0, # of connection points: 2
#     Edge 89, Type (0, 1), BuildingBlock: EZIPEK_clean_linker_0, # of connection points: 2
#     Edge 90, Type (0, 1), BuildingBlock: EZIPEK_clean_linker_0, # of connection points: 2
#     Edge 91, Type (0, 1), BuildingBlock: EZIPEK_clean_linker_0, # of connection points: 2
#     Edge 92, Type (0, 1), BuildingBlock: EZIPEK_clean_linker_0, # of connection points: 2
#     Edge 93, Type (0, 1), BuildingBlock: EZIPEK_clean_linker_0, # of connection points: 2
#     Edge 94, Type (0, 1), BuildingBlock: EZIPEK_clean_linker_0, # of connection points: 2
#     Edge 95, Type (0, 1), BuildingBlock: EZIPEK_clean_linker_0, # of connection points: 2
#     Edge 96, Type (0, 1), BuildingBlock: EZIPEK_clean_linker_0, # of connection points: 2
#     Edge 97, Type (0, 1), BuildingBlock: EZIPEK_clean_linker_0, # of connection points: 2
#     Edge 98, Type (0, 1), BuildingBlock: EZIPEK_clean_linker_0, # of connection points: 2
#     Edge 99, Type (0, 1), BuildingBlock: EZIPEK_clean_linker_0, # of connection points: 2
#     Edge 100, Type (0, 1), BuildingBlock: EZIPEK_clean_linker_0, # of connection points: 2
#     Edge 101, Type (0, 1), BuildingBlock: EZIPEK_clean_linker_0, # of connection points: 2
#     Edge 102, Type (0, 1), BuildingBlock: EZIPEK_clean_linker_0, # of connection points: 2
#     Edge 103, Type (0, 1), BuildingBlock: EZIPEK_clean_linker_0, # of connection points: 2
#     Edge 104, Type (0, 1), BuildingBlock: EZIPEK_clean_linker_0, # of connection points: 2
#     Edge 105, Type (0, 1), BuildingBlock: EZIPEK_clean_linker_0, # of connection points: 2
#     Edge 106, Type (0, 1), BuildingBlock: EZIPEK_clean_linker_0, # of connection points: 2
#     Edge 107, Type (0, 1), BuildingBlock: EZIPEK_clean_linker_0, # of connection points: 2
#     Edge 108, Type (0, 1), BuildingBlock: EZIPEK_clean_linker_0, # of connection points: 2
#     Edge 109, Type (0, 1), BuildingBlock: EZIPEK_clean_linker_0, # of connection points: 2
#     Edge 110, Type (0, 1), BuildingBlock: EZIPEK_clean_linker_0, # of connection points: 2
#     Edge 111, Type (0, 1), BuildingBlock: EZIPEK_clean_linker_0, # of connection points: 2
#     Edge 112, Type (0, 1), BuildingBlock: EZIPEK_clean_linker_0, # of connection points: 2
#     Edge 113, Type (0, 1), BuildingBlock: EZIPEK_clean_linker_0, # of connection points: 2
#     Edge 114, Type (0, 1), BuildingBlock: EZIPEK_clean_linker_0, # of connection points: 2
#     Edge 115, Type (0, 1), BuildingBlock: EZIPEK_clean_linker_0, # of connection points: 2
#     Edge 116, Type (0, 1), BuildingBlock: EZIPEK_clean_linker_0, # of connection points: 2
#     Edge 117, Type (0, 1), BuildingBlock: EZIPEK_clean_linker_0, # of connection points: 2
#     Edge 118, Type (0, 1), BuildingBlock: EZIPEK_clean_linker_0, # of connection points: 2
#     Edge 119, Type (0, 1), BuildingBlock: EZIPEK_clean_linker_0, # of connection points: 2
#     Edge 120, Type (0, 1), BuildingBlock: EZIPEK_clean_linker_0, # of connection points: 2
#     Edge 121, Type (0, 1), BuildingBlock: EZIPEK_clean_linker_0, # of connection points: 2
#     Edge 122, Type (0, 1), BuildingBlock: EZIPEK_clean_linker_0, # of connection points: 2
#     Edge 123, Type (0, 1), BuildingBlock: EZIPEK_clean_linker_0, # of connection points: 2
#     Edge 124, Type (0, 1), BuildingBlock: EZIPEK_clean_linker_0, # of connection points: 2
#     Edge 125, Type (0, 1), BuildingBlock: EZIPEK_clean_linker_0, # of connection points: 2
#     Edge 126, Type (0, 1), BuildingBlock: EZIPEK_clean_linker_0, # of connection points: 2
#     Edge 127, Type (0, 1), BuildingBlock: EZIPEK_clean_linker_0, # of connection points: 2
#     Edge 128, Type (0, 1), BuildingBlock: EZIPEK_clean_linker_0, # of connection points: 2
#     Edge 129, Type (0, 1), BuildingBlock: EZIPEK_clean_linker_0, # of connection points: 2
#     Edge 130, Type (0, 1), BuildingBlock: EZIPEK_clean_linker_0, # of connection points: 2
#     Edge 131, Type (0, 1), BuildingBlock: EZIPEK_clean_linker_0, # of connection points: 2
#     Edge 132, Type (0, 1), BuildingBlock: EZIPEK_clean_linker_0, # of connection points: 2
#     Edge 133, Type (0, 1), BuildingBlock: EZIPEK_clean_linker_0, # of connection points: 2
#     Edge 134, Type (0, 1), BuildingBlock: EZIPEK_clean_linker_0, # of connection points: 2
#     Edge 135, Type (0, 1), BuildingBlock: EZIPEK_clean_linker_0, # of connection points: 2
# Relax obj value: 0.143
# Max RMSD: 0.243
# Mean RMSD: 0.170
data_MOF--net-gar--node1-AZAVOO_clean_sbu_0--node2-CUKXOW_clean_sbu_0--edge1-EZIPEK_clean_linker_0
_symmetry_space_group_name_H-M    P1
_symmetry_Int_Tables_number       1
_symmetry_cell_setting            triclinic
loop_
_symmetry_equiv_pos_as_xyz
'x, y, z'
_cell_length_a     42.07264
_cell_length_b     38.698869
_cell_length_c     40.096819
_cell_angle_alpha  97.219841
_cell_angle_beta   94.64114
_cell_angle_gamma 99.851778
loop_
_atom_site_label
_atom_site_type_symbol
_atom_site_fract_x
_atom_site_fract_y
_atom_site_fract_z
_atom_type_partial_charge
Mg0 Mg 0.00581 0.25151 0.41274 0.0
O1 O 0.00756 0.30476 0.44745 0.0
O2 O 0.96288 0.29619 0.47387 0.0
Mg3 Mg 0.92824 0.24671 0.44695 0.0
C4 C 0.98919 0.31574 0.46887 0.0
C5 C 0.06173 0.23559 0.38249 0.0
O6 O 0.03602 0.21161 0.37032 0.0
O7 O 0.00979 0.21872 0.45559 0.0
O8 O 0.95911 0.21096 0.47018 0.0
O9 O 0.98851 0.27542 0.36978 0.0
O10 O 0.95659 0.24724 0.40317 0.0
C11 C 0.98764 0.20379 0.47173 0.0
C12 C 0.95978 0.26505 0.37817 0.0
O13 O 0.05928 0.25925 0.40673 0.0
Mg14 Mg 0.00037 0.82488 0.61778 0.0
O15 O 0.99135 0.76702 0.59502 0.0
O16 O 0.94736 0.75899 0.55764 0.0
Mg17 Mg 0.92329 0.80845 0.56623 0.0
C18 C 0.97163 0.74803 0.57125 0.0
C19 C 0.06041 0.8325 0.66496 0.0
O20 O 0.04111 0.848 0.68348 0.0
O21 O 0.01289 0.83754 0.56679 0.0
O22 O 0.96438 0.842 0.54266 0.0
O23 O 0.97625 0.81488 0.66339 0.0
O24 O 0.95101 0.82462 0.6161 0.0
C25 C 0.9954 0.8482 0.54433 0.0
C26 C 0.94957 0.81816 0.64675 0.0
O27 O 0.05158 0.82144 0.63392 0.0
Mg28 Mg 0.51337 0.74712 0.91806 0.0
O29 O 0.51946 0.80032 0.95379 0.0
O30 O 0.46981 0.80406 0.96841 0.0
Mg31 Mg 0.43404 0.75383 0.94562 0.0
C32 C 0.49979 0.81731 0.96864 0.0
C33 C 0.57218 0.72313 0.89723 0.0
O34 O 0.54942 0.69461 0.8914 0.0
O35 O 0.51014 0.71443 0.96087 0.0
O36 O 0.46015 0.71715 0.97502 0.0
O37 O 0.50233 0.77392 0.87454 0.0
O38 O 0.46522 0.7483 0.90454 0.0
C39 C 0.48654 0.70505 0.97782 0.0
C40 C 0.47234 0.76621 0.88026 0.0
O41 O 0.56696 0.75024 0.91581 0.0
Mg42 Mg 0.48938 0.31917 0.11046 0.0
O43 O 0.47959 0.26316 0.08337 0.0
O44 O 0.4338 0.2549 0.04902 0.0
Mg45 Mg 0.41201 0.30585 0.06032 0.0
C46 C 0.45886 0.24401 0.06074 0.0
C47 C 0.54709 0.31827 0.15695 0.0
O48 O 0.52664 0.33034 0.17643 0.0
O49 O 0.5021 0.33843 0.06184 0.0
O50 O 0.45292 0.34039 0.03759 0.0
O51 O 0.46471 0.30284 0.15366 0.0
O52 O 0.44041 0.32216 0.11038 0.0
C53 C 0.48388 0.34873 0.03973 0.0
C54 C 0.43895 0.31092 0.13926 0.0
O55 O 0.54004 0.31263 0.12515 0.0
Mg56 Mg 0.98891 0.77215 0.17988 0.0
O57 O 0.98996 0.72046 0.14499 0.0
O58 O 0.94364 0.70568 0.11112 0.0
Mg59 Mg 0.91101 0.74586 0.12686 0.0
C60 C 0.9718 0.70022 0.12075 0.0
C61 C 0.0565 0.78223 0.22491 0.0
O62 O 0.03721 0.78493 0.24891 0.0
O63 O 0.99474 0.80488 0.13543 0.0
O64 O 0.94454 0.79134 0.108 0.0
O65 O 0.96342 0.74432 0.21987 0.0
O66 O 0.9377 0.76267 0.17771 0.0
C67 C 0.97344 0.80921 0.1123 0.0
C68 C 0.93617 0.74849 0.20493 0.0
O69 O 0.04443 0.77752 0.1941 0.0
Mg70 Mg 0.51786 0.77455 0.35205 0.0
O71 O 0.51864 0.82568 0.39016 0.0
O72 O 0.47389 0.81557 0.41689 0.0
Mg73 Mg 0.44584 0.75947 0.39839 0.0
C74 C 0.4999 0.83567 0.41169 0.0
C75 C 0.57997 0.7788 0.31282 0.0
O76 O 0.57429 0.79154 0.34315 0.0
O77 O 0.53371 0.74681 0.39596 0.0
O78 O 0.48833 0.73595 0.42145 0.0
O79 O 0.48603 0.79256 0.3112 0.0
O80 O 0.46682 0.76211 0.35017 0.0
C81 C 0.51798 0.73354 0.41867 0.0
C82 C 0.46111 0.77776 0.32451 0.0
O83 O 0.57314 0.79063 0.34209 0.0
Mg84 Mg 0.48591 0.27219 0.67852 0.0
O85 O 0.48686 0.22107 0.64253 0.0
O86 O 0.44198 0.20897 0.60621 0.0
Mg87 Mg 0.40918 0.24871 0.62236 0.0
C88 C 0.46946 0.20245 0.61681 0.0
C89 C 0.55475 0.28774 0.72478 0.0
O90 O 0.5366 0.29712 0.74824 0.0
O91 O 0.49377 0.30608 0.63503 0.0
O92 O 0.44427 0.29405 0.60593 0.0
O93 O 0.45749 0.24385 0.71683 0.0
O94 O 0.43455 0.26334 0.67385 0.0
C95 C 0.47334 0.31132 0.61146 0.0
C96 C 0.43113 0.24863 0.70053 0.0
O97 O 0.54156 0.27696 0.69457 0.0
Mg98 Mg 0.01169 0.27472 0.84571 0.0
O99 O 0.01227 0.3251 0.88456 0.0
O100 O 0.96684 0.3141 0.91016 0.0
Mg101 Mg 0.9374 0.25946 0.88885 0.0
C102 C 0.99331 0.3342 0.90624 0.0
C103 C 0.07265 0.27424 0.808 0.0
O104 O 0.04867 0.25466 0.7873 0.0
O105 O 0.02568 0.24602 0.88984 0.0
O106 O 0.9785 0.23457 0.91215 0.0
O107 O 0.98164 0.29391 0.80441 0.0
O108 O 0.96043 0.26298 0.84204 0.0
C109 C 0.00845 0.23249 0.91139 0.0
C110 C 0.95589 0.27888 0.81627 0.0
O111 O 0.0661 0.28938 0.83613 0.0
Mg112 Mg 0.41942 0.093 0.26911 0.0
O113 O 0.38232 0.04219 0.26949 0.0
O114 O 0.35701 0.04982 0.31621 0.0
Mg115 Mg 0.38071 0.10339 0.34757 0.0
C116 C 0.36107 0.03134 0.28866 0.0
C117 C 0.45422 0.07457 0.20528 0.0
O118 O 0.47876 0.08433 0.22893 0.0
O119 O 0.37635 0.12092 0.25531 0.0
O120 O 0.35882 0.13072 0.30609 0.0
O121 O 0.4585 0.07144 0.29814 0.0
O122 O 0.42523 0.10192 0.32283 0.0
C123 C 0.35759 0.13433 0.27481 0.0
C124 C 0.44839 0.08429 0.3258 0.0
O125 O 0.42557 0.07525 0.2132 0.0
Mg126 Mg 0.27917 0.1297 0.46619 0.0
O127 O 0.28384 0.16525 0.51645 0.0
O128 O 0.33456 0.19549 0.52677 0.0
Mg129 Mg 0.36393 0.17074 0.48757 0.0
C130 C 0.30553 0.18872 0.53446 0.0
C131 C 0.20887 0.09942 0.44288 0.0
O132 O 0.22365 0.08228 0.42031 0.0
O133 O 0.28544 0.17784 0.4388 0.0
O134 O 0.33898 0.19851 0.44805 0.0
O135 O 0.28599 0.08464 0.49242 0.0
O136 O 0.32628 0.12185 0.47625 0.0
C137 C 0.31073 0.19932 0.43417 0.0
C138 C 0.31677 0.09519 0.49179 0.0
O139 O 0.22519 0.12485 0.46367 0.0
Mg140 Mg 0.12962 0.97523 0.79296 0.0
O141 O 0.15696 0.03197 0.79062 0.0
O142 O 0.18527 0.05353 0.84044 0.0
Mg143 Mg 0.17589 0.00952 0.8736 0.0
C144 C 0.17632 0.05664 0.81003 0.0
C145 C 0.09495 0.97761 0.72443 0.0
O146 O 0.07322 0.98504 0.74455 0.0
O147 O 0.17517 0.95208 0.78961 0.0
O148 O 0.20357 0.97459 0.83918 0.0
O149 O 0.08716 0.99545 0.81176 0.0
O150 O 0.12757 0.98443 0.84538 0.0
C151 C 0.20024 0.95492 0.8105 0.0
C152 C 0.09984 0.99444 0.84197 0.0
O153 O 0.12108 0.96966 0.73644 0.0
Mg154 Mg 0.22177 0.89772 0.03528 0.0
O155 O 0.21583 0.85554 0.98474 0.0
O156 O 0.26411 0.83928 0.98289 0.0
Mg157 Mg 0.29939 0.86581 0.02938 0.0
C158 C 0.23535 0.83832 0.96931 0.0
C159 C 0.16769 0.93953 0.04997 0.0
O160 O 0.19528 0.95821 0.06504 0.0
O161 O 0.22062 0.85667 0.07473 0.0
O162 O 0.27026 0.84381 0.07097 0.0
O163 O 0.2421 0.94077 0.00569 0.0
O164 O 0.2718 0.90869 0.03186 0.0
C165 C 0.24401 0.8418 0.08522 0.0
C166 C 0.27018 0.93291 0.01308 0.0
O167 O 0.16794 0.90837 0.03468 0.0
Mg168 Mg 0.27183 0.42441 0.06067 0.0
O169 O 0.26727 0.38701 0.01132 0.0
O170 O 0.30566 0.3538 0.0137 0.0
Mg171 Mg 0.33234 0.36741 0.06693 0.0
C172 C 0.28175 0.36334 -0.00206 0.0
C173 C 0.21571 0.46802 0.05286 0.0
O174 O 0.23224 0.48771 0.07987 0.0
O175 O 0.24586 0.37753 0.08366 0.0
O176 O 0.28412 0.34455 0.08696 0.0
O177 O 0.30894 0.46367 0.04214 0.0
O178 O 0.32121 0.42129 0.07027 0.0
C179 C 0.25521 0.34936 0.0908 0.0
C180 C 0.33066 0.4471 0.05377 0.0
O181 O 0.22483 0.43982 0.04083 0.0
Mg182 Mg 0.79879 0.14976 0.98399 0.0
O183 O 0.79781 0.18782 0.03371 0.0
O184 O 0.84402 0.22584 0.04503 0.0
Mg185 Mg 0.8728 0.21138 -0.00073 0.0
C186 C 0.81586 0.21378 0.05284 0.0
C187 C 0.73034 0.10227 0.98371 0.0
O188 O 0.74632 0.07675 0.97515 0.0
O189 O 0.78979 0.19096 0.9488 0.0
O190 O 0.83758 0.22759 0.95757 0.0
O191 O 0.82268 0.11212 0.01164 0.0
O192 O 0.85073 0.15277 0.98629 0.0
C193 C 0.80901 0.21782 0.94183 0.0
C194 C 0.85032 0.12566 0.00233 0.0
O195 O 0.74478 0.13432 0.98779 0.0
Mg196 Mg 0.09414 0.4763 0.28577 0.0
O197 O 0.12877 0.52805 0.2854 0.0
O198 O 0.15897 0.54307 0.33525 0.0
Mg199 Mg 0.14053 0.50201 0.36946 0.0
C200 C 0.1513 0.54855 0.30515 0.0
C201 C 0.05448 0.47241 0.2163 0.0
O202 O 0.03164 0.46899 0.23677 0.0
O203 O 0.13694 0.44619 0.28313 0.0
O204 O 0.16031 0.45908 0.33662 0.0
O205 O 0.05634 0.50505 0.30662 0.0
O206 O 0.09334 0.48638 0.33847 0.0
C207 C 0.158 0.4423 0.3067 0.0
C208 C 0.06913 0.50253 0.33644 0.0
O209 O 0.08379 0.4738 0.22805 0.0
Mg210 Mg 0.77331 0.93126 0.5606 0.0
O211 O 0.76958 0.88552 0.51774 0.0
O212 O 0.80714 0.85379 0.53031 0.0
Mg213 Mg 0.83541 0.87924 0.58082 0.0
C214 C 0.78268 0.85831 0.51145 0.0
C215 C 0.72793 0.97795 0.5373 0.0
O216 O 0.75577 -0.0003 0.54596 0.0
O217 O 0.74738 0.89019 0.5901 0.0
O218 O 0.78751 0.86137 0.60294 0.0
O219 O 0.80974 0.96566 0.53634 0.0
O220 O 0.82221 0.92981 0.57219 0.0
C221 C 0.75827 0.86616 0.60418 0.0
C222 C 0.83147 0.95172 0.55172 0.0
O223 O 0.72595 0.94531 0.54013 0.0
Mg224 Mg 0.867 0.05494 0.2366 0.0
O225 O 0.8408 0.99739 0.23927 0.0
O226 O 0.81734 0.00235 0.28754 0.0
Mg227 Mg 0.83798 0.05543 0.32021 0.0
C228 C 0.82275 0.98405 0.26047 0.0
C229 C 0.90049 0.06893 0.17953 0.0
O230 O 0.91067 0.09368 0.20555 0.0
O231 O 0.81964 0.07611 0.23152 0.0
O232 O 0.81109 0.08587 0.28618 0.0
O233 O 0.91331 0.04242 0.25664 0.0
O234 O 0.87726 0.06188 0.28801 0.0
C235 C 0.8055 0.09021 0.25542 0.0
C236 C 0.90399 0.05025 0.2861 0.0
O237 O 0.87475 0.0465 0.18084 0.0
Mg238 Mg 0.30464 0.65114 0.49519 0.0
O239 O 0.30762 0.68494 0.54818 0.0
O240 O 0.34883 0.72963 0.55085 0.0
Mg241 Mg 0.37839 0.71475 0.5056 0.0
C242 C 0.32424 0.71417 0.5635 0.0
C243 C 0.23961 0.6084 0.5157 0.0
O244 O 0.25983 0.59013 0.52877 0.0
O245 O 0.29304 0.69575 0.46488 0.0
O246 O 0.34166 0.72964 0.46496 0.0
O247 O 0.33096 0.61059 0.51521 0.0
O248 O 0.35625 0.65628 0.49464 0.0
C249 C 0.31147 0.72104 0.45428 0.0
C250 C 0.3579 0.62701 0.50669 0.0
O251 O 0.25049 0.63395 0.50022 0.0
Mg252 Mg 0.36135 0.55626 0.73628 0.0
O253 O 0.33395 0.49813 0.73138 0.0
O254 O 0.30266 0.4979 0.77399 0.0
Mg255 Mg 0.31242 0.55187 0.80751 0.0
C256 C 0.31275 0.48218 0.74812 0.0
C257 C 0.41013 0.5673 0.68872 0.0
O258 O 0.42104 0.58758 0.71753 0.0
O259 O 0.31609 0.57683 0.71828 0.0
O260 O 0.29285 0.58111 0.76639 0.0
O261 O 0.40171 0.54368 0.76803 0.0
O262 O 0.35981 0.56363 0.78839 0.0
C263 C 0.295 0.58777 0.73616 0.0
C264 C 0.3868 0.55289 0.79368 0.0
O265 O 0.38148 0.54903 0.68526 0.0
Mg266 Mg 0.59931 0.98063 0.78706 0.0
O267 O 0.63452 0.03315 0.79043 0.0
O268 O 0.66257 0.04509 0.84156 0.0
Mg269 Mg 0.64186 0.00191 0.8726 0.0
C270 C 0.65639 0.05256 0.81188 0.0
C271 C 0.56401 0.97922 0.7151 0.0
O272 O 0.53936 0.97703 0.73332 0.0
O273 O 0.64185 0.95013 0.78534 0.0
O274 O 0.66343 0.96047 0.83946 0.0
O275 O 0.5603 0.00838 0.80638 0.0
O276 O 0.59556 0.98855 0.83942 0.0
C277 C 0.6621 0.94508 0.8091 0.0
C278 C 0.57133 0.00466 0.83653 0.0
O279 O 0.59227 0.9794 0.72928 0.0
Mg280 Mg 0.77677 0.63418 0.96522 0.0
O281 O 0.77727 0.66492 0.01736 0.0
O282 O 0.82693 0.69635 0.03385 0.0
Mg283 Mg 0.85859 0.68307 0.99251 0.0
C284 C 0.79743 0.6866 0.03876 0.0
C285 C 0.70528 0.59994 0.94075 0.0
O286 O 0.71962 0.58333 0.91741 0.0
O287 O 0.77928 0.68406 0.94053 0.0
O288 O 0.83129 0.70987 0.95459 0.0
O289 O 0.78892 0.58885 0.98835 0.0
O290 O 0.82607 0.63056 0.97455 0.0
C291 C 0.80344 0.70838 0.93873 0.0
C292 C 0.8193 0.60116 0.98688 0.0
O293 O 0.72199 0.62444 0.9623 0.0
Mg294 Mg 0.92351 0.59591 0.77042 0.0
O295 O 0.88604 0.54519 0.77009 0.0
O296 O 0.86387 0.55022 0.81894 0.0
Mg297 Mg 0.88866 0.60308 0.85136 0.0
C298 C 0.86605 0.53318 0.78999 0.0
C299 C 0.95586 0.57614 0.70548 0.0
O300 O 0.98072 0.58433 0.72883 0.0
O301 O 0.88008 0.62488 0.76048 0.0
O302 O 0.86541 0.63302 0.81278 0.0
O303 O 0.96291 0.57242 0.79665 0.0
O304 O 0.9316 0.60343 0.82406 0.0
C305 C 0.86251 0.6378 0.78178 0.0
C306 C 0.95425 0.58498 0.8252 0.0
O307 O 0.9277 0.57902 0.7138 0.0
Mg308 Mg 0.72456 0.39602 0.52797 0.0
O309 O 0.71791 0.35676 0.47536 0.0
O310 O 0.76485 0.33689 0.47376 0.0
Mg311 Mg 0.80037 0.36085 0.52091 0.0
C312 C 0.7369 0.33879 0.45985 0.0
C313 C 0.67144 0.43909 0.54347 0.0
O314 O 0.69928 0.45743 0.5583 0.0
O315 O 0.7214 0.35282 0.56559 0.0
O316 O 0.77044 0.33853 0.56178 0.0
O317 O 0.74687 0.4408 0.50134 0.0
O318 O 0.77495 0.40579 0.52518 0.0
C319 C 0.74411 0.3369 0.57585 0.0
C320 C 0.77456 0.43192 0.50849 0.0
O321 O 0.67124 0.40798 0.52783 0.0
Mg322 Mg 0.63187 0.48508 0.28744 0.0
O323 O 0.66074 0.54126 0.29766 0.0
O324 O 0.6953 0.54198 0.34321 0.0
Mg325 Mg 0.67648 0.49219 0.36833 0.0
C326 C 0.6852 0.55637 0.31833 0.0
C327 C 0.59825 0.47353 0.21671 0.0
O328 O 0.57788 0.45237 0.23157 0.0
O329 O 0.6785 0.4658 0.27728 0.0
O330 O 0.69649 0.45515 0.32781 0.0
O331 O 0.58855 0.50065 0.30933 0.0
O332 O 0.62838 0.48338 0.33853 0.0
C333 C 0.69667 0.45113 0.29563 0.0
C334 C 0.60107 0.49445 0.33801 0.0
O335 O 0.62397 0.49127 0.23325 0.0
Tb336 Tb 0.03312 0.07407 0.02314 0.0
C337 C 0.02782 0.017 0.958 0.0
Tb338 Tb 0.99616 0.99694 0.02255 0.0
O339 O 0.07471 0.06439 0.05582 0.0
O340 O 0.04568 0.02316 0.0245 0.0
O341 O 0.02697 0.05034 0.96989 0.0
C342 C 0.98872 0.93377 0.0442 0.0
O343 O 0.01884 0.99055 0.97544 0.0
C344 C 0.95425 0.03993 0.00668 0.0
C345 C 0.99477 0.05586 0.08481 0.0
O346 O 0.97714 0.93923 0.01445 0.0
O347 O 0.0038 0.96359 0.06102 0.0
O348 O 0.94632 0.00586 0.00726 0.0
O349 O 0.98481 0.04634 0.01373 0.0
O350 O 0.99412 0.02192 0.07396 0.0
O351 O 0.00629 0.081 0.06709 0.0
C352 C 0.04924 0.13617 -0.00134 0.0
O353 O 0.03887 0.13258 0.0279 0.0
O354 O 0.05321 0.10526 0.98533 0.0
C355 C 0.06907 0.03003 0.04757 0.0
Tb356 Tb 0.26786 0.82134 0.28335 0.0
C357 C 0.32519 0.77774 0.28048 0.0
Tb358 Tb 0.25174 0.74007 0.2596 0.0
O359 O 0.27392 0.81937 0.33883 0.0
O360 O 0.26372 0.77453 0.30519 0.0
O361 O 0.3161 0.80858 0.27796 0.0
C362 C 0.22212 0.67464 0.26481 0.0
O363 O 0.30394 0.7474 0.27683 0.0
C364 C 0.26095 0.77896 0.20986 0.0
C365 C 0.19395 0.7853 0.2627 0.0
O366 O 0.24529 0.68213 0.2457 0.0
O367 O 0.21592 0.70365 0.2804 0.0
O368 O 0.26393 0.74576 0.20793 0.0
O369 O 0.2495 0.78669 0.23748 0.0
O370 O 0.20304 0.75392 0.25691 0.0
O371 O 0.21502 0.81551 0.27248 0.0
C372 C 0.28983 0.88886 0.27888 0.0
O373 O 0.26897 0.87791 0.29931 0.0
O374 O 0.29781 0.86196 0.26106 0.0
C375 C 0.26929 0.78494 0.33661 0.0
Tb376 Tb 0.55031 0.04047 0.51136 0.0
C377 C 0.53189 0.00833 0.579 0.0
Tb378 Tb 0.48059 0.02367 0.52465 0.0
O379 O 0.55146 0.09791 0.52501 0.0
O380 O 0.52126 0.0608 0.54659 0.0
O381 O 0.55328 0.01369 0.55669 0.0
C382 C 0.42048 0.0323 0.53589 0.0
O383 O 0.50169 0.01374 0.5733 0.0
C384 C 0.5023 0.97028 0.49245 0.0
C385 C 0.49915 0.05663 0.4578 0.0
O386 O 0.42838 0.00394 0.52047 0.0
O387 O 0.44678 0.05561 0.54469 0.0
O388 O 0.48023 0.96687 0.51335 0.0
O389 O 0.50939 0.00254 0.4888 0.0
O390 O 0.47838 0.05296 0.48099 0.0
O391 O 0.52878 0.0492 0.46246 0.0
C392 C 0.60989 0.02799 0.5047 0.0
O393 O 0.60182 0.05912 0.50664 0.0
O394 O 0.58426 0.00423 0.50491 0.0
C395 C 0.52794 0.09316 0.54409 0.0
Tb396 Tb 0.26239 0.27335 0.79731 0.0
C397 C 0.27086 0.33268 0.75216 0.0
Tb398 Tb 0.24646 0.25134 0.72292 0.0
O399 O 0.31464 0.28395 0.79235 0.0
O400 O 0.28404 0.24526 0.75866 0.0
O401 O 0.26208 0.32503 0.78166 0.0
C402 C 0.25856 0.23487 0.65943 0.0
O403 O 0.27058 0.30728 0.72647 0.0
C404 C 0.19525 0.26169 0.75324 0.0
C405 C 0.2313 0.19304 0.77178 0.0
O406 O 0.24087 0.25786 0.6693 0.0
O407 O 0.26839 0.22071 0.68505 0.0
O408 O 0.19396 0.24255 0.7238 0.0
O409 O 0.22416 0.27844 0.76124 0.0
O410 O 0.23042 0.19978 0.73992 0.0
O411 O 0.24416 0.21738 0.79779 0.0
C412 C 0.26143 0.29138 0.86306 0.0
O413 O 0.23687 0.27371 0.84275 0.0
O414 O 0.28624 0.29881 0.84649 0.0
C415 C 0.31287 0.26213 0.76471 0.0
Tb416 Tb 0.00763 0.01882 0.46268 0.0
C417 C 0.96164 0.99657 0.51868 0.0
Tb418 Tb 0.03705 0.02212 0.53422 0.0
O419 O 0.02766 0.97152 0.44599 0.0
O420 O 0.01562 0.98157 0.49478 0.0
O421 O 0.96371 0.00472 0.4876 0.0
C422 C 0.06577 0.00668 0.59016 0.0
O423 O 0.9875 0.99832 0.54047 0.0
C424 C 0.01331 0.07783 0.52208 0.0
C425 C 0.08158 0.04547 0.47787 0.0
O426 O 0.06221 0.0383 0.5851 0.0
O427 O 0.05415 0.9843 0.56356 0.0
O428 O 0.01546 0.06787 0.55177 0.0
O429 O 0.02788 0.05957 0.50243 0.0
O430 O 0.08024 0.03208 0.50683 0.0
O431 O 0.05531 0.04828 0.45874 0.0
C432 C 0.97491 0.02922 0.40725 0.0
O433 O 0.99615 0.00871 0.40821 0.0
O434 O 0.97192 0.0439 0.43741 0.0
C435 C 0.02897 0.96152 0.47564 0.0
Tb436 Tb 0.30172 0.7894 0.77568 0.0
C437 C 0.24746 0.7937 0.82717 0.0
Tb438 Tb 0.23235 0.7805 0.74666 0.0
O439 O 0.30749 0.84585 0.79433 0.0
O440 O 0.2724 0.8223 0.75569 0.0
O441 O 0.27833 0.79175 0.82322 0.0
C442 C 0.17596 0.7956 0.72534 0.0
O443 O 0.22558 0.79004 0.80059 0.0
C444 C 0.25315 0.72029 0.74488 0.0
C445 C 0.28422 0.77138 0.69489 0.0
O446 O 0.17941 0.76823 0.74003 0.0
O447 O 0.20403 0.81438 0.72298 0.0
O448 O 0.22938 0.72572 0.72467 0.0
O449 O 0.2613 0.7467 0.76809 0.0
O450 O 0.25509 0.77937 0.69891 0.0
O451 O 0.30537 0.77195 0.72156 0.0
C452 C 0.36036 0.78306 0.79984 0.0
O453 O 0.35433 0.80061 0.7753 0.0
O454 O 0.33363 0.76881 0.81051 0.0
C455 C 0.28127 0.84974 0.77732 0.0
Tb456 Tb 0.4622 0.02364 -0.00126 0.0
C457 C 0.50799 0.96645 0.00809 0.0
Tb458 Tb 0.53606 0.04913 0.0241 0.0
O459 O 0.47117 0.04036 0.94955 0.0
O460 O 0.50728 0.02455 0.97878 0.0
O461 O 0.47807 0.97272 0.00147 0.0
C462 C 0.5979 0.07024 0.01549 0.0
O463 O 0.53405 0.99187 0.01644 0.0
C464 C 0.50061 0.04643 0.07585 0.0
C465 C 0.48957 0.1057 0.01883 0.0
O466 O 0.58776 0.05142 0.03855 0.0
O467 O 0.57333 0.07783 -0.00201 0.0
O468 O 0.53219 0.05536 0.07908 0.0
O469 O 0.49183 0.03992 0.04451 0.0
O470 O 0.5199 0.0998 0.02099 0.0
O471 O 0.46356 0.08024 0.01186 0.0
C472 C 0.3995 0.99508 0.99517 0.0
O473 O 0.41466 0.0038 0.96969 0.0
O474 O 0.41951 0.00247 0.02246 0.0
C475 C 0.50164 0.03763 0.95217 0.0
Tb476 Tb 0.22008 0.25807 0.26729 0.0
C477 C 0.28067 0.27516 0.32601 0.0
Tb478 Tb 0.28389 0.30157 0.25618 0.0
O479 O 0.23016 0.20974 0.23859 0.0
O480 O 0.26728 0.24848 0.26336 0.0
O481 O 0.24976 0.26096 0.31584 0.0
C482 C 0.33751 0.31397 0.22567 0.0
O483 O 0.29971 0.29309 0.30685 0.0
C484 C 0.24203 0.3385 0.28193 0.0
C485 C 0.22671 0.28097 0.19594 0.0
O486 O 0.3234 0.28345 0.23184 0.0
O487 O 0.3222 0.33837 0.23793 0.0
O488 O 0.27351 0.34867 0.28631 0.0
O489 O 0.23613 0.31103 0.26021 0.0
O490 O 0.258 0.29121 0.2058 0.0
O491 O 0.20547 0.26947 0.21663 0.0
C492 C 0.16918 0.2456 0.30193 0.0
O493 O 0.17314 0.22634 0.27402 0.0
O494 O 0.19336 0.27171 0.3098 0.0
C495 C 0.26161 0.21973 0.24346 0.0
Tb496 Tb 0.50032 0.52788 0.96169 0.0
C497 C 0.4592 0.49597 0.01658 0.0
Tb498 Tb 0.53383 0.52294 0.03102 0.0
O499 O 0.48873 0.47047 0.94766 0.0
O500 O 0.52803 0.49332 0.98215 0.0
O501 O 0.45926 0.5141 0.99066 0.0
C502 C 0.56518 0.50675 0.08489 0.0
O503 O 0.48628 0.49102 0.03283 0.0
C504 C 0.50573 0.57844 0.0272 0.0
C505 C 0.57623 0.55034 0.97415 0.0
O506 O 0.54179 0.48586 0.06554 0.0
O507 O 0.57105 0.53725 0.07413 0.0
O508 O 0.51074 0.56556 0.05499 0.0
O509 O 0.52004 0.56308 0.00536 0.0
O510 O 0.57595 0.53738 0.00347 0.0
O511 O 0.54957 0.55162 0.95448 0.0
C512 C 0.46933 0.55069 0.91169 0.0
O513 O 0.49006 0.52949 0.908 0.0
O514 O 0.46633 0.55921 0.94341 0.0
C515 C 0.51138 0.46395 0.96856 0.0
Tb516 Tb 0.79405 0.28929 0.26143 0.0
C517 C 0.74161 0.28983 0.31644 0.0
Tb518 Tb 0.72043 0.26999 0.23658 0.0
O519 O 0.79693 0.34171 0.24557 0.0
O520 O 0.75413 0.31523 0.26007 0.0
O521 O 0.77266 0.29197 0.31041 0.0
C522 C 0.66318 0.2801 0.21313 0.0
O523 O 0.71733 0.28266 0.29151 0.0
C524 C 0.74547 0.21212 0.24015 0.0
C525 C 0.77312 0.2707 0.18223 0.0
O526 O 0.66768 0.25653 0.23255 0.0
O527 O 0.6906 0.29777 0.20697 0.0
O528 O 0.71486 0.21143 0.23146 0.0
O529 O 0.75869 0.24427 0.24581 0.0
O530 O 0.7424 0.2715 0.18812 0.0
O531 O 0.79728 0.27589 0.20711 0.0
C532 C 0.84997 0.28383 0.2931 0.0
O533 O 0.84256 0.31319 0.28522 0.0
O534 O 0.82646 0.25753 0.28223 0.0
C535 C 0.76637 0.34249 0.24815 0.0
Tb536 Tb 0.96672 0.52934 0.50259 0.0
C537 C 0.00693 0.46701 0.51257 0.0
Tb538 Tb 0.03782 0.5477 0.52895 0.0
O539 O 0.97652 0.54515 0.45337 0.0
O540 O 0.01083 0.52601 0.48192 0.0
O541 O 0.97893 0.4768 0.50402 0.0
C542 C 0.10187 0.56851 0.52818 0.0
O543 O 0.03395 0.49029 0.52319 0.0
C544 C 0.99787 0.53527 0.57574 0.0
C545 C 0.99717 0.60929 0.52345 0.0
O546 O 0.08214 0.54904 0.50384 0.0
O547 O 0.08547 0.5762 0.55339 0.0
O548 O 0.02803 0.5309 0.57781 0.0
O549 O 0.99332 0.5502 0.54996 0.0
O550 O 0.02633 0.60036 0.52327 0.0
O551 O 0.97014 0.58539 0.51991 0.0
C552 C 0.90379 0.50175 0.49725 0.0
O553 O 0.91701 0.52425 0.47871 0.0
O554 O 0.92573 0.49493 0.51873 0.0
C555 C 0.0063 0.54008 0.45571 0.0
Tb556 Tb 0.77256 0.77477 0.31009 0.0
C557 C 0.78015 0.83346 0.26429 0.0
Tb558 Tb 0.75654 0.75161 0.23568 0.0
O559 O 0.82486 0.78522 0.30471 0.0
O560 O 0.79397 0.74627 0.2716 0.0
O561 O 0.77164 0.82594 0.29393 0.0
C562 C 0.76491 0.73296 0.17145 0.0
O563 O 0.77978 0.80793 0.23857 0.0
C564 C 0.70527 0.76099 0.26632 0.0
C565 C 0.74335 0.69401 0.28564 0.0
O566 O 0.74452 0.75266 0.18162 0.0
O567 O 0.78014 0.72359 0.1972 0.0
O568 O 0.70441 0.74059 0.23773 0.0
O569 O 0.73388 0.7788 0.27381 0.0
O570 O 0.74265 0.70009 0.25358 0.0
O571 O 0.75517 0.71901 0.31137 0.0
C572 C 0.76948 0.79175 0.37571 0.0
O573 O 0.74544 0.77491 0.35428 0.0
O574 O 0.79535 0.79854 0.36046 0.0
C575 C 0.82275 0.76315 0.27716 0.0
Tb576 Tb 0.76824 0.32476 0.77335 0.0
C577 C 0.82293 0.27817 0.76307 0.0
Tb578 Tb 0.74866 0.24484 0.75721 0.0
O579 O 0.79267 0.32223 0.82332 0.0
O580 O 0.75498 0.28233 0.80172 0.0
O581 O 0.81378 0.3089 0.76029 0.0
C582 C 0.72595 0.17867 0.76781 0.0
O583 O 0.80127 0.25025 0.76722 0.0
C584 C 0.75907 0.27752 0.70324 0.0
C585 C 0.69295 0.29142 0.76118 0.0
O586 O 0.7489 0.20096 0.78662 0.0
O587 O 0.7164 0.19323 0.7422 0.0
O588 O 0.76225 0.24479 0.70502 0.0
O589 O 0.74754 0.28837 0.72989 0.0
O590 O 0.70066 0.25935 0.75972 0.0
O591 O 0.71525 0.32111 0.76609 0.0
C592 C 0.78675 0.39347 0.77043 0.0
O593 O 0.76986 0.38052 0.79331 0.0
O594 O 0.79222 0.36771 0.74893 0.0
C595 C 0.77748 0.29081 0.82591 0.0
Tb596 Tb 0.71762 0.75897 0.76787 0.0
C597 C 0.78014 0.77646 0.82378 0.0
Tb598 Tb 0.78479 0.80179 0.75378 0.0
O599 O 0.72891 0.70514 0.75768 0.0
O600 O 0.76176 0.74935 0.75353 0.0
O601 O 0.7482 0.76713 0.81618 0.0
C602 C 0.83928 0.81249 0.72424 0.0
O603 O 0.79991 0.7902 0.80298 0.0
C604 C 0.74442 0.83954 0.78245 0.0
C605 C 0.72481 0.7826 0.69593 0.0
O606 O 0.82542 0.78281 0.73259 0.0
O607 O 0.82296 0.83707 0.73369 0.0
O608 O 0.77592 0.8495 0.78463 0.0
O609 O 0.73761 0.81156 0.76138 0.0
O610 O 0.7565 0.79314 0.7046 0.0
O611 O 0.70395 0.77016 0.71682 0.0
C612 C 0.66724 0.74833 0.80318 0.0
O613 O 0.66843 0.73184 0.77295 0.0
O614 O 0.69351 0.7716 0.81252 0.0
C615 C 0.75895 0.71637 0.75291 0.0
Tb616 Tb 0.53437 0.57152 0.52459 0.0
C617 C 0.53289 0.51835 0.45692 0.0
Tb618 Tb 0.49859 0.49651 0.51924 0.0
O619 O 0.57473 0.56039 0.55765 0.0
O620 O 0.54824 0.52087 0.52148 0.0
O621 O 0.53304 0.55144 0.47051 0.0
C622 C 0.48914 0.43369 0.5413 0.0
O623 O 0.52312 0.49129 0.47326 0.0
C624 C 0.46184 0.54179 0.49963 0.0
C625 C 0.49807 0.55218 0.58659 0.0
O626 O 0.50774 0.46233 0.55637 0.0
O627 O 0.47489 0.44011 0.51317 0.0
O628 O 0.4559 0.50771 0.48903 0.0
O629 O 0.48529 0.54678 0.52234 0.0
O630 O 0.49061 0.51916 0.57041 0.0
O631 O 0.51616 0.57801 0.57395 0.0
C632 C 0.54591 0.63641 0.50672 0.0
O633 O 0.51778 0.61819 0.50965 0.0
O634 O 0.56814 0.61867 0.51535 0.0
C635 C 0.57059 0.52675 0.54574 0.0
Tb636 Tb 0.04667 0.53298 0.01526 0.0
C637 C 0.02117 0.50524 0.08157 0.0
Tb638 Tb 0.97364 0.51942 0.02111 0.0
O639 O 0.05501 0.58137 0.05235 0.0
O640 O 0.01062 0.56372 0.02335 0.0
O641 O 0.04634 0.51379 0.0643 0.0
C642 C 0.91737 0.53403 0.04032 0.0
O643 O 0.99075 0.50494 0.0695 0.0
C644 C 0.99455 0.46761 0.9863 0.0
C645 C -0.00143 0.54849 0.95532 0.0
O646 O 0.92083 0.50634 0.01984 0.0
O647 O 0.94602 0.5525 0.05036 0.0
O648 O 0.96465 0.47248 0.98306 0.0
O649 O 0.00946 0.4879 0.01217 0.0
O650 O 0.97407 0.54264 0.97411 0.0
O651 O 0.02886 0.54574 0.96577 0.0
C652 C 0.10391 0.5167 0.0005 0.0
O653 O 0.09924 0.54766 0.01386 0.0
O654 O 0.07595 0.49573 0.99513 0.0
C655 C 0.02497 0.58573 0.04816 0.0
C656 C 0.0084 0.17207 0.92593 0.0
C657 C 0.02163 0.20864 0.93286 0.0
C658 C 0.0554 0.19804 0.98231 0.0
C659 C 0.03948 0.16208 0.97715 0.0
N660 N 0.99439 0.11766 0.94882 0.0
N661 N 0.0555 0.25779 0.96904 0.0
C662 C 0.01424 0.14984 0.95026 0.0
C663 C 0.04468 0.22209 0.96141 0.0
N664 N 0.99069 0.15828 0.89561 0.0
N665 N 0.08103 0.20896 0.00667 0.0
H666 H 0.04862 0.27578 0.9538 0.0
H667 H 0.06965 0.26975 0.99134 0.0
H668 H 0.08878 0.19211 0.0227 0.0
H669 H 0.0958 0.23387 0.00962 0.0
H670 H 0.98353 0.13114 0.88775 0.0
H671 H 0.98607 0.17364 0.8768 0.0
H672 H 0.97349 0.10943 0.93195 0.0
H673 H 0.99634 0.10084 0.9668 0.0
C674 C 0.10171 0.75937 0.25543 0.0
C675 C 0.09185 0.78315 0.23409 0.0
C676 C 0.14921 0.80715 0.22972 0.0
C677 C 0.15889 0.78629 0.25419 0.0
N678 N 0.14377 0.74715 0.29486 0.0
N679 N 0.1064 0.83424 0.20587 0.0
C680 C 0.13493 0.76371 0.26833 0.0
C681 C 0.11566 0.80832 0.22259 0.0
N682 N 0.07962 0.73152 0.26215 0.0
N683 N 0.17173 0.82444 0.2119 0.0
H684 H 0.08221 0.83636 0.20048 0.0
H685 H 0.12279 0.85554 0.20017 0.0
H686 H 0.1964 0.82376 0.21553 0.0
H687 H 0.16555 0.83657 0.19115 0.0
H688 H 0.08605 0.7112 0.27449 0.0
H689 H 0.0553 0.72663 0.25232 0.0
H690 H 0.12707 0.73317 0.30838 0.0
H691 H 0.1677 0.75034 0.3056 0.0
C692 C 0.50877 0.90241 0.41536 0.0
C693 C 0.50793 0.87185 0.43177 0.0
C694 C 0.51627 0.90995 0.48686 0.0
C695 C 0.51062 0.9392 0.47077 0.0
N696 N 0.50233 0.96349 0.4186 0.0
N697 N 0.50988 0.84636 0.48374 0.0
C698 C 0.50784 0.93576 0.43472 0.0
C699 C 0.51164 0.87565 0.46771 0.0
N700 N 0.50992 0.89968 0.38115 0.0
N701 N 0.52699 0.91527 0.52053 0.0
H702 H 0.50788 0.82091 0.47087 0.0
H703 H 0.50824 0.84704 0.50959 0.0
H704 H 0.53201 0.94041 0.53477 0.0
H705 H 0.53447 0.89576 0.53331 0.0
H706 H 0.51491 0.92149 0.36839 0.0
H707 H 0.50827 0.87572 0.36549 0.0
H708 H 0.49424 0.96096 0.39302 0.0
H709 H 0.5048 0.98908 0.4308 0.0
C710 C 0.3771 0.21948 0.71818 0.0
C711 C 0.40094 0.25009 0.71756 0.0
C712 C 0.36411 0.28726 0.74094 0.0
C713 C 0.3417 0.25683 0.74583 0.0
N714 N 0.32966 0.19311 0.74315 0.0
N715 N 0.41953 0.3128 0.73499 0.0
C716 C 0.3488 0.22257 0.73532 0.0
C717 C 0.39515 0.2838 0.73105 0.0
N718 N 0.3812 0.18762 0.70195 0.0
N719 N 0.35504 0.31957 0.74363 0.0
H720 H 0.44279 0.31171 0.72818 0.0
H721 H 0.4176 0.33724 0.74813 0.0
H722 H 0.33169 0.32264 0.74799 0.0
H723 H 0.36906 0.34215 0.7371 0.0
H724 H 0.36316 0.16501 0.69818 0.0
H725 H 0.40193 0.18458 0.69006 0.0
H726 H 0.33536 0.16787 0.73906 0.0
H727 H 0.30956 0.19419 0.75651 0.0
C728 C 0.99652 0.868 0.48729 0.0
C729 C 0.01136 0.87079 0.52086 0.0
C730 C 0.05088 0.92097 0.50964 0.0
C731 C 0.0297 0.92491 0.48199 0.0
N732 N 0.98349 0.89976 0.44128 0.0
N733 N 0.05322 0.90334 0.56494 0.0
C734 C 0.00323 0.89728 0.46928 0.0
C735 C 0.0394 0.89749 0.53215 0.0
N736 N 0.9764 0.83739 0.47267 0.0
N737 N 0.08115 0.94129 0.51531 0.0
H738 H 0.04369 0.89102 0.58442 0.0
H739 H 0.07258 0.92385 0.57403 0.0
H740 H 0.08915 0.95944 0.49934 0.0
H741 H 0.09883 0.9376 0.53361 0.0
H742 H 0.96682 0.83304 0.4474 0.0
H743 H 0.97242 0.81493 0.4848 0.0
H744 H 0.96139 0.88269 0.43376 0.0
H745 H 0.98862 0.91967 0.42626 0.0
C746 C 0.43847 0.75456 0.82486 0.0
C747 C 0.44677 0.77475 0.85744 0.0
C748 C 0.40079 0.80459 0.84974 0.0
C749 C 0.3924 0.78421 0.81735 0.0
N750 N 0.40727 0.74778 0.77011 0.0
N751 N 0.44244 0.8258 0.89657 0.0
C752 C 0.4127 0.76188 0.80351 0.0
C753 C 0.42991 0.80191 0.86864 0.0
N754 N 0.45411 0.72736 0.81503 0.0
N755 N 0.3807 0.82605 0.86255 0.0
H756 H 0.46469 0.82528 0.90966 0.0
H757 H 0.43276 0.8481 0.9045 0.0
H758 H 0.36019 0.8305 0.84849 0.0
H759 H 0.38351 0.83814 0.88759 0.0
H760 H 0.44659 0.7092 0.7932 0.0
H761 H 0.47333 0.72125 0.82988 0.0
H762 H 0.42292 0.73365 0.75781 0.0
H763 H 0.3887 0.75326 0.75389 0.0
C764 C 0.46612 0.19628 0.0139 0.0
C765 C 0.46448 0.20776 0.04876 0.0
C766 C 0.48557 0.15575 0.06338 0.0
C767 C 0.48381 0.14226 0.02856 0.0
N768 N 0.4685 0.14729 0.97042 0.0
N769 N 0.46507 0.1938 0.10578 0.0
C770 C 0.4727 0.16173 0.00372 0.0
C771 C 0.47204 0.18612 0.07324 0.0
N772 N 0.46326 0.21892 0.99073 0.0
N773 N 0.50061 0.13996 0.08716 0.0
H774 H 0.45356 0.21479 0.11365 0.0
H775 H 0.46737 0.17718 0.124 0.0
H776 H 0.51144 0.11813 0.081 0.0
H777 H 0.50534 0.15071 0.1126 0.0
H778 H 0.46767 0.21331 0.96561 0.0
H779 H 0.45929 0.24466 0.99711 0.0
H780 H 0.45697 0.15837 0.95154 0.0
H781 H 0.47479 0.12299 0.96196 0.0
C782 C 0.11999 0.23221 0.37619 0.0
C783 C 0.08998 0.23935 0.36284 0.0
C784 C 0.11064 0.2453 0.308 0.0
C785 C 0.14128 0.24024 0.32185 0.0
N786 N 0.17676 0.23181 0.36939 0.0
N787 N 0.05832 0.25971 0.31893 0.0
C788 C 0.14648 0.23469 0.35612 0.0
C789 C 0.08568 0.24768 0.32947 0.0
N790 N 0.12274 0.22189 0.40753 0.0
N791 N 0.10542 0.24812 0.27441 0.0
H792 H 0.0398 0.26271 0.33422 0.0
H793 H 0.05521 0.26997 0.29635 0.0
H794 H 0.12349 0.24844 0.2581 0.0
H795 H 0.08259 0.24759 0.262 0.0
H796 H 0.14293 0.21304 0.41762 0.0
H797 H 0.1039 0.22031 0.42299 0.0
H798 H 0.18329 0.23219 0.39505 0.0
H799 H 0.19609 0.23048 0.35484 0.0
C800 C 0.94204 0.03689 0.15469 0.0
C801 C 0.92317 0.064 0.15361 0.0
C802 C 0.96023 0.09349 0.11735 0.0
C803 C 0.97646 0.06408 0.11464 0.0
N804 N 0.99199 0.01689 0.14202 0.0
N805 N 0.91149 0.1155 0.13065 0.0
C806 C 0.96985 0.03817 0.13651 0.0
C807 C 0.93152 0.09153 0.13398 0.0
N808 N 0.93328 0.00981 0.17289 0.0
N809 N 0.97387 0.12464 0.10736 0.0
H810 H 0.89013 0.1146 0.14234 0.0
H811 H 0.91431 0.13386 0.11372 0.0
H812 H 0.99756 0.12942 0.10101 0.0
H813 H 0.96414 0.14766 0.11095 0.0
H814 H 0.94362 0.98717 0.17161 0.0
H815 H 0.91397 0.00851 0.18764 0.0
H816 H 0.99042 -0.00099 0.1594 0.0
H817 H 0.01425 0.02028 0.13195 0.0
C818 C 0.27987 0.76374 0.42854 0.0
C819 C 0.29867 0.73661 0.42446 0.0
C820 C 0.28814 0.73322 0.36265 0.0
C821 C 0.27416 0.76433 0.36626 0.0
N822 N 0.25284 0.80661 0.40358 0.0
N823 N 0.32384 0.69809 0.38718 0.0
C824 C 0.26896 0.77882 0.3996 0.0
C825 C 0.30382 0.72231 0.3914 0.0
N826 N 0.27194 0.77457 0.46007 0.0
N827 N 0.28439 0.7122 0.33226 0.0
H828 H 0.33469 0.688 0.40723 0.0
H829 H 0.33179 0.69021 0.36395 0.0
H830 H 0.26922 0.71643 0.31223 0.0
H831 H 0.29177 0.68778 0.3286 0.0
H832 H 0.25569 0.79159 0.46493 0.0
H833 H 0.28034 0.7648 0.48157 0.0
H834 H 0.25223 0.82198 0.42667 0.0
H835 H 0.23976 0.81432 0.38347 0.0
C836 C 0.57457 0.0161 0.66826 0.0
C837 C 0.55885 0.98459 0.67905 0.0
C838 C 0.52621 0.96786 0.62379 0.0
C839 C 0.54281 -0.00124 0.61249 0.0
N840 N 0.58808 0.04836 0.62202 0.0
N841 N 0.52495 0.92695 0.66517 0.0
C842 C 0.56884 0.02141 0.63395 0.0
C843 C 0.53613 0.95946 0.65623 0.0
N844 N 0.59321 0.04234 0.69131 0.0
N845 N 0.50089 0.94642 0.60355 0.0
H846 H 0.53219 0.91975 0.68842 0.0
H847 H 0.51097 0.906 0.64859 0.0
H848 H 0.49454 0.94973 0.57865 0.0
H849 H 0.48512 0.92631 0.61191 0.0
H850 H 0.60181 0.06767 0.68586 0.0
H851 H 0.59768 0.04019 0.71684 0.0
H852 H 0.60992 0.06208 0.63507 0.0
H853 H 0.58384 0.0558 0.59828 0.0
C854 C 0.26362 0.30721 0.95809 0.0
C855 C 0.26966 0.34485 0.96345 0.0
C856 C 0.25891 0.34505 0.90257 0.0
C857 C 0.2596 0.30836 0.89739 0.0
N858 N 0.2624 0.25366 0.91915 0.0
N859 N 0.2719 0.40025 0.9405 0.0
C860 C 0.26152 0.28904 0.92483 0.0
C861 C 0.26641 0.36404 0.9357 0.0
N862 N 0.2586 0.28899 0.98479 0.0
N863 N 0.25052 0.36152 0.87578 0.0
H864 H 0.27494 0.41565 0.96409 0.0
H865 H 0.27484 0.41539 0.92089 0.0
H866 H 0.24475 0.3482 0.85116 0.0
H867 H 0.24622 0.38738 0.87827 0.0
H868 H 0.25147 0.26159 0.98232 0.0
H869 H 0.25792 0.30189 0.00905 0.0
H870 H 0.2677 0.23903 0.9383 0.0
H871 H 0.25963 0.23932 0.89492 0.0
C872 C 0.9268 0.0103 0.32162 0.0
C873 C 0.92293 0.045 0.31659 0.0
C874 C 0.95653 0.06976 0.36946 0.0
C875 C 0.95685 0.0348 0.37635 0.0
N876 N 0.93683 0.97179 0.36262 0.0
N877 N 0.93166 0.10795 0.33631 0.0
C878 C 0.9407 0.00499 0.35337 0.0
C879 C 0.93683 0.07481 0.34084 0.0
N880 N 0.91715 0.98237 0.29631 0.0
N881 N 0.97651 0.09793 0.38899 0.0
H882 H 0.91972 0.11344 0.31431 0.0
H883 H 0.93769 0.12977 0.35519 0.0
H884 H 0.99229 0.0953 0.40956 0.0
H885 H 0.97978 0.12364 0.38302 0.0
H886 H 0.92325 0.95752 0.29747 0.0
H887 H 0.90448 0.98421 0.27338 0.0
H888 H 0.92216 0.94971 0.34814 0.0
H889 H 0.94539 0.96678 0.38635 0.0
C890 C 0.33707 0.7479 0.62405 0.0
C891 C 0.31394 0.73089 0.59641 0.0
C892 C 0.27066 0.73855 0.63346 0.0
C893 C 0.29356 0.75952 0.65975 0.0
N894 N 0.34818 0.79301 0.67319 0.0
N895 N 0.25779 0.72132 0.57308 0.0
C896 C 0.32665 0.76685 0.65296 0.0
C897 C 0.28048 0.72965 0.60059 0.0
N898 N 0.36889 0.74478 0.62385 0.0
N899 N 0.23991 0.72506 0.63967 0.0
H900 H 0.26379 0.7172 0.54836 0.0
H901 H 0.23347 0.72306 0.5746 0.0
H902 H 0.23145 0.72842 0.66321 0.0
H903 H 0.22387 0.7068 0.62206 0.0
H904 H 0.38594 0.75409 0.64479 0.0
H905 H 0.37745 0.72931 0.60462 0.0
H906 H 0.37189 0.80108 0.66771 0.0
H907 H 0.34121 0.80976 0.6926 0.0
C908 C 0.55589 0.04958 0.88074 0.0
C909 C 0.55361 0.01376 0.8661 0.0
C910 C 0.51398 0.99462 0.90493 0.0
C911 C 0.5187 0.02995 0.92178 0.0
N912 N 0.54505 0.091 0.9275 0.0
N913 N 0.53267 0.95157 0.86551 0.0
C914 C 0.53988 0.05747 0.91011 0.0
C915 C 0.53336 0.98611 0.87867 0.0
N916 N 0.57287 0.076 0.86613 0.0
N917 N 0.4901 0.96938 0.91322 0.0
H918 H 0.54495 0.94408 0.84501 0.0
H919 H 0.52145 0.93003 0.87604 0.0
H920 H 0.47537 0.97434 0.93229 0.0
H921 H 0.48291 0.94414 0.89957 0.0
H922 H 0.57315 0.10283 0.87339 0.0
H923 H 0.58511 0.07094 0.84496 0.0
H924 H 0.56287 0.11153 0.92292 0.0
H925 H 0.53258 0.09787 0.94807 0.0
C926 C 0.20892 0.33229 0.12634 0.0
C927 C 0.23356 0.32249 0.10693 0.0
C928 C 0.23289 0.26982 0.13528 0.0
C929 C 0.21684 0.28598 0.16089 0.0
N930 N 0.18418 0.32874 0.17863 0.0
N931 N 0.25552 0.27313 0.08168 0.0
C932 C 0.20239 0.3155 0.15527 0.0
C933 C 0.24113 0.28813 0.10768 0.0
N934 N 0.19084 0.35599 0.11634 0.0
N935 N 0.24213 0.23825 0.13913 0.0
H936 H 0.2594 0.28527 0.06027 0.0
H937 H 0.26106 0.24783 0.07971 0.0
H938 H 0.23492 0.22433 0.15877 0.0
H939 H 0.25681 0.22604 0.12359 0.0
H940 H 0.17142 0.36265 0.12866 0.0
H941 H 0.19199 0.3648 0.09289 0.0
H942 H 0.1769 0.35316 0.17878 0.0
H943 H 0.17696 0.31509 0.19828 0.0
C944 C 0.11269 0.95269 0.06501 0.0
C945 C 0.13956 0.95865 0.04583 0.0
C946 C 0.1233 0.01406 0.03231 0.0
C947 C 0.09512 0.00734 0.0497 0.0
N948 N 0.06867 0.97598 0.09072 0.0
N949 N 0.16593 0.9905 0.00493 0.0
C950 C 0.09112 0.97783 0.06795 0.0
C951 C 0.14341 0.98802 0.02769 0.0
N952 N 0.10774 0.92279 0.08016 0.0
N953 N 0.1327 0.04649 0.02252 0.0
H954 H 0.18071 0.97168 0.00045 0.0
H955 H 0.16745 0.00885 0.98794 0.0
H956 H 0.12023 0.06732 0.02673 0.0
H957 H 0.15498 0.0542 0.0135 0.0
H958 H 0.08721 0.91464 0.092 0.0
H959 H 0.12334 0.90452 0.07862 0.0
H960 H 0.06542 0.95692 0.10686 0.0
H961 H 0.05519 0.99595 0.09574 0.0
C962 C 0.64876 0.61015 0.94781 0.0
C963 C 0.67115 0.58657 0.94582 0.0
C964 C 0.62864 0.53816 0.95501 0.0
C965 C 0.60795 0.56273 0.96224 0.0
N966 N 0.59897 0.62305 0.96881 0.0
N967 N 0.68399 0.52943 0.95445 0.0
C968 C 0.61806 0.59903 0.95934 0.0
C969 C 0.66154 0.55082 0.9511 0.0
N970 N 0.65651 0.64279 0.93787 0.0
N971 N 0.61657 0.50263 0.95074 0.0
H972 H 0.70873 0.53784 0.9534 0.0
H973 H 0.67847 0.5044 0.96184 0.0
H974 H 0.59204 0.4926 0.95138 0.0
H975 H 0.62998 0.48351 0.94253 0.0
H976 H 0.63991 0.65965 0.9355 0.0
H977 H 0.67862 0.65159 0.92884 0.0
H978 H 0.60665 0.65035 0.97076 0.0
H979 H 0.5763 0.61588 0.97728 0.0
C980 C 0.70961 0.4076 0.24665 0.0
C981 C 0.71836 0.42831 0.27941 0.0
C982 C 0.76364 0.39687 0.28849 0.0
C983 C 0.75447 0.37609 0.2563 0.0
N984 N 0.72397 0.36865 0.20142 0.0
N985 N 0.76252 0.45234 0.32306 0.0
C986 C 0.72974 0.38413 0.23429 0.0
C987 C 0.74812 0.42594 0.29778 0.0
N988 N 0.68177 0.40878 0.22707 0.0
N989 N 0.78602 0.38806 0.31101 0.0
H990 H 0.75365 0.47577 0.32844 0.0
H991 H 0.78545 0.4531 0.3354 0.0
H992 H 0.79852 0.3674 0.30534 0.0
H993 H 0.79028 0.39969 0.33624 0.0
H994 H 0.67566 0.39412 0.20301 0.0
H995 H 0.66344 0.42165 0.23491 0.0
H996 H 0.73812 0.35168 0.19018 0.0
H997 H 0.73812 0.35168 0.19018 0.0
C998 C 0.82416 0.43656 0.47768 0.0
C999 C 0.8052 0.4527 0.50044 0.0
C1000 C 0.84835 0.50519 0.5135 0.0
C1001 C 0.86901 0.48649 0.49514 0.0
N1002 N 0.87788 0.43383 0.46094 0.0
N1003 N 0.79944 0.50163 0.54188 0.0
C1004 C 0.85725 0.45204 0.47739 0.0
C1005 C 0.81712 0.4871 0.51851 0.0
N1006 N 0.8101 0.40719 0.45553 0.0
N1007 N 0.85871 0.54015 0.52624 0.0
H1008 H 0.7763 0.48952 0.54612 0.0
H1009 H 0.8085 0.52459 0.55875 0.0
H1010 H 0.88167 0.55396 0.5234 0.0
H1011 H 0.84371 0.55624 0.53702 0.0
H1012 H 0.82182 0.39563 0.43635 0.0
H1013 H 0.7854 0.39692 0.45402 0.0
H1014 H 0.87167 0.40711 0.45091 0.0
H1015 H 0.90198 0.44492 0.45907 0.0
C1016 C 0.33657 0.17741 0.23836 0.0
C1017 C 0.33124 0.15221 0.26133 0.0
C1018 C 0.27918 0.17021 0.27115 0.0
C1019 C 0.28338 0.19348 0.24653 0.0
N1020 N 0.31166 0.21131 0.19997 0.0
N1021 N 0.29137 0.11649 0.28919 0.0
C1022 C 0.31064 0.19443 0.22786 0.0
C1023 C 0.3006 0.14602 0.27437 0.0
N1024 N 0.36663 0.18704 0.22822 0.0
N1025 N 0.25588 0.17211 0.29284 0.0
H1026 H 0.30544 0.09697 0.29061 0.0
H1027 H 0.26812 0.10939 0.29632 0.0
H1028 H 0.23967 0.18959 0.29222 0.0
H1029 H 0.25477 0.15851 0.31371 0.0
H1030 H 0.37226 0.20786 0.21429 0.0
H1031 H 0.38675 0.17681 0.23638 0.0
H1032 H 0.32966 0.21038 0.18365 0.0
H1033 H 0.29273 0.22341 0.19158 0.0
C1034 C 0.34269 0.04186 0.49161 0.0
C1035 C 0.33987 0.0759 0.50749 0.0
C1036 C 0.38278 0.0738 0.55166 0.0
C1037 C 0.38762 0.04144 0.53371 0.0
N1038 N 0.36149 0.98725 0.4987 0.0
N1039 N 0.34817 0.11771 0.55854 0.0
C1040 C 0.36408 0.02292 0.50752 0.0
C1041 C 0.35717 0.08998 0.53944 0.0
N1042 N 0.32584 0.02808 0.46089 0.0
N1043 N 0.4028 0.08899 0.58014 0.0
H1044 H 0.3287 0.12908 0.55051 0.0
H1045 H 0.35773 0.12698 0.58345 0.0
H1046 H 0.41873 0.07536 0.5921 0.0
H1047 H 0.40378 0.11487 0.59165 0.0
H1048 H 0.32982 0.00506 0.44665 0.0
H1049 H 0.30965 0.04102 0.44843 0.0
H1050 H 0.34329 0.97203 0.48109 0.0
H1051 H 0.37456 0.97231 0.5126 0.0
C1052 C 0.69976 0.62262 0.33244 0.0
C1053 C 0.70297 0.59119 0.31187 0.0
C1054 C 0.73633 0.62678 0.27623 0.0
C1055 C 0.72922 0.65828 0.294 0.0
N1056 N 0.69782 0.68479 0.33511 0.0
N1057 N 0.72213 0.56282 0.26229 0.0
C1058 C 0.70936 0.65586 0.32119 0.0
C1059 C 0.72049 0.59315 0.28309 0.0
N1060 N 0.6875 0.62089 0.36284 0.0
N1061 N 0.75951 0.62878 0.2542 0.0
H1062 H 0.71304 0.53756 0.26773 0.0
H1063 H 0.73087 0.5628 0.23871 0.0
H1064 H 0.77264 0.65263 0.24935 0.0
H1065 H 0.76812 0.6068 0.24326 0.0
H1066 H 0.68789 0.64314 0.38056 0.0
H1067 H 0.68002 0.59709 0.3719 0.0
H1068 H 0.68044 0.68337 0.35222 0.0
H1069 H 0.70233 0.70944 0.32687 0.0
C1070 C 0.86006 0.46696 0.77936 0.0
C1071 C 0.84551 0.49746 0.78016 0.0
C1072 C 0.79143 0.45931 0.77103 0.0
C1073 C 0.80628 0.42962 0.77471 0.0
N1074 N 0.85425 0.40651 0.79054 0.0
N1075 N 0.79755 0.52335 0.77525 0.0
C1076 C 0.84046 0.43376 0.78101 0.0
C1077 C 0.81115 0.49379 0.77565 0.0
N1078 N 0.89243 0.46926 0.77625 0.0
N1079 N 0.75873 0.45433 0.76216 0.0
H1080 H 0.8114 0.54816 0.77428 0.0
H1081 H 0.77294 0.52348 0.77632 0.0
H1082 H 0.74378 0.42944 0.75916 0.0
H1083 H 0.74659 0.47427 0.7559 0.0
H1084 H 0.90339 0.44709 0.77239 0.0
H1085 H 0.90765 0.49266 0.77343 0.0
H1086 H 0.87872 0.40951 0.79926 0.0
H1087 H 0.84076 0.38204 0.79349 0.0
C1088 C 0.98889 0.83843 0.06142 0.0
C1089 C 0.97953 0.84097 0.09474 0.0
C1090 C 0.97043 0.90146 0.09134 0.0
C1091 C 0.98288 0.90037 0.05943 0.0
N1092 N 0.00791 0.86953 0.01569 0.0
N1093 N 0.96599 0.87655 0.14358 0.0
C1094 C 0.99302 0.86922 0.04473 0.0
C1095 C 0.97181 0.87306 0.11036 0.0
N1096 N 0.99345 0.80652 0.04565 0.0
N1097 N 0.95572 0.92895 0.10278 0.0
H1098 H 0.96587 0.85614 0.15829 0.0
H1099 H 0.96402 0.90059 0.15744 0.0
H1100 H 0.9528 0.94948 0.08892 0.0
H1101 H 0.94326 0.92955 0.12418 0.0
H1102 H 0.99675 0.8018 0.02014 0.0
H1103 H 0.99196 0.78403 0.05776 0.0
H1104 H 0.01906 0.8491 0.00569 0.0
H1105 H 0.01113 0.89141 0.00275 0.0
C1106 C 0.91229 0.30992 0.79354 0.0
C1107 C 0.92252 0.27801 0.79949 0.0
C1108 C 0.86983 0.24428 0.77141 0.0
C1109 C 0.85902 0.27668 0.76743 0.0
N1110 N 0.87815 0.33664 0.75721 0.0
N1111 N 0.91421 0.21432 0.7866 0.0
C1112 C 0.8826 0.30853 0.77329 0.0
C1113 C 0.90209 0.24496 0.78645 0.0
N1114 N 0.93034 0.34181 0.80802 0.0
N1115 N 0.84982 0.2128 0.7593 0.0
H1116 H 0.93786 0.21375 0.79618 0.0
H1117 H 0.90194 0.18953 0.77508 0.0
H1118 H 0.83029 0.21094 0.741 0.0
H1119 H 0.85306 0.18856 0.76635 0.0
H1120 H 0.92217 0.36568 0.80718 0.0
H1121 H 0.95189 0.34407 0.8236 0.0
H1122 H 0.89589 0.35932 0.75865 0.0
H1123 H 0.85943 0.33497 0.73814 0.0
C1124 C 0.49069 0.14524 0.6138 0.0
C1125 C 0.48271 0.17352 0.5975 0.0
C1126 C 0.50133 0.14725 0.54512 0.0
C1127 C 0.51295 0.12137 0.56259 0.0
N1128 N 0.52402 0.10037 0.61586 0.0
N1129 N 0.48484 0.20446 0.54883 0.0
C1130 C 0.50892 0.1215 0.59754 0.0
C1131 C 0.48915 0.1753 0.56344 0.0
N1132 N 0.48007 0.14042 0.6445 0.0
N1133 N 0.5005 0.1443 0.51076 0.0
H1134 H 0.47566 0.2254 0.56105 0.0
H1135 H 0.49289 0.20926 0.52566 0.0
H1136 H 0.50878 0.12409 0.49633 0.0
H1137 H 0.4888 0.15985 0.49626 0.0
H1138 H 0.48204 0.11805 0.65594 0.0
H1139 H 0.46636 0.15704 0.65698 0.0
H1140 H 0.52465 0.1019 0.64203 0.0
H1141 H 0.53902 0.0841 0.60552 0.0
C1142 C 0.61805 0.7421 0.28884 0.0
C1143 C 0.61354 0.77562 0.30454 0.0
C1144 C 0.66937 0.80112 0.2947 0.0
C1145 C 0.67489 0.7667 0.28209 0.0
N1146 N 0.65538 0.70326 0.27401 0.0
N1147 N 0.6364 0.83681 0.32589 0.0
C1148 C 0.64948 0.73693 0.28121 0.0
C1149 C 0.63984 0.80491 0.30913 0.0
N1150 N 0.59203 0.7149 0.28054 0.0
N1151 N 0.69059 0.83059 0.28995 0.0
H1152 H 0.61444 0.8422 0.33338 0.0
H1153 H 0.65594 0.85743 0.33405 0.0
H1154 H 0.71063 0.82961 0.27659 0.0
H1155 H 0.68628 0.85629 0.29553 0.0
H1156 H 0.59297 0.69152 0.26493 0.0
H1157 H 0.56871 0.71652 0.28689 0.0
H1158 H 0.639 0.68074 0.27714 0.0
H1159 H 0.67782 0.69755 0.2686 0.0
C1160 C 0.02132 0.17516 0.5113 0.0
C1161 C 0.99338 0.17289 0.48817 0.0
C1162 C 0.97481 0.11187 0.49753 0.0
C1163 C 0.00511 0.11201 0.51531 0.0
N1164 N 0.05826 0.14326 0.53905 0.0
N1165 N 0.94739 0.13545 0.45313 0.0
C1166 C 0.0287 0.1436 0.52239 0.0
C1167 C 0.97096 0.14034 0.47973 0.0
N1168 N 0.04017 0.2074 0.52332 0.0
N1169 N 0.94951 0.08477 0.49803 0.0
H1170 H 0.94519 0.15421 0.437 0.0
H1171 H 0.93259 0.11096 0.44445 0.0
H1172 H 0.9513 0.0647 0.51273 0.0
H1173 H 0.92604 0.08477 0.48745 0.0
H1174 H 0.05916 0.21108 0.54249 0.0
H1175 H 0.03491 0.23104 0.51631 0.0
H1176 H 0.07775 0.16433 0.54152 0.0
H1177 H 0.06392 0.12093 0.54859 0.0
C1178 C 0.59768 0.33225 0.19672 0.0
C1179 C 0.57612 0.30771 0.17233 0.0
C1180 C 0.61108 0.26372 0.17598 0.0
C1181 C 0.63172 0.28775 0.20138 0.0
N1182 N 0.64062 0.34036 0.24253 0.0
N1183 N 0.55736 0.247 0.14595 0.0
C1184 C 0.62375 0.32067 0.21385 0.0
C1185 C 0.58134 0.27247 0.16393 0.0
N1186 N 0.59415 0.36692 0.2024 0.0
N1187 N 0.62027 0.23309 0.16269 0.0
H1188 H 0.53453 0.25183 0.13794 0.0
H1189 H 0.55885 0.22023 0.14203 0.0
H1190 H 0.64163 0.22537 0.17149 0.0
H1191 H 0.60787 0.21665 0.14137 0.0
H1192 H 0.61068 0.38648 0.2181 0.0
H1193 H 0.57624 0.37695 0.18916 0.0
H1194 H 0.63343 0.36257 0.255 0.0
H1195 H 0.66001 0.33257 0.2557 0.0
C1196 C 0.52305 0.88042 0.96136 0.0
C1197 C 0.51006 0.85561 0.98242 0.0
C1198 C 0.49978 0.90455 0.02309 0.0
C1199 C 0.51271 0.92908 0.00202 0.0
N1200 N 0.54514 0.94131 0.95633 0.0
N1201 N 0.49459 0.8447 0.03716 0.0
C1202 C 0.52746 0.91733 0.97312 0.0
C1203 C 0.50118 0.86799 0.0146 0.0
N1204 N 0.52856 0.86924 0.92894 0.0
N1205 N 0.48567 0.91613 0.05089 0.0
H1206 H 0.49631 0.81802 0.03181 0.0
H1207 H 0.49061 0.85233 0.06209 0.0
H1208 H 0.48594 0.94292 0.05889 0.0
H1209 H 0.47238 0.89919 0.06505 0.0
H1210 H 0.53395 0.88639 0.91132 0.0
H1211 H 0.52517 0.84285 0.91817 0.0
H1212 H 0.55963 0.9341 0.93772 0.0
H1213 H 0.54772 0.96863 0.96272 0.0
C1214 C 0.91377 0.79043 0.68644 0.0
C1215 C 0.91924 0.81533 0.66349 0.0
C1216 C 0.8696 0.83639 0.67756 0.0
C1217 C 0.86764 0.81578 0.70451 0.0
N1218 N 0.89396 0.78032 0.73973 0.0
N1219 N 0.90573 0.86829 0.64352 0.0
C1220 C 0.8915 0.79483 0.71048 0.0
C1221 C 0.89811 0.84012 0.66064 0.0
N1222 N 0.92911 0.76196 0.68478 0.0
N1223 N 0.844 0.85113 0.66687 0.0
H1224 H 0.92713 0.87368 0.63226 0.0
H1225 H 0.89234 0.88863 0.64377 0.0
H1226 H 0.82178 0.84744 0.67686 0.0
H1227 H 0.84367 0.86368 0.64536 0.0
H1228 H 0.92389 0.74171 0.69946 0.0
H1229 H 0.94399 0.75645 0.66597 0.0
H1230 H 0.91282 0.76728 0.74616 0.0
H1231 H 0.87965 0.78492 0.75929 0.0
C1232 C 0.09318 0.02851 0.89752 0.0
C1233 C 0.08103 0.00042 0.87122 0.0
C1234 C 0.03188 0.98513 0.89979 0.0
C1235 C 0.04572 0.01085 0.9278 0.0
N1236 N 0.09334 0.0512 0.95617 0.0
N1237 N 0.04127 0.94787 0.8496 0.0
C1238 C 0.07737 0.03106 0.92739 0.0
C1239 C 0.05098 0.97759 0.8729 0.0
N1240 N 0.11943 0.05335 0.89371 0.0
N1241 N 0.00023 0.96877 0.89828 0.0
H1242 H 0.05471 0.94102 0.82986 0.0
H1243 H 0.02143 0.92834 0.8516 0.0
H1244 H 0.98552 0.97397 0.91734 0.0
H1245 H 0.98775 0.95253 0.87689 0.0
H1246 H 0.12706 0.07677 0.9104 0.0
H1247 H 0.13167 0.0522 0.87215 0.0
H1248 H 0.1175 0.06379 0.95805 0.0
H1249 H 0.08376 0.05205 0.97926 0.0
C1250 C 0.72133 0.2943 0.6164 0.0
C1251 C 0.74458 0.32313 0.60961 0.0
C1252 C 0.77815 0.31912 0.66199 0.0
C1253 C 0.75405 0.29222 0.67036 0.0
N1254 N 0.69992 0.25789 0.6578 0.0
N1255 N 0.79006 0.36953 0.63209 0.0
C1256 C 0.72474 0.28093 0.64822 0.0
C1257 C 0.77142 0.33747 0.63433 0.0
N1258 N 0.69668 0.27882 0.59207 0.0
N1259 N 0.80823 0.32623 0.67954 0.0
H1260 H 0.78513 0.38477 0.61327 0.0
H1261 H 0.80794 0.38282 0.65107 0.0
H1262 H 0.81452 0.31172 0.69839 0.0
H1263 H 0.82777 0.34333 0.67269 0.0
H1264 H 0.68091 0.25539 0.59378 0.0
H1265 H 0.6934 0.28827 0.56902 0.0
H1266 H 0.6768 0.25154 0.64475 0.0
H1267 H 0.70174 0.24721 0.68035 0.0
C1268 C 0.44489 0.04962 0.37517 0.0
C1269 C 0.46182 0.07706 0.35946 0.0
C1270 C 0.50324 0.09215 0.40873 0.0
C1271 C 0.48675 0.06381 0.42384 0.0
N1272 N 0.44504 0.01126 0.41833 0.0
N1273 N 0.50943 0.1213 0.35866 0.0
C1274 C 0.45828 0.04156 0.40634 0.0
C1275 C 0.49173 0.09737 0.3755 0.0
N1276 N 0.41589 0.03084 0.35997 0.0
N1277 N 0.52914 0.11498 0.42666 0.0
H1278 H 0.50125 0.12671 0.33494 0.0
H1279 H 0.53309 0.13406 0.36697 0.0
H1280 H 0.53873 0.11172 0.4506 0.0
H1281 H 0.53988 0.13854 0.41899 0.0
H1282 H 0.39947 0.01459 0.37194 0.0
H1283 H 0.40789 0.03277 0.33532 0.0
H1284 H 0.42694 0.99171 0.4047 0.0
H1285 H 0.4539 0.00348 0.44065 0.0
C1286 C 0.77865 0.67355 0.09402 0.0
C1287 C 0.78686 0.69857 0.0717 0.0
C1288 C 0.77974 0.74679 0.11456 0.0
C1289 C 0.76969 0.72143 0.13606 0.0
N1290 N 0.75209 0.66045 0.14346 0.0
N1291 N 0.78937 0.75765 0.05762 0.0
C1292 C 0.76689 0.68471 0.12494 0.0
C1293 C 0.78562 0.73484 0.08102 0.0
N1294 N 0.7835 0.63949 0.08644 0.0
N1295 N 0.78535 0.78217 0.12665 0.0
H1296 H 0.79379 0.74973 0.03283 0.0
H1297 H 0.78535 0.78359 0.06185 0.0
H1298 H 0.7815 0.79206 0.1511 0.0
H1299 H 0.79625 0.80166 0.11338 0.0
H1300 H 0.78144 0.62129 0.10355 0.0
H1301 H 0.79244 0.63019 0.06418 0.0
H1302 H 0.74643 0.63336 0.1349 0.0
H1303 H 0.7424 0.66764 0.16591 0.0
C1304 C 0.11127 0.0082 0.67548 0.0
C1305 C 0.09 0.98186 0.68866 0.0
C1306 C 0.05266 0.97204 0.63724 0.0
C1307 C 0.07493 0.99667 0.62318 0.0
N1308 N 0.12814 0.03242 0.62554 0.0
N1309 N 0.04455 0.93325 0.67983 0.0
C1310 C 0.10513 0.01296 0.64125 0.0
C1311 C 0.06203 0.96194 0.66873 0.0
N1312 N 0.13611 0.0301 0.69603 0.0
N1313 N 0.02181 0.96009 0.62182 0.0
H1314 H 0.05067 0.92522 0.70302 0.0
H1315 H 0.02602 0.91544 0.66469 0.0
H1316 H 0.01305 0.96794 0.59948 0.0
H1317 H 0.00371 0.94507 0.63294 0.0
H1318 H 0.14992 0.05228 0.68861 0.0
H1319 H 0.14128 0.02812 0.72149 0.0
H1320 H 0.15185 0.04188 0.63647 0.0
H1321 H 0.12443 0.0363 0.60034 0.0
C1322 C 0.73445 0.28854 0.41192 0.0
C1323 C 0.72979 0.3237 0.4226 0.0
C1324 C 0.72468 0.33277 0.36234 0.0
C1325 C 0.73443 0.29981 0.35246 0.0
N1326 N 0.74968 0.24652 0.36832 0.0
N1327 N 0.72477 0.38114 0.40709 0.0
C1328 C 0.73951 0.27773 0.37744 0.0
C1329 C 0.72549 0.34612 0.39752 0.0
N1330 N 0.73336 0.26518 0.43485 0.0
N1331 N 0.71493 0.35179 0.33816 0.0
H1332 H 0.72528 0.39254 0.43208 0.0
H1333 H 0.72635 0.39975 0.39037 0.0
H1334 H 0.71518 0.34401 0.31238 0.0
H1335 H 0.70404 0.3738 0.34349 0.0
H1336 H 0.73361 0.23831 0.4285 0.0
H1337 H 0.72894 0.27209 0.45984 0.0
H1338 H 0.75767 0.23115 0.38565 0.0
H1339 H 0.75182 0.23685 0.34327 0.0
C1340 C 0.44931 0.07762 0.14243 0.0
C1341 C 0.46041 0.06179 0.17014 0.0
C1342 C 0.4913 0.02795 0.13274 0.0
C1343 C 0.48066 0.04439 0.10522 0.0
N1344 N 0.43894 0.07243 0.0818 0.0
N1345 N 0.48383 0.01421 0.18939 0.0
C1346 C 0.45624 0.06527 0.10937 0.0
C1347 C 0.47895 0.03454 0.16458 0.0
N1348 N 0.43366 0.1057 0.14766 0.0
N1349 N 0.51336 0.00607 0.12839 0.0
H1350 H 0.47417 0.01755 0.21248 0.0
H1351 H 0.49462 0.99191 0.18598 0.0
H1352 H 0.52018 0.99774 0.10467 0.0
H1353 H 0.5255 0.99701 0.14826 0.0
H1354 H 0.42819 0.12051 0.12871 0.0
H1355 H 0.42869 0.11628 0.17146 0.0
H1356 H 0.41942 0.08569 0.08307 0.0
H1357 H 0.44091 0.05986 0.05797 0.0
C1358 C 0.81721 0.72283 0.88243 0.0
C1359 C 0.80136 0.73054 0.91163 0.0
C1360 C 0.77818 0.77597 0.88589 0.0
C1361 C 0.79364 0.76773 0.85638 0.0
N1362 N 0.83651 0.74169 0.83153 0.0
N1363 N 0.77195 0.76813 0.94447 0.0
C1364 C 0.81621 0.74423 0.85635 0.0
C1365 C 0.78346 0.75839 0.91444 0.0
N1366 N 0.83143 0.69347 0.87848 0.0
N1367 N 0.75811 0.80028 0.88619 0.0
H1368 H 0.77535 0.75536 0.96556 0.0
H1369 H 0.761 0.79012 0.94936 0.0
H1370 H 0.75637 0.81602 0.86703 0.0
H1371 H 0.74278 0.80443 0.90481 0.0
H1372 H 0.8395 0.68387 0.85587 0.0
H1373 H 0.83252 0.6765 0.89661 0.0
H1374 H 0.85557 0.72774 0.83273 0.0
H1375 H 0.83715 0.75611 0.81139 0.0
C1376 C 0.90844 0.11954 0.01988 0.0
C1377 C 0.87782 0.10491 0.00174 0.0
C1378 C 0.89971 0.05118 0.98115 0.0
C1379 C 0.92987 0.06484 0.00123 0.0
N1380 N 0.96557 0.11833 0.02733 0.0
N1381 N 0.84389 0.05633 0.96466 0.0
C1382 C 0.93492 0.10079 0.01726 0.0
C1383 C 0.87341 0.07058 0.98226 0.0
N1384 N 0.91206 0.15103 0.04077 0.0
N1385 N 0.89734 0.02122 0.95831 0.0
H1386 H 0.82535 0.07071 0.9614 0.0
H1387 H 0.83705 0.02979 0.95429 0.0
H1388 H 0.91701 0.00877 0.95397 0.0
H1389 H 0.87739 0.01088 0.9407 0.0
H1390 H 0.93246 0.16124 0.05788 0.0
H1391 H 0.89348 0.16562 0.04312 0.0
H1392 H 0.97175 0.14531 0.03626 0.0
H1393 H 0.98494 0.10675 0.0212 0.0
C1394 C 0.38929 0.47454 0.07068 0.0
C1395 C 0.36466 0.45582 0.04546 0.0
C1396 C 0.40417 0.45722 0.00364 0.0
C1397 C 0.42748 0.4804 0.02745 0.0
N1398 N 0.44122 0.5143 0.08316 0.0
N1399 N 0.34779 0.43169 0.98708 0.0
C1400 C 0.41996 0.48959 0.06103 0.0
C1401 C 0.37189 0.44786 0.0117 0.0
N1402 N 0.3833 0.47824 0.10382 0.0
N1403 N 0.41321 0.44272 0.97384 0.0
H1404 H 0.32435 0.42267 0.99241 0.0
H1405 H 0.35053 0.42931 0.96135 0.0
H1406 H 0.43692 0.44776 0.96772 0.0
H1407 H 0.39823 0.42277 0.95696 0.0
H1408 H 0.40127 0.48814 0.12378 0.0
H1409 H 0.36081 0.46875 0.11165 0.0
H1410 H 0.4356 0.52516 0.10656 0.0
H1411 H 0.4637 0.52629 0.07717 0.0
C1412 C 0.24794 0.61977 0.73763 0.0
C1413 C 0.27872 0.6169 0.72648 0.0
C1414 C 0.29383 0.68094 0.73416 0.0
C1415 C 0.26289 0.68482 0.7438 0.0
N1416 N 0.20845 0.65716 0.75115 0.0
N1417 N 0.323 0.64522 0.69887 0.0
C1418 C 0.23909 0.65389 0.74403 0.0
C1419 C 0.29888 0.64758 0.71936 0.0
N1420 N 0.22775 0.5898 0.74287 0.0
N1421 N 0.3192 0.70844 0.74116 0.0
H1422 H 0.32539 0.62143 0.68482 0.0
H1423 H 0.33717 0.66753 0.69195 0.0
H1424 H 0.31715 0.73116 0.7568 0.0
H1425 H 0.34278 0.70616 0.73635 0.0
H1426 H 0.20661 0.58988 0.75466 0.0
H1427 H 0.233 0.56462 0.73591 0.0
H1428 H 0.18909 0.63592 0.7481 0.0
H1429 H 0.20218 0.68153 0.75932 0.0
C1430 C 0.19367 0.5956 0.55167 0.0
C1431 C 0.20432 0.59956 0.51939 0.0
C1432 C 0.14765 0.59084 0.49532 0.0
C1433 C 0.13713 0.58103 0.52618 0.0
N1434 N 0.1515 0.56779 0.58226 0.0
N1435 N 0.19076 0.59352 0.45891 0.0
C1436 C 0.16047 0.58179 0.55408 0.0
C1437 C 0.18113 0.59513 0.49072 0.0
N1438 N 0.21489 0.60625 0.58022 0.0
N1439 N 0.12599 0.59774 0.47087 0.0
H1440 H 0.21492 0.59505 0.45413 0.0
H1441 H 0.17443 0.5868 0.43713 0.0
H1442 H 0.10171 0.5978 0.47427 0.0
H1443 H 0.13296 0.60782 0.44912 0.0
H1444 H 0.20757 0.60713 0.60449 0.0
H1445 H 0.23907 0.61792 0.57974 0.0
H1446 H 0.16823 0.56461 0.60175 0.0
H1447 H 0.12782 0.5559 0.58472 0.0
C1448 C 0.71628 0.92549 0.81248 0.0
C1449 C 0.68246 0.91749 0.80254 0.0
C1450 C 0.68703 0.85599 0.78271 0.0
C1451 C 0.72119 0.8638 0.79338 0.0
N1452 N 0.76257 0.90224 0.83318 0.0
N1453 N 0.63445 0.87225 0.78897 0.0
C1454 C 0.73417 0.89747 0.81267 0.0
C1455 C 0.66747 0.88195 0.79063 0.0
N1456 N 0.73161 0.9599 0.8213 0.0
N1457 N 0.67254 0.82392 0.7654 0.0
H1458 H 0.61913 0.88997 0.79542 0.0
H1459 H 0.6224 0.84598 0.78485 0.0
H1460 H 0.68336 0.80194 0.7634 0.0
H1461 H 0.64931 0.81921 0.75263 0.0
H1462 H 0.75678 0.96719 0.82577 0.0
H1463 H 0.71949 0.98124 0.82078 0.0
H1464 H 0.77179 0.92567 0.84942 0.0
H1465 H 0.77404 0.88127 0.83796 0.0
C1466 C 0.68764 0.01626 0.552 0.0
C1467 C 0.69869 0.99233 0.5278 0.0
C1468 C 0.65322 0.99518 0.48662 0.0
C1469 C 0.64299 0.02038 0.51033 0.0
N1470 N 0.65335 0.05953 0.56367 0.0
N1471 N 0.6958 0.96321 0.47058 0.0
C1472 C 0.66131 0.03267 0.54226 0.0
C1473 C 0.68256 0.98295 0.49463 0.0
N1474 N 0.70094 0.02153 0.58496 0.0
N1475 N 0.63449 0.9825 0.45666 0.0
H1476 H 0.71712 0.9536 0.47568 0.0
H1477 H 0.68713 0.95851 0.44506 0.0
H1478 H 0.61415 0.99272 0.44891 0.0
H1479 H 0.63819 0.96088 0.44017 0.0
H1480 H 0.69138 0.03513 0.60468 0.0
H1481 H 0.71984 0.00947 0.59339 0.0
H1482 H 0.66816 0.07237 0.58527 0.0
H1483 H 0.63328 0.07121 0.55887 0.0
C1484 C 0.27477 0.42474 0.72474 0.0
C1485 C 0.30457 0.44286 0.74272 0.0
C1486 C 0.31113 0.38989 0.76808 0.0
C1487 C 0.28242 0.37056 0.74844 0.0
N1488 N 0.2385 0.36854 0.70515 0.0
N1489 N 0.35536 0.43986 0.77347 0.0
C1490 C 0.2649 0.3876 0.72554 0.0
C1491 C 0.32411 0.42443 0.76169 0.0
N1492 N 0.25551 0.44334 0.70786 0.0
N1493 N 0.32562 0.37607 0.79378 0.0
H1494 H 0.36591 0.46497 0.76882 0.0
H1495 H 0.37181 0.42631 0.78461 0.0
H1496 H 0.31762 0.35082 0.79957 0.0
H1497 H 0.34413 0.39089 0.81128 0.0
H1498 H 0.23183 0.43292 0.69741 0.0
H1499 H 0.26289 0.47007 0.70574 0.0
H1500 H 0.22678 0.37836 0.68551 0.0
H1501 H 0.22918 0.3421 0.70668 0.0
C1502 C 0.15291 0.60576 0.2815 0.0
C1503 C 0.16951 0.57943 0.29215 0.0
C1504 C 0.22129 0.61355 0.28074 0.0
C1505 C 0.20448 0.63926 0.26911 0.0
N1506 N 0.15392 0.65532 0.24995 0.0
N1507 N 0.2178 0.55365 0.29379 0.0
C1508 C 0.17012 0.63389 0.26685 0.0
C1509 C 0.20324 0.58194 0.28935 0.0
N1510 N 0.12108 0.60484 0.28673 0.0
N1511 N 0.25443 0.61995 0.28525 0.0
H1512 H 0.20515 0.52986 0.29941 0.0
H1513 H 0.24151 0.55251 0.28869 0.0
H1514 H 0.26866 0.64224 0.27851 0.0
H1515 H 0.26781 0.60428 0.29778 0.0
H1516 H 0.10883 0.62551 0.28309 0.0
H1517 H 0.10752 0.58478 0.29748 0.0
H1518 H 0.12878 0.6508 0.2447 0.0
H1519 H 0.16579 0.67552 0.23801 0.0
C1520 C 0.54174 0.6797 0.42843 0.0
C1521 C 0.53369 0.71255 0.44154 0.0
C1522 C 0.54223 0.69882 0.4993 0.0
C1523 C 0.54965 0.6658 0.48619 0.0
N1524 N 0.56584 0.62921 0.43969 0.0
N1525 N 0.53665 0.758 0.48895 0.0
C1526 C 0.55283 0.6579 0.45121 0.0
C1527 C 0.53723 0.72358 0.47693 0.0
N1528 N 0.53671 0.66812 0.39444 0.0
N1529 N 0.53908 0.70606 0.53297 0.0
H1530 H 0.53514 0.77679 0.47271 0.0
H1531 H 0.5414 0.7686 0.51442 0.0
H1532 H 0.54438 0.68919 0.55018 0.0
H1533 H 0.52992 0.72784 0.54348 0.0
H1534 H 0.53825 0.64255 0.38385 0.0
H1535 H 0.52859 0.68309 0.37678 0.0
H1536 H 0.57149 0.62386 0.41498 0.0
H1537 H 0.57416 0.61275 0.45567 0.0
C1538 C 0.61387 0.30971 0.71759 0.0
C1539 C 0.5903 0.28912 0.73403 0.0
C1540 C 0.63428 0.27581 0.77212 0.0
C1541 C 0.65783 0.29319 0.75339 0.0
N1542 N 0.66934 0.32072 0.70371 0.0
N1543 N 0.57848 0.24704 0.77296 0.0
C1544 C 0.64746 0.30866 0.72493 0.0
C1545 C 0.60064 0.27075 0.76031 0.0
N1546 N 0.60438 0.33138 0.69581 0.0
N1547 N 0.64403 0.2649 0.8018 0.0
H1548 H 0.55384 0.2417 0.76436 0.0
H1549 H 0.5849 0.23008 0.7895 0.0
H1550 H 0.66833 0.26865 0.81147 0.0
H1551 H 0.62799 0.25534 0.8184 0.0
H1552 H 0.62068 0.34991 0.68599 0.0
H1553 H 0.58019 0.33329 0.68999 0.0
H1554 H 0.66257 0.32822 0.68049 0.0
H1555 H 0.69402 0.32018 0.70757 0.0
C1556 C 0.0074 0.40116 0.91415 0.0
C1557 C 0.00175 0.36916 0.92832 0.0
C1558 C -0.0011 0.40312 0.98389 0.0
C1559 C 0.00438 0.43497 0.9695 0.0
N1560 N 0.02623 0.46443 0.92485 0.0
N1561 N 0.00233 0.3407 0.9785 0.0
C1562 C 0.01265 0.43399 0.93587 0.0
C1563 C 0.00083 0.37051 0.96387 0.0
N1564 N 0.00566 0.40057 0.87989 0.0
N1565 N 0.99056 0.40378 0.01615 0.0
H1566 H 0.00467 0.31673 0.96464 0.0
H1567 H 0.00462 0.34066 0.00455 0.0
H1568 H 0.9901 0.42729 0.03185 0.0
H1569 H 0.98248 0.38101 0.02668 0.0
H1570 H 0.00576 0.42328 0.86837 0.0
H1571 H 0.00126 0.37731 0.86274 0.0
H1572 H 0.03531 0.46514 0.90147 0.0
H1573 H 0.03203 0.48818 0.94104 0.0
C1574 C 0.90242 0.78444 0.23799 0.0
C1575 C 0.90744 0.75049 0.22418 0.0
C1576 C 0.85767 0.72353 0.24667 0.0
C1577 C 0.85083 0.7579 0.25715 0.0
N1578 N 0.86348 0.82056 0.25401 0.0
N1579 N 0.88791 0.68773 0.21137 0.0
C1580 C 0.87241 0.78817 0.25046 0.0
C1581 C 0.88443 0.71998 0.22727 0.0
N1582 N 0.92662 0.81337 0.23981 0.0
N1583 N 0.83989 0.69447 0.25678 0.0
H1584 H 0.90767 0.68437 0.19792 0.0
H1585 H 0.8702 0.66499 0.20949 0.0
H1586 H 0.82127 0.69605 0.27218 0.0
H1587 H 0.84558 0.66923 0.25263 0.0
H1588 H 0.92555 0.83801 0.25309 0.0
H1589 H 0.94913 0.81208 0.23104 0.0
H1590 H 0.87667 0.84292 0.24622 0.0
H1591 H 0.84084 0.82396 0.26063 0.0
C1592 C 0.48415 0.36894 0.98285 0.0
C1593 C 0.49857 0.37278 0.01671 0.0
C1594 C 0.53518 0.42568 0.00622 0.0
C1595 C 0.51322 0.42841 0.97865 0.0
N1596 N 0.47386 0.3968 0.93318 0.0
N1597 N 0.5401 0.40607 0.06066 0.0
C1598 C 0.48994 0.39805 0.96438 0.0
C1599 C 0.52539 0.40092 0.02827 0.0
N1600 N 0.46618 0.33703 0.96814 0.0
N1601 N 0.56533 0.44627 0.01098 0.0
H1602 H 0.53182 0.39237 0.07984 0.0
H1603 H 0.55927 0.42674 0.06979 0.0
H1604 H 0.57326 0.46324 0.99396 0.0
H1605 H 0.58348 0.44298 0.02895 0.0
H1606 H 0.4568 0.33158 0.94283 0.0
H1607 H 0.46357 0.31466 0.98047 0.0
H1608 H 0.45311 0.37828 0.92371 0.0
H1609 H 0.48193 0.41409 0.91642 0.0
C1610 C 0.91578 0.29879 0.36637 0.0
C1611 C 0.93153 0.27015 0.35698 0.0
C1612 C 0.8973 0.25473 0.3033 0.0
C1613 C 0.87909 0.28076 0.31434 0.0
N1614 N 0.86683 0.32297 0.35921 0.0
N1615 N 0.93493 0.21743 0.31924 0.0
C1616 C 0.88721 0.30177 0.34659 0.0
C1617 C 0.9216 0.24705 0.32622 0.0
N1618 N 0.92847 0.32349 0.3937 0.0
N1619 N 0.89229 0.23843 0.27052 0.0
H1620 H 0.95319 0.21109 0.33529 0.0
H1621 H 0.92603 0.19761 0.29897 0.0
H1622 H 0.87528 0.24418 0.25262 0.0
H1623 H 0.90711 0.22184 0.26018 0.0
H1624 H 0.9199 0.347 0.39961 0.0
H1625 H 0.9494 0.32191 0.40879 0.0
H1626 H 0.87007 0.33588 0.38399 0.0
H1627 H 0.84493 0.32507 0.34622 0.0
C1628 C 0.98236 0.70367 0.52366 0.0
C1629 C 0.97825 0.71252 0.55841 0.0
C1630 C 0.99447 0.65706 0.57036 0.0
C1631 C 0.99447 0.64634 0.5352 0.0
N1632 N 0.98495 0.65722 0.47778 0.0
N1633 N 0.97499 0.69491 0.61387 0.0
C1634 C 0.98735 0.66899 0.51164 0.0
C1635 C 0.98295 0.68849 0.58155 0.0
N1636 N 0.98323 0.72883 0.50251 0.0
N1637 N 0.00573 0.63731 0.59311 0.0
H1638 H 0.96507 0.71683 0.62261 0.0
H1639 H 0.97515 0.67688 0.63106 0.0
H1640 H 0.01465 0.6143 0.58586 0.0
H1641 H 0.00921 0.64548 0.6191 0.0
H1642 H 0.98942 0.72487 0.47787 0.0
H1643 H 0.98085 0.75489 0.51044 0.0
H1644 H 0.9761 0.6709 0.45937 0.0
H1645 H 0.98988 0.63257 0.46819 0.0
C1646 C 0.62938 0.72812 0.88272 0.0
C1647 C 0.59639 0.72825 0.87279 0.0
C1648 C 0.60967 0.74185 0.81676 0.0
C1649 C 0.64225 0.7392 0.82596 0.0
N1650 N 0.68207 0.72255 0.86474 0.0
N1651 N 0.55384 0.73104 0.82929 0.0
C1652 C 0.65187 0.73036 0.85817 0.0
C1653 C 0.58612 0.73365 0.8394 0.0
N1654 N 0.63928 0.72638 0.91569 0.0
N1655 N 0.60157 0.75411 0.78725 0.0
H1656 H 0.53579 0.72743 0.84547 0.0
H1657 H 0.54462 0.73022 0.80425 0.0
H1658 H 0.6181 0.76018 0.76989 0.0
H1659 H 0.57916 0.76093 0.78107 0.0
H1660 H 0.66356 0.73021 0.92531 0.0
H1661 H 0.62322 0.72358 0.93409 0.0
H1662 H 0.68941 0.71266 0.8865 0.0
H1663 H 0.69884 0.72249 0.84696 0.0
C1664 C 0.43992 0.59173 0.64276 0.0
C1665 C 0.43262 0.56404 0.66246 0.0
C1666 C 0.47572 0.53595 0.6395 0.0
C1667 C 0.47954 0.5604 0.61586 0.0
N1668 N 0.46093 0.60924 0.59202 0.0
N1669 N 0.44167 0.50814 0.67826 0.0
C1670 C 0.46087 0.58806 0.6169 0.0
C1671 C 0.44993 0.5356 0.66037 0.0
N1672 N 0.42656 0.62149 0.64853 0.0
N1673 N 0.49753 0.51382 0.64271 0.0
H1674 H 0.42359 0.50745 0.69463 0.0
H1675 H 0.45099 0.48483 0.67497 0.0
H1676 H 0.51754 0.51462 0.62887 0.0
H1677 H 0.49784 0.49744 0.66139 0.0
H1678 H 0.43418 0.64449 0.63815 0.0
H1679 H 0.40948 0.62422 0.66569 0.0
H1680 H 0.44543 0.62734 0.59011 0.0
H1681 H 0.47371 0.60682 0.57104 0.0
C1682 C 0.82215 0.24207 0.88762 0.0
C1683 C 0.79969 0.2355 0.91175 0.0
C1684 C 0.76015 0.25993 0.87639 0.0
C1685 C 0.78441 0.27075 0.85502 0.0
N1686 N 0.84179 0.27985 0.84759 0.0
N1687 N 0.74843 0.24359 0.93142 0.0
C1688 C 0.81636 0.26428 0.86291 0.0
C1689 C 0.76881 0.2456 0.90659 0.0
N1690 N 0.8484 0.22558 0.88687 0.0
N1691 N 0.72902 0.26427 0.8686 0.0
H1692 H 0.75434 0.23481 0.95426 0.0
H1693 H 0.7271 0.25384 0.93089 0.0
H1694 H 0.72213 0.27704 0.84856 0.0
H1695 H 0.70959 0.25324 0.88073 0.0
H1696 H 0.86367 0.22684 0.86765 0.0
H1697 H 0.85259 0.20707 0.90269 0.0
H1698 H 0.86583 0.27857 0.85507 0.0
H1699 H 0.8396 0.2972 0.83018 0.0
C1700 C 0.05228 0.45795 0.15273 0.0
C1701 C 0.04645 0.48037 0.18153 0.0
C1702 C 0.01881 0.5147 0.14475 0.0
C1703 C 0.02767 0.49485 0.11577 0.0
N1704 N 0.0538 0.4479 0.09191 0.0
N1705 N 0.03092 0.53489 0.20474 0.0
C1706 C 0.04488 0.46667 0.11973 0.0
C1707 C 0.03142 0.50994 0.17748 0.0
N1708 N 0.06349 0.42745 0.15686 0.0
N1709 N -0.00175 0.53813 0.14139 0.0
H1710 H 0.04104 0.53333 0.229 0.0
H1711 H 0.02372 0.55906 0.2027 0.0
H1712 H 0.98947 0.54429 0.11829 0.0
H1713 H 0.98792 0.54975 0.16169 0.0
H1714 H 0.06496 0.40789 0.137 0.0
H1715 H 0.06914 0.4203 0.18056 0.0
H1716 H 0.07002 0.43048 0.09319 0.0
H1717 H 0.04592 0.45065 0.06722 0.0
C1718 C 0.74655 0.8394 0.45617 0.0
C1719 C 0.77106 0.83286 0.47971 0.0
C1720 C 0.78687 0.79054 0.43644 0.0
C1721 C 0.76748 0.80311 0.41173 0.0
N1722 N 0.7289 0.84003 0.39741 0.0
N1723 N 0.79825 0.78656 0.49584 0.0
C1724 C 0.74679 0.82715 0.42138 0.0
C1725 C 0.78665 0.80373 0.47105 0.0
N1726 N 0.72155 0.85449 0.46727 0.0
N1727 N 0.80587 0.76647 0.42682 0.0
H1728 H 0.79373 0.79217 0.52095 0.0
H1729 H 0.80786 0.76358 0.4911 0.0
H1730 H 0.80492 0.75422 0.40196 0.0
H1731 H 0.8237 0.75994 0.44319 0.0
H1732 H 0.70173 0.85756 0.45134 0.0
H1733 H 0.71805 0.85869 0.49281 0.0
H1734 H 0.71658 0.86085 0.4031 0.0
H1735 H 0.72836 0.83201 0.37153 0.0
C1736 C 0.39668 0.52712 0.84631 0.0
C1737 C 0.40303 0.55583 0.82784 0.0
C1738 C 0.44791 0.58538 0.86989 0.0
C1739 C 0.44502 0.55394 0.88477 0.0
N1740 N 0.41667 0.49515 0.88929 0.0
N1741 N 0.43316 0.61314 0.8214 0.0
C1742 C 0.41918 0.52495 0.87383 0.0
C1743 C 0.42797 0.58551 0.83969 0.0
N1744 N 0.36897 0.50238 0.83769 0.0
N1745 N 0.46953 0.61488 0.88473 0.0
H1746 H 0.41788 0.61491 0.80009 0.0
H1747 H 0.45321 0.6336 0.82641 0.0
H1748 H 0.48468 0.61522 0.90675 0.0
H1749 H 0.47077 0.63968 0.87691 0.0
H1750 H 0.36136 0.48219 0.8517 0.0
H1751 H 0.35196 0.50404 0.81789 0.0
H1752 H 0.40085 0.47154 0.87996 0.0
H1753 H 0.43151 0.49333 0.91089 0.0
C1754 C 0.78517 0.207 0.10492 0.0
C1755 C 0.80384 0.22948 0.08527 0.0
C1756 C 0.8018 0.28021 0.12922 0.0
C1757 C 0.78054 0.25803 0.14677 0.0
N1758 N 0.7448 0.20144 0.14446 0.0
N1759 N 0.82213 0.28976 0.07549 0.0
C1760 C 0.76964 0.22198 0.13217 0.0
C1761 C 0.81008 0.26679 0.09657 0.0
N1762 N 0.78413 0.17122 0.09954 0.0
N1763 N 0.81392 0.31434 0.14349 0.0
H1764 H 0.82629 0.28152 0.05074 0.0
H1765 H 0.82438 0.31714 0.08115 0.0
H1766 H 0.80677 0.32569 0.16602 0.0
H1767 H 0.8324 0.33055 0.13395 0.0
H1768 H 0.77339 0.15416 0.11527 0.0
H1769 H 0.79755 0.15906 0.08241 0.0
H1770 H 0.73394 0.17623 0.13238 0.0
H1771 H 0.73312 0.21049 0.1648 0.0
C1772 C 0.03186 0.48618 0.37962 0.0
C1773 C 0.05334 0.51275 0.36702 0.0
C1774 C 0.04397 0.55757 0.41258 0.0
C1775 C 0.02231 0.53099 0.42497 0.0
N1776 N 0.99085 0.47167 0.41727 0.0
N1777 N 0.08342 0.57227 0.3729 0.0
C1778 C 0.01509 0.49568 0.40779 0.0
C1779 C 0.06026 0.54816 0.38378 0.0
N1780 N 0.02816 0.45156 0.36512 0.0
N1781 N 0.04807 0.59192 0.42783 0.0
H1782 H 0.0956 0.566 0.35195 0.0
H1783 H 0.09211 0.59774 0.38543 0.0
H1784 H 0.03702 0.59937 0.44929 0.0
H1785 H 0.06107 0.61341 0.41863 0.0
H1786 H 0.01653 0.43025 0.37569 0.0
H1787 H 0.03866 0.44358 0.34344 0.0
H1788 H 0.98175 0.44676 0.40363 0.0
H1789 H 0.97757 0.47747 0.4374 0.0
C1790 C 0.73683 0.80359 0.61121 0.0
C1791 C 0.73618 0.84022 0.61995 0.0
C1792 C 0.70291 0.82525 0.66505 0.0
C1793 C 0.71331 0.7924 0.66329 0.0
N1794 N 0.73505 0.7469 0.63178 0.0
N1795 N 0.71634 0.88605 0.65491 0.0
C1796 C 0.72777 0.78009 0.6347 0.0
C1797 C 0.71773 0.85112 0.64618 0.0
N1798 N 0.74639 0.79166 0.58079 0.0
N1799 N 0.67995 0.83184 0.6858 0.0
H1800 H 0.72724 0.90607 0.64225 0.0
H1801 H 0.7061 0.89542 0.67627 0.0
H1802 H 0.66828 0.81192 0.69816 0.0
H1803 H 0.66998 0.85477 0.68722 0.0
H1804 H 0.74549 0.76495 0.57215 0.0
H1805 H 0.75209 0.80841 0.5628 0.0
H1806 H 0.74916 0.73746 0.61376 0.0
H1807 H 0.72758 0.72941 0.64867 0.0
C1808 C 0.64659 0.48892 0.52469 0.0
C1809 C 0.64313 0.45815 0.54095 0.0
C1810 C 0.59413 0.47463 0.56409 0.0
C1811 C 0.59741 0.50512 0.54723 0.0
N1812 N 0.63415 0.54731 0.52253 0.0
N1813 N 0.61176 0.4193 0.57326 0.0
C1814 C 0.62563 0.51392 0.53049 0.0
C1815 C 0.61623 0.45024 0.55975 0.0
N1816 N 0.6694 0.49368 0.50245 0.0
N1817 N 0.57192 0.47112 0.58701 0.0
H1818 H 0.62781 0.40156 0.57095 0.0
H1819 H 0.59116 0.40985 0.58446 0.0
H1820 H 0.55832 0.4907 0.59328 0.0
H1821 H 0.56922 0.45119 0.60226 0.0
H1822 H 0.67073 0.51329 0.48676 0.0
H1823 H 0.68474 0.47565 0.49698 0.0
H1824 H 0.65639 0.55655 0.5141 0.0
H1825 H 0.62072 0.56719 0.52767 0.0
C1826 C 0.16716 0.04923 0.45474 0.0
C1827 C 0.17539 0.08501 0.449 0.0
C1828 C 0.12231 0.09558 0.46406 0.0
C1829 C 0.11337 0.0591 0.46694 0.0
N1830 N 0.12352 -0.00029 0.45428 0.0
N1831 N 0.15867 0.14037 0.44152 0.0
C1832 C 0.13466 0.03542 0.45906 0.0
C1833 C 0.1523 0.10769 0.45168 0.0
N1834 N 0.19047 0.0289 0.45813 0.0
N1835 N 0.10272 0.11883 0.47416 0.0
H1836 H 0.18019 0.14984 0.43172 0.0
H1837 H 0.14143 0.15659 0.43977 0.0
H1838 H 0.08043 0.11092 0.4831 0.0
H1839 H 0.10968 0.14623 0.4762 0.0
H1840 H 0.18576 0.00383 0.4656 0.0
H1841 H 0.21509 0.03829 0.45731 0.0
H1842 H 0.13751 0.98132 0.44565 0.0
H1843 H 0.09915 0.98887 0.45483 0.0
C1844 C 0.2322 0.92395 0.76905 0.0
C1845 C 0.22416 0.93122 0.80267 0.0
C1846 C 0.26033 0.8919 0.82066 0.0
C1847 C 0.263 0.87914 0.78609 0.0
N1848 N 0.25134 0.88405 0.72699 0.0
N1849 N 0.22644 0.91611 0.85959 0.0
C1850 C 0.24866 0.89529 0.76016 0.0
C1851 C 0.23751 0.91408 0.82834 0.0
N1852 N 0.22583 0.94574 0.74601 0.0
N1853 N 0.27838 0.88228 0.84671 0.0
H1854 H 0.20583 0.92617 0.86528 0.0
H1855 H 0.23477 0.90331 0.87893 0.0
H1856 H 0.29192 0.86231 0.84472 0.0
H1857 H 0.28138 0.89612 0.87112 0.0
H1858 H 0.2337 0.94384 0.72199 0.0
H1859 H 0.21605 0.96843 0.75219 0.0
H1860 H 0.23758 0.89124 0.70709 0.0
H1861 H 0.26611 0.86621 0.71919 0.0
C1862 C 0.3155 0.93722 0.97643 0.0
C1863 C 0.30009 0.95282 0.00298 0.0
C1864 C 0.34663 0.00139 0.01663 0.0
C1865 C 0.36426 0.98235 0.99448 0.0
N1866 N 0.36634 0.93139 0.95378 0.0
N1867 N 0.30053 -0.00074 0.04925 0.0
C1868 C 0.34883 0.95029 0.97402 0.0
C1869 C 0.31536 0.98504 0.02309 0.0
N1870 N 0.29805 0.91027 0.95341 0.0
N1871 N 0.35949 0.03547 0.03071 0.0
H1872 H 0.27703 0.98884 0.05396 0.0
H1873 H 0.31217 0.02014 0.06746 0.0
H1874 H 0.3819 0.04868 0.02547 0.0
H1875 H 0.34666 0.05186 0.04467 0.0
H1876 H 0.30709 0.89933 0.93191 0.0
H1877 H 0.2733 0.90142 0.95413 0.0
H1878 H 0.3573 0.90595 0.94121 0.0
H1879 H 0.39078 0.94007 0.95132 0.0
C1880 C 0.83814 0.68012 0.7465 0.0
C1881 C 0.83537 0.65609 0.77081 0.0
C1882 C 0.78487 0.67507 0.78522 0.0
C1883 C 0.78565 0.69611 0.75864 0.0
N1884 N 0.80878 0.71017 0.70791 0.0
N1885 N 0.79833 0.622 0.80312 0.0
C1886 C 0.81103 0.69614 0.73738 0.0
C1887 C 0.80634 0.65084 0.78696 0.0
N1888 N 0.86675 0.68913 0.73318 0.0
N1889 N 0.7648 0.67904 0.81005 0.0
H1890 H 0.81192 0.60196 0.80332 0.0
H1891 H 0.77599 0.6158 0.81256 0.0
H1892 H 0.75028 0.69827 0.81191 0.0
H1893 H 0.76589 0.66629 0.83143 0.0
H1894 H 0.87034 0.7084 0.71724 0.0
H1895 H 0.88781 0.68011 0.74053 0.0
H1896 H 0.82511 0.70792 0.68989 0.0
H1897 H 0.78896 0.72129 0.70026 0.0
C1898 C 0.83707 0.54501 0.00189 0.0
C1899 C 0.84459 0.58231 0.00082 0.0
C1900 C 0.89201 0.58697 0.04109 0.0
C1901 C 0.88766 0.54985 0.03848 0.0
N1902 N 0.8515 0.49407 0.02594 0.0
N1903 N 0.88953 0.63125 0.00534 0.0
C1904 C 0.85849 0.52897 0.02191 0.0
C1905 C 0.87464 0.60176 0.01692 0.0
N1906 N 0.81178 0.52458 0.98083 0.0
N1907 N 0.91359 0.60806 0.06557 0.0
H1908 H 0.88296 0.63606 0.98098 0.0
H1909 H 0.91213 0.6455 0.01613 0.0
H1910 H 0.92538 0.59769 0.08487 0.0
H1911 H 0.91607 0.63561 0.06879 0.0
H1912 H 0.80569 0.49718 0.97905 0.0
H1913 H 0.79893 0.53453 0.96204 0.0
H1914 H 0.82984 0.4771 0.01653 0.0
H1915 H 0.86671 0.48301 0.04176 0.0
C1916 C 0.17664 0.12135 0.80973 0.0
C1917 C 0.18833 0.09057 0.79732 0.0
C1918 C 0.22514 0.12579 0.7642 0.0
C1919 C 0.21584 0.15736 0.77946 0.0
N1920 N 0.18463 0.18513 0.81998 0.0
N1921 N 0.22497 0.06285 0.76462 0.0
C1922 C 0.19222 0.15509 0.8032 0.0
C1923 C 0.21267 0.09253 0.77472 0.0
N1924 N 0.1495 0.11813 0.82656 0.0
N1925 N 0.24641 0.12754 0.74016 0.0
H1926 H 0.21603 0.03809 0.77129 0.0
H1927 H 0.24528 0.0629 0.75144 0.0
H1928 H 0.25871 0.15127 0.73412 0.0
H1929 H 0.25091 0.10543 0.72495 0.0
H1930 H 0.13731 0.13891 0.83283 0.0
H1931 H 0.1371 0.09378 0.83124 0.0
H1932 H 0.17178 0.1852 0.84112 0.0
H1933 H 0.19198 0.21041 0.81391 0.0
C1934 C 0.30871 0.9878 0.27398 0.0
C1935 C 0.34299 0.99439 0.28126 0.0
C1936 C 0.34152 0.93257 0.28939 0.0
C1937 C 0.30748 0.92552 0.28061 0.0
N1938 N 0.25882 0.94433 0.25993 0.0
N1939 N 0.39269 0.9711 0.2873 0.0
C1940 C 0.29101 0.95259 0.27171 0.0
C1941 C 0.35963 0.96615 0.2861 0.0
N1942 N 0.29323 0.01529 0.26901 0.0
N1943 N 0.3564 0.90786 0.30277 0.0
H1944 H 0.40722 0.99512 0.28502 0.0
H1945 H 0.40561 0.9504 0.28712 0.0
H1946 H 0.34393 0.8833 0.30685 0.0
H1947 H 0.38051 0.91303 0.31321 0.0
H1948 H 0.26819 0.01356 0.26788 0.0
H1949 H 0.30584 0.04038 0.26679 0.0
H1950 H 0.246 0.96196 0.24978 0.0
H1951 H 0.2452 0.91885 0.25826 0.0
C1952 C 0.48927 0.33937 0.56031 0.0
C1953 C 0.48076 0.34289 0.59396 0.0
C1954 C 0.4721 0.40334 0.5898 0.0
C1955 C 0.48298 0.40089 0.55715 0.0
N1956 N 0.50579 0.36861 0.5126 0.0
N1957 N 0.46897 0.37975 0.64285 0.0
C1958 C 0.49247 0.36936 0.54259 0.0
C1959 C 0.47379 0.37543 0.60935 0.0
N1960 N 0.49399 0.30724 0.54527 0.0
N1961 N 0.45872 0.43179 0.6015 0.0
H1962 H 0.46927 0.3597 0.65793 0.0
H1963 H 0.46744 0.40404 0.65649 0.0
H1964 H 0.45603 0.4522 0.58741 0.0
H1965 H 0.44729 0.43354 0.62356 0.0
H1966 H 0.49643 0.30152 0.51963 0.0
H1967 H 0.49403 0.28566 0.55841 0.0
H1968 H 0.51657 0.34795 0.50241 0.0
H1969 H 0.50787 0.38981 0.49873 0.0
C1970 C 0.41078 0.80451 0.32771 0.0
C1971 C 0.42716 0.77928 0.31137 0.0
C1972 C 0.37796 0.75568 0.27181 0.0
C1973 C 0.36042 0.77809 0.29083 0.0
N1974 N 0.3594 0.81896 0.34152 0.0
N1975 N 0.42566 0.72809 0.26992 0.0
C1976 C 0.37668 0.80133 0.31995 0.0
C1977 C 0.41054 0.75407 0.28395 0.0
N1978 N 0.42795 0.83211 0.35024 0.0
N1979 N 0.36405 0.73708 0.24139 0.0
H1980 H 0.44972 0.72677 0.27737 0.0
H1981 H 0.41375 0.70653 0.2526 0.0
H1982 H 0.34068 0.73827 0.23131 0.0
H1983 H 0.37665 0.72314 0.2247 0.0
H1984 H 0.41801 0.85349 0.36038 0.0
H1985 H 0.45298 0.83546 0.35601 0.0
H1986 H 0.36944 0.83307 0.36491 0.0
H1987 H 0.33435 0.8165 0.33788 0.0
C1988 C 0.98454 0.66725 0.06632 0.0
C1989 C 0.9847 0.67052 0.10202 0.0
C1990 C 0.01513 0.62161 0.10259 0.0
C1991 C 0.01131 0.61526 0.06657 0.0
N1992 N 0.9889 0.63084 0.01405 0.0
N1993 N 0.99421 0.64563 0.1533 0.0
C1994 C 0.99461 0.63742 0.04845 0.0
C1995 C -0.00152 0.64635 0.11994 0.0
N1996 N 0.97688 0.69386 0.0495 0.0
N1997 N 0.03474 0.60429 0.1206 0.0
H1998 H 0.98112 0.66228 0.16666 0.0
H1999 H 0.00061 0.62603 0.16671 0.0
H2000 H 0.04562 0.58403 0.1098 0.0
H2001 H 0.04165 0.61147 0.14644 0.0
H2002 H 0.97981 0.69486 0.02407 0.0
H2003 H 0.9709 0.71699 0.06153 0.0
H2004 H 0.97268 0.64256 0.00024 0.0
H2005 H -0.0009 0.61262 -0.00077 0.0
C2006 C 0.11549 0.2394 0.79295 0.0
C2007 C 0.10674 0.27303 0.80019 0.0
C2008 C 0.15902 0.30061 0.7826 0.0
C2009 C 0.16563 0.2663 0.77102 0.0
N2010 N 0.14587 0.20269 0.7604 0.0
N2011 N 0.11904 0.33603 0.80031 0.0
C2012 C 0.14261 0.23569 0.77476 0.0
C2013 C 0.12848 0.30385 0.79518 0.0
N2014 N 0.09843 0.21085 0.80466 0.0
N2015 N 0.18112 0.33026 0.78033 0.0
H2016 H 0.09726 0.33934 0.80986 0.0
H2017 H 0.13167 0.35909 0.79329 0.0
H2018 H 0.20115 0.32994 0.76683 0.0
H2019 H 0.18007 0.3553 0.79268 0.0
H2020 H 0.10577 0.18636 0.80348 0.0
H2021 H 0.07906 0.21276 0.81908 0.0
H2022 H 0.12738 0.1806 0.75824 0.0
H2023 H 0.16621 0.19716 0.74926 0.0
C2024 C 0.51694 0.67618 0.01953 0.0
C2025 C 0.48844 0.67546 -0.00228 0.0
C2026 C 0.46713 0.61589 0.00984 0.0
C2027 C 0.49805 0.61389 0.02489 0.0
N2028 N 0.55329 0.64172 0.04421 0.0
N2029 N 0.43842 0.64083 0.96729 0.0
C2030 C 0.52318 0.64409 0.03023 0.0
C2031 C 0.46366 0.64457 0.99198 0.0
N2032 N 0.53779 0.7075 0.03015 0.0
N2033 N 0.44128 0.58996 0.01203 0.0
H2034 H 0.43579 0.65952 0.95123 0.0
H2035 H 0.42195 0.61715 0.96011 0.0
H2036 H 0.44338 0.56933 0.02605 0.0
H2037 H 0.41753 0.59134 0.00346 0.0
H2038 H 0.55761 0.71013 0.04821 0.0
H2039 H 0.53334 0.73154 0.02339 0.0
H2040 H 0.57361 0.66151 0.04485 0.0
H2041 H 0.55826 0.61903 0.05357 0.0
C2042 C 0.11396 0.84952 0.69988 0.0
C2043 C 0.08947 0.82283 0.68129 0.0
C2044 C 0.12204 0.77783 0.69077 0.0
C2045 C 0.14512 0.80405 0.71203 0.0
N2046 N 0.15896 0.8629 0.74367 0.0
N2047 N 0.06624 0.76052 0.66662 0.0
C2048 C 0.13991 0.83938 0.71865 0.0
C2049 C 0.09226 0.78661 0.67897 0.0
N2050 N 0.1132 0.88448 0.69855 0.0
N2051 N 0.12904 0.74524 0.68024 0.0
H2052 H 0.04349 0.76569 0.65876 0.0
H2053 H 0.0663 0.73374 0.66757 0.0
H2054 H 0.1511 0.7379 0.68706 0.0
H2055 H 0.11419 0.72672 0.66188 0.0
H2056 H 0.1324 0.90477 0.70873 0.0
H2057 H 0.09492 0.89291 0.68429 0.0
H2058 H 0.15417 0.88803 0.75147 0.0
H2059 H 0.17729 0.85598 0.75918 0.0
C2060 C 0.97016 0.37119 0.4955 0.0
C2061 C 0.99593 0.35388 0.48515 0.0
C2062 C 0.03189 0.41219 0.49464 0.0
C2063 C 0.00679 0.42804 0.50851 0.0
N2064 N 0.95732 0.41751 0.53528 0.0
N2065 N 0.05434 0.35853 0.48793 0.0
C2066 C 0.97792 0.40567 0.51376 0.0
C2067 C 0.02785 0.37449 0.48893 0.0
N2068 N 0.93825 0.3572 0.48535 0.0
N2069 N 0.05854 0.43221 0.48484 0.0
H2070 H 0.05272 0.33124 0.48702 0.0
H2071 H 0.07799 0.37286 0.49272 0.0
H2072 H 0.06205 0.45962 0.48624 0.0
H2073 H 0.0756 0.42091 0.47187 0.0
H2074 H 0.91968 0.37089 0.49138 0.0
H2075 H 0.93031 0.33555 0.46668 0.0
H2076 H 0.93668 0.401 0.54086 0.0
H2077 H 0.96308 0.44223 0.55036 0.0
C2078 C 0.38083 0.29345 0.14904 0.0
C2079 C 0.4116 0.3149 0.1591 0.0
C2080 C 0.39305 0.33904 0.21203 0.0
C2081 C 0.36207 0.31806 0.20163 0.0
N2082 N 0.32374 0.28382 0.15644 0.0
N2083 N 0.44485 0.36487 0.19531 0.0
C2084 C 0.3551 0.29783 0.16892 0.0
C2085 C 0.41707 0.33985 0.18915 0.0
N2086 N 0.3765 0.26791 0.1214 0.0
N2087 N 0.39998 0.35686 0.24417 0.0
H2088 H 0.46275 0.36683 0.17874 0.0
H2089 H 0.44875 0.38579 0.21511 0.0
H2090 H 0.38273 0.35738 0.26142 0.0
H2091 H 0.4233 0.3691 0.2545 0.0
H2092 H 0.35548 0.24881 0.11513 0.0
H2093 H 0.39494 0.264 0.10623 0.0
H2094 H 0.31691 0.27167 0.13161 0.0
H2095 H 0.30418 0.28781 0.16982 0.0
C2096 C 0.55334 0.47867 0.37067 0.0
C2097 C 0.58405 0.49996 0.36873 0.0
C2098 C 0.58212 0.53125 0.42522 0.0
C2099 C 0.55 0.51239 0.42605 0.0
N2100 N 0.50301 0.47226 0.39691 0.0
N2101 N 0.62458 0.55115 0.39102 0.0
C2102 C 0.53505 0.48712 0.39804 0.0
C2103 C 0.59755 0.52756 0.39512 0.0
N2104 N 0.54207 0.4497 0.34686 0.0
N2105 N 0.5988 0.55136 0.4537 0.0
H2106 H 0.63658 0.54912 0.36933 0.0
H2107 H 0.63322 0.57444 0.40761 0.0
H2108 H 0.5891 0.55437 0.47665 0.0
H2109 H 0.62336 0.56239 0.45543 0.0
H2110 H 0.52157 0.431 0.34878 0.0
H2111 H 0.55479 0.44261 0.32657 0.0
H2112 H 0.4898 0.45647 0.37567 0.0
H2113 H 0.48875 0.47838 0.41614 0.0
C2114 C 0.22209 0.79825 0.12497 0.0
C2115 C 0.24473 0.82787 0.11882 0.0
C2116 C 0.27814 0.8245 0.17159 0.0
C2117 C 0.25477 0.79627 0.17888 0.0
N2118 N 0.2014 0.76023 0.16532 0.0
N2119 N 0.28909 0.87532 0.14193 0.0
C2120 C 0.22574 0.78439 0.15642 0.0
C2121 C 0.27116 0.8428 0.14391 0.0
N2122 N 0.19793 0.78234 0.10025 0.0
N2123 N 0.30776 0.83302 0.19022 0.0
H2124 H 0.28398 0.89033 0.12298 0.0
H2125 H 0.30653 0.88907 0.16111 0.0
H2126 H 0.31405 0.81973 0.21014 0.0
H2127 H 0.32703 0.8509 0.1839 0.0
H2128 H 0.18281 0.75833 0.10144 0.0
H2129 H 0.19442 0.79203 0.07736 0.0
H2130 H 0.17837 0.7534 0.15208 0.0
H2131 H 0.20334 0.74912 0.18761 0.0
C2132 C 0.95482 0.54193 0.86732 0.0
C2133 C 0.96744 0.57519 0.85775 0.0
C2134 C 0.00319 0.59063 0.91138 0.0
C2135 C 0.99071 0.557 0.92058 0.0
N2136 N 0.96059 0.49767 0.90372 0.0
N2137 N 0.00711 0.62911 0.86766 0.0
C2138 C 0.9682 0.53186 0.89749 0.0
C2139 C 0.99269 0.59895 0.87894 0.0
N2140 N 0.92923 0.52022 0.84795 0.0
N2141 N 0.02421 0.61502 0.93402 0.0
H2142 H -0.00041 0.63621 0.84444 0.0
H2143 H 0.02785 0.64586 0.88001 0.0
H2144 H 0.03383 0.60925 0.957 0.0
H2145 H 0.03105 0.64146 0.93089 0.0
H2146 H 0.91583 0.4979 0.85555 0.0
H2147 H 0.92 0.52609 0.82501 0.0
H2148 H 0.94745 0.47699 0.88621 0.0
H2149 H 0.97022 0.48912 0.92522 0.0
C2150 C 0.31624 0.21331 0.59689 0.0
C2151 C 0.29619 0.20779 0.56564 0.0
C2152 C 0.2512 0.22432 0.59559 0.0
C2153 C 0.27158 0.23036 0.62638 0.0
N2154 N 0.32641 0.24521 0.65351 0.0
N2155 N 0.24893 0.22094 0.53477 0.0
C2156 C 0.30505 0.22954 0.62613 0.0
C2157 C 0.265 0.21747 0.56482 0.0
N2158 N 0.34491 0.20132 0.59975 0.0
N2159 N 0.2186 0.22334 0.59558 0.0
H2160 H 0.25912 0.21807 0.51193 0.0
H2161 H 0.22733 0.23069 0.53311 0.0
H2162 H 0.20747 0.22795 0.61758 0.0
H2163 H 0.20232 0.21515 0.57388 0.0
H2164 H 0.35749 0.20073 0.62313 0.0
H2165 H 0.35501 0.18919 0.5797 0.0
H2166 H 0.35149 0.24791 0.65336 0.0
H2167 H 0.3193 0.25945 0.67459 0.0
C2168 C 0.60683 0.47037 0.15584 0.0
C2169 C 0.58928 0.48123 0.18277 0.0
C2170 C 0.55618 0.50916 0.14531 0.0
C2171 C 0.5752 0.50041 0.11898 0.0
N2172 N 0.62117 0.47764 0.09938 0.0
N2173 N 0.5515 0.51614 0.20541 0.0
C2174 C 0.60136 0.48248 0.1243 0.0
C2175 C 0.56504 0.502 0.17818 0.0
N2176 N 0.62793 0.44769 0.16025 0.0
N2177 N 0.52917 0.52351 0.13872 0.0
H2178 H 0.55718 0.51138 0.23002 0.0
H2179 H 0.53658 0.5349 0.20413 0.0
H2180 H 0.5225 0.53063 0.11527 0.0
H2181 H 0.5121 0.52622 0.15583 0.0
H2182 H 0.63904 0.43592 0.1407 0.0
H2183 H 0.63241 0.43833 0.18314 0.0
H2184 H 0.64248 0.46765 0.10269 0.0
H2185 H 0.61763 0.48636 0.076 0.0
C2186 C 0.24257 0.79018 0.92305 0.0
C2187 C 0.22756 0.81961 0.93282 0.0
C2188 C 0.21571 0.824 0.87186 0.0
C2189 C 0.23721 0.8 0.86295 0.0
N2190 N 0.26612 0.75535 0.88021 0.0
N2191 N 0.19331 0.85958 0.91537 0.0
C2192 C 0.24905 0.78164 0.88867 0.0
C2193 C 0.21157 0.83444 0.90684 0.0
N2194 N 0.24898 0.7691 0.94674 0.0
N2195 N 0.19892 0.83703 0.84715 0.0
H2196 H 0.18506 0.86405 0.93894 0.0
H2197 H 0.18523 0.8757 0.8989 0.0
H2198 H 0.20433 0.83617 0.82232 0.0
H2199 H 0.1786 0.84844 0.85098 0.0
H2200 H 0.25735 0.74542 0.94152 0.0
H2201 H 0.24243 0.77348 0.97128 0.0
H2202 H 0.27995 0.74493 0.89778 0.0
H2203 H 0.26673 0.74398 0.85534 0.0
C2204 C 0.95119 0.57639 0.64222 0.0
C2205 C 0.96079 0.56082 0.67066 0.0
C2206 C 0.98674 0.52031 0.63404 0.0
C2207 C 0.97898 0.53774 0.60612 0.0
N2208 N 0.93882 0.56746 0.58165 0.0
N2209 N 0.9786 0.51097 0.69187 0.0
C2210 C 0.95658 0.56128 0.60947 0.0
C2211 C 0.97591 0.53061 0.66605 0.0
N2212 N 0.93809 0.60641 0.64632 0.0
N2213 N 0.00395 0.49346 0.62974 0.0
H2214 H 0.96969 0.51696 0.71503 0.0
H2215 H 0.98686 0.48702 0.68957 0.0
H2216 H 0.0075 0.48149 0.60586 0.0
H2217 H 0.01462 0.48304 0.64959 0.0
H2218 H 0.93379 0.62068 0.62656 0.0
H2219 H 0.93411 0.61877 0.66985 0.0
H2220 H 0.92072 0.58275 0.58285 0.0
H2221 H 0.9384 0.55242 0.55823 0.0
C2222 C 0.29056 0.25155 0.41476 0.0
C2223 C 0.30767 0.22325 0.40864 0.0
C2224 C 0.31616 0.23796 0.35199 0.0
C2225 C 0.29508 0.26294 0.35629 0.0
N2226 N 0.26163 0.29354 0.39106 0.0
N2227 N 0.33341 0.18632 0.37041 0.0
C2228 C 0.28232 0.26995 0.38764 0.0
C2229 C 0.32006 0.21597 0.37722 0.0
N2230 N 0.28269 0.26106 0.44661 0.0
N2231 N 0.33195 0.2344 0.32358 0.0
H2232 H 0.33681 0.1692 0.38795 0.0
H2233 H 0.33852 0.17683 0.3464 0.0
H2234 H 0.32857 0.24773 0.30302 0.0
H2235 H 0.35062 0.22 0.3213 0.0
H2236 H 0.27275 0.2834 0.45363 0.0
H2237 H 0.2886 0.24807 0.4669 0.0
H2238 H 0.24816 0.29663 0.41154 0.0
H2239 H 0.25692 0.30916 0.37248 0.0
C2240 C 0.39397 0.58848 0.53215 0.0
C2241 C 0.38734 0.60883 0.506 0.0
C2242 C 0.4323 0.58797 0.47738 0.0
C2243 C 0.43559 0.56413 0.50109 0.0
N2244 N 0.41498 0.53758 0.54815 0.0
N2245 N 0.39689 0.62097 0.44932 0.0
C2246 C 0.41499 0.56315 0.52755 0.0
C2247 C 0.40582 0.60702 0.47753 0.0
N2248 N 0.38113 0.59429 0.56215 0.0
N2249 N 0.45449 0.59254 0.45452 0.0
H2250 H 0.37683 0.63316 0.44674 0.0
H2251 H 0.40737 0.61703 0.42681 0.0
H2252 H 0.47328 0.57816 0.45277 0.0
H2253 H 0.4558 0.61259 0.43932 0.0
H2254 H 0.38704 0.58245 0.58316 0.0
H2255 H 0.36759 0.61416 0.5674 0.0
H2256 H 0.39831 0.53327 0.56571 0.0
H2257 H 0.42971 0.51853 0.54563 0.0
C2258 C 0.88766 0.9858 0.56807 0.0
C2259 C 0.8657 0.96025 0.54501 0.0
C2260 C 0.90862 0.954 0.50818 0.0
C2261 C 0.92917 0.98314 0.52872 0.0
N2262 N 0.93665 0.03021 0.57596 0.0
N2263 N 0.8537 0.92245 0.49125 0.0
C2264 C 0.91844 -0.00022 0.5583 0.0
C2265 C 0.87571 0.94501 0.51449 0.0
N2266 N 0.87904 0.9969 0.59924 0.0
N2267 N 0.9209 0.93395 0.48357 0.0
H2268 H 0.82957 0.91451 0.49538 0.0
H2269 H 0.85877 0.91368 0.46696 0.0
H2270 H 0.94519 0.93894 0.47903 0.0
H2271 H 0.90793 0.91031 0.47007 0.0
H2272 H 0.8953 0.01251 0.6185 0.0
H2273 H 0.8563 0.98809 0.6069 0.0
H2274 H 0.92835 0.04569 0.59537 0.0
H2275 H 0.95894 0.04196 0.56932 0.0
C2276 C 0.80666 0.14983 0.23822 0.0
C2277 C 0.78891 0.1198 0.24945 0.0
C2278 C 0.74497 0.15262 0.26022 0.0
C2279 C 0.76072 0.18048 0.24402 0.0
N2280 N 0.80192 0.19817 0.20794 0.0
N2281 N 0.73921 0.09051 0.26727 0.0
C2282 C 0.79042 0.17719 0.23055 0.0
C2283 C 0.75738 0.12051 0.25925 0.0
N2284 N 0.83925 0.15306 0.23574 0.0
N2285 N 0.71933 0.15735 0.27802 0.0
H2286 H 0.74768 0.06663 0.26661 0.0
H2287 H 0.7149 0.08853 0.27148 0.0
H2288 H 0.71071 0.18114 0.28108 0.0
H2289 H 0.70892 0.13909 0.29282 0.0
H2290 H 0.85333 0.1762 0.23036 0.0
H2291 H 0.85296 0.13454 0.24254 0.0
H2292 H 0.82222 0.1951 0.19535 0.0
H2293 H 0.78756 0.21385 0.19762 0.0
C2294 C 0.67144 0.07812 0.96586 0.0
C2295 C 0.69648 0.09376 0.99184 0.0
C2296 C 0.6565 0.09667 0.0329 0.0
C2297 C 0.63188 0.07819 0.00756 0.0
N2298 N 0.61671 0.04504 0.95164 0.0
N2299 N 0.71408 0.11268 0.05115 0.0
C2300 C 0.6395 0.06725 0.97444 0.0
C2301 C 0.68937 0.10161 0.0257 0.0
N2302 N 0.67793 0.07468 0.93286 0.0
N2303 N 0.64839 0.11077 0.06336 0.0
H2304 H 0.73851 0.1164 0.04698 0.0
H2305 H 0.71056 0.11521 0.07669 0.0
H2306 H 0.62455 0.10799 0.06948 0.0
H2307 H 0.66487 0.12786 0.08143 0.0
H2308 H 0.65991 0.0675 0.91257 0.0
H2309 H 0.70111 0.08205 0.92561 0.0
H2310 H 0.62181 0.03349 0.92827 0.0
H2311 H 0.59339 0.03521 0.95723 0.0
C2312 C 0.21231 0.4231 0.31178 0.0
C2313 C 0.17869 0.41495 0.30059 0.0
C2314 C 0.18423 0.35387 0.28041 0.0
C2315 C 0.21812 0.362 0.29226 0.0
N2316 N 0.2577 0.39976 0.33441 0.0
N2317 N 0.13117 0.36913 0.28562 0.0
C2318 C 0.23024 0.39526 0.31251 0.0
C2319 C 0.16418 0.37939 0.28801 0.0
N2320 N 0.22749 0.45745 0.32134 0.0
N2321 N 0.17042 0.32185 0.2625 0.0
H2322 H 0.1155 0.38635 0.29235 0.0
H2323 H 0.11947 0.34274 0.28075 0.0
H2324 H 0.18145 0.29999 0.2608 0.0
H2325 H 0.14759 0.31712 0.24883 0.0
H2326 H 0.2526 0.46472 0.32671 0.0
H2327 H 0.21548 0.47879 0.32058 0.0
H2328 H 0.26614 0.42293 0.35128 0.0
H2329 H 0.2689 0.3787 0.33958 0.0
C2330 C 0.15926 0.4561 0.02262 0.0
C2331 C 0.18855 0.48023 0.03443 0.0
C2332 C 0.16512 0.52819 0.01293 0.0
C2333 C 0.13554 0.50406 0.00278 0.0
N2334 N 0.1122 0.44314 0.98135 0.0
N2335 N 0.22289 0.53597 0.02984 0.0
C2336 C 0.13508 0.46732 0.00215 0.0
C2337 C 0.19261 0.51546 0.02641 0.0
N2338 N 0.15358 0.42314 0.03224 0.0
N2339 N 0.16709 0.56303 0.00915 0.0
H2340 H 0.24383 0.52682 0.03753 0.0
H2341 H 0.22778 0.56067 0.02174 0.0
H2342 H 0.14938 0.57189 0.99444 0.0
H2343 H 0.18615 0.58293 0.02051 0.0
H2344 H 0.13122 0.4061 0.02657 0.0
H2345 H 0.16974 0.41429 0.04883 0.0
H2346 H 0.11216 0.41598 0.97863 0.0
H2347 H 0.09648 0.45066 0.96327 0.0
C2348 C 0.79178 0.92398 0.23213 0.0
C2349 C 0.81388 0.94481 0.25869 0.0
C2350 C 0.81711 0.89176 0.28583 0.0
C2351 C 0.79242 0.87146 0.26122 0.0
N2352 N 0.75303 0.86937 0.21347 0.0
N2353 N 0.84646 0.94898 0.31221 0.0
C2354 C 0.77916 0.88774 0.23473 0.0
C2355 C 0.82621 0.92875 0.2858 0.0
N2356 N 0.78251 0.93893 0.20468 0.0
N2357 N 0.83316 0.87561 0.30865 0.0
H2358 H 0.8573 0.97521 0.31208 0.0
H2359 H 0.85142 0.94032 0.33531 0.0
H2360 H 0.82701 0.84905 0.31121 0.0
H2361 H 0.85466 0.88775 0.32332 0.0
H2362 H 0.76938 0.92445 0.18276 0.0
H2363 H 0.78993 0.96569 0.20283 0.0
H2364 H 0.74002 0.8807 0.19594 0.0
H2365 H 0.74237 0.84338 0.21523 0.0
C2366 C 0.67373 0.11882 0.81879 0.0
C2367 C 0.67529 0.08487 0.80157 0.0
C2368 C 0.70763 0.11257 0.76028 0.0
C2369 C 0.70795 0.14634 0.7788 0.0
N2370 N 0.69286 0.18232 0.82657 0.0
N2371 N 0.69821 0.04885 0.75975 0.0
C2372 C 0.69163 0.14962 0.80845 0.0
C2373 C 0.69335 0.08158 0.77323 0.0
N2374 N 0.6537 0.12177 0.84384 0.0
N2375 N 0.72085 0.11014 0.73021 0.0
H2376 H 0.68892 0.02565 0.76913 0.0
H2377 H 0.71382 0.04484 0.74138 0.0
H2378 H 0.7327 0.13216 0.72069 0.0
H2379 H 0.71811 0.08668 0.71353 0.0
H2380 H 0.64817 0.14566 0.85453 0.0
H2381 H 0.64059 0.10002 0.85261 0.0
H2382 H 0.68587 0.18619 0.85087 0.0
H2383 H 0.70205 0.20594 0.81792 0.0
loop_
_geom_bond_atom_site_label_1
_geom_bond_atom_site_label_2
_geom_bond_distance
_geom_bond_site_symmetry_2
_ccdc_geom_bond_type
Mg0 O1 2.028 . S
Mg0 O7 1.986 . S
Mg0 O9 2.114 1_455 S
Mg0 O10 2.251 1_455 S
Mg0 O13 2.010 . S
O1 Mg0 2.028 . S
O1 C4 1.250 . S
O2 Mg3 2.028 . S
O2 C4 1.248 1_655 S
Mg3 O2 2.028 . S
Mg3 O8 2.032 . S
Mg3 O10 2.079 . S
C4 O1 1.250 . S
C4 O2 1.248 1_455 S
C5 O6 1.264 . S
C5 O13 1.249 . S
O6 C5 1.264 . S
O7 Mg0 1.986 . S
O7 C11 1.246 . S
O8 Mg3 2.032 . S
O8 C11 1.259 1_655 S
O9 Mg0 2.114 1_655 S
O9 C12 1.252 . S
O10 Mg0 2.251 1_655 S
O10 Mg3 2.079 . S
O10 C12 1.273 . S
C11 O7 1.246 . S
C11 O8 1.259 1_455 S
C12 O9 1.252 . S
C12 O10 1.273 . S
O13 Mg0 2.010 . S
O13 C5 1.249 . S
Mg14 O15 2.028 . S
Mg14 O21 1.986 . S
Mg14 O23 2.114 1_455 S
Mg14 O24 2.251 1_455 S
Mg14 O27 2.010 . S
O15 Mg14 2.028 . S
O15 C18 1.250 1_455 S
O16 Mg17 2.028 . S
O16 C18 1.248 . S
Mg17 O16 2.028 . S
Mg17 O22 2.032 . S
Mg17 O24 2.079 . S
C18 O15 1.250 1_655 S
C18 O16 1.248 . S
C19 O20 1.264 . S
C19 O27 1.249 . S
O20 C19 1.264 . S
O21 Mg14 1.986 . S
O21 C25 1.246 1_455 S
O22 Mg17 2.032 . S
O22 C25 1.259 . S
O23 Mg14 2.114 1_655 S
O23 C26 1.252 . S
O24 Mg14 2.251 1_655 S
O24 Mg17 2.079 . S
O24 C26 1.273 . S
C25 O21 1.246 1_655 S
C25 O22 1.259 . S
C26 O23 1.252 . S
C26 O24 1.273 . S
O27 Mg14 2.010 . S
O27 C19 1.249 . S
Mg28 O29 2.028 . S
Mg28 O35 1.986 . S
Mg28 O37 2.114 . S
Mg28 O38 2.251 . S
Mg28 O41 2.010 . S
O29 Mg28 2.028 . S
O29 C32 1.250 . S
O30 Mg31 2.028 . S
O30 C32 1.248 . S
Mg31 O30 2.028 . S
Mg31 O36 2.032 . S
Mg31 O38 2.079 . S
C32 O29 1.250 . S
C32 O30 1.248 . S
C33 O34 1.264 . S
C33 O41 1.249 . S
O34 C33 1.264 . S
O35 Mg28 1.986 . S
O35 C39 1.246 . S
O36 Mg31 2.032 . S
O36 C39 1.259 . S
O37 Mg28 2.114 . S
O37 C40 1.252 . S
O38 Mg28 2.251 . S
O38 Mg31 2.079 . S
O38 C40 1.273 . S
C39 O35 1.246 . S
C39 O36 1.259 . S
C40 O37 1.252 . S
C40 O38 1.273 . S
O41 Mg28 2.010 . S
O41 C33 1.249 . S
Mg42 O43 2.028 . S
Mg42 O49 1.986 . S
Mg42 O51 2.114 . S
Mg42 O52 2.251 . S
Mg42 O55 2.010 . S
O43 Mg42 2.028 . S
O43 C46 1.250 . S
O44 Mg45 2.028 . S
O44 C46 1.248 . S
Mg45 O44 2.028 . S
Mg45 O50 2.032 . S
Mg45 O52 2.079 . S
C46 O43 1.250 . S
C46 O44 1.248 . S
C47 O48 1.264 . S
C47 O55 1.249 . S
O48 C47 1.264 . S
O49 Mg42 1.986 . S
O49 C53 1.246 . S
O50 Mg45 2.032 . S
O50 C53 1.259 . S
O51 Mg42 2.114 . S
O51 C54 1.252 . S
O52 Mg42 2.251 . S
O52 Mg45 2.079 . S
O52 C54 1.273 . S
C53 O49 1.246 . S
C53 O50 1.259 . S
C54 O51 1.252 . S
C54 O52 1.273 . S
O55 Mg42 2.010 . S
O55 C47 1.249 . S
Mg56 O57 2.028 . S
Mg56 O63 1.986 . S
Mg56 O65 2.114 1_455 S
Mg56 O66 2.251 1_455 S
Mg56 O69 2.010 . S
O57 Mg56 2.028 . S
O57 C60 1.250 1_455 S
O58 Mg59 2.028 . S
O58 C60 1.248 . S
Mg59 O58 2.028 . S
Mg59 O64 2.032 . S
Mg59 O66 2.079 . S
C60 O57 1.250 1_655 S
C60 O58 1.248 . S
C61 O62 1.264 . S
C61 O69 1.249 . S
O62 C61 1.264 . S
O63 Mg56 1.986 . S
O63 C67 1.246 . S
O64 Mg59 2.032 . S
O64 C67 1.259 1_655 S
O65 Mg56 2.114 1_655 S
O65 C68 1.252 . S
O66 Mg56 2.251 1_655 S
O66 Mg59 2.079 . S
O66 C68 1.273 . S
C67 O63 1.246 . S
C67 O64 1.259 1_455 S
C68 O65 1.252 . S
C68 O66 1.273 . S
O69 Mg56 2.010 . S
O69 C61 1.249 . S
Mg70 O71 2.028 . S
Mg70 O77 1.986 . S
Mg70 O79 2.114 . S
Mg70 O80 2.251 . S
Mg70 O83 2.010 . S
O71 Mg70 2.028 . S
O71 C74 1.250 . S
O72 Mg73 2.028 . S
O72 C74 1.248 . S
Mg73 O72 2.028 . S
Mg73 O78 2.032 . S
Mg73 O80 2.079 . S
C74 O71 1.250 . S
C74 O72 1.248 . S
C75 O76 1.264 . S
C75 O83 1.249 . S
O76 C75 1.264 . S
O77 Mg70 1.986 . S
O77 C81 1.246 . S
O78 Mg73 2.032 . S
O78 C81 1.259 . S
O79 Mg70 2.114 . S
O79 C82 1.252 . S
O80 Mg70 2.251 . S
O80 Mg73 2.079 . S
O80 C82 1.273 . S
C81 O77 1.246 . S
C81 O78 1.259 . S
C82 O79 1.252 . S
C82 O80 1.273 . S
O83 Mg70 2.010 . S
O83 C75 1.249 . S
Mg84 O85 2.028 . S
Mg84 O91 1.986 . S
Mg84 O93 2.114 . S
Mg84 O94 2.251 . S
Mg84 O97 2.010 . S
O85 Mg84 2.028 . S
O85 C88 1.250 . S
O86 Mg87 2.028 . S
O86 C88 1.248 . S
Mg87 O86 2.028 . S
Mg87 O92 2.032 . S
Mg87 O94 2.079 . S
C88 O85 1.250 . S
C88 O86 1.248 . S
C89 O90 1.264 . S
C89 O97 1.249 . S
O90 C89 1.264 . S
O91 Mg84 1.986 . S
O91 C95 1.246 . S
O92 Mg87 2.032 . S
O92 C95 1.259 . S
O93 Mg84 2.114 . S
O93 C96 1.252 . S
O94 Mg84 2.251 . S
O94 Mg87 2.079 . S
O94 C96 1.273 . S
C95 O91 1.246 . S
C95 O92 1.259 . S
C96 O93 1.252 . S
C96 O94 1.273 . S
O97 Mg84 2.010 . S
O97 C89 1.249 . S
Mg98 O99 2.028 . S
Mg98 O105 1.986 . S
Mg98 O107 2.114 1_455 S
Mg98 O108 2.251 1_455 S
Mg98 O111 2.010 . S
O99 Mg98 2.028 . S
O99 C102 1.250 . S
O100 Mg101 2.028 . S
O100 C102 1.248 1_655 S
Mg101 O100 2.028 . S
Mg101 O106 2.032 . S
Mg101 O108 2.079 . S
C102 O99 1.250 . S
C102 O100 1.248 1_455 S
C103 O104 1.264 . S
C103 O111 1.249 . S
O104 C103 1.264 . S
O105 Mg98 1.986 . S
O105 C109 1.246 . S
O106 Mg101 2.032 . S
O106 C109 1.259 1_655 S
O107 Mg98 2.114 1_655 S
O107 C110 1.252 . S
O108 Mg98 2.251 1_655 S
O108 Mg101 2.079 . S
O108 C110 1.273 . S
C109 O105 1.246 . S
C109 O106 1.259 1_455 S
C110 O107 1.252 . S
C110 O108 1.273 . S
O111 Mg98 2.010 . S
O111 C103 1.249 . S
Mg112 O113 2.028 . S
Mg112 O119 1.986 . S
Mg112 O121 2.114 . S
Mg112 O122 2.251 . S
Mg112 O125 2.010 . S
O113 Mg112 2.028 . S
O113 C116 1.264 . S
O114 Mg115 2.028 . S
O114 C116 1.256 . S
Mg115 O114 2.028 . S
Mg115 O120 2.032 . S
Mg115 O122 2.079 . S
C116 O113 1.264 . S
C116 O114 1.256 . S
C117 O118 1.264 . S
C117 O125 1.249 . S
O118 C117 1.264 . S
O119 Mg112 1.986 . S
O119 C123 1.246 . S
O120 Mg115 2.032 . S
O120 C123 1.259 . S
O121 Mg112 2.114 . S
O121 C124 1.252 . S
O122 Mg112 2.251 . S
O122 Mg115 2.079 . S
O122 C124 1.273 . S
C123 O119 1.246 . S
C123 O120 1.259 . S
C124 O121 1.252 . S
C124 O122 1.273 . S
O125 Mg112 2.010 . S
O125 C117 1.249 . S
Mg126 O127 2.028 . S
Mg126 O133 1.986 . S
Mg126 O135 2.114 . S
Mg126 O136 2.251 . S
Mg126 O139 2.010 . S
O127 Mg126 2.028 . S
O127 C130 1.250 . S
O128 Mg129 2.028 . S
O128 C130 1.248 . S
Mg129 O128 2.028 . S
Mg129 O134 2.032 . S
Mg129 O136 2.079 . S
C130 O127 1.250 . S
C130 O128 1.248 . S
C131 O132 1.264 . S
C131 O139 1.249 . S
O132 C131 1.264 . S
O133 Mg126 1.986 . S
O133 C137 1.246 . S
O134 Mg129 2.032 . S
O134 C137 1.259 . S
O135 Mg126 2.114 . S
O135 C138 1.252 . S
O136 Mg126 2.251 . S
O136 Mg129 2.079 . S
O136 C138 1.273 . S
C137 O133 1.246 . S
C137 O134 1.259 . S
C138 O135 1.252 . S
C138 O136 1.273 . S
O139 Mg126 2.010 . S
O139 C131 1.249 . S
Mg140 O141 2.028 1_565 S
Mg140 O147 1.986 . S
Mg140 O149 2.114 1_565 S
Mg140 O150 2.251 . S
Mg140 O153 2.010 . S
O141 Mg140 2.028 1_545 S
O141 C144 1.250 . S
O142 Mg143 2.028 . S
O142 C144 1.248 . S
Mg143 O142 2.028 . S
Mg143 O148 2.032 1_545 S
Mg143 O150 2.079 1_545 S
C144 O141 1.250 . S
C144 O142 1.248 . S
C145 O146 1.264 . S
C145 O153 1.249 . S
O146 C145 1.264 . S
O147 Mg140 1.986 . S
O147 C151 1.246 . S
O148 Mg143 2.032 1_565 S
O148 C151 1.259 . S
O149 Mg140 2.114 1_545 S
O149 C152 1.252 . S
O150 Mg140 2.251 . S
O150 Mg143 2.079 1_565 S
O150 C152 1.273 1_565 S
C151 O147 1.246 . S
C151 O148 1.259 . S
C152 O149 1.252 . S
C152 O150 1.273 1_545 S
O153 Mg140 2.010 . S
O153 C145 1.249 . S
Mg154 O155 2.028 . S
Mg154 O161 1.986 . S
Mg154 O163 2.114 . S
Mg154 O164 2.251 . S
Mg154 O167 2.010 . S
O155 Mg154 2.028 . S
O155 C158 1.250 1_554 S
O156 Mg157 2.028 1_556 S
O156 C158 1.248 . S
Mg157 O156 2.028 1_554 S
Mg157 O162 2.032 . S
Mg157 O164 2.079 . S
C158 O155 1.250 1_556 S
C158 O156 1.248 . S
C159 O160 1.264 . S
C159 O167 1.249 . S
O160 C159 1.264 . S
O161 Mg154 1.986 . S
O161 C165 1.246 . S
O162 Mg157 2.032 . S
O162 C165 1.259 . S
O163 Mg154 2.114 . S
O163 C166 1.252 . S
O164 Mg154 2.251 . S
O164 Mg157 2.079 . S
O164 C166 1.273 . S
C165 O161 1.246 . S
C165 O162 1.259 . S
C166 O163 1.252 . S
C166 O164 1.273 . S
O167 Mg154 2.010 . S
O167 C159 1.249 . S
Mg168 O169 2.028 . S
Mg168 O175 1.986 . S
Mg168 O177 2.114 . S
Mg168 O178 2.251 . S
Mg168 O181 2.010 . S
O169 Mg168 2.028 . S
O169 C172 1.250 1_554 S
O170 Mg171 2.028 1_556 S
O170 C172 1.248 . S
Mg171 O170 2.028 1_554 S
Mg171 O176 2.032 . S
Mg171 O178 2.079 . S
C172 O169 1.250 1_556 S
C172 O170 1.248 . S
C173 O174 1.264 . S
C173 O181 1.249 . S
O174 C173 1.264 . S
O175 Mg168 1.986 . S
O175 C179 1.246 . S
O176 Mg171 2.032 . S
O176 C179 1.259 . S
O177 Mg168 2.114 . S
O177 C180 1.252 . S
O178 Mg168 2.251 . S
O178 Mg171 2.079 . S
O178 C180 1.273 . S
C179 O175 1.246 . S
C179 O176 1.259 . S
C180 O177 1.252 . S
C180 O178 1.273 . S
O181 Mg168 2.010 . S
O181 C173 1.249 . S
Mg182 O183 2.028 1_556 S
Mg182 O189 1.986 . S
Mg182 O191 2.114 1_556 S
Mg182 O192 2.251 . S
Mg182 O195 2.010 . S
O183 Mg182 2.028 1_554 S
O183 C186 1.250 . S
O184 Mg185 2.028 . S
O184 C186 1.248 . S
Mg185 O184 2.028 . S
Mg185 O190 2.032 1_554 S
Mg185 O192 2.079 1_554 S
C186 O183 1.250 . S
C186 O184 1.248 . S
C187 O188 1.264 . S
C187 O195 1.249 . S
O188 C187 1.264 . S
O189 Mg182 1.986 . S
O189 C193 1.246 . S
O190 Mg185 2.032 1_556 S
O190 C193 1.259 . S
O191 Mg182 2.114 1_554 S
O191 C194 1.252 . S
O192 Mg182 2.251 . S
O192 Mg185 2.079 1_556 S
O192 C194 1.273 1_556 S
C193 O189 1.246 . S
C193 O190 1.259 . S
C194 O191 1.252 . S
C194 O192 1.273 1_554 S
O195 Mg182 2.010 . S
O195 C187 1.249 . S
Mg196 O197 2.028 . S
Mg196 O203 1.986 . S
Mg196 O205 2.114 . S
Mg196 O206 2.251 . S
Mg196 O209 2.010 . S
O197 Mg196 2.028 . S
O197 C200 1.250 . S
O198 Mg199 2.028 . S
O198 C200 1.248 . S
Mg199 O198 2.028 . S
Mg199 O204 2.032 . S
Mg199 O206 2.079 . S
C200 O197 1.250 . S
C200 O198 1.248 . S
C201 O202 1.264 . S
C201 O209 1.249 . S
O202 C201 1.264 . S
O203 Mg196 1.986 . S
O203 C207 1.246 . S
O204 Mg199 2.032 . S
O204 C207 1.259 . S
O205 Mg196 2.114 . S
O205 C208 1.252 . S
O206 Mg196 2.251 . S
O206 Mg199 2.079 . S
O206 C208 1.273 . S
C207 O203 1.246 . S
C207 O204 1.259 . S
C208 O205 1.252 . S
C208 O206 1.273 . S
O209 Mg196 2.010 . S
O209 C201 1.249 . S
Mg210 O211 2.028 . S
Mg210 O217 1.986 . S
Mg210 O219 2.114 . S
Mg210 O220 2.251 . S
Mg210 O223 2.010 . S
O211 Mg210 2.028 . S
O211 C214 1.250 . S
O212 Mg213 2.028 . S
O212 C214 1.248 . S
Mg213 O212 2.028 . S
Mg213 O218 2.032 . S
Mg213 O220 2.079 . S
C214 O211 1.250 . S
C214 O212 1.248 . S
C215 O216 1.264 . S
C215 O223 1.249 . S
O216 C215 1.264 . S
O217 Mg210 1.986 . S
O217 C221 1.246 . S
O218 Mg213 2.032 . S
O218 C221 1.259 . S
O219 Mg210 2.114 . S
O219 C222 1.252 . S
O220 Mg210 2.251 . S
O220 Mg213 2.079 . S
O220 C222 1.273 . S
C221 O217 1.246 . S
C221 O218 1.259 . S
C222 O219 1.252 . S
C222 O220 1.273 . S
O223 Mg210 2.010 . S
O223 C215 1.249 . S
Mg224 O225 2.028 . S
Mg224 O231 1.986 . S
Mg224 O233 2.114 . S
Mg224 O234 2.251 . S
Mg224 O237 2.010 . S
O225 Mg224 2.028 . S
O225 C228 1.250 . S
O226 Mg227 2.028 . S
O226 C228 1.248 . S
Mg227 O226 2.028 . S
Mg227 O232 2.032 . S
Mg227 O234 2.079 . S
C228 O225 1.250 . S
C228 O226 1.248 . S
C229 O230 1.264 . S
C229 O237 1.249 . S
O230 C229 1.264 . S
O231 Mg224 1.986 . S
O231 C235 1.246 . S
O232 Mg227 2.032 . S
O232 C235 1.259 . S
O233 Mg224 2.114 . S
O233 C236 1.252 . S
O234 Mg224 2.251 . S
O234 Mg227 2.079 . S
O234 C236 1.273 . S
C235 O231 1.246 . S
C235 O232 1.259 . S
C236 O233 1.252 . S
C236 O234 1.273 . S
O237 Mg224 2.010 . S
O237 C229 1.249 . S
Mg238 O239 2.028 . S
Mg238 O245 1.986 . S
Mg238 O247 2.114 . S
Mg238 O248 2.251 . S
Mg238 O251 2.010 . S
O239 Mg238 2.028 . S
O239 C242 1.250 . S
O240 Mg241 2.028 . S
O240 C242 1.248 . S
Mg241 O240 2.028 . S
Mg241 O246 2.032 . S
Mg241 O248 2.079 . S
C242 O239 1.250 . S
C242 O240 1.248 . S
C243 O244 1.264 . S
C243 O251 1.249 . S
O244 C243 1.264 . S
O245 Mg238 1.986 . S
O245 C249 1.246 . S
O246 Mg241 2.032 . S
O246 C249 1.259 . S
O247 Mg238 2.114 . S
O247 C250 1.252 . S
O248 Mg238 2.251 . S
O248 Mg241 2.079 . S
O248 C250 1.273 . S
C249 O245 1.246 . S
C249 O246 1.259 . S
C250 O247 1.252 . S
C250 O248 1.273 . S
O251 Mg238 2.010 . S
O251 C243 1.249 . S
Mg252 O253 2.028 . S
Mg252 O259 1.986 . S
Mg252 O261 2.114 . S
Mg252 O262 2.251 . S
Mg252 O265 2.010 . S
O253 Mg252 2.028 . S
O253 C256 1.250 . S
O254 Mg255 2.028 . S
O254 C256 1.248 . S
Mg255 O254 2.028 . S
Mg255 O260 2.032 . S
Mg255 O262 2.079 . S
C256 O253 1.250 . S
C256 O254 1.248 . S
C257 O258 1.264 . S
C257 O265 1.249 . S
O258 C257 1.264 . S
O259 Mg252 1.986 . S
O259 C263 1.246 . S
O260 Mg255 2.032 . S
O260 C263 1.259 . S
O261 Mg252 2.114 . S
O261 C264 1.252 . S
O262 Mg252 2.251 . S
O262 Mg255 2.079 . S
O262 C264 1.273 . S
C263 O259 1.246 . S
C263 O260 1.259 . S
C264 O261 1.252 . S
C264 O262 1.273 . S
O265 Mg252 2.010 . S
O265 C257 1.249 . S
Mg266 O267 2.028 1_565 S
Mg266 O273 1.986 . S
Mg266 O275 2.114 1_565 S
Mg266 O276 2.251 1_565 S
Mg266 O279 2.010 . S
O267 Mg266 2.028 1_545 S
O267 C270 1.250 . S
O268 Mg269 2.028 . S
O268 C270 1.248 . S
Mg269 O268 2.028 . S
Mg269 O274 2.032 1_545 S
Mg269 O276 2.079 . S
C270 O267 1.250 . S
C270 O268 1.248 . S
C271 O272 1.264 . S
C271 O279 1.249 . S
O272 C271 1.264 . S
O273 Mg266 1.986 . S
O273 C277 1.246 . S
O274 Mg269 2.032 1_565 S
O274 C277 1.259 . S
O275 Mg266 2.114 1_545 S
O275 C278 1.252 . S
O276 Mg266 2.251 1_545 S
O276 Mg269 2.079 . S
O276 C278 1.273 . S
C277 O273 1.246 . S
C277 O274 1.259 . S
C278 O275 1.252 . S
C278 O276 1.273 . S
O279 Mg266 2.010 . S
O279 C271 1.249 . S
Mg280 O281 2.028 1_556 S
Mg280 O287 1.986 . S
Mg280 O289 2.114 1_556 S
Mg280 O290 2.251 . S
Mg280 O293 2.010 . S
O281 Mg280 2.028 1_554 S
O281 C284 1.250 . S
O282 Mg283 2.028 . S
O282 C284 1.248 . S
Mg283 O282 2.028 . S
Mg283 O288 2.032 1_554 S
Mg283 O290 2.079 1_554 S
C284 O281 1.250 . S
C284 O282 1.248 . S
C285 O286 1.264 . S
C285 O293 1.249 . S
O286 C285 1.264 . S
O287 Mg280 1.986 . S
O287 C291 1.246 . S
O288 Mg283 2.032 1_556 S
O288 C291 1.259 . S
O289 Mg280 2.114 1_554 S
O289 C292 1.252 . S
O290 Mg280 2.251 . S
O290 Mg283 2.079 1_556 S
O290 C292 1.273 1_556 S
C291 O287 1.246 . S
C291 O288 1.259 . S
C292 O289 1.252 . S
C292 O290 1.273 1_554 S
O293 Mg280 2.010 . S
O293 C285 1.249 . S
Mg294 O295 2.028 . S
Mg294 O301 1.986 . S
Mg294 O303 2.114 . S
Mg294 O304 2.251 . S
Mg294 O307 2.010 . S
O295 Mg294 2.028 . S
O295 C298 1.250 . S
O296 Mg297 2.028 . S
O296 C298 1.248 . S
Mg297 O296 2.028 . S
Mg297 O302 2.032 . S
Mg297 O304 2.079 . S
C298 O295 1.250 . S
C298 O296 1.248 . S
C299 O300 1.264 . S
C299 O307 1.249 . S
O300 C299 1.264 . S
O301 Mg294 1.986 . S
O301 C305 1.246 . S
O302 Mg297 2.032 . S
O302 C305 1.259 . S
O303 Mg294 2.114 . S
O303 C306 1.252 . S
O304 Mg294 2.251 . S
O304 Mg297 2.079 . S
O304 C306 1.273 . S
C305 O301 1.246 . S
C305 O302 1.259 . S
C306 O303 1.252 . S
C306 O304 1.273 . S
O307 Mg294 2.010 . S
O307 C299 1.249 . S
Mg308 O309 2.028 . S
Mg308 O315 1.986 . S
Mg308 O317 2.114 . S
Mg308 O318 2.251 . S
Mg308 O321 2.010 . S
O309 Mg308 2.028 . S
O309 C312 1.250 . S
O310 Mg311 2.028 . S
O310 C312 1.248 . S
Mg311 O310 2.028 . S
Mg311 O316 2.032 . S
Mg311 O318 2.079 . S
C312 O309 1.250 . S
C312 O310 1.248 . S
C313 O314 1.264 . S
C313 O321 1.249 . S
O314 C313 1.264 . S
O315 Mg308 1.986 . S
O315 C319 1.246 . S
O316 Mg311 2.032 . S
O316 C319 1.259 . S
O317 Mg308 2.114 . S
O317 C320 1.252 . S
O318 Mg308 2.251 . S
O318 Mg311 2.079 . S
O318 C320 1.273 . S
C319 O315 1.246 . S
C319 O316 1.259 . S
C320 O317 1.252 . S
C320 O318 1.273 . S
O321 Mg308 2.010 . S
O321 C313 1.249 . S
Mg322 O323 2.028 . S
Mg322 O329 1.986 . S
Mg322 O331 2.114 . S
Mg322 O332 2.251 . S
Mg322 O335 2.010 . S
O323 Mg322 2.028 . S
O323 C326 1.250 . S
O324 Mg325 2.028 . S
O324 C326 1.248 . S
Mg325 O324 2.028 . S
Mg325 O330 2.032 . S
Mg325 O332 2.079 . S
C326 O323 1.250 . S
C326 O324 1.248 . S
C327 O328 1.264 . S
C327 O335 1.249 . S
O328 C327 1.264 . S
O329 Mg322 1.986 . S
O329 C333 1.246 . S
O330 Mg325 2.032 . S
O330 C333 1.259 . S
O331 Mg322 2.114 . S
O331 C334 1.252 . S
O332 Mg322 2.251 . S
O332 Mg325 2.079 . S
O332 C334 1.273 . S
C333 O329 1.246 . S
C333 O330 1.259 . S
C334 O331 1.252 . S
C334 O332 1.273 . S
O335 Mg322 2.010 . S
O335 C327 1.249 . S
Tb336 O339 2.453 . S
Tb336 O340 2.596 . S
Tb336 O341 2.374 1_554 S
Tb336 O349 2.343 1_455 S
Tb336 O351 2.353 . S
Tb336 O353 2.427 . S
Tb336 O354 2.513 1_554 S
C337 O341 1.251 . S
C337 O343 1.263 1_445 S
Tb338 O340 2.343 1_665 S
Tb338 O343 2.353 1_554 S
Tb338 O346 2.429 . S
Tb338 O347 2.513 . S
Tb338 O348 2.453 1_564 S
Tb338 O349 2.596 1_565 S
Tb338 O350 2.374 1_565 S
O339 Tb336 2.453 . S
O339 C355 1.245 . S
O340 Tb336 2.596 . S
O340 Tb338 2.343 1_445 S
O340 C355 1.259 . S
O341 Tb336 2.374 1_556 S
O341 C337 1.251 . S
C342 O346 1.300 1_455 S
C342 O347 1.232 1_455 S
O343 C337 1.263 1_665 S
O343 Tb338 2.353 1_556 S
C344 O348 1.245 . S
C344 O349 1.259 1_556 S
C345 O350 1.250 . S
C345 O351 1.263 1_655 S
O346 Tb338 2.429 . S
O346 C342 1.300 1_655 S
O347 Tb338 2.513 . S
O347 C342 1.232 1_655 S
O348 Tb338 2.453 1_546 S
O348 C344 1.245 . S
O349 Tb336 2.343 1_655 S
O349 Tb338 2.596 1_545 S
O349 C344 1.259 1_554 S
O350 Tb338 2.374 1_545 S
O350 C345 1.250 . S
O351 Tb336 2.353 . S
O351 C345 1.263 1_455 S
C352 O353 1.275 1_556 S
C352 O354 1.246 . S
O353 Tb336 2.427 . S
O353 C352 1.275 1_554 S
O354 Tb336 2.513 1_556 S
O354 C352 1.246 . S
C355 O339 1.245 . S
C355 O340 1.259 . S
Tb356 O359 2.453 . S
Tb356 O360 2.596 . S
Tb356 O361 2.374 . S
Tb356 O369 2.343 . S
Tb356 O371 2.353 . S
Tb356 O373 2.427 . S
Tb356 O374 2.513 . S
C357 O361 1.251 . S
C357 O363 1.263 . S
Tb358 O360 2.343 . S
Tb358 O363 2.353 . S
Tb358 O366 2.427 . S
Tb358 O367 2.513 . S
Tb358 O368 2.453 . S
Tb358 O369 2.596 . S
Tb358 O370 2.374 . S
O359 Tb356 2.453 . S
O359 C375 1.245 . S
O360 Tb356 2.596 . S
O360 Tb358 2.343 . S
O360 C375 1.259 . S
O361 Tb356 2.374 . S
O361 C357 1.251 . S
C362 O366 1.275 . S
C362 O367 1.246 . S
O363 C357 1.263 . S
O363 Tb358 2.353 . S
C364 O368 1.245 . S
C364 O369 1.259 . S
C365 O370 1.250 . S
C365 O371 1.263 . S
O366 Tb358 2.427 . S
O366 C362 1.275 . S
O367 Tb358 2.513 . S
O367 C362 1.246 . S
O368 Tb358 2.453 . S
O368 C364 1.245 . S
O369 Tb356 2.343 . S
O369 Tb358 2.596 . S
O369 C364 1.259 . S
O370 Tb358 2.374 . S
O370 C365 1.250 . S
O371 Tb356 2.353 . S
O371 C365 1.263 . S
C372 O373 1.275 . S
C372 O374 1.246 . S
O373 Tb356 2.427 . S
O373 C372 1.275 . S
O374 Tb356 2.513 . S
O374 C372 1.246 . S
C375 O359 1.245 . S
C375 O360 1.259 . S
Tb376 O379 2.453 . S
Tb376 O380 2.596 . S
Tb376 O381 2.374 . S
Tb376 O389 2.343 1_545 S
Tb376 O391 2.353 . S
Tb376 O393 2.427 . S
Tb376 O394 2.513 1_545 S
C377 O381 1.251 . S
C377 O383 1.263 . S
Tb378 O380 2.343 . S
Tb378 O383 2.353 . S
Tb378 O386 2.427 . S
Tb378 O387 2.513 . S
Tb378 O388 2.453 1_545 S
Tb378 O389 2.596 1_545 S
Tb378 O390 2.374 . S
O379 Tb376 2.453 . S
O379 C395 1.245 . S
O380 Tb376 2.596 . S
O380 Tb378 2.343 . S
O380 C395 1.259 . S
O381 Tb376 2.374 . S
O381 C377 1.251 . S
C382 O386 1.275 . S
C382 O387 1.246 . S
O383 C377 1.263 . S
O383 Tb378 2.353 . S
C384 O388 1.245 . S
C384 O389 1.259 . S
C385 O390 1.250 . S
C385 O391 1.263 . S
O386 Tb378 2.427 . S
O386 C382 1.275 . S
O387 Tb378 2.513 . S
O387 C382 1.246 . S
O388 Tb378 2.453 1_565 S
O388 C384 1.245 . S
O389 Tb376 2.343 1_565 S
O389 Tb378 2.596 1_565 S
O389 C384 1.259 . S
O390 Tb378 2.374 . S
O390 C385 1.250 . S
O391 Tb376 2.353 . S
O391 C385 1.263 . S
C392 O393 1.275 1_565 S
C392 O394 1.246 . S
O393 Tb376 2.427 . S
O393 C392 1.275 1_545 S
O394 Tb376 2.513 1_565 S
O394 C392 1.246 . S
C395 O379 1.245 . S
C395 O380 1.259 . S
Tb396 O399 2.453 . S
Tb396 O400 2.596 . S
Tb396 O401 2.374 . S
Tb396 O409 2.343 . S
Tb396 O411 2.353 . S
Tb396 O413 2.427 . S
Tb396 O414 2.513 . S
C397 O401 1.251 . S
C397 O403 1.263 . S
Tb398 O400 2.343 . S
Tb398 O403 2.353 . S
Tb398 O406 2.427 . S
Tb398 O407 2.513 . S
Tb398 O408 2.453 . S
Tb398 O409 2.596 . S
Tb398 O410 2.374 . S
O399 Tb396 2.453 . S
O399 C415 1.245 . S
O400 Tb396 2.596 . S
O400 Tb398 2.343 . S
O400 C415 1.259 . S
O401 Tb396 2.374 . S
O401 C397 1.251 . S
C402 O406 1.275 . S
C402 O407 1.246 . S
O403 C397 1.263 . S
O403 Tb398 2.353 . S
C404 O408 1.245 . S
C404 O409 1.259 . S
C405 O410 1.250 . S
C405 O411 1.263 . S
O406 Tb398 2.427 . S
O406 C402 1.275 . S
O407 Tb398 2.513 . S
O407 C402 1.246 . S
O408 Tb398 2.453 . S
O408 C404 1.245 . S
O409 Tb396 2.343 . S
O409 Tb398 2.596 . S
O409 C404 1.259 . S
O410 Tb398 2.374 . S
O410 C405 1.250 . S
O411 Tb396 2.353 . S
O411 C405 1.263 . S
C412 O413 1.275 . S
C412 O414 1.246 . S
O413 Tb396 2.427 . S
O413 C412 1.275 . S
O414 Tb396 2.513 . S
O414 C412 1.246 . S
C415 O399 1.245 . S
C415 O400 1.259 . S
Tb416 O419 2.448 1_645 S
Tb416 O420 2.595 1_645 S
Tb416 O421 2.374 1_545 S
Tb416 O429 2.348 . S
Tb416 O431 2.355 1_655 S
Tb416 O433 2.430 1_655 S
Tb416 O434 2.516 . S
C417 O421 1.251 1_545 S
C417 O423 1.263 . S
Tb418 O420 2.342 1_545 S
Tb418 O423 2.353 1_455 S
Tb418 O426 2.427 . S
Tb418 O427 2.513 . S
Tb418 O428 2.453 1_455 S
Tb418 O429 2.596 1_455 S
Tb418 O430 2.374 . S
O419 Tb416 2.448 1_465 S
O419 C435 1.245 . S
O420 Tb416 2.595 1_465 S
O420 Tb418 2.342 1_565 S
O420 C435 1.261 . S
O421 Tb416 2.374 1_565 S
O421 C417 1.251 1_565 S
C422 O426 1.275 . S
C422 O427 1.246 . S
O423 C417 1.263 . S
O423 Tb418 2.353 1_655 S
C424 O428 1.251 . S
C424 O429 1.254 . S
C425 O430 1.250 . S
C425 O431 1.263 . S
O426 Tb418 2.427 . S
O426 C422 1.275 . S
O427 Tb418 2.513 . S
O427 C422 1.246 . S
O428 Tb418 2.453 1_655 S
O428 C424 1.251 . S
O429 Tb416 2.348 . S
O429 Tb418 2.596 1_655 S
O429 C424 1.254 . S
O430 Tb418 2.374 . S
O430 C425 1.250 . S
O431 Tb416 2.355 1_455 S
O431 C425 1.263 . S
C432 O433 1.275 1_655 S
C432 O434 1.246 . S
O433 Tb416 2.430 1_455 S
O433 C432 1.275 1_455 S
O434 Tb416 2.516 . S
O434 C432 1.246 . S
C435 O419 1.245 . S
C435 O420 1.261 . S
Tb436 O439 2.453 . S
Tb436 O440 2.596 . S
Tb436 O441 2.374 . S
Tb436 O449 2.343 . S
Tb436 O451 2.353 . S
Tb436 O453 2.427 . S
Tb436 O454 2.513 . S
C437 O441 1.251 . S
C437 O443 1.263 . S
Tb438 O440 2.343 . S
Tb438 O443 2.353 . S
Tb438 O446 2.427 . S
Tb438 O447 2.513 . S
Tb438 O448 2.453 . S
Tb438 O449 2.596 . S
Tb438 O450 2.374 . S
O439 Tb436 2.453 . S
O439 C455 1.245 . S
O440 Tb436 2.596 . S
O440 Tb438 2.343 . S
O440 C455 1.259 . S
O441 Tb436 2.374 . S
O441 C437 1.251 . S
C442 O446 1.275 . S
C442 O447 1.246 . S
O443 C437 1.263 . S
O443 Tb438 2.353 . S
C444 O448 1.245 . S
C444 O449 1.259 . S
C445 O450 1.250 . S
C445 O451 1.263 . S
O446 Tb438 2.427 . S
O446 C442 1.275 . S
O447 Tb438 2.513 . S
O447 C442 1.246 . S
O448 Tb438 2.453 . S
O448 C444 1.245 . S
O449 Tb436 2.343 . S
O449 Tb438 2.596 . S
O449 C444 1.259 . S
O450 Tb438 2.374 . S
O450 C445 1.250 . S
O451 Tb436 2.353 . S
O451 C445 1.263 . S
C452 O453 1.275 . S
C452 O454 1.246 . S
O453 Tb436 2.427 . S
O453 C452 1.275 . S
O454 Tb436 2.513 . S
O454 C452 1.246 . S
C455 O439 1.245 . S
C455 O440 1.259 . S
Tb456 O459 2.453 . S
Tb456 O460 2.596 . S
Tb456 O461 2.374 1_545 S
Tb456 O469 2.343 1_556 S
Tb456 O471 2.353 1_556 S
Tb456 O473 2.427 1_556 S
Tb456 O474 2.513 1_546 S
C457 O461 1.251 . S
C457 O463 1.263 1_556 S
Tb458 O460 2.343 1_554 S
Tb458 O463 2.353 1_545 S
Tb458 O466 2.427 . S
Tb458 O467 2.513 . S
Tb458 O468 2.453 . S
Tb458 O469 2.596 . S
Tb458 O470 2.374 . S
O459 Tb456 2.453 . S
O459 C475 1.245 . S
O460 Tb456 2.596 . S
O460 Tb458 2.343 1_556 S
O460 C475 1.259 . S
O461 Tb456 2.374 1_565 S
O461 C457 1.251 . S
C462 O466 1.275 . S
C462 O467 1.246 . S
O463 C457 1.263 1_554 S
O463 Tb458 2.353 1_565 S
C464 O468 1.245 . S
C464 O469 1.259 . S
C465 O470 1.250 . S
C465 O471 1.263 . S
O466 Tb458 2.427 . S
O466 C462 1.275 . S
O467 Tb458 2.513 . S
O467 C462 1.246 . S
O468 Tb458 2.453 . S
O468 C464 1.245 . S
O469 Tb456 2.343 1_554 S
O469 Tb458 2.596 . S
O469 C464 1.259 . S
O470 Tb458 2.374 . S
O470 C465 1.250 . S
O471 Tb456 2.353 1_554 S
O471 C465 1.263 . S
C472 O473 1.275 1_565 S
C472 O474 1.246 . S
O473 Tb456 2.427 1_554 S
O473 C472 1.275 1_545 S
O474 Tb456 2.513 1_564 S
O474 C472 1.246 . S
C475 O459 1.245 . S
C475 O460 1.259 . S
Tb476 O479 2.453 . S
Tb476 O480 2.596 . S
Tb476 O481 2.374 . S
Tb476 O489 2.343 . S
Tb476 O491 2.353 . S
Tb476 O493 2.427 . S
Tb476 O494 2.513 . S
C477 O481 1.251 . S
C477 O483 1.263 . S
Tb478 O480 2.343 . S
Tb478 O483 2.353 . S
Tb478 O486 2.427 . S
Tb478 O487 2.513 . S
Tb478 O488 2.453 . S
Tb478 O489 2.596 . S
Tb478 O490 2.374 . S
O479 Tb476 2.453 . S
O479 C495 1.245 . S
O480 Tb476 2.596 . S
O480 Tb478 2.343 . S
O480 C495 1.259 . S
O481 Tb476 2.374 . S
O481 C477 1.251 . S
C482 O486 1.275 . S
C482 O487 1.246 . S
O483 C477 1.263 . S
O483 Tb478 2.353 . S
C484 O488 1.245 . S
C484 O489 1.259 . S
C485 O490 1.250 . S
C485 O491 1.263 . S
O486 Tb478 2.427 . S
O486 C482 1.275 . S
O487 Tb478 2.513 . S
O487 C482 1.246 . S
O488 Tb478 2.453 . S
O488 C484 1.245 . S
O489 Tb476 2.343 . S
O489 Tb478 2.596 . S
O489 C484 1.259 . S
O490 Tb478 2.374 . S
O490 C485 1.250 . S
O491 Tb476 2.353 . S
O491 C485 1.263 . S
C492 O493 1.275 . S
C492 O494 1.246 . S
O493 Tb476 2.427 . S
O493 C492 1.275 . S
O494 Tb476 2.513 . S
O494 C492 1.246 . S
C495 O479 1.245 . S
C495 O480 1.259 . S
Tb496 O499 2.453 1_556 S
Tb496 O500 2.596 1_556 S
Tb496 O501 2.374 . S
Tb496 O509 2.343 . S
Tb496 O511 2.353 . S
Tb496 O513 2.427 . S
Tb496 O514 2.513 . S
C497 O501 1.251 1_554 S
C497 O503 1.263 . S
Tb498 O500 2.343 . S
Tb498 O503 2.353 . S
Tb498 O506 2.427 . S
Tb498 O507 2.513 . S
Tb498 O508 2.453 . S
Tb498 O509 2.596 1_554 S
Tb498 O510 2.374 . S
O499 Tb496 2.453 1_554 S
O499 C515 1.245 . S
O500 Tb496 2.596 1_554 S
O500 Tb498 2.343 . S
O500 C515 1.259 . S
O501 Tb496 2.374 . S
O501 C497 1.251 1_556 S
C502 O506 1.275 . S
C502 O507 1.246 . S
O503 C497 1.263 . S
O503 Tb498 2.353 . S
C504 O508 1.245 . S
C504 O509 1.259 1_554 S
C505 O510 1.250 . S
C505 O511 1.263 1_554 S
O506 Tb498 2.427 . S
O506 C502 1.275 . S
O507 Tb498 2.513 . S
O507 C502 1.246 . S
O508 Tb498 2.453 . S
O508 C504 1.245 . S
O509 Tb496 2.343 . S
O509 Tb498 2.596 1_556 S
O509 C504 1.259 1_556 S
O510 Tb498 2.374 . S
O510 C505 1.250 . S
O511 Tb496 2.353 . S
O511 C505 1.263 1_556 S
C512 O513 1.275 . S
C512 O514 1.246 . S
O513 Tb496 2.427 . S
O513 C512 1.275 . S
O514 Tb496 2.513 . S
O514 C512 1.246 . S
C515 O499 1.245 . S
C515 O500 1.259 . S
Tb516 O519 2.453 . S
Tb516 O520 2.596 . S
Tb516 O521 2.374 . S
Tb516 O529 2.343 . S
Tb516 O531 2.353 . S
Tb516 O533 2.427 . S
Tb516 O534 2.513 . S
C517 O521 1.251 . S
C517 O523 1.263 . S
Tb518 O520 2.343 . S
Tb518 O523 2.353 . S
Tb518 O526 2.427 . S
Tb518 O527 2.513 . S
Tb518 O528 2.453 . S
Tb518 O529 2.596 . S
Tb518 O530 2.374 . S
O519 Tb516 2.453 . S
O519 C535 1.245 . S
O520 Tb516 2.596 . S
O520 Tb518 2.343 . S
O520 C535 1.259 . S
O521 Tb516 2.374 . S
O521 C517 1.251 . S
C522 O526 1.275 . S
C522 O527 1.246 . S
O523 C517 1.263 . S
O523 Tb518 2.353 . S
C524 O528 1.245 . S
C524 O529 1.259 . S
C525 O530 1.250 . S
C525 O531 1.263 . S
O526 Tb518 2.427 . S
O526 C522 1.275 . S
O527 Tb518 2.513 . S
O527 C522 1.246 . S
O528 Tb518 2.453 . S
O528 C524 1.245 . S
O529 Tb516 2.343 . S
O529 Tb518 2.596 . S
O529 C524 1.259 . S
O530 Tb518 2.374 . S
O530 C525 1.250 . S
O531 Tb516 2.353 . S
O531 C525 1.263 . S
C532 O533 1.275 . S
C532 O534 1.246 . S
O533 Tb516 2.427 . S
O533 C532 1.275 . S
O534 Tb516 2.513 . S
O534 C532 1.246 . S
C535 O519 1.245 . S
C535 O520 1.259 . S
Tb536 O539 2.453 . S
Tb536 O540 2.596 1_655 S
Tb536 O541 2.374 . S
Tb536 O549 2.343 . S
Tb536 O551 2.353 . S
Tb536 O553 2.427 . S
Tb536 O554 2.513 . S
C537 O541 1.251 1_455 S
C537 O543 1.263 . S
Tb538 O540 2.343 . S
Tb538 O543 2.353 . S
Tb538 O546 2.427 . S
Tb538 O547 2.513 . S
Tb538 O548 2.453 . S
Tb538 O549 2.596 1_455 S
Tb538 O550 2.374 . S
O539 Tb536 2.453 . S
O539 C555 1.245 1_655 S
O540 Tb536 2.596 1_455 S
O540 Tb538 2.343 . S
O540 C555 1.259 . S
O541 Tb536 2.374 . S
O541 C537 1.251 1_655 S
C542 O546 1.275 . S
C542 O547 1.246 . S
O543 C537 1.263 . S
O543 Tb538 2.353 . S
C544 O548 1.245 1_655 S
C544 O549 1.259 . S
C545 O550 1.250 . S
C545 O551 1.263 1_455 S
O546 Tb538 2.427 . S
O546 C542 1.275 . S
O547 Tb538 2.513 . S
O547 C542 1.246 . S
O548 Tb538 2.453 . S
O548 C544 1.245 1_455 S
O549 Tb536 2.343 . S
O549 Tb538 2.596 1_655 S
O549 C544 1.259 . S
O550 Tb538 2.374 . S
O550 C545 1.250 . S
O551 Tb536 2.353 . S
O551 C545 1.263 1_655 S
C552 O553 1.275 . S
C552 O554 1.246 . S
O553 Tb536 2.427 . S
O553 C552 1.275 . S
O554 Tb536 2.513 . S
O554 C552 1.246 . S
C555 O539 1.245 1_455 S
C555 O540 1.259 . S
Tb556 O559 2.453 . S
Tb556 O560 2.596 . S
Tb556 O561 2.374 . S
Tb556 O569 2.343 . S
Tb556 O571 2.353 . S
Tb556 O573 2.427 . S
Tb556 O574 2.513 . S
C557 O561 1.251 . S
C557 O563 1.263 . S
Tb558 O560 2.343 . S
Tb558 O563 2.353 . S
Tb558 O566 2.427 . S
Tb558 O567 2.513 . S
Tb558 O568 2.453 . S
Tb558 O569 2.596 . S
Tb558 O570 2.374 . S
O559 Tb556 2.453 . S
O559 C575 1.245 . S
O560 Tb556 2.596 . S
O560 Tb558 2.343 . S
O560 C575 1.259 . S
O561 Tb556 2.374 . S
O561 C557 1.251 . S
C562 O566 1.275 . S
C562 O567 1.246 . S
O563 C557 1.263 . S
O563 Tb558 2.353 . S
C564 O568 1.245 . S
C564 O569 1.259 . S
C565 O570 1.250 . S
C565 O571 1.263 . S
O566 Tb558 2.427 . S
O566 C562 1.275 . S
O567 Tb558 2.513 . S
O567 C562 1.246 . S
O568 Tb558 2.453 . S
O568 C564 1.245 . S
O569 Tb556 2.343 . S
O569 Tb558 2.596 . S
O569 C564 1.259 . S
O570 Tb558 2.374 . S
O570 C565 1.250 . S
O571 Tb556 2.353 . S
O571 C565 1.263 . S
C572 O573 1.275 . S
C572 O574 1.246 . S
O573 Tb556 2.427 . S
O573 C572 1.275 . S
O574 Tb556 2.513 . S
O574 C572 1.246 . S
C575 O559 1.245 . S
C575 O560 1.259 . S
Tb576 O579 2.453 . S
Tb576 O580 2.596 . S
Tb576 O581 2.374 . S
Tb576 O589 2.343 . S
Tb576 O591 2.353 . S
Tb576 O593 2.427 . S
Tb576 O594 2.513 . S
C577 O581 1.251 . S
C577 O583 1.263 . S
Tb578 O580 2.343 . S
Tb578 O583 2.353 . S
Tb578 O586 2.427 . S
Tb578 O587 2.513 . S
Tb578 O588 2.453 . S
Tb578 O589 2.596 . S
Tb578 O590 2.374 . S
O579 Tb576 2.453 . S
O579 C595 1.245 . S
O580 Tb576 2.596 . S
O580 Tb578 2.343 . S
O580 C595 1.259 . S
O581 Tb576 2.374 . S
O581 C577 1.251 . S
C582 O586 1.275 . S
C582 O587 1.246 . S
O583 C577 1.263 . S
O583 Tb578 2.353 . S
C584 O588 1.245 . S
C584 O589 1.259 . S
C585 O590 1.250 . S
C585 O591 1.263 . S
O586 Tb578 2.427 . S
O586 C582 1.275 . S
O587 Tb578 2.513 . S
O587 C582 1.246 . S
O588 Tb578 2.453 . S
O588 C584 1.245 . S
O589 Tb576 2.343 . S
O589 Tb578 2.596 . S
O589 C584 1.259 . S
O590 Tb578 2.374 . S
O590 C585 1.250 . S
O591 Tb576 2.353 . S
O591 C585 1.263 . S
C592 O593 1.275 . S
C592 O594 1.246 . S
O593 Tb576 2.427 . S
O593 C592 1.275 . S
O594 Tb576 2.513 . S
O594 C592 1.246 . S
C595 O579 1.245 . S
C595 O580 1.259 . S
Tb596 O599 2.453 . S
Tb596 O600 2.596 . S
Tb596 O601 2.374 . S
Tb596 O609 2.343 . S
Tb596 O611 2.353 . S
Tb596 O613 2.427 . S
Tb596 O614 2.513 . S
C597 O601 1.251 . S
C597 O603 1.263 . S
Tb598 O600 2.343 . S
Tb598 O603 2.353 . S
Tb598 O606 2.427 . S
Tb598 O607 2.513 . S
Tb598 O608 2.453 . S
Tb598 O609 2.596 . S
Tb598 O610 2.374 . S
O599 Tb596 2.453 . S
O599 C615 1.245 . S
O600 Tb596 2.596 . S
O600 Tb598 2.343 . S
O600 C615 1.259 . S
O601 Tb596 2.374 . S
O601 C597 1.251 . S
C602 O606 1.275 . S
C602 O607 1.246 . S
O603 C597 1.263 . S
O603 Tb598 2.353 . S
C604 O608 1.245 . S
C604 O609 1.259 . S
C605 O610 1.250 . S
C605 O611 1.263 . S
O606 Tb598 2.427 . S
O606 C602 1.275 . S
O607 Tb598 2.513 . S
O607 C602 1.246 . S
O608 Tb598 2.453 . S
O608 C604 1.245 . S
O609 Tb596 2.343 . S
O609 Tb598 2.596 . S
O609 C604 1.259 . S
O610 Tb598 2.374 . S
O610 C605 1.250 . S
O611 Tb596 2.353 . S
O611 C605 1.263 . S
C612 O613 1.275 . S
C612 O614 1.246 . S
O613 Tb596 2.427 . S
O613 C612 1.275 . S
O614 Tb596 2.513 . S
O614 C612 1.246 . S
C615 O599 1.245 . S
C615 O600 1.259 . S
Tb616 O619 2.453 . S
Tb616 O620 2.596 . S
Tb616 O621 2.374 . S
Tb616 O629 2.343 . S
Tb616 O631 2.353 . S
Tb616 O633 2.427 . S
Tb616 O634 2.513 . S
C617 O621 1.251 . S
C617 O623 1.263 . S
Tb618 O620 2.343 . S
Tb618 O623 2.353 . S
Tb618 O626 2.427 . S
Tb618 O627 2.513 . S
Tb618 O628 2.453 . S
Tb618 O629 2.596 . S
Tb618 O630 2.374 . S
O619 Tb616 2.453 . S
O619 C635 1.245 . S
O620 Tb616 2.596 . S
O620 Tb618 2.343 . S
O620 C635 1.259 . S
O621 Tb616 2.374 . S
O621 C617 1.251 . S
C622 O626 1.275 . S
C622 O627 1.246 . S
O623 C617 1.263 . S
O623 Tb618 2.353 . S
C624 O628 1.245 . S
C624 O629 1.259 . S
C625 O630 1.250 . S
C625 O631 1.263 . S
O626 Tb618 2.427 . S
O626 C622 1.275 . S
O627 Tb618 2.513 . S
O627 C622 1.246 . S
O628 Tb618 2.453 . S
O628 C624 1.245 . S
O629 Tb616 2.343 . S
O629 Tb618 2.596 . S
O629 C624 1.259 . S
O630 Tb618 2.374 . S
O630 C625 1.250 . S
O631 Tb616 2.353 . S
O631 C625 1.263 . S
C632 O633 1.275 . S
C632 O634 1.246 . S
O633 Tb616 2.427 . S
O633 C632 1.275 . S
O634 Tb616 2.513 . S
O634 C632 1.246 . S
C635 O619 1.245 . S
C635 O620 1.259 . S
Tb636 O639 2.453 . S
Tb636 O640 2.620 . S
Tb636 O641 2.374 . S
Tb636 O649 2.343 . S
Tb636 O651 2.353 1_554 S
Tb636 O653 2.427 1_554 S
Tb636 O654 2.513 . S
C637 O641 1.251 . S
C637 O643 1.263 1_455 S
Tb638 O640 2.328 1_655 S
Tb638 O643 2.353 . S
Tb638 O646 2.427 . S
Tb638 O647 2.513 . S
Tb638 O648 2.453 1_554 S
Tb638 O649 2.596 1_655 S
Tb638 O650 2.374 1_554 S
O639 Tb636 2.453 . S
O639 C655 1.245 . S
O640 Tb636 2.620 . S
O640 Tb638 2.328 1_455 S
O640 C655 1.268 . S
O641 Tb636 2.374 . S
O641 C637 1.251 . S
C642 O646 1.275 . S
C642 O647 1.246 . S
O643 C637 1.263 1_655 S
O643 Tb638 2.353 . S
C644 O648 1.245 . S
C644 O649 1.259 1_656 S
C645 O650 1.250 . S
C645 O651 1.263 1_655 S
O646 Tb638 2.427 . S
O646 C642 1.275 . S
O647 Tb638 2.513 . S
O647 C642 1.246 . S
O648 Tb638 2.453 1_556 S
O648 C644 1.245 . S
O649 Tb636 2.343 . S
O649 Tb638 2.596 1_455 S
O649 C644 1.259 1_454 S
O650 Tb638 2.374 1_556 S
O650 C645 1.250 . S
O651 Tb636 2.353 1_556 S
O651 C645 1.263 1_455 S
C652 O653 1.275 . S
C652 O654 1.246 1_556 S
O653 Tb636 2.427 1_556 S
O653 C652 1.275 . S
O654 Tb636 2.513 . S
O654 C652 1.246 1_554 S
C655 O639 1.245 . S
C655 O640 1.268 . S
C656 C657 1.363 1_655 S
C656 C662 1.379 . S
C656 N664 1.356 . S
C657 C656 1.363 1_455 S
C657 C663 1.363 . S
C658 C659 1.363 . S
C658 C663 1.379 . S
C658 N665 1.356 1_556 S
C659 C658 1.363 . S
C659 C662 1.363 1_455 S
N660 C662 1.356 . S
N660 H672 0.984 . S
N660 H673 0.985 . S
N661 C663 1.356 . S
N661 H666 0.984 . S
N661 H667 0.985 . S
C662 C656 1.379 . S
C662 C659 1.363 1_655 S
C662 N660 1.356 . S
C663 C657 1.363 . S
C663 C658 1.379 . S
C663 N661 1.356 . S
N664 C656 1.356 . S
N664 H670 0.984 . S
N664 H671 0.984 . S
N665 C658 1.356 1_554 S
N665 H668 0.984 . S
N665 H669 0.985 . S
H666 N661 0.984 . S
H667 N661 0.985 . S
H668 N665 0.984 . S
H669 N665 0.985 . S
H670 N664 0.984 . S
H671 N664 0.984 . S
H672 N660 0.984 . S
H673 N660 0.985 . S
C674 C675 1.363 . S
C674 C680 1.379 . S
C674 N682 1.356 . S
C675 C674 1.363 . S
C675 C681 1.363 . S
C676 C677 1.363 . S
C676 C681 1.379 . S
C676 N683 1.356 . S
C677 C676 1.363 . S
C677 C680 1.363 . S
N678 C680 1.356 . S
N678 H690 0.984 . S
N678 H691 0.985 . S
N679 C681 1.356 . S
N679 H684 0.984 . S
N679 H685 0.985 . S
C680 C674 1.379 . S
C680 C677 1.363 . S
C680 N678 1.356 . S
C681 C675 1.363 . S
C681 C676 1.379 . S
C681 N679 1.356 . S
N682 C674 1.356 . S
N682 H688 0.984 . S
N682 H689 0.984 . S
N683 C676 1.356 . S
N683 H686 0.984 . S
N683 H687 0.985 . S
H684 N679 0.984 . S
H685 N679 0.985 . S
H686 N683 0.984 . S
H687 N683 0.985 . S
H688 N682 0.984 . S
H689 N682 0.984 . S
H690 N678 0.984 . S
H691 N678 0.985 . S
C692 C693 1.363 . S
C692 C698 1.379 . S
C692 N700 1.356 . S
C693 C692 1.363 . S
C693 C699 1.363 . S
C694 C695 1.363 . S
C694 C699 1.379 . S
C694 N701 1.356 . S
C695 C694 1.363 . S
C695 C698 1.363 . S
N696 C698 1.356 . S
N696 H708 0.984 . S
N696 H709 0.985 . S
N697 C699 1.356 . S
N697 H702 0.984 . S
N697 H703 0.985 . S
C698 C692 1.379 . S
C698 C695 1.363 . S
C698 N696 1.356 . S
C699 C693 1.363 . S
C699 C694 1.379 . S
C699 N697 1.356 . S
N700 C692 1.356 . S
N700 H706 0.984 . S
N700 H707 0.984 . S
N701 C694 1.356 . S
N701 H704 0.984 . S
N701 H705 0.985 . S
H702 N697 0.984 . S
H703 N697 0.985 . S
H704 N701 0.984 . S
H705 N701 0.985 . S
H706 N700 0.984 . S
H707 N700 0.984 . S
H708 N696 0.984 . S
H709 N696 0.985 . S
C710 C711 1.363 . S
C710 C716 1.379 . S
C710 N718 1.356 . S
C711 C710 1.363 . S
C711 C717 1.363 . S
C712 C713 1.363 . S
C712 C717 1.379 . S
C712 N719 1.356 . S
C713 C712 1.363 . S
C713 C716 1.363 . S
N714 C716 1.356 . S
N714 H726 0.984 . S
N714 H727 0.985 . S
N715 C717 1.356 . S
N715 H720 0.984 . S
N715 H721 0.985 . S
C716 C710 1.379 . S
C716 C713 1.363 . S
C716 N714 1.356 . S
C717 C711 1.363 . S
C717 C712 1.379 . S
C717 N715 1.356 . S
N718 C710 1.356 . S
N718 H724 0.984 . S
N718 H725 0.984 . S
N719 C712 1.356 . S
N719 H722 0.984 . S
N719 H723 0.985 . S
H720 N715 0.984 . S
H721 N715 0.985 . S
H722 N719 0.984 . S
H723 N719 0.985 . S
H724 N718 0.984 . S
H725 N718 0.984 . S
H726 N714 0.984 . S
H727 N714 0.985 . S
C728 C729 1.363 1_655 S
C728 C734 1.377 . S
C728 N736 1.356 . S
C729 C728 1.363 1_455 S
C729 C735 1.363 . S
C730 C731 1.363 . S
C730 C735 1.379 . S
C730 N737 1.356 . S
C731 C730 1.363 . S
C731 C734 1.363 1_455 S
N732 C734 1.359 . S
N732 H744 0.984 . S
N732 H745 0.984 . S
N733 C735 1.356 . S
N733 H738 0.984 . S
N733 H739 0.985 . S
C734 C728 1.377 . S
C734 C731 1.363 1_655 S
C734 N732 1.359 . S
C735 C729 1.363 . S
C735 C730 1.379 . S
C735 N733 1.356 . S
N736 C728 1.356 . S
N736 H742 0.984 . S
N736 H743 0.984 . S
N737 C730 1.356 . S
N737 H740 0.984 . S
N737 H741 0.985 . S
H738 N733 0.984 . S
H739 N733 0.985 . S
H740 N737 0.984 . S
H741 N737 0.985 . S
H742 N736 0.984 . S
H743 N736 0.984 . S
H744 N732 0.984 . S
H745 N732 0.984 . S
C746 C747 1.363 . S
C746 C752 1.379 . S
C746 N754 1.356 . S
C747 C746 1.363 . S
C747 C753 1.363 . S
C748 C749 1.363 . S
C748 C753 1.379 . S
C748 N755 1.356 . S
C749 C748 1.363 . S
C749 C752 1.363 . S
N750 C752 1.356 . S
N750 H762 0.984 . S
N750 H763 0.985 . S
N751 C753 1.356 . S
N751 H756 0.984 . S
N751 H757 0.985 . S
C752 C746 1.379 . S
C752 C749 1.363 . S
C752 N750 1.356 . S
C753 C747 1.363 . S
C753 C748 1.379 . S
C753 N751 1.356 . S
N754 C746 1.356 . S
N754 H760 0.984 . S
N754 H761 0.984 . S
N755 C748 1.356 . S
N755 H758 0.984 . S
N755 H759 0.985 . S
H756 N751 0.984 . S
H757 N751 0.985 . S
H758 N755 0.984 . S
H759 N755 0.985 . S
H760 N754 0.984 . S
H761 N754 0.984 . S
H762 N750 0.984 . S
H763 N750 0.985 . S
C764 C765 1.363 . S
C764 C770 1.379 . S
C764 N772 1.356 . S
C765 C764 1.363 . S
C765 C771 1.363 . S
C766 C767 1.363 . S
C766 C771 1.379 . S
C766 N773 1.356 . S
C767 C766 1.363 . S
C767 C770 1.363 . S
N768 C770 1.356 . S
N768 H780 0.984 1_554 S
N768 H781 0.986 . S
N769 C771 1.356 . S
N769 H774 0.984 . S
N769 H775 0.985 . S
C770 C764 1.379 . S
C770 C767 1.363 . S
C770 N768 1.356 . S
C771 C765 1.363 . S
C771 C766 1.379 . S
C771 N769 1.356 . S
N772 C764 1.356 . S
N772 H778 0.984 . S
N772 H779 0.984 . S
N773 C766 1.356 . S
N773 H776 0.984 . S
N773 H777 0.985 . S
H774 N769 0.984 . S
H775 N769 0.985 . S
H776 N773 0.984 . S
H777 N773 0.985 . S
H778 N772 0.984 . S
H779 N772 0.984 . S
H780 N768 0.984 1_556 S
H781 N768 0.986 . S
C782 C783 1.363 . S
C782 C788 1.379 . S
C782 N790 1.356 . S
C783 C782 1.363 . S
C783 C789 1.363 . S
C784 C785 1.363 . S
C784 C789 1.379 . S
C784 N791 1.356 . S
C785 C784 1.363 . S
C785 C788 1.363 . S
N786 C788 1.356 . S
N786 H798 0.984 . S
N786 H799 0.985 . S
N787 C789 1.356 . S
N787 H792 0.984 . S
N787 H793 0.985 . S
C788 C782 1.379 . S
C788 C785 1.363 . S
C788 N786 1.356 . S
C789 C783 1.363 . S
C789 C784 1.379 . S
C789 N787 1.356 . S
N790 C782 1.356 . S
N790 H796 0.984 . S
N790 H797 0.984 . S
N791 C784 1.356 . S
N791 H794 0.984 . S
N791 H795 0.985 . S
H792 N787 0.984 . S
H793 N787 0.985 . S
H794 N791 0.984 . S
H795 N791 0.985 . S
H796 N790 0.984 . S
H797 N790 0.984 . S
H798 N786 0.984 . S
H799 N786 0.985 . S
C800 C801 1.363 . S
C800 C806 1.379 . S
C800 N808 1.356 . S
C801 C800 1.363 . S
C801 C807 1.363 . S
C802 C803 1.363 . S
C802 C807 1.379 . S
C802 N809 1.356 . S
C803 C802 1.363 . S
C803 C806 1.363 . S
N804 C806 1.359 . S
N804 H816 0.983 1_645 S
N804 H817 0.983 1_655 S
N805 C807 1.356 . S
N805 H810 0.984 . S
N805 H811 0.985 . S
C806 C800 1.379 . S
C806 C803 1.363 . S
C806 N804 1.359 . S
C807 C801 1.363 . S
C807 C802 1.379 . S
C807 N805 1.356 . S
N808 C800 1.356 . S
N808 H814 0.984 1_545 S
N808 H815 0.984 . S
N809 C802 1.356 . S
N809 H812 0.984 . S
N809 H813 0.985 . S
H810 N805 0.984 . S
H811 N805 0.985 . S
H812 N809 0.984 . S
H813 N809 0.985 . S
H814 N808 0.984 1_565 S
H815 N808 0.984 . S
H816 N804 0.983 1_465 S
H817 N804 0.983 1_455 S
C818 C819 1.363 . S
C818 C824 1.379 . S
C818 N826 1.356 . S
C819 C818 1.363 . S
C819 C825 1.363 . S
C820 C821 1.363 . S
C820 C825 1.379 . S
C820 N827 1.356 . S
C821 C820 1.363 . S
C821 C824 1.363 . S
N822 C824 1.356 . S
N822 H834 0.984 . S
N822 H835 0.985 . S
N823 C825 1.356 . S
N823 H828 0.984 . S
N823 H829 0.985 . S
C824 C818 1.379 . S
C824 C821 1.363 . S
C824 N822 1.356 . S
C825 C819 1.363 . S
C825 C820 1.379 . S
C825 N823 1.356 . S
N826 C818 1.356 . S
N826 H832 0.984 . S
N826 H833 0.984 . S
N827 C820 1.356 . S
N827 H830 0.984 . S
N827 H831 0.985 . S
H828 N823 0.984 . S
H829 N823 0.985 . S
H830 N827 0.984 . S
H831 N827 0.985 . S
H832 N826 0.984 . S
H833 N826 0.984 . S
H834 N822 0.984 . S
H835 N822 0.985 . S
C836 C837 1.363 . S
C836 C842 1.379 . S
C836 N844 1.356 . S
C837 C836 1.363 . S
C837 C843 1.363 1_545 S
C838 C839 1.363 1_565 S
C838 C843 1.379 . S
C838 N845 1.356 . S
C839 C838 1.363 1_545 S
C839 C842 1.363 . S
N840 C842 1.356 . S
N840 H852 0.984 . S
N840 H853 0.985 . S
N841 C843 1.356 . S
N841 H846 0.984 . S
N841 H847 0.985 . S
C842 C836 1.379 . S
C842 C839 1.363 . S
C842 N840 1.356 . S
C843 C837 1.363 1_565 S
C843 C838 1.379 . S
C843 N841 1.356 . S
N844 C836 1.356 . S
N844 H850 0.984 . S
N844 H851 0.984 . S
N845 C838 1.356 . S
N845 H848 0.984 . S
N845 H849 0.985 . S
H846 N841 0.984 . S
H847 N841 0.985 . S
H848 N845 0.984 . S
H849 N845 0.985 . S
H850 N844 0.984 . S
H851 N844 0.984 . S
H852 N840 0.984 . S
H853 N840 0.985 . S
C854 C855 1.363 . S
C854 C860 1.379 . S
C854 N862 1.356 . S
C855 C854 1.363 . S
C855 C861 1.363 . S
C856 C857 1.363 . S
C856 C861 1.379 . S
C856 N863 1.356 . S
C857 C856 1.363 . S
C857 C860 1.363 . S
N858 C860 1.356 . S
N858 H870 0.984 . S
N858 H871 0.985 . S
N859 C861 1.356 . S
N859 H864 0.984 . S
N859 H865 0.985 . S
C860 C854 1.379 . S
C860 C857 1.363 . S
C860 N858 1.356 . S
C861 C855 1.363 . S
C861 C856 1.379 . S
C861 N859 1.356 . S
N862 C854 1.356 . S
N862 H868 0.984 . S
N862 H869 0.984 1_556 S
N863 C856 1.356 . S
N863 H866 0.984 . S
N863 H867 0.985 . S
H864 N859 0.984 . S
H865 N859 0.985 . S
H866 N863 0.984 . S
H867 N863 0.985 . S
H868 N862 0.984 . S
H869 N862 0.984 1_554 S
H870 N858 0.984 . S
H871 N858 0.985 . S
C872 C873 1.363 . S
C872 C878 1.379 . S
C872 N880 1.356 . S
C873 C872 1.363 . S
C873 C879 1.363 . S
C874 C875 1.363 . S
C874 C879 1.379 . S
C874 N881 1.356 . S
C875 C874 1.363 . S
C875 C878 1.363 . S
N876 C878 1.356 1_565 S
N876 H888 0.984 . S
N876 H889 0.985 . S
N877 C879 1.356 . S
N877 H882 0.984 . S
N877 H883 0.985 . S
C878 C872 1.379 . S
C878 C875 1.363 . S
C878 N876 1.356 1_545 S
C879 C873 1.363 . S
C879 C874 1.379 . S
C879 N877 1.356 . S
N880 C872 1.356 . S
N880 H886 0.984 1_545 S
N880 H887 0.984 . S
N881 C874 1.356 . S
N881 H884 0.994 . S
N881 H885 0.982 1_655 S
H882 N877 0.984 . S
H883 N877 0.985 . S
H884 N881 0.994 . S
H885 N881 0.982 1_455 S
H886 N880 0.984 1_565 S
H887 N880 0.984 . S
H888 N876 0.984 . S
H889 N876 0.985 . S
C890 C891 1.363 . S
C890 C896 1.379 . S
C890 N898 1.356 . S
C891 C890 1.363 . S
C891 C897 1.363 . S
C892 C893 1.363 . S
C892 C897 1.379 . S
C892 N899 1.356 . S
C893 C892 1.363 . S
C893 C896 1.363 . S
N894 C896 1.356 . S
N894 H906 0.984 . S
N894 H907 0.985 . S
N895 C897 1.356 . S
N895 H900 0.984 . S
N895 H901 0.985 . S
C896 C890 1.379 . S
C896 C893 1.363 . S
C896 N894 1.356 . S
C897 C891 1.363 . S
C897 C892 1.379 . S
C897 N895 1.356 . S
N898 C890 1.356 . S
N898 H904 0.984 . S
N898 H905 0.984 . S
N899 C892 1.356 . S
N899 H902 0.984 . S
N899 H903 0.985 . S
H900 N895 0.984 . S
H901 N895 0.985 . S
H902 N899 0.984 . S
H903 N899 0.985 . S
H904 N898 0.984 . S
H905 N898 0.984 . S
H906 N894 0.984 . S
H907 N894 0.985 . S
C908 C909 1.363 . S
C908 C914 1.379 . S
C908 N916 1.356 . S
C909 C908 1.363 . S
C909 C915 1.363 1_545 S
C910 C911 1.365 . S
C910 C915 1.378 1_545 S
C910 N917 1.355 1_545 S
C911 C910 1.365 . S
C911 C914 1.363 . S
N912 C914 1.356 . S
N912 H924 0.984 . S
N912 H925 0.985 . S
N913 C915 1.356 . S
N913 H918 0.984 . S
N913 H919 0.985 . S
C914 C908 1.379 . S
C914 C911 1.363 . S
C914 N912 1.356 . S
C915 C909 1.363 1_565 S
C915 C910 1.378 1_565 S
C915 N913 1.356 . S
N916 C908 1.356 . S
N916 H922 0.984 . S
N916 H923 0.984 . S
N917 C910 1.355 1_565 S
N917 H920 0.984 . S
N917 H921 0.985 . S
H918 N913 0.984 . S
H919 N913 0.985 . S
H920 N917 0.984 . S
H921 N917 0.985 . S
H922 N916 0.984 . S
H923 N916 0.984 . S
H924 N912 0.984 . S
H925 N912 0.985 . S
C926 C927 1.363 . S
C926 C932 1.379 . S
C926 N934 1.356 . S
C927 C926 1.363 . S
C927 C933 1.363 . S
C928 C929 1.363 . S
C928 C933 1.379 . S
C928 N935 1.356 . S
C929 C928 1.363 . S
C929 C932 1.363 . S
N930 C932 1.356 . S
N930 H942 0.984 . S
N930 H943 0.985 . S
N931 C933 1.356 . S
N931 H936 0.984 . S
N931 H937 0.985 . S
C932 C926 1.379 . S
C932 C929 1.363 . S
C932 N930 1.356 . S
C933 C927 1.363 . S
C933 C928 1.379 . S
C933 N931 1.356 . S
N934 C926 1.356 . S
N934 H940 0.984 . S
N934 H941 0.984 . S
N935 C928 1.356 . S
N935 H938 0.984 . S
N935 H939 0.985 . S
H936 N931 0.984 . S
H937 N931 0.985 . S
H938 N935 0.984 . S
H939 N935 0.985 . S
H940 N934 0.984 . S
H941 N934 0.984 . S
H942 N930 0.984 . S
H943 N930 0.985 . S
C944 C945 1.363 . S
C944 C950 1.379 . S
C944 N952 1.356 . S
C945 C944 1.363 . S
C945 C951 1.363 . S
C946 C947 1.363 . S
C946 C951 1.379 . S
C946 N953 1.356 1_564 S
C947 C946 1.363 . S
C947 C950 1.363 . S
N948 C950 1.356 . S
N948 H960 0.984 . S
N948 H961 0.985 . S
N949 C951 1.356 1_556 S
N949 H954 0.984 . S
N949 H955 0.985 . S
C950 C944 1.379 . S
C950 C947 1.363 . S
C950 N948 1.356 . S
C951 C945 1.363 . S
C951 C946 1.379 . S
C951 N949 1.356 1_554 S
N952 C944 1.356 . S
N952 H958 0.984 . S
N952 H959 0.984 . S
N953 C946 1.356 1_546 S
N953 H956 0.984 1_556 S
N953 H957 0.985 . S
H954 N949 0.984 . S
H955 N949 0.985 . S
H956 N953 0.984 1_554 S
H957 N953 0.985 . S
H958 N952 0.984 . S
H959 N952 0.984 . S
H960 N948 0.984 . S
H961 N948 0.985 . S
C962 C963 1.363 . S
C962 C968 1.379 . S
C962 N970 1.356 . S
C963 C962 1.363 . S
C963 C969 1.363 1_556 S
C964 C965 1.357 1_554 S
C964 C969 1.379 . S
C964 N971 1.356 . S
C965 C964 1.357 1_556 S
C965 C968 1.370 . S
N966 C968 1.356 . S
N966 H978 0.984 . S
N966 H979 0.985 . S
N967 C969 1.356 . S
N967 H972 0.984 . S
N967 H973 0.985 . S
C968 C962 1.379 . S
C968 C965 1.370 . S
C968 N966 1.356 . S
C969 C963 1.363 1_554 S
C969 C964 1.379 . S
C969 N967 1.356 . S
N970 C962 1.356 . S
N970 H976 0.984 . S
N970 H977 0.984 . S
N971 C964 1.356 . S
N971 H974 0.984 . S
N971 H975 0.985 . S
H972 N967 0.984 . S
H973 N967 0.985 . S
H974 N971 0.984 . S
H975 N971 0.985 . S
H976 N970 0.984 . S
H977 N970 0.984 . S
H978 N966 0.984 . S
H979 N966 0.985 . S
C980 C981 1.363 . S
C980 C986 1.379 . S
C980 N988 1.356 . S
C981 C980 1.363 . S
C981 C987 1.363 . S
C982 C983 1.363 . S
C982 C987 1.379 . S
C982 N989 1.356 . S
C983 C982 1.363 . S
C983 C986 1.363 . S
N984 C986 1.356 . S
N984 H996 0.984 . S
N984 H997 0.985 . S
N985 C987 1.356 . S
N985 H990 0.984 . S
N985 H991 0.985 . S
C986 C980 1.379 . S
C986 C983 1.363 . S
C986 N984 1.356 . S
C987 C981 1.363 . S
C987 C982 1.379 . S
C987 N985 1.356 . S
N988 C980 1.356 . S
N988 H994 0.984 . S
N988 H995 0.984 . S
N989 C982 1.356 . S
N989 H992 0.984 . S
N989 H993 0.985 . S
H990 N985 0.984 . S
H991 N985 0.985 . S
H992 N989 0.984 . S
H993 N989 0.985 . S
H994 N988 0.984 . S
H995 N988 0.984 . S
H996 N984 0.984 . S
H997 N984 0.985 . S
C998 C999 1.363 . S
C998 C1004 1.379 . S
C998 N1006 1.356 . S
C999 C998 1.363 . S
C999 C1005 1.363 . S
C1000 C1001 1.363 . S
C1000 C1005 1.379 . S
C1000 N1007 1.356 . S
C1001 C1000 1.363 . S
C1001 C1004 1.363 . S
N1002 C1004 1.356 . S
N1002 H1014 0.984 . S
N1002 H1015 0.985 . S
N1003 C1005 1.356 . S
N1003 H1008 0.984 . S
N1003 H1009 0.985 . S
C1004 C998 1.379 . S
C1004 C1001 1.363 . S
C1004 N1002 1.356 . S
C1005 C999 1.363 . S
C1005 C1000 1.379 . S
C1005 N1003 1.356 . S
N1006 C998 1.356 . S
N1006 H1012 0.984 . S
N1006 H1013 0.984 . S
N1007 C1000 1.356 . S
N1007 H1010 0.984 . S
N1007 H1011 0.985 . S
H1008 N1003 0.984 . S
H1009 N1003 0.985 . S
H1010 N1007 0.984 . S
H1011 N1007 0.985 . S
H1012 N1006 0.984 . S
H1013 N1006 0.984 . S
H1014 N1002 0.984 . S
H1015 N1002 0.985 . S
C1016 C1017 1.363 . S
C1016 C1022 1.379 . S
C1016 N1024 1.356 . S
C1017 C1016 1.363 . S
C1017 C1023 1.363 . S
C1018 C1019 1.363 . S
C1018 C1023 1.379 . S
C1018 N1025 1.356 . S
C1019 C1018 1.363 . S
C1019 C1022 1.363 . S
N1020 C1022 1.356 . S
N1020 H1032 0.984 . S
N1020 H1033 0.985 . S
N1021 C1023 1.356 . S
N1021 H1026 0.984 . S
N1021 H1027 0.985 . S
C1022 C1016 1.379 . S
C1022 C1019 1.363 . S
C1022 N1020 1.356 . S
C1023 C1017 1.363 . S
C1023 C1018 1.379 . S
C1023 N1021 1.356 . S
N1024 C1016 1.356 . S
N1024 H1030 0.984 . S
N1024 H1031 0.984 . S
N1025 C1018 1.356 . S
N1025 H1028 0.984 . S
N1025 H1029 0.985 . S
H1026 N1021 0.984 . S
H1027 N1021 0.985 . S
H1028 N1025 0.984 . S
H1029 N1025 0.985 . S
H1030 N1024 0.984 . S
H1031 N1024 0.984 . S
H1032 N1020 0.984 . S
H1033 N1020 0.985 . S
C1034 C1035 1.363 . S
C1034 C1040 1.379 . S
C1034 N1042 1.356 . S
C1035 C1034 1.363 . S
C1035 C1041 1.363 . S
C1036 C1037 1.363 . S
C1036 C1041 1.379 . S
C1036 N1043 1.356 . S
C1037 C1036 1.363 . S
C1037 C1040 1.363 . S
N1038 C1040 1.356 . S
N1038 H1050 0.984 . S
N1038 H1051 0.985 . S
N1039 C1041 1.356 . S
N1039 H1044 0.984 . S
N1039 H1045 0.985 . S
C1040 C1034 1.379 . S
C1040 C1037 1.363 . S
C1040 N1038 1.356 . S
C1041 C1035 1.363 . S
C1041 C1036 1.379 . S
C1041 N1039 1.356 . S
N1042 C1034 1.356 . S
N1042 H1048 0.984 . S
N1042 H1049 0.984 . S
N1043 C1036 1.356 . S
N1043 H1046 0.984 . S
N1043 H1047 0.985 . S
H1044 N1039 0.984 . S
H1045 N1039 0.985 . S
H1046 N1043 0.984 . S
H1047 N1043 0.985 . S
H1048 N1042 0.984 . S
H1049 N1042 0.984 . S
H1050 N1038 0.984 . S
H1051 N1038 0.985 . S
C1052 C1053 1.363 . S
C1052 C1058 1.379 . S
C1052 N1060 1.356 . S
C1053 C1052 1.363 . S
C1053 C1059 1.363 . S
C1054 C1055 1.363 . S
C1054 C1059 1.379 . S
C1054 N1061 1.356 . S
C1055 C1054 1.363 . S
C1055 C1058 1.363 . S
N1056 C1058 1.356 . S
N1056 H1068 0.984 . S
N1056 H1069 0.985 . S
N1057 C1059 1.356 . S
N1057 H1062 0.984 . S
N1057 H1063 0.985 . S
C1058 C1052 1.379 . S
C1058 C1055 1.363 . S
C1058 N1056 1.356 . S
C1059 C1053 1.363 . S
C1059 C1054 1.379 . S
C1059 N1057 1.356 . S
N1060 C1052 1.356 . S
N1060 H1066 0.984 . S
N1060 H1067 0.984 . S
N1061 C1054 1.356 . S
N1061 H1064 0.984 . S
N1061 H1065 0.985 . S
H1062 N1057 0.984 . S
H1063 N1057 0.985 . S
H1064 N1061 0.984 . S
H1065 N1061 0.985 . S
H1066 N1060 0.984 . S
H1067 N1060 0.984 . S
H1068 N1056 0.984 . S
H1069 N1056 0.985 . S
C1070 C1071 1.363 . S
C1070 C1076 1.379 . S
C1070 N1078 1.356 . S
C1071 C1070 1.363 . S
C1071 C1077 1.363 . S
C1072 C1073 1.363 . S
C1072 C1077 1.379 . S
C1072 N1079 1.356 . S
C1073 C1072 1.363 . S
C1073 C1076 1.363 . S
N1074 C1076 1.356 . S
N1074 H1086 0.984 . S
N1074 H1087 0.985 . S
N1075 C1077 1.356 . S
N1075 H1080 0.984 . S
N1075 H1081 0.985 . S
C1076 C1070 1.379 . S
C1076 C1073 1.363 . S
C1076 N1074 1.356 . S
C1077 C1071 1.363 . S
C1077 C1072 1.379 . S
C1077 N1075 1.356 . S
N1078 C1070 1.356 . S
N1078 H1084 0.984 . S
N1078 H1085 0.984 . S
N1079 C1072 1.356 . S
N1079 H1082 0.984 . S
N1079 H1083 0.985 . S
H1080 N1075 0.984 . S
H1081 N1075 0.985 . S
H1082 N1079 0.984 . S
H1083 N1079 0.985 . S
H1084 N1078 0.984 . S
H1085 N1078 0.984 . S
H1086 N1074 0.984 . S
H1087 N1074 0.985 . S
C1088 C1089 1.363 . S
C1088 C1094 1.379 . S
C1088 N1096 1.356 . S
C1089 C1088 1.363 . S
C1089 C1095 1.363 1_455 S
C1090 C1091 1.363 1_655 S
C1090 C1095 1.379 . S
C1090 N1097 1.356 . S
C1091 C1090 1.363 1_455 S
C1091 C1094 1.363 . S
N1092 C1094 1.356 . S
N1092 H1104 0.984 1_554 S
N1092 H1105 0.985 1_554 S
N1093 C1095 1.356 . S
N1093 H1098 0.984 . S
N1093 H1099 0.985 . S
C1094 C1088 1.379 . S
C1094 C1091 1.363 . S
C1094 N1092 1.356 . S
C1095 C1089 1.363 1_655 S
C1095 C1090 1.379 . S
C1095 N1093 1.356 . S
N1096 C1088 1.356 . S
N1096 H1102 0.984 . S
N1096 H1103 0.984 . S
N1097 C1090 1.356 . S
N1097 H1100 0.984 . S
N1097 H1101 0.985 . S
H1098 N1093 0.984 . S
H1099 N1093 0.985 . S
H1100 N1097 0.984 . S
H1101 N1097 0.985 . S
H1102 N1096 0.984 . S
H1103 N1096 0.984 . S
H1104 N1092 0.984 1_556 S
H1105 N1092 0.985 1_556 S
C1106 C1107 1.363 . S
C1106 C1112 1.379 . S
C1106 N1114 1.356 . S
C1107 C1106 1.363 . S
C1107 C1113 1.363 . S
C1108 C1109 1.363 . S
C1108 C1113 1.379 . S
C1108 N1115 1.356 . S
C1109 C1108 1.363 . S
C1109 C1112 1.363 . S
N1110 C1112 1.356 . S
N1110 H1122 0.984 . S
N1110 H1123 0.985 . S
N1111 C1113 1.356 . S
N1111 H1116 0.984 . S
N1111 H1117 0.985 . S
C1112 C1106 1.379 . S
C1112 C1109 1.363 . S
C1112 N1110 1.356 . S
C1113 C1107 1.363 . S
C1113 C1108 1.379 . S
C1113 N1111 1.356 . S
N1114 C1106 1.356 . S
N1114 H1120 0.984 . S
N1114 H1121 0.984 . S
N1115 C1108 1.356 . S
N1115 H1118 0.984 . S
N1115 H1119 0.985 . S
H1116 N1111 0.984 . S
H1117 N1111 0.985 . S
H1118 N1115 0.984 . S
H1119 N1115 0.985 . S
H1120 N1114 0.984 . S
H1121 N1114 0.984 . S
H1122 N1110 0.984 . S
H1123 N1110 0.985 . S
C1124 C1125 1.363 . S
C1124 C1130 1.379 . S
C1124 N1132 1.356 . S
C1125 C1124 1.363 . S
C1125 C1131 1.363 . S
C1126 C1127 1.363 . S
C1126 C1131 1.379 . S
C1126 N1133 1.356 . S
C1127 C1126 1.363 . S
C1127 C1130 1.363 . S
N1128 C1130 1.356 . S
N1128 H1140 0.984 . S
N1128 H1141 0.985 . S
N1129 C1131 1.356 . S
N1129 H1134 0.984 . S
N1129 H1135 0.985 . S
C1130 C1124 1.379 . S
C1130 C1127 1.363 . S
C1130 N1128 1.356 . S
C1131 C1125 1.363 . S
C1131 C1126 1.379 . S
C1131 N1129 1.356 . S
N1132 C1124 1.356 . S
N1132 H1138 0.984 . S
N1132 H1139 0.984 . S
N1133 C1126 1.356 . S
N1133 H1136 0.984 . S
N1133 H1137 0.985 . S
H1134 N1129 0.984 . S
H1135 N1129 0.985 . S
H1136 N1133 0.984 . S
H1137 N1133 0.985 . S
H1138 N1132 0.984 . S
H1139 N1132 0.984 . S
H1140 N1128 0.984 . S
H1141 N1128 0.985 . S
C1142 C1143 1.363 . S
C1142 C1148 1.379 . S
C1142 N1150 1.356 . S
C1143 C1142 1.363 . S
C1143 C1149 1.363 . S
C1144 C1145 1.363 . S
C1144 C1149 1.379 . S
C1144 N1151 1.356 . S
C1145 C1144 1.363 . S
C1145 C1148 1.363 . S
N1146 C1148 1.356 . S
N1146 H1158 0.984 . S
N1146 H1159 0.985 . S
N1147 C1149 1.356 . S
N1147 H1152 0.984 . S
N1147 H1153 0.985 . S
C1148 C1142 1.379 . S
C1148 C1145 1.363 . S
C1148 N1146 1.356 . S
C1149 C1143 1.363 . S
C1149 C1144 1.379 . S
C1149 N1147 1.356 . S
N1150 C1142 1.356 . S
N1150 H1156 0.984 . S
N1150 H1157 0.984 . S
N1151 C1144 1.356 . S
N1151 H1154 0.984 . S
N1151 H1155 0.985 . S
H1152 N1147 0.984 . S
H1153 N1147 0.985 . S
H1154 N1151 0.984 . S
H1155 N1151 0.985 . S
H1156 N1150 0.984 . S
H1157 N1150 0.984 . S
H1158 N1146 0.984 . S
H1159 N1146 0.985 . S
C1160 C1161 1.363 . S
C1160 C1166 1.379 . S
C1160 N1168 1.356 . S
C1161 C1160 1.363 . S
C1161 C1167 1.363 1_455 S
C1162 C1163 1.363 1_655 S
C1162 C1167 1.379 . S
C1162 N1169 1.356 . S
C1163 C1162 1.363 1_455 S
C1163 C1166 1.363 . S
N1164 C1166 1.356 . S
N1164 H1176 0.984 . S
N1164 H1177 0.985 . S
N1165 C1167 1.356 . S
N1165 H1170 0.984 . S
N1165 H1171 0.985 . S
C1166 C1160 1.379 . S
C1166 C1163 1.363 . S
C1166 N1164 1.356 . S
C1167 C1161 1.363 1_655 S
C1167 C1162 1.379 . S
C1167 N1165 1.356 . S
N1168 C1160 1.356 . S
N1168 H1174 0.984 . S
N1168 H1175 0.984 . S
N1169 C1162 1.356 . S
N1169 H1172 0.984 . S
N1169 H1173 0.985 . S
H1170 N1165 0.984 . S
H1171 N1165 0.985 . S
H1172 N1169 0.984 . S
H1173 N1169 0.985 . S
H1174 N1168 0.984 . S
H1175 N1168 0.984 . S
H1176 N1164 0.984 . S
H1177 N1164 0.985 . S
C1178 C1179 1.363 . S
C1178 C1184 1.379 . S
C1178 N1186 1.356 . S
C1179 C1178 1.363 . S
C1179 C1185 1.363 . S
C1180 C1181 1.363 . S
C1180 C1185 1.379 . S
C1180 N1187 1.356 . S
C1181 C1180 1.363 . S
C1181 C1184 1.363 . S
N1182 C1184 1.356 . S
N1182 H1194 0.984 . S
N1182 H1195 0.985 . S
N1183 C1185 1.356 . S
N1183 H1188 0.984 . S
N1183 H1189 0.985 . S
C1184 C1178 1.379 . S
C1184 C1181 1.363 . S
C1184 N1182 1.356 . S
C1185 C1179 1.363 . S
C1185 C1180 1.379 . S
C1185 N1183 1.356 . S
N1186 C1178 1.356 . S
N1186 H1192 0.984 . S
N1186 H1193 0.984 . S
N1187 C1180 1.356 . S
N1187 H1190 0.984 . S
N1187 H1191 0.985 . S
H1188 N1183 0.984 . S
H1189 N1183 0.985 . S
H1190 N1187 0.984 . S
H1191 N1187 0.985 . S
H1192 N1186 0.984 . S
H1193 N1186 0.984 . S
H1194 N1182 0.984 . S
H1195 N1182 0.985 . S
C1196 C1197 1.363 . S
C1196 C1202 1.379 . S
C1196 N1204 1.356 . S
C1197 C1196 1.363 . S
C1197 C1203 1.363 . S
C1198 C1199 1.363 . S
C1198 C1203 1.379 . S
C1198 N1205 1.356 1_556 S
C1199 C1198 1.363 . S
C1199 C1202 1.363 . S
N1200 C1202 1.356 . S
N1200 H1212 0.984 . S
N1200 H1213 0.985 . S
N1201 C1203 1.356 . S
N1201 H1206 0.984 . S
N1201 H1207 0.985 1_556 S
C1202 C1196 1.379 . S
C1202 C1199 1.363 . S
C1202 N1200 1.356 . S
C1203 C1197 1.363 . S
C1203 C1198 1.379 . S
C1203 N1201 1.356 . S
N1204 C1196 1.356 . S
N1204 H1210 0.984 . S
N1204 H1211 0.984 . S
N1205 C1198 1.356 1_554 S
N1205 H1208 0.984 . S
N1205 H1209 0.985 . S
H1206 N1201 0.984 . S
H1207 N1201 0.985 1_554 S
H1208 N1205 0.984 . S
H1209 N1205 0.985 . S
H1210 N1204 0.984 . S
H1211 N1204 0.984 . S
H1212 N1200 0.984 . S
H1213 N1200 0.985 . S
C1214 C1215 1.363 . S
C1214 C1220 1.379 . S
C1214 N1222 1.356 . S
C1215 C1214 1.363 . S
C1215 C1221 1.363 . S
C1216 C1217 1.363 . S
C1216 C1221 1.379 . S
C1216 N1223 1.356 . S
C1217 C1216 1.363 . S
C1217 C1220 1.363 . S
N1218 C1220 1.356 . S
N1218 H1230 0.984 . S
N1218 H1231 0.985 . S
N1219 C1221 1.356 . S
N1219 H1224 0.984 . S
N1219 H1225 0.985 . S
C1220 C1214 1.379 . S
C1220 C1217 1.363 . S
C1220 N1218 1.356 . S
C1221 C1215 1.363 . S
C1221 C1216 1.379 . S
C1221 N1219 1.356 . S
N1222 C1214 1.356 . S
N1222 H1228 0.984 . S
N1222 H1229 0.984 . S
N1223 C1216 1.356 . S
N1223 H1226 0.984 . S
N1223 H1227 0.985 . S
H1224 N1219 0.984 . S
H1225 N1219 0.985 . S
H1226 N1223 0.984 . S
H1227 N1223 0.985 . S
H1228 N1222 0.984 . S
H1229 N1222 0.984 . S
H1230 N1218 0.984 . S
H1231 N1218 0.985 . S
C1232 C1233 1.363 . S
C1232 C1238 1.379 . S
C1232 N1240 1.356 . S
C1233 C1232 1.363 . S
C1233 C1239 1.363 1_545 S
C1234 C1235 1.363 . S
C1234 C1239 1.379 . S
C1234 N1241 1.356 . S
C1235 C1234 1.363 . S
C1235 C1238 1.363 1_565 S
N1236 C1238 1.356 . S
N1236 H1248 0.984 . S
N1236 H1249 0.985 . S
N1237 C1239 1.356 . S
N1237 H1242 0.984 . S
N1237 H1243 0.985 . S
C1238 C1232 1.379 . S
C1238 C1235 1.363 1_545 S
C1238 N1236 1.356 . S
C1239 C1233 1.363 1_565 S
C1239 C1234 1.379 . S
C1239 N1237 1.356 . S
N1240 C1232 1.356 . S
N1240 H1246 0.984 . S
N1240 H1247 0.984 . S
N1241 C1234 1.356 . S
N1241 H1244 0.984 1_455 S
N1241 H1245 0.983 1_455 S
H1242 N1237 0.984 . S
H1243 N1237 0.985 . S
H1244 N1241 0.984 1_655 S
H1245 N1241 0.983 1_655 S
H1246 N1240 0.984 . S
H1247 N1240 0.984 . S
H1248 N1236 0.984 . S
H1249 N1236 0.985 . S
C1250 C1251 1.363 . S
C1250 C1256 1.379 . S
C1250 N1258 1.356 . S
C1251 C1250 1.363 . S
C1251 C1257 1.363 . S
C1252 C1253 1.363 . S
C1252 C1257 1.379 . S
C1252 N1259 1.356 . S
C1253 C1252 1.363 . S
C1253 C1256 1.363 . S
N1254 C1256 1.356 . S
N1254 H1266 0.984 . S
N1254 H1267 0.985 . S
N1255 C1257 1.356 . S
N1255 H1260 0.984 . S
N1255 H1261 0.985 . S
C1256 C1250 1.379 . S
C1256 C1253 1.363 . S
C1256 N1254 1.356 . S
C1257 C1251 1.363 . S
C1257 C1252 1.379 . S
C1257 N1255 1.356 . S
N1258 C1250 1.356 . S
N1258 H1264 0.984 . S
N1258 H1265 0.984 . S
N1259 C1252 1.356 . S
N1259 H1262 0.984 . S
N1259 H1263 0.985 . S
H1260 N1255 0.984 . S
H1261 N1255 0.985 . S
H1262 N1259 0.984 . S
H1263 N1259 0.985 . S
H1264 N1258 0.984 . S
H1265 N1258 0.984 . S
H1266 N1254 0.984 . S
H1267 N1254 0.985 . S
C1268 C1269 1.363 . S
C1268 C1274 1.379 . S
C1268 N1276 1.356 . S
C1269 C1268 1.363 . S
C1269 C1275 1.363 . S
C1270 C1271 1.363 . S
C1270 C1275 1.379 . S
C1270 N1277 1.356 . S
C1271 C1270 1.363 . S
C1271 C1274 1.363 . S
N1272 C1274 1.356 1_565 S
N1272 H1284 0.984 . S
N1272 H1285 0.985 . S
N1273 C1275 1.356 . S
N1273 H1278 0.984 . S
N1273 H1279 0.985 . S
C1274 C1268 1.379 . S
C1274 C1271 1.363 . S
C1274 N1272 1.356 1_545 S
C1275 C1269 1.363 . S
C1275 C1270 1.379 . S
C1275 N1273 1.356 . S
N1276 C1268 1.356 . S
N1276 H1282 0.984 1_545 S
N1276 H1283 0.984 . S
N1277 C1270 1.356 . S
N1277 H1280 0.984 . S
N1277 H1281 0.985 . S
H1278 N1273 0.984 . S
H1279 N1273 0.985 . S
H1280 N1277 0.984 . S
H1281 N1277 0.985 . S
H1282 N1276 0.984 1_565 S
H1283 N1276 0.984 . S
H1284 N1272 0.984 . S
H1285 N1272 0.985 . S
C1286 C1287 1.363 . S
C1286 C1292 1.379 . S
C1286 N1294 1.356 . S
C1287 C1286 1.363 . S
C1287 C1293 1.363 . S
C1288 C1289 1.363 . S
C1288 C1293 1.379 . S
C1288 N1295 1.356 . S
C1289 C1288 1.363 . S
C1289 C1292 1.363 . S
N1290 C1292 1.356 . S
N1290 H1302 0.984 . S
N1290 H1303 0.985 . S
N1291 C1293 1.356 . S
N1291 H1296 0.984 . S
N1291 H1297 0.985 . S
C1292 C1286 1.379 . S
C1292 C1289 1.363 . S
C1292 N1290 1.356 . S
C1293 C1287 1.363 . S
C1293 C1288 1.379 . S
C1293 N1291 1.356 . S
N1294 C1286 1.356 . S
N1294 H1300 0.984 . S
N1294 H1301 0.984 . S
N1295 C1288 1.356 . S
N1295 H1298 0.984 . S
N1295 H1299 0.985 . S
H1296 N1291 0.984 . S
H1297 N1291 0.985 . S
H1298 N1295 0.984 . S
H1299 N1295 0.985 . S
H1300 N1294 0.984 . S
H1301 N1294 0.984 . S
H1302 N1290 0.984 . S
H1303 N1290 0.985 . S
C1304 C1305 1.363 1_545 S
C1304 C1310 1.379 . S
C1304 N1312 1.356 . S
C1305 C1304 1.363 1_565 S
C1305 C1311 1.363 . S
C1306 C1307 1.363 1_565 S
C1306 C1311 1.379 . S
C1306 N1313 1.356 . S
C1307 C1306 1.363 1_545 S
C1307 C1310 1.363 . S
N1308 C1310 1.356 . S
N1308 H1320 0.984 . S
N1308 H1321 0.985 . S
N1309 C1311 1.356 . S
N1309 H1314 0.984 . S
N1309 H1315 0.985 . S
C1310 C1304 1.379 . S
C1310 C1307 1.363 . S
C1310 N1308 1.356 . S
C1311 C1305 1.363 . S
C1311 C1306 1.379 . S
C1311 N1309 1.356 . S
N1312 C1304 1.356 . S
N1312 H1318 0.984 . S
N1312 H1319 0.984 . S
N1313 C1306 1.356 . S
N1313 H1316 0.984 1_455 S
N1313 H1317 0.985 1_455 S
H1314 N1309 0.984 . S
H1315 N1309 0.985 . S
H1316 N1313 0.984 1_655 S
H1317 N1313 0.985 1_655 S
H1318 N1312 0.984 . S
H1319 N1312 0.984 . S
H1320 N1308 0.984 . S
H1321 N1308 0.985 . S
C1322 C1323 1.363 . S
C1322 C1328 1.379 . S
C1322 N1330 1.356 . S
C1323 C1322 1.363 . S
C1323 C1329 1.363 . S
C1324 C1325 1.363 . S
C1324 C1329 1.379 . S
C1324 N1331 1.356 . S
C1325 C1324 1.363 . S
C1325 C1328 1.363 . S
N1326 C1328 1.356 . S
N1326 H1338 0.984 . S
N1326 H1339 0.985 . S
N1327 C1329 1.356 . S
N1327 H1332 0.984 . S
N1327 H1333 0.985 . S
C1328 C1322 1.379 . S
C1328 C1325 1.363 . S
C1328 N1326 1.356 . S
C1329 C1323 1.363 . S
C1329 C1324 1.379 . S
C1329 N1327 1.356 . S
N1330 C1322 1.356 . S
N1330 H1336 0.984 . S
N1330 H1337 0.984 . S
N1331 C1324 1.356 . S
N1331 H1334 0.984 . S
N1331 H1335 0.985 . S
H1332 N1327 0.984 . S
H1333 N1327 0.985 . S
H1334 N1331 0.984 . S
H1335 N1331 0.985 . S
H1336 N1330 0.984 . S
H1337 N1330 0.984 . S
H1338 N1326 0.984 . S
H1339 N1326 0.985 . S
C1340 C1341 1.363 . S
C1340 C1346 1.379 . S
C1340 N1348 1.356 . S
C1341 C1340 1.363 . S
C1341 C1347 1.363 . S
C1342 C1343 1.363 . S
C1342 C1347 1.379 . S
C1342 N1349 1.356 . S
C1343 C1342 1.363 . S
C1343 C1346 1.363 . S
N1344 C1346 1.356 . S
N1344 H1356 0.984 . S
N1344 H1357 0.985 . S
N1345 C1347 1.356 . S
N1345 H1350 0.984 . S
N1345 H1351 0.985 . S
C1346 C1340 1.379 . S
C1346 C1343 1.363 . S
C1346 N1344 1.356 . S
C1347 C1341 1.363 . S
C1347 C1342 1.379 . S
C1347 N1345 1.356 . S
N1348 C1340 1.356 . S
N1348 H1354 0.984 . S
N1348 H1355 0.984 . S
N1349 C1342 1.356 . S
N1349 H1352 0.984 . S
N1349 H1353 0.985 . S
H1350 N1345 0.984 . S
H1351 N1345 0.985 . S
H1352 N1349 0.984 . S
H1353 N1349 0.985 . S
H1354 N1348 0.984 . S
H1355 N1348 0.984 . S
H1356 N1344 0.984 . S
H1357 N1344 0.985 . S
C1358 C1359 1.363 . S
C1358 C1364 1.379 . S
C1358 N1366 1.356 . S
C1359 C1358 1.363 . S
C1359 C1365 1.363 . S
C1360 C1361 1.363 . S
C1360 C1365 1.379 . S
C1360 N1367 1.356 . S
C1361 C1360 1.363 . S
C1361 C1364 1.363 . S
N1362 C1364 1.356 . S
N1362 H1374 0.984 . S
N1362 H1375 0.985 . S
N1363 C1365 1.356 . S
N1363 H1368 0.984 . S
N1363 H1369 0.985 . S
C1364 C1358 1.379 . S
C1364 C1361 1.363 . S
C1364 N1362 1.356 . S
C1365 C1359 1.363 . S
C1365 C1360 1.379 . S
C1365 N1363 1.356 . S
N1366 C1358 1.356 . S
N1366 H1372 0.984 . S
N1366 H1373 0.984 . S
N1367 C1360 1.356 . S
N1367 H1370 0.984 . S
N1367 H1371 0.985 . S
H1368 N1363 0.984 . S
H1369 N1363 0.985 . S
H1370 N1367 0.984 . S
H1371 N1367 0.985 . S
H1372 N1366 0.984 . S
H1373 N1366 0.984 . S
H1374 N1362 0.984 . S
H1375 N1362 0.985 . S
C1376 C1377 1.363 . S
C1376 C1382 1.379 . S
C1376 N1384 1.356 . S
C1377 C1376 1.363 . S
C1377 C1383 1.363 1_554 S
C1378 C1379 1.363 . S
C1378 C1383 1.379 . S
C1378 N1385 1.356 . S
C1379 C1378 1.363 . S
C1379 C1382 1.363 1_556 S
N1380 C1382 1.356 . S
N1380 H1392 0.984 . S
N1380 H1393 0.985 . S
N1381 C1383 1.356 . S
N1381 H1386 0.984 1_556 S
N1381 H1387 0.985 . S
C1382 C1376 1.379 . S
C1382 C1379 1.363 1_554 S
C1382 N1380 1.356 . S
C1383 C1377 1.363 1_556 S
C1383 C1378 1.379 . S
C1383 N1381 1.356 . S
N1384 C1376 1.356 . S
N1384 H1390 0.984 . S
N1384 H1391 0.984 . S
N1385 C1378 1.356 . S
N1385 H1388 0.984 . S
N1385 H1389 0.985 1_545 S
H1386 N1381 0.984 1_554 S
H1387 N1381 0.985 . S
H1388 N1385 0.984 . S
H1389 N1385 0.985 1_565 S
H1390 N1384 0.984 . S
H1391 N1384 0.984 . S
H1392 N1380 0.984 . S
H1393 N1380 0.985 . S
C1394 C1395 1.363 . S
C1394 C1400 1.379 . S
C1394 N1402 1.356 . S
C1395 C1394 1.363 . S
C1395 C1401 1.363 . S
C1396 C1397 1.363 . S
C1396 C1401 1.379 . S
C1396 N1403 1.356 1_554 S
C1397 C1396 1.363 . S
C1397 C1400 1.363 . S
N1398 C1400 1.356 . S
N1398 H1410 0.984 . S
N1398 H1411 0.985 . S
N1399 C1401 1.356 . S
N1399 H1404 0.984 . S
N1399 H1405 0.985 1_554 S
C1400 C1394 1.379 . S
C1400 C1397 1.363 . S
C1400 N1398 1.356 . S
C1401 C1395 1.363 . S
C1401 C1396 1.379 . S
C1401 N1399 1.356 . S
N1402 C1394 1.356 . S
N1402 H1408 0.984 . S
N1402 H1409 0.984 . S
N1403 C1396 1.356 1_556 S
N1403 H1406 0.984 1_556 S
N1403 H1407 0.985 . S
H1404 N1399 0.984 . S
H1405 N1399 0.985 1_556 S
H1406 N1403 0.984 1_554 S
H1407 N1403 0.985 . S
H1408 N1402 0.984 . S
H1409 N1402 0.984 . S
H1410 N1398 0.984 . S
H1411 N1398 0.985 . S
C1412 C1413 1.363 . S
C1412 C1418 1.379 . S
C1412 N1420 1.356 . S
C1413 C1412 1.363 . S
C1413 C1419 1.363 . S
C1414 C1415 1.363 . S
C1414 C1419 1.379 . S
C1414 N1421 1.356 . S
C1415 C1414 1.363 . S
C1415 C1418 1.363 . S
N1416 C1418 1.356 . S
N1416 H1428 0.984 . S
N1416 H1429 0.985 . S
N1417 C1419 1.356 . S
N1417 H1422 0.984 . S
N1417 H1423 0.985 . S
C1418 C1412 1.379 . S
C1418 C1415 1.363 . S
C1418 N1416 1.356 . S
C1419 C1413 1.363 . S
C1419 C1414 1.379 . S
C1419 N1417 1.356 . S
N1420 C1412 1.356 . S
N1420 H1426 0.984 . S
N1420 H1427 0.984 . S
N1421 C1414 1.356 . S
N1421 H1424 0.984 . S
N1421 H1425 0.985 . S
H1422 N1417 0.984 . S
H1423 N1417 0.985 . S
H1424 N1421 0.984 . S
H1425 N1421 0.985 . S
H1426 N1420 0.984 . S
H1427 N1420 0.984 . S
H1428 N1416 0.984 . S
H1429 N1416 0.985 . S
C1430 C1431 1.363 . S
C1430 C1436 1.379 . S
C1430 N1438 1.356 . S
C1431 C1430 1.363 . S
C1431 C1437 1.363 . S
C1432 C1433 1.363 . S
C1432 C1437 1.379 . S
C1432 N1439 1.356 . S
C1433 C1432 1.363 . S
C1433 C1436 1.363 . S
N1434 C1436 1.356 . S
N1434 H1446 0.984 . S
N1434 H1447 0.985 . S
N1435 C1437 1.356 . S
N1435 H1440 0.984 . S
N1435 H1441 0.985 . S
C1436 C1430 1.379 . S
C1436 C1433 1.363 . S
C1436 N1434 1.356 . S
C1437 C1431 1.363 . S
C1437 C1432 1.379 . S
C1437 N1435 1.356 . S
N1438 C1430 1.356 . S
N1438 H1444 0.984 . S
N1438 H1445 0.984 . S
N1439 C1432 1.356 . S
N1439 H1442 0.984 . S
N1439 H1443 0.985 . S
H1440 N1435 0.984 . S
H1441 N1435 0.985 . S
H1442 N1439 0.984 . S
H1443 N1439 0.985 . S
H1444 N1438 0.984 . S
H1445 N1438 0.984 . S
H1446 N1434 0.984 . S
H1447 N1434 0.985 . S
C1448 C1449 1.363 . S
C1448 C1454 1.379 . S
C1448 N1456 1.356 . S
C1449 C1448 1.363 . S
C1449 C1455 1.363 . S
C1450 C1451 1.363 . S
C1450 C1455 1.379 . S
C1450 N1457 1.356 . S
C1451 C1450 1.363 . S
C1451 C1454 1.363 . S
N1452 C1454 1.356 . S
N1452 H1464 0.984 . S
N1452 H1465 0.985 . S
N1453 C1455 1.356 . S
N1453 H1458 0.984 . S
N1453 H1459 0.985 . S
C1454 C1448 1.379 . S
C1454 C1451 1.363 . S
C1454 N1452 1.356 . S
C1455 C1449 1.363 . S
C1455 C1450 1.379 . S
C1455 N1453 1.356 . S
N1456 C1448 1.356 . S
N1456 H1462 0.984 . S
N1456 H1463 0.984 . S
N1457 C1450 1.356 . S
N1457 H1460 0.984 . S
N1457 H1461 0.985 . S
H1458 N1453 0.984 . S
H1459 N1453 0.985 . S
H1460 N1457 0.984 . S
H1461 N1457 0.985 . S
H1462 N1456 0.984 . S
H1463 N1456 0.984 . S
H1464 N1452 0.984 . S
H1465 N1452 0.985 . S
C1466 C1467 1.363 . S
C1466 C1472 1.379 . S
C1466 N1474 1.356 . S
C1467 C1466 1.363 . S
C1467 C1473 1.363 . S
C1468 C1469 1.363 . S
C1468 C1473 1.379 . S
C1468 N1475 1.356 . S
C1469 C1468 1.363 . S
C1469 C1472 1.363 . S
N1470 C1472 1.375 . S
N1470 H1482 0.980 1_565 S
N1470 H1483 0.971 1_565 S
N1471 C1473 1.356 . S
N1471 H1476 0.984 . S
N1471 H1477 0.985 . S
C1472 C1466 1.379 . S
C1472 C1469 1.363 . S
C1472 N1470 1.375 . S
C1473 C1467 1.363 . S
C1473 C1468 1.379 . S
C1473 N1471 1.356 . S
N1474 C1466 1.356 . S
N1474 H1480 0.984 . S
N1474 H1481 0.984 . S
N1475 C1468 1.356 . S
N1475 H1478 0.984 . S
N1475 H1479 0.985 . S
H1476 N1471 0.984 . S
H1477 N1471 0.985 . S
H1478 N1475 0.984 . S
H1479 N1475 0.985 . S
H1480 N1474 0.984 . S
H1481 N1474 0.984 . S
H1482 N1470 0.980 1_545 S
H1483 N1470 0.971 1_545 S
C1484 C1485 1.363 . S
C1484 C1490 1.379 . S
C1484 N1492 1.356 . S
C1485 C1484 1.363 . S
C1485 C1491 1.363 . S
C1486 C1487 1.363 . S
C1486 C1491 1.379 . S
C1486 N1493 1.356 . S
C1487 C1486 1.363 . S
C1487 C1490 1.363 . S
N1488 C1490 1.356 . S
N1488 H1500 0.984 . S
N1488 H1501 0.985 . S
N1489 C1491 1.356 . S
N1489 H1494 0.984 . S
N1489 H1495 0.985 . S
C1490 C1484 1.379 . S
C1490 C1487 1.363 . S
C1490 N1488 1.356 . S
C1491 C1485 1.363 . S
C1491 C1486 1.379 . S
C1491 N1489 1.356 . S
N1492 C1484 1.356 . S
N1492 H1498 0.984 . S
N1492 H1499 0.984 . S
N1493 C1486 1.356 . S
N1493 H1496 0.984 . S
N1493 H1497 0.985 . S
H1494 N1489 0.984 . S
H1495 N1489 0.985 . S
H1496 N1493 0.984 . S
H1497 N1493 0.985 . S
H1498 N1492 0.984 . S
H1499 N1492 0.984 . S
H1500 N1488 0.984 . S
H1501 N1488 0.985 . S
C1502 C1503 1.363 . S
C1502 C1508 1.379 . S
C1502 N1510 1.356 . S
C1503 C1502 1.363 . S
C1503 C1509 1.363 . S
C1504 C1505 1.363 . S
C1504 C1509 1.379 . S
C1504 N1511 1.356 . S
C1505 C1504 1.363 . S
C1505 C1508 1.363 . S
N1506 C1508 1.356 . S
N1506 H1518 0.984 . S
N1506 H1519 0.985 . S
N1507 C1509 1.356 . S
N1507 H1512 0.984 . S
N1507 H1513 0.985 . S
C1508 C1502 1.379 . S
C1508 C1505 1.363 . S
C1508 N1506 1.356 . S
C1509 C1503 1.363 . S
C1509 C1504 1.379 . S
C1509 N1507 1.356 . S
N1510 C1502 1.356 . S
N1510 H1516 0.984 . S
N1510 H1517 0.984 . S
N1511 C1504 1.356 . S
N1511 H1514 0.984 . S
N1511 H1515 0.985 . S
H1512 N1507 0.984 . S
H1513 N1507 0.985 . S
H1514 N1511 0.984 . S
H1515 N1511 0.985 . S
H1516 N1510 0.984 . S
H1517 N1510 0.984 . S
H1518 N1506 0.984 . S
H1519 N1506 0.985 . S
C1520 C1521 1.363 . S
C1520 C1526 1.379 . S
C1520 N1528 1.356 . S
C1521 C1520 1.363 . S
C1521 C1527 1.363 . S
C1522 C1523 1.363 . S
C1522 C1527 1.379 . S
C1522 N1529 1.356 . S
C1523 C1522 1.363 . S
C1523 C1526 1.363 . S
N1524 C1526 1.356 . S
N1524 H1536 0.984 . S
N1524 H1537 0.985 . S
N1525 C1527 1.356 . S
N1525 H1530 0.984 . S
N1525 H1531 0.985 . S
C1526 C1520 1.379 . S
C1526 C1523 1.363 . S
C1526 N1524 1.356 . S
C1527 C1521 1.363 . S
C1527 C1522 1.379 . S
C1527 N1525 1.356 . S
N1528 C1520 1.356 . S
N1528 H1534 0.984 . S
N1528 H1535 0.984 . S
N1529 C1522 1.356 . S
N1529 H1532 0.984 . S
N1529 H1533 0.985 . S
H1530 N1525 0.984 . S
H1531 N1525 0.985 . S
H1532 N1529 0.984 . S
H1533 N1529 0.985 . S
H1534 N1528 0.984 . S
H1535 N1528 0.984 . S
H1536 N1524 0.984 . S
H1537 N1524 0.985 . S
C1538 C1539 1.363 . S
C1538 C1544 1.379 . S
C1538 N1546 1.356 . S
C1539 C1538 1.363 . S
C1539 C1545 1.363 . S
C1540 C1541 1.363 . S
C1540 C1545 1.379 . S
C1540 N1547 1.356 . S
C1541 C1540 1.363 . S
C1541 C1544 1.363 . S
N1542 C1544 1.356 . S
N1542 H1554 0.984 . S
N1542 H1555 0.985 . S
N1543 C1545 1.356 . S
N1543 H1548 0.984 . S
N1543 H1549 0.985 . S
C1544 C1538 1.379 . S
C1544 C1541 1.363 . S
C1544 N1542 1.356 . S
C1545 C1539 1.363 . S
C1545 C1540 1.379 . S
C1545 N1543 1.356 . S
N1546 C1538 1.356 . S
N1546 H1552 0.984 . S
N1546 H1553 0.984 . S
N1547 C1540 1.356 . S
N1547 H1550 0.984 . S
N1547 H1551 0.985 . S
H1548 N1543 0.984 . S
H1549 N1543 0.985 . S
H1550 N1547 0.984 . S
H1551 N1547 0.985 . S
H1552 N1546 0.984 . S
H1553 N1546 0.984 . S
H1554 N1542 0.984 . S
H1555 N1542 0.985 . S
C1556 C1557 1.363 . S
C1556 C1562 1.379 . S
C1556 N1564 1.356 . S
C1557 C1556 1.363 . S
C1557 C1563 1.363 1_455 S
C1558 C1559 1.363 1_655 S
C1558 C1563 1.379 . S
C1558 N1565 1.356 . S
C1559 C1558 1.363 1_455 S
C1559 C1562 1.363 . S
N1560 C1562 1.356 . S
N1560 H1572 0.984 . S
N1560 H1573 0.985 . S
N1561 C1563 1.356 . S
N1561 H1566 0.984 . S
N1561 H1567 0.985 . S
C1562 C1556 1.379 . S
C1562 C1559 1.363 . S
C1562 N1560 1.356 . S
C1563 C1557 1.363 1_655 S
C1563 C1558 1.379 . S
C1563 N1561 1.356 . S
N1564 C1556 1.356 . S
N1564 H1570 0.984 . S
N1564 H1571 0.984 . S
N1565 C1558 1.356 . S
N1565 H1568 0.984 1_556 S
N1565 H1569 0.985 . S
H1566 N1561 0.984 . S
H1567 N1561 0.985 . S
H1568 N1565 0.984 1_554 S
H1569 N1565 0.985 . S
H1570 N1564 0.984 . S
H1571 N1564 0.984 . S
H1572 N1560 0.984 . S
H1573 N1560 0.985 . S
C1574 C1575 1.363 . S
C1574 C1580 1.379 . S
C1574 N1582 1.356 . S
C1575 C1574 1.363 . S
C1575 C1581 1.363 . S
C1576 C1577 1.363 . S
C1576 C1581 1.379 . S
C1576 N1583 1.356 . S
C1577 C1576 1.363 . S
C1577 C1580 1.363 . S
N1578 C1580 1.356 . S
N1578 H1590 0.984 . S
N1578 H1591 0.985 . S
N1579 C1581 1.356 . S
N1579 H1584 0.984 . S
N1579 H1585 0.985 . S
C1580 C1574 1.379 . S
C1580 C1577 1.363 . S
C1580 N1578 1.356 . S
C1581 C1575 1.363 . S
C1581 C1576 1.379 . S
C1581 N1579 1.356 . S
N1582 C1574 1.356 . S
N1582 H1588 0.984 . S
N1582 H1589 0.984 . S
N1583 C1576 1.356 . S
N1583 H1586 0.984 . S
N1583 H1587 0.985 . S
H1584 N1579 0.984 . S
H1585 N1579 0.985 . S
H1586 N1583 0.984 . S
H1587 N1583 0.985 . S
H1588 N1582 0.984 . S
H1589 N1582 0.984 . S
H1590 N1578 0.984 . S
H1591 N1578 0.985 . S
C1592 C1593 1.363 . S
C1592 C1598 1.379 . S
C1592 N1600 1.356 . S
C1593 C1592 1.363 . S
C1593 C1599 1.363 . S
C1594 C1595 1.363 . S
C1594 C1599 1.379 . S
C1594 N1601 1.356 . S
C1595 C1594 1.363 . S
C1595 C1598 1.363 . S
N1596 C1598 1.356 . S
N1596 H1608 0.984 1_554 S
N1596 H1609 0.985 . S
N1597 C1599 1.356 . S
N1597 H1602 0.984 . S
N1597 H1603 0.985 . S
C1598 C1592 1.379 . S
C1598 C1595 1.363 . S
C1598 N1596 1.356 . S
C1599 C1593 1.363 . S
C1599 C1594 1.379 . S
C1599 N1597 1.356 . S
N1600 C1592 1.356 . S
N1600 H1606 0.984 . S
N1600 H1607 0.984 . S
N1601 C1594 1.356 . S
N1601 H1604 0.984 . S
N1601 H1605 0.985 . S
H1602 N1597 0.984 . S
H1603 N1597 0.985 . S
H1604 N1601 0.984 . S
H1605 N1601 0.985 . S
H1606 N1600 0.984 . S
H1607 N1600 0.984 . S
H1608 N1596 0.984 1_556 S
H1609 N1596 0.985 . S
C1610 C1611 1.363 . S
C1610 C1616 1.379 . S
C1610 N1618 1.356 . S
C1611 C1610 1.363 . S
C1611 C1617 1.363 . S
C1612 C1613 1.363 . S
C1612 C1617 1.379 . S
C1612 N1619 1.356 . S
C1613 C1612 1.363 . S
C1613 C1616 1.363 . S
N1614 C1616 1.356 . S
N1614 H1626 0.984 . S
N1614 H1627 0.985 . S
N1615 C1617 1.356 . S
N1615 H1620 0.984 . S
N1615 H1621 0.985 . S
C1616 C1610 1.379 . S
C1616 C1613 1.363 . S
C1616 N1614 1.356 . S
C1617 C1611 1.363 . S
C1617 C1612 1.379 . S
C1617 N1615 1.356 . S
N1618 C1610 1.356 . S
N1618 H1624 0.984 . S
N1618 H1625 0.984 . S
N1619 C1612 1.356 . S
N1619 H1622 0.984 . S
N1619 H1623 0.985 . S
H1620 N1615 0.984 . S
H1621 N1615 0.985 . S
H1622 N1619 0.984 . S
H1623 N1619 0.985 . S
H1624 N1618 0.984 . S
H1625 N1618 0.984 . S
H1626 N1614 0.984 . S
H1627 N1614 0.985 . S
C1628 C1629 1.363 . S
C1628 C1634 1.379 . S
C1628 N1636 1.356 . S
C1629 C1628 1.363 . S
C1629 C1635 1.363 1_655 S
C1630 C1631 1.363 1_455 S
C1630 C1635 1.379 . S
C1630 N1637 1.356 . S
C1631 C1630 1.363 1_655 S
C1631 C1634 1.363 . S
N1632 C1634 1.356 . S
N1632 H1644 0.984 . S
N1632 H1645 0.985 . S
N1633 C1635 1.356 . S
N1633 H1638 0.984 . S
N1633 H1639 0.985 . S
C1634 C1628 1.379 . S
C1634 C1631 1.363 . S
C1634 N1632 1.356 . S
C1635 C1629 1.363 1_455 S
C1635 C1630 1.379 . S
C1635 N1633 1.356 . S
N1636 C1628 1.356 . S
N1636 H1642 0.984 . S
N1636 H1643 0.984 . S
N1637 C1630 1.356 . S
N1637 H1640 0.984 . S
N1637 H1641 0.985 . S
H1638 N1633 0.984 . S
H1639 N1633 0.985 . S
H1640 N1637 0.984 . S
H1641 N1637 0.985 . S
H1642 N1636 0.984 . S
H1643 N1636 0.984 . S
H1644 N1632 0.984 . S
H1645 N1632 0.985 . S
C1646 C1647 1.363 . S
C1646 C1652 1.379 . S
C1646 N1654 1.356 . S
C1647 C1646 1.363 . S
C1647 C1653 1.363 . S
C1648 C1649 1.363 . S
C1648 C1653 1.379 . S
C1648 N1655 1.356 . S
C1649 C1648 1.363 . S
C1649 C1652 1.363 . S
N1650 C1652 1.356 . S
N1650 H1662 0.984 . S
N1650 H1663 0.985 . S
N1651 C1653 1.356 . S
N1651 H1656 0.984 . S
N1651 H1657 0.985 . S
C1652 C1646 1.379 . S
C1652 C1649 1.363 . S
C1652 N1650 1.356 . S
C1653 C1647 1.363 . S
C1653 C1648 1.379 . S
C1653 N1651 1.356 . S
N1654 C1646 1.356 . S
N1654 H1660 0.984 . S
N1654 H1661 0.984 . S
N1655 C1648 1.356 . S
N1655 H1658 0.984 . S
N1655 H1659 0.985 . S
H1656 N1651 0.984 . S
H1657 N1651 0.985 . S
H1658 N1655 0.984 . S
H1659 N1655 0.985 . S
H1660 N1654 0.984 . S
H1661 N1654 0.984 . S
H1662 N1650 0.984 . S
H1663 N1650 0.985 . S
C1664 C1665 1.363 . S
C1664 C1670 1.379 . S
C1664 N1672 1.356 . S
C1665 C1664 1.363 . S
C1665 C1671 1.363 . S
C1666 C1667 1.363 . S
C1666 C1671 1.379 . S
C1666 N1673 1.356 . S
C1667 C1666 1.363 . S
C1667 C1670 1.363 . S
N1668 C1670 1.356 . S
N1668 H1680 0.984 . S
N1668 H1681 0.985 . S
N1669 C1671 1.356 . S
N1669 H1674 0.984 . S
N1669 H1675 0.985 . S
C1670 C1664 1.379 . S
C1670 C1667 1.363 . S
C1670 N1668 1.356 . S
C1671 C1665 1.363 . S
C1671 C1666 1.379 . S
C1671 N1669 1.356 . S
N1672 C1664 1.356 . S
N1672 H1678 0.984 . S
N1672 H1679 0.984 . S
N1673 C1666 1.356 . S
N1673 H1676 0.984 . S
N1673 H1677 0.985 . S
H1674 N1669 0.984 . S
H1675 N1669 0.985 . S
H1676 N1673 0.984 . S
H1677 N1673 0.985 . S
H1678 N1672 0.984 . S
H1679 N1672 0.984 . S
H1680 N1668 0.984 . S
H1681 N1668 0.985 . S
C1682 C1683 1.363 . S
C1682 C1688 1.379 . S
C1682 N1690 1.356 . S
C1683 C1682 1.363 . S
C1683 C1689 1.363 . S
C1684 C1685 1.363 . S
C1684 C1689 1.379 . S
C1684 N1691 1.356 . S
C1685 C1684 1.363 . S
C1685 C1688 1.363 . S
N1686 C1688 1.356 . S
N1686 H1698 0.984 . S
N1686 H1699 0.985 . S
N1687 C1689 1.356 . S
N1687 H1692 0.984 . S
N1687 H1693 0.985 . S
C1688 C1682 1.379 . S
C1688 C1685 1.363 . S
C1688 N1686 1.356 . S
C1689 C1683 1.363 . S
C1689 C1684 1.379 . S
C1689 N1687 1.356 . S
N1690 C1682 1.356 . S
N1690 H1696 0.984 . S
N1690 H1697 0.984 . S
N1691 C1684 1.356 . S
N1691 H1694 0.984 . S
N1691 H1695 0.985 . S
H1692 N1687 0.984 . S
H1693 N1687 0.985 . S
H1694 N1691 0.984 . S
H1695 N1691 0.985 . S
H1696 N1690 0.984 . S
H1697 N1690 0.984 . S
H1698 N1686 0.984 . S
H1699 N1686 0.985 . S
C1700 C1701 1.363 . S
C1700 C1706 1.379 . S
C1700 N1708 1.356 . S
C1701 C1700 1.363 . S
C1701 C1707 1.363 . S
C1702 C1703 1.363 . S
C1702 C1707 1.379 . S
C1702 N1709 1.356 . S
C1703 C1702 1.363 . S
C1703 C1706 1.363 . S
N1704 C1706 1.356 . S
N1704 H1716 0.984 . S
N1704 H1717 0.985 . S
N1705 C1707 1.356 . S
N1705 H1710 0.984 . S
N1705 H1711 0.985 . S
C1706 C1700 1.379 . S
C1706 C1703 1.363 . S
C1706 N1704 1.356 . S
C1707 C1701 1.363 . S
C1707 C1702 1.379 . S
C1707 N1705 1.356 . S
N1708 C1700 1.356 . S
N1708 H1714 0.984 . S
N1708 H1715 0.984 . S
N1709 C1702 1.356 . S
N1709 H1712 0.984 . S
N1709 H1713 0.985 . S
H1710 N1705 0.984 . S
H1711 N1705 0.985 . S
H1712 N1709 0.984 . S
H1713 N1709 0.985 . S
H1714 N1708 0.984 . S
H1715 N1708 0.984 . S
H1716 N1704 0.984 . S
H1717 N1704 0.985 . S
C1718 C1719 1.363 . S
C1718 C1724 1.379 . S
C1718 N1726 1.356 . S
C1719 C1718 1.363 . S
C1719 C1725 1.363 . S
C1720 C1721 1.363 . S
C1720 C1725 1.379 . S
C1720 N1727 1.356 . S
C1721 C1720 1.363 . S
C1721 C1724 1.363 . S
N1722 C1724 1.356 . S
N1722 H1734 0.984 . S
N1722 H1735 0.985 . S
N1723 C1725 1.356 . S
N1723 H1728 0.984 . S
N1723 H1729 0.985 . S
C1724 C1718 1.379 . S
C1724 C1721 1.363 . S
C1724 N1722 1.356 . S
C1725 C1719 1.363 . S
C1725 C1720 1.379 . S
C1725 N1723 1.356 . S
N1726 C1718 1.356 . S
N1726 H1732 0.984 . S
N1726 H1733 0.984 . S
N1727 C1720 1.356 . S
N1727 H1730 0.984 . S
N1727 H1731 0.985 . S
H1728 N1723 0.984 . S
H1729 N1723 0.985 . S
H1730 N1727 0.984 . S
H1731 N1727 0.985 . S
H1732 N1726 0.984 . S
H1733 N1726 0.984 . S
H1734 N1722 0.984 . S
H1735 N1722 0.985 . S
C1736 C1737 1.363 . S
C1736 C1742 1.379 . S
C1736 N1744 1.356 . S
C1737 C1736 1.363 . S
C1737 C1743 1.363 . S
C1738 C1739 1.363 . S
C1738 C1743 1.379 . S
C1738 N1745 1.356 . S
C1739 C1738 1.363 . S
C1739 C1742 1.363 . S
N1740 C1742 1.356 . S
N1740 H1752 0.984 . S
N1740 H1753 0.985 . S
N1741 C1743 1.356 . S
N1741 H1746 0.984 . S
N1741 H1747 0.985 . S
C1742 C1736 1.379 . S
C1742 C1739 1.363 . S
C1742 N1740 1.356 . S
C1743 C1737 1.363 . S
C1743 C1738 1.379 . S
C1743 N1741 1.356 . S
N1744 C1736 1.356 . S
N1744 H1750 0.984 . S
N1744 H1751 0.984 . S
N1745 C1738 1.356 . S
N1745 H1748 0.984 . S
N1745 H1749 0.985 . S
H1746 N1741 0.984 . S
H1747 N1741 0.985 . S
H1748 N1745 0.984 . S
H1749 N1745 0.985 . S
H1750 N1744 0.984 . S
H1751 N1744 0.984 . S
H1752 N1740 0.984 . S
H1753 N1740 0.985 . S
C1754 C1755 1.363 . S
C1754 C1760 1.379 . S
C1754 N1762 1.356 . S
C1755 C1754 1.363 . S
C1755 C1761 1.363 . S
C1756 C1757 1.363 . S
C1756 C1761 1.379 . S
C1756 N1763 1.356 . S
C1757 C1756 1.363 . S
C1757 C1760 1.363 . S
N1758 C1760 1.356 . S
N1758 H1770 0.984 . S
N1758 H1771 0.985 . S
N1759 C1761 1.356 . S
N1759 H1764 0.984 . S
N1759 H1765 0.985 . S
C1760 C1754 1.379 . S
C1760 C1757 1.363 . S
C1760 N1758 1.356 . S
C1761 C1755 1.363 . S
C1761 C1756 1.379 . S
C1761 N1759 1.356 . S
N1762 C1754 1.356 . S
N1762 H1768 0.984 . S
N1762 H1769 0.984 . S
N1763 C1756 1.356 . S
N1763 H1766 0.984 . S
N1763 H1767 0.985 . S
H1764 N1759 0.984 . S
H1765 N1759 0.985 . S
H1766 N1763 0.984 . S
H1767 N1763 0.985 . S
H1768 N1762 0.984 . S
H1769 N1762 0.984 . S
H1770 N1758 0.984 . S
H1771 N1758 0.985 . S
C1772 C1773 1.363 . S
C1772 C1778 1.379 . S
C1772 N1780 1.356 . S
C1773 C1772 1.363 . S
C1773 C1779 1.363 . S
C1774 C1775 1.363 . S
C1774 C1779 1.379 . S
C1774 N1781 1.356 . S
C1775 C1774 1.363 . S
C1775 C1778 1.363 . S
N1776 C1778 1.356 . S
N1776 H1788 0.984 1_455 S
N1776 H1789 0.985 . S
N1777 C1779 1.356 . S
N1777 H1782 0.984 . S
N1777 H1783 0.985 . S
C1778 C1772 1.379 . S
C1778 C1775 1.363 . S
C1778 N1776 1.356 . S
C1779 C1773 1.363 . S
C1779 C1774 1.379 . S
C1779 N1777 1.356 . S
N1780 C1772 1.356 . S
N1780 H1786 0.984 . S
N1780 H1787 0.984 . S
N1781 C1774 1.356 . S
N1781 H1784 0.984 . S
N1781 H1785 0.985 . S
H1782 N1777 0.984 . S
H1783 N1777 0.985 . S
H1784 N1781 0.984 . S
H1785 N1781 0.985 . S
H1786 N1780 0.984 . S
H1787 N1780 0.984 . S
H1788 N1776 0.984 1_655 S
H1789 N1776 0.985 . S
C1790 C1791 1.363 . S
C1790 C1796 1.379 . S
C1790 N1798 1.356 . S
C1791 C1790 1.363 . S
C1791 C1797 1.363 . S
C1792 C1793 1.363 . S
C1792 C1797 1.379 . S
C1792 N1799 1.356 . S
C1793 C1792 1.363 . S
C1793 C1796 1.363 . S
N1794 C1796 1.356 . S
N1794 H1806 0.984 . S
N1794 H1807 0.985 . S
N1795 C1797 1.356 . S
N1795 H1800 0.984 . S
N1795 H1801 0.985 . S
C1796 C1790 1.379 . S
C1796 C1793 1.363 . S
C1796 N1794 1.356 . S
C1797 C1791 1.363 . S
C1797 C1792 1.379 . S
C1797 N1795 1.356 . S
N1798 C1790 1.356 . S
N1798 H1804 0.984 . S
N1798 H1805 0.984 . S
N1799 C1792 1.356 . S
N1799 H1802 0.984 . S
N1799 H1803 0.985 . S
H1800 N1795 0.984 . S
H1801 N1795 0.985 . S
H1802 N1799 0.984 . S
H1803 N1799 0.985 . S
H1804 N1798 0.984 . S
H1805 N1798 0.984 . S
H1806 N1794 0.984 . S
H1807 N1794 0.985 . S
C1808 C1809 1.363 . S
C1808 C1814 1.379 . S
C1808 N1816 1.356 . S
C1809 C1808 1.363 . S
C1809 C1815 1.363 . S
C1810 C1811 1.363 . S
C1810 C1815 1.379 . S
C1810 N1817 1.356 . S
C1811 C1810 1.363 . S
C1811 C1814 1.363 . S
N1812 C1814 1.356 . S
N1812 H1824 0.984 . S
N1812 H1825 0.985 . S
N1813 C1815 1.356 . S
N1813 H1818 0.984 . S
N1813 H1819 0.985 . S
C1814 C1808 1.379 . S
C1814 C1811 1.363 . S
C1814 N1812 1.356 . S
C1815 C1809 1.363 . S
C1815 C1810 1.379 . S
C1815 N1813 1.356 . S
N1816 C1808 1.356 . S
N1816 H1822 0.984 . S
N1816 H1823 0.984 . S
N1817 C1810 1.356 . S
N1817 H1820 0.984 . S
N1817 H1821 0.985 . S
H1818 N1813 0.984 . S
H1819 N1813 0.985 . S
H1820 N1817 0.984 . S
H1821 N1817 0.985 . S
H1822 N1816 0.984 . S
H1823 N1816 0.984 . S
H1824 N1812 0.984 . S
H1825 N1812 0.985 . S
C1826 C1827 1.363 . S
C1826 C1832 1.379 . S
C1826 N1834 1.356 . S
C1827 C1826 1.363 . S
C1827 C1833 1.363 . S
C1828 C1829 1.363 . S
C1828 C1833 1.379 . S
C1828 N1835 1.356 . S
C1829 C1828 1.363 . S
C1829 C1832 1.363 . S
N1830 C1832 1.356 . S
N1830 H1842 0.984 . S
N1830 H1843 0.985 . S
N1831 C1833 1.356 . S
N1831 H1836 0.984 . S
N1831 H1837 0.985 . S
C1832 C1826 1.379 . S
C1832 C1829 1.363 . S
C1832 N1830 1.356 . S
C1833 C1827 1.363 . S
C1833 C1828 1.379 . S
C1833 N1831 1.356 . S
N1834 C1826 1.356 . S
N1834 H1840 0.984 . S
N1834 H1841 0.984 . S
N1835 C1828 1.356 . S
N1835 H1838 0.984 . S
N1835 H1839 0.985 . S
H1836 N1831 0.984 . S
H1837 N1831 0.985 . S
H1838 N1835 0.984 . S
H1839 N1835 0.985 . S
H1840 N1834 0.984 . S
H1841 N1834 0.984 . S
H1842 N1830 0.984 . S
H1843 N1830 0.985 . S
C1844 C1845 1.363 . S
C1844 C1850 1.379 . S
C1844 N1852 1.356 . S
C1845 C1844 1.363 . S
C1845 C1851 1.363 . S
C1846 C1847 1.363 . S
C1846 C1851 1.379 . S
C1846 N1853 1.356 . S
C1847 C1846 1.363 . S
C1847 C1850 1.363 . S
N1848 C1850 1.356 . S
N1848 H1860 0.984 . S
N1848 H1861 0.985 . S
N1849 C1851 1.356 . S
N1849 H1854 0.984 . S
N1849 H1855 0.985 . S
C1850 C1844 1.379 . S
C1850 C1847 1.363 . S
C1850 N1848 1.356 . S
C1851 C1845 1.363 . S
C1851 C1846 1.379 . S
C1851 N1849 1.356 . S
N1852 C1844 1.356 . S
N1852 H1858 0.984 . S
N1852 H1859 0.984 . S
N1853 C1846 1.356 . S
N1853 H1856 0.984 . S
N1853 H1857 0.985 . S
H1854 N1849 0.984 . S
H1855 N1849 0.985 . S
H1856 N1853 0.984 . S
H1857 N1853 0.985 . S
H1858 N1852 0.984 . S
H1859 N1852 0.984 . S
H1860 N1848 0.984 . S
H1861 N1848 0.985 . S
C1862 C1863 1.363 . S
C1862 C1868 1.379 . S
C1862 N1870 1.356 . S
C1863 C1862 1.363 . S
C1863 C1869 1.363 . S
C1864 C1865 1.363 1_545 S
C1864 C1869 1.379 1_545 S
C1864 N1871 1.356 . S
C1865 C1864 1.363 1_565 S
C1865 C1868 1.363 . S
N1866 C1868 1.356 1_556 S
N1866 H1878 0.984 . S
N1866 H1879 0.985 . S
N1867 C1869 1.356 . S
N1867 H1872 0.984 . S
N1867 H1873 0.985 1_565 S
C1868 C1862 1.379 . S
C1868 C1865 1.363 . S
C1868 N1866 1.356 1_554 S
C1869 C1863 1.363 . S
C1869 C1864 1.379 1_565 S
C1869 N1867 1.356 . S
N1870 C1862 1.356 . S
N1870 H1876 0.984 1_554 S
N1870 H1877 0.984 . S
N1871 C1864 1.356 . S
N1871 H1874 0.984 . S
N1871 H1875 0.985 . S
H1872 N1867 0.984 . S
H1873 N1867 0.985 1_545 S
H1874 N1871 0.984 . S
H1875 N1871 0.985 . S
H1876 N1870 0.984 1_556 S
H1877 N1870 0.984 . S
H1878 N1866 0.984 . S
H1879 N1866 0.985 . S
C1880 C1881 1.363 . S
C1880 C1886 1.379 . S
C1880 N1888 1.356 . S
C1881 C1880 1.363 . S
C1881 C1887 1.363 . S
C1882 C1883 1.363 . S
C1882 C1887 1.379 . S
C1882 N1889 1.356 . S
C1883 C1882 1.363 . S
C1883 C1886 1.363 . S
N1884 C1886 1.356 . S
N1884 H1896 0.984 . S
N1884 H1897 0.985 . S
N1885 C1887 1.356 . S
N1885 H1890 0.984 . S
N1885 H1891 0.985 . S
C1886 C1880 1.379 . S
C1886 C1883 1.363 . S
C1886 N1884 1.356 . S
C1887 C1881 1.363 . S
C1887 C1882 1.379 . S
C1887 N1885 1.356 . S
N1888 C1880 1.356 . S
N1888 H1894 0.984 . S
N1888 H1895 0.984 . S
N1889 C1882 1.356 . S
N1889 H1892 0.984 . S
N1889 H1893 0.985 . S
H1890 N1885 0.984 . S
H1891 N1885 0.985 . S
H1892 N1889 0.984 . S
H1893 N1889 0.985 . S
H1894 N1888 0.984 . S
H1895 N1888 0.984 . S
H1896 N1884 0.984 . S
H1897 N1884 0.985 . S
C1898 C1899 1.363 . S
C1898 C1904 1.379 . S
C1898 N1906 1.356 . S
C1899 C1898 1.363 . S
C1899 C1905 1.363 . S
C1900 C1901 1.363 . S
C1900 C1905 1.379 . S
C1900 N1907 1.356 . S
C1901 C1900 1.363 . S
C1901 C1904 1.363 . S
N1902 C1904 1.356 . S
N1902 H1914 0.984 . S
N1902 H1915 0.985 . S
N1903 C1905 1.356 1_556 S
N1903 H1908 0.984 . S
N1903 H1909 0.985 . S
C1904 C1898 1.379 . S
C1904 C1901 1.363 . S
C1904 N1902 1.356 . S
C1905 C1899 1.363 . S
C1905 C1900 1.379 . S
C1905 N1903 1.356 1_554 S
N1906 C1898 1.356 . S
N1906 H1912 0.984 . S
N1906 H1913 0.984 . S
N1907 C1900 1.356 . S
N1907 H1910 0.984 . S
N1907 H1911 0.985 . S
H1908 N1903 0.984 . S
H1909 N1903 0.985 . S
H1910 N1907 0.984 . S
H1911 N1907 0.985 . S
H1912 N1906 0.984 . S
H1913 N1906 0.984 . S
H1914 N1902 0.984 . S
H1915 N1902 0.985 . S
C1916 C1917 1.363 . S
C1916 C1922 1.379 . S
C1916 N1924 1.356 . S
C1917 C1916 1.363 . S
C1917 C1923 1.363 . S
C1918 C1919 1.363 . S
C1918 C1923 1.379 . S
C1918 N1925 1.356 . S
C1919 C1918 1.363 . S
C1919 C1922 1.363 . S
N1920 C1922 1.356 . S
N1920 H1932 0.984 . S
N1920 H1933 0.985 . S
N1921 C1923 1.356 . S
N1921 H1926 0.984 . S
N1921 H1927 0.985 . S
C1922 C1916 1.379 . S
C1922 C1919 1.363 . S
C1922 N1920 1.356 . S
C1923 C1917 1.363 . S
C1923 C1918 1.379 . S
C1923 N1921 1.356 . S
N1924 C1916 1.356 . S
N1924 H1930 0.984 . S
N1924 H1931 0.984 . S
N1925 C1918 1.356 . S
N1925 H1928 0.984 . S
N1925 H1929 0.985 . S
H1926 N1921 0.984 . S
H1927 N1921 0.985 . S
H1928 N1925 0.984 . S
H1929 N1925 0.985 . S
H1930 N1924 0.984 . S
H1931 N1924 0.984 . S
H1932 N1920 0.984 . S
H1933 N1920 0.985 . S
C1934 C1935 1.363 . S
C1934 C1940 1.379 . S
C1934 N1942 1.356 . S
C1935 C1934 1.363 . S
C1935 C1941 1.363 . S
C1936 C1937 1.363 . S
C1936 C1941 1.379 . S
C1936 N1943 1.356 . S
C1937 C1936 1.363 . S
C1937 C1940 1.363 . S
N1938 C1940 1.356 . S
N1938 H1950 0.984 . S
N1938 H1951 0.985 . S
N1939 C1941 1.356 . S
N1939 H1944 0.963 1_565 S
N1939 H1945 0.985 . S
C1940 C1934 1.379 . S
C1940 C1937 1.363 . S
C1940 N1938 1.356 . S
C1941 C1935 1.363 . S
C1941 C1936 1.379 . S
C1941 N1939 1.356 . S
N1942 C1934 1.356 . S
N1942 H1948 0.984 . S
N1942 H1949 0.984 . S
N1943 C1936 1.356 . S
N1943 H1946 0.984 . S
N1943 H1947 0.985 . S
H1944 N1939 0.963 1_545 S
H1945 N1939 0.985 . S
H1946 N1943 0.984 . S
H1947 N1943 0.985 . S
H1948 N1942 0.984 . S
H1949 N1942 0.984 . S
H1950 N1938 0.984 . S
H1951 N1938 0.985 . S
C1952 C1953 1.363 . S
C1952 C1958 1.379 . S
C1952 N1960 1.356 . S
C1953 C1952 1.363 . S
C1953 C1959 1.363 . S
C1954 C1955 1.363 . S
C1954 C1959 1.379 . S
C1954 N1961 1.356 . S
C1955 C1954 1.363 . S
C1955 C1958 1.363 . S
N1956 C1958 1.356 . S
N1956 H1968 0.984 . S
N1956 H1969 0.985 . S
N1957 C1959 1.356 . S
N1957 H1962 0.984 . S
N1957 H1963 0.985 . S
C1958 C1952 1.379 . S
C1958 C1955 1.363 . S
C1958 N1956 1.356 . S
C1959 C1953 1.363 . S
C1959 C1954 1.379 . S
C1959 N1957 1.356 . S
N1960 C1952 1.356 . S
N1960 H1966 0.984 . S
N1960 H1967 0.984 . S
N1961 C1954 1.356 . S
N1961 H1964 0.984 . S
N1961 H1965 0.985 . S
H1962 N1957 0.984 . S
H1963 N1957 0.985 . S
H1964 N1961 0.984 . S
H1965 N1961 0.985 . S
H1966 N1960 0.984 . S
H1967 N1960 0.984 . S
H1968 N1956 0.984 . S
H1969 N1956 0.985 . S
C1970 C1971 1.363 . S
C1970 C1976 1.379 . S
C1970 N1978 1.356 . S
C1971 C1970 1.363 . S
C1971 C1977 1.363 . S
C1972 C1973 1.363 . S
C1972 C1977 1.379 . S
C1972 N1979 1.356 . S
C1973 C1972 1.363 . S
C1973 C1976 1.363 . S
N1974 C1976 1.356 . S
N1974 H1986 0.984 . S
N1974 H1987 0.985 . S
N1975 C1977 1.356 . S
N1975 H1980 0.984 . S
N1975 H1981 0.985 . S
C1976 C1970 1.379 . S
C1976 C1973 1.363 . S
C1976 N1974 1.356 . S
C1977 C1971 1.363 . S
C1977 C1972 1.379 . S
C1977 N1975 1.356 . S
N1978 C1970 1.356 . S
N1978 H1984 0.984 . S
N1978 H1985 0.984 . S
N1979 C1972 1.356 . S
N1979 H1982 0.984 . S
N1979 H1983 0.985 . S
H1980 N1975 0.984 . S
H1981 N1975 0.985 . S
H1982 N1979 0.984 . S
H1983 N1979 0.985 . S
H1984 N1978 0.984 . S
H1985 N1978 0.984 . S
H1986 N1974 0.984 . S
H1987 N1974 0.985 . S
C1988 C1989 1.363 1_655 S
C1988 C1994 1.379 . S
C1988 N1996 1.356 . S
C1989 C1988 1.363 1_455 S
C1989 C1995 1.363 . S
C1990 C1991 1.363 . S
C1990 C1995 1.379 . S
C1990 N1997 1.356 . S
C1991 C1990 1.363 . S
C1991 C1994 1.363 1_455 S
N1992 C1994 1.356 . S
N1992 H2004 0.984 . S
N1992 H2005 0.985 . S
N1993 C1995 1.356 . S
N1993 H1998 0.984 . S
N1993 H1999 0.985 . S
C1994 C1988 1.379 . S
C1994 C1991 1.363 1_655 S
C1994 N1992 1.356 . S
C1995 C1989 1.363 . S
C1995 C1990 1.379 . S
C1995 N1993 1.356 . S
N1996 C1988 1.356 . S
N1996 H2002 0.984 . S
N1996 H2003 0.984 . S
N1997 C1990 1.356 . S
N1997 H2000 0.984 . S
N1997 H2001 0.985 . S
H1998 N1993 0.984 . S
H1999 N1993 0.985 . S
H2000 N1997 0.984 . S
H2001 N1997 0.985 . S
H2002 N1996 0.984 . S
H2003 N1996 0.984 . S
H2004 N1992 0.984 . S
H2005 N1992 0.985 . S
C2006 C2007 1.363 . S
C2006 C2012 1.379 . S
C2006 N2014 1.356 . S
C2007 C2006 1.363 . S
C2007 C2013 1.363 . S
C2008 C2009 1.363 . S
C2008 C2013 1.379 . S
C2008 N2015 1.356 . S
C2009 C2008 1.363 . S
C2009 C2012 1.363 . S
N2010 C2012 1.356 . S
N2010 H2022 0.984 . S
N2010 H2023 0.985 . S
N2011 C2013 1.356 . S
N2011 H2016 0.984 . S
N2011 H2017 0.985 . S
C2012 C2006 1.379 . S
C2012 C2009 1.363 . S
C2012 N2010 1.356 . S
C2013 C2007 1.363 . S
C2013 C2008 1.379 . S
C2013 N2011 1.356 . S
N2014 C2006 1.356 . S
N2014 H2020 0.984 . S
N2014 H2021 0.984 . S
N2015 C2008 1.356 . S
N2015 H2018 0.984 . S
N2015 H2019 0.985 . S
H2016 N2011 0.984 . S
H2017 N2011 0.985 . S
H2018 N2015 0.984 . S
H2019 N2015 0.985 . S
H2020 N2014 0.984 . S
H2021 N2014 0.984 . S
H2022 N2010 0.984 . S
H2023 N2010 0.985 . S
C2024 C2025 1.363 . S
C2024 C2030 1.379 . S
C2024 N2032 1.356 . S
C2025 C2024 1.363 . S
C2025 C2031 1.363 . S
C2026 C2027 1.363 . S
C2026 C2031 1.379 . S
C2026 N2033 1.356 . S
C2027 C2026 1.363 . S
C2027 C2030 1.363 . S
N2028 C2030 1.356 1_554 S
N2028 H2040 0.984 . S
N2028 H2041 0.985 . S
N2029 C2031 1.356 . S
N2029 H2034 0.984 . S
N2029 H2035 0.985 . S
C2030 C2024 1.379 . S
C2030 C2027 1.363 . S
C2030 N2028 1.356 1_556 S
C2031 C2025 1.363 . S
C2031 C2026 1.379 . S
C2031 N2029 1.356 . S
N2032 C2024 1.356 . S
N2032 H2038 0.984 1_556 S
N2032 H2039 0.984 . S
N2033 C2026 1.356 . S
N2033 H2036 0.984 . S
N2033 H2037 0.985 . S
H2034 N2029 0.984 . S
H2035 N2029 0.985 . S
H2036 N2033 0.984 . S
H2037 N2033 0.985 . S
H2038 N2032 0.984 1_554 S
H2039 N2032 0.984 . S
H2040 N2028 0.984 . S
H2041 N2028 0.985 . S
C2042 C2043 1.363 . S
C2042 C2048 1.379 . S
C2042 N2050 1.356 . S
C2043 C2042 1.363 . S
C2043 C2049 1.363 . S
C2044 C2045 1.363 . S
C2044 C2049 1.379 . S
C2044 N2051 1.356 . S
C2045 C2044 1.363 . S
C2045 C2048 1.363 . S
N2046 C2048 1.356 . S
N2046 H2058 0.984 . S
N2046 H2059 0.985 . S
N2047 C2049 1.356 . S
N2047 H2052 0.984 . S
N2047 H2053 0.985 . S
C2048 C2042 1.379 . S
C2048 C2045 1.363 . S
C2048 N2046 1.356 . S
C2049 C2043 1.363 . S
C2049 C2044 1.379 . S
C2049 N2047 1.356 . S
N2050 C2042 1.356 . S
N2050 H2056 0.984 . S
N2050 H2057 0.984 . S
N2051 C2044 1.356 . S
N2051 H2054 0.984 . S
N2051 H2055 0.985 . S
H2052 N2047 0.984 . S
H2053 N2047 0.985 . S
H2054 N2051 0.984 . S
H2055 N2051 0.985 . S
H2056 N2050 0.984 . S
H2057 N2050 0.984 . S
H2058 N2046 0.984 . S
H2059 N2046 0.985 . S
C2060 C2061 1.363 1_655 S
C2060 C2066 1.379 . S
C2060 N2068 1.356 . S
C2061 C2060 1.363 1_455 S
C2061 C2067 1.363 . S
C2062 C2063 1.363 . S
C2062 C2067 1.379 . S
C2062 N2069 1.356 . S
C2063 C2062 1.363 . S
C2063 C2066 1.363 1_455 S
N2064 C2066 1.356 . S
N2064 H2076 0.984 . S
N2064 H2077 0.985 . S
N2065 C2067 1.356 . S
N2065 H2070 0.984 . S
N2065 H2071 0.985 . S
C2066 C2060 1.379 . S
C2066 C2063 1.363 1_655 S
C2066 N2064 1.356 . S
C2067 C2061 1.363 . S
C2067 C2062 1.379 . S
C2067 N2065 1.356 . S
N2068 C2060 1.356 . S
N2068 H2074 0.984 . S
N2068 H2075 0.984 . S
N2069 C2062 1.356 . S
N2069 H2072 0.984 . S
N2069 H2073 0.985 . S
H2070 N2065 0.984 . S
H2071 N2065 0.985 . S
H2072 N2069 0.984 . S
H2073 N2069 0.985 . S
H2074 N2068 0.984 . S
H2075 N2068 0.984 . S
H2076 N2064 0.984 . S
H2077 N2064 0.985 . S
C2078 C2079 1.363 . S
C2078 C2084 1.379 . S
C2078 N2086 1.356 . S
C2079 C2078 1.363 . S
C2079 C2085 1.363 . S
C2080 C2081 1.363 . S
C2080 C2085 1.379 . S
C2080 N2087 1.356 . S
C2081 C2080 1.363 . S
C2081 C2084 1.363 . S
N2082 C2084 1.356 . S
N2082 H2094 0.984 . S
N2082 H2095 0.985 . S
N2083 C2085 1.356 . S
N2083 H2088 0.984 . S
N2083 H2089 0.985 . S
C2084 C2078 1.379 . S
C2084 C2081 1.363 . S
C2084 N2082 1.356 . S
C2085 C2079 1.363 . S
C2085 C2080 1.379 . S
C2085 N2083 1.356 . S
N2086 C2078 1.356 . S
N2086 H2092 0.984 . S
N2086 H2093 0.984 . S
N2087 C2080 1.356 . S
N2087 H2090 0.984 . S
N2087 H2091 0.985 . S
H2088 N2083 0.984 . S
H2089 N2083 0.985 . S
H2090 N2087 0.984 . S
H2091 N2087 0.985 . S
H2092 N2086 0.984 . S
H2093 N2086 0.984 . S
H2094 N2082 0.984 . S
H2095 N2082 0.985 . S
C2096 C2097 1.363 . S
C2096 C2102 1.379 . S
C2096 N2104 1.356 . S
C2097 C2096 1.363 . S
C2097 C2103 1.363 . S
C2098 C2099 1.363 . S
C2098 C2103 1.379 . S
C2098 N2105 1.356 . S
C2099 C2098 1.363 . S
C2099 C2102 1.363 . S
N2100 C2102 1.356 . S
N2100 H2112 0.984 . S
N2100 H2113 0.985 . S
N2101 C2103 1.356 . S
N2101 H2106 0.984 . S
N2101 H2107 0.985 . S
C2102 C2096 1.379 . S
C2102 C2099 1.363 . S
C2102 N2100 1.356 . S
C2103 C2097 1.363 . S
C2103 C2098 1.379 . S
C2103 N2101 1.356 . S
N2104 C2096 1.356 . S
N2104 H2110 0.984 . S
N2104 H2111 0.984 . S
N2105 C2098 1.356 . S
N2105 H2108 0.984 . S
N2105 H2109 0.985 . S
H2106 N2101 0.984 . S
H2107 N2101 0.985 . S
H2108 N2105 0.984 . S
H2109 N2105 0.985 . S
H2110 N2104 0.984 . S
H2111 N2104 0.984 . S
H2112 N2100 0.984 . S
H2113 N2100 0.985 . S
C2114 C2115 1.363 . S
C2114 C2120 1.379 . S
C2114 N2122 1.356 . S
C2115 C2114 1.363 . S
C2115 C2121 1.363 . S
C2116 C2117 1.363 . S
C2116 C2121 1.379 . S
C2116 N2123 1.356 . S
C2117 C2116 1.363 . S
C2117 C2120 1.363 . S
N2118 C2120 1.356 . S
N2118 H2130 0.984 . S
N2118 H2131 0.985 . S
N2119 C2121 1.356 . S
N2119 H2124 0.984 . S
N2119 H2125 0.985 . S
C2120 C2114 1.379 . S
C2120 C2117 1.363 . S
C2120 N2118 1.356 . S
C2121 C2115 1.363 . S
C2121 C2116 1.379 . S
C2121 N2119 1.356 . S
N2122 C2114 1.356 . S
N2122 H2128 0.984 . S
N2122 H2129 0.984 . S
N2123 C2116 1.356 . S
N2123 H2126 0.984 . S
N2123 H2127 0.985 . S
H2124 N2119 0.984 . S
H2125 N2119 0.985 . S
H2126 N2123 0.984 . S
H2127 N2123 0.985 . S
H2128 N2122 0.984 . S
H2129 N2122 0.984 . S
H2130 N2118 0.984 . S
H2131 N2118 0.985 . S
C2132 C2133 1.363 . S
C2132 C2138 1.379 . S
C2132 N2140 1.356 . S
C2133 C2132 1.363 . S
C2133 C2139 1.363 . S
C2134 C2135 1.363 . S
C2134 C2139 1.379 . S
C2134 N2141 1.356 1_655 S
C2135 C2134 1.363 . S
C2135 C2138 1.363 . S
N2136 C2138 1.356 . S
N2136 H2148 0.984 . S
N2136 H2149 0.985 . S
N2137 C2139 1.356 . S
N2137 H2142 0.984 . S
N2137 H2143 0.986 . S
C2138 C2132 1.379 . S
C2138 C2135 1.363 . S
C2138 N2136 1.356 . S
C2139 C2133 1.363 . S
C2139 C2134 1.379 . S
C2139 N2137 1.356 . S
N2140 C2132 1.356 . S
N2140 H2146 0.984 . S
N2140 H2147 0.984 . S
N2141 C2134 1.356 1_455 S
N2141 H2144 0.984 . S
N2141 H2145 0.985 . S
H2142 N2137 0.984 . S
H2143 N2137 0.986 . S
H2144 N2141 0.984 . S
H2145 N2141 0.985 . S
H2146 N2140 0.984 . S
H2147 N2140 0.984 . S
H2148 N2136 0.984 . S
H2149 N2136 0.985 . S
C2150 C2151 1.363 . S
C2150 C2156 1.379 . S
C2150 N2158 1.356 . S
C2151 C2150 1.363 . S
C2151 C2157 1.363 . S
C2152 C2153 1.363 . S
C2152 C2157 1.379 . S
C2152 N2159 1.356 . S
C2153 C2152 1.363 . S
C2153 C2156 1.363 . S
N2154 C2156 1.356 . S
N2154 H2166 0.984 . S
N2154 H2167 0.985 . S
N2155 C2157 1.356 . S
N2155 H2160 0.984 . S
N2155 H2161 0.985 . S
C2156 C2150 1.379 . S
C2156 C2153 1.363 . S
C2156 N2154 1.356 . S
C2157 C2151 1.363 . S
C2157 C2152 1.379 . S
C2157 N2155 1.356 . S
N2158 C2150 1.356 . S
N2158 H2164 0.984 . S
N2158 H2165 0.984 . S
N2159 C2152 1.356 . S
N2159 H2162 0.984 . S
N2159 H2163 0.985 . S
H2160 N2155 0.984 . S
H2161 N2155 0.985 . S
H2162 N2159 0.984 . S
H2163 N2159 0.985 . S
H2164 N2158 0.984 . S
H2165 N2158 0.984 . S
H2166 N2154 0.984 . S
H2167 N2154 0.985 . S
C2168 C2169 1.363 . S
C2168 C2174 1.379 . S
C2168 N2176 1.356 . S
C2169 C2168 1.363 . S
C2169 C2175 1.363 . S
C2170 C2171 1.363 . S
C2170 C2175 1.379 . S
C2170 N2177 1.356 . S
C2171 C2170 1.363 . S
C2171 C2174 1.363 . S
N2172 C2174 1.356 . S
N2172 H2184 0.984 . S
N2172 H2185 0.985 . S
N2173 C2175 1.356 . S
N2173 H2178 0.984 . S
N2173 H2179 0.985 . S
C2174 C2168 1.379 . S
C2174 C2171 1.363 . S
C2174 N2172 1.356 . S
C2175 C2169 1.363 . S
C2175 C2170 1.379 . S
C2175 N2173 1.356 . S
N2176 C2168 1.356 . S
N2176 H2182 0.984 . S
N2176 H2183 0.984 . S
N2177 C2170 1.356 . S
N2177 H2180 0.984 . S
N2177 H2181 0.985 . S
H2178 N2173 0.984 . S
H2179 N2173 0.985 . S
H2180 N2177 0.984 . S
H2181 N2177 0.985 . S
H2182 N2176 0.984 . S
H2183 N2176 0.984 . S
H2184 N2172 0.984 . S
H2185 N2172 0.985 . S
C2186 C2187 1.363 . S
C2186 C2192 1.379 . S
C2186 N2194 1.356 . S
C2187 C2186 1.363 . S
C2187 C2193 1.363 . S
C2188 C2189 1.363 . S
C2188 C2193 1.379 . S
C2188 N2195 1.356 . S
C2189 C2188 1.363 . S
C2189 C2192 1.363 . S
N2190 C2192 1.356 . S
N2190 H2202 0.984 . S
N2190 H2203 0.985 . S
N2191 C2193 1.356 . S
N2191 H2196 0.984 . S
N2191 H2197 0.985 . S
C2192 C2186 1.379 . S
C2192 C2189 1.363 . S
C2192 N2190 1.356 . S
C2193 C2187 1.363 . S
C2193 C2188 1.379 . S
C2193 N2191 1.356 . S
N2194 C2186 1.356 . S
N2194 H2200 0.984 . S
N2194 H2201 0.984 . S
N2195 C2188 1.356 . S
N2195 H2198 0.984 . S
N2195 H2199 0.985 . S
H2196 N2191 0.984 . S
H2197 N2191 0.985 . S
H2198 N2195 0.984 . S
H2199 N2195 0.985 . S
H2200 N2194 0.984 . S
H2201 N2194 0.984 . S
H2202 N2190 0.984 . S
H2203 N2190 0.985 . S
C2204 C2205 1.363 . S
C2204 C2210 1.379 . S
C2204 N2212 1.356 . S
C2205 C2204 1.363 . S
C2205 C2211 1.363 . S
C2206 C2207 1.363 . S
C2206 C2211 1.379 . S
C2206 N2213 1.356 . S
C2207 C2206 1.363 . S
C2207 C2210 1.363 . S
N2208 C2210 1.356 . S
N2208 H2220 0.984 . S
N2208 H2221 0.985 . S
N2209 C2211 1.356 . S
N2209 H2214 0.984 . S
N2209 H2215 0.985 . S
C2210 C2204 1.379 . S
C2210 C2207 1.363 . S
C2210 N2208 1.356 . S
C2211 C2205 1.363 . S
C2211 C2206 1.379 . S
C2211 N2209 1.356 . S
N2212 C2204 1.356 . S
N2212 H2218 0.984 . S
N2212 H2219 0.984 . S
N2213 C2206 1.356 . S
N2213 H2216 0.984 . S
N2213 H2217 0.985 . S
H2214 N2209 0.984 . S
H2215 N2209 0.985 . S
H2216 N2213 0.984 . S
H2217 N2213 0.985 . S
H2218 N2212 0.984 . S
H2219 N2212 0.984 . S
H2220 N2208 0.984 . S
H2221 N2208 0.985 . S
C2222 C2223 1.363 . S
C2222 C2228 1.379 . S
C2222 N2230 1.356 . S
C2223 C2222 1.363 . S
C2223 C2229 1.363 . S
C2224 C2225 1.363 . S
C2224 C2229 1.379 . S
C2224 N2231 1.356 . S
C2225 C2224 1.363 . S
C2225 C2228 1.363 . S
N2226 C2228 1.356 . S
N2226 H2238 0.984 . S
N2226 H2239 0.985 . S
N2227 C2229 1.356 . S
N2227 H2232 0.984 . S
N2227 H2233 0.985 . S
C2228 C2222 1.379 . S
C2228 C2225 1.363 . S
C2228 N2226 1.356 . S
C2229 C2223 1.363 . S
C2229 C2224 1.379 . S
C2229 N2227 1.356 . S
N2230 C2222 1.356 . S
N2230 H2236 0.984 . S
N2230 H2237 0.984 . S
N2231 C2224 1.356 . S
N2231 H2234 0.984 . S
N2231 H2235 0.985 . S
H2232 N2227 0.984 . S
H2233 N2227 0.985 . S
H2234 N2231 0.984 . S
H2235 N2231 0.985 . S
H2236 N2230 0.984 . S
H2237 N2230 0.984 . S
H2238 N2226 0.984 . S
H2239 N2226 0.985 . S
C2240 C2241 1.363 . S
C2240 C2246 1.379 . S
C2240 N2248 1.356 . S
C2241 C2240 1.363 . S
C2241 C2247 1.363 . S
C2242 C2243 1.363 . S
C2242 C2247 1.379 . S
C2242 N2249 1.356 . S
C2243 C2242 1.363 . S
C2243 C2246 1.363 . S
N2244 C2246 1.356 . S
N2244 H2256 0.984 . S
N2244 H2257 0.985 . S
N2245 C2247 1.356 . S
N2245 H2250 0.984 . S
N2245 H2251 0.985 . S
C2246 C2240 1.379 . S
C2246 C2243 1.363 . S
C2246 N2244 1.356 . S
C2247 C2241 1.363 . S
C2247 C2242 1.379 . S
C2247 N2245 1.356 . S
N2248 C2240 1.356 . S
N2248 H2254 0.984 . S
N2248 H2255 0.984 . S
N2249 C2242 1.356 . S
N2249 H2252 0.984 . S
N2249 H2253 0.985 . S
H2250 N2245 0.984 . S
H2251 N2245 0.985 . S
H2252 N2249 0.984 . S
H2253 N2249 0.985 . S
H2254 N2248 0.984 . S
H2255 N2248 0.984 . S
H2256 N2244 0.984 . S
H2257 N2244 0.985 . S
C2258 C2259 1.363 . S
C2258 C2264 1.379 . S
C2258 N2266 1.356 . S
C2259 C2258 1.363 . S
C2259 C2265 1.363 . S
C2260 C2261 1.363 . S
C2260 C2265 1.379 . S
C2260 N2267 1.356 . S
C2261 C2260 1.363 . S
C2261 C2264 1.363 . S
N2262 C2264 1.356 1_545 S
N2262 H2274 0.984 . S
N2262 H2275 0.985 . S
N2263 C2265 1.356 . S
N2263 H2268 0.984 . S
N2263 H2269 0.985 . S
C2264 C2258 1.379 . S
C2264 C2261 1.363 . S
C2264 N2262 1.356 1_565 S
C2265 C2259 1.363 . S
C2265 C2260 1.379 . S
C2265 N2263 1.356 . S
N2266 C2258 1.356 . S
N2266 H2272 0.984 1_565 S
N2266 H2273 0.984 . S
N2267 C2260 1.356 . S
N2267 H2270 0.984 . S
N2267 H2271 0.985 . S
H2268 N2263 0.984 . S
H2269 N2263 0.985 . S
H2270 N2267 0.984 . S
H2271 N2267 0.985 . S
H2272 N2266 0.984 1_545 S
H2273 N2266 0.984 . S
H2274 N2262 0.984 . S
H2275 N2262 0.985 . S
C2276 C2277 1.363 . S
C2276 C2282 1.379 . S
C2276 N2284 1.356 . S
C2277 C2276 1.363 . S
C2277 C2283 1.363 . S
C2278 C2279 1.363 . S
C2278 C2283 1.379 . S
C2278 N2285 1.356 . S
C2279 C2278 1.363 . S
C2279 C2282 1.363 . S
N2280 C2282 1.356 . S
N2280 H2292 0.984 . S
N2280 H2293 0.985 . S
N2281 C2283 1.356 . S
N2281 H2286 0.984 . S
N2281 H2287 0.985 . S
C2282 C2276 1.379 . S
C2282 C2279 1.363 . S
C2282 N2280 1.356 . S
C2283 C2277 1.363 . S
C2283 C2278 1.379 . S
C2283 N2281 1.356 . S
N2284 C2276 1.356 . S
N2284 H2290 0.984 . S
N2284 H2291 0.984 . S
N2285 C2278 1.356 . S
N2285 H2288 0.984 . S
N2285 H2289 0.985 . S
H2286 N2281 0.984 . S
H2287 N2281 0.985 . S
H2288 N2285 0.984 . S
H2289 N2285 0.985 . S
H2290 N2284 0.984 . S
H2291 N2284 0.984 . S
H2292 N2280 0.984 . S
H2293 N2280 0.985 . S
C2294 C2295 1.363 1_556 S
C2294 C2300 1.379 . S
C2294 N2302 1.356 . S
C2295 C2294 1.363 1_554 S
C2295 C2301 1.363 . S
C2296 C2297 1.363 . S
C2296 C2301 1.379 . S
C2296 N2303 1.356 . S
C2297 C2296 1.363 . S
C2297 C2300 1.363 1_554 S
N2298 C2300 1.356 . S
N2298 H2310 0.984 . S
N2298 H2311 0.985 . S
N2299 C2301 1.356 . S
N2299 H2304 0.984 . S
N2299 H2305 0.985 . S
C2300 C2294 1.379 . S
C2300 C2297 1.363 1_556 S
C2300 N2298 1.356 . S
C2301 C2295 1.363 . S
C2301 C2296 1.379 . S
C2301 N2299 1.356 . S
N2302 C2294 1.356 . S
N2302 H2308 0.984 . S
N2302 H2309 0.984 . S
N2303 C2296 1.356 . S
N2303 H2306 0.984 . S
N2303 H2307 0.985 . S
H2304 N2299 0.984 . S
H2305 N2299 0.985 . S
H2306 N2303 0.984 . S
H2307 N2303 0.985 . S
H2308 N2302 0.984 . S
H2309 N2302 0.984 . S
H2310 N2298 0.984 . S
H2311 N2298 0.985 . S
C2312 C2313 1.363 . S
C2312 C2318 1.379 . S
C2312 N2320 1.356 . S
C2313 C2312 1.363 . S
C2313 C2319 1.363 . S
C2314 C2315 1.363 . S
C2314 C2319 1.379 . S
C2314 N2321 1.356 . S
C2315 C2314 1.363 . S
C2315 C2318 1.363 . S
N2316 C2318 1.356 . S
N2316 H2328 0.984 . S
N2316 H2329 0.985 . S
N2317 C2319 1.356 . S
N2317 H2322 0.984 . S
N2317 H2323 0.985 . S
C2318 C2312 1.379 . S
C2318 C2315 1.363 . S
C2318 N2316 1.356 . S
C2319 C2313 1.363 . S
C2319 C2314 1.379 . S
C2319 N2317 1.356 . S
N2320 C2312 1.356 . S
N2320 H2326 0.984 . S
N2320 H2327 0.984 . S
N2321 C2314 1.356 . S
N2321 H2324 0.984 . S
N2321 H2325 0.985 . S
H2322 N2317 0.984 . S
H2323 N2317 0.985 . S
H2324 N2321 0.984 . S
H2325 N2321 0.985 . S
H2326 N2320 0.984 . S
H2327 N2320 0.984 . S
H2328 N2316 0.984 . S
H2329 N2316 0.985 . S
C2330 C2331 1.363 . S
C2330 C2336 1.379 1_554 S
C2330 N2338 1.356 . S
C2331 C2330 1.363 . S
C2331 C2337 1.363 . S
C2332 C2333 1.363 1_554 S
C2332 C2337 1.379 . S
C2332 N2339 1.356 . S
C2333 C2332 1.363 1_556 S
C2333 C2336 1.363 . S
N2334 C2336 1.356 . S
N2334 H2346 0.984 . S
N2334 H2347 0.985 . S
N2335 C2337 1.356 . S
N2335 H2340 0.984 . S
N2335 H2341 0.985 . S
C2336 C2330 1.379 1_556 S
C2336 C2333 1.363 . S
C2336 N2334 1.356 . S
C2337 C2331 1.363 . S
C2337 C2332 1.379 . S
C2337 N2335 1.356 . S
N2338 C2330 1.356 . S
N2338 H2344 0.991 . S
N2338 H2345 0.984 . S
N2339 C2332 1.356 . S
N2339 H2342 0.984 1_554 S
N2339 H2343 0.985 . S
H2340 N2335 0.984 . S
H2341 N2335 0.985 . S
H2342 N2339 0.984 1_556 S
H2343 N2339 0.985 . S
H2344 N2338 0.991 . S
H2345 N2338 0.984 . S
H2346 N2334 0.984 . S
H2347 N2334 0.985 . S
C2348 C2349 1.363 . S
C2348 C2354 1.379 . S
C2348 N2356 1.356 . S
C2349 C2348 1.363 . S
C2349 C2355 1.363 . S
C2350 C2351 1.363 . S
C2350 C2355 1.379 . S
C2350 N2357 1.356 . S
C2351 C2350 1.363 . S
C2351 C2354 1.363 . S
N2352 C2354 1.356 . S
N2352 H2364 0.984 . S
N2352 H2365 0.985 . S
N2353 C2355 1.356 . S
N2353 H2358 0.984 . S
N2353 H2359 0.985 . S
C2354 C2348 1.379 . S
C2354 C2351 1.363 . S
C2354 N2352 1.356 . S
C2355 C2349 1.363 . S
C2355 C2350 1.379 . S
C2355 N2353 1.356 . S
N2356 C2348 1.356 . S
N2356 H2362 0.984 . S
N2356 H2363 0.984 . S
N2357 C2350 1.356 . S
N2357 H2360 0.984 . S
N2357 H2361 0.985 . S
H2358 N2353 0.984 . S
H2359 N2353 0.985 . S
H2360 N2357 0.984 . S
H2361 N2357 0.985 . S
H2362 N2356 0.984 . S
H2363 N2356 0.984 . S
H2364 N2352 0.984 . S
H2365 N2352 0.985 . S
C2366 C2367 1.363 . S
C2366 C2372 1.379 . S
C2366 N2374 1.356 . S
C2367 C2366 1.363 . S
C2367 C2373 1.363 . S
C2368 C2369 1.363 . S
C2368 C2373 1.379 . S
C2368 N2375 1.356 . S
C2369 C2368 1.363 . S
C2369 C2372 1.363 . S
N2370 C2372 1.356 . S
N2370 H2382 0.984 . S
N2370 H2383 0.985 . S
N2371 C2373 1.356 . S
N2371 H2376 0.984 . S
N2371 H2377 0.985 . S
C2372 C2366 1.379 . S
C2372 C2369 1.363 . S
C2372 N2370 1.356 . S
C2373 C2367 1.363 . S
C2373 C2368 1.379 . S
C2373 N2371 1.356 . S
N2374 C2366 1.356 . S
N2374 H2380 0.984 . S
N2374 H2381 0.984 . S
N2375 C2368 1.356 . S
N2375 H2378 0.984 . S
N2375 H2379 0.985 . S
H2376 N2371 0.984 . S
H2377 N2371 0.985 . S
H2378 N2375 0.984 . S
H2379 N2375 0.985 . S
H2380 N2374 0.984 . S
H2381 N2374 0.984 . S
H2382 N2370 0.984 . S
H2383 N2370 0.985 . S
C657 C109 1.234 . S
C659 C352 1.203 . S
C675 C61 1.202 . S
C677 C365 1.374 . S
C693 C74 1.363 . S
C695 C384 1.424 . S
C713 C415 1.850 . S
C711 C96 1.913 . S
C729 C25 1.612 1_455 S
C731 C435 1.576 . S
C749 C452 0.965 . S
C747 C40 0.968 . S
C767 C465 1.494 . S
C765 C46 1.496 . S
C783 C5 0.897 . S
C785 C492 1.056 . S
C803 C345 1.167 . S
C801 C229 1.004 . S
C819 C249 1.601 . S
C821 C375 1.527 . S
C839 C377 1.588 . S
C837 C271 1.498 1_545 S
C857 C412 1.071 . S
C855 C172 1.025 . S
C873 C236 1.185 . S
C875 C432 1.192 . S
C893 C445 1.888 . S
C891 C242 1.897 . S
C911 C475 1.313 . S
C909 C278 1.353 . S
C929 C485 1.292 . S
C927 C179 1.322 . S
C947 C355 1.607 1_565 S
C945 C159 1.347 . S
C963 C285 1.462 . S
C965 C505 1.622 1_556 S
C983 C535 1.508 . S
C981 C333 1.543 . S
C1001 C552 1.247 . S
C999 C320 1.261 . S
C1017 C123 1.763 . S
C1019 C495 1.740 . S
C1035 C138 1.353 . S
C1037 C382 1.274 . S
C1053 C326 1.915 . S
C1055 C565 1.902 . S
C1073 C592 1.140 . S
C1071 C298 1.113 . S
C1091 C342 1.230 . S
C1089 C67 1.246 . S
C1109 C577 1.352 . S
C1107 C110 1.380 . S
C1125 C88 1.428 . S
C1127 C395 1.412 . S
C1143 C75 1.559 . S
C1145 C564 1.795 . S
C1163 C424 1.546 1_455 S
C1161 C11 1.572 . S
C1179 C47 0.910 . S
C1181 C522 0.980 . S
C1199 C457 1.443 . S
C1197 C32 1.394 . S
C1217 C602 1.124 . S
C1215 C26 1.163 . S
C1235 C337 1.273 1_565 S
C1233 C152 1.304 . S
C1253 C584 1.523 . S
C1251 C319 1.518 . S
C1269 C124 1.634 . S
C1271 C385 1.589 . S
C1287 C284 1.086 . S
C1289 C562 1.077 . S
C1305 C145 1.081 . S
C1307 C422 1.169 . S
C1325 C517 1.815 . S
C1323 C312 1.730 . S
C1341 C117 1.139 . S
C1343 C464 1.203 . S
C1359 C291 1.248 . S
C1361 C597 1.222 . S
C1377 C194 1.668 . S
C1379 C344 1.643 . S
C1395 C180 1.633 . S
C1397 C497 1.614 . S
C1413 C263 1.399 . S
C1415 C444 1.411 . S
C1431 C243 1.073 . S
C1433 C542 1.188 . S
C1451 C604 1.789 . S
C1449 C277 1.784 . S
C1467 C215 1.205 . S
C1469 C392 1.235 . S
C1487 C397 1.830 . S
C1485 C256 1.773 . S
C1505 C362 1.199 . S
C1503 C200 1.228 . S
C1521 C81 1.234 . S
C1523 C632 1.203 . S
C1541 C585 1.374 . S
C1539 C89 1.202 . S
C1557 C102 1.363 . S
C1559 C644 1.424 1_455 S
C1575 C68 1.913 . S
C1577 C575 1.850 . S
C1593 C53 1.613 . S
C1595 C515 1.576 . S
C1613 C532 0.965 . S
C1611 C12 0.968 . S
C1631 C545 1.494 1_655 S
C1629 C18 1.496 . S
C1649 C612 1.056 . S
C1647 C33 0.897 . S
C1667 C625 1.167 . S
C1665 C257 1.004 . S
C1683 C193 1.601 . S
C1685 C595 1.527 . S
C1703 C637 1.588 . S
C1701 C201 1.498 . S
C1721 C572 1.071 . S
C1719 C214 1.025 . S
C1739 C512 1.192 . S
C1737 C264 1.185 . S
C1755 C186 1.897 . S
C1757 C525 1.888 . S
C1775 C555 1.313 . S
C1773 C208 1.353 . S
C1791 C221 1.322 . S
C1793 C605 1.292 . S
C1811 C635 1.607 . S
C1809 C313 1.347 . S
C1827 C131 1.462 . S
C1829 C425 1.624 . S
C1847 C455 1.508 . S
C1845 C151 1.546 . S
C1865 C472 1.247 . S
C1863 C166 1.261 . S
C1883 C615 1.740 . S
C1881 C305 1.763 . S
C1899 C292 1.353 . S
C1901 C642 1.274 . S
C1919 C405 1.902 . S
C1917 C144 1.911 . S
C1937 C372 1.140 . S
C1935 C116 1.089 1_565 S
C1953 C95 1.246 . S
C1955 C622 1.217 . S
C1973 C357 1.352 . S
C1971 C82 1.380 . S
C1989 C60 1.427 1_455 S
C1991 C655 1.412 . S
C2007 C103 1.558 . S
C2009 C404 1.795 . S
C2025 C39 1.572 . S
C2027 C504 1.545 1_556 S
C2045 C442 0.980 . S
C2043 C19 0.910 . S
C2061 C4 1.394 . S
C2063 C537 1.443 . S
C2079 C54 1.163 . S
C2081 C482 1.124 . S
C2099 C617 1.273 . S
C2097 C334 1.304 . S
C2115 C165 1.518 . S
C2117 C364 1.523 . S
C2135 C645 1.588 . S
C2133 C306 1.633 . S
C2151 C130 1.086 . S
C2153 C402 1.077 . S
C2169 C327 1.081 . S
C2171 C502 1.172 . S
C2189 C437 1.815 . S
C2187 C158 1.730 . S
C2205 C299 1.139 . S
C2207 C544 1.203 . S
C2225 C477 1.222 . S
C2223 C137 1.248 . S
C2243 C624 1.643 . S
C2241 C250 1.668 . S
C2261 C417 1.614 1_565 S
C2259 C222 1.633 . S
C2277 C235 1.399 . S
C2279 C524 1.411 . S
C2297 C462 1.188 . S
C2295 C187 1.073 1_554 S
C2313 C207 1.784 . S
C2315 C484 1.789 . S
C2331 C173 1.205 . S
C2333 C652 1.235 . S
C2351 C557 1.830 . S
C2349 C228 1.773 1_565 S
C2369 C582 1.199 . S
C2367 C270 1.228 . S
