# Generated by pormake.
# Topology ssa, (4,4)-cn, num edge types: 1
# Building blocks:
#     Node 0, Type 0, BuildingBlock: KOZSID_clean_sbu_0, # of connection points: 4
#     Node 1, Type 0, BuildingBlock: KOZSID_clean_sbu_0, # of connection points: 4
#     Node 2, Type 0, BuildingBlock: KOZSID_clean_sbu_0, # of connection points: 4
#     Node 3, Type 0, BuildingBlock: KOZSID_clean_sbu_0, # of connection points: 4
#     Node 4, Type 0, BuildingBlock: KOZSID_clean_sbu_0, # of connection points: 4
#     Node 5, Type 0, BuildingBlock: KOZSID_clean_sbu_0, # of connection points: 4
#     Node 6, Type 1, BuildingBlock: NAWXER_clean_sbu_0, # of connection points: 4
#     Node 7, Type 1, BuildingBlock: NAWXER_clean_sbu_0, # of connection points: 4
#     Node 8, Type 1, BuildingBlock: NAWXER_clean_sbu_0, # of connection points: 4
#     Node 9, Type 1, BuildingBlock: NAWXER_clean_sbu_0, # of connection points: 4
#     Node 10, Type 1, BuildingBlock: NAWXER_clean_sbu_0, # of connection points: 4
#     Node 11, Type 1, BuildingBlock: NAWXER_clean_sbu_0, # of connection points: 4
#     Edge 12, Type (0, 1), BuildingBlock: XIVTED_clean_linker_0, # of connection points: 2
#     Edge 13, Type (0, 1), BuildingBlock: XIVTED_clean_linker_0, # of connection points: 2
#     Edge 14, Type (0, 1), BuildingBlock: XIVTED_clean_linker_0, # of connection points: 2
#     Edge 15, Type (0, 1), BuildingBlock: XIVTED_clean_linker_0, # of connection points: 2
#     Edge 16, Type (0, 1), BuildingBlock: XIVTED_clean_linker_0, # of connection points: 2
#     Edge 17, Type (0, 1), BuildingBlock: XIVTED_clean_linker_0, # of connection points: 2
#     Edge 18, Type (0, 1), BuildingBlock: XIVTED_clean_linker_0, # of connection points: 2
#     Edge 19, Type (0, 1), BuildingBlock: XIVTED_clean_linker_0, # of connection points: 2
#     Edge 20, Type (0, 1), BuildingBlock: XIVTED_clean_linker_0, # of connection points: 2
#     Edge 21, Type (0, 1), BuildingBlock: XIVTED_clean_linker_0, # of connection points: 2
#     Edge 22, Type (0, 1), BuildingBlock: XIVTED_clean_linker_0, # of connection points: 2
#     Edge 23, Type (0, 1), BuildingBlock: XIVTED_clean_linker_0, # of connection points: 2
#     Edge 24, Type (0, 1), BuildingBlock: XIVTED_clean_linker_0, # of connection points: 2
#     Edge 25, Type (0, 1), BuildingBlock: XIVTED_clean_linker_0, # of connection points: 2
#     Edge 26, Type (0, 1), BuildingBlock: XIVTED_clean_linker_0, # of connection points: 2
#     Edge 27, Type (0, 1), BuildingBlock: XIVTED_clean_linker_0, # of connection points: 2
#     Edge 28, Type (0, 1), BuildingBlock: XIVTED_clean_linker_0, # of connection points: 2
#     Edge 29, Type (0, 1), BuildingBlock: XIVTED_clean_linker_0, # of connection points: 2
#     Edge 30, Type (0, 1), BuildingBlock: XIVTED_clean_linker_0, # of connection points: 2
#     Edge 31, Type (0, 1), BuildingBlock: XIVTED_clean_linker_0, # of connection points: 2
#     Edge 32, Type (0, 1), BuildingBlock: XIVTED_clean_linker_0, # of connection points: 2
#     Edge 33, Type (0, 1), BuildingBlock: XIVTED_clean_linker_0, # of connection points: 2
#     Edge 34, Type (0, 1), BuildingBlock: XIVTED_clean_linker_0, # of connection points: 2
#     Edge 35, Type (0, 1), BuildingBlock: XIVTED_clean_linker_0, # of connection points: 2
# Relax obj value: 0.011
# Max RMSD: 0.029
# Mean RMSD: 0.017
data_MOF--net-ssa--node1-KOZSID_clean_sbu_0--node2-NAWXER_clean_sbu_0--edge1-XIVTED_clean_linker_0
_symmetry_space_group_name_H-M    P1
_symmetry_Int_Tables_number       1
_symmetry_cell_setting            triclinic
loop_
_symmetry_equiv_pos_as_xyz
'x, y, z'
_cell_length_a     49.524058
_cell_length_b     50.973863
_cell_length_c     42.240828
_cell_angle_alpha  87.210133
_cell_angle_beta   90.025256
_cell_angle_gamma 122.82196
loop_
_atom_site_label
_atom_site_type_symbol
_atom_site_fract_x
_atom_site_fract_y
_atom_site_fract_z
_atom_type_partial_charge
C0 C 0.94481 0.53696 0.98735 0.0
C1 C 0.91681 0.53218 0.00071 0.0
C2 C 0.91026 0.51379 0.02786 0.0
C3 C 0.93459 0.50848 0.0295 0.0
N4 N 0.95661 0.52288 0.00534 0.0
Co5 Co 0.99492 0.52021 0.99723 0.0
N6 N 0.98298 0.48953 0.03453 0.0
C7 C 0.95688 0.47751 0.05424 0.0
C8 C 0.9558 0.45798 0.0784 0.0
C9 C 0.98305 0.45783 0.07419 0.0
C10 C 0.99922 0.47732 0.04754 0.0
N11 N 0.03342 0.51778 0.98923 0.0
C12 C 0.04462 0.50268 0.00643 0.0
C13 C 0.07259 0.50749 0.99283 0.0
C14 C 0.07981 0.527 0.96652 0.0
C15 C 0.05588 0.53286 0.9655 0.0
N16 N 0.00675 0.55062 0.95975 0.0
C17 C 0.03272 0.56254 0.93988 0.0
C18 C 0.0335 0.58164 0.91543 0.0
C19 C 0.00602 0.58138 0.91946 0.0
C20 C 0.99009 0.56211 0.94631 0.0
N21 N 0.02079 0.55536 0.02509 0.0
C22 C 0.05831 0.60435 0.06536 0.0
C23 C 0.06974 0.6045 0.03506 0.0
C24 C 0.0508 0.58 0.01555 0.0
C25 C 0.0275 0.57955 0.07489 0.0
C26 C 0.00933 0.55554 0.05458 0.0
N27 N 0.96885 0.4852 0.96931 0.0
C28 C 0.962 0.46138 0.91932 0.0
C29 C 0.92976 0.43896 0.92711 0.0
C30 C 0.91765 0.4395 0.95672 0.0
C31 C 0.93753 0.46243 0.9774 0.0
C32 C 0.98093 0.48415 0.94055 0.0
H33 H 0.92687 0.46147 0.99964 0.0
H34 H 0.00508 0.50097 0.93291 0.0
H35 H 0.06115 0.58139 0.99299 0.0
H36 H 0.98631 0.53716 0.06353 0.0
C37 C 0.93549 0.48735 0.05119 0.0
C38 C 0.95789 0.55302 0.95639 0.0
C39 C 0.03089 0.4852 0.03673 0.0
C40 C 0.05459 0.55343 0.94341 0.0
H41 H 0.9021 0.54026 0.99113 0.0
H42 H 0.88944 0.50421 0.04369 0.0
H43 H 0.93798 0.44624 0.09755 0.0
H44 H 0.99061 0.44553 0.08956 0.0
H45 H 0.08673 0.49844 0.00154 0.0
H46 H 0.10048 0.53644 0.95051 0.0
H47 H 0.05124 0.5933 0.89621 0.0
H48 H 0.99808 0.59312 0.90375 0.0
H49 H 0.09333 0.6234 0.02637 0.0
H50 H 0.0177 0.57809 0.0983 0.0
H51 H 0.97242 0.46188 0.89658 0.0
H52 H 0.89295 0.42218 0.96402 0.0
C53 C 0.55013 0.02459 0.54857 0.0
C54 C 0.55246 0.0111 0.57691 0.0
C55 C 0.524 0.98299 0.58172 0.0
C56 C 0.506 0.98096 0.55618 0.0
N57 N 0.52161 0.00575 0.53493 0.0
Co58 Co 0.50401 0.01382 0.4955 0.0
N59 N 0.46008 0.97593 0.50585 0.0
C60 C 0.45068 0.95625 0.53202 0.0
C61 C 0.41902 0.93213 0.53222 0.0
C62 C 0.40764 0.93636 0.50428 0.0
C63 C 0.43319 0.96284 0.48857 0.0
N64 N 0.48652 0.02148 0.45571 0.0
C65 C 0.45727 0.00349 0.44288 0.0
C66 C 0.45565 0.01631 0.41374 0.0
C67 C 0.48504 0.04312 0.40773 0.0
C68 C 0.50291 0.04509 0.43334 0.0
N69 N 0.54771 0.05222 0.48572 0.0
C70 C 0.55713 0.07231 0.45992 0.0
C71 C 0.58783 0.09804 0.46138 0.0
C72 C 0.59829 0.09463 0.49027 0.0
C73 C 0.57325 0.06692 0.50468 0.0
N74 N 0.51536 0.98811 0.47179 0.0
C75 C 0.53083 0.95097 0.43851 0.0
C76 C 0.54064 0.98105 0.42673 0.0
C77 C 0.53263 0.99903 0.44357 0.0
C78 C 0.51348 0.94002 0.46735 0.0
C79 C 0.50604 0.9587 0.48334 0.0
N80 N 0.49326 0.03969 0.51943 0.0
C81 C 0.49844 0.08917 0.52534 0.0
C82 C 0.49077 0.08192 0.55769 0.0
C83 C 0.48207 0.05242 0.57006 0.0
C84 C 0.48288 0.0316 0.55052 0.0
C85 C 0.4996 0.06783 0.50672 0.0
H86 H 0.4761 0.00951 0.5614 0.0
H87 H 0.50678 0.07501 0.48242 0.0
H88 H 0.54043 0.02154 0.4331 0.0
H89 H 0.49255 0.94866 0.50496 0.0
C90 C 0.47296 0.9591 0.55424 0.0
C91 C 0.57382 0.05661 0.53723 0.0
C92 C 0.43135 0.9731 0.45628 0.0
C93 C 0.53547 0.06799 0.4364 0.0
H94 H 0.57196 0.02122 0.59326 0.0
H95 H 0.5165 0.96701 0.60246 0.0
H96 H 0.40613 0.91299 0.5499 0.0
H97 H 0.38361 0.92111 0.49583 0.0
H98 H 0.43564 0.00684 0.39799 0.0
H99 H 0.49277 0.05879 0.38672 0.0
H100 H 0.60045 0.11772 0.44422 0.0
H101 H 0.62121 0.11119 0.50019 0.0
H102 H 0.5538 0.99046 0.40426 0.0
H103 H 0.50568 0.91705 0.47776 0.0
H104 H 0.50483 0.11169 0.51476 0.0
H105 H 0.47502 0.04557 0.59487 0.0
C106 C 0.58486 0.54537 0.96231 0.0
C107 C 0.59907 0.56383 0.93463 0.0
C108 C 0.58124 0.57602 0.92625 0.0
C109 C 0.55731 0.56431 0.94922 0.0
N110 N 0.55941 0.54621 0.97232 0.0
Co111 Co 0.52809 0.52162 0.0085 0.0
N112 N 0.49816 0.53414 0.99288 0.0
C113 C 0.5023 0.55251 0.96669 0.0
C114 C 0.47828 0.55803 0.96292 0.0
C115 C 0.45786 0.54279 0.98851 0.0
C116 C 0.47073 0.52886 0.0065 0.0
N117 N 0.49667 0.49685 0.0446 0.0
C118 C 0.46923 0.49493 0.05309 0.0
C119 C 0.45531 0.47632 0.0808 0.0
C120 C 0.47489 0.4665 0.0904 0.0
C121 C 0.49958 0.47965 0.06818 0.0
N122 N 0.55805 0.50912 0.024 0.0
C123 C 0.55476 0.49181 0.05074 0.0
C124 C 0.57788 0.48489 0.05335 0.0
C125 C 0.59648 0.49775 0.02621 0.0
C126 C 0.58353 0.51182 0.00868 0.0
N127 N 0.54964 0.5589 0.03454 0.0
C128 C 0.57329 0.61042 0.07285 0.0
C129 C 0.56661 0.58159 0.08551 0.0
C130 C 0.55511 0.55642 0.06605 0.0
C131 C 0.56979 0.61346 0.04032 0.0
C132 C 0.55802 0.58769 0.02184 0.0
N133 N 0.50702 0.48457 0.98241 0.0
C134 C 0.49328 0.43204 0.97489 0.0
C135 C 0.49266 0.43663 0.94211 0.0
C136 C 0.49637 0.46446 0.93017 0.0
C137 C 0.50288 0.48773 0.9507 0.0
C138 C 0.50038 0.45615 0.99452 0.0
H139 H 0.50591 0.50862 0.94019 0.0
H140 H 0.50187 0.45184 0.01919 0.0
H141 H 0.54998 0.53502 0.0773 0.0
H142 H 0.55519 0.59158 0.99751 0.0
C143 C 0.53017 0.56614 0.94742 0.0
C144 C 0.59404 0.52482 0.97639 0.0
C145 C 0.45684 0.51213 0.03704 0.0
C146 C 0.52704 0.47835 0.07015 0.0
H147 H 0.61918 0.56678 0.92107 0.0
H148 H 0.58412 0.59001 0.90487 0.0
H149 H 0.4764 0.57232 0.94436 0.0
H150 H 0.43637 0.5426 0.99381 0.0
H151 H 0.43382 0.4712 0.0934 0.0
H152 H 0.47211 0.45246 0.11171 0.0
H153 H 0.57968 0.4704 0.07173 0.0
H154 H 0.61628 0.4957 0.01933 0.0
H155 H 0.56888 0.57795 0.11059 0.0
H156 H 0.57542 0.63552 0.02915 0.0
H157 H 0.49007 0.41061 0.98521 0.0
H158 H 0.49503 0.46856 0.90498 0.0
C159 C 0.96646 0.41532 0.51474 0.0
C160 C 0.93927 0.39185 0.50043 0.0
C161 C 0.92873 0.40631 0.48058 0.0
C162 C 0.95019 0.4377 0.48345 0.0
N163 N 0.9741 0.44391 0.50327 0.0
Co164 Co 0.01063 0.48617 0.51296 0.0
N165 N 0.00177 0.50604 0.4764 0.0
C166 C 0.97428 0.49366 0.46062 0.0
C167 C 0.97657 0.51271 0.43515 0.0
C168 C 0.00751 0.53846 0.43489 0.0
C169 C 0.02228 0.53362 0.46035 0.0
N170 N 0.04678 0.52851 0.52242 0.0
C171 C 0.06333 0.55413 0.50244 0.0
C172 C 0.08819 0.57899 0.51763 0.0
C173 C 0.08723 0.56812 0.5483 0.0
C174 C 0.06187 0.53738 0.54999 0.0
N175 N 0.02002 0.46652 0.54956 0.0
C176 C 0.03915 0.48191 0.57365 0.0
C177 C 0.04027 0.46246 0.59642 0.0
C178 C 0.02001 0.43291 0.58653 0.0
C179 C 0.00751 0.43588 0.55808 0.0
N180 N 0.0393 0.48151 0.48546 0.0
C181 C 0.08255 0.48398 0.44109 0.0
C182 C 0.09254 0.49459 0.47146 0.0
C183 C 0.07035 0.4927 0.49351 0.0
C184 C 0.05031 0.47098 0.43389 0.0
C185 C 0.0292 0.47005 0.45626 0.0
N186 N 0.98177 0.49117 0.54007 0.0
C187 C 0.93847 0.46926 0.57906 0.0
C188 C 0.93629 0.49546 0.57507 0.0
C189 C 0.95831 0.5201 0.5539 0.0
C190 C 0.98097 0.51757 0.53683 0.0
C191 C 0.96117 0.4676 0.56141 0.0
H192 H 0.99744 0.53675 0.52054 0.0
H193 H 0.96166 0.44697 0.5649 0.0
H194 H 0.07861 0.50138 0.51663 0.0
H195 H 0.00501 0.46129 0.44926 0.0
C196 C 0.9507 0.46176 0.46529 0.0
C197 C 0.97944 0.40936 0.54364 0.0
C198 C 0.05556 0.55521 0.46925 0.0
C199 C 0.05698 0.51465 0.57329 0.0
H200 H 0.92724 0.36687 0.50534 0.0
H201 H 0.90798 0.39523 0.46576 0.0
H202 H 0.95875 0.5075 0.41747 0.0
H203 H 0.0181 0.55803 0.41754 0.0
H204 H 0.10555 0.60216 0.50739 0.0
H205 H 0.10444 0.58047 0.56639 0.0
H206 H 0.05386 0.46893 0.61788 0.0
H207 H 0.01404 0.41163 0.5997 0.0
H208 H 0.11726 0.50446 0.47799 0.0
H209 H 0.04166 0.4627 0.4106 0.0
H210 H 0.92279 0.45002 0.5958 0.0
H211 H 0.95767 0.54089 0.54994 0.0
C212 C 0.45388 0.96584 0.0514 0.0
C213 C 0.45399 0.97666 0.08097 0.0
C214 C 0.48095 0.00604 0.08137 0.0
C215 C 0.49571 0.01137 0.05223 0.0
N216 N 0.47934 0.98755 0.03282 0.0
Co217 Co 0.49376 0.98367 0.98984 0.0
N218 N 0.53617 0.02425 0.99262 0.0
C219 C 0.54553 0.04437 0.0161 0.0
C220 C 0.57584 0.07052 0.01131 0.0
C221 C 0.58642 0.06711 0.98296 0.0
C222 C 0.56177 0.03898 0.97195 0.0
N223 N 0.50869 0.97904 0.94751 0.0
C224 C 0.53719 0.99768 0.93141 0.0
C225 C 0.53755 0.98564 0.90273 0.0
C226 C 0.50829 0.95847 0.90063 0.0
C227 C 0.49176 0.95544 0.928 0.0
N228 N 0.45109 0.94344 0.98693 0.0
C229 C 0.43975 0.92543 0.96173 0.0
C230 C 0.41022 0.89836 0.96757 0.0
C231 C 0.40259 0.89884 0.99852 0.0
C232 C 0.42805 0.92625 0.00977 0.0
N233 N 0.4758 0.00677 0.96915 0.0
C234 C 0.45278 0.04147 0.93927 0.0
C235 C 0.45104 0.01665 0.92457 0.0
C236 C 0.46239 0.99966 0.93987 0.0
C237 C 0.46519 0.04784 0.96959 0.0
C238 C 0.47667 0.03063 0.98377 0.0
N239 N 0.51106 0.96056 0.01064 0.0
C240 C 0.50603 0.91114 0.02105 0.0
C241 C 0.51973 0.92061 0.05048 0.0
C242 C 0.53226 0.95134 0.05813 0.0
C243 C 0.52831 0.97111 0.03757 0.0
C244 C 0.50204 0.93155 0.00142 0.0
H245 H 0.53769 0.99419 0.0448 0.0
H246 H 0.48992 0.92281 0.97982 0.0
H247 H 0.46045 0.98125 0.92718 0.0
H248 H 0.48644 0.03752 0.00642 0.0
C249 C 0.52609 0.03728 0.0432 0.0
C250 C 0.43045 0.93409 0.04277 0.0
C251 C 0.56376 0.02769 0.94145 0.0
C252 C 0.45976 0.93167 0.93532 0.0
H253 H 0.43698 0.96417 0.10061 0.0
H254 H 0.48953 0.02112 0.10108 0.0
H255 H 0.58884 0.08964 0.02678 0.0
H256 H 0.60967 0.0835 0.97164 0.0
H257 H 0.55675 0.99572 0.88486 0.0
H258 H 0.49986 0.94308 0.88119 0.0
H259 H 0.39683 0.87954 0.95186 0.0
H260 H 0.38141 0.88053 0.01174 0.0
H261 H 0.44189 0.01086 0.90093 0.0
H262 H 0.46646 0.06635 0.98242 0.0
H263 H 0.49658 0.88754 0.01418 0.0
H264 H 0.54386 0.95966 0.08047 0.0
C265 C 0.48064 0.54248 0.49346 0.0
C266 C 0.47387 0.56297 0.50616 0.0
C267 C 0.45413 0.54753 0.53212 0.0
C268 C 0.45013 0.5187 0.5338 0.0
N269 N 0.46656 0.51496 0.51078 0.0
Co270 Co 0.46732 0.47675 0.50378 0.0
N271 N 0.43512 0.45269 0.53954 0.0
C272 C 0.42066 0.4629 0.55796 0.0
C273 C 0.40006 0.44117 0.58087 0.0
C274 C 0.40175 0.41566 0.5772 0.0
C275 C 0.42337 0.42338 0.55212 0.0
N276 N 0.46827 0.43863 0.49705 0.0
C277 C 0.4537 0.41092 0.51413 0.0
C278 C 0.46127 0.39076 0.50207 0.0
C279 C 0.48188 0.40653 0.47673 0.0
C280 C 0.48564 0.43527 0.47479 0.0
N281 N 0.49911 0.50071 0.46771 0.0
C282 C 0.5133 0.49042 0.44903 0.0
C283 C 0.53274 0.5117 0.42522 0.0
C284 C 0.53039 0.53689 0.42848 0.0
C285 C 0.50965 0.52949 0.45429 0.0
N286 N 0.50313 0.49111 0.53382 0.0
C287 C 0.55377 0.51112 0.57654 0.0
C288 C 0.55595 0.50215 0.54642 0.0
C289 C 0.53051 0.49211 0.52573 0.0
C290 C 0.52588 0.51006 0.58485 0.0
C291 C 0.50118 0.50021 0.5633 0.0
N292 N 0.43173 0.46261 0.47368 0.0
C293 C 0.40962 0.44473 0.42219 0.0
C294 C 0.38427 0.44851 0.42856 0.0
C295 C 0.38227 0.45792 0.45855 0.0
C296 C 0.40602 0.46483 0.48048 0.0
C297 C 0.43281 0.45174 0.44494 0.0
H298 H 0.40343 0.47261 0.50253 0.0
H299 H 0.45183 0.44897 0.43838 0.0
H300 H 0.53347 0.48497 0.50345 0.0
H301 H 0.48068 0.50002 0.57117 0.0
C302 C 0.4288 0.49378 0.55474 0.0
C303 C 0.49885 0.5495 0.46385 0.0
C304 C 0.43429 0.40335 0.54304 0.0
C305 C 0.50623 0.45993 0.4532 0.0
H306 H 0.48165 0.58631 0.497 0.0
H307 H 0.44302 0.55589 0.54723 0.0
H308 H 0.38633 0.44393 0.59883 0.0
H309 H 0.38926 0.39423 0.59202 0.0
H310 H 0.45326 0.36735 0.51122 0.0
H311 H 0.49337 0.39832 0.46197 0.0
H312 H 0.54612 0.5088 0.40699 0.0
H313 H 0.54189 0.55791 0.41301 0.0
H314 H 0.57686 0.50206 0.53908 0.0
H315 H 0.52314 0.51694 0.60788 0.0
H316 H 0.41238 0.43763 0.39929 0.0
H317 H 0.36271 0.46053 0.46499 0.0
C318 C 0.25398 0.45367 0.24947 0.0
C319 C 0.18819 0.46559 0.16974 0.0
O320 O 0.2309 0.43112 0.23535 0.0
Zn321 Zn 0.22136 0.4572 0.20749 0.0
O322 O 0.26299 0.48182 0.24121 0.0
Zn323 Zn 0.25156 0.50775 0.20973 0.0
O324 O 0.24135 0.52857 0.24088 0.0
O325 O 0.20755 0.47725 0.24204 0.0
O326 O 0.21211 0.4913 0.17908 0.0
O327 O 0.18434 0.43977 0.17982 0.0
O328 O 0.26161 0.47975 0.17531 0.0
O329 O 0.28955 0.53052 0.18157 0.0
C330 C 0.21646 0.50374 0.25289 0.0
C331 C 0.28582 0.50724 0.16764 0.0
C332 C 0.81747 0.24663 0.70042 0.0
C333 C 0.73901 0.18021 0.78595 0.0
O334 O 0.79596 0.25257 0.70614 0.0
Zn335 Zn 0.75587 0.23773 0.73727 0.0
O336 O 0.81801 0.22553 0.7173 0.0
Zn337 Zn 0.78 0.21315 0.74404 0.0
O338 O 0.74279 0.19494 0.71 0.0
O339 O 0.72133 0.22331 0.7076 0.0
O340 O 0.76239 0.17849 0.77652 0.0
O341 O 0.73502 0.20109 0.77308 0.0
O342 O 0.76947 0.27446 0.76084 0.0
O343 O 0.79762 0.25336 0.77123 0.0
C344 C 0.72241 0.20054 0.6982 0.0
C345 C 0.79196 0.27468 0.77563 0.0
C346 C 0.56609 0.81165 0.309 0.0
C347 C 0.58002 0.75163 0.23089 0.0
O348 O 0.59271 0.81682 0.29844 0.0
Zn349 Zn 0.57476 0.78149 0.27108 0.0
O350 O 0.53971 0.7884 0.29955 0.0
Zn351 Zn 0.52354 0.75188 0.26818 0.0
O352 O 0.4999 0.71456 0.29534 0.0
O353 O 0.55204 0.74112 0.30347 0.0
O354 O 0.55068 0.74197 0.2374 0.0
O355 O 0.60258 0.77385 0.24574 0.0
O356 O 0.55333 0.79465 0.23451 0.0
O357 O 0.50052 0.76147 0.23814 0.0
C358 C 0.5236 0.71745 0.31019 0.0
C359 C 0.52517 0.78519 0.22451 0.0
C360 C 0.809 0.54965 0.79301 0.0
C361 C 0.72741 0.54422 0.72217 0.0
O362 O 0.78594 0.522 0.78711 0.0
Zn363 Zn 0.74321 0.4986 0.76053 0.0
O364 O 0.80979 0.57323 0.78013 0.0
Zn365 Zn 0.77031 0.54927 0.75646 0.0
O366 O 0.73613 0.52748 0.79511 0.0
O367 O 0.7106 0.47599 0.79439 0.0
O368 O 0.75319 0.56914 0.72949 0.0
O369 O 0.72187 0.51763 0.73234 0.0
O370 O 0.75359 0.47706 0.73067 0.0
O371 O 0.78438 0.52841 0.72349 0.0
C372 C 0.7153 0.50015 0.80729 0.0
C373 C 0.77677 0.50125 0.71587 0.0
C374 C 0.2906 0.79612 0.22794 0.0
C375 C 0.2178 0.72247 0.3135 0.0
O376 O 0.26929 0.80106 0.23759 0.0
Zn377 Zn 0.23071 0.78291 0.27188 0.0
O378 O 0.29235 0.77422 0.24148 0.0
Zn379 Zn 0.25624 0.7593 0.2716 0.0
O380 O 0.21782 0.7433 0.23978 0.0
O381 O 0.19419 0.76938 0.24418 0.0
O382 O 0.24109 0.72258 0.3006 0.0
O383 O 0.21239 0.74358 0.3047 0.0
O384 O 0.24579 0.81785 0.2992 0.0
O385 O 0.2746 0.79672 0.30237 0.0
C386 C 0.19631 0.74854 0.23109 0.0
C387 C 0.26914 0.81724 0.31092 0.0
C388 C 0.47566 0.28 0.795 0.0
C389 C 0.4786 0.21581 0.71462 0.0
O390 O 0.50044 0.2828 0.7823 0.0
Zn391 Zn 0.47818 0.24793 0.75558 0.0
O392 O 0.44755 0.25814 0.787 0.0
Zn393 Zn 0.42661 0.22078 0.75489 0.0
O394 O 0.40239 0.18328 0.78304 0.0
O395 O 0.45492 0.20913 0.78903 0.0
O396 O 0.45002 0.20788 0.7224 0.0
O397 O 0.50243 0.23761 0.72858 0.0
O398 O 0.4575 0.26432 0.72246 0.0
O399 O 0.40456 0.23336 0.72589 0.0
C400 C 0.4265 0.18635 0.79726 0.0
C401 C 0.42981 0.25726 0.71322 0.0
H402 H 0.02585 0.42994 0.05428 0.0
H403 H 0.19211 0.51772 0.14467 0.0
H404 H 0.08327 0.52894 0.06688 0.0
H405 H 0.13069 0.41697 0.14744 0.0
H406 H 0.15298 0.5212 0.11358 0.0
H407 H 0.06361 0.42351 0.0866 0.0
C408 C 0.04624 0.45019 0.06421 0.0
C409 C 0.05153 0.47997 0.05826 0.0
C410 C 0.14789 0.49825 0.12088 0.0
C411 C 0.09486 0.47303 0.09446 0.0
C412 C 0.17039 0.49619 0.13864 0.0
C413 C 0.16476 0.46695 0.14887 0.0
C414 C 0.11928 0.47089 0.11296 0.0
C415 C 0.13607 0.44 0.14008 0.0
C416 C 0.06779 0.44658 0.08247 0.0
C417 C 0.07839 0.50561 0.07113 0.0
N418 N 0.11433 0.44261 0.12262 0.0
N419 N 0.09906 0.50156 0.0885 0.0
H420 H 0.56937 0.10111 0.56525 0.0
H421 H 0.72383 0.15448 0.66982 0.0
H422 H 0.62878 0.06352 0.55951 0.0
H423 H 0.67197 0.20053 0.67032 0.0
H424 H 0.6885 0.12081 0.6298 0.0
H425 H 0.60594 0.13773 0.60386 0.0
C426 C 0.59029 0.10081 0.57214 0.0
C427 C 0.59628 0.07944 0.55959 0.0
C428 C 0.68478 0.13828 0.63854 0.0
C429 C 0.63789 0.12079 0.6034 0.0
C430 C 0.70496 0.15755 0.66153 0.0
C431 C 0.70085 0.18039 0.67358 0.0
C432 C 0.66004 0.14161 0.62743 0.0
C433 C 0.676 0.18324 0.66172 0.0
C434 C 0.61107 0.12158 0.59408 0.0
C435 C 0.62347 0.07967 0.56895 0.0
N436 N 0.65643 0.16398 0.63933 0.0
N437 N 0.64324 0.09996 0.59041 0.0
H438 H 0.61156 0.62945 0.12529 0.0
H439 H 0.55049 0.73759 0.17526 0.0
H440 H 0.5521 0.64992 0.06824 0.0
H441 H 0.62323 0.73343 0.22703 0.0
H442 H 0.55427 0.7079 0.1342 0.0
H443 H 0.61915 0.66897 0.16161 0.0
C444 C 0.60032 0.64237 0.12024 0.0
C445 C 0.58107 0.63623 0.09365 0.0
C446 C 0.56975 0.71364 0.15426 0.0
C447 C 0.58979 0.68144 0.13495 0.0
C448 C 0.56756 0.7306 0.17773 0.0
C449 C 0.58642 0.7377 0.20455 0.0
C450 C 0.59052 0.70301 0.15783 0.0
C451 C 0.60834 0.72838 0.20657 0.0
C452 C 0.60485 0.66505 0.14086 0.0
C453 C 0.56746 0.65399 0.0881 0.0
N454 N 0.60946 0.71098 0.18367 0.0
N455 N 0.57188 0.6755 0.10865 0.0
H456 H 0.94103 0.54644 0.60052 0.0
H457 H 0.77128 0.44845 0.69386 0.0
H458 H 0.87417 0.44752 0.59078 0.0
H459 H 0.82877 0.5493 0.68277 0.0
H460 H 0.80868 0.44686 0.65706 0.0
H461 H 0.90023 0.54748 0.63171 0.0
C462 C 0.91772 0.52498 0.60463 0.0
C463 C 0.91124 0.49682 0.59307 0.0
C464 C 0.81286 0.46929 0.66255 0.0
C465 C 0.86444 0.49774 0.6294 0.0
C466 C 0.79152 0.47019 0.68351 0.0
C467 C 0.79692 0.49903 0.69158 0.0
C468 C 0.83989 0.49741 0.64986 0.0
C469 C 0.82361 0.52649 0.67744 0.0
C470 C 0.89443 0.52555 0.62262 0.0
C471 C 0.8806 0.46967 0.59973 0.0
N472 N 0.84416 0.52499 0.65754 0.0
N473 N 0.85845 0.47076 0.6176 0.0
H474 H 0.43839 0.89216 0.07711 0.0
H475 H 0.2873 0.83999 0.19216 0.0
H476 H 0.37361 0.9233 0.06478 0.0
H477 H 0.34134 0.79621 0.2 0.0
H478 H 0.32 0.87106 0.14601 0.0
H479 H 0.40422 0.85675 0.12201 0.0
C480 C 0.4167 0.89114 0.08377 0.0
C481 C 0.4085 0.91038 0.06754 0.0
C482 C 0.32482 0.85468 0.15767 0.0
C483 C 0.36979 0.87063 0.11857 0.0
C484 C 0.30616 0.83691 0.18426 0.0
C485 C 0.31156 0.81539 0.20018 0.0
C486 C 0.34941 0.85128 0.14668 0.0
C487 C 0.33636 0.81253 0.18851 0.0
C488 C 0.39732 0.87109 0.10931 0.0
C489 C 0.38048 0.90863 0.07682 0.0
N490 N 0.35449 0.83037 0.16246 0.0
N491 N 0.36221 0.88923 0.10183 0.0
H492 H 0.48327 0.4099 0.57733 0.0
H493 H 0.37676 0.24913 0.68225 0.0
H494 H 0.38234 0.34555 0.56267 0.0
H495 H 0.47988 0.31147 0.6862 0.0
H496 H 0.37683 0.2838 0.63957 0.0
H497 H 0.48139 0.37355 0.61844 0.0
C498 C 0.46075 0.38789 0.58283 0.0
C499 C 0.43293 0.38049 0.56695 0.0
C500 C 0.39936 0.28972 0.64986 0.0
C501 C 0.43028 0.33884 0.61395 0.0
C502 C 0.39932 0.27003 0.67422 0.0
C503 C 0.42832 0.27738 0.68783 0.0
C504 C 0.4286 0.31687 0.63932 0.0
C505 C 0.45689 0.30472 0.67649 0.0
C506 C 0.45957 0.36717 0.60628 0.0
C507 C 0.4042 0.35188 0.57472 0.0
N508 N 0.45625 0.32337 0.65302 0.0
N509 N 0.40352 0.332 0.59788 0.0
H510 H 0.49049 0.88848 0.43069 0.0
H511 H 0.6131 0.87227 0.32239 0.0
H512 H 0.58617 0.96686 0.40525 0.0
H513 H 0.51483 0.79826 0.34575 0.0
H514 H 0.60624 0.90693 0.35537 0.0
H515 H 0.50131 0.85478 0.40212 0.0
C516 C 0.51394 0.8986 0.41929 0.0
C517 C 0.53751 0.93057 0.42058 0.0
C518 C 0.58632 0.88303 0.35335 0.0
C519 C 0.55003 0.89194 0.38716 0.0
C520 C 0.59028 0.86323 0.33471 0.0
C521 C 0.56444 0.83241 0.33113 0.0
C522 C 0.55639 0.87174 0.36855 0.0
C523 C 0.53535 0.82191 0.34751 0.0
C524 C 0.52008 0.87933 0.40276 0.0
C525 C 0.5672 0.9424 0.40466 0.0
N526 N 0.53214 0.84151 0.36532 0.0
N527 N 0.57265 0.92307 0.38859 0.0
H528 H 0.56853 0.47856 0.93505 0.0
H529 H 0.73879 0.54016 0.85424 0.0
H530 H 0.6584 0.5497 0.97253 0.0
H531 H 0.6528 0.45571 0.82698 0.0
H532 H 0.70952 0.54146 0.89966 0.0
H533 H 0.59806 0.46706 0.89726 0.0
C534 C 0.59451 0.49132 0.93551 0.0
C535 C 0.6113 0.51502 0.95662 0.0
C536 C 0.69698 0.52238 0.88407 0.0
C537 C 0.64511 0.50252 0.91366 0.0
C538 C 0.71369 0.52168 0.85805 0.0
C539 C 0.69805 0.49795 0.83672 0.0
C540 C 0.6641 0.49951 0.8886 0.0
C541 C 0.66565 0.4744 0.84294 0.0
C542 C 0.61133 0.48481 0.91407 0.0
C543 C 0.64481 0.53121 0.95652 0.0
N544 N 0.64951 0.47604 0.86812 0.0
N545 N 0.66067 0.52486 0.93513 0.0
H546 H 0.05985 0.60859 0.44756 0.0
H547 H 0.21634 0.66968 0.3356 0.0
H548 H 0.10641 0.5581 0.44067 0.0
H549 H 0.16905 0.71929 0.34692 0.0
H550 H 0.17743 0.62875 0.37426 0.0
H551 H 0.10055 0.64965 0.41058 0.0
C552 C 0.07866 0.60621 0.43798 0.0
C553 C 0.07975 0.57998 0.44659 0.0
C554 C 0.17573 0.64869 0.36829 0.0
C555 C 0.12661 0.62679 0.40466 0.0
C556 C 0.19796 0.67208 0.34628 0.0
C557 C 0.19595 0.69796 0.33787 0.0
C558 C 0.1514 0.65128 0.38191 0.0
C559 C 0.17157 0.69978 0.35247 0.0
C560 C 0.10196 0.62961 0.41701 0.0
C561 C 0.1048 0.57801 0.43418 0.0
N562 N 0.15032 0.67681 0.3736 0.0
N563 N 0.12726 0.60109 0.41368 0.0
H564 H 0.48253 0.10475 0.94157 0.0
H565 H 0.3809 0.12309 0.80539 0.0
H566 H 0.40316 0.02527 0.89826 0.0
H567 H 0.46485 0.19909 0.84716 0.0
H568 H 0.38253 0.08622 0.84408 0.0
H569 H 0.47017 0.13877 0.9123 0.0
C570 C 0.46213 0.09429 0.92626 0.0
C571 C 0.44389 0.06196 0.92248 0.0
C572 C 0.40027 0.11102 0.84496 0.0
C573 C 0.4301 0.10131 0.88781 0.0
C574 C 0.39921 0.13201 0.82308 0.0
C575 C 0.42303 0.16403 0.82293 0.0
C576 C 0.42514 0.12241 0.86679 0.0
C577 C 0.44633 0.1745 0.84617 0.0
C578 C 0.45523 0.11387 0.90925 0.0
C579 C 0.41821 0.05009 0.90157 0.0
N580 N 0.44691 0.15376 0.86695 0.0
N581 N 0.41221 0.06981 0.8848 0.0
H582 H 0.35702 0.40488 0.38271 0.0
H583 H 0.2807 0.49203 0.29726 0.0
H584 H 0.36028 0.48503 0.41672 0.0
H585 H 0.26222 0.40475 0.26529 0.0
H586 H 0.30931 0.48797 0.34153 0.0
H587 H 0.32223 0.40275 0.33996 0.0
C588 C 0.35035 0.42191 0.38132 0.0
C589 C 0.36158 0.44513 0.40351 0.0
C590 C 0.29902 0.46951 0.32507 0.0
C591 C 0.32181 0.44271 0.35484 0.0
C592 C 0.28269 0.47187 0.29956 0.0
C593 C 0.26933 0.44885 0.27726 0.0
C594 C 0.30253 0.44402 0.32853 0.0
C595 C 0.27226 0.42304 0.28193 0.0
C596 C 0.33036 0.42054 0.35704 0.0
C597 C 0.3519 0.46637 0.40067 0.0
N598 N 0.28891 0.42144 0.30698 0.0
N599 N 0.33281 0.46469 0.37682 0.0
H600 H 0.86839 0.41995 0.91093 0.0
H601 H 0.84782 0.28719 0.8016 0.0
H602 H 0.94376 0.40396 0.89189 0.0
H603 H 0.78231 0.31839 0.79973 0.0
H604 H 0.8811 0.32735 0.83802 0.0
H605 H 0.83438 0.38035 0.87362 0.0
C606 C 0.8777 0.408 0.89898 0.0
C607 C 0.90891 0.41518 0.90452 0.0
C608 C 0.85951 0.32552 0.82963 0.0
C609 C 0.87024 0.37001 0.8619 0.0
C610 C 0.84037 0.30248 0.80888 0.0
C611 C 0.81216 0.29936 0.79758 0.0
C612 C 0.85033 0.34554 0.83953 0.0
C613 C 0.80389 0.32 0.80779 0.0
C614 C 0.85838 0.38559 0.87757 0.0
C615 C 0.91996 0.39932 0.88813 0.0
N616 N 0.82284 0.34216 0.82834 0.0
N617 N 0.90059 0.37738 0.8677 0.0
H618 H 0.9115 0.50401 0.92571 0.0
H619 H 0.8565 0.60246 0.8217 0.0
H620 H 0.95528 0.60294 0.93342 0.0
H621 H 0.817 0.50375 0.81596 0.0
H622 H 0.89364 0.6045 0.86181 0.0
H623 H 0.87653 0.50437 0.8851 0.0
C624 C 0.91351 0.52578 0.91879 0.0
C625 C 0.93607 0.55346 0.93266 0.0
C626 C 0.87685 0.58249 0.8516 0.0
C627 C 0.89644 0.55434 0.88616 0.0
C628 C 0.85577 0.58135 0.82865 0.0
C629 C 0.83346 0.55289 0.81553 0.0
C630 C 0.87552 0.55498 0.86131 0.0
C631 C 0.83353 0.52622 0.82549 0.0
C632 C 0.89371 0.5261 0.89558 0.0
C633 C 0.93804 0.58118 0.92304 0.0
N634 N 0.85406 0.52794 0.84772 0.0
N635 N 0.91845 0.58098 0.90026 0.0
H636 H 0.42702 0.92203 0.43439 0.0
H637 H 0.27013 0.86822 0.33239 0.0
H638 H 0.37949 0.97207 0.4314 0.0
H639 H 0.31815 0.81854 0.34148 0.0
H640 H 0.30879 0.90645 0.36866 0.0
H641 H 0.38634 0.88372 0.40016 0.0
C642 C 0.40787 0.92481 0.42639 0.0
C643 C 0.4065 0.95012 0.43538 0.0
C644 C 0.31069 0.88708 0.36271 0.0
C645 C 0.35978 0.90652 0.39625 0.0
C646 C 0.28862 0.86525 0.34207 0.0
C647 C 0.2909 0.84015 0.33375 0.0
C648 C 0.33512 0.8837 0.37501 0.0
C649 C 0.3154 0.8375 0.347 0.0
C650 C 0.38464 0.90301 0.40688 0.0
C651 C 0.38129 0.95285 0.42463 0.0
N652 N 0.33647 0.85896 0.3668 0.0
N653 N 0.35887 0.93131 0.40549 0.0
H654 H 0.53024 0.44766 0.88965 0.0
H655 H 0.42993 0.27223 0.83736 0.0
H656 H 0.44989 0.37306 0.94558 0.0
H657 H 0.52816 0.33829 0.80543 0.0
H658 H 0.43424 0.31001 0.87386 0.0
H659 H 0.52711 0.40917 0.8548 0.0
C660 C 0.51178 0.42317 0.89442 0.0
C661 C 0.49016 0.41348 0.92041 0.0
C662 C 0.45489 0.31616 0.85899 0.0
C663 C 0.48648 0.3694 0.88071 0.0
C664 C 0.45245 0.29467 0.83809 0.0
C665 C 0.47874 0.30215 0.81829 0.0
C666 C 0.48365 0.34559 0.85976 0.0
C667 C 0.50736 0.33152 0.82035 0.0
C668 C 0.51019 0.40123 0.87471 0.0
C669 C 0.46703 0.38144 0.92582 0.0
N670 N 0.50897 0.35231 0.84052 0.0
N671 N 0.46563 0.36053 0.90599 0.0
H672 H 0.07464 0.43902 0.40313 0.0
H673 H 0.23262 0.55113 0.29338 0.0
H674 H 0.14157 0.53567 0.4223 0.0
H675 H 0.15799 0.45616 0.27514 0.0
H676 H 0.20199 0.54707 0.34143 0.0
H677 H 0.1082 0.44526 0.35776 0.0
C678 C 0.09662 0.46155 0.39782 0.0
C679 C 0.10527 0.48689 0.41629 0.0
C680 C 0.19245 0.52725 0.32674 0.0
C681 C 0.14389 0.4945 0.36398 0.0
C682 C 0.20977 0.52962 0.29927 0.0
C683 C 0.19794 0.50392 0.28027 0.0
C684 C 0.16326 0.49899 0.33504 0.0
C685 C 0.1683 0.47655 0.28909 0.0
C686 C 0.1158 0.4652 0.37184 0.0
C687 C 0.1342 0.51552 0.40863 0.0
N688 N 0.15217 0.47484 0.31574 0.0
N689 N 0.15244 0.51868 0.38281 0.0
H690 H 0.61416 0.0239 0.92113 0.0
H691 H 0.69253 0.18424 0.81474 0.0
H692 H 0.57369 0.08013 0.91046 0.0
H693 H 0.73111 0.12595 0.81389 0.0
H694 H 0.65105 0.14718 0.85263 0.0
H695 H 0.6587 0.06115 0.88415 0.0
C696 C 0.61474 0.04409 0.91085 0.0
C697 C 0.59046 0.04917 0.91861 0.0
C698 C 0.66851 0.14233 0.8443 0.0
C699 C 0.64097 0.09169 0.87689 0.0
C700 C 0.69238 0.16361 0.82258 0.0
C701 C 0.71535 0.15817 0.81085 0.0
C702 C 0.66726 0.11512 0.85464 0.0
C703 C 0.71389 0.13106 0.82227 0.0
C704 C 0.64006 0.06529 0.88989 0.0
C705 C 0.59206 0.07554 0.90497 0.0
N706 N 0.6901 0.11041 0.8435 0.0
N707 N 0.61689 0.09581 0.88484 0.0
H708 H 0.55357 0.60653 0.44991 0.0
H709 H 0.46755 0.66238 0.3285 0.0
H710 H 0.45317 0.54979 0.42875 0.0
H711 H 0.56905 0.71738 0.34679 0.0
H712 H 0.46121 0.62177 0.36683 0.0
H713 H 0.55942 0.64845 0.41352 0.0
C714 C 0.53286 0.60305 0.43741 0.0
C715 C 0.50299 0.57491 0.44181 0.0
C716 C 0.48484 0.64278 0.3625 0.0
C717 C 0.50915 0.62236 0.40066 0.0
C718 C 0.48847 0.66599 0.34067 0.0
C719 C 0.51889 0.69328 0.33435 0.0
C720 C 0.51183 0.6469 0.37813 0.0
C721 C 0.54515 0.69669 0.35083 0.0
C722 C 0.53609 0.62685 0.41677 0.0
C723 C 0.47662 0.57129 0.4256 0.0
N724 N 0.54102 0.67374 0.37189 0.0
N725 N 0.48031 0.59477 0.40562 0.0
H726 H 0.52374 0.10158 0.61216 0.0
H727 H 0.4383 0.18594 0.66681 0.0
H728 H 0.4616 0.1145 0.55107 0.0
H729 H 0.52893 0.20842 0.70471 0.0
H730 H 0.44398 0.15645 0.62642 0.0
H731 H 0.52385 0.13761 0.6487 0.0
C732 C 0.51019 0.11212 0.60648 0.0
C733 C 0.49242 0.105 0.57879 0.0
C734 C 0.46276 0.16803 0.6434 0.0
C735 C 0.49225 0.14584 0.62039 0.0
C736 C 0.45947 0.18472 0.66657 0.0
C737 C 0.48314 0.19951 0.68923 0.0
C738 C 0.48959 0.16552 0.64322 0.0
C739 C 0.51018 0.19738 0.68764 0.0
C740 C 0.51043 0.13276 0.62718 0.0
C741 C 0.47557 0.11945 0.57222 0.0
N742 N 0.51249 0.18032 0.66523 0.0
N743 N 0.47555 0.13891 0.5931 0.0
H744 H 0.46321 0.56088 0.06776 0.0
H745 H 0.27874 0.46421 0.12706 0.0
H746 H 0.39271 0.46755 0.04172 0.0
H747 H 0.34749 0.55789 0.15436 0.0
H748 H 0.31948 0.46724 0.0922 0.0
H749 H 0.42084 0.5624 0.09633 0.0
C750 C 0.43867 0.54084 0.06797 0.0
C751 C 0.43118 0.51398 0.05273 0.0
C752 C 0.32573 0.48727 0.1056 0.0
C753 C 0.38285 0.51538 0.08511 0.0
C754 C 0.30241 0.48558 0.12557 0.0
C755 C 0.30976 0.51076 0.14392 0.0
C756 C 0.35689 0.51428 0.10398 0.0
C757 C 0.34079 0.53791 0.14069 0.0
C758 C 0.41456 0.54166 0.08421 0.0
C759 C 0.39925 0.48857 0.05342 0.0
N760 N 0.36334 0.53885 0.12133 0.0
N761 N 0.37626 0.48982 0.06951 0.0
H762 H 0.98488 0.36166 0.57061 0.0
H763 H 0.8084 0.27468 0.64956 0.0
H764 H 0.92083 0.39441 0.56519 0.0
H765 H 0.87939 0.26009 0.69061 0.0
H766 H 0.84768 0.31055 0.60932 0.0
H767 H 0.94547 0.31779 0.60722 0.0
C768 C 0.96262 0.3596 0.57707 0.0
C769 C 0.95619 0.38179 0.56498 0.0
C770 C 0.85482 0.29951 0.627 0.0
C771 C 0.9112 0.33184 0.60582 0.0
C772 C 0.83234 0.27893 0.65003 0.0
C773 C 0.8408 0.26482 0.67389 0.0
C774 C 0.88633 0.30644 0.62765 0.0
C775 C 0.87201 0.27072 0.67274 0.0
C776 C 0.94026 0.33468 0.59784 0.0
C777 C 0.92696 0.37803 0.57389 0.0
N778 N 0.89395 0.2915 0.65014 0.0
N779 N 0.90566 0.3536 0.59354 0.0
H780 H 0.48851 0.90354 0.10754 0.0
H781 H 0.56849 0.81646 0.17578 0.0
H782 H 0.54704 0.88635 0.04749 0.0
H783 H 0.47492 0.79141 0.21016 0.0
H784 H 0.56473 0.84642 0.13092 0.0
H785 H 0.4866 0.86662 0.14829 0.0
C786 C 0.50091 0.89187 0.10305 0.0
C787 C 0.51814 0.89792 0.07445 0.0
C788 C 0.54493 0.83413 0.14814 0.0
C789 C 0.51636 0.85625 0.12071 0.0
C790 C 0.54713 0.81726 0.1738 0.0
C791 C 0.52205 0.80172 0.19671 0.0
C792 C 0.51782 0.83604 0.14586 0.0
C793 C 0.49474 0.80313 0.19294 0.0
C794 C 0.49964 0.87076 0.12611 0.0
C795 C 0.53364 0.88221 0.06941 0.0
N796 N 0.49353 0.82046 0.16816 0.0
N797 N 0.53278 0.86231 0.0926 0.0
H798 H 0.54728 0.4928 0.63942 0.0
H799 H 0.73573 0.58599 0.67295 0.0
H800 H 0.61928 0.54968 0.5662 0.0
H801 H 0.66312 0.50312 0.72708 0.0
H802 H 0.69354 0.58146 0.63805 0.0
H803 H 0.58993 0.50522 0.67653 0.0
C804 C 0.57208 0.50822 0.63124 0.0
C805 C 0.5797 0.52009 0.59961 0.0
C806 C 0.68697 0.5645 0.65778 0.0
C807 C 0.62876 0.53433 0.64202 0.0
C808 C 0.71093 0.56719 0.67774 0.0
C809 C 0.70286 0.54476 0.70273 0.0
C810 C 0.65484 0.53961 0.66342 0.0
C811 C 0.67042 0.52073 0.70786 0.0
C812 C 0.59643 0.51515 0.65239 0.0
C813 C 0.61235 0.53971 0.59029 0.0
N814 N 0.64768 0.51882 0.68845 0.0
N815 N 0.63573 0.54622 0.61139 0.0
H816 H 0.12253 0.63106 0.07383 0.0
H817 H 0.13693 0.7376 0.21461 0.0
H818 H 0.04151 0.63319 0.10763 0.0
H819 H 0.2088 0.71895 0.18774 0.0
H820 H 0.10297 0.70478 0.17209 0.0
H821 H 0.15614 0.66923 0.11161 0.0
C822 C 0.11185 0.63985 0.08894 0.0
C823 C 0.0791 0.62885 0.08747 0.0
C824 C 0.12626 0.70808 0.17558 0.0
C825 C 0.11754 0.67237 0.13157 0.0
C826 C 0.14562 0.72683 0.19971 0.0
C827 C 0.17555 0.73073 0.20493 0.0
C828 C 0.13727 0.69363 0.15651 0.0
C829 C 0.18572 0.7163 0.18495 0.0
C830 C 0.13104 0.66151 0.11078 0.0
C831 C 0.06657 0.64075 0.10821 0.0
N832 N 0.16667 0.69847 0.16178 0.0
N833 N 0.08579 0.66183 0.12952 0.0
loop_
_geom_bond_atom_site_label_1
_geom_bond_atom_site_label_2
_geom_bond_distance
_geom_bond_site_symmetry_2
_ccdc_geom_bond_type
C0 C1 1.443 . S
C0 N4 1.376 1_556 S
C0 C38 1.389 . S
C1 C0 1.443 . S
C1 C2 1.340 1_556 S
C1 H41 0.951 . S
C2 C1 1.340 1_554 S
C2 C3 1.439 . S
C2 H42 0.950 . S
C3 C2 1.439 . S
C3 N4 1.374 . S
C3 C37 1.395 . S
N4 C0 1.376 1_554 S
N4 C3 1.374 . S
N4 Co5 2.001 1_655 S
Co5 N4 2.001 1_455 S
Co5 N6 2.014 1_455 S
Co5 N11 2.015 1_554 S
Co5 N16 1.976 1_554 S
Co5 N21 2.298 . S
Co5 N27 2.268 1_454 S
N6 Co5 2.014 1_655 S
N6 C7 1.376 . S
N6 C10 1.383 1_655 S
C7 N6 1.376 . S
C7 C8 1.446 . S
C7 C37 1.391 . S
C8 C7 1.446 . S
C8 C9 1.339 . S
C8 H43 0.949 . S
C9 C8 1.339 . S
C9 C10 1.439 1_655 S
C9 H44 0.950 1_655 S
C10 N6 1.383 1_455 S
C10 C9 1.439 1_455 S
C10 C39 1.392 . S
N11 Co5 2.015 1_556 S
N11 C12 1.376 1_556 S
N11 C15 1.374 . S
C12 N11 1.376 1_554 S
C12 C13 1.443 . S
C12 C39 1.389 . S
C13 C12 1.443 . S
C13 C14 1.340 1_554 S
C13 H45 0.951 . S
C14 C13 1.340 1_556 S
C14 C15 1.439 . S
C14 H46 0.950 . S
C15 N11 1.374 . S
C15 C14 1.439 . S
C15 C40 1.395 . S
N16 Co5 1.976 1_556 S
N16 C17 1.376 . S
N16 C20 1.383 1_455 S
C17 N16 1.376 . S
C17 C18 1.446 . S
C17 C40 1.391 . S
C18 C17 1.446 . S
C18 C19 1.339 . S
C18 H47 0.949 . S
C19 C18 1.339 . S
C19 C20 1.439 1_455 S
C19 H48 0.950 1_455 S
C20 N16 1.383 1_655 S
C20 C19 1.439 1_655 S
C20 C38 1.392 . S
N21 Co5 2.298 . S
N21 C24 1.332 . S
N21 C26 1.332 . S
C22 C23 1.386 . S
C22 C25 1.388 . S
C23 C22 1.386 . S
C23 C24 1.382 . S
C23 H49 0.950 . S
C24 N21 1.332 . S
C24 C23 1.382 . S
C24 H35 0.952 . S
C25 C22 1.388 . S
C25 C26 1.382 . S
C25 H50 0.950 . S
C26 N21 1.332 . S
C26 C25 1.382 . S
C26 H36 0.948 1_455 S
N27 Co5 2.268 1_656 S
N27 C31 1.332 . S
N27 C32 1.332 . S
C28 C29 1.388 . S
C28 C32 1.382 . S
C28 H51 0.950 . S
C29 C28 1.388 . S
C29 C30 1.386 . S
C30 C29 1.386 . S
C30 C31 1.382 . S
C30 H52 0.950 . S
C31 N27 1.332 . S
C31 C30 1.382 . S
C31 H33 0.953 . S
C32 N27 1.332 . S
C32 C28 1.382 . S
C32 H34 0.948 1_655 S
H33 C31 0.953 . S
H34 C32 0.948 1_455 S
H35 C24 0.952 . S
H36 C26 0.948 1_655 S
C37 C3 1.395 . S
C37 C7 1.391 . S
C38 C0 1.389 . S
C38 C20 1.392 . S
C39 C10 1.392 . S
C39 C12 1.389 . S
C40 C15 1.395 . S
C40 C17 1.391 . S
H41 C1 0.951 . S
H42 C2 0.950 . S
H43 C8 0.949 . S
H44 C9 0.950 1_455 S
H45 C13 0.951 . S
H46 C14 0.950 . S
H47 C18 0.949 . S
H48 C19 0.950 1_655 S
H49 C23 0.950 . S
H50 C25 0.950 . S
H51 C28 0.950 . S
H52 C30 0.950 . S
C53 C54 1.441 1_545 S
C53 N57 1.376 1_545 S
C53 C91 1.389 . S
C54 C53 1.441 1_565 S
C54 C55 1.344 . S
C54 H94 0.950 1_565 S
C55 C54 1.344 . S
C55 C56 1.439 . S
C55 H95 0.950 . S
C56 C55 1.439 . S
C56 N57 1.374 . S
C56 C90 1.395 . S
N57 C53 1.376 1_565 S
N57 C56 1.374 . S
N57 Co58 1.996 1_565 S
Co58 N57 1.996 1_545 S
Co58 N59 1.976 1_545 S
Co58 N64 2.021 . S
Co58 N69 2.014 . S
Co58 N74 2.250 1_545 S
Co58 N80 2.315 . S
N59 Co58 1.976 1_565 S
N59 C60 1.376 . S
N59 C63 1.383 . S
C60 N59 1.376 . S
C60 C61 1.446 . S
C60 C90 1.391 . S
C61 C60 1.446 . S
C61 C62 1.339 . S
C61 H96 0.949 . S
C62 C61 1.339 . S
C62 C63 1.439 . S
C62 H97 0.950 . S
C63 N59 1.383 . S
C63 C62 1.439 . S
C63 C92 1.392 . S
N64 Co58 2.021 . S
N64 C65 1.376 1_545 S
N64 C68 1.374 . S
C65 N64 1.376 1_565 S
C65 C66 1.443 1_565 S
C65 C92 1.389 . S
C66 C65 1.443 1_545 S
C66 C67 1.340 . S
C66 H98 0.951 1_545 S
C67 C66 1.340 . S
C67 C68 1.439 . S
C67 H99 0.950 . S
C68 N64 1.374 . S
C68 C67 1.439 . S
C68 C93 1.395 . S
N69 Co58 2.014 . S
N69 C70 1.376 . S
N69 C73 1.383 . S
C70 N69 1.376 . S
C70 C71 1.446 . S
C70 C93 1.391 . S
C71 C70 1.446 . S
C71 C72 1.339 . S
C71 H100 0.949 . S
C72 C71 1.339 . S
C72 C73 1.439 . S
C72 H101 0.950 . S
C73 N69 1.383 . S
C73 C72 1.439 . S
C73 C91 1.392 . S
N74 Co58 2.250 1_565 S
N74 C77 1.332 . S
N74 C79 1.332 . S
C75 C76 1.386 . S
C75 C78 1.388 . S
C76 C75 1.386 . S
C76 C77 1.382 . S
C76 H102 0.950 . S
C77 N74 1.332 . S
C77 C76 1.382 . S
C77 H88 0.952 1_565 S
C78 C75 1.388 . S
C78 C79 1.382 . S
C78 H103 0.950 . S
C79 N74 1.332 . S
C79 C78 1.382 . S
C79 H89 0.948 . S
N80 Co58 2.315 . S
N80 C84 1.332 . S
N80 C85 1.332 . S
C81 C82 1.388 . S
C81 C85 1.382 . S
C81 H104 0.950 . S
C82 C81 1.388 . S
C82 C83 1.386 . S
C83 C82 1.386 . S
C83 C84 1.382 . S
C83 H105 0.950 . S
C84 N80 1.332 . S
C84 C83 1.382 . S
C84 H86 0.952 1_545 S
C85 N80 1.332 . S
C85 C81 1.382 . S
C85 H87 0.948 . S
H86 C84 0.952 1_565 S
H87 C85 0.948 . S
H88 C77 0.952 1_545 S
H89 C79 0.948 . S
C90 C56 1.395 . S
C90 C60 1.391 . S
C91 C53 1.389 . S
C91 C73 1.392 . S
C92 C63 1.392 . S
C92 C65 1.389 . S
C93 C68 1.395 . S
C93 C70 1.391 . S
H94 C54 0.950 1_545 S
H95 C55 0.950 . S
H96 C61 0.949 . S
H97 C62 0.950 . S
H98 C66 0.951 1_565 S
H99 C67 0.950 . S
H100 C71 0.949 . S
H101 C72 0.950 . S
H102 C76 0.950 . S
H103 C78 0.950 . S
H104 C81 0.950 . S
H105 C83 0.950 . S
C106 C107 1.443 . S
C106 N110 1.376 . S
C106 C144 1.389 . S
C107 C106 1.443 . S
C107 C108 1.340 . S
C107 H147 0.951 . S
C108 C107 1.340 . S
C108 C109 1.439 . S
C108 H148 0.950 . S
C109 C108 1.439 . S
C109 N110 1.374 . S
C109 C143 1.395 . S
N110 C106 1.376 . S
N110 C109 1.374 . S
N110 Co111 1.988 1_556 S
Co111 N110 1.988 1_554 S
Co111 N112 1.992 1_554 S
Co111 N117 2.028 . S
Co111 N122 1.997 . S
Co111 N127 2.296 . S
Co111 N133 2.269 1_554 S
N112 Co111 1.992 1_556 S
N112 C113 1.376 . S
N112 C116 1.383 1_556 S
C113 N112 1.376 . S
C113 C114 1.446 . S
C113 C143 1.391 . S
C114 C113 1.446 . S
C114 C115 1.339 1_556 S
C114 H149 0.949 . S
C115 C114 1.339 1_554 S
C115 C116 1.439 . S
C115 H150 0.950 . S
C116 N112 1.383 1_554 S
C116 C115 1.439 . S
C116 C145 1.392 . S
N117 Co111 2.028 . S
N117 C118 1.376 . S
N117 C121 1.374 . S
C118 N117 1.376 . S
C118 C119 1.443 . S
C118 C145 1.389 . S
C119 C118 1.443 . S
C119 C120 1.340 . S
C119 H151 0.951 . S
C120 C119 1.340 . S
C120 C121 1.439 . S
C120 H152 0.950 . S
C121 N117 1.374 . S
C121 C120 1.439 . S
C121 C146 1.395 . S
N122 Co111 1.997 . S
N122 C123 1.376 . S
N122 C126 1.383 1_554 S
C123 N122 1.376 . S
C123 C124 1.446 . S
C123 C146 1.391 . S
C124 C123 1.446 . S
C124 C125 1.339 1_554 S
C124 H153 0.949 . S
C125 C124 1.339 1_556 S
C125 C126 1.439 . S
C125 H154 0.950 . S
C126 N122 1.383 1_556 S
C126 C125 1.439 . S
C126 C144 1.392 . S
N127 Co111 2.296 . S
N127 C130 1.332 . S
N127 C132 1.332 . S
C128 C129 1.386 . S
C128 C131 1.388 . S
C129 C128 1.386 . S
C129 C130 1.382 . S
C129 H155 0.950 . S
C130 N127 1.332 . S
C130 C129 1.382 . S
C130 H141 0.952 . S
C131 C128 1.388 . S
C131 C132 1.382 . S
C131 H156 0.950 . S
C132 N127 1.332 . S
C132 C131 1.382 . S
C132 H142 0.948 . S
N133 Co111 2.269 1_556 S
N133 C137 1.332 . S
N133 C138 1.332 . S
C134 C135 1.388 . S
C134 C138 1.382 . S
C134 H157 0.950 . S
C135 C134 1.388 . S
C135 C136 1.386 . S
C136 C135 1.386 . S
C136 C137 1.382 . S
C136 H158 0.950 . S
C137 N133 1.332 . S
C137 C136 1.382 . S
C137 H139 0.952 . S
C138 N133 1.332 . S
C138 C134 1.382 . S
C138 H140 0.948 . S
H139 C137 0.952 . S
H140 C138 0.948 . S
H141 C130 0.952 . S
H142 C132 0.948 . S
C143 C109 1.395 . S
C143 C113 1.391 . S
C144 C106 1.389 . S
C144 C126 1.392 . S
C145 C116 1.392 . S
C145 C118 1.389 . S
C146 C121 1.395 . S
C146 C123 1.391 . S
H147 C107 0.951 . S
H148 C108 0.950 . S
H149 C114 0.949 . S
H150 C115 0.950 . S
H151 C119 0.951 . S
H152 C120 0.950 . S
H153 C124 0.949 . S
H154 C125 0.950 . S
H155 C129 0.950 . S
H156 C131 0.950 . S
H157 C134 0.950 . S
H158 C136 0.950 . S
C159 C160 1.443 . S
C159 N163 1.376 . S
C159 C197 1.389 . S
C160 C159 1.443 . S
C160 C161 1.340 . S
C160 H200 0.951 . S
C161 C160 1.340 . S
C161 C162 1.439 . S
C161 H201 0.950 . S
C162 C161 1.439 . S
C162 N163 1.374 . S
C162 C196 1.395 . S
N163 C159 1.376 . S
N163 C162 1.374 . S
N163 Co164 2.003 1_655 S
Co164 N163 2.003 1_455 S
Co164 N165 1.991 1_455 S
Co164 N170 2.013 . S
Co164 N175 1.999 . S
Co164 N180 2.288 . S
Co164 N186 2.277 1_455 S
N165 Co164 1.991 1_655 S
N165 C166 1.376 . S
N165 C169 1.383 1_655 S
C166 N165 1.376 . S
C166 C167 1.446 . S
C166 C196 1.391 . S
C167 C166 1.446 . S
C167 C168 1.339 . S
C167 H202 0.949 . S
C168 C167 1.339 . S
C168 C169 1.439 1_655 S
C168 H203 0.950 1_655 S
C169 N165 1.383 1_455 S
C169 C168 1.439 1_455 S
C169 C198 1.392 . S
N170 Co164 2.013 . S
N170 C171 1.376 . S
N170 C174 1.374 . S
C171 N170 1.376 . S
C171 C172 1.443 . S
C171 C198 1.389 . S
C172 C171 1.443 . S
C172 C173 1.340 . S
C172 H204 0.951 . S
C173 C172 1.340 . S
C173 C174 1.439 . S
C173 H205 0.950 . S
C174 N170 1.374 . S
C174 C173 1.439 . S
C174 C199 1.395 . S
N175 Co164 1.999 . S
N175 C176 1.376 . S
N175 C179 1.383 1_455 S
C176 N175 1.376 . S
C176 C177 1.446 . S
C176 C199 1.391 . S
C177 C176 1.446 . S
C177 C178 1.339 . S
C177 H206 0.949 . S
C178 C177 1.339 . S
C178 C179 1.439 1_455 S
C178 H207 0.950 1_455 S
C179 N175 1.383 1_655 S
C179 C178 1.439 1_655 S
C179 C197 1.392 . S
N180 Co164 2.288 . S
N180 C183 1.332 . S
N180 C185 1.332 . S
C181 C182 1.386 . S
C181 C184 1.388 . S
C182 C181 1.386 . S
C182 C183 1.382 . S
C182 H208 0.950 . S
C183 N180 1.332 . S
C183 C182 1.382 . S
C183 H194 0.952 . S
C184 C181 1.388 . S
C184 C185 1.382 . S
C184 H209 0.950 . S
C185 N180 1.332 . S
C185 C184 1.382 . S
C185 H195 0.948 1_455 S
N186 Co164 2.277 1_655 S
N186 C190 1.332 . S
N186 C191 1.332 . S
C187 C188 1.388 . S
C187 C191 1.382 . S
C187 H210 0.950 . S
C188 C187 1.388 . S
C188 C189 1.386 . S
C189 C188 1.386 . S
C189 C190 1.382 . S
C189 H211 0.950 . S
C190 N186 1.332 . S
C190 C189 1.382 . S
C190 H192 0.952 . S
C191 N186 1.332 . S
C191 C187 1.382 . S
C191 H193 0.948 1_655 S
H192 C190 0.952 . S
H193 C191 0.948 1_455 S
H194 C183 0.952 . S
H195 C185 0.948 1_655 S
C196 C162 1.395 . S
C196 C166 1.391 . S
C197 C159 1.389 . S
C197 C179 1.392 . S
C198 C169 1.392 . S
C198 C171 1.389 . S
C199 C174 1.395 . S
C199 C176 1.391 . S
H200 C160 0.951 . S
H201 C161 0.950 . S
H202 C167 0.949 . S
H203 C168 0.950 1_455 S
H204 C172 0.951 . S
H205 C173 0.950 . S
H206 C177 0.949 . S
H207 C178 0.950 1_655 S
H208 C182 0.950 . S
H209 C184 0.950 . S
H210 C187 0.950 . S
H211 C189 0.950 . S
C212 C213 1.443 1_565 S
C212 N216 1.376 1_565 S
C212 C250 1.389 . S
C213 C212 1.443 1_545 S
C213 C214 1.340 . S
C213 H253 0.951 1_545 S
C214 C213 1.340 . S
C214 C215 1.439 . S
C214 H254 0.950 . S
C215 C214 1.439 . S
C215 N216 1.374 . S
C215 C249 1.395 . S
N216 C212 1.376 1_545 S
N216 C215 1.374 . S
N216 Co217 2.045 . S
Co217 N216 2.045 . S
Co217 N218 2.014 . S
Co217 N223 1.971 1_544 S
Co217 N228 1.976 1_545 S
Co217 N233 2.302 1_554 S
Co217 N239 2.264 1_545 S
N218 Co217 2.014 . S
N218 C219 1.391 . S
N218 C222 1.369 1_554 S
C219 N218 1.391 . S
C219 C220 1.446 . S
C219 C249 1.391 . S
C220 C219 1.446 . S
C220 C221 1.339 1_554 S
C220 H255 0.949 . S
C221 C220 1.339 1_556 S
C221 C222 1.439 . S
C221 H256 0.950 . S
C222 N218 1.369 1_556 S
C222 C221 1.439 . S
C222 C251 1.392 . S
N223 Co217 1.971 1_566 S
N223 C224 1.376 1_565 S
N223 C227 1.374 . S
C224 N223 1.376 1_545 S
C224 C225 1.457 . S
C224 C251 1.389 . S
C225 C224 1.457 . S
C225 C226 1.324 1_545 S
C225 H257 0.954 . S
C226 C225 1.324 1_565 S
C226 C227 1.439 . S
C226 H258 0.950 . S
C227 N223 1.374 . S
C227 C226 1.439 . S
C227 C252 1.395 . S
N228 Co217 1.976 1_565 S
N228 C229 1.357 1_554 S
N228 C232 1.403 . S
C229 N228 1.357 1_556 S
C229 C230 1.446 . S
C229 C252 1.391 . S
C230 C229 1.446 . S
C230 C231 1.339 1_556 S
C230 H259 0.949 . S
C231 C230 1.339 1_554 S
C231 C232 1.439 . S
C231 H260 0.950 . S
C232 N228 1.403 . S
C232 C231 1.439 . S
C232 C250 1.392 . S
N233 Co217 2.302 1_556 S
N233 C236 1.332 . S
N233 C238 1.332 . S
C234 C235 1.386 . S
C234 C237 1.388 . S
C235 C234 1.386 . S
C235 C236 1.382 . S
C235 H261 0.950 . S
C236 N233 1.332 . S
C236 C235 1.382 . S
C236 H247 0.952 1_545 S
C237 C234 1.388 . S
C237 C238 1.382 . S
C237 H262 0.950 . S
C238 N233 1.332 . S
C238 C237 1.382 . S
C238 H248 0.948 . S
N239 Co217 2.264 1_565 S
N239 C243 1.332 . S
N239 C244 1.332 . S
C240 C241 1.388 . S
C240 C244 1.382 . S
C240 H263 0.950 . S
C241 C240 1.388 . S
C241 C242 1.386 . S
C242 C241 1.386 . S
C242 C243 1.382 . S
C242 H264 0.950 . S
C243 N239 1.332 . S
C243 C242 1.382 . S
C243 H245 0.952 1_565 S
C244 N239 1.332 . S
C244 C240 1.382 . S
C244 H246 0.948 . S
H245 C243 0.952 1_545 S
H246 C244 0.948 . S
H247 C236 0.952 1_565 S
H248 C238 0.948 . S
C249 C215 1.395 . S
C249 C219 1.391 . S
C250 C212 1.389 . S
C250 C232 1.392 . S
C251 C222 1.392 . S
C251 C224 1.389 . S
C252 C227 1.395 . S
C252 C229 1.391 . S
H253 C213 0.951 1_565 S
H254 C214 0.950 . S
H255 C220 0.949 . S
H256 C221 0.950 . S
H257 C225 0.954 . S
H258 C226 0.950 . S
H259 C230 0.949 . S
H260 C231 0.950 . S
H261 C235 0.950 . S
H262 C237 0.950 . S
H263 C240 0.950 . S
H264 C242 0.950 . S
C265 C266 1.443 . S
C265 N269 1.376 . S
C265 C303 1.389 . S
C266 C265 1.443 . S
C266 C267 1.340 . S
C266 H306 0.951 . S
C267 C266 1.340 . S
C267 C268 1.439 . S
C267 H307 0.950 . S
C268 C267 1.439 . S
C268 N269 1.374 . S
C268 C302 1.395 . S
N269 C265 1.376 . S
N269 C268 1.374 . S
N269 Co270 2.008 . S
Co270 N269 2.008 . S
Co270 N271 1.995 . S
Co270 N276 2.008 . S
Co270 N281 1.995 . S
Co270 N286 2.282 . S
Co270 N292 2.282 . S
N271 Co270 1.995 . S
N271 C272 1.376 . S
N271 C275 1.383 . S
C272 N271 1.376 . S
C272 C273 1.446 . S
C272 C302 1.391 . S
C273 C272 1.446 . S
C273 C274 1.339 . S
C273 H308 0.949 . S
C274 C273 1.339 . S
C274 C275 1.439 . S
C274 H309 0.950 . S
C275 N271 1.383 . S
C275 C274 1.439 . S
C275 C304 1.392 . S
N276 Co270 2.008 . S
N276 C277 1.376 . S
N276 C280 1.374 . S
C277 N276 1.376 . S
C277 C278 1.443 . S
C277 C304 1.389 . S
C278 C277 1.443 . S
C278 C279 1.340 . S
C278 H310 0.951 . S
C279 C278 1.340 . S
C279 C280 1.439 . S
C279 H311 0.950 . S
C280 N276 1.374 . S
C280 C279 1.439 . S
C280 C305 1.395 . S
N281 Co270 1.995 . S
N281 C282 1.376 . S
N281 C285 1.383 . S
C282 N281 1.376 . S
C282 C283 1.446 . S
C282 C305 1.391 . S
C283 C282 1.446 . S
C283 C284 1.339 . S
C283 H312 0.949 . S
C284 C283 1.339 . S
C284 C285 1.439 . S
C284 H313 0.950 . S
C285 N281 1.383 . S
C285 C284 1.439 . S
C285 C303 1.392 . S
N286 Co270 2.282 . S
N286 C289 1.332 . S
N286 C291 1.332 . S
C287 C288 1.386 . S
C287 C290 1.388 . S
C288 C287 1.386 . S
C288 C289 1.382 . S
C288 H314 0.950 . S
C289 N286 1.332 . S
C289 C288 1.382 . S
C289 H300 0.952 . S
C290 C287 1.388 . S
C290 C291 1.382 . S
C290 H315 0.950 . S
C291 N286 1.332 . S
C291 C290 1.382 . S
C291 H301 0.948 . S
N292 Co270 2.282 . S
N292 C296 1.332 . S
N292 C297 1.332 . S
C293 C294 1.388 . S
C293 C297 1.382 . S
C293 H316 0.950 . S
C294 C293 1.388 . S
C294 C295 1.386 . S
C295 C294 1.386 . S
C295 C296 1.382 . S
C295 H317 0.950 . S
C296 N292 1.332 . S
C296 C295 1.382 . S
C296 H298 0.952 . S
C297 N292 1.332 . S
C297 C293 1.382 . S
C297 H299 0.948 . S
H298 C296 0.952 . S
H299 C297 0.948 . S
H300 C289 0.952 . S
H301 C291 0.948 . S
C302 C268 1.395 . S
C302 C272 1.391 . S
C303 C265 1.389 . S
C303 C285 1.392 . S
C304 C275 1.392 . S
C304 C277 1.389 . S
C305 C280 1.395 . S
C305 C282 1.391 . S
H306 C266 0.951 . S
H307 C267 0.950 . S
H308 C273 0.949 . S
H309 C274 0.950 . S
H310 C278 0.951 . S
H311 C279 0.950 . S
H312 C283 0.949 . S
H313 C284 0.950 . S
H314 C288 0.950 . S
H315 C290 0.950 . S
H316 C293 0.950 . S
H317 C295 0.950 . S
C318 O320 1.247 . S
C318 O322 1.258 . S
C319 O326 1.247 . S
C319 O327 1.258 . S
O320 C318 1.247 . S
O320 Zn321 2.028 . S
Zn321 O320 2.028 . S
Zn321 O325 2.035 . S
Zn321 O327 2.035 . S
Zn321 O328 2.028 . S
O322 C318 1.258 . S
O322 Zn323 2.035 . S
Zn323 O322 2.035 . S
Zn323 O324 2.028 . S
Zn323 O326 2.028 . S
Zn323 O329 2.035 . S
O324 Zn323 2.028 . S
O324 C330 1.247 . S
O325 Zn321 2.035 . S
O325 C330 1.258 . S
O326 C319 1.247 . S
O326 Zn323 2.028 . S
O327 C319 1.258 . S
O327 Zn321 2.035 . S
O328 Zn321 2.028 . S
O328 C331 1.247 . S
O329 Zn323 2.035 . S
O329 C331 1.258 . S
C330 O324 1.247 . S
C330 O325 1.258 . S
C331 O328 1.247 . S
C331 O329 1.258 . S
C332 O334 1.247 . S
C332 O336 1.258 . S
C333 O340 1.247 . S
C333 O341 1.258 . S
O334 C332 1.247 . S
O334 Zn335 2.028 . S
Zn335 O334 2.028 . S
Zn335 O339 2.035 . S
Zn335 O341 2.035 . S
Zn335 O342 2.028 . S
O336 C332 1.258 . S
O336 Zn337 2.035 . S
Zn337 O336 2.035 . S
Zn337 O338 2.028 . S
Zn337 O340 2.028 . S
Zn337 O343 2.035 . S
O338 Zn337 2.028 . S
O338 C344 1.247 . S
O339 Zn335 2.035 . S
O339 C344 1.258 . S
O340 C333 1.247 . S
O340 Zn337 2.028 . S
O341 C333 1.258 . S
O341 Zn335 2.035 . S
O342 Zn335 2.028 . S
O342 C345 1.247 . S
O343 Zn337 2.035 . S
O343 C345 1.258 . S
C344 O338 1.247 . S
C344 O339 1.258 . S
C345 O342 1.247 . S
C345 O343 1.258 . S
C346 O348 1.247 . S
C346 O350 1.258 . S
C347 O354 1.247 . S
C347 O355 1.258 . S
O348 C346 1.247 . S
O348 Zn349 2.028 . S
Zn349 O348 2.028 . S
Zn349 O353 2.035 . S
Zn349 O355 2.035 . S
Zn349 O356 2.028 . S
O350 C346 1.258 . S
O350 Zn351 2.035 . S
Zn351 O350 2.035 . S
Zn351 O352 2.028 . S
Zn351 O354 2.028 . S
Zn351 O357 2.035 . S
O352 Zn351 2.028 . S
O352 C358 1.247 . S
O353 Zn349 2.035 . S
O353 C358 1.258 . S
O354 C347 1.247 . S
O354 Zn351 2.028 . S
O355 C347 1.258 . S
O355 Zn349 2.035 . S
O356 Zn349 2.028 . S
O356 C359 1.247 . S
O357 Zn351 2.035 . S
O357 C359 1.258 . S
C358 O352 1.247 . S
C358 O353 1.258 . S
C359 O356 1.247 . S
C359 O357 1.258 . S
C360 O362 1.247 . S
C360 O364 1.258 . S
C361 O368 1.247 . S
C361 O369 1.258 . S
O362 C360 1.247 . S
O362 Zn363 2.028 . S
Zn363 O362 2.028 . S
Zn363 O367 2.035 . S
Zn363 O369 2.035 . S
Zn363 O370 2.028 . S
O364 C360 1.258 . S
O364 Zn365 2.035 . S
Zn365 O364 2.035 . S
Zn365 O366 2.028 . S
Zn365 O368 2.028 . S
Zn365 O371 2.035 . S
O366 Zn365 2.028 . S
O366 C372 1.247 . S
O367 Zn363 2.035 . S
O367 C372 1.258 . S
O368 C361 1.247 . S
O368 Zn365 2.028 . S
O369 C361 1.258 . S
O369 Zn363 2.035 . S
O370 Zn363 2.028 . S
O370 C373 1.247 . S
O371 Zn365 2.035 . S
O371 C373 1.258 . S
C372 O366 1.247 . S
C372 O367 1.258 . S
C373 O370 1.247 . S
C373 O371 1.258 . S
C374 O376 1.247 . S
C374 O378 1.258 . S
C375 O382 1.247 . S
C375 O383 1.258 . S
O376 C374 1.247 . S
O376 Zn377 2.028 . S
Zn377 O376 2.028 . S
Zn377 O381 2.035 . S
Zn377 O383 2.035 . S
Zn377 O384 2.028 . S
O378 C374 1.258 . S
O378 Zn379 2.035 . S
Zn379 O378 2.035 . S
Zn379 O380 2.028 . S
Zn379 O382 2.028 . S
Zn379 O385 2.035 . S
O380 Zn379 2.028 . S
O380 C386 1.247 . S
O381 Zn377 2.035 . S
O381 C386 1.258 . S
O382 C375 1.247 . S
O382 Zn379 2.028 . S
O383 C375 1.258 . S
O383 Zn377 2.035 . S
O384 Zn377 2.028 . S
O384 C387 1.247 . S
O385 Zn379 2.035 . S
O385 C387 1.258 . S
C386 O380 1.247 . S
C386 O381 1.258 . S
C387 O384 1.247 . S
C387 O385 1.258 . S
C388 O390 1.247 . S
C388 O392 1.258 . S
C389 O396 1.247 . S
C389 O397 1.258 . S
O390 C388 1.247 . S
O390 Zn391 2.028 . S
Zn391 O390 2.028 . S
Zn391 O395 2.035 . S
Zn391 O397 2.035 . S
Zn391 O398 2.028 . S
O392 C388 1.258 . S
O392 Zn393 2.035 . S
Zn393 O392 2.035 . S
Zn393 O394 2.028 . S
Zn393 O396 2.028 . S
Zn393 O399 2.035 . S
O394 Zn393 2.028 . S
O394 C400 1.247 . S
O395 Zn391 2.035 . S
O395 C400 1.258 . S
O396 C389 1.247 . S
O396 Zn393 2.028 . S
O397 C389 1.258 . S
O397 Zn391 2.035 . S
O398 Zn391 2.028 . S
O398 C401 1.247 . S
O399 Zn393 2.035 . S
O399 C401 1.258 . S
C400 O394 1.247 . S
C400 O395 1.258 . S
C401 O398 1.247 . S
C401 O399 1.258 . S
H402 C408 0.930 . S
H403 C412 0.930 . S
H404 C417 0.929 . S
H405 C415 0.929 . S
H406 C410 0.929 . S
H407 C416 0.929 . S
C408 H402 0.930 . S
C408 C409 1.367 . S
C408 C416 1.378 . S
C409 C408 1.367 . S
C409 C417 1.433 . S
C410 H406 0.929 . S
C410 C412 1.378 . S
C410 C414 1.350 . S
C411 C414 1.463 . S
C411 C416 1.350 . S
C411 N419 1.427 . S
C412 H403 0.930 . S
C412 C410 1.378 . S
C412 C413 1.367 . S
C413 C412 1.367 . S
C413 C415 1.433 . S
C414 C410 1.350 . S
C414 C411 1.463 . S
C414 N418 1.427 . S
C415 H405 0.929 . S
C415 C413 1.433 . S
C415 N418 1.384 . S
C416 H407 0.929 . S
C416 C408 1.378 . S
C416 C411 1.350 . S
C417 H404 0.929 . S
C417 C409 1.433 . S
C417 N419 1.384 . S
N418 C414 1.427 . S
N418 C415 1.384 . S
N419 C411 1.427 . S
N419 C417 1.384 . S
H420 C426 0.930 . S
H421 C430 0.930 . S
H422 C435 0.929 . S
H423 C433 0.929 . S
H424 C428 0.929 . S
H425 C434 0.929 . S
C426 H420 0.930 . S
C426 C427 1.367 . S
C426 C434 1.378 . S
C427 C426 1.367 . S
C427 C435 1.433 . S
C428 H424 0.929 . S
C428 C430 1.378 . S
C428 C432 1.350 . S
C429 C432 1.463 . S
C429 C434 1.350 . S
C429 N437 1.427 . S
C430 H421 0.930 . S
C430 C428 1.378 . S
C430 C431 1.367 . S
C431 C430 1.367 . S
C431 C433 1.433 . S
C432 C428 1.350 . S
C432 C429 1.463 . S
C432 N436 1.427 . S
C433 H423 0.929 . S
C433 C431 1.433 . S
C433 N436 1.384 . S
C434 H425 0.929 . S
C434 C426 1.378 . S
C434 C429 1.350 . S
C435 H422 0.929 . S
C435 C427 1.433 . S
C435 N437 1.384 . S
N436 C432 1.427 . S
N436 C433 1.384 . S
N437 C429 1.427 . S
N437 C435 1.384 . S
H438 C444 0.930 . S
H439 C448 0.930 . S
H440 C453 0.929 . S
H441 C451 0.929 . S
H442 C446 0.929 . S
H443 C452 0.929 . S
C444 H438 0.930 . S
C444 C445 1.367 . S
C444 C452 1.378 . S
C445 C444 1.367 . S
C445 C453 1.433 . S
C446 H442 0.929 . S
C446 C448 1.378 . S
C446 C450 1.350 . S
C447 C450 1.463 . S
C447 C452 1.350 . S
C447 N455 1.427 . S
C448 H439 0.930 . S
C448 C446 1.378 . S
C448 C449 1.367 . S
C449 C448 1.367 . S
C449 C451 1.433 . S
C450 C446 1.350 . S
C450 C447 1.463 . S
C450 N454 1.427 . S
C451 H441 0.929 . S
C451 C449 1.433 . S
C451 N454 1.384 . S
C452 H443 0.929 . S
C452 C444 1.378 . S
C452 C447 1.350 . S
C453 H440 0.929 . S
C453 C445 1.433 . S
C453 N455 1.384 . S
N454 C450 1.427 . S
N454 C451 1.384 . S
N455 C447 1.427 . S
N455 C453 1.384 . S
H456 C462 0.930 . S
H457 C466 0.930 . S
H458 C471 0.929 . S
H459 C469 0.929 . S
H460 C464 0.929 . S
H461 C470 0.929 . S
C462 H456 0.930 . S
C462 C463 1.367 . S
C462 C470 1.378 . S
C463 C462 1.367 . S
C463 C471 1.433 . S
C464 H460 0.929 . S
C464 C466 1.378 . S
C464 C468 1.350 . S
C465 C468 1.463 . S
C465 C470 1.350 . S
C465 N473 1.427 . S
C466 H457 0.930 . S
C466 C464 1.378 . S
C466 C467 1.367 . S
C467 C466 1.367 . S
C467 C469 1.433 . S
C468 C464 1.350 . S
C468 C465 1.463 . S
C468 N472 1.427 . S
C469 H459 0.929 . S
C469 C467 1.433 . S
C469 N472 1.384 . S
C470 H461 0.929 . S
C470 C462 1.378 . S
C470 C465 1.350 . S
C471 H458 0.929 . S
C471 C463 1.433 . S
C471 N473 1.384 . S
N472 C468 1.427 . S
N472 C469 1.384 . S
N473 C465 1.427 . S
N473 C471 1.384 . S
H474 C480 0.930 . S
H475 C484 0.930 . S
H476 C489 0.929 . S
H477 C487 0.929 . S
H478 C482 0.929 . S
H479 C488 0.929 . S
C480 H474 0.930 . S
C480 C481 1.367 . S
C480 C488 1.378 . S
C481 C480 1.367 . S
C481 C489 1.433 . S
C482 H478 0.929 . S
C482 C484 1.378 . S
C482 C486 1.350 . S
C483 C486 1.463 . S
C483 C488 1.350 . S
C483 N491 1.427 . S
C484 H475 0.930 . S
C484 C482 1.378 . S
C484 C485 1.367 . S
C485 C484 1.367 . S
C485 C487 1.433 . S
C486 C482 1.350 . S
C486 C483 1.463 . S
C486 N490 1.427 . S
C487 H477 0.929 . S
C487 C485 1.433 . S
C487 N490 1.384 . S
C488 H479 0.929 . S
C488 C480 1.378 . S
C488 C483 1.350 . S
C489 H476 0.929 . S
C489 C481 1.433 . S
C489 N491 1.384 . S
N490 C486 1.427 . S
N490 C487 1.384 . S
N491 C483 1.427 . S
N491 C489 1.384 . S
H492 C498 0.930 . S
H493 C502 0.930 . S
H494 C507 0.929 . S
H495 C505 0.929 . S
H496 C500 0.929 . S
H497 C506 0.929 . S
C498 H492 0.930 . S
C498 C499 1.367 . S
C498 C506 1.378 . S
C499 C498 1.367 . S
C499 C507 1.433 . S
C500 H496 0.929 . S
C500 C502 1.378 . S
C500 C504 1.350 . S
C501 C504 1.463 . S
C501 C506 1.350 . S
C501 N509 1.427 . S
C502 H493 0.930 . S
C502 C500 1.378 . S
C502 C503 1.367 . S
C503 C502 1.367 . S
C503 C505 1.433 . S
C504 C500 1.350 . S
C504 C501 1.463 . S
C504 N508 1.427 . S
C505 H495 0.929 . S
C505 C503 1.433 . S
C505 N508 1.384 . S
C506 H497 0.929 . S
C506 C498 1.378 . S
C506 C501 1.350 . S
C507 H494 0.929 . S
C507 C499 1.433 . S
C507 N509 1.384 . S
N508 C504 1.427 . S
N508 C505 1.384 . S
N509 C501 1.427 . S
N509 C507 1.384 . S
H510 C516 0.930 . S
H511 C520 0.930 . S
H512 C525 0.929 . S
H513 C523 0.929 . S
H514 C518 0.929 . S
H515 C524 0.929 . S
C516 H510 0.930 . S
C516 C517 1.367 . S
C516 C524 1.378 . S
C517 C516 1.367 . S
C517 C525 1.433 . S
C518 H514 0.929 . S
C518 C520 1.378 . S
C518 C522 1.350 . S
C519 C522 1.463 . S
C519 C524 1.350 . S
C519 N527 1.427 . S
C520 H511 0.930 . S
C520 C518 1.378 . S
C520 C521 1.367 . S
C521 C520 1.367 . S
C521 C523 1.433 . S
C522 C518 1.350 . S
C522 C519 1.463 . S
C522 N526 1.427 . S
C523 H513 0.929 . S
C523 C521 1.433 . S
C523 N526 1.384 . S
C524 H515 0.929 . S
C524 C516 1.378 . S
C524 C519 1.350 . S
C525 H512 0.929 . S
C525 C517 1.433 . S
C525 N527 1.384 . S
N526 C522 1.427 . S
N526 C523 1.384 . S
N527 C519 1.427 . S
N527 C525 1.384 . S
H528 C534 0.930 . S
H529 C538 0.930 . S
H530 C543 0.929 . S
H531 C541 0.929 . S
H532 C536 0.929 . S
H533 C542 0.929 . S
C534 H528 0.930 . S
C534 C535 1.367 . S
C534 C542 1.378 . S
C535 C534 1.367 . S
C535 C543 1.433 . S
C536 H532 0.929 . S
C536 C538 1.378 . S
C536 C540 1.350 . S
C537 C540 1.463 . S
C537 C542 1.350 . S
C537 N545 1.427 . S
C538 H529 0.930 . S
C538 C536 1.378 . S
C538 C539 1.367 . S
C539 C538 1.367 . S
C539 C541 1.433 . S
C540 C536 1.350 . S
C540 C537 1.463 . S
C540 N544 1.427 . S
C541 H531 0.929 . S
C541 C539 1.433 . S
C541 N544 1.384 . S
C542 H533 0.929 . S
C542 C534 1.378 . S
C542 C537 1.350 . S
C543 H530 0.929 . S
C543 C535 1.433 . S
C543 N545 1.384 . S
N544 C540 1.427 . S
N544 C541 1.384 . S
N545 C537 1.427 . S
N545 C543 1.384 . S
H546 C552 0.930 . S
H547 C556 0.930 . S
H548 C561 0.929 . S
H549 C559 0.929 . S
H550 C554 0.929 . S
H551 C560 0.929 . S
C552 H546 0.930 . S
C552 C553 1.367 . S
C552 C560 1.378 . S
C553 C552 1.367 . S
C553 C561 1.433 . S
C554 H550 0.929 . S
C554 C556 1.378 . S
C554 C558 1.350 . S
C555 C558 1.463 . S
C555 C560 1.350 . S
C555 N563 1.427 . S
C556 H547 0.930 . S
C556 C554 1.378 . S
C556 C557 1.367 . S
C557 C556 1.367 . S
C557 C559 1.433 . S
C558 C554 1.350 . S
C558 C555 1.463 . S
C558 N562 1.427 . S
C559 H549 0.929 . S
C559 C557 1.433 . S
C559 N562 1.384 . S
C560 H551 0.929 . S
C560 C552 1.378 . S
C560 C555 1.350 . S
C561 H548 0.929 . S
C561 C553 1.433 . S
C561 N563 1.384 . S
N562 C558 1.427 . S
N562 C559 1.384 . S
N563 C555 1.427 . S
N563 C561 1.384 . S
H564 C570 0.930 . S
H565 C574 0.930 . S
H566 C579 0.929 . S
H567 C577 0.929 . S
H568 C572 0.929 . S
H569 C578 0.929 . S
C570 H564 0.930 . S
C570 C571 1.367 . S
C570 C578 1.378 . S
C571 C570 1.367 . S
C571 C579 1.433 . S
C572 H568 0.929 . S
C572 C574 1.378 . S
C572 C576 1.350 . S
C573 C576 1.463 . S
C573 C578 1.350 . S
C573 N581 1.427 . S
C574 H565 0.930 . S
C574 C572 1.378 . S
C574 C575 1.367 . S
C575 C574 1.367 . S
C575 C577 1.433 . S
C576 C572 1.350 . S
C576 C573 1.463 . S
C576 N580 1.427 . S
C577 H567 0.929 . S
C577 C575 1.433 . S
C577 N580 1.384 . S
C578 H569 0.929 . S
C578 C570 1.378 . S
C578 C573 1.350 . S
C579 H566 0.929 . S
C579 C571 1.433 . S
C579 N581 1.384 . S
N580 C576 1.427 . S
N580 C577 1.384 . S
N581 C573 1.427 . S
N581 C579 1.384 . S
H582 C588 0.930 . S
H583 C592 0.930 . S
H584 C597 0.929 . S
H585 C595 0.929 . S
H586 C590 0.929 . S
H587 C596 0.929 . S
C588 H582 0.930 . S
C588 C589 1.367 . S
C588 C596 1.378 . S
C589 C588 1.367 . S
C589 C597 1.433 . S
C590 H586 0.929 . S
C590 C592 1.378 . S
C590 C594 1.350 . S
C591 C594 1.463 . S
C591 C596 1.350 . S
C591 N599 1.427 . S
C592 H583 0.930 . S
C592 C590 1.378 . S
C592 C593 1.367 . S
C593 C592 1.367 . S
C593 C595 1.433 . S
C594 C590 1.350 . S
C594 C591 1.463 . S
C594 N598 1.427 . S
C595 H585 0.929 . S
C595 C593 1.433 . S
C595 N598 1.384 . S
C596 H587 0.929 . S
C596 C588 1.378 . S
C596 C591 1.350 . S
C597 H584 0.929 . S
C597 C589 1.433 . S
C597 N599 1.384 . S
N598 C594 1.427 . S
N598 C595 1.384 . S
N599 C591 1.427 . S
N599 C597 1.384 . S
H600 C606 0.930 . S
H601 C610 0.930 . S
H602 C615 0.929 . S
H603 C613 0.929 . S
H604 C608 0.929 . S
H605 C614 0.929 . S
C606 H600 0.930 . S
C606 C607 1.367 . S
C606 C614 1.378 . S
C607 C606 1.367 . S
C607 C615 1.433 . S
C608 H604 0.929 . S
C608 C610 1.378 . S
C608 C612 1.350 . S
C609 C612 1.463 . S
C609 C614 1.350 . S
C609 N617 1.427 . S
C610 H601 0.930 . S
C610 C608 1.378 . S
C610 C611 1.367 . S
C611 C610 1.367 . S
C611 C613 1.433 . S
C612 C608 1.350 . S
C612 C609 1.463 . S
C612 N616 1.427 . S
C613 H603 0.929 . S
C613 C611 1.433 . S
C613 N616 1.384 . S
C614 H605 0.929 . S
C614 C606 1.378 . S
C614 C609 1.350 . S
C615 H602 0.929 . S
C615 C607 1.433 . S
C615 N617 1.384 . S
N616 C612 1.427 . S
N616 C613 1.384 . S
N617 C609 1.427 . S
N617 C615 1.384 . S
H618 C624 0.930 . S
H619 C628 0.930 . S
H620 C633 0.929 . S
H621 C631 0.929 . S
H622 C626 0.929 . S
H623 C632 0.929 . S
C624 H618 0.930 . S
C624 C625 1.367 . S
C624 C632 1.378 . S
C625 C624 1.367 . S
C625 C633 1.433 . S
C626 H622 0.929 . S
C626 C628 1.378 . S
C626 C630 1.350 . S
C627 C630 1.463 . S
C627 C632 1.350 . S
C627 N635 1.427 . S
C628 H619 0.930 . S
C628 C626 1.378 . S
C628 C629 1.367 . S
C629 C628 1.367 . S
C629 C631 1.433 . S
C630 C626 1.350 . S
C630 C627 1.463 . S
C630 N634 1.427 . S
C631 H621 0.929 . S
C631 C629 1.433 . S
C631 N634 1.384 . S
C632 H623 0.929 . S
C632 C624 1.378 . S
C632 C627 1.350 . S
C633 H620 0.929 . S
C633 C625 1.433 . S
C633 N635 1.384 . S
N634 C630 1.427 . S
N634 C631 1.384 . S
N635 C627 1.427 . S
N635 C633 1.384 . S
H636 C642 0.930 . S
H637 C646 0.930 . S
H638 C651 0.929 . S
H639 C649 0.929 . S
H640 C644 0.929 . S
H641 C650 0.929 . S
C642 H636 0.930 . S
C642 C643 1.367 . S
C642 C650 1.378 . S
C643 C642 1.367 . S
C643 C651 1.433 . S
C644 H640 0.929 . S
C644 C646 1.378 . S
C644 C648 1.350 . S
C645 C648 1.463 . S
C645 C650 1.350 . S
C645 N653 1.427 . S
C646 H637 0.930 . S
C646 C644 1.378 . S
C646 C647 1.367 . S
C647 C646 1.367 . S
C647 C649 1.433 . S
C648 C644 1.350 . S
C648 C645 1.463 . S
C648 N652 1.427 . S
C649 H639 0.929 . S
C649 C647 1.433 . S
C649 N652 1.384 . S
C650 H641 0.929 . S
C650 C642 1.378 . S
C650 C645 1.350 . S
C651 H638 0.929 . S
C651 C643 1.433 . S
C651 N653 1.384 . S
N652 C648 1.427 . S
N652 C649 1.384 . S
N653 C645 1.427 . S
N653 C651 1.384 . S
H654 C660 0.930 . S
H655 C664 0.930 . S
H656 C669 0.929 . S
H657 C667 0.929 . S
H658 C662 0.929 . S
H659 C668 0.929 . S
C660 H654 0.930 . S
C660 C661 1.367 . S
C660 C668 1.378 . S
C661 C660 1.367 . S
C661 C669 1.433 . S
C662 H658 0.929 . S
C662 C664 1.378 . S
C662 C666 1.350 . S
C663 C666 1.463 . S
C663 C668 1.350 . S
C663 N671 1.427 . S
C664 H655 0.930 . S
C664 C662 1.378 . S
C664 C665 1.367 . S
C665 C664 1.367 . S
C665 C667 1.433 . S
C666 C662 1.350 . S
C666 C663 1.463 . S
C666 N670 1.427 . S
C667 H657 0.929 . S
C667 C665 1.433 . S
C667 N670 1.384 . S
C668 H659 0.929 . S
C668 C660 1.378 . S
C668 C663 1.350 . S
C669 H656 0.929 . S
C669 C661 1.433 . S
C669 N671 1.384 . S
N670 C666 1.427 . S
N670 C667 1.384 . S
N671 C663 1.427 . S
N671 C669 1.384 . S
H672 C678 0.930 . S
H673 C682 0.930 . S
H674 C687 0.929 . S
H675 C685 0.929 . S
H676 C680 0.929 . S
H677 C686 0.929 . S
C678 H672 0.930 . S
C678 C679 1.367 . S
C678 C686 1.378 . S
C679 C678 1.367 . S
C679 C687 1.433 . S
C680 H676 0.929 . S
C680 C682 1.378 . S
C680 C684 1.350 . S
C681 C684 1.463 . S
C681 C686 1.350 . S
C681 N689 1.427 . S
C682 H673 0.930 . S
C682 C680 1.378 . S
C682 C683 1.367 . S
C683 C682 1.367 . S
C683 C685 1.433 . S
C684 C680 1.350 . S
C684 C681 1.463 . S
C684 N688 1.427 . S
C685 H675 0.929 . S
C685 C683 1.433 . S
C685 N688 1.384 . S
C686 H677 0.929 . S
C686 C678 1.378 . S
C686 C681 1.350 . S
C687 H674 0.929 . S
C687 C679 1.433 . S
C687 N689 1.384 . S
N688 C684 1.427 . S
N688 C685 1.384 . S
N689 C681 1.427 . S
N689 C687 1.384 . S
H690 C696 0.930 . S
H691 C700 0.930 . S
H692 C705 0.929 . S
H693 C703 0.929 . S
H694 C698 0.929 . S
H695 C704 0.929 . S
C696 H690 0.930 . S
C696 C697 1.367 . S
C696 C704 1.378 . S
C697 C696 1.367 . S
C697 C705 1.433 . S
C698 H694 0.929 . S
C698 C700 1.378 . S
C698 C702 1.350 . S
C699 C702 1.463 . S
C699 C704 1.350 . S
C699 N707 1.427 . S
C700 H691 0.930 . S
C700 C698 1.378 . S
C700 C701 1.367 . S
C701 C700 1.367 . S
C701 C703 1.433 . S
C702 C698 1.350 . S
C702 C699 1.463 . S
C702 N706 1.427 . S
C703 H693 0.929 . S
C703 C701 1.433 . S
C703 N706 1.384 . S
C704 H695 0.929 . S
C704 C696 1.378 . S
C704 C699 1.350 . S
C705 H692 0.929 . S
C705 C697 1.433 . S
C705 N707 1.384 . S
N706 C702 1.427 . S
N706 C703 1.384 . S
N707 C699 1.427 . S
N707 C705 1.384 . S
H708 C714 0.930 . S
H709 C718 0.930 . S
H710 C723 0.929 . S
H711 C721 0.929 . S
H712 C716 0.929 . S
H713 C722 0.929 . S
C714 H708 0.930 . S
C714 C715 1.367 . S
C714 C722 1.378 . S
C715 C714 1.367 . S
C715 C723 1.433 . S
C716 H712 0.929 . S
C716 C718 1.378 . S
C716 C720 1.350 . S
C717 C720 1.463 . S
C717 C722 1.350 . S
C717 N725 1.427 . S
C718 H709 0.930 . S
C718 C716 1.378 . S
C718 C719 1.367 . S
C719 C718 1.367 . S
C719 C721 1.433 . S
C720 C716 1.350 . S
C720 C717 1.463 . S
C720 N724 1.427 . S
C721 H711 0.929 . S
C721 C719 1.433 . S
C721 N724 1.384 . S
C722 H713 0.929 . S
C722 C714 1.378 . S
C722 C717 1.350 . S
C723 H710 0.929 . S
C723 C715 1.433 . S
C723 N725 1.384 . S
N724 C720 1.427 . S
N724 C721 1.384 . S
N725 C717 1.427 . S
N725 C723 1.384 . S
H726 C732 0.930 . S
H727 C736 0.930 . S
H728 C741 0.929 . S
H729 C739 0.929 . S
H730 C734 0.929 . S
H731 C740 0.929 . S
C732 H726 0.930 . S
C732 C733 1.367 . S
C732 C740 1.378 . S
C733 C732 1.367 . S
C733 C741 1.433 . S
C734 H730 0.929 . S
C734 C736 1.378 . S
C734 C738 1.350 . S
C735 C738 1.463 . S
C735 C740 1.350 . S
C735 N743 1.427 . S
C736 H727 0.930 . S
C736 C734 1.378 . S
C736 C737 1.367 . S
C737 C736 1.367 . S
C737 C739 1.433 . S
C738 C734 1.350 . S
C738 C735 1.463 . S
C738 N742 1.427 . S
C739 H729 0.929 . S
C739 C737 1.433 . S
C739 N742 1.384 . S
C740 H731 0.929 . S
C740 C732 1.378 . S
C740 C735 1.350 . S
C741 H728 0.929 . S
C741 C733 1.433 . S
C741 N743 1.384 . S
N742 C738 1.427 . S
N742 C739 1.384 . S
N743 C735 1.427 . S
N743 C741 1.384 . S
H744 C750 0.930 . S
H745 C754 0.930 . S
H746 C759 0.929 . S
H747 C757 0.929 . S
H748 C752 0.929 . S
H749 C758 0.929 . S
C750 H744 0.930 . S
C750 C751 1.367 . S
C750 C758 1.378 . S
C751 C750 1.367 . S
C751 C759 1.433 . S
C752 H748 0.929 . S
C752 C754 1.378 . S
C752 C756 1.350 . S
C753 C756 1.463 . S
C753 C758 1.350 . S
C753 N761 1.427 . S
C754 H745 0.930 . S
C754 C752 1.378 . S
C754 C755 1.367 . S
C755 C754 1.367 . S
C755 C757 1.433 . S
C756 C752 1.350 . S
C756 C753 1.463 . S
C756 N760 1.427 . S
C757 H747 0.929 . S
C757 C755 1.433 . S
C757 N760 1.384 . S
C758 H749 0.929 . S
C758 C750 1.378 . S
C758 C753 1.350 . S
C759 H746 0.929 . S
C759 C751 1.433 . S
C759 N761 1.384 . S
N760 C756 1.427 . S
N760 C757 1.384 . S
N761 C753 1.427 . S
N761 C759 1.384 . S
H762 C768 0.930 . S
H763 C772 0.930 . S
H764 C777 0.929 . S
H765 C775 0.929 . S
H766 C770 0.929 . S
H767 C776 0.929 . S
C768 H762 0.930 . S
C768 C769 1.367 . S
C768 C776 1.378 . S
C769 C768 1.367 . S
C769 C777 1.433 . S
C770 H766 0.929 . S
C770 C772 1.378 . S
C770 C774 1.350 . S
C771 C774 1.463 . S
C771 C776 1.350 . S
C771 N779 1.427 . S
C772 H763 0.930 . S
C772 C770 1.378 . S
C772 C773 1.367 . S
C773 C772 1.367 . S
C773 C775 1.433 . S
C774 C770 1.350 . S
C774 C771 1.463 . S
C774 N778 1.427 . S
C775 H765 0.929 . S
C775 C773 1.433 . S
C775 N778 1.384 . S
C776 H767 0.929 . S
C776 C768 1.378 . S
C776 C771 1.350 . S
C777 H764 0.929 . S
C777 C769 1.433 . S
C777 N779 1.384 . S
N778 C774 1.427 . S
N778 C775 1.384 . S
N779 C771 1.427 . S
N779 C777 1.384 . S
H780 C786 0.930 . S
H781 C790 0.930 . S
H782 C795 0.929 . S
H783 C793 0.929 . S
H784 C788 0.929 . S
H785 C794 0.929 . S
C786 H780 0.930 . S
C786 C787 1.367 . S
C786 C794 1.378 . S
C787 C786 1.367 . S
C787 C795 1.433 . S
C788 H784 0.929 . S
C788 C790 1.378 . S
C788 C792 1.350 . S
C789 C792 1.463 . S
C789 C794 1.350 . S
C789 N797 1.427 . S
C790 H781 0.930 . S
C790 C788 1.378 . S
C790 C791 1.367 . S
C791 C790 1.367 . S
C791 C793 1.433 . S
C792 C788 1.350 . S
C792 C789 1.463 . S
C792 N796 1.427 . S
C793 H783 0.929 . S
C793 C791 1.433 . S
C793 N796 1.384 . S
C794 H785 0.929 . S
C794 C786 1.378 . S
C794 C789 1.350 . S
C795 H782 0.929 . S
C795 C787 1.433 . S
C795 N797 1.384 . S
N796 C792 1.427 . S
N796 C793 1.384 . S
N797 C789 1.427 . S
N797 C795 1.384 . S
H798 C804 0.930 . S
H799 C808 0.930 . S
H800 C813 0.929 . S
H801 C811 0.929 . S
H802 C806 0.929 . S
H803 C812 0.929 . S
C804 H798 0.930 . S
C804 C805 1.367 . S
C804 C812 1.378 . S
C805 C804 1.367 . S
C805 C813 1.433 . S
C806 H802 0.929 . S
C806 C808 1.378 . S
C806 C810 1.350 . S
C807 C810 1.463 . S
C807 C812 1.350 . S
C807 N815 1.427 . S
C808 H799 0.930 . S
C808 C806 1.378 . S
C808 C809 1.367 . S
C809 C808 1.367 . S
C809 C811 1.433 . S
C810 C806 1.350 . S
C810 C807 1.463 . S
C810 N814 1.427 . S
C811 H801 0.929 . S
C811 C809 1.433 . S
C811 N814 1.384 . S
C812 H803 0.929 . S
C812 C804 1.378 . S
C812 C807 1.350 . S
C813 H800 0.929 . S
C813 C805 1.433 . S
C813 N815 1.384 . S
N814 C810 1.427 . S
N814 C811 1.384 . S
N815 C807 1.427 . S
N815 C813 1.384 . S
H816 C822 0.930 . S
H817 C826 0.930 . S
H818 C831 0.929 . S
H819 C829 0.929 . S
H820 C824 0.929 . S
H821 C830 0.929 . S
C822 H816 0.930 . S
C822 C823 1.367 . S
C822 C830 1.378 . S
C823 C822 1.367 . S
C823 C831 1.433 . S
C824 H820 0.929 . S
C824 C826 1.378 . S
C824 C828 1.350 . S
C825 C828 1.463 . S
C825 C830 1.350 . S
C825 N833 1.427 . S
C826 H817 0.930 . S
C826 C824 1.378 . S
C826 C827 1.367 . S
C827 C826 1.367 . S
C827 C829 1.433 . S
C828 C824 1.350 . S
C828 C825 1.463 . S
C828 N832 1.427 . S
C829 H819 0.929 . S
C829 C827 1.433 . S
C829 N832 1.384 . S
C830 H821 0.929 . S
C830 C822 1.378 . S
C830 C825 1.350 . S
C831 H818 0.929 . S
C831 C823 1.433 . S
C831 N833 1.384 . S
N832 C828 1.427 . S
N832 C829 1.384 . S
N833 C825 1.427 . S
N833 C831 1.384 . S
C409 C39 1.705 . S
C413 C319 1.682 . S
C427 C91 1.713 . S
C431 C344 1.696 . S
C449 C347 1.529 . S
C445 C128 1.556 . S
C467 C373 1.500 . S
C463 C188 1.521 . S
C485 C374 1.618 . S
C481 C250 1.640 . S
C503 C401 1.647 . S
C499 C304 1.671 . S
C517 C75 1.579 . S
C521 C346 1.562 . S
C535 C144 1.698 . S
C539 C372 1.682 . S
C557 C375 1.641 . S
C553 C198 1.657 . S
C575 C400 1.490 . S
C571 C234 1.506 . S
C589 C294 1.510 . S
C593 C318 1.489 . S
C611 C345 1.533 . S
C607 C29 1.546 . S
C629 C360 1.690 . S
C625 C38 1.708 . S
C643 C92 1.712 . S
C647 C387 1.695 . S
C665 C388 1.531 . S
C661 C135 1.557 . S
C679 C181 1.521 . S
C683 C330 1.498 . S
C697 C251 1.639 . S
C701 C333 1.616 . S
C715 C303 1.669 . S
C719 C358 1.641 . S
C733 C82 1.578 . S
C737 C389 1.560 . S
C755 C331 1.681 . S
C751 C145 1.698 . S
C769 C197 1.656 . S
C773 C332 1.636 . S
C787 C241 1.506 . S
C791 C359 1.489 . S
C805 C287 1.512 . S
C809 C361 1.496 . S
C823 C22 1.546 . S
C827 C386 1.533 . S
