# Generated by pormake.
# Topology soc, (4,6)-cn, num edge types: 1
# Building blocks:
#     Node 0, Type 0, BuildingBlock: ESEHIV_clean_sbu_0, # of connection points: 4
#     Node 1, Type 0, BuildingBlock: ESEHIV_clean_sbu_0, # of connection points: 4
#     Node 2, Type 0, BuildingBlock: ESEHIV_clean_sbu_0, # of connection points: 4
#     Node 3, Type 0, BuildingBlock: ESEHIV_clean_sbu_0, # of connection points: 4
#     Node 4, Type 0, BuildingBlock: ESEHIV_clean_sbu_0, # of connection points: 4
#     Node 5, Type 0, BuildingBlock: ESEHIV_clean_sbu_0, # of connection points: 4
#     Node 6, Type 0, BuildingBlock: ESEHIV_clean_sbu_0, # of connection points: 4
#     Node 7, Type 0, BuildingBlock: ESEHIV_clean_sbu_0, # of connection points: 4
#     Node 8, Type 0, BuildingBlock: ESEHIV_clean_sbu_0, # of connection points: 4
#     Node 9, Type 0, BuildingBlock: ESEHIV_clean_sbu_0, # of connection points: 4
#     Node 10, Type 0, BuildingBlock: ESEHIV_clean_sbu_0, # of connection points: 4
#     Node 11, Type 0, BuildingBlock: ESEHIV_clean_sbu_0, # of connection points: 4
#     Node 12, Type 1, BuildingBlock: KUMBUR_clean_sbu_0, # of connection points: 6
#     Node 13, Type 1, BuildingBlock: KUMBUR_clean_sbu_0, # of connection points: 6
#     Node 14, Type 1, BuildingBlock: KUMBUR_clean_sbu_0, # of connection points: 6
#     Node 15, Type 1, BuildingBlock: KUMBUR_clean_sbu_0, # of connection points: 6
#     Node 16, Type 1, BuildingBlock: KUMBUR_clean_sbu_0, # of connection points: 6
#     Node 17, Type 1, BuildingBlock: KUMBUR_clean_sbu_0, # of connection points: 6
#     Node 18, Type 1, BuildingBlock: KUMBUR_clean_sbu_0, # of connection points: 6
#     Node 19, Type 1, BuildingBlock: KUMBUR_clean_sbu_0, # of connection points: 6
#     Edge 20, Type (0, 1), BuildingBlock: UVAHIK_clean_linker_0, # of connection points: 2
#     Edge 21, Type (0, 1), BuildingBlock: UVAHIK_clean_linker_0, # of connection points: 2
#     Edge 22, Type (0, 1), BuildingBlock: UVAHIK_clean_linker_0, # of connection points: 2
#     Edge 23, Type (0, 1), BuildingBlock: UVAHIK_clean_linker_0, # of connection points: 2
#     Edge 24, Type (0, 1), BuildingBlock: UVAHIK_clean_linker_0, # of connection points: 2
#     Edge 25, Type (0, 1), BuildingBlock: UVAHIK_clean_linker_0, # of connection points: 2
#     Edge 26, Type (0, 1), BuildingBlock: UVAHIK_clean_linker_0, # of connection points: 2
#     Edge 27, Type (0, 1), BuildingBlock: UVAHIK_clean_linker_0, # of connection points: 2
#     Edge 28, Type (0, 1), BuildingBlock: UVAHIK_clean_linker_0, # of connection points: 2
#     Edge 29, Type (0, 1), BuildingBlock: UVAHIK_clean_linker_0, # of connection points: 2
#     Edge 30, Type (0, 1), BuildingBlock: UVAHIK_clean_linker_0, # of connection points: 2
#     Edge 31, Type (0, 1), BuildingBlock: UVAHIK_clean_linker_0, # of connection points: 2
#     Edge 32, Type (0, 1), BuildingBlock: UVAHIK_clean_linker_0, # of connection points: 2
#     Edge 33, Type (0, 1), BuildingBlock: UVAHIK_clean_linker_0, # of connection points: 2
#     Edge 34, Type (0, 1), BuildingBlock: UVAHIK_clean_linker_0, # of connection points: 2
#     Edge 35, Type (0, 1), BuildingBlock: UVAHIK_clean_linker_0, # of connection points: 2
#     Edge 36, Type (0, 1), BuildingBlock: UVAHIK_clean_linker_0, # of connection points: 2
#     Edge 37, Type (0, 1), BuildingBlock: UVAHIK_clean_linker_0, # of connection points: 2
#     Edge 38, Type (0, 1), BuildingBlock: UVAHIK_clean_linker_0, # of connection points: 2
#     Edge 39, Type (0, 1), BuildingBlock: UVAHIK_clean_linker_0, # of connection points: 2
#     Edge 40, Type (0, 1), BuildingBlock: UVAHIK_clean_linker_0, # of connection points: 2
#     Edge 41, Type (0, 1), BuildingBlock: UVAHIK_clean_linker_0, # of connection points: 2
#     Edge 42, Type (0, 1), BuildingBlock: UVAHIK_clean_linker_0, # of connection points: 2
#     Edge 43, Type (0, 1), BuildingBlock: UVAHIK_clean_linker_0, # of connection points: 2
#     Edge 44, Type (0, 1), BuildingBlock: UVAHIK_clean_linker_0, # of connection points: 2
#     Edge 45, Type (0, 1), BuildingBlock: UVAHIK_clean_linker_0, # of connection points: 2
#     Edge 46, Type (0, 1), BuildingBlock: UVAHIK_clean_linker_0, # of connection points: 2
#     Edge 47, Type (0, 1), BuildingBlock: UVAHIK_clean_linker_0, # of connection points: 2
#     Edge 48, Type (0, 1), BuildingBlock: UVAHIK_clean_linker_0, # of connection points: 2
#     Edge 49, Type (0, 1), BuildingBlock: UVAHIK_clean_linker_0, # of connection points: 2
#     Edge 50, Type (0, 1), BuildingBlock: UVAHIK_clean_linker_0, # of connection points: 2
#     Edge 51, Type (0, 1), BuildingBlock: UVAHIK_clean_linker_0, # of connection points: 2
#     Edge 52, Type (0, 1), BuildingBlock: UVAHIK_clean_linker_0, # of connection points: 2
#     Edge 53, Type (0, 1), BuildingBlock: UVAHIK_clean_linker_0, # of connection points: 2
#     Edge 54, Type (0, 1), BuildingBlock: UVAHIK_clean_linker_0, # of connection points: 2
#     Edge 55, Type (0, 1), BuildingBlock: UVAHIK_clean_linker_0, # of connection points: 2
#     Edge 56, Type (0, 1), BuildingBlock: UVAHIK_clean_linker_0, # of connection points: 2
#     Edge 57, Type (0, 1), BuildingBlock: UVAHIK_clean_linker_0, # of connection points: 2
#     Edge 58, Type (0, 1), BuildingBlock: UVAHIK_clean_linker_0, # of connection points: 2
#     Edge 59, Type (0, 1), BuildingBlock: UVAHIK_clean_linker_0, # of connection points: 2
#     Edge 60, Type (0, 1), BuildingBlock: UVAHIK_clean_linker_0, # of connection points: 2
#     Edge 61, Type (0, 1), BuildingBlock: UVAHIK_clean_linker_0, # of connection points: 2
#     Edge 62, Type (0, 1), BuildingBlock: UVAHIK_clean_linker_0, # of connection points: 2
#     Edge 63, Type (0, 1), BuildingBlock: UVAHIK_clean_linker_0, # of connection points: 2
#     Edge 64, Type (0, 1), BuildingBlock: UVAHIK_clean_linker_0, # of connection points: 2
#     Edge 65, Type (0, 1), BuildingBlock: UVAHIK_clean_linker_0, # of connection points: 2
#     Edge 66, Type (0, 1), BuildingBlock: UVAHIK_clean_linker_0, # of connection points: 2
#     Edge 67, Type (0, 1), BuildingBlock: UVAHIK_clean_linker_0, # of connection points: 2
# Relax obj value: 0.054
# Max RMSD: 0.166
# Mean RMSD: 0.131
data_MOF--net-soc--node1-ESEHIV_clean_sbu_0--node2-KUMBUR_clean_sbu_0--edge1-UVAHIK_clean_linker_0
_symmetry_space_group_name_H-M    P1
_symmetry_Int_Tables_number       1
_symmetry_cell_setting            triclinic
loop_
_symmetry_equiv_pos_as_xyz
'x, y, z'
_cell_length_a     64.387687
_cell_length_b     62.111124
_cell_length_c     53.219556
_cell_angle_alpha  85.382406
_cell_angle_beta   83.642596
_cell_angle_gamma 76.053956
loop_
_atom_site_label
_atom_site_type_symbol
_atom_site_fract_x
_atom_site_fract_y
_atom_site_fract_z
_atom_type_partial_charge
Cu0 Cu 0.04763 0.03066 0.32577 0.0
N1 N 0.05878 0.04778 0.34615 0.0
N2 N 0.07632 0.07238 0.35684 0.0
C3 C 0.07591 0.05691 0.34048 0.0
C4 C 0.05883 0.07288 0.37348 0.0
C5 C 0.04799 0.05804 0.36667 0.0
O6 O 0.07068 0.00811 0.30916 0.0
C7 C 1.01331 0.05067 0.2932 0.0
O8 O 1.01139 0.03063 0.28963 0.0
H9 H 0.08685 0.0537 0.32361 0.0
H10 H 0.03233 0.05632 0.37492 0.0
N11 N 0.03069 0.01386 0.3459 0.0
N12 N 1.0096 0.98991 0.35606 0.0
C13 C 1.02013 1.00011 0.33719 0.0
C14 C 0.02735 0.01159 0.37131 0.0
C15 C 1.01421 0.99705 0.37761 0.0
C16 C 0.08769 0.00997 0.29534 0.0
O17 O 0.09043 0.02978 0.28757 0.0
H18 H 1.0208 0.997 0.31742 0.0
H19 H 0.03428 0.01949 0.38452 0.0
O20 O 0.02874 0.05305 0.305 0.0
H21 H 0.05356 0.08398 0.38878 0.0
H22 H 1.00839 0.99231 0.39661 0.0
Cu23 Cu 0.04162 0.03745 0.75164 0.0
N24 N 0.02866 0.02238 0.73099 0.0
N25 N 1.00923 0.99993 0.71977 0.0
C26 C 1.01469 0.00967 0.73905 0.0
C27 C 1.02017 0.00684 0.69877 0.0
C28 C 0.03209 0.0207 0.70574 0.0
O29 O 1.01905 0.05658 0.77318 0.0
C30 C 0.07721 1.00331 0.75228 0.0
O31 O 0.07554 0.00849 0.72805 0.0
H32 H 1.00912 0.00715 0.75877 0.0
H33 H 0.04286 0.0286 0.69332 0.0
N34 N 0.05638 0.05675 0.73286 0.0
N35 N 0.07946 0.07877 0.72472 0.0
C36 C 0.07336 0.06273 0.74039 0.0
C37 C 0.05142 0.06946 0.71169 0.0
C38 C 0.06573 0.08296 0.70652 0.0
C39 C 1.00242 0.06686 0.76238 0.0
O40 O 1.00106 0.06302 0.73879 0.0
H41 H 0.08081 0.05562 0.75737 0.0
H42 H 0.0379 0.0695 0.7013 0.0
O43 O 0.06335 0.01463 0.76819 0.0
H44 H 1.01962 1.00219 0.67973 0.0
H45 H 0.06546 0.0955 0.69113 0.0
Cu46 Cu 0.29285 0.05306 0.07167 0.0
N47 N 0.27233 0.04564 0.05402 0.0
N48 N 0.25692 0.02403 0.03436 0.0
C49 C 0.27279 0.02481 0.0485 0.0
C50 C 0.24614 0.04532 0.0304 0.0
C51 C 0.2557 0.05868 0.04267 0.0
O52 O 0.3071 0.02532 0.08916 0.0
C53 C 0.30329 0.08725 0.03975 0.0
O54 O 0.28497 0.09784 0.05115 0.0
H55 H 0.28509 0.01051 0.05396 0.0
H56 H 0.25111 0.0766 0.0429 0.0
N57 N 0.2796 0.07332 0.09604 0.0
N58 N 0.27485 0.09962 0.12375 0.0
C59 C 0.28928 0.08497 0.10938 0.0
C60 C 0.25838 0.08064 0.1024 0.0
C61 C 0.2554 0.09692 0.11943 0.0
C62 C 0.29412 0.01633 0.10383 0.0
O63 O 0.27382 0.02699 0.10694 0.0
H64 H 0.30649 0.08341 0.10773 0.0
H65 H 0.24594 0.07487 0.09476 0.0
O66 O 0.3108 0.06687 0.04633 0.0
H67 H 0.23251 0.05082 0.01935 0.0
H68 H 0.2401 0.10618 0.12784 0.0
Cu69 Cu 0.06728 0.28999 0.07209 0.0
N70 N 0.09062 0.27137 0.05441 0.0
N71 N 0.11769 0.26164 0.02415 0.0
C72 C 0.09873 0.27589 0.03065 0.0
C73 C 0.12157 0.24758 0.04473 0.0
C74 C 0.10499 0.25374 0.06338 0.0
O75 O 0.08075 0.30849 0.09051 0.0
C76 C 0.04129 0.29036 0.03504 0.0
O77 O 0.04904 0.26913 0.04056 0.0
H78 H 0.09149 0.29025 0.01902 0.0
H79 H 0.10423 0.24667 0.08258 0.0
N80 N 0.05129 0.27425 0.09507 0.0
N81 N 1.02332 0.26803 0.12121 0.0
C82 C 0.03102 0.28273 0.10492 0.0
C83 C 0.05655 0.25331 0.10516 0.0
C84 C 0.03938 0.24946 0.12133 0.0
C85 C 0.07763 0.31021 0.11447 0.0
O86 O 0.06167 0.30315 0.12717 0.0
H87 H 1.02236 0.29962 0.10064 0.0
H88 H 0.07168 0.24159 0.10111 0.0
O89 O 0.04747 0.30445 0.04693 0.0
H90 H 0.13572 0.23423 0.04659 0.0
H91 H 0.03876 0.23407 0.13214 0.0
Cu92 Cu 0.79391 0.00804 1.00453 0.0
N93 N 0.80737 0.02386 0.97931 0.0
N94 N 0.81154 0.0531 0.95369 0.0
C95 C 0.79922 0.0453 0.9727 0.0
C96 C 0.82809 0.03566 0.94792 0.0
C97 C 0.82544 0.01759 0.96379 0.0
O98 O 0.77705 0.03001 0.02783 0.0
C99 C 0.78988 0.97243 0.9791 0.0
O100 O 0.81052 0.96707 0.98191 0.0
H101 H 0.78419 0.05479 0.98145 0.0
H102 H 0.8358 1.00106 0.96377 0.0
N103 N 0.81319 0.98914 0.02489 0.0
N104 N 0.8237 0.97045 0.06058 0.0
C105 C 0.80708 0.98275 0.04868 0.0
C106 C 0.83456 0.98061 0.02149 0.0
C107 C 0.84108 0.96877 0.04353 0.0
C108 C 0.78921 0.03932 0.03842 0.0
O109 O 0.80995 0.03419 0.03144 0.0
H110 H 0.79063 0.98715 0.05711 0.0
H111 H 0.84472 0.983 1.00444 0.0
O112 O 0.77841 0.99039 0.98808 0.0
H113 H 0.84121 0.03591 0.93341 0.0
H114 H 0.8573 0.96004 0.04693 0.0
Cu115 Cu 0.02807 0.75794 0.02041 0.0
N116 N 1.01426 0.7424 1.00154 0.0
N117 N 0.99138 0.73624 0.97572 0.0
C118 C 1.00035 0.75146 0.9843 0.0
C119 C 1.00009 0.71684 0.98802 0.0
C120 C 1.01415 0.72069 1.00393 0.0
O121 O 1.00541 0.77325 0.04582 0.0
C122 C 0.06147 0.78057 1.0007 0.0
O123 O 0.06515 0.78058 0.02448 0.0
H124 H 0.99619 0.76907 0.97905 0.0
H125 H 1.02307 0.70864 0.01695 0.0
N126 N 0.04851 0.73823 0.03862 0.0
N127 N 0.07138 0.72617 0.06815 0.0
C128 C 0.05466 0.74224 0.06079 0.0
C129 C 0.06177 0.71896 0.03161 0.0
C130 C 0.07582 0.71139 0.0499 0.0
C131 C 0.9982 0.75991 0.06229 0.0
O132 O 1.00634 0.73848 0.06071 0.0
H133 H 0.04738 0.75706 0.07088 0.0
H134 H 0.06182 0.71146 0.01395 0.0
O135 O 0.04495 0.77425 0.99565 0.0
H136 H 0.99637 0.70102 0.98596 0.0
H137 H 0.08902 0.69681 0.04909 0.0
Cu138 Cu 0.53361 0.53401 0.83908 0.0
N139 N 0.54418 0.55109 0.85979 0.0
N140 N 0.5631 0.57447 0.87015 0.0
C141 C 0.56216 0.55877 0.85435 0.0
C142 C 0.54503 0.57655 0.88618 0.0
C143 C 0.53332 0.56242 0.87954 0.0
O144 O 0.55803 0.51287 0.82288 0.0
C145 C 0.49894 0.55426 0.80806 0.0
O146 O 0.49491 0.53454 0.80803 0.0
H147 H 0.57344 0.55418 0.83794 0.0
H148 H 0.51724 0.5619 0.88733 0.0
N149 N 0.51631 0.51677 0.85774 0.0
N150 N 0.49679 0.49118 0.86564 0.0
C151 C 0.50932 0.5006 0.84826 0.0
C152 C 0.50844 0.51714 0.88226 0.0
C153 C 0.49632 0.5015 0.88713 0.0
C154 C 0.5684 0.49914 0.83884 0.0
O155 O 0.56231 0.50155 0.86306 0.0
H156 H 0.51347 0.49585 0.8289 0.0
H157 H 0.51124 0.52787 0.89581 0.0
O158 O 0.51574 0.55622 0.81742 0.0
H159 H 0.54001 0.5882 0.90097 0.0
H160 H 0.48745 0.49841 0.905 0.0
Cu161 Cu 0.55642 0.53394 0.25259 0.0
N162 N 0.54393 0.51717 0.23346 0.0
N163 N 0.5237 0.49493 0.22368 0.0
C164 C 0.52875 0.50603 0.24208 0.0
C165 C 0.5362 0.49929 0.20272 0.0
C166 C 0.54862 0.51299 0.2088 0.0
O167 O 0.53355 0.55432 0.27248 0.0
C168 C 0.59328 0.50158 0.25554 0.0
O169 O 0.59212 0.50595 0.2311 0.0
H170 H 0.52185 0.50579 0.26157 0.0
H171 H 0.56043 0.51924 0.19617 0.0
N172 N 0.57081 0.55253 0.23191 0.0
N173 N 0.59268 0.57555 0.22158 0.0
C174 C 0.58677 0.56055 0.23898 0.0
C175 C 0.56633 0.56279 0.20924 0.0
C176 C 0.5799 0.57691 0.20273 0.0
C177 C 0.51724 0.56389 0.2607 0.0
O178 O 0.51642 0.55849 0.23755 0.0
H179 H 0.59354 0.55575 0.25688 0.0
H180 H 0.55354 0.56085 0.19869 0.0
O181 O 0.57841 0.51262 0.27064 0.0
H182 H 0.53628 0.49315 0.18424 0.0
H183 H 0.57963 0.58807 0.18601 0.0
Cu184 Cu 0.79285 0.56187 0.57602 0.0
N185 N 0.77183 0.57828 0.55643 0.0
N186 N 0.75863 0.60262 0.52577 0.0
C187 C 0.77358 0.59682 0.54246 0.0
C188 C 0.74675 0.58725 0.52973 0.0
C189 C 0.75494 0.57223 0.54879 0.0
O190 O 0.8065 0.58265 0.5896 0.0
C191 C 0.81348 0.53973 0.5315 0.0
O192 O 0.80699 0.55899 0.51926 0.0
H193 H 0.78698 0.60448 0.5427 0.0
H194 H 0.74999 0.55711 0.55527 0.0
N195 N 0.78005 0.54711 0.60265 0.0
N196 N 0.77543 0.51926 0.63016 0.0
C197 C 0.78841 0.52627 0.61127 0.0
C198 C 0.76112 0.55375 0.61648 0.0
C199 C 0.75822 0.53655 0.63357 0.0
C200 C 0.8158 0.57845 0.60994 0.0
O201 O 0.8192 0.5582 0.62048 0.0
H202 H 0.80383 0.51657 0.60378 0.0
H203 H 0.75013 0.56979 0.61405 0.0
O204 O 0.81126 0.53859 0.55564 0.0
H205 H 0.73397 0.58616 0.51864 0.0
H206 H 0.7443 0.53665 0.647 0.0
Cu207 Cu 0.55213 0.7959 0.57346 0.0
N208 N 0.5713 0.7812 0.5468 0.0
N209 N 0.59821 0.77416 0.51535 0.0
C210 C 0.5877 0.78838 0.53315 0.0
C211 C 0.58817 0.75726 0.5181 0.0
C212 C 0.57162 0.76167 0.53727 0.0
O213 O 0.56976 0.80434 0.59672 0.0
C214 C 0.53288 0.82927 0.53697 0.0
O215 O 0.55165 0.82538 0.5236 0.0
H216 H 0.59185 0.8038 0.5362 0.0
H217 H 0.56045 0.75143 0.54357 0.0
N218 N 0.53417 0.77879 0.59216 0.0
N219 N 0.50536 0.77113 0.61644 0.0
C220 C 0.51463 0.78717 0.60456 0.0
C221 C 0.53742 0.75665 0.59633 0.0
C222 C 0.51984 0.75191 0.61111 0.0
C223 C 0.58262 0.78819 0.60735 0.0
O224 O 0.58251 0.76787 0.60223 0.0
H225 H 0.50752 0.8048 0.60498 0.0
H226 H 0.5516 0.74472 0.58921 0.0
O227 O 0.5313 0.82066 0.55938 0.0
H228 H 0.59216 0.74295 0.50662 0.0
H229 H 0.51795 0.7354 0.61718 0.0
Cu230 Cu 0.28788 0.51899 0.50573 0.0
N231 N 0.30517 0.53589 0.48639 0.0
N232 N 0.31307 0.56529 0.46354 0.0
C233 C 0.29751 0.55465 0.47239 0.0
C234 C 0.33126 0.55263 0.47228 0.0
C235 C 0.32634 0.53454 0.48637 0.0
O236 O 0.27003 0.53968 0.52909 0.0
C237 C 0.28251 0.49925 0.46305 0.0
O238 O 0.30253 0.50086 0.45791 0.0
H239 H 0.28062 0.56098 0.46995 0.0
H240 H 0.33725 0.5219 0.49681 0.0
N241 N 0.3035 0.49463 0.52431 0.0
N242 N 0.30992 0.46592 0.55299 0.0
C243 C 0.29631 0.48525 0.5463 0.0
C244 C 0.3223 0.48079 0.51684 0.0
C245 C 0.32633 0.46312 0.53448 0.0
C246 C 0.28103 0.54717 0.54326 0.0
O247 O 0.30182 0.53851 0.54241 0.0
H248 H 0.28082 0.49185 0.55641 0.0
H249 H 0.33191 0.48286 0.49922 0.0
O250 O 0.27207 0.50704 0.48337 0.0
H251 H 0.34694 0.55639 0.46919 0.0
H252 H 0.34002 0.44904 0.53343 0.0
Cu253 Cu 0.52625 0.26752 0.5063 0.0
N254 N 0.54709 0.25134 0.48323 0.0
N255 N 0.57727 0.2427 0.45713 0.0
C256 C 0.56454 0.25798 0.47227 0.0
C257 C 0.56719 0.22586 0.45837 0.0
C258 C 0.54856 0.23125 0.47448 0.0
O259 O 0.54077 0.28606 0.52316 0.0
C260 C 0.48815 0.27157 0.48352 0.0
O261 O 0.49071 0.2511 0.49325 0.0
H262 H 0.56778 0.27379 0.47547 0.0
H263 H 0.53707 0.22114 0.47971 0.0
N264 N 0.51668 0.24896 0.53216 0.0
N265 N 0.49736 0.23877 0.56663 0.0
C266 C 0.49961 0.25529 0.5492 0.0
C267 C 0.52562 0.2277 0.53903 0.0
C268 C 0.51373 0.22136 0.56033 0.0
C269 C 0.55787 0.2751 0.53264 0.0
O270 O 0.56369 0.25352 0.53038 0.0
H271 H 0.48942 0.27192 0.54916 0.0
H272 H 0.53999 0.21766 0.52955 0.0
O273 O 0.50176 0.28272 0.48717 0.0
H274 H 0.57306 0.21051 0.44884 0.0
H275 H 0.51693 0.20523 0.57039 0.0
Tb276 Tb 0.26911 0.28913 0.32 0.0
C277 C 0.30161 0.30145 0.20958 0.0
C278 C 0.3277 0.2669 0.2021 0.0
C279 C 0.30765 0.28672 0.16778 0.0
C280 C 0.31653 0.28349 0.21847 0.0
C281 C 0.29745 0.30373 0.18395 0.0
C282 C 0.32274 0.26828 0.17688 0.0
C283 C 0.27542 0.34043 0.19168 0.0
N284 N 0.2924 0.31758 0.22576 0.0
C285 C 0.28016 0.3374 0.21694 0.0
C286 C 0.28383 0.32338 0.17519 0.0
Tb287 Tb 0.30044 0.31082 0.26701 0.0
N288 N 0.32104 0.28305 0.24281 0.0
C289 C 0.33784 0.26724 0.25145 0.0
C290 C 0.34401 0.2499 0.21136 0.0
C291 C 0.34935 0.2503 0.236 0.0
H292 H 0.27348 0.35058 0.22964 0.0
H293 H 0.36225 0.2375 0.24319 0.0
H294 H 0.33097 0.25557 0.16406 0.0
H295 H 0.26527 0.35589 0.18497 0.0
H296 H 0.34209 0.26715 0.27051 0.0
H297 H 0.20489 0.3594 0.34769 0.0
H298 H 0.35295 0.23678 0.19943 0.0
H299 H 0.29812 0.24901 0.35512 0.0
H300 H 0.22623 0.33191 0.3186 0.0
H301 H 0.30607 0.2418 0.39973 0.0
H302 H 0.30449 0.28798 0.14808 0.0
H303 H 0.21367 0.35819 0.39194 0.0
H304 H 0.23586 0.33836 0.42663 0.0
H305 H 0.28022 0.3258 0.15561 0.0
H306 H 0.26336 0.30611 0.44095 0.0
N307 N 0.24761 0.31529 0.34568 0.0
C308 C 0.23035 0.33094 0.3378 0.0
C309 C 0.22317 0.346 0.37922 0.0
C310 C 0.23994 0.32909 0.38765 0.0
C311 C 0.21813 0.34668 0.35428 0.0
C312 C 0.25186 0.31374 0.37025 0.0
H313 H 0.28929 0.26968 0.43116 0.0
N314 N 0.27734 0.28089 0.36103 0.0
C315 C 0.2952 0.25713 0.39392 0.0
C316 C 0.26727 0.29581 0.37826 0.0
C317 C 0.29061 0.26126 0.36865 0.0
C318 C 0.28575 0.27293 0.4116 0.0
C319 C 0.27132 0.29243 0.40394 0.0
O320 O 0.2628 0.25729 0.32675 0.0
O321 O 0.28766 0.28364 0.28401 0.0
O322 O 0.27089 0.30738 0.25273 0.0
O323 O 0.24831 0.30602 0.29016 0.0
O324 O 0.29153 0.25765 0.30976 0.0
O325 O 0.2373 0.28599 0.31985 0.0
O326 O 0.30784 0.34205 0.25881 0.0
O327 O 0.28147 0.31657 0.30268 0.0
O328 O 0.29757 0.29485 0.33499 0.0
O329 O 0.32069 0.29529 0.29793 0.0
O330 O 0.27873 0.34277 0.2768 0.0
O331 O 0.33266 0.3129 0.26627 0.0
C332 C 0.29694 0.26345 0.28672 0.0
C333 C 0.22821 0.25645 0.34609 0.0
C334 C 0.20353 0.2326 0.36058 0.0
C335 C 0.21733 0.24028 0.34132 0.0
C336 C 0.20116 0.24109 0.38474 0.0
C337 C 0.22543 0.26472 0.37028 0.0
C338 C 0.21206 0.25699 0.3895 0.0
C339 C 0.25164 0.30827 0.26503 0.0
C340 C 0.2422 0.2647 0.32566 0.0
C341 C 0.26032 0.30824 0.42118 0.0
C342 C 0.24466 0.32659 0.41302 0.0
C343 C 0.27233 0.33678 0.29943 0.0
C344 C 0.34253 0.34096 0.2383 0.0
C345 C 0.35742 0.35323 0.24268 0.0
C346 C 0.37115 0.35972 0.22244 0.0
C347 C 0.36944 0.35397 0.19782 0.0
C348 C 0.34143 0.33525 0.21363 0.0
C349 C 0.35473 0.3418 0.19352 0.0
C350 C 0.31692 0.29431 0.32307 0.0
C351 C 0.32842 0.33401 0.25956 0.0
H352 H 0.21926 0.23406 0.32254 0.0
H353 H 0.19095 0.23531 0.40006 0.0
H354 H 0.23349 0.27719 0.37431 0.0
H355 H 0.21008 0.26342 0.40815 0.0
H356 H 0.35851 0.35739 0.2618 0.0
H357 H 0.37937 0.35907 0.18175 0.0
H358 H 0.33033 0.32574 0.20981 0.0
H359 H 0.35362 0.33743 0.17451 0.0
Tb360 Tb 0.81163 0.28574 0.32286 0.0
C361 C 0.73826 0.27195 0.26812 0.0
C362 C 0.72829 0.24071 0.29239 0.0
C363 C 0.70138 0.26808 0.2709 0.0
C364 C 0.74381 0.25281 0.28339 0.0
C365 C 0.71716 0.27942 0.26099 0.0
C366 C 0.70693 0.24878 0.28663 0.0
C367 C 0.72948 0.30699 0.23246 0.0
N368 N 0.75393 0.28242 0.25889 0.0
C369 C 0.75018 0.29883 0.24002 0.0
C370 C 0.71278 0.29752 0.24336 0.0
Tb371 Tb 0.7873 0.2677 0.27223 0.0
N372 N 0.76463 0.24552 0.28847 0.0
C373 C 0.77128 0.22522 0.30088 0.0
C374 C 0.73482 0.22059 0.30632 0.0
C375 C 0.75647 0.21264 0.31019 0.0
H376 H 0.76313 0.30606 0.23146 0.0
H377 H 0.76177 0.19688 0.32053 0.0
H378 H 0.69473 0.23986 0.29364 0.0
H379 H 0.72645 0.32049 0.21817 0.0
H380 H 0.78787 0.21881 0.30433 0.0
H381 H 0.84426 0.35186 0.27411 0.0
H382 H 0.72338 0.21084 0.31364 0.0
H383 H 0.83249 0.24417 0.3629 0.0
H384 H 0.81579 0.33237 0.28905 0.0
H385 H 0.86776 0.22799 0.37909 0.0
H386 H 0.685 0.27372 0.26592 0.0
H387 H 0.88143 0.33637 0.28527 0.0
H388 H 0.90719 0.30698 0.30906 0.0
H389 H 0.69678 0.30375 0.23735 0.0
H390 H 0.91354 0.27344 0.3378 0.0
N391 N 0.83666 0.30547 0.30788 0.0
C392 C 0.8319 0.3253 0.29409 0.0
C393 C 0.86898 0.32766 0.29187 0.0
C394 C 0.8735 0.30803 0.30718 0.0
C395 C 0.84802 0.33647 0.28556 0.0
C396 C 0.85674 0.29729 0.31514 0.0
H397 H 0.89889 0.24404 0.36422 0.0
N398 N 0.84368 0.2688 0.3386 0.0
C399 C 0.86593 0.24208 0.36549 0.0
C400 C 0.86036 0.2784 0.33114 0.0
C401 C 0.84599 0.25128 0.35629 0.0
C402 C 0.88346 0.25119 0.35706 0.0
C403 C 0.88077 0.26971 0.33986 0.0
O404 O 0.80036 0.28739 0.36139 0.0
O405 O 0.78546 0.27383 0.31178 0.0
O406 O 0.76607 0.29929 0.28326 0.0
O407 O 0.78764 0.31396 0.30687 0.0
O408 O 0.79648 0.26167 0.34576 0.0
O409 O 0.80687 0.31634 0.3401 0.0
O410 O 0.79774 0.2682 0.23346 0.0
O411 O 0.81338 0.27983 0.28322 0.0
O412 O 0.83351 0.25505 0.31044 0.0
O413 O 0.81275 0.23979 0.2865 0.0
O414 O 0.8021 0.29222 0.2496 0.0
O415 O 0.79158 0.2383 0.25273 0.0
C416 C 0.7821 0.26139 0.3309 0.0
C417 C 0.81405 0.31195 0.3834 0.0
C418 C 0.82248 0.33751 0.4115 0.0
C419 C 0.81196 0.33378 0.39084 0.0
C420 C 0.83581 0.31928 0.42372 0.0
C421 C 0.82674 0.2941 0.39689 0.0
C422 C 0.83784 0.29779 0.41649 0.0
C423 C 0.77034 0.31576 0.29458 0.0
C424 C 0.80226 0.3077 0.36254 0.0
C425 C 0.89769 0.27996 0.33147 0.0
C426 C 0.89408 0.29906 0.31511 0.0
C427 C 0.81685 0.29228 0.2641 0.0
C428 C 0.78235 0.246 0.21017 0.0
C429 C 0.779 0.22511 0.20541 0.0
C430 C 0.7668 0.22305 0.18558 0.0
C431 C 0.75789 0.24219 0.17083 0.0
C432 C 0.77368 0.26465 0.19454 0.0
C433 C 0.76134 0.26276 0.17531 0.0
C434 C 0.83024 0.23849 0.29834 0.0
C435 C 0.79531 0.24833 0.23082 0.0
H436 H 0.80166 0.34764 0.38118 0.0
H437 H 0.84451 0.3216 0.4392 0.0
H438 H 0.82787 0.27715 0.3927 0.0
H439 H 0.84777 0.28387 0.42644 0.0
H440 H 0.7859 0.21056 0.21703 0.0
H441 H 0.74881 0.24119 0.15519 0.0
H442 H 0.77649 0.28081 0.19694 0.0
H443 H 0.7547 0.27728 0.16352 0.0
Tb444 Tb 0.78805 0.77056 0.26475 0.0
C445 C 0.80265 0.79151 0.36988 0.0
C446 C 0.76803 0.81142 0.38818 0.0
C447 C 0.79405 0.7894 0.4155 0.0
C448 C 0.78261 0.80483 0.36687 0.0
C449 C 0.80893 0.78413 0.39425 0.0
C450 C 0.77358 0.80301 0.41246 0.0
C451 C 0.84467 0.76894 0.37484 0.0
N452 N 0.81651 0.78697 0.34884 0.0
C453 C 0.8376 0.77656 0.35106 0.0
C454 C 0.83019 0.77245 0.39652 0.0
Tb455 Tb 0.80408 0.80132 0.31072 0.0
N456 N 0.77824 0.81308 0.34317 0.0
C457 C 0.76017 0.82948 0.33973 0.0
C458 C 0.74888 0.82716 0.38454 0.0
C459 C 0.74518 0.83661 0.36028 0.0
H460 H 0.84896 0.77373 0.33449 0.0
H461 H 0.73069 0.84924 0.35732 0.0
H462 H 0.7625 0.80765 0.42906 0.0
H463 H 0.86126 0.76034 0.37642 0.0
H464 H 0.75691 0.83683 0.3211 0.0
H465 H 0.86338 0.70592 0.27182 0.0
H466 H 0.73725 0.83269 0.4004 0.0
H467 H 0.76943 0.7998 0.21339 0.0
H468 H 0.83464 0.73548 0.28744 0.0
H469 H 0.77663 0.79883 0.16744 0.0
H470 H 0.79845 0.78367 0.43439 0.0
H471 H 0.86898 0.6988 0.22645 0.0
H472 H 0.85919 0.7108 0.1828 0.0
H473 H 0.8357 0.76657 0.41491 0.0
H474 H 0.8366 0.73701 0.15425 0.0
N475 N 0.81947 0.74353 0.25262 0.0
C476 C 0.83459 0.73173 0.26817 0.0
C477 C 0.8552 0.71133 0.2335 0.0
C478 C 0.84151 0.72481 0.21708 0.0
C479 C 0.85199 0.71518 0.25909 0.0
C480 C 0.82375 0.74103 0.22723 0.0
H481 H 0.80637 0.77012 0.14835 0.0
N482 N 0.79557 0.77231 0.22137 0.0
C483 C 0.78668 0.78674 0.17945 0.0
C484 C 0.81147 0.75603 0.21112 0.0
C485 C 0.7828 0.78723 0.20576 0.0
C486 C 0.80338 0.77049 0.16877 0.0
C487 C 0.81598 0.75483 0.18456 0.0
O488 O 0.7572 0.78409 0.25354 0.0
O489 O 0.77739 0.79142 0.29721 0.0
O490 O 0.8057 0.76709 0.3271 0.0
O491 O 0.79779 0.7461 0.2957 0.0
O492 O 0.7656 0.76349 0.29664 0.0
O493 O 0.77188 0.74911 0.25034 0.0
O494 O 0.83121 0.81505 0.31014 0.0
O495 O 0.81084 0.78792 0.27356 0.0
O496 O 0.78861 0.8045 0.24971 0.0
O497 O 0.7829 0.82437 0.28563 0.0
O498 O 0.83655 0.78642 0.29262 0.0
O499 O 0.79947 0.8359 0.31218 0.0
C500 C 0.76416 0.78083 0.30897 0.0
C501 C 0.73395 0.75936 0.26033 0.0
C502 C 0.7093 0.73452 0.26548 0.0
C503 C 0.7284 0.73994 0.25422 0.0
C504 C 0.69583 0.74877 0.28288 0.0
C505 C 0.71989 0.77355 0.27738 0.0
C506 C 0.7011 0.76815 0.2887 0.0
C507 C 0.80351 0.74818 0.31858 0.0
C508 C 0.75428 0.76476 0.24889 0.0
C509 C 0.83297 0.73819 0.17454 0.0
C510 C 0.84573 0.72321 0.19078 0.0
C511 C 0.83098 0.78197 0.27161 0.0
C512 C 0.82482 0.84677 0.33417 0.0
C513 C 0.84218 0.85718 0.33056 0.0
C514 C 0.8467 0.86895 0.3501 0.0
C515 C 0.83402 0.86955 0.37345 0.0
C516 C 0.81218 0.84812 0.35752 0.0
C517 C 0.81691 0.85922 0.37706 0.0
C518 C 0.78342 0.82366 0.26081 0.0
C519 C 0.81967 0.83501 0.31347 0.0
H520 H 0.73901 0.729 0.24094 0.0
H521 H 0.68094 0.74517 0.29161 0.0
H522 H 0.7234 0.78884 0.28206 0.0
H523 H 0.69051 0.77913 0.30192 0.0
H524 H 0.85176 0.85658 0.31243 0.0
H525 H 0.83735 0.87804 0.38901 0.0
H526 H 0.79847 0.84086 0.36068 0.0
H527 H 0.80713 0.85998 0.39503 0.0
Tb528 Tb 0.29461 0.77568 0.26653 0.0
C529 C 0.31587 0.85796 0.30056 0.0
C530 C 0.33986 0.86766 0.26553 0.0
C531 C 0.31721 0.89657 0.29121 0.0
C532 C 0.33088 0.85168 0.28031 0.0
C533 C 0.30914 0.88041 0.3066 0.0
C534 C 0.33256 0.8902 0.27071 0.0
C535 C 0.28838 0.86894 0.34372 0.0
N536 N 0.30854 0.84185 0.31501 0.0
C537 C 0.29566 0.84687 0.33703 0.0
C538 C 0.29495 0.88582 0.32828 0.0
Tb539 Tb 0.32148 0.80629 0.30242 0.0
N540 N 0.3376 0.82972 0.27602 0.0
C541 C 0.3546 0.82247 0.25849 0.0
C542 C 0.35633 0.86042 0.24652 0.0
C543 C 0.36398 0.8377 0.24329 0.0
H544 H 0.29049 0.83385 0.34897 0.0
H545 H 0.37705 0.8319 0.22902 0.0
H546 H 0.33907 0.90277 0.25937 0.0
H547 H 0.27775 0.8729 0.36079 0.0
H548 H 0.36069 0.80498 0.25572 0.0
H549 H 0.23863 0.7477 0.3377 0.0
H550 H 0.36361 0.87217 0.2347 0.0
H551 H 0.32744 0.74958 0.21994 0.0
H552 H 0.25547 0.77537 0.31335 0.0
H553 H 0.33932 0.71137 0.20553 0.0
H554 H 0.3121 0.91395 0.29538 0.0
H555 H 0.25099 0.70796 0.32866 0.0
H556 H 0.27484 0.67857 0.30186 0.0
H557 H 0.28937 0.90289 0.33356 0.0
H558 H 0.30208 0.6687 0.26581 0.0
N559 N 0.27778 0.75161 0.29088 0.0
C560 C 0.26111 0.75815 0.30903 0.0
C561 C 0.25848 0.72007 0.31782 0.0
C562 C 0.27476 0.71361 0.29835 0.0
C563 C 0.25145 0.74247 0.32295 0.0
C564 C 0.28409 0.72999 0.28494 0.0
H565 H 0.32595 0.68086 0.22957 0.0
N566 N 0.30786 0.74074 0.2522 0.0
C567 C 0.32824 0.71478 0.22234 0.0
C568 C 0.29954 0.72439 0.26485 0.0
C569 C 0.32145 0.7364 0.23055 0.0
C570 C 0.32066 0.6976 0.23597 0.0
C571 C 0.30596 0.70232 0.25736 0.0
O572 O 0.28632 0.78526 0.22956 0.0
O573 O 0.3083 0.80397 0.26754 0.0
O574 O 0.28968 0.82739 0.29667 0.0
O575 O 0.27062 0.80203 0.28692 0.0
O576 O 0.3139 0.78834 0.23455 0.0
O577 O 0.26283 0.77719 0.25831 0.0
O578 O 0.33034 0.80651 0.33944 0.0
O579 O 0.30704 0.77867 0.3017 0.0
O580 O 0.32582 0.75394 0.27283 0.0
O581 O 0.34526 0.77861 0.28371 0.0
O582 O 0.30447 0.79197 0.33557 0.0
O583 O 0.35429 0.79757 0.30796 0.0
C584 C 0.31675 0.80521 0.2451 0.0
C585 C 0.26263 0.76539 0.21696 0.0
C586 C 0.23778 0.74581 0.20271 0.0
C587 C 0.24199 0.76114 0.21847 0.0
C588 C 0.2544 0.73467 0.18568 0.0
C589 C 0.27866 0.75472 0.19887 0.0
C590 C 0.27464 0.73923 0.1837 0.0
C591 C 0.27148 0.82205 0.29332 0.0
C592 C 0.26752 0.78078 0.23413 0.0
C593 C 0.29721 0.6858 0.27112 0.0
C594 C 0.28168 0.69142 0.29163 0.0
C595 C 0.29999 0.77624 0.3245 0.0
C596 C 0.36255 0.81871 0.33903 0.0
C597 C 0.36665 0.81918 0.36441 0.0
C598 C 0.37742 0.83475 0.37141 0.0
C599 C 0.38352 0.8501 0.3529 0.0
C600 C 0.36988 0.83356 0.32082 0.0
C601 C 0.37983 0.8494 0.32778 0.0
C602 C 0.34404 0.75871 0.27719 0.0
C603 C 0.35075 0.80283 0.33158 0.0
H604 H 0.2293 0.76968 0.23179 0.0
H605 H 0.25149 0.723 0.17317 0.0
H606 H 0.29439 0.75831 0.19627 0.0
H607 H 0.2872 0.73096 0.17009 0.0
H608 H 0.36174 0.80736 0.37854 0.0
H609 H 0.3921 0.86201 0.35762 0.0
H610 H 0.36832 0.83286 0.30106 0.0
H611 H 0.3852 0.86083 0.31353 0.0
Tb612 Tb 0.29671 0.79235 0.82605 0.0
C613 C 0.22076 0.76394 0.80149 0.0
C614 C 0.21908 0.73742 0.83709 0.0
C615 C 0.18642 0.75609 0.8181 0.0
C616 C 0.23091 0.74927 0.81958 0.0
C617 C 0.1984 0.76734 0.8003 0.0
C618 C 0.19676 0.74109 0.83642 0.0
C619 C 0.20165 0.79121 0.76275 0.0
N620 N 0.23292 0.77437 0.78459 0.0
C621 C 0.22378 0.787 0.76452 0.0
C622 C 0.18884 0.78153 0.78091 0.0
Tb623 Tb 0.26941 0.76525 0.78822 0.0
N624 N 0.25244 0.74652 0.81994 0.0
C625 C 0.26318 0.7317 0.83728 0.0
C626 C 0.23005 0.72225 0.85477 0.0
C627 C 0.2522 0.71938 0.85482 0.0
H628 H 0.23363 0.79406 0.74989 0.0
H629 H 0.26083 0.7078 0.86854 0.0
H630 H 0.18738 0.73232 0.84987 0.0
H631 H 0.19454 0.80168 0.7472 0.0
H632 H 0.2802 0.72944 0.83811 0.0
H633 H 0.26805 0.87722 0.85403 0.0
H634 H 0.22156 0.71283 0.86852 0.0
H635 H 0.34895 0.76822 0.80477 0.0
H636 H 0.27041 0.83713 0.85759 0.0
H637 H 0.37882 0.77988 0.7806 0.0
H638 H 0.16922 0.7586 0.8176 0.0
H639 H 0.29259 0.8928 0.82266 0.0
H640 H 0.32498 0.88585 0.79081 0.0
H641 H 0.17172 0.78462 0.77938 0.0
H642 H 0.3555 0.85896 0.7706 0.0
N643 N 0.2951 0.82971 0.82707 0.0
C644 C 0.28105 0.8435 0.84344 0.0
C645 C 0.29352 0.8751 0.82386 0.0
C646 C 0.30932 0.86068 0.80904 0.0
C647 C 0.2797 0.86637 0.84162 0.0
C648 C 0.30985 0.83776 0.81137 0.0
H649 H 0.37615 0.8194 0.76753 0.0
N650 N 0.32763 0.80069 0.80501 0.0
C651 C 0.36414 0.79212 0.78559 0.0
C652 C 0.32679 0.82267 0.79991 0.0
C653 C 0.34668 0.78556 0.79935 0.0
C654 C 0.36257 0.81441 0.77819 0.0
C655 C 0.34399 0.8301 0.78597 0.0
O656 O 0.29952 0.7702 0.85819 0.0
O657 O 0.27062 0.77578 0.82547 0.0
O658 O 0.25263 0.80049 0.78649 0.0
O659 O 0.2735 0.81893 0.80666 0.0
O660 O 0.26505 0.8029 0.84706 0.0
O661 O 0.31281 0.79874 0.85606 0.0
O662 O 0.2642 0.75784 0.75165 0.0
O663 O 0.2974 0.77853 0.79001 0.0
O664 O 0.31761 0.75937 0.8191 0.0
O665 O 0.29794 0.74006 0.79904 0.0
O666 O 0.28385 0.78421 0.75701 0.0
O667 O 0.27976 0.73232 0.77746 0.0
C668 C 0.25633 0.7883 0.83979 0.0
C669 C 0.29629 0.78829 0.89593 0.0
C670 C 0.27973 0.81541 0.92742 0.0
C671 C 0.29174 0.81006 0.9041 0.0
C672 C 0.27245 0.79865 0.94265 0.0
C673 C 0.28905 0.77177 0.91162 0.0
C674 C 0.27718 0.77697 0.93479 0.0
C675 C 0.25703 0.81871 0.79373 0.0
C676 C 0.30757 0.78275 0.87072 0.0
C677 C 0.34266 0.85298 0.78168 0.0
C678 C 0.3253 0.86828 0.7932 0.0
C679 C 0.29953 0.78756 0.76804 0.0
C680 C 0.25622 0.72263 0.75176 0.0
C681 C 0.25335 0.71861 0.72692 0.0
C682 C 0.23954 0.70507 0.72251 0.0
C683 C 0.22808 0.69632 0.7433 0.0
C684 C 0.24524 0.71289 0.77217 0.0
C685 C 0.23096 0.70023 0.76794 0.0
C686 C 0.31504 0.74088 0.81037 0.0
C687 C 0.27091 0.73658 0.75626 0.0
H688 H 0.29716 0.82298 0.89215 0.0
H689 H 0.2634 0.80223 0.96084 0.0
H690 H 0.29236 0.75486 0.90578 0.0
H691 H 0.27159 0.76414 0.94669 0.0
H692 H 0.26212 0.72569 0.71111 0.0
H693 H 0.21762 0.68557 0.74061 0.0
H694 H 0.24794 0.71465 0.79144 0.0
H695 H 0.22253 0.69293 0.78383 0.0
Tb696 Tb 0.29688 0.24946 0.77165 0.0
C697 C 0.2976 0.29184 0.87114 0.0
C698 C 0.26089 0.31273 0.87916 0.0
C699 C 0.28209 0.29807 0.91444 0.0
C700 C 0.2785 0.30318 0.8622 0.0
C701 C 0.29986 0.28957 0.89732 0.0
C702 C 0.2626 0.30962 0.90536 0.0
C703 C 0.33748 0.27246 0.88746 0.0
N704 N 0.31434 0.28398 0.85398 0.0
C705 C 0.33442 0.27519 0.86167 0.0
C706 C 0.32006 0.27941 0.9054 0.0
Tb707 Tb 0.30781 0.28906 0.8122 0.0
N708 N 0.27764 0.30601 0.83677 0.0
C709 C 0.2601 0.31984 0.82704 0.0
C710 C 0.24238 0.3257 0.86925 0.0
C711 C 0.24214 0.32958 0.84307 0.0
H712 H 0.34793 0.26967 0.8479 0.0
H713 H 0.22809 0.34001 0.8352 0.0
H714 H 0.24917 0.31661 0.91872 0.0
H715 H 0.35327 0.26499 0.89347 0.0
H716 H 0.25954 0.32298 0.80687 0.0
H717 H 0.37434 0.19429 0.74787 0.0
H718 H 0.22846 0.33327 0.88162 0.0
H719 H 0.25727 0.27248 0.73626 0.0
H720 H 0.34408 0.21319 0.77652 0.0
H721 H 0.25183 0.27821 0.69074 0.0
H722 H 0.28341 0.29631 0.93466 0.0
H723 H 0.37372 0.20112 0.70151 0.0
H724 H 0.35342 0.21933 0.66469 0.0
H725 H 0.32248 0.27734 0.92536 0.0
H726 H 0.31997 0.24209 0.64907 0.0
N727 N 0.32627 0.23119 0.74686 0.0
C728 C 0.34336 0.21639 0.75639 0.0
C729 C 0.36027 0.20948 0.71402 0.0
C730 C 0.34224 0.22364 0.70432 0.0
C731 C 0.36065 0.20555 0.74017 0.0
C732 C 0.32522 0.23415 0.72145 0.0
H733 H 0.28184 0.26385 0.65867 0.0
N734 N 0.2902 0.25561 0.72996 0.0
C735 C 0.26733 0.26942 0.69665 0.0
C736 C 0.30647 0.24675 0.71268 0.0
C737 C 0.27044 0.26609 0.72241 0.0
C738 C 0.28431 0.26132 0.6786 0.0
C739 C 0.30411 0.24952 0.68653 0.0
O740 O 0.27013 0.23582 0.76971 0.0
O741 O 0.28658 0.269 0.80426 0.0
O742 O 0.31004 0.25789 0.83484 0.0
O743 O 0.3144 0.23195 0.80391 0.0
O744 O 0.26328 0.26615 0.78315 0.0
O745 O 0.30033 0.21528 0.78032 0.0
O746 O 0.33407 0.30366 0.81301 0.0
O747 O 0.31836 0.26889 0.78025 0.0
O748 O 0.29749 0.28009 0.74858 0.0
O749 O 0.2907 0.30613 0.7795 0.0
O750 O 0.34165 0.273 0.80075 0.0
O751 O 0.30304 0.32349 0.80429 0.0
C752 C 0.26654 0.27406 0.80353 0.0
C753 C 0.27956 0.19894 0.75674 0.0
C754 C 0.25896 0.1751 0.74148 0.0
C755 C 0.26054 0.19135 0.75775 0.0
C756 C 0.27649 0.16692 0.72385 0.0
C757 C 0.2969 0.19028 0.73914 0.0
C758 C 0.29528 0.17451 0.72272 0.0
C759 C 0.31491 0.23719 0.82759 0.0
C760 C 0.28115 0.21561 0.77429 0.0
C761 C 0.32137 0.24 0.66927 0.0
C762 C 0.34042 0.22706 0.67816 0.0
C763 C 0.33838 0.26391 0.78118 0.0
C764 C 0.3237 0.33971 0.82813 0.0
C765 C 0.34267 0.34721 0.82789 0.0
C766 C 0.34454 0.36191 0.84591 0.0
C767 C 0.32717 0.36895 0.86417 0.0
C768 C 0.30648 0.34725 0.84638 0.0
C769 C 0.30829 0.36168 0.86432 0.0
C770 C 0.29222 0.30089 0.75551 0.0
C771 C 0.32226 0.32369 0.8097 0.0
H772 H 0.24722 0.19775 0.77153 0.0
H773 H 0.27565 0.15471 0.71081 0.0
H774 H 0.3118 0.19549 0.73813 0.0
H775 H 0.30871 0.16803 0.70914 0.0
H776 H 0.35601 0.34141 0.81389 0.0
H777 H 0.328 0.38047 0.87806 0.0
H778 H 0.29157 0.34212 0.8468 0.0
H779 H 0.29495 0.36736 0.87831 0.0
Tb780 Tb 0.7783 0.27336 0.77398 0.0
C781 C 0.79609 0.35279 0.82133 0.0
C782 C 0.82192 0.36525 0.79051 0.0
C783 C 0.79718 0.39178 0.8174 0.0
C784 C 0.81261 0.34817 0.80219 0.0
C785 C 0.78846 0.37456 0.82952 0.0
C786 C 0.81385 0.38714 0.79789 0.0
C787 C 0.76511 0.36042 0.86204 0.0
N788 N 0.7879 0.33577 0.8324 0.0
C789 C 0.77317 0.33911 0.85323 0.0
C790 C 0.7726 0.37827 0.84995 0.0
Tb791 Tb 0.80271 0.30158 0.81663 0.0
N792 N 0.81997 0.32683 0.79554 0.0
C793 C 0.83769 0.32119 0.77853 0.0
C794 C 0.83932 0.35974 0.77212 0.0
C795 C 0.84742 0.33756 0.76637 0.0
H796 H 0.76726 0.32537 0.86257 0.0
H797 H 0.86111 0.33307 0.75249 0.0
H798 H 0.82067 0.40052 0.78898 0.0
H799 H 0.75313 0.36305 0.87813 0.0
H800 H 0.8441 0.30416 0.77378 0.0
H801 H 0.72163 0.23914 0.83802 0.0
H802 H 0.84687 0.37238 0.76262 0.0
H803 H 0.81044 0.25152 0.72494 0.0
H804 H 0.73708 0.26894 0.81622 0.0
H805 H 0.82536 0.21432 0.70837 0.0
H806 H 0.7914 0.40866 0.82325 0.0
H807 H 0.73766 0.19993 0.82853 0.0
H808 H 0.76472 0.17249 0.80201 0.0
H809 H 0.76633 0.39476 0.85682 0.0
H810 H 0.79304 0.16567 0.76649 0.0
N811 N 0.76216 0.24696 0.79484 0.0
C812 C 0.74427 0.25198 0.81169 0.0
C813 C 0.74455 0.21297 0.81885 0.0
C814 C 0.76198 0.20805 0.80042 0.0
C815 C 0.73542 0.23509 0.82418 0.0
C816 C 0.77039 0.22565 0.78853 0.0
H817 H 0.8154 0.18129 0.73096 0.0
N818 N 0.79272 0.23957 0.75698 0.0
C819 C 0.81448 0.21617 0.72549 0.0
C820 C 0.78632 0.22178 0.76884 0.0
C821 C 0.80596 0.23722 0.73489 0.0
C822 C 0.80888 0.19755 0.73834 0.0
C823 C 0.79432 0.20027 0.76007 0.0
O824 O 0.77072 0.28044 0.73612 0.0
O825 O 0.7924 0.30034 0.77972 0.0
O826 O 0.77139 0.32288 0.80979 0.0
O827 O 0.75368 0.29784 0.79612 0.0
O828 O 0.79726 0.28923 0.74439 0.0
O829 O 0.74572 0.28217 0.76658 0.0
O830 O 0.80921 0.29027 0.85386 0.0
O831 O 0.78936 0.27408 0.81063 0.0
O832 O 0.81009 0.25227 0.77968 0.0
O833 O 0.82779 0.27602 0.79639 0.0
O834 O 0.78261 0.2865 0.84558 0.0
O835 O 0.83378 0.29971 0.82782 0.0
C836 C 0.80085 0.30399 0.75783 0.0
C837 C 0.73864 0.27134 0.72735 0.0
C838 C 0.71351 0.27095 0.696 0.0
C839 C 0.72369 0.28286 0.71044 0.0
C840 C 0.71822 0.24764 0.699 0.0
C841 C 0.7427 0.24811 0.73003 0.0
C842 C 0.73261 0.23636 0.71598 0.0
C843 C 0.7538 0.31755 0.80414 0.0
C844 C 0.75009 0.28334 0.74209 0.0
C845 C 0.7869 0.18241 0.77269 0.0
C846 C 0.77077 0.18629 0.7929 0.0
C847 C 0.7802 0.27096 0.83231 0.0
C848 C 0.83317 0.30736 0.87126 0.0
C849 C 0.85459 0.30735 0.87509 0.0
C850 C 0.85887 0.31956 0.89453 0.0
C851 C 0.84145 0.33181 0.90975 0.0
C852 C 0.81631 0.31924 0.88751 0.0
C853 C 0.82042 0.33159 0.90626 0.0
C854 C 0.82762 0.25694 0.7867 0.0
C855 C 0.82829 0.29426 0.85133 0.0
H856 H 0.72029 0.30083 0.70822 0.0
H857 H 0.71056 0.23813 0.68829 0.0
H858 H 0.75367 0.23896 0.74298 0.0
H859 H 0.736 0.21842 0.71825 0.0
H860 H 0.86779 0.29782 0.86317 0.0
H861 H 0.84409 0.34102 0.92507 0.0
H862 H 0.79987 0.31867 0.88622 0.0
H863 H 0.80723 0.34067 0.91854 0.0
Tb864 Tb 0.7685 0.77808 0.81329 0.0
C865 C 0.80221 0.79163 0.70274 0.0
C866 C 0.82842 0.75756 0.69323 0.0
C867 C 0.80808 0.77895 0.65996 0.0
C868 C 0.81725 0.77326 0.71065 0.0
C869 C 0.79784 0.79508 0.67718 0.0
C870 C 0.82334 0.76019 0.66799 0.0
C871 C 0.77528 0.83105 0.68719 0.0
N872 N 0.79292 0.8069 0.71993 0.0
C873 C 0.78026 0.82691 0.71232 0.0
C874 C 0.78387 0.81494 0.6696 0.0
Tb875 Tb 0.80157 0.79838 0.76078 0.0
N876 N 0.82179 0.77151 0.73513 0.0
C877 C 0.83856 0.75515 0.74294 0.0
C878 C 0.84475 0.74009 0.70154 0.0
C879 C 0.85006 0.73909 0.72641 0.0
H880 H 0.77346 0.83938 0.72585 0.0
H881 H 0.86294 0.72587 0.73292 0.0
H882 H 0.83155 0.74815 0.65439 0.0
H883 H 0.76482 0.84666 0.68141 0.0
H884 H 0.84283 0.75395 0.76211 0.0
H885 H 0.70878 0.85314 0.83736 0.0
H886 H 0.85367 0.72761 0.6888 0.0
H887 H 0.79085 0.73633 0.85128 0.0
H888 H 0.72821 0.82353 0.80986 0.0
H889 H 0.79793 0.72966 0.89629 0.0
H890 H 0.80477 0.78113 0.64028 0.0
H891 H 0.71771 0.85283 0.88143 0.0
H892 H 0.73864 0.83272 0.91703 0.0
H893 H 0.78007 0.81823 0.65013 0.0
H894 H 0.76326 0.7989 0.93321 0.0
N895 N 0.7487 0.80637 0.83764 0.0
C896 C 0.7324 0.82287 0.82899 0.0
C897 C 0.72637 0.83967 0.8694 0.0
C898 C 0.74202 0.82201 0.87869 0.0
C899 C 0.72124 0.83984 0.84458 0.0
C900 C 0.75286 0.80538 0.86218 0.0
H901 H 0.78509 0.76001 0.92573 0.0
N902 N 0.77496 0.77033 0.85498 0.0
C903 C 0.78923 0.74584 0.88945 0.0
C904 C 0.76664 0.78661 0.8712 0.0
C905 C 0.78513 0.74966 0.86399 0.0
C906 C 0.78206 0.76304 0.90598 0.0
C907 C 0.77009 0.78359 0.89707 0.0
O908 O 0.75946 0.74751 0.82036 0.0
O909 O 0.78742 0.77187 0.77751 0.0
O910 O 0.77247 0.79446 0.74599 0.0
O911 O 0.7491 0.79619 0.78291 0.0
O912 O 0.78853 0.74547 0.80294 0.0
O913 O 0.73602 0.77758 0.81241 0.0
O914 O 0.8097 0.82931 0.75334 0.0
O915 O 0.78348 0.80417 0.79708 0.0
O916 O 0.79911 0.77747 0.82795 0.0
O917 O 0.82167 0.78072 0.79062 0.0
O918 O 0.78125 0.83071 0.77183 0.0
O919 O 0.83405 0.79952 0.7601 0.0
C920 C 0.79538 0.75132 0.78044 0.0
C921 C 0.72445 0.75049 0.84044 0.0
C922 C 0.6987 0.72872 0.8581 0.0
C923 C 0.71302 0.73421 0.83791 0.0
C924 C 0.69646 0.73941 0.88093 0.0
C925 C 0.72159 0.76109 0.86327 0.0
C926 C 0.70782 0.75546 0.88343 0.0
C927 C 0.7529 0.79704 0.75784 0.0
C928 C 0.73913 0.75653 0.81922 0.0
C929 C 0.76057 0.80073 0.91333 0.0
C930 C 0.74654 0.81996 0.90413 0.0
C931 C 0.77549 0.82472 0.7947 0.0
C932 C 0.84444 0.82792 0.73296 0.0
C933 C 0.85791 0.8418 0.73732 0.0
C934 C 0.87147 0.84883 0.71723 0.0
C935 C 0.871 0.84194 0.69276 0.0
C936 C 0.84463 0.82109 0.70848 0.0
C937 C 0.85775 0.82813 0.68851 0.0
C938 C 0.8183 0.7766 0.81547 0.0
C939 C 0.83022 0.82076 0.75397 0.0
H940 H 0.71494 0.72621 0.82015 0.0
H941 H 0.68595 0.73528 0.89698 0.0
H942 H 0.72988 0.77381 0.86554 0.0
H943 H 0.70586 0.76365 0.90103 0.0
H944 H 0.858 0.84684 0.75633 0.0
H945 H 0.88072 0.84742 0.67674 0.0
H946 H 0.83465 0.81036 0.70471 0.0
H947 H 0.8576 0.8229 0.66962 0.0
C948 C 0.11129 0.08188 0.34252 0.0
C949 C 0.09032 0.08763 0.35472 0.0
C950 C 0.12458 0.09698 0.34015 0.0
C951 C 0.12192 0.15727 0.3417 0.0
H952 H 0.18162 0.13843 0.35574 0.0
C953 C 0.16954 0.21908 0.36516 0.0
C954 C 0.19126 0.21609 0.35574 0.0
C955 C 0.15809 0.2032 0.36194 0.0
C956 C 0.16507 0.14392 0.35137 0.0
H957 H 0.06695 0.11407 0.37363 0.0
H958 H 0.09004 0.13993 0.36997 0.0
H959 H 0.16018 0.11079 0.35604 0.0
H960 H 0.21791 0.19413 0.3352 0.0
H961 H 0.19779 0.16628 0.32945 0.0
H962 H 0.12661 0.19036 0.33746 0.0
C963 C 0.09623 0.12387 0.36201 0.0
C964 C 0.15277 0.12807 0.35156 0.0
C965 C 0.08304 0.10883 0.36445 0.0
C966 C 0.20116 0.19696 0.34257 0.0
C967 C 0.1897 0.18093 0.33948 0.0
C968 C 0.13417 0.17305 0.34154 0.0
C969 C 0.11713 0.11824 0.34974 0.0
C970 C 0.13091 0.13462 0.34725 0.0
C971 C 0.16803 0.18384 0.34923 0.0
C972 C 0.15577 0.16666 0.34689 0.0
H973 H 0.11747 0.06568 0.33494 0.0
H974 H 0.14057 0.09213 0.33051 0.0
H975 H 0.10529 0.16286 0.33769 0.0
H976 H 0.16136 0.23373 0.37516 0.0
H977 H 0.14152 0.2059 0.36995 0.0
C978 C 0.9766 0.06749 0.27876 0.0
C979 C 0.9955 0.07028 0.28773 0.0
C980 C 0.95867 0.0854 0.27695 0.0
C981 C 0.94132 0.14722 0.27636 0.0
H982 H 0.88544 0.13653 0.30071 0.0
C983 C 0.86884 0.21906 0.30203 0.0
C984 C 0.84828 0.2183 0.29601 0.0
C985 C 0.88624 0.20074 0.29913 0.0
C986 C 0.90085 0.13978 0.29349 0.0
H987 H 1.01045 0.0945 0.30098 0.0
H988 H 0.97932 0.12561 0.29779 0.0
H989 H 0.91701 0.10545 0.29828 0.0
H990 H 0.83014 0.19736 0.28196 0.0
H991 H 0.86072 0.16518 0.27676 0.0
H992 H 0.92526 0.18154 0.27183 0.0
C993 C 0.97835 0.10959 0.292 0.0
C994 C 0.919 0.12193 0.29208 0.0
C995 C 0.99625 0.09168 0.29388 0.0
C996 C 0.84568 0.19854 0.28693 0.0
C997 C 0.86321 0.18006 0.28405 0.0
C998 C 0.9232 0.16503 0.27776 0.0
C999 C 0.95915 0.10664 0.28395 0.0
C1000 C 0.93956 0.12543 0.28382 0.0
C1001 C 0.88378 0.18099 0.28995 0.0
C1002 C 0.90275 0.16165 0.28672 0.0
H1003 H 0.97537 0.05129 0.27384 0.0
H1004 H 0.94432 0.08253 0.27028 0.0
H1005 H 0.95675 0.15056 0.26943 0.0
H1006 H 0.87173 0.234 0.3086 0.0
H1007 H 0.90168 0.20207 0.30426 0.0
C1008 C 0.98558 0.97602 0.33132 0.0
C1009 C 0.99571 0.97521 0.35362 0.0
C1010 C 0.97116 0.96272 0.32946 0.0
C1011 C 0.93468 0.93431 0.36968 0.0
H1012 H 0.93089 0.9067 0.30802 0.0
C1013 C 0.86081 0.90223 0.35584 0.0
C1014 C 0.86428 0.88098 0.34654 0.0
C1015 C 0.87765 0.91287 0.35507 0.0
C1016 C 0.93185 0.91419 0.32541 0.0
H1017 H 0.99921 0.95891 0.39102 0.0
H1018 H 0.974 0.93585 0.38785 0.0
H1019 H 0.95973 0.9258 0.31022 0.0
H1020 H 0.888 0.85466 0.32805 0.0
H1021 H 0.9176 0.87341 0.32659 0.0
H1022 H 0.90693 0.92277 0.38493 0.0
C1023 C 0.97699 0.94705 0.37192 0.0
C1024 C 0.94825 0.92528 0.32661 0.0
C1025 C 0.99144 0.96032 0.37376 0.0
C1026 C 0.88482 0.87105 0.3353 0.0
C1027 C 0.90176 0.88177 0.3345 0.0
C1028 C 0.91829 0.92337 0.36843 0.0
C1029 C 0.96645 0.94831 0.34988 0.0
C1030 C 0.94976 0.93558 0.34873 0.0
C1031 C 0.89843 0.90259 0.34493 0.0
C1032 C 0.91652 0.91338 0.34622 0.0
H1033 H 0.98822 0.98746 0.31553 0.0
H1034 H 0.96312 0.96432 0.31234 0.0
H1035 H 0.93522 0.94225 0.38691 0.0
H1036 H 0.84506 0.91057 0.36406 0.0
H1037 H 0.87441 0.92914 0.36267 0.0
C1038 C 0.12663 0.99183 0.28375 0.0
C1039 C 0.1055 0.98985 0.29114 0.0
C1040 C 0.14378 0.97297 0.28265 0.0
C1041 C 0.15842 0.91325 0.30638 0.0
H1042 H 0.20911 0.91219 0.25943 0.0
C1043 C 0.23101 0.83578 0.29496 0.0
C1044 C 0.2515 0.84022 0.29424 0.0
C1045 C 0.21251 0.85326 0.29426 0.0
C1046 C 0.19509 0.91226 0.27275 0.0
H1047 H 0.08579 0.96623 0.30215 0.0
H1048 H 0.11542 0.93338 0.29927 0.0
H1049 H 0.17824 0.94371 0.25744 0.0
H1050 H 0.26838 0.86678 0.29208 0.0
H1051 H 0.23643 0.89688 0.29073 0.0
H1052 H 0.17537 0.88149 0.3213 0.0
C1053 C 0.11897 0.94953 0.2951 0.0
C1054 C 0.17736 0.93044 0.27171 0.0
C1055 C 0.10187 0.96842 0.29651 0.0
C1056 C 0.25296 0.86256 0.29295 0.0
C1057 C 0.2346 0.87993 0.29189 0.0
C1058 C 0.17608 0.89492 0.30717 0.0
C1059 C 0.14028 0.95149 0.28859 0.0
C1060 C 0.15881 0.93142 0.28874 0.0
C1061 C 0.21414 0.87556 0.29235 0.0
C1062 C 0.19476 0.89434 0.2906 0.0
H1063 H 0.13009 0.00805 0.27971 0.0
H1064 H 0.15988 0.97538 0.27793 0.0
H1065 H 0.14469 0.91338 0.32013 0.0
H1066 H 0.22926 0.81881 0.29588 0.0
H1067 H 0.19698 0.84933 0.29457 0.0
C1068 C 0.10569 0.96962 0.74138 0.0
C1069 C 0.09503 0.98457 0.75974 0.0
C1070 C 0.12353 0.95275 0.74672 0.0
C1071 C 0.15341 0.92006 0.79824 0.0
H1072 H 0.1989 0.90719 0.74351 0.0
C1073 C 0.23391 0.8545 0.80932 0.0
C1074 C 0.24089 0.83984 0.78968 0.0
C1075 C 0.21691 0.87321 0.80671 0.0
C1076 C 0.1863 0.91046 0.75894 0.0
H1077 H 0.09451 0.99301 0.79853 0.0
H1078 H 0.12619 0.96342 0.80793 0.0
H1079 H 0.16778 0.93778 0.73797 0.0
H1080 H 0.23556 0.83332 0.75187 0.0
H1081 H 0.20601 0.86608 0.7471 0.0
H1082 H 0.1722 0.89262 0.81919 0.0
C1083 C 0.12049 0.9648 0.78934 0.0
C1084 C 0.16839 0.92801 0.75578 0.0
C1085 C 0.10236 0.98176 0.78399 0.0
C1086 C 0.23065 0.84441 0.76724 0.0
C1087 C 0.21379 0.86323 0.76451 0.0
C1088 C 0.17148 0.90253 0.80147 0.0
C1089 C 0.13154 0.95032 0.77055 0.0
C1090 C 0.15144 0.9328 0.77516 0.0
C1091 C 0.20654 0.87777 0.78431 0.0
C1092 C 0.18798 0.89728 0.78167 0.0
H1093 H 0.10033 0.97098 0.72261 0.0
H1094 H 0.13109 0.94158 0.73199 0.0
H1095 H 0.14066 0.92313 0.81352 0.0
H1096 H 0.2409 0.85099 0.82717 0.0
H1097 H 0.21178 0.88405 0.8223 0.0
C1098 C 0.10329 0.0905 0.75172 0.0
C1099 C 0.09629 0.08988 0.72772 0.0
C1100 C 0.11977 0.10093 0.75464 0.0
C1101 C 0.16381 0.11097 0.7525 0.0
H1102 H 0.16778 0.16631 0.71518 0.0
C1103 C 0.24113 0.14338 0.74169 0.0
C1104 C 0.23929 0.1663 0.74285 0.0
C1105 C 0.22288 0.13499 0.74159 0.0
C1106 C 0.16679 0.15098 0.72593 0.0
H1107 H 0.10122 0.09995 0.68797 0.0
H1108 H 0.12999 0.11815 0.69306 0.0
H1109 H 0.1372 0.15028 0.71146 0.0
H1110 H 0.21677 0.19837 0.74523 0.0
H1111 H 0.18472 0.18366 0.74521 0.0
H1112 H 0.19333 0.11165 0.76702 0.0
C1113 C 0.12251 0.11075 0.70968 0.0
C1114 C 0.14939 0.14165 0.72357 0.0
C1115 C 0.10602 0.10027 0.70676 0.0
C1116 C 0.21869 0.18062 0.74443 0.0
C1117 C 0.20037 0.17222 0.74418 0.0
C1118 C 0.18122 0.12023 0.75478 0.0
C1119 C 0.12968 0.11107 0.73365 0.0
C1120 C 0.14778 0.12145 0.73669 0.0
C1121 C 0.20228 0.1493 0.7426 0.0
C1122 C 0.18303 0.14024 0.74136 0.0
H1123 H 0.09591 0.08314 0.76841 0.0
H1124 H 0.12462 0.1012 0.77343 0.0
H1125 H 0.16319 0.0953 0.76272 0.0
H1126 H 0.25675 0.13187 0.74075 0.0
H1127 H 0.22496 0.11729 0.74012 0.0
C1128 C 0.96399 0.08642 0.76935 0.0
C1129 C 0.98531 0.08436 0.77451 0.0
C1130 C 0.94798 0.10512 0.77612 0.0
C1131 C 0.94018 0.16429 0.78388 0.0
H1132 H 0.8824 0.16012 0.80922 0.0
C1133 C 0.86701 0.24166 0.79335 0.0
C1134 C 0.8475 0.23862 0.78627 0.0
C1135 C 0.88492 0.22358 0.79507 0.0
C1136 C 0.89841 0.16163 0.80195 0.0
H1137 H 1.0066 0.10009 0.79127 0.0
H1138 H 0.97846 0.13327 0.80289 0.0
H1139 H 0.91146 0.12673 0.80831 0.0
H1140 H 0.83192 0.21387 0.77553 0.0
H1141 H 0.86279 0.18309 0.77757 0.0
H1142 H 0.92689 0.19913 0.77658 0.0
C1143 C 0.97417 0.12017 0.79381 0.0
C1144 C 0.9151 0.14247 0.80159 0.0
C1145 C 0.9902 0.1011 0.78745 0.0
C1146 C 0.84658 0.21716 0.78061 0.0
C1147 C 0.86433 0.19925 0.78225 0.0
C1148 C 0.92339 0.18353 0.78408 0.0
C1149 C 0.95293 0.12252 0.78781 0.0
C1150 C 0.93609 0.14343 0.79195 0.0
C1151 C 0.88366 0.20204 0.78991 0.0
C1152 C 0.90215 0.18233 0.79244 0.0
H1153 H 0.95982 0.07386 0.75918 0.0
H1154 H 0.93188 0.10645 0.77098 0.0
H1155 H 0.95616 0.16556 0.77617 0.0
H1156 H 0.86834 0.25789 0.79804 0.0
H1157 H 0.89953 0.22637 0.80108 0.0
C1158 C 0.97773 0.98647 0.73984 0.0
C1159 C 0.99528 0.98473 0.72127 0.0
C1160 C 0.96399 0.97195 0.74088 0.0
C1161 C 0.94825 0.93257 0.70142 0.0
H1162 H 0.92325 0.91139 0.76552 0.0
C1163 C 0.90657 0.86018 0.70787 0.0
C1164 C 0.88605 0.86339 0.72127 0.0
C1165 C 0.91958 0.87494 0.70949 0.0
C1166 C 0.93 0.91731 0.74749 0.0
H1167 H 1.01262 0.96583 0.68987 0.0
H1168 H 0.98915 0.94025 0.69196 0.0
H1169 H 0.94666 0.93717 0.76506 0.0
H1170 H 0.86362 0.88426 0.74784 0.0
H1171 H 0.8867 0.90986 0.75107 0.0
H1172 H 0.93199 0.91234 0.68392 0.0
C1173 C 0.98545 0.95326 0.70527 0.0
C1174 C 0.94337 0.93215 0.74717 0.0
C1175 C 0.999 0.9679 0.70407 0.0
C1176 C 0.87935 0.8812 0.73736 0.0
C1177 C 0.89253 0.89591 0.73916 0.0
C1178 C 0.93513 0.9176 0.70177 0.0
C1179 C 0.9676 0.95518 0.72351 0.0
C1180 C 0.95283 0.93985 0.72411 0.0
C1181 C 0.91259 0.89319 0.72478 0.0
C1182 C 0.92598 0.90966 0.72478 0.0
H1183 H 0.97433 0.9994 0.75322 0.0
H1184 H 0.95029 0.97418 0.755 0.0
H1185 H 0.9547 0.93852 0.68324 0.0
H1186 H 0.91255 0.84633 0.69584 0.0
H1187 H 0.93515 0.87213 0.6986 0.0
C1188 C 0.29763 0.11104 0.15226 0.0
C1189 C 0.27914 0.11581 0.13913 0.0
C1190 C 0.30144 0.12669 0.16765 0.0
C1191 C 0.27274 0.17775 0.20039 0.0
H1192 H 0.33021 0.18474 0.20656 0.0
C1193 C 0.2862 0.25222 0.24685 0.0
C1194 C 0.29928 0.24733 0.26697 0.0
C1195 C 0.28604 0.23601 0.23029 0.0
C1196 C 0.31412 0.18282 0.20507 0.0
H1197 H 0.25068 0.141 0.13088 0.0
H1198 H 0.25751 0.16847 0.15695 0.0
H1199 H 0.32519 0.15673 0.17934 0.0
H1200 H 0.32257 0.22162 0.28544 0.0
H1201 H 0.32247 0.19304 0.25604 0.0
H1202 H 0.26165 0.20418 0.22555 0.0
C1203 C 0.26874 0.15241 0.15626 0.0
C1204 C 0.3112 0.16675 0.18959 0.0
C1205 C 0.26482 0.13669 0.14121 0.0
C1206 C 0.31256 0.2259 0.26986 0.0
C1207 C 0.31256 0.20963 0.25305 0.0
C1208 C 0.27564 0.19393 0.21549 0.0
C1209 C 0.28695 0.14755 0.16998 0.0
C1210 C 0.29042 0.16414 0.1869 0.0
C1211 C 0.29884 0.21444 0.23353 0.0
C1212 C 0.2963 0.19675 0.21785 0.0
H1213 H 0.30887 0.09501 0.15109 0.0
H1214 H 0.31549 0.12222 0.17812 0.0
H1215 H 0.25656 0.17587 0.19945 0.0
H1216 H 0.27535 0.26823 0.24439 0.0
H1217 H 0.2754 0.24019 0.21531 0.0
C1218 C 0.98503 0.28818 0.12805 0.0
C1219 C 1.00262 0.27169 0.13591 0.0
C1220 C 0.96504 0.29181 0.14242 0.0
C1221 C 0.93312 0.26413 0.19098 0.0
H1222 H 0.89857 0.32376 0.20123 0.0
C1223 C 0.8571 0.27844 0.26009 0.0
C1224 C 0.83862 0.29353 0.25237 0.0
C1225 C 0.87719 0.27761 0.24685 0.0
C1226 C 0.90794 0.30701 0.19835 0.0
H1227 H 1.01288 0.24644 0.16547 0.0
H1228 H 0.97814 0.25268 0.19037 0.0
H1229 H 0.93336 0.31846 0.17593 0.0
H1230 H 0.82687 0.31976 0.22456 0.0
H1231 H 0.86207 0.31808 0.2009 0.0
H1232 H 0.9078 0.25259 0.21313 0.0
C1233 C 0.97971 0.2626 0.17288 0.0
C1234 C 0.92787 0.30396 0.18384 0.0
C1235 C 0.99967 0.25899 0.15854 0.0
C1236 C 0.84085 0.30811 0.23117 0.0
C1237 C 0.86103 0.30719 0.21769 0.0
C1238 C 0.91326 0.26717 0.20541 0.0
C1239 C 0.96211 0.27901 0.16498 0.0
C1240 C 0.94076 0.28246 0.18009 0.0
C1241 C 0.87937 0.29152 0.22506 0.0
C1242 C 0.90046 0.28863 0.20945 0.0
H1243 H 0.98656 0.29808 0.11058 0.0
H1244 H 0.95177 0.30437 0.13559 0.0
H1245 H 0.94237 0.24734 0.18806 0.0
H1246 H 0.8562 0.26675 0.27592 0.0
H1247 H 0.89099 0.26564 0.25342 0.0
C1248 C 0.80753 0.97216 0.10472 0.0
C1249 C 0.82245 0.96092 0.08606 0.0
C1250 C 0.80409 0.96183 0.12856 0.0
C1251 C 0.82511 0.91207 0.17043 0.0
H1252 H 0.76469 0.91675 0.19223 0.0
C1253 C 0.78892 0.84275 0.21843 0.0
C1254 C 0.78347 0.84423 0.24467 0.0
C1255 C 0.79276 0.86099 0.20339 0.0
C1256 C 0.78159 0.91575 0.18672 0.0
H1257 H 0.84626 0.93059 0.07799 0.0
H1258 H 0.84003 0.9122 0.11947 0.0
H1259 H 0.77501 0.94139 0.15747 0.0
H1260 H 0.77673 0.86662 0.27541 0.0
H1261 H 0.78327 0.89892 0.24857 0.0
H1262 H 0.83141 0.88518 0.19855 0.0
C1263 C 0.83119 0.92916 0.11592 0.0
C1264 C 0.78757 0.92981 0.16684 0.0
C1265 C 0.83476 0.93962 0.09212 0.0
C1266 C 0.78088 0.86489 0.25528 0.0
C1267 C 0.78466 0.88332 0.24005 0.0
C1268 C 0.81909 0.89795 0.19017 0.0
C1269 C 0.8154 0.93995 0.1342 0.0
C1270 C 0.80938 0.92765 0.15793 0.0
C1271 C 0.79112 0.8812 0.21415 0.0
C1272 C 0.7973 0.89935 0.19795 0.0
H1273 H 0.79817 0.98882 0.10066 0.0
H1274 H 0.79216 0.97078 0.14236 0.0
H1275 H 0.84203 0.91021 0.16432 0.0
H1276 H 0.79133 0.82727 0.20947 0.0
H1277 H 0.79766 0.85914 0.18338 0.0
C1278 C 0.09541 0.70629 0.10002 0.0
C1279 C 0.08368 0.72628 0.08919 0.0
C1280 C 0.10867 0.70651 0.11906 0.0
C1281 C 0.12228 0.74297 0.16412 0.0
H1282 H 0.1792 0.70438 0.1536 0.0
C1283 C 0.1988 0.76044 0.19701 0.0
C1284 C 0.2159 0.74235 0.20211 0.0
C1285 C 0.17965 0.75688 0.18996 0.0
C1286 C 0.16327 0.71494 0.15729 0.0
H1287 H 0.07638 0.76218 0.0903 0.0
H1288 H 0.09958 0.76259 0.12317 0.0
H1289 H 0.15132 0.70089 0.12821 0.0
H1290 H 0.22573 0.70648 0.20649 0.0
H1291 H 0.19213 0.70021 0.19485 0.0
H1292 H 0.13467 0.75758 0.19262 0.0
C1293 C 0.09825 0.74669 0.11738 0.0
C1294 C 0.14723 0.71294 0.14265 0.0
C1295 C 0.08494 0.74646 0.09843 0.0
C1296 C 0.21283 0.7207 0.20235 0.0
C1297 C 0.19366 0.71714 0.19552 0.0
C1298 C 0.13839 0.745 0.1788 0.0
C1299 C 0.11058 0.72674 0.12762 0.0
C1300 C 0.12666 0.72721 0.14549 0.0
C1301 C 0.17725 0.73515 0.18805 0.0
C1302 C 0.1592 0.73128 0.1752 0.0
H1303 H 0.0945 0.69048 0.0936 0.0
H1304 H 0.11769 0.69082 0.12683 0.0
H1305 H 0.10651 0.75401 0.16704 0.0
H1306 H 0.20085 0.77729 0.19653 0.0
H1307 H 0.1674 0.77114 0.18422 0.0
C1308 C 0.25939 0.9838 0.03805 0.0
C1309 C 0.25377 1.00433 0.02437 0.0
C1310 C 0.25947 0.96413 0.02716 0.0
C1311 C 0.27593 0.92674 0.99226 0.0
H1312 H 0.2324 0.91683 0.95262 0.0
C1313 C 0.29129 0.85026 0.9333 0.0
C1314 C 0.27511 0.83837 0.93601 0.0
C1315 C 0.28734 0.87141 0.94253 0.0
C1316 C 0.24464 0.91939 0.9637 0.0
H1317 H 0.24252 0.0205 0.98917 0.0
H1318 H 0.24264 0.98587 0.96996 0.0
H1319 H 0.2267 0.9521 0.97303 0.0
H1320 H 0.24181 0.8397 0.94954 0.0
H1321 H 0.23499 0.87663 0.966 0.0
H1322 H 0.29383 0.89416 0.98327 0.0
C1323 C 0.24697 0.98511 0.98916 0.0
C1324 C 0.24144 0.93958 0.97521 0.0
C1325 C 0.24687 0.0049 1.00013 0.0
C1326 C 0.25468 0.84835 0.9475 0.0
C1327 C 0.2507 0.86958 0.95665 0.0
C1328 C 0.27918 0.90672 0.98066 0.0
C1329 C 0.25393 0.9645 1.00232 0.0
C1330 C 0.25701 0.94335 0.98977 0.0
C1331 C 0.26711 0.88116 0.95463 0.0
C1332 C 0.26358 0.90278 0.96631 0.0
H1333 H 0.26428 0.98292 0.057 0.0
H1334 H 0.26441 0.94853 0.03799 0.0
H1335 H 0.28837 0.92928 1.00305 0.0
H1336 H 0.30722 0.84298 0.92466 0.0
H1337 H 0.30022 0.88006 0.94045 0.0
C1338 C 0.1238 0.27362 0.97883 0.0
C1339 C 0.13186 0.26284 1.00126 0.0
C1340 C 0.13764 0.27533 0.9569 0.0
C1341 C 0.19175 0.24983 0.92691 0.0
H1342 H 0.18491 0.30502 0.88561 0.0
C1343 C 0.25707 0.26425 0.84935 0.0
C1344 C 0.25073 0.27471 0.82613 0.0
C1345 C 0.24203 0.26367 0.87022 0.0
C1346 C 0.18688 0.28942 0.89678 0.0
H1347 H 0.16103 0.24571 0.01802 0.0
H1348 H 0.18498 0.24857 0.97995 0.0
H1349 H 0.15956 0.30208 0.92282 0.0
H1350 H 0.22342 0.29206 0.8063 0.0
H1351 H 0.19684 0.29091 0.8429 0.0
H1352 H 0.219 0.23713 0.90105 0.0
C1353 C 0.1679 0.25543 0.97919 0.0
C1354 C 0.17236 0.28773 0.9181 0.0
C1355 C 0.15411 0.25375 1.00109 0.0
C1356 C 0.22881 0.28422 0.82412 0.0
C1357 C 0.21365 0.28365 0.84509 0.0
C1358 C 0.20621 0.25152 0.90566 0.0
C1359 C 0.15988 0.26625 0.95681 0.0
C1360 C 0.17474 0.26796 0.93356 0.0
C1361 C 0.22009 0.27316 0.86835 0.0
C1362 C 0.20411 0.27138 0.89045 0.0
H1363 H 0.10676 0.28057 0.97811 0.0
H1364 H 0.13088 0.28352 0.9399 0.0
H1365 H 0.19383 0.23422 0.93807 0.0
H1366 H 0.2736 0.25614 0.85149 0.0
H1367 H 0.24764 0.25568 0.88788 0.0
C1368 C 0.79373 0.09305 0.95494 0.0
C1369 C 0.80728 0.07529 0.94196 0.0
C1370 C 0.78876 0.11438 0.94336 0.0
C1371 C 0.78889 0.14451 0.88037 0.0
H1372 H 0.78547 0.19553 0.91952 0.0
C1373 C 0.79496 0.22987 0.83556 0.0
C1374 C 0.78014 0.24878 0.84457 0.0
C1375 C 0.7956 0.20902 0.84755 0.0
C1376 C 0.78602 0.18146 0.90849 0.0
H1377 H 0.82649 0.0663 0.9066 0.0
H1378 H 0.81845 0.1037 0.88669 0.0
H1379 H 0.79285 0.15832 0.94015 0.0
H1380 H 0.75533 0.26096 0.87434 0.0
H1381 H 0.7567 0.22415 0.89594 0.0
H1382 H 0.78284 0.16774 0.84851 0.0
C1383 C 0.81123 0.10096 0.90568 0.0
C1384 C 0.79027 0.16013 0.92025 0.0
C1385 C 0.8161 0.07955 0.91722 0.0
C1386 C 0.76656 0.24653 0.86667 0.0
C1387 C 0.76737 0.22558 0.87899 0.0
C1388 C 0.78482 0.16582 0.86858 0.0
C1389 C 0.79738 0.11861 0.91856 0.0
C1390 C 0.79203 0.14137 0.90626 0.0
C1391 C 0.78184 0.20663 0.86936 0.0
C1392 C 0.78364 0.18444 0.88246 0.0
H1393 H 0.78693 0.09058 0.97416 0.0
H1394 H 0.77791 0.1275 0.95379 0.0
H1395 H 0.78964 0.13051 0.86915 0.0
H1396 H 0.80634 0.23101 0.81944 0.0
H1397 H 0.8073 0.1948 0.84009 0.0
C1398 C 0.97296 0.75772 0.93989 0.0
C1399 C 0.97479 0.74017 0.95857 0.0
C1400 C 0.95661 0.76173 0.9236 0.0
C1401 C 0.90284 0.7522 0.91909 0.0
H1402 H 0.91448 0.76462 0.84702 0.0
C1403 C 0.83907 0.75542 0.85029 0.0
C1404 C 0.83718 0.77167 0.83028 0.0
C1405 C 0.85629 0.75161 0.8652 0.0
C1406 C 0.91087 0.76147 0.86714 0.0
H1407 H 0.96069 0.7132 0.9748 0.0
H1408 H 0.93232 0.72011 0.9464 0.0
H1409 H 0.94359 0.75828 0.87451 0.0
H1410 H 0.85211 0.79636 0.80964 0.0
H1411 H 0.8821 0.79004 0.8359 0.0
H1412 H 0.87014 0.75565 0.91198 0.0
C1413 C 0.94349 0.73082 0.94438 0.0
C1414 C 0.92759 0.75779 0.88289 0.0
C1415 C 0.95992 0.7267 0.96049 0.0
C1416 C 0.85321 0.78367 0.82497 0.0
C1417 C 0.87041 0.77999 0.84 0.0
C1418 C 0.88613 0.75601 0.90342 0.0
C1419 C 0.94158 0.74842 0.92579 0.0
C1420 C 0.92379 0.75294 0.90902 0.0
C1421 C 0.87205 0.76406 0.86052 0.0
C1422 C 0.88992 0.76052 0.87719 0.0
H1423 H 0.98426 0.76827 0.93776 0.0
H1424 H 0.9555 0.7755 0.90958 0.0
H1425 H 0.89929 0.7489 0.93921 0.0
H1426 H 0.82749 0.74533 0.85418 0.0
H1427 H 0.8573 0.73875 0.88031 0.0
C1428 C 0.11491 0.31566 0.11734 0.0
C1429 C 0.09406 0.31594 0.12873 0.0
C1430 C 0.13127 0.31735 0.13196 0.0
C1431 C 0.14541 0.30824 0.1987 0.0
H1432 H 0.19164 0.33643 0.17307 0.0
C1433 C 0.21175 0.3154 0.26117 0.0
C1434 C 0.233 0.31123 0.2497 0.0
C1435 C 0.19438 0.31753 0.24663 0.0
C1436 C 0.17893 0.32833 0.18047 0.0
H1437 H 0.07388 0.31953 0.16429 0.0
H1438 H 0.10206 0.3231 0.18949 0.0
H1439 H 0.16217 0.33815 0.14724 0.0
H1440 H 0.25242 0.3054 0.21381 0.0
H1441 H 0.22234 0.3094 0.18861 0.0
H1442 H 0.16219 0.29837 0.23189 0.0
C1443 C 0.10604 0.32091 0.16941 0.0
C1444 C 0.162 0.3293 0.16561 0.0
C1445 C 0.08976 0.3191 0.15486 0.0
C1446 C 0.23634 0.30921 0.22331 0.0
C1447 C 0.21901 0.31146 0.20878 0.0
C1448 C 0.16228 0.30736 0.21359 0.0
C1449 C 0.12719 0.31948 0.15834 0.0
C1450 C 0.145 0.31918 0.17444 0.0
C1451 C 0.19777 0.31558 0.2202 0.0
C1452 C 0.17936 0.31727 0.20465 0.0
H1453 H 0.11888 0.31307 0.09733 0.0
H1454 H 0.14733 0.31601 0.1227 0.0
H1455 H 0.13293 0.29983 0.20605 0.0
H1456 H 0.20849 0.31701 0.28143 0.0
H1457 H 0.17825 0.32088 0.25608 0.0
C1458 C 0.08179 0.7733 0.95746 0.0
C1459 C 0.07851 0.7842 0.98029 0.0
C1460 C 0.09983 0.77403 0.94008 0.0
C1461 C 0.14114 0.80583 0.91927 0.0
H1462 H 0.17732 0.74986 0.89716 0.0
C1463 C 0.21597 0.79992 0.84449 0.0
C1464 C 0.23506 0.78549 0.8517 0.0
C1465 C 0.19608 0.79969 0.85834 0.0
C1466 C 0.16734 0.76564 0.90307 0.0
H1467 H 0.09143 0.80504 1.00212 0.0
H1468 H 0.12225 0.80706 0.97142 0.0
H1469 H 0.1437 0.75028 0.92406 0.0
H1470 H 0.24844 0.7612 0.88057 0.0
H1471 H 0.2137 0.75998 0.90409 0.0
H1472 H 0.1647 0.8212 0.89813 0.0
C1473 C 0.11103 0.79771 0.96709 0.0
C1474 C 0.148 0.7659 0.91838 0.0
C1475 C 0.09331 0.79655 0.98471 0.0
C1476 C 0.23388 0.77151 0.87367 0.0
C1477 C 0.21398 0.771 0.88728 0.0
C1478 C 0.16022 0.80562 0.90349 0.0
C1479 C 0.11482 0.7861 0.94475 0.0
C1480 C 0.13474 0.78598 0.927 0.0
C1481 C 0.19479 0.78519 0.87993 0.0
C1482 C 0.17376 0.7855 0.89543 0.0
H1483 H 0.07092 0.7634 0.9535 0.0
H1484 H 0.10215 0.76498 0.92303 0.0
H1485 H 0.13133 0.8216 0.92545 0.0
H1486 H 0.21647 0.81158 0.82831 0.0
H1487 H 0.18168 0.81096 0.85223 0.0
C1488 C 0.31012 0.12208 0.01785 0.0
C1489 C 0.31335 0.09889 0.01814 0.0
C1490 C 0.31621 0.13411 0.99616 0.0
C1491 C 0.32204 0.13271 0.92745 0.0
H1492 H 0.34453 0.18482 0.93114 0.0
C1493 C 0.32713 0.19661 0.84162 0.0
C1494 C 0.31979 0.21901 0.84759 0.0
C1495 C 0.33065 0.17967 0.86091 0.0
C1496 C 0.33819 0.17036 0.92975 0.0
H1497 H 0.32607 0.06996 0.99612 0.0
H1498 H 0.33656 0.09117 0.95772 0.0
H1499 H 0.34389 0.1589 0.96797 0.0
H1500 H 0.30993 0.2409 0.87876 0.0
H1501 H 0.31621 0.21179 0.91189 0.0
H1502 H 0.31551 0.14471 0.88951 0.0
C1503 C 0.3294 0.09996 0.97449 0.0
C1504 C 0.3379 0.15546 0.95085 0.0
C1505 C 0.3236 0.08781 0.99649 0.0
C1506 C 0.31615 0.224 0.87326 0.0
C1507 C 0.31975 0.2072 0.8924 0.0
C1508 C 0.32226 0.1477 0.90629 0.0
C1509 C 0.32543 0.1233 0.97399 0.0
C1510 C 0.32923 0.13681 0.95023 0.0
C1511 C 0.327 0.18479 0.88657 0.0
C1512 C 0.32972 0.16709 0.90747 0.0
H1513 H 0.30221 0.13107 0.03423 0.0
H1514 H 0.31268 0.15205 0.99639 0.0
H1515 H 0.3151 0.1186 0.92641 0.0
H1516 H 0.33002 0.19211 0.82208 0.0
H1517 H 0.33627 0.16258 0.85575 0.0
C1518 C 1.02118 0.2801 1.00214 0.0
C1519 C 0.0252 0.29677 0.01606 0.0
C1520 C 1.00521 0.28493 0.98546 0.0
C1521 C 0.95485 0.32556 0.9721 0.0
H1522 H 0.96146 0.29246 0.91176 0.0
C1523 C 0.88627 0.33839 0.90719 0.0
C1524 C 0.88113 0.31892 0.90057 0.0
C1525 C 0.90545 0.33745 0.91775 0.0
C1526 C 0.95931 0.30178 0.92858 0.0
H1527 H 1.01571 0.33188 0.02272 0.0
H1528 H 0.98771 0.3405 0.99314 0.0
H1529 H 0.99195 0.2886 0.93655 0.0
H1530 H 0.89289 0.28332 0.89848 0.0
H1531 H 0.9266 0.28166 0.91662 0.0
H1532 H 0.92214 0.3386 0.96418 0.0
C1533 C 0.99691 0.32353 0.99548 0.0
C1534 C 0.9768 0.29956 0.94287 0.0
C1535 C 1.01305 0.31865 0.01232 0.0
C1536 C 0.8964 0.29864 0.90317 0.0
C1537 C 0.91569 0.29771 0.91368 0.0
C1538 C 0.93739 0.32788 0.9577 0.0
C1539 C 0.99267 0.30665 0.98196 0.0
C1540 C 0.97473 0.31106 0.96515 0.0
C1541 C 0.92014 0.31703 0.92185 0.0
C1542 C 0.93927 0.31574 0.93598 0.0
H1543 H 0.03017 0.26303 1.00442 0.0
H1544 H 1.00229 0.27136 0.97588 0.0
H1545 H 0.95247 0.33447 0.98926 0.0
H1546 H 0.87505 0.35436 0.90504 0.0
H1547 H 0.90855 0.35272 0.92325 0.0
C1548 C 0.79147 0.93528 0.96376 0.0
C1549 C 0.78113 0.95791 0.96444 0.0
C1550 C 0.78579 0.92165 0.94741 0.0
C1551 C 0.765 0.92391 0.88612 0.0
H1552 H 0.76502 0.86224 0.90475 0.0
C1553 C 0.75918 0.86179 0.81242 0.0
C1554 C 0.77243 0.84035 0.81512 0.0
C1555 C 0.75662 0.87685 0.83142 0.0
C1556 C 0.76508 0.87939 0.89918 0.0
H1557 H 0.7562 0.98394 0.94903 0.0
H1558 H 0.74634 0.96 0.91991 0.0
H1559 H 0.76574 0.88731 0.93747 0.0
H1560 H 0.79483 0.81852 0.83877 0.0
H1561 H 0.79056 0.84458 0.87175 0.0
H1562 H 0.76516 0.9158 0.84771 0.0
C1563 C 0.75884 0.95286 0.93224 0.0
C1564 C 0.76539 0.89378 0.91796 0.0
C1565 C 0.76434 0.9665 0.94902 0.0
C1566 C 0.78386 0.83459 0.83659 0.0
C1567 C 0.78137 0.84959 0.85554 0.0
C1568 C 0.76478 0.90946 0.86728 0.0
C1569 C 0.76976 0.93033 0.93101 0.0
C1570 C 0.7659 0.91608 0.91161 0.0
C1571 C 0.7676 0.87088 0.85332 0.0
C1572 C 0.76539 0.88687 0.8735 0.0
H1573 H 0.80447 0.92816 0.97543 0.0
H1574 H 0.79471 0.90449 0.9468 0.0
H1575 H 0.7656 0.94093 0.88056 0.0
H1576 H 0.75051 0.86677 0.79577 0.0
H1577 H 0.74589 0.89308 0.82906 0.0
C1578 C 0.98349 0.75515 0.10712 0.0
C1579 C 0.98139 0.7671 0.08359 0.0
C1580 C 0.96653 0.75805 0.12635 0.0
C1581 C 0.91247 0.79369 0.1477 0.0
H1582 H 0.90775 0.73999 0.1882 0.0
C1583 C 0.84051 0.7899 0.22471 0.0
C1584 C 0.84607 0.7788 0.248 0.0
C1585 C 0.8558 0.7886 0.20346 0.0
C1586 C 0.90885 0.75521 0.17724 0.0
H1587 H 0.95975 0.79208 0.06214 0.0
H1588 H 0.92974 0.79707 0.09575 0.0
H1589 H 0.93634 0.73854 0.15406 0.0
H1590 H 0.87224 0.75794 0.26718 0.0
H1591 H 0.89872 0.75528 0.23027 0.0
H1592 H 0.88461 0.81019 0.17099 0.0
C1593 C 0.94477 0.78559 0.09948 0.0
C1594 C 0.92542 0.75444 0.1576 0.0
C1595 C 0.96202 0.78284 0.08017 0.0
C1596 C 0.8673 0.76637 0.24943 0.0
C1597 C 0.88249 0.76482 0.22819 0.0
C1598 C 0.89572 0.79441 0.16733 0.0
C1599 C 0.94657 0.77272 0.12267 0.0
C1600 C 0.92785 0.77372 0.14274 0.0
C1601 C 0.8771 0.77612 0.20491 0.0
C1602 C 0.89388 0.77524 0.18268 0.0
H1603 H 0.99822 0.74296 0.11047 0.0
H1604 H 0.96905 0.74836 0.14406 0.0
H1605 H 0.91369 0.80894 0.13691 0.0
H1606 H 0.82457 0.80016 0.22301 0.0
H1607 H 0.85096 0.79746 0.1859 0.0
C1608 C 0.28524 0.97992 0.11522 0.0
C1609 C 0.30021 0.99313 0.11438 0.0
C1610 C 0.28912 0.95882 0.12741 0.0
C1611 C 0.33035 0.91372 0.15653 0.0
H1612 H 0.27937 0.89991 0.19344 0.0
C1613 C 0.32929 0.82671 0.20673 0.0
C1614 C 0.31648 0.82641 0.22986 0.0
C1615 C 0.32881 0.84672 0.19221 0.0
C1616 C 0.29388 0.90348 0.18355 0.0
H1617 H 0.33147 0.99427 0.1247 0.0
H1618 H 0.33808 0.95735 0.14708 0.0
H1619 H 0.27657 0.93502 0.16947 0.0
H1620 H 0.29204 0.84674 0.25479 0.0
H1621 H 0.2918 0.88133 0.23059 0.0
H1622 H 0.34773 0.88226 0.17169 0.0
C1623 C 0.32343 0.96324 0.13785 0.0
C1624 C 0.29221 0.9236 0.16933 0.0
C1625 C 0.31967 0.98439 0.12511 0.0
C1626 C 0.30264 0.84636 0.23764 0.0
C1627 C 0.30227 0.86628 0.22338 0.0
C1628 C 0.33207 0.89353 0.17103 0.0
C1629 C 0.30789 0.95043 0.13972 0.0
C1630 C 0.31033 0.92899 0.15537 0.0
C1631 C 0.31523 0.8668 0.20037 0.0
C1632 C 0.31381 0.88814 0.18473 0.0
H1633 H 0.27027 0.98605 0.10666 0.0
H1634 H 0.2771 0.94924 0.12755 0.0
H1635 H 0.34465 0.91722 0.14599 0.0
H1636 H 0.33982 0.81149 0.2 0.0
H1637 H 0.33875 0.84635 0.17439 0.0
C1638 C 0.76004 0.06764 0.06188 0.0
C1639 C 0.78128 0.05487 0.05895 0.0
C1640 C 0.754 0.08378 0.08009 0.0
C1641 C 0.77235 0.10234 0.13731 0.0
H1642 H 0.74288 0.1613 0.11389 0.0
C1643 C 0.7819 0.18262 0.17753 0.0
C1644 C 0.76424 0.20105 0.17885 0.0
C1645 C 0.78037 0.16307 0.1672 0.0
C1646 C 0.75079 0.14487 0.12097 0.0
H1647 H 0.81248 0.0482 0.07366 0.0
H1648 H 0.80213 0.07596 0.10482 0.0
H1649 H 0.74591 0.12993 0.08785 0.0
H1650 H 0.73062 0.21268 0.1722 0.0
H1651 H 0.72803 0.17867 0.15408 0.0
H1652 H 0.77802 0.11744 0.16992 0.0
C1653 C 0.79 0.07369 0.09338 0.0
C1654 C 0.75247 0.12685 0.10603 0.0
C1655 C 0.79601 0.05787 0.07522 0.0
C1656 C 0.74467 0.19896 0.17099 0.0
C1657 C 0.74317 0.17948 0.16058 0.0
C1658 C 0.77076 0.12035 0.15216 0.0
C1659 C 0.76904 0.08713 0.09587 0.0
C1660 C 0.76384 0.10546 0.11366 0.0
C1661 C 0.76116 0.16151 0.15794 0.0
C1662 C 0.76046 0.14193 0.14387 0.0
H1663 H 0.74836 0.06568 0.0496 0.0
H1664 H 0.73768 0.09381 0.08162 0.0
H1665 H 0.78085 0.086 0.14401 0.0
H1666 H 0.79725 0.1837 0.18317 0.0
H1667 H 0.7946 0.14961 0.16527 0.0
C1668 C 0.59927 0.5812 0.8562 0.0
C1669 C 0.57835 0.58838 0.86813 0.0
C1670 C 0.61385 0.59495 0.85412 0.0
C1671 C 0.62371 0.6435 0.88294 0.0
H1672 H 0.65901 0.65087 0.82038 0.0
C1673 C 0.66414 0.71642 0.86576 0.0
C1674 C 0.68578 0.71219 0.85575 0.0
C1675 C 0.65231 0.70031 0.86599 0.0
C1676 C 0.64944 0.64878 0.83806 0.0
H1677 H 0.55632 0.61613 0.88642 0.0
H1678 H 0.58151 0.63975 0.88297 0.0
H1679 H 0.63628 0.62409 0.82372 0.0
H1680 H 0.71168 0.68794 0.83709 0.0
H1681 H 0.69083 0.65964 0.83737 0.0
H1682 H 0.63654 0.66825 0.89725 0.0
C1683 C 0.58688 0.62333 0.87568 0.0
C1684 C 0.63644 0.63343 0.83999 0.0
C1685 C 0.57238 0.60969 0.87771 0.0
C1686 C 0.69503 0.69173 0.84488 0.0
C1687 C 0.6831 0.67553 0.84508 0.0
C1688 C 0.6366 0.65879 0.881 0.0
C1689 C 0.60784 0.61614 0.86401 0.0
C1690 C 0.62311 0.63094 0.86233 0.0
C1691 C 0.66174 0.67949 0.85617 0.0
C1692 C 0.64931 0.66196 0.8584 0.0
H1693 H 0.60448 0.56487 0.84874 0.0
H1694 H 0.62992 0.58885 0.84516 0.0
H1695 H 0.61407 0.64162 0.90063 0.0
H1696 H 0.65636 0.73219 0.87372 0.0
H1697 H 0.63573 0.70413 0.87407 0.0
C1698 C 0.48316 0.59533 0.80975 0.0
C1699 C 0.48187 0.57443 0.80247 0.0
C1700 C 0.46555 0.61359 0.8087 0.0
C1701 C 0.41369 0.63607 0.78158 0.0
H1702 H 0.39836 0.66801 0.84314 0.0
C1703 C 0.33325 0.70209 0.79762 0.0
C1704 C 0.33343 0.72102 0.81037 0.0
C1705 C 0.35123 0.68408 0.79622 0.0
C1706 C 0.4025 0.65958 0.82561 0.0
H1707 H 0.46138 0.55681 0.78694 0.0
H1708 H 0.43078 0.58882 0.78474 0.0
H1709 H 0.43051 0.63796 0.83967 0.0
H1710 H 0.35262 0.73534 0.83241 0.0
H1711 H 0.38399 0.70459 0.82917 0.0
H1712 H 0.38589 0.65791 0.7673 0.0
C1713 C 0.4454 0.59099 0.79142 0.0
C1714 C 0.42099 0.64227 0.82366 0.0
C1715 C 0.46295 0.57263 0.79271 0.0
C1716 C 0.35189 0.72123 0.82214 0.0
C1717 C 0.3699 0.70337 0.82052 0.0
C1718 C 0.39529 0.6536 0.7834 0.0
C1719 C 0.44628 0.61152 0.8001 0.0
C1720 C 0.42683 0.6303 0.80164 0.0
C1721 C 0.36993 0.68454 0.80744 0.0
C1722 C 0.38941 0.66562 0.80547 0.0
H1723 H 0.49744 0.59739 0.81736 0.0
H1724 H 0.46685 0.62927 0.81516 0.0
H1725 H 0.41783 0.62725 0.7643 0.0
H1726 H 0.31932 0.70122 0.78842 0.0
H1727 H 0.3504 0.66975 0.7864 0.0
C1728 C 0.47803 0.46173 0.88211 0.0
C1729 C 0.48513 0.47476 0.86162 0.0
C1730 C 0.4656 0.44683 0.87843 0.0
C1731 C 0.42913 0.43681 0.83412 0.0
H1732 H 0.43409 0.38063 0.87316 0.0
C1733 C 0.37375 0.37839 0.82273 0.0
C1734 C 0.36424 0.37045 0.84554 0.0
C1735 C 0.39092 0.38856 0.82281 0.0
C1736 C 0.43248 0.3963 0.86217 0.0
H1737 H 0.48491 0.48187 0.82102 0.0
H1738 H 0.46376 0.45557 0.81457 0.0
H1739 H 0.45972 0.40323 0.87676 0.0
H1740 H 0.36604 0.36585 0.88612 0.0
H1741 H 0.39582 0.38372 0.88631 0.0
H1742 H 0.40171 0.43006 0.81982 0.0
C1743 C 0.46754 0.45711 0.83357 0.0
C1744 C 0.44713 0.40928 0.86427 0.0
C1745 C 0.47993 0.47204 0.83725 0.0
C1746 C 0.37287 0.37204 0.86827 0.0
C1747 C 0.39008 0.38208 0.86834 0.0
C1748 C 0.41453 0.42381 0.83196 0.0
C1749 C 0.45997 0.44453 0.85416 0.0
C1750 C 0.44544 0.42986 0.85056 0.0
C1751 C 0.39904 0.39086 0.84568 0.0
C1752 C 0.41583 0.40356 0.84624 0.0
H1753 H 0.48192 0.46313 0.90108 0.0
H1754 H 0.45989 0.43758 0.89478 0.0
H1755 H 0.42712 0.4527 0.82356 0.0
H1756 H 0.3674 0.37749 0.80493 0.0
H1757 H 0.39764 0.39493 0.80501 0.0
C1758 C 0.59537 0.47759 0.80605 0.0
C1759 C 0.58628 0.48005 0.83123 0.0
C1760 C 0.61238 0.4593 0.79981 0.0
C1761 C 0.63845 0.40243 0.82406 0.0
H1762 H 0.68945 0.41169 0.78297 0.0
C1763 C 0.73411 0.35745 0.80765 0.0
C1764 C 0.7335 0.33518 0.80542 0.0
C1765 C 0.71536 0.37438 0.80785 0.0
C1766 C 0.67532 0.40881 0.7945 0.0
H1767 H 0.58791 0.46501 0.86949 0.0
H1768 H 0.61714 0.4336 0.85867 0.0
H1769 H 0.65791 0.44262 0.78843 0.0
H1770 H 0.71246 0.31343 0.80134 0.0
H1771 H 0.67959 0.3431 0.80176 0.0
H1772 H 0.65602 0.36889 0.8309 0.0
C1773 C 0.61116 0.44555 0.84364 0.0
C1774 C 0.65716 0.4265 0.79737 0.0
C1775 C 0.59444 0.46377 0.84987 0.0
C1776 C 0.71354 0.33034 0.80328 0.0
C1777 C 0.69469 0.34735 0.80357 0.0
C1778 C 0.65655 0.38475 0.82111 0.0
C1779 C 0.62039 0.443 0.81859 0.0
C1780 C 0.63868 0.42365 0.8127 0.0
C1781 C 0.69538 0.36962 0.80579 0.0
C1782 C 0.6754 0.38782 0.80676 0.0
H1783 H 0.58947 0.48982 0.79125 0.0
H1784 H 0.61914 0.45779 0.78029 0.0
H1785 H 0.62438 0.39958 0.83573 0.0
H1786 H 0.74915 0.36198 0.8089 0.0
H1787 H 0.71652 0.39124 0.80996 0.0
C1788 C 0.61489 0.47851 0.28984 0.0
C1789 C 0.61178 0.48409 0.26414 0.0
C1790 C 0.63284 0.46194 0.29677 0.0
C1791 C 0.68718 0.43207 0.26978 0.0
H1792 H 0.68211 0.38568 0.32171 0.0
C1793 C 0.74732 0.34721 0.27088 0.0
C1794 C 0.75431 0.33729 0.29401 0.0
C1795 C 0.73096 0.36662 0.27018 0.0
C1796 C 0.68386 0.3987 0.30739 0.0
H1797 H 0.62503 0.47616 0.22571 0.0
H1798 H 0.65553 0.44771 0.23764 0.0
H1799 H 0.65124 0.41703 0.31565 0.0
H1800 H 0.74997 0.33996 0.33463 0.0
H1801 H 0.72103 0.37408 0.33352 0.0
H1802 H 0.71943 0.41352 0.26089 0.0
C1803 C 0.64458 0.45627 0.25256 0.0
C1804 C 0.66618 0.41669 0.30395 0.0
C1805 C 0.62685 0.47261 0.24572 0.0
C1806 C 0.74488 0.34739 0.31653 0.0
C1807 C 0.72824 0.36676 0.31589 0.0
C1808 C 0.7047 0.41412 0.2731 0.0
C1809 C 0.64804 0.45078 0.27812 0.0
C1810 C 0.66744 0.43329 0.28458 0.0
C1811 C 0.72105 0.37657 0.29267 0.0
C1812 C 0.70313 0.3969 0.29148 0.0
H1813 H 0.60358 0.48697 0.30452 0.0
H1814 H 0.63499 0.45811 0.31666 0.0
H1815 H 0.68897 0.44481 0.25512 0.0
H1816 H 0.75459 0.34003 0.25324 0.0
H1817 H 0.72576 0.37362 0.25198 0.0
C1818 C 0.61294 0.59288 0.24781 0.0
C1819 C 0.60794 0.58879 0.22383 0.0
C1820 C 0.62715 0.60625 0.25013 0.0
C1821 C 0.64948 0.65094 0.2163 0.0
H1822 H 0.68835 0.6374 0.26914 0.0
C1823 C 0.70355 0.70939 0.23346 0.0
C1824 C 0.7029 0.71439 0.25887 0.0
C1825 C 0.69516 0.6919 0.22725 0.0
C1826 C 0.67755 0.64144 0.25433 0.0
H1827 H 0.61448 0.59528 0.18345 0.0
H1828 H 0.6393 0.61871 0.18751 0.0
H1829 H 0.66754 0.6109 0.26167 0.0
H1830 H 0.69408 0.70425 0.29772 0.0
H1831 H 0.67937 0.67391 0.28696 0.0
H1832 H 0.65918 0.68168 0.20931 0.0
C1833 C 0.63198 0.61171 0.20454 0.0
C1834 C 0.66559 0.62627 0.25007 0.0
C1835 C 0.61773 0.59829 0.2022 0.0
C1836 C 0.6946 0.70094 0.27796 0.0
C1837 C 0.68635 0.68341 0.27178 0.0
C1838 C 0.66148 0.6661 0.22053 0.0
C1839 C 0.63678 0.61593 0.22856 0.0
C1840 C 0.65107 0.63103 0.23135 0.0
C1841 C 0.68614 0.67894 0.24634 0.0
C1842 C 0.67533 0.66173 0.23994 0.0
H1843 H 0.60545 0.58626 0.26493 0.0
H1844 H 0.63011 0.6095 0.26895 0.0
H1845 H 0.63829 0.65526 0.20191 0.0
H1846 H 0.70976 0.71954 0.21835 0.0
H1847 H 0.69543 0.68873 0.20749 0.0
C1848 C 0.50484 0.60072 0.28083 0.0
C1849 C 0.50005 0.58235 0.27093 0.0
C1850 C 0.48889 0.62053 0.28401 0.0
C1851 C 0.43766 0.64917 0.25751 0.0
H1852 H 0.43123 0.6905 0.31025 0.0
C1853 C 0.36169 0.71828 0.27369 0.0
C1854 C 0.36363 0.74002 0.27663 0.0
C1855 C 0.37952 0.70034 0.27367 0.0
C1856 C 0.43303 0.67921 0.29525 0.0
H1857 H 0.47468 0.56964 0.25847 0.0
H1858 H 0.44682 0.6034 0.2652 0.0
H1859 H 0.45959 0.65601 0.31088 0.0
H1860 H 0.38616 0.75955 0.28287 0.0
H1861 H 0.41755 0.7278 0.28316 0.0
H1862 H 0.41098 0.67194 0.24215 0.0
C1863 C 0.46291 0.60308 0.2696 0.0
C1864 C 0.44925 0.65943 0.29561 0.0
C1865 C 0.47882 0.58357 0.26609 0.0
C1866 C 0.38404 0.74313 0.28023 0.0
C1867 C 0.40201 0.72495 0.28055 0.0
C1868 C 0.42148 0.66871 0.25727 0.0
C1869 C 0.46788 0.62221 0.27748 0.0
C1870 C 0.45148 0.64391 0.27699 0.0
C1871 C 0.39993 0.70337 0.27698 0.0
C1872 C 0.41869 0.6838 0.27632 0.0
H1873 H 0.52118 0.60032 0.28434 0.0
H1874 H 0.49334 0.63486 0.29015 0.0
H1875 H 0.43927 0.63811 0.24232 0.0
H1876 H 0.34628 0.71487 0.27181 0.0
H1877 H 0.37723 0.6839 0.27142 0.0
C1878 C 0.51147 0.46331 0.21 0.0
C1879 C 0.50845 0.48107 0.22583 0.0
C1880 C 0.49651 0.45019 0.21147 0.0
C1881 C 0.45098 0.43477 0.25234 0.0
H1882 H 0.43885 0.41533 0.18924 0.0
C1883 C 0.38209 0.3902 0.24274 0.0
C1884 C 0.38725 0.37247 0.22653 0.0
C1885 C 0.39675 0.40334 0.24453 0.0
C1886 C 0.44219 0.42044 0.20707 0.0
H1887 H 0.48729 0.49885 0.25579 0.0
H1888 H 0.46091 0.4761 0.25817 0.0
H1889 H 0.46424 0.4387 0.18856 0.0
H1890 H 0.41248 0.35376 0.20087 0.0
H1891 H 0.43779 0.37667 0.2038 0.0
H1892 H 0.42853 0.41659 0.2707 0.0
C1893 C 0.47509 0.4721 0.24485 0.0
C1894 C 0.45681 0.43383 0.2067 0.0
C1895 C 0.49019 0.48517 0.24348 0.0
C1896 C 0.40773 0.36763 0.21303 0.0
C1897 C 0.42227 0.38076 0.21472 0.0
C1898 C 0.43618 0.42144 0.25268 0.0
C1899 C 0.47796 0.45454 0.22869 0.0
C1900 C 0.46165 0.44096 0.22933 0.0
C1901 C 0.41683 0.39903 0.23008 0.0
C1902 C 0.43184 0.4139 0.23005 0.0
H1903 H 0.52556 0.4594 0.19657 0.0
H1904 H 0.49958 0.43649 0.19915 0.0
H1905 H 0.45441 0.43979 0.27015 0.0
H1906 H 0.36643 0.39446 0.25331 0.0
H1907 H 0.39207 0.41734 0.25649 0.0
C1908 C 0.82998 0.59237 0.64602 0.0
C1909 C 0.81923 0.5969 0.62392 0.0
C1910 C 0.83059 0.60954 0.66124 0.0
C1911 C 0.81923 0.67146 0.66369 0.0
H1912 H 0.81044 0.658 0.73593 0.0
C1913 C 0.79124 0.73889 0.73781 0.0
C1914 C 0.80119 0.73508 0.76048 0.0
C1915 C 0.7957 0.72253 0.72004 0.0
C1916 C 0.81319 0.662 0.71584 0.0
H1917 H 0.80142 0.62328 0.59996 0.0
H1918 H 0.80208 0.6531 0.62668 0.0
H1919 H 0.81469 0.62875 0.70679 0.0
H1920 H 0.82275 0.71093 0.78291 0.0
H1921 H 0.83057 0.6823 0.75196 0.0
H1922 H 0.81707 0.70499 0.673 0.0
C1923 C 0.81036 0.63633 0.63215 0.0
C1924 C 0.81571 0.64516 0.69905 0.0
C1925 C 0.80992 0.61916 0.61681 0.0
C1926 C 0.8152 0.71441 0.76535 0.0
C1927 C 0.81957 0.69802 0.74769 0.0
C1928 C 0.81656 0.68838 0.68053 0.0
C1929 C 0.82026 0.6317 0.65491 0.0
C1930 C 0.81869 0.64962 0.67271 0.0
C1931 C 0.80979 0.70182 0.72487 0.0
C1932 C 0.81342 0.68384 0.70682 0.0
H1933 H 0.83748 0.57545 0.65198 0.0
H1934 H 0.83883 0.60534 0.67826 0.0
H1935 H 0.82178 0.67552 0.64359 0.0
H1936 H 0.77972 0.75428 0.73396 0.0
H1937 H 0.7876 0.72586 0.70287 0.0
C1938 C 0.47932 0.75581 0.64696 0.0
C1939 C 0.48459 0.77372 0.63161 0.0
C1940 C 0.45927 0.75803 0.66124 0.0
C1941 C 0.41163 0.79977 0.68863 0.0
H1942 H 0.38421 0.75029 0.69369 0.0
C1943 C 0.32477 0.80594 0.73896 0.0
C1944 C 0.32063 0.78701 0.75297 0.0
C1945 C 0.34436 0.80492 0.72379 0.0
C1946 C 0.39166 0.76423 0.69289 0.0
H1947 H 0.47204 0.80829 0.61985 0.0
H1948 H 0.43733 0.81213 0.64482 0.0
H1949 H 0.41865 0.74757 0.66873 0.0
H1950 H 0.33325 0.75182 0.76063 0.0
H1951 H 0.36739 0.75002 0.73502 0.0
H1952 H 0.38467 0.81635 0.71305 0.0
C1953 C 0.4489 0.79631 0.64587 0.0
C1954 C 0.41156 0.76266 0.67841 0.0
C1955 C 0.46898 0.79407 0.63142 0.0
C1956 C 0.33617 0.76686 0.75067 0.0
C1957 C 0.35571 0.7658 0.73558 0.0
C1958 C 0.39172 0.80131 0.70325 0.0
C1959 C 0.44363 0.77827 0.66092 0.0
C1960 C 0.422 0.78034 0.67609 0.0
C1961 C 0.36026 0.78481 0.72188 0.0
C1962 C 0.38139 0.78351 0.70576 0.0
H1963 H 0.49074 0.73994 0.64826 0.0
H1964 H 0.45616 0.74382 0.67288 0.0
H1965 H 0.41914 0.81369 0.68765 0.0
H1966 H 0.31288 0.82159 0.73985 0.0
H1967 H 0.34689 0.81988 0.71331 0.0
C1968 C 0.31458 0.42743 0.57178 0.0
C1969 C 0.30661 0.45043 0.574 0.0
C1970 C 0.31102 0.41234 0.59184 0.0
C1971 C 0.29938 0.40675 0.66097 0.0
H1972 H 0.2817 0.35396 0.64659 0.0
C1973 C 0.28324 0.34151 0.74087 0.0
C1974 C 0.29012 0.31902 0.73517 0.0
C1975 C 0.28312 0.35844 0.72168 0.0
C1976 C 0.28689 0.36845 0.65099 0.0
H1977 H 0.2889 0.47556 0.5993 0.0
H1978 H 0.28289 0.44914 0.63458 0.0
H1979 H 0.28623 0.38152 0.6125 0.0
H1980 H 0.30225 0.29689 0.70456 0.0
H1981 H 0.30237 0.32602 0.6716 0.0
H1982 H 0.30073 0.39341 0.6993 0.0
C1983 C 0.29182 0.44284 0.61718 0.0
C1984 C 0.28941 0.38431 0.63139 0.0
C1985 C 0.29514 0.45796 0.59694 0.0
C1986 C 0.29652 0.31394 0.70976 0.0
C1987 C 0.29654 0.33079 0.69069 0.0
C1988 C 0.29709 0.39074 0.68058 0.0
C1989 C 0.2996 0.41982 0.6148 0.0
C1990 C 0.2959 0.40355 0.63605 0.0
C1991 C 0.28999 0.35332 0.69632 0.0
C1992 C 0.29105 0.3712 0.67584 0.0
H1993 H 0.32328 0.42103 0.55433 0.0
H1994 H 0.31741 0.39475 0.58944 0.0
H1995 H 0.30455 0.42132 0.66517 0.0
H1996 H 0.27818 0.34609 0.76019 0.0
H1997 H 0.27766 0.37555 0.72679 0.0
C1998 C 0.56382 0.30026 0.56479 0.0
C1999 C 0.57195 0.28554 0.54542 0.0
C2000 C 0.57789 0.30605 0.58014 0.0
C2001 C 0.63582 0.30456 0.58442 0.0
H2002 H 0.6228 0.29481 0.6567 0.0
C2003 C 0.70159 0.27555 0.65242 0.0
C2004 C 0.69801 0.28202 0.67752 0.0
C2005 C 0.68551 0.28227 0.63588 0.0
C2006 C 0.62658 0.29808 0.63663 0.0
H2007 H 0.60101 0.26632 0.52603 0.0
H2008 H 0.62535 0.27672 0.55206 0.0
H2009 H 0.5954 0.29582 0.62805 0.0
H2010 H 0.675 0.30127 0.70477 0.0
H2011 H 0.64667 0.31322 0.67575 0.0
H2012 H 0.66719 0.30607 0.59282 0.0
C2013 C 0.60828 0.28383 0.55567 0.0
C2014 C 0.61081 0.29866 0.62017 0.0
C2015 C 0.59431 0.2778 0.54076 0.0
C2016 C 0.67826 0.29625 0.68543 0.0
C2017 C 0.66198 0.30285 0.66889 0.0
C2018 C 0.65153 0.30402 0.60084 0.0
C2019 C 0.60031 0.29755 0.57602 0.0
C2020 C 0.61548 0.30116 0.59377 0.0
C2021 C 0.66526 0.29554 0.64402 0.0
C2022 C 0.64739 0.30002 0.62711 0.0
H2023 H 0.54663 0.30621 0.56901 0.0
H2024 H 0.57122 0.31673 0.59559 0.0
H2025 H 0.63986 0.30693 0.56425 0.0
H2026 H 0.7166 0.26444 0.64588 0.0
H2027 H 0.68862 0.27603 0.61708 0.0
C2028 C 0.81986 0.51998 0.49091 0.0
C2029 C 0.8186 0.519 0.51755 0.0
C2030 C 0.82098 0.50093 0.4779 0.0
C2031 C 0.80485 0.44784 0.48764 0.0
H2032 H 0.84176 0.43131 0.42622 0.0
C2033 C 0.81608 0.36225 0.44779 0.0
C2034 C 0.81922 0.35995 0.42148 0.0
C2035 C 0.81507 0.38255 0.45789 0.0
C2036 C 0.83108 0.43589 0.44311 0.0
H2037 H 0.81866 0.49685 0.55125 0.0
H2038 H 0.82066 0.46374 0.52856 0.0
H2039 H 0.84349 0.46446 0.44709 0.0
H2040 H 0.82297 0.37754 0.38507 0.0
H2041 H 0.82079 0.41343 0.40277 0.0
H2042 H 0.7922 0.41962 0.48372 0.0
C2043 C 0.82052 0.47931 0.51776 0.0
C2044 C 0.83217 0.45483 0.45514 0.0
C2045 C 0.81958 0.49828 0.53075 0.0
C2046 C 0.82051 0.37879 0.40542 0.0
C2047 C 0.8195 0.39926 0.41559 0.0
C2048 C 0.80363 0.42909 0.47556 0.0
C2049 C 0.82068 0.48051 0.49123 0.0
C2050 C 0.81932 0.4608 0.4778 0.0
C2051 C 0.817 0.40132 0.44202 0.0
C2052 C 0.81698 0.42258 0.45337 0.0
H2053 H 0.81914 0.53564 0.48012 0.0
H2054 H 0.82107 0.50242 0.45747 0.0
H2055 H 0.79433 0.45229 0.5047 0.0
H2056 H 0.81472 0.34816 0.46072 0.0
H2057 H 0.81341 0.38329 0.47829 0.0
C2058 C 0.61648 0.79715 0.4838 0.0
C2059 C 0.61583 0.77654 0.49653 0.0
C2060 C 0.63278 0.79898 0.46427 0.0
C2061 C 0.6772 0.76327 0.42182 0.0
H2062 H 0.69336 0.81914 0.40379 0.0
C2063 C 0.75284 0.76965 0.35384 0.0
C2064 C 0.74955 0.78495 0.33286 0.0
C2065 C 0.73698 0.77 0.37425 0.0
C2066 C 0.68896 0.80343 0.40855 0.0
H2067 H 0.63243 0.74191 0.49934 0.0
H2068 H 0.66133 0.74511 0.46682 0.0
H2069 H 0.66576 0.81692 0.4387 0.0
H2070 H 0.72606 0.81188 0.3165 0.0
H2071 H 0.69849 0.81309 0.35265 0.0
H2072 H 0.70116 0.74972 0.39224 0.0
C2073 C 0.64883 0.75987 0.47069 0.0
C2074 C 0.67293 0.80211 0.42859 0.0
C2075 C 0.63227 0.75798 0.48972 0.0
C2076 C 0.72957 0.80046 0.33278 0.0
C2077 C 0.71372 0.80107 0.35345 0.0
C2078 C 0.69352 0.76451 0.40227 0.0
C2079 C 0.64929 0.78033 0.45715 0.0
C2080 C 0.66665 0.78197 0.43568 0.0
C2081 C 0.71709 0.78556 0.37429 0.0
C2082 C 0.69962 0.78459 0.39528 0.0
H2083 H 0.60394 0.81175 0.48837 0.0
H2084 H 0.632 0.81503 0.4544 0.0
H2085 H 0.67275 0.74754 0.42569 0.0
H2086 H 0.76747 0.75688 0.35425 0.0
H2087 H 0.74013 0.75774 0.38988 0.0
C2088 C 0.32372 0.60097 0.45262 0.0
C2089 C 0.31038 0.58663 0.44961 0.0
C2090 C 0.32081 0.62184 0.43959 0.0
C2091 C 0.29872 0.65316 0.38293 0.0
H2092 H 0.30184 0.70483 0.41744 0.0
C2093 C 0.31148 0.73448 0.32995 0.0
C2094 C 0.29884 0.75477 0.33853 0.0
C2095 C 0.31088 0.71444 0.34361 0.0
C2096 C 0.30073 0.69061 0.40759 0.0
H2097 H 0.28369 0.58296 0.43021 0.0
H2098 H 0.2787 0.61933 0.40728 0.0
H2099 H 0.30471 0.66894 0.44107 0.0
H2100 H 0.27672 0.76997 0.36927 0.0
H2101 H 0.2759 0.7348 0.39362 0.0
H2102 H 0.29506 0.67478 0.34937 0.0
C2103 C 0.29139 0.61443 0.41981 0.0
C2104 C 0.30259 0.66999 0.42106 0.0
C2105 C 0.29414 0.59365 0.43308 0.0
C2106 C 0.28629 0.75457 0.36187 0.0
C2107 C 0.28587 0.73446 0.37581 0.0
C2108 C 0.29711 0.67372 0.3694 0.0
C2109 C 0.30462 0.62884 0.42299 0.0
C2110 C 0.30178 0.65097 0.40886 0.0
C2111 C 0.29809 0.71413 0.36672 0.0
C2112 C 0.29828 0.69265 0.38152 0.0
H2113 H 0.33623 0.59623 0.46538 0.0
H2114 H 0.33142 0.63242 0.4423 0.0
H2115 H 0.29813 0.63885 0.37291 0.0
H2116 H 0.32213 0.7339 0.31286 0.0
H2117 H 0.32089 0.69917 0.33634 0.0
C2118 C 0.47297 0.29114 0.44382 0.0
C2119 C 0.47 0.2804 0.46777 0.0
C2120 C 0.45664 0.29553 0.42728 0.0
C2121 C 0.39845 0.30288 0.42446 0.0
H2122 H 0.41285 0.27667 0.35927 0.0
C2123 C 0.33166 0.29309 0.36526 0.0
C2124 C 0.33506 0.29354 0.33867 0.0
C2125 C 0.34836 0.29302 0.38006 0.0
C2126 C 0.40847 0.28453 0.37713 0.0
H2127 H 0.44741 0.26672 0.49355 0.0
H2128 H 0.4187 0.27532 0.46533 0.0
H2129 H 0.4412 0.27578 0.38649 0.0
H2130 H 0.35901 0.29485 0.3069 0.0
H2131 H 0.38785 0.29572 0.33252 0.0
H2132 H 0.36592 0.31216 0.41523 0.0
C2133 C 0.43365 0.28007 0.45911 0.0
C2134 C 0.42482 0.28394 0.39278 0.0
C2135 C 0.45009 0.27516 0.47529 0.0
C2136 C 0.35572 0.29424 0.32731 0.0
C2137 C 0.3724 0.29459 0.34213 0.0
C2138 C 0.38217 0.30387 0.40866 0.0
C2139 C 0.43687 0.28981 0.43468 0.0
C2140 C 0.41994 0.29274 0.41683 0.0
C2141 C 0.36902 0.29399 0.36881 0.0
C2142 C 0.38678 0.29428 0.38491 0.0
H2143 H 0.48827 0.29504 0.43738 0.0
H2144 H 0.45955 0.3031 0.40857 0.0
H2145 H 0.3942 0.30998 0.4428 0.0
H2146 H 0.31598 0.29299 0.37482 0.0
H2147 H 0.34495 0.29205 0.40043 0.0
C2148 C 0.6011 0.81292 0.62781 0.0
C2149 C 0.59827 0.79164 0.62426 0.0
C2150 C 0.61698 0.81546 0.64268 0.0
C2151 C 0.66826 0.78365 0.66573 0.0
H2152 H 0.65954 0.82987 0.71325 0.0
C2153 C 0.73839 0.79637 0.71617 0.0
C2154 C 0.73457 0.79981 0.74224 0.0
C2155 C 0.72137 0.79755 0.70157 0.0
C2156 C 0.66219 0.81682 0.70012 0.0
H2157 H 0.60939 0.75648 0.63438 0.0
H2158 H 0.63665 0.76094 0.66021 0.0
H2159 H 0.63017 0.82762 0.68869 0.0
H2160 H 0.70961 0.80757 0.77326 0.0
H2161 H 0.67987 0.80927 0.74778 0.0
H2162 H 0.69997 0.77245 0.67737 0.0
C2163 C 0.62699 0.77565 0.65118 0.0
C2164 C 0.64543 0.81567 0.68588 0.0
C2165 C 0.61123 0.77312 0.63643 0.0
C2166 C 0.71318 0.80486 0.75324 0.0
C2167 C 0.69609 0.80598 0.73858 0.0
C2168 C 0.68495 0.78482 0.67985 0.0
C2169 C 0.63036 0.79678 0.65419 0.0
C2170 C 0.64823 0.79891 0.66869 0.0
C2171 C 0.70002 0.80202 0.71262 0.0
C2172 C 0.68215 0.80135 0.6973 0.0
H2173 H 0.59137 0.82753 0.61871 0.0
H2174 H 0.61921 0.83198 0.64456 0.0
H2175 H 0.6711 0.77071 0.65243 0.0
H2176 H 0.75458 0.79218 0.70702 0.0
H2177 H 0.72501 0.79471 0.68157 0.0
C2178 C 0.60996 0.25763 0.45128 0.0
C2179 C 0.59767 0.24394 0.44341 0.0
C2180 C 0.62956 0.25911 0.43793 0.0
C2181 C 0.66356 0.26953 0.39782 0.0
H2182 H 0.70438 0.21667 0.3742 0.0
C2183 C 0.74187 0.27415 0.33551 0.0
C2184 C 0.76064 0.2586 0.34161 0.0
C2185 C 0.72172 0.27191 0.34656 0.0
C2186 C 0.69317 0.23157 0.38077 0.0
H2187 H 0.59658 0.22101 0.4152 0.0
H2188 H 0.6309 0.22352 0.39195 0.0
H2189 H 0.66981 0.21354 0.39642 0.0
H2190 H 0.77321 0.22921 0.36498 0.0
H2191 H 0.73795 0.22525 0.38448 0.0
H2192 H 0.68702 0.28752 0.38267 0.0
C2193 C 0.62536 0.233 0.40862 0.0
C2194 C 0.67328 0.22981 0.39326 0.0
C2195 C 0.60567 0.23155 0.42196 0.0
C2196 C 0.75892 0.24115 0.35958 0.0
C2197 C 0.73875 0.23883 0.37059 0.0
C2198 C 0.68338 0.2713 0.38525 0.0
C2199 C 0.63748 0.2469 0.41637 0.0
C2200 C 0.65831 0.24875 0.40216 0.0
C2201 C 0.7199 0.25423 0.36426 0.0
C2202 C 0.6985 0.25233 0.37675 0.0
H2203 H 0.60464 0.26702 0.468 0.0
H2204 H 0.63868 0.26963 0.44475 0.0
H2205 H 0.65231 0.2845 0.40412 0.0
H2206 H 0.7427 0.28815 0.32232 0.0
H2207 H 0.70754 0.28401 0.34117 0.0
C2208 C 0.75481 0.61364 0.48055 0.0
C2209 C 0.75934 0.61831 0.5045 0.0
C2210 C 0.75956 0.62672 0.45906 0.0
C2211 C 0.79691 0.66161 0.43672 0.0
H2212 H 0.76016 0.6819 0.38244 0.0
C2213 C 0.80992 0.72965 0.3615 0.0
C2214 C 0.80439 0.72877 0.3369 0.0
C2215 C 0.80643 0.71368 0.38036 0.0
C2216 C 0.77078 0.67597 0.39722 0.0
H2217 H 0.7706 0.64131 0.52506 0.0
H2218 H 0.77879 0.66421 0.4876 0.0
H2219 H 0.7479 0.66033 0.41908 0.0
H2220 H 0.79238 0.70913 0.31235 0.0
H2221 H 0.7866 0.68103 0.34527 0.0
H2222 H 0.81974 0.67728 0.41506 0.0
C2223 C 0.77208 0.65015 0.48535 0.0
C2224 C 0.76369 0.66376 0.41824 0.0
C2225 C 0.76731 0.63714 0.50676 0.0
C2226 C 0.79675 0.71051 0.33113 0.0
C2227 C 0.79322 0.69448 0.35004 0.0
C2228 C 0.80403 0.67371 0.41571 0.0
C2229 C 0.76892 0.64464 0.46121 0.0
C2230 C 0.77655 0.65682 0.43838 0.0
C2231 C 0.79741 0.69631 0.37502 0.0
C2232 C 0.79091 0.68134 0.39592 0.0
H2233 H 0.74886 0.59913 0.47819 0.0
H2234 H 0.75697 0.62211 0.44066 0.0
H2235 H 0.80737 0.65601 0.45173 0.0
H2236 H 0.81584 0.74328 0.36667 0.0
H2237 H 0.80971 0.7157 0.39946 0.0
C2238 C 0.51445 0.84212 0.49763 0.0
C2239 C 0.51305 0.8376 0.52398 0.0
C2240 C 0.49649 0.84427 0.48432 0.0
C2241 C 0.43757 0.85102 0.48923 0.0
H2242 H 0.45143 0.81332 0.43215 0.0
C2243 C 0.38319 0.85366 0.40894 0.0
C2244 C 0.38468 0.83388 0.39702 0.0
C2245 C 0.39527 0.85377 0.42915 0.0
C2246 C 0.44719 0.82366 0.44825 0.0
H2247 H 0.49109 0.83411 0.5573 0.0
H2248 H 0.45975 0.83797 0.53397 0.0
H2249 H 0.47985 0.81701 0.45675 0.0
H2250 H 0.3982 0.79836 0.39851 0.0
H2251 H 0.41908 0.79846 0.43411 0.0
H2252 H 0.40479 0.85773 0.48042 0.0
C2253 C 0.47479 0.83966 0.52363 0.0
C2254 C 0.46356 0.8261 0.46207 0.0
C2255 C 0.4928 0.83743 0.53697 0.0
C2256 C 0.39673 0.81385 0.40734 0.0
C2257 C 0.40887 0.81396 0.42752 0.0
C2258 C 0.42112 0.84873 0.47519 0.0
C2259 C 0.47672 0.84208 0.49707 0.0
C2260 C 0.459 0.83996 0.48254 0.0
C2261 C 0.4091 0.83409 0.43776 0.0
C2262 C 0.42581 0.83507 0.45447 0.0
H2263 H 0.52972 0.84258 0.48704 0.0
H2264 H 0.4983 0.84665 0.46388 0.0
H2265 H 0.43359 0.86175 0.505 0.0
H2266 H 0.37383 0.86931 0.40148 0.0
H2267 H 0.39507 0.86954 0.43663 0.0
C2268 C 0.28321 0.48292 0.4217 0.0
C2269 C 0.2735 0.48656 0.44643 0.0
C2270 C 0.27689 0.4687 0.40669 0.0
C2271 C 0.25501 0.41951 0.41185 0.0
H2272 H 0.25475 0.43075 0.33914 0.0
C2273 C 0.251 0.37318 0.31426 0.0
C2274 C 0.26588 0.3531 0.31914 0.0
C2275 C 0.24647 0.38996 0.33144 0.0
C2276 C 0.25436 0.4274 0.35945 0.0
H2277 H 0.249 0.47873 0.47458 0.0
H2278 H 0.23798 0.45354 0.44821 0.0
H2279 H 0.25574 0.46064 0.36553 0.0
H2280 H 0.28825 0.33512 0.34538 0.0
H2281 H 0.28043 0.36422 0.37533 0.0
H2282 H 0.2541 0.38607 0.40564 0.0
C2283 C 0.25052 0.46178 0.44054 0.0
C2284 C 0.25514 0.4445 0.37455 0.0
C2285 C 0.25671 0.4763 0.45553 0.0
C2286 C 0.27617 0.35007 0.34151 0.0
C2287 C 0.27166 0.36682 0.35869 0.0
C2288 C 0.25426 0.40234 0.39671 0.0
C2289 C 0.26079 0.4576 0.41607 0.0
C2290 C 0.25614 0.44059 0.40082 0.0
C2291 C 0.25704 0.38713 0.35366 0.0
C2292 C 0.25454 0.40594 0.37025 0.0
H2293 H 0.29616 0.49062 0.41412 0.0
H2294 H 0.28533 0.46566 0.38808 0.0
H2295 H 0.25585 0.41593 0.43202 0.0
H2296 H 0.24308 0.37599 0.29696 0.0
H2297 H 0.23501 0.40533 0.32707 0.0
C2298 C 0.46086 0.25429 0.58669 0.0
C2299 C 0.48128 0.23993 0.58796 0.0
C2300 C 0.44548 0.25605 0.60759 0.0
C2301 C 0.43153 0.2279 0.66939 0.0
H2302 H 0.39588 0.28641 0.68299 0.0
C2303 C 0.37564 0.24774 0.76234 0.0
C2304 C 0.35473 0.26026 0.75919 0.0
C2305 C 0.39133 0.2446 0.74165 0.0
C2306 C 0.40559 0.26993 0.67933 0.0
H2307 H 0.50151 0.21607 0.61223 0.0
H2308 H 0.4748 0.21934 0.64887 0.0
H2309 H 0.42262 0.28193 0.64653 0.0
H2310 H 0.33453 0.28111 0.7325 0.0
H2311 H 0.36151 0.27543 0.6965 0.0
H2312 H 0.41451 0.21607 0.70256 0.0
C2313 C 0.47051 0.22897 0.63155 0.0
C2314 C 0.4209 0.26732 0.65836 0.0
C2315 C 0.48586 0.22711 0.61055 0.0
C2316 C 0.3501 0.27054 0.73534 0.0
C2317 C 0.36574 0.26758 0.71475 0.0
C2318 C 0.41627 0.23055 0.6905 0.0
C2319 C 0.45016 0.24361 0.63041 0.0
C2320 C 0.434 0.24626 0.65299 0.0
C2321 C 0.3865 0.25449 0.71762 0.0
C2322 C 0.40308 0.25159 0.69561 0.0
H2323 H 0.45669 0.26408 0.56943 0.0
H2324 H 0.42984 0.26712 0.60578 0.0
H2325 H 0.44112 0.21139 0.66568 0.0
H2326 H 0.37973 0.2401 0.78072 0.0
H2327 H 0.40729 0.23471 0.74452 0.0
C2328 C 0.76859 0.49451 0.6674 0.0
C2329 C 0.77919 0.49765 0.64332 0.0
C2330 C 0.77225 0.47354 0.68003 0.0
C2331 C 0.81079 0.41933 0.68332 0.0
H2332 H 0.76107 0.39821 0.71285 0.0
C2333 C 0.81474 0.32862 0.72396 0.0
C2334 C 0.80127 0.32628 0.74612 0.0
C2335 C 0.8136 0.34957 0.71147 0.0
C2336 C 0.77517 0.40395 0.70503 0.0
H2337 H 0.80178 0.4809 0.61359 0.0
H2338 H 0.80833 0.44454 0.63584 0.0
H2339 H 0.75604 0.43495 0.69157 0.0
H2340 H 0.77529 0.34402 0.77147 0.0
H2341 H 0.77411 0.38012 0.75109 0.0
H2342 H 0.82993 0.38829 0.69708 0.0
C2343 C 0.79739 0.4584 0.645 0.0
C2344 C 0.77225 0.425 0.69281 0.0
C2345 C 0.79362 0.47931 0.63228 0.0
C2346 C 0.78655 0.34515 0.7553 0.0
C2347 C 0.78555 0.36596 0.74315 0.0
C2348 C 0.81374 0.39825 0.69577 0.0
C2349 C 0.78667 0.4553 0.66892 0.0
C2350 C 0.79 0.43294 0.68193 0.0
C2351 C 0.79873 0.3684 0.72081 0.0
C2352 C 0.79594 0.39042 0.70691 0.0
H2353 H 0.75763 0.50827 0.67664 0.0
H2354 H 0.76392 0.47162 0.6986 0.0
H2355 H 0.82476 0.42514 0.67516 0.0
H2356 H 0.82592 0.31423 0.71616 0.0
H2357 H 0.82383 0.35088 0.69411 0.0
C2358 C 0.24946 0.57637 0.5608 0.0
C2359 C 0.27173 0.56712 0.55778 0.0
C2360 C 0.24134 0.5959 0.57377 0.0
C2361 C 0.25756 0.64472 0.59293 0.0
H2362 H 0.2168 0.64346 0.65202 0.0
C2363 C 0.25772 0.69098 0.68103 0.0
C2364 C 0.23864 0.69801 0.69674 0.0
C2365 C 0.25761 0.68028 0.659 0.0
C2366 C 0.22776 0.64444 0.63522 0.0
H2367 H 0.30288 0.57116 0.56589 0.0
H2368 H 0.2888 0.60491 0.5881 0.0
H2369 H 0.22392 0.61382 0.62259 0.0
H2370 H 0.20416 0.70116 0.70045 0.0
H2371 H 0.20398 0.6824 0.66187 0.0
H2372 H 0.26211 0.67479 0.60599 0.0
C2373 C 0.2776 0.59726 0.58041 0.0
C2374 C 0.23184 0.6274 0.6184 0.0
C2375 C 0.28563 0.57774 0.56789 0.0
C2376 C 0.21919 0.69555 0.68895 0.0
C2377 C 0.21908 0.68482 0.66688 0.0
C2378 C 0.25341 0.66178 0.60963 0.0
C2379 C 0.25543 0.60662 0.58341 0.0
C2380 C 0.24746 0.62691 0.59774 0.0
C2381 C 0.2384 0.67638 0.65213 0.0
C2382 C 0.23917 0.66132 0.63156 0.0
H2383 H 0.23837 0.56856 0.55316 0.0
H2384 H 0.22415 0.60275 0.57601 0.0
H2385 H 0.26944 0.64488 0.57686 0.0
H2386 H 0.273 0.69237 0.68661 0.0
H2387 H 0.27284 0.67376 0.64828 0.0
loop_
_geom_bond_atom_site_label_1
_geom_bond_atom_site_label_2
_geom_bond_distance
_geom_bond_site_symmetry_2
_ccdc_geom_bond_type
Cu0 N1 1.999 . S
Cu0 O6 1.991 . S
Cu0 N11 1.992 . S
Cu0 O20 1.959 1_455 S
N1 Cu0 1.999 . S
N1 C3 1.263 . S
N1 C5 1.389 . S
N2 C3 1.358 . S
N2 C4 1.400 . S
C3 N1 1.263 . S
C3 N2 1.358 . S
C3 H9 0.930 . S
C4 N2 1.400 . S
C4 C5 1.351 . S
C4 H21 0.930 . S
C5 N1 1.389 . S
C5 C4 1.351 . S
C5 H10 0.930 . S
O6 Cu0 1.991 . S
O6 C16 1.274 1_545 S
C7 O8 1.261 . S
C7 O20 1.251 . S
O8 C7 1.261 . S
H9 C3 0.930 . S
H10 C5 0.930 . S
N11 Cu0 1.992 . S
N11 C13 1.334 1_455 S
N11 C14 1.383 1_545 S
N12 C13 1.345 1_565 S
N12 C15 1.336 . S
C13 N11 1.334 1_655 S
C13 N12 1.345 1_545 S
C13 H18 0.930 . S
C14 N11 1.383 1_565 S
C14 C15 1.346 1_455 S
C14 H19 0.930 . S
C15 N12 1.336 . S
C15 C14 1.346 1_655 S
C15 H22 0.929 . S
C16 O6 1.274 1_565 S
C16 O17 1.214 1_565 S
O17 C16 1.214 1_545 S
H18 C13 0.930 . S
H19 C14 0.930 . S
O20 Cu0 1.959 1_655 S
O20 C7 1.251 . S
H21 C4 0.930 . S
H22 C15 0.929 . S
Cu23 N24 1.999 . S
Cu23 O29 1.974 1_455 S
Cu23 N34 1.985 . S
Cu23 O43 1.959 . S
N24 Cu23 1.999 . S
N24 C26 1.263 1_455 S
N24 C28 1.389 1_545 S
N25 C26 1.358 1_565 S
N25 C27 1.400 . S
C26 N24 1.263 1_655 S
C26 N25 1.358 1_545 S
C26 H32 0.930 . S
C27 N25 1.400 . S
C27 C28 1.351 1_655 S
C27 H44 0.930 . S
C28 N24 1.389 1_565 S
C28 C27 1.351 1_455 S
C28 H33 0.930 . S
O29 Cu23 1.974 1_655 S
O29 C39 1.282 . S
C30 O31 1.261 . S
C30 O43 1.251 . S
O31 C30 1.261 . S
H32 C26 0.930 . S
H33 C28 0.930 . S
N34 Cu23 1.985 . S
N34 C36 1.335 . S
N34 C37 1.390 . S
N35 C36 1.345 . S
N35 C38 1.336 . S
C36 N34 1.335 . S
C36 N35 1.345 . S
C36 H41 0.930 . S
C37 N34 1.390 . S
C37 C38 1.346 . S
C37 H42 0.930 . S
C38 N35 1.336 . S
C38 C37 1.346 . S
C38 H45 0.929 . S
C39 O29 1.282 . S
C39 O40 1.216 . S
O40 C39 1.216 . S
H41 C36 0.930 . S
H42 C37 0.930 . S
O43 Cu23 1.959 . S
O43 C30 1.251 . S
H44 C27 0.930 . S
H45 C38 0.929 . S
Cu46 N47 1.999 . S
Cu46 O52 1.974 . S
Cu46 N57 1.985 . S
Cu46 O66 1.959 . S
N47 Cu46 1.999 . S
N47 C49 1.263 . S
N47 C51 1.389 . S
N48 C49 1.358 . S
N48 C50 1.400 . S
C49 N47 1.263 . S
C49 N48 1.358 . S
C49 H55 0.930 . S
C50 N48 1.400 . S
C50 C51 1.351 . S
C50 H67 0.930 1_554 S
C51 N47 1.389 . S
C51 C50 1.351 . S
C51 H56 0.930 . S
O52 Cu46 1.974 . S
O52 C62 1.282 . S
C53 O54 1.261 . S
C53 O66 1.251 . S
O54 C53 1.261 . S
H55 C49 0.930 . S
H56 C51 0.930 . S
N57 Cu46 1.985 . S
N57 C59 1.335 . S
N57 C60 1.390 . S
N58 C59 1.345 . S
N58 C61 1.336 . S
C59 N57 1.335 . S
C59 N58 1.345 . S
C59 H64 0.930 . S
C60 N57 1.390 . S
C60 C61 1.346 . S
C60 H65 0.930 . S
C61 N58 1.336 . S
C61 C60 1.346 . S
C61 H68 0.929 . S
C62 O52 1.282 . S
C62 O63 1.216 . S
O63 C62 1.216 . S
H64 C59 0.930 . S
H65 C60 0.930 . S
O66 Cu46 1.959 . S
O66 C53 1.251 . S
H67 C50 0.930 1_556 S
H68 C61 0.929 . S
Cu69 N70 1.999 . S
Cu69 O75 1.974 . S
Cu69 N80 1.985 . S
Cu69 O89 1.959 . S
N70 Cu69 1.999 . S
N70 C72 1.263 . S
N70 C74 1.389 . S
N71 C72 1.358 . S
N71 C73 1.400 1_554 S
C72 N70 1.263 . S
C72 N71 1.358 . S
C72 H78 0.930 . S
C73 N71 1.400 1_556 S
C73 C74 1.351 1_556 S
C73 H90 0.930 . S
C74 N70 1.389 . S
C74 C73 1.351 1_554 S
C74 H79 0.930 . S
O75 Cu69 1.974 . S
O75 C85 1.282 . S
C76 O77 1.261 . S
C76 O89 1.251 . S
O77 C76 1.261 . S
H78 C72 0.930 . S
H79 C74 0.930 . S
N80 Cu69 1.985 . S
N80 C82 1.335 1_455 S
N80 C83 1.390 . S
N81 C82 1.345 . S
N81 C84 1.336 1_655 S
C82 N80 1.335 1_655 S
C82 N81 1.345 . S
C82 H87 0.930 . S
C83 N80 1.390 . S
C83 C84 1.346 . S
C83 H88 0.930 . S
C84 N81 1.336 1_455 S
C84 C83 1.346 . S
C84 H91 0.929 . S
C85 O75 1.282 . S
C85 O86 1.216 . S
O86 C85 1.216 . S
H87 C82 0.930 . S
H88 C83 0.930 . S
O89 Cu69 1.959 . S
O89 C76 1.251 . S
H90 C73 0.930 . S
H91 C84 0.929 . S
Cu92 N93 1.999 1_554 S
Cu92 O98 1.974 . S
Cu92 N103 1.985 1_545 S
Cu92 O112 1.959 1_544 S
N93 Cu92 1.999 1_556 S
N93 C95 1.263 . S
N93 C97 1.389 . S
N94 C95 1.358 . S
N94 C96 1.400 . S
C95 N93 1.263 . S
C95 N94 1.358 . S
C95 H101 0.930 . S
C96 N94 1.400 . S
C96 C97 1.351 . S
C96 H113 0.930 . S
C97 N93 1.389 . S
C97 C96 1.351 . S
C97 H102 0.930 . S
O98 Cu92 1.974 . S
O98 C108 1.282 . S
C99 O100 1.261 . S
C99 O112 1.251 . S
O100 C99 1.261 . S
H101 C95 0.930 . S
H102 C97 0.930 . S
N103 Cu92 1.985 1_565 S
N103 C105 1.335 . S
N103 C106 1.390 . S
N104 C105 1.345 . S
N104 C107 1.336 . S
C105 N103 1.335 . S
C105 N104 1.345 . S
C105 H110 0.930 . S
C106 N103 1.390 . S
C106 C107 1.346 . S
C106 H111 0.930 . S
C107 N104 1.336 . S
C107 C106 1.346 . S
C107 H114 0.929 . S
C108 O98 1.282 . S
C108 O109 1.216 . S
O109 C108 1.216 . S
H110 C105 0.930 . S
H111 C106 0.930 . S
O112 Cu92 1.959 1_566 S
O112 C99 1.251 . S
H113 C96 0.930 . S
H114 C107 0.929 . S
Cu115 N116 1.999 1_454 S
Cu115 O121 1.974 1_455 S
Cu115 N126 1.985 . S
Cu115 O135 1.959 1_554 S
N116 Cu115 1.999 1_656 S
N116 C118 1.263 . S
N116 C120 1.389 . S
N117 C118 1.358 . S
N117 C119 1.400 . S
C118 N116 1.263 . S
C118 N117 1.358 . S
C118 H124 0.930 . S
C119 N117 1.400 . S
C119 C120 1.351 . S
C119 H136 0.930 . S
C120 N116 1.389 . S
C120 C119 1.351 . S
C120 H125 0.930 1_655 S
O121 Cu115 1.974 1_655 S
O121 C131 1.282 . S
C122 O123 1.261 . S
C122 O135 1.251 . S
O123 C122 1.261 . S
H124 C118 0.930 . S
H125 C120 0.930 1_455 S
N126 Cu115 1.985 . S
N126 C128 1.335 . S
N126 C129 1.390 . S
N127 C128 1.345 . S
N127 C130 1.336 . S
C128 N126 1.335 . S
C128 N127 1.345 . S
C128 H133 0.930 . S
C129 N126 1.390 . S
C129 C130 1.346 . S
C129 H134 0.913 1_455 S
C130 N127 1.336 . S
C130 C129 1.346 . S
C130 H137 0.929 . S
C131 O121 1.282 . S
C131 O132 1.216 . S
O132 C131 1.216 . S
H133 C128 0.930 . S
H134 C129 0.913 1_655 S
O135 Cu115 1.959 1_556 S
O135 C122 1.251 . S
H136 C119 0.930 . S
H137 C130 0.929 . S
Cu138 N139 1.999 . S
Cu138 O144 1.974 . S
Cu138 N149 1.985 . S
Cu138 O158 1.959 . S
N139 Cu138 1.999 . S
N139 C141 1.263 . S
N139 C143 1.389 . S
N140 C141 1.358 . S
N140 C142 1.400 . S
C141 N139 1.263 . S
C141 N140 1.358 . S
C141 H147 0.930 . S
C142 N140 1.400 . S
C142 C143 1.351 . S
C142 H159 0.930 . S
C143 N139 1.389 . S
C143 C142 1.351 . S
C143 H148 0.930 . S
O144 Cu138 1.974 . S
O144 C154 1.282 . S
C145 O146 1.261 . S
C145 O158 1.251 . S
O146 C145 1.261 . S
H147 C141 0.930 . S
H148 C143 0.930 . S
N149 Cu138 1.985 . S
N149 C151 1.335 . S
N149 C152 1.390 . S
N150 C151 1.345 . S
N150 C153 1.336 . S
C151 N149 1.335 . S
C151 N150 1.345 . S
C151 H156 0.930 . S
C152 N149 1.390 . S
C152 C153 1.346 . S
C152 H157 0.930 . S
C153 N150 1.336 . S
C153 C152 1.346 . S
C153 H160 0.929 . S
C154 O144 1.282 . S
C154 O155 1.216 . S
O155 C154 1.216 . S
H156 C151 0.930 . S
H157 C152 0.930 . S
O158 Cu138 1.959 . S
O158 C145 1.251 . S
H159 C142 0.930 . S
H160 C153 0.929 . S
Cu161 N162 1.999 . S
Cu161 O167 1.974 . S
Cu161 N172 1.985 . S
Cu161 O181 1.959 . S
N162 Cu161 1.999 . S
N162 C164 1.263 . S
N162 C166 1.389 . S
N163 C164 1.358 . S
N163 C165 1.400 . S
C164 N162 1.263 . S
C164 N163 1.358 . S
C164 H170 0.930 . S
C165 N163 1.400 . S
C165 C166 1.351 . S
C165 H182 0.930 . S
C166 N162 1.389 . S
C166 C165 1.351 . S
C166 H171 0.930 . S
O167 Cu161 1.974 . S
O167 C177 1.282 . S
C168 O169 1.261 . S
C168 O181 1.251 . S
O169 C168 1.261 . S
H170 C164 0.930 . S
H171 C166 0.930 . S
N172 Cu161 1.985 . S
N172 C174 1.335 . S
N172 C175 1.390 . S
N173 C174 1.345 . S
N173 C176 1.336 . S
C174 N172 1.335 . S
C174 N173 1.345 . S
C174 H179 0.930 . S
C175 N172 1.390 . S
C175 C176 1.346 . S
C175 H180 0.930 . S
C176 N173 1.336 . S
C176 C175 1.346 . S
C176 H183 0.929 . S
C177 O167 1.282 . S
C177 O178 1.216 . S
O178 C177 1.216 . S
H179 C174 0.930 . S
H180 C175 0.930 . S
O181 Cu161 1.959 . S
O181 C168 1.251 . S
H182 C165 0.930 . S
H183 C176 0.929 . S
Cu184 N185 1.999 . S
Cu184 O190 1.974 . S
Cu184 N195 1.985 . S
Cu184 O204 1.959 . S
N185 Cu184 1.999 . S
N185 C187 1.263 . S
N185 C189 1.389 . S
N186 C187 1.358 . S
N186 C188 1.400 . S
C187 N185 1.263 . S
C187 N186 1.358 . S
C187 H193 0.930 . S
C188 N186 1.400 . S
C188 C189 1.351 . S
C188 H205 0.930 . S
C189 N185 1.389 . S
C189 C188 1.351 . S
C189 H194 0.930 . S
O190 Cu184 1.974 . S
O190 C200 1.282 . S
C191 O192 1.261 . S
C191 O204 1.251 . S
O192 C191 1.261 . S
H193 C187 0.930 . S
H194 C189 0.930 . S
N195 Cu184 1.985 . S
N195 C197 1.335 . S
N195 C198 1.390 . S
N196 C197 1.345 . S
N196 C199 1.336 . S
C197 N195 1.335 . S
C197 N196 1.345 . S
C197 H202 0.930 . S
C198 N195 1.390 . S
C198 C199 1.346 . S
C198 H203 0.930 . S
C199 N196 1.336 . S
C199 C198 1.346 . S
C199 H206 0.929 . S
C200 O190 1.282 . S
C200 O201 1.216 . S
O201 C200 1.216 . S
H202 C197 0.930 . S
H203 C198 0.930 . S
O204 Cu184 1.959 . S
O204 C191 1.251 . S
H205 C188 0.930 . S
H206 C199 0.929 . S
Cu207 N208 1.999 . S
Cu207 O213 1.974 . S
Cu207 N218 1.985 . S
Cu207 O227 1.959 . S
N208 Cu207 1.999 . S
N208 C210 1.263 . S
N208 C212 1.389 . S
N209 C210 1.358 . S
N209 C211 1.400 . S
C210 N208 1.263 . S
C210 N209 1.358 . S
C210 H216 0.930 . S
C211 N209 1.400 . S
C211 C212 1.351 . S
C211 H228 0.930 . S
C212 N208 1.389 . S
C212 C211 1.351 . S
C212 H217 0.930 . S
O213 Cu207 1.974 . S
O213 C223 1.282 . S
C214 O215 1.261 . S
C214 O227 1.251 . S
O215 C214 1.261 . S
H216 C210 0.930 . S
H217 C212 0.930 . S
N218 Cu207 1.985 . S
N218 C220 1.335 . S
N218 C221 1.390 . S
N219 C220 1.345 . S
N219 C222 1.336 . S
C220 N218 1.335 . S
C220 N219 1.345 . S
C220 H225 0.930 . S
C221 N218 1.390 . S
C221 C222 1.346 . S
C221 H226 0.930 . S
C222 N219 1.336 . S
C222 C221 1.346 . S
C222 H229 0.929 . S
C223 O213 1.282 . S
C223 O224 1.216 . S
O224 C223 1.216 . S
H225 C220 0.930 . S
H226 C221 0.930 . S
O227 Cu207 1.959 . S
O227 C214 1.251 . S
H228 C211 0.930 . S
H229 C222 0.929 . S
Cu230 N231 1.999 . S
Cu230 O236 1.974 . S
Cu230 N241 1.985 . S
Cu230 O250 1.959 . S
N231 Cu230 1.999 . S
N231 C233 1.263 . S
N231 C235 1.389 . S
N232 C233 1.358 . S
N232 C234 1.400 . S
C233 N231 1.263 . S
C233 N232 1.358 . S
C233 H239 0.930 . S
C234 N232 1.400 . S
C234 C235 1.351 . S
C234 H251 0.930 . S
C235 N231 1.389 . S
C235 C234 1.351 . S
C235 H240 0.930 . S
O236 Cu230 1.974 . S
O236 C246 1.282 . S
C237 O238 1.261 . S
C237 O250 1.251 . S
O238 C237 1.261 . S
H239 C233 0.930 . S
H240 C235 0.930 . S
N241 Cu230 1.985 . S
N241 C243 1.335 . S
N241 C244 1.390 . S
N242 C243 1.345 . S
N242 C245 1.336 . S
C243 N241 1.335 . S
C243 N242 1.345 . S
C243 H248 0.930 . S
C244 N241 1.390 . S
C244 C245 1.346 . S
C244 H249 0.930 . S
C245 N242 1.336 . S
C245 C244 1.346 . S
C245 H252 0.929 . S
C246 O236 1.282 . S
C246 O247 1.216 . S
O247 C246 1.216 . S
H248 C243 0.930 . S
H249 C244 0.930 . S
O250 Cu230 1.959 . S
O250 C237 1.251 . S
H251 C234 0.930 . S
H252 C245 0.929 . S
Cu253 N254 1.999 . S
Cu253 O259 1.974 . S
Cu253 N264 1.985 . S
Cu253 O273 1.959 . S
N254 Cu253 1.999 . S
N254 C256 1.263 . S
N254 C258 1.389 . S
N255 C256 1.358 . S
N255 C257 1.400 . S
C256 N254 1.263 . S
C256 N255 1.358 . S
C256 H262 0.930 . S
C257 N255 1.400 . S
C257 C258 1.351 . S
C257 H274 0.930 . S
C258 N254 1.389 . S
C258 C257 1.351 . S
C258 H263 0.930 . S
O259 Cu253 1.974 . S
O259 C269 1.282 . S
C260 O261 1.261 . S
C260 O273 1.251 . S
O261 C260 1.261 . S
H262 C256 0.930 . S
H263 C258 0.930 . S
N264 Cu253 1.985 . S
N264 C266 1.335 . S
N264 C267 1.390 . S
N265 C266 1.345 . S
N265 C268 1.336 . S
C266 N264 1.335 . S
C266 N265 1.345 . S
C266 H271 0.930 . S
C267 N264 1.390 . S
C267 C268 1.346 . S
C267 H272 0.930 . S
C268 N265 1.336 . S
C268 C267 1.346 . S
C268 H275 0.929 . S
C269 O259 1.282 . S
C269 O270 1.216 . S
O270 C269 1.216 . S
H271 C266 0.930 . S
H272 C267 0.930 . S
O273 Cu253 1.959 . S
O273 C260 1.251 . S
H274 C257 0.930 . S
H275 C268 0.929 . S
Tb276 N307 2.660 . S
Tb276 N314 2.600 . S
Tb276 O320 2.546 . S
Tb276 O321 2.610 . S
Tb276 O323 2.320 . S
Tb276 O324 2.552 . S
Tb276 O325 2.413 . S
Tb276 O327 2.362 . S
Tb276 O328 2.421 . S
Tb276 C340 2.833 . S
C277 C280 1.432 . S
C277 C281 1.414 . S
C277 N284 1.359 . S
C278 C280 1.417 . S
C278 C282 1.432 . S
C278 C290 1.410 . S
C279 C281 1.444 . S
C279 C282 1.317 . S
C279 H302 0.929 . S
C280 C277 1.432 . S
C280 C278 1.417 . S
C280 N288 1.360 . S
C281 C277 1.414 . S
C281 C279 1.444 . S
C281 C286 1.385 . S
C282 C278 1.432 . S
C282 C279 1.317 . S
C282 H294 0.930 . S
C283 C285 1.392 . S
C283 C286 1.370 . S
C283 H295 0.931 . S
N284 C277 1.359 . S
N284 C285 1.327 . S
N284 Tb287 2.600 . S
C285 C283 1.392 . S
C285 N284 1.327 . S
C285 H292 0.930 . S
C286 C281 1.385 . S
C286 C283 1.370 . S
C286 H305 0.930 . S
Tb287 N284 2.600 . S
Tb287 N288 2.660 . S
Tb287 O321 2.362 . S
Tb287 O322 2.421 . S
Tb287 O326 2.546 . S
Tb287 O327 2.610 . S
Tb287 O329 2.320 . S
Tb287 O330 2.552 . S
Tb287 O331 2.413 . S
Tb287 C351 2.833 . S
N288 C280 1.360 . S
N288 Tb287 2.660 . S
N288 C289 1.305 . S
C289 N288 1.305 . S
C289 C291 1.407 . S
C289 H296 0.930 . S
C290 C278 1.410 . S
C290 C291 1.345 . S
C290 H298 0.930 . S
C291 C289 1.407 . S
C291 C290 1.345 . S
C291 H293 0.930 . S
H292 C285 0.930 . S
H293 C291 0.930 . S
H294 C282 0.930 . S
H295 C283 0.931 . S
H296 C289 0.930 . S
H297 C311 0.930 . S
H298 C290 0.930 . S
H299 C317 0.930 . S
H300 C308 0.930 . S
H301 C315 0.931 . S
H302 C279 0.929 . S
H303 C309 0.930 . S
H304 C342 0.930 . S
H305 C286 0.930 . S
H306 C341 0.929 . S
N307 Tb276 2.660 . S
N307 C308 1.305 . S
N307 C312 1.360 . S
C308 H300 0.930 . S
C308 N307 1.305 . S
C308 C311 1.407 . S
C309 H303 0.930 . S
C309 C310 1.410 . S
C309 C311 1.345 . S
C310 C309 1.410 . S
C310 C312 1.417 . S
C310 C342 1.432 . S
C311 H297 0.930 . S
C311 C308 1.407 . S
C311 C309 1.345 . S
C312 N307 1.360 . S
C312 C310 1.417 . S
C312 C316 1.432 . S
H313 C318 0.930 . S
N314 Tb276 2.600 . S
N314 C316 1.359 . S
N314 C317 1.327 . S
C315 H301 0.931 . S
C315 C317 1.392 . S
C315 C318 1.370 . S
C316 C312 1.432 . S
C316 N314 1.359 . S
C316 C319 1.414 . S
C317 H299 0.930 . S
C317 N314 1.327 . S
C317 C315 1.392 . S
C318 H313 0.930 . S
C318 C315 1.370 . S
C318 C319 1.385 . S
C319 C316 1.414 . S
C319 C318 1.385 . S
C319 C341 1.444 . S
O320 Tb276 2.546 . S
O320 C340 1.251 . S
O321 Tb276 2.610 . S
O321 Tb287 2.362 . S
O321 C332 1.283 . S
O322 Tb287 2.421 . S
O322 C339 1.262 . S
O323 Tb276 2.320 . S
O323 C339 1.260 . S
O324 Tb276 2.552 . S
O324 C332 1.243 . S
O325 Tb276 2.413 . S
O325 C340 1.256 . S
O326 Tb287 2.546 . S
O326 C351 1.251 . S
O327 Tb276 2.362 . S
O327 Tb287 2.610 . S
O327 C343 1.283 . S
O328 Tb276 2.421 . S
O328 C350 1.262 . S
O329 Tb287 2.320 . S
O329 C350 1.260 . S
O330 Tb287 2.552 . S
O330 C343 1.243 . S
O331 Tb287 2.413 . S
O331 C351 1.256 . S
C332 O321 1.283 . S
C332 O324 1.243 . S
C333 C335 1.382 . S
C333 C337 1.393 . S
C333 C340 1.500 . S
C334 C335 1.400 . S
C334 C336 1.384 . S
C335 C333 1.382 . S
C335 C334 1.400 . S
C335 H352 0.930 . S
C336 C334 1.384 . S
C336 C338 1.392 . S
C336 H353 0.931 . S
C337 C333 1.393 . S
C337 C338 1.401 . S
C337 H354 0.930 . S
C338 C336 1.392 . S
C338 C337 1.401 . S
C338 H355 0.930 . S
C339 O322 1.262 . S
C339 O323 1.260 . S
C340 Tb276 2.833 . S
C340 O320 1.251 . S
C340 O325 1.256 . S
C340 C333 1.500 . S
C341 H306 0.929 . S
C341 C319 1.444 . S
C341 C342 1.317 . S
C342 H304 0.930 . S
C342 C310 1.432 . S
C342 C341 1.317 . S
C343 O327 1.283 . S
C343 O330 1.243 . S
C344 C345 1.382 . S
C344 C348 1.393 . S
C344 C351 1.500 . S
C345 C344 1.382 . S
C345 C346 1.400 . S
C345 H356 0.930 . S
C346 C345 1.400 . S
C346 C347 1.384 . S
C347 C346 1.384 . S
C347 C349 1.392 . S
C347 H357 0.931 . S
C348 C344 1.393 . S
C348 C349 1.401 . S
C348 H358 0.930 . S
C349 C347 1.392 . S
C349 C348 1.401 . S
C349 H359 0.930 . S
C350 O328 1.262 . S
C350 O329 1.260 . S
C351 Tb287 2.833 . S
C351 O326 1.251 . S
C351 O331 1.256 . S
C351 C344 1.500 . S
H352 C335 0.930 . S
H353 C336 0.931 . S
H354 C337 0.930 . S
H355 C338 0.930 . S
H356 C345 0.930 . S
H357 C347 0.931 . S
H358 C348 0.930 . S
H359 C349 0.930 . S
Tb360 N391 2.660 . S
Tb360 N398 2.600 . S
Tb360 O404 2.546 . S
Tb360 O405 2.610 . S
Tb360 O407 2.320 . S
Tb360 O408 2.552 . S
Tb360 O409 2.413 . S
Tb360 O411 2.362 . S
Tb360 O412 2.421 . S
Tb360 C424 2.833 . S
C361 C364 1.432 . S
C361 C365 1.414 . S
C361 N368 1.359 . S
C362 C364 1.417 . S
C362 C366 1.432 . S
C362 C374 1.410 . S
C363 C365 1.444 . S
C363 C366 1.317 . S
C363 H386 0.929 . S
C364 C361 1.432 . S
C364 C362 1.417 . S
C364 N372 1.360 . S
C365 C361 1.414 . S
C365 C363 1.444 . S
C365 C370 1.385 . S
C366 C362 1.432 . S
C366 C363 1.317 . S
C366 H378 0.930 . S
C367 C369 1.392 . S
C367 C370 1.370 . S
C367 H379 0.931 . S
N368 C361 1.359 . S
N368 C369 1.327 . S
N368 Tb371 2.600 . S
C369 C367 1.392 . S
C369 N368 1.327 . S
C369 H376 0.930 . S
C370 C365 1.385 . S
C370 C367 1.370 . S
C370 H389 0.930 . S
Tb371 N368 2.600 . S
Tb371 N372 2.660 . S
Tb371 O405 2.362 . S
Tb371 O406 2.421 . S
Tb371 O410 2.546 . S
Tb371 O411 2.610 . S
Tb371 O413 2.320 . S
Tb371 O414 2.552 . S
Tb371 O415 2.413 . S
Tb371 C435 2.833 . S
N372 C364 1.360 . S
N372 Tb371 2.660 . S
N372 C373 1.305 . S
C373 N372 1.305 . S
C373 C375 1.407 . S
C373 H380 0.930 . S
C374 C362 1.410 . S
C374 C375 1.345 . S
C374 H382 0.930 . S
C375 C373 1.407 . S
C375 C374 1.345 . S
C375 H377 0.930 . S
H376 C369 0.930 . S
H377 C375 0.930 . S
H378 C366 0.930 . S
H379 C367 0.931 . S
H380 C373 0.930 . S
H381 C395 0.930 . S
H382 C374 0.930 . S
H383 C401 0.930 . S
H384 C392 0.930 . S
H385 C399 0.931 . S
H386 C363 0.929 . S
H387 C393 0.930 . S
H388 C426 0.930 . S
H389 C370 0.930 . S
H390 C425 0.929 . S
N391 Tb360 2.660 . S
N391 C392 1.305 . S
N391 C396 1.360 . S
C392 H384 0.930 . S
C392 N391 1.305 . S
C392 C395 1.407 . S
C393 H387 0.930 . S
C393 C394 1.410 . S
C393 C395 1.345 . S
C394 C393 1.410 . S
C394 C396 1.417 . S
C394 C426 1.432 . S
C395 H381 0.930 . S
C395 C392 1.407 . S
C395 C393 1.345 . S
C396 N391 1.360 . S
C396 C394 1.417 . S
C396 C400 1.432 . S
H397 C402 0.930 . S
N398 Tb360 2.600 . S
N398 C400 1.359 . S
N398 C401 1.327 . S
C399 H385 0.931 . S
C399 C401 1.392 . S
C399 C402 1.370 . S
C400 C396 1.432 . S
C400 N398 1.359 . S
C400 C403 1.414 . S
C401 H383 0.930 . S
C401 N398 1.327 . S
C401 C399 1.392 . S
C402 H397 0.930 . S
C402 C399 1.370 . S
C402 C403 1.385 . S
C403 C400 1.414 . S
C403 C402 1.385 . S
C403 C425 1.444 . S
O404 Tb360 2.546 . S
O404 C424 1.251 . S
O405 Tb360 2.610 . S
O405 Tb371 2.362 . S
O405 C416 1.283 . S
O406 Tb371 2.421 . S
O406 C423 1.262 . S
O407 Tb360 2.320 . S
O407 C423 1.260 . S
O408 Tb360 2.552 . S
O408 C416 1.243 . S
O409 Tb360 2.413 . S
O409 C424 1.256 . S
O410 Tb371 2.546 . S
O410 C435 1.251 . S
O411 Tb360 2.362 . S
O411 Tb371 2.610 . S
O411 C427 1.283 . S
O412 Tb360 2.421 . S
O412 C434 1.262 . S
O413 Tb371 2.320 . S
O413 C434 1.260 . S
O414 Tb371 2.552 . S
O414 C427 1.243 . S
O415 Tb371 2.413 . S
O415 C435 1.256 . S
C416 O405 1.283 . S
C416 O408 1.243 . S
C417 C419 1.382 . S
C417 C421 1.393 . S
C417 C424 1.500 . S
C418 C419 1.400 . S
C418 C420 1.384 . S
C419 C417 1.382 . S
C419 C418 1.400 . S
C419 H436 0.930 . S
C420 C418 1.384 . S
C420 C422 1.392 . S
C420 H437 0.931 . S
C421 C417 1.393 . S
C421 C422 1.401 . S
C421 H438 0.930 . S
C422 C420 1.392 . S
C422 C421 1.401 . S
C422 H439 0.930 . S
C423 O406 1.262 . S
C423 O407 1.260 . S
C424 Tb360 2.833 . S
C424 O404 1.251 . S
C424 O409 1.256 . S
C424 C417 1.500 . S
C425 H390 0.929 . S
C425 C403 1.444 . S
C425 C426 1.317 . S
C426 H388 0.930 . S
C426 C394 1.432 . S
C426 C425 1.317 . S
C427 O411 1.283 . S
C427 O414 1.243 . S
C428 C429 1.382 . S
C428 C432 1.393 . S
C428 C435 1.500 . S
C429 C428 1.382 . S
C429 C430 1.400 . S
C429 H440 0.930 . S
C430 C429 1.400 . S
C430 C431 1.384 . S
C431 C430 1.384 . S
C431 C433 1.392 . S
C431 H441 0.931 . S
C432 C428 1.393 . S
C432 C433 1.401 . S
C432 H442 0.930 . S
C433 C431 1.392 . S
C433 C432 1.401 . S
C433 H443 0.930 . S
C434 O412 1.262 . S
C434 O413 1.260 . S
C435 Tb371 2.833 . S
C435 O410 1.251 . S
C435 O415 1.256 . S
C435 C428 1.500 . S
H436 C419 0.930 . S
H437 C420 0.931 . S
H438 C421 0.930 . S
H439 C422 0.930 . S
H440 C429 0.930 . S
H441 C431 0.931 . S
H442 C432 0.930 . S
H443 C433 0.930 . S
Tb444 N475 2.660 . S
Tb444 N482 2.600 . S
Tb444 O488 2.546 . S
Tb444 O489 2.610 . S
Tb444 O491 2.320 . S
Tb444 O492 2.552 . S
Tb444 O493 2.413 . S
Tb444 O495 2.362 . S
Tb444 O496 2.421 . S
Tb444 C508 2.833 . S
C445 C448 1.432 . S
C445 C449 1.414 . S
C445 N452 1.359 . S
C446 C448 1.417 . S
C446 C450 1.432 . S
C446 C458 1.410 . S
C447 C449 1.444 . S
C447 C450 1.317 . S
C447 H470 0.929 . S
C448 C445 1.432 . S
C448 C446 1.417 . S
C448 N456 1.360 . S
C449 C445 1.414 . S
C449 C447 1.444 . S
C449 C454 1.385 . S
C450 C446 1.432 . S
C450 C447 1.317 . S
C450 H462 0.930 . S
C451 C453 1.392 . S
C451 C454 1.370 . S
C451 H463 0.931 . S
N452 C445 1.359 . S
N452 C453 1.327 . S
N452 Tb455 2.600 . S
C453 C451 1.392 . S
C453 N452 1.327 . S
C453 H460 0.930 . S
C454 C449 1.385 . S
C454 C451 1.370 . S
C454 H473 0.930 . S
Tb455 N452 2.600 . S
Tb455 N456 2.660 . S
Tb455 O489 2.362 . S
Tb455 O490 2.421 . S
Tb455 O494 2.546 . S
Tb455 O495 2.610 . S
Tb455 O497 2.320 . S
Tb455 O498 2.552 . S
Tb455 O499 2.413 . S
Tb455 C519 2.833 . S
N456 C448 1.360 . S
N456 Tb455 2.660 . S
N456 C457 1.305 . S
C457 N456 1.305 . S
C457 C459 1.407 . S
C457 H464 0.930 . S
C458 C446 1.410 . S
C458 C459 1.345 . S
C458 H466 0.930 . S
C459 C457 1.407 . S
C459 C458 1.345 . S
C459 H461 0.930 . S
H460 C453 0.930 . S
H461 C459 0.930 . S
H462 C450 0.930 . S
H463 C451 0.931 . S
H464 C457 0.930 . S
H465 C479 0.930 . S
H466 C458 0.930 . S
H467 C485 0.930 . S
H468 C476 0.930 . S
H469 C483 0.931 . S
H470 C447 0.929 . S
H471 C477 0.930 . S
H472 C510 0.930 . S
H473 C454 0.930 . S
H474 C509 0.929 . S
N475 Tb444 2.660 . S
N475 C476 1.305 . S
N475 C480 1.360 . S
C476 H468 0.930 . S
C476 N475 1.305 . S
C476 C479 1.407 . S
C477 H471 0.930 . S
C477 C478 1.410 . S
C477 C479 1.345 . S
C478 C477 1.410 . S
C478 C480 1.417 . S
C478 C510 1.432 . S
C479 H465 0.930 . S
C479 C476 1.407 . S
C479 C477 1.345 . S
C480 N475 1.360 . S
C480 C478 1.417 . S
C480 C484 1.432 . S
H481 C486 0.930 . S
N482 Tb444 2.600 . S
N482 C484 1.359 . S
N482 C485 1.327 . S
C483 H469 0.931 . S
C483 C485 1.392 . S
C483 C486 1.370 . S
C484 C480 1.432 . S
C484 N482 1.359 . S
C484 C487 1.414 . S
C485 H467 0.930 . S
C485 N482 1.327 . S
C485 C483 1.392 . S
C486 H481 0.930 . S
C486 C483 1.370 . S
C486 C487 1.385 . S
C487 C484 1.414 . S
C487 C486 1.385 . S
C487 C509 1.444 . S
O488 Tb444 2.546 . S
O488 C508 1.251 . S
O489 Tb444 2.610 . S
O489 Tb455 2.362 . S
O489 C500 1.283 . S
O490 Tb455 2.421 . S
O490 C507 1.262 . S
O491 Tb444 2.320 . S
O491 C507 1.260 . S
O492 Tb444 2.552 . S
O492 C500 1.243 . S
O493 Tb444 2.413 . S
O493 C508 1.256 . S
O494 Tb455 2.546 . S
O494 C519 1.251 . S
O495 Tb444 2.362 . S
O495 Tb455 2.610 . S
O495 C511 1.283 . S
O496 Tb444 2.421 . S
O496 C518 1.262 . S
O497 Tb455 2.320 . S
O497 C518 1.260 . S
O498 Tb455 2.552 . S
O498 C511 1.243 . S
O499 Tb455 2.413 . S
O499 C519 1.256 . S
C500 O489 1.283 . S
C500 O492 1.243 . S
C501 C503 1.382 . S
C501 C505 1.393 . S
C501 C508 1.500 . S
C502 C503 1.400 . S
C502 C504 1.384 . S
C503 C501 1.382 . S
C503 C502 1.400 . S
C503 H520 0.930 . S
C504 C502 1.384 . S
C504 C506 1.392 . S
C504 H521 0.931 . S
C505 C501 1.393 . S
C505 C506 1.401 . S
C505 H522 0.930 . S
C506 C504 1.392 . S
C506 C505 1.401 . S
C506 H523 0.930 . S
C507 O490 1.262 . S
C507 O491 1.260 . S
C508 Tb444 2.833 . S
C508 O488 1.251 . S
C508 O493 1.256 . S
C508 C501 1.500 . S
C509 H474 0.929 . S
C509 C487 1.444 . S
C509 C510 1.317 . S
C510 H472 0.930 . S
C510 C478 1.432 . S
C510 C509 1.317 . S
C511 O495 1.283 . S
C511 O498 1.243 . S
C512 C513 1.382 . S
C512 C516 1.393 . S
C512 C519 1.500 . S
C513 C512 1.382 . S
C513 C514 1.400 . S
C513 H524 0.930 . S
C514 C513 1.400 . S
C514 C515 1.384 . S
C515 C514 1.384 . S
C515 C517 1.392 . S
C515 H525 0.931 . S
C516 C512 1.393 . S
C516 C517 1.401 . S
C516 H526 0.930 . S
C517 C515 1.392 . S
C517 C516 1.401 . S
C517 H527 0.930 . S
C518 O496 1.262 . S
C518 O497 1.260 . S
C519 Tb455 2.833 . S
C519 O494 1.251 . S
C519 O499 1.256 . S
C519 C512 1.500 . S
H520 C503 0.930 . S
H521 C504 0.931 . S
H522 C505 0.930 . S
H523 C506 0.930 . S
H524 C513 0.930 . S
H525 C515 0.931 . S
H526 C516 0.930 . S
H527 C517 0.930 . S
Tb528 N559 2.660 . S
Tb528 N566 2.600 . S
Tb528 O572 2.546 . S
Tb528 O573 2.610 . S
Tb528 O575 2.320 . S
Tb528 O576 2.552 . S
Tb528 O577 2.413 . S
Tb528 O579 2.362 . S
Tb528 O580 2.421 . S
Tb528 C592 2.833 . S
C529 C532 1.432 . S
C529 C533 1.414 . S
C529 N536 1.359 . S
C530 C532 1.417 . S
C530 C534 1.432 . S
C530 C542 1.410 . S
C531 C533 1.444 . S
C531 C534 1.317 . S
C531 H554 0.929 . S
C532 C529 1.432 . S
C532 C530 1.417 . S
C532 N540 1.360 . S
C533 C529 1.414 . S
C533 C531 1.444 . S
C533 C538 1.385 . S
C534 C530 1.432 . S
C534 C531 1.317 . S
C534 H546 0.930 . S
C535 C537 1.392 . S
C535 C538 1.370 . S
C535 H547 0.931 . S
N536 C529 1.359 . S
N536 C537 1.327 . S
N536 Tb539 2.600 . S
C537 C535 1.392 . S
C537 N536 1.327 . S
C537 H544 0.930 . S
C538 C533 1.385 . S
C538 C535 1.370 . S
C538 H557 0.930 . S
Tb539 N536 2.600 . S
Tb539 N540 2.660 . S
Tb539 O573 2.362 . S
Tb539 O574 2.421 . S
Tb539 O578 2.546 . S
Tb539 O579 2.610 . S
Tb539 O581 2.320 . S
Tb539 O582 2.552 . S
Tb539 O583 2.413 . S
Tb539 C603 2.833 . S
N540 C532 1.360 . S
N540 Tb539 2.660 . S
N540 C541 1.305 . S
C541 N540 1.305 . S
C541 C543 1.407 . S
C541 H548 0.930 . S
C542 C530 1.410 . S
C542 C543 1.345 . S
C542 H550 0.930 . S
C543 C541 1.407 . S
C543 C542 1.345 . S
C543 H545 0.930 . S
H544 C537 0.930 . S
H545 C543 0.930 . S
H546 C534 0.930 . S
H547 C535 0.931 . S
H548 C541 0.930 . S
H549 C563 0.930 . S
H550 C542 0.930 . S
H551 C569 0.930 . S
H552 C560 0.930 . S
H553 C567 0.931 . S
H554 C531 0.929 . S
H555 C561 0.930 . S
H556 C594 0.930 . S
H557 C538 0.930 . S
H558 C593 0.929 . S
N559 Tb528 2.660 . S
N559 C560 1.305 . S
N559 C564 1.360 . S
C560 H552 0.930 . S
C560 N559 1.305 . S
C560 C563 1.407 . S
C561 H555 0.930 . S
C561 C562 1.410 . S
C561 C563 1.345 . S
C562 C561 1.410 . S
C562 C564 1.417 . S
C562 C594 1.432 . S
C563 H549 0.930 . S
C563 C560 1.407 . S
C563 C561 1.345 . S
C564 N559 1.360 . S
C564 C562 1.417 . S
C564 C568 1.432 . S
H565 C570 0.930 . S
N566 Tb528 2.600 . S
N566 C568 1.359 . S
N566 C569 1.327 . S
C567 H553 0.931 . S
C567 C569 1.392 . S
C567 C570 1.370 . S
C568 C564 1.432 . S
C568 N566 1.359 . S
C568 C571 1.414 . S
C569 H551 0.930 . S
C569 N566 1.327 . S
C569 C567 1.392 . S
C570 H565 0.930 . S
C570 C567 1.370 . S
C570 C571 1.385 . S
C571 C568 1.414 . S
C571 C570 1.385 . S
C571 C593 1.444 . S
O572 Tb528 2.546 . S
O572 C592 1.251 . S
O573 Tb528 2.610 . S
O573 Tb539 2.362 . S
O573 C584 1.283 . S
O574 Tb539 2.421 . S
O574 C591 1.262 . S
O575 Tb528 2.320 . S
O575 C591 1.260 . S
O576 Tb528 2.552 . S
O576 C584 1.243 . S
O577 Tb528 2.413 . S
O577 C592 1.256 . S
O578 Tb539 2.546 . S
O578 C603 1.251 . S
O579 Tb528 2.362 . S
O579 Tb539 2.610 . S
O579 C595 1.283 . S
O580 Tb528 2.421 . S
O580 C602 1.262 . S
O581 Tb539 2.320 . S
O581 C602 1.260 . S
O582 Tb539 2.552 . S
O582 C595 1.243 . S
O583 Tb539 2.413 . S
O583 C603 1.256 . S
C584 O573 1.283 . S
C584 O576 1.243 . S
C585 C587 1.382 . S
C585 C589 1.393 . S
C585 C592 1.500 . S
C586 C587 1.400 . S
C586 C588 1.384 . S
C587 C585 1.382 . S
C587 C586 1.400 . S
C587 H604 0.930 . S
C588 C586 1.384 . S
C588 C590 1.392 . S
C588 H605 0.931 . S
C589 C585 1.393 . S
C589 C590 1.401 . S
C589 H606 0.930 . S
C590 C588 1.392 . S
C590 C589 1.401 . S
C590 H607 0.930 . S
C591 O574 1.262 . S
C591 O575 1.260 . S
C592 Tb528 2.833 . S
C592 O572 1.251 . S
C592 O577 1.256 . S
C592 C585 1.500 . S
C593 H558 0.929 . S
C593 C571 1.444 . S
C593 C594 1.317 . S
C594 H556 0.930 . S
C594 C562 1.432 . S
C594 C593 1.317 . S
C595 O579 1.283 . S
C595 O582 1.243 . S
C596 C597 1.382 . S
C596 C600 1.393 . S
C596 C603 1.500 . S
C597 C596 1.382 . S
C597 C598 1.400 . S
C597 H608 0.930 . S
C598 C597 1.400 . S
C598 C599 1.384 . S
C599 C598 1.384 . S
C599 C601 1.392 . S
C599 H609 0.931 . S
C600 C596 1.393 . S
C600 C601 1.401 . S
C600 H610 0.930 . S
C601 C599 1.392 . S
C601 C600 1.401 . S
C601 H611 0.930 . S
C602 O580 1.262 . S
C602 O581 1.260 . S
C603 Tb539 2.833 . S
C603 O578 1.251 . S
C603 O583 1.256 . S
C603 C596 1.500 . S
H604 C587 0.930 . S
H605 C588 0.931 . S
H606 C589 0.930 . S
H607 C590 0.930 . S
H608 C597 0.930 . S
H609 C599 0.931 . S
H610 C600 0.930 . S
H611 C601 0.930 . S
Tb612 N643 2.660 . S
Tb612 N650 2.600 . S
Tb612 O656 2.546 . S
Tb612 O657 2.610 . S
Tb612 O659 2.320 . S
Tb612 O660 2.552 . S
Tb612 O661 2.413 . S
Tb612 O663 2.362 . S
Tb612 O664 2.421 . S
Tb612 C676 2.833 . S
C613 C616 1.432 . S
C613 C617 1.414 . S
C613 N620 1.359 . S
C614 C616 1.417 . S
C614 C618 1.432 . S
C614 C626 1.410 . S
C615 C617 1.444 . S
C615 C618 1.317 . S
C615 H638 0.929 . S
C616 C613 1.432 . S
C616 C614 1.417 . S
C616 N624 1.360 . S
C617 C613 1.414 . S
C617 C615 1.444 . S
C617 C622 1.385 . S
C618 C614 1.432 . S
C618 C615 1.317 . S
C618 H630 0.930 . S
C619 C621 1.392 . S
C619 C622 1.370 . S
C619 H631 0.931 . S
N620 C613 1.359 . S
N620 C621 1.327 . S
N620 Tb623 2.600 . S
C621 C619 1.392 . S
C621 N620 1.327 . S
C621 H628 0.930 . S
C622 C617 1.385 . S
C622 C619 1.370 . S
C622 H641 0.930 . S
Tb623 N620 2.600 . S
Tb623 N624 2.660 . S
Tb623 O657 2.362 . S
Tb623 O658 2.421 . S
Tb623 O662 2.546 . S
Tb623 O663 2.610 . S
Tb623 O665 2.320 . S
Tb623 O666 2.552 . S
Tb623 O667 2.413 . S
Tb623 C687 2.833 . S
N624 C616 1.360 . S
N624 Tb623 2.660 . S
N624 C625 1.305 . S
C625 N624 1.305 . S
C625 C627 1.407 . S
C625 H632 0.930 . S
C626 C614 1.410 . S
C626 C627 1.345 . S
C626 H634 0.930 . S
C627 C625 1.407 . S
C627 C626 1.345 . S
C627 H629 0.930 . S
H628 C621 0.930 . S
H629 C627 0.930 . S
H630 C618 0.930 . S
H631 C619 0.931 . S
H632 C625 0.930 . S
H633 C647 0.930 . S
H634 C626 0.930 . S
H635 C653 0.930 . S
H636 C644 0.930 . S
H637 C651 0.931 . S
H638 C615 0.929 . S
H639 C645 0.930 . S
H640 C678 0.930 . S
H641 C622 0.930 . S
H642 C677 0.929 . S
N643 Tb612 2.660 . S
N643 C644 1.305 . S
N643 C648 1.360 . S
C644 H636 0.930 . S
C644 N643 1.305 . S
C644 C647 1.407 . S
C645 H639 0.930 . S
C645 C646 1.410 . S
C645 C647 1.345 . S
C646 C645 1.410 . S
C646 C648 1.417 . S
C646 C678 1.432 . S
C647 H633 0.930 . S
C647 C644 1.407 . S
C647 C645 1.345 . S
C648 N643 1.360 . S
C648 C646 1.417 . S
C648 C652 1.432 . S
H649 C654 0.930 . S
N650 Tb612 2.600 . S
N650 C652 1.359 . S
N650 C653 1.327 . S
C651 H637 0.931 . S
C651 C653 1.392 . S
C651 C654 1.370 . S
C652 C648 1.432 . S
C652 N650 1.359 . S
C652 C655 1.414 . S
C653 H635 0.930 . S
C653 N650 1.327 . S
C653 C651 1.392 . S
C654 H649 0.930 . S
C654 C651 1.370 . S
C654 C655 1.385 . S
C655 C652 1.414 . S
C655 C654 1.385 . S
C655 C677 1.444 . S
O656 Tb612 2.546 . S
O656 C676 1.251 . S
O657 Tb612 2.610 . S
O657 Tb623 2.362 . S
O657 C668 1.283 . S
O658 Tb623 2.421 . S
O658 C675 1.262 . S
O659 Tb612 2.320 . S
O659 C675 1.260 . S
O660 Tb612 2.552 . S
O660 C668 1.243 . S
O661 Tb612 2.413 . S
O661 C676 1.256 . S
O662 Tb623 2.546 . S
O662 C687 1.251 . S
O663 Tb612 2.362 . S
O663 Tb623 2.610 . S
O663 C679 1.283 . S
O664 Tb612 2.421 . S
O664 C686 1.262 . S
O665 Tb623 2.320 . S
O665 C686 1.260 . S
O666 Tb623 2.552 . S
O666 C679 1.243 . S
O667 Tb623 2.413 . S
O667 C687 1.256 . S
C668 O657 1.283 . S
C668 O660 1.243 . S
C669 C671 1.382 . S
C669 C673 1.393 . S
C669 C676 1.500 . S
C670 C671 1.400 . S
C670 C672 1.384 . S
C671 C669 1.382 . S
C671 C670 1.400 . S
C671 H688 0.930 . S
C672 C670 1.384 . S
C672 C674 1.392 . S
C672 H689 0.931 . S
C673 C669 1.393 . S
C673 C674 1.401 . S
C673 H690 0.930 . S
C674 C672 1.392 . S
C674 C673 1.401 . S
C674 H691 0.930 . S
C675 O658 1.262 . S
C675 O659 1.260 . S
C676 Tb612 2.833 . S
C676 O656 1.251 . S
C676 O661 1.256 . S
C676 C669 1.500 . S
C677 H642 0.929 . S
C677 C655 1.444 . S
C677 C678 1.317 . S
C678 H640 0.930 . S
C678 C646 1.432 . S
C678 C677 1.317 . S
C679 O663 1.283 . S
C679 O666 1.243 . S
C680 C681 1.382 . S
C680 C684 1.393 . S
C680 C687 1.500 . S
C681 C680 1.382 . S
C681 C682 1.400 . S
C681 H692 0.930 . S
C682 C681 1.400 . S
C682 C683 1.384 . S
C683 C682 1.384 . S
C683 C685 1.392 . S
C683 H693 0.931 . S
C684 C680 1.393 . S
C684 C685 1.401 . S
C684 H694 0.930 . S
C685 C683 1.392 . S
C685 C684 1.401 . S
C685 H695 0.930 . S
C686 O664 1.262 . S
C686 O665 1.260 . S
C687 Tb623 2.833 . S
C687 O662 1.251 . S
C687 O667 1.256 . S
C687 C680 1.500 . S
H688 C671 0.930 . S
H689 C672 0.931 . S
H690 C673 0.930 . S
H691 C674 0.930 . S
H692 C681 0.930 . S
H693 C683 0.931 . S
H694 C684 0.930 . S
H695 C685 0.930 . S
Tb696 N727 2.660 . S
Tb696 N734 2.600 . S
Tb696 O740 2.546 . S
Tb696 O741 2.610 . S
Tb696 O743 2.320 . S
Tb696 O744 2.552 . S
Tb696 O745 2.413 . S
Tb696 O747 2.362 . S
Tb696 O748 2.421 . S
Tb696 C760 2.833 . S
C697 C700 1.432 . S
C697 C701 1.414 . S
C697 N704 1.359 . S
C698 C700 1.417 . S
C698 C702 1.432 . S
C698 C710 1.410 . S
C699 C701 1.444 . S
C699 C702 1.317 . S
C699 H722 0.929 . S
C700 C697 1.432 . S
C700 C698 1.417 . S
C700 N708 1.360 . S
C701 C697 1.414 . S
C701 C699 1.444 . S
C701 C706 1.385 . S
C702 C698 1.432 . S
C702 C699 1.317 . S
C702 H714 0.930 . S
C703 C705 1.392 . S
C703 C706 1.370 . S
C703 H715 0.931 . S
N704 C697 1.359 . S
N704 C705 1.327 . S
N704 Tb707 2.600 . S
C705 C703 1.392 . S
C705 N704 1.327 . S
C705 H712 0.930 . S
C706 C701 1.385 . S
C706 C703 1.370 . S
C706 H725 0.930 . S
Tb707 N704 2.600 . S
Tb707 N708 2.660 . S
Tb707 O741 2.362 . S
Tb707 O742 2.421 . S
Tb707 O746 2.546 . S
Tb707 O747 2.610 . S
Tb707 O749 2.320 . S
Tb707 O750 2.552 . S
Tb707 O751 2.413 . S
Tb707 C771 2.833 . S
N708 C700 1.360 . S
N708 Tb707 2.660 . S
N708 C709 1.305 . S
C709 N708 1.305 . S
C709 C711 1.407 . S
C709 H716 0.930 . S
C710 C698 1.410 . S
C710 C711 1.345 . S
C710 H718 0.930 . S
C711 C709 1.407 . S
C711 C710 1.345 . S
C711 H713 0.930 . S
H712 C705 0.930 . S
H713 C711 0.930 . S
H714 C702 0.930 . S
H715 C703 0.931 . S
H716 C709 0.930 . S
H717 C731 0.930 . S
H718 C710 0.930 . S
H719 C737 0.930 . S
H720 C728 0.930 . S
H721 C735 0.931 . S
H722 C699 0.929 . S
H723 C729 0.930 . S
H724 C762 0.930 . S
H725 C706 0.930 . S
H726 C761 0.929 . S
N727 Tb696 2.660 . S
N727 C728 1.305 . S
N727 C732 1.360 . S
C728 H720 0.930 . S
C728 N727 1.305 . S
C728 C731 1.407 . S
C729 H723 0.930 . S
C729 C730 1.410 . S
C729 C731 1.345 . S
C730 C729 1.410 . S
C730 C732 1.417 . S
C730 C762 1.432 . S
C731 H717 0.930 . S
C731 C728 1.407 . S
C731 C729 1.345 . S
C732 N727 1.360 . S
C732 C730 1.417 . S
C732 C736 1.432 . S
H733 C738 0.930 . S
N734 Tb696 2.600 . S
N734 C736 1.359 . S
N734 C737 1.327 . S
C735 H721 0.931 . S
C735 C737 1.392 . S
C735 C738 1.370 . S
C736 C732 1.432 . S
C736 N734 1.359 . S
C736 C739 1.414 . S
C737 H719 0.930 . S
C737 N734 1.327 . S
C737 C735 1.392 . S
C738 H733 0.930 . S
C738 C735 1.370 . S
C738 C739 1.385 . S
C739 C736 1.414 . S
C739 C738 1.385 . S
C739 C761 1.444 . S
O740 Tb696 2.546 . S
O740 C760 1.251 . S
O741 Tb696 2.610 . S
O741 Tb707 2.362 . S
O741 C752 1.283 . S
O742 Tb707 2.421 . S
O742 C759 1.262 . S
O743 Tb696 2.320 . S
O743 C759 1.260 . S
O744 Tb696 2.552 . S
O744 C752 1.243 . S
O745 Tb696 2.413 . S
O745 C760 1.256 . S
O746 Tb707 2.546 . S
O746 C771 1.251 . S
O747 Tb696 2.362 . S
O747 Tb707 2.610 . S
O747 C763 1.283 . S
O748 Tb696 2.421 . S
O748 C770 1.262 . S
O749 Tb707 2.320 . S
O749 C770 1.260 . S
O750 Tb707 2.552 . S
O750 C763 1.243 . S
O751 Tb707 2.413 . S
O751 C771 1.256 . S
C752 O741 1.283 . S
C752 O744 1.243 . S
C753 C755 1.382 . S
C753 C757 1.393 . S
C753 C760 1.500 . S
C754 C755 1.400 . S
C754 C756 1.384 . S
C755 C753 1.382 . S
C755 C754 1.400 . S
C755 H772 0.930 . S
C756 C754 1.384 . S
C756 C758 1.392 . S
C756 H773 0.931 . S
C757 C753 1.393 . S
C757 C758 1.401 . S
C757 H774 0.930 . S
C758 C756 1.392 . S
C758 C757 1.401 . S
C758 H775 0.930 . S
C759 O742 1.262 . S
C759 O743 1.260 . S
C760 Tb696 2.833 . S
C760 O740 1.251 . S
C760 O745 1.256 . S
C760 C753 1.500 . S
C761 H726 0.929 . S
C761 C739 1.444 . S
C761 C762 1.317 . S
C762 H724 0.930 . S
C762 C730 1.432 . S
C762 C761 1.317 . S
C763 O747 1.283 . S
C763 O750 1.243 . S
C764 C765 1.382 . S
C764 C768 1.393 . S
C764 C771 1.500 . S
C765 C764 1.382 . S
C765 C766 1.400 . S
C765 H776 0.930 . S
C766 C765 1.400 . S
C766 C767 1.384 . S
C767 C766 1.384 . S
C767 C769 1.392 . S
C767 H777 0.931 . S
C768 C764 1.393 . S
C768 C769 1.401 . S
C768 H778 0.930 . S
C769 C767 1.392 . S
C769 C768 1.401 . S
C769 H779 0.930 . S
C770 O748 1.262 . S
C770 O749 1.260 . S
C771 Tb707 2.833 . S
C771 O746 1.251 . S
C771 O751 1.256 . S
C771 C764 1.500 . S
H772 C755 0.930 . S
H773 C756 0.931 . S
H774 C757 0.930 . S
H775 C758 0.930 . S
H776 C765 0.930 . S
H777 C767 0.931 . S
H778 C768 0.930 . S
H779 C769 0.930 . S
Tb780 N811 2.660 . S
Tb780 N818 2.600 . S
Tb780 O824 2.546 . S
Tb780 O825 2.610 . S
Tb780 O827 2.320 . S
Tb780 O828 2.552 . S
Tb780 O829 2.413 . S
Tb780 O831 2.362 . S
Tb780 O832 2.421 . S
Tb780 C844 2.833 . S
C781 C784 1.432 . S
C781 C785 1.414 . S
C781 N788 1.359 . S
C782 C784 1.417 . S
C782 C786 1.432 . S
C782 C794 1.410 . S
C783 C785 1.444 . S
C783 C786 1.317 . S
C783 H806 0.929 . S
C784 C781 1.432 . S
C784 C782 1.417 . S
C784 N792 1.360 . S
C785 C781 1.414 . S
C785 C783 1.444 . S
C785 C790 1.385 . S
C786 C782 1.432 . S
C786 C783 1.317 . S
C786 H798 0.930 . S
C787 C789 1.392 . S
C787 C790 1.370 . S
C787 H799 0.931 . S
N788 C781 1.359 . S
N788 C789 1.327 . S
N788 Tb791 2.600 . S
C789 C787 1.392 . S
C789 N788 1.327 . S
C789 H796 0.930 . S
C790 C785 1.385 . S
C790 C787 1.370 . S
C790 H809 0.930 . S
Tb791 N788 2.600 . S
Tb791 N792 2.660 . S
Tb791 O825 2.362 . S
Tb791 O826 2.421 . S
Tb791 O830 2.546 . S
Tb791 O831 2.610 . S
Tb791 O833 2.320 . S
Tb791 O834 2.552 . S
Tb791 O835 2.413 . S
Tb791 C855 2.833 . S
N792 C784 1.360 . S
N792 Tb791 2.660 . S
N792 C793 1.305 . S
C793 N792 1.305 . S
C793 C795 1.407 . S
C793 H800 0.930 . S
C794 C782 1.410 . S
C794 C795 1.345 . S
C794 H802 0.930 . S
C795 C793 1.407 . S
C795 C794 1.345 . S
C795 H797 0.930 . S
H796 C789 0.930 . S
H797 C795 0.930 . S
H798 C786 0.930 . S
H799 C787 0.931 . S
H800 C793 0.930 . S
H801 C815 0.930 . S
H802 C794 0.930 . S
H803 C821 0.930 . S
H804 C812 0.930 . S
H805 C819 0.931 . S
H806 C783 0.929 . S
H807 C813 0.930 . S
H808 C846 0.930 . S
H809 C790 0.930 . S
H810 C845 0.929 . S
N811 Tb780 2.660 . S
N811 C812 1.305 . S
N811 C816 1.360 . S
C812 H804 0.930 . S
C812 N811 1.305 . S
C812 C815 1.407 . S
C813 H807 0.930 . S
C813 C814 1.410 . S
C813 C815 1.345 . S
C814 C813 1.410 . S
C814 C816 1.417 . S
C814 C846 1.432 . S
C815 H801 0.930 . S
C815 C812 1.407 . S
C815 C813 1.345 . S
C816 N811 1.360 . S
C816 C814 1.417 . S
C816 C820 1.432 . S
H817 C822 0.930 . S
N818 Tb780 2.600 . S
N818 C820 1.359 . S
N818 C821 1.327 . S
C819 H805 0.931 . S
C819 C821 1.392 . S
C819 C822 1.370 . S
C820 C816 1.432 . S
C820 N818 1.359 . S
C820 C823 1.414 . S
C821 H803 0.930 . S
C821 N818 1.327 . S
C821 C819 1.392 . S
C822 H817 0.930 . S
C822 C819 1.370 . S
C822 C823 1.385 . S
C823 C820 1.414 . S
C823 C822 1.385 . S
C823 C845 1.444 . S
O824 Tb780 2.546 . S
O824 C844 1.251 . S
O825 Tb780 2.610 . S
O825 Tb791 2.362 . S
O825 C836 1.283 . S
O826 Tb791 2.421 . S
O826 C843 1.262 . S
O827 Tb780 2.320 . S
O827 C843 1.260 . S
O828 Tb780 2.552 . S
O828 C836 1.243 . S
O829 Tb780 2.413 . S
O829 C844 1.256 . S
O830 Tb791 2.546 . S
O830 C855 1.251 . S
O831 Tb780 2.362 . S
O831 Tb791 2.610 . S
O831 C847 1.283 . S
O832 Tb780 2.421 . S
O832 C854 1.262 . S
O833 Tb791 2.320 . S
O833 C854 1.260 . S
O834 Tb791 2.552 . S
O834 C847 1.243 . S
O835 Tb791 2.413 . S
O835 C855 1.256 . S
C836 O825 1.283 . S
C836 O828 1.243 . S
C837 C839 1.382 . S
C837 C841 1.393 . S
C837 C844 1.500 . S
C838 C839 1.400 . S
C838 C840 1.384 . S
C839 C837 1.382 . S
C839 C838 1.400 . S
C839 H856 0.930 . S
C840 C838 1.384 . S
C840 C842 1.392 . S
C840 H857 0.931 . S
C841 C837 1.393 . S
C841 C842 1.401 . S
C841 H858 0.930 . S
C842 C840 1.392 . S
C842 C841 1.401 . S
C842 H859 0.930 . S
C843 O826 1.262 . S
C843 O827 1.260 . S
C844 Tb780 2.833 . S
C844 O824 1.251 . S
C844 O829 1.256 . S
C844 C837 1.500 . S
C845 H810 0.929 . S
C845 C823 1.444 . S
C845 C846 1.317 . S
C846 H808 0.930 . S
C846 C814 1.432 . S
C846 C845 1.317 . S
C847 O831 1.283 . S
C847 O834 1.243 . S
C848 C849 1.382 . S
C848 C852 1.393 . S
C848 C855 1.500 . S
C849 C848 1.382 . S
C849 C850 1.400 . S
C849 H860 0.930 . S
C850 C849 1.400 . S
C850 C851 1.384 . S
C851 C850 1.384 . S
C851 C853 1.392 . S
C851 H861 0.931 . S
C852 C848 1.393 . S
C852 C853 1.401 . S
C852 H862 0.930 . S
C853 C851 1.392 . S
C853 C852 1.401 . S
C853 H863 0.930 . S
C854 O832 1.262 . S
C854 O833 1.260 . S
C855 Tb791 2.833 . S
C855 O830 1.251 . S
C855 O835 1.256 . S
C855 C848 1.500 . S
H856 C839 0.930 . S
H857 C840 0.931 . S
H858 C841 0.930 . S
H859 C842 0.930 . S
H860 C849 0.930 . S
H861 C851 0.931 . S
H862 C852 0.930 . S
H863 C853 0.930 . S
Tb864 N895 2.660 . S
Tb864 N902 2.600 . S
Tb864 O908 2.546 . S
Tb864 O909 2.610 . S
Tb864 O911 2.320 . S
Tb864 O912 2.552 . S
Tb864 O913 2.413 . S
Tb864 O915 2.362 . S
Tb864 O916 2.421 . S
Tb864 C928 2.833 . S
C865 C868 1.432 . S
C865 C869 1.414 . S
C865 N872 1.359 . S
C866 C868 1.417 . S
C866 C870 1.432 . S
C866 C878 1.410 . S
C867 C869 1.444 . S
C867 C870 1.317 . S
C867 H890 0.929 . S
C868 C865 1.432 . S
C868 C866 1.417 . S
C868 N876 1.360 . S
C869 C865 1.414 . S
C869 C867 1.444 . S
C869 C874 1.385 . S
C870 C866 1.432 . S
C870 C867 1.317 . S
C870 H882 0.930 . S
C871 C873 1.392 . S
C871 C874 1.370 . S
C871 H883 0.931 . S
N872 C865 1.359 . S
N872 C873 1.327 . S
N872 Tb875 2.600 . S
C873 C871 1.392 . S
C873 N872 1.327 . S
C873 H880 0.930 . S
C874 C869 1.385 . S
C874 C871 1.370 . S
C874 H893 0.930 . S
Tb875 N872 2.600 . S
Tb875 N876 2.660 . S
Tb875 O909 2.362 . S
Tb875 O910 2.421 . S
Tb875 O914 2.546 . S
Tb875 O915 2.610 . S
Tb875 O917 2.320 . S
Tb875 O918 2.552 . S
Tb875 O919 2.413 . S
Tb875 C939 2.833 . S
N876 C868 1.360 . S
N876 Tb875 2.660 . S
N876 C877 1.305 . S
C877 N876 1.305 . S
C877 C879 1.407 . S
C877 H884 0.930 . S
C878 C866 1.410 . S
C878 C879 1.345 . S
C878 H886 0.930 . S
C879 C877 1.407 . S
C879 C878 1.345 . S
C879 H881 0.930 . S
H880 C873 0.930 . S
H881 C879 0.930 . S
H882 C870 0.930 . S
H883 C871 0.931 . S
H884 C877 0.930 . S
H885 C899 0.930 . S
H886 C878 0.930 . S
H887 C905 0.930 . S
H888 C896 0.930 . S
H889 C903 0.931 . S
H890 C867 0.929 . S
H891 C897 0.930 . S
H892 C930 0.930 . S
H893 C874 0.930 . S
H894 C929 0.929 . S
N895 Tb864 2.660 . S
N895 C896 1.305 . S
N895 C900 1.360 . S
C896 H888 0.930 . S
C896 N895 1.305 . S
C896 C899 1.407 . S
C897 H891 0.930 . S
C897 C898 1.410 . S
C897 C899 1.345 . S
C898 C897 1.410 . S
C898 C900 1.417 . S
C898 C930 1.432 . S
C899 H885 0.930 . S
C899 C896 1.407 . S
C899 C897 1.345 . S
C900 N895 1.360 . S
C900 C898 1.417 . S
C900 C904 1.432 . S
H901 C906 0.930 . S
N902 Tb864 2.600 . S
N902 C904 1.359 . S
N902 C905 1.327 . S
C903 H889 0.931 . S
C903 C905 1.392 . S
C903 C906 1.370 . S
C904 C900 1.432 . S
C904 N902 1.359 . S
C904 C907 1.414 . S
C905 H887 0.930 . S
C905 N902 1.327 . S
C905 C903 1.392 . S
C906 H901 0.930 . S
C906 C903 1.370 . S
C906 C907 1.385 . S
C907 C904 1.414 . S
C907 C906 1.385 . S
C907 C929 1.444 . S
O908 Tb864 2.546 . S
O908 C928 1.251 . S
O909 Tb864 2.610 . S
O909 Tb875 2.362 . S
O909 C920 1.283 . S
O910 Tb875 2.421 . S
O910 C927 1.262 . S
O911 Tb864 2.320 . S
O911 C927 1.260 . S
O912 Tb864 2.552 . S
O912 C920 1.243 . S
O913 Tb864 2.413 . S
O913 C928 1.256 . S
O914 Tb875 2.546 . S
O914 C939 1.251 . S
O915 Tb864 2.362 . S
O915 Tb875 2.610 . S
O915 C931 1.283 . S
O916 Tb864 2.421 . S
O916 C938 1.262 . S
O917 Tb875 2.320 . S
O917 C938 1.260 . S
O918 Tb875 2.552 . S
O918 C931 1.243 . S
O919 Tb875 2.413 . S
O919 C939 1.256 . S
C920 O909 1.283 . S
C920 O912 1.243 . S
C921 C923 1.382 . S
C921 C925 1.393 . S
C921 C928 1.500 . S
C922 C923 1.400 . S
C922 C924 1.384 . S
C923 C921 1.382 . S
C923 C922 1.400 . S
C923 H940 0.930 . S
C924 C922 1.384 . S
C924 C926 1.392 . S
C924 H941 0.931 . S
C925 C921 1.393 . S
C925 C926 1.401 . S
C925 H942 0.930 . S
C926 C924 1.392 . S
C926 C925 1.401 . S
C926 H943 0.930 . S
C927 O910 1.262 . S
C927 O911 1.260 . S
C928 Tb864 2.833 . S
C928 O908 1.251 . S
C928 O913 1.256 . S
C928 C921 1.500 . S
C929 H894 0.929 . S
C929 C907 1.444 . S
C929 C930 1.317 . S
C930 H892 0.930 . S
C930 C898 1.432 . S
C930 C929 1.317 . S
C931 O915 1.283 . S
C931 O918 1.243 . S
C932 C933 1.382 . S
C932 C936 1.393 . S
C932 C939 1.500 . S
C933 C932 1.382 . S
C933 C934 1.400 . S
C933 H944 0.930 . S
C934 C933 1.400 . S
C934 C935 1.384 . S
C935 C934 1.384 . S
C935 C937 1.392 . S
C935 H945 0.931 . S
C936 C932 1.393 . S
C936 C937 1.401 . S
C936 H946 0.930 . S
C937 C935 1.392 . S
C937 C936 1.401 . S
C937 H947 0.930 . S
C938 O916 1.262 . S
C938 O917 1.260 . S
C939 Tb875 2.833 . S
C939 O914 1.251 . S
C939 O919 1.256 . S
C939 C932 1.500 . S
H940 C923 0.930 . S
H941 C924 0.931 . S
H942 C925 0.930 . S
H943 C926 0.930 . S
H944 C933 0.930 . S
H945 C935 0.931 . S
H946 C936 0.930 . S
H947 C937 0.930 . S
C948 C949 1.349 . S
C948 C950 1.327 . S
C948 H973 0.950 . S
C949 C948 1.349 . S
C949 C965 1.349 . S
C950 C948 1.327 . S
C950 C969 1.429 . S
C950 H974 0.950 . S
C951 C968 1.574 . S
C951 C970 1.368 . S
C951 H975 0.949 . S
H952 C956 0.949 . S
C953 C954 1.349 . S
C953 C955 1.327 . S
C953 H976 0.950 . S
C954 C953 1.349 . S
C954 C966 1.349 . S
C955 C953 1.327 . S
C955 C971 1.429 . S
C955 H977 0.950 . S
C956 H952 0.949 . S
C956 C964 1.574 . S
C956 C972 1.368 . S
H957 C965 0.950 . S
H958 C963 0.950 . S
H959 C964 0.949 . S
H960 C966 0.950 . S
H961 C967 0.950 . S
H962 C968 0.949 . S
C963 H958 0.950 . S
C963 C965 1.327 . S
C963 C969 1.429 . S
C964 C956 1.574 . S
C964 H959 0.949 . S
C964 C970 1.368 . S
C965 C949 1.349 . S
C965 H957 0.950 . S
C965 C963 1.327 . S
C966 C954 1.349 . S
C966 H960 0.950 . S
C966 C967 1.327 . S
C967 H961 0.950 . S
C967 C966 1.327 . S
C967 C971 1.429 . S
C968 C951 1.574 . S
C968 H962 0.949 . S
C968 C972 1.368 . S
C969 C950 1.429 . S
C969 C963 1.429 . S
C969 C970 1.523 . S
C970 C951 1.368 . S
C970 C964 1.368 . S
C970 C969 1.523 . S
C971 C955 1.429 . S
C971 C967 1.429 . S
C971 C972 1.523 . S
C972 C956 1.368 . S
C972 C968 1.368 . S
C972 C971 1.523 . S
H973 C948 0.950 . S
H974 C950 0.950 . S
H975 C951 0.949 . S
H976 C953 0.950 . S
H977 C955 0.950 . S
C978 C979 1.349 . S
C978 C980 1.327 . S
C978 H1003 0.950 . S
C979 C978 1.349 . S
C979 C995 1.349 . S
C980 C978 1.327 . S
C980 C999 1.429 . S
C980 H1004 0.950 . S
C981 C998 1.574 . S
C981 C1000 1.368 . S
C981 H1005 0.949 . S
H982 C986 0.949 . S
C983 C984 1.349 . S
C983 C985 1.327 . S
C983 H1006 0.950 . S
C984 C983 1.349 . S
C984 C996 1.349 . S
C985 C983 1.327 . S
C985 C1001 1.429 . S
C985 H1007 0.950 . S
C986 H982 0.949 . S
C986 C994 1.574 . S
C986 C1002 1.368 . S
H987 C995 0.950 . S
H988 C993 0.950 . S
H989 C994 0.949 . S
H990 C996 0.950 . S
H991 C997 0.950 . S
H992 C998 0.949 . S
C993 H988 0.950 . S
C993 C995 1.327 . S
C993 C999 1.429 . S
C994 C986 1.574 . S
C994 H989 0.949 . S
C994 C1000 1.368 . S
C995 C979 1.349 . S
C995 H987 0.950 . S
C995 C993 1.327 . S
C996 C984 1.349 . S
C996 H990 0.950 . S
C996 C997 1.327 . S
C997 H991 0.950 . S
C997 C996 1.327 . S
C997 C1001 1.429 . S
C998 C981 1.574 . S
C998 H992 0.949 . S
C998 C1002 1.368 . S
C999 C980 1.429 . S
C999 C993 1.429 . S
C999 C1000 1.523 . S
C1000 C981 1.368 . S
C1000 C994 1.368 . S
C1000 C999 1.523 . S
C1001 C985 1.429 . S
C1001 C997 1.429 . S
C1001 C1002 1.523 . S
C1002 C986 1.368 . S
C1002 C998 1.368 . S
C1002 C1001 1.523 . S
H1003 C978 0.950 . S
H1004 C980 0.950 . S
H1005 C981 0.949 . S
H1006 C983 0.950 . S
H1007 C985 0.950 . S
C1008 C1009 1.349 . S
C1008 C1010 1.327 . S
C1008 H1033 0.950 . S
C1009 C1008 1.349 . S
C1009 C1025 1.349 . S
C1010 C1008 1.327 . S
C1010 C1029 1.429 . S
C1010 H1034 0.950 . S
C1011 C1028 1.574 . S
C1011 C1030 1.368 . S
C1011 H1035 0.949 . S
H1012 C1016 0.949 . S
C1013 C1014 1.349 . S
C1013 C1015 1.327 . S
C1013 H1036 0.950 . S
C1014 C1013 1.349 . S
C1014 C1026 1.349 . S
C1015 C1013 1.327 . S
C1015 C1031 1.429 . S
C1015 H1037 0.950 . S
C1016 H1012 0.949 . S
C1016 C1024 1.574 . S
C1016 C1032 1.368 . S
H1017 C1025 0.950 . S
H1018 C1023 0.950 . S
H1019 C1024 0.949 . S
H1020 C1026 0.950 . S
H1021 C1027 0.950 . S
H1022 C1028 0.949 . S
C1023 H1018 0.950 . S
C1023 C1025 1.327 . S
C1023 C1029 1.429 . S
C1024 C1016 1.574 . S
C1024 H1019 0.949 . S
C1024 C1030 1.368 . S
C1025 C1009 1.349 . S
C1025 H1017 0.950 . S
C1025 C1023 1.327 . S
C1026 C1014 1.349 . S
C1026 H1020 0.950 . S
C1026 C1027 1.327 . S
C1027 H1021 0.950 . S
C1027 C1026 1.327 . S
C1027 C1031 1.429 . S
C1028 C1011 1.574 . S
C1028 H1022 0.949 . S
C1028 C1032 1.368 . S
C1029 C1010 1.429 . S
C1029 C1023 1.429 . S
C1029 C1030 1.523 . S
C1030 C1011 1.368 . S
C1030 C1024 1.368 . S
C1030 C1029 1.523 . S
C1031 C1015 1.429 . S
C1031 C1027 1.429 . S
C1031 C1032 1.523 . S
C1032 C1016 1.368 . S
C1032 C1028 1.368 . S
C1032 C1031 1.523 . S
H1033 C1008 0.950 . S
H1034 C1010 0.950 . S
H1035 C1011 0.949 . S
H1036 C1013 0.950 . S
H1037 C1015 0.950 . S
C1038 C1039 1.349 . S
C1038 C1040 1.327 . S
C1038 H1063 0.950 . S
C1039 C1038 1.349 . S
C1039 C1055 1.349 . S
C1040 C1038 1.327 . S
C1040 C1059 1.429 . S
C1040 H1064 0.950 . S
C1041 C1058 1.574 . S
C1041 C1060 1.368 . S
C1041 H1065 0.949 . S
H1042 C1046 0.949 . S
C1043 C1044 1.349 . S
C1043 C1045 1.327 . S
C1043 H1066 0.950 . S
C1044 C1043 1.349 . S
C1044 C1056 1.349 . S
C1045 C1043 1.327 . S
C1045 C1061 1.429 . S
C1045 H1067 0.950 . S
C1046 H1042 0.949 . S
C1046 C1054 1.574 . S
C1046 C1062 1.368 . S
H1047 C1055 0.950 . S
H1048 C1053 0.950 . S
H1049 C1054 0.949 . S
H1050 C1056 0.950 . S
H1051 C1057 0.950 . S
H1052 C1058 0.949 . S
C1053 H1048 0.950 . S
C1053 C1055 1.327 . S
C1053 C1059 1.429 . S
C1054 C1046 1.574 . S
C1054 H1049 0.949 . S
C1054 C1060 1.368 . S
C1055 C1039 1.349 . S
C1055 H1047 0.950 . S
C1055 C1053 1.327 . S
C1056 C1044 1.349 . S
C1056 H1050 0.950 . S
C1056 C1057 1.327 . S
C1057 H1051 0.950 . S
C1057 C1056 1.327 . S
C1057 C1061 1.429 . S
C1058 C1041 1.574 . S
C1058 H1052 0.949 . S
C1058 C1062 1.368 . S
C1059 C1040 1.429 . S
C1059 C1053 1.429 . S
C1059 C1060 1.523 . S
C1060 C1041 1.368 . S
C1060 C1054 1.368 . S
C1060 C1059 1.523 . S
C1061 C1045 1.429 . S
C1061 C1057 1.429 . S
C1061 C1062 1.523 . S
C1062 C1046 1.368 . S
C1062 C1058 1.368 . S
C1062 C1061 1.523 . S
H1063 C1038 0.950 . S
H1064 C1040 0.950 . S
H1065 C1041 0.949 . S
H1066 C1043 0.950 . S
H1067 C1045 0.950 . S
C1068 C1069 1.349 . S
C1068 C1070 1.327 . S
C1068 H1093 0.950 . S
C1069 C1068 1.349 . S
C1069 C1085 1.349 . S
C1070 C1068 1.327 . S
C1070 C1089 1.429 . S
C1070 H1094 0.950 . S
C1071 C1088 1.574 . S
C1071 C1090 1.368 . S
C1071 H1095 0.949 . S
H1072 C1076 0.949 . S
C1073 C1074 1.349 . S
C1073 C1075 1.327 . S
C1073 H1096 0.950 . S
C1074 C1073 1.349 . S
C1074 C1086 1.349 . S
C1075 C1073 1.327 . S
C1075 C1091 1.429 . S
C1075 H1097 0.950 . S
C1076 H1072 0.949 . S
C1076 C1084 1.574 . S
C1076 C1092 1.368 . S
H1077 C1085 0.950 . S
H1078 C1083 0.950 . S
H1079 C1084 0.949 . S
H1080 C1086 0.950 . S
H1081 C1087 0.950 . S
H1082 C1088 0.949 . S
C1083 H1078 0.950 . S
C1083 C1085 1.327 . S
C1083 C1089 1.429 . S
C1084 C1076 1.574 . S
C1084 H1079 0.949 . S
C1084 C1090 1.368 . S
C1085 C1069 1.349 . S
C1085 H1077 0.950 . S
C1085 C1083 1.327 . S
C1086 C1074 1.349 . S
C1086 H1080 0.950 . S
C1086 C1087 1.327 . S
C1087 H1081 0.950 . S
C1087 C1086 1.327 . S
C1087 C1091 1.429 . S
C1088 C1071 1.574 . S
C1088 H1082 0.949 . S
C1088 C1092 1.368 . S
C1089 C1070 1.429 . S
C1089 C1083 1.429 . S
C1089 C1090 1.523 . S
C1090 C1071 1.368 . S
C1090 C1084 1.368 . S
C1090 C1089 1.523 . S
C1091 C1075 1.429 . S
C1091 C1087 1.429 . S
C1091 C1092 1.523 . S
C1092 C1076 1.368 . S
C1092 C1088 1.368 . S
C1092 C1091 1.523 . S
H1093 C1068 0.950 . S
H1094 C1070 0.950 . S
H1095 C1071 0.949 . S
H1096 C1073 0.950 . S
H1097 C1075 0.950 . S
C1098 C1099 1.349 . S
C1098 C1100 1.327 . S
C1098 H1123 0.950 . S
C1099 C1098 1.349 . S
C1099 C1115 1.349 . S
C1100 C1098 1.327 . S
C1100 C1119 1.429 . S
C1100 H1124 0.950 . S
C1101 C1118 1.574 . S
C1101 C1120 1.368 . S
C1101 H1125 0.949 . S
H1102 C1106 0.949 . S
C1103 C1104 1.349 . S
C1103 C1105 1.327 . S
C1103 H1126 0.950 . S
C1104 C1103 1.349 . S
C1104 C1116 1.349 . S
C1105 C1103 1.327 . S
C1105 C1121 1.429 . S
C1105 H1127 0.950 . S
C1106 H1102 0.949 . S
C1106 C1114 1.574 . S
C1106 C1122 1.368 . S
H1107 C1115 0.950 . S
H1108 C1113 0.950 . S
H1109 C1114 0.949 . S
H1110 C1116 0.950 . S
H1111 C1117 0.950 . S
H1112 C1118 0.949 . S
C1113 H1108 0.950 . S
C1113 C1115 1.327 . S
C1113 C1119 1.429 . S
C1114 C1106 1.574 . S
C1114 H1109 0.949 . S
C1114 C1120 1.368 . S
C1115 C1099 1.349 . S
C1115 H1107 0.950 . S
C1115 C1113 1.327 . S
C1116 C1104 1.349 . S
C1116 H1110 0.950 . S
C1116 C1117 1.327 . S
C1117 H1111 0.950 . S
C1117 C1116 1.327 . S
C1117 C1121 1.429 . S
C1118 C1101 1.574 . S
C1118 H1112 0.949 . S
C1118 C1122 1.368 . S
C1119 C1100 1.429 . S
C1119 C1113 1.429 . S
C1119 C1120 1.523 . S
C1120 C1101 1.368 . S
C1120 C1114 1.368 . S
C1120 C1119 1.523 . S
C1121 C1105 1.429 . S
C1121 C1117 1.429 . S
C1121 C1122 1.523 . S
C1122 C1106 1.368 . S
C1122 C1118 1.368 . S
C1122 C1121 1.523 . S
H1123 C1098 0.950 . S
H1124 C1100 0.950 . S
H1125 C1101 0.949 . S
H1126 C1103 0.950 . S
H1127 C1105 0.950 . S
C1128 C1129 1.349 . S
C1128 C1130 1.327 . S
C1128 H1153 0.950 . S
C1129 C1128 1.349 . S
C1129 C1145 1.349 . S
C1130 C1128 1.327 . S
C1130 C1149 1.429 . S
C1130 H1154 0.950 . S
C1131 C1148 1.574 . S
C1131 C1150 1.368 . S
C1131 H1155 0.949 . S
H1132 C1136 0.949 . S
C1133 C1134 1.349 . S
C1133 C1135 1.327 . S
C1133 H1156 0.950 . S
C1134 C1133 1.349 . S
C1134 C1146 1.349 . S
C1135 C1133 1.327 . S
C1135 C1151 1.429 . S
C1135 H1157 0.950 . S
C1136 H1132 0.949 . S
C1136 C1144 1.574 . S
C1136 C1152 1.368 . S
H1137 C1145 0.950 . S
H1138 C1143 0.950 . S
H1139 C1144 0.949 . S
H1140 C1146 0.950 . S
H1141 C1147 0.950 . S
H1142 C1148 0.949 . S
C1143 H1138 0.950 . S
C1143 C1145 1.327 . S
C1143 C1149 1.429 . S
C1144 C1136 1.574 . S
C1144 H1139 0.949 . S
C1144 C1150 1.368 . S
C1145 C1129 1.349 . S
C1145 H1137 0.950 . S
C1145 C1143 1.327 . S
C1146 C1134 1.349 . S
C1146 H1140 0.950 . S
C1146 C1147 1.327 . S
C1147 H1141 0.950 . S
C1147 C1146 1.327 . S
C1147 C1151 1.429 . S
C1148 C1131 1.574 . S
C1148 H1142 0.949 . S
C1148 C1152 1.368 . S
C1149 C1130 1.429 . S
C1149 C1143 1.429 . S
C1149 C1150 1.523 . S
C1150 C1131 1.368 . S
C1150 C1144 1.368 . S
C1150 C1149 1.523 . S
C1151 C1135 1.429 . S
C1151 C1147 1.429 . S
C1151 C1152 1.523 . S
C1152 C1136 1.368 . S
C1152 C1148 1.368 . S
C1152 C1151 1.523 . S
H1153 C1128 0.950 . S
H1154 C1130 0.950 . S
H1155 C1131 0.949 . S
H1156 C1133 0.950 . S
H1157 C1135 0.950 . S
C1158 C1159 1.349 . S
C1158 C1160 1.327 . S
C1158 H1183 0.916 1_565 S
C1159 C1158 1.349 . S
C1159 C1175 1.349 . S
C1160 C1158 1.327 . S
C1160 C1179 1.429 . S
C1160 H1184 0.950 . S
C1161 C1178 1.574 . S
C1161 C1180 1.368 . S
C1161 H1185 0.949 . S
H1162 C1166 0.949 . S
C1163 C1164 1.349 . S
C1163 C1165 1.327 . S
C1163 H1186 0.950 . S
C1164 C1163 1.349 . S
C1164 C1176 1.349 . S
C1165 C1163 1.327 . S
C1165 C1181 1.429 . S
C1165 H1187 0.950 . S
C1166 H1162 0.949 . S
C1166 C1174 1.574 . S
C1166 C1182 1.368 . S
H1167 C1175 0.950 . S
H1168 C1173 0.950 . S
H1169 C1174 0.949 . S
H1170 C1176 0.950 . S
H1171 C1177 0.950 . S
H1172 C1178 0.949 . S
C1173 H1168 0.950 . S
C1173 C1175 1.327 . S
C1173 C1179 1.429 . S
C1174 C1166 1.574 . S
C1174 H1169 0.949 . S
C1174 C1180 1.368 . S
C1175 C1159 1.349 . S
C1175 H1167 0.950 . S
C1175 C1173 1.327 . S
C1176 C1164 1.349 . S
C1176 H1170 0.950 . S
C1176 C1177 1.327 . S
C1177 H1171 0.950 . S
C1177 C1176 1.327 . S
C1177 C1181 1.429 . S
C1178 C1161 1.574 . S
C1178 H1172 0.949 . S
C1178 C1182 1.368 . S
C1179 C1160 1.429 . S
C1179 C1173 1.429 . S
C1179 C1180 1.523 . S
C1180 C1161 1.368 . S
C1180 C1174 1.368 . S
C1180 C1179 1.523 . S
C1181 C1165 1.429 . S
C1181 C1177 1.429 . S
C1181 C1182 1.523 . S
C1182 C1166 1.368 . S
C1182 C1178 1.368 . S
C1182 C1181 1.523 . S
H1183 C1158 0.916 1_545 S
H1184 C1160 0.950 . S
H1185 C1161 0.949 . S
H1186 C1163 0.950 . S
H1187 C1165 0.950 . S
C1188 C1189 1.349 . S
C1188 C1190 1.327 . S
C1188 H1213 0.950 . S
C1189 C1188 1.349 . S
C1189 C1205 1.349 . S
C1190 C1188 1.327 . S
C1190 C1209 1.429 . S
C1190 H1214 0.950 . S
C1191 C1208 1.574 . S
C1191 C1210 1.368 . S
C1191 H1215 0.949 . S
H1192 C1196 0.949 . S
C1193 C1194 1.349 . S
C1193 C1195 1.327 . S
C1193 H1216 0.950 . S
C1194 C1193 1.349 . S
C1194 C1206 1.349 . S
C1195 C1193 1.327 . S
C1195 C1211 1.429 . S
C1195 H1217 0.950 . S
C1196 H1192 0.949 . S
C1196 C1204 1.574 . S
C1196 C1212 1.368 . S
H1197 C1205 0.950 . S
H1198 C1203 0.950 . S
H1199 C1204 0.949 . S
H1200 C1206 0.950 . S
H1201 C1207 0.950 . S
H1202 C1208 0.949 . S
C1203 H1198 0.950 . S
C1203 C1205 1.327 . S
C1203 C1209 1.429 . S
C1204 C1196 1.574 . S
C1204 H1199 0.949 . S
C1204 C1210 1.368 . S
C1205 C1189 1.349 . S
C1205 H1197 0.950 . S
C1205 C1203 1.327 . S
C1206 C1194 1.349 . S
C1206 H1200 0.950 . S
C1206 C1207 1.327 . S
C1207 H1201 0.950 . S
C1207 C1206 1.327 . S
C1207 C1211 1.429 . S
C1208 C1191 1.574 . S
C1208 H1202 0.949 . S
C1208 C1212 1.368 . S
C1209 C1190 1.429 . S
C1209 C1203 1.429 . S
C1209 C1210 1.523 . S
C1210 C1191 1.368 . S
C1210 C1204 1.368 . S
C1210 C1209 1.523 . S
C1211 C1195 1.429 . S
C1211 C1207 1.429 . S
C1211 C1212 1.523 . S
C1212 C1196 1.368 . S
C1212 C1208 1.368 . S
C1212 C1211 1.523 . S
H1213 C1188 0.950 . S
H1214 C1190 0.950 . S
H1215 C1191 0.949 . S
H1216 C1193 0.950 . S
H1217 C1195 0.950 . S
C1218 C1219 1.349 . S
C1218 C1220 1.327 . S
C1218 H1243 0.950 . S
C1219 C1218 1.349 . S
C1219 C1235 1.349 . S
C1220 C1218 1.327 . S
C1220 C1239 1.429 . S
C1220 H1244 0.950 . S
C1221 C1238 1.574 . S
C1221 C1240 1.368 . S
C1221 H1245 0.949 . S
H1222 C1226 0.949 . S
C1223 C1224 1.349 . S
C1223 C1225 1.327 . S
C1223 H1246 0.950 . S
C1224 C1223 1.349 . S
C1224 C1236 1.349 . S
C1225 C1223 1.327 . S
C1225 C1241 1.429 . S
C1225 H1247 0.950 . S
C1226 H1222 0.949 . S
C1226 C1234 1.574 . S
C1226 C1242 1.368 . S
H1227 C1235 0.950 . S
H1228 C1233 0.950 . S
H1229 C1234 0.949 . S
H1230 C1236 0.950 . S
H1231 C1237 0.950 . S
H1232 C1238 0.949 . S
C1233 H1228 0.950 . S
C1233 C1235 1.327 . S
C1233 C1239 1.429 . S
C1234 C1226 1.574 . S
C1234 H1229 0.949 . S
C1234 C1240 1.368 . S
C1235 C1219 1.349 . S
C1235 H1227 0.950 . S
C1235 C1233 1.327 . S
C1236 C1224 1.349 . S
C1236 H1230 0.950 . S
C1236 C1237 1.327 . S
C1237 H1231 0.950 . S
C1237 C1236 1.327 . S
C1237 C1241 1.429 . S
C1238 C1221 1.574 . S
C1238 H1232 0.949 . S
C1238 C1242 1.368 . S
C1239 C1220 1.429 . S
C1239 C1233 1.429 . S
C1239 C1240 1.523 . S
C1240 C1221 1.368 . S
C1240 C1234 1.368 . S
C1240 C1239 1.523 . S
C1241 C1225 1.429 . S
C1241 C1237 1.429 . S
C1241 C1242 1.523 . S
C1242 C1226 1.368 . S
C1242 C1238 1.368 . S
C1242 C1241 1.523 . S
H1243 C1218 0.950 . S
H1244 C1220 0.950 . S
H1245 C1221 0.949 . S
H1246 C1223 0.950 . S
H1247 C1225 0.950 . S
C1248 C1249 1.349 . S
C1248 C1250 1.327 . S
C1248 H1273 0.950 . S
C1249 C1248 1.349 . S
C1249 C1265 1.349 . S
C1250 C1248 1.327 . S
C1250 C1269 1.429 . S
C1250 H1274 0.950 . S
C1251 C1268 1.574 . S
C1251 C1270 1.368 . S
C1251 H1275 0.949 . S
H1252 C1256 0.949 . S
C1253 C1254 1.349 . S
C1253 C1255 1.327 . S
C1253 H1276 0.950 . S
C1254 C1253 1.349 . S
C1254 C1266 1.349 . S
C1255 C1253 1.327 . S
C1255 C1271 1.429 . S
C1255 H1277 0.950 . S
C1256 H1252 0.949 . S
C1256 C1264 1.574 . S
C1256 C1272 1.368 . S
H1257 C1265 0.950 . S
H1258 C1263 0.950 . S
H1259 C1264 0.949 . S
H1260 C1266 0.950 . S
H1261 C1267 0.950 . S
H1262 C1268 0.949 . S
C1263 H1258 0.950 . S
C1263 C1265 1.327 . S
C1263 C1269 1.429 . S
C1264 C1256 1.574 . S
C1264 H1259 0.949 . S
C1264 C1270 1.368 . S
C1265 C1249 1.349 . S
C1265 H1257 0.950 . S
C1265 C1263 1.327 . S
C1266 C1254 1.349 . S
C1266 H1260 0.950 . S
C1266 C1267 1.327 . S
C1267 H1261 0.950 . S
C1267 C1266 1.327 . S
C1267 C1271 1.429 . S
C1268 C1251 1.574 . S
C1268 H1262 0.949 . S
C1268 C1272 1.368 . S
C1269 C1250 1.429 . S
C1269 C1263 1.429 . S
C1269 C1270 1.523 . S
C1270 C1251 1.368 . S
C1270 C1264 1.368 . S
C1270 C1269 1.523 . S
C1271 C1255 1.429 . S
C1271 C1267 1.429 . S
C1271 C1272 1.523 . S
C1272 C1256 1.368 . S
C1272 C1268 1.368 . S
C1272 C1271 1.523 . S
H1273 C1248 0.950 . S
H1274 C1250 0.950 . S
H1275 C1251 0.949 . S
H1276 C1253 0.950 . S
H1277 C1255 0.950 . S
C1278 C1279 1.349 . S
C1278 C1280 1.327 . S
C1278 H1303 0.950 . S
C1279 C1278 1.349 . S
C1279 C1295 1.349 . S
C1280 C1278 1.327 . S
C1280 C1299 1.429 . S
C1280 H1304 0.950 . S
C1281 C1298 1.574 . S
C1281 C1300 1.368 . S
C1281 H1305 0.949 . S
H1282 C1286 0.949 . S
C1283 C1284 1.349 . S
C1283 C1285 1.327 . S
C1283 H1306 0.950 . S
C1284 C1283 1.349 . S
C1284 C1296 1.349 . S
C1285 C1283 1.327 . S
C1285 C1301 1.429 . S
C1285 H1307 0.950 . S
C1286 H1282 0.949 . S
C1286 C1294 1.574 . S
C1286 C1302 1.368 . S
H1287 C1295 0.950 . S
H1288 C1293 0.950 . S
H1289 C1294 0.949 . S
H1290 C1296 0.950 . S
H1291 C1297 0.950 . S
H1292 C1298 0.949 . S
C1293 H1288 0.950 . S
C1293 C1295 1.327 . S
C1293 C1299 1.429 . S
C1294 C1286 1.574 . S
C1294 H1289 0.949 . S
C1294 C1300 1.368 . S
C1295 C1279 1.349 . S
C1295 H1287 0.950 . S
C1295 C1293 1.327 . S
C1296 C1284 1.349 . S
C1296 H1290 0.950 . S
C1296 C1297 1.327 . S
C1297 H1291 0.950 . S
C1297 C1296 1.327 . S
C1297 C1301 1.429 . S
C1298 C1281 1.574 . S
C1298 H1292 0.949 . S
C1298 C1302 1.368 . S
C1299 C1280 1.429 . S
C1299 C1293 1.429 . S
C1299 C1300 1.523 . S
C1300 C1281 1.368 . S
C1300 C1294 1.368 . S
C1300 C1299 1.523 . S
C1301 C1285 1.429 . S
C1301 C1297 1.429 . S
C1301 C1302 1.523 . S
C1302 C1286 1.368 . S
C1302 C1298 1.368 . S
C1302 C1301 1.523 . S
H1303 C1278 0.950 . S
H1304 C1280 0.950 . S
H1305 C1281 0.949 . S
H1306 C1283 0.950 . S
H1307 C1285 0.950 . S
C1308 C1309 1.349 . S
C1308 C1310 1.327 . S
C1308 H1333 0.950 . S
C1309 C1308 1.349 . S
C1309 C1325 1.348 1_564 S
C1310 C1308 1.327 . S
C1310 C1329 1.429 1_554 S
C1310 H1334 0.950 . S
C1311 C1328 1.574 . S
C1311 C1330 1.368 . S
C1311 H1335 0.949 . S
H1312 C1316 0.949 . S
C1313 C1314 1.349 . S
C1313 C1315 1.327 . S
C1313 H1336 0.950 . S
C1314 C1313 1.349 . S
C1314 C1326 1.349 . S
C1315 C1313 1.327 . S
C1315 C1331 1.429 . S
C1315 H1337 0.950 . S
C1316 H1312 0.949 . S
C1316 C1324 1.574 . S
C1316 C1332 1.368 . S
H1317 C1325 0.955 . S
H1318 C1323 0.950 . S
H1319 C1324 0.949 . S
H1320 C1326 0.950 . S
H1321 C1327 0.950 . S
H1322 C1328 0.949 . S
C1323 H1318 0.950 . S
C1323 C1325 1.323 1_565 S
C1323 C1329 1.429 . S
C1324 C1316 1.574 . S
C1324 H1319 0.949 . S
C1324 C1330 1.368 . S
C1325 C1309 1.348 1_546 S
C1325 H1317 0.955 . S
C1325 C1323 1.323 1_545 S
C1326 C1314 1.349 . S
C1326 H1320 0.950 . S
C1326 C1327 1.327 . S
C1327 H1321 0.950 . S
C1327 C1326 1.327 . S
C1327 C1331 1.429 . S
C1328 C1311 1.574 . S
C1328 H1322 0.949 . S
C1328 C1332 1.368 . S
C1329 C1310 1.429 1_556 S
C1329 C1323 1.429 . S
C1329 C1330 1.523 . S
C1330 C1311 1.368 . S
C1330 C1324 1.368 . S
C1330 C1329 1.523 . S
C1331 C1315 1.429 . S
C1331 C1327 1.429 . S
C1331 C1332 1.523 . S
C1332 C1316 1.368 . S
C1332 C1328 1.368 . S
C1332 C1331 1.523 . S
H1333 C1308 0.950 . S
H1334 C1310 0.950 . S
H1335 C1311 0.949 . S
H1336 C1313 0.950 . S
H1337 C1315 0.950 . S
C1338 C1339 1.349 . S
C1338 C1340 1.327 . S
C1338 H1363 0.950 . S
C1339 C1338 1.349 . S
C1339 C1355 1.349 . S
C1340 C1338 1.327 . S
C1340 C1359 1.429 . S
C1340 H1364 0.950 . S
C1341 C1358 1.574 . S
C1341 C1360 1.368 . S
C1341 H1365 0.949 . S
H1342 C1346 0.949 . S
C1343 C1344 1.349 . S
C1343 C1345 1.327 . S
C1343 H1366 0.950 . S
C1344 C1343 1.349 . S
C1344 C1356 1.349 . S
C1345 C1343 1.327 . S
C1345 C1361 1.429 . S
C1345 H1367 0.950 . S
C1346 H1342 0.949 . S
C1346 C1354 1.574 . S
C1346 C1362 1.368 . S
H1347 C1355 0.950 . S
H1348 C1353 0.950 . S
H1349 C1354 0.949 . S
H1350 C1356 0.950 . S
H1351 C1357 0.950 . S
H1352 C1358 0.949 . S
C1353 H1348 0.950 . S
C1353 C1355 1.327 . S
C1353 C1359 1.429 . S
C1354 C1346 1.574 . S
C1354 H1349 0.949 . S
C1354 C1360 1.368 . S
C1355 C1339 1.349 . S
C1355 H1347 0.950 . S
C1355 C1353 1.327 . S
C1356 C1344 1.349 . S
C1356 H1350 0.950 . S
C1356 C1357 1.327 . S
C1357 H1351 0.950 . S
C1357 C1356 1.327 . S
C1357 C1361 1.429 . S
C1358 C1341 1.574 . S
C1358 H1352 0.949 . S
C1358 C1362 1.368 . S
C1359 C1340 1.429 . S
C1359 C1353 1.429 . S
C1359 C1360 1.523 . S
C1360 C1341 1.368 . S
C1360 C1354 1.368 . S
C1360 C1359 1.523 . S
C1361 C1345 1.429 . S
C1361 C1357 1.429 . S
C1361 C1362 1.523 . S
C1362 C1346 1.368 . S
C1362 C1358 1.368 . S
C1362 C1361 1.523 . S
H1363 C1338 0.950 . S
H1364 C1340 0.950 . S
H1365 C1341 0.949 . S
H1366 C1343 0.950 . S
H1367 C1345 0.950 . S
C1368 C1369 1.349 . S
C1368 C1370 1.327 . S
C1368 H1393 0.950 . S
C1369 C1368 1.349 . S
C1369 C1385 1.349 . S
C1370 C1368 1.327 . S
C1370 C1389 1.429 . S
C1370 H1394 0.950 . S
C1371 C1388 1.574 . S
C1371 C1390 1.368 . S
C1371 H1395 0.949 . S
H1372 C1376 0.949 . S
C1373 C1374 1.349 . S
C1373 C1375 1.327 . S
C1373 H1396 0.950 . S
C1374 C1373 1.349 . S
C1374 C1386 1.349 . S
C1375 C1373 1.327 . S
C1375 C1391 1.429 . S
C1375 H1397 0.950 . S
C1376 H1372 0.949 . S
C1376 C1384 1.574 . S
C1376 C1392 1.368 . S
H1377 C1385 0.950 . S
H1378 C1383 0.950 . S
H1379 C1384 0.949 . S
H1380 C1386 0.950 . S
H1381 C1387 0.950 . S
H1382 C1388 0.949 . S
C1383 H1378 0.950 . S
C1383 C1385 1.327 . S
C1383 C1389 1.429 . S
C1384 C1376 1.574 . S
C1384 H1379 0.949 . S
C1384 C1390 1.368 . S
C1385 C1369 1.349 . S
C1385 H1377 0.950 . S
C1385 C1383 1.327 . S
C1386 C1374 1.349 . S
C1386 H1380 0.950 . S
C1386 C1387 1.327 . S
C1387 H1381 0.950 . S
C1387 C1386 1.327 . S
C1387 C1391 1.429 . S
C1388 C1371 1.574 . S
C1388 H1382 0.949 . S
C1388 C1392 1.368 . S
C1389 C1370 1.429 . S
C1389 C1383 1.429 . S
C1389 C1390 1.523 . S
C1390 C1371 1.368 . S
C1390 C1384 1.368 . S
C1390 C1389 1.523 . S
C1391 C1375 1.429 . S
C1391 C1387 1.429 . S
C1391 C1392 1.523 . S
C1392 C1376 1.368 . S
C1392 C1388 1.368 . S
C1392 C1391 1.523 . S
H1393 C1368 0.950 . S
H1394 C1370 0.950 . S
H1395 C1371 0.949 . S
H1396 C1373 0.950 . S
H1397 C1375 0.950 . S
C1398 C1399 1.349 . S
C1398 C1400 1.327 . S
C1398 H1423 0.950 . S
C1399 C1398 1.349 . S
C1399 C1415 1.349 . S
C1400 C1398 1.327 . S
C1400 C1419 1.429 . S
C1400 H1424 0.950 . S
C1401 C1418 1.574 . S
C1401 C1420 1.368 . S
C1401 H1425 0.949 . S
H1402 C1406 0.949 . S
C1403 C1404 1.349 . S
C1403 C1405 1.327 . S
C1403 H1426 0.950 . S
C1404 C1403 1.349 . S
C1404 C1416 1.349 . S
C1405 C1403 1.327 . S
C1405 C1421 1.429 . S
C1405 H1427 0.950 . S
C1406 H1402 0.949 . S
C1406 C1414 1.574 . S
C1406 C1422 1.368 . S
H1407 C1415 0.950 . S
H1408 C1413 0.950 . S
H1409 C1414 0.949 . S
H1410 C1416 0.950 . S
H1411 C1417 0.950 . S
H1412 C1418 0.949 . S
C1413 H1408 0.950 . S
C1413 C1415 1.327 . S
C1413 C1419 1.429 . S
C1414 C1406 1.574 . S
C1414 H1409 0.949 . S
C1414 C1420 1.368 . S
C1415 C1399 1.349 . S
C1415 H1407 0.950 . S
C1415 C1413 1.327 . S
C1416 C1404 1.349 . S
C1416 H1410 0.950 . S
C1416 C1417 1.327 . S
C1417 H1411 0.950 . S
C1417 C1416 1.327 . S
C1417 C1421 1.429 . S
C1418 C1401 1.574 . S
C1418 H1412 0.949 . S
C1418 C1422 1.368 . S
C1419 C1400 1.429 . S
C1419 C1413 1.429 . S
C1419 C1420 1.523 . S
C1420 C1401 1.368 . S
C1420 C1414 1.368 . S
C1420 C1419 1.523 . S
C1421 C1405 1.429 . S
C1421 C1417 1.429 . S
C1421 C1422 1.523 . S
C1422 C1406 1.368 . S
C1422 C1418 1.368 . S
C1422 C1421 1.523 . S
H1423 C1398 0.950 . S
H1424 C1400 0.950 . S
H1425 C1401 0.949 . S
H1426 C1403 0.950 . S
H1427 C1405 0.950 . S
C1428 C1429 1.349 . S
C1428 C1430 1.327 . S
C1428 H1453 0.950 . S
C1429 C1428 1.349 . S
C1429 C1445 1.349 . S
C1430 C1428 1.327 . S
C1430 C1449 1.429 . S
C1430 H1454 0.950 . S
C1431 C1448 1.574 . S
C1431 C1450 1.368 . S
C1431 H1455 0.949 . S
H1432 C1436 0.949 . S
C1433 C1434 1.349 . S
C1433 C1435 1.327 . S
C1433 H1456 0.950 . S
C1434 C1433 1.349 . S
C1434 C1446 1.349 . S
C1435 C1433 1.327 . S
C1435 C1451 1.429 . S
C1435 H1457 0.950 . S
C1436 H1432 0.949 . S
C1436 C1444 1.574 . S
C1436 C1452 1.368 . S
H1437 C1445 0.950 . S
H1438 C1443 0.950 . S
H1439 C1444 0.949 . S
H1440 C1446 0.950 . S
H1441 C1447 0.950 . S
H1442 C1448 0.949 . S
C1443 H1438 0.950 . S
C1443 C1445 1.327 . S
C1443 C1449 1.429 . S
C1444 C1436 1.574 . S
C1444 H1439 0.949 . S
C1444 C1450 1.368 . S
C1445 C1429 1.349 . S
C1445 H1437 0.950 . S
C1445 C1443 1.327 . S
C1446 C1434 1.349 . S
C1446 H1440 0.950 . S
C1446 C1447 1.327 . S
C1447 H1441 0.950 . S
C1447 C1446 1.327 . S
C1447 C1451 1.429 . S
C1448 C1431 1.574 . S
C1448 H1442 0.949 . S
C1448 C1452 1.368 . S
C1449 C1430 1.429 . S
C1449 C1443 1.429 . S
C1449 C1450 1.523 . S
C1450 C1431 1.368 . S
C1450 C1444 1.368 . S
C1450 C1449 1.523 . S
C1451 C1435 1.429 . S
C1451 C1447 1.429 . S
C1451 C1452 1.523 . S
C1452 C1436 1.368 . S
C1452 C1448 1.368 . S
C1452 C1451 1.523 . S
H1453 C1428 0.950 . S
H1454 C1430 0.950 . S
H1455 C1431 0.949 . S
H1456 C1433 0.950 . S
H1457 C1435 0.950 . S
C1458 C1459 1.349 . S
C1458 C1460 1.327 . S
C1458 H1483 0.950 . S
C1459 C1458 1.349 . S
C1459 C1475 1.349 . S
C1460 C1458 1.327 . S
C1460 C1479 1.429 . S
C1460 H1484 0.950 . S
C1461 C1478 1.574 . S
C1461 C1480 1.368 . S
C1461 H1485 0.949 . S
H1462 C1466 0.949 . S
C1463 C1464 1.349 . S
C1463 C1465 1.327 . S
C1463 H1486 0.950 . S
C1464 C1463 1.349 . S
C1464 C1476 1.349 . S
C1465 C1463 1.327 . S
C1465 C1481 1.429 . S
C1465 H1487 0.950 . S
C1466 H1462 0.949 . S
C1466 C1474 1.574 . S
C1466 C1482 1.368 . S
H1467 C1475 0.950 . S
H1468 C1473 0.950 . S
H1469 C1474 0.949 . S
H1470 C1476 0.950 . S
H1471 C1477 0.950 . S
H1472 C1478 0.949 . S
C1473 H1468 0.950 . S
C1473 C1475 1.327 . S
C1473 C1479 1.429 . S
C1474 C1466 1.574 . S
C1474 H1469 0.949 . S
C1474 C1480 1.368 . S
C1475 C1459 1.349 . S
C1475 H1467 0.950 . S
C1475 C1473 1.327 . S
C1476 C1464 1.349 . S
C1476 H1470 0.950 . S
C1476 C1477 1.327 . S
C1477 H1471 0.950 . S
C1477 C1476 1.327 . S
C1477 C1481 1.429 . S
C1478 C1461 1.574 . S
C1478 H1472 0.949 . S
C1478 C1482 1.368 . S
C1479 C1460 1.429 . S
C1479 C1473 1.429 . S
C1479 C1480 1.523 . S
C1480 C1461 1.368 . S
C1480 C1474 1.368 . S
C1480 C1479 1.523 . S
C1481 C1465 1.429 . S
C1481 C1477 1.429 . S
C1481 C1482 1.523 . S
C1482 C1466 1.368 . S
C1482 C1478 1.368 . S
C1482 C1481 1.523 . S
H1483 C1458 0.950 . S
H1484 C1460 0.950 . S
H1485 C1461 0.949 . S
H1486 C1463 0.950 . S
H1487 C1465 0.950 . S
C1488 C1489 1.349 . S
C1488 C1490 1.327 1_554 S
C1488 H1513 0.950 . S
C1489 C1488 1.349 . S
C1489 C1505 1.316 1_554 S
C1490 C1488 1.327 1_556 S
C1490 C1509 1.429 . S
C1490 H1514 0.950 . S
C1491 C1508 1.574 . S
C1491 C1510 1.368 . S
C1491 H1515 0.949 . S
H1492 C1496 0.949 . S
C1493 C1494 1.349 . S
C1493 C1495 1.327 . S
C1493 H1516 0.950 . S
C1494 C1493 1.349 . S
C1494 C1506 1.349 . S
C1495 C1493 1.327 . S
C1495 C1511 1.429 . S
C1495 H1517 0.950 . S
C1496 H1492 0.949 . S
C1496 C1504 1.574 . S
C1496 C1512 1.368 . S
H1497 C1505 0.952 1_554 S
H1498 C1503 0.950 . S
H1499 C1504 0.949 . S
H1500 C1506 0.950 . S
H1501 C1507 0.950 . S
H1502 C1508 0.949 . S
C1503 H1498 0.950 . S
C1503 C1505 1.360 . S
C1503 C1509 1.429 . S
C1504 C1496 1.574 . S
C1504 H1499 0.949 . S
C1504 C1510 1.368 . S
C1505 C1489 1.316 1_556 S
C1505 H1497 0.952 1_556 S
C1505 C1503 1.360 . S
C1506 C1494 1.349 . S
C1506 H1500 0.950 . S
C1506 C1507 1.327 . S
C1507 H1501 0.950 . S
C1507 C1506 1.327 . S
C1507 C1511 1.429 . S
C1508 C1491 1.574 . S
C1508 H1502 0.949 . S
C1508 C1512 1.368 . S
C1509 C1490 1.429 . S
C1509 C1503 1.429 . S
C1509 C1510 1.523 . S
C1510 C1491 1.368 . S
C1510 C1504 1.368 . S
C1510 C1509 1.523 . S
C1511 C1495 1.429 . S
C1511 C1507 1.429 . S
C1511 C1512 1.523 . S
C1512 C1496 1.368 . S
C1512 C1508 1.368 . S
C1512 C1511 1.523 . S
H1513 C1488 0.950 . S
H1514 C1490 0.950 . S
H1515 C1491 0.949 . S
H1516 C1493 0.950 . S
H1517 C1495 0.950 . S
C1518 C1519 1.349 . S
C1518 C1520 1.327 . S
C1518 H1543 0.950 . S
C1519 C1518 1.349 . S
C1519 C1535 1.349 1_554 S
C1520 C1518 1.327 . S
C1520 C1539 1.429 1_554 S
C1520 H1544 0.950 . S
C1521 C1538 1.574 . S
C1521 C1540 1.368 . S
C1521 H1545 0.949 . S
H1522 C1526 0.949 . S
C1523 C1524 1.349 . S
C1523 C1525 1.327 . S
C1523 H1546 0.950 . S
C1524 C1523 1.349 . S
C1524 C1536 1.349 . S
C1525 C1523 1.327 . S
C1525 C1541 1.429 . S
C1525 H1547 0.950 . S
C1526 H1522 0.949 . S
C1526 C1534 1.574 . S
C1526 C1542 1.368 . S
H1527 C1535 0.950 . S
H1528 C1533 0.950 . S
H1529 C1534 0.949 . S
H1530 C1536 0.950 . S
H1531 C1537 0.950 . S
H1532 C1538 0.949 . S
C1533 H1528 0.950 . S
C1533 C1535 1.327 . S
C1533 C1539 1.429 . S
C1534 C1526 1.574 . S
C1534 H1529 0.949 . S
C1534 C1540 1.368 . S
C1535 C1519 1.349 1_556 S
C1535 H1527 0.950 . S
C1535 C1533 1.327 . S
C1536 C1524 1.349 . S
C1536 H1530 0.950 . S
C1536 C1537 1.327 . S
C1537 H1531 0.950 . S
C1537 C1536 1.327 . S
C1537 C1541 1.429 . S
C1538 C1521 1.574 . S
C1538 H1532 0.949 . S
C1538 C1542 1.368 . S
C1539 C1520 1.429 1_556 S
C1539 C1533 1.429 . S
C1539 C1540 1.523 . S
C1540 C1521 1.368 . S
C1540 C1534 1.368 . S
C1540 C1539 1.523 . S
C1541 C1525 1.429 . S
C1541 C1537 1.429 . S
C1541 C1542 1.523 . S
C1542 C1526 1.368 . S
C1542 C1538 1.368 . S
C1542 C1541 1.523 . S
H1543 C1518 0.950 . S
H1544 C1520 0.950 . S
H1545 C1521 0.949 . S
H1546 C1523 0.950 . S
H1547 C1525 0.950 . S
C1548 C1549 1.349 . S
C1548 C1550 1.327 . S
C1548 H1573 0.950 . S
C1549 C1548 1.349 . S
C1549 C1565 1.349 . S
C1550 C1548 1.327 . S
C1550 C1569 1.429 . S
C1550 H1574 0.950 . S
C1551 C1568 1.574 . S
C1551 C1570 1.368 . S
C1551 H1575 0.949 . S
H1552 C1556 0.949 . S
C1553 C1554 1.349 . S
C1553 C1555 1.327 . S
C1553 H1576 0.950 . S
C1554 C1553 1.349 . S
C1554 C1566 1.349 . S
C1555 C1553 1.327 . S
C1555 C1571 1.429 . S
C1555 H1577 0.950 . S
C1556 H1552 0.949 . S
C1556 C1564 1.574 . S
C1556 C1572 1.368 . S
H1557 C1565 0.950 . S
H1558 C1563 0.950 . S
H1559 C1564 0.949 . S
H1560 C1566 0.950 . S
H1561 C1567 0.950 . S
H1562 C1568 0.949 . S
C1563 H1558 0.950 . S
C1563 C1565 1.327 . S
C1563 C1569 1.429 . S
C1564 C1556 1.574 . S
C1564 H1559 0.949 . S
C1564 C1570 1.368 . S
C1565 C1549 1.349 . S
C1565 H1557 0.950 . S
C1565 C1563 1.327 . S
C1566 C1554 1.349 . S
C1566 H1560 0.950 . S
C1566 C1567 1.327 . S
C1567 H1561 0.950 . S
C1567 C1566 1.327 . S
C1567 C1571 1.429 . S
C1568 C1551 1.574 . S
C1568 H1562 0.949 . S
C1568 C1572 1.368 . S
C1569 C1550 1.429 . S
C1569 C1563 1.429 . S
C1569 C1570 1.523 . S
C1570 C1551 1.368 . S
C1570 C1564 1.368 . S
C1570 C1569 1.523 . S
C1571 C1555 1.429 . S
C1571 C1567 1.429 . S
C1571 C1572 1.523 . S
C1572 C1556 1.368 . S
C1572 C1568 1.368 . S
C1572 C1571 1.523 . S
H1573 C1548 0.950 . S
H1574 C1550 0.950 . S
H1575 C1551 0.949 . S
H1576 C1553 0.950 . S
H1577 C1555 0.950 . S
C1578 C1579 1.349 . S
C1578 C1580 1.327 . S
C1578 H1603 0.950 . S
C1579 C1578 1.349 . S
C1579 C1595 1.349 . S
C1580 C1578 1.327 . S
C1580 C1599 1.429 . S
C1580 H1604 0.950 . S
C1581 C1598 1.574 . S
C1581 C1600 1.368 . S
C1581 H1605 0.949 . S
H1582 C1586 0.949 . S
C1583 C1584 1.349 . S
C1583 C1585 1.327 . S
C1583 H1606 0.950 . S
C1584 C1583 1.349 . S
C1584 C1596 1.349 . S
C1585 C1583 1.327 . S
C1585 C1601 1.429 . S
C1585 H1607 0.950 . S
C1586 H1582 0.949 . S
C1586 C1594 1.574 . S
C1586 C1602 1.368 . S
H1587 C1595 0.950 . S
H1588 C1593 0.950 . S
H1589 C1594 0.949 . S
H1590 C1596 0.950 . S
H1591 C1597 0.950 . S
H1592 C1598 0.949 . S
C1593 H1588 0.950 . S
C1593 C1595 1.327 . S
C1593 C1599 1.429 . S
C1594 C1586 1.574 . S
C1594 H1589 0.949 . S
C1594 C1600 1.368 . S
C1595 C1579 1.349 . S
C1595 H1587 0.950 . S
C1595 C1593 1.327 . S
C1596 C1584 1.349 . S
C1596 H1590 0.950 . S
C1596 C1597 1.327 . S
C1597 H1591 0.950 . S
C1597 C1596 1.327 . S
C1597 C1601 1.429 . S
C1598 C1581 1.574 . S
C1598 H1592 0.949 . S
C1598 C1602 1.368 . S
C1599 C1580 1.429 . S
C1599 C1593 1.429 . S
C1599 C1600 1.523 . S
C1600 C1581 1.368 . S
C1600 C1594 1.368 . S
C1600 C1599 1.523 . S
C1601 C1585 1.429 . S
C1601 C1597 1.429 . S
C1601 C1602 1.523 . S
C1602 C1586 1.368 . S
C1602 C1598 1.368 . S
C1602 C1601 1.523 . S
H1603 C1578 0.950 . S
H1604 C1580 0.950 . S
H1605 C1581 0.949 . S
H1606 C1583 0.950 . S
H1607 C1585 0.950 . S
C1608 C1609 1.349 . S
C1608 C1610 1.327 . S
C1608 H1633 0.950 1_565 S
C1609 C1608 1.349 . S
C1609 C1625 1.356 . S
C1610 C1608 1.327 . S
C1610 C1629 1.429 . S
C1610 H1634 0.950 . S
C1611 C1628 1.574 . S
C1611 C1630 1.368 . S
C1611 H1635 0.949 . S
H1612 C1616 0.949 . S
C1613 C1614 1.349 . S
C1613 C1615 1.327 . S
C1613 H1636 0.950 . S
C1614 C1613 1.349 . S
C1614 C1626 1.349 . S
C1615 C1613 1.327 . S
C1615 C1631 1.429 . S
C1615 H1637 0.950 . S
C1616 H1612 0.949 . S
C1616 C1624 1.574 . S
C1616 C1632 1.368 . S
H1617 C1625 0.950 . S
H1618 C1623 0.950 . S
H1619 C1624 0.949 . S
H1620 C1626 0.950 . S
H1621 C1627 0.950 . S
H1622 C1628 0.949 . S
C1623 H1618 0.950 . S
C1623 C1625 1.327 . S
C1623 C1629 1.429 . S
C1624 C1616 1.574 . S
C1624 H1619 0.949 . S
C1624 C1630 1.368 . S
C1625 C1609 1.356 . S
C1625 H1617 0.950 . S
C1625 C1623 1.327 . S
C1626 C1614 1.349 . S
C1626 H1620 0.950 . S
C1626 C1627 1.327 . S
C1627 H1621 0.950 . S
C1627 C1626 1.327 . S
C1627 C1631 1.429 . S
C1628 C1611 1.574 . S
C1628 H1622 0.949 . S
C1628 C1632 1.368 . S
C1629 C1610 1.429 . S
C1629 C1623 1.429 . S
C1629 C1630 1.523 . S
C1630 C1611 1.368 . S
C1630 C1624 1.368 . S
C1630 C1629 1.523 . S
C1631 C1615 1.429 . S
C1631 C1627 1.429 . S
C1631 C1632 1.523 . S
C1632 C1616 1.368 . S
C1632 C1628 1.368 . S
C1632 C1631 1.523 . S
H1633 C1608 0.950 1_545 S
H1634 C1610 0.950 . S
H1635 C1611 0.949 . S
H1636 C1613 0.950 . S
H1637 C1615 0.950 . S
C1638 C1639 1.349 . S
C1638 C1640 1.327 . S
C1638 H1663 0.950 . S
C1639 C1638 1.349 . S
C1639 C1655 1.349 . S
C1640 C1638 1.327 . S
C1640 C1659 1.429 . S
C1640 H1664 0.950 . S
C1641 C1658 1.574 . S
C1641 C1660 1.368 . S
C1641 H1665 0.949 . S
H1642 C1646 0.949 . S
C1643 C1644 1.349 . S
C1643 C1645 1.327 . S
C1643 H1666 0.950 . S
C1644 C1643 1.349 . S
C1644 C1656 1.349 . S
C1645 C1643 1.327 . S
C1645 C1661 1.429 . S
C1645 H1667 0.950 . S
C1646 H1642 0.949 . S
C1646 C1654 1.574 . S
C1646 C1662 1.368 . S
H1647 C1655 0.950 . S
H1648 C1653 0.950 . S
H1649 C1654 0.949 . S
H1650 C1656 0.950 . S
H1651 C1657 0.950 . S
H1652 C1658 0.949 . S
C1653 H1648 0.950 . S
C1653 C1655 1.327 . S
C1653 C1659 1.429 . S
C1654 C1646 1.574 . S
C1654 H1649 0.949 . S
C1654 C1660 1.368 . S
C1655 C1639 1.349 . S
C1655 H1647 0.950 . S
C1655 C1653 1.327 . S
C1656 C1644 1.349 . S
C1656 H1650 0.950 . S
C1656 C1657 1.327 . S
C1657 H1651 0.950 . S
C1657 C1656 1.327 . S
C1657 C1661 1.429 . S
C1658 C1641 1.574 . S
C1658 H1652 0.949 . S
C1658 C1662 1.368 . S
C1659 C1640 1.429 . S
C1659 C1653 1.429 . S
C1659 C1660 1.523 . S
C1660 C1641 1.368 . S
C1660 C1654 1.368 . S
C1660 C1659 1.523 . S
C1661 C1645 1.429 . S
C1661 C1657 1.429 . S
C1661 C1662 1.523 . S
C1662 C1646 1.368 . S
C1662 C1658 1.368 . S
C1662 C1661 1.523 . S
H1663 C1638 0.950 . S
H1664 C1640 0.950 . S
H1665 C1641 0.949 . S
H1666 C1643 0.950 . S
H1667 C1645 0.950 . S
C1668 C1669 1.349 . S
C1668 C1670 1.327 . S
C1668 H1693 0.950 . S
C1669 C1668 1.349 . S
C1669 C1685 1.349 . S
C1670 C1668 1.327 . S
C1670 C1689 1.429 . S
C1670 H1694 0.950 . S
C1671 C1688 1.574 . S
C1671 C1690 1.368 . S
C1671 H1695 0.949 . S
H1672 C1676 0.949 . S
C1673 C1674 1.349 . S
C1673 C1675 1.327 . S
C1673 H1696 0.950 . S
C1674 C1673 1.349 . S
C1674 C1686 1.349 . S
C1675 C1673 1.327 . S
C1675 C1691 1.429 . S
C1675 H1697 0.950 . S
C1676 H1672 0.949 . S
C1676 C1684 1.574 . S
C1676 C1692 1.368 . S
H1677 C1685 0.950 . S
H1678 C1683 0.950 . S
H1679 C1684 0.949 . S
H1680 C1686 0.950 . S
H1681 C1687 0.950 . S
H1682 C1688 0.949 . S
C1683 H1678 0.950 . S
C1683 C1685 1.327 . S
C1683 C1689 1.429 . S
C1684 C1676 1.574 . S
C1684 H1679 0.949 . S
C1684 C1690 1.368 . S
C1685 C1669 1.349 . S
C1685 H1677 0.950 . S
C1685 C1683 1.327 . S
C1686 C1674 1.349 . S
C1686 H1680 0.950 . S
C1686 C1687 1.327 . S
C1687 H1681 0.950 . S
C1687 C1686 1.327 . S
C1687 C1691 1.429 . S
C1688 C1671 1.574 . S
C1688 H1682 0.949 . S
C1688 C1692 1.368 . S
C1689 C1670 1.429 . S
C1689 C1683 1.429 . S
C1689 C1690 1.523 . S
C1690 C1671 1.368 . S
C1690 C1684 1.368 . S
C1690 C1689 1.523 . S
C1691 C1675 1.429 . S
C1691 C1687 1.429 . S
C1691 C1692 1.523 . S
C1692 C1676 1.368 . S
C1692 C1688 1.368 . S
C1692 C1691 1.523 . S
H1693 C1668 0.950 . S
H1694 C1670 0.950 . S
H1695 C1671 0.949 . S
H1696 C1673 0.950 . S
H1697 C1675 0.950 . S
C1698 C1699 1.349 . S
C1698 C1700 1.327 . S
C1698 H1723 0.950 . S
C1699 C1698 1.349 . S
C1699 C1715 1.349 . S
C1700 C1698 1.327 . S
C1700 C1719 1.429 . S
C1700 H1724 0.950 . S
C1701 C1718 1.574 . S
C1701 C1720 1.368 . S
C1701 H1725 0.949 . S
H1702 C1706 0.949 . S
C1703 C1704 1.349 . S
C1703 C1705 1.327 . S
C1703 H1726 0.950 . S
C1704 C1703 1.349 . S
C1704 C1716 1.349 . S
C1705 C1703 1.327 . S
C1705 C1721 1.429 . S
C1705 H1727 0.950 . S
C1706 H1702 0.949 . S
C1706 C1714 1.574 . S
C1706 C1722 1.368 . S
H1707 C1715 0.950 . S
H1708 C1713 0.950 . S
H1709 C1714 0.949 . S
H1710 C1716 0.950 . S
H1711 C1717 0.950 . S
H1712 C1718 0.949 . S
C1713 H1708 0.950 . S
C1713 C1715 1.327 . S
C1713 C1719 1.429 . S
C1714 C1706 1.574 . S
C1714 H1709 0.949 . S
C1714 C1720 1.368 . S
C1715 C1699 1.349 . S
C1715 H1707 0.950 . S
C1715 C1713 1.327 . S
C1716 C1704 1.349 . S
C1716 H1710 0.950 . S
C1716 C1717 1.327 . S
C1717 H1711 0.950 . S
C1717 C1716 1.327 . S
C1717 C1721 1.429 . S
C1718 C1701 1.574 . S
C1718 H1712 0.949 . S
C1718 C1722 1.368 . S
C1719 C1700 1.429 . S
C1719 C1713 1.429 . S
C1719 C1720 1.523 . S
C1720 C1701 1.368 . S
C1720 C1714 1.368 . S
C1720 C1719 1.523 . S
C1721 C1705 1.429 . S
C1721 C1717 1.429 . S
C1721 C1722 1.523 . S
C1722 C1706 1.368 . S
C1722 C1718 1.368 . S
C1722 C1721 1.523 . S
H1723 C1698 0.950 . S
H1724 C1700 0.950 . S
H1725 C1701 0.949 . S
H1726 C1703 0.950 . S
H1727 C1705 0.950 . S
C1728 C1729 1.349 . S
C1728 C1730 1.327 . S
C1728 H1753 0.950 . S
C1729 C1728 1.349 . S
C1729 C1745 1.349 . S
C1730 C1728 1.327 . S
C1730 C1749 1.429 . S
C1730 H1754 0.950 . S
C1731 C1748 1.574 . S
C1731 C1750 1.368 . S
C1731 H1755 0.949 . S
H1732 C1736 0.949 . S
C1733 C1734 1.349 . S
C1733 C1735 1.327 . S
C1733 H1756 0.950 . S
C1734 C1733 1.349 . S
C1734 C1746 1.349 . S
C1735 C1733 1.327 . S
C1735 C1751 1.429 . S
C1735 H1757 0.950 . S
C1736 H1732 0.949 . S
C1736 C1744 1.574 . S
C1736 C1752 1.368 . S
H1737 C1745 0.950 . S
H1738 C1743 0.950 . S
H1739 C1744 0.949 . S
H1740 C1746 0.950 . S
H1741 C1747 0.950 . S
H1742 C1748 0.949 . S
C1743 H1738 0.950 . S
C1743 C1745 1.327 . S
C1743 C1749 1.429 . S
C1744 C1736 1.574 . S
C1744 H1739 0.949 . S
C1744 C1750 1.368 . S
C1745 C1729 1.349 . S
C1745 H1737 0.950 . S
C1745 C1743 1.327 . S
C1746 C1734 1.349 . S
C1746 H1740 0.950 . S
C1746 C1747 1.327 . S
C1747 H1741 0.950 . S
C1747 C1746 1.327 . S
C1747 C1751 1.429 . S
C1748 C1731 1.574 . S
C1748 H1742 0.949 . S
C1748 C1752 1.368 . S
C1749 C1730 1.429 . S
C1749 C1743 1.429 . S
C1749 C1750 1.523 . S
C1750 C1731 1.368 . S
C1750 C1744 1.368 . S
C1750 C1749 1.523 . S
C1751 C1735 1.429 . S
C1751 C1747 1.429 . S
C1751 C1752 1.523 . S
C1752 C1736 1.368 . S
C1752 C1748 1.368 . S
C1752 C1751 1.523 . S
H1753 C1728 0.950 . S
H1754 C1730 0.950 . S
H1755 C1731 0.949 . S
H1756 C1733 0.950 . S
H1757 C1735 0.950 . S
C1758 C1759 1.349 . S
C1758 C1760 1.327 . S
C1758 H1783 0.950 . S
C1759 C1758 1.349 . S
C1759 C1775 1.349 . S
C1760 C1758 1.327 . S
C1760 C1779 1.429 . S
C1760 H1784 0.950 . S
C1761 C1778 1.574 . S
C1761 C1780 1.368 . S
C1761 H1785 0.949 . S
H1762 C1766 0.949 . S
C1763 C1764 1.349 . S
C1763 C1765 1.327 . S
C1763 H1786 0.950 . S
C1764 C1763 1.349 . S
C1764 C1776 1.349 . S
C1765 C1763 1.327 . S
C1765 C1781 1.429 . S
C1765 H1787 0.950 . S
C1766 H1762 0.949 . S
C1766 C1774 1.574 . S
C1766 C1782 1.368 . S
H1767 C1775 0.950 . S
H1768 C1773 0.950 . S
H1769 C1774 0.949 . S
H1770 C1776 0.950 . S
H1771 C1777 0.950 . S
H1772 C1778 0.949 . S
C1773 H1768 0.950 . S
C1773 C1775 1.327 . S
C1773 C1779 1.429 . S
C1774 C1766 1.574 . S
C1774 H1769 0.949 . S
C1774 C1780 1.368 . S
C1775 C1759 1.349 . S
C1775 H1767 0.950 . S
C1775 C1773 1.327 . S
C1776 C1764 1.349 . S
C1776 H1770 0.950 . S
C1776 C1777 1.327 . S
C1777 H1771 0.950 . S
C1777 C1776 1.327 . S
C1777 C1781 1.429 . S
C1778 C1761 1.574 . S
C1778 H1772 0.949 . S
C1778 C1782 1.368 . S
C1779 C1760 1.429 . S
C1779 C1773 1.429 . S
C1779 C1780 1.523 . S
C1780 C1761 1.368 . S
C1780 C1774 1.368 . S
C1780 C1779 1.523 . S
C1781 C1765 1.429 . S
C1781 C1777 1.429 . S
C1781 C1782 1.523 . S
C1782 C1766 1.368 . S
C1782 C1778 1.368 . S
C1782 C1781 1.523 . S
H1783 C1758 0.950 . S
H1784 C1760 0.950 . S
H1785 C1761 0.949 . S
H1786 C1763 0.950 . S
H1787 C1765 0.950 . S
C1788 C1789 1.349 . S
C1788 C1790 1.327 . S
C1788 H1813 0.950 . S
C1789 C1788 1.349 . S
C1789 C1805 1.349 . S
C1790 C1788 1.327 . S
C1790 C1809 1.429 . S
C1790 H1814 0.950 . S
C1791 C1808 1.574 . S
C1791 C1810 1.368 . S
C1791 H1815 0.949 . S
H1792 C1796 0.949 . S
C1793 C1794 1.349 . S
C1793 C1795 1.327 . S
C1793 H1816 0.950 . S
C1794 C1793 1.349 . S
C1794 C1806 1.349 . S
C1795 C1793 1.327 . S
C1795 C1811 1.429 . S
C1795 H1817 0.950 . S
C1796 H1792 0.949 . S
C1796 C1804 1.574 . S
C1796 C1812 1.368 . S
H1797 C1805 0.950 . S
H1798 C1803 0.950 . S
H1799 C1804 0.949 . S
H1800 C1806 0.950 . S
H1801 C1807 0.950 . S
H1802 C1808 0.949 . S
C1803 H1798 0.950 . S
C1803 C1805 1.327 . S
C1803 C1809 1.429 . S
C1804 C1796 1.574 . S
C1804 H1799 0.949 . S
C1804 C1810 1.368 . S
C1805 C1789 1.349 . S
C1805 H1797 0.950 . S
C1805 C1803 1.327 . S
C1806 C1794 1.349 . S
C1806 H1800 0.950 . S
C1806 C1807 1.327 . S
C1807 H1801 0.950 . S
C1807 C1806 1.327 . S
C1807 C1811 1.429 . S
C1808 C1791 1.574 . S
C1808 H1802 0.949 . S
C1808 C1812 1.368 . S
C1809 C1790 1.429 . S
C1809 C1803 1.429 . S
C1809 C1810 1.523 . S
C1810 C1791 1.368 . S
C1810 C1804 1.368 . S
C1810 C1809 1.523 . S
C1811 C1795 1.429 . S
C1811 C1807 1.429 . S
C1811 C1812 1.523 . S
C1812 C1796 1.368 . S
C1812 C1808 1.368 . S
C1812 C1811 1.523 . S
H1813 C1788 0.950 . S
H1814 C1790 0.950 . S
H1815 C1791 0.949 . S
H1816 C1793 0.950 . S
H1817 C1795 0.950 . S
C1818 C1819 1.349 . S
C1818 C1820 1.327 . S
C1818 H1843 0.950 . S
C1819 C1818 1.349 . S
C1819 C1835 1.349 . S
C1820 C1818 1.327 . S
C1820 C1839 1.429 . S
C1820 H1844 0.950 . S
C1821 C1838 1.574 . S
C1821 C1840 1.368 . S
C1821 H1845 0.949 . S
H1822 C1826 0.949 . S
C1823 C1824 1.349 . S
C1823 C1825 1.327 . S
C1823 H1846 0.950 . S
C1824 C1823 1.349 . S
C1824 C1836 1.349 . S
C1825 C1823 1.327 . S
C1825 C1841 1.429 . S
C1825 H1847 0.950 . S
C1826 H1822 0.949 . S
C1826 C1834 1.574 . S
C1826 C1842 1.368 . S
H1827 C1835 0.950 . S
H1828 C1833 0.950 . S
H1829 C1834 0.949 . S
H1830 C1836 0.950 . S
H1831 C1837 0.950 . S
H1832 C1838 0.949 . S
C1833 H1828 0.950 . S
C1833 C1835 1.327 . S
C1833 C1839 1.429 . S
C1834 C1826 1.574 . S
C1834 H1829 0.949 . S
C1834 C1840 1.368 . S
C1835 C1819 1.349 . S
C1835 H1827 0.950 . S
C1835 C1833 1.327 . S
C1836 C1824 1.349 . S
C1836 H1830 0.950 . S
C1836 C1837 1.327 . S
C1837 H1831 0.950 . S
C1837 C1836 1.327 . S
C1837 C1841 1.429 . S
C1838 C1821 1.574 . S
C1838 H1832 0.949 . S
C1838 C1842 1.368 . S
C1839 C1820 1.429 . S
C1839 C1833 1.429 . S
C1839 C1840 1.523 . S
C1840 C1821 1.368 . S
C1840 C1834 1.368 . S
C1840 C1839 1.523 . S
C1841 C1825 1.429 . S
C1841 C1837 1.429 . S
C1841 C1842 1.523 . S
C1842 C1826 1.368 . S
C1842 C1838 1.368 . S
C1842 C1841 1.523 . S
H1843 C1818 0.950 . S
H1844 C1820 0.950 . S
H1845 C1821 0.949 . S
H1846 C1823 0.950 . S
H1847 C1825 0.950 . S
C1848 C1849 1.349 . S
C1848 C1850 1.327 . S
C1848 H1873 0.950 . S
C1849 C1848 1.349 . S
C1849 C1865 1.349 . S
C1850 C1848 1.327 . S
C1850 C1869 1.429 . S
C1850 H1874 0.950 . S
C1851 C1868 1.574 . S
C1851 C1870 1.368 . S
C1851 H1875 0.949 . S
H1852 C1856 0.949 . S
C1853 C1854 1.349 . S
C1853 C1855 1.327 . S
C1853 H1876 0.950 . S
C1854 C1853 1.349 . S
C1854 C1866 1.349 . S
C1855 C1853 1.327 . S
C1855 C1871 1.429 . S
C1855 H1877 0.950 . S
C1856 H1852 0.949 . S
C1856 C1864 1.574 . S
C1856 C1872 1.368 . S
H1857 C1865 0.950 . S
H1858 C1863 0.950 . S
H1859 C1864 0.949 . S
H1860 C1866 0.950 . S
H1861 C1867 0.950 . S
H1862 C1868 0.949 . S
C1863 H1858 0.950 . S
C1863 C1865 1.327 . S
C1863 C1869 1.429 . S
C1864 C1856 1.574 . S
C1864 H1859 0.949 . S
C1864 C1870 1.368 . S
C1865 C1849 1.349 . S
C1865 H1857 0.950 . S
C1865 C1863 1.327 . S
C1866 C1854 1.349 . S
C1866 H1860 0.950 . S
C1866 C1867 1.327 . S
C1867 H1861 0.950 . S
C1867 C1866 1.327 . S
C1867 C1871 1.429 . S
C1868 C1851 1.574 . S
C1868 H1862 0.949 . S
C1868 C1872 1.368 . S
C1869 C1850 1.429 . S
C1869 C1863 1.429 . S
C1869 C1870 1.523 . S
C1870 C1851 1.368 . S
C1870 C1864 1.368 . S
C1870 C1869 1.523 . S
C1871 C1855 1.429 . S
C1871 C1867 1.429 . S
C1871 C1872 1.523 . S
C1872 C1856 1.368 . S
C1872 C1868 1.368 . S
C1872 C1871 1.523 . S
H1873 C1848 0.950 . S
H1874 C1850 0.950 . S
H1875 C1851 0.949 . S
H1876 C1853 0.950 . S
H1877 C1855 0.950 . S
C1878 C1879 1.349 . S
C1878 C1880 1.327 . S
C1878 H1903 0.950 . S
C1879 C1878 1.349 . S
C1879 C1895 1.349 . S
C1880 C1878 1.327 . S
C1880 C1899 1.429 . S
C1880 H1904 0.950 . S
C1881 C1898 1.574 . S
C1881 C1900 1.368 . S
C1881 H1905 0.949 . S
H1882 C1886 0.949 . S
C1883 C1884 1.349 . S
C1883 C1885 1.327 . S
C1883 H1906 0.950 . S
C1884 C1883 1.349 . S
C1884 C1896 1.349 . S
C1885 C1883 1.327 . S
C1885 C1901 1.429 . S
C1885 H1907 0.950 . S
C1886 H1882 0.949 . S
C1886 C1894 1.574 . S
C1886 C1902 1.368 . S
H1887 C1895 0.950 . S
H1888 C1893 0.950 . S
H1889 C1894 0.949 . S
H1890 C1896 0.950 . S
H1891 C1897 0.950 . S
H1892 C1898 0.949 . S
C1893 H1888 0.950 . S
C1893 C1895 1.327 . S
C1893 C1899 1.429 . S
C1894 C1886 1.574 . S
C1894 H1889 0.949 . S
C1894 C1900 1.368 . S
C1895 C1879 1.349 . S
C1895 H1887 0.950 . S
C1895 C1893 1.327 . S
C1896 C1884 1.349 . S
C1896 H1890 0.950 . S
C1896 C1897 1.327 . S
C1897 H1891 0.950 . S
C1897 C1896 1.327 . S
C1897 C1901 1.429 . S
C1898 C1881 1.574 . S
C1898 H1892 0.949 . S
C1898 C1902 1.368 . S
C1899 C1880 1.429 . S
C1899 C1893 1.429 . S
C1899 C1900 1.523 . S
C1900 C1881 1.368 . S
C1900 C1894 1.368 . S
C1900 C1899 1.523 . S
C1901 C1885 1.429 . S
C1901 C1897 1.429 . S
C1901 C1902 1.523 . S
C1902 C1886 1.368 . S
C1902 C1898 1.368 . S
C1902 C1901 1.523 . S
H1903 C1878 0.950 . S
H1904 C1880 0.950 . S
H1905 C1881 0.949 . S
H1906 C1883 0.950 . S
H1907 C1885 0.950 . S
C1908 C1909 1.349 . S
C1908 C1910 1.327 . S
C1908 H1933 0.950 . S
C1909 C1908 1.349 . S
C1909 C1925 1.349 . S
C1910 C1908 1.327 . S
C1910 C1929 1.429 . S
C1910 H1934 0.950 . S
C1911 C1928 1.574 . S
C1911 C1930 1.368 . S
C1911 H1935 0.949 . S
H1912 C1916 0.949 . S
C1913 C1914 1.349 . S
C1913 C1915 1.327 . S
C1913 H1936 0.950 . S
C1914 C1913 1.349 . S
C1914 C1926 1.349 . S
C1915 C1913 1.327 . S
C1915 C1931 1.429 . S
C1915 H1937 0.950 . S
C1916 H1912 0.949 . S
C1916 C1924 1.574 . S
C1916 C1932 1.368 . S
H1917 C1925 0.950 . S
H1918 C1923 0.950 . S
H1919 C1924 0.949 . S
H1920 C1926 0.950 . S
H1921 C1927 0.950 . S
H1922 C1928 0.949 . S
C1923 H1918 0.950 . S
C1923 C1925 1.327 . S
C1923 C1929 1.429 . S
C1924 C1916 1.574 . S
C1924 H1919 0.949 . S
C1924 C1930 1.368 . S
C1925 C1909 1.349 . S
C1925 H1917 0.950 . S
C1925 C1923 1.327 . S
C1926 C1914 1.349 . S
C1926 H1920 0.950 . S
C1926 C1927 1.327 . S
C1927 H1921 0.950 . S
C1927 C1926 1.327 . S
C1927 C1931 1.429 . S
C1928 C1911 1.574 . S
C1928 H1922 0.949 . S
C1928 C1932 1.368 . S
C1929 C1910 1.429 . S
C1929 C1923 1.429 . S
C1929 C1930 1.523 . S
C1930 C1911 1.368 . S
C1930 C1924 1.368 . S
C1930 C1929 1.523 . S
C1931 C1915 1.429 . S
C1931 C1927 1.429 . S
C1931 C1932 1.523 . S
C1932 C1916 1.368 . S
C1932 C1928 1.368 . S
C1932 C1931 1.523 . S
H1933 C1908 0.950 . S
H1934 C1910 0.950 . S
H1935 C1911 0.949 . S
H1936 C1913 0.950 . S
H1937 C1915 0.950 . S
C1938 C1939 1.349 . S
C1938 C1940 1.327 . S
C1938 H1963 0.950 . S
C1939 C1938 1.349 . S
C1939 C1955 1.349 . S
C1940 C1938 1.327 . S
C1940 C1959 1.429 . S
C1940 H1964 0.950 . S
C1941 C1958 1.574 . S
C1941 C1960 1.368 . S
C1941 H1965 0.949 . S
H1942 C1946 0.949 . S
C1943 C1944 1.349 . S
C1943 C1945 1.327 . S
C1943 H1966 0.950 . S
C1944 C1943 1.349 . S
C1944 C1956 1.349 . S
C1945 C1943 1.327 . S
C1945 C1961 1.429 . S
C1945 H1967 0.950 . S
C1946 H1942 0.949 . S
C1946 C1954 1.574 . S
C1946 C1962 1.368 . S
H1947 C1955 0.950 . S
H1948 C1953 0.950 . S
H1949 C1954 0.949 . S
H1950 C1956 0.950 . S
H1951 C1957 0.950 . S
H1952 C1958 0.949 . S
C1953 H1948 0.950 . S
C1953 C1955 1.327 . S
C1953 C1959 1.429 . S
C1954 C1946 1.574 . S
C1954 H1949 0.949 . S
C1954 C1960 1.368 . S
C1955 C1939 1.349 . S
C1955 H1947 0.950 . S
C1955 C1953 1.327 . S
C1956 C1944 1.349 . S
C1956 H1950 0.950 . S
C1956 C1957 1.327 . S
C1957 H1951 0.950 . S
C1957 C1956 1.327 . S
C1957 C1961 1.429 . S
C1958 C1941 1.574 . S
C1958 H1952 0.949 . S
C1958 C1962 1.368 . S
C1959 C1940 1.429 . S
C1959 C1953 1.429 . S
C1959 C1960 1.523 . S
C1960 C1941 1.368 . S
C1960 C1954 1.368 . S
C1960 C1959 1.523 . S
C1961 C1945 1.429 . S
C1961 C1957 1.429 . S
C1961 C1962 1.523 . S
C1962 C1946 1.368 . S
C1962 C1958 1.368 . S
C1962 C1961 1.523 . S
H1963 C1938 0.950 . S
H1964 C1940 0.950 . S
H1965 C1941 0.949 . S
H1966 C1943 0.950 . S
H1967 C1945 0.950 . S
C1968 C1969 1.349 . S
C1968 C1970 1.327 . S
C1968 H1993 0.950 . S
C1969 C1968 1.349 . S
C1969 C1985 1.349 . S
C1970 C1968 1.327 . S
C1970 C1989 1.429 . S
C1970 H1994 0.950 . S
C1971 C1988 1.574 . S
C1971 C1990 1.368 . S
C1971 H1995 0.949 . S
H1972 C1976 0.949 . S
C1973 C1974 1.349 . S
C1973 C1975 1.327 . S
C1973 H1996 0.950 . S
C1974 C1973 1.349 . S
C1974 C1986 1.349 . S
C1975 C1973 1.327 . S
C1975 C1991 1.429 . S
C1975 H1997 0.950 . S
C1976 H1972 0.949 . S
C1976 C1984 1.574 . S
C1976 C1992 1.368 . S
H1977 C1985 0.950 . S
H1978 C1983 0.950 . S
H1979 C1984 0.949 . S
H1980 C1986 0.950 . S
H1981 C1987 0.950 . S
H1982 C1988 0.949 . S
C1983 H1978 0.950 . S
C1983 C1985 1.327 . S
C1983 C1989 1.429 . S
C1984 C1976 1.574 . S
C1984 H1979 0.949 . S
C1984 C1990 1.368 . S
C1985 C1969 1.349 . S
C1985 H1977 0.950 . S
C1985 C1983 1.327 . S
C1986 C1974 1.349 . S
C1986 H1980 0.950 . S
C1986 C1987 1.327 . S
C1987 H1981 0.950 . S
C1987 C1986 1.327 . S
C1987 C1991 1.429 . S
C1988 C1971 1.574 . S
C1988 H1982 0.949 . S
C1988 C1992 1.368 . S
C1989 C1970 1.429 . S
C1989 C1983 1.429 . S
C1989 C1990 1.523 . S
C1990 C1971 1.368 . S
C1990 C1984 1.368 . S
C1990 C1989 1.523 . S
C1991 C1975 1.429 . S
C1991 C1987 1.429 . S
C1991 C1992 1.523 . S
C1992 C1976 1.368 . S
C1992 C1988 1.368 . S
C1992 C1991 1.523 . S
H1993 C1968 0.950 . S
H1994 C1970 0.950 . S
H1995 C1971 0.949 . S
H1996 C1973 0.950 . S
H1997 C1975 0.950 . S
C1998 C1999 1.349 . S
C1998 C2000 1.327 . S
C1998 H2023 0.950 . S
C1999 C1998 1.349 . S
C1999 C2015 1.349 . S
C2000 C1998 1.327 . S
C2000 C2019 1.429 . S
C2000 H2024 0.950 . S
C2001 C2018 1.574 . S
C2001 C2020 1.368 . S
C2001 H2025 0.949 . S
H2002 C2006 0.949 . S
C2003 C2004 1.349 . S
C2003 C2005 1.327 . S
C2003 H2026 0.950 . S
C2004 C2003 1.349 . S
C2004 C2016 1.349 . S
C2005 C2003 1.327 . S
C2005 C2021 1.429 . S
C2005 H2027 0.950 . S
C2006 H2002 0.949 . S
C2006 C2014 1.574 . S
C2006 C2022 1.368 . S
H2007 C2015 0.950 . S
H2008 C2013 0.950 . S
H2009 C2014 0.949 . S
H2010 C2016 0.950 . S
H2011 C2017 0.950 . S
H2012 C2018 0.949 . S
C2013 H2008 0.950 . S
C2013 C2015 1.327 . S
C2013 C2019 1.429 . S
C2014 C2006 1.574 . S
C2014 H2009 0.949 . S
C2014 C2020 1.368 . S
C2015 C1999 1.349 . S
C2015 H2007 0.950 . S
C2015 C2013 1.327 . S
C2016 C2004 1.349 . S
C2016 H2010 0.950 . S
C2016 C2017 1.327 . S
C2017 H2011 0.950 . S
C2017 C2016 1.327 . S
C2017 C2021 1.429 . S
C2018 C2001 1.574 . S
C2018 H2012 0.949 . S
C2018 C2022 1.368 . S
C2019 C2000 1.429 . S
C2019 C2013 1.429 . S
C2019 C2020 1.523 . S
C2020 C2001 1.368 . S
C2020 C2014 1.368 . S
C2020 C2019 1.523 . S
C2021 C2005 1.429 . S
C2021 C2017 1.429 . S
C2021 C2022 1.523 . S
C2022 C2006 1.368 . S
C2022 C2018 1.368 . S
C2022 C2021 1.523 . S
H2023 C1998 0.950 . S
H2024 C2000 0.950 . S
H2025 C2001 0.949 . S
H2026 C2003 0.950 . S
H2027 C2005 0.950 . S
C2028 C2029 1.349 . S
C2028 C2030 1.327 . S
C2028 H2053 0.950 . S
C2029 C2028 1.349 . S
C2029 C2045 1.349 . S
C2030 C2028 1.327 . S
C2030 C2049 1.429 . S
C2030 H2054 0.950 . S
C2031 C2048 1.574 . S
C2031 C2050 1.368 . S
C2031 H2055 0.949 . S
H2032 C2036 0.949 . S
C2033 C2034 1.349 . S
C2033 C2035 1.327 . S
C2033 H2056 0.950 . S
C2034 C2033 1.349 . S
C2034 C2046 1.349 . S
C2035 C2033 1.327 . S
C2035 C2051 1.429 . S
C2035 H2057 0.950 . S
C2036 H2032 0.949 . S
C2036 C2044 1.574 . S
C2036 C2052 1.368 . S
H2037 C2045 0.950 . S
H2038 C2043 0.950 . S
H2039 C2044 0.949 . S
H2040 C2046 0.950 . S
H2041 C2047 0.950 . S
H2042 C2048 0.949 . S
C2043 H2038 0.950 . S
C2043 C2045 1.327 . S
C2043 C2049 1.429 . S
C2044 C2036 1.574 . S
C2044 H2039 0.949 . S
C2044 C2050 1.368 . S
C2045 C2029 1.349 . S
C2045 H2037 0.950 . S
C2045 C2043 1.327 . S
C2046 C2034 1.349 . S
C2046 H2040 0.950 . S
C2046 C2047 1.327 . S
C2047 H2041 0.950 . S
C2047 C2046 1.327 . S
C2047 C2051 1.429 . S
C2048 C2031 1.574 . S
C2048 H2042 0.949 . S
C2048 C2052 1.368 . S
C2049 C2030 1.429 . S
C2049 C2043 1.429 . S
C2049 C2050 1.523 . S
C2050 C2031 1.368 . S
C2050 C2044 1.368 . S
C2050 C2049 1.523 . S
C2051 C2035 1.429 . S
C2051 C2047 1.429 . S
C2051 C2052 1.523 . S
C2052 C2036 1.368 . S
C2052 C2048 1.368 . S
C2052 C2051 1.523 . S
H2053 C2028 0.950 . S
H2054 C2030 0.950 . S
H2055 C2031 0.949 . S
H2056 C2033 0.950 . S
H2057 C2035 0.950 . S
C2058 C2059 1.349 . S
C2058 C2060 1.327 . S
C2058 H2083 0.950 . S
C2059 C2058 1.349 . S
C2059 C2075 1.349 . S
C2060 C2058 1.327 . S
C2060 C2079 1.429 . S
C2060 H2084 0.950 . S
C2061 C2078 1.574 . S
C2061 C2080 1.368 . S
C2061 H2085 0.949 . S
H2062 C2066 0.949 . S
C2063 C2064 1.349 . S
C2063 C2065 1.327 . S
C2063 H2086 0.950 . S
C2064 C2063 1.349 . S
C2064 C2076 1.349 . S
C2065 C2063 1.327 . S
C2065 C2081 1.429 . S
C2065 H2087 0.950 . S
C2066 H2062 0.949 . S
C2066 C2074 1.574 . S
C2066 C2082 1.368 . S
H2067 C2075 0.950 . S
H2068 C2073 0.950 . S
H2069 C2074 0.949 . S
H2070 C2076 0.950 . S
H2071 C2077 0.950 . S
H2072 C2078 0.949 . S
C2073 H2068 0.950 . S
C2073 C2075 1.327 . S
C2073 C2079 1.429 . S
C2074 C2066 1.574 . S
C2074 H2069 0.949 . S
C2074 C2080 1.368 . S
C2075 C2059 1.349 . S
C2075 H2067 0.950 . S
C2075 C2073 1.327 . S
C2076 C2064 1.349 . S
C2076 H2070 0.950 . S
C2076 C2077 1.327 . S
C2077 H2071 0.950 . S
C2077 C2076 1.327 . S
C2077 C2081 1.429 . S
C2078 C2061 1.574 . S
C2078 H2072 0.949 . S
C2078 C2082 1.368 . S
C2079 C2060 1.429 . S
C2079 C2073 1.429 . S
C2079 C2080 1.523 . S
C2080 C2061 1.368 . S
C2080 C2074 1.368 . S
C2080 C2079 1.523 . S
C2081 C2065 1.429 . S
C2081 C2077 1.429 . S
C2081 C2082 1.523 . S
C2082 C2066 1.368 . S
C2082 C2078 1.368 . S
C2082 C2081 1.523 . S
H2083 C2058 0.950 . S
H2084 C2060 0.950 . S
H2085 C2061 0.949 . S
H2086 C2063 0.950 . S
H2087 C2065 0.950 . S
C2088 C2089 1.349 . S
C2088 C2090 1.327 . S
C2088 H2113 0.950 . S
C2089 C2088 1.349 . S
C2089 C2105 1.349 . S
C2090 C2088 1.327 . S
C2090 C2109 1.429 . S
C2090 H2114 0.950 . S
C2091 C2108 1.574 . S
C2091 C2110 1.368 . S
C2091 H2115 0.949 . S
H2092 C2096 0.949 . S
C2093 C2094 1.349 . S
C2093 C2095 1.327 . S
C2093 H2116 0.950 . S
C2094 C2093 1.349 . S
C2094 C2106 1.349 . S
C2095 C2093 1.327 . S
C2095 C2111 1.429 . S
C2095 H2117 0.950 . S
C2096 H2092 0.949 . S
C2096 C2104 1.574 . S
C2096 C2112 1.368 . S
H2097 C2105 0.950 . S
H2098 C2103 0.950 . S
H2099 C2104 0.949 . S
H2100 C2106 0.950 . S
H2101 C2107 0.950 . S
H2102 C2108 0.949 . S
C2103 H2098 0.950 . S
C2103 C2105 1.327 . S
C2103 C2109 1.429 . S
C2104 C2096 1.574 . S
C2104 H2099 0.949 . S
C2104 C2110 1.368 . S
C2105 C2089 1.349 . S
C2105 H2097 0.950 . S
C2105 C2103 1.327 . S
C2106 C2094 1.349 . S
C2106 H2100 0.950 . S
C2106 C2107 1.327 . S
C2107 H2101 0.950 . S
C2107 C2106 1.327 . S
C2107 C2111 1.429 . S
C2108 C2091 1.574 . S
C2108 H2102 0.949 . S
C2108 C2112 1.368 . S
C2109 C2090 1.429 . S
C2109 C2103 1.429 . S
C2109 C2110 1.523 . S
C2110 C2091 1.368 . S
C2110 C2104 1.368 . S
C2110 C2109 1.523 . S
C2111 C2095 1.429 . S
C2111 C2107 1.429 . S
C2111 C2112 1.523 . S
C2112 C2096 1.368 . S
C2112 C2108 1.368 . S
C2112 C2111 1.523 . S
H2113 C2088 0.950 . S
H2114 C2090 0.950 . S
H2115 C2091 0.949 . S
H2116 C2093 0.950 . S
H2117 C2095 0.950 . S
C2118 C2119 1.349 . S
C2118 C2120 1.327 . S
C2118 H2143 0.950 . S
C2119 C2118 1.349 . S
C2119 C2135 1.349 . S
C2120 C2118 1.327 . S
C2120 C2139 1.429 . S
C2120 H2144 0.950 . S
C2121 C2138 1.574 . S
C2121 C2140 1.368 . S
C2121 H2145 0.949 . S
H2122 C2126 0.949 . S
C2123 C2124 1.349 . S
C2123 C2125 1.327 . S
C2123 H2146 0.950 . S
C2124 C2123 1.349 . S
C2124 C2136 1.349 . S
C2125 C2123 1.327 . S
C2125 C2141 1.429 . S
C2125 H2147 0.950 . S
C2126 H2122 0.949 . S
C2126 C2134 1.574 . S
C2126 C2142 1.368 . S
H2127 C2135 0.950 . S
H2128 C2133 0.950 . S
H2129 C2134 0.949 . S
H2130 C2136 0.950 . S
H2131 C2137 0.950 . S
H2132 C2138 0.949 . S
C2133 H2128 0.950 . S
C2133 C2135 1.327 . S
C2133 C2139 1.429 . S
C2134 C2126 1.574 . S
C2134 H2129 0.949 . S
C2134 C2140 1.368 . S
C2135 C2119 1.349 . S
C2135 H2127 0.950 . S
C2135 C2133 1.327 . S
C2136 C2124 1.349 . S
C2136 H2130 0.950 . S
C2136 C2137 1.327 . S
C2137 H2131 0.950 . S
C2137 C2136 1.327 . S
C2137 C2141 1.429 . S
C2138 C2121 1.574 . S
C2138 H2132 0.949 . S
C2138 C2142 1.368 . S
C2139 C2120 1.429 . S
C2139 C2133 1.429 . S
C2139 C2140 1.523 . S
C2140 C2121 1.368 . S
C2140 C2134 1.368 . S
C2140 C2139 1.523 . S
C2141 C2125 1.429 . S
C2141 C2137 1.429 . S
C2141 C2142 1.523 . S
C2142 C2126 1.368 . S
C2142 C2138 1.368 . S
C2142 C2141 1.523 . S
H2143 C2118 0.950 . S
H2144 C2120 0.950 . S
H2145 C2121 0.949 . S
H2146 C2123 0.950 . S
H2147 C2125 0.950 . S
C2148 C2149 1.349 . S
C2148 C2150 1.327 . S
C2148 H2173 0.950 . S
C2149 C2148 1.349 . S
C2149 C2165 1.349 . S
C2150 C2148 1.327 . S
C2150 C2169 1.429 . S
C2150 H2174 0.950 . S
C2151 C2168 1.574 . S
C2151 C2170 1.368 . S
C2151 H2175 0.949 . S
H2152 C2156 0.949 . S
C2153 C2154 1.349 . S
C2153 C2155 1.327 . S
C2153 H2176 0.950 . S
C2154 C2153 1.349 . S
C2154 C2166 1.349 . S
C2155 C2153 1.327 . S
C2155 C2171 1.429 . S
C2155 H2177 0.950 . S
C2156 H2152 0.949 . S
C2156 C2164 1.574 . S
C2156 C2172 1.368 . S
H2157 C2165 0.950 . S
H2158 C2163 0.950 . S
H2159 C2164 0.949 . S
H2160 C2166 0.950 . S
H2161 C2167 0.950 . S
H2162 C2168 0.949 . S
C2163 H2158 0.950 . S
C2163 C2165 1.327 . S
C2163 C2169 1.429 . S
C2164 C2156 1.574 . S
C2164 H2159 0.949 . S
C2164 C2170 1.368 . S
C2165 C2149 1.349 . S
C2165 H2157 0.950 . S
C2165 C2163 1.327 . S
C2166 C2154 1.349 . S
C2166 H2160 0.950 . S
C2166 C2167 1.327 . S
C2167 H2161 0.950 . S
C2167 C2166 1.327 . S
C2167 C2171 1.429 . S
C2168 C2151 1.574 . S
C2168 H2162 0.949 . S
C2168 C2172 1.368 . S
C2169 C2150 1.429 . S
C2169 C2163 1.429 . S
C2169 C2170 1.523 . S
C2170 C2151 1.368 . S
C2170 C2164 1.368 . S
C2170 C2169 1.523 . S
C2171 C2155 1.429 . S
C2171 C2167 1.429 . S
C2171 C2172 1.523 . S
C2172 C2156 1.368 . S
C2172 C2168 1.368 . S
C2172 C2171 1.523 . S
H2173 C2148 0.950 . S
H2174 C2150 0.950 . S
H2175 C2151 0.949 . S
H2176 C2153 0.950 . S
H2177 C2155 0.950 . S
C2178 C2179 1.349 . S
C2178 C2180 1.327 . S
C2178 H2203 0.950 . S
C2179 C2178 1.349 . S
C2179 C2195 1.349 . S
C2180 C2178 1.327 . S
C2180 C2199 1.429 . S
C2180 H2204 0.950 . S
C2181 C2198 1.574 . S
C2181 C2200 1.368 . S
C2181 H2205 0.949 . S
H2182 C2186 0.949 . S
C2183 C2184 1.349 . S
C2183 C2185 1.327 . S
C2183 H2206 0.950 . S
C2184 C2183 1.349 . S
C2184 C2196 1.349 . S
C2185 C2183 1.327 . S
C2185 C2201 1.429 . S
C2185 H2207 0.950 . S
C2186 H2182 0.949 . S
C2186 C2194 1.574 . S
C2186 C2202 1.368 . S
H2187 C2195 0.950 . S
H2188 C2193 0.950 . S
H2189 C2194 0.949 . S
H2190 C2196 0.950 . S
H2191 C2197 0.950 . S
H2192 C2198 0.949 . S
C2193 H2188 0.950 . S
C2193 C2195 1.327 . S
C2193 C2199 1.429 . S
C2194 C2186 1.574 . S
C2194 H2189 0.949 . S
C2194 C2200 1.368 . S
C2195 C2179 1.349 . S
C2195 H2187 0.950 . S
C2195 C2193 1.327 . S
C2196 C2184 1.349 . S
C2196 H2190 0.950 . S
C2196 C2197 1.327 . S
C2197 H2191 0.950 . S
C2197 C2196 1.327 . S
C2197 C2201 1.429 . S
C2198 C2181 1.574 . S
C2198 H2192 0.949 . S
C2198 C2202 1.368 . S
C2199 C2180 1.429 . S
C2199 C2193 1.429 . S
C2199 C2200 1.523 . S
C2200 C2181 1.368 . S
C2200 C2194 1.368 . S
C2200 C2199 1.523 . S
C2201 C2185 1.429 . S
C2201 C2197 1.429 . S
C2201 C2202 1.523 . S
C2202 C2186 1.368 . S
C2202 C2198 1.368 . S
C2202 C2201 1.523 . S
H2203 C2178 0.950 . S
H2204 C2180 0.950 . S
H2205 C2181 0.949 . S
H2206 C2183 0.950 . S
H2207 C2185 0.950 . S
C2208 C2209 1.349 . S
C2208 C2210 1.327 . S
C2208 H2233 0.950 . S
C2209 C2208 1.349 . S
C2209 C2225 1.349 . S
C2210 C2208 1.327 . S
C2210 C2229 1.429 . S
C2210 H2234 0.950 . S
C2211 C2228 1.574 . S
C2211 C2230 1.368 . S
C2211 H2235 0.949 . S
H2212 C2216 0.949 . S
C2213 C2214 1.349 . S
C2213 C2215 1.327 . S
C2213 H2236 0.950 . S
C2214 C2213 1.349 . S
C2214 C2226 1.349 . S
C2215 C2213 1.327 . S
C2215 C2231 1.429 . S
C2215 H2237 0.950 . S
C2216 H2212 0.949 . S
C2216 C2224 1.574 . S
C2216 C2232 1.368 . S
H2217 C2225 0.950 . S
H2218 C2223 0.950 . S
H2219 C2224 0.949 . S
H2220 C2226 0.950 . S
H2221 C2227 0.950 . S
H2222 C2228 0.949 . S
C2223 H2218 0.950 . S
C2223 C2225 1.327 . S
C2223 C2229 1.429 . S
C2224 C2216 1.574 . S
C2224 H2219 0.949 . S
C2224 C2230 1.368 . S
C2225 C2209 1.349 . S
C2225 H2217 0.950 . S
C2225 C2223 1.327 . S
C2226 C2214 1.349 . S
C2226 H2220 0.950 . S
C2226 C2227 1.327 . S
C2227 H2221 0.950 . S
C2227 C2226 1.327 . S
C2227 C2231 1.429 . S
C2228 C2211 1.574 . S
C2228 H2222 0.949 . S
C2228 C2232 1.368 . S
C2229 C2210 1.429 . S
C2229 C2223 1.429 . S
C2229 C2230 1.523 . S
C2230 C2211 1.368 . S
C2230 C2224 1.368 . S
C2230 C2229 1.523 . S
C2231 C2215 1.429 . S
C2231 C2227 1.429 . S
C2231 C2232 1.523 . S
C2232 C2216 1.368 . S
C2232 C2228 1.368 . S
C2232 C2231 1.523 . S
H2233 C2208 0.950 . S
H2234 C2210 0.950 . S
H2235 C2211 0.949 . S
H2236 C2213 0.950 . S
H2237 C2215 0.950 . S
C2238 C2239 1.349 . S
C2238 C2240 1.327 . S
C2238 H2263 0.950 . S
C2239 C2238 1.349 . S
C2239 C2255 1.349 . S
C2240 C2238 1.327 . S
C2240 C2259 1.429 . S
C2240 H2264 0.950 . S
C2241 C2258 1.574 . S
C2241 C2260 1.368 . S
C2241 H2265 0.949 . S
H2242 C2246 0.949 . S
C2243 C2244 1.349 . S
C2243 C2245 1.327 . S
C2243 H2266 0.950 . S
C2244 C2243 1.349 . S
C2244 C2256 1.349 . S
C2245 C2243 1.327 . S
C2245 C2261 1.429 . S
C2245 H2267 0.950 . S
C2246 H2242 0.949 . S
C2246 C2254 1.574 . S
C2246 C2262 1.368 . S
H2247 C2255 0.950 . S
H2248 C2253 0.950 . S
H2249 C2254 0.949 . S
H2250 C2256 0.950 . S
H2251 C2257 0.950 . S
H2252 C2258 0.949 . S
C2253 H2248 0.950 . S
C2253 C2255 1.327 . S
C2253 C2259 1.429 . S
C2254 C2246 1.574 . S
C2254 H2249 0.949 . S
C2254 C2260 1.368 . S
C2255 C2239 1.349 . S
C2255 H2247 0.950 . S
C2255 C2253 1.327 . S
C2256 C2244 1.349 . S
C2256 H2250 0.950 . S
C2256 C2257 1.327 . S
C2257 H2251 0.950 . S
C2257 C2256 1.327 . S
C2257 C2261 1.429 . S
C2258 C2241 1.574 . S
C2258 H2252 0.949 . S
C2258 C2262 1.368 . S
C2259 C2240 1.429 . S
C2259 C2253 1.429 . S
C2259 C2260 1.523 . S
C2260 C2241 1.368 . S
C2260 C2254 1.368 . S
C2260 C2259 1.523 . S
C2261 C2245 1.429 . S
C2261 C2257 1.429 . S
C2261 C2262 1.523 . S
C2262 C2246 1.368 . S
C2262 C2258 1.368 . S
C2262 C2261 1.523 . S
H2263 C2238 0.950 . S
H2264 C2240 0.950 . S
H2265 C2241 0.949 . S
H2266 C2243 0.950 . S
H2267 C2245 0.950 . S
C2268 C2269 1.349 . S
C2268 C2270 1.327 . S
C2268 H2293 0.950 . S
C2269 C2268 1.349 . S
C2269 C2285 1.349 . S
C2270 C2268 1.327 . S
C2270 C2289 1.429 . S
C2270 H2294 0.950 . S
C2271 C2288 1.574 . S
C2271 C2290 1.368 . S
C2271 H2295 0.949 . S
H2272 C2276 0.949 . S
C2273 C2274 1.349 . S
C2273 C2275 1.327 . S
C2273 H2296 0.950 . S
C2274 C2273 1.349 . S
C2274 C2286 1.349 . S
C2275 C2273 1.327 . S
C2275 C2291 1.429 . S
C2275 H2297 0.950 . S
C2276 H2272 0.949 . S
C2276 C2284 1.574 . S
C2276 C2292 1.368 . S
H2277 C2285 0.950 . S
H2278 C2283 0.950 . S
H2279 C2284 0.949 . S
H2280 C2286 0.950 . S
H2281 C2287 0.950 . S
H2282 C2288 0.949 . S
C2283 H2278 0.950 . S
C2283 C2285 1.327 . S
C2283 C2289 1.429 . S
C2284 C2276 1.574 . S
C2284 H2279 0.949 . S
C2284 C2290 1.368 . S
C2285 C2269 1.349 . S
C2285 H2277 0.950 . S
C2285 C2283 1.327 . S
C2286 C2274 1.349 . S
C2286 H2280 0.950 . S
C2286 C2287 1.327 . S
C2287 H2281 0.950 . S
C2287 C2286 1.327 . S
C2287 C2291 1.429 . S
C2288 C2271 1.574 . S
C2288 H2282 0.949 . S
C2288 C2292 1.368 . S
C2289 C2270 1.429 . S
C2289 C2283 1.429 . S
C2289 C2290 1.523 . S
C2290 C2271 1.368 . S
C2290 C2284 1.368 . S
C2290 C2289 1.523 . S
C2291 C2275 1.429 . S
C2291 C2287 1.429 . S
C2291 C2292 1.523 . S
C2292 C2276 1.368 . S
C2292 C2288 1.368 . S
C2292 C2291 1.523 . S
H2293 C2268 0.950 . S
H2294 C2270 0.950 . S
H2295 C2271 0.949 . S
H2296 C2273 0.950 . S
H2297 C2275 0.950 . S
C2298 C2299 1.349 . S
C2298 C2300 1.327 . S
C2298 H2323 0.950 . S
C2299 C2298 1.349 . S
C2299 C2315 1.349 . S
C2300 C2298 1.327 . S
C2300 C2319 1.429 . S
C2300 H2324 0.950 . S
C2301 C2318 1.574 . S
C2301 C2320 1.368 . S
C2301 H2325 0.949 . S
H2302 C2306 0.949 . S
C2303 C2304 1.349 . S
C2303 C2305 1.327 . S
C2303 H2326 0.950 . S
C2304 C2303 1.349 . S
C2304 C2316 1.349 . S
C2305 C2303 1.327 . S
C2305 C2321 1.429 . S
C2305 H2327 0.950 . S
C2306 H2302 0.949 . S
C2306 C2314 1.574 . S
C2306 C2322 1.368 . S
H2307 C2315 0.950 . S
H2308 C2313 0.950 . S
H2309 C2314 0.949 . S
H2310 C2316 0.950 . S
H2311 C2317 0.950 . S
H2312 C2318 0.949 . S
C2313 H2308 0.950 . S
C2313 C2315 1.327 . S
C2313 C2319 1.429 . S
C2314 C2306 1.574 . S
C2314 H2309 0.949 . S
C2314 C2320 1.368 . S
C2315 C2299 1.349 . S
C2315 H2307 0.950 . S
C2315 C2313 1.327 . S
C2316 C2304 1.349 . S
C2316 H2310 0.950 . S
C2316 C2317 1.327 . S
C2317 H2311 0.950 . S
C2317 C2316 1.327 . S
C2317 C2321 1.429 . S
C2318 C2301 1.574 . S
C2318 H2312 0.949 . S
C2318 C2322 1.368 . S
C2319 C2300 1.429 . S
C2319 C2313 1.429 . S
C2319 C2320 1.523 . S
C2320 C2301 1.368 . S
C2320 C2314 1.368 . S
C2320 C2319 1.523 . S
C2321 C2305 1.429 . S
C2321 C2317 1.429 . S
C2321 C2322 1.523 . S
C2322 C2306 1.368 . S
C2322 C2318 1.368 . S
C2322 C2321 1.523 . S
H2323 C2298 0.950 . S
H2324 C2300 0.950 . S
H2325 C2301 0.949 . S
H2326 C2303 0.950 . S
H2327 C2305 0.950 . S
C2328 C2329 1.349 . S
C2328 C2330 1.327 . S
C2328 H2353 0.950 . S
C2329 C2328 1.349 . S
C2329 C2345 1.349 . S
C2330 C2328 1.327 . S
C2330 C2349 1.429 . S
C2330 H2354 0.950 . S
C2331 C2348 1.574 . S
C2331 C2350 1.368 . S
C2331 H2355 0.949 . S
H2332 C2336 0.949 . S
C2333 C2334 1.349 . S
C2333 C2335 1.327 . S
C2333 H2356 0.950 . S
C2334 C2333 1.349 . S
C2334 C2346 1.349 . S
C2335 C2333 1.327 . S
C2335 C2351 1.429 . S
C2335 H2357 0.950 . S
C2336 H2332 0.949 . S
C2336 C2344 1.574 . S
C2336 C2352 1.368 . S
H2337 C2345 0.950 . S
H2338 C2343 0.950 . S
H2339 C2344 0.949 . S
H2340 C2346 0.950 . S
H2341 C2347 0.950 . S
H2342 C2348 0.949 . S
C2343 H2338 0.950 . S
C2343 C2345 1.327 . S
C2343 C2349 1.429 . S
C2344 C2336 1.574 . S
C2344 H2339 0.949 . S
C2344 C2350 1.368 . S
C2345 C2329 1.349 . S
C2345 H2337 0.950 . S
C2345 C2343 1.327 . S
C2346 C2334 1.349 . S
C2346 H2340 0.950 . S
C2346 C2347 1.327 . S
C2347 H2341 0.950 . S
C2347 C2346 1.327 . S
C2347 C2351 1.429 . S
C2348 C2331 1.574 . S
C2348 H2342 0.949 . S
C2348 C2352 1.368 . S
C2349 C2330 1.429 . S
C2349 C2343 1.429 . S
C2349 C2350 1.523 . S
C2350 C2331 1.368 . S
C2350 C2344 1.368 . S
C2350 C2349 1.523 . S
C2351 C2335 1.429 . S
C2351 C2347 1.429 . S
C2351 C2352 1.523 . S
C2352 C2336 1.368 . S
C2352 C2348 1.368 . S
C2352 C2351 1.523 . S
H2353 C2328 0.950 . S
H2354 C2330 0.950 . S
H2355 C2331 0.949 . S
H2356 C2333 0.950 . S
H2357 C2335 0.950 . S
C2358 C2359 1.349 . S
C2358 C2360 1.327 . S
C2358 H2383 0.950 . S
C2359 C2358 1.349 . S
C2359 C2375 1.349 . S
C2360 C2358 1.327 . S
C2360 C2379 1.429 . S
C2360 H2384 0.950 . S
C2361 C2378 1.574 . S
C2361 C2380 1.368 . S
C2361 H2385 0.949 . S
H2362 C2366 0.949 . S
C2363 C2364 1.349 . S
C2363 C2365 1.327 . S
C2363 H2386 0.950 . S
C2364 C2363 1.349 . S
C2364 C2376 1.349 . S
C2365 C2363 1.327 . S
C2365 C2381 1.429 . S
C2365 H2387 0.950 . S
C2366 H2362 0.949 . S
C2366 C2374 1.574 . S
C2366 C2382 1.368 . S
H2367 C2375 0.950 . S
H2368 C2373 0.950 . S
H2369 C2374 0.949 . S
H2370 C2376 0.950 . S
H2371 C2377 0.950 . S
H2372 C2378 0.949 . S
C2373 H2368 0.950 . S
C2373 C2375 1.327 . S
C2373 C2379 1.429 . S
C2374 C2366 1.574 . S
C2374 H2369 0.949 . S
C2374 C2380 1.368 . S
C2375 C2359 1.349 . S
C2375 H2367 0.950 . S
C2375 C2373 1.327 . S
C2376 C2364 1.349 . S
C2376 H2370 0.950 . S
C2376 C2377 1.327 . S
C2377 H2371 0.950 . S
C2377 C2376 1.327 . S
C2377 C2381 1.429 . S
C2378 C2361 1.574 . S
C2378 H2372 0.949 . S
C2378 C2382 1.368 . S
C2379 C2360 1.429 . S
C2379 C2373 1.429 . S
C2379 C2380 1.523 . S
C2380 C2361 1.368 . S
C2380 C2374 1.368 . S
C2380 C2379 1.523 . S
C2381 C2365 1.429 . S
C2381 C2377 1.429 . S
C2381 C2382 1.523 . S
C2382 C2366 1.368 . S
C2382 C2378 1.368 . S
C2382 C2381 1.523 . S
H2383 C2358 0.950 . S
H2384 C2360 0.950 . S
H2385 C2361 0.949 . S
H2386 C2363 0.950 . S
H2387 C2365 0.950 . S
C954 C334 1.268 . S
C949 N2 1.409 . S
C984 C434 2.254 . S
C979 C7 2.264 . S
C1014 C514 1.211 . S
C1009 N12 1.382 . S
C1039 C16 2.015 . S
C1044 C591 2.039 . S
C1074 C675 2.276 . S
C1069 C30 2.289 1_565 S
C1104 C754 1.100 . S
C1099 N35 1.270 . S
C1129 C39 2.096 . S
C1134 C854 2.082 . S
C1164 C934 1.197 . S
C1159 N25 1.273 . S
C1194 C332 1.000 . S
C1189 N58 1.012 . S
C1219 N81 1.793 . S
C1224 C427 1.794 . S
C1254 C518 1.061 . S
C1249 N104 1.024 . S
C1279 N127 1.080 . S
C1284 C586 0.927 . S
C1314 C670 0.730 . S
C1309 N48 0.688 1_565 S
C1344 C752 1.461 . S
C1339 N71 1.440 1_556 S
C1369 N94 1.228 . S
C1374 C847 1.230 . S
C1404 C938 1.556 . S
C1399 N117 1.532 . S
C1429 C85 2.069 . S
C1434 C339 2.076 . S
C1459 C122 2.310 . S
C1464 C668 2.265 . S
C1489 C53 1.629 . S
C1494 C759 1.656 . S
C1524 C850 1.218 . S
C1519 C76 1.455 1_655 S
C1554 C931 1.595 . S
C1549 C99 1.671 . S
C1584 C511 1.889 . S
C1579 C131 1.919 . S
C1614 C584 1.696 . S
C1609 C62 1.731 1_565 S
C1639 C108 1.026 . S
C1644 C430 0.901 . S
C1674 C922 1.288 . S
C1669 N140 1.456 . S
C1699 C145 2.256 . S
C1704 C686 2.247 . S
C1734 C766 1.152 . S
C1729 N150 1.292 . S
C1759 C154 2.016 . S
C1764 C843 2.040 . S
C1794 C423 2.273 . S
C1789 C168 2.285 . S
C1819 N173 1.178 . S
C1824 C502 1.044 . S
C1854 C602 2.083 . S
C1849 C177 2.098 . S
C1884 C346 1.216 . S
C1879 N163 1.310 . S
C1914 C920 1.423 . S
C1909 C200 1.465 . S
C1944 C679 2.100 . S
C1939 N219 2.099 . S
C1969 N242 1.278 . S
C1974 C770 1.342 . S
C2004 C838 1.149 . S
C1999 C269 1.400 . S
C2034 C418 0.857 . S
C2029 C191 0.973 . S
C2059 N209 1.706 . S
C2064 C500 1.727 . S
C2089 N232 1.542 . S
C2094 C595 1.552 . S
C2119 C260 2.038 . S
C2124 C350 2.028 . S
C2149 C223 1.756 . S
C2154 C927 1.761 . S
C2179 N255 1.880 . S
C2184 C416 1.873 . S
C2209 N186 1.196 . S
C2214 C507 1.241 . S
C2244 C598 0.971 . S
C2239 C214 1.127 . S
C2274 C343 1.288 . S
C2269 C237 1.344 . S
C2304 C763 1.472 . S
C2299 N265 1.446 . S
C2334 C836 1.322 . S
C2329 N196 1.323 . S
C2364 C682 0.730 . S
C2359 C246 0.704 . S
