# Generated by pormake.
# Topology gar, (4,6)-cn, num edge types: 1
# Building blocks:
#     Node 0, Type 0, BuildingBlock: KUFVIS_clean_sbu_0, # of connection points: 4
#     Node 1, Type 0, BuildingBlock: KUFVIS_clean_sbu_0, # of connection points: 4
#     Node 2, Type 0, BuildingBlock: KUFVIS_clean_sbu_0, # of connection points: 4
#     Node 3, Type 0, BuildingBlock: KUFVIS_clean_sbu_0, # of connection points: 4
#     Node 4, Type 0, BuildingBlock: KUFVIS_clean_sbu_0, # of connection points: 4
#     Node 5, Type 0, BuildingBlock: KUFVIS_clean_sbu_0, # of connection points: 4
#     Node 6, Type 0, BuildingBlock: KUFVIS_clean_sbu_0, # of connection points: 4
#     Node 7, Type 0, BuildingBlock: KUFVIS_clean_sbu_0, # of connection points: 4
#     Node 8, Type 0, BuildingBlock: KUFVIS_clean_sbu_0, # of connection points: 4
#     Node 9, Type 0, BuildingBlock: KUFVIS_clean_sbu_0, # of connection points: 4
#     Node 10, Type 0, BuildingBlock: KUFVIS_clean_sbu_0, # of connection points: 4
#     Node 11, Type 0, BuildingBlock: KUFVIS_clean_sbu_0, # of connection points: 4
#     Node 12, Type 0, BuildingBlock: KUFVIS_clean_sbu_0, # of connection points: 4
#     Node 13, Type 0, BuildingBlock: KUFVIS_clean_sbu_0, # of connection points: 4
#     Node 14, Type 0, BuildingBlock: KUFVIS_clean_sbu_0, # of connection points: 4
#     Node 15, Type 0, BuildingBlock: KUFVIS_clean_sbu_0, # of connection points: 4
#     Node 16, Type 0, BuildingBlock: KUFVIS_clean_sbu_0, # of connection points: 4
#     Node 17, Type 0, BuildingBlock: KUFVIS_clean_sbu_0, # of connection points: 4
#     Node 18, Type 0, BuildingBlock: KUFVIS_clean_sbu_0, # of connection points: 4
#     Node 19, Type 0, BuildingBlock: KUFVIS_clean_sbu_0, # of connection points: 4
#     Node 20, Type 0, BuildingBlock: KUFVIS_clean_sbu_0, # of connection points: 4
#     Node 21, Type 0, BuildingBlock: KUFVIS_clean_sbu_0, # of connection points: 4
#     Node 22, Type 0, BuildingBlock: KUFVIS_clean_sbu_0, # of connection points: 4
#     Node 23, Type 0, BuildingBlock: KUFVIS_clean_sbu_0, # of connection points: 4
#     Node 24, Type 1, BuildingBlock: BETDEL_clean_sbu_0, # of connection points: 6
#     Node 25, Type 1, BuildingBlock: BETDEL_clean_sbu_0, # of connection points: 6
#     Node 26, Type 1, BuildingBlock: BETDEL_clean_sbu_0, # of connection points: 6
#     Node 27, Type 1, BuildingBlock: BETDEL_clean_sbu_0, # of connection points: 6
#     Node 28, Type 1, BuildingBlock: BETDEL_clean_sbu_0, # of connection points: 6
#     Node 29, Type 1, BuildingBlock: BETDEL_clean_sbu_0, # of connection points: 6
#     Node 30, Type 1, BuildingBlock: BETDEL_clean_sbu_0, # of connection points: 6
#     Node 31, Type 1, BuildingBlock: BETDEL_clean_sbu_0, # of connection points: 6
#     Node 32, Type 1, BuildingBlock: BETDEL_clean_sbu_0, # of connection points: 6
#     Node 33, Type 1, BuildingBlock: BETDEL_clean_sbu_0, # of connection points: 6
#     Node 34, Type 1, BuildingBlock: BETDEL_clean_sbu_0, # of connection points: 6
#     Node 35, Type 1, BuildingBlock: BETDEL_clean_sbu_0, # of connection points: 6
#     Node 36, Type 1, BuildingBlock: BETDEL_clean_sbu_0, # of connection points: 6
#     Node 37, Type 1, BuildingBlock: BETDEL_clean_sbu_0, # of connection points: 6
#     Node 38, Type 1, BuildingBlock: BETDEL_clean_sbu_0, # of connection points: 6
#     Node 39, Type 1, BuildingBlock: BETDEL_clean_sbu_0, # of connection points: 6
#     Edge 40, Type (0, 1), BuildingBlock: XIVTED_clean_linker_0, # of connection points: 2
#     Edge 41, Type (0, 1), BuildingBlock: XIVTED_clean_linker_0, # of connection points: 2
#     Edge 42, Type (0, 1), BuildingBlock: XIVTED_clean_linker_0, # of connection points: 2
#     Edge 43, Type (0, 1), BuildingBlock: XIVTED_clean_linker_0, # of connection points: 2
#     Edge 44, Type (0, 1), BuildingBlock: XIVTED_clean_linker_0, # of connection points: 2
#     Edge 45, Type (0, 1), BuildingBlock: XIVTED_clean_linker_0, # of connection points: 2
#     Edge 46, Type (0, 1), BuildingBlock: XIVTED_clean_linker_0, # of connection points: 2
#     Edge 47, Type (0, 1), BuildingBlock: XIVTED_clean_linker_0, # of connection points: 2
#     Edge 48, Type (0, 1), BuildingBlock: XIVTED_clean_linker_0, # of connection points: 2
#     Edge 49, Type (0, 1), BuildingBlock: XIVTED_clean_linker_0, # of connection points: 2
#     Edge 50, Type (0, 1), BuildingBlock: XIVTED_clean_linker_0, # of connection points: 2
#     Edge 51, Type (0, 1), BuildingBlock: XIVTED_clean_linker_0, # of connection points: 2
#     Edge 52, Type (0, 1), BuildingBlock: XIVTED_clean_linker_0, # of connection points: 2
#     Edge 53, Type (0, 1), BuildingBlock: XIVTED_clean_linker_0, # of connection points: 2
#     Edge 54, Type (0, 1), BuildingBlock: XIVTED_clean_linker_0, # of connection points: 2
#     Edge 55, Type (0, 1), BuildingBlock: XIVTED_clean_linker_0, # of connection points: 2
#     Edge 56, Type (0, 1), BuildingBlock: XIVTED_clean_linker_0, # of connection points: 2
#     Edge 57, Type (0, 1), BuildingBlock: XIVTED_clean_linker_0, # of connection points: 2
#     Edge 58, Type (0, 1), BuildingBlock: XIVTED_clean_linker_0, # of connection points: 2
#     Edge 59, Type (0, 1), BuildingBlock: XIVTED_clean_linker_0, # of connection points: 2
#     Edge 60, Type (0, 1), BuildingBlock: XIVTED_clean_linker_0, # of connection points: 2
#     Edge 61, Type (0, 1), BuildingBlock: XIVTED_clean_linker_0, # of connection points: 2
#     Edge 62, Type (0, 1), BuildingBlock: XIVTED_clean_linker_0, # of connection points: 2
#     Edge 63, Type (0, 1), BuildingBlock: XIVTED_clean_linker_0, # of connection points: 2
#     Edge 64, Type (0, 1), BuildingBlock: XIVTED_clean_linker_0, # of connection points: 2
#     Edge 65, Type (0, 1), BuildingBlock: XIVTED_clean_linker_0, # of connection points: 2
#     Edge 66, Type (0, 1), BuildingBlock: XIVTED_clean_linker_0, # of connection points: 2
#     Edge 67, Type (0, 1), BuildingBlock: XIVTED_clean_linker_0, # of connection points: 2
#     Edge 68, Type (0, 1), BuildingBlock: XIVTED_clean_linker_0, # of connection points: 2
#     Edge 69, Type (0, 1), BuildingBlock: XIVTED_clean_linker_0, # of connection points: 2
#     Edge 70, Type (0, 1), BuildingBlock: XIVTED_clean_linker_0, # of connection points: 2
#     Edge 71, Type (0, 1), BuildingBlock: XIVTED_clean_linker_0, # of connection points: 2
#     Edge 72, Type (0, 1), BuildingBlock: XIVTED_clean_linker_0, # of connection points: 2
#     Edge 73, Type (0, 1), BuildingBlock: XIVTED_clean_linker_0, # of connection points: 2
#     Edge 74, Type (0, 1), BuildingBlock: XIVTED_clean_linker_0, # of connection points: 2
#     Edge 75, Type (0, 1), BuildingBlock: XIVTED_clean_linker_0, # of connection points: 2
#     Edge 76, Type (0, 1), BuildingBlock: XIVTED_clean_linker_0, # of connection points: 2
#     Edge 77, Type (0, 1), BuildingBlock: XIVTED_clean_linker_0, # of connection points: 2
#     Edge 78, Type (0, 1), BuildingBlock: XIVTED_clean_linker_0, # of connection points: 2
#     Edge 79, Type (0, 1), BuildingBlock: XIVTED_clean_linker_0, # of connection points: 2
#     Edge 80, Type (0, 1), BuildingBlock: XIVTED_clean_linker_0, # of connection points: 2
#     Edge 81, Type (0, 1), BuildingBlock: XIVTED_clean_linker_0, # of connection points: 2
#     Edge 82, Type (0, 1), BuildingBlock: XIVTED_clean_linker_0, # of connection points: 2
#     Edge 83, Type (0, 1), BuildingBlock: XIVTED_clean_linker_0, # of connection points: 2
#     Edge 84, Type (0, 1), BuildingBlock: XIVTED_clean_linker_0, # of connection points: 2
#     Edge 85, Type (0, 1), BuildingBlock: XIVTED_clean_linker_0, # of connection points: 2
#     Edge 86, Type (0, 1), BuildingBlock: XIVTED_clean_linker_0, # of connection points: 2
#     Edge 87, Type (0, 1), BuildingBlock: XIVTED_clean_linker_0, # of connection points: 2
#     Edge 88, Type (0, 1), BuildingBlock: XIVTED_clean_linker_0, # of connection points: 2
#     Edge 89, Type (0, 1), BuildingBlock: XIVTED_clean_linker_0, # of connection points: 2
#     Edge 90, Type (0, 1), BuildingBlock: XIVTED_clean_linker_0, # of connection points: 2
#     Edge 91, Type (0, 1), BuildingBlock: XIVTED_clean_linker_0, # of connection points: 2
#     Edge 92, Type (0, 1), BuildingBlock: XIVTED_clean_linker_0, # of connection points: 2
#     Edge 93, Type (0, 1), BuildingBlock: XIVTED_clean_linker_0, # of connection points: 2
#     Edge 94, Type (0, 1), BuildingBlock: XIVTED_clean_linker_0, # of connection points: 2
#     Edge 95, Type (0, 1), BuildingBlock: XIVTED_clean_linker_0, # of connection points: 2
#     Edge 96, Type (0, 1), BuildingBlock: XIVTED_clean_linker_0, # of connection points: 2
#     Edge 97, Type (0, 1), BuildingBlock: XIVTED_clean_linker_0, # of connection points: 2
#     Edge 98, Type (0, 1), BuildingBlock: XIVTED_clean_linker_0, # of connection points: 2
#     Edge 99, Type (0, 1), BuildingBlock: XIVTED_clean_linker_0, # of connection points: 2
#     Edge 100, Type (0, 1), BuildingBlock: XIVTED_clean_linker_0, # of connection points: 2
#     Edge 101, Type (0, 1), BuildingBlock: XIVTED_clean_linker_0, # of connection points: 2
#     Edge 102, Type (0, 1), BuildingBlock: XIVTED_clean_linker_0, # of connection points: 2
#     Edge 103, Type (0, 1), BuildingBlock: XIVTED_clean_linker_0, # of connection points: 2
#     Edge 104, Type (0, 1), BuildingBlock: XIVTED_clean_linker_0, # of connection points: 2
#     Edge 105, Type (0, 1), BuildingBlock: XIVTED_clean_linker_0, # of connection points: 2
#     Edge 106, Type (0, 1), BuildingBlock: XIVTED_clean_linker_0, # of connection points: 2
#     Edge 107, Type (0, 1), BuildingBlock: XIVTED_clean_linker_0, # of connection points: 2
#     Edge 108, Type (0, 1), BuildingBlock: XIVTED_clean_linker_0, # of connection points: 2
#     Edge 109, Type (0, 1), BuildingBlock: XIVTED_clean_linker_0, # of connection points: 2
#     Edge 110, Type (0, 1), BuildingBlock: XIVTED_clean_linker_0, # of connection points: 2
#     Edge 111, Type (0, 1), BuildingBlock: XIVTED_clean_linker_0, # of connection points: 2
#     Edge 112, Type (0, 1), BuildingBlock: XIVTED_clean_linker_0, # of connection points: 2
#     Edge 113, Type (0, 1), BuildingBlock: XIVTED_clean_linker_0, # of connection points: 2
#     Edge 114, Type (0, 1), BuildingBlock: XIVTED_clean_linker_0, # of connection points: 2
#     Edge 115, Type (0, 1), BuildingBlock: XIVTED_clean_linker_0, # of connection points: 2
#     Edge 116, Type (0, 1), BuildingBlock: XIVTED_clean_linker_0, # of connection points: 2
#     Edge 117, Type (0, 1), BuildingBlock: XIVTED_clean_linker_0, # of connection points: 2
#     Edge 118, Type (0, 1), BuildingBlock: XIVTED_clean_linker_0, # of connection points: 2
#     Edge 119, Type (0, 1), BuildingBlock: XIVTED_clean_linker_0, # of connection points: 2
#     Edge 120, Type (0, 1), BuildingBlock: XIVTED_clean_linker_0, # of connection points: 2
#     Edge 121, Type (0, 1), BuildingBlock: XIVTED_clean_linker_0, # of connection points: 2
#     Edge 122, Type (0, 1), BuildingBlock: XIVTED_clean_linker_0, # of connection points: 2
#     Edge 123, Type (0, 1), BuildingBlock: XIVTED_clean_linker_0, # of connection points: 2
#     Edge 124, Type (0, 1), BuildingBlock: XIVTED_clean_linker_0, # of connection points: 2
#     Edge 125, Type (0, 1), BuildingBlock: XIVTED_clean_linker_0, # of connection points: 2
#     Edge 126, Type (0, 1), BuildingBlock: XIVTED_clean_linker_0, # of connection points: 2
#     Edge 127, Type (0, 1), BuildingBlock: XIVTED_clean_linker_0, # of connection points: 2
#     Edge 128, Type (0, 1), BuildingBlock: XIVTED_clean_linker_0, # of connection points: 2
#     Edge 129, Type (0, 1), BuildingBlock: XIVTED_clean_linker_0, # of connection points: 2
#     Edge 130, Type (0, 1), BuildingBlock: XIVTED_clean_linker_0, # of connection points: 2
#     Edge 131, Type (0, 1), BuildingBlock: XIVTED_clean_linker_0, # of connection points: 2
#     Edge 132, Type (0, 1), BuildingBlock: XIVTED_clean_linker_0, # of connection points: 2
#     Edge 133, Type (0, 1), BuildingBlock: XIVTED_clean_linker_0, # of connection points: 2
#     Edge 134, Type (0, 1), BuildingBlock: XIVTED_clean_linker_0, # of connection points: 2
#     Edge 135, Type (0, 1), BuildingBlock: XIVTED_clean_linker_0, # of connection points: 2
# Relax obj value: 0.139
# Max RMSD: 0.267
# Mean RMSD: 0.139
data_MOF--net-gar--node1-KUFVIS_clean_sbu_0--node2-BETDEL_clean_sbu_0--edge1-XIVTED_clean_linker_0
_symmetry_space_group_name_H-M    P1
_symmetry_Int_Tables_number       1
_symmetry_cell_setting            triclinic
loop_
_symmetry_equiv_pos_as_xyz
'x, y, z'
_cell_length_a     55.321824
_cell_length_b     52.89831
_cell_length_c     55.670245
_cell_angle_alpha  95.278168
_cell_angle_beta   92.536179
_cell_angle_gamma 100.79956
loop_
_atom_site_label
_atom_site_type_symbol
_atom_site_fract_x
_atom_site_fract_y
_atom_site_fract_z
_atom_type_partial_charge
Mn0 Mn 0.02815 0.27904 0.40152 0.0
Mn1 Mn 0.02405 0.31552 0.35503 0.0
C2 C 0.99004 0.28579 0.3869 0.0
C3 C 0.029 0.24029 0.41861 0.0
C4 C 0.04008 0.33862 0.40624 0.0
O5 O 0.06136 0.2792 0.38628 0.0
O6 O 0.05609 0.30411 0.35643 0.0
C7 C 0.02344 0.27437 0.31501 0.0
N8 N 0.01295 0.29331 0.32606 0.0
C9 C 0.98071 0.28686 0.29437 0.0
C10 C 0.99124 0.26737 0.28259 0.0
C11 C 0.01264 0.26103 0.29302 0.0
C12 C 0.99221 0.29935 0.31632 0.0
H13 H 0.03994 0.2695 0.32291 0.0
C14 C 0.06879 0.29072 0.36795 0.0
O15 O 0.0387 0.26263 0.42993 0.0
O16 O 0.01954 0.24026 0.3968 0.0
N17 N 0.99396 0.32798 0.35098 0.0
C18 C 0.98569 0.3467 0.36501 0.0
C19 C 0.96426 0.35507 0.35728 0.0
C20 C 0.9518 0.34446 0.33505 0.0
C21 C 0.96091 0.32556 0.32073 0.0
C22 C 0.98234 0.31798 0.32937 0.0
H23 H 0.99533 0.35514 0.38198 0.0
O24 O 0.99301 0.27986 0.40881 0.0
O25 O 0.00932 0.28774 0.37422 0.0
O26 O 0.03884 0.31707 0.41509 0.0
O27 O 0.03498 0.3403 0.38393 0.0
C28 C 0.94938 0.31371 0.29837 0.0
C29 C 0.95917 0.29424 0.28529 0.0
H30 H 0.983 0.25708 0.2656 0.0
H31 H 0.02083 0.24595 0.28408 0.0
H32 H 0.95739 0.36971 0.36841 0.0
H33 H 0.93521 0.35086 0.32922 0.0
H34 H 0.93278 0.31918 0.29124 0.0
H35 H 0.94991 0.28499 0.26831 0.0
Mn36 Mn 0.00069 0.76941 0.62429 0.0
Mn37 Mn 0.02745 0.81309 0.67027 0.0
C38 C 0.04193 0.77289 0.63595 0.0
C39 C 0.98037 0.72815 0.6087 0.0
C40 C 0.01563 0.8276 0.62015 0.0
O41 O 0.97117 0.77748 0.64208 0.0
O42 O 0.99099 0.80586 0.67267 0.0
C43 C 0.01546 0.78169 0.71109 0.0
N44 N 0.03255 0.79572 0.69819 0.0
C45 C 0.0658 0.78834 0.72435 0.0
C46 C 0.04854 0.77395 0.73799 0.0
C47 C 0.02327 0.7706 0.73131 0.0
C48 C 0.05692 0.79912 0.70449 0.0
H49 H 0.99603 0.77892 0.70597 0.0
C50 C 0.97128 0.79225 0.66164 0.0
O51 O 0.97944 0.74824 0.59719 0.0
O52 O 0.99192 0.73227 0.62991 0.0
N53 N 0.06269 0.82116 0.67026 0.0
C54 C 0.07702 0.83431 0.65443 0.0
C55 C 0.1028 0.83876 0.6582 0.0
C56 C 0.11358 0.82968 0.6782 0.0
C57 C 0.09847 0.8163 0.6943 0.0
C58 C 0.07288 0.81269 0.68977 0.0
H59 H 0.06887 0.84119 0.63892 0.0
O60 O 0.03366 0.76349 0.61416 0.0
O61 O 0.02597 0.7805 0.64995 0.0
O62 O 0.0063 0.80472 0.61092 0.0
O63 O 0.02376 0.83288 0.64223 0.0
C64 C 0.1078 0.80594 0.71439 0.0
C65 C 0.09148 0.79194 0.72939 0.0
H66 H 0.0545 0.76519 0.7535 0.0
H67 H 0.00984 0.7594 0.74168 0.0
H68 H 0.11434 0.84902 0.64564 0.0
H69 H 0.13348 0.8329 0.6809 0.0
H70 H 0.1275 0.8083 0.71827 0.0
H71 H 0.09889 0.78377 0.74458 0.0
Mn72 Mn 0.52763 0.77527 0.90083 0.0
Mn73 Mn 0.52591 0.81534 0.85676 0.0
C74 C 0.49016 0.78332 0.88578 0.0
C75 C 0.52842 0.73574 0.91643 0.0
C76 C 0.54014 0.83472 0.90906 0.0
O77 O 0.56135 0.77626 0.88659 0.0
O78 O 0.55764 0.80337 0.85827 0.0
C79 C 0.52638 0.77693 0.81464 0.0
N80 N 0.51579 0.79536 0.82642 0.0
C81 C 0.48581 0.79287 0.79321 0.0
C82 C 0.49645 0.77392 0.78067 0.0
C83 C 0.51673 0.76581 0.7915 0.0
C84 C 0.49605 0.80301 0.81632 0.0
H85 H 0.54212 0.77083 0.82281 0.0
C86 C 0.56966 0.789 0.86929 0.0
O87 O 0.53753 0.75775 0.92857 0.0
O88 O 0.51919 0.73643 0.89463 0.0
N89 N 0.4963 0.82864 0.85266 0.0
C90 C 0.4876 0.84635 0.86756 0.0
C91 C 0.46701 0.85606 0.85964 0.0
C92 C 0.45592 0.84792 0.83634 0.0
C93 C 0.46548 0.83005 0.82118 0.0
C94 C 0.48592 0.8209 0.83011 0.0
H95 H 0.4963 0.85299 0.88535 0.0
O96 O 0.49228 0.77582 0.90722 0.0
O97 O 0.50989 0.78595 0.87369 0.0
O98 O 0.53803 0.8124 0.91641 0.0
O99 O 0.5361 0.83821 0.88701 0.0
C100 C 0.45541 0.82079 0.79762 0.0
C101 C 0.46541 0.80202 0.78374 0.0
H102 H 0.48914 0.76541 0.76276 0.0
H103 H 0.52501 0.75116 0.78196 0.0
H104 H 0.45979 0.86991 0.87143 0.0
H105 H 0.44002 0.85543 0.83031 0.0
H106 H 0.4397 0.82764 0.79016 0.0
H107 H 0.4572 0.79469 0.76583 0.0
Mn108 Mn 0.49786 0.26589 0.12194 0.0
Mn109 Mn 0.44982 0.254 0.08035 0.0
C110 C 0.4802 0.22387 0.10701 0.0
C111 C 0.53968 0.27199 0.13365 0.0
C112 C 0.44528 0.27086 0.13329 0.0
O113 O 0.50022 0.30069 0.10761 0.0
O114 O 0.46888 0.28948 0.07884 0.0
C115 C 0.47638 0.25509 0.0353 0.0
N116 N 0.45997 0.24217 0.0496 0.0
C117 C 0.45222 0.20424 0.02087 0.0
C118 C 0.46895 0.21719 0.00581 0.0
C119 C 0.48107 0.24272 0.01306 0.0
C120 C 0.44804 0.21767 0.0427 0.0
H121 H 0.48589 0.27464 0.04085 0.0
C122 C 0.48734 0.30561 0.08947 0.0
O123 O 0.524 0.27973 0.1479 0.0
O124 O 0.53142 0.26259 0.11184 0.0
N125 N 0.43076 0.21977 0.08003 0.0
C126 C 0.41671 0.20932 0.09747 0.0
C127 C 0.40413 0.18352 0.09348 0.0
C128 C 0.40613 0.16872 0.07164 0.0
C129 C 0.42071 0.17988 0.05396 0.0
C130 C 0.43262 0.20577 0.05884 0.0
H131 H 0.41527 0.22052 0.11439 0.0
O132 O 0.49195 0.22849 0.12812 0.0
O133 O 0.4785 0.24399 0.09589 0.0
O134 O 0.46762 0.27127 0.14007 0.0
O135 O 0.43688 0.26553 0.11131 0.0
C136 C 0.42435 0.16613 0.03194 0.0
C137 C 0.44007 0.17831 0.0154 0.0
H138 H 0.47283 0.20762 0.98876 0.0
H139 H 0.49411 0.25279 1.00159 0.0
H140 H 0.39303 0.175 0.10727 0.0
H141 H 0.39661 0.14874 0.06874 0.0
H142 H 0.41545 0.14606 0.02771 0.0
H143 H 0.44301 0.16741 0.99869 0.0
Mn144 Mn 0.03621 0.78968 0.14188 0.0
Mn145 Mn 0.99125 0.76201 0.09928 0.0
C146 C 0.03159 0.74635 0.12781 0.0
C147 C 0.0762 0.81018 0.15539 0.0
C148 C 0.98143 0.77454 0.15156 0.0
O149 O 0.0281 0.82096 0.12666 0.0
O150 O 0.9977 0.8003 0.09938 0.0
C151 C 0.01737 0.77599 0.05564 0.0
N152 N 0.00505 0.75764 0.06864 0.0
C153 C 0.00741 0.72379 0.03733 0.0
C154 C 0.02001 0.74234 0.02357 0.0
C155 C 0.02508 0.76854 0.0328 0.0
C156 C 1.00015 0.73237 0.05996 0.0
H157 H 0.02127 0.79615 0.06262 0.0
C158 C 0.01179 0.8209 0.1096 0.0
O159 O 0.05756 0.81159 0.16843 0.0
O160 O 0.07143 0.79818 0.13378 0.0
N161 N 0.98357 0.725 0.09694 0.0
C162 C 0.97304 0.70935 0.11328 0.0
C163 C 0.96765 0.68244 0.10724 0.0
C164 C 0.97296 0.67192 0.08443 0.0
C165 C 0.98372 0.68842 0.06789 0.0
C166 C 0.98867 0.71508 0.07491 0.0
H167 H 0.96898 0.71733 0.13086 0.0
O168 O 0.04165 0.75469 0.14929 0.0
O169 O 0.02373 0.7633 0.11564 0.0
O170 O 0.0036 0.78487 0.15842 0.0
O171 O 0.97477 0.76489 0.12991 0.0
C172 C 0.9902 0.67942 0.0449 0.0
C173 C 0.00212 0.69708 0.02968 0.0
H174 H 0.02605 0.73667 0.00597 0.0
H175 H 0.03489 0.78296 0.02232 0.0
H176 H 0.95945 0.66983 0.12015 0.0
H177 H 0.96892 0.65115 0.07989 0.0
H178 H 0.98647 0.65892 0.03892 0.0
H179 H 0.00743 0.68988 0.01223 0.0
Mn180 Mn 0.48903 0.75706 0.37502 0.0
Mn181 Mn 0.47889 0.79039 0.32753 0.0
C182 C 0.44941 0.75326 0.35776 0.0
C183 C 0.49924 0.72287 0.39437 0.0
C184 C 0.48791 0.81507 0.37908 0.0
O185 O 0.52332 0.76621 0.3623 0.0
O186 O 0.51406 0.78701 0.33058 0.0
C187 C 0.48794 0.75211 0.28833 0.0
N188 N 0.47303 0.76735 0.29845 0.0
C189 C 0.44246 0.75422 0.26533 0.0
C190 C 0.45754 0.73849 0.25448 0.0
C191 C 0.48033 0.73734 0.26609 0.0
C192 C 0.45094 0.76834 0.28759 0.0
H193 H 0.50551 0.75124 0.29714 0.0
C194 C 0.5293 0.7778 0.34365 0.0
O195 O 0.50248 0.74617 0.40484 0.0
O196 O 0.4906 0.71914 0.3719 0.0
N197 N 0.44573 0.79513 0.32175 0.0
C198 C 0.43303 0.81068 0.33493 0.0
C199 C 0.40987 0.81398 0.32582 0.0
C200 C 0.40013 0.80157 0.30313 0.0
C201 C 0.41361 0.78586 0.28979 0.0
C202 C 0.43667 0.78342 0.29973 0.0
H203 H 0.44049 0.82047 0.35228 0.0
O204 O 0.45292 0.7483 0.37992 0.0
O205 O 0.46909 0.76031 0.34619 0.0
O206 O 0.49014 0.79433 0.38794 0.0
O207 O 0.48396 0.81622 0.35649 0.0
C208 C 0.40491 0.77223 0.26717 0.0
C209 C 0.41925 0.75628 0.25503 0.0
H210 H 0.45177 0.72712 0.23731 0.0
H211 H 0.49204 0.72518 0.25788 0.0
H212 H 0.39956 0.8261 0.33624 0.0
H213 H 0.38221 0.80407 0.29621 0.0
H214 H 0.38707 0.77359 0.25913 0.0
H215 H 0.41223 0.74562 0.23781 0.0
Mn216 Mn 0.53815 0.28954 0.6381 0.0
Mn217 Mn 0.49528 0.26175 0.59358 0.0
C218 C 0.53411 0.24618 0.62463 0.0
C219 C 0.57767 0.31047 0.65273 0.0
C220 C 0.48285 0.27559 0.64496 0.0
O221 O 0.53023 0.32066 0.62217 0.0
O222 O 0.50283 0.29972 0.5922 0.0
C223 C 0.52409 0.2726 0.55088 0.0
N224 N 0.51058 0.25532 0.56412 0.0
C225 C 0.51363 0.21974 0.53493 0.0
C226 C 0.5275 0.23718 0.52092 0.0
C227 C 0.53281 0.2637 0.52898 0.0
C228 C 0.50541 0.22975 0.55657 0.0
H229 H 0.52816 0.293 0.557 0.0
C230 C 0.51569 0.32041 0.60354 0.0
O231 O 0.55856 0.31175 0.66512 0.0
O232 O 0.57363 0.29842 0.63109 0.0
N233 N 0.48658 0.22491 0.59286 0.0
C234 C 0.47462 0.21052 0.60936 0.0
C235 C 0.46881 0.18346 0.60456 0.0
C236 C 0.47515 0.17153 0.58276 0.0
C237 C 0.48733 0.18677 0.56599 0.0
C238 C 0.49265 0.21364 0.57177 0.0
H239 H 0.46964 0.21961 0.62612 0.0
O240 O 0.54358 0.25483 0.64624 0.0
O241 O 0.52676 0.26297 0.61186 0.0
O242 O 0.5049 0.28415 0.65341 0.0
O243 O 0.47721 0.26705 0.62285 0.0
C244 C 0.49481 0.17634 0.54396 0.0
C245 C 0.50803 0.1928 0.52848 0.0
H246 H 0.53433 0.23038 0.50405 0.0
H247 H 0.54358 0.27726 0.51831 0.0
H248 H 0.45946 0.17183 0.61761 0.0
H249 H 0.47076 0.15065 0.57917 0.0
H250 H 0.49085 0.15564 0.53895 0.0
H251 H 0.51408 0.1845 0.51182 0.0
Mn252 Mn 0.98766 0.25822 0.87425 0.0
Mn253 Mn 0.97752 0.2916 0.8269 0.0
C254 C 0.94787 0.25547 0.85794 0.0
C255 C 0.99786 0.22314 0.89201 0.0
C256 C 0.98822 0.3165 0.87839 0.0
O257 O 0.02157 0.26653 0.86081 0.0
O258 O 0.01242 0.28687 0.82878 0.0
C259 C 0.98416 0.25258 0.78729 0.0
N260 N 0.97011 0.26845 0.79795 0.0
C261 C 0.93826 0.25588 0.76592 0.0
C262 C 0.95245 0.23952 0.75452 0.0
C263 C 0.97545 0.23778 0.76531 0.0
C264 C 0.94785 0.27007 0.78785 0.0
H265 H 0.00186 0.25121 0.79548 0.0
C266 C 0.02751 0.27738 0.84179 0.0
O267 O 0.00196 0.24619 0.90326 0.0
O268 O 0.98791 0.22025 0.87006 0.0
N269 N 0.94457 0.29745 0.82224 0.0
C270 C 0.93269 0.31332 0.83603 0.0
C271 C 0.90935 0.31705 0.82787 0.0
C272 C 0.89856 0.30465 0.80552 0.0
C273 C 0.91119 0.28858 0.79155 0.0
C274 C 0.93448 0.28573 0.80054 0.0
H275 H 0.9409 0.323 0.85317 0.0
O276 O 0.95168 0.25035 0.88002 0.0
O277 O 0.96736 0.26207 0.846 0.0
O278 O 0.98994 0.29572 0.88748 0.0
O279 O 0.98416 0.31749 0.85578 0.0
C280 C 0.90142 0.27493 0.76924 0.0
C281 C 0.91487 0.25846 0.75652 0.0
H282 H 0.94581 0.22808 0.73756 0.0
H283 H 0.98646 0.22511 0.75667 0.0
H284 H 0.89969 0.32943 0.83879 0.0
H285 H 0.88046 0.30741 0.79937 0.0
H286 H 0.8834 0.27665 0.7619 0.0
H287 H 0.90698 0.24776 0.73957 0.0
Mn288 Mn 0.40797 0.04817 0.28766 0.0
Mn289 Mn 0.361 0.03149 0.32314 0.0
C290 C 0.39407 0.00538 0.29371 0.0
C291 C 0.4228 0.05497 0.25014 0.0
C292 C 0.41268 0.05712 0.34259 0.0
O293 O 0.39144 0.07944 0.28894 0.0
O294 O 0.35938 0.06516 0.31112 0.0
C295 C 0.31935 0.02418 0.28625 0.0
N296 N 0.33225 0.01456 0.3035 0.0
C297 C 0.30459 0.97327 0.29734 0.0
C298 C 0.29094 0.98279 0.2796 0.0
C299 C 0.2984 0.00833 0.274 0.0
C300 C 0.32531 0.98996 0.30895 0.0
H301 H 0.32503 0.04377 0.28181 0.0
C302 C 0.37131 0.08182 0.29851 0.0
O303 O 0.43566 0.06543 0.26984 0.0
O304 O 0.4009 0.04173 0.25231 0.0
N305 N 0.36044 0.99865 0.33521 0.0
C306 C 0.37641 0.99196 0.35174 0.0
C307 C 0.37191 0.96681 0.35891 0.0
C308 C 0.35101 0.94887 0.34911 0.0
C309 C 0.33478 0.95622 0.3322 0.0
C310 C 0.34016 0.98158 0.32583 0.0
H311 H 0.39249 0.00566 0.35935 0.0
O312 O 0.4164 0.01278 0.28742 0.0
O313 O 0.38127 0.02336 0.29693 0.0
O314 O 0.42225 0.05802 0.32225 0.0
O315 O 0.3899 0.04809 0.3449 0.0
C316 C 0.31372 0.93927 0.32115 0.0
C317 C 0.29869 0.94774 0.30364 0.0
H318 H 0.27483 0.9706 0.27004 0.0
H319 H 0.28804 0.01578 0.26025 0.0
H320 H 0.38454 0.96127 0.37193 0.0
H321 H 0.34769 0.92944 0.35456 0.0
H322 H 0.3091 0.91954 0.32571 0.0
H323 H 0.2828 0.93438 0.29495 0.0
Mn324 Mn 0.26666 0.16578 0.49759 0.0
Mn325 Mn 0.25771 0.11598 0.45349 0.0
C326 C 0.2272 0.14421 0.48453 0.0
C327 C 0.27057 0.18151 0.53882 0.0
C328 C 0.27158 0.17219 0.44331 0.0
O329 O 0.30019 0.1546 0.4982 0.0
O330 O 0.29197 0.1218 0.46814 0.0
C331 C 0.26219 0.07334 0.48334 0.0
N332 N 0.24885 0.08394 0.4672 0.0
C333 C 0.21525 0.04742 0.46512 0.0
C334 C 0.2287 0.03605 0.4816 0.0
C335 C 0.25225 0.04909 0.49077 0.0
C336 C 0.2262 0.0715 0.45818 0.0
H337 H 0.28025 0.08331 0.49054 0.0
C338 C 0.30633 0.1361 0.48481 0.0
O339 O 0.27838 0.19636 0.5223 0.0
O340 O 0.26194 0.15744 0.53151 0.0
N341 N 0.22506 0.10816 0.43834 0.0
C342 C 0.21369 0.12272 0.42421 0.0
C343 C 0.18954 0.11296 0.41445 0.0
C344 C 0.17736 0.08835 0.41929 0.0
C345 C 0.18945 0.0737 0.43383 0.0
C346 C 0.2136 0.08433 0.44289 0.0
H347 H 0.22288 0.14174 0.4206 0.0
O348 O 0.23087 0.16794 0.49434 0.0
O349 O 0.24676 0.13428 0.48184 0.0
O350 O 0.27311 0.18219 0.46531 0.0
O351 O 0.26606 0.14782 0.43736 0.0
C352 C 0.17826 0.04925 0.4402 0.0
C353 C 0.19115 0.03611 0.45582 0.0
H354 H 0.22101 0.01746 0.48755 0.0
H355 H 0.26269 0.0405 0.5036 0.0
H356 H 0.18029 0.12445 0.40335 0.0
H357 H 0.15864 0.08102 0.41194 0.0
H358 H 0.15958 0.04058 0.43352 0.0
H359 H 0.1822 0.01753 0.4609 0.0
Mn360 Mn 0.13942 0.0146 0.78067 0.0
Mn361 Mn 0.1829 0.02522 0.8269 0.0
C362 C 0.1587 0.05652 0.79502 0.0
C363 C 0.12612 0.00985 0.73962 0.0
C364 C 0.12824 0.00882 0.83376 0.0
O365 O 0.15099 0.97957 0.77994 0.0
O366 O 0.18071 0.9899 0.81034 0.0
C367 C 0.22782 0.02375 0.80015 0.0
N368 N 0.21491 0.03668 0.81571 0.0
C369 C 0.24808 0.07373 0.82126 0.0
C370 C 0.26175 0.06076 0.80538 0.0
C371 C 0.25156 0.03568 0.79477 0.0
C372 C 0.22462 0.06076 0.82616 0.0
H373 H 0.22006 0.00452 0.79186 0.0
C374 C 0.1688 0.97422 0.79297 0.0
O375 O 0.11156 0.00152 0.75602 0.0
O376 O 0.149 0.01895 0.74678 0.0
N377 N 0.1869 0.05925 0.84346 0.0
C378 C 0.17048 0.06995 0.8566 0.0
C379 C 0.17733 0.0955 0.86743 0.0
C380 C 0.20096 0.10977 0.86464 0.0
C381 C 0.21753 0.09836 0.85099 0.0
C382 C 0.20973 0.07277 0.84075 0.0
H383 H 0.15222 0.05916 0.85866 0.0
O384 O 0.13675 0.0521 0.78441 0.0
O385 O 0.16807 0.03619 0.79789 0.0
O386 O 0.12109 0.00853 0.81164 0.0
O387 O 0.15092 0.01399 0.84123 0.0
C388 C 0.24126 0.11159 0.8467 0.0
C389 C 0.25654 0.09926 0.83188 0.0
H390 H 0.27997 0.06999 0.80098 0.0
H391 H 0.26195 0.0256 0.7824 0.0
H392 H 0.16438 0.10422 0.87781 0.0
H393 H 0.2061 0.12954 0.87285 0.0
H394 H 0.24779 0.13139 0.85438 0.0
H395 H 0.27459 0.10979 0.82838 0.0
Mn396 Mn 0.24569 0.89121 1.00077 0.0
Mn397 Mn 0.26828 0.93988 0.96801 0.0
C398 C 0.28736 0.90199 0.99583 0.0
C399 C 0.23622 0.87529 0.03731 0.0
C400 C 0.24307 0.88658 0.9456 0.0
O401 O 0.2176 0.91115 0.9997 0.0
O402 O 0.23487 0.94291 0.97781 0.0
C403 C 0.27282 0.98323 0.00665 0.0
N404 N 0.28334 0.96945 0.98957 0.0
C405 C 0.32307 0.99702 0.99922 0.0
C406 C 0.31261 0.01158 0.01682 0.0
C407 C 0.28739 0.00462 0.02058 0.0
C408 C 0.30762 0.97592 0.98587 0.0
H409 H 0.25347 0.97791 0.0097 0.0
C410 C 0.21723 0.93187 0.98965 0.0
O411 O 0.2263 0.86278 0.017 0.0
O412 O 0.24985 0.89791 0.03635 0.0
N413 N 0.30083 0.93952 0.95779 0.0
C414 C 0.30826 0.92295 0.9407 0.0
C415 C 0.33308 0.92703 0.93502 0.0
C416 C 0.34997 0.94816 0.94682 0.0
C417 C 0.34184 0.96511 0.96413 0.0
C418 C 0.31684 0.9602 0.96891 0.0
H419 H 0.29539 0.90667 0.93157 0.0
O420 O 0.2778 0.87898 1.00096 0.0
O421 O 0.27226 0.91774 0.99347 0.0
O422 O 0.23814 0.87692 0.96535 0.0
O423 O 0.25393 0.90998 0.94459 0.0
C424 C 0.35764 0.98648 0.97709 0.0
C425 C 0.34828 0.00236 0.99468 0.0
H426 H 0.3238 0.02803 0.02766 0.0
H427 H 0.27921 0.01569 0.0342 0.0
H428 H 0.33921 0.91386 0.92162 0.0
H429 H 0.36915 0.9511 0.94256 0.0
H430 H 0.3771 0.99066 0.97389 0.0
H431 H 0.36068 0.01852 0.00475 0.0
Mn432 Mn 0.27318 0.39091 0.03035 0.0
Mn433 Mn 0.29038 0.44337 0.99973 0.0
C434 C 0.31457 0.41009 0.02974 0.0
C435 C 0.26122 0.37202 0.06579 0.0
C436 C 0.27636 0.38866 0.97498 0.0
O437 O 0.24075 0.40395 0.02582 0.0
O438 O 0.25509 0.43852 0.0062 0.0
C439 C 0.28394 0.48328 0.03858 0.0
N440 N 0.2983 0.47378 0.0221 0.0
C441 C 0.33144 0.51026 0.03234 0.0
C442 C 0.31696 0.52051 0.04934 0.0
C443 C 0.29315 0.50689 0.05255 0.0
C444 C 0.32135 0.48655 0.0191 0.0
H445 H 0.26558 0.47293 0.041 0.0
C446 C 0.23772 0.42397 0.01566 0.0
O447 O 0.25623 0.35926 0.04454 0.0
O448 O 0.27231 0.39598 0.06637 0.0
N449 N 0.32417 0.45119 0.99197 0.0
C450 C 0.33602 0.43832 0.97531 0.0
C451 C 0.35998 0.44942 0.96981 0.0
C452 C 0.37141 0.47376 0.98126 0.0
C453 C 0.35879 0.48674 0.99819 0.0
C454 C 0.33487 0.47481 0.00279 0.0
H455 H 0.32732 0.41968 0.96637 0.0
O456 O 0.30829 0.38623 0.03434 0.0
O457 O 0.29665 0.42211 0.02561 0.0
O458 O 0.27138 0.37738 0.99405 0.0
O459 O 0.28332 0.41311 0.9753 0.0
C460 C 0.36914 0.51089 0.01093 0.0
C461 C 0.35555 0.52254 0.02814 0.0
H462 H 0.32397 0.53875 0.0601 0.0
H463 H 0.28189 0.51464 0.06568 0.0
H464 H 0.36962 0.43924 0.95677 0.0
H465 H 0.38996 0.48217 0.9771 0.0
H466 H 0.38766 0.5205 0.00787 0.0
H467 H 0.36384 0.54092 0.03806 0.0
Mn468 Mn 0.76653 0.15954 0.01824 0.0
Mn469 Mn 0.73693 0.10791 0.98094 0.0
C470 C 0.72412 0.14877 0.01561 0.0
C471 C 0.78411 0.17899 0.05568 0.0
C472 C 0.75784 0.15955 0.96358 0.0
O473 O 0.79383 0.13929 0.01167 0.0
O474 O 0.77214 0.10594 0.98675 0.0
C475 C 0.74039 0.06792 0.01419 0.0
N476 N 0.72644 0.07998 0.99994 0.0
C477 C 0.68909 0.05217 0.00919 0.0
C478 C 0.70307 0.03937 0.02386 0.0
C479 C 0.72883 0.04734 0.02642 0.0
C480 C 0.70162 0.07263 0.99754 0.0
H481 H 0.76018 0.07397 0.01625 0.0
C482 C 0.7921 0.11791 0.9984 0.0
O483 O 0.78968 0.18953 0.03599 0.0
O484 O 0.76981 0.15634 0.05333 0.0
N485 N 0.70252 0.10677 0.97384 0.0
C486 C 0.69166 0.12119 0.95911 0.0
C487 C 0.66596 0.11549 0.95442 0.0
C488 C 0.6517 0.0949 0.96473 0.0
C489 C 0.66328 0.08014 0.97961 0.0
C490 C 0.68899 0.08656 0.98343 0.0
H491 H 0.70249 0.13701 0.95109 0.0
O492 O 0.7351 0.1722 0.02311 0.0
O493 O 0.73817 0.13235 0.00985 0.0
O494 O 0.76708 0.17056 0.98412 0.0
O495 O 0.74628 0.13609 0.96022 0.0
C496 C 0.65031 0.05941 0.99091 0.0
C497 C 0.66319 0.04554 0.00582 0.0
H498 H 0.69423 0.02347 0.03331 0.0
H499 H 0.73974 0.03762 0.03778 0.0
H500 H 0.65717 0.12697 0.94291 0.0
H501 H 0.63187 0.09066 0.96119 0.0
H502 H 0.63041 0.05412 0.98843 0.0
H503 H 0.65299 0.02981 0.0146 0.0
Mn504 Mn 0.11591 0.51369 0.2434 0.0
Mn505 Mn 0.16083 0.54439 0.28497 0.0
C506 C 0.12899 0.55791 0.24547 0.0
C507 C 0.10169 0.49219 0.20578 0.0
C508 C 0.10844 0.52456 0.29688 0.0
O509 O 0.13216 0.48441 0.25344 0.0
O510 O 0.16272 0.50756 0.2792 0.0
C511 C 0.20403 0.53992 0.25647 0.0
N512 N 0.19063 0.55487 0.26939 0.0
C513 C 0.22023 0.59351 0.26508 0.0
C514 C 0.23441 0.57853 0.2518 0.0
C515 C 0.22621 0.55164 0.24738 0.0
C516 C 0.19816 0.58079 0.27344 0.0
H517 H 0.19786 0.51923 0.25316 0.0
C518 C 0.15131 0.48634 0.26772 0.0
O519 O 0.08875 0.48927 0.22453 0.0
O520 O 0.12358 0.5066 0.20917 0.0
N521 N 0.16138 0.58057 0.29224 0.0
C522 C 0.14525 0.59229 0.30487 0.0
C523 C 0.15068 0.61923 0.31074 0.0
C524 C 0.1728 0.63378 0.30393 0.0
C525 C 0.18925 0.62125 0.29122 0.0
C526 C 0.18282 0.59437 0.28582 0.0
H527 H 0.12841 0.58116 0.31047 0.0
O528 O 0.10731 0.54731 0.23564 0.0
O529 O 0.14217 0.54244 0.25379 0.0
O530 O 0.10012 0.51648 0.2754 0.0
O531 O 0.13093 0.53475 0.30281 0.0
C532 C 0.21173 0.63438 0.28358 0.0
C533 C 0.22707 0.62056 0.27029 0.0
H534 H 0.25158 0.58748 0.24486 0.0
H535 H 0.23702 0.53995 0.2371 0.0
H536 H 0.13791 0.62875 0.32061 0.0
H537 H 0.17691 0.65455 0.30848 0.0
H538 H 0.21725 0.65514 0.28757 0.0
H539 H 0.24409 0.63094 0.26417 0.0
Mn540 Mn 0.77322 0.88853 0.53421 0.0
Mn541 Mn 0.7892 0.94018 0.50233 0.0
C542 C 0.81438 0.90786 0.53274 0.0
C543 C 0.76149 0.87054 0.57 0.0
C544 C 0.7744 0.88504 0.47892 0.0
O545 O 0.74049 0.9011 0.5293 0.0
O546 O 0.75446 0.93635 0.51037 0.0
C547 C 0.78541 0.98149 0.54082 0.0
N548 N 0.79875 0.971 0.52395 0.0
C549 C 0.83301 0.00666 0.53244 0.0
C550 C 0.8196 0.01792 0.54984 0.0
C551 C 0.79574 0.00522 0.55412 0.0
C552 C 0.82182 0.9829 0.51989 0.0
H553 H 0.76702 0.97183 0.54406 0.0
C554 C 0.73728 0.92139 0.51967 0.0
O555 O 0.75657 0.85726 0.54899 0.0
O556 O 0.77243 0.89452 0.57015 0.0
N557 N 0.82252 0.94666 0.49304 0.0
C558 C 0.83319 0.93289 0.47605 0.0
C559 C 0.85714 0.94287 0.46968 0.0
C560 C 0.8697 0.96707 0.48054 0.0
C561 C 0.85818 0.98108 0.49767 0.0
C562 C 0.83427 0.97019 0.50323 0.0
H563 H 0.82351 0.91446 0.46739 0.0
O564 O 0.80845 0.88429 0.53826 0.0
O565 O 0.79623 0.91951 0.52845 0.0
O566 O 0.77153 0.87406 0.49838 0.0
O567 O 0.78018 0.9095 0.47848 0.0
C568 C 0.86959 0.00527 0.50967 0.0
C569 C 0.8571 0.01795 0.52719 0.0
H570 H 0.82747 0.03624 0.5601 0.0
H571 H 0.78531 0.01375 0.56757 0.0
H572 H 0.86588 0.93197 0.4564 0.0
H573 H 0.88823 0.97463 0.47569 0.0
H574 H 0.88812 0.01412 0.50583 0.0
H575 H 0.86622 0.03635 0.53657 0.0
Mn576 Mn 0.88937 0.02925 0.2332 0.0
Mn577 Mn 0.83864 0.01129 0.26438 0.0
C578 C 0.87214 0.98582 0.23355 0.0
C579 C 0.90837 0.04131 0.19785 0.0
C580 C 0.89023 0.0264 0.28838 0.0
O581 O 0.87607 0.06297 0.23863 0.0
O582 O 0.84288 0.04836 0.25908 0.0
C583 C 0.80164 0.01692 0.22614 0.0
N584 N 0.81045 0.0022 0.24201 0.0
C585 C 0.77708 0.96634 0.23019 0.0
C586 C 0.76756 0.98116 0.21381 0.0
C587 C 0.77996 0.00652 0.21171 0.0
C588 C 0.79886 0.97766 0.24393 0.0
H589 H 0.81109 0.03642 0.2245 0.0
C590 C 0.85685 0.06628 0.24952 0.0
O591 O 0.91983 0.04727 0.21905 0.0
O592 O 0.88556 0.02941 0.19729 0.0
N593 N 0.83144 0.97596 0.27127 0.0
C594 C 0.84299 0.96426 0.28798 0.0
C595 C 0.83278 0.93891 0.29252 0.0
C596 C 0.81057 0.92601 0.28018 0.0
C597 C 0.79874 0.93861 0.26343 0.0
C598 C 0.80972 0.96395 0.25978 0.0
H599 H 0.85988 0.97418 0.29781 0.0
O600 O 0.89489 0.99287 0.22841 0.0
O601 O 0.85987 0.00427 0.23802 0.0
O602 O 0.90136 0.0315 0.26922 0.0
O603 O 0.86685 0.01939 0.28853 0.0
C604 C 0.77662 0.92694 0.25005 0.0
C605 C 0.76589 0.94073 0.23332 0.0
H606 H 0.7508 0.97324 0.2027 0.0
H607 H 0.77278 0.01804 0.19905 0.0
H608 H 0.84197 0.92935 0.30555 0.0
H609 H 0.80281 0.90641 0.28364 0.0
H610 H 0.76785 0.90728 0.25232 0.0
H611 H 0.74902 0.93147 0.22295 0.0
Mn612 Mn 0.26707 0.66047 0.51792 0.0
Mn613 Mn 0.24068 0.60968 0.47796 0.0
C614 C 0.22504 0.64607 0.5156 0.0
C615 C 0.28426 0.67895 0.55575 0.0
C616 C 0.2572 0.66372 0.46392 0.0
O617 O 0.29615 0.64353 0.50978 0.0
O618 O 0.27661 0.61072 0.48299 0.0
C619 C 0.24837 0.56757 0.50734 0.0
N620 N 0.23296 0.57924 0.49434 0.0
C621 C 0.19821 0.54569 0.49945 0.0
C622 C 0.21373 0.53323 0.51277 0.0
C623 C 0.23889 0.5443 0.51682 0.0
C624 C 0.20869 0.56889 0.49052 0.0
H625 H 0.26774 0.57593 0.51041 0.0
C626 C 0.29597 0.62336 0.49522 0.0
O627 O 0.28851 0.69092 0.5366 0.0
O628 O 0.27146 0.65554 0.55262 0.0
N629 N 0.20583 0.60566 0.47145 0.0
C630 C 0.19306 0.62099 0.4597 0.0
C631 C 0.16748 0.6131 0.45487 0.0
C632 C 0.15537 0.58939 0.46188 0.0
C633 C 0.16892 0.57385 0.47381 0.0
C634 C 0.19435 0.58275 0.47818 0.0
H635 H 0.20228 0.63919 0.4542 0.0
O636 O 0.23445 0.6697 0.52406 0.0
O637 O 0.24039 0.63148 0.50851 0.0
O638 O 0.2662 0.67387 0.48478 0.0
O639 O 0.24716 0.63991 0.45935 0.0
C640 C 0.15813 0.55011 0.48193 0.0
C641 C 0.17273 0.53613 0.49489 0.0
H642 H 0.2065 0.51526 0.5201 0.0
H643 H 0.25097 0.53485 0.52716 0.0
H644 H 0.15714 0.62525 0.44574 0.0
H645 H 0.13562 0.58342 0.45822 0.0
H646 H 0.13854 0.5426 0.47863 0.0
H647 H 0.16413 0.51814 0.50142 0.0
Mn648 Mn 0.38631 0.52748 0.73078 0.0
Mn649 Mn 0.33479 0.50774 0.76029 0.0
C650 C 0.3692 0.48363 0.72948 0.0
C651 C 0.40627 0.54118 0.6964 0.0
C652 C 0.38595 0.52352 0.78551 0.0
O653 O 0.37273 0.5611 0.7375 0.0
O654 O 0.33762 0.5443 0.75402 0.0
C655 C 0.29811 0.5107 0.72076 0.0
N656 N 0.30703 0.49709 0.73756 0.0
C657 C 0.27412 0.46047 0.72696 0.0
C658 C 0.26438 0.47422 0.70975 0.0
C659 C 0.27653 0.49938 0.70652 0.0
C660 C 0.29582 0.47266 0.74042 0.0
H661 H 0.30744 0.53001 0.7182 0.0
C662 C 0.35197 0.56314 0.74607 0.0
O663 O 0.41709 0.54636 0.71791 0.0
O664 O 0.38342 0.52924 0.69497 0.0
N665 N 0.32881 0.4726 0.76784 0.0
C666 C 0.34089 0.46172 0.78482 0.0
C667 C 0.33113 0.43658 0.79028 0.0
C668 C 0.30882 0.42304 0.77858 0.0
C669 C 0.29653 0.43473 0.76142 0.0
C670 C 0.30709 0.45988 0.75681 0.0
H671 H 0.35779 0.47216 0.79424 0.0
O672 O 0.39202 0.4911 0.72473 0.0
O673 O 0.35685 0.50185 0.73444 0.0
O674 O 0.39761 0.52817 0.76661 0.0
O675 O 0.36247 0.51733 0.78519 0.0
C676 C 0.27435 0.4223 0.74853 0.0
C677 C 0.26328 0.43507 0.73115 0.0
H678 H 0.2477 0.46559 0.6988 0.0
H679 H 0.26924 0.51004 0.69315 0.0
H680 H 0.3407 0.42771 0.80358 0.0
H681 H 0.30137 0.40364 0.78281 0.0
H682 H 0.26584 0.40279 0.75161 0.0
H683 H 0.24644 0.42517 0.72108 0.0
Mn684 Mn 0.61969 0.01163 0.74431 0.0
Mn685 Mn 0.66632 0.04392 0.78326 0.0
C686 C 0.63066 0.05612 0.74669 0.0
C687 C 0.60387 0.99078 0.70685 0.0
C688 C 0.61581 0.0214 0.79871 0.0
O689 O 0.63827 0.98323 0.75217 0.0
O690 O 0.66917 0.00738 0.77696 0.0
C691 C 0.70752 0.04102 0.75161 0.0
N692 N 0.69453 0.05538 0.76571 0.0
C693 C 0.72243 0.09478 0.76 0.0
C694 C 0.73617 0.08042 0.74548 0.0
C695 C 0.72861 0.05343 0.74117 0.0
C696 C 0.70142 0.08138 0.76966 0.0
H697 H 0.70185 0.02026 0.7484 0.0
C698 C 0.65806 0.98591 0.76569 0.0
O699 O 0.59229 0.98653 0.72627 0.0
O700 O 0.62538 0.00599 0.70943 0.0
N701 N 0.66607 0.07985 0.79108 0.0
C702 C 0.65055 0.09088 0.80517 0.0
C703 C 0.6555 0.1178 0.81122 0.0
C704 C 0.67657 0.13302 0.80309 0.0
C705 C 0.69246 0.12119 0.78889 0.0
C706 C 0.68653 0.09431 0.78337 0.0
H707 H 0.63457 0.07921 0.81182 0.0
O708 O 0.60869 0.04466 0.73833 0.0
O709 O 0.64531 0.04135 0.75353 0.0
O710 O 0.60626 0.01265 0.7777 0.0
O711 O 0.63812 0.03326 0.80293 0.0
C712 C 0.71392 0.13501 0.77993 0.0
C713 C 0.72873 0.12186 0.76526 0.0
H714 H 0.75253 0.08991 0.73752 0.0
H715 H 0.73908 0.04222 0.72994 0.0
H716 H 0.64319 0.12678 0.82225 0.0
H717 H 0.68034 0.15377 0.8078 0.0
H718 H 0.71907 0.1558 0.78399 0.0
H719 H 0.74496 0.13276 0.75817 0.0
Mn720 Mn 0.76629 0.66718 1.00106 0.0
Mn721 Mn 0.75423 0.61786 0.95657 0.0
C722 C 0.72595 0.64728 0.9895 0.0
C723 C 0.77337 0.68283 0.04199 0.0
C724 C 0.77056 0.67398 0.9471 0.0
O725 O 0.79938 0.65487 0.99929 0.0
O726 O 0.78815 0.62059 0.97105 0.0
C727 C 0.75488 0.57395 0.9858 0.0
N728 N 0.74273 0.5861 0.96997 0.0
C729 C 0.70646 0.55263 0.96834 0.0
C730 C 0.71864 0.53968 0.98451 0.0
C731 C 0.74295 0.55041 0.99329 0.0
C732 C 0.71936 0.57593 0.96138 0.0
H733 H 0.77351 0.58219 0.9927 0.0
C734 C 0.80385 0.63496 0.9866 0.0
O735 O 0.77995 0.69756 0.02507 0.0
O736 O 0.76392 0.65877 0.0352 0.0
N737 N 0.72163 0.61313 0.94161 0.0
C738 C 0.71198 0.6288 0.9273 0.0
C739 C 0.68754 0.62125 0.9176 0.0
C740 C 0.6733 0.59765 0.92266 0.0
C741 C 0.68367 0.58178 0.93732 0.0
C742 C 0.7082 0.5902 0.94629 0.0
H743 H 0.72279 0.64701 0.92343 0.0
O744 O 0.73078 0.67068 1.00014 0.0
O745 O 0.74487 0.63657 0.98559 0.0
O746 O 0.77089 0.68369 0.96901 0.0
O747 O 0.76544 0.64968 0.94066 0.0
C748 C 0.67047 0.55818 0.94378 0.0
C749 C 0.68185 0.54362 0.95929 0.0
H750 H 0.70944 0.52162 0.99048 0.0
H751 H 0.75242 0.54061 0.00588 0.0
H752 H 0.67965 0.63364 0.90635 0.0
H753 H 0.65437 0.59203 0.91537 0.0
H754 H 0.65143 0.55124 0.93723 0.0
H755 H 0.6714 0.5257 0.96441 0.0
Mn756 Mn 0.90904 0.54402 0.78558 0.0
Mn757 Mn 0.86276 0.52593 0.82152 0.0
C758 C 0.89717 0.50119 0.79265 0.0
C759 C 0.92326 0.55068 0.74775 0.0
C760 C 0.91376 0.55439 0.84046 0.0
O761 O 0.89087 0.57414 0.78623 0.0
O762 O 0.85945 0.55879 0.80877 0.0
C763 C 0.82099 0.51563 0.78454 0.0
N764 N 0.83448 0.50727 0.80218 0.0
C765 C 0.80825 0.46512 0.79729 0.0
C766 C 0.79402 0.47332 0.77915 0.0
C767 C 0.80047 0.49866 0.77271 0.0
C768 C 0.82855 0.48286 0.80839 0.0
H769 H 0.82589 0.53508 0.77949 0.0
C770 C 0.87061 0.57567 0.79592 0.0
O771 O 0.93594 0.56205 0.76725 0.0
O772 O 0.90186 0.53654 0.75028 0.0
N773 N 0.86378 0.49383 0.83449 0.0
C774 C 0.88015 0.48854 0.85144 0.0
C775 C 0.87655 0.46384 0.85961 0.0
C776 C 0.85611 0.44492 0.8504 0.0
C777 C 0.83945 0.45086 0.83305 0.0
C778 C 0.84394 0.47582 0.82565 0.0
H779 H 0.89582 0.50303 0.85868 0.0
O780 O 0.91922 0.50948 0.78605 0.0
O781 O 0.88343 0.51835 0.79548 0.0
O782 O 0.92326 0.55525 0.82007 0.0
O783 O 0.89125 0.54434 0.84293 0.0
C784 C 0.81879 0.43286 0.82254 0.0
C785 C 0.80329 0.43993 0.80456 0.0
H786 H 0.77819 0.46028 0.76995 0.0
H787 H 0.78964 0.5051 0.75865 0.0
H788 H 0.88951 0.4594 0.87298 0.0
H789 H 0.85348 0.42585 0.85664 0.0
H790 H 0.81488 0.4134 0.82786 0.0
H791 H 0.78773 0.42578 0.79629 0.0
Mn792 Mn 0.7463 0.38782 0.49812 0.0
Mn793 Mn 0.76879 0.43758 0.46658 0.0
C794 C 0.78786 0.39852 0.49289 0.0
C795 C 0.73707 0.37141 0.53452 0.0
C796 C 0.74296 0.38496 0.443 0.0
O797 O 0.71838 0.40793 0.49799 0.0
O798 O 0.73568 0.44067 0.47725 0.0
C799 C 0.77431 0.47974 0.5065 0.0
N800 N 0.7844 0.46642 0.48873 0.0
C801 C 0.82431 0.4937 0.49812 0.0
C802 C 0.81429 0.50779 0.51643 0.0
C803 C 0.7892 0.50073 0.52067 0.0
C804 C 0.80857 0.47296 0.4846 0.0
H805 H 0.75505 0.47437 0.5099 0.0
C806 C 0.71813 0.42924 0.48897 0.0
O807 O 0.72699 0.3591 0.51417 0.0
O808 O 0.75087 0.39394 0.53366 0.0
N809 N 0.80111 0.43728 0.45566 0.0
C810 C 0.80815 0.42112 0.43796 0.0
C811 C 0.83278 0.42542 0.43164 0.0
C812 C 0.84988 0.44635 0.44347 0.0
C813 C 0.84218 0.46282 0.46152 0.0
C814 C 0.81736 0.45768 0.46692 0.0
H815 H 0.79514 0.40498 0.42882 0.0
O816 O 0.77827 0.37535 0.49757 0.0
O817 O 0.77285 0.41444 0.49112 0.0
O818 O 0.73832 0.37458 0.46249 0.0
O819 O 0.75387 0.40844 0.44252 0.0
C820 C 0.85825 0.4839 0.4746 0.0
C821 C 0.84935 0.49923 0.49298 0.0
H822 H 0.82572 0.52396 0.52743 0.0
H823 H 0.78136 0.51144 0.53483 0.0
H824 H 0.83859 0.41258 0.41773 0.0
H825 H 0.86891 0.44947 0.43871 0.0
H826 H 0.87757 0.48826 0.4709 0.0
H827 H 0.86197 0.51514 0.50315 0.0
Mn828 Mn 0.64018 0.51283 0.27913 0.0
Mn829 Mn 0.68648 0.52685 0.32258 0.0
C830 C 0.65761 0.55547 0.29275 0.0
C831 C 0.62613 0.50688 0.23819 0.0
C832 C 0.63283 0.5092 0.33335 0.0
O833 O 0.65311 0.47872 0.27819 0.0
O834 O 0.68374 0.4908 0.30743 0.0
C835 C 0.72811 0.52469 0.29123 0.0
N836 N 0.71675 0.53807 0.30792 0.0
C837 C 0.74879 0.57586 0.3085 0.0
C838 C 0.76089 0.56241 0.29145 0.0
C839 C 0.75048 0.53673 0.28276 0.0
C840 C 0.72658 0.56282 0.31635 0.0
H841 H 0.72016 0.505 0.28438 0.0
C842 C 0.67141 0.47423 0.29097 0.0
O843 O 0.61199 0.49828 0.25486 0.0
O844 O 0.64877 0.51716 0.24512 0.0
N845 N 0.69147 0.56144 0.33813 0.0
C846 C 0.677 0.57208 0.35378 0.0
C847 C 0.68464 0.59784 0.36385 0.0
C848 C 0.70708 0.61237 0.35778 0.0
C849 C 0.72174 0.60096 0.34176 0.0
C850 C 0.71329 0.57513 0.33247 0.0
H851 H 0.65968 0.56109 0.35842 0.0
O852 O 0.6354 0.54969 0.28276 0.0
O853 O 0.66861 0.53613 0.29482 0.0
O854 O 0.62406 0.50632 0.3114 0.0
O855 O 0.65587 0.51639 0.33932 0.0
C856 C 0.74425 0.6143 0.33443 0.0
C857 C 0.75772 0.60179 0.31774 0.0
H858 H 0.77809 0.57167 0.28478 0.0
H859 H 0.75965 0.52626 0.26951 0.0
H860 H 0.67319 0.60653 0.37616 0.0
H861 H 0.71279 0.63231 0.3654 0.0
H862 H 0.75129 0.63426 0.34135 0.0
H863 H 0.77485 0.61236 0.31201 0.0
Dy864 Dy 0.98128 0.01944 1.00105 0.0
C865 C 0.08558 0.03469 0.01603 0.0
C866 C 0.93381 0.02585 0.00374 0.0
Dy867 Dy 0.03681 0.03693 0.01592 0.0
O868 O 0.94157 0.01205 0.98608 0.0
O869 O 0.95172 0.03509 0.01974 0.0
O870 O 0.98993 0.99407 0.9687 0.0
O871 O 0.01456 0.02808 0.98213 0.0
C872 C 0.01183 0.00816 0.9673 0.0
C873 C 0.00655 0.04774 0.05003 0.0
O874 O 0.03219 0.07268 0.99898 0.0
O875 O 0.98959 0.06067 0.99204 0.0
O876 O 0.07306 0.03535 0.03521 0.0
O877 O 0.07169 0.03656 0.99715 0.0
O878 O 0.02826 0.06205 0.04827 0.0
O879 O 0.00361 0.02792 0.03494 0.0
O880 O 0.98592 0.9849 0.01931 0.0
O881 O 0.02874 0.99383 0.01945 0.0
C882 C 0.01059 0.07745 0.99128 0.0
C883 C 0.00763 0.97828 0.02308 0.0
Dy884 Dy 0.26874 0.7776 0.22858 0.0
C885 C 0.25072 0.77401 0.32968 0.0
C886 C 0.2704 0.78624 0.1811 0.0
Dy887 Dy 0.25541 0.78249 0.28245 0.0
O888 O 0.28702 0.79699 0.19802 0.0
O889 O 0.25357 0.76989 0.18999 0.0
O890 O 0.29524 0.75096 0.236 0.0
O891 O 0.28793 0.77781 0.26325 0.0
C892 C 0.29818 0.75872 0.25905 0.0
C893 C 0.2272 0.80265 0.25195 0.0
O894 O 0.28296 0.81885 0.28269 0.0
O895 O 0.28039 0.82001 0.24102 0.0
O896 O 0.27109 0.78373 0.32049 0.0
O897 O 0.2327 0.76964 0.31317 0.0
O898 O 0.23098 0.81094 0.27485 0.0
O899 O 0.23634 0.78273 0.24773 0.0
O900 O 0.24125 0.74124 0.22841 0.0
O901 O 0.24206 0.74034 0.27014 0.0
C902 C 0.28812 0.83083 0.26317 0.0
C903 C 0.23514 0.72955 0.24785 0.0
Dy904 Dy 0.54426 0.02006 0.51681 0.0
C905 C 0.44738 0.0469 0.51436 0.0
C906 C 0.58659 0.00102 0.52128 0.0
Dy907 Dy 0.48818 0.0255 0.52133 0.0
O908 O 0.56622 0.9923 0.53106 0.0
O909 O 0.58397 0.02043 0.50928 0.0
O910 O 0.54624 0.04333 0.4843 0.0
O911 O 0.51304 0.02113 0.49306 0.0
C912 C 0.52248 0.03738 0.47954 0.0
C913 C 0.50989 0.00756 0.55831 0.0
O914 O 0.48232 0.98706 0.49889 0.0
O915 O 0.52246 0.97981 0.5052 0.0
O916 O 0.45003 0.0315 0.53089 0.0
O917 O 0.46663 0.04998 0.50173 0.0
O918 O 0.48607 0.00181 0.55348 0.0
O919 O 0.51948 0.02422 0.54518 0.0
O920 O 0.54978 0.05788 0.53994 0.0
O921 O 0.51027 0.06586 0.53168 0.0
C922 C 0.49896 0.97185 0.49715 0.0
C923 C 0.53362 0.07356 0.54011 0.0
Dy924 Dy 0.23775 0.27078 0.76013 0.0
C925 C 0.34096 0.28002 0.74907 0.0
C926 C 0.1894 0.26533 0.77098 0.0
Dy927 Dy 0.29357 0.27009 0.76267 0.0
O928 O 0.19979 0.28016 0.75549 0.0
O929 O 0.20522 0.25288 0.77991 0.0
O930 O 0.24486 0.30556 0.73891 0.0
O931 O 0.27149 0.29975 0.76464 0.0
C932 C 0.26726 0.3134 0.74822 0.0
C933 C 0.26475 0.22725 0.77488 0.0
O934 O 0.29199 0.29167 0.79894 0.0
O935 O 0.24933 0.28076 0.80003 0.0
O936 O 0.33287 0.26341 0.76414 0.0
O937 O 0.32341 0.2914 0.74226 0.0
O938 O 0.28755 0.23509 0.78323 0.0
O939 O 0.25974 0.24074 0.75849 0.0
O940 O 0.23957 0.2493 0.72349 0.0
O941 O 0.28219 0.26085 0.72303 0.0
C942 C 0.27154 0.29036 0.81081 0.0
C943 C 0.26025 0.25141 0.71186 0.0
Dy944 Dy 0.01186 0.01506 0.48472 0.0
C945 C 0.0554 0.04825 0.58063 0.0
C946 C 0.98394 0.00464 0.44179 0.0
Dy947 Dy 0.02911 0.03888 0.53671 0.0
O948 O 0.00726 0.00383 0.44436 0.0
O949 O 0.97574 0.00984 0.46283 0.0
O950 O 0.05136 0.01468 0.47654 0.0
O951 O 0.04298 0.04359 0.5012 0.0
C952 C 0.0603 0.03458 0.49201 0.0
C953 C 0.9806 0.01916 0.52942 0.0
O954 O 0.02723 0.07597 0.52065 0.0
O955 O 0.00348 0.05549 0.48641 0.0
O956 O 0.03222 0.04925 0.57712 0.0
O957 O 0.06451 0.04365 0.55992 0.0
O958 O 0.9896 0.03893 0.54498 0.0
O959 O 0.99801 0.01031 0.5202 0.0
O960 O 0.01399 0.97813 0.50102 0.0
O961 O 0.03866 0.99908 0.53446 0.0
C962 C 0.01358 0.07686 0.50056 0.0
C963 C 0.02829 0.97756 0.52074 0.0
Dy964 Dy 0.2932 0.78883 0.76527 0.0
C965 C 0.19837 0.74651 0.71666 0.0
C966 C 0.33567 0.80135 0.79434 0.0
Dy967 Dy 0.23996 0.75928 0.74675 0.0
O968 O 0.33415 0.80333 0.77122 0.0
O969 O 0.31382 0.79358 0.8017 0.0
O970 O 0.30165 0.79705 0.72711 0.0
O971 O 0.27664 0.7639 0.73373 0.0
C972 C 0.28565 0.77697 0.71741 0.0
C973 C 0.24722 0.77172 0.79467 0.0
O974 O 0.25861 0.72501 0.74711 0.0
O975 O 0.2943 0.7468 0.76943 0.0
O976 O 0.20022 0.73982 0.73852 0.0
O977 O 0.21946 0.75926 0.7111 0.0
O978 O 0.23046 0.75223 0.78511 0.0
O979 O 0.25656 0.78396 0.77805 0.0
O980 O 0.27452 0.8232 0.76523 0.0
O981 O 0.23826 0.8015 0.74368 0.0
C982 C 0.28004 0.72509 0.75903 0.0
C983 C 0.25272 0.82319 0.75395 0.0
Dy984 Dy 0.51133 0.01964 0.04833 0.0
C985 C 0.52108 0.00454 0.94477 0.0
C986 C 0.50134 0.02649 0.0954 0.0
Dy987 Dy 0.50885 0.0185 0.98988 0.0
O988 O 0.51181 0.04478 0.08309 0.0
O989 O 0.49684 0.00438 0.08214 0.0
O990 O 0.54039 0.99475 0.04673 0.0
O991 O 0.51524 0.99327 0.01731 0.0
C992 C 0.53485 0.9865 0.02402 0.0
C993 C 0.49187 0.05872 0.01154 0.0
O994 O 0.47454 0.99041 0.99505 0.0
O995 O 0.47213 0.00178 0.03648 0.0
O996 O 0.50093 0.013 0.94946 0.0
O997 O 0.53406 0.00381 0.96458 0.0
O998 O 0.49314 0.05522 0.98814 0.0
O999 O 0.49955 0.04064 0.02051 0.0
O1000 O 0.54281 0.05119 0.04349 0.0
O1001 O 0.54584 0.04314 1.00169 0.0
C1002 C 0.46269 0.98932 0.0153 0.0
C1003 C 0.55414 0.05523 0.02331 0.0
Dy1004 Dy 0.26991 0.30976 0.26799 0.0
C1005 C 0.26603 0.20157 0.24751 0.0
C1006 C 0.26077 0.35824 0.26671 0.0
Dy1007 Dy 0.26058 0.25188 0.25169 0.0
O1008 O 0.27154 0.35042 0.28518 0.0
O1009 O 0.25606 0.33992 0.24914 0.0
O1010 O 0.29184 0.30461 0.30191 0.0
O1011 O 0.26332 0.275 0.28638 0.0
C1012 C 0.2806 0.28069 0.30267 0.0
C1013 C 0.24999 0.28134 0.21734 0.0
O1014 O 0.22418 0.25256 0.26776 0.0
O1015 O 0.22928 0.29734 0.27224 0.0
O1016 O 0.2728 0.21791 0.23198 0.0
O1017 O 0.25526 0.2125 0.26464 0.0
O1018 O 0.23816 0.25773 0.21839 0.0
O1019 O 0.2675 0.28655 0.23335 0.0
O1020 O 0.30527 0.30842 0.25098 0.0
O1021 O 0.30224 0.2645 0.25366 0.0
C1022 C 0.21569 0.27405 0.2734 0.0
C1023 C 0.31489 0.28727 0.2489 0.0
Dy1024 Dy 0.51019 0.5116 0.9782 0.0
C1025 C 0.5534 0.5374 0.07701 0.0
C1026 C 0.4793 0.49803 0.93763 0.0
Dy1027 Dy 0.53109 0.53217 0.03126 0.0
O1028 O 0.50185 0.49395 0.93953 0.0
O1029 O 0.47344 0.50805 0.95827 0.0
O1030 O 0.54174 0.53658 0.96276 0.0
O1031 O 0.5469 0.52372 0.99679 0.0
C1032 C 0.55653 0.53856 0.98184 0.0
C1033 C 0.48161 0.51836 0.02379 0.0
O1034 O 0.53205 0.56959 0.015 0.0
O1035 O 0.50123 0.55116 0.98558 0.0
O1036 O 0.53001 0.5304 0.07131 0.0
O1037 O 0.56491 0.54278 0.05763 0.0
O1038 O 0.49239 0.53741 0.03937 0.0
O1039 O 0.49777 0.50794 0.01409 0.0
O1040 O 0.51478 0.47368 0.99122 0.0
O1041 O 0.5356 0.49062 0.02842 0.0
C1042 C 0.51598 0.57173 0.99719 0.0
C1043 C 0.52621 0.47082 0.01211 0.0
Dy1044 Dy 0.79076 0.28424 0.26569 0.0
C1045 C 0.69726 0.24272 0.20975 0.0
C1046 C 0.83446 0.29468 0.29297 0.0
Dy1047 Dy 0.73599 0.25483 0.24322 0.0
O1048 O 0.8317 0.28679 0.27006 0.0
O1049 O 0.81338 0.29791 0.30091 0.0
O1050 O 0.79964 0.29504 0.22804 0.0
O1051 O 0.77373 0.26217 0.23288 0.0
C1052 C 0.7832 0.27591 0.2173 0.0
C1053 C 0.73762 0.26793 0.29129 0.0
O1054 O 0.75528 0.22098 0.24405 0.0
O1055 O 0.78895 0.24189 0.27033 0.0
O1056 O 0.69896 0.23139 0.22947 0.0
O1057 O 0.71722 0.25974 0.20795 0.0
O1058 O 0.71758 0.25559 0.27908 0.0
O1059 O 0.75453 0.27038 0.27695 0.0
O1060 O 0.77119 0.31768 0.26756 0.0
O1061 O 0.73605 0.29764 0.24292 0.0
C1062 C 0.77555 0.22075 0.25792 0.0
C1063 C 0.74977 0.31821 0.25588 0.0
Dy1064 Dy 0.00874 0.52541 0.5436 0.0
C1065 C 0.00726 0.51959 0.43729 0.0
C1066 C 0.00145 0.5297 0.59154 0.0
Dy1067 Dy 0.00296 0.52789 0.48554 0.0
O1068 O 0.01287 0.54826 0.58008 0.0
O1069 O 0.99466 0.50868 0.57693 0.0
O1070 O 0.03778 0.50048 0.53925 0.0
O1071 O 0.0124 0.50162 0.51079 0.0
C1072 C 0.03202 0.49416 0.51625 0.0
C1073 C 0.98381 0.5647 0.51097 0.0
O1074 O 0.96866 0.50022 0.49072 0.0
O1075 O 0.96933 0.5066 0.53311 0.0
O1076 O 0.0104 0.54219 0.44953 0.0
O1077 O 0.00153 0.50141 0.45139 0.0
O1078 O 0.98284 0.56192 0.48745 0.0
O1079 O 0.99438 0.54761 0.51818 0.0
O1080 O 0.03874 0.55813 0.53745 0.0
O1081 O 0.04242 0.54522 0.4967 0.0
C1082 C 0.95864 0.49633 0.51162 0.0
C1083 C 0.05089 0.55904 0.51748 0.0
Dy1084 Dy 0.73889 0.77376 0.26024 0.0
C1085 C 0.84172 0.76884 0.25917 0.0
C1086 C 0.69038 0.76878 0.2702 0.0
Dy1087 Dy 0.79321 0.76782 0.26741 0.0
O1088 O 0.70225 0.78663 0.25816 0.0
O1089 O 0.70477 0.75319 0.27586 0.0
O1090 O 0.7494 0.80617 0.23715 0.0
O1091 O 0.77435 0.80011 0.26479 0.0
C1092 C 0.7718 0.81272 0.24696 0.0
C1093 C 0.75945 0.72925 0.28029 0.0
O1094 O 0.79114 0.78841 0.30393 0.0
O1095 O 0.74884 0.7875 0.29969 0.0
O1096 O 0.82548 0.74819 0.26153 0.0
O1097 O 0.83165 0.7891 0.26235 0.0
O1098 O 0.78122 0.73642 0.2914 0.0
O1099 O 0.75781 0.74157 0.26216 0.0
O1100 O 0.74152 0.75265 0.22403 0.0
O1101 O 0.78441 0.75884 0.22718 0.0
C1102 C 0.77021 0.7927 0.31277 0.0
C1103 C 0.76292 0.75148 0.21451 0.0
Dy1104 Dy 0.76653 0.27708 0.72894 0.0
C1105 C 0.74921 0.27079 0.82985 0.0
C1106 C 0.7683 0.28603 0.68154 0.0
Dy1107 Dy 0.75361 0.2811 0.78302 0.0
O1108 O 0.75173 0.2692 0.6902 0.0
O1109 O 0.78451 0.29723 0.69865 0.0
O1110 O 0.79276 0.24987 0.73561 0.0
O1111 O 0.78575 0.2762 0.76335 0.0
C1112 C 0.79581 0.25707 0.75876 0.0
C1113 C 0.72571 0.30261 0.75339 0.0
O1114 O 0.78229 0.31666 0.78359 0.0
O1115 O 0.77892 0.31924 0.74213 0.0
O1116 O 0.76913 0.28251 0.82117 0.0
O1117 O 0.7314 0.26563 0.81312 0.0
O1118 O 0.72951 0.31016 0.77645 0.0
O1119 O 0.7345 0.28257 0.74859 0.0
O1120 O 0.73813 0.24136 0.7284 0.0
O1121 O 0.73999 0.2392 0.76994 0.0
C1122 C 0.78737 0.32918 0.76435 0.0
C1123 C 0.73233 0.22913 0.7476 0.0
Dy1124 Dy 0.77193 0.8061 0.76935 0.0
C1125 C 0.76398 0.6974 0.75312 0.0
C1126 C 0.76538 0.85558 0.76812 0.0
Dy1127 Dy 0.76033 0.74799 0.75397 0.0
O1128 O 0.77239 0.84613 0.78747 0.0
O1129 O 0.76311 0.83833 0.74971 0.0
O1130 O 0.79471 0.79991 0.80226 0.0
O1131 O 0.76413 0.77187 0.78829 0.0
C1132 C 0.78212 0.77668 0.80379 0.0
C1133 C 0.75014 0.77725 0.71953 0.0
O1134 O 0.72426 0.75039 0.76969 0.0
O1135 O 0.73107 0.79529 0.77372 0.0
O1136 O 0.7661 0.71061 0.73453 0.0
O1137 O 0.75892 0.71163 0.77172 0.0
O1138 O 0.73749 0.75407 0.72113 0.0
O1139 O 0.76811 0.78213 0.73508 0.0
O1140 O 0.80775 0.80376 0.75378 0.0
O1141 O 0.8019 0.75896 0.75238 0.0
C1142 C 0.71672 0.77243 0.7752 0.0
C1143 C 0.8159 0.78185 0.74989 0.0
Dy1144 Dy 0.48502 0.5234 0.50039 0.0
C1145 C 0.588 0.53156 0.52481 0.0
C1146 C 0.4381 0.53198 0.50096 0.0
Dy1147 Dy 0.53988 0.53605 0.51813 0.0
O1148 O 0.44597 0.5175 0.48392 0.0
O1149 O 0.45557 0.54075 0.51753 0.0
O1150 O 0.49272 0.49974 0.4666 0.0
O1151 O 0.51963 0.53047 0.48308 0.0
C1152 C 0.51567 0.51166 0.46682 0.0
C1153 C 0.50844 0.54709 0.55128 0.0
O1154 O 0.53909 0.57248 0.50093 0.0
O1155 O 0.49634 0.5657 0.4953 0.0
O1156 O 0.57081 0.5242 0.53916 0.0
O1157 O 0.57908 0.54254 0.50748 0.0
O1158 O 0.53083 0.56028 0.55098 0.0
O1159 O 0.50529 0.52809 0.53532 0.0
O1160 O 0.48723 0.48722 0.51737 0.0
O1161 O 0.52953 0.49256 0.51462 0.0
C1162 C 0.51852 0.58034 0.49471 0.0
C1163 C 0.50809 0.47837 0.51913 0.0
Dy1164 Dy 0.04511 0.5233 0.01613 0.0
C1165 C 0.9453 0.54481 0.01499 0.0
C1166 C 0.08793 0.50518 0.02092 0.0
Dy1167 Dy 0.98841 0.52676 0.02021 0.0
O1168 O 0.08545 0.52546 0.01012 0.0
O1169 O 0.06719 0.49518 0.02936 0.0
O1170 O 0.0471 0.54727 0.98406 0.0
O1171 O 0.01406 0.52436 0.99225 0.0
C1172 C 0.02337 0.54107 0.9791 0.0
C1173 C 0.01024 0.50778 0.05639 0.0
O1174 O 0.98341 0.4878 0.99894 0.0
O1175 O 0.02457 0.48291 0.00334 0.0
O1176 O 0.9571 0.54398 0.03556 0.0
O1177 O 0.95654 0.53485 0.99762 0.0
O1178 O 0.98654 0.50115 0.05091 0.0
O1179 O 0.0196 0.52547 0.0442 0.0
O1180 O 0.04835 0.56013 0.04018 0.0
O1181 O 0.01006 0.56779 0.02704 0.0
C1182 C 0.00097 0.47385 0.99623 0.0
C1183 C 0.0323 0.57571 0.03824 0.0
H1184 H 0.03068 0.22486 0.93036 0.0
H1185 H 0.97197 0.08565 0.96295 0.0
H1186 H 0.97657 0.17187 0.88282 0.0
H1187 H 0.04697 0.12044 0.98777 0.0
H1188 H 0.97115 0.12021 0.93731 0.0
H1189 H 0.0355 0.18943 0.95449 0.0
C1190 C 0.02 0.20568 0.92486 0.0
C1191 C 0.00311 0.20124 0.90463 0.0
C1192 C 0.98779 0.1203 0.94835 0.0
C1193 C 0.00819 0.16096 0.9324 0.0
C1194 C 0.98826 0.1007 0.96328 0.0
C1195 C 0.00962 0.10009 0.9777 0.0
C1196 C 0.00864 0.13984 0.94802 0.0
C1197 C 0.03011 0.12015 0.97702 0.0
C1198 C 0.02281 0.18554 0.93862 0.0
C1199 C 0.98982 0.17608 0.89825 0.0
N1200 N 0.02908 0.13937 0.96249 0.0
N1201 N 0.99237 0.15693 0.91232 0.0
H1202 H 0.09178 0.83857 0.19872 0.0
H1203 H 0.21523 0.78414 0.20488 0.0
H1204 H 0.11854 0.79862 0.13737 0.0
H1205 H 0.1971 0.8377 0.26117 0.0
H1206 H 0.18208 0.79284 0.17854 0.0
H1207 H 0.13195 0.84267 0.22036 0.0
C1208 C 0.10627 0.83114 0.1896 0.0
C1209 C 0.1017 0.81794 0.16631 0.0
C1210 C 0.18551 0.80304 0.19651 0.0
C1211 C 0.1476 0.82213 0.19116 0.0
C1212 C 0.20454 0.7981 0.21154 0.0
C1213 C 0.20891 0.81016 0.23524 0.0
C1214 C 0.17033 0.81982 0.20537 0.0
C1215 C 0.19425 0.82789 0.24304 0.0
C1216 C 0.12921 0.83344 0.202 0.0
C1217 C 0.1212 0.80881 0.15535 0.0
N1218 N 0.17536 0.83191 0.22825 0.0
N1219 N 0.14315 0.81067 0.16803 0.0
H1220 H 0.5077 0.82301 0.4254 0.0
H1221 H 0.46505 0.95758 0.45851 0.0
H1222 H 0.47082 0.86007 0.37267 0.0
H1223 H 0.52008 0.92976 0.50061 0.0
H1224 H 0.46128 0.91903 0.42932 0.0
H1225 H 0.50749 0.85957 0.45512 0.0
C1226 C 0.49958 0.83889 0.42 0.0
C1227 C 0.48925 0.8384 0.39641 0.0
C1228 C 0.47397 0.9213 0.4451 0.0
C1229 C 0.48878 0.88048 0.43071 0.0
C1230 C 0.47589 0.94308 0.46191 0.0
C1231 C 0.49288 0.9468 0.48202 0.0
C1232 C 0.48892 0.90307 0.44867 0.0
C1233 C 0.50679 0.92766 0.48533 0.0
C1234 C 0.49947 0.8598 0.43706 0.0
C1235 C 0.47909 0.85967 0.39058 0.0
N1236 N 0.50454 0.90669 0.46883 0.0
N1237 N 0.479 0.87984 0.40768 0.0
H1238 H 0.43547 0.27937 0.63302 0.0
H1239 H 0.38078 0.25757 0.75963 0.0
H1240 H 0.48423 0.27365 0.69415 0.0
H1241 H 0.35408 0.30656 0.71093 0.0
H1242 H 0.41696 0.25722 0.73531 0.0
H1243 H 0.40245 0.28212 0.66031 0.0
C1244 C 0.43918 0.27853 0.65218 0.0
C1245 C 0.46263 0.27635 0.66136 0.0
C1246 C 0.40324 0.26825 0.73024 0.0
C1247 C 0.42487 0.27929 0.6926 0.0
C1248 C 0.38271 0.26849 0.74407 0.0
C1249 C 0.36446 0.28206 0.73721 0.0
C1250 C 0.40502 0.28113 0.70922 0.0
C1251 C 0.3677 0.29581 0.71684 0.0
C1252 C 0.42039 0.28028 0.66773 0.0
C1253 C 0.46643 0.27549 0.68639 0.0
N1254 N 0.38738 0.29469 0.70338 0.0
N1255 N 0.44764 0.27675 0.70119 0.0
H1256 H 0.04249 0.87687 0.62977 0.0
H1257 H 0.99869 0.92946 0.50852 0.0
H1258 H 0.99477 0.82718 0.57413 0.0
H1259 H 0.06001 0.96933 0.55676 0.0
H1260 H 0.99633 0.8916 0.53144 0.0
H1261 H 0.04757 0.91135 0.60324 0.0
C1262 C 0.03298 0.87318 0.612 0.0
C1263 C 0.01813 0.84898 0.60427 0.0
C1264 C 0.0105 0.90855 0.53674 0.0
C1265 C 0.02397 0.88867 0.57357 0.0
C1266 C 0.01199 0.93009 0.52355 0.0
C1267 C 0.02948 0.95273 0.53078 0.0
C1268 C 0.02648 0.90978 0.55737 0.0
C1269 C 0.04605 0.95246 0.55059 0.0
C1270 C 0.03603 0.89289 0.59675 0.0
C1271 C 0.00642 0.84548 0.5809 0.0
N1272 N 0.04395 0.93153 0.56329 0.0
N1273 N 0.00948 0.86513 0.56643 0.0
H1274 H 0.45396 0.80687 0.90448 0.0
H1275 H 0.37773 0.78958 0.7773 0.0
H1276 H 0.47059 0.76054 0.84191 0.0
H1277 H 0.3452 0.81012 0.84348 0.0
H1278 H 0.41348 0.78206 0.80086 0.0
H1279 H 0.41512 0.81104 0.88312 0.0
C1280 C 0.44929 0.79746 0.88632 0.0
C1281 C 0.46578 0.78424 0.87446 0.0
C1282 C 0.39881 0.78875 0.81028 0.0
C1283 C 0.42171 0.78867 0.85016 0.0
C1284 C 0.37846 0.7932 0.79682 0.0
C1285 C 0.35868 0.80077 0.8085 0.0
C1286 C 0.39989 0.79284 0.83563 0.0
C1287 C 0.36026 0.80451 0.83385 0.0
C1288 C 0.42722 0.79982 0.87416 0.0
C1289 C 0.45874 0.77178 0.85124 0.0
N1290 N 0.38067 0.80078 0.84663 0.0
N1291 N 0.43742 0.77461 0.8397 0.0
H1292 H 0.46022 0.17582 0.12017 0.0
H1293 H 0.4887 0.10445 0.99451 0.0
H1294 H 0.49776 0.21436 0.06359 0.0
H1295 H 0.48062 0.06492 0.05885 0.0
H1296 H 0.48242 0.14395 0.01773 0.0
H1297 H 0.45947 0.13381 0.09639 0.0
C1298 C 0.468 0.17537 0.10266 0.0
C1299 C 0.47826 0.19841 0.0933 0.0
C1300 C 0.48198 0.12662 0.02679 0.0
C1301 C 0.4777 0.15111 0.06643 0.0
C1302 C 0.48547 0.10409 0.01354 0.0
C1303 C 0.48576 0.08169 0.02501 0.0
C1304 C 0.47859 0.12666 0.05165 0.0
C1305 C 0.48123 0.08211 0.04962 0.0
C1306 C 0.46759 0.15156 0.08917 0.0
C1307 C 0.48879 0.19701 0.07094 0.0
N1308 N 0.47794 0.10436 0.06225 0.0
N1309 N 0.48807 0.1738 0.05818 0.0
H1310 H 0.09975 0.32721 0.34763 0.0
H1311 H 0.18958 0.23497 0.29708 0.0
H1312 H 0.09148 0.24818 0.36436 0.0
H1313 H 0.18821 0.31157 0.27694 0.0
H1314 H 0.15452 0.23821 0.32224 0.0
H1315 H 0.13444 0.32151 0.32394 0.0
C1316 C 0.10552 0.30867 0.34657 0.0
C1317 C 0.09267 0.28813 0.35796 0.0
C1318 C 0.16181 0.25415 0.3121 0.0
C1319 C 0.13236 0.28115 0.33016 0.0
C1320 C 0.18162 0.25221 0.29753 0.0
C1321 C 0.1919 0.27306 0.28489 0.0
C1322 C 0.15236 0.27711 0.314 0.0
C1323 C 0.18107 0.29506 0.28643 0.0
C1324 C 0.12527 0.30534 0.33284 0.0
C1325 C 0.10104 0.26457 0.35601 0.0
N1326 N 0.1621 0.29652 0.30078 0.0
N1327 N 0.12028 0.26161 0.34213 0.0
H1328 H 0.89204 0.02184 0.1515 0.0
H1329 H 0.01421 0.08437 0.08949 0.0
H1330 H 0.95437 0.07025 0.19266 0.0
H1331 H 0.96422 0.01507 0.05908 0.0
H1332 H 0.98951 0.08528 0.12516 0.0
H1333 H 0.91502 0.02548 0.11501 0.0
C1334 C 0.91045 0.03351 0.15284 0.0
C1335 C 0.92129 0.04568 0.17526 0.0
C1336 C 0.98388 0.07004 0.11054 0.0
C1337 C 0.94778 0.04992 0.13339 0.0
C1338 C 0.99791 0.06954 0.09016 0.0
C1339 C 0.99116 0.04976 0.07112 0.0
C1340 C 0.96278 0.05079 0.11175 0.0
C1341 C 0.96995 0.03093 0.07309 0.0
C1342 C 0.92362 0.03545 0.132 0.0
C1343 C 0.94529 0.06046 0.1758 0.0
N1344 N 0.95652 0.03197 0.09292 0.0
N1345 N 0.95773 0.06216 0.15521 0.0
H1346 H 0.2293 0.65367 0.4211 0.0
H1347 H 0.28654 0.78222 0.36626 0.0
H1348 H 0.28338 0.71301 0.46261 0.0
H1349 H 0.21316 0.73961 0.34505 0.0
H1350 H 0.28781 0.75654 0.40063 0.0
H1351 H 0.22597 0.68346 0.39078 0.0
C1352 C 0.24059 0.6729 0.42381 0.0
C1353 C 0.2566 0.68087 0.4445 0.0
C1354 C 0.27129 0.75317 0.38867 0.0
C1355 C 0.2528 0.71502 0.40981 0.0
C1356 C 0.27051 0.76784 0.36919 0.0
C1357 C 0.24973 0.7629 0.35289 0.0
C1358 C 0.25135 0.73316 0.39144 0.0
C1359 C 0.2295 0.744 0.35728 0.0
C1360 C 0.23849 0.68996 0.40658 0.0
C1361 C 0.27074 0.70608 0.44698 0.0
N1362 N 0.23096 0.72948 0.37596 0.0
N1363 N 0.26862 0.72225 0.42974 0.0
H1364 H 0.55605 0.9659 0.6957 0.0
H1365 H 0.55884 0.02154 0.56951 0.0
H1366 H 0.62278 0.99793 0.663 0.0
H1367 H 0.49319 0.97395 0.59175 0.0
H1368 H 0.58271 0.00892 0.6022 0.0
H1369 H 0.5331 0.9634 0.65669 0.0
C1370 C 0.566 0.97177 0.68018 0.0
C1371 C 0.59129 0.98267 0.68269 0.0
C1372 C 0.56316 0.00085 0.59989 0.0
C1373 C 0.5651 0.9802 0.63824 0.0
C1374 C 0.54946 0.00806 0.58112 0.0
C1375 C 0.52401 0.99861 0.57779 0.0
C1376 C 0.55128 0.98462 0.61609 0.0
C1377 C 0.51281 0.98164 0.59375 0.0
C1378 C 0.55285 0.97042 0.65794 0.0
C1379 C 0.60324 0.98981 0.66199 0.0
N1380 N 0.5265 0.97542 0.6125 0.0
N1381 N 0.58997 0.98886 0.64075 0.0
H1382 H 0.29644 0.4041 0.93349 0.0
H1383 H 0.2382 0.27993 0.84537 0.0
H1384 H 0.25408 0.33745 0.96179 0.0
H1385 H 0.30797 0.32808 0.83398 0.0
H1386 H 0.23956 0.3023 0.88626 0.0
H1387 H 0.29629 0.37855 0.89489 0.0
C1388 C 0.28706 0.38407 0.93169 0.0
C1389 C 0.27538 0.37294 0.95119 0.0
C1390 C 0.25464 0.30774 0.87484 0.0
C1391 C 0.27488 0.34357 0.90644 0.0
C1392 C 0.25387 0.29508 0.85151 0.0
C1393 C 0.27302 0.30216 0.83621 0.0
C1394 C 0.27437 0.32805 0.88269 0.0
C1395 C 0.29287 0.32188 0.84515 0.0
C1396 C 0.2871 0.36947 0.90955 0.0
C1397 C 0.26343 0.34684 0.94738 0.0
N1398 N 0.29287 0.33435 0.86764 0.0
N1399 N 0.26329 0.33308 0.92536 0.0
H1400 H 0.8737 0.02449 0.33392 0.0
H1401 H 0.00108 0.0037 0.39626 0.0
H1402 H 0.93999 0.02639 0.29546 0.0
H1403 H 0.93566 0.00813 0.43449 0.0
H1404 H 0.97901 0.01034 0.3588 0.0
H1405 H 0.89633 0.01815 0.37066 0.0
C1406 C 0.89311 0.02385 0.3332 0.0
C1407 C 0.90489 0.02602 0.31141 0.0
C1408 C 0.96945 0.00971 0.37536 0.0
C1409 C 0.93101 0.01831 0.35374 0.0
C1410 C 0.98197 0.00571 0.39669 0.0
C1411 C 0.97014 0.00526 0.41849 0.0
C1412 C 0.9449 0.01327 0.37583 0.0
C1413 C 0.94547 0.00825 0.41808 0.0
C1414 C 0.90603 0.0201 0.35426 0.0
C1415 C 0.93013 0.02499 0.3118 0.0
N1416 N 0.93372 0.01217 0.39715 0.0
N1417 N 0.94229 0.02105 0.33256 0.0
H1418 H 0.27373 0.66003 0.59877 0.0
H1419 H 0.31344 0.79515 0.68046 0.0
H1420 H 0.30685 0.72955 0.56836 0.0
H1421 H 0.25849 0.7312 0.69784 0.0
H1422 H 0.31656 0.77111 0.64099 0.0
H1423 H 0.27535 0.685 0.63801 0.0
C1424 C 0.28174 0.68048 0.60042 0.0
C1425 C 0.28992 0.69277 0.58021 0.0
C1426 C 0.30378 0.76252 0.65349 0.0
C1427 C 0.29147 0.72159 0.62505 0.0
C1428 C 0.30187 0.77625 0.67587 0.0
C1429 C 0.28576 0.76508 0.69242 0.0
C1430 C 0.28969 0.73745 0.64799 0.0
C1431 C 0.27125 0.74051 0.68569 0.0
C1432 C 0.28245 0.69478 0.62279 0.0
C1433 C 0.30021 0.71934 0.58348 0.0
N1434 N 0.27372 0.72747 0.66413 0.0
N1435 N 0.30052 0.73298 0.60549 0.0
H1436 H 0.6313 0.0191 0.84539 0.0
H1437 H 0.50258 0.0154 0.90109 0.0
H1438 H 0.56543 0.01295 0.79888 0.0
H1439 H 0.5616 0.98519 0.93446 0.0
H1440 H 0.52433 0.01655 0.86347 0.0
H1441 H 0.60569 0.01029 0.87929 0.0
C1442 C 0.61144 0.016 0.84235 0.0
C1443 C 0.60044 0.0168 0.81936 0.0
C1444 C 0.5322 0.00925 0.87896 0.0
C1445 C 0.57106 0.00668 0.858 0.0
C1446 C 0.51981 0.00852 0.9003 0.0
C1447 C 0.53059 0.00058 0.92085 0.0
C1448 C 0.5555 0.00232 0.87857 0.0
C1449 C 0.55289 0.99184 0.91906 0.0
C1450 C 0.59683 0.01073 0.86163 0.0
C1451 C 0.57459 0.01242 0.81637 0.0
N1452 N 0.56482 0.99333 0.89839 0.0
N1453 N 0.5607 0.00776 0.83559 0.0
H1454 H 0.23482 0.3234 0.07082 0.0
H1455 H 0.27872 0.32753 0.20988 0.0
H1456 H 0.27671 0.39166 0.11233 0.0
H1457 H 0.21995 0.26826 0.17549 0.0
H1458 H 0.27905 0.35048 0.17379 0.0
H1459 H 0.22984 0.30204 0.10813 0.0
C1460 C 0.24281 0.33398 0.08778 0.0
C1461 C 0.25624 0.3594 0.08838 0.0
C1462 C 0.26588 0.33259 0.17415 0.0
C1463 C 0.25088 0.3349 0.13114 0.0
C1464 C 0.2656 0.31949 0.19486 0.0
C1465 C 0.24907 0.29604 0.19588 0.0
C1466 C 0.24983 0.32201 0.15397 0.0
C1467 C 0.23291 0.28634 0.17555 0.0
C1468 C 0.23994 0.32177 0.10908 0.0
C1469 C 0.26619 0.3721 0.11093 0.0
N1470 N 0.23382 0.29924 0.15537 0.0
N1471 N 0.2635 0.35967 0.13129 0.0
H1472 H 0.18509 0.9289 0.02603 0.0
H1473 H 0.11453 0.03473 0.97797 0.0
H1474 H 0.203 0.96688 0.96192 0.0
H1475 H 0.10764 0.01044 0.04963 0.0
H1476 H 0.14676 0.00946 0.97162 0.0
H1477 H 0.15484 0.95664 0.03416 0.0
C1478 C 0.1824 0.94278 0.0135 0.0
C1479 C 0.19657 0.94559 0.99327 0.0
C1480 C 0.13849 0.00992 0.98889 0.0
C1481 C 0.16244 0.97754 0.00264 0.0
C1482 C 0.12025 0.02453 0.99257 0.0
C1483 C 0.10855 0.02469 0.01436 0.0
C1484 C 0.1448 0.99507 0.00701 0.0
C1485 C 0.11641 0.01094 0.03263 0.0
C1486 C 0.16539 0.9588 0.0183 0.0
C1487 C 0.19257 0.96411 0.97779 0.0
N1488 N 0.13387 0.99636 0.02843 0.0
N1489 N 0.17591 0.97935 0.9828 0.0
H1490 H 0.71176 0.60329 0.01067 0.0
H1491 H 0.57319 0.57799 0.95549 0.0
H1492 H 0.68326 0.65733 0.96928 0.0
H1493 H 0.59526 0.53839 0.01465 0.0
H1494 H 0.61408 0.60556 0.9585 0.0
H1495 H 0.66998 0.57765 0.01079 0.0
C1496 C 0.69662 0.60959 1.00145 0.0
C1497 C 0.70087 0.63187 0.98924 0.0
C1498 C 0.60998 0.59098 0.97095 0.0
C1499 C 0.65314 0.60307 0.98967 0.0
C1500 C 0.58669 0.57515 0.96919 0.0
C1501 C 0.58095 0.55582 0.98479 0.0
C1502 C 0.62783 0.58731 0.98829 0.0
C1503 C 0.59901 0.55309 0.0023 0.0
C1504 C 0.67281 0.59513 1.00172 0.0
C1505 C 0.68068 0.63987 0.97837 0.0
N1506 N 0.62179 0.56855 0.00345 0.0
N1507 N 0.65767 0.62525 0.97852 0.0
H1508 H 0.65619 0.43447 0.25413 0.0
H1509 H 0.76641 0.36162 0.28751 0.0
H1510 H 0.70869 0.45809 0.31553 0.0
H1511 H 0.70867 0.32938 0.23243 0.0
H1512 H 0.74655 0.39867 0.29578 0.0
H1513 H 0.67543 0.39675 0.24439 0.0
C1514 C 0.67153 0.43167 0.2657 0.0
C1515 C 0.68074 0.44967 0.2857 0.0
C1516 C 0.73825 0.38358 0.28178 0.0
C1517 C 0.70311 0.40675 0.2744 0.0
C1518 C 0.74974 0.36243 0.27689 0.0
C1519 C 0.73933 0.34224 0.25917 0.0
C1520 C 0.71612 0.38477 0.26885 0.0
C1521 C 0.71745 0.34443 0.24626 0.0
C1522 C 0.68259 0.41019 0.26005 0.0
C1523 C 0.70084 0.44496 0.29989 0.0
N1524 N 0.70658 0.36524 0.25136 0.0
N1525 N 0.71132 0.42418 0.2939 0.0
H1526 H 0.82638 0.38161 0.47161 0.0
H1527 H 0.92582 0.49304 0.54693 0.0
H1528 H 0.80851 0.43654 0.52683 0.0
H1529 H 0.93668 0.46009 0.4752 0.0
H1530 H 0.88553 0.4644 0.54537 0.0
H1531 H 0.87029 0.40205 0.47889 0.0
C1532 C 0.83185 0.39777 0.4854 0.0
C1533 C 0.81416 0.40825 0.49805 0.0
C1534 C 0.89687 0.46336 0.53008 0.0
C1535 C 0.86352 0.4309 0.50688 0.0
C1536 C 0.91978 0.4797 0.53091 0.0
C1537 C 0.93442 0.47913 0.51104 0.0
C1538 C 0.88873 0.44616 0.50937 0.0
C1539 C 0.92577 0.46141 0.49077 0.0
C1540 C 0.8567 0.40935 0.48956 0.0
C1541 C 0.8218 0.42863 0.51621 0.0
N1542 N 0.90339 0.44559 0.49042 0.0
N1543 N 0.84598 0.43952 0.51996 0.0
H1544 H 0.37816 0.11003 0.25955 0.0
H1545 H 0.25653 0.16795 0.28136 0.0
H1546 H 0.33471 0.09973 0.32176 0.0
H1547 H 0.30209 0.18528 0.2218 0.0
H1548 H 0.28317 0.1391 0.29385 0.0
H1549 H 0.35035 0.13674 0.24439 0.0
C1550 C 0.36314 0.11386 0.27028 0.0
C1551 C 0.35866 0.10255 0.29189 0.0
C1552 C 0.28722 0.14893 0.27786 0.0
C1553 C 0.3265 0.1323 0.27435 0.0
C1554 C 0.27181 0.16511 0.27055 0.0
C1555 C 0.27728 0.17904 0.25065 0.0
C1556 C 0.3083 0.14683 0.26523 0.0
C1557 C 0.29731 0.17482 0.23729 0.0
C1558 C 0.34708 0.12878 0.26145 0.0
C1559 C 0.33875 0.10789 0.30492 0.0
N1560 N 0.31237 0.1593 0.24502 0.0
N1561 N 0.32332 0.1222 0.29584 0.0
H1562 H 0.33675 0.12041 0.45202 0.0
H1563 H 0.41151 0.05451 0.54552 0.0
H1564 H 0.3294 0.13283 0.52874 0.0
H1565 H 0.4368 0.07101 0.47543 0.0
H1566 H 0.379 0.07983 0.53941 0.0
H1567 H 0.37195 0.09984 0.45988 0.0
C1568 C 0.3429 0.11924 0.47056 0.0
C1569 C 0.33033 0.12854 0.48977 0.0
C1570 C 0.39174 0.07791 0.52544 0.0
C1571 C 0.37008 0.10416 0.49891 0.0
C1572 C 0.41008 0.06329 0.52882 0.0
C1573 C 0.42673 0.0606 0.5109 0.0
C1574 C 0.38987 0.08946 0.50383 0.0
C1575 C 0.4243 0.07257 0.48969 0.0
C1576 C 0.36291 0.10739 0.47505 0.0
C1577 C 0.33886 0.12625 0.51346 0.0
N1578 N 0.40615 0.0863 0.48668 0.0
N1579 N 0.358 0.11392 0.51738 0.0
H1580 H 0.69805 0.57024 0.26855 0.0
H1581 H 0.75218 0.70664 0.32234 0.0
H1582 H 0.64857 0.60054 0.31613 0.0
H1583 H 0.7273 0.69796 0.24696 0.0
H1584 H 0.72476 0.66511 0.32725 0.0
H1585 H 0.72111 0.61438 0.26682 0.0
C1586 C 0.69227 0.58622 0.27885 0.0
C1587 C 0.67179 0.58192 0.2929 0.0
C1588 C 0.7253 0.67258 0.30978 0.0
C1589 C 0.69791 0.63196 0.29096 0.0
C1590 C 0.74087 0.69606 0.30693 0.0
C1591 C 0.74197 0.70555 0.28421 0.0
C1592 C 0.71154 0.65836 0.28959 0.0
C1593 C 0.72694 0.69127 0.26478 0.0
C1594 C 0.70529 0.61124 0.27773 0.0
C1595 C 0.66454 0.60324 0.3054 0.0
N1596 N 0.7127 0.66805 0.26778 0.0
N1597 N 0.67786 0.62753 0.30444 0.0
H1598 H 0.90662 0.45787 0.81236 0.0
H1599 H 0.7942 0.36615 0.73293 0.0
H1600 H 0.86138 0.48361 0.75818 0.0
H1601 H 0.82084 0.3483 0.80227 0.0
H1602 H 0.82485 0.40626 0.73734 0.0
H1603 H 0.88177 0.41374 0.80365 0.0
C1604 C 0.89171 0.45404 0.79844 0.0
C1605 C 0.88538 0.47415 0.78638 0.0
C1606 C 0.82401 0.39352 0.75156 0.0
C1607 C 0.85759 0.42453 0.77613 0.0
C1608 C 0.80646 0.37072 0.7491 0.0
C1609 C 0.80479 0.3541 0.7674 0.0
C1610 C 0.8402 0.39956 0.7723 0.0
C1611 C 0.82127 0.36084 0.78791 0.0
C1612 C 0.87758 0.42907 0.79352 0.0
C1613 C 0.86631 0.46852 0.76822 0.0
N1614 N 0.83837 0.38309 0.78981 0.0
N1615 N 0.85293 0.44425 0.76376 0.0
H1616 H 0.97271 0.8319 0.0837 0.0
H1617 H 0.04828 0.9629 0.04249 0.0
H1618 H 0.04708 0.86532 0.11134 0.0
H1619 H 0.96929 0.9392 0.03036 0.0
H1620 H 0.04901 0.92551 0.06503 0.0
H1621 H 0.97169 0.86992 0.06229 0.0
C1622 C 0.98877 0.84737 0.08547 0.0
C1623 C 0.01003 0.84539 0.09935 0.0
C1624 C 0.03154 0.92848 0.05739 0.0
C1625 C 0.0091 0.88888 0.07447 0.0
C1626 C 0.0311 0.94971 0.04431 0.0
C1627 C 0.00866 0.95424 0.03446 0.0
C1628 C 0.00942 0.9115 0.06049 0.0
C1629 C 0.98701 0.93653 0.03761 0.0
C1630 C 0.98817 0.86907 0.07319 0.0
C1631 C 0.03025 0.86609 0.10099 0.0
N1632 N 0.98794 0.91595 0.05033 0.0
N1633 N 0.02937 0.88688 0.08849 0.0
H1634 H 0.90721 0.27192 0.87435 0.0
H1635 H 0.8261 0.22178 0.75031 0.0
H1636 H 0.93134 0.22533 0.81604 0.0
H1637 H 0.81009 0.27899 0.80441 0.0
H1638 H 0.86062 0.2156 0.77712 0.0
H1639 H 0.86677 0.26642 0.85253 0.0
C1640 C 0.90382 0.26034 0.85702 0.0
C1641 C 0.92276 0.25008 0.84633 0.0
C1642 C 0.84918 0.22912 0.78327 0.0
C1643 C 0.87671 0.2433 0.82146 0.0
C1644 C 0.82953 0.23265 0.76798 0.0
C1645 C 0.81507 0.25079 0.77524 0.0
C1646 C 0.85427 0.24378 0.80595 0.0
C1647 C 0.82042 0.26449 0.79824 0.0
C1648 C 0.8808 0.25717 0.84456 0.0
C1649 C 0.91737 0.23447 0.82428 0.0
N1650 N 0.8396 0.26082 0.81267 0.0
N1651 N 0.89492 0.23186 0.81234 0.0
H1652 H 0.55402 0.23746 0.58194 0.0
H1653 H 0.54988 0.08689 0.58718 0.0
H1654 H 0.52565 0.19899 0.64263 0.0
H1655 H 0.5312 0.11885 0.52194 0.0
H1656 H 0.55389 0.13004 0.60965 0.0
H1657 H 0.5589 0.19575 0.56172 0.0
C1658 C 0.54868 0.22012 0.5909 0.0
C1659 C 0.53823 0.22125 0.61334 0.0
C1660 C 0.54937 0.12758 0.59034 0.0
C1661 C 0.5449 0.17397 0.59099 0.0
C1662 C 0.54732 0.10319 0.57755 0.0
C1663 C 0.5404 0.09964 0.55277 0.0
C1664 C 0.54508 0.14844 0.57801 0.0
C1665 C 0.53672 0.12102 0.54104 0.0
C1666 C 0.5517 0.19648 0.5795 0.0
C1667 C 0.53301 0.19861 0.62494 0.0
N1668 N 0.53925 0.14461 0.55376 0.0
N1669 N 0.53614 0.17569 0.61348 0.0
H1670 H 0.55179 0.8081 0.31068 0.0
H1671 H 0.66656 0.73621 0.30055 0.0
H1672 H 0.56389 0.74917 0.35609 0.0
H1673 H 0.65912 0.80208 0.26258 0.0
H1674 H 0.62815 0.73935 0.31984 0.0
H1675 H 0.59066 0.80567 0.29252 0.0
C1676 C 0.56273 0.7948 0.31704 0.0
C1677 C 0.55444 0.77878 0.33498 0.0
C1678 C 0.63485 0.75307 0.30723 0.0
C1679 C 0.59904 0.77565 0.31386 0.0
C1680 C 0.65668 0.75117 0.29608 0.0
C1681 C 0.66595 0.76887 0.27988 0.0
C1682 C 0.62216 0.77278 0.3021 0.0
C1683 C 0.65254 0.78798 0.27488 0.0
C1684 C 0.58494 0.79338 0.30657 0.0
C1685 C 0.56954 0.76199 0.34244 0.0
N1686 N 0.63133 0.78944 0.28596 0.0
N1687 N 0.591 0.76072 0.33171 0.0
H1688 H 0.05013 0.23476 0.46273 0.0
H1689 H 0.98579 0.08577 0.46148 0.0
H1690 H 0.00366 0.19132 0.40287 0.0
H1691 H 0.04045 0.12527 0.51687 0.0
H1692 H 0.98942 0.12546 0.44181 0.0
H1693 H 0.04497 0.19592 0.48411 0.0
C1694 C 0.03894 0.21701 0.45399 0.0
C1695 C 0.02735 0.21632 0.43089 0.0
C1696 C 0.00052 0.12555 0.45835 0.0
C1697 C 0.02111 0.17175 0.45551 0.0
C1698 C 0.99837 0.10287 0.46974 0.0
C1699 C 0.0129 0.10204 0.49091 0.0
C1700 C 0.01733 0.14776 0.46812 0.0
C1701 C 0.0288 0.12495 0.50066 0.0
C1702 C 0.03595 0.19484 0.46628 0.0
C1703 C 0.01303 0.19275 0.42057 0.0
N1704 N 0.03069 0.14682 0.48912 0.0
N1705 N 0.01025 0.17147 0.43297 0.0
H1706 H 0.57984 0.26475 0.10829 0.0
H1707 H 0.65045 0.22463 0.22181 0.0
H1708 H 0.5555 0.27278 0.18071 0.0
H1709 H 0.69143 0.26056 0.16573 0.0
H1710 H 0.61231 0.23204 0.20199 0.0
H1711 H 0.61873 0.25511 0.12495 0.0
C1712 C 0.58279 0.26479 0.12766 0.0
C1713 C 0.5645 0.26975 0.14316 0.0
C1714 C 0.62965 0.23798 0.19389 0.0
C1715 C 0.60823 0.25779 0.16205 0.0
C1716 C 0.65134 0.23349 0.205 0.0
C1717 C 0.67406 0.24205 0.19538 0.0
C1718 C 0.63067 0.2507 0.17279 0.0
C1719 C 0.67422 0.25371 0.1737 0.0
C1720 C 0.60486 0.25918 0.13709 0.0
C1721 C 0.56916 0.26933 0.1681 0.0
N1722 N 0.6528 0.25774 0.16309 0.0
N1723 N 0.59041 0.26312 0.17673 0.0
H1724 H 0.55318 0.88616 0.90182 0.0
H1725 H 0.52088 0.9362 0.03139 0.0
H1726 H 0.53928 0.83536 0.95822 0.0
H1727 H 0.56678 0.98654 0.9881 0.0
H1728 H 0.52734 0.89876 0.00483 0.0
H1729 H 0.55773 0.92342 0.93241 0.0
C1730 C 0.55136 0.88281 0.92061 0.0
C1731 C 0.54566 0.85754 0.92739 0.0
C1732 C 0.53631 0.91795 1.0013 0.0
C1733 C 0.5506 0.90004 0.96236 0.0
C1734 C 0.53273 0.93923 0.01651 0.0
C1735 C 0.54307 0.96428 0.01157 0.0
C1736 C 0.54988 0.92192 0.98077 0.0
C1737 C 0.55805 0.96742 0.99202 0.0
C1738 C 0.55406 0.90408 0.93806 0.0
C1739 C 0.5436 0.85443 0.95207 0.0
N1740 N 0.56067 0.94647 0.97698 0.0
N1741 N 0.5457 0.8754 0.96858 0.0
H1742 H 0.96058 0.82856 0.69577 0.0
H1743 H 0.83374 0.74177 0.72678 0.0
H1744 H 0.92883 0.75526 0.65553 0.0
H1745 H 0.85307 0.8239 0.74827 0.0
H1746 H 0.87133 0.74465 0.70481 0.0
H1747 H 0.92351 0.82583 0.71849 0.0
C1748 C 0.94574 0.81198 0.69155 0.0
C1749 C 0.94783 0.79215 0.67361 0.0
C1750 C 0.86738 0.762 0.71444 0.0
C1751 C 0.90552 0.78869 0.69998 0.0
C1752 C 0.84604 0.76035 0.72721 0.0
C1753 C 0.84018 0.78265 0.73941 0.0
C1754 C 0.88316 0.78606 0.71407 0.0
C1755 C 0.85678 0.80622 0.73909 0.0
C1756 C 0.9246 0.81043 0.70458 0.0
C1757 C 0.92797 0.77112 0.66902 0.0
N1758 N 0.8775 0.8073 0.72664 0.0
N1759 N 0.90775 0.76983 0.68226 0.0
H1760 H 0.12926 0.98379 0.87484 0.0
H1761 H 0.03119 0.04696 0.94104 0.0
H1762 H 0.08478 0.02628 0.8348 0.0
H1763 H 0.02828 0.96572 0.94647 0.0
H1764 H 0.05795 0.04482 0.90717 0.0
H1765 H 0.09927 0.98123 0.90645 0.0
C1766 C 0.11311 0.99237 0.87261 0.0
C1767 C 0.10941 0.00509 0.85206 0.0
C1768 C 0.05137 0.02746 0.91573 0.0
C1769 C 0.07563 0.00293 0.8884 0.0
C1770 C 0.03619 0.02865 0.93506 0.0
C1771 C 0.02738 0.0064 0.9464 0.0
C1772 C 0.05857 0.00409 0.90821 0.0
C1773 C 0.03451 0.98321 0.93801 0.0
C1774 C 0.09603 0.99083 0.89058 0.0
C1775 C 0.08821 0.01604 0.85018 0.0
N1776 N 0.05003 0.9827 0.91961 0.0
N1777 N 0.07239 0.01512 0.8683 0.0
H1778 H 0.71521 0.3218 0.54186 0.0
H1779 H 0.79598 0.32816 0.66504 0.0
H1780 H 0.75963 0.39192 0.57818 0.0
H1781 H 0.73296 0.26699 0.64524 0.0
H1782 H 0.78618 0.3489 0.62941 0.0
H1783 H 0.72298 0.2992 0.57718 0.0
C1784 C 0.72617 0.33255 0.5574 0.0
C1785 C 0.73692 0.35873 0.55703 0.0
C1786 C 0.77456 0.33085 0.63277 0.0
C1787 C 0.74641 0.33294 0.59691 0.0
C1788 C 0.78033 0.31887 0.65292 0.0
C1789 C 0.76523 0.2959 0.65801 0.0
C1790 C 0.75364 0.31968 0.61753 0.0
C1791 C 0.74506 0.28472 0.64184 0.0
C1792 C 0.73074 0.3196 0.57743 0.0
C1793 C 0.75107 0.3717 0.57759 0.0
N1794 N 0.73977 0.29678 0.62228 0.0
N1795 N 0.75566 0.35859 0.59654 0.0
H1796 H 0.40041 0.05541 0.38955 0.0
H1797 H 0.53712 0.07524 0.44915 0.0
H1798 H 0.46297 0.07433 0.3462 0.0
H1799 H 0.47522 0.01758 0.46482 0.0
H1800 H 0.51076 0.08796 0.41701 0.0
H1801 H 0.42867 0.05727 0.42473 0.0
C1802 C 0.42004 0.06045 0.38745 0.0
C1803 C 0.42931 0.06396 0.3647 0.0
C1804 C 0.50311 0.07279 0.42786 0.0
C1805 C 0.46164 0.06601 0.40492 0.0
C1806 C 0.51805 0.06547 0.44598 0.0
C1807 C 0.50815 0.04566 0.45986 0.0
C1808 C 0.47823 0.06044 0.42425 0.0
C1809 C 0.48348 0.03335 0.45496 0.0
C1810 C 0.43614 0.06145 0.40755 0.0
C1811 C 0.45502 0.07091 0.3633 0.0
N1812 N 0.46935 0.04109 0.43777 0.0
N1813 N 0.4704 0.07126 0.38311 0.0
H1814 H 0.77967 0.65821 0.08222 0.0
H1815 H 0.73416 0.75844 0.17504 0.0
H1816 H 0.76743 0.73095 0.0599 0.0
H1817 H 0.79323 0.72068 0.19618 0.0
H1818 H 0.73774 0.74234 0.13255 0.0
H1819 H 0.77698 0.67492 0.12454 0.0
C1820 C 0.77659 0.67774 0.08627 0.0
C1821 C 0.77404 0.69335 0.06762 0.0
C1822 C 0.74981 0.73759 0.1466 0.0
C1823 C 0.76999 0.71209 0.11567 0.0
C1824 C 0.74766 0.74656 0.17075 0.0
C1825 C 0.76344 0.74088 0.18904 0.0
C1826 C 0.76732 0.72221 0.14094 0.0
C1827 C 0.78079 0.72559 0.18256 0.0
C1828 C 0.77502 0.68721 0.11033 0.0
C1829 C 0.76985 0.71845 0.0738 0.0
N1830 N 0.78211 0.71655 0.15908 0.0
N1831 N 0.7676 0.72695 0.0973 0.0
H1832 H 0.07786 0.00086 0.72252 0.0
H1833 H 0.10366 0.04529 0.59105 0.0
H1834 H 0.15163 0.02627 0.70073 0.0
H1835 H 0.0344 0.0442 0.62391 0.0
H1836 H 0.1216 0.03486 0.62924 0.0
H1837 H 0.0614 0.01154 0.6841 0.0
C1838 C 0.09064 0.00832 0.70952 0.0
C1839 C 0.11621 0.01265 0.71493 0.0
C1840 C 0.10255 0.03715 0.62814 0.0
C1841 C 0.09738 0.02522 0.67082 0.0
C1842 C 0.09234 0.04324 0.60641 0.0
C1843 C 0.06754 0.04577 0.60436 0.0
C1844 C 0.0877 0.03311 0.64781 0.0
C1845 C 0.05364 0.04262 0.62473 0.0
C1846 C 0.0812 0.01466 0.68764 0.0
C1847 C 0.13181 0.02256 0.69734 0.0
N1848 N 0.06382 0.03623 0.64549 0.0
N1849 N 0.12215 0.02853 0.67609 0.0
H1850 H 0.75813 0.39672 0.39856 0.0
H1851 H 0.70338 0.2611 0.32515 0.0
H1852 H 0.71724 0.3348 0.43453 0.0
H1853 H 0.77266 0.30839 0.31137 0.0
H1854 H 0.70214 0.28966 0.36241 0.0
H1855 H 0.75614 0.36688 0.36221 0.0
C1856 C 0.74845 0.37696 0.3988 0.0
C1857 C 0.73816 0.36819 0.41984 0.0
C1858 C 0.71769 0.29352 0.35124 0.0
C1859 C 0.73585 0.334 0.37815 0.0
C1860 C 0.71847 0.27726 0.33013 0.0
C1861 C 0.73827 0.28239 0.31526 0.0
C1862 C 0.73652 0.3153 0.35698 0.0
C1863 C 0.75724 0.30361 0.32235 0.0
C1864 C 0.74751 0.35991 0.37806 0.0
C1865 C 0.72566 0.34234 0.41883 0.0
N1866 N 0.75576 0.3195 0.34254 0.0
N1867 N 0.72491 0.32607 0.3983 0.0
H1868 H 0.4665 0.08362 0.23831 0.0
H1869 H 0.46949 0.99251 0.118 0.0
H1870 H 0.40434 0.02535 0.20859 0.0
H1871 H 0.51131 0.07065 0.12657 0.0
H1872 H 0.44993 0.00158 0.15548 0.0
H1873 H 0.48694 0.07759 0.20048 0.0
C1874 C 0.45703 0.06986 0.22373 0.0
C1875 C 0.43376 0.05488 0.22656 0.0
C1876 C 0.46346 0.01671 0.14919 0.0
C1877 C 0.45716 0.0475 0.18392 0.0
C1878 C 0.47477 0.01147 0.12798 0.0
C1879 C 0.49194 0.0309 0.11931 0.0
C1880 C 0.46963 0.04142 0.16191 0.0
C1881 C 0.49809 0.0552 0.13278 0.0
C1882 C 0.46871 0.06641 0.20227 0.0
C1883 C 0.42228 0.0373 0.20718 0.0
N1884 N 0.48694 0.05983 0.15357 0.0
N1885 N 0.43425 0.03384 0.18679 0.0
H1886 H 0.75137 0.71723 0.94155 0.0
H1887 H 0.82191 0.76542 0.8291 0.0
H1888 H 0.799 0.67022 0.90837 0.0
H1889 H 0.74283 0.75665 0.82837 0.0
H1890 H 0.82098 0.74126 0.86517 0.0
H1891 H 0.75534 0.74346 0.90707 0.0
C1892 C 0.76303 0.71276 0.92724 0.0
C1893 C 0.7749 0.69157 0.92778 0.0
C1894 C 0.80393 0.74482 0.85708 0.0
C1895 C 0.77987 0.72171 0.88874 0.0
C1896 C 0.80445 0.7586 0.83665 0.0
C1897 C 0.78242 0.7629 0.82577 0.0
C1898 C 0.78133 0.73624 0.8671 0.0
C1899 C 0.76021 0.7536 0.83616 0.0
C1900 C 0.76515 0.72759 0.90758 0.0
C1901 C 0.78952 0.68639 0.90859 0.0
N1902 N 0.76025 0.741 0.8564 0.0
N1903 N 0.79178 0.70147 0.88991 0.0
H1904 H 0.79967 0.07905 0.96534 0.0
H1905 H 0.91716 0.05335 0.04057 0.0
H1906 H 0.8329 0.12629 0.03008 0.0
H1907 H 0.89772 0.02026 0.96693 0.0
H1908 H 0.88258 0.07578 0.03886 0.0
H1909 H 0.83269 0.05425 0.96684 0.0
C1910 C 0.81401 0.08436 0.97978 0.0
C1911 C 0.8135 0.10482 0.99765 0.0
C1912 C 0.88572 0.0635 0.0231 0.0
C1913 C 0.85107 0.07617 0.99961 0.0
C1914 C 0.90532 0.05049 0.02412 0.0
C1915 C 0.9103 0.03503 0.0038 0.0
C1916 C 0.87089 0.061 1.00162 0.0
C1917 C 0.8944 0.03197 0.98299 0.0
C1918 C 0.83281 0.07014 0.98061 0.0
C1919 C 0.8326 0.11081 0.01586 0.0
N1920 N 0.87541 0.04501 0.98237 0.0
N1921 N 0.8505 0.09641 0.01647 0.0
H1922 H 0.35414 0.39519 0.00922 0.0
H1923 H 0.44599 0.5292 0.05409 0.0
H1924 H 0.33372 0.45464 0.05788 0.0
H1925 H 0.46026 0.47339 0.99759 0.0
H1926 H 0.40643 0.5007 0.05931 0.0
H1927 H 0.39598 0.42097 0.01008 0.0
C1928 C 0.35865 0.41357 0.02029 0.0
C1929 C 0.34045 0.42351 0.03261 0.0
C1930 C 0.41829 0.49474 0.04581 0.0
C1931 C 0.38797 0.45295 0.03394 0.0
C1932 C 0.44069 0.51111 0.04265 0.0
C1933 C 0.45636 0.50365 0.02537 0.0
C1934 C 0.41172 0.47075 0.03167 0.0
C1935 C 0.44872 0.47993 0.01112 0.0
C1936 C 0.38244 0.42834 0.02075 0.0
C1937 C 0.3472 0.44697 0.04734 0.0
N1938 N 0.42704 0.46432 0.01465 0.0
N1939 N 0.37039 0.46114 0.04736 0.0
H1940 H 0.37816 0.61356 0.74674 0.0
H1941 H 0.25614 0.67516 0.74487 0.0
H1942 H 0.30425 0.56906 0.7465 0.0
H1943 H 0.32771 0.72008 0.76987 0.0
H1944 H 0.27434 0.63636 0.7405 0.0
H1945 H 0.36091 0.65346 0.74998 0.0
C1946 C 0.3584 0.61213 0.74716 0.0
C1947 C 0.34272 0.58787 0.74647 0.0
C1948 C 0.28605 0.65471 0.74704 0.0
C1949 C 0.32291 0.63321 0.75001 0.0
C1950 C 0.27562 0.67687 0.74959 0.0
C1951 C 0.2903 0.70095 0.75795 0.0
C1952 C 0.31144 0.65658 0.75252 0.0
C1953 C 0.31556 0.70192 0.7636 0.0
C1954 C 0.34858 0.63487 0.74915 0.0
C1955 C 0.31719 0.58724 0.74716 0.0
N1956 N 0.32535 0.68013 0.76066 0.0
N1957 N 0.30817 0.60944 0.74882 0.0
H1958 H 0.20758 0.60155 0.53453 0.0
H1959 H 0.06744 0.60866 0.53774 0.0
H1960 H 0.18463 0.66742 0.507 0.0
H1961 H 0.09113 0.54291 0.50114 0.0
H1962 H 0.11049 0.63271 0.54026 0.0
H1963 H 0.16419 0.58174 0.53764 0.0
C1964 C 0.19331 0.61173 0.52907 0.0
C1965 C 0.19928 0.63532 0.51922 0.0
C1966 C 0.10605 0.61301 0.53177 0.0
C1967 C 0.15031 0.61371 0.52398 0.0
C1968 C 0.08174 0.59938 0.53035 0.0
C1969 C 0.07603 0.57401 0.51906 0.0
C1970 C 0.12449 0.60061 0.52268 0.0
C1971 C 0.09493 0.56258 0.50975 0.0
C1972 C 0.16876 0.60063 0.53111 0.0
C1973 C 0.18044 0.64869 0.51385 0.0
N1974 N 0.11846 0.5759 0.51205 0.0
N1975 N 0.15653 0.6375 0.51601 0.0
H1976 H 0.68342 0.97539 0.80503 0.0
H1977 H 0.74757 0.87443 0.72886 0.0
H1978 H 0.66213 0.94768 0.73037 0.0
H1979 H 0.7555 0.88711 0.80673 0.0
H1980 H 0.71957 0.90497 0.72868 0.0
H1981 H 0.71147 0.94493 0.80599 0.0
C1982 C 0.68438 0.9625 0.78895 0.0
C1983 C 0.67054 0.96396 0.76756 0.0
C1984 C 0.72757 0.90125 0.7458 0.0
C1985 C 0.703 0.92967 0.76835 0.0
C1986 C 0.7438 0.88411 0.74591 0.0
C1987 C 0.75375 0.87828 0.76787 0.0
C1988 C 0.72137 0.9127 0.76781 0.0
C1989 C 0.74826 0.89121 0.78943 0.0
C1990 C 0.70047 0.94526 0.78947 0.0
C1991 C 0.67237 0.94694 0.74724 0.0
N1992 N 0.73224 0.90775 0.78888 0.0
N1993 N 0.68862 0.93065 0.74804 0.0
H1994 H 0.69818 0.90843 0.54872 0.0
H1995 H 0.62824 0.01386 0.49741 0.0
H1996 H 0.72099 0.95285 0.48954 0.0
H1997 H 0.59486 0.96097 0.54643 0.0
H1998 H 0.66366 0.99254 0.49666 0.0
H1999 H 0.66058 0.92718 0.54971 0.0
C2000 C 0.69518 0.9218 0.5358 0.0
C2001 C 0.71292 0.92928 0.51923 0.0
C2002 C 0.64863 0.9855 0.50762 0.0
C2003 C 0.6704 0.95094 0.52045 0.0
C2004 C 0.62846 0.99781 0.50812 0.0
C2005 C 0.60865 0.98913 0.52195 0.0
C2006 C 0.64911 0.96437 0.52114 0.0
C2007 C 0.60984 0.96819 0.53549 0.0
C2008 C 0.67383 0.9326 0.53645 0.0
C2009 C 0.7081 0.94676 0.50293 0.0
N2010 N 0.62977 0.95648 0.53477 0.0
N2011 N 0.6875 0.95705 0.50408 0.0
H2012 H 0.3288 0.46018 0.70076 0.0
H2013 H 0.31283 0.33391 0.76962 0.0
H2014 H 0.38436 0.44451 0.75085 0.0
H2015 H 0.26172 0.34423 0.71224 0.0
H2016 H 0.3414 0.37201 0.75968 0.0
H2017 H 0.30681 0.41534 0.70017 0.0
C2018 C 0.33639 0.44711 0.7115 0.0
C2019 C 0.3577 0.45606 0.7267 0.0
C2020 C 0.32411 0.36579 0.749 0.0
C2021 C 0.33286 0.40501 0.72621 0.0
C2022 C 0.30773 0.34409 0.75475 0.0
C2023 C 0.28488 0.33596 0.74174 0.0
C2024 C 0.31742 0.3798 0.73036 0.0
C2025 C 0.27913 0.34995 0.72278 0.0
C2026 C 0.32397 0.42152 0.71106 0.0
C2027 C 0.36749 0.43835 0.7395 0.0
N2028 N 0.29521 0.37135 0.71779 0.0
N2029 N 0.35466 0.41377 0.73945 0.0
H2030 H 0.11385 0.60313 0.2592 0.0
H2031 H 0.23186 0.69101 0.2111 0.0
H2032 H 0.16936 0.57163 0.22102 0.0
H2033 H 0.19868 0.71225 0.27679 0.0
H2034 H 0.20177 0.65009 0.20566 0.0
H2035 H 0.13726 0.64705 0.25589 0.0
C2036 C 0.13073 0.6056 0.24978 0.0
C2037 C 0.14035 0.58415 0.24109 0.0
C2038 C 0.20103 0.66388 0.22113 0.0
C2039 C 0.16649 0.63348 0.23668 0.0
C2040 C 0.2182 0.68702 0.22431 0.0
C2041 C 0.21792 0.70462 0.24464 0.0
C2042 C 0.18314 0.65879 0.23805 0.0
C2043 C 0.19976 0.69884 0.26114 0.0
C2044 C 0.144 0.63046 0.2479 0.0
C2045 C 0.1619 0.58795 0.22855 0.0
N2046 N 0.18296 0.6764 0.25743 0.0
N2047 N 0.17445 0.61223 0.2269 0.0
H2048 H 0.51093 0.67568 0.37867 0.0
H2049 H 0.49113 0.61738 0.50297 0.0
H2050 H 0.49794 0.72244 0.44273 0.0
H2051 H 0.54723 0.59602 0.45829 0.0
H2052 H 0.48798 0.65278 0.4782 0.0
H2053 H 0.51879 0.64202 0.40441 0.0
C2054 C 0.50969 0.67881 0.39804 0.0
C2055 C 0.50383 0.70183 0.40862 0.0
C2056 C 0.50122 0.64055 0.47403 0.0
C2057 C 0.51237 0.6637 0.43778 0.0
C2058 C 0.50312 0.62054 0.48821 0.0
C2059 C 0.51979 0.60423 0.48287 0.0
C2060 C 0.51547 0.64366 0.45387 0.0
C2061 C 0.53456 0.60865 0.46323 0.0
C2062 C 0.51433 0.65979 0.41267 0.0
C2063 C 0.50253 0.70504 0.43382 0.0
N2064 N 0.5318 0.62777 0.44913 0.0
N2065 N 0.50649 0.68612 0.44749 0.0
H2066 H 0.62099 0.30172 0.63475 0.0
H2067 H 0.69538 0.33719 0.76383 0.0
H2068 H 0.59171 0.33636 0.69752 0.0
H2069 H 0.71475 0.28662 0.70569 0.0
H2070 H 0.66217 0.34622 0.7371 0.0
H2071 H 0.66053 0.30606 0.65767 0.0
C2072 C 0.62302 0.31078 0.65318 0.0
C2073 C 0.60289 0.31835 0.66434 0.0
C2074 C 0.67396 0.33344 0.73012 0.0
C2075 C 0.64801 0.32305 0.69077 0.0
C2076 C 0.69291 0.32832 0.74534 0.0
C2077 C 0.7077 0.31096 0.73696 0.0
C2078 C 0.66997 0.32123 0.70636 0.0
C2079 C 0.70377 0.30005 0.71286 0.0
C2080 C 0.64556 0.31309 0.66631 0.0
C2081 C 0.60665 0.33 0.68827 0.0
N2082 N 0.68521 0.30521 0.69847 0.0
N2083 N 0.62866 0.33169 0.7008 0.0
H2084 H 0.97266 0.3619 0.87073 0.0
H2085 H 0.0232 0.43268 1.00057 0.0
H2086 H 0.00727 0.32489 0.92512 0.0
H2087 H 0.96721 0.45815 0.95772 0.0
H2088 H 0.01934 0.39408 0.97194 0.0
H2089 H 0.97305 0.39909 0.9007 0.0
C2090 C 0.98047 0.36163 0.88887 0.0
C2091 C 0.9899 0.34016 0.89539 0.0
C2092 C 0.00765 0.40791 0.96893 0.0
C2093 C 0.99036 0.38257 0.92967 0.0
C2094 C 0.00978 0.42989 0.98531 0.0
C2095 C 0.9954 0.44852 0.98156 0.0
C2096 C 0.99139 0.40475 0.9483 0.0
C2097 C 0.97841 0.44406 0.96142 0.0
C2098 C 0.98049 0.38276 0.906 0.0
C2099 C 0.9997 0.3409 0.91923 0.0
N2100 N 0.9771 0.42276 0.94531 0.0
N2101 N 0.99976 0.36174 0.93541 0.0
H2102 H 0.98192 0.80675 0.19315 0.0
H2103 H 0.85798 0.7273 0.23789 0.0
H2104 H 0.93788 0.73993 0.1512 0.0
H2105 H 0.87888 0.81001 0.25465 0.0
H2106 H 0.89372 0.72811 0.21333 0.0
H2107 H 0.94994 0.80486 0.22253 0.0
C2108 C 0.96563 0.79159 0.1902 0.0
C2109 C 0.96252 0.7735 0.16964 0.0
C2110 C 0.89063 0.74601 0.22266 0.0
C2111 C 0.9263 0.77101 0.20334 0.0
C2112 C 0.87041 0.74555 0.23683 0.0
C2113 C 0.86549 0.76865 0.24823 0.0
C2114 C 0.90625 0.76967 0.2202 0.0
C2115 C 0.88207 0.79179 0.24611 0.0
C2116 C 0.94743 0.7906 0.20692 0.0
C2117 C 0.941 0.75435 0.16669 0.0
N2118 N 0.90175 0.79175 0.23227 0.0
N2119 N 0.92379 0.75351 0.18342 0.0
H2120 H 0.52628 0.34636 0.10337 0.0
H2121 H 0.49717 0.42509 0.99231 0.0
H2122 H 0.46551 0.3211 0.04981 0.0
H2123 H 0.55182 0.4568 0.05039 0.0
H2124 H 0.48933 0.38433 0.01063 0.0
H2125 H 0.53882 0.38528 0.08257 0.0
C2126 C 0.51549 0.34899 0.0874 0.0
C2127 C 0.49471 0.33034 0.07851 0.0
C2128 C 0.50324 0.40012 0.01924 0.0
C2129 C 0.50922 0.37459 0.05438 0.0
C2130 C 0.50792 0.42334 0.00861 0.0
C2131 C 0.52506 0.44453 0.01986 0.0
C2132 C 0.51579 0.39799 0.04129 0.0
C2133 C 0.53827 0.44108 0.04113 0.0
C2134 C 0.52274 0.37115 0.07545 0.0
C2135 C 0.4816 0.33483 0.05755 0.0
N2136 N 0.53321 0.41838 0.05126 0.0
N2137 N 0.48909 0.35635 0.04627 0.0
H2138 H 0.97 0.25694 0.34591 0.0
H2139 H 0.84446 0.31154 0.34126 0.0
H2140 H 0.95345 0.31062 0.40291 0.0
H2141 H 0.87531 0.27704 0.27949 0.0
H2142 H 0.88089 0.30727 0.36655 0.0
H2143 H 0.93074 0.25786 0.32448 0.0
C2144 C 0.95796 0.2689 0.35388 0.0
C2145 C 0.96522 0.28453 0.37561 0.0
C2146 C 0.87962 0.30072 0.34745 0.0
C2147 C 0.92026 0.28568 0.35137 0.0
C2148 C 0.85897 0.30327 0.33302 0.0
C2149 C 0.85699 0.29477 0.30825 0.0
C2150 C 0.89805 0.28911 0.33702 0.0
C2151 C 0.87615 0.284 0.29847 0.0
C2152 C 0.93556 0.26942 0.34171 0.0
C2153 C 0.94863 0.29885 0.3858 0.0
N2154 N 0.89572 0.28131 0.31289 0.0
N2155 N 0.92698 0.29946 0.37336 0.0
H2156 H 0.98283 0.68227 0.62696 0.0
H2157 H 0.96609 0.60548 0.49575 0.0
H2158 H 0.95992 0.71363 0.56271 0.0
H2159 H 0.98333 0.57161 0.56024 0.0
H2160 H 0.95811 0.64313 0.52075 0.0
H2161 H 0.97732 0.6397 0.60403 0.0
C2162 C 0.97616 0.68011 0.60815 0.0
C2163 C 0.97216 0.70163 0.59664 0.0
C2164 C 0.96343 0.62739 0.52952 0.0
C2165 C 0.96618 0.65303 0.5702 0.0
C2166 C 0.96798 0.60589 0.51524 0.0
C2167 C 0.97596 0.58574 0.52603 0.0
C2168 C 0.96706 0.6288 0.55479 0.0
C2169 C 0.97789 0.58709 0.5513 0.0
C2170 C 0.9731 0.65579 0.59504 0.0
C2171 C 0.96345 0.69765 0.57227 0.0
N2172 N 0.9738 0.60842 0.56487 0.0
N2173 N 0.96112 0.67392 0.55977 0.0
H2174 H 0.60217 0.82647 0.85181 0.0
H2175 H 0.68821 0.73277 0.7961 0.0
H2176 H 0.59116 0.74586 0.86386 0.0
H2177 H 0.69225 0.81237 0.78222 0.0
H2178 H 0.65339 0.73617 0.82137 0.0
H2179 H 0.63727 0.8213 0.82847 0.0
C2180 C 0.60744 0.80769 0.84983 0.0
C2181 C 0.59372 0.78655 0.85976 0.0
C2182 C 0.66183 0.75277 0.81261 0.0
C2183 C 0.63378 0.78023 0.83236 0.0
C2184 C 0.68152 0.75078 0.79798 0.0
C2185 C 0.69321 0.77233 0.787 0.0
C2186 C 0.65387 0.77648 0.81628 0.0
C2187 C 0.68396 0.79526 0.79036 0.0
C2188 C 0.62741 0.80467 0.8363 0.0
C2189 C 0.60141 0.76269 0.85666 0.0
N2190 N 0.66501 0.79673 0.80473 0.0
N2191 N 0.62085 0.76007 0.84297 0.0
H2192 H 0.45278 0.56983 0.69351 0.0
H2193 H 0.4636 0.51679 0.55644 0.0
H2194 H 0.39165 0.52336 0.64917 0.0
H2195 H 0.51617 0.58097 0.59278 0.0
H2196 H 0.4376 0.51825 0.59068 0.0
H2197 H 0.47681 0.57376 0.65758 0.0
C2198 C 0.44429 0.56068 0.67619 0.0
C2199 C 0.42011 0.54621 0.67442 0.0
C2200 C 0.45469 0.5322 0.59113 0.0
C2201 C 0.44774 0.55028 0.63321 0.0
C2202 C 0.46955 0.53144 0.5715 0.0
C2203 C 0.49203 0.54897 0.57158 0.0
C2204 C 0.4625 0.55029 0.61136 0.0
C2205 C 0.49895 0.56717 0.59188 0.0
C2206 C 0.45805 0.56293 0.65567 0.0
C2207 C 0.41016 0.53475 0.65146 0.0
N2208 N 0.48437 0.56722 0.61103 0.0
N2209 N 0.42407 0.5368 0.63187 0.0
H2210 H 0.73194 0.14768 0.91958 0.0
H2211 H 0.78492 0.27959 0.8666 0.0
H2212 H 0.78453 0.2084 0.9612 0.0
H2213 H 0.71363 0.23298 0.84349 0.0
H2214 H 0.7878 0.25265 0.89978 0.0
H2215 H 0.72874 0.1768 0.88859 0.0
C2216 C 0.74299 0.16703 0.92216 0.0
C2217 C 0.75834 0.17566 0.9432 0.0
C2218 C 0.77139 0.2486 0.88764 0.0
C2219 C 0.75468 0.20905 0.90775 0.0
C2220 C 0.76968 0.26402 0.86885 0.0
C2221 C 0.74899 0.25845 0.85242 0.0
C2222 C 0.75249 0.22725 0.88959 0.0
C2223 C 0.72983 0.23795 0.85589 0.0
C2224 C 0.74097 0.1837 0.90453 0.0
C2225 C 0.77231 0.20095 0.94538 0.0
N2226 N 0.73219 0.22283 0.87393 0.0
N2227 N 0.77016 0.21678 0.92785 0.0
H2228 H 0.0549 0.46526 0.19318 0.0
H2229 H 0.05895 0.5228 0.06837 0.0
H2230 H 0.12202 0.49993 0.16258 0.0
H2231 H 0.99394 0.47229 0.08836 0.0
H2232 H 0.08283 0.50993 0.1009 0.0
H2233 H 0.03305 0.46187 0.15354 0.0
C2234 C 0.0652 0.47155 0.17799 0.0
C2235 C 0.0902 0.48349 0.18128 0.0
C2236 C 0.06345 0.50126 0.0981 0.0
C2237 C 0.06524 0.47997 0.13608 0.0
C2238 C 0.04973 0.5086 0.07942 0.0
C2239 C 0.02444 0.49844 0.07555 0.0
C2240 C 0.0517 0.48421 0.11371 0.0
C2241 C 0.01343 0.48055 0.0908 0.0
C2242 C 0.05267 0.46965 0.15538 0.0
C2243 C 0.10265 0.49101 0.16097 0.0
N2244 N 0.02709 0.47426 0.10954 0.0
N2245 N 0.08993 0.48959 0.13933 0.0
H2246 H 0.78777 0.83796 0.46838 0.0
H2247 H 0.73798 0.82158 0.33057 0.0
H2248 H 0.75588 0.89606 0.4359 0.0
H2249 H 0.80244 0.79202 0.35189 0.0
H2250 H 0.7379 0.84235 0.37155 0.0
H2251 H 0.78685 0.81414 0.42802 0.0
C2252 C 0.78025 0.84547 0.45283 0.0
C2253 C 0.77183 0.86896 0.45542 0.0
C2254 C 0.75203 0.83128 0.36728 0.0
C2255 C 0.77061 0.84191 0.40959 0.0
C2256 C 0.75208 0.81933 0.34391 0.0
C2257 C 0.77033 0.8051 0.33776 0.0
C2258 C 0.77005 0.82863 0.38488 0.0
C2259 C 0.78817 0.80299 0.35584 0.0
C2260 C 0.77995 0.83204 0.42987 0.0
C2261 C 0.76259 0.87805 0.43468 0.0
N2262 N 0.78751 0.81451 0.3787 0.0
N2263 N 0.76207 0.86444 0.41269 0.0
H2264 H 0.36898 0.52113 0.83098 0.0
H2265 H 0.49392 0.4919 0.89132 0.0
H2266 H 0.43516 0.52159 0.79259 0.0
H2267 H 0.43194 0.50506 0.93172 0.0
H2268 H 0.47157 0.49897 0.85419 0.0
H2269 H 0.39107 0.51299 0.86751 0.0
C2270 C 0.38825 0.51984 0.83025 0.0
C2271 C 0.40018 0.52218 0.80856 0.0
C2272 C 0.46279 0.50011 0.87115 0.0
C2273 C 0.42557 0.51229 0.85048 0.0
C2274 C 0.47544 0.49579 0.8923 0.0
C2275 C 0.46473 0.49782 0.91461 0.0
C2276 C 0.43922 0.50637 0.87233 0.0
C2277 C 0.44086 0.50326 0.91489 0.0
C2278 C 0.40084 0.51505 0.85115 0.0
C2279 C 0.42519 0.52016 0.80887 0.0
N2280 N 0.42896 0.5074 0.89413 0.0
N2281 N 0.43698 0.51516 0.82941 0.0
H2282 H 0.80767 0.22969 0.06687 0.0
H2283 H 0.75289 0.23316 0.19583 0.0
H2284 H 0.77272 0.16219 0.09924 0.0
H2285 H 0.81336 0.2931 0.18135 0.0
H2286 H 0.75621 0.21024 0.15679 0.0
H2287 H 0.80851 0.25563 0.10602 0.0
C2288 C 0.80066 0.22022 0.08228 0.0
C2289 C 0.78987 0.19376 0.07974 0.0
C2290 C 0.76875 0.22845 0.16201 0.0
C2291 C 0.79023 0.22334 0.12406 0.0
C2292 C 0.76666 0.24177 0.18423 0.0
C2293 C 0.78292 0.26507 0.19189 0.0
C2294 C 0.78717 0.23845 0.14707 0.0
C2295 C 0.80046 0.27518 0.17605 0.0
C2296 C 0.80103 0.23507 0.10452 0.0
C2297 C 0.78101 0.18252 0.10025 0.0
N2298 N 0.80221 0.26171 0.15427 0.0
N2299 N 0.78109 0.19743 0.1214 0.0
H2300 H 0.06267 0.53593 0.29537 0.0
H2301 H 0.02382 0.47792 0.41695 0.0
H2302 H 0.11426 0.50687 0.34072 0.0
H2303 H 0.00954 0.55269 0.40263 0.0
H2304 H 0.04661 0.47653 0.3801 0.0
H2305 H 0.03304 0.53108 0.32707 0.0
C2306 C 0.06761 0.5284 0.31197 0.0
C2307 C 0.09085 0.522 0.31576 0.0
C2308 C 0.03797 0.49292 0.38487 0.0
C2309 C 0.05709 0.51557 0.35116 0.0
C2310 C 0.02491 0.49366 0.40566 0.0
C2311 C 0.0152 0.5156 0.41277 0.0
C2312 C 0.04052 0.51391 0.37096 0.0
C2313 C 0.01701 0.53556 0.39769 0.0
C2314 C 0.05079 0.5256 0.32986 0.0
C2315 C 0.09657 0.51228 0.33741 0.0
N2316 N 0.02959 0.5343 0.37739 0.0
N2317 N 0.07965 0.50916 0.35436 0.0
H2318 H 0.77802 0.8906 0.61615 0.0
H2319 H 0.71709 0.76608 0.67979 0.0
H2320 H 0.73424 0.8226 0.57583 0.0
H2321 H 0.78097 0.82143 0.71013 0.0
H2322 H 0.71744 0.78967 0.64365 0.0
H2323 H 0.77312 0.86888 0.65307 0.0
C2324 C 0.76714 0.8712 0.61508 0.0
C2325 C 0.75663 0.85838 0.59279 0.0
C2326 C 0.7312 0.79673 0.65837 0.0
C2327 C 0.75092 0.83335 0.63513 0.0
C2328 C 0.73098 0.78334 0.679 0.0
C2329 C 0.74885 0.79195 0.69817 0.0
C2330 C 0.74927 0.81905 0.65703 0.0
C2331 C 0.76654 0.81433 0.69607 0.0
C2332 C 0.76445 0.85876 0.63617 0.0
C2333 C 0.74276 0.83319 0.59258 0.0
N2334 N 0.76625 0.8271 0.67597 0.0
N2335 N 0.74032 0.82149 0.6134 0.0
H2336 H 0.68345 0.4207 0.52275 0.0
H2337 H 0.62387 0.54184 0.49331 0.0
H2338 H 0.70728 0.4704 0.46747 0.0
H2339 H 0.60288 0.49649 0.55225 0.0
H2340 H 0.65608 0.51699 0.48502 0.0
H2341 H 0.65379 0.44805 0.53408 0.0
C2342 C 0.68224 0.43712 0.51279 0.0
C2343 C 0.69789 0.44324 0.49413 0.0
C2344 C 0.64467 0.51266 0.49999 0.0
C2345 C 0.66439 0.47481 0.50727 0.0
C2346 C 0.62646 0.52703 0.50485 0.0
C2347 C 0.61076 0.52114 0.52345 0.0
C2348 C 0.64701 0.49212 0.51369 0.0
C2349 C 0.6147 0.50165 0.53777 0.0
C2350 C 0.6655 0.45288 0.51944 0.0
C2351 C 0.69568 0.46493 0.48203 0.0
N2352 N 0.63229 0.48758 0.53241 0.0
N2353 N 0.67931 0.47992 0.48884 0.0
H2354 H 0.21607 0.09806 0.50267 0.0
H2355 H 0.07292 0.08699 0.49883 0.0
H2356 H 0.18259 0.15402 0.46864 0.0
H2357 H 0.10355 0.01862 0.48236 0.0
H2358 H 0.11356 0.1138 0.49565 0.0
H2359 H 0.17535 0.07033 0.50321 0.0
C2360 C 0.20013 0.10423 0.49488 0.0
C2361 C 0.20266 0.12766 0.48448 0.0
C2362 C 0.11133 0.09294 0.49274 0.0
C2363 C 0.15615 0.09692 0.48639 0.0
C2364 C 0.08827 0.07761 0.49474 0.0
C2365 C 0.085 0.05055 0.49095 0.0
C2366 C 0.13137 0.08111 0.48758 0.0
C2367 C 0.10541 0.03942 0.48543 0.0
C2368 C 0.17698 0.08853 0.49537 0.0
C2369 C 0.18136 0.13568 0.47613 0.0
N2370 N 0.12791 0.05478 0.48418 0.0
N2371 N 0.15885 0.1203 0.47728 0.0
H2372 H 0.15563 0.93667 0.75373 0.0
H2373 H 0.26943 0.86783 0.78392 0.0
H2374 H 0.20504 0.95673 0.81776 0.0
H2375 H 0.21053 0.83253 0.73103 0.0
H2376 H 0.24806 0.90368 0.79275 0.0
H2377 H 0.17644 0.90041 0.74235 0.0
C2378 C 0.17056 0.93337 0.76553 0.0
C2379 C 0.17848 0.95 0.78675 0.0
C2380 C 0.23985 0.88819 0.77907 0.0
C2381 C 0.20277 0.90894 0.7735 0.0
C2382 C 0.25222 0.86778 0.77383 0.0
C2383 C 0.24186 0.847 0.75668 0.0
C2384 C 0.21692 0.88809 0.76703 0.0
C2385 C 0.21927 0.84806 0.74443 0.0
C2386 C 0.18255 0.91275 0.75894 0.0
C2387 C 0.19816 0.94471 0.80118 0.0
N2388 N 0.20754 0.86818 0.74987 0.0
N2389 N 0.20962 0.92492 0.79422 0.0
H2390 H 0.30768 0.94156 0.02839 0.0
H2391 H 0.4324 0.98278 0.05255 0.0
H2392 H 0.32623 0.88428 0.97591 0.0
H2393 H 0.43596 0.95952 0.97647 0.0
H2394 H 0.39057 0.958 0.0509 0.0
H2395 H 0.35126 0.96053 0.03603 0.0
C2396 C 0.32113 0.9329 0.01865 0.0
C2397 C 0.31366 0.9119 1.00109 0.0
C2398 C 0.40045 0.95851 0.03453 0.0
C2399 C 0.36343 0.93281 0.01019 0.0
C2400 C 0.4244 0.97256 0.03544 0.0
C2401 C 0.4376 0.97362 0.01449 0.0
C2402 C 0.38953 0.94553 0.0125 0.0
C2403 C 0.42634 0.95954 0.99298 0.0
C2404 C 0.34598 0.94345 0.02325 0.0
C2405 C 0.33154 0.90083 0.98929 0.0
N2406 N 0.40282 0.9461 0.99251 0.0
N2407 N 0.35579 0.91183 0.99367 0.0
H2408 H 0.87391 0.60261 0.75595 0.0
H2409 H 0.75831 0.6667 0.7895 0.0
H2410 H 0.8358 0.59385 0.82161 0.0
H2411 H 0.79475 0.67701 0.72319 0.0
H2412 H 0.78481 0.63682 0.79964 0.0
H2413 H 0.84516 0.62947 0.74289 0.0
C2414 C 0.85985 0.60678 0.76782 0.0
C2415 C 0.85717 0.59597 0.78986 0.0
C2416 C 0.78685 0.64529 0.78268 0.0
C2417 C 0.82399 0.62589 0.77482 0.0
C2418 C 0.7715 0.66208 0.77678 0.0
C2419 C 0.77449 0.67429 0.75557 0.0
C2420 C 0.80549 0.64094 0.76737 0.0
C2421 C 0.79188 0.66783 0.7397 0.0
C2422 C 0.84324 0.62176 0.76021 0.0
C2423 C 0.83844 0.60166 0.8044 0.0
N2424 N 0.80707 0.65183 0.74611 0.0
N2425 N 0.82251 0.6161 0.79656 0.0
H2426 H 0.83469 0.64251 0.02813 0.0
H2427 H 0.92044 0.54782 0.97249 0.0
H2428 H 0.82651 0.60651 0.95472 0.0
H2429 H 0.92352 0.57328 0.0486 0.0
H2430 H 0.88812 0.57242 0.96547 0.0
H2431 H 0.86998 0.6214 0.03563 0.0
C2432 C 0.84058 0.6306 0.01349 0.0
C2433 C 0.82755 0.62622 0.99078 0.0
C2434 C 0.89572 0.57261 0.98376 0.0
C2435 C 0.86759 0.6018 0.9993 0.0
C2436 C 0.91413 0.55844 0.98779 0.0
C2437 C 0.92449 0.55829 0.0112 0.0
C2438 C 0.88757 0.58695 0.00326 0.0
C2439 C 0.91581 0.57268 0.0303 0.0
C2440 C 0.86054 0.61835 0.01785 0.0
C2441 C 0.83584 0.61033 0.97256 0.0
N2442 N 0.89785 0.58647 0.02592 0.0
N2443 N 0.85518 0.5987 0.97724 0.0
H2444 H 0.20468 0.06685 0.77931 0.0
H2445 H 0.27758 0.19035 0.80122 0.0
H2446 H 0.14782 0.10452 0.80757 0.0
H2447 H 0.21595 0.20886 0.76086 0.0
H2448 H 0.25178 0.14903 0.80838 0.0
H2449 H 0.23108 0.10914 0.77755 0.0
C2450 C 0.19803 0.08407 0.78579 0.0
C2451 C 0.17464 0.08224 0.79496 0.0
C2452 C 0.24391 0.16235 0.79823 0.0
C2453 C 0.20404 0.13061 0.79138 0.0
C2454 C 0.25855 0.18586 0.79412 0.0
C2455 C 0.24887 0.203 0.78038 0.0
C2456 C 0.21929 0.15619 0.78898 0.0
C2457 C 0.22406 0.19622 0.77163 0.0
C2458 C 0.21298 0.10812 0.78451 0.0
C2459 C 0.16612 0.1052 0.80123 0.0
N2460 N 0.21002 0.17332 0.77616 0.0
N2461 N 0.18082 0.12859 0.7992 0.0
H2462 H 0.35711 0.99055 0.25993 0.0
H2463 H 0.2987 0.86401 0.22863 0.0
H2464 H 0.40204 0.96042 0.31124 0.0
H2465 H 0.31563 0.85544 0.30363 0.0
H2466 H 0.32751 0.90529 0.23292 0.0
H2467 H 0.33236 0.94751 0.24986 0.0
C2468 C 0.3619 0.97461 0.26881 0.0
C2469 C 0.3812 0.97882 0.2867 0.0
C2470 C 0.32465 0.89455 0.24852 0.0
C2471 C 0.35347 0.92943 0.27486 0.0
C2472 C 0.30826 0.87093 0.24608 0.0
C2473 C 0.30443 0.85647 0.26591 0.0
C2474 C 0.33728 0.90378 0.27097 0.0
C2475 C 0.31769 0.8662 0.28797 0.0
C2476 C 0.34798 0.95 0.26285 0.0
C2477 C 0.38704 0.95773 0.29753 0.0
N2478 N 0.33361 0.88929 0.2899 0.0
N2479 N 0.37282 0.9338 0.29176 0.0
H2480 H 0.55041 0.36539 0.60679 0.0
H2481 H 0.46872 0.44073 0.52761 0.0
H2482 H 0.47713 0.33099 0.57667 0.0
H2483 H 0.54824 0.46038 0.53571 0.0
H2484 H 0.47004 0.4028 0.5495 0.0
H2485 H 0.54829 0.40376 0.58568 0.0
C2486 C 0.53378 0.36605 0.59602 0.0
C2487 C 0.51397 0.34494 0.59339 0.0
C2488 C 0.48717 0.41538 0.54631 0.0
C2489 C 0.51146 0.38856 0.5692 0.0
C2490 C 0.48644 0.43695 0.53374 0.0
C2491 C 0.50838 0.45372 0.52969 0.0
C2492 C 0.50997 0.41081 0.55523 0.0
C2493 C 0.53082 0.44793 0.53822 0.0
C2494 C 0.53266 0.38781 0.58382 0.0
C2495 C 0.49292 0.34675 0.57905 0.0
N2496 N 0.53102 0.42711 0.55075 0.0
N2497 N 0.4922 0.36815 0.56752 0.0
H2498 H 0.43343 0.72322 0.31565 0.0
H2499 H 0.31246 0.78156 0.30443 0.0
H2500 H 0.40852 0.76962 0.37359 0.0
H2501 H 0.32784 0.72263 0.25177 0.0
H2502 H 0.34544 0.77393 0.33143 0.0
H2503 H 0.39302 0.71828 0.29381 0.0
C2504 C 0.41931 0.73224 0.32376 0.0
C2505 C 0.42445 0.74781 0.34584 0.0
C2506 C 0.34139 0.76224 0.3142 0.0
C2507 C 0.37837 0.74221 0.32123 0.0
C2508 C 0.32239 0.76652 0.29878 0.0
C2509 C 0.31711 0.75247 0.27594 0.0
C2510 C 0.35578 0.74416 0.30658 0.0
C2511 C 0.33126 0.73385 0.26926 0.0
C2512 C 0.39622 0.72926 0.31143 0.0
C2513 C 0.40539 0.75816 0.35621 0.0
N2514 N 0.35018 0.73044 0.28441 0.0
N2515 N 0.38335 0.7557 0.34355 0.0
H2516 H 0.04896 0.73874 0.08368 0.0
H2517 H 0.05201 0.58949 0.08433 0.0
H2518 H 0.02558 0.69874 0.14516 0.0
H2519 H 0.02382 0.62047 0.02224 0.0
H2520 H 0.05526 0.63196 0.10781 0.0
H2521 H 0.05319 0.69755 0.06192 0.0
C2522 C 0.04459 0.72118 0.09251 0.0
C2523 C 0.03569 0.72173 0.11569 0.0
C2524 C 0.04873 0.62943 0.08895 0.0
C2525 C 0.0417 0.67506 0.0915 0.0
C2526 C 0.04708 0.60542 0.07554 0.0
C2527 C 0.03773 0.60171 0.05138 0.0
C2528 C 0.04168 0.64985 0.07779 0.0
C2529 C 0.03114 0.62268 0.04084 0.0
C2530 C 0.04723 0.69784 0.0802 0.0
C2531 C 0.03173 0.69882 0.12697 0.0
N2532 N 0.03342 0.64597 0.05409 0.0
N2533 N 0.03453 0.6762 0.11463 0.0
H2534 H 0.06359 0.25326 0.85948 0.0
H2535 H 0.1552 0.29232 0.75545 0.0
H2536 H 0.04818 0.30028 0.80336 0.0
H2537 H 0.16797 0.23998 0.80752 0.0
H2538 H 0.1162 0.29608 0.77328 0.0
H2539 H 0.10267 0.24963 0.84187 0.0
C2540 C 0.06848 0.26306 0.84363 0.0
C2541 C 0.05244 0.2771 0.83293 0.0
C2542 C 0.12745 0.28365 0.78075 0.0
C2543 C 0.09716 0.27276 0.81251 0.0
C2544 C 0.14965 0.28142 0.7705 0.0
C2545 C 0.16475 0.26577 0.78 0.0
C2546 C 0.12035 0.27024 0.80076 0.0
C2547 C 0.15679 0.25219 0.7996 0.0
C2548 C 0.09076 0.26083 0.83348 0.0
C2549 C 0.05984 0.28922 0.81228 0.0
N2550 N 0.13518 0.25482 0.80941 0.0
N2551 N 0.08157 0.28671 0.80276 0.0
H2552 H 0.55324 0.72911 0.95809 0.0
H2553 H 0.48458 0.58264 0.96197 0.0
H2554 H 0.50156 0.68708 0.90138 0.0
H2555 H 0.54792 0.61837 0.00957 0.0
H2556 H 0.48801 0.62216 0.94211 0.0
H2557 H 0.54965 0.69 0.97888 0.0
C2558 C 0.54121 0.71159 0.94991 0.0
C2559 C 0.52767 0.71139 0.9279 0.0
C2560 C 0.5011 0.62145 0.95697 0.0
C2561 C 0.52325 0.66652 0.95191 0.0
C2562 C 0.49908 0.59889 0.96851 0.0
C2563 C 0.51601 0.59705 0.98759 0.0
C2564 C 0.52011 0.64257 0.96453 0.0
C2565 C 0.53437 0.61888 0.99508 0.0
C2566 C 0.53918 0.68926 0.96185 0.0
C2567 C 0.51242 0.6881 0.91822 0.0
N2568 N 0.53596 0.6407 0.9835 0.0
N2569 N 0.5105 0.66665 0.93037 0.0
H2570 H 0.08783 0.78365 0.61847 0.0
H2571 H 0.15159 0.72789 0.72901 0.0
H2572 H 0.04806 0.74743 0.67497 0.0
H2573 H 0.1921 0.76289 0.67221 0.0
H2574 H 0.11308 0.73199 0.70771 0.0
H2575 H 0.12607 0.77366 0.63613 0.0
C2576 C 0.08726 0.77364 0.63462 0.0
C2577 C 0.06515 0.76717 0.64589 0.0
C2578 C 0.13036 0.73847 0.69972 0.0
C2579 C 0.10831 0.75512 0.6658 0.0
C2580 C 0.15232 0.736 0.71183 0.0
C2581 C 0.17499 0.74507 0.70234 0.0
C2582 C 0.13112 0.75012 0.67797 0.0
C2583 C 0.17496 0.75564 0.68012 0.0
C2584 C 0.10898 0.76787 0.64466 0.0
C2585 C 0.06503 0.75355 0.66632 0.0
N2586 N 0.15337 0.75806 0.66877 0.0
N2587 N 0.08631 0.74816 0.67575 0.0
H2588 H 0.04924 0.34391 0.45561 0.0
H2589 H 0.0426 0.49422 0.46907 0.0
H2590 H 0.04361 0.38874 0.39525 0.0
H2591 H 0.0424 0.44867 0.52929 0.0
H2592 H 0.0502 0.45745 0.44229 0.0
H2593 H 0.05349 0.38341 0.48313 0.0
C2594 C 0.04919 0.36205 0.44807 0.0
C2595 C 0.04578 0.36283 0.42298 0.0
C2596 C 0.04857 0.45548 0.46136 0.0
C2597 C 0.05057 0.40824 0.45457 0.0
C2598 C 0.04413 0.47639 0.47656 0.0
C2599 C 0.04122 0.4741 0.50115 0.0
C2600 C 0.04982 0.432 0.47083 0.0
C2601 C 0.04441 0.45107 0.51033 0.0
C2602 C 0.05159 0.38464 0.46385 0.0
C2603 C 0.046 0.38705 0.4144 0.0
N2604 N 0.04815 0.43071 0.49508 0.0
N2605 N 0.0481 0.40868 0.43016 0.0
H2606 H 0.40461 0.29298 0.12863 0.0
H2607 H 0.34648 0.25277 0.24889 0.0
H2608 H 0.4464 0.25959 0.18028 0.0
H2609 H 0.33531 0.32262 0.2193 0.0
H2610 H 0.38053 0.25076 0.22227 0.0
H2611 H 0.37544 0.29955 0.15948 0.0
C2612 C 0.40766 0.28709 0.14646 0.0
C2613 C 0.42799 0.27582 0.15194 0.0
C2614 C 0.37082 0.26671 0.22197 0.0
C2615 C 0.39451 0.28282 0.18708 0.0
C2616 C 0.35145 0.26791 0.23715 0.0
C2617 C 0.33809 0.28796 0.23642 0.0
C2618 C 0.3763 0.28524 0.20549 0.0
C2619 C 0.34521 0.30694 0.22067 0.0
C2620 C 0.39111 0.29096 0.16406 0.0
C2621 C 0.43107 0.26855 0.17538 0.0
N2622 N 0.36351 0.30486 0.20554 0.0
N2623 N 0.41432 0.27185 0.19202 0.0
H2624 H 0.64365 0.52179 0.38202 0.0
H2625 H 0.50719 0.4785 0.42474 0.0
H2626 H 0.58247 0.48977 0.3305 0.0
H2627 H 0.56237 0.53839 0.4636 0.0
H2628 H 0.53542 0.47556 0.39196 0.0
H2629 H 0.61518 0.52043 0.41421 0.0
C2630 C 0.62426 0.51424 0.37739 0.0
C2631 C 0.61556 0.50605 0.35327 0.0
C2632 C 0.54134 0.48918 0.40779 0.0
C2633 C 0.58265 0.50436 0.39052 0.0
C2634 C 0.5253 0.49082 0.42652 0.0
C2635 C 0.53255 0.50852 0.44714 0.0
C2636 C 0.56491 0.50507 0.4099 0.0
C2637 C 0.55616 0.52414 0.44835 0.0
C2638 C 0.60797 0.51359 0.39588 0.0
C2639 C 0.59009 0.49642 0.34872 0.0
N2640 N 0.57147 0.52196 0.43014 0.0
N2641 N 0.57454 0.49584 0.36715 0.0
H2642 H 0.21348 0.8261 0.0448 0.0
H2643 H 0.2982 0.82844 0.16473 0.0
H2644 H 0.26051 0.89496 0.08051 0.0
H2645 H 0.23411 0.76844 0.14547 0.0
H2646 H 0.28762 0.85037 0.13014 0.0
H2647 H 0.22204 0.8027 0.07928 0.0
C2648 C 0.22518 0.83643 0.06007 0.0
C2649 C 0.23642 0.86247 0.05973 0.0
C2650 C 0.27595 0.83231 0.13337 0.0
C2651 C 0.24681 0.83572 0.09866 0.0
C2652 C 0.28217 0.81964 0.15291 0.0
C2653 C 0.267 0.79665 0.15787 0.0
C2654 C 0.2545 0.82181 0.11863 0.0
C2655 C 0.2463 0.78614 0.14215 0.0
C2656 C 0.2302 0.82302 0.07962 0.0
C2657 C 0.25152 0.87487 0.07993 0.0
N2658 N 0.24057 0.79887 0.1232 0.0
N2659 N 0.25652 0.86129 0.09842 0.0
H2660 H 0.90132 0.55424 0.88744 0.0
H2661 H 0.03681 0.58072 0.9502 0.0
H2662 H 0.96384 0.57323 0.84403 0.0
H2663 H 0.97785 0.51788 0.96171 0.0
H2664 H 0.01037 0.59231 0.9174 0.0
H2665 H 0.92957 0.55818 0.92297 0.0
C2666 C 0.92093 0.55976 0.88538 0.0
C2667 C 0.93023 0.56261 0.86255 0.0
C2668 C 0.00332 0.57631 0.92757 0.0
C2669 C 0.96252 0.56716 0.90319 0.0
C2670 C 0.01831 0.56964 0.94605 0.0
C2671 C 0.00915 0.54879 0.95906 0.0
C2672 C 0.97913 0.56226 0.92279 0.0
C2673 C 0.98527 0.53475 0.95287 0.0
C2674 C 0.93701 0.562 0.90569 0.0
C2675 C 0.95588 0.57027 0.86121 0.0
N2676 N 0.97104 0.54189 0.93539 0.0
N2677 N 0.97127 0.57181 0.88125 0.0
H2678 H 0.24524 0.15729 0.57403 0.0
H2679 H 0.29318 0.26975 0.67986 0.0
H2680 H 0.29233 0.22917 0.56196 0.0
H2681 H 0.22707 0.21278 0.68428 0.0
H2682 H 0.29539 0.25328 0.63777 0.0
H2683 H 0.24105 0.175 0.6155 0.0
C2684 C 0.25489 0.17674 0.58014 0.0
C2685 C 0.26929 0.19172 0.56445 0.0
C2686 C 0.28029 0.24446 0.64783 0.0
C2687 C 0.26446 0.21212 0.61205 0.0
C2688 C 0.279 0.25381 0.67192 0.0
C2689 C 0.2599 0.24259 0.68569 0.0
C2690 C 0.2626 0.22334 0.63734 0.0
C2691 C 0.24203 0.22208 0.67433 0.0
C2692 C 0.25229 0.18689 0.60379 0.0
C2693 C 0.28111 0.21689 0.57339 0.0
N2694 N 0.24397 0.21291 0.65088 0.0
N2695 N 0.27856 0.22622 0.59661 0.0
H2696 H 0.65177 0.52354 0.19972 0.0
H2697 H 0.5297 0.52395 0.11691 0.0
H2698 H 0.57803 0.49464 0.21981 0.0
H2699 H 0.60274 0.54388 0.09167 0.0
H2700 H 0.54755 0.51488 0.15526 0.0
H2701 H 0.63475 0.53156 0.1604 0.0
C2702 C 0.63201 0.51855 0.19577 0.0
C2703 C 0.61631 0.50836 0.21317 0.0
C2704 C 0.55976 0.52132 0.14144 0.0
C2705 C 0.59666 0.51797 0.16822 0.0
C2706 C 0.54957 0.52668 0.11954 0.0
C2707 C 0.56476 0.53478 0.10106 0.0
C2708 C 0.58543 0.52407 0.14508 0.0
C2709 C 0.59037 0.53783 0.10549 0.0
C2710 C 0.6223 0.52327 0.17332 0.0
C2711 C 0.59086 0.50242 0.207 0.0
N2712 N 0.59992 0.53244 0.12705 0.0
N2713 N 0.58186 0.50748 0.18516 0.0
H2714 H 0.25369 0.89881 0.90014 0.0
H2715 H 0.21706 0.75736 0.83138 0.0
H2716 H 0.22333 0.83434 0.93909 0.0
H2717 H 0.27615 0.81677 0.8131 0.0
H2718 H 0.21303 0.78482 0.86877 0.0
H2719 H 0.25371 0.86891 0.86434 0.0
C2720 C 0.24671 0.87841 0.90115 0.0
C2721 C 0.23886 0.8691 0.92285 0.0
C2722 C 0.22699 0.79154 0.85657 0.0
C2723 C 0.23909 0.83466 0.88178 0.0
C2724 C 0.22942 0.77588 0.83541 0.0
C2725 C 0.2469 0.78488 0.81911 0.0
C2726 C 0.24189 0.81632 0.86094 0.0
C2727 C 0.26237 0.80906 0.82506 0.0
C2728 C 0.24692 0.86132 0.8807 0.0
C2729 C 0.22979 0.84237 0.92282 0.0
N2730 N 0.2593 0.82402 0.84529 0.0
N2731 N 0.23031 0.82598 0.90259 0.0
H2732 H 0.90395 0.52211 0.70587 0.0
H2733 H 0.01391 0.57219 0.62473 0.0
H2734 H 0.96693 0.57927 0.7357 0.0
H2735 H 0.96873 0.49569 0.6132 0.0
H2736 H 0.99465 0.57948 0.66309 0.0
H2737 H 0.92426 0.51766 0.66821 0.0
C2738 C 0.92192 0.53401 0.70439 0.0
C2739 C 0.93388 0.55095 0.72398 0.0
C2740 C 0.9892 0.56105 0.6522 0.0
C2741 C 0.95725 0.54575 0.681 0.0
C2742 C 1.0002 0.55685 0.63046 0.0
C2743 C 0.99286 0.5333 0.61594 0.0
C2744 C 0.9705 0.54173 0.65901 0.0
C2745 C 0.97494 0.51409 0.62396 0.0
C2746 C 0.93358 0.53127 0.68297 0.0
C2747 C 0.95716 0.56588 0.72102 0.0
N2748 N 0.96417 0.51883 0.64486 0.0
N2749 N 0.96819 0.5629 0.69987 0.0
H2750 H 0.26131 0.15752 0.39509 0.0
H2751 H 0.30866 0.29434 0.34601 0.0
H2752 H 0.28964 0.2253 0.44479 0.0
H2753 H 0.25441 0.23286 0.30802 0.0
H2754 H 0.30791 0.26894 0.38115 0.0
H2755 H 0.26522 0.18417 0.36181 0.0
C2756 C 0.26849 0.17804 0.39913 0.0
C2757 C 0.27505 0.18905 0.42306 0.0
C2758 C 0.29632 0.26104 0.36502 0.0
C2759 C 0.27967 0.22003 0.38433 0.0
C2760 C 0.29683 0.27543 0.34493 0.0
C2761 C 0.28182 0.26555 0.32383 0.0
C2762 C 0.28097 0.23648 0.36381 0.0
C2763 C 0.26666 0.24108 0.32359 0.0
C2764 C 0.27063 0.19332 0.37995 0.0
C2765 C 0.28424 0.21591 0.42675 0.0
N2766 N 0.26673 0.22743 0.3431 0.0
N2767 N 0.28633 0.23049 0.40758 0.0
H2768 H 0.33742 0.63491 0.5261 0.0
H2769 H 0.40258 0.52519 0.46352 0.0
H2770 H 0.30538 0.58529 0.4622 0.0
H2771 H 0.422 0.5625 0.53583 0.0
H2772 H 0.36818 0.5485 0.46079 0.0
H2773 H 0.37135 0.61139 0.52722 0.0
C2774 C 0.33768 0.61934 0.5121 0.0
C2775 C 0.31842 0.612 0.49412 0.0
C2776 C 0.37989 0.55136 0.4773 0.0
C2777 C 0.35704 0.58472 0.4955 0.0
C2778 C 0.39933 0.53793 0.47891 0.0
C2779 C 0.41507 0.542 0.49989 0.0
C2780 C 0.37649 0.56904 0.49674 0.0
C2781 C 0.4103 0.55887 0.51928 0.0
C2782 C 0.35693 0.60573 0.51289 0.0
C2783 C 0.31973 0.59152 0.47652 0.0
N2784 N 0.39158 0.57192 0.51716 0.0
N2785 N 0.33866 0.57853 0.4777 0.0
H2786 H 0.85405 0.89376 0.51156 0.0
H2787 H 0.9432 0.02906 0.55728 0.0
H2788 H 0.8331 0.95244 0.56073 0.0
H2789 H 0.96206 0.97239 0.50423 0.0
H2790 H 0.90394 0.99989 0.56134 0.0
H2791 H 0.8958 0.91999 0.51259 0.0
C2792 C 0.85843 0.91207 0.52276 0.0
C2793 C 0.84013 0.92164 0.53527 0.0
C2794 C 0.9167 0.99381 0.54886 0.0
C2795 C 0.88749 0.9515 0.53683 0.0
C2796 C 0.93899 0.01055 0.54639 0.0
C2797 C 0.95586 0.00311 0.53041 0.0
C2798 C 0.91128 0.96947 0.53524 0.0
C2799 C 0.94955 0.97889 0.51677 0.0
C2800 C 0.88215 0.92706 0.52333 0.0
C2801 C 0.84665 0.94502 0.5501 0.0
N2802 N 0.92779 0.96293 0.51952 0.0
N2803 N 0.86975 0.95937 0.55025 0.0
H2804 H 0.85051 0.09584 0.21254 0.0
H2805 H 0.80141 0.20482 0.29459 0.0
H2806 H 0.84356 0.09299 0.28907 0.0
H2807 H 0.7745 0.18316 0.22027 0.0
H2808 H 0.82318 0.16846 0.29243 0.0
H2809 H 0.82977 0.13336 0.21441 0.0
C2810 C 0.8452 0.10355 0.2298 0.0
C2811 C 0.84895 0.09156 0.25074 0.0
C2812 C 0.81235 0.17154 0.27666 0.0
C2813 C 0.82515 0.13401 0.25298 0.0
C2814 C 0.79984 0.19219 0.2779 0.0
C2815 C 0.78583 0.19679 0.25769 0.0
C2816 C 0.81147 0.15572 0.25484 0.0
C2817 C 0.78471 0.18 0.23641 0.0
C2818 C 0.83308 0.12464 0.2308 0.0
C2819 C 0.84116 0.10184 0.27257 0.0
N2820 N 0.79759 0.16035 0.23544 0.0
N2821 N 0.82975 0.1225 0.27315 0.0
H2822 H 0.68436 0.16681 0.99816 0.0
H2823 H 0.58766 0.06716 0.06186 0.0
H2824 H 0.7056 0.11222 0.04391 0.0
H2825 H 0.57405 0.0852 0.98901 0.0
H2826 H 0.62832 0.09542 0.06355 0.0
H2827 H 0.64066 0.14855 0.00324 0.0
C2828 C 0.67971 0.15123 0.00948 0.0
C2829 C 0.69817 0.14016 0.01991 0.0
C2830 C 0.6162 0.09343 0.04737 0.0
C2831 C 0.64913 0.12023 0.02653 0.0
C2832 C 0.59309 0.07739 0.04637 0.0
C2833 C 0.57771 0.07369 0.02515 0.0
C2834 C 0.62365 0.10625 0.02723 0.0
C2835 C 0.58559 0.08732 0.00557 0.0
C2836 C 0.65499 0.14093 0.01239 0.0
C2837 C 0.69163 0.12055 0.03497 0.0
N2838 N 0.60812 0.10306 0.00706 0.0
N2839 N 0.66754 0.11102 0.03773 0.0
H2840 H 0.15139 0.44615 0.23315 0.0
H2841 H 0.25459 0.39092 0.30607 0.0
H2842 H 0.17933 0.47653 0.30576 0.0
H2843 H 0.23783 0.37483 0.22911 0.0
H2844 H 0.22543 0.42063 0.30758 0.0
H2845 H 0.17947 0.41548 0.23323 0.0
C2846 C 0.16298 0.4459 0.2493 0.0
C2847 C 0.16325 0.46395 0.26939 0.0
C2848 C 0.22838 0.41079 0.29033 0.0
C2849 C 0.1957 0.4296 0.26943 0.0
C2850 C 0.24523 0.39416 0.28945 0.0
C2851 C 0.2485 0.38051 0.26746 0.0
C2852 C 0.21475 0.41347 0.2691 0.0
C2853 C 0.23573 0.38501 0.24645 0.0
C2854 C 0.17926 0.42871 0.24923 0.0
C2855 C 0.17879 0.46304 0.2898 0.0
N2856 N 0.2192 0.40092 0.24782 0.0
N2857 N 0.19457 0.44629 0.28924 0.0
H2858 H 0.19782 0.40948 0.04328 0.0
H2859 H 0.1306 0.52038 0.99911 0.0
H2860 H 0.2228 0.45845 0.98783 0.0
H2861 H 0.09548 0.46319 0.0434 0.0
H2862 H 0.16601 0.49896 0.99746 0.0
H2863 H 0.16073 0.42893 0.04532 0.0
C2864 C 0.19541 0.42401 0.03136 0.0
C2865 C 0.21361 0.43245 0.01552 0.0
C2866 C 0.1506 0.49104 0.00758 0.0
C2867 C 0.17163 0.45498 0.01802 0.0
C2868 C 0.13045 0.50339 0.00862 0.0
C2869 C 0.11014 0.4935 0.02135 0.0
C2870 C 0.15052 0.46865 0.01945 0.0
C2871 C 0.11084 0.47137 0.03334 0.0
C2872 C 0.17434 0.4352 0.03263 0.0
C2873 C 0.20953 0.45146 1.00057 0.0
N2874 N 0.13073 0.45964 0.0321 0.0
N2875 N 0.18917 0.46212 0.00233 0.0
H2876 H 0.83163 0.96239 0.20502 0.0
H2877 H 0.81623 0.83401 0.27085 0.0
H2878 H 0.88721 0.94677 0.25513 0.0
H2879 H 0.76776 0.84372 0.211 0.0
H2880 H 0.84425 0.87358 0.26311 0.0
H2881 H 0.8102 0.91729 0.20369 0.0
C2882 C 0.83929 0.94931 0.21568 0.0
C2883 C 0.86049 0.9583 0.23103 0.0
C2884 C 0.82769 0.86686 0.25141 0.0
C2885 C 0.83633 0.90689 0.22963 0.0
C2886 C 0.8117 0.84426 0.25583 0.0
C2887 C 0.78969 0.83559 0.24151 0.0
C2888 C 0.82146 0.88108 0.23273 0.0
C2889 C 0.78451 0.84981 0.22252 0.0
C2890 C 0.82722 0.92356 0.2148 0.0
C2891 C 0.87041 0.94056 0.24368 0.0
N2892 N 0.80016 0.872 0.21883 0.0
N2893 N 0.85792 0.91577 0.24318 0.0
H2894 H 0.61456 0.10031 0.76235 0.0
H2895 H 0.72754 0.19167 0.70969 0.0
H2896 H 0.66839 0.07153 0.71939 0.0
H2897 H 0.69684 0.21109 0.7773 0.0
H2898 H 0.69763 0.15066 0.70436 0.0
H2899 H 0.63597 0.14487 0.75835 0.0
C2900 C 0.63059 0.1035 0.75173 0.0
C2901 C 0.64044 0.08265 0.74188 0.0
C2902 C 0.69734 0.16409 0.7202 0.0
C2903 C 0.66428 0.1327 0.73671 0.0
C2904 C 0.71442 0.1873 0.72332 0.0
C2905 C 0.71486 0.20436 0.74418 0.0
C2906 C 0.68028 0.15837 0.73779 0.0
C2907 C 0.69737 0.19809 0.76122 0.0
C2908 C 0.64274 0.12873 0.74945 0.0
C2909 C 0.66084 0.08738 0.72782 0.0
N2910 N 0.68069 0.17555 0.75763 0.0
N2911 N 0.67232 0.11199 0.72584 0.0
loop_
_geom_bond_atom_site_label_1
_geom_bond_atom_site_label_2
_geom_bond_distance
_geom_bond_site_symmetry_2
_ccdc_geom_bond_type
Mn0 O5 2.095 . S
Mn0 O15 2.162 . S
Mn0 O16 2.297 . S
Mn0 O24 2.385 1_455 S
Mn0 O25 2.210 1_455 S
Mn0 O26 2.094 . S
Mn1 O6 2.121 . S
Mn1 N8 2.257 . S
Mn1 N17 2.282 1_455 S
Mn1 O25 2.216 1_455 S
Mn1 O27 2.117 . S
C2 O24 1.234 . S
C2 O25 1.280 . S
C3 O15 1.281 . S
C3 O16 1.236 . S
C4 O26 1.240 . S
C4 O27 1.264 . S
O5 Mn0 2.095 . S
O5 C14 1.250 . S
O6 Mn1 2.121 . S
O6 C14 1.258 . S
C7 N8 1.326 . S
C7 C11 1.460 . S
C7 H13 0.929 . S
N8 Mn1 2.257 . S
N8 C7 1.326 . S
N8 C12 1.362 1_455 S
C9 C10 1.258 . S
C9 C12 1.431 . S
C9 C29 1.449 . S
C10 C9 1.258 . S
C10 C11 1.477 1_655 S
C10 H30 0.931 . S
C11 C7 1.460 . S
C11 C10 1.477 1_455 S
C11 H31 0.930 . S
C12 N8 1.362 1_655 S
C12 C9 1.431 . S
C12 C22 1.476 . S
H13 C7 0.929 . S
C14 O5 1.250 . S
C14 O6 1.258 . S
O15 Mn0 2.162 . S
O15 C3 1.281 . S
O16 Mn0 2.297 . S
O16 C3 1.236 . S
N17 Mn1 2.282 1_655 S
N17 C18 1.328 . S
N17 C22 1.318 . S
C18 N17 1.328 . S
C18 C19 1.457 . S
C18 H23 0.929 . S
C19 C18 1.457 . S
C19 C20 1.291 . S
C19 H32 0.931 . S
C20 C19 1.291 . S
C20 C21 1.373 . S
C20 H33 0.929 . S
C21 C20 1.373 . S
C21 C22 1.396 . S
C21 C28 1.403 . S
C22 C12 1.476 . S
C22 N17 1.318 . S
C22 C21 1.396 . S
H23 C18 0.929 . S
O24 Mn0 2.385 1_655 S
O24 C2 1.234 . S
O25 Mn0 2.210 1_655 S
O25 Mn1 2.216 1_655 S
O25 C2 1.280 . S
O26 Mn0 2.094 . S
O26 C4 1.240 . S
O27 Mn1 2.117 . S
O27 C4 1.264 . S
C28 C21 1.403 . S
C28 C29 1.399 . S
C28 H34 0.929 . S
C29 C9 1.449 . S
C29 C28 1.399 . S
C29 H35 0.930 . S
H30 C10 0.931 . S
H31 C11 0.930 . S
H32 C19 0.931 . S
H33 C20 0.929 . S
H34 C28 0.929 . S
H35 C29 0.930 . S
Mn36 O41 2.095 1_455 S
Mn36 O51 2.162 . S
Mn36 O52 2.297 . S
Mn36 O60 2.385 . S
Mn36 O61 2.209 . S
Mn36 O62 2.094 . S
Mn37 O42 2.121 1_455 S
Mn37 N44 2.257 . S
Mn37 N53 2.282 . S
Mn37 O61 2.215 . S
Mn37 O63 2.117 . S
C38 O60 1.234 . S
C38 O61 1.283 . S
C39 O51 1.281 . S
C39 O52 1.236 . S
C40 O62 1.240 . S
C40 O63 1.264 . S
O41 Mn36 2.095 1_655 S
O41 C50 1.250 . S
O42 Mn37 2.121 1_655 S
O42 C50 1.258 . S
C43 N44 1.326 . S
C43 C47 1.460 . S
C43 H49 0.929 1_455 S
N44 Mn37 2.257 . S
N44 C43 1.326 . S
N44 C48 1.362 . S
C45 C46 1.258 . S
C45 C48 1.431 . S
C45 C65 1.449 . S
C46 C45 1.258 . S
C46 C47 1.477 . S
C46 H66 0.931 . S
C47 C43 1.460 . S
C47 C46 1.477 . S
C47 H67 0.930 . S
C48 N44 1.362 . S
C48 C45 1.431 . S
C48 C58 1.476 . S
H49 C43 0.929 1_655 S
C50 O41 1.250 . S
C50 O42 1.258 . S
O51 Mn36 2.162 . S
O51 C39 1.281 . S
O52 Mn36 2.297 . S
O52 C39 1.236 . S
N53 Mn37 2.282 . S
N53 C54 1.328 . S
N53 C58 1.318 . S
C54 N53 1.328 . S
C54 C55 1.457 . S
C54 H59 0.929 . S
C55 C54 1.457 . S
C55 C56 1.291 . S
C55 H68 0.931 . S
C56 C55 1.291 . S
C56 C57 1.373 . S
C56 H69 0.929 . S
C57 C56 1.373 . S
C57 C58 1.396 . S
C57 C64 1.403 . S
C58 C48 1.476 . S
C58 N53 1.318 . S
C58 C57 1.396 . S
H59 C54 0.929 . S
O60 Mn36 2.385 . S
O60 C38 1.234 . S
O61 Mn36 2.209 . S
O61 Mn37 2.215 . S
O61 C38 1.283 . S
O62 Mn36 2.094 . S
O62 C40 1.240 . S
O63 Mn37 2.117 . S
O63 C40 1.264 . S
C64 C57 1.403 . S
C64 C65 1.399 . S
C64 H70 0.929 . S
C65 C45 1.449 . S
C65 C64 1.399 . S
C65 H71 0.930 . S
H66 C46 0.931 . S
H67 C47 0.930 . S
H68 C55 0.931 . S
H69 C56 0.929 . S
H70 C64 0.929 . S
H71 C65 0.930 . S
Mn72 O77 2.095 . S
Mn72 O87 2.162 . S
Mn72 O88 2.297 . S
Mn72 O96 2.385 . S
Mn72 O97 2.209 . S
Mn72 O98 2.094 . S
Mn73 O78 2.121 . S
Mn73 N80 2.257 . S
Mn73 N89 2.282 . S
Mn73 O97 2.215 . S
Mn73 O99 2.117 . S
C74 O96 1.234 . S
C74 O97 1.283 . S
C75 O87 1.281 . S
C75 O88 1.236 . S
C76 O98 1.240 . S
C76 O99 1.264 . S
O77 Mn72 2.095 . S
O77 C86 1.250 . S
O78 Mn73 2.121 . S
O78 C86 1.258 . S
C79 N80 1.326 . S
C79 C83 1.460 . S
C79 H85 0.929 . S
N80 Mn73 2.257 . S
N80 C79 1.326 . S
N80 C84 1.362 . S
C81 C82 1.258 . S
C81 C84 1.431 . S
C81 C101 1.449 . S
C82 C81 1.258 . S
C82 C83 1.477 . S
C82 H102 0.931 . S
C83 C79 1.460 . S
C83 C82 1.477 . S
C83 H103 0.930 . S
C84 N80 1.362 . S
C84 C81 1.431 . S
C84 C94 1.476 . S
H85 C79 0.929 . S
C86 O77 1.250 . S
C86 O78 1.258 . S
O87 Mn72 2.162 . S
O87 C75 1.281 . S
O88 Mn72 2.297 . S
O88 C75 1.236 . S
N89 Mn73 2.282 . S
N89 C90 1.328 . S
N89 C94 1.318 . S
C90 N89 1.328 . S
C90 C91 1.457 . S
C90 H95 0.929 . S
C91 C90 1.457 . S
C91 C92 1.291 . S
C91 H104 0.931 . S
C92 C91 1.291 . S
C92 C93 1.373 . S
C92 H105 0.929 . S
C93 C92 1.373 . S
C93 C94 1.396 . S
C93 C100 1.403 . S
C94 C84 1.476 . S
C94 N89 1.318 . S
C94 C93 1.396 . S
H95 C90 0.929 . S
O96 Mn72 2.385 . S
O96 C74 1.234 . S
O97 Mn72 2.209 . S
O97 Mn73 2.215 . S
O97 C74 1.283 . S
O98 Mn72 2.094 . S
O98 C76 1.240 . S
O99 Mn73 2.117 . S
O99 C76 1.264 . S
C100 C93 1.403 . S
C100 C101 1.399 . S
C100 H106 0.929 . S
C101 C81 1.449 . S
C101 C100 1.399 . S
C101 H107 0.930 . S
H102 C82 0.931 . S
H103 C83 0.930 . S
H104 C91 0.931 . S
H105 C92 0.929 . S
H106 C100 0.929 . S
H107 C101 0.930 . S
Mn108 O113 2.095 . S
Mn108 O123 2.162 . S
Mn108 O124 2.297 . S
Mn108 O132 2.385 . S
Mn108 O133 2.209 . S
Mn108 O134 2.094 . S
Mn109 O114 2.121 . S
Mn109 N116 2.257 . S
Mn109 N125 2.282 . S
Mn109 O133 2.215 . S
Mn109 O135 2.117 . S
C110 O132 1.234 . S
C110 O133 1.283 . S
C111 O123 1.281 . S
C111 O124 1.236 . S
C112 O134 1.240 . S
C112 O135 1.264 . S
O113 Mn108 2.095 . S
O113 C122 1.250 . S
O114 Mn109 2.121 . S
O114 C122 1.258 . S
C115 N116 1.326 . S
C115 C119 1.460 . S
C115 H121 0.929 . S
N116 Mn109 2.257 . S
N116 C115 1.326 . S
N116 C120 1.362 . S
C117 C118 1.258 . S
C117 C120 1.431 . S
C117 C137 1.449 . S
C118 C117 1.258 . S
C118 C119 1.477 . S
C118 H138 0.931 1_554 S
C119 C115 1.460 . S
C119 C118 1.477 . S
C119 H139 0.930 . S
C120 N116 1.362 . S
C120 C117 1.431 . S
C120 C130 1.476 . S
H121 C115 0.929 . S
C122 O113 1.250 . S
C122 O114 1.258 . S
O123 Mn108 2.162 . S
O123 C111 1.281 . S
O124 Mn108 2.297 . S
O124 C111 1.236 . S
N125 Mn109 2.282 . S
N125 C126 1.328 . S
N125 C130 1.318 . S
C126 N125 1.328 . S
C126 C127 1.457 . S
C126 H131 0.929 . S
C127 C126 1.457 . S
C127 C128 1.291 . S
C127 H140 0.931 . S
C128 C127 1.291 . S
C128 C129 1.373 . S
C128 H141 0.929 . S
C129 C128 1.373 . S
C129 C130 1.396 . S
C129 C136 1.403 . S
C130 C120 1.476 . S
C130 N125 1.318 . S
C130 C129 1.396 . S
H131 C126 0.929 . S
O132 Mn108 2.385 . S
O132 C110 1.234 . S
O133 Mn108 2.209 . S
O133 Mn109 2.215 . S
O133 C110 1.283 . S
O134 Mn108 2.094 . S
O134 C112 1.240 . S
O135 Mn109 2.117 . S
O135 C112 1.264 . S
C136 C129 1.403 . S
C136 C137 1.399 . S
C136 H142 0.929 . S
C137 C117 1.449 . S
C137 C136 1.399 . S
C137 H143 0.930 . S
H138 C118 0.931 1_556 S
H139 C119 0.930 . S
H140 C127 0.931 . S
H141 C128 0.929 . S
H142 C136 0.929 . S
H143 C137 0.930 . S
Mn144 O149 2.095 . S
Mn144 O159 2.162 . S
Mn144 O160 2.297 . S
Mn144 O168 2.385 . S
Mn144 O169 2.209 . S
Mn144 O170 2.094 1_455 S
Mn145 O150 2.121 1_655 S
Mn145 N152 2.257 . S
Mn145 N161 2.282 . S
Mn145 O169 2.215 1_655 S
Mn145 O171 2.117 . S
C146 O168 1.234 . S
C146 O169 1.283 . S
C147 O159 1.281 . S
C147 O160 1.236 . S
C148 O170 1.240 . S
C148 O171 1.264 . S
O149 Mn144 2.095 . S
O149 C158 1.250 . S
O150 Mn145 2.121 1_455 S
O150 C158 1.258 . S
C151 N152 1.318 1_455 S
C151 C155 1.464 1_455 S
C151 H157 0.936 . S
N152 Mn145 2.257 . S
N152 C151 1.318 1_655 S
N152 C156 1.362 . S
C153 C154 1.258 1_554 S
C153 C156 1.431 . S
C153 C173 1.449 . S
C154 C153 1.258 1_556 S
C154 C155 1.488 1_556 S
C154 H174 0.931 . S
C155 C151 1.464 1_655 S
C155 C154 1.488 1_554 S
C155 H175 0.918 1_654 S
C156 N152 1.362 . S
C156 C153 1.431 . S
C156 C166 1.476 . S
H157 C151 0.936 . S
C158 O149 1.250 . S
C158 O150 1.258 . S
O159 Mn144 2.162 . S
O159 C147 1.281 . S
O160 Mn144 2.297 . S
O160 C147 1.236 . S
N161 Mn145 2.282 . S
N161 C162 1.328 . S
N161 C166 1.318 . S
C162 N161 1.328 . S
C162 C163 1.457 . S
C162 H167 0.929 . S
C163 C162 1.457 . S
C163 C164 1.291 . S
C163 H176 0.931 . S
C164 C163 1.291 . S
C164 C165 1.373 . S
C164 H177 0.929 . S
C165 C164 1.373 . S
C165 C166 1.396 . S
C165 C172 1.403 . S
C166 C156 1.476 . S
C166 N161 1.318 . S
C166 C165 1.396 . S
H167 C162 0.929 . S
O168 Mn144 2.385 . S
O168 C146 1.234 . S
O169 Mn144 2.209 . S
O169 Mn145 2.215 1_455 S
O169 C146 1.283 . S
O170 Mn144 2.094 1_655 S
O170 C148 1.240 . S
O171 Mn145 2.117 . S
O171 C148 1.264 . S
C172 C165 1.403 . S
C172 C173 1.399 . S
C172 H178 0.929 . S
C173 C153 1.449 . S
C173 C172 1.399 . S
C173 H179 0.930 1_554 S
H174 C154 0.931 . S
H175 C155 0.918 1_456 S
H176 C163 0.931 . S
H177 C164 0.929 . S
H178 C172 0.929 . S
H179 C173 0.930 1_556 S
Mn180 O185 2.095 . S
Mn180 O195 2.162 . S
Mn180 O196 2.297 . S
Mn180 O204 2.385 . S
Mn180 O205 2.209 . S
Mn180 O206 2.094 . S
Mn181 O186 2.121 . S
Mn181 N188 2.257 . S
Mn181 N197 2.282 . S
Mn181 O205 2.215 . S
Mn181 O207 2.117 . S
C182 O204 1.234 . S
C182 O205 1.283 . S
C183 O195 1.281 . S
C183 O196 1.236 . S
C184 O206 1.240 . S
C184 O207 1.264 . S
O185 Mn180 2.095 . S
O185 C194 1.250 . S
O186 Mn181 2.121 . S
O186 C194 1.258 . S
C187 N188 1.326 . S
C187 C191 1.460 . S
C187 H193 0.929 . S
N188 Mn181 2.257 . S
N188 C187 1.326 . S
N188 C192 1.362 . S
C189 C190 1.258 . S
C189 C192 1.431 . S
C189 C209 1.449 . S
C190 C189 1.258 . S
C190 C191 1.477 . S
C190 H210 0.931 . S
C191 C187 1.460 . S
C191 C190 1.477 . S
C191 H211 0.930 . S
C192 N188 1.362 . S
C192 C189 1.431 . S
C192 C202 1.476 . S
H193 C187 0.929 . S
C194 O185 1.250 . S
C194 O186 1.258 . S
O195 Mn180 2.162 . S
O195 C183 1.281 . S
O196 Mn180 2.297 . S
O196 C183 1.236 . S
N197 Mn181 2.282 . S
N197 C198 1.328 . S
N197 C202 1.318 . S
C198 N197 1.328 . S
C198 C199 1.457 . S
C198 H203 0.929 . S
C199 C198 1.457 . S
C199 C200 1.291 . S
C199 H212 0.931 . S
C200 C199 1.291 . S
C200 C201 1.373 . S
C200 H213 0.929 . S
C201 C200 1.373 . S
C201 C202 1.396 . S
C201 C208 1.403 . S
C202 C192 1.476 . S
C202 N197 1.318 . S
C202 C201 1.396 . S
H203 C198 0.929 . S
O204 Mn180 2.385 . S
O204 C182 1.234 . S
O205 Mn180 2.209 . S
O205 Mn181 2.215 . S
O205 C182 1.283 . S
O206 Mn180 2.094 . S
O206 C184 1.240 . S
O207 Mn181 2.117 . S
O207 C184 1.264 . S
C208 C201 1.403 . S
C208 C209 1.399 . S
C208 H214 0.929 . S
C209 C189 1.449 . S
C209 C208 1.399 . S
C209 H215 0.930 . S
H210 C190 0.931 . S
H211 C191 0.930 . S
H212 C199 0.931 . S
H213 C200 0.929 . S
H214 C208 0.929 . S
H215 C209 0.930 . S
Mn216 O221 2.095 . S
Mn216 O231 2.162 . S
Mn216 O232 2.297 . S
Mn216 O240 2.385 . S
Mn216 O241 2.209 . S
Mn216 O242 2.094 . S
Mn217 O222 2.121 . S
Mn217 N224 2.257 . S
Mn217 N233 2.282 . S
Mn217 O241 2.215 . S
Mn217 O243 2.117 . S
C218 O240 1.234 . S
C218 O241 1.283 . S
C219 O231 1.281 . S
C219 O232 1.236 . S
C220 O242 1.240 . S
C220 O243 1.264 . S
O221 Mn216 2.095 . S
O221 C230 1.250 . S
O222 Mn217 2.121 . S
O222 C230 1.258 . S
C223 N224 1.326 . S
C223 C227 1.460 . S
C223 H229 0.929 . S
N224 Mn217 2.257 . S
N224 C223 1.326 . S
N224 C228 1.362 . S
C225 C226 1.258 . S
C225 C228 1.431 . S
C225 C245 1.449 . S
C226 C225 1.258 . S
C226 C227 1.477 . S
C226 H246 0.931 . S
C227 C223 1.460 . S
C227 C226 1.477 . S
C227 H247 0.930 . S
C228 N224 1.362 . S
C228 C225 1.431 . S
C228 C238 1.476 . S
H229 C223 0.929 . S
C230 O221 1.250 . S
C230 O222 1.258 . S
O231 Mn216 2.162 . S
O231 C219 1.281 . S
O232 Mn216 2.297 . S
O232 C219 1.236 . S
N233 Mn217 2.282 . S
N233 C234 1.328 . S
N233 C238 1.318 . S
C234 N233 1.328 . S
C234 C235 1.457 . S
C234 H239 0.929 . S
C235 C234 1.457 . S
C235 C236 1.291 . S
C235 H248 0.931 . S
C236 C235 1.291 . S
C236 C237 1.373 . S
C236 H249 0.929 . S
C237 C236 1.373 . S
C237 C238 1.396 . S
C237 C244 1.403 . S
C238 C228 1.476 . S
C238 N233 1.318 . S
C238 C237 1.396 . S
H239 C234 0.929 . S
O240 Mn216 2.385 . S
O240 C218 1.234 . S
O241 Mn216 2.209 . S
O241 Mn217 2.215 . S
O241 C218 1.283 . S
O242 Mn216 2.094 . S
O242 C220 1.240 . S
O243 Mn217 2.117 . S
O243 C220 1.264 . S
C244 C237 1.403 . S
C244 C245 1.399 . S
C244 H250 0.929 . S
C245 C225 1.449 . S
C245 C244 1.399 . S
C245 H251 0.930 . S
H246 C226 0.931 . S
H247 C227 0.930 . S
H248 C235 0.931 . S
H249 C236 0.929 . S
H250 C244 0.929 . S
H251 C245 0.930 . S
Mn252 O257 2.097 . S
Mn252 O267 2.158 . S
Mn252 O268 2.297 1_455 S
Mn252 O276 2.383 1_455 S
Mn252 O277 2.208 1_455 S
Mn252 O278 2.094 . S
Mn253 O258 2.121 . S
Mn253 N260 2.257 1_455 S
Mn253 N269 2.282 1_455 S
Mn253 O277 2.215 1_455 S
Mn253 O279 2.117 . S
C254 O276 1.234 . S
C254 O277 1.283 . S
C255 O267 1.282 1_655 S
C255 O268 1.236 . S
C256 O278 1.240 . S
C256 O279 1.264 . S
O257 Mn252 2.097 . S
O257 C266 1.250 . S
O258 Mn253 2.121 . S
O258 C266 1.258 . S
C259 N260 1.326 1_455 S
C259 C263 1.460 1_455 S
C259 H265 0.929 . S
N260 Mn253 2.257 1_655 S
N260 C259 1.326 1_655 S
N260 C264 1.362 . S
C261 C262 1.258 . S
C261 C264 1.431 . S
C261 C281 1.449 . S
C262 C261 1.258 . S
C262 C263 1.477 . S
C262 H282 0.931 . S
C263 C259 1.460 1_655 S
C263 C262 1.477 . S
C263 H283 0.930 1_655 S
C264 N260 1.362 . S
C264 C261 1.431 . S
C264 C274 1.476 . S
H265 C259 0.929 . S
C266 O257 1.250 . S
C266 O258 1.258 . S
O267 Mn252 2.158 . S
O267 C255 1.282 1_455 S
O268 Mn252 2.297 1_655 S
O268 C255 1.236 . S
N269 Mn253 2.282 1_655 S
N269 C270 1.328 . S
N269 C274 1.318 . S
C270 N269 1.328 . S
C270 C271 1.457 . S
C270 H275 0.929 . S
C271 C270 1.457 . S
C271 C272 1.291 . S
C271 H284 0.931 . S
C272 C271 1.291 . S
C272 C273 1.373 . S
C272 H285 0.929 . S
C273 C272 1.373 . S
C273 C274 1.396 . S
C273 C280 1.403 . S
C274 C264 1.476 . S
C274 N269 1.318 . S
C274 C273 1.396 . S
H275 C270 0.929 . S
O276 Mn252 2.383 1_655 S
O276 C254 1.234 . S
O277 Mn252 2.208 1_655 S
O277 Mn253 2.215 1_655 S
O277 C254 1.283 . S
O278 Mn252 2.094 . S
O278 C256 1.240 . S
O279 Mn253 2.117 . S
O279 C256 1.264 . S
C280 C273 1.403 . S
C280 C281 1.399 . S
C280 H286 0.929 . S
C281 C261 1.449 . S
C281 C280 1.399 . S
C281 H287 0.930 . S
H282 C262 0.931 . S
H283 C263 0.930 1_455 S
H284 C271 0.931 . S
H285 C272 0.929 . S
H286 C280 0.929 . S
H287 C281 0.930 . S
Mn288 O293 2.095 . S
Mn288 O303 2.162 . S
Mn288 O304 2.297 . S
Mn288 O312 2.385 1_545 S
Mn288 O313 2.209 . S
Mn288 O314 2.094 . S
Mn289 O294 2.121 . S
Mn289 N296 2.257 . S
Mn289 N305 2.282 1_545 S
Mn289 O313 2.215 . S
Mn289 O315 2.117 . S
C290 O312 1.234 . S
C290 O313 1.283 1_565 S
C291 O303 1.281 . S
C291 O304 1.236 . S
C292 O314 1.240 . S
C292 O315 1.264 . S
O293 Mn288 2.095 . S
O293 C302 1.250 . S
O294 Mn289 2.121 . S
O294 C302 1.258 . S
C295 N296 1.327 . S
C295 C299 1.457 1_545 S
C295 H301 0.929 . S
N296 Mn289 2.257 . S
N296 C295 1.327 . S
N296 C300 1.361 1_545 S
C297 C298 1.258 . S
C297 C300 1.431 . S
C297 C317 1.449 . S
C298 C297 1.258 . S
C298 C299 1.487 . S
C298 H318 0.931 . S
C299 C295 1.457 1_565 S
C299 C298 1.487 . S
C299 H319 0.923 1_565 S
C300 N296 1.361 1_565 S
C300 C297 1.431 . S
C300 C310 1.476 . S
H301 C295 0.929 . S
C302 O293 1.250 . S
C302 O294 1.258 . S
O303 Mn288 2.162 . S
O303 C291 1.281 . S
O304 Mn288 2.297 . S
O304 C291 1.236 . S
N305 Mn289 2.282 1_565 S
N305 C306 1.328 . S
N305 C310 1.318 . S
C306 N305 1.328 . S
C306 C307 1.457 . S
C306 H311 0.929 . S
C307 C306 1.457 . S
C307 C308 1.291 . S
C307 H320 0.931 . S
C308 C307 1.291 . S
C308 C309 1.373 . S
C308 H321 0.929 . S
C309 C308 1.373 . S
C309 C310 1.396 . S
C309 C316 1.403 . S
C310 C300 1.476 . S
C310 N305 1.318 . S
C310 C309 1.396 . S
H311 C306 0.929 . S
O312 Mn288 2.385 1_565 S
O312 C290 1.234 . S
O313 Mn288 2.209 . S
O313 Mn289 2.215 . S
O313 C290 1.283 1_545 S
O314 Mn288 2.094 . S
O314 C292 1.240 . S
O315 Mn289 2.117 . S
O315 C292 1.264 . S
C316 C309 1.403 . S
C316 C317 1.399 . S
C316 H322 0.929 . S
C317 C297 1.449 . S
C317 C316 1.399 . S
C317 H323 0.930 . S
H318 C298 0.931 . S
H319 C299 0.923 1_545 S
H320 C307 0.931 . S
H321 C308 0.929 . S
H322 C316 0.929 . S
H323 C317 0.930 . S
Mn324 O329 2.095 . S
Mn324 O339 2.162 . S
Mn324 O340 2.297 . S
Mn324 O348 2.385 . S
Mn324 O349 2.209 . S
Mn324 O350 2.094 . S
Mn325 O330 2.121 . S
Mn325 N332 2.257 . S
Mn325 N341 2.282 . S
Mn325 O349 2.215 . S
Mn325 O351 2.117 . S
C326 O348 1.234 . S
C326 O349 1.283 . S
C327 O339 1.281 . S
C327 O340 1.236 . S
C328 O350 1.240 . S
C328 O351 1.264 . S
O329 Mn324 2.095 . S
O329 C338 1.250 . S
O330 Mn325 2.121 . S
O330 C338 1.258 . S
C331 N332 1.326 . S
C331 C335 1.460 . S
C331 H337 0.929 . S
N332 Mn325 2.257 . S
N332 C331 1.326 . S
N332 C336 1.362 . S
C333 C334 1.258 . S
C333 C336 1.431 . S
C333 C353 1.449 . S
C334 C333 1.258 . S
C334 C335 1.477 . S
C334 H354 0.931 . S
C335 C331 1.460 . S
C335 C334 1.477 . S
C335 H355 0.930 . S
C336 N332 1.362 . S
C336 C333 1.431 . S
C336 C346 1.476 . S
H337 C331 0.929 . S
C338 O329 1.250 . S
C338 O330 1.258 . S
O339 Mn324 2.162 . S
O339 C327 1.281 . S
O340 Mn324 2.297 . S
O340 C327 1.236 . S
N341 Mn325 2.282 . S
N341 C342 1.328 . S
N341 C346 1.318 . S
C342 N341 1.328 . S
C342 C343 1.457 . S
C342 H347 0.929 . S
C343 C342 1.457 . S
C343 C344 1.291 . S
C343 H356 0.931 . S
C344 C343 1.291 . S
C344 C345 1.373 . S
C344 H357 0.929 . S
C345 C344 1.373 . S
C345 C346 1.396 . S
C345 C352 1.403 . S
C346 C336 1.476 . S
C346 N341 1.318 . S
C346 C345 1.396 . S
H347 C342 0.929 . S
O348 Mn324 2.385 . S
O348 C326 1.234 . S
O349 Mn324 2.209 . S
O349 Mn325 2.215 . S
O349 C326 1.283 . S
O350 Mn324 2.094 . S
O350 C328 1.240 . S
O351 Mn325 2.117 . S
O351 C328 1.264 . S
C352 C345 1.403 . S
C352 C353 1.399 . S
C352 H358 0.929 . S
C353 C333 1.449 . S
C353 C352 1.399 . S
C353 H359 0.930 . S
H354 C334 0.931 . S
H355 C335 0.930 . S
H356 C343 0.931 . S
H357 C344 0.929 . S
H358 C352 0.929 . S
H359 C353 0.930 . S
Mn360 O365 2.100 1_545 S
Mn360 O375 2.161 1_545 S
Mn360 O376 2.298 1_545 S
Mn360 O384 2.380 . S
Mn360 O385 2.207 . S
Mn360 O386 2.094 1_545 S
Mn361 O366 2.121 1_545 S
Mn361 N368 2.257 . S
Mn361 N377 2.282 . S
Mn361 O385 2.215 . S
Mn361 O387 2.117 . S
C362 O384 1.234 . S
C362 O385 1.283 . S
C363 O375 1.281 . S
C363 O376 1.235 . S
C364 O386 1.243 1_545 S
C364 O387 1.264 . S
O365 Mn360 2.100 1_565 S
O365 C374 1.250 . S
O366 Mn361 2.121 1_565 S
O366 C374 1.258 . S
C367 N368 1.326 . S
C367 C371 1.460 . S
C367 H373 0.929 1_545 S
N368 Mn361 2.257 . S
N368 C367 1.326 . S
N368 C372 1.362 . S
C369 C370 1.258 . S
C369 C372 1.431 . S
C369 C389 1.449 . S
C370 C369 1.258 . S
C370 C371 1.477 . S
C370 H390 0.931 . S
C371 C367 1.460 . S
C371 C370 1.477 . S
C371 H391 0.930 . S
C372 N368 1.362 . S
C372 C369 1.431 . S
C372 C382 1.476 . S
H373 C367 0.929 1_565 S
C374 O365 1.250 . S
C374 O366 1.258 . S
O375 Mn360 2.161 1_565 S
O375 C363 1.281 . S
O376 Mn360 2.298 1_565 S
O376 C363 1.235 . S
N377 Mn361 2.282 . S
N377 C378 1.328 . S
N377 C382 1.318 . S
C378 N377 1.328 . S
C378 C379 1.457 . S
C378 H383 0.929 . S
C379 C378 1.457 . S
C379 C380 1.291 . S
C379 H392 0.931 . S
C380 C379 1.291 . S
C380 C381 1.373 . S
C380 H393 0.929 . S
C381 C380 1.373 . S
C381 C382 1.396 . S
C381 C388 1.403 . S
C382 C372 1.476 . S
C382 N377 1.318 . S
C382 C381 1.396 . S
H383 C378 0.929 . S
O384 Mn360 2.380 . S
O384 C362 1.234 . S
O385 Mn360 2.207 . S
O385 Mn361 2.215 . S
O385 C362 1.283 . S
O386 Mn360 2.094 1_565 S
O386 C364 1.243 1_565 S
O387 Mn361 2.117 . S
O387 C364 1.264 . S
C388 C381 1.403 . S
C388 C389 1.399 . S
C388 H394 0.929 . S
C389 C369 1.449 . S
C389 C388 1.399 . S
C389 H395 0.930 . S
H390 C370 0.931 . S
H391 C371 0.930 . S
H392 C379 0.931 . S
H393 C380 0.929 . S
H394 C388 0.929 . S
H395 C389 0.930 . S
Mn396 O401 2.095 . S
Mn396 O411 2.162 . S
Mn396 O412 2.297 . S
Mn396 O420 2.385 . S
Mn396 O421 2.209 . S
Mn396 O422 2.094 1_554 S
Mn397 O402 2.121 1_556 S
Mn397 N404 2.257 . S
Mn397 N413 2.282 . S
Mn397 O421 2.215 1_556 S
Mn397 O423 2.117 . S
C398 O420 1.234 . S
C398 O421 1.283 . S
C399 O411 1.281 . S
C399 O412 1.236 . S
C400 O422 1.240 . S
C400 O423 1.264 . S
O401 Mn396 2.095 . S
O401 C410 1.250 . S
O402 Mn397 2.121 1_554 S
O402 C410 1.258 . S
C403 N404 1.326 1_544 S
C403 C407 1.460 . S
C403 H409 0.929 1_545 S
N404 Mn397 2.257 . S
N404 C403 1.326 1_566 S
N404 C408 1.362 . S
C405 C406 1.258 . S
C405 C408 1.431 1_545 S
C405 C425 1.449 . S
C406 C405 1.258 . S
C406 C407 1.477 1_556 S
C406 H426 0.931 . S
C407 C403 1.460 . S
C407 C406 1.477 1_554 S
C407 H427 0.930 . S
C408 N404 1.362 . S
C408 C405 1.431 1_565 S
C408 C418 1.476 . S
H409 C403 0.929 1_565 S
C410 O401 1.250 . S
C410 O402 1.258 . S
O411 Mn396 2.162 . S
O411 C399 1.281 . S
O412 Mn396 2.297 . S
O412 C399 1.236 . S
N413 Mn397 2.282 . S
N413 C414 1.328 . S
N413 C418 1.318 . S
C414 N413 1.328 . S
C414 C415 1.457 . S
C414 H419 0.929 . S
C415 C414 1.457 . S
C415 C416 1.291 . S
C415 H428 0.931 . S
C416 C415 1.291 . S
C416 C417 1.373 . S
C416 H429 0.929 . S
C417 C416 1.373 . S
C417 C418 1.396 . S
C417 C424 1.403 1_565 S
C418 C408 1.476 . S
C418 N413 1.318 . S
C418 C417 1.396 . S
H419 C414 0.929 . S
O420 Mn396 2.385 . S
O420 C398 1.234 . S
O421 Mn396 2.209 . S
O421 Mn397 2.215 1_554 S
O421 C398 1.283 . S
O422 Mn396 2.094 1_556 S
O422 C400 1.240 . S
O423 Mn397 2.117 . S
O423 C400 1.264 . S
C424 C417 1.403 1_545 S
C424 C425 1.399 . S
C424 H430 0.929 . S
C425 C405 1.449 . S
C425 C424 1.399 . S
C425 H431 0.930 . S
H426 C406 0.931 . S
H427 C407 0.930 . S
H428 C415 0.931 . S
H429 C416 0.929 . S
H430 C424 0.929 . S
H431 C425 0.930 . S
Mn432 O437 2.095 . S
Mn432 O447 2.162 . S
Mn432 O448 2.297 . S
Mn432 O456 2.385 . S
Mn432 O457 2.209 . S
Mn432 O458 2.094 1_554 S
Mn433 O438 2.121 . S
Mn433 N440 2.257 . S
Mn433 N449 2.282 . S
Mn433 O457 2.215 1_556 S
Mn433 O459 2.117 . S
C434 O456 1.234 . S
C434 O457 1.283 . S
C435 O447 1.281 . S
C435 O448 1.236 . S
C436 O458 1.240 . S
C436 O459 1.264 . S
O437 Mn432 2.095 . S
O437 C446 1.250 . S
O438 Mn433 2.121 . S
O438 C446 1.258 1_556 S
C439 N440 1.326 . S
C439 C443 1.460 . S
C439 H445 0.929 1_556 S
N440 Mn433 2.257 . S
N440 C439 1.326 . S
N440 C444 1.362 . S
C441 C442 1.258 . S
C441 C444 1.431 . S
C441 C461 1.449 . S
C442 C441 1.258 . S
C442 C443 1.477 . S
C442 H462 0.931 . S
C443 C439 1.460 . S
C443 C442 1.477 . S
C443 H463 0.930 1_556 S
C444 N440 1.362 . S
C444 C441 1.431 . S
C444 C454 1.476 . S
H445 C439 0.929 1_554 S
C446 O437 1.250 . S
C446 O438 1.258 1_554 S
O447 Mn432 2.162 . S
O447 C435 1.281 . S
O448 Mn432 2.297 . S
O448 C435 1.236 . S
N449 Mn433 2.282 . S
N449 C450 1.328 . S
N449 C454 1.318 . S
C450 N449 1.328 . S
C450 C451 1.457 . S
C450 H455 0.929 . S
C451 C450 1.457 . S
C451 C452 1.291 . S
C451 H464 0.931 . S
C452 C451 1.291 . S
C452 C453 1.373 . S
C452 H465 0.929 . S
C453 C452 1.373 . S
C453 C454 1.396 . S
C453 C460 1.403 . S
C454 C444 1.476 . S
C454 N449 1.318 . S
C454 C453 1.396 . S
H455 C450 0.929 . S
O456 Mn432 2.385 . S
O456 C434 1.234 . S
O457 Mn432 2.209 . S
O457 Mn433 2.215 1_554 S
O457 C434 1.283 . S
O458 Mn432 2.094 1_556 S
O458 C436 1.240 . S
O459 Mn433 2.117 . S
O459 C436 1.264 . S
C460 C453 1.403 . S
C460 C461 1.399 . S
C460 H466 0.929 . S
C461 C441 1.449 . S
C461 C460 1.399 . S
C461 H467 0.930 . S
H462 C442 0.931 . S
H463 C443 0.930 1_554 S
H464 C451 0.931 . S
H465 C452 0.929 . S
H466 C460 0.929 . S
H467 C461 0.930 . S
Mn468 O473 2.095 1_554 S
Mn468 O483 2.162 . S
Mn468 O484 2.297 . S
Mn468 O492 2.385 . S
Mn468 O493 2.209 1_554 S
Mn468 O494 2.094 1_554 S
Mn469 O474 2.121 . S
Mn469 N476 2.257 . S
Mn469 N485 2.282 . S
Mn469 O493 2.215 . S
Mn469 O495 2.117 . S
C470 O492 1.234 1_556 S
C470 O493 1.283 . S
C471 O483 1.281 . S
C471 O484 1.236 . S
C472 O494 1.240 . S
C472 O495 1.264 . S
O473 Mn468 2.095 1_556 S
O473 C482 1.250 . S
O474 Mn469 2.121 . S
O474 C482 1.258 . S
C475 N476 1.326 . S
C475 C479 1.460 . S
C475 H481 0.929 . S
N476 Mn469 2.257 . S
N476 C475 1.326 . S
N476 C480 1.362 . S
C477 C478 1.258 . S
C477 C480 1.431 . S
C477 C497 1.449 . S
C478 C477 1.258 . S
C478 C479 1.477 . S
C478 H498 0.931 1_545 S
C479 C475 1.460 . S
C479 C478 1.477 . S
C479 H499 0.930 . S
C480 N476 1.362 . S
C480 C477 1.431 . S
C480 C490 1.476 . S
H481 C475 0.929 . S
C482 O473 1.250 . S
C482 O474 1.258 . S
O483 Mn468 2.162 . S
O483 C471 1.281 . S
O484 Mn468 2.297 . S
O484 C471 1.236 . S
N485 Mn469 2.282 . S
N485 C486 1.328 . S
N485 C490 1.318 . S
C486 N485 1.328 . S
C486 C487 1.457 . S
C486 H491 0.929 . S
C487 C486 1.457 . S
C487 C488 1.291 . S
C487 H500 0.931 . S
C488 C487 1.291 . S
C488 C489 1.373 . S
C488 H501 0.929 . S
C489 C488 1.373 . S
C489 C490 1.396 . S
C489 C496 1.403 . S
C490 C480 1.476 . S
C490 N485 1.318 . S
C490 C489 1.396 . S
H491 C486 0.929 . S
O492 Mn468 2.385 . S
O492 C470 1.234 1_554 S
O493 Mn468 2.209 1_556 S
O493 Mn469 2.215 . S
O493 C470 1.283 . S
O494 Mn468 2.094 1_556 S
O494 C472 1.240 . S
O495 Mn469 2.117 . S
O495 C472 1.264 . S
C496 C489 1.403 . S
C496 C497 1.399 . S
C496 H502 0.929 . S
C497 C477 1.449 . S
C497 C496 1.399 . S
C497 H503 0.930 . S
H498 C478 0.931 1_565 S
H499 C479 0.930 . S
H500 C487 0.931 . S
H501 C488 0.929 . S
H502 C496 0.929 . S
H503 C497 0.930 . S
Mn504 O509 2.095 . S
Mn504 O519 2.162 . S
Mn504 O520 2.297 . S
Mn504 O528 2.385 . S
Mn504 O529 2.209 . S
Mn504 O530 2.094 . S
Mn505 O510 2.121 . S
Mn505 N512 2.257 . S
Mn505 N521 2.282 . S
Mn505 O529 2.215 . S
Mn505 O531 2.117 . S
C506 O528 1.234 . S
C506 O529 1.283 . S
C507 O519 1.281 . S
C507 O520 1.236 . S
C508 O530 1.240 . S
C508 O531 1.264 . S
O509 Mn504 2.095 . S
O509 C518 1.250 . S
O510 Mn505 2.121 . S
O510 C518 1.258 . S
C511 N512 1.326 . S
C511 C515 1.460 . S
C511 H517 0.929 . S
N512 Mn505 2.257 . S
N512 C511 1.326 . S
N512 C516 1.362 . S
C513 C514 1.258 . S
C513 C516 1.431 . S
C513 C533 1.449 . S
C514 C513 1.258 . S
C514 C515 1.477 . S
C514 H534 0.931 . S
C515 C511 1.460 . S
C515 C514 1.477 . S
C515 H535 0.930 . S
C516 N512 1.362 . S
C516 C513 1.431 . S
C516 C526 1.476 . S
H517 C511 0.929 . S
C518 O509 1.250 . S
C518 O510 1.258 . S
O519 Mn504 2.162 . S
O519 C507 1.281 . S
O520 Mn504 2.297 . S
O520 C507 1.236 . S
N521 Mn505 2.282 . S
N521 C522 1.328 . S
N521 C526 1.318 . S
C522 N521 1.328 . S
C522 C523 1.457 . S
C522 H527 0.929 . S
C523 C522 1.457 . S
C523 C524 1.291 . S
C523 H536 0.931 . S
C524 C523 1.291 . S
C524 C525 1.373 . S
C524 H537 0.929 . S
C525 C524 1.373 . S
C525 C526 1.396 . S
C525 C532 1.403 . S
C526 C516 1.476 . S
C526 N521 1.318 . S
C526 C525 1.396 . S
H527 C522 0.929 . S
O528 Mn504 2.385 . S
O528 C506 1.234 . S
O529 Mn504 2.209 . S
O529 Mn505 2.215 . S
O529 C506 1.283 . S
O530 Mn504 2.094 . S
O530 C508 1.240 . S
O531 Mn505 2.117 . S
O531 C508 1.264 . S
C532 C525 1.403 . S
C532 C533 1.399 . S
C532 H538 0.929 . S
C533 C513 1.449 . S
C533 C532 1.399 . S
C533 H539 0.930 . S
H534 C514 0.931 . S
H535 C515 0.930 . S
H536 C523 0.931 . S
H537 C524 0.929 . S
H538 C532 0.929 . S
H539 C533 0.930 . S
Mn540 O545 2.095 . S
Mn540 O555 2.162 . S
Mn540 O556 2.297 . S
Mn540 O564 2.385 . S
Mn540 O565 2.209 . S
Mn540 O566 2.094 . S
Mn541 O546 2.121 . S
Mn541 N548 2.257 . S
Mn541 N557 2.282 . S
Mn541 O565 2.215 . S
Mn541 O567 2.117 . S
C542 O564 1.234 . S
C542 O565 1.283 . S
C543 O555 1.281 . S
C543 O556 1.236 . S
C544 O566 1.240 . S
C544 O567 1.264 . S
O545 Mn540 2.095 . S
O545 C554 1.250 . S
O546 Mn541 2.121 . S
O546 C554 1.258 . S
C547 N548 1.326 . S
C547 C551 1.460 1_565 S
C547 H553 0.929 . S
N548 Mn541 2.257 . S
N548 C547 1.326 . S
N548 C552 1.362 . S
C549 C550 1.258 1_565 S
C549 C552 1.431 . S
C549 C569 1.449 . S
C550 C549 1.258 1_545 S
C550 C551 1.477 . S
C550 H570 0.931 . S
C551 C547 1.460 1_545 S
C551 C550 1.477 . S
C551 H571 0.930 . S
C552 N548 1.362 . S
C552 C549 1.431 . S
C552 C562 1.476 . S
H553 C547 0.929 . S
C554 O545 1.250 . S
C554 O546 1.258 . S
O555 Mn540 2.162 . S
O555 C543 1.281 . S
O556 Mn540 2.297 . S
O556 C543 1.236 . S
N557 Mn541 2.282 . S
N557 C558 1.328 . S
N557 C562 1.318 . S
C558 N557 1.328 . S
C558 C559 1.457 . S
C558 H563 0.929 . S
C559 C558 1.457 . S
C559 C560 1.291 . S
C559 H572 0.931 . S
C560 C559 1.291 . S
C560 C561 1.373 . S
C560 H573 0.929 . S
C561 C560 1.373 . S
C561 C562 1.396 . S
C561 C568 1.403 . S
C562 C552 1.476 . S
C562 N557 1.318 . S
C562 C561 1.396 . S
H563 C558 0.929 . S
O564 Mn540 2.385 . S
O564 C542 1.234 . S
O565 Mn540 2.209 . S
O565 Mn541 2.215 . S
O565 C542 1.283 . S
O566 Mn540 2.094 . S
O566 C544 1.240 . S
O567 Mn541 2.117 . S
O567 C544 1.264 . S
C568 C561 1.403 . S
C568 C569 1.399 . S
C568 H574 0.929 . S
C569 C549 1.449 . S
C569 C568 1.399 . S
C569 H575 0.930 1_565 S
H570 C550 0.931 . S
H571 C551 0.930 . S
H572 C559 0.931 . S
H573 C560 0.929 . S
H574 C568 0.929 . S
H575 C569 0.930 1_545 S
Mn576 O581 2.095 . S
Mn576 O591 2.162 . S
Mn576 O592 2.297 . S
Mn576 O600 2.364 1_545 S
Mn576 O601 2.209 . S
Mn576 O602 2.094 . S
Mn577 O582 2.121 . S
Mn577 N584 2.257 . S
Mn577 N593 2.282 . S
Mn577 O601 2.215 . S
Mn577 O603 2.117 . S
C578 O600 1.220 1_545 S
C578 O601 1.322 . S
C579 O591 1.281 . S
C579 O592 1.236 . S
C580 O602 1.240 . S
C580 O603 1.264 . S
O581 Mn576 2.095 . S
O581 C590 1.250 . S
O582 Mn577 2.121 . S
O582 C590 1.258 . S
C583 N584 1.326 . S
C583 C587 1.460 . S
C583 H589 0.929 . S
N584 Mn577 2.257 . S
N584 C583 1.326 . S
N584 C588 1.362 . S
C585 C586 1.258 1_565 S
C585 C588 1.431 1_565 S
C585 C605 1.449 . S
C586 C585 1.258 1_545 S
C586 C587 1.477 . S
C586 H606 0.931 1_545 S
C587 C583 1.460 . S
C587 C586 1.477 . S
C587 H607 0.930 . S
C588 N584 1.362 . S
C588 C585 1.431 1_545 S
C588 C598 1.476 1_545 S
H589 C583 0.929 . S
C590 O581 1.250 . S
C590 O582 1.258 . S
O591 Mn576 2.162 . S
O591 C579 1.281 . S
O592 Mn576 2.297 . S
O592 C579 1.236 . S
N593 Mn577 2.282 . S
N593 C594 1.328 1_545 S
N593 C598 1.318 1_545 S
C594 N593 1.328 1_565 S
C594 C595 1.457 . S
C594 H599 0.929 . S
C595 C594 1.457 . S
C595 C596 1.291 . S
C595 H608 0.931 . S
C596 C595 1.291 . S
C596 C597 1.373 . S
C596 H609 0.929 . S
C597 C596 1.373 . S
C597 C598 1.396 . S
C597 C604 1.403 . S
C598 C588 1.476 1_565 S
C598 N593 1.318 1_565 S
C598 C597 1.396 . S
H599 C594 0.929 . S
O600 Mn576 2.364 1_565 S
O600 C578 1.220 1_565 S
O601 Mn576 2.209 . S
O601 Mn577 2.215 . S
O601 C578 1.322 . S
O602 Mn576 2.094 . S
O602 C580 1.240 . S
O603 Mn577 2.117 . S
O603 C580 1.264 . S
C604 C597 1.403 . S
C604 C605 1.399 . S
C604 H610 0.929 . S
C605 C585 1.449 . S
C605 C604 1.399 . S
C605 H611 0.930 . S
H606 C586 0.931 1_565 S
H607 C587 0.930 . S
H608 C595 0.931 . S
H609 C596 0.929 . S
H610 C604 0.929 . S
H611 C605 0.930 . S
Mn612 O617 2.095 . S
Mn612 O627 2.162 . S
Mn612 O628 2.297 . S
Mn612 O636 2.385 . S
Mn612 O637 2.209 . S
Mn612 O638 2.094 . S
Mn613 O618 2.121 . S
Mn613 N620 2.257 . S
Mn613 N629 2.282 . S
Mn613 O637 2.215 . S
Mn613 O639 2.117 . S
C614 O636 1.234 . S
C614 O637 1.283 . S
C615 O627 1.281 . S
C615 O628 1.236 . S
C616 O638 1.240 . S
C616 O639 1.264 . S
O617 Mn612 2.095 . S
O617 C626 1.250 . S
O618 Mn613 2.121 . S
O618 C626 1.258 . S
C619 N620 1.326 . S
C619 C623 1.460 . S
C619 H625 0.929 . S
N620 Mn613 2.257 . S
N620 C619 1.326 . S
N620 C624 1.362 . S
C621 C622 1.258 . S
C621 C624 1.431 . S
C621 C641 1.449 . S
C622 C621 1.258 . S
C622 C623 1.477 . S
C622 H642 0.931 . S
C623 C619 1.460 . S
C623 C622 1.477 . S
C623 H643 0.930 . S
C624 N620 1.362 . S
C624 C621 1.431 . S
C624 C634 1.476 . S
H625 C619 0.929 . S
C626 O617 1.250 . S
C626 O618 1.258 . S
O627 Mn612 2.162 . S
O627 C615 1.281 . S
O628 Mn612 2.297 . S
O628 C615 1.236 . S
N629 Mn613 2.282 . S
N629 C630 1.328 . S
N629 C634 1.318 . S
C630 N629 1.328 . S
C630 C631 1.457 . S
C630 H635 0.929 . S
C631 C630 1.457 . S
C631 C632 1.291 . S
C631 H644 0.931 . S
C632 C631 1.291 . S
C632 C633 1.373 . S
C632 H645 0.929 . S
C633 C632 1.373 . S
C633 C634 1.396 . S
C633 C640 1.403 . S
C634 C624 1.476 . S
C634 N629 1.318 . S
C634 C633 1.396 . S
H635 C630 0.929 . S
O636 Mn612 2.385 . S
O636 C614 1.234 . S
O637 Mn612 2.209 . S
O637 Mn613 2.215 . S
O637 C614 1.283 . S
O638 Mn612 2.094 . S
O638 C616 1.240 . S
O639 Mn613 2.117 . S
O639 C616 1.264 . S
C640 C633 1.403 . S
C640 C641 1.399 . S
C640 H646 0.929 . S
C641 C621 1.449 . S
C641 C640 1.399 . S
C641 H647 0.930 . S
H642 C622 0.931 . S
H643 C623 0.930 . S
H644 C631 0.931 . S
H645 C632 0.929 . S
H646 C640 0.929 . S
H647 C641 0.930 . S
Mn648 O653 2.095 . S
Mn648 O663 2.162 . S
Mn648 O664 2.297 . S
Mn648 O672 2.385 . S
Mn648 O673 2.209 . S
Mn648 O674 2.094 . S
Mn649 O654 2.121 . S
Mn649 N656 2.257 . S
Mn649 N665 2.282 . S
Mn649 O673 2.215 . S
Mn649 O675 2.117 . S
C650 O672 1.234 . S
C650 O673 1.283 . S
C651 O663 1.281 . S
C651 O664 1.236 . S
C652 O674 1.240 . S
C652 O675 1.264 . S
O653 Mn648 2.095 . S
O653 C662 1.250 . S
O654 Mn649 2.121 . S
O654 C662 1.258 . S
C655 N656 1.326 . S
C655 C659 1.460 . S
C655 H661 0.929 . S
N656 Mn649 2.257 . S
N656 C655 1.326 . S
N656 C660 1.362 . S
C657 C658 1.258 . S
C657 C660 1.431 . S
C657 C677 1.449 . S
C658 C657 1.258 . S
C658 C659 1.477 . S
C658 H678 0.931 . S
C659 C655 1.460 . S
C659 C658 1.477 . S
C659 H679 0.930 . S
C660 N656 1.362 . S
C660 C657 1.431 . S
C660 C670 1.476 . S
H661 C655 0.929 . S
C662 O653 1.250 . S
C662 O654 1.258 . S
O663 Mn648 2.162 . S
O663 C651 1.281 . S
O664 Mn648 2.297 . S
O664 C651 1.236 . S
N665 Mn649 2.282 . S
N665 C666 1.328 . S
N665 C670 1.318 . S
C666 N665 1.328 . S
C666 C667 1.457 . S
C666 H671 0.929 . S
C667 C666 1.457 . S
C667 C668 1.291 . S
C667 H680 0.931 . S
C668 C667 1.291 . S
C668 C669 1.373 . S
C668 H681 0.929 . S
C669 C668 1.373 . S
C669 C670 1.396 . S
C669 C676 1.403 . S
C670 C660 1.476 . S
C670 N665 1.318 . S
C670 C669 1.396 . S
H671 C666 0.929 . S
O672 Mn648 2.385 . S
O672 C650 1.234 . S
O673 Mn648 2.209 . S
O673 Mn649 2.215 . S
O673 C650 1.283 . S
O674 Mn648 2.094 . S
O674 C652 1.240 . S
O675 Mn649 2.117 . S
O675 C652 1.264 . S
C676 C669 1.403 . S
C676 C677 1.399 . S
C676 H682 0.929 . S
C677 C657 1.449 . S
C677 C676 1.399 . S
C677 H683 0.930 . S
H678 C658 0.931 . S
H679 C659 0.930 . S
H680 C667 0.931 . S
H681 C668 0.929 . S
H682 C676 0.929 . S
H683 C677 0.930 . S
Mn684 O689 2.095 1_545 S
Mn684 O699 2.162 . S
Mn684 O700 2.297 . S
Mn684 O708 2.385 . S
Mn684 O709 2.209 . S
Mn684 O710 2.094 . S
Mn685 O690 2.121 . S
Mn685 N692 2.257 . S
Mn685 N701 2.282 . S
Mn685 O709 2.215 . S
Mn685 O711 2.117 . S
C686 O708 1.234 . S
C686 O709 1.283 . S
C687 O699 1.281 . S
C687 O700 1.236 . S
C688 O710 1.240 . S
C688 O711 1.264 . S
O689 Mn684 2.095 1_565 S
O689 C698 1.250 . S
O690 Mn685 2.121 . S
O690 C698 1.258 1_545 S
C691 N692 1.326 . S
C691 C695 1.460 . S
C691 H697 0.929 . S
N692 Mn685 2.257 . S
N692 C691 1.326 . S
N692 C696 1.362 . S
C693 C694 1.258 . S
C693 C696 1.431 . S
C693 C713 1.449 . S
C694 C693 1.258 . S
C694 C695 1.477 . S
C694 H714 0.931 . S
C695 C691 1.460 . S
C695 C694 1.477 . S
C695 H715 0.930 . S
C696 N692 1.362 . S
C696 C693 1.431 . S
C696 C706 1.476 . S
H697 C691 0.929 . S
C698 O689 1.250 . S
C698 O690 1.258 1_565 S
O699 Mn684 2.162 . S
O699 C687 1.281 . S
O700 Mn684 2.297 . S
O700 C687 1.236 . S
N701 Mn685 2.282 . S
N701 C702 1.328 . S
N701 C706 1.318 . S
C702 N701 1.328 . S
C702 C703 1.457 . S
C702 H707 0.929 . S
C703 C702 1.457 . S
C703 C704 1.291 . S
C703 H716 0.931 . S
C704 C703 1.291 . S
C704 C705 1.373 . S
C704 H717 0.929 . S
C705 C704 1.373 . S
C705 C706 1.396 . S
C705 C712 1.403 . S
C706 C696 1.476 . S
C706 N701 1.318 . S
C706 C705 1.396 . S
H707 C702 0.929 . S
O708 Mn684 2.385 . S
O708 C686 1.234 . S
O709 Mn684 2.209 . S
O709 Mn685 2.215 . S
O709 C686 1.283 . S
O710 Mn684 2.094 . S
O710 C688 1.240 . S
O711 Mn685 2.117 . S
O711 C688 1.264 . S
C712 C705 1.403 . S
C712 C713 1.399 . S
C712 H718 0.929 . S
C713 C693 1.449 . S
C713 C712 1.399 . S
C713 H719 0.930 . S
H714 C694 0.931 . S
H715 C695 0.930 . S
H716 C703 0.931 . S
H717 C704 0.929 . S
H718 C712 0.929 . S
H719 C713 0.930 . S
Mn720 O725 2.095 . S
Mn720 O735 2.162 . S
Mn720 O736 2.297 . S
Mn720 O744 2.385 . S
Mn720 O745 2.215 . S
Mn720 O746 2.094 1_554 S
Mn721 O726 2.121 . S
Mn721 N728 2.257 . S
Mn721 N737 2.282 . S
Mn721 O745 2.176 1_556 S
Mn721 O747 2.117 . S
C722 O744 1.234 . S
C722 O745 1.292 . S
C723 O735 1.281 . S
C723 O736 1.236 . S
C724 O746 1.240 . S
C724 O747 1.264 . S
O725 Mn720 2.095 . S
O725 C734 1.250 . S
O726 Mn721 2.121 . S
O726 C734 1.258 1_556 S
C727 N728 1.326 . S
C727 C731 1.460 . S
C727 H733 0.929 . S
N728 Mn721 2.257 . S
N728 C727 1.326 . S
N728 C732 1.362 . S
C729 C730 1.258 . S
C729 C732 1.431 . S
C729 C749 1.449 . S
C730 C729 1.258 . S
C730 C731 1.477 . S
C730 H750 0.931 . S
C731 C727 1.460 . S
C731 C730 1.477 . S
C731 H751 0.930 . S
C732 N728 1.362 . S
C732 C729 1.431 . S
C732 C742 1.476 . S
H733 C727 0.929 . S
C734 O725 1.250 . S
C734 O726 1.258 1_554 S
O735 Mn720 2.162 . S
O735 C723 1.281 . S
O736 Mn720 2.297 . S
O736 C723 1.236 . S
N737 Mn721 2.282 . S
N737 C738 1.328 . S
N737 C742 1.318 . S
C738 N737 1.328 . S
C738 C739 1.457 . S
C738 H743 0.929 . S
C739 C738 1.457 . S
C739 C740 1.291 . S
C739 H752 0.931 . S
C740 C739 1.291 . S
C740 C741 1.373 . S
C740 H753 0.929 . S
C741 C740 1.373 . S
C741 C742 1.396 . S
C741 C748 1.403 . S
C742 C732 1.476 . S
C742 N737 1.318 . S
C742 C741 1.396 . S
H743 C738 0.929 . S
O744 Mn720 2.385 . S
O744 C722 1.234 . S
O745 Mn720 2.215 . S
O745 Mn721 2.176 1_554 S
O745 C722 1.292 . S
O746 Mn720 2.094 1_556 S
O746 C724 1.240 . S
O747 Mn721 2.117 . S
O747 C724 1.264 . S
C748 C741 1.403 . S
C748 C749 1.399 . S
C748 H754 0.929 . S
C749 C729 1.449 . S
C749 C748 1.399 . S
C749 H755 0.930 . S
H750 C730 0.931 . S
H751 C731 0.930 . S
H752 C739 0.931 . S
H753 C740 0.929 . S
H754 C748 0.929 . S
H755 C749 0.930 . S
Mn756 O761 2.095 . S
Mn756 O771 2.162 . S
Mn756 O772 2.297 . S
Mn756 O780 2.385 . S
Mn756 O781 2.209 . S
Mn756 O782 2.094 . S
Mn757 O762 2.121 . S
Mn757 N764 2.257 . S
Mn757 N773 2.282 . S
Mn757 O781 2.215 . S
Mn757 O783 2.117 . S
C758 O780 1.234 . S
C758 O781 1.283 . S
C759 O771 1.281 . S
C759 O772 1.236 . S
C760 O782 1.240 . S
C760 O783 1.264 . S
O761 Mn756 2.095 . S
O761 C770 1.250 . S
O762 Mn757 2.121 . S
O762 C770 1.258 . S
C763 N764 1.326 . S
C763 C767 1.460 . S
C763 H769 0.929 . S
N764 Mn757 2.257 . S
N764 C763 1.326 . S
N764 C768 1.362 . S
C765 C766 1.258 . S
C765 C768 1.431 . S
C765 C785 1.449 . S
C766 C765 1.258 . S
C766 C767 1.477 . S
C766 H786 0.931 . S
C767 C763 1.460 . S
C767 C766 1.477 . S
C767 H787 0.930 . S
C768 N764 1.362 . S
C768 C765 1.431 . S
C768 C778 1.476 . S
H769 C763 0.929 . S
C770 O761 1.250 . S
C770 O762 1.258 . S
O771 Mn756 2.162 . S
O771 C759 1.281 . S
O772 Mn756 2.297 . S
O772 C759 1.236 . S
N773 Mn757 2.282 . S
N773 C774 1.328 . S
N773 C778 1.318 . S
C774 N773 1.328 . S
C774 C775 1.457 . S
C774 H779 0.929 . S
C775 C774 1.457 . S
C775 C776 1.291 . S
C775 H788 0.931 . S
C776 C775 1.291 . S
C776 C777 1.373 . S
C776 H789 0.929 . S
C777 C776 1.373 . S
C777 C778 1.396 . S
C777 C784 1.403 . S
C778 C768 1.476 . S
C778 N773 1.318 . S
C778 C777 1.396 . S
H779 C774 0.929 . S
O780 Mn756 2.385 . S
O780 C758 1.234 . S
O781 Mn756 2.209 . S
O781 Mn757 2.215 . S
O781 C758 1.283 . S
O782 Mn756 2.094 . S
O782 C760 1.240 . S
O783 Mn757 2.117 . S
O783 C760 1.264 . S
C784 C777 1.403 . S
C784 C785 1.399 . S
C784 H790 0.929 . S
C785 C765 1.449 . S
C785 C784 1.399 . S
C785 H791 0.930 . S
H786 C766 0.931 . S
H787 C767 0.930 . S
H788 C775 0.931 . S
H789 C776 0.929 . S
H790 C784 0.929 . S
H791 C785 0.930 . S
Mn792 O797 2.095 . S
Mn792 O807 2.162 . S
Mn792 O808 2.297 . S
Mn792 O816 2.385 . S
Mn792 O817 2.209 . S
Mn792 O818 2.094 . S
Mn793 O798 2.121 . S
Mn793 N800 2.257 . S
Mn793 N809 2.282 . S
Mn793 O817 2.215 . S
Mn793 O819 2.117 . S
C794 O816 1.234 . S
C794 O817 1.283 . S
C795 O807 1.281 . S
C795 O808 1.236 . S
C796 O818 1.240 . S
C796 O819 1.264 . S
O797 Mn792 2.095 . S
O797 C806 1.250 . S
O798 Mn793 2.121 . S
O798 C806 1.258 . S
C799 N800 1.326 . S
C799 C803 1.460 . S
C799 H805 0.929 . S
N800 Mn793 2.257 . S
N800 C799 1.326 . S
N800 C804 1.362 . S
C801 C802 1.258 . S
C801 C804 1.431 . S
C801 C821 1.449 . S
C802 C801 1.258 . S
C802 C803 1.477 . S
C802 H822 0.931 . S
C803 C799 1.460 . S
C803 C802 1.477 . S
C803 H823 0.930 . S
C804 N800 1.362 . S
C804 C801 1.431 . S
C804 C814 1.476 . S
H805 C799 0.929 . S
C806 O797 1.250 . S
C806 O798 1.258 . S
O807 Mn792 2.162 . S
O807 C795 1.281 . S
O808 Mn792 2.297 . S
O808 C795 1.236 . S
N809 Mn793 2.282 . S
N809 C810 1.328 . S
N809 C814 1.318 . S
C810 N809 1.328 . S
C810 C811 1.457 . S
C810 H815 0.929 . S
C811 C810 1.457 . S
C811 C812 1.291 . S
C811 H824 0.931 . S
C812 C811 1.291 . S
C812 C813 1.373 . S
C812 H825 0.929 . S
C813 C812 1.373 . S
C813 C814 1.396 . S
C813 C820 1.403 . S
C814 C804 1.476 . S
C814 N809 1.318 . S
C814 C813 1.396 . S
H815 C810 0.929 . S
O816 Mn792 2.385 . S
O816 C794 1.234 . S
O817 Mn792 2.209 . S
O817 Mn793 2.215 . S
O817 C794 1.283 . S
O818 Mn792 2.094 . S
O818 C796 1.240 . S
O819 Mn793 2.117 . S
O819 C796 1.264 . S
C820 C813 1.403 . S
C820 C821 1.399 . S
C820 H826 0.929 . S
C821 C801 1.449 . S
C821 C820 1.399 . S
C821 H827 0.930 . S
H822 C802 0.931 . S
H823 C803 0.930 . S
H824 C811 0.931 . S
H825 C812 0.929 . S
H826 C820 0.929 . S
H827 C821 0.930 . S
Mn828 O833 2.095 . S
Mn828 O843 2.162 . S
Mn828 O844 2.297 . S
Mn828 O852 2.385 . S
Mn828 O853 2.209 . S
Mn828 O854 2.094 . S
Mn829 O834 2.121 . S
Mn829 N836 2.257 . S
Mn829 N845 2.282 . S
Mn829 O853 2.215 . S
Mn829 O855 2.117 . S
C830 O852 1.234 . S
C830 O853 1.283 . S
C831 O843 1.281 . S
C831 O844 1.236 . S
C832 O854 1.240 . S
C832 O855 1.264 . S
O833 Mn828 2.095 . S
O833 C842 1.250 . S
O834 Mn829 2.121 . S
O834 C842 1.258 . S
C835 N836 1.326 . S
C835 C839 1.460 . S
C835 H841 0.929 . S
N836 Mn829 2.257 . S
N836 C835 1.326 . S
N836 C840 1.362 . S
C837 C838 1.258 . S
C837 C840 1.431 . S
C837 C857 1.449 . S
C838 C837 1.258 . S
C838 C839 1.477 . S
C838 H858 0.931 . S
C839 C835 1.460 . S
C839 C838 1.477 . S
C839 H859 0.930 . S
C840 N836 1.362 . S
C840 C837 1.431 . S
C840 C850 1.476 . S
H841 C835 0.929 . S
C842 O833 1.250 . S
C842 O834 1.258 . S
O843 Mn828 2.162 . S
O843 C831 1.281 . S
O844 Mn828 2.297 . S
O844 C831 1.236 . S
N845 Mn829 2.282 . S
N845 C846 1.328 . S
N845 C850 1.318 . S
C846 N845 1.328 . S
C846 C847 1.457 . S
C846 H851 0.929 . S
C847 C846 1.457 . S
C847 C848 1.291 . S
C847 H860 0.931 . S
C848 C847 1.291 . S
C848 C849 1.373 . S
C848 H861 0.929 . S
C849 C848 1.373 . S
C849 C850 1.396 . S
C849 C856 1.403 . S
C850 C840 1.476 . S
C850 N845 1.318 . S
C850 C849 1.396 . S
H851 C846 0.929 . S
O852 Mn828 2.385 . S
O852 C830 1.234 . S
O853 Mn828 2.209 . S
O853 Mn829 2.215 . S
O853 C830 1.283 . S
O854 Mn828 2.094 . S
O854 C832 1.240 . S
O855 Mn829 2.117 . S
O855 C832 1.264 . S
C856 C849 1.403 . S
C856 C857 1.399 . S
C856 H862 0.929 . S
C857 C837 1.449 . S
C857 C856 1.399 . S
C857 H863 0.930 . S
H858 C838 0.931 . S
H859 C839 0.930 . S
H860 C847 0.931 . S
H861 C848 0.929 . S
H862 C856 0.929 . S
H863 C857 0.930 . S
Dy864 O868 2.398 . S
Dy864 O869 2.491 1_556 S
Dy864 O870 2.403 . S
Dy864 O871 2.664 1_655 S
Dy864 O875 2.326 . S
Dy864 O879 2.310 1_556 S
Dy864 O880 2.351 1_546 S
C865 O876 1.201 . S
C865 O877 1.357 1_545 S
C866 O868 1.185 . S
C866 O869 1.355 1_556 S
Dy867 O871 2.310 1_554 S
Dy867 O874 2.351 . S
Dy867 O876 2.398 . S
Dy867 O877 2.491 1_545 S
Dy867 O878 2.403 . S
Dy867 O879 2.664 1_455 S
Dy867 O881 2.326 1_545 S
O868 Dy864 2.398 . S
O868 C866 1.185 . S
O869 Dy864 2.491 1_554 S
O869 C866 1.355 1_554 S
O870 Dy864 2.403 . S
O870 C872 1.254 1_655 S
O871 Dy864 2.664 1_455 S
O871 Dy867 2.310 1_556 S
O871 C872 1.268 . S
C872 O870 1.254 1_455 S
C872 O871 1.268 . S
C873 O878 1.254 . S
C873 O879 1.268 1_455 S
O874 Dy867 2.351 . S
O874 C882 1.249 1_554 S
O875 Dy864 2.326 . S
O875 C882 1.267 1_655 S
O876 C865 1.201 . S
O876 Dy867 2.398 . S
O877 C865 1.357 1_565 S
O877 Dy867 2.491 1_565 S
O878 Dy867 2.403 . S
O878 C873 1.254 . S
O879 Dy864 2.310 1_554 S
O879 Dy867 2.664 1_655 S
O879 C873 1.268 1_655 S
O880 Dy864 2.351 1_564 S
O880 C883 1.249 1_655 S
O881 Dy867 2.326 1_565 S
O881 C883 1.267 . S
C882 O874 1.249 1_556 S
C882 O875 1.267 1_455 S
C883 O880 1.249 1_455 S
C883 O881 1.267 . S
Dy884 O888 2.398 . S
Dy884 O889 2.491 . S
Dy884 O890 2.403 . S
Dy884 O891 2.664 . S
Dy884 O895 2.326 . S
Dy884 O899 2.310 . S
Dy884 O900 2.351 . S
C885 O896 1.185 . S
C885 O897 1.355 . S
C886 O888 1.185 . S
C886 O889 1.355 . S
Dy887 O891 2.310 . S
Dy887 O894 2.351 . S
Dy887 O896 2.398 . S
Dy887 O897 2.491 . S
Dy887 O898 2.403 . S
Dy887 O899 2.664 . S
Dy887 O901 2.326 . S
O888 Dy884 2.398 . S
O888 C886 1.185 . S
O889 Dy884 2.491 . S
O889 C886 1.355 . S
O890 Dy884 2.403 . S
O890 C892 1.254 . S
O891 Dy884 2.664 . S
O891 Dy887 2.310 . S
O891 C892 1.268 . S
C892 O890 1.254 . S
C892 O891 1.268 . S
C893 O898 1.254 . S
C893 O899 1.268 . S
O894 Dy887 2.351 . S
O894 C902 1.249 . S
O895 Dy884 2.326 . S
O895 C902 1.267 . S
O896 C885 1.185 . S
O896 Dy887 2.398 . S
O897 C885 1.355 . S
O897 Dy887 2.491 . S
O898 Dy887 2.403 . S
O898 C893 1.254 . S
O899 Dy884 2.310 . S
O899 Dy887 2.664 . S
O899 C893 1.268 . S
O900 Dy884 2.351 . S
O900 C903 1.249 . S
O901 Dy887 2.326 . S
O901 C903 1.267 . S
C902 O894 1.249 . S
C902 O895 1.267 . S
C903 O900 1.249 . S
C903 O901 1.267 . S
Dy904 O908 2.398 . S
Dy904 O909 2.491 . S
Dy904 O910 2.403 . S
Dy904 O911 2.664 . S
Dy904 O915 2.326 1_545 S
Dy904 O919 2.310 . S
Dy904 O920 2.351 . S
C905 O916 1.185 . S
C905 O917 1.355 . S
C906 O908 1.185 . S
C906 O909 1.355 . S
Dy907 O911 2.310 . S
Dy907 O914 2.351 1_545 S
Dy907 O916 2.398 . S
Dy907 O917 2.491 . S
Dy907 O918 2.403 . S
Dy907 O919 2.664 . S
Dy907 O921 2.326 . S
O908 Dy904 2.398 . S
O908 C906 1.185 . S
O909 Dy904 2.491 . S
O909 C906 1.355 . S
O910 Dy904 2.403 . S
O910 C912 1.254 . S
O911 Dy904 2.664 . S
O911 Dy907 2.310 . S
O911 C912 1.268 . S
C912 O910 1.254 . S
C912 O911 1.268 . S
C913 O918 1.254 . S
C913 O919 1.268 . S
O914 Dy907 2.351 1_565 S
O914 C922 1.249 . S
O915 Dy904 2.326 1_565 S
O915 C922 1.267 . S
O916 C905 1.185 . S
O916 Dy907 2.398 . S
O917 C905 1.355 . S
O917 Dy907 2.491 . S
O918 Dy907 2.403 . S
O918 C913 1.254 . S
O919 Dy904 2.310 . S
O919 Dy907 2.664 . S
O919 C913 1.268 . S
O920 Dy904 2.351 . S
O920 C923 1.249 . S
O921 Dy907 2.326 . S
O921 C923 1.267 . S
C922 O914 1.249 . S
C922 O915 1.267 . S
C923 O920 1.249 . S
C923 O921 1.267 . S
Dy924 O928 2.398 . S
Dy924 O929 2.491 . S
Dy924 O930 2.403 . S
Dy924 O931 2.664 . S
Dy924 O935 2.326 . S
Dy924 O939 2.310 . S
Dy924 O940 2.351 . S
C925 O936 1.185 . S
C925 O937 1.355 . S
C926 O928 1.185 . S
C926 O929 1.355 . S
Dy927 O931 2.310 . S
Dy927 O934 2.351 . S
Dy927 O936 2.398 . S
Dy927 O937 2.491 . S
Dy927 O938 2.403 . S
Dy927 O939 2.664 . S
Dy927 O941 2.326 . S
O928 Dy924 2.398 . S
O928 C926 1.185 . S
O929 Dy924 2.491 . S
O929 C926 1.355 . S
O930 Dy924 2.403 . S
O930 C932 1.254 . S
O931 Dy924 2.664 . S
O931 Dy927 2.310 . S
O931 C932 1.268 . S
C932 O930 1.254 . S
C932 O931 1.268 . S
C933 O938 1.254 . S
C933 O939 1.268 . S
O934 Dy927 2.351 . S
O934 C942 1.249 . S
O935 Dy924 2.326 . S
O935 C942 1.267 . S
O936 C925 1.185 . S
O936 Dy927 2.398 . S
O937 C925 1.355 . S
O937 Dy927 2.491 . S
O938 Dy927 2.403 . S
O938 C933 1.254 . S
O939 Dy924 2.310 . S
O939 Dy927 2.664 . S
O939 C933 1.268 . S
O940 Dy924 2.351 . S
O940 C943 1.249 . S
O941 Dy927 2.326 . S
O941 C943 1.267 . S
C942 O934 1.249 . S
C942 O935 1.267 . S
C943 O940 1.249 . S
C943 O941 1.267 . S
Dy944 O948 2.398 . S
Dy944 O949 2.491 1_455 S
Dy944 O950 2.403 . S
Dy944 O951 2.664 . S
Dy944 O955 2.326 . S
Dy944 O959 2.310 1_455 S
Dy944 O960 2.351 1_545 S
C945 O956 1.185 . S
C945 O957 1.355 . S
C946 O948 1.185 1_655 S
C946 O949 1.355 . S
Dy947 O951 2.310 . S
Dy947 O954 2.351 . S
Dy947 O956 2.398 . S
Dy947 O957 2.491 . S
Dy947 O958 2.403 1_455 S
Dy947 O959 2.664 1_455 S
Dy947 O961 2.326 1_545 S
O948 Dy944 2.398 . S
O948 C946 1.185 1_455 S
O949 Dy944 2.491 1_655 S
O949 C946 1.355 . S
O950 Dy944 2.403 . S
O950 C952 1.254 . S
O951 Dy944 2.664 . S
O951 Dy947 2.310 . S
O951 C952 1.268 . S
C952 O950 1.254 . S
C952 O951 1.268 . S
C953 O958 1.254 . S
C953 O959 1.268 . S
O954 Dy947 2.351 . S
O954 C962 1.249 . S
O955 Dy944 2.326 . S
O955 C962 1.267 . S
O956 C945 1.185 . S
O956 Dy947 2.398 . S
O957 C945 1.355 . S
O957 Dy947 2.491 . S
O958 Dy947 2.403 1_655 S
O958 C953 1.254 . S
O959 Dy944 2.310 1_655 S
O959 Dy947 2.664 1_655 S
O959 C953 1.268 . S
O960 Dy944 2.351 1_565 S
O960 C963 1.249 . S
O961 Dy947 2.326 1_565 S
O961 C963 1.267 . S
C962 O954 1.249 . S
C962 O955 1.267 . S
C963 O960 1.249 . S
C963 O961 1.267 . S
Dy964 O968 2.398 . S
Dy964 O969 2.491 . S
Dy964 O970 2.403 . S
Dy964 O971 2.664 . S
Dy964 O975 2.326 . S
Dy964 O979 2.310 . S
Dy964 O980 2.351 . S
C965 O976 1.185 . S
C965 O977 1.355 . S
C966 O968 1.185 . S
C966 O969 1.355 . S
Dy967 O971 2.310 . S
Dy967 O974 2.351 . S
Dy967 O976 2.398 . S
Dy967 O977 2.491 . S
Dy967 O978 2.403 . S
Dy967 O979 2.664 . S
Dy967 O981 2.326 . S
O968 Dy964 2.398 . S
O968 C966 1.185 . S
O969 Dy964 2.491 . S
O969 C966 1.355 . S
O970 Dy964 2.403 . S
O970 C972 1.254 . S
O971 Dy964 2.664 . S
O971 Dy967 2.310 . S
O971 C972 1.268 . S
C972 O970 1.254 . S
C972 O971 1.268 . S
C973 O978 1.254 . S
C973 O979 1.268 . S
O974 Dy967 2.351 . S
O974 C982 1.249 . S
O975 Dy964 2.326 . S
O975 C982 1.267 . S
O976 C965 1.185 . S
O976 Dy967 2.398 . S
O977 C965 1.355 . S
O977 Dy967 2.491 . S
O978 Dy967 2.403 . S
O978 C973 1.254 . S
O979 Dy964 2.310 . S
O979 Dy967 2.664 . S
O979 C973 1.268 . S
O980 Dy964 2.351 . S
O980 C983 1.249 . S
O981 Dy967 2.326 . S
O981 C983 1.267 . S
C982 O974 1.249 . S
C982 O975 1.267 . S
C983 O980 1.249 . S
C983 O981 1.267 . S
Dy984 O988 2.398 1_545 S
Dy984 O989 2.491 . S
Dy984 O990 2.403 1_545 S
Dy984 O991 2.664 1_554 S
Dy984 O995 2.326 . S
Dy984 O999 2.310 . S
Dy984 O1000 2.351 . S
C985 O996 1.185 . S
C985 O997 1.355 . S
C986 O988 1.185 1_545 S
C986 O989 1.355 . S
Dy987 O991 2.310 . S
Dy987 O994 2.351 . S
Dy987 O996 2.398 . S
Dy987 O997 2.491 . S
Dy987 O998 2.403 . S
Dy987 O999 2.664 1_556 S
Dy987 O1001 2.326 . S
O988 Dy984 2.398 1_565 S
O988 C986 1.185 1_565 S
O989 Dy984 2.491 . S
O989 C986 1.355 . S
O990 Dy984 2.403 1_565 S
O990 C992 1.254 . S
O991 Dy984 2.664 1_556 S
O991 Dy987 2.310 . S
O991 C992 1.268 1_546 S
C992 O990 1.254 . S
C992 O991 1.268 1_564 S
C993 O998 1.254 1_554 S
C993 O999 1.268 . S
O994 Dy987 2.351 . S
O994 C1002 1.249 1_556 S
O995 Dy984 2.326 . S
O995 C1002 1.267 . S
O996 C985 1.185 . S
O996 Dy987 2.398 . S
O997 C985 1.355 . S
O997 Dy987 2.491 . S
O998 Dy987 2.403 . S
O998 C993 1.254 1_556 S
O999 Dy984 2.310 . S
O999 Dy987 2.664 1_554 S
O999 C993 1.268 . S
O1000 Dy984 2.351 . S
O1000 C1003 1.249 . S
O1001 Dy987 2.326 . S
O1001 C1003 1.267 1_556 S
C1002 O994 1.249 1_554 S
C1002 O995 1.267 . S
C1003 O1000 1.249 . S
C1003 O1001 1.267 1_554 S
Dy1004 O1008 2.398 . S
Dy1004 O1009 2.491 . S
Dy1004 O1010 2.403 . S
Dy1004 O1011 2.664 . S
Dy1004 O1015 2.326 . S
Dy1004 O1019 2.310 . S
Dy1004 O1020 2.351 . S
C1005 O1016 1.185 . S
C1005 O1017 1.355 . S
C1006 O1008 1.185 . S
C1006 O1009 1.355 . S
Dy1007 O1011 2.310 . S
Dy1007 O1014 2.351 . S
Dy1007 O1016 2.398 . S
Dy1007 O1017 2.491 . S
Dy1007 O1018 2.403 . S
Dy1007 O1019 2.664 . S
Dy1007 O1021 2.326 . S
O1008 Dy1004 2.398 . S
O1008 C1006 1.185 . S
O1009 Dy1004 2.491 . S
O1009 C1006 1.355 . S
O1010 Dy1004 2.403 . S
O1010 C1012 1.254 . S
O1011 Dy1004 2.664 . S
O1011 Dy1007 2.310 . S
O1011 C1012 1.268 . S
C1012 O1010 1.254 . S
C1012 O1011 1.268 . S
C1013 O1018 1.254 . S
C1013 O1019 1.268 . S
O1014 Dy1007 2.351 . S
O1014 C1022 1.249 . S
O1015 Dy1004 2.326 . S
O1015 C1022 1.267 . S
O1016 C1005 1.185 . S
O1016 Dy1007 2.398 . S
O1017 C1005 1.355 . S
O1017 Dy1007 2.491 . S
O1018 Dy1007 2.403 . S
O1018 C1013 1.254 . S
O1019 Dy1004 2.310 . S
O1019 Dy1007 2.664 . S
O1019 C1013 1.268 . S
O1020 Dy1004 2.351 . S
O1020 C1023 1.249 . S
O1021 Dy1007 2.326 . S
O1021 C1023 1.267 . S
C1022 O1014 1.249 . S
C1022 O1015 1.267 . S
C1023 O1020 1.249 . S
C1023 O1021 1.267 . S
Dy1024 O1028 2.398 . S
Dy1024 O1029 2.491 . S
Dy1024 O1030 2.403 . S
Dy1024 O1031 2.664 1_556 S
Dy1024 O1035 2.326 . S
Dy1024 O1039 2.310 1_556 S
Dy1024 O1040 2.351 1_556 S
C1025 O1036 1.185 . S
C1025 O1037 1.355 . S
C1026 O1028 1.185 . S
C1026 O1029 1.355 . S
Dy1027 O1031 2.310 . S
Dy1027 O1034 2.351 . S
Dy1027 O1036 2.398 . S
Dy1027 O1037 2.491 . S
Dy1027 O1038 2.403 . S
Dy1027 O1039 2.664 . S
Dy1027 O1041 2.326 . S
O1028 Dy1024 2.398 . S
O1028 C1026 1.185 . S
O1029 Dy1024 2.491 . S
O1029 C1026 1.355 . S
O1030 Dy1024 2.403 . S
O1030 C1032 1.289 . S
O1031 Dy1024 2.664 1_554 S
O1031 Dy1027 2.310 . S
O1031 C1032 1.244 1_554 S
C1032 O1030 1.289 . S
C1032 O1031 1.244 1_556 S
C1033 O1038 1.254 . S
C1033 O1039 1.268 . S
O1034 Dy1027 2.351 . S
O1034 C1042 1.249 1_554 S
O1035 Dy1024 2.326 . S
O1035 C1042 1.267 . S
O1036 C1025 1.185 . S
O1036 Dy1027 2.398 . S
O1037 C1025 1.355 . S
O1037 Dy1027 2.491 . S
O1038 Dy1027 2.403 . S
O1038 C1033 1.254 . S
O1039 Dy1024 2.310 1_554 S
O1039 Dy1027 2.664 . S
O1039 C1033 1.268 . S
O1040 Dy1024 2.351 1_554 S
O1040 C1043 1.249 . S
O1041 Dy1027 2.326 . S
O1041 C1043 1.267 . S
C1042 O1034 1.249 1_556 S
C1042 O1035 1.267 . S
C1043 O1040 1.249 . S
C1043 O1041 1.267 . S
Dy1044 O1048 2.398 . S
Dy1044 O1049 2.491 . S
Dy1044 O1050 2.403 . S
Dy1044 O1051 2.664 . S
Dy1044 O1055 2.326 . S
Dy1044 O1059 2.310 . S
Dy1044 O1060 2.351 . S
C1045 O1056 1.185 . S
C1045 O1057 1.355 . S
C1046 O1048 1.185 . S
C1046 O1049 1.355 . S
Dy1047 O1051 2.310 . S
Dy1047 O1054 2.351 . S
Dy1047 O1056 2.398 . S
Dy1047 O1057 2.491 . S
Dy1047 O1058 2.403 . S
Dy1047 O1059 2.664 . S
Dy1047 O1061 2.326 . S
O1048 Dy1044 2.398 . S
O1048 C1046 1.185 . S
O1049 Dy1044 2.491 . S
O1049 C1046 1.355 . S
O1050 Dy1044 2.403 . S
O1050 C1052 1.254 . S
O1051 Dy1044 2.664 . S
O1051 Dy1047 2.310 . S
O1051 C1052 1.268 . S
C1052 O1050 1.254 . S
C1052 O1051 1.268 . S
C1053 O1058 1.254 . S
C1053 O1059 1.268 . S
O1054 Dy1047 2.351 . S
O1054 C1062 1.249 . S
O1055 Dy1044 2.326 . S
O1055 C1062 1.267 . S
O1056 C1045 1.185 . S
O1056 Dy1047 2.398 . S
O1057 C1045 1.355 . S
O1057 Dy1047 2.491 . S
O1058 Dy1047 2.403 . S
O1058 C1053 1.254 . S
O1059 Dy1044 2.310 . S
O1059 Dy1047 2.664 . S
O1059 C1053 1.268 . S
O1060 Dy1044 2.351 . S
O1060 C1063 1.249 . S
O1061 Dy1047 2.326 . S
O1061 C1063 1.267 . S
C1062 O1054 1.249 . S
C1062 O1055 1.267 . S
C1063 O1060 1.249 . S
C1063 O1061 1.267 . S
Dy1064 O1068 2.398 . S
Dy1064 O1069 2.491 1_455 S
Dy1064 O1070 2.403 . S
Dy1064 O1071 2.664 . S
Dy1064 O1075 2.326 1_455 S
Dy1064 O1079 2.310 . S
Dy1064 O1080 2.351 . S
C1065 O1076 1.185 . S
C1065 O1077 1.355 . S
C1066 O1068 1.185 1_655 S
C1066 O1069 1.355 . S
Dy1067 O1071 2.310 . S
Dy1067 O1074 2.351 1_455 S
Dy1067 O1076 2.398 . S
Dy1067 O1077 2.491 . S
Dy1067 O1078 2.403 . S
Dy1067 O1079 2.664 . S
Dy1067 O1081 2.326 . S
O1068 Dy1064 2.398 . S
O1068 C1066 1.185 1_455 S
O1069 Dy1064 2.491 1_655 S
O1069 C1066 1.355 . S
O1070 Dy1064 2.403 . S
O1070 C1072 1.254 . S
O1071 Dy1064 2.664 . S
O1071 Dy1067 2.310 . S
O1071 C1072 1.268 . S
C1072 O1070 1.254 . S
C1072 O1071 1.268 . S
C1073 O1078 1.254 . S
C1073 O1079 1.268 . S
O1074 Dy1067 2.351 1_655 S
O1074 C1082 1.249 . S
O1075 Dy1064 2.326 1_655 S
O1075 C1082 1.267 . S
O1076 C1065 1.185 . S
O1076 Dy1067 2.398 . S
O1077 C1065 1.355 . S
O1077 Dy1067 2.491 . S
O1078 Dy1067 2.403 . S
O1078 C1073 1.254 . S
O1079 Dy1064 2.310 . S
O1079 Dy1067 2.664 . S
O1079 C1073 1.268 . S
O1080 Dy1064 2.351 . S
O1080 C1083 1.249 . S
O1081 Dy1067 2.326 . S
O1081 C1083 1.267 . S
C1082 O1074 1.249 . S
C1082 O1075 1.267 . S
C1083 O1080 1.249 . S
C1083 O1081 1.267 . S
Dy1084 O1088 2.398 . S
Dy1084 O1089 2.491 . S
Dy1084 O1090 2.403 . S
Dy1084 O1091 2.664 . S
Dy1084 O1095 2.326 . S
Dy1084 O1099 2.310 . S
Dy1084 O1100 2.351 . S
C1085 O1096 1.185 . S
C1085 O1097 1.355 . S
C1086 O1088 1.185 . S
C1086 O1089 1.355 . S
Dy1087 O1091 2.310 . S
Dy1087 O1094 2.351 . S
Dy1087 O1096 2.398 . S
Dy1087 O1097 2.491 . S
Dy1087 O1098 2.403 . S
Dy1087 O1099 2.664 . S
Dy1087 O1101 2.326 . S
O1088 Dy1084 2.398 . S
O1088 C1086 1.185 . S
O1089 Dy1084 2.491 . S
O1089 C1086 1.355 . S
O1090 Dy1084 2.403 . S
O1090 C1092 1.254 . S
O1091 Dy1084 2.664 . S
O1091 Dy1087 2.310 . S
O1091 C1092 1.268 . S
C1092 O1090 1.254 . S
C1092 O1091 1.268 . S
C1093 O1098 1.254 . S
C1093 O1099 1.268 . S
O1094 Dy1087 2.351 . S
O1094 C1102 1.249 . S
O1095 Dy1084 2.326 . S
O1095 C1102 1.267 . S
O1096 C1085 1.185 . S
O1096 Dy1087 2.398 . S
O1097 C1085 1.355 . S
O1097 Dy1087 2.491 . S
O1098 Dy1087 2.403 . S
O1098 C1093 1.254 . S
O1099 Dy1084 2.310 . S
O1099 Dy1087 2.664 . S
O1099 C1093 1.268 . S
O1100 Dy1084 2.351 . S
O1100 C1103 1.249 . S
O1101 Dy1087 2.326 . S
O1101 C1103 1.267 . S
C1102 O1094 1.249 . S
C1102 O1095 1.267 . S
C1103 O1100 1.249 . S
C1103 O1101 1.267 . S
Dy1104 O1108 2.398 . S
Dy1104 O1109 2.491 . S
Dy1104 O1110 2.403 . S
Dy1104 O1111 2.664 . S
Dy1104 O1115 2.326 . S
Dy1104 O1119 2.310 . S
Dy1104 O1120 2.351 . S
C1105 O1116 1.185 . S
C1105 O1117 1.355 . S
C1106 O1108 1.185 . S
C1106 O1109 1.355 . S
Dy1107 O1111 2.310 . S
Dy1107 O1114 2.351 . S
Dy1107 O1116 2.398 . S
Dy1107 O1117 2.491 . S
Dy1107 O1118 2.403 . S
Dy1107 O1119 2.664 . S
Dy1107 O1121 2.326 . S
O1108 Dy1104 2.398 . S
O1108 C1106 1.185 . S
O1109 Dy1104 2.491 . S
O1109 C1106 1.355 . S
O1110 Dy1104 2.403 . S
O1110 C1112 1.254 . S
O1111 Dy1104 2.664 . S
O1111 Dy1107 2.310 . S
O1111 C1112 1.268 . S
C1112 O1110 1.254 . S
C1112 O1111 1.268 . S
C1113 O1118 1.254 . S
C1113 O1119 1.268 . S
O1114 Dy1107 2.351 . S
O1114 C1122 1.249 . S
O1115 Dy1104 2.326 . S
O1115 C1122 1.267 . S
O1116 C1105 1.185 . S
O1116 Dy1107 2.398 . S
O1117 C1105 1.355 . S
O1117 Dy1107 2.491 . S
O1118 Dy1107 2.403 . S
O1118 C1113 1.254 . S
O1119 Dy1104 2.310 . S
O1119 Dy1107 2.664 . S
O1119 C1113 1.268 . S
O1120 Dy1104 2.351 . S
O1120 C1123 1.249 . S
O1121 Dy1107 2.326 . S
O1121 C1123 1.267 . S
C1122 O1114 1.249 . S
C1122 O1115 1.267 . S
C1123 O1120 1.249 . S
C1123 O1121 1.267 . S
Dy1124 O1128 2.398 . S
Dy1124 O1129 2.491 . S
Dy1124 O1130 2.403 . S
Dy1124 O1131 2.664 . S
Dy1124 O1135 2.326 . S
Dy1124 O1139 2.310 . S
Dy1124 O1140 2.351 . S
C1125 O1136 1.185 . S
C1125 O1137 1.355 . S
C1126 O1128 1.185 . S
C1126 O1129 1.355 . S
Dy1127 O1131 2.310 . S
Dy1127 O1134 2.351 . S
Dy1127 O1136 2.398 . S
Dy1127 O1137 2.491 . S
Dy1127 O1138 2.403 . S
Dy1127 O1139 2.664 . S
Dy1127 O1141 2.326 . S
O1128 Dy1124 2.398 . S
O1128 C1126 1.185 . S
O1129 Dy1124 2.491 . S
O1129 C1126 1.355 . S
O1130 Dy1124 2.403 . S
O1130 C1132 1.254 . S
O1131 Dy1124 2.664 . S
O1131 Dy1127 2.310 . S
O1131 C1132 1.268 . S
C1132 O1130 1.254 . S
C1132 O1131 1.268 . S
C1133 O1138 1.254 . S
C1133 O1139 1.268 . S
O1134 Dy1127 2.351 . S
O1134 C1142 1.249 . S
O1135 Dy1124 2.326 . S
O1135 C1142 1.267 . S
O1136 C1125 1.185 . S
O1136 Dy1127 2.398 . S
O1137 C1125 1.355 . S
O1137 Dy1127 2.491 . S
O1138 Dy1127 2.403 . S
O1138 C1133 1.254 . S
O1139 Dy1124 2.310 . S
O1139 Dy1127 2.664 . S
O1139 C1133 1.268 . S
O1140 Dy1124 2.351 . S
O1140 C1143 1.249 . S
O1141 Dy1127 2.326 . S
O1141 C1143 1.267 . S
C1142 O1134 1.249 . S
C1142 O1135 1.267 . S
C1143 O1140 1.249 . S
C1143 O1141 1.267 . S
Dy1144 O1148 2.398 . S
Dy1144 O1149 2.491 . S
Dy1144 O1150 2.403 . S
Dy1144 O1151 2.664 . S
Dy1144 O1155 2.326 . S
Dy1144 O1159 2.310 . S
Dy1144 O1160 2.351 . S
C1145 O1156 1.185 . S
C1145 O1157 1.355 . S
C1146 O1148 1.185 . S
C1146 O1149 1.355 . S
Dy1147 O1151 2.310 . S
Dy1147 O1154 2.351 . S
Dy1147 O1156 2.398 . S
Dy1147 O1157 2.491 . S
Dy1147 O1158 2.403 . S
Dy1147 O1159 2.664 . S
Dy1147 O1161 2.326 . S
O1148 Dy1144 2.398 . S
O1148 C1146 1.185 . S
O1149 Dy1144 2.491 . S
O1149 C1146 1.355 . S
O1150 Dy1144 2.403 . S
O1150 C1152 1.254 . S
O1151 Dy1144 2.664 . S
O1151 Dy1147 2.310 . S
O1151 C1152 1.268 . S
C1152 O1150 1.254 . S
C1152 O1151 1.268 . S
C1153 O1158 1.254 . S
C1153 O1159 1.268 . S
O1154 Dy1147 2.351 . S
O1154 C1162 1.249 . S
O1155 Dy1144 2.326 . S
O1155 C1162 1.267 . S
O1156 C1145 1.185 . S
O1156 Dy1147 2.398 . S
O1157 C1145 1.355 . S
O1157 Dy1147 2.491 . S
O1158 Dy1147 2.403 . S
O1158 C1153 1.254 . S
O1159 Dy1144 2.310 . S
O1159 Dy1147 2.664 . S
O1159 C1153 1.268 . S
O1160 Dy1144 2.351 . S
O1160 C1163 1.249 . S
O1161 Dy1147 2.326 . S
O1161 C1163 1.267 . S
C1162 O1154 1.249 . S
C1162 O1155 1.267 . S
C1163 O1160 1.249 . S
C1163 O1161 1.267 . S
Dy1164 O1168 2.398 . S
Dy1164 O1169 2.491 1_556 S
Dy1164 O1170 2.403 . S
Dy1164 O1171 2.664 . S
Dy1164 O1175 2.326 . S
Dy1164 O1179 2.310 1_556 S
Dy1164 O1180 2.351 1_556 S
C1165 O1176 1.185 . S
C1165 O1177 1.355 . S
C1166 O1168 1.185 . S
C1166 O1169 1.355 1_556 S
Dy1167 O1171 2.310 1_654 S
Dy1167 O1174 2.351 . S
Dy1167 O1176 2.398 . S
Dy1167 O1177 2.491 . S
Dy1167 O1178 2.403 . S
Dy1167 O1179 2.664 1_655 S
Dy1167 O1181 2.326 1_655 S
O1168 Dy1164 2.398 . S
O1168 C1166 1.185 . S
O1169 Dy1164 2.491 1_554 S
O1169 C1166 1.355 1_554 S
O1170 Dy1164 2.403 . S
O1170 C1172 1.254 . S
O1171 Dy1164 2.664 . S
O1171 Dy1167 2.310 1_456 S
O1171 C1172 1.268 . S
C1172 O1170 1.254 . S
C1172 O1171 1.268 . S
C1173 O1178 1.254 1_455 S
C1173 O1179 1.268 . S
O1174 Dy1167 2.351 . S
O1174 C1182 1.249 1_654 S
O1175 Dy1164 2.326 . S
O1175 C1182 1.267 . S
O1176 C1165 1.185 . S
O1176 Dy1167 2.398 . S
O1177 C1165 1.355 . S
O1177 Dy1167 2.491 . S
O1178 Dy1167 2.403 . S
O1178 C1173 1.254 1_655 S
O1179 Dy1164 2.310 1_554 S
O1179 Dy1167 2.664 1_455 S
O1179 C1173 1.268 . S
O1180 Dy1164 2.351 1_554 S
O1180 C1183 1.249 . S
O1181 Dy1167 2.326 1_455 S
O1181 C1183 1.267 . S
C1182 O1174 1.249 1_456 S
C1182 O1175 1.267 . S
C1183 O1180 1.249 . S
C1183 O1181 1.267 . S
H1184 C1190 0.930 . S
H1185 C1194 0.930 . S
H1186 C1199 0.929 . S
H1187 C1197 0.929 . S
H1188 C1192 0.929 . S
H1189 C1198 0.929 . S
C1190 H1184 0.930 . S
C1190 C1191 1.367 1_455 S
C1190 C1198 1.378 . S
C1191 C1190 1.367 1_655 S
C1191 C1199 1.433 . S
C1192 H1188 0.929 . S
C1192 C1194 1.378 . S
C1192 C1196 1.350 1_655 S
C1193 C1196 1.463 . S
C1193 C1198 1.350 . S
C1193 N1201 1.427 1_455 S
C1194 H1185 0.930 . S
C1194 C1192 1.378 . S
C1194 C1195 1.367 1_655 S
C1195 C1194 1.367 1_455 S
C1195 C1197 1.433 . S
C1196 C1192 1.350 1_455 S
C1196 C1193 1.463 . S
C1196 N1200 1.427 . S
C1197 H1187 0.929 . S
C1197 C1195 1.433 . S
C1197 N1200 1.384 . S
C1198 H1189 0.929 . S
C1198 C1190 1.378 . S
C1198 C1193 1.350 . S
C1199 H1186 0.929 . S
C1199 C1191 1.433 . S
C1199 N1201 1.384 . S
N1200 C1196 1.427 . S
N1200 C1197 1.384 . S
N1201 C1193 1.427 1_655 S
N1201 C1199 1.384 . S
H1202 C1208 0.930 . S
H1203 C1212 0.930 . S
H1204 C1217 0.929 . S
H1205 C1215 0.929 . S
H1206 C1210 0.929 . S
H1207 C1216 0.929 . S
C1208 H1202 0.930 . S
C1208 C1209 1.367 . S
C1208 C1216 1.378 . S
C1209 C1208 1.367 . S
C1209 C1217 1.433 . S
C1210 H1206 0.929 . S
C1210 C1212 1.378 . S
C1210 C1214 1.350 . S
C1211 C1214 1.463 . S
C1211 C1216 1.350 . S
C1211 N1219 1.427 . S
C1212 H1203 0.930 . S
C1212 C1210 1.378 . S
C1212 C1213 1.367 . S
C1213 C1212 1.367 . S
C1213 C1215 1.433 . S
C1214 C1210 1.350 . S
C1214 C1211 1.463 . S
C1214 N1218 1.427 . S
C1215 H1205 0.929 . S
C1215 C1213 1.433 . S
C1215 N1218 1.384 . S
C1216 H1207 0.929 . S
C1216 C1208 1.378 . S
C1216 C1211 1.350 . S
C1217 H1204 0.929 . S
C1217 C1209 1.433 . S
C1217 N1219 1.384 . S
N1218 C1214 1.427 . S
N1218 C1215 1.384 . S
N1219 C1211 1.427 . S
N1219 C1217 1.384 . S
H1220 C1226 0.930 . S
H1221 C1230 0.930 . S
H1222 C1235 0.929 . S
H1223 C1233 0.929 . S
H1224 C1228 0.929 . S
H1225 C1234 0.929 . S
C1226 H1220 0.930 . S
C1226 C1227 1.367 . S
C1226 C1234 1.378 . S
C1227 C1226 1.367 . S
C1227 C1235 1.433 . S
C1228 H1224 0.929 . S
C1228 C1230 1.378 . S
C1228 C1232 1.350 . S
C1229 C1232 1.463 . S
C1229 C1234 1.350 . S
C1229 N1237 1.427 . S
C1230 H1221 0.930 . S
C1230 C1228 1.378 . S
C1230 C1231 1.367 . S
C1231 C1230 1.367 . S
C1231 C1233 1.433 . S
C1232 C1228 1.350 . S
C1232 C1229 1.463 . S
C1232 N1236 1.427 . S
C1233 H1223 0.929 . S
C1233 C1231 1.433 . S
C1233 N1236 1.384 . S
C1234 H1225 0.929 . S
C1234 C1226 1.378 . S
C1234 C1229 1.350 . S
C1235 H1222 0.929 . S
C1235 C1227 1.433 . S
C1235 N1237 1.384 . S
N1236 C1232 1.427 . S
N1236 C1233 1.384 . S
N1237 C1229 1.427 . S
N1237 C1235 1.384 . S
H1238 C1244 0.930 . S
H1239 C1248 0.930 . S
H1240 C1253 0.929 . S
H1241 C1251 0.929 . S
H1242 C1246 0.929 . S
H1243 C1252 0.929 . S
C1244 H1238 0.930 . S
C1244 C1245 1.367 . S
C1244 C1252 1.378 . S
C1245 C1244 1.367 . S
C1245 C1253 1.433 . S
C1246 H1242 0.929 . S
C1246 C1248 1.378 . S
C1246 C1250 1.350 . S
C1247 C1250 1.463 . S
C1247 C1252 1.350 . S
C1247 N1255 1.427 . S
C1248 H1239 0.930 . S
C1248 C1246 1.378 . S
C1248 C1249 1.367 . S
C1249 C1248 1.367 . S
C1249 C1251 1.433 . S
C1250 C1246 1.350 . S
C1250 C1247 1.463 . S
C1250 N1254 1.427 . S
C1251 H1241 0.929 . S
C1251 C1249 1.433 . S
C1251 N1254 1.384 . S
C1252 H1243 0.929 . S
C1252 C1244 1.378 . S
C1252 C1247 1.350 . S
C1253 H1240 0.929 . S
C1253 C1245 1.433 . S
C1253 N1255 1.384 . S
N1254 C1250 1.427 . S
N1254 C1251 1.384 . S
N1255 C1247 1.427 . S
N1255 C1253 1.384 . S
H1256 C1262 0.930 . S
H1257 C1266 0.930 . S
H1258 C1271 0.933 . S
H1259 C1269 0.929 . S
H1260 C1264 0.929 . S
H1261 C1270 0.929 . S
C1262 H1256 0.930 . S
C1262 C1263 1.367 . S
C1262 C1270 1.378 . S
C1263 C1262 1.367 . S
C1263 C1271 1.433 . S
C1264 H1260 0.929 . S
C1264 C1266 1.378 . S
C1264 C1268 1.350 . S
C1265 C1268 1.463 . S
C1265 C1270 1.350 . S
C1265 N1273 1.427 . S
C1266 H1257 0.930 . S
C1266 C1264 1.378 . S
C1266 C1267 1.367 . S
C1267 C1266 1.367 . S
C1267 C1269 1.433 . S
C1268 C1264 1.350 . S
C1268 C1265 1.463 . S
C1268 N1272 1.427 . S
C1269 H1259 0.929 . S
C1269 C1267 1.433 . S
C1269 N1272 1.384 . S
C1270 H1261 0.929 . S
C1270 C1262 1.378 . S
C1270 C1265 1.350 . S
C1271 H1258 0.933 . S
C1271 C1263 1.433 . S
C1271 N1273 1.384 . S
N1272 C1268 1.427 . S
N1272 C1269 1.384 . S
N1273 C1265 1.427 . S
N1273 C1271 1.384 . S
H1274 C1280 0.930 . S
H1275 C1284 0.930 . S
H1276 C1289 0.929 . S
H1277 C1287 0.929 . S
H1278 C1282 0.929 . S
H1279 C1288 0.929 . S
C1280 H1274 0.930 . S
C1280 C1281 1.367 . S
C1280 C1288 1.378 . S
C1281 C1280 1.367 . S
C1281 C1289 1.433 . S
C1282 H1278 0.929 . S
C1282 C1284 1.378 . S
C1282 C1286 1.350 . S
C1283 C1286 1.463 . S
C1283 C1288 1.350 . S
C1283 N1291 1.427 . S
C1284 H1275 0.930 . S
C1284 C1282 1.378 . S
C1284 C1285 1.367 . S
C1285 C1284 1.367 . S
C1285 C1287 1.433 . S
C1286 C1282 1.350 . S
C1286 C1283 1.463 . S
C1286 N1290 1.427 . S
C1287 H1277 0.929 . S
C1287 C1285 1.433 . S
C1287 N1290 1.384 . S
C1288 H1279 0.929 . S
C1288 C1280 1.378 . S
C1288 C1283 1.350 . S
C1289 H1276 0.929 . S
C1289 C1281 1.433 . S
C1289 N1291 1.384 . S
N1290 C1286 1.427 . S
N1290 C1287 1.384 . S
N1291 C1283 1.427 . S
N1291 C1289 1.384 . S
H1292 C1298 0.930 . S
H1293 C1302 0.930 . S
H1294 C1307 0.929 . S
H1295 C1305 0.929 . S
H1296 C1300 0.929 . S
H1297 C1306 0.929 . S
C1298 H1292 0.930 . S
C1298 C1299 1.367 . S
C1298 C1306 1.378 . S
C1299 C1298 1.367 . S
C1299 C1307 1.433 . S
C1300 H1296 0.929 . S
C1300 C1302 1.378 . S
C1300 C1304 1.350 . S
C1301 C1304 1.463 . S
C1301 C1306 1.350 . S
C1301 N1309 1.427 . S
C1302 H1293 0.930 . S
C1302 C1300 1.378 . S
C1302 C1303 1.367 . S
C1303 C1302 1.367 . S
C1303 C1305 1.433 . S
C1304 C1300 1.350 . S
C1304 C1301 1.463 . S
C1304 N1308 1.427 . S
C1305 H1295 0.929 . S
C1305 C1303 1.433 . S
C1305 N1308 1.384 . S
C1306 H1297 0.929 . S
C1306 C1298 1.378 . S
C1306 C1301 1.350 . S
C1307 H1294 0.929 . S
C1307 C1299 1.433 . S
C1307 N1309 1.384 . S
N1308 C1304 1.427 . S
N1308 C1305 1.384 . S
N1309 C1301 1.427 . S
N1309 C1307 1.384 . S
H1310 C1316 0.930 . S
H1311 C1320 0.930 . S
H1312 C1325 0.929 . S
H1313 C1323 0.929 . S
H1314 C1318 0.929 . S
H1315 C1324 0.929 . S
C1316 H1310 0.930 . S
C1316 C1317 1.367 . S
C1316 C1324 1.378 . S
C1317 C1316 1.367 . S
C1317 C1325 1.433 . S
C1318 H1314 0.929 . S
C1318 C1320 1.378 . S
C1318 C1322 1.350 . S
C1319 C1322 1.463 . S
C1319 C1324 1.350 . S
C1319 N1327 1.427 . S
C1320 H1311 0.930 . S
C1320 C1318 1.378 . S
C1320 C1321 1.367 . S
C1321 C1320 1.367 . S
C1321 C1323 1.433 . S
C1322 C1318 1.350 . S
C1322 C1319 1.463 . S
C1322 N1326 1.427 . S
C1323 H1313 0.929 . S
C1323 C1321 1.433 . S
C1323 N1326 1.384 . S
C1324 H1315 0.929 . S
C1324 C1316 1.378 . S
C1324 C1319 1.350 . S
C1325 H1312 0.929 . S
C1325 C1317 1.433 . S
C1325 N1327 1.384 . S
N1326 C1322 1.427 . S
N1326 C1323 1.384 . S
N1327 C1319 1.427 . S
N1327 C1325 1.384 . S
H1328 C1334 0.930 . S
H1329 C1338 0.930 1_455 S
H1330 C1343 0.929 . S
H1331 C1341 0.949 . S
H1332 C1336 0.929 . S
H1333 C1342 0.929 . S
C1334 H1328 0.930 . S
C1334 C1335 1.367 . S
C1334 C1342 1.378 . S
C1335 C1334 1.367 . S
C1335 C1343 1.433 . S
C1336 H1332 0.929 . S
C1336 C1338 1.378 . S
C1336 C1340 1.350 . S
C1337 C1340 1.463 . S
C1337 C1342 1.350 . S
C1337 N1345 1.427 . S
C1338 H1329 0.930 1_655 S
C1338 C1336 1.378 . S
C1338 C1339 1.367 . S
C1339 C1338 1.367 . S
C1339 C1341 1.433 . S
C1340 C1336 1.350 . S
C1340 C1337 1.463 . S
C1340 N1344 1.427 . S
C1341 H1331 0.949 . S
C1341 C1339 1.433 . S
C1341 N1344 1.384 . S
C1342 H1333 0.929 . S
C1342 C1334 1.378 . S
C1342 C1337 1.350 . S
C1343 H1330 0.929 . S
C1343 C1335 1.433 . S
C1343 N1345 1.384 . S
N1344 C1340 1.427 . S
N1344 C1341 1.384 . S
N1345 C1337 1.427 . S
N1345 C1343 1.384 . S
H1346 C1352 0.930 . S
H1347 C1356 0.930 . S
H1348 C1361 0.929 . S
H1349 C1359 0.929 . S
H1350 C1354 0.929 . S
H1351 C1360 0.929 . S
C1352 H1346 0.930 . S
C1352 C1353 1.367 . S
C1352 C1360 1.378 . S
C1353 C1352 1.367 . S
C1353 C1361 1.433 . S
C1354 H1350 0.929 . S
C1354 C1356 1.378 . S
C1354 C1358 1.350 . S
C1355 C1358 1.463 . S
C1355 C1360 1.350 . S
C1355 N1363 1.427 . S
C1356 H1347 0.930 . S
C1356 C1354 1.378 . S
C1356 C1357 1.367 . S
C1357 C1356 1.367 . S
C1357 C1359 1.433 . S
C1358 C1354 1.350 . S
C1358 C1355 1.463 . S
C1358 N1362 1.427 . S
C1359 H1349 0.929 . S
C1359 C1357 1.433 . S
C1359 N1362 1.384 . S
C1360 H1351 0.929 . S
C1360 C1352 1.378 . S
C1360 C1355 1.350 . S
C1361 H1348 0.929 . S
C1361 C1353 1.433 . S
C1361 N1363 1.384 . S
N1362 C1358 1.427 . S
N1362 C1359 1.384 . S
N1363 C1355 1.427 . S
N1363 C1361 1.384 . S
H1364 C1370 0.930 1_565 S
H1365 C1374 0.930 . S
H1366 C1379 0.929 . S
H1367 C1377 0.929 1_565 S
H1368 C1372 0.929 . S
H1369 C1378 0.929 1_565 S
C1370 H1364 0.930 1_545 S
C1370 C1371 1.367 . S
C1370 C1378 1.378 . S
C1371 C1370 1.367 . S
C1371 C1379 1.433 . S
C1372 H1368 0.929 . S
C1372 C1374 1.378 . S
C1372 C1376 1.350 . S
C1373 C1376 1.463 . S
C1373 C1378 1.350 . S
C1373 N1381 1.427 . S
C1374 H1365 0.930 . S
C1374 C1372 1.378 . S
C1374 C1375 1.367 . S
C1375 C1374 1.367 . S
C1375 C1377 1.433 . S
C1376 C1372 1.350 . S
C1376 C1373 1.463 . S
C1376 N1380 1.427 . S
C1377 H1367 0.929 1_545 S
C1377 C1375 1.433 . S
C1377 N1380 1.384 . S
C1378 H1369 0.929 1_545 S
C1378 C1370 1.378 . S
C1378 C1373 1.350 . S
C1379 H1366 0.929 . S
C1379 C1371 1.433 . S
C1379 N1381 1.384 . S
N1380 C1376 1.427 . S
N1380 C1377 1.384 . S
N1381 C1373 1.427 . S
N1381 C1379 1.384 . S
H1382 C1388 0.930 . S
H1383 C1392 0.930 . S
H1384 C1397 0.929 . S
H1385 C1395 0.929 . S
H1386 C1390 0.929 . S
H1387 C1396 0.929 . S
C1388 H1382 0.930 . S
C1388 C1389 1.367 . S
C1388 C1396 1.378 . S
C1389 C1388 1.367 . S
C1389 C1397 1.433 . S
C1390 H1386 0.929 . S
C1390 C1392 1.378 . S
C1390 C1394 1.350 . S
C1391 C1394 1.463 . S
C1391 C1396 1.350 . S
C1391 N1399 1.427 . S
C1392 H1383 0.930 . S
C1392 C1390 1.378 . S
C1392 C1393 1.367 . S
C1393 C1392 1.367 . S
C1393 C1395 1.433 . S
C1394 C1390 1.350 . S
C1394 C1391 1.463 . S
C1394 N1398 1.427 . S
C1395 H1385 0.929 . S
C1395 C1393 1.433 . S
C1395 N1398 1.384 . S
C1396 H1387 0.929 . S
C1396 C1388 1.378 . S
C1396 C1391 1.350 . S
C1397 H1384 0.929 . S
C1397 C1389 1.433 . S
C1397 N1399 1.384 . S
N1398 C1394 1.427 . S
N1398 C1395 1.384 . S
N1399 C1391 1.427 . S
N1399 C1397 1.384 . S
H1400 C1406 0.930 . S
H1401 C1410 0.930 1_455 S
H1402 C1415 0.929 . S
H1403 C1413 0.929 . S
H1404 C1408 0.929 . S
H1405 C1414 0.929 . S
C1406 H1400 0.930 . S
C1406 C1407 1.367 . S
C1406 C1414 1.378 . S
C1407 C1406 1.367 . S
C1407 C1415 1.433 . S
C1408 H1404 0.929 . S
C1408 C1410 1.378 . S
C1408 C1412 1.350 . S
C1409 C1412 1.463 . S
C1409 C1414 1.350 . S
C1409 N1417 1.427 . S
C1410 H1401 0.930 1_655 S
C1410 C1408 1.378 . S
C1410 C1411 1.367 . S
C1411 C1410 1.367 . S
C1411 C1413 1.433 . S
C1412 C1408 1.350 . S
C1412 C1409 1.463 . S
C1412 N1416 1.427 . S
C1413 H1403 0.929 . S
C1413 C1411 1.433 . S
C1413 N1416 1.384 . S
C1414 H1405 0.929 . S
C1414 C1406 1.378 . S
C1414 C1409 1.350 . S
C1415 H1402 0.929 . S
C1415 C1407 1.433 . S
C1415 N1417 1.384 . S
N1416 C1412 1.427 . S
N1416 C1413 1.384 . S
N1417 C1409 1.427 . S
N1417 C1415 1.384 . S
H1418 C1424 0.930 . S
H1419 C1428 0.930 . S
H1420 C1433 0.929 . S
H1421 C1431 0.929 . S
H1422 C1426 0.929 . S
H1423 C1432 0.929 . S
C1424 H1418 0.930 . S
C1424 C1425 1.367 . S
C1424 C1432 1.378 . S
C1425 C1424 1.367 . S
C1425 C1433 1.433 . S
C1426 H1422 0.929 . S
C1426 C1428 1.378 . S
C1426 C1430 1.350 . S
C1427 C1430 1.463 . S
C1427 C1432 1.350 . S
C1427 N1435 1.427 . S
C1428 H1419 0.930 . S
C1428 C1426 1.378 . S
C1428 C1429 1.367 . S
C1429 C1428 1.367 . S
C1429 C1431 1.433 . S
C1430 C1426 1.350 . S
C1430 C1427 1.463 . S
C1430 N1434 1.427 . S
C1431 H1421 0.929 . S
C1431 C1429 1.433 . S
C1431 N1434 1.384 . S
C1432 H1423 0.929 . S
C1432 C1424 1.378 . S
C1432 C1427 1.350 . S
C1433 H1420 0.929 . S
C1433 C1425 1.433 . S
C1433 N1435 1.384 . S
N1434 C1430 1.427 . S
N1434 C1431 1.384 . S
N1435 C1427 1.427 . S
N1435 C1433 1.384 . S
H1436 C1442 0.930 . S
H1437 C1446 0.930 . S
H1438 C1451 0.929 . S
H1439 C1449 0.929 . S
H1440 C1444 0.929 . S
H1441 C1450 0.929 . S
C1442 H1436 0.930 . S
C1442 C1443 1.367 . S
C1442 C1450 1.378 . S
C1443 C1442 1.367 . S
C1443 C1451 1.433 . S
C1444 H1440 0.929 . S
C1444 C1446 1.378 . S
C1444 C1448 1.350 . S
C1445 C1448 1.463 . S
C1445 C1450 1.350 . S
C1445 N1453 1.427 . S
C1446 H1437 0.930 . S
C1446 C1444 1.378 . S
C1446 C1447 1.367 . S
C1447 C1446 1.367 . S
C1447 C1449 1.433 . S
C1448 C1444 1.350 . S
C1448 C1445 1.463 . S
C1448 N1452 1.427 . S
C1449 H1439 0.929 . S
C1449 C1447 1.433 . S
C1449 N1452 1.384 . S
C1450 H1441 0.929 . S
C1450 C1442 1.378 . S
C1450 C1445 1.350 . S
C1451 H1438 0.929 . S
C1451 C1443 1.433 . S
C1451 N1453 1.384 . S
N1452 C1448 1.427 . S
N1452 C1449 1.384 . S
N1453 C1445 1.427 . S
N1453 C1451 1.384 . S
H1454 C1460 0.930 . S
H1455 C1464 0.930 . S
H1456 C1469 0.929 . S
H1457 C1467 0.929 . S
H1458 C1462 0.929 . S
H1459 C1468 0.929 . S
C1460 H1454 0.930 . S
C1460 C1461 1.367 . S
C1460 C1468 1.378 . S
C1461 C1460 1.367 . S
C1461 C1469 1.433 . S
C1462 H1458 0.929 . S
C1462 C1464 1.378 . S
C1462 C1466 1.350 . S
C1463 C1466 1.463 . S
C1463 C1468 1.350 . S
C1463 N1471 1.427 . S
C1464 H1455 0.930 . S
C1464 C1462 1.378 . S
C1464 C1465 1.367 . S
C1465 C1464 1.367 . S
C1465 C1467 1.433 . S
C1466 C1462 1.350 . S
C1466 C1463 1.463 . S
C1466 N1470 1.427 . S
C1467 H1457 0.929 . S
C1467 C1465 1.433 . S
C1467 N1470 1.384 . S
C1468 H1459 0.929 . S
C1468 C1460 1.378 . S
C1468 C1463 1.350 . S
C1469 H1456 0.929 . S
C1469 C1461 1.433 . S
C1469 N1471 1.384 . S
N1470 C1466 1.427 . S
N1470 C1467 1.384 . S
N1471 C1463 1.427 . S
N1471 C1469 1.384 . S
H1472 C1478 0.930 . S
H1473 C1482 0.930 . S
H1474 C1487 0.921 1_556 S
H1475 C1485 0.929 . S
H1476 C1480 0.929 . S
H1477 C1486 0.929 . S
C1478 H1472 0.930 . S
C1478 C1479 1.367 . S
C1478 C1486 1.378 . S
C1479 C1478 1.367 . S
C1479 C1487 1.433 . S
C1480 H1476 0.929 . S
C1480 C1482 1.378 . S
C1480 C1484 1.350 . S
C1481 C1484 1.463 . S
C1481 C1486 1.350 . S
C1481 N1489 1.427 . S
C1482 H1473 0.930 . S
C1482 C1480 1.378 . S
C1482 C1483 1.367 . S
C1483 C1482 1.367 . S
C1483 C1485 1.433 1_565 S
C1484 C1480 1.350 . S
C1484 C1481 1.463 . S
C1484 N1488 1.427 . S
C1485 H1475 0.929 . S
C1485 C1483 1.433 1_545 S
C1485 N1488 1.384 1_545 S
C1486 H1477 0.929 . S
C1486 C1478 1.378 . S
C1486 C1481 1.350 . S
C1487 H1474 0.921 1_554 S
C1487 C1479 1.433 . S
C1487 N1489 1.384 . S
N1488 C1484 1.427 . S
N1488 C1485 1.384 1_565 S
N1489 C1481 1.427 . S
N1489 C1487 1.384 . S
H1490 C1496 0.930 . S
H1491 C1500 0.930 . S
H1492 C1505 0.929 . S
H1493 C1503 0.929 . S
H1494 C1498 0.929 . S
H1495 C1504 0.929 . S
C1496 H1490 0.930 . S
C1496 C1497 1.367 . S
C1496 C1504 1.378 . S
C1497 C1496 1.367 . S
C1497 C1505 1.433 1_554 S
C1498 H1494 0.929 . S
C1498 C1500 1.378 . S
C1498 C1502 1.350 1_556 S
C1499 C1502 1.463 . S
C1499 C1504 1.350 . S
C1499 N1507 1.427 1_554 S
C1500 H1491 0.930 . S
C1500 C1498 1.378 . S
C1500 C1501 1.367 1_556 S
C1501 C1500 1.367 1_554 S
C1501 C1503 1.433 . S
C1502 C1498 1.350 1_554 S
C1502 C1499 1.463 . S
C1502 N1506 1.427 . S
C1503 H1493 0.929 . S
C1503 C1501 1.433 . S
C1503 N1506 1.384 . S
C1504 H1495 0.929 . S
C1504 C1496 1.378 . S
C1504 C1499 1.350 . S
C1505 H1492 0.929 . S
C1505 C1497 1.433 1_556 S
C1505 N1507 1.384 . S
N1506 C1502 1.427 . S
N1506 C1503 1.384 . S
N1507 C1499 1.427 1_556 S
N1507 C1505 1.384 . S
H1508 C1514 0.930 . S
H1509 C1518 0.930 . S
H1510 C1523 0.929 . S
H1511 C1521 0.929 . S
H1512 C1516 0.929 . S
H1513 C1522 0.929 . S
C1514 H1508 0.930 . S
C1514 C1515 1.367 . S
C1514 C1522 1.378 . S
C1515 C1514 1.367 . S
C1515 C1523 1.433 . S
C1516 H1512 0.929 . S
C1516 C1518 1.378 . S
C1516 C1520 1.350 . S
C1517 C1520 1.463 . S
C1517 C1522 1.350 . S
C1517 N1525 1.427 . S
C1518 H1509 0.930 . S
C1518 C1516 1.378 . S
C1518 C1519 1.367 . S
C1519 C1518 1.367 . S
C1519 C1521 1.433 . S
C1520 C1516 1.350 . S
C1520 C1517 1.463 . S
C1520 N1524 1.427 . S
C1521 H1511 0.929 . S
C1521 C1519 1.433 . S
C1521 N1524 1.384 . S
C1522 H1513 0.929 . S
C1522 C1514 1.378 . S
C1522 C1517 1.350 . S
C1523 H1510 0.929 . S
C1523 C1515 1.433 . S
C1523 N1525 1.384 . S
N1524 C1520 1.427 . S
N1524 C1521 1.384 . S
N1525 C1517 1.427 . S
N1525 C1523 1.384 . S
H1526 C1532 0.930 . S
H1527 C1536 0.930 . S
H1528 C1541 0.929 . S
H1529 C1539 0.929 . S
H1530 C1534 0.929 . S
H1531 C1540 0.929 . S
C1532 H1526 0.930 . S
C1532 C1533 1.367 . S
C1532 C1540 1.378 . S
C1533 C1532 1.367 . S
C1533 C1541 1.433 . S
C1534 H1530 0.929 . S
C1534 C1536 1.378 . S
C1534 C1538 1.350 . S
C1535 C1538 1.463 . S
C1535 C1540 1.350 . S
C1535 N1543 1.427 . S
C1536 H1527 0.930 . S
C1536 C1534 1.378 . S
C1536 C1537 1.367 . S
C1537 C1536 1.367 . S
C1537 C1539 1.433 . S
C1538 C1534 1.350 . S
C1538 C1535 1.463 . S
C1538 N1542 1.427 . S
C1539 H1529 0.929 . S
C1539 C1537 1.433 . S
C1539 N1542 1.384 . S
C1540 H1531 0.929 . S
C1540 C1532 1.378 . S
C1540 C1535 1.350 . S
C1541 H1528 0.929 . S
C1541 C1533 1.433 . S
C1541 N1543 1.384 . S
N1542 C1538 1.427 . S
N1542 C1539 1.384 . S
N1543 C1535 1.427 . S
N1543 C1541 1.384 . S
H1544 C1550 0.930 . S
H1545 C1554 0.930 . S
H1546 C1559 0.929 . S
H1547 C1557 0.929 . S
H1548 C1552 0.929 . S
H1549 C1558 0.929 . S
C1550 H1544 0.930 . S
C1550 C1551 1.367 . S
C1550 C1558 1.378 . S
C1551 C1550 1.367 . S
C1551 C1559 1.433 . S
C1552 H1548 0.929 . S
C1552 C1554 1.378 . S
C1552 C1556 1.350 . S
C1553 C1556 1.463 . S
C1553 C1558 1.350 . S
C1553 N1561 1.427 . S
C1554 H1545 0.930 . S
C1554 C1552 1.378 . S
C1554 C1555 1.367 . S
C1555 C1554 1.367 . S
C1555 C1557 1.433 . S
C1556 C1552 1.350 . S
C1556 C1553 1.463 . S
C1556 N1560 1.427 . S
C1557 H1547 0.929 . S
C1557 C1555 1.433 . S
C1557 N1560 1.384 . S
C1558 H1549 0.929 . S
C1558 C1550 1.378 . S
C1558 C1553 1.350 . S
C1559 H1546 0.929 . S
C1559 C1551 1.433 . S
C1559 N1561 1.384 . S
N1560 C1556 1.427 . S
N1560 C1557 1.384 . S
N1561 C1553 1.427 . S
N1561 C1559 1.384 . S
H1562 C1568 0.930 . S
H1563 C1572 0.930 . S
H1564 C1577 0.929 . S
H1565 C1575 0.929 . S
H1566 C1570 0.929 . S
H1567 C1576 0.929 . S
C1568 H1562 0.930 . S
C1568 C1569 1.367 . S
C1568 C1576 1.378 . S
C1569 C1568 1.367 . S
C1569 C1577 1.433 . S
C1570 H1566 0.929 . S
C1570 C1572 1.378 . S
C1570 C1574 1.350 . S
C1571 C1574 1.463 . S
C1571 C1576 1.350 . S
C1571 N1579 1.427 . S
C1572 H1563 0.930 . S
C1572 C1570 1.378 . S
C1572 C1573 1.367 . S
C1573 C1572 1.367 . S
C1573 C1575 1.433 . S
C1574 C1570 1.350 . S
C1574 C1571 1.463 . S
C1574 N1578 1.427 . S
C1575 H1565 0.929 . S
C1575 C1573 1.433 . S
C1575 N1578 1.384 . S
C1576 H1567 0.929 . S
C1576 C1568 1.378 . S
C1576 C1571 1.350 . S
C1577 H1564 0.929 . S
C1577 C1569 1.433 . S
C1577 N1579 1.384 . S
N1578 C1574 1.427 . S
N1578 C1575 1.384 . S
N1579 C1571 1.427 . S
N1579 C1577 1.384 . S
H1580 C1586 0.930 . S
H1581 C1590 0.930 . S
H1582 C1595 0.929 . S
H1583 C1593 0.929 . S
H1584 C1588 0.929 . S
H1585 C1594 0.929 . S
C1586 H1580 0.930 . S
C1586 C1587 1.367 . S
C1586 C1594 1.378 . S
C1587 C1586 1.367 . S
C1587 C1595 1.433 . S
C1588 H1584 0.929 . S
C1588 C1590 1.378 . S
C1588 C1592 1.350 . S
C1589 C1592 1.463 . S
C1589 C1594 1.350 . S
C1589 N1597 1.427 . S
C1590 H1581 0.930 . S
C1590 C1588 1.378 . S
C1590 C1591 1.367 . S
C1591 C1590 1.367 . S
C1591 C1593 1.433 . S
C1592 C1588 1.350 . S
C1592 C1589 1.463 . S
C1592 N1596 1.427 . S
C1593 H1583 0.929 . S
C1593 C1591 1.433 . S
C1593 N1596 1.384 . S
C1594 H1585 0.929 . S
C1594 C1586 1.378 . S
C1594 C1589 1.350 . S
C1595 H1582 0.929 . S
C1595 C1587 1.433 . S
C1595 N1597 1.384 . S
N1596 C1592 1.427 . S
N1596 C1593 1.384 . S
N1597 C1589 1.427 . S
N1597 C1595 1.384 . S
H1598 C1604 0.930 . S
H1599 C1608 0.930 . S
H1600 C1613 0.929 . S
H1601 C1611 0.929 . S
H1602 C1606 0.929 . S
H1603 C1612 0.929 . S
C1604 H1598 0.930 . S
C1604 C1605 1.367 . S
C1604 C1612 1.378 . S
C1605 C1604 1.367 . S
C1605 C1613 1.433 . S
C1606 H1602 0.929 . S
C1606 C1608 1.378 . S
C1606 C1610 1.350 . S
C1607 C1610 1.463 . S
C1607 C1612 1.350 . S
C1607 N1615 1.427 . S
C1608 H1599 0.930 . S
C1608 C1606 1.378 . S
C1608 C1609 1.367 . S
C1609 C1608 1.367 . S
C1609 C1611 1.433 . S
C1610 C1606 1.350 . S
C1610 C1607 1.463 . S
C1610 N1614 1.427 . S
C1611 H1601 0.929 . S
C1611 C1609 1.433 . S
C1611 N1614 1.384 . S
C1612 H1603 0.929 . S
C1612 C1604 1.378 . S
C1612 C1607 1.350 . S
C1613 H1600 0.929 . S
C1613 C1605 1.433 . S
C1613 N1615 1.384 . S
N1614 C1610 1.427 . S
N1614 C1611 1.384 . S
N1615 C1607 1.427 . S
N1615 C1613 1.384 . S
H1616 C1622 0.930 1_655 S
H1617 C1626 0.930 . S
H1618 C1631 0.929 . S
H1619 C1629 0.929 . S
H1620 C1624 0.929 . S
H1621 C1630 0.929 1_655 S
C1622 H1616 0.930 1_455 S
C1622 C1623 1.367 . S
C1622 C1630 1.378 . S
C1623 C1622 1.367 . S
C1623 C1631 1.433 . S
C1624 H1620 0.929 . S
C1624 C1626 1.378 . S
C1624 C1628 1.350 . S
C1625 C1628 1.463 . S
C1625 C1630 1.350 . S
C1625 N1633 1.427 . S
C1626 H1617 0.930 . S
C1626 C1624 1.378 . S
C1626 C1627 1.367 . S
C1627 C1626 1.367 . S
C1627 C1629 1.433 1_455 S
C1628 C1624 1.350 . S
C1628 C1625 1.463 . S
C1628 N1632 1.427 1_455 S
C1629 H1619 0.929 . S
C1629 C1627 1.433 1_655 S
C1629 N1632 1.384 . S
C1630 H1621 0.929 1_455 S
C1630 C1622 1.378 . S
C1630 C1625 1.350 . S
C1631 H1618 0.929 . S
C1631 C1623 1.433 . S
C1631 N1633 1.384 . S
N1632 C1628 1.427 1_655 S
N1632 C1629 1.384 . S
N1633 C1625 1.427 . S
N1633 C1631 1.384 . S
H1634 C1640 0.930 . S
H1635 C1644 0.930 . S
H1636 C1649 0.929 . S
H1637 C1647 0.929 . S
H1638 C1642 0.929 . S
H1639 C1648 0.929 . S
C1640 H1634 0.930 . S
C1640 C1641 1.367 . S
C1640 C1648 1.378 . S
C1641 C1640 1.367 . S
C1641 C1649 1.433 . S
C1642 H1638 0.929 . S
C1642 C1644 1.378 . S
C1642 C1646 1.350 . S
C1643 C1646 1.463 . S
C1643 C1648 1.350 . S
C1643 N1651 1.427 . S
C1644 H1635 0.930 . S
C1644 C1642 1.378 . S
C1644 C1645 1.367 . S
C1645 C1644 1.367 . S
C1645 C1647 1.433 . S
C1646 C1642 1.350 . S
C1646 C1643 1.463 . S
C1646 N1650 1.427 . S
C1647 H1637 0.929 . S
C1647 C1645 1.433 . S
C1647 N1650 1.384 . S
C1648 H1639 0.929 . S
C1648 C1640 1.378 . S
C1648 C1643 1.350 . S
C1649 H1636 0.929 . S
C1649 C1641 1.433 . S
C1649 N1651 1.384 . S
N1650 C1646 1.427 . S
N1650 C1647 1.384 . S
N1651 C1643 1.427 . S
N1651 C1649 1.384 . S
H1652 C1658 0.930 . S
H1653 C1662 0.930 . S
H1654 C1667 0.929 . S
H1655 C1665 0.929 . S
H1656 C1660 0.929 . S
H1657 C1666 0.929 . S
C1658 H1652 0.930 . S
C1658 C1659 1.367 . S
C1658 C1666 1.378 . S
C1659 C1658 1.367 . S
C1659 C1667 1.433 . S
C1660 H1656 0.929 . S
C1660 C1662 1.378 . S
C1660 C1664 1.350 . S
C1661 C1664 1.463 . S
C1661 C1666 1.350 . S
C1661 N1669 1.427 . S
C1662 H1653 0.930 . S
C1662 C1660 1.378 . S
C1662 C1663 1.367 . S
C1663 C1662 1.367 . S
C1663 C1665 1.433 . S
C1664 C1660 1.350 . S
C1664 C1661 1.463 . S
C1664 N1668 1.427 . S
C1665 H1655 0.929 . S
C1665 C1663 1.433 . S
C1665 N1668 1.384 . S
C1666 H1657 0.929 . S
C1666 C1658 1.378 . S
C1666 C1661 1.350 . S
C1667 H1654 0.929 . S
C1667 C1659 1.433 . S
C1667 N1669 1.384 . S
N1668 C1664 1.427 . S
N1668 C1665 1.384 . S
N1669 C1661 1.427 . S
N1669 C1667 1.384 . S
H1670 C1676 0.930 . S
H1671 C1680 0.930 . S
H1672 C1685 0.929 . S
H1673 C1683 0.929 . S
H1674 C1678 0.929 . S
H1675 C1684 0.929 . S
C1676 H1670 0.930 . S
C1676 C1677 1.367 . S
C1676 C1684 1.378 . S
C1677 C1676 1.367 . S
C1677 C1685 1.433 . S
C1678 H1674 0.929 . S
C1678 C1680 1.378 . S
C1678 C1682 1.350 . S
C1679 C1682 1.463 . S
C1679 C1684 1.350 . S
C1679 N1687 1.427 . S
C1680 H1671 0.930 . S
C1680 C1678 1.378 . S
C1680 C1681 1.367 . S
C1681 C1680 1.367 . S
C1681 C1683 1.433 . S
C1682 C1678 1.350 . S
C1682 C1679 1.463 . S
C1682 N1686 1.427 . S
C1683 H1673 0.929 . S
C1683 C1681 1.433 . S
C1683 N1686 1.384 . S
C1684 H1675 0.929 . S
C1684 C1676 1.378 . S
C1684 C1679 1.350 . S
C1685 H1672 0.929 . S
C1685 C1677 1.433 . S
C1685 N1687 1.384 . S
N1686 C1682 1.427 . S
N1686 C1683 1.384 . S
N1687 C1679 1.427 . S
N1687 C1685 1.384 . S
H1688 C1694 0.930 1_655 S
H1689 C1698 0.930 . S
H1690 C1703 0.929 . S
H1691 C1701 0.929 . S
H1692 C1696 0.929 . S
H1693 C1702 0.929 . S
C1694 H1688 0.930 1_455 S
C1694 C1695 1.367 . S
C1694 C1702 1.378 1_455 S
C1695 C1694 1.367 . S
C1695 C1703 1.433 . S
C1696 H1692 0.929 . S
C1696 C1698 1.378 . S
C1696 C1700 1.350 . S
C1697 C1700 1.463 . S
C1697 C1702 1.350 1_455 S
C1697 N1705 1.427 . S
C1698 H1689 0.930 . S
C1698 C1696 1.378 . S
C1698 C1699 1.358 1_455 S
C1699 C1698 1.358 1_655 S
C1699 C1701 1.443 . S
C1700 C1696 1.350 . S
C1700 C1697 1.463 . S
C1700 N1704 1.427 1_455 S
C1701 H1691 0.929 . S
C1701 C1699 1.443 . S
C1701 N1704 1.384 . S
C1702 H1693 0.929 . S
C1702 C1694 1.378 1_655 S
C1702 C1697 1.350 1_655 S
C1703 H1690 0.929 . S
C1703 C1695 1.433 . S
C1703 N1705 1.384 . S
N1704 C1700 1.427 1_655 S
N1704 C1701 1.384 . S
N1705 C1697 1.427 . S
N1705 C1703 1.384 . S
H1706 C1712 0.930 . S
H1707 C1716 0.930 . S
H1708 C1721 0.929 . S
H1709 C1719 0.929 . S
H1710 C1714 0.929 . S
H1711 C1720 0.929 . S
C1712 H1706 0.930 . S
C1712 C1713 1.367 . S
C1712 C1720 1.378 . S
C1713 C1712 1.367 . S
C1713 C1721 1.433 . S
C1714 H1710 0.929 . S
C1714 C1716 1.378 . S
C1714 C1718 1.350 . S
C1715 C1718 1.463 . S
C1715 C1720 1.350 . S
C1715 N1723 1.427 . S
C1716 H1707 0.930 . S
C1716 C1714 1.378 . S
C1716 C1717 1.367 . S
C1717 C1716 1.367 . S
C1717 C1719 1.433 . S
C1718 C1714 1.350 . S
C1718 C1715 1.463 . S
C1718 N1722 1.427 . S
C1719 H1709 0.929 . S
C1719 C1717 1.433 . S
C1719 N1722 1.384 . S
C1720 H1711 0.929 . S
C1720 C1712 1.378 . S
C1720 C1715 1.350 . S
C1721 H1708 0.929 . S
C1721 C1713 1.433 . S
C1721 N1723 1.384 . S
N1722 C1718 1.427 . S
N1722 C1719 1.384 . S
N1723 C1715 1.427 . S
N1723 C1721 1.384 . S
H1724 C1730 0.930 . S
H1725 C1734 0.930 1_554 S
H1726 C1739 0.929 . S
H1727 C1737 0.929 . S
H1728 C1732 0.929 . S
H1729 C1738 0.929 . S
C1730 H1724 0.930 . S
C1730 C1731 1.367 . S
C1730 C1738 1.378 . S
C1731 C1730 1.367 . S
C1731 C1739 1.433 . S
C1732 H1728 0.929 . S
C1732 C1734 1.378 . S
C1732 C1736 1.350 . S
C1733 C1736 1.463 . S
C1733 C1738 1.350 . S
C1733 N1741 1.427 . S
C1734 H1725 0.930 1_556 S
C1734 C1732 1.378 . S
C1734 C1735 1.367 . S
C1735 C1734 1.367 . S
C1735 C1737 1.433 . S
C1736 C1732 1.350 . S
C1736 C1733 1.463 . S
C1736 N1740 1.427 . S
C1737 H1727 0.929 . S
C1737 C1735 1.433 . S
C1737 N1740 1.384 . S
C1738 H1729 0.929 . S
C1738 C1730 1.378 . S
C1738 C1733 1.350 . S
C1739 H1726 0.929 . S
C1739 C1731 1.433 . S
C1739 N1741 1.384 . S
N1740 C1736 1.427 . S
N1740 C1737 1.384 . S
N1741 C1733 1.427 . S
N1741 C1739 1.384 . S
H1742 C1748 0.930 . S
H1743 C1752 0.930 . S
H1744 C1757 0.929 . S
H1745 C1755 0.929 . S
H1746 C1750 0.929 . S
H1747 C1756 0.929 . S
C1748 H1742 0.930 . S
C1748 C1749 1.367 . S
C1748 C1756 1.378 . S
C1749 C1748 1.367 . S
C1749 C1757 1.433 . S
C1750 H1746 0.929 . S
C1750 C1752 1.378 . S
C1750 C1754 1.350 . S
C1751 C1754 1.463 . S
C1751 C1756 1.350 . S
C1751 N1759 1.427 . S
C1752 H1743 0.930 . S
C1752 C1750 1.378 . S
C1752 C1753 1.367 . S
C1753 C1752 1.367 . S
C1753 C1755 1.433 . S
C1754 C1750 1.350 . S
C1754 C1751 1.463 . S
C1754 N1758 1.427 . S
C1755 H1745 0.929 . S
C1755 C1753 1.433 . S
C1755 N1758 1.384 . S
C1756 H1747 0.929 . S
C1756 C1748 1.378 . S
C1756 C1751 1.350 . S
C1757 H1744 0.929 . S
C1757 C1749 1.433 . S
C1757 N1759 1.384 . S
N1758 C1754 1.427 . S
N1758 C1755 1.384 . S
N1759 C1751 1.427 . S
N1759 C1757 1.384 . S
H1760 C1766 0.930 . S
H1761 C1770 0.930 . S
H1762 C1775 0.929 . S
H1763 C1773 0.929 . S
H1764 C1768 0.929 . S
H1765 C1774 0.929 . S
C1766 H1760 0.930 . S
C1766 C1767 1.367 . S
C1766 C1774 1.378 . S
C1767 C1766 1.367 . S
C1767 C1775 1.433 1_565 S
C1768 H1764 0.929 . S
C1768 C1770 1.378 . S
C1768 C1772 1.350 . S
C1769 C1772 1.462 1_565 S
C1769 C1774 1.351 . S
C1769 N1777 1.426 1_565 S
C1770 H1761 0.930 . S
C1770 C1768 1.378 . S
C1770 C1771 1.367 . S
C1771 C1770 1.367 . S
C1771 C1773 1.433 1_545 S
C1772 C1768 1.350 . S
C1772 C1769 1.462 1_545 S
C1772 N1776 1.427 1_545 S
C1773 H1763 0.929 . S
C1773 C1771 1.433 1_565 S
C1773 N1776 1.384 . S
C1774 H1765 0.929 . S
C1774 C1766 1.378 . S
C1774 C1769 1.351 . S
C1775 H1762 0.929 . S
C1775 C1767 1.433 1_545 S
C1775 N1777 1.384 . S
N1776 C1772 1.427 1_565 S
N1776 C1773 1.384 . S
N1777 C1769 1.426 1_545 S
N1777 C1775 1.384 . S
H1778 C1784 0.930 . S
H1779 C1788 0.930 . S
H1780 C1793 0.929 . S
H1781 C1791 0.929 . S
H1782 C1786 0.929 . S
H1783 C1792 0.929 . S
C1784 H1778 0.930 . S
C1784 C1785 1.367 . S
C1784 C1792 1.378 . S
C1785 C1784 1.367 . S
C1785 C1793 1.433 . S
C1786 H1782 0.929 . S
C1786 C1788 1.378 . S
C1786 C1790 1.350 . S
C1787 C1790 1.463 . S
C1787 C1792 1.350 . S
C1787 N1795 1.427 . S
C1788 H1779 0.930 . S
C1788 C1786 1.378 . S
C1788 C1789 1.367 . S
C1789 C1788 1.367 . S
C1789 C1791 1.433 . S
C1790 C1786 1.350 . S
C1790 C1787 1.463 . S
C1790 N1794 1.427 . S
C1791 H1781 0.929 . S
C1791 C1789 1.433 . S
C1791 N1794 1.384 . S
C1792 H1783 0.929 . S
C1792 C1784 1.378 . S
C1792 C1787 1.350 . S
C1793 H1780 0.929 . S
C1793 C1785 1.433 . S
C1793 N1795 1.384 . S
N1794 C1790 1.427 . S
N1794 C1791 1.384 . S
N1795 C1787 1.427 . S
N1795 C1793 1.384 . S
H1796 C1802 0.930 . S
H1797 C1806 0.930 . S
H1798 C1811 0.929 . S
H1799 C1809 0.929 . S
H1800 C1804 0.929 . S
H1801 C1810 0.929 . S
C1802 H1796 0.930 . S
C1802 C1803 1.367 . S
C1802 C1810 1.378 . S
C1803 C1802 1.367 . S
C1803 C1811 1.433 . S
C1804 H1800 0.929 . S
C1804 C1806 1.378 . S
C1804 C1808 1.350 . S
C1805 C1808 1.463 . S
C1805 C1810 1.350 . S
C1805 N1813 1.427 . S
C1806 H1797 0.930 . S
C1806 C1804 1.378 . S
C1806 C1807 1.367 . S
C1807 C1806 1.367 . S
C1807 C1809 1.433 . S
C1808 C1804 1.350 . S
C1808 C1805 1.463 . S
C1808 N1812 1.427 . S
C1809 H1799 0.929 . S
C1809 C1807 1.433 . S
C1809 N1812 1.384 . S
C1810 H1801 0.929 . S
C1810 C1802 1.378 . S
C1810 C1805 1.350 . S
C1811 H1798 0.929 . S
C1811 C1803 1.433 . S
C1811 N1813 1.384 . S
N1812 C1808 1.427 . S
N1812 C1809 1.384 . S
N1813 C1805 1.427 . S
N1813 C1811 1.384 . S
H1814 C1820 0.930 . S
H1815 C1824 0.930 . S
H1816 C1829 0.929 . S
H1817 C1827 0.929 . S
H1818 C1822 0.929 . S
H1819 C1828 0.929 . S
C1820 H1814 0.930 . S
C1820 C1821 1.367 . S
C1820 C1828 1.378 . S
C1821 C1820 1.367 . S
C1821 C1829 1.433 . S
C1822 H1818 0.929 . S
C1822 C1824 1.378 . S
C1822 C1826 1.350 . S
C1823 C1826 1.463 . S
C1823 C1828 1.350 . S
C1823 N1831 1.427 . S
C1824 H1815 0.930 . S
C1824 C1822 1.378 . S
C1824 C1825 1.367 . S
C1825 C1824 1.367 . S
C1825 C1827 1.433 . S
C1826 C1822 1.350 . S
C1826 C1823 1.463 . S
C1826 N1830 1.427 . S
C1827 H1817 0.929 . S
C1827 C1825 1.433 . S
C1827 N1830 1.384 . S
C1828 H1819 0.929 . S
C1828 C1820 1.378 . S
C1828 C1823 1.350 . S
C1829 H1816 0.929 . S
C1829 C1821 1.433 . S
C1829 N1831 1.384 . S
N1830 C1826 1.427 . S
N1830 C1827 1.384 . S
N1831 C1823 1.427 . S
N1831 C1829 1.384 . S
H1832 C1838 0.930 . S
H1833 C1842 0.930 . S
H1834 C1847 0.929 . S
H1835 C1845 0.929 1_565 S
H1836 C1840 0.929 . S
H1837 C1846 0.929 . S
C1838 H1832 0.930 . S
C1838 C1839 1.367 . S
C1838 C1846 1.378 . S
C1839 C1838 1.367 . S
C1839 C1847 1.433 1_565 S
C1840 H1836 0.929 . S
C1840 C1842 1.378 . S
C1840 C1844 1.350 . S
C1841 C1844 1.463 . S
C1841 C1846 1.350 1_545 S
C1841 N1849 1.427 . S
C1842 H1833 0.930 . S
C1842 C1840 1.378 . S
C1842 C1843 1.367 . S
C1843 C1842 1.367 . S
C1843 C1845 1.433 . S
C1844 C1840 1.350 . S
C1844 C1841 1.463 . S
C1844 N1848 1.427 1_545 S
C1845 H1835 0.929 1_545 S
C1845 C1843 1.433 . S
C1845 N1848 1.384 1_545 S
C1846 H1837 0.929 . S
C1846 C1838 1.378 . S
C1846 C1841 1.350 1_565 S
C1847 H1834 0.929 . S
C1847 C1839 1.433 1_545 S
C1847 N1849 1.384 . S
N1848 C1844 1.427 1_565 S
N1848 C1845 1.384 1_565 S
N1849 C1841 1.427 . S
N1849 C1847 1.384 . S
H1850 C1856 0.930 . S
H1851 C1860 0.930 . S
H1852 C1865 0.929 . S
H1853 C1863 0.929 . S
H1854 C1858 0.929 . S
H1855 C1864 0.929 . S
C1856 H1850 0.930 . S
C1856 C1857 1.367 . S
C1856 C1864 1.378 . S
C1857 C1856 1.367 . S
C1857 C1865 1.433 . S
C1858 H1854 0.929 . S
C1858 C1860 1.378 . S
C1858 C1862 1.350 . S
C1859 C1862 1.463 . S
C1859 C1864 1.350 . S
C1859 N1867 1.427 . S
C1860 H1851 0.930 . S
C1860 C1858 1.378 . S
C1860 C1861 1.367 . S
C1861 C1860 1.367 . S
C1861 C1863 1.433 . S
C1862 C1858 1.350 . S
C1862 C1859 1.463 . S
C1862 N1866 1.427 . S
C1863 H1853 0.929 . S
C1863 C1861 1.433 . S
C1863 N1866 1.384 . S
C1864 H1855 0.929 . S
C1864 C1856 1.378 . S
C1864 C1859 1.350 . S
C1865 H1852 0.929 . S
C1865 C1857 1.433 . S
C1865 N1867 1.384 . S
N1866 C1862 1.427 . S
N1866 C1863 1.384 . S
N1867 C1859 1.427 . S
N1867 C1865 1.384 . S
H1868 C1874 0.930 . S
H1869 C1878 0.930 . S
H1870 C1883 0.930 1_565 S
H1871 C1881 0.929 . S
H1872 C1876 0.929 . S
H1873 C1882 0.929 . S
C1874 H1868 0.930 . S
C1874 C1875 1.367 . S
C1874 C1882 1.378 . S
C1875 C1874 1.367 . S
C1875 C1883 1.432 . S
C1876 H1872 0.929 . S
C1876 C1878 1.378 . S
C1876 C1880 1.350 1_565 S
C1877 C1880 1.463 . S
C1877 C1882 1.350 . S
C1877 N1885 1.427 1_545 S
C1878 H1869 0.930 . S
C1878 C1876 1.378 . S
C1878 C1879 1.367 1_565 S
C1879 C1878 1.367 1_545 S
C1879 C1881 1.433 . S
C1880 C1876 1.350 1_545 S
C1880 C1877 1.463 . S
C1880 N1884 1.427 . S
C1881 H1871 0.929 . S
C1881 C1879 1.433 . S
C1881 N1884 1.384 . S
C1882 H1873 0.929 . S
C1882 C1874 1.378 . S
C1882 C1877 1.350 . S
C1883 H1870 0.930 1_545 S
C1883 C1875 1.432 . S
C1883 N1885 1.384 1_545 S
N1884 C1880 1.427 . S
N1884 C1881 1.384 . S
N1885 C1877 1.427 1_565 S
N1885 C1883 1.384 1_565 S
H1886 C1892 0.930 . S
H1887 C1896 0.930 . S
H1888 C1901 0.929 . S
H1889 C1899 0.929 . S
H1890 C1894 0.929 . S
H1891 C1900 0.929 . S
C1892 H1886 0.930 . S
C1892 C1893 1.367 . S
C1892 C1900 1.378 . S
C1893 C1892 1.367 . S
C1893 C1901 1.433 . S
C1894 H1890 0.929 . S
C1894 C1896 1.378 . S
C1894 C1898 1.350 . S
C1895 C1898 1.463 . S
C1895 C1900 1.350 . S
C1895 N1903 1.427 . S
C1896 H1887 0.930 . S
C1896 C1894 1.378 . S
C1896 C1897 1.367 . S
C1897 C1896 1.367 . S
C1897 C1899 1.433 . S
C1898 C1894 1.350 . S
C1898 C1895 1.463 . S
C1898 N1902 1.427 . S
C1899 H1889 0.929 . S
C1899 C1897 1.433 . S
C1899 N1902 1.384 . S
C1900 H1891 0.929 . S
C1900 C1892 1.378 . S
C1900 C1895 1.350 . S
C1901 H1888 0.929 . S
C1901 C1893 1.433 . S
C1901 N1903 1.384 . S
N1902 C1898 1.427 . S
N1902 C1899 1.384 . S
N1903 C1895 1.427 . S
N1903 C1901 1.384 . S
H1904 C1910 0.930 . S
H1905 C1914 0.930 1_554 S
H1906 C1919 0.929 . S
H1907 C1917 0.929 . S
H1908 C1912 0.936 . S
H1909 C1918 0.929 . S
C1910 H1904 0.930 . S
C1910 C1911 1.367 . S
C1910 C1918 1.378 . S
C1911 C1910 1.367 . S
C1911 C1919 1.433 1_556 S
C1912 H1908 0.936 . S
C1912 C1914 1.376 1_554 S
C1912 C1916 1.344 1_554 S
C1913 C1916 1.463 . S
C1913 C1918 1.350 . S
C1913 N1921 1.427 1_556 S
C1914 H1905 0.930 1_556 S
C1914 C1912 1.376 1_556 S
C1914 C1915 1.367 . S
C1915 C1914 1.367 . S
C1915 C1917 1.433 . S
C1916 C1912 1.344 1_556 S
C1916 C1913 1.463 . S
C1916 N1920 1.427 . S
C1917 H1907 0.929 . S
C1917 C1915 1.433 . S
C1917 N1920 1.384 . S
C1918 H1909 0.929 . S
C1918 C1910 1.378 . S
C1918 C1913 1.350 . S
C1919 H1906 0.929 . S
C1919 C1911 1.433 1_554 S
C1919 N1921 1.384 . S
N1920 C1916 1.427 . S
N1920 C1917 1.384 . S
N1921 C1913 1.427 1_554 S
N1921 C1919 1.384 . S
H1922 C1928 0.930 . S
H1923 C1932 0.930 . S
H1924 C1937 0.929 . S
H1925 C1935 0.929 . S
H1926 C1930 0.929 . S
H1927 C1936 0.929 . S
C1928 H1922 0.930 . S
C1928 C1929 1.367 1_556 S
C1928 C1936 1.378 . S
C1929 C1928 1.367 1_554 S
C1929 C1937 1.433 . S
C1930 H1926 0.929 . S
C1930 C1932 1.378 . S
C1930 C1934 1.350 . S
C1931 C1934 1.463 . S
C1931 C1936 1.350 1_554 S
C1931 N1939 1.427 . S
C1932 H1923 0.930 . S
C1932 C1930 1.378 . S
C1932 C1933 1.367 . S
C1933 C1932 1.367 . S
C1933 C1935 1.433 1_554 S
C1934 C1930 1.350 . S
C1934 C1931 1.463 . S
C1934 N1938 1.427 1_554 S
C1935 H1925 0.929 . S
C1935 C1933 1.433 1_556 S
C1935 N1938 1.384 . S
C1936 H1927 0.929 . S
C1936 C1928 1.378 . S
C1936 C1931 1.350 1_556 S
C1937 H1924 0.929 . S
C1937 C1929 1.433 . S
C1937 N1939 1.384 . S
N1938 C1934 1.427 1_556 S
N1938 C1935 1.384 . S
N1939 C1931 1.427 . S
N1939 C1937 1.384 . S
H1940 C1946 0.930 . S
H1941 C1950 0.930 . S
H1942 C1955 0.929 . S
H1943 C1953 0.929 . S
H1944 C1948 0.929 . S
H1945 C1954 0.929 . S
C1946 H1940 0.930 . S
C1946 C1947 1.367 . S
C1946 C1954 1.378 . S
C1947 C1946 1.367 . S
C1947 C1955 1.433 . S
C1948 H1944 0.929 . S
C1948 C1950 1.378 . S
C1948 C1952 1.350 . S
C1949 C1952 1.463 . S
C1949 C1954 1.350 . S
C1949 N1957 1.427 . S
C1950 H1941 0.930 . S
C1950 C1948 1.378 . S
C1950 C1951 1.367 . S
C1951 C1950 1.367 . S
C1951 C1953 1.433 . S
C1952 C1948 1.350 . S
C1952 C1949 1.463 . S
C1952 N1956 1.427 . S
C1953 H1943 0.929 . S
C1953 C1951 1.433 . S
C1953 N1956 1.384 . S
C1954 H1945 0.929 . S
C1954 C1946 1.378 . S
C1954 C1949 1.350 . S
C1955 H1942 0.929 . S
C1955 C1947 1.433 . S
C1955 N1957 1.384 . S
N1956 C1952 1.427 . S
N1956 C1953 1.384 . S
N1957 C1949 1.427 . S
N1957 C1955 1.384 . S
H1958 C1964 0.930 . S
H1959 C1968 0.930 . S
H1960 C1973 0.929 . S
H1961 C1971 0.929 . S
H1962 C1966 0.929 . S
H1963 C1972 0.929 . S
C1964 H1958 0.930 . S
C1964 C1965 1.367 . S
C1964 C1972 1.378 . S
C1965 C1964 1.367 . S
C1965 C1973 1.433 . S
C1966 H1962 0.929 . S
C1966 C1968 1.378 . S
C1966 C1970 1.350 . S
C1967 C1970 1.463 . S
C1967 C1972 1.350 . S
C1967 N1975 1.427 . S
C1968 H1959 0.930 . S
C1968 C1966 1.378 . S
C1968 C1969 1.367 . S
C1969 C1968 1.367 . S
C1969 C1971 1.433 . S
C1970 C1966 1.350 . S
C1970 C1967 1.463 . S
C1970 N1974 1.427 . S
C1971 H1961 0.929 . S
C1971 C1969 1.433 . S
C1971 N1974 1.384 . S
C1972 H1963 0.929 . S
C1972 C1964 1.378 . S
C1972 C1967 1.350 . S
C1973 H1960 0.929 . S
C1973 C1965 1.433 . S
C1973 N1975 1.384 . S
N1974 C1970 1.427 . S
N1974 C1971 1.384 . S
N1975 C1967 1.427 . S
N1975 C1973 1.384 . S
H1976 C1982 0.930 . S
H1977 C1986 0.930 . S
H1978 C1991 0.929 . S
H1979 C1989 0.929 . S
H1980 C1984 0.929 . S
H1981 C1990 0.929 . S
C1982 H1976 0.930 . S
C1982 C1983 1.367 . S
C1982 C1990 1.378 . S
C1983 C1982 1.367 . S
C1983 C1991 1.433 . S
C1984 H1980 0.929 . S
C1984 C1986 1.378 . S
C1984 C1988 1.350 . S
C1985 C1988 1.463 . S
C1985 C1990 1.350 . S
C1985 N1993 1.427 . S
C1986 H1977 0.930 . S
C1986 C1984 1.378 . S
C1986 C1987 1.367 . S
C1987 C1986 1.367 . S
C1987 C1989 1.433 . S
C1988 C1984 1.350 . S
C1988 C1985 1.463 . S
C1988 N1992 1.427 . S
C1989 H1979 0.929 . S
C1989 C1987 1.433 . S
C1989 N1992 1.384 . S
C1990 H1981 0.929 . S
C1990 C1982 1.378 . S
C1990 C1985 1.350 . S
C1991 H1978 0.929 . S
C1991 C1983 1.433 . S
C1991 N1993 1.384 . S
N1992 C1988 1.427 . S
N1992 C1989 1.384 . S
N1993 C1985 1.427 . S
N1993 C1991 1.384 . S
H1994 C2000 0.930 . S
H1995 C2004 0.930 . S
H1996 C2009 0.929 . S
H1997 C2007 0.929 1_545 S
H1998 C2002 0.929 . S
H1999 C2008 0.929 . S
C2000 H1994 0.930 . S
C2000 C2001 1.367 . S
C2000 C2008 1.378 . S
C2001 C2000 1.367 . S
C2001 C2009 1.433 . S
C2002 H1998 0.929 . S
C2002 C2004 1.378 . S
C2002 C2006 1.350 . S
C2003 C2006 1.463 . S
C2003 C2008 1.350 . S
C2003 N2011 1.427 . S
C2004 H1995 0.930 . S
C2004 C2002 1.378 . S
C2004 C2005 1.367 . S
C2005 C2004 1.367 . S
C2005 C2007 1.433 . S
C2006 C2002 1.350 . S
C2006 C2003 1.463 . S
C2006 N2010 1.427 . S
C2007 H1997 0.929 1_565 S
C2007 C2005 1.433 . S
C2007 N2010 1.384 . S
C2008 H1999 0.929 . S
C2008 C2000 1.378 . S
C2008 C2003 1.350 . S
C2009 H1996 0.929 . S
C2009 C2001 1.433 . S
C2009 N2011 1.384 . S
N2010 C2006 1.427 . S
N2010 C2007 1.384 . S
N2011 C2003 1.427 . S
N2011 C2009 1.384 . S
H2012 C2018 0.930 . S
H2013 C2022 0.930 . S
H2014 C2027 0.929 . S
H2015 C2025 0.929 . S
H2016 C2020 0.929 . S
H2017 C2026 0.929 . S
C2018 H2012 0.930 . S
C2018 C2019 1.367 . S
C2018 C2026 1.378 . S
C2019 C2018 1.367 . S
C2019 C2027 1.433 . S
C2020 H2016 0.929 . S
C2020 C2022 1.378 . S
C2020 C2024 1.350 . S
C2021 C2024 1.463 . S
C2021 C2026 1.350 . S
C2021 N2029 1.427 . S
C2022 H2013 0.930 . S
C2022 C2020 1.378 . S
C2022 C2023 1.367 . S
C2023 C2022 1.367 . S
C2023 C2025 1.433 . S
C2024 C2020 1.350 . S
C2024 C2021 1.463 . S
C2024 N2028 1.427 . S
C2025 H2015 0.929 . S
C2025 C2023 1.433 . S
C2025 N2028 1.384 . S
C2026 H2017 0.929 . S
C2026 C2018 1.378 . S
C2026 C2021 1.350 . S
C2027 H2014 0.929 . S
C2027 C2019 1.433 . S
C2027 N2029 1.384 . S
N2028 C2024 1.427 . S
N2028 C2025 1.384 . S
N2029 C2021 1.427 . S
N2029 C2027 1.384 . S
H2030 C2036 0.930 . S
H2031 C2040 0.930 . S
H2032 C2045 0.929 . S
H2033 C2043 0.929 . S
H2034 C2038 0.929 . S
H2035 C2044 0.929 . S
C2036 H2030 0.930 . S
C2036 C2037 1.367 . S
C2036 C2044 1.378 . S
C2037 C2036 1.367 . S
C2037 C2045 1.433 . S
C2038 H2034 0.929 . S
C2038 C2040 1.378 . S
C2038 C2042 1.350 . S
C2039 C2042 1.463 . S
C2039 C2044 1.350 . S
C2039 N2047 1.427 . S
C2040 H2031 0.930 . S
C2040 C2038 1.378 . S
C2040 C2041 1.367 . S
C2041 C2040 1.367 . S
C2041 C2043 1.433 . S
C2042 C2038 1.350 . S
C2042 C2039 1.463 . S
C2042 N2046 1.427 . S
C2043 H2033 0.929 . S
C2043 C2041 1.433 . S
C2043 N2046 1.384 . S
C2044 H2035 0.929 . S
C2044 C2036 1.378 . S
C2044 C2039 1.350 . S
C2045 H2032 0.929 . S
C2045 C2037 1.433 . S
C2045 N2047 1.384 . S
N2046 C2042 1.427 . S
N2046 C2043 1.384 . S
N2047 C2039 1.427 . S
N2047 C2045 1.384 . S
H2048 C2054 0.930 . S
H2049 C2058 0.930 . S
H2050 C2063 0.929 . S
H2051 C2061 0.929 . S
H2052 C2056 0.929 . S
H2053 C2062 0.929 . S
C2054 H2048 0.930 . S
C2054 C2055 1.367 . S
C2054 C2062 1.378 . S
C2055 C2054 1.367 . S
C2055 C2063 1.433 . S
C2056 H2052 0.929 . S
C2056 C2058 1.378 . S
C2056 C2060 1.350 . S
C2057 C2060 1.463 . S
C2057 C2062 1.350 . S
C2057 N2065 1.427 . S
C2058 H2049 0.930 . S
C2058 C2056 1.378 . S
C2058 C2059 1.367 . S
C2059 C2058 1.367 . S
C2059 C2061 1.433 . S
C2060 C2056 1.350 . S
C2060 C2057 1.463 . S
C2060 N2064 1.427 . S
C2061 H2051 0.929 . S
C2061 C2059 1.433 . S
C2061 N2064 1.384 . S
C2062 H2053 0.929 . S
C2062 C2054 1.378 . S
C2062 C2057 1.350 . S
C2063 H2050 0.929 . S
C2063 C2055 1.433 . S
C2063 N2065 1.384 . S
N2064 C2060 1.427 . S
N2064 C2061 1.384 . S
N2065 C2057 1.427 . S
N2065 C2063 1.384 . S
H2066 C2072 0.930 . S
H2067 C2076 0.930 . S
H2068 C2081 0.929 . S
H2069 C2079 0.929 . S
H2070 C2074 0.929 . S
H2071 C2080 0.929 . S
C2072 H2066 0.930 . S
C2072 C2073 1.367 . S
C2072 C2080 1.378 . S
C2073 C2072 1.367 . S
C2073 C2081 1.433 . S
C2074 H2070 0.929 . S
C2074 C2076 1.378 . S
C2074 C2078 1.350 . S
C2075 C2078 1.463 . S
C2075 C2080 1.350 . S
C2075 N2083 1.427 . S
C2076 H2067 0.930 . S
C2076 C2074 1.378 . S
C2076 C2077 1.367 . S
C2077 C2076 1.367 . S
C2077 C2079 1.433 . S
C2078 C2074 1.350 . S
C2078 C2075 1.463 . S
C2078 N2082 1.427 . S
C2079 H2069 0.929 . S
C2079 C2077 1.433 . S
C2079 N2082 1.384 . S
C2080 H2071 0.929 . S
C2080 C2072 1.378 . S
C2080 C2075 1.350 . S
C2081 H2068 0.929 . S
C2081 C2073 1.433 . S
C2081 N2083 1.384 . S
N2082 C2078 1.427 . S
N2082 C2079 1.384 . S
N2083 C2075 1.427 . S
N2083 C2081 1.384 . S
H2084 C2090 0.930 . S
H2085 C2094 0.930 . S
H2086 C2099 0.929 . S
H2087 C2097 0.929 . S
H2088 C2092 0.929 1_554 S
H2089 C2098 0.929 . S
C2090 H2084 0.930 . S
C2090 C2091 1.367 . S
C2090 C2098 1.378 . S
C2091 C2090 1.367 . S
C2091 C2099 1.433 . S
C2092 H2088 0.929 1_556 S
C2092 C2094 1.378 1_556 S
C2092 C2096 1.350 . S
C2093 C2096 1.463 . S
C2093 C2098 1.350 . S
C2093 N2101 1.427 . S
C2094 H2085 0.930 . S
C2094 C2092 1.378 1_554 S
C2094 C2095 1.367 1_554 S
C2095 C2094 1.367 1_556 S
C2095 C2097 1.433 . S
C2096 C2092 1.350 . S
C2096 C2093 1.463 . S
C2096 N2100 1.427 . S
C2097 H2087 0.929 . S
C2097 C2095 1.433 . S
C2097 N2100 1.384 . S
C2098 H2089 0.929 . S
C2098 C2090 1.378 . S
C2098 C2093 1.350 . S
C2099 H2086 0.929 . S
C2099 C2091 1.433 . S
C2099 N2101 1.384 . S
N2100 C2096 1.427 . S
N2100 C2097 1.384 . S
N2101 C2093 1.427 . S
N2101 C2099 1.384 . S
H2102 C2108 0.930 . S
H2103 C2112 0.930 . S
H2104 C2117 0.929 . S
H2105 C2115 0.929 . S
H2106 C2110 0.929 . S
H2107 C2116 0.929 . S
C2108 H2102 0.930 . S
C2108 C2109 1.367 . S
C2108 C2116 1.378 . S
C2109 C2108 1.367 . S
C2109 C2117 1.433 . S
C2110 H2106 0.929 . S
C2110 C2112 1.378 . S
C2110 C2114 1.350 . S
C2111 C2114 1.463 . S
C2111 C2116 1.350 . S
C2111 N2119 1.427 . S
C2112 H2103 0.930 . S
C2112 C2110 1.378 . S
C2112 C2113 1.367 . S
C2113 C2112 1.367 . S
C2113 C2115 1.433 . S
C2114 C2110 1.350 . S
C2114 C2111 1.463 . S
C2114 N2118 1.427 . S
C2115 H2105 0.929 . S
C2115 C2113 1.433 . S
C2115 N2118 1.384 . S
C2116 H2107 0.929 . S
C2116 C2108 1.378 . S
C2116 C2111 1.350 . S
C2117 H2104 0.929 . S
C2117 C2109 1.433 . S
C2117 N2119 1.384 . S
N2118 C2114 1.427 . S
N2118 C2115 1.384 . S
N2119 C2111 1.427 . S
N2119 C2117 1.384 . S
H2120 C2126 0.930 . S
H2121 C2130 0.930 . S
H2122 C2135 0.929 . S
H2123 C2133 0.929 . S
H2124 C2128 0.929 . S
H2125 C2134 0.929 . S
C2126 H2120 0.930 . S
C2126 C2127 1.367 . S
C2126 C2134 1.378 . S
C2127 C2126 1.367 . S
C2127 C2135 1.433 . S
C2128 H2124 0.929 . S
C2128 C2130 1.378 . S
C2128 C2132 1.350 . S
C2129 C2132 1.463 . S
C2129 C2134 1.350 . S
C2129 N2137 1.427 . S
C2130 H2121 0.930 . S
C2130 C2128 1.378 . S
C2130 C2131 1.367 . S
C2131 C2130 1.367 . S
C2131 C2133 1.433 . S
C2132 C2128 1.350 . S
C2132 C2129 1.463 . S
C2132 N2136 1.427 . S
C2133 H2123 0.929 . S
C2133 C2131 1.433 . S
C2133 N2136 1.384 . S
C2134 H2125 0.929 . S
C2134 C2126 1.378 . S
C2134 C2129 1.350 . S
C2135 H2122 0.929 . S
C2135 C2127 1.433 . S
C2135 N2137 1.384 . S
N2136 C2132 1.427 . S
N2136 C2133 1.384 . S
N2137 C2129 1.427 . S
N2137 C2135 1.384 . S
H2138 C2144 0.930 . S
H2139 C2148 0.930 . S
H2140 C2153 0.929 . S
H2141 C2151 0.929 . S
H2142 C2146 0.929 . S
H2143 C2152 0.929 . S
C2144 H2138 0.930 . S
C2144 C2145 1.367 . S
C2144 C2152 1.378 . S
C2145 C2144 1.367 . S
C2145 C2153 1.433 . S
C2146 H2142 0.929 . S
C2146 C2148 1.378 . S
C2146 C2150 1.350 . S
C2147 C2150 1.463 . S
C2147 C2152 1.350 . S
C2147 N2155 1.427 . S
C2148 H2139 0.930 . S
C2148 C2146 1.378 . S
C2148 C2149 1.367 . S
C2149 C2148 1.367 . S
C2149 C2151 1.433 . S
C2150 C2146 1.350 . S
C2150 C2147 1.463 . S
C2150 N2154 1.427 . S
C2151 H2141 0.929 . S
C2151 C2149 1.433 . S
C2151 N2154 1.384 . S
C2152 H2143 0.929 . S
C2152 C2144 1.378 . S
C2152 C2147 1.350 . S
C2153 H2140 0.929 . S
C2153 C2145 1.433 . S
C2153 N2155 1.384 . S
N2154 C2150 1.427 . S
N2154 C2151 1.384 . S
N2155 C2147 1.427 . S
N2155 C2153 1.384 . S
H2156 C2162 0.930 . S
H2157 C2166 0.930 . S
H2158 C2171 0.929 . S
H2159 C2169 0.929 . S
H2160 C2164 0.929 . S
H2161 C2170 0.929 . S
C2162 H2156 0.930 . S
C2162 C2163 1.367 1_655 S
C2162 C2170 1.378 . S
C2163 C2162 1.367 1_455 S
C2163 C2171 1.433 . S
C2164 H2160 0.929 . S
C2164 C2166 1.378 . S
C2164 C2168 1.350 . S
C2165 C2168 1.463 . S
C2165 C2170 1.350 1_455 S
C2165 N2173 1.427 . S
C2166 H2157 0.930 . S
C2166 C2164 1.378 . S
C2166 C2167 1.367 . S
C2167 C2166 1.367 . S
C2167 C2169 1.433 1_455 S
C2168 C2164 1.350 . S
C2168 C2165 1.463 . S
C2168 N2172 1.427 1_455 S
C2169 H2159 0.929 . S
C2169 C2167 1.433 1_655 S
C2169 N2172 1.384 . S
C2170 H2161 0.929 . S
C2170 C2162 1.378 . S
C2170 C2165 1.350 1_655 S
C2171 H2158 0.929 . S
C2171 C2163 1.433 . S
C2171 N2173 1.384 . S
N2172 C2168 1.427 1_655 S
N2172 C2169 1.384 . S
N2173 C2165 1.427 . S
N2173 C2171 1.384 . S
H2174 C2180 0.930 . S
H2175 C2184 0.930 . S
H2176 C2189 0.929 . S
H2177 C2187 0.929 . S
H2178 C2182 0.929 . S
H2179 C2188 0.929 . S
C2180 H2174 0.930 . S
C2180 C2181 1.367 . S
C2180 C2188 1.378 . S
C2181 C2180 1.367 . S
C2181 C2189 1.433 . S
C2182 H2178 0.929 . S
C2182 C2184 1.378 . S
C2182 C2186 1.350 . S
C2183 C2186 1.463 . S
C2183 C2188 1.350 . S
C2183 N2191 1.427 . S
C2184 H2175 0.930 . S
C2184 C2182 1.378 . S
C2184 C2185 1.367 . S
C2185 C2184 1.367 . S
C2185 C2187 1.433 . S
C2186 C2182 1.350 . S
C2186 C2183 1.463 . S
C2186 N2190 1.427 . S
C2187 H2177 0.929 . S
C2187 C2185 1.433 . S
C2187 N2190 1.384 . S
C2188 H2179 0.929 . S
C2188 C2180 1.378 . S
C2188 C2183 1.350 . S
C2189 H2176 0.929 . S
C2189 C2181 1.433 . S
C2189 N2191 1.384 . S
N2190 C2186 1.427 . S
N2190 C2187 1.384 . S
N2191 C2183 1.427 . S
N2191 C2189 1.384 . S
H2192 C2198 0.930 . S
H2193 C2202 0.930 . S
H2194 C2207 0.929 . S
H2195 C2205 0.929 . S
H2196 C2200 0.929 . S
H2197 C2206 0.929 . S
C2198 H2192 0.930 . S
C2198 C2199 1.367 . S
C2198 C2206 1.378 . S
C2199 C2198 1.367 . S
C2199 C2207 1.433 . S
C2200 H2196 0.929 . S
C2200 C2202 1.378 . S
C2200 C2204 1.350 . S
C2201 C2204 1.463 . S
C2201 C2206 1.350 . S
C2201 N2209 1.427 . S
C2202 H2193 0.930 . S
C2202 C2200 1.378 . S
C2202 C2203 1.367 . S
C2203 C2202 1.367 . S
C2203 C2205 1.433 . S
C2204 C2200 1.350 . S
C2204 C2201 1.463 . S
C2204 N2208 1.427 . S
C2205 H2195 0.929 . S
C2205 C2203 1.433 . S
C2205 N2208 1.384 . S
C2206 H2197 0.929 . S
C2206 C2198 1.378 . S
C2206 C2201 1.350 . S
C2207 H2194 0.929 . S
C2207 C2199 1.433 . S
C2207 N2209 1.384 . S
N2208 C2204 1.427 . S
N2208 C2205 1.384 . S
N2209 C2201 1.427 . S
N2209 C2207 1.384 . S
H2210 C2216 0.930 . S
H2211 C2220 0.930 . S
H2212 C2225 0.929 . S
H2213 C2223 0.929 . S
H2214 C2218 0.929 . S
H2215 C2224 0.929 . S
C2216 H2210 0.930 . S
C2216 C2217 1.367 . S
C2216 C2224 1.378 . S
C2217 C2216 1.367 . S
C2217 C2225 1.433 . S
C2218 H2214 0.929 . S
C2218 C2220 1.378 . S
C2218 C2222 1.350 . S
C2219 C2222 1.463 . S
C2219 C2224 1.350 . S
C2219 N2227 1.427 . S
C2220 H2211 0.930 . S
C2220 C2218 1.378 . S
C2220 C2221 1.367 . S
C2221 C2220 1.367 . S
C2221 C2223 1.433 . S
C2222 C2218 1.350 . S
C2222 C2219 1.463 . S
C2222 N2226 1.427 . S
C2223 H2213 0.929 . S
C2223 C2221 1.433 . S
C2223 N2226 1.384 . S
C2224 H2215 0.929 . S
C2224 C2216 1.378 . S
C2224 C2219 1.350 . S
C2225 H2212 0.929 . S
C2225 C2217 1.433 . S
C2225 N2227 1.384 . S
N2226 C2222 1.427 . S
N2226 C2223 1.384 . S
N2227 C2219 1.427 . S
N2227 C2225 1.384 . S
H2228 C2234 0.930 . S
H2229 C2238 0.930 . S
H2230 C2243 0.929 . S
H2231 C2241 0.929 . S
H2232 C2236 0.929 . S
H2233 C2242 0.929 . S
C2234 H2228 0.930 . S
C2234 C2235 1.367 . S
C2234 C2242 1.378 . S
C2235 C2234 1.367 . S
C2235 C2243 1.433 . S
C2236 H2232 0.929 . S
C2236 C2238 1.378 . S
C2236 C2240 1.350 . S
C2237 C2240 1.463 . S
C2237 C2242 1.350 . S
C2237 N2245 1.427 . S
C2238 H2229 0.930 . S
C2238 C2236 1.378 . S
C2238 C2239 1.367 . S
C2239 C2238 1.367 . S
C2239 C2241 1.433 . S
C2240 C2236 1.350 . S
C2240 C2237 1.463 . S
C2240 N2244 1.427 . S
C2241 H2231 0.929 . S
C2241 C2239 1.433 . S
C2241 N2244 1.384 . S
C2242 H2233 0.929 . S
C2242 C2234 1.378 . S
C2242 C2237 1.350 . S
C2243 H2230 0.929 . S
C2243 C2235 1.433 . S
C2243 N2245 1.384 . S
N2244 C2240 1.427 . S
N2244 C2241 1.384 . S
N2245 C2237 1.427 . S
N2245 C2243 1.384 . S
H2246 C2252 0.930 . S
H2247 C2256 0.930 . S
H2248 C2261 0.929 . S
H2249 C2259 0.929 . S
H2250 C2254 0.929 . S
H2251 C2260 0.929 . S
C2252 H2246 0.930 . S
C2252 C2253 1.367 . S
C2252 C2260 1.378 . S
C2253 C2252 1.367 . S
C2253 C2261 1.433 . S
C2254 H2250 0.929 . S
C2254 C2256 1.378 . S
C2254 C2258 1.350 . S
C2255 C2258 1.463 . S
C2255 C2260 1.350 . S
C2255 N2263 1.427 . S
C2256 H2247 0.930 . S
C2256 C2254 1.378 . S
C2256 C2257 1.367 . S
C2257 C2256 1.367 . S
C2257 C2259 1.433 . S
C2258 C2254 1.350 . S
C2258 C2255 1.463 . S
C2258 N2262 1.427 . S
C2259 H2249 0.929 . S
C2259 C2257 1.433 . S
C2259 N2262 1.384 . S
C2260 H2251 0.929 . S
C2260 C2252 1.378 . S
C2260 C2255 1.350 . S
C2261 H2248 0.929 . S
C2261 C2253 1.433 . S
C2261 N2263 1.384 . S
N2262 C2258 1.427 . S
N2262 C2259 1.384 . S
N2263 C2255 1.427 . S
N2263 C2261 1.384 . S
H2264 C2270 0.930 . S
H2265 C2274 0.930 . S
H2266 C2279 0.929 . S
H2267 C2277 0.929 . S
H2268 C2272 0.929 . S
H2269 C2278 0.929 . S
C2270 H2264 0.930 . S
C2270 C2271 1.367 . S
C2270 C2278 1.378 . S
C2271 C2270 1.367 . S
C2271 C2279 1.433 . S
C2272 H2268 0.929 . S
C2272 C2274 1.378 . S
C2272 C2276 1.350 . S
C2273 C2276 1.463 . S
C2273 C2278 1.350 . S
C2273 N2281 1.427 . S
C2274 H2265 0.930 . S
C2274 C2272 1.378 . S
C2274 C2275 1.367 . S
C2275 C2274 1.367 . S
C2275 C2277 1.433 . S
C2276 C2272 1.350 . S
C2276 C2273 1.463 . S
C2276 N2280 1.427 . S
C2277 H2267 0.929 . S
C2277 C2275 1.433 . S
C2277 N2280 1.384 . S
C2278 H2269 0.929 . S
C2278 C2270 1.378 . S
C2278 C2273 1.350 . S
C2279 H2266 0.929 . S
C2279 C2271 1.433 . S
C2279 N2281 1.384 . S
N2280 C2276 1.427 . S
N2280 C2277 1.384 . S
N2281 C2273 1.427 . S
N2281 C2279 1.384 . S
H2282 C2288 0.930 . S
H2283 C2292 0.930 . S
H2284 C2297 0.929 . S
H2285 C2295 0.929 . S
H2286 C2290 0.929 . S
H2287 C2296 0.929 . S
C2288 H2282 0.930 . S
C2288 C2289 1.367 . S
C2288 C2296 1.378 . S
C2289 C2288 1.367 . S
C2289 C2297 1.433 . S
C2290 H2286 0.929 . S
C2290 C2292 1.378 . S
C2290 C2294 1.350 . S
C2291 C2294 1.463 . S
C2291 C2296 1.350 . S
C2291 N2299 1.427 . S
C2292 H2283 0.930 . S
C2292 C2290 1.378 . S
C2292 C2293 1.367 . S
C2293 C2292 1.367 . S
C2293 C2295 1.433 . S
C2294 C2290 1.350 . S
C2294 C2291 1.463 . S
C2294 N2298 1.427 . S
C2295 H2285 0.929 . S
C2295 C2293 1.433 . S
C2295 N2298 1.384 . S
C2296 H2287 0.929 . S
C2296 C2288 1.378 . S
C2296 C2291 1.350 . S
C2297 H2284 0.929 . S
C2297 C2289 1.433 . S
C2297 N2299 1.384 . S
N2298 C2294 1.427 . S
N2298 C2295 1.384 . S
N2299 C2291 1.427 . S
N2299 C2297 1.384 . S
H2300 C2306 0.930 . S
H2301 C2310 0.930 . S
H2302 C2315 0.929 . S
H2303 C2313 0.929 . S
H2304 C2308 0.929 . S
H2305 C2314 0.929 . S
C2306 H2300 0.930 . S
C2306 C2307 1.367 . S
C2306 C2314 1.378 . S
C2307 C2306 1.367 . S
C2307 C2315 1.433 . S
C2308 H2304 0.929 . S
C2308 C2310 1.378 . S
C2308 C2312 1.350 . S
C2309 C2312 1.463 . S
C2309 C2314 1.350 . S
C2309 N2317 1.427 . S
C2310 H2301 0.930 . S
C2310 C2308 1.378 . S
C2310 C2311 1.367 . S
C2311 C2310 1.367 . S
C2311 C2313 1.433 . S
C2312 C2308 1.350 . S
C2312 C2309 1.463 . S
C2312 N2316 1.427 . S
C2313 H2303 0.929 . S
C2313 C2311 1.433 . S
C2313 N2316 1.384 . S
C2314 H2305 0.929 . S
C2314 C2306 1.378 . S
C2314 C2309 1.350 . S
C2315 H2302 0.929 . S
C2315 C2307 1.433 . S
C2315 N2317 1.384 . S
N2316 C2312 1.427 . S
N2316 C2313 1.384 . S
N2317 C2309 1.427 . S
N2317 C2315 1.384 . S
H2318 C2324 0.930 . S
H2319 C2328 0.930 . S
H2320 C2333 0.929 . S
H2321 C2331 0.929 . S
H2322 C2326 0.929 . S
H2323 C2332 0.929 . S
C2324 H2318 0.930 . S
C2324 C2325 1.367 . S
C2324 C2332 1.378 . S
C2325 C2324 1.367 . S
C2325 C2333 1.433 . S
C2326 H2322 0.929 . S
C2326 C2328 1.378 . S
C2326 C2330 1.350 . S
C2327 C2330 1.463 . S
C2327 C2332 1.350 . S
C2327 N2335 1.427 . S
C2328 H2319 0.930 . S
C2328 C2326 1.378 . S
C2328 C2329 1.367 . S
C2329 C2328 1.367 . S
C2329 C2331 1.433 . S
C2330 C2326 1.350 . S
C2330 C2327 1.463 . S
C2330 N2334 1.427 . S
C2331 H2321 0.929 . S
C2331 C2329 1.433 . S
C2331 N2334 1.384 . S
C2332 H2323 0.929 . S
C2332 C2324 1.378 . S
C2332 C2327 1.350 . S
C2333 H2320 0.929 . S
C2333 C2325 1.433 . S
C2333 N2335 1.384 . S
N2334 C2330 1.427 . S
N2334 C2331 1.384 . S
N2335 C2327 1.427 . S
N2335 C2333 1.384 . S
H2336 C2342 0.930 . S
H2337 C2346 0.930 . S
H2338 C2351 0.929 . S
H2339 C2349 0.929 . S
H2340 C2344 0.929 . S
H2341 C2350 0.929 . S
C2342 H2336 0.930 . S
C2342 C2343 1.367 . S
C2342 C2350 1.378 . S
C2343 C2342 1.367 . S
C2343 C2351 1.433 . S
C2344 H2340 0.929 . S
C2344 C2346 1.378 . S
C2344 C2348 1.350 . S
C2345 C2348 1.463 . S
C2345 C2350 1.350 . S
C2345 N2353 1.427 . S
C2346 H2337 0.930 . S
C2346 C2344 1.378 . S
C2346 C2347 1.367 . S
C2347 C2346 1.367 . S
C2347 C2349 1.433 . S
C2348 C2344 1.350 . S
C2348 C2345 1.463 . S
C2348 N2352 1.427 . S
C2349 H2339 0.929 . S
C2349 C2347 1.433 . S
C2349 N2352 1.384 . S
C2350 H2341 0.929 . S
C2350 C2342 1.378 . S
C2350 C2345 1.350 . S
C2351 H2338 0.929 . S
C2351 C2343 1.433 . S
C2351 N2353 1.384 . S
N2352 C2348 1.427 . S
N2352 C2349 1.384 . S
N2353 C2345 1.427 . S
N2353 C2351 1.384 . S
H2354 C2360 0.930 . S
H2355 C2364 0.930 . S
H2356 C2369 0.929 . S
H2357 C2367 0.929 . S
H2358 C2362 0.929 . S
H2359 C2368 0.929 . S
C2360 H2354 0.930 . S
C2360 C2361 1.367 . S
C2360 C2368 1.378 . S
C2361 C2360 1.367 . S
C2361 C2369 1.433 . S
C2362 H2358 0.929 . S
C2362 C2364 1.378 . S
C2362 C2366 1.350 . S
C2363 C2366 1.463 . S
C2363 C2368 1.350 . S
C2363 N2371 1.427 . S
C2364 H2355 0.930 . S
C2364 C2362 1.378 . S
C2364 C2365 1.367 . S
C2365 C2364 1.367 . S
C2365 C2367 1.433 . S
C2366 C2362 1.350 . S
C2366 C2363 1.463 . S
C2366 N2370 1.427 . S
C2367 H2357 0.929 . S
C2367 C2365 1.433 . S
C2367 N2370 1.384 . S
C2368 H2359 0.929 . S
C2368 C2360 1.378 . S
C2368 C2363 1.350 . S
C2369 H2356 0.929 . S
C2369 C2361 1.433 . S
C2369 N2371 1.384 . S
N2370 C2366 1.427 . S
N2370 C2367 1.384 . S
N2371 C2363 1.427 . S
N2371 C2369 1.384 . S
H2372 C2378 0.930 . S
H2373 C2382 0.930 . S
H2374 C2387 0.929 . S
H2375 C2385 0.929 . S
H2376 C2380 0.929 . S
H2377 C2386 0.929 . S
C2378 H2372 0.930 . S
C2378 C2379 1.367 . S
C2378 C2386 1.378 . S
C2379 C2378 1.367 . S
C2379 C2387 1.433 . S
C2380 H2376 0.929 . S
C2380 C2382 1.378 . S
C2380 C2384 1.350 . S
C2381 C2384 1.463 . S
C2381 C2386 1.350 . S
C2381 N2389 1.427 . S
C2382 H2373 0.930 . S
C2382 C2380 1.378 . S
C2382 C2383 1.367 . S
C2383 C2382 1.367 . S
C2383 C2385 1.433 . S
C2384 C2380 1.350 . S
C2384 C2381 1.463 . S
C2384 N2388 1.427 . S
C2385 H2375 0.929 . S
C2385 C2383 1.433 . S
C2385 N2388 1.384 . S
C2386 H2377 0.929 . S
C2386 C2378 1.378 . S
C2386 C2381 1.350 . S
C2387 H2374 0.929 . S
C2387 C2379 1.433 . S
C2387 N2389 1.384 . S
N2388 C2384 1.427 . S
N2388 C2385 1.384 . S
N2389 C2381 1.427 . S
N2389 C2387 1.384 . S
H2390 C2396 0.930 1_556 S
H2391 C2400 0.930 . S
H2392 C2405 0.929 . S
H2393 C2403 0.929 . S
H2394 C2398 0.929 . S
H2395 C2404 0.946 . S
C2396 H2390 0.930 1_554 S
C2396 C2397 1.367 . S
C2396 C2404 1.375 1_554 S
C2397 C2396 1.367 . S
C2397 C2405 1.433 . S
C2398 H2394 0.929 . S
C2398 C2400 1.378 . S
C2398 C2402 1.350 . S
C2399 C2402 1.463 . S
C2399 C2404 1.336 1_554 S
C2399 N2407 1.427 . S
C2400 H2391 0.930 . S
C2400 C2398 1.378 . S
C2400 C2401 1.367 1_565 S
C2401 C2400 1.367 1_545 S
C2401 C2403 1.433 1_554 S
C2402 C2398 1.350 . S
C2402 C2399 1.463 . S
C2402 N2406 1.427 1_554 S
C2403 H2393 0.929 . S
C2403 C2401 1.433 1_556 S
C2403 N2406 1.384 1_545 S
C2404 H2395 0.946 . S
C2404 C2396 1.375 1_556 S
C2404 C2399 1.336 1_556 S
C2405 H2392 0.929 . S
C2405 C2397 1.433 . S
C2405 N2407 1.384 . S
N2406 C2402 1.427 1_556 S
N2406 C2403 1.384 1_565 S
N2407 C2399 1.427 . S
N2407 C2405 1.384 . S
H2408 C2414 0.930 . S
H2409 C2418 0.930 . S
H2410 C2423 0.929 . S
H2411 C2421 0.929 . S
H2412 C2416 0.929 . S
H2413 C2422 0.929 . S
C2414 H2408 0.930 . S
C2414 C2415 1.367 . S
C2414 C2422 1.378 . S
C2415 C2414 1.367 . S
C2415 C2423 1.433 . S
C2416 H2412 0.929 . S
C2416 C2418 1.378 . S
C2416 C2420 1.350 . S
C2417 C2420 1.463 . S
C2417 C2422 1.350 . S
C2417 N2425 1.427 . S
C2418 H2409 0.930 . S
C2418 C2416 1.378 . S
C2418 C2419 1.367 . S
C2419 C2418 1.367 . S
C2419 C2421 1.433 . S
C2420 C2416 1.350 . S
C2420 C2417 1.463 . S
C2420 N2424 1.427 . S
C2421 H2411 0.929 . S
C2421 C2419 1.433 . S
C2421 N2424 1.384 . S
C2422 H2413 0.929 . S
C2422 C2414 1.378 . S
C2422 C2417 1.350 . S
C2423 H2410 0.929 . S
C2423 C2415 1.433 . S
C2423 N2425 1.384 . S
N2424 C2420 1.427 . S
N2424 C2421 1.384 . S
N2425 C2417 1.427 . S
N2425 C2423 1.384 . S
H2426 C2432 0.930 . S
H2427 C2436 0.930 1_556 S
H2428 C2441 0.929 . S
H2429 C2439 0.929 . S
H2430 C2434 0.929 1_556 S
H2431 C2440 0.929 . S
C2432 H2426 0.930 . S
C2432 C2433 1.367 . S
C2432 C2440 1.378 . S
C2433 C2432 1.367 . S
C2433 C2441 1.433 1_554 S
C2434 H2430 0.929 1_554 S
C2434 C2436 1.378 . S
C2434 C2438 1.350 . S
C2435 C2438 1.463 . S
C2435 C2440 1.350 . S
C2435 N2443 1.427 1_554 S
C2436 H2427 0.930 1_554 S
C2436 C2434 1.378 . S
C2436 C2437 1.367 . S
C2437 C2436 1.367 . S
C2437 C2439 1.433 . S
C2438 C2434 1.350 . S
C2438 C2435 1.463 . S
C2438 N2442 1.427 . S
C2439 H2429 0.929 . S
C2439 C2437 1.433 . S
C2439 N2442 1.384 . S
C2440 H2431 0.929 . S
C2440 C2432 1.378 . S
C2440 C2435 1.350 . S
C2441 H2428 0.929 . S
C2441 C2433 1.433 1_556 S
C2441 N2443 1.384 . S
N2442 C2438 1.427 . S
N2442 C2439 1.384 . S
N2443 C2435 1.427 1_556 S
N2443 C2441 1.384 . S
H2444 C2450 0.930 . S
H2445 C2454 0.930 . S
H2446 C2459 0.929 . S
H2447 C2457 0.929 . S
H2448 C2452 0.929 . S
H2449 C2458 0.929 . S
C2450 H2444 0.930 . S
C2450 C2451 1.367 . S
C2450 C2458 1.378 . S
C2451 C2450 1.367 . S
C2451 C2459 1.433 . S
C2452 H2448 0.929 . S
C2452 C2454 1.378 . S
C2452 C2456 1.350 . S
C2453 C2456 1.463 . S
C2453 C2458 1.350 . S
C2453 N2461 1.427 . S
C2454 H2445 0.930 . S
C2454 C2452 1.378 . S
C2454 C2455 1.367 . S
C2455 C2454 1.367 . S
C2455 C2457 1.433 . S
C2456 C2452 1.350 . S
C2456 C2453 1.463 . S
C2456 N2460 1.427 . S
C2457 H2447 0.929 . S
C2457 C2455 1.433 . S
C2457 N2460 1.384 . S
C2458 H2449 0.929 . S
C2458 C2450 1.378 . S
C2458 C2453 1.350 . S
C2459 H2446 0.929 . S
C2459 C2451 1.433 . S
C2459 N2461 1.384 . S
N2460 C2456 1.427 . S
N2460 C2457 1.384 . S
N2461 C2453 1.427 . S
N2461 C2459 1.384 . S
H2462 C2468 0.930 . S
H2463 C2472 0.930 . S
H2464 C2477 0.929 . S
H2465 C2475 0.929 . S
H2466 C2470 0.929 . S
H2467 C2476 0.929 . S
C2468 H2462 0.930 . S
C2468 C2469 1.367 . S
C2468 C2476 1.378 . S
C2469 C2468 1.367 . S
C2469 C2477 1.433 . S
C2470 H2466 0.929 . S
C2470 C2472 1.378 . S
C2470 C2474 1.350 . S
C2471 C2474 1.463 . S
C2471 C2476 1.350 . S
C2471 N2479 1.427 . S
C2472 H2463 0.930 . S
C2472 C2470 1.378 . S
C2472 C2473 1.367 . S
C2473 C2472 1.367 . S
C2473 C2475 1.433 . S
C2474 C2470 1.350 . S
C2474 C2471 1.463 . S
C2474 N2478 1.427 . S
C2475 H2465 0.929 . S
C2475 C2473 1.433 . S
C2475 N2478 1.384 . S
C2476 H2467 0.929 . S
C2476 C2468 1.378 . S
C2476 C2471 1.350 . S
C2477 H2464 0.929 . S
C2477 C2469 1.433 . S
C2477 N2479 1.384 . S
N2478 C2474 1.427 . S
N2478 C2475 1.384 . S
N2479 C2471 1.427 . S
N2479 C2477 1.384 . S
H2480 C2486 0.930 . S
H2481 C2490 0.930 . S
H2482 C2495 0.929 . S
H2483 C2493 0.929 . S
H2484 C2488 0.929 . S
H2485 C2494 0.929 . S
C2486 H2480 0.930 . S
C2486 C2487 1.367 . S
C2486 C2494 1.378 . S
C2487 C2486 1.367 . S
C2487 C2495 1.433 . S
C2488 H2484 0.929 . S
C2488 C2490 1.378 . S
C2488 C2492 1.350 . S
C2489 C2492 1.463 . S
C2489 C2494 1.350 . S
C2489 N2497 1.427 . S
C2490 H2481 0.930 . S
C2490 C2488 1.378 . S
C2490 C2491 1.367 . S
C2491 C2490 1.367 . S
C2491 C2493 1.433 . S
C2492 C2488 1.350 . S
C2492 C2489 1.463 . S
C2492 N2496 1.427 . S
C2493 H2483 0.929 . S
C2493 C2491 1.433 . S
C2493 N2496 1.384 . S
C2494 H2485 0.929 . S
C2494 C2486 1.378 . S
C2494 C2489 1.350 . S
C2495 H2482 0.929 . S
C2495 C2487 1.433 . S
C2495 N2497 1.384 . S
N2496 C2492 1.427 . S
N2496 C2493 1.384 . S
N2497 C2489 1.427 . S
N2497 C2495 1.384 . S
H2498 C2504 0.930 . S
H2499 C2508 0.930 . S
H2500 C2513 0.929 . S
H2501 C2511 0.929 . S
H2502 C2506 0.929 . S
H2503 C2512 0.929 . S
C2504 H2498 0.930 . S
C2504 C2505 1.367 . S
C2504 C2512 1.378 . S
C2505 C2504 1.367 . S
C2505 C2513 1.433 . S
C2506 H2502 0.929 . S
C2506 C2508 1.378 . S
C2506 C2510 1.350 . S
C2507 C2510 1.463 . S
C2507 C2512 1.350 . S
C2507 N2515 1.427 . S
C2508 H2499 0.930 . S
C2508 C2506 1.378 . S
C2508 C2509 1.367 . S
C2509 C2508 1.367 . S
C2509 C2511 1.433 . S
C2510 C2506 1.350 . S
C2510 C2507 1.463 . S
C2510 N2514 1.427 . S
C2511 H2501 0.929 . S
C2511 C2509 1.433 . S
C2511 N2514 1.384 . S
C2512 H2503 0.929 . S
C2512 C2504 1.378 . S
C2512 C2507 1.350 . S
C2513 H2500 0.929 . S
C2513 C2505 1.433 . S
C2513 N2515 1.384 . S
N2514 C2510 1.427 . S
N2514 C2511 1.384 . S
N2515 C2507 1.427 . S
N2515 C2513 1.384 . S
H2516 C2522 0.930 . S
H2517 C2526 0.930 1_655 S
H2518 C2531 0.929 1_655 S
H2519 C2529 0.929 . S
H2520 C2524 0.929 1_655 S
H2521 C2530 0.929 . S
C2522 H2516 0.930 . S
C2522 C2523 1.367 . S
C2522 C2530 1.378 . S
C2523 C2522 1.367 . S
C2523 C2531 1.433 . S
C2524 H2520 0.929 1_455 S
C2524 C2526 1.378 . S
C2524 C2528 1.350 . S
C2525 C2528 1.463 . S
C2525 C2530 1.350 . S
C2525 N2533 1.427 . S
C2526 H2517 0.930 1_455 S
C2526 C2524 1.378 . S
C2526 C2527 1.367 . S
C2527 C2526 1.367 . S
C2527 C2529 1.433 . S
C2528 C2524 1.350 . S
C2528 C2525 1.463 . S
C2528 N2532 1.427 . S
C2529 H2519 0.929 . S
C2529 C2527 1.433 . S
C2529 N2532 1.384 . S
C2530 H2521 0.929 . S
C2530 C2522 1.378 . S
C2530 C2525 1.350 . S
C2531 H2518 0.929 1_455 S
C2531 C2523 1.433 . S
C2531 N2533 1.384 . S
N2532 C2528 1.427 . S
N2532 C2529 1.384 . S
N2533 C2525 1.427 . S
N2533 C2531 1.384 . S
H2534 C2540 0.930 . S
H2535 C2544 0.930 . S
H2536 C2549 0.929 . S
H2537 C2547 0.929 . S
H2538 C2542 0.929 . S
H2539 C2548 0.929 . S
C2540 H2534 0.930 . S
C2540 C2541 1.367 . S
C2540 C2548 1.378 . S
C2541 C2540 1.367 . S
C2541 C2549 1.433 . S
C2542 H2538 0.929 . S
C2542 C2544 1.378 . S
C2542 C2546 1.350 . S
C2543 C2546 1.463 . S
C2543 C2548 1.350 . S
C2543 N2551 1.427 . S
C2544 H2535 0.930 . S
C2544 C2542 1.378 . S
C2544 C2545 1.367 . S
C2545 C2544 1.367 . S
C2545 C2547 1.433 . S
C2546 C2542 1.350 . S
C2546 C2543 1.463 . S
C2546 N2550 1.427 . S
C2547 H2537 0.929 . S
C2547 C2545 1.433 . S
C2547 N2550 1.384 . S
C2548 H2539 0.929 . S
C2548 C2540 1.378 . S
C2548 C2543 1.350 . S
C2549 H2536 0.929 . S
C2549 C2541 1.433 . S
C2549 N2551 1.384 . S
N2550 C2546 1.427 . S
N2550 C2547 1.384 . S
N2551 C2543 1.427 . S
N2551 C2549 1.384 . S
H2552 C2558 0.930 . S
H2553 C2562 0.930 . S
H2554 C2567 0.929 . S
H2555 C2565 0.929 . S
H2556 C2560 0.929 . S
H2557 C2566 0.929 . S
C2558 H2552 0.930 . S
C2558 C2559 1.367 . S
C2558 C2566 1.378 . S
C2559 C2558 1.367 . S
C2559 C2567 1.433 . S
C2560 H2556 0.929 . S
C2560 C2562 1.378 . S
C2560 C2564 1.350 . S
C2561 C2564 1.463 . S
C2561 C2566 1.350 . S
C2561 N2569 1.427 . S
C2562 H2553 0.930 . S
C2562 C2560 1.378 . S
C2562 C2563 1.367 . S
C2563 C2562 1.367 . S
C2563 C2565 1.433 . S
C2564 C2560 1.350 . S
C2564 C2561 1.463 . S
C2564 N2568 1.427 . S
C2565 H2555 0.929 . S
C2565 C2563 1.433 . S
C2565 N2568 1.384 . S
C2566 H2557 0.929 . S
C2566 C2558 1.378 . S
C2566 C2561 1.350 . S
C2567 H2554 0.929 . S
C2567 C2559 1.433 . S
C2567 N2569 1.384 . S
N2568 C2564 1.427 . S
N2568 C2565 1.384 . S
N2569 C2561 1.427 . S
N2569 C2567 1.384 . S
H2570 C2576 0.930 . S
H2571 C2580 0.930 . S
H2572 C2585 0.929 . S
H2573 C2583 0.929 . S
H2574 C2578 0.929 . S
H2575 C2584 0.929 . S
C2576 H2570 0.930 . S
C2576 C2577 1.367 . S
C2576 C2584 1.378 . S
C2577 C2576 1.367 . S
C2577 C2585 1.433 . S
C2578 H2574 0.929 . S
C2578 C2580 1.378 . S
C2578 C2582 1.350 . S
C2579 C2582 1.463 . S
C2579 C2584 1.350 . S
C2579 N2587 1.427 . S
C2580 H2571 0.930 . S
C2580 C2578 1.378 . S
C2580 C2581 1.367 . S
C2581 C2580 1.367 . S
C2581 C2583 1.433 . S
C2582 C2578 1.350 . S
C2582 C2579 1.463 . S
C2582 N2586 1.427 . S
C2583 H2573 0.929 . S
C2583 C2581 1.433 . S
C2583 N2586 1.384 . S
C2584 H2575 0.929 . S
C2584 C2576 1.378 . S
C2584 C2579 1.350 . S
C2585 H2572 0.929 . S
C2585 C2577 1.433 . S
C2585 N2587 1.384 . S
N2586 C2582 1.427 . S
N2586 C2583 1.384 . S
N2587 C2579 1.427 . S
N2587 C2585 1.384 . S
H2588 C2594 0.930 . S
H2589 C2598 0.930 . S
H2590 C2603 0.929 . S
H2591 C2601 0.929 . S
H2592 C2596 0.929 . S
H2593 C2602 0.929 . S
C2594 H2588 0.930 . S
C2594 C2595 1.367 . S
C2594 C2602 1.378 . S
C2595 C2594 1.367 . S
C2595 C2603 1.433 . S
C2596 H2592 0.929 . S
C2596 C2598 1.378 . S
C2596 C2600 1.350 . S
C2597 C2600 1.463 . S
C2597 C2602 1.350 . S
C2597 N2605 1.427 . S
C2598 H2589 0.930 . S
C2598 C2596 1.378 . S
C2598 C2599 1.367 . S
C2599 C2598 1.367 . S
C2599 C2601 1.433 . S
C2600 C2596 1.350 . S
C2600 C2597 1.463 . S
C2600 N2604 1.427 . S
C2601 H2591 0.929 . S
C2601 C2599 1.433 . S
C2601 N2604 1.384 . S
C2602 H2593 0.929 . S
C2602 C2594 1.378 . S
C2602 C2597 1.350 . S
C2603 H2590 0.929 . S
C2603 C2595 1.433 . S
C2603 N2605 1.384 . S
N2604 C2600 1.427 . S
N2604 C2601 1.384 . S
N2605 C2597 1.427 . S
N2605 C2603 1.384 . S
H2606 C2612 0.930 . S
H2607 C2616 0.930 . S
H2608 C2621 0.929 . S
H2609 C2619 0.929 . S
H2610 C2614 0.929 . S
H2611 C2620 0.929 . S
C2612 H2606 0.930 . S
C2612 C2613 1.367 . S
C2612 C2620 1.378 . S
C2613 C2612 1.367 . S
C2613 C2621 1.433 . S
C2614 H2610 0.929 . S
C2614 C2616 1.378 . S
C2614 C2618 1.350 . S
C2615 C2618 1.463 . S
C2615 C2620 1.350 . S
C2615 N2623 1.427 . S
C2616 H2607 0.930 . S
C2616 C2614 1.378 . S
C2616 C2617 1.367 . S
C2617 C2616 1.367 . S
C2617 C2619 1.433 . S
C2618 C2614 1.350 . S
C2618 C2615 1.463 . S
C2618 N2622 1.427 . S
C2619 H2609 0.929 . S
C2619 C2617 1.433 . S
C2619 N2622 1.384 . S
C2620 H2611 0.929 . S
C2620 C2612 1.378 . S
C2620 C2615 1.350 . S
C2621 H2608 0.929 . S
C2621 C2613 1.433 . S
C2621 N2623 1.384 . S
N2622 C2618 1.427 . S
N2622 C2619 1.384 . S
N2623 C2615 1.427 . S
N2623 C2621 1.384 . S
H2624 C2630 0.930 . S
H2625 C2634 0.930 . S
H2626 C2639 0.929 . S
H2627 C2637 0.929 . S
H2628 C2632 0.929 . S
H2629 C2638 0.929 . S
C2630 H2624 0.930 . S
C2630 C2631 1.367 . S
C2630 C2638 1.378 . S
C2631 C2630 1.367 . S
C2631 C2639 1.433 . S
C2632 H2628 0.929 . S
C2632 C2634 1.378 . S
C2632 C2636 1.350 . S
C2633 C2636 1.463 . S
C2633 C2638 1.350 . S
C2633 N2641 1.427 . S
C2634 H2625 0.930 . S
C2634 C2632 1.378 . S
C2634 C2635 1.367 . S
C2635 C2634 1.367 . S
C2635 C2637 1.433 . S
C2636 C2632 1.350 . S
C2636 C2633 1.463 . S
C2636 N2640 1.427 . S
C2637 H2627 0.929 . S
C2637 C2635 1.433 . S
C2637 N2640 1.384 . S
C2638 H2629 0.929 . S
C2638 C2630 1.378 . S
C2638 C2633 1.350 . S
C2639 H2626 0.929 . S
C2639 C2631 1.433 . S
C2639 N2641 1.384 . S
N2640 C2636 1.427 . S
N2640 C2637 1.384 . S
N2641 C2633 1.427 . S
N2641 C2639 1.384 . S
H2642 C2648 0.930 . S
H2643 C2652 0.930 . S
H2644 C2657 0.929 . S
H2645 C2655 0.929 . S
H2646 C2650 0.929 . S
H2647 C2656 0.929 . S
C2648 H2642 0.930 . S
C2648 C2649 1.367 . S
C2648 C2656 1.378 . S
C2649 C2648 1.367 . S
C2649 C2657 1.433 . S
C2650 H2646 0.929 . S
C2650 C2652 1.378 . S
C2650 C2654 1.350 . S
C2651 C2654 1.463 . S
C2651 C2656 1.350 . S
C2651 N2659 1.427 . S
C2652 H2643 0.930 . S
C2652 C2650 1.378 . S
C2652 C2653 1.367 . S
C2653 C2652 1.367 . S
C2653 C2655 1.433 . S
C2654 C2650 1.350 . S
C2654 C2651 1.463 . S
C2654 N2658 1.427 . S
C2655 H2645 0.929 . S
C2655 C2653 1.433 . S
C2655 N2658 1.384 . S
C2656 H2647 0.929 . S
C2656 C2648 1.378 . S
C2656 C2651 1.350 . S
C2657 H2644 0.929 . S
C2657 C2649 1.433 . S
C2657 N2659 1.384 . S
N2658 C2654 1.427 . S
N2658 C2655 1.384 . S
N2659 C2651 1.427 . S
N2659 C2657 1.384 . S
H2660 C2666 0.930 . S
H2661 C2670 0.930 . S
H2662 C2675 0.929 . S
H2663 C2673 0.929 . S
H2664 C2668 0.929 1_455 S
H2665 C2674 0.929 . S
C2666 H2660 0.930 . S
C2666 C2667 1.367 . S
C2666 C2674 1.378 . S
C2667 C2666 1.367 . S
C2667 C2675 1.433 . S
C2668 H2664 0.929 1_655 S
C2668 C2670 1.378 1_655 S
C2668 C2672 1.350 . S
C2669 C2672 1.463 . S
C2669 C2674 1.350 . S
C2669 N2677 1.427 . S
C2670 H2661 0.930 . S
C2670 C2668 1.378 1_455 S
C2670 C2671 1.367 1_455 S
C2671 C2670 1.367 1_655 S
C2671 C2673 1.433 . S
C2672 C2668 1.350 . S
C2672 C2669 1.463 . S
C2672 N2676 1.427 . S
C2673 H2663 0.929 . S
C2673 C2671 1.433 . S
C2673 N2676 1.384 . S
C2674 H2665 0.929 . S
C2674 C2666 1.378 . S
C2674 C2669 1.350 . S
C2675 H2662 0.929 . S
C2675 C2667 1.433 . S
C2675 N2677 1.384 . S
N2676 C2672 1.427 . S
N2676 C2673 1.384 . S
N2677 C2669 1.427 . S
N2677 C2675 1.384 . S
H2678 C2684 0.930 . S
H2679 C2688 0.930 . S
H2680 C2693 0.929 . S
H2681 C2691 0.929 . S
H2682 C2686 0.929 . S
H2683 C2692 0.929 . S
C2684 H2678 0.930 . S
C2684 C2685 1.367 . S
C2684 C2692 1.378 . S
C2685 C2684 1.367 . S
C2685 C2693 1.433 . S
C2686 H2682 0.929 . S
C2686 C2688 1.378 . S
C2686 C2690 1.350 . S
C2687 C2690 1.463 . S
C2687 C2692 1.350 . S
C2687 N2695 1.427 . S
C2688 H2679 0.930 . S
C2688 C2686 1.378 . S
C2688 C2689 1.367 . S
C2689 C2688 1.367 . S
C2689 C2691 1.433 . S
C2690 C2686 1.350 . S
C2690 C2687 1.463 . S
C2690 N2694 1.427 . S
C2691 H2681 0.929 . S
C2691 C2689 1.433 . S
C2691 N2694 1.384 . S
C2692 H2683 0.929 . S
C2692 C2684 1.378 . S
C2692 C2687 1.350 . S
C2693 H2680 0.929 . S
C2693 C2685 1.433 . S
C2693 N2695 1.384 . S
N2694 C2690 1.427 . S
N2694 C2691 1.384 . S
N2695 C2687 1.427 . S
N2695 C2693 1.384 . S
H2696 C2702 0.930 . S
H2697 C2706 0.930 . S
H2698 C2711 0.929 . S
H2699 C2709 0.929 . S
H2700 C2704 0.929 . S
H2701 C2710 0.929 . S
C2702 H2696 0.930 . S
C2702 C2703 1.367 . S
C2702 C2710 1.378 . S
C2703 C2702 1.367 . S
C2703 C2711 1.433 . S
C2704 H2700 0.929 . S
C2704 C2706 1.378 . S
C2704 C2708 1.350 . S
C2705 C2708 1.463 . S
C2705 C2710 1.350 . S
C2705 N2713 1.427 . S
C2706 H2697 0.930 . S
C2706 C2704 1.378 . S
C2706 C2707 1.367 . S
C2707 C2706 1.367 . S
C2707 C2709 1.433 . S
C2708 C2704 1.350 . S
C2708 C2705 1.463 . S
C2708 N2712 1.427 . S
C2709 H2699 0.929 . S
C2709 C2707 1.433 . S
C2709 N2712 1.384 . S
C2710 H2701 0.929 . S
C2710 C2702 1.378 . S
C2710 C2705 1.350 . S
C2711 H2698 0.929 . S
C2711 C2703 1.433 . S
C2711 N2713 1.384 . S
N2712 C2708 1.427 . S
N2712 C2709 1.384 . S
N2713 C2705 1.427 . S
N2713 C2711 1.384 . S
H2714 C2720 0.930 . S
H2715 C2724 0.930 . S
H2716 C2729 0.929 . S
H2717 C2727 0.929 . S
H2718 C2722 0.929 . S
H2719 C2728 0.929 . S
C2720 H2714 0.930 . S
C2720 C2721 1.367 . S
C2720 C2728 1.378 . S
C2721 C2720 1.367 . S
C2721 C2729 1.433 . S
C2722 H2718 0.929 . S
C2722 C2724 1.378 . S
C2722 C2726 1.350 . S
C2723 C2726 1.463 . S
C2723 C2728 1.350 . S
C2723 N2731 1.427 . S
C2724 H2715 0.930 . S
C2724 C2722 1.378 . S
C2724 C2725 1.367 . S
C2725 C2724 1.367 . S
C2725 C2727 1.433 . S
C2726 C2722 1.350 . S
C2726 C2723 1.463 . S
C2726 N2730 1.427 . S
C2727 H2717 0.929 . S
C2727 C2725 1.433 . S
C2727 N2730 1.384 . S
C2728 H2719 0.929 . S
C2728 C2720 1.378 . S
C2728 C2723 1.350 . S
C2729 H2716 0.929 . S
C2729 C2721 1.433 . S
C2729 N2731 1.384 . S
N2730 C2726 1.427 . S
N2730 C2727 1.384 . S
N2731 C2723 1.427 . S
N2731 C2729 1.384 . S
H2732 C2738 0.930 . S
H2733 C2742 0.930 1_455 S
H2734 C2747 0.929 . S
H2735 C2745 0.929 . S
H2736 C2740 0.929 . S
H2737 C2746 0.929 . S
C2738 H2732 0.930 . S
C2738 C2739 1.367 . S
C2738 C2746 1.378 . S
C2739 C2738 1.367 . S
C2739 C2747 1.433 . S
C2740 H2736 0.929 . S
C2740 C2742 1.378 . S
C2740 C2744 1.350 . S
C2741 C2744 1.463 . S
C2741 C2746 1.350 . S
C2741 N2749 1.427 . S
C2742 H2733 0.930 1_655 S
C2742 C2740 1.378 . S
C2742 C2743 1.367 . S
C2743 C2742 1.367 . S
C2743 C2745 1.433 . S
C2744 C2740 1.350 . S
C2744 C2741 1.463 . S
C2744 N2748 1.427 . S
C2745 H2735 0.929 . S
C2745 C2743 1.433 . S
C2745 N2748 1.384 . S
C2746 H2737 0.929 . S
C2746 C2738 1.378 . S
C2746 C2741 1.350 . S
C2747 H2734 0.929 . S
C2747 C2739 1.433 . S
C2747 N2749 1.384 . S
N2748 C2744 1.427 . S
N2748 C2745 1.384 . S
N2749 C2741 1.427 . S
N2749 C2747 1.384 . S
H2750 C2756 0.930 . S
H2751 C2760 0.930 . S
H2752 C2765 0.929 . S
H2753 C2763 0.929 . S
H2754 C2758 0.929 . S
H2755 C2764 0.929 . S
C2756 H2750 0.930 . S
C2756 C2757 1.367 . S
C2756 C2764 1.378 . S
C2757 C2756 1.367 . S
C2757 C2765 1.433 . S
C2758 H2754 0.929 . S
C2758 C2760 1.378 . S
C2758 C2762 1.350 . S
C2759 C2762 1.463 . S
C2759 C2764 1.350 . S
C2759 N2767 1.427 . S
C2760 H2751 0.930 . S
C2760 C2758 1.378 . S
C2760 C2761 1.367 . S
C2761 C2760 1.367 . S
C2761 C2763 1.433 . S
C2762 C2758 1.350 . S
C2762 C2759 1.463 . S
C2762 N2766 1.427 . S
C2763 H2753 0.929 . S
C2763 C2761 1.433 . S
C2763 N2766 1.384 . S
C2764 H2755 0.929 . S
C2764 C2756 1.378 . S
C2764 C2759 1.350 . S
C2765 H2752 0.929 . S
C2765 C2757 1.433 . S
C2765 N2767 1.384 . S
N2766 C2762 1.427 . S
N2766 C2763 1.384 . S
N2767 C2759 1.427 . S
N2767 C2765 1.384 . S
H2768 C2774 0.930 . S
H2769 C2778 0.930 . S
H2770 C2783 0.929 . S
H2771 C2781 0.929 . S
H2772 C2776 0.929 . S
H2773 C2782 0.929 . S
C2774 H2768 0.930 . S
C2774 C2775 1.367 . S
C2774 C2782 1.378 . S
C2775 C2774 1.367 . S
C2775 C2783 1.433 . S
C2776 H2772 0.929 . S
C2776 C2778 1.378 . S
C2776 C2780 1.350 . S
C2777 C2780 1.463 . S
C2777 C2782 1.350 . S
C2777 N2785 1.427 . S
C2778 H2769 0.930 . S
C2778 C2776 1.378 . S
C2778 C2779 1.367 . S
C2779 C2778 1.367 . S
C2779 C2781 1.433 . S
C2780 C2776 1.350 . S
C2780 C2777 1.463 . S
C2780 N2784 1.427 . S
C2781 H2771 0.929 . S
C2781 C2779 1.433 . S
C2781 N2784 1.384 . S
C2782 H2773 0.929 . S
C2782 C2774 1.378 . S
C2782 C2777 1.350 . S
C2783 H2770 0.929 . S
C2783 C2775 1.433 . S
C2783 N2785 1.384 . S
N2784 C2780 1.427 . S
N2784 C2781 1.384 . S
N2785 C2777 1.427 . S
N2785 C2783 1.384 . S
H2786 C2792 0.930 . S
H2787 C2796 0.930 . S
H2788 C2801 0.929 . S
H2789 C2799 0.929 . S
H2790 C2794 0.929 . S
H2791 C2800 0.929 . S
C2792 H2786 0.930 . S
C2792 C2793 1.367 . S
C2792 C2800 1.378 . S
C2793 C2792 1.367 . S
C2793 C2801 1.433 . S
C2794 H2790 0.929 . S
C2794 C2796 1.378 1_565 S
C2794 C2798 1.350 . S
C2795 C2798 1.463 . S
C2795 C2800 1.350 . S
C2795 N2803 1.427 . S
C2796 H2787 0.930 . S
C2796 C2794 1.378 1_545 S
C2796 C2797 1.367 1_545 S
C2797 C2796 1.367 1_565 S
C2797 C2799 1.433 . S
C2798 C2794 1.350 . S
C2798 C2795 1.463 . S
C2798 N2802 1.427 . S
C2799 H2789 0.929 . S
C2799 C2797 1.433 . S
C2799 N2802 1.384 . S
C2800 H2791 0.929 . S
C2800 C2792 1.378 . S
C2800 C2795 1.350 . S
C2801 H2788 0.929 . S
C2801 C2793 1.433 . S
C2801 N2803 1.384 . S
N2802 C2798 1.427 . S
N2802 C2799 1.384 . S
N2803 C2795 1.427 . S
N2803 C2801 1.384 . S
H2804 C2810 0.930 . S
H2805 C2814 0.930 . S
H2806 C2819 0.929 . S
H2807 C2817 0.929 . S
H2808 C2812 0.929 . S
H2809 C2818 0.929 . S
C2810 H2804 0.930 . S
C2810 C2811 1.367 . S
C2810 C2818 1.378 . S
C2811 C2810 1.367 . S
C2811 C2819 1.433 . S
C2812 H2808 0.929 . S
C2812 C2814 1.378 . S
C2812 C2816 1.350 . S
C2813 C2816 1.463 . S
C2813 C2818 1.350 . S
C2813 N2821 1.427 . S
C2814 H2805 0.930 . S
C2814 C2812 1.378 . S
C2814 C2815 1.367 . S
C2815 C2814 1.367 . S
C2815 C2817 1.433 . S
C2816 C2812 1.350 . S
C2816 C2813 1.463 . S
C2816 N2820 1.427 . S
C2817 H2807 0.929 . S
C2817 C2815 1.433 . S
C2817 N2820 1.384 . S
C2818 H2809 0.929 . S
C2818 C2810 1.378 . S
C2818 C2813 1.350 . S
C2819 H2806 0.929 . S
C2819 C2811 1.433 . S
C2819 N2821 1.384 . S
N2820 C2816 1.427 . S
N2820 C2817 1.384 . S
N2821 C2813 1.427 . S
N2821 C2819 1.384 . S
H2822 C2828 0.930 . S
H2823 C2832 0.930 . S
H2824 C2837 0.929 . S
H2825 C2835 0.929 . S
H2826 C2830 0.929 . S
H2827 C2836 0.929 . S
C2828 H2822 0.930 . S
C2828 C2829 1.367 . S
C2828 C2836 1.378 . S
C2829 C2828 1.367 . S
C2829 C2837 1.433 1_556 S
C2830 H2826 0.929 . S
C2830 C2832 1.378 . S
C2830 C2834 1.350 . S
C2831 C2834 1.463 1_556 S
C2831 C2836 1.348 . S
C2831 N2839 1.429 1_556 S
C2832 H2823 0.930 . S
C2832 C2830 1.378 . S
C2832 C2833 1.367 . S
C2833 C2832 1.367 . S
C2833 C2835 1.433 1_554 S
C2834 C2830 1.350 . S
C2834 C2831 1.463 1_554 S
C2834 N2838 1.427 1_554 S
C2835 H2825 0.929 . S
C2835 C2833 1.433 1_556 S
C2835 N2838 1.384 . S
C2836 H2827 0.929 . S
C2836 C2828 1.378 . S
C2836 C2831 1.348 . S
C2837 H2824 0.929 . S
C2837 C2829 1.433 1_554 S
C2837 N2839 1.384 . S
N2838 C2834 1.427 1_556 S
N2838 C2835 1.384 . S
N2839 C2831 1.429 1_554 S
N2839 C2837 1.384 . S
H2840 C2846 0.930 . S
H2841 C2850 0.930 . S
H2842 C2855 0.929 . S
H2843 C2853 0.929 . S
H2844 C2848 0.929 . S
H2845 C2854 0.929 . S
C2846 H2840 0.930 . S
C2846 C2847 1.367 . S
C2846 C2854 1.378 . S
C2847 C2846 1.367 . S
C2847 C2855 1.433 . S
C2848 H2844 0.929 . S
C2848 C2850 1.378 . S
C2848 C2852 1.350 . S
C2849 C2852 1.463 . S
C2849 C2854 1.350 . S
C2849 N2857 1.427 . S
C2850 H2841 0.930 . S
C2850 C2848 1.378 . S
C2850 C2851 1.367 . S
C2851 C2850 1.367 . S
C2851 C2853 1.433 . S
C2852 C2848 1.350 . S
C2852 C2849 1.463 . S
C2852 N2856 1.427 . S
C2853 H2843 0.929 . S
C2853 C2851 1.433 . S
C2853 N2856 1.384 . S
C2854 H2845 0.929 . S
C2854 C2846 1.378 . S
C2854 C2849 1.350 . S
C2855 H2842 0.929 . S
C2855 C2847 1.433 . S
C2855 N2857 1.384 . S
N2856 C2852 1.427 . S
N2856 C2853 1.384 . S
N2857 C2849 1.427 . S
N2857 C2855 1.384 . S
H2858 C2864 0.932 . S
H2859 C2868 0.930 1_554 S
H2860 C2873 0.929 . S
H2861 C2871 0.929 . S
H2862 C2866 0.929 . S
H2863 C2872 0.929 . S
C2864 H2858 0.932 . S
C2864 C2865 1.363 1_556 S
C2864 C2872 1.380 . S
C2865 C2864 1.363 1_554 S
C2865 C2873 1.433 . S
C2866 H2862 0.929 . S
C2866 C2868 1.378 1_554 S
C2866 C2870 1.350 1_554 S
C2867 C2870 1.458 1_554 S
C2867 C2872 1.348 1_554 S
C2867 N2875 1.435 . S
C2868 H2859 0.930 1_556 S
C2868 C2866 1.378 1_556 S
C2868 C2869 1.367 . S
C2869 C2868 1.367 . S
C2869 C2871 1.433 . S
C2870 C2866 1.350 1_556 S
C2870 C2867 1.458 1_556 S
C2870 N2874 1.427 . S
C2871 H2861 0.929 . S
C2871 C2869 1.433 . S
C2871 N2874 1.384 . S
C2872 H2863 0.929 . S
C2872 C2864 1.380 . S
C2872 C2867 1.348 1_556 S
C2873 H2860 0.929 . S
C2873 C2865 1.433 . S
C2873 N2875 1.384 . S
N2874 C2870 1.427 . S
N2874 C2871 1.384 . S
N2875 C2867 1.435 . S
N2875 C2873 1.384 . S
H2876 C2882 0.930 . S
H2877 C2886 0.930 . S
H2878 C2891 0.929 . S
H2879 C2889 0.929 . S
H2880 C2884 0.929 . S
H2881 C2890 0.929 . S
C2882 H2876 0.930 . S
C2882 C2883 1.367 . S
C2882 C2890 1.378 . S
C2883 C2882 1.367 . S
C2883 C2891 1.433 . S
C2884 H2880 0.929 . S
C2884 C2886 1.378 . S
C2884 C2888 1.350 . S
C2885 C2888 1.463 . S
C2885 C2890 1.350 . S
C2885 N2893 1.427 . S
C2886 H2877 0.930 . S
C2886 C2884 1.378 . S
C2886 C2887 1.367 . S
C2887 C2886 1.367 . S
C2887 C2889 1.433 . S
C2888 C2884 1.350 . S
C2888 C2885 1.463 . S
C2888 N2892 1.427 . S
C2889 H2879 0.929 . S
C2889 C2887 1.433 . S
C2889 N2892 1.384 . S
C2890 H2881 0.929 . S
C2890 C2882 1.378 . S
C2890 C2885 1.350 . S
C2891 H2878 0.929 . S
C2891 C2883 1.433 . S
C2891 N2893 1.384 . S
N2892 C2888 1.427 . S
N2892 C2889 1.384 . S
N2893 C2885 1.427 . S
N2893 C2891 1.384 . S
H2894 C2900 0.930 . S
H2895 C2904 0.930 . S
H2896 C2909 0.929 . S
H2897 C2907 0.929 . S
H2898 C2902 0.929 . S
H2899 C2908 0.929 . S
C2900 H2894 0.930 . S
C2900 C2901 1.367 . S
C2900 C2908 1.378 . S
C2901 C2900 1.367 . S
C2901 C2909 1.433 . S
C2902 H2898 0.929 . S
C2902 C2904 1.378 . S
C2902 C2906 1.350 . S
C2903 C2906 1.463 . S
C2903 C2908 1.350 . S
C2903 N2911 1.427 . S
C2904 H2895 0.930 . S
C2904 C2902 1.378 . S
C2904 C2905 1.367 . S
C2905 C2904 1.367 . S
C2905 C2907 1.433 . S
C2906 C2902 1.350 . S
C2906 C2903 1.463 . S
C2906 N2910 1.427 . S
C2907 H2897 0.929 . S
C2907 C2905 1.433 . S
C2907 N2910 1.384 . S
C2908 H2899 0.929 . S
C2908 C2900 1.378 . S
C2908 C2903 1.350 . S
C2909 H2896 0.929 . S
C2909 C2901 1.433 . S
C2909 N2911 1.384 . S
N2910 C2906 1.427 . S
N2910 C2907 1.384 . S
N2911 C2903 1.427 . S
N2911 C2909 1.384 . S
C1191 C255 1.531 . S
C1195 C882 1.500 . S
C1209 C147 1.579 . S
C1213 C893 1.584 . S
C1227 C184 0.996 . S
C1231 C922 0.967 . S
C1249 C925 1.435 . S
C1245 C220 1.444 . S
C1263 C40 1.561 . S
C1267 C963 1.503 . S
C1285 C966 1.022 . S
C1281 C74 1.010 . S
C1303 C993 1.494 . S
C1299 C110 1.494 . S
C1317 C14 1.566 . S
C1321 C1022 1.552 . S
C1339 C873 1.566 1_655 S
C1335 C579 1.572 . S
C1353 C616 0.901 . S
C1357 C885 0.891 . S
C1375 C913 1.594 . S
C1371 C687 1.602 . S
C1393 C942 1.175 . S
C1389 C436 1.164 . S
C1407 C580 1.024 . S
C1411 C946 1.038 . S
C1429 C972 1.610 . S
C1425 C615 1.629 . S
C1447 C985 0.808 . S
C1443 C688 0.809 . S
C1465 C1013 1.609 . S
C1461 C435 1.622 . S
C1483 C865 1.500 1_565 S
C1479 C410 1.508 . S
C1497 C722 1.782 . S
C1501 C1032 1.753 1_554 S
C1519 C1063 1.592 . S
C1515 C842 1.618 . S
C1537 C1082 0.978 . S
C1533 C794 0.971 . S
C1551 C302 1.388 . S
C1555 C1005 1.386 . S
C1569 C338 1.472 . S
C1573 C905 1.486 . S
C1587 C830 1.652 . S
C1591 C1093 1.648 . S
C1609 C1122 0.972 . S
C1605 C758 0.979 . S
C1627 C883 1.469 . S
C1623 C158 1.430 . S
C1645 C1112 1.601 . S
C1641 C254 1.601 . S
C1659 C218 0.990 . S
C1663 C923 0.953 . S
C1677 C194 1.357 . S
C1681 C1086 1.413 . S
C1699 C962 1.477 1_655 S
C1695 C3 1.536 . S
C1713 C111 0.925 . S
C1717 C1045 0.923 . S
C1735 C992 1.434 1_556 S
C1731 C76 1.434 . S
C1753 C1143 1.618 . S
C1749 C50 1.610 . S
C1771 C872 1.530 . S
C1767 C364 1.535 1_565 S
C1789 C1106 0.898 . S
C1785 C795 0.900 . S
C1803 C292 1.550 . S
C1807 C912 1.548 . S
C1821 C723 1.116 . S
C1825 C1103 1.103 . S
C1839 C363 1.020 . S
C1843 C945 1.019 . S
C1861 C1053 1.594 . S
C1857 C796 1.613 . S
C1875 C291 0.777 . S
C1879 C986 0.785 . S
C1893 C724 1.609 . S
C1897 C1132 1.605 . S
C1911 C482 1.451 . S
C1915 C866 1.503 . S
C1929 C434 1.760 . S
C1933 C1033 1.733 . S
C1947 C662 1.534 . S
C1951 C982 1.551 . S
C1965 C614 0.966 . S
C1969 C1083 0.942 . S
C1987 C1126 1.373 . S
C1983 C698 1.313 . S
C2001 C554 1.420 . S
C2005 C906 1.505 1_565 S
C2023 C932 1.601 . S
C2019 C650 1.599 . S
C2041 C903 0.939 . S
C2037 C506 0.953 . S
C2055 C183 1.534 . S
C2059 C1162 1.506 . S
C2077 C1113 1.583 . S
C2073 C219 1.578 . S
C2091 C256 0.987 . S
C2095 C1182 0.982 . S
C2109 C148 1.442 . S
C2113 C1085 1.435 . S
C2127 C122 1.574 . S
C2131 C1043 1.557 . S
C2149 C1046 0.959 . S
C2145 C2 0.966 . S
C2167 C1073 1.388 . S
C2163 C39 1.392 . S
C2185 C1142 1.622 . S
C2181 C86 1.636 . S
C2203 C1153 1.584 . S
C2199 C651 1.583 . S
C2217 C472 0.902 . S
C2221 C1105 0.894 . S
C2239 C1173 1.582 . S
C2235 C507 1.594 . S
C2257 C1102 1.169 . S
C2253 C544 1.174 . S
C2275 C1026 1.046 . S
C2271 C652 1.035 . S
C2289 C471 1.611 . S
C2293 C1052 1.587 . S
C2311 C1065 0.781 . S
C2307 C508 0.786 . S
C2325 C543 1.642 . S
C2329 C1133 1.630 . S
C2347 C1145 1.531 . S
C2343 C806 1.531 . S
C2361 C326 1.763 . S
C2365 C952 1.738 . S
C2383 C983 1.553 . S
C2379 C374 1.600 . S
C2401 C1002 0.984 . S
C2397 C398 0.998 . S
C2419 C1125 1.381 . S
C2415 C770 1.381 . S
C2433 C734 1.462 . S
C2437 C1165 1.474 . S
C2455 C933 1.636 . S
C2451 C362 1.635 . S
C2473 C902 0.980 . S
C2469 C290 0.999 . S
C2487 C230 1.438 . S
C2491 C1163 1.465 . S
C2509 C892 1.608 . S
C2505 C182 1.608 . S
C2523 C146 0.986 . S
C2527 C1183 0.954 . S
C2541 C266 1.373 . S
C2545 C926 1.414 . S
C2559 C75 1.601 . S
C2563 C1042 1.555 . S
C2581 C965 1.016 . S
C2577 C38 1.004 . S
C2595 C4 1.375 . S
C2599 C1072 1.378 . S
C2613 C112 1.614 . S
C2617 C1023 1.550 . S
C2635 C1152 1.534 . S
C2631 C832 1.539 . S
C2649 C399 0.908 . S
C2653 C886 0.907 . S
C2671 C1172 1.542 1_655 S
C2667 C760 1.546 . S
C2685 C327 1.113 . S
C2689 C943 1.103 . S
C2703 C831 1.033 . S
C2707 C1025 1.043 . S
C2725 C973 1.598 . S
C2721 C400 1.614 . S
C2739 C759 0.787 . S
C2743 C1066 0.774 . S
C2761 C1012 1.609 . S
C2757 C328 1.613 . S
C2779 C1146 1.518 . S
C2775 C626 1.466 . S
C2797 C953 1.739 1_565 S
C2793 C542 1.761 . S
C2811 C590 1.517 . S
C2815 C1062 1.537 . S
C2833 C1003 0.952 . S
C2829 C470 0.969 . S
C2847 C518 1.310 . S
C2851 C1006 1.368 . S
C2865 C446 1.416 . S
C2869 C1166 1.489 . S
C2887 C1092 1.608 . S
C2883 C578 1.577 1_565 S
C2905 C1123 0.904 . S
C2901 C686 0.936 . S
