# Generated by pormake.
# Topology iac, (4,6)-cn, num edge types: 1
# Building blocks:
#     Node 0, Type 0, BuildingBlock: QUQFOY_clean_sbu_3, # of connection points: 4
#     Node 1, Type 0, BuildingBlock: QUQFOY_clean_sbu_3, # of connection points: 4
#     Node 2, Type 0, BuildingBlock: QUQFOY_clean_sbu_3, # of connection points: 4
#     Node 3, Type 0, BuildingBlock: QUQFOY_clean_sbu_3, # of connection points: 4
#     Node 4, Type 0, BuildingBlock: QUQFOY_clean_sbu_3, # of connection points: 4
#     Node 5, Type 0, BuildingBlock: QUQFOY_clean_sbu_3, # of connection points: 4
#     Node 6, Type 0, BuildingBlock: QUQFOY_clean_sbu_3, # of connection points: 4
#     Node 7, Type 0, BuildingBlock: QUQFOY_clean_sbu_3, # of connection points: 4
#     Node 8, Type 0, BuildingBlock: QUQFOY_clean_sbu_3, # of connection points: 4
#     Node 9, Type 0, BuildingBlock: QUQFOY_clean_sbu_3, # of connection points: 4
#     Node 10, Type 0, BuildingBlock: QUQFOY_clean_sbu_3, # of connection points: 4
#     Node 11, Type 0, BuildingBlock: QUQFOY_clean_sbu_3, # of connection points: 4
#     Node 12, Type 0, BuildingBlock: QUQFOY_clean_sbu_3, # of connection points: 4
#     Node 13, Type 0, BuildingBlock: QUQFOY_clean_sbu_3, # of connection points: 4
#     Node 14, Type 0, BuildingBlock: QUQFOY_clean_sbu_3, # of connection points: 4
#     Node 15, Type 0, BuildingBlock: QUQFOY_clean_sbu_3, # of connection points: 4
#     Node 16, Type 0, BuildingBlock: QUQFOY_clean_sbu_3, # of connection points: 4
#     Node 17, Type 0, BuildingBlock: QUQFOY_clean_sbu_3, # of connection points: 4
#     Node 18, Type 0, BuildingBlock: QUQFOY_clean_sbu_3, # of connection points: 4
#     Node 19, Type 0, BuildingBlock: QUQFOY_clean_sbu_3, # of connection points: 4
#     Node 20, Type 0, BuildingBlock: QUQFOY_clean_sbu_3, # of connection points: 4
#     Node 21, Type 0, BuildingBlock: QUQFOY_clean_sbu_3, # of connection points: 4
#     Node 22, Type 0, BuildingBlock: QUQFOY_clean_sbu_3, # of connection points: 4
#     Node 23, Type 0, BuildingBlock: QUQFOY_clean_sbu_3, # of connection points: 4
#     Node 24, Type 1, BuildingBlock: LEVNOQ01_clean_sbu_1, # of connection points: 6
#     Node 25, Type 1, BuildingBlock: LEVNOQ01_clean_sbu_1, # of connection points: 6
#     Node 26, Type 1, BuildingBlock: LEVNOQ01_clean_sbu_1, # of connection points: 6
#     Node 27, Type 1, BuildingBlock: LEVNOQ01_clean_sbu_1, # of connection points: 6
#     Node 28, Type 1, BuildingBlock: LEVNOQ01_clean_sbu_1, # of connection points: 6
#     Node 29, Type 1, BuildingBlock: LEVNOQ01_clean_sbu_1, # of connection points: 6
#     Node 30, Type 1, BuildingBlock: LEVNOQ01_clean_sbu_1, # of connection points: 6
#     Node 31, Type 1, BuildingBlock: LEVNOQ01_clean_sbu_1, # of connection points: 6
#     Node 32, Type 1, BuildingBlock: LEVNOQ01_clean_sbu_1, # of connection points: 6
#     Node 33, Type 1, BuildingBlock: LEVNOQ01_clean_sbu_1, # of connection points: 6
#     Node 34, Type 1, BuildingBlock: LEVNOQ01_clean_sbu_1, # of connection points: 6
#     Node 35, Type 1, BuildingBlock: LEVNOQ01_clean_sbu_1, # of connection points: 6
#     Node 36, Type 1, BuildingBlock: LEVNOQ01_clean_sbu_1, # of connection points: 6
#     Node 37, Type 1, BuildingBlock: LEVNOQ01_clean_sbu_1, # of connection points: 6
#     Node 38, Type 1, BuildingBlock: LEVNOQ01_clean_sbu_1, # of connection points: 6
#     Node 39, Type 1, BuildingBlock: LEVNOQ01_clean_sbu_1, # of connection points: 6
#     Edge 40, Type (0, 1), BuildingBlock: AJUNOK_clean_linker_0, # of connection points: 2
#     Edge 41, Type (0, 1), BuildingBlock: AJUNOK_clean_linker_0, # of connection points: 2
#     Edge 42, Type (0, 1), BuildingBlock: AJUNOK_clean_linker_0, # of connection points: 2
#     Edge 43, Type (0, 1), BuildingBlock: AJUNOK_clean_linker_0, # of connection points: 2
#     Edge 44, Type (0, 1), BuildingBlock: AJUNOK_clean_linker_0, # of connection points: 2
#     Edge 45, Type (0, 1), BuildingBlock: AJUNOK_clean_linker_0, # of connection points: 2
#     Edge 46, Type (0, 1), BuildingBlock: AJUNOK_clean_linker_0, # of connection points: 2
#     Edge 47, Type (0, 1), BuildingBlock: AJUNOK_clean_linker_0, # of connection points: 2
#     Edge 48, Type (0, 1), BuildingBlock: AJUNOK_clean_linker_0, # of connection points: 2
#     Edge 49, Type (0, 1), BuildingBlock: AJUNOK_clean_linker_0, # of connection points: 2
#     Edge 50, Type (0, 1), BuildingBlock: AJUNOK_clean_linker_0, # of connection points: 2
#     Edge 51, Type (0, 1), BuildingBlock: AJUNOK_clean_linker_0, # of connection points: 2
#     Edge 52, Type (0, 1), BuildingBlock: AJUNOK_clean_linker_0, # of connection points: 2
#     Edge 53, Type (0, 1), BuildingBlock: AJUNOK_clean_linker_0, # of connection points: 2
#     Edge 54, Type (0, 1), BuildingBlock: AJUNOK_clean_linker_0, # of connection points: 2
#     Edge 55, Type (0, 1), BuildingBlock: AJUNOK_clean_linker_0, # of connection points: 2
#     Edge 56, Type (0, 1), BuildingBlock: AJUNOK_clean_linker_0, # of connection points: 2
#     Edge 57, Type (0, 1), BuildingBlock: AJUNOK_clean_linker_0, # of connection points: 2
#     Edge 58, Type (0, 1), BuildingBlock: AJUNOK_clean_linker_0, # of connection points: 2
#     Edge 59, Type (0, 1), BuildingBlock: AJUNOK_clean_linker_0, # of connection points: 2
#     Edge 60, Type (0, 1), BuildingBlock: AJUNOK_clean_linker_0, # of connection points: 2
#     Edge 61, Type (0, 1), BuildingBlock: AJUNOK_clean_linker_0, # of connection points: 2
#     Edge 62, Type (0, 1), BuildingBlock: AJUNOK_clean_linker_0, # of connection points: 2
#     Edge 63, Type (0, 1), BuildingBlock: AJUNOK_clean_linker_0, # of connection points: 2
#     Edge 64, Type (0, 1), BuildingBlock: AJUNOK_clean_linker_0, # of connection points: 2
#     Edge 65, Type (0, 1), BuildingBlock: AJUNOK_clean_linker_0, # of connection points: 2
#     Edge 66, Type (0, 1), BuildingBlock: AJUNOK_clean_linker_0, # of connection points: 2
#     Edge 67, Type (0, 1), BuildingBlock: AJUNOK_clean_linker_0, # of connection points: 2
#     Edge 68, Type (0, 1), BuildingBlock: AJUNOK_clean_linker_0, # of connection points: 2
#     Edge 69, Type (0, 1), BuildingBlock: AJUNOK_clean_linker_0, # of connection points: 2
#     Edge 70, Type (0, 1), BuildingBlock: AJUNOK_clean_linker_0, # of connection points: 2
#     Edge 71, Type (0, 1), BuildingBlock: AJUNOK_clean_linker_0, # of connection points: 2
#     Edge 72, Type (0, 1), BuildingBlock: AJUNOK_clean_linker_0, # of connection points: 2
#     Edge 73, Type (0, 1), BuildingBlock: AJUNOK_clean_linker_0, # of connection points: 2
#     Edge 74, Type (0, 1), BuildingBlock: AJUNOK_clean_linker_0, # of connection points: 2
#     Edge 75, Type (0, 1), BuildingBlock: AJUNOK_clean_linker_0, # of connection points: 2
#     Edge 76, Type (0, 1), BuildingBlock: AJUNOK_clean_linker_0, # of connection points: 2
#     Edge 77, Type (0, 1), BuildingBlock: AJUNOK_clean_linker_0, # of connection points: 2
#     Edge 78, Type (0, 1), BuildingBlock: AJUNOK_clean_linker_0, # of connection points: 2
#     Edge 79, Type (0, 1), BuildingBlock: AJUNOK_clean_linker_0, # of connection points: 2
#     Edge 80, Type (0, 1), BuildingBlock: AJUNOK_clean_linker_0, # of connection points: 2
#     Edge 81, Type (0, 1), BuildingBlock: AJUNOK_clean_linker_0, # of connection points: 2
#     Edge 82, Type (0, 1), BuildingBlock: AJUNOK_clean_linker_0, # of connection points: 2
#     Edge 83, Type (0, 1), BuildingBlock: AJUNOK_clean_linker_0, # of connection points: 2
#     Edge 84, Type (0, 1), BuildingBlock: AJUNOK_clean_linker_0, # of connection points: 2
#     Edge 85, Type (0, 1), BuildingBlock: AJUNOK_clean_linker_0, # of connection points: 2
#     Edge 86, Type (0, 1), BuildingBlock: AJUNOK_clean_linker_0, # of connection points: 2
#     Edge 87, Type (0, 1), BuildingBlock: AJUNOK_clean_linker_0, # of connection points: 2
#     Edge 88, Type (0, 1), BuildingBlock: AJUNOK_clean_linker_0, # of connection points: 2
#     Edge 89, Type (0, 1), BuildingBlock: AJUNOK_clean_linker_0, # of connection points: 2
#     Edge 90, Type (0, 1), BuildingBlock: AJUNOK_clean_linker_0, # of connection points: 2
#     Edge 91, Type (0, 1), BuildingBlock: AJUNOK_clean_linker_0, # of connection points: 2
#     Edge 92, Type (0, 1), BuildingBlock: AJUNOK_clean_linker_0, # of connection points: 2
#     Edge 93, Type (0, 1), BuildingBlock: AJUNOK_clean_linker_0, # of connection points: 2
#     Edge 94, Type (0, 1), BuildingBlock: AJUNOK_clean_linker_0, # of connection points: 2
#     Edge 95, Type (0, 1), BuildingBlock: AJUNOK_clean_linker_0, # of connection points: 2
#     Edge 96, Type (0, 1), BuildingBlock: AJUNOK_clean_linker_0, # of connection points: 2
#     Edge 97, Type (0, 1), BuildingBlock: AJUNOK_clean_linker_0, # of connection points: 2
#     Edge 98, Type (0, 1), BuildingBlock: AJUNOK_clean_linker_0, # of connection points: 2
#     Edge 99, Type (0, 1), BuildingBlock: AJUNOK_clean_linker_0, # of connection points: 2
#     Edge 100, Type (0, 1), BuildingBlock: AJUNOK_clean_linker_0, # of connection points: 2
#     Edge 101, Type (0, 1), BuildingBlock: AJUNOK_clean_linker_0, # of connection points: 2
#     Edge 102, Type (0, 1), BuildingBlock: AJUNOK_clean_linker_0, # of connection points: 2
#     Edge 103, Type (0, 1), BuildingBlock: AJUNOK_clean_linker_0, # of connection points: 2
#     Edge 104, Type (0, 1), BuildingBlock: AJUNOK_clean_linker_0, # of connection points: 2
#     Edge 105, Type (0, 1), BuildingBlock: AJUNOK_clean_linker_0, # of connection points: 2
#     Edge 106, Type (0, 1), BuildingBlock: AJUNOK_clean_linker_0, # of connection points: 2
#     Edge 107, Type (0, 1), BuildingBlock: AJUNOK_clean_linker_0, # of connection points: 2
#     Edge 108, Type (0, 1), BuildingBlock: AJUNOK_clean_linker_0, # of connection points: 2
#     Edge 109, Type (0, 1), BuildingBlock: AJUNOK_clean_linker_0, # of connection points: 2
#     Edge 110, Type (0, 1), BuildingBlock: AJUNOK_clean_linker_0, # of connection points: 2
#     Edge 111, Type (0, 1), BuildingBlock: AJUNOK_clean_linker_0, # of connection points: 2
#     Edge 112, Type (0, 1), BuildingBlock: AJUNOK_clean_linker_0, # of connection points: 2
#     Edge 113, Type (0, 1), BuildingBlock: AJUNOK_clean_linker_0, # of connection points: 2
#     Edge 114, Type (0, 1), BuildingBlock: AJUNOK_clean_linker_0, # of connection points: 2
#     Edge 115, Type (0, 1), BuildingBlock: AJUNOK_clean_linker_0, # of connection points: 2
#     Edge 116, Type (0, 1), BuildingBlock: AJUNOK_clean_linker_0, # of connection points: 2
#     Edge 117, Type (0, 1), BuildingBlock: AJUNOK_clean_linker_0, # of connection points: 2
#     Edge 118, Type (0, 1), BuildingBlock: AJUNOK_clean_linker_0, # of connection points: 2
#     Edge 119, Type (0, 1), BuildingBlock: AJUNOK_clean_linker_0, # of connection points: 2
#     Edge 120, Type (0, 1), BuildingBlock: AJUNOK_clean_linker_0, # of connection points: 2
#     Edge 121, Type (0, 1), BuildingBlock: AJUNOK_clean_linker_0, # of connection points: 2
#     Edge 122, Type (0, 1), BuildingBlock: AJUNOK_clean_linker_0, # of connection points: 2
#     Edge 123, Type (0, 1), BuildingBlock: AJUNOK_clean_linker_0, # of connection points: 2
#     Edge 124, Type (0, 1), BuildingBlock: AJUNOK_clean_linker_0, # of connection points: 2
#     Edge 125, Type (0, 1), BuildingBlock: AJUNOK_clean_linker_0, # of connection points: 2
#     Edge 126, Type (0, 1), BuildingBlock: AJUNOK_clean_linker_0, # of connection points: 2
#     Edge 127, Type (0, 1), BuildingBlock: AJUNOK_clean_linker_0, # of connection points: 2
#     Edge 128, Type (0, 1), BuildingBlock: AJUNOK_clean_linker_0, # of connection points: 2
#     Edge 129, Type (0, 1), BuildingBlock: AJUNOK_clean_linker_0, # of connection points: 2
#     Edge 130, Type (0, 1), BuildingBlock: AJUNOK_clean_linker_0, # of connection points: 2
#     Edge 131, Type (0, 1), BuildingBlock: AJUNOK_clean_linker_0, # of connection points: 2
#     Edge 132, Type (0, 1), BuildingBlock: AJUNOK_clean_linker_0, # of connection points: 2
#     Edge 133, Type (0, 1), BuildingBlock: AJUNOK_clean_linker_0, # of connection points: 2
#     Edge 134, Type (0, 1), BuildingBlock: AJUNOK_clean_linker_0, # of connection points: 2
#     Edge 135, Type (0, 1), BuildingBlock: AJUNOK_clean_linker_0, # of connection points: 2
# Relax obj value: 0.090
# Max RMSD: 0.170
# Mean RMSD: 0.086
data_MOF--net-iac--node1-QUQFOY_clean_sbu_3--node2-LEVNOQ01_clean_sbu_1--edge1-AJUNOK_clean_linker_0
_symmetry_space_group_name_H-M    P1
_symmetry_Int_Tables_number       1
_symmetry_cell_setting            triclinic
loop_
_symmetry_equiv_pos_as_xyz
'x, y, z'
_cell_length_a     40.871516
_cell_length_b     41.552
_cell_length_c     41.45841
_cell_angle_alpha  90.87641
_cell_angle_beta   89.838281
_cell_angle_gamma 90.532776
loop_
_atom_site_label
_atom_site_type_symbol
_atom_site_fract_x
_atom_site_fract_y
_atom_site_fract_z
_atom_type_partial_charge
C0 C 0.92689 0.25238 0.1684 0.0
O1 O 0.94448 0.23568 0.18699 0.0
Cd2 Cd -0.00034 0.21812 0.17609 0.0
O3 O 0.93782 0.26178 0.14142 0.0
Cd4 Cd -0.01203 0.26229 0.10982 0.0
C5 C -0.00659 0.18043 0.10126 0.0
O6 O 0.02132 0.26731 0.15718 0.0
O7 O 0.04739 0.27406 0.11259 0.0
O8 O 0.96601 0.31414 0.09703 0.0
C9 C 0.04837 0.27131 0.14298 0.0
O10 O -0.00253 0.17803 0.13161 0.0
C11 C 0.96991 0.31124 0.06676 0.0
O12 O -0.01156 0.20749 0.0883 0.0
O13 O 0.98198 0.2849 0.05644 0.0
C14 C 0.93165 0.75772 0.32377 0.0
O15 O 0.94817 0.77243 0.30243 0.0
Cd16 Cd 0.00683 0.77772 0.29952 0.0
O17 O 0.94533 0.74365 0.34697 0.0
Cd18 Cd -0.00054 0.73742 0.36806 0.0
C19 C 0.00936 0.81952 0.36887 0.0
O20 O 0.02658 0.72613 0.31645 0.0
O21 O 0.05558 0.72585 0.36001 0.0
O22 O 0.97677 0.6892 0.39133 0.0
C23 C 0.05425 0.72258 0.32965 0.0
O24 O 0.01387 0.82124 0.3386 0.0
C25 C -0.01054 0.69375 0.419 0.0
O26 O 0.00326 0.79291 0.38243 0.0
O27 O 0.00648 0.71922 0.42324 0.0
C28 C 0.42146 0.72516 0.64788 0.0
O29 O 0.43837 0.70776 0.66632 0.0
Cd30 Cd 0.49683 0.70387 0.66872 0.0
O31 O 0.43481 0.74325 0.62734 0.0
Cd32 Cd 0.49056 0.75301 0.61023 0.0
C33 C 0.50696 0.67333 0.59325 0.0
O34 O 0.51712 0.75755 0.66229 0.0
O35 O 0.54897 0.75829 0.62052 0.0
O36 O 0.4728 0.80822 0.60571 0.0
C37 C 0.54583 0.76 0.65095 0.0
O38 O 0.50982 0.66843 0.62333 0.0
C39 C 0.47599 0.80889 0.5753 0.0
O40 O 0.49853 0.7008 0.58288 0.0
O41 O 0.48696 0.7837 0.56135 0.0
C42 C 0.42918 0.2538 0.82726 0.0
O43 O 0.44598 0.26504 0.80415 0.0
Cd44 Cd 0.5033 0.2735 0.80136 0.0
O45 O 0.44228 0.24283 0.8525 0.0
Cd46 Cd 0.49795 0.2375 0.87245 0.0
C47 C 0.50243 0.31907 0.8695 0.0
O48 O 0.52429 0.22448 0.82172 0.0
O49 O 0.55622 0.23717 0.86146 0.0
O50 O 0.4825 0.18576 0.89416 0.0
C51 C 0.55303 0.22742 0.83255 0.0
O52 O 0.50691 0.31863 0.83913 0.0
C53 C 0.49415 0.1911 0.92211 0.0
O54 O 0.49803 0.29343 0.88538 0.0
O55 O 0.50716 0.21854 0.92747 0.0
C56 C 0.06799 0.01216 0.29279 0.0
O57 O 0.05405 0.02866 0.27135 0.0
Cd58 Cd 0.06478 0.02847 0.21522 0.0
O59 O 0.09125 -0.00679 0.28595 0.0
Cd60 Cd 0.12075 0.97745 0.23766 0.0
C61 C 0.1433 0.05619 0.22373 0.0
O62 O 0.07231 0.97264 0.20648 0.0
O63 O 0.11648 0.9685 0.17856 0.0
O64 O 0.12005 0.92385 0.26019 0.0
C65 C 0.08544 0.96725 0.17946 0.0
O66 O 0.11472 0.06097 0.21276 0.0
C67 C 0.15077 0.92017 0.25858 0.0
O68 O 0.15082 0.0289 0.2352 0.0
O69 O 0.16759 0.94355 0.24769 0.0
C70 C 0.29637 0.92282 0.46902 0.0
O71 O 0.27488 0.94237 0.4594 0.0
Cd72 Cd 0.21837 0.93016 0.45381 0.0
O73 O 0.28824 0.89598 0.48113 0.0
Cd74 Cd 0.23748 0.8675 0.49525 0.0
C75 C 0.23325 0.85855 0.41477 0.0
O76 O 0.20211 0.91293 0.50614 0.0
O77 O 0.17897 0.86593 0.50187 0.0
O78 O 0.26148 0.85949 0.54692 0.0
C79 C 0.17657 0.89563 0.50873 0.0
O80 O 0.22454 0.88779 0.41299 0.0
C81 C 0.25341 0.83001 0.54901 0.0
O82 O 0.239 0.84552 0.44169 0.0
O83 O 0.23942 0.81703 0.52467 0.0
C84 C 0.41164 0.97753 0.79556 0.0
O85 O 0.43354 0.96283 0.77945 0.0
Cd86 Cd 0.43359 0.95532 0.72191 0.0
O87 O 0.38779 -0.00912 0.78191 0.0
Cd88 Cd 0.36552 -0.0022 0.72938 0.0
C89 C 0.36136 0.91683 0.72569 0.0
O90 O 0.4153 0.00531 0.69974 0.0
O91 O 0.37041 -0.00084 0.67246 0.0
O92 O 0.34889 0.0485 0.7498 0.0
C93 C 0.4011 0.00363 0.67262 0.0
O94 O 0.39168 0.91355 0.71962 0.0
C95 C 0.31925 0.04556 0.74098 0.0
O96 O 0.34864 0.94418 0.73058 0.0
O97 O 0.31088 0.01991 0.72595 0.0
C98 C 0.30036 0.07718 0.98432 0.0
O99 O 0.28075 0.05543 -0.00605 0.0
Cd100 Cd 0.2258 0.06527 0.01096 0.0
O101 O 0.29104 0.1056 0.97927 0.0
Cd102 Cd 0.24143 0.13558 0.97374 0.0
C103 C 0.24006 0.1351 0.05556 0.0
O104 O 0.20501 0.09231 0.96593 0.0
O105 O 0.18084 0.13819 0.96835 0.0
O106 O 0.26512 0.13928 0.92167 0.0
C107 C 0.17847 0.10774 0.96659 0.0
O108 O 0.233 0.10512 0.05512 0.0
C109 C 0.26361 0.16971 0.92034 0.0
O110 O 0.24453 0.15085 0.02975 0.0
O111 O 0.25244 0.18468 0.94506 0.0
C112 C 0.80019 0.41395 0.97205 0.0
O113 O 0.78379 0.43529 0.95789 0.0
Cd114 Cd 0.72602 0.42772 0.94926 0.0
O115 O 0.78637 0.39005 0.98483 0.0
Cd116 Cd 0.73315 0.36852 -0.0078 0.0
C117 C 0.73513 0.35557 0.9135 0.0
O118 O 0.69866 0.4151 -0.00019 0.0
O119 O 0.6758 0.36814 -0.0091 0.0
O120 O 0.75173 0.36599 0.04532 0.0
C121 C 0.67324 0.39714 0.00044 0.0
O122 O 0.7279 0.38485 0.9091 0.0
C123 C 0.74319 0.33706 0.05007 0.0
O124 O 0.73881 0.34445 0.94153 0.0
O125 O 0.73139 0.32122 0.02621 0.0
C126 C 0.91151 0.47343 0.29264 0.0
O127 O 0.9324 0.45939 0.27468 0.0
Cd128 Cd 0.93499 0.45514 0.21763 0.0
O129 O 0.88773 0.48884 0.28095 0.0
Cd130 Cd 0.86578 0.49728 0.2277 0.0
C131 C 0.86516 0.41452 0.22397 0.0
O132 O 0.91788 0.50748 0.20371 0.0
O133 O 0.87686 0.50565 0.17086 0.0
O134 O 0.85034 0.54925 0.24752 0.0
C135 C 0.90712 0.51086 0.1755 0.0
O136 O 0.89434 0.41289 0.21347 0.0
C137 C 0.82103 0.54813 0.23738 0.0
O138 O 0.85154 0.44127 0.23053 0.0
O139 O 0.81146 0.52201 0.22382 0.0
C140 C 0.8056 0.56429 0.48012 0.0
O141 O 0.78803 0.54389 0.4949 0.0
Cd142 Cd 0.73454 0.55432 0.51578 0.0
O143 O 0.79501 0.59209 0.47397 0.0
Cd144 Cd 0.74209 0.61847 0.47744 0.0
C145 C 0.74507 0.6246 0.55914 0.0
O146 O 0.70639 0.57192 0.46856 0.0
O147 O 0.68184 0.61601 0.481 0.0
O148 O 0.75408 0.6358 0.42317 0.0
C149 C 0.67964 0.58658 0.4727 0.0
O150 O 0.73905 0.59452 0.56068 0.0
C151 C 0.75034 0.6655 0.4296 0.0
O152 O 0.7481 0.6383 0.53211 0.0
O153 O 0.74318 0.67304 0.45854 0.0
C154 C 0.57268 0.51635 0.7997 0.0
O155 O 0.55267 0.53221 0.78286 0.0
Cd156 Cd 0.55116 0.5359 0.72505 0.0
O157 O 0.59497 0.49959 0.78661 0.0
Cd158 Cd 0.61459 0.48658 0.7327 0.0
C159 C 0.62902 0.5662 0.71522 0.0
O160 O 0.56296 0.48336 0.70657 0.0
O161 O 0.60473 0.47968 0.67486 0.0
O162 O 0.61302 0.43144 0.74959 0.0
C163 C 0.57382 0.48057 0.67807 0.0
O164 O 0.59817 0.56979 0.71335 0.0
C165 C 0.64363 0.42729 0.74781 0.0
O166 O 0.64138 0.53932 0.72331 0.0
O167 O 0.66127 0.45104 0.73895 0.0
C168 C 0.94507 0.7513 0.80236 0.0
O169 O 0.96102 0.77152 0.78568 0.0
Cd170 Cd 0.01618 0.78361 0.80054 0.0
O171 O 0.95716 0.73945 0.82777 0.0
Cd172 Cd 0.00222 0.73447 0.86583 0.0
C173 C 0.00783 0.81621 0.87816 0.0
O174 O 0.03123 0.73148 0.8182 0.0
O175 O 0.06154 0.72203 0.85888 0.0
O176 O 0.96838 0.68668 0.87163 0.0
C177 C 0.05939 0.72548 0.82864 0.0
O178 O 0.01354 0.81937 0.84814 0.0
C179 C 0.98285 0.67702 0.8966 0.0
O180 O 0.00263 0.78866 0.89056 0.0
O181 O 0.00465 0.69547 0.90883 0.0
C182 C 0.9485 0.239 0.66722 0.0
O183 O 0.96899 0.22743 0.68674 0.0
Cd184 Cd 0.02423 0.21746 0.67182 0.0
O185 O 0.95645 0.24505 0.63811 0.0
Cd186 Cd 0.00126 0.24486 0.59821 0.0
C187 C 0.01209 0.1653 0.60714 0.0
O188 O 0.03679 0.26127 0.63802 0.0
O189 O 0.06166 0.24471 0.5952 0.0
O190 O -0.00992 0.29845 0.58398 0.0
C191 C 0.06349 0.25676 0.62342 0.0
O192 O 0.02275 0.17078 0.63556 0.0
C193 C -0.00904 0.29434 0.55365 0.0
O194 O 0.00113 0.18747 0.58932 0.0
O195 O -0.00648 0.26564 0.54286 0.0
C196 C 0.44646 0.2483 0.30439 0.0
O197 O 0.4649 0.26474 0.28605 0.0
Cd198 Cd 0.52009 0.27811 0.30255 0.0
O199 O 0.45689 0.23781 0.33115 0.0
Cd200 Cd 0.50422 0.23371 0.36664 0.0
C201 C 0.50974 0.31557 0.37687 0.0
O202 O 0.53947 0.22727 0.32168 0.0
O203 O 0.56366 0.22809 0.36767 0.0
O204 O 0.49369 0.17835 0.37839 0.0
C205 C 0.56595 0.22542 0.33722 0.0
O206 O 0.51655 0.31867 0.34703 0.0
C207 C 0.49042 0.18245 0.40859 0.0
O208 O 0.50432 0.28806 0.38894 0.0
O209 O 0.49218 0.21107 0.41968 0.0
C210 C 0.44798 0.74438 0.16958 0.0
O211 O 0.46606 0.7318 0.19074 0.0
Cd212 Cd 0.51998 0.71454 0.174 0.0
O213 O 0.45875 0.7488 0.14123 0.0
Cd214 Cd 0.50192 0.74529 0.10167 0.0
C215 C 0.49761 0.66495 0.1103 0.0
O216 O 0.54084 0.75626 0.14018 0.0
O217 O 0.5611 0.73676 0.09581 0.0
O218 O 0.49564 0.79954 0.08675 0.0
C219 C 0.56581 0.7483 0.12397 0.0
O220 O 0.51056 0.6674 0.13821 0.0
C221 C 0.48879 0.79405 0.05738 0.0
O222 O 0.49068 0.68955 0.09381 0.0
O223 O 0.48716 0.76487 0.04775 0.0
C224 C 0.92808 0.98063 0.79019 0.0
O225 O 0.94852 0.96726 0.77137 0.0
Cd226 Cd 0.93182 0.9562 0.71666 0.0
O227 O 0.9012 -0.00871 0.77959 0.0
Cd228 Cd 0.87281 -0.00187 0.72866 0.0
C229 C 0.85712 0.91893 0.72583 0.0
O230 O 0.91781 0.00647 0.69133 0.0
O231 O 0.87 -0.00524 0.67185 0.0
O232 O 0.8678 0.05449 0.7395 0.0
C233 C 0.89864 0.00568 0.66722 0.0
O234 O 0.88711 0.91592 0.71806 0.0
C235 C 0.83762 0.05573 0.73267 0.0
O236 O 0.84515 0.94646 0.73212 0.0
O237 O 0.82284 0.02917 0.72723 0.0
C238 C 0.79473 0.06637 0.50902 0.0
O239 O 0.77564 0.04884 0.52556 0.0
Cd240 Cd 0.71993 0.06127 0.53266 0.0
O241 O 0.78483 0.09106 0.49416 0.0
Cd242 Cd 0.73709 0.12287 0.47975 0.0
C243 C 0.72496 0.1406 0.55809 0.0
O244 O 0.7091 0.07545 0.47904 0.0
O245 O 0.67688 0.11494 0.47172 0.0
O246 O 0.76041 0.12355 0.42757 0.0
C247 C 0.68029 0.08495 0.4757 0.0
O248 O 0.71842 0.11119 0.56382 0.0
C249 C 0.75404 0.1527 0.42179 0.0
O250 O 0.73383 0.14989 0.53029 0.0
O251 O 0.74133 0.16952 0.44435 0.0
C252 C 0.55788 0.00394 0.2843 0.0
O253 O 0.53562 0.01414 0.26591 0.0
Cd254 Cd 0.54698 0.0233 0.21092 0.0
O255 O 0.58668 -0.0019 0.27416 0.0
Cd256 Cd 0.62629 -0.00377 0.22938 0.0
C257 C 0.61316 0.07602 0.22089 0.0
O258 O 0.58161 0.97949 0.20119 0.0
O259 O 0.62284 0.98515 0.16975 0.0
O260 O 0.6369 0.95324 0.26423 0.0
C261 C 0.59263 0.9786 0.1729 0.0
O262 O 0.58389 0.06978 0.21213 0.0
C263 C 0.66442 0.94499 0.25289 0.0
O264 O 0.63306 0.0543 0.22968 0.0
O265 O 0.67688 0.96306 0.23145 0.0
C266 C 0.79128 0.91823 0.98485 0.0
O267 O 0.77504 0.93255 0.96331 0.0
Cd268 Cd 0.71799 0.92496 0.95033 0.0
O269 O 0.77773 0.89665 0.0019 0.0
Cd270 Cd 0.72412 0.86925 0.00671 0.0
C271 C 0.71741 0.84639 0.92588 0.0
O272 O 0.69261 0.91602 0.00124 0.0
O273 O 0.664 0.87279 0.00768 0.0
O274 O 0.72878 0.86639 0.06518 0.0
C275 C 0.6646 0.90277 0.00221 0.0
O276 O 0.71342 0.87564 0.91817 0.0
C277 C 0.73455 0.83644 0.0649 0.0
O278 O 0.7231 0.83894 0.95511 0.0
O279 O 0.73429 0.82176 0.03778 0.0
C280 C 0.28877 0.56012 -0.01096 0.0
O281 O 0.26985 0.53917 0.00125 0.0
Cd282 Cd 0.2148 0.55565 0.0155 0.0
O283 O 0.27861 0.58835 0.98425 0.0
Cd284 Cd 0.23622 0.62721 -0.01321 0.0
C285 C 0.23221 0.61966 0.06631 0.0
O286 O 0.19464 0.59047 0.97458 0.0
O287 O 0.17866 0.63512 -0.00291 0.0
O288 O 0.24188 0.644 0.93294 0.0
C289 C 0.17134 0.60811 0.98428 0.0
O290 O 0.21839 0.59226 0.06236 0.0
C291 C 0.24744 0.67346 0.9394 0.0
O292 O 0.24411 0.63544 0.04291 0.0
O293 O 0.24996 0.6819 0.96891 0.0
C294 C 0.06898 0.49842 0.79806 0.0
O295 O 0.04841 0.51614 0.78403 0.0
Cd296 Cd 0.0552 0.53322 0.72939 0.0
O297 O 0.09434 0.48848 0.78348 0.0
Cd298 Cd 0.12387 0.48848 0.73332 0.0
C299 C 0.13133 0.56869 0.73174 0.0
O300 O 0.07647 0.48707 0.70295 0.0
O301 O 0.12095 0.49173 0.67492 0.0
O302 O 0.13269 0.43306 0.73457 0.0
C303 C 0.08991 0.49091 0.67576 0.0
O304 O 0.10054 0.57141 0.72811 0.0
C305 C 0.16336 0.43492 0.73862 0.0
O306 O 0.14452 0.54152 0.73604 0.0
O307 O 0.17667 0.46262 0.74078 0.0
C308 C 0.27349 0.43154 0.49843 0.0
O309 O 0.25209 0.44719 0.48313 0.0
Cd310 Cd 0.19828 0.42876 0.4674 0.0
O311 O 0.26714 0.40327 0.50835 0.0
Cd312 Cd 0.21702 0.36779 0.50811 0.0
C313 C 0.21792 0.35976 0.42598 0.0
O314 O 0.17424 0.40637 0.5144 0.0
O315 O 0.15804 0.35927 0.49901 0.0
O316 O 0.2246 0.36029 0.56502 0.0
C317 C 0.15055 0.38771 0.50746 0.0
O318 O 0.20419 0.38714 0.42501 0.0
C319 C 0.22484 0.3298 0.56369 0.0
O320 O 0.22751 0.34819 0.45268 0.0
O321 O 0.22239 0.31667 0.53585 0.0
C322 C 0.43536 0.47859 0.27972 0.0
O323 O 0.45465 0.46618 0.2591 0.0
Cd324 Cd 0.43036 0.45698 0.20721 0.0
O325 O 0.40773 0.48946 0.27138 0.0
Cd326 Cd 0.36977 0.50025 0.22802 0.0
C327 C 0.35758 0.42123 0.23326 0.0
O328 O 0.4129 0.5096 0.18969 0.0
O329 O 0.36408 0.50522 0.17041 0.0
O330 O 0.36422 0.55058 0.25573 0.0
C331 C 0.39402 0.51191 0.16563 0.0
O332 O 0.38628 0.41847 0.22145 0.0
C333 C 0.33425 0.55397 0.2488 0.0
O334 O 0.34513 0.44882 0.2377 0.0
O335 O 0.32024 0.53165 0.23263 0.0
O336 O 0.92675 0.01954 0.94213 0.0
Mg337 Mg 0.93188 0.03145 -0.0078 0.0
O338 O 0.97838 0.00567 0.93693 0.0
Mg339 Mg -0.00709 -0.00081 -0.01055 0.0
O340 O 0.97508 0.04994 0.00862 0.0
O341 O 0.92843 0.07808 0.00551 0.0
O342 O 0.00774 -0.00501 0.0447 0.0
O343 O 0.03927 0.02837 0.9778 0.0
Mg344 Mg 0.03862 0.96185 0.00615 0.0
O345 O 0.01235 0.94928 0.96622 0.0
O346 O 0.01734 0.94395 0.04827 0.0
O347 O 0.07279 0.00119 0.00773 0.0
O348 O 0.05868 0.92533 0.98157 0.0
C349 C 0.91827 0.97258 0.01513 0.0
C350 C 0.95047 0.01035 0.92467 0.0
C351 C 0.95839 0.07587 0.01498 0.0
C352 C 0.01219 0.97045 0.06214 0.0
C353 C 0.06707 0.0256 -0.00915 0.0
C354 C 0.03366 0.92622 0.96279 0.0
O355 O 0.91254 0.00014 0.02661 0.0
O356 O 0.94421 0.96878 -0.00168 0.0
O357 O 0.28979 0.75978 0.30891 0.0
Mg358 Mg 0.25532 0.72548 0.29266 0.0
O359 O 0.25158 0.78157 0.28095 0.0
Mg360 Mg 0.24678 0.74548 0.23654 0.0
O361 O 0.26848 0.69586 0.25622 0.0
O362 O 0.26924 0.68324 0.30899 0.0
O363 O 0.23895 0.71472 0.19091 0.0
O364 O 0.29903 0.75813 0.2196 0.0
Mg365 Mg 0.24379 0.78921 0.16847 0.0
O366 O 0.22726 0.78883 0.21391 0.0
O367 O 0.22548 0.74504 0.14907 0.0
O368 O 0.29534 0.78867 0.17587 0.0
O369 O 0.21412 0.82856 0.18258 0.0
C370 C 0.18412 0.72871 0.27945 0.0
C371 C 0.27211 0.78369 0.30385 0.0
C372 C 0.27491 0.67581 0.27924 0.0
C373 C 0.22918 0.71771 0.16195 0.0
C374 C 0.31224 0.77387 0.19665 0.0
C375 C 0.21265 0.8156 0.21054 0.0
O376 O 0.20464 0.72865 0.30222 0.0
O377 O 0.19383 0.73269 0.2507 0.0
O378 O 0.55408 0.94736 0.42627 0.0
Mg379 Mg 0.55999 0.93525 0.47558 0.0
O380 O 0.51415 0.98335 0.4327 0.0
Mg381 Mg 0.4976 0.9866 0.48518 0.0
O382 O 0.51481 0.93718 0.49372 0.0
O383 O 0.54255 0.89218 0.49509 0.0
O384 O 0.48323 -0.009 0.53741 0.0
O385 O 0.44926 0.95729 0.47333 0.0
Mg386 Mg 0.44244 0.01378 0.47917 0.0
O387 O 0.48286 0.04132 0.47553 0.0
O388 O 0.43092 -0.00394 0.52612 0.0
O389 O 0.43439 0.9883 0.43521 0.0
O390 O 0.43134 0.06049 0.47688 0.0
C391 C 0.57515 0.00018 0.50639 0.0
C392 C 0.53469 0.96819 0.41513 0.0
C393 C 0.51621 0.90767 0.50189 0.0
C394 C 0.45364 -0.00804 0.54634 0.0
C395 C 0.43044 0.96224 0.4497 0.0
C396 C 0.46243 0.06518 0.47387 0.0
O397 O 0.58326 0.97078 0.50414 0.0
O398 O 0.54678 0.00951 0.49828 0.0
O399 O 0.31503 0.26525 0.74507 0.0
Mg400 Mg 0.30153 0.23191 0.70842 0.0
O401 O 0.27803 0.24331 0.77654 0.0
Mg402 Mg 0.23198 0.23758 0.74483 0.0
O403 O 0.25706 0.24732 0.69708 0.0
O404 O 0.29743 0.24761 0.66131 0.0
O405 O 0.18544 0.23189 0.71572 0.0
O406 O 0.22117 0.2906 0.7499 0.0
Mg407 Mg 0.16144 0.24841 0.78919 0.0
O408 O 0.20552 0.22937 0.78926 0.0
O409 O 0.14207 0.22432 0.74768 0.0
O410 O 0.17551 0.29698 0.77951 0.0
O411 O 0.17677 0.22777 0.8335 0.0
C412 C 0.26788 0.16891 0.73215 0.0
C413 C 0.30516 0.25799 0.77297 0.0
C414 C 0.2677 0.25456 0.66881 0.0
C415 C 0.15516 0.22583 0.7198 0.0
C416 C 0.19983 0.3082 0.76378 0.0
C417 C 0.20407 0.2226 0.81895 0.0
O418 O 0.29312 0.1829 0.72077 0.0
O419 O 0.24229 0.184 0.74078 0.0
O420 O 0.95203 0.9064 0.47989 0.0
Mg421 Mg 0.97081 0.91882 0.52602 0.0
O422 O 0.9805 0.94501 0.45609 0.0
Mg423 Mg -0.01159 0.98873 0.48924 0.0
O424 O 0.96295 0.96591 0.52919 0.0
O425 O 0.94092 0.93422 0.56498 0.0
O426 O -0.00102 0.03152 0.52772 0.0
O427 O 0.93775 0.00622 0.47585 0.0
Mg428 Mg -0.00154 0.04399 0.47164 0.0
O429 O 0.01343 0.00799 0.4418 0.0
O430 O 0.03597 0.05891 0.50162 0.0
O431 O 0.95012 0.05637 0.48565 0.0
O432 O 0.00506 0.05917 0.427 0.0
C433 C 0.04451 0.94027 0.51913 0.0
C434 C 0.96593 0.91786 0.45509 0.0
C435 C 0.94584 0.96291 0.55467 0.0
C436 C 0.02151 0.05312 0.52773 0.0
C437 C 0.92868 0.03464 0.48199 0.0
C438 C 0.01523 0.03053 0.42042 0.0
O439 O 0.02317 0.91989 0.52871 0.0
O440 O 0.03665 0.96607 0.50465 0.0
O441 O 0.29266 0.72736 0.81198 0.0
Mg442 Mg 0.28812 0.69748 0.77051 0.0
O443 O 0.2424 0.74113 0.80053 0.0
Mg444 Mg 0.24125 0.7513 0.74559 0.0
O445 O 0.288 0.72623 0.73218 0.0
O446 O 0.32751 0.6911 0.73994 0.0
O447 O 0.23881 0.76424 0.69211 0.0
O448 O 0.27186 0.79612 0.75422 0.0
Mg449 Mg 0.204 0.82116 0.74192 0.0
O450 O 0.19389 0.77594 0.75501 0.0
O451 O 0.22016 0.81478 0.69302 0.0
O452 O 0.24105 0.83443 0.775 0.0
O453 O 0.1557 0.81291 0.75729 0.0
C454 C 0.21894 0.6766 0.74659 0.0
C455 C 0.26495 0.73707 0.82121 0.0
C456 C 0.31471 0.71309 0.72252 0.0
C457 C 0.23201 0.79046 0.6781 0.0
C458 C 0.269 0.82359 0.76759 0.0
C459 C 0.16448 0.78372 0.76222 0.0
O460 O 0.2449 0.66962 0.76188 0.0
O461 O 0.21313 0.70497 0.73702 0.0
O462 O 0.4307 0.92389 0.02062 0.0
Mg463 Mg 0.42907 0.96855 0.04582 0.0
O464 O 0.47944 0.93739 0.00133 0.0
Mg465 Mg 0.48409 -0.00781 -0.00752 0.0
O466 O 0.43539 0.00242 0.01264 0.0
O467 O 0.39031 0.00052 0.04177 0.0
O468 O 0.49019 0.04947 0.9834 0.0
O469 O 0.45766 0.98179 0.94547 0.0
Mg470 Mg 0.52435 0.0141 0.94079 0.0
O471 O 0.53428 0.97925 0.97353 0.0
O472 O 0.54073 0.05434 0.96557 0.0
O473 O 0.47909 0.0203 0.91682 0.0
O474 O 0.55141 0.97663 0.92256 0.0
C475 C 0.49823 -0.00983 0.07043 0.0
C476 C 0.45802 0.91607 0.0084 0.0
C477 C 0.40728 0.01392 0.01936 0.0
C478 C 0.515 0.06738 0.97632 0.0
C479 C 0.45661 -7e-05 0.92141 0.0
C480 C 0.55098 0.96496 0.95117 0.0
O481 O 0.4699 0.97829 0.07546 0.0
O482 O 0.50768 -0.00147 0.04233 0.0
O483 O 0.27589 0.24172 0.15855 0.0
Mg484 Mg 0.24934 0.281 0.1767 0.0
O485 O 0.24927 0.21252 0.19398 0.0
Mg486 Mg 0.24132 0.24277 0.24132 0.0
O487 O 0.26252 0.29016 0.22257 0.0
O488 O 0.27194 0.32462 0.18275 0.0
O489 O 0.23211 0.2738 0.28915 0.0
O490 O 0.29495 0.23347 0.25668 0.0
Mg491 Mg 0.24355 0.20355 0.30437 0.0
O492 O 0.22299 0.19326 0.26042 0.0
O493 O 0.22346 0.242 0.33069 0.0
O494 O 0.29492 0.2045 0.30106 0.0
O495 O 0.2196 0.1605 0.30272 0.0
C496 C 0.17812 0.26757 0.19674 0.0
C497 C 0.26445 0.21485 0.16722 0.0
C498 C 0.27479 0.31709 0.21267 0.0
C499 C 0.22488 0.26984 0.31888 0.0
C500 C 0.3102 0.2194 0.27913 0.0
C501 C 0.21341 0.16614 0.27282 0.0
O502 O 0.19805 0.27863 0.17605 0.0
O503 O 0.18804 0.25411 0.2226 0.0
O504 O 0.44195 0.55447 0.94707 0.0
Mg505 Mg 0.4922 0.55333 0.94509 0.0
O506 O 0.43923 0.51147 0.97731 0.0
Mg507 Mg 0.48925 0.48972 -0.00904 0.0
O508 O 0.52132 0.51283 0.95124 0.0
O509 O 0.48852 0.51479 0.91087 0.0
O510 O 0.53523 0.4649 0.00839 0.0
O511 O 0.48094 0.44741 0.9561 0.0
Mg512 Mg 0.46815 0.41949 0.0263 0.0
O513 O 0.46094 0.46671 0.02908 0.0
O514 O 0.52033 0.41877 0.03161 0.0
O515 O 0.45204 0.40828 0.97892 0.0
O516 O 0.43664 0.43552 0.06384 0.0
C517 C 0.50057 0.56086 0.02087 0.0
C518 C 0.42536 0.53422 0.96258 0.0
C519 C 0.51585 0.50552 0.92165 0.0
C520 C 0.54228 0.43887 0.02277 0.0
C521 C 0.46565 0.42065 0.95438 0.0
C522 C 0.44269 0.46413 0.05387 0.0
O523 O 0.49958 0.57272 -0.0072 0.0
O524 O 0.49806 0.5309 0.02568 0.0
O525 O 0.76861 0.17508 0.26887 0.0
Mg526 Mg 0.76759 0.17556 0.21723 0.0
O527 O 0.74928 0.22344 0.28362 0.0
Mg528 Mg 0.73722 0.24876 0.23661 0.0
O529 O 0.77529 0.22211 0.21089 0.0
O530 O 0.80954 0.18779 0.18961 0.0
O531 O 0.72651 0.27317 0.18956 0.0
O532 O 0.77607 0.28788 0.24681 0.0
Mg533 Mg 0.70603 0.32298 0.25098 0.0
O534 O 0.69899 0.27669 0.2613 0.0
O535 O 0.70571 0.32192 0.19942 0.0
O536 O 0.75362 0.33162 0.26907 0.0
O537 O 0.66501 0.31266 0.28054 0.0
C538 C 0.69542 0.18333 0.20945 0.0
C539 C 0.7604 0.19576 0.29043 0.0
C540 C 0.80186 0.21725 0.19548 0.0
C541 C 0.7158 0.30002 0.18004 0.0
C542 C 0.77855 0.3157 0.26005 0.0
C543 C 0.67341 0.28298 0.27781 0.0
O544 O 0.72027 0.16896 0.19796 0.0
O545 O 0.69792 0.20953 0.2258 0.0
O546 O 0.94925 0.42261 0.51712 0.0
Mg547 Mg 0.94226 0.46587 0.54389 0.0
O548 O -0.00483 0.43919 0.49338 0.0
Mg549 Mg -0.00647 0.49473 0.48694 0.0
O550 O 0.94549 0.49833 0.50979 0.0
O551 O 0.90023 0.49424 0.53777 0.0
O552 O -0.00745 0.55047 0.48022 0.0
O553 O 0.96721 0.48726 0.44001 0.0
Mg554 Mg 0.04172 0.52178 0.42562 0.0
O555 O 0.04061 0.49072 0.46162 0.0
O556 O 0.03611 0.56589 0.45148 0.0
O557 O -0.00145 0.5069 0.40036 0.0
O558 O 0.08211 0.48959 0.4285 0.0
C559 C 0.00955 0.49633 0.56462 0.0
C560 C 0.97547 0.41673 0.50171 0.0
C561 C 0.91632 0.50767 0.51482 0.0
C562 C 0.01133 0.57246 0.46897 0.0
C563 C 0.97232 0.49373 0.41063 0.0
C564 C 0.06713 0.47726 0.45274 0.0
O565 O 0.9825 0.48248 0.57132 0.0
O566 O 0.01868 0.50217 0.53578 0.0
O567 O 0.66727 0.79379 0.27465 0.0
Mg568 Mg 0.66134 0.74368 0.28295 0.0
O569 O 0.71758 0.79588 0.2537 0.0
Mg570 Mg 0.73336 0.7428 0.24811 0.0
O571 O 0.70754 0.73244 0.29469 0.0
O572 O 0.6673 0.72777 0.32995 0.0
O573 O 0.74712 0.68732 0.24635 0.0
O574 O 0.77831 0.75399 0.27832 0.0
Mg575 Mg 0.78459 0.71968 0.20814 0.0
O576 O 0.75749 0.75911 0.19987 0.0
O577 O 0.7581 0.67783 0.19579 0.0
O578 O 0.81198 0.72171 0.25163 0.0
O579 O 0.80142 0.74566 0.17048 0.0
C580 C 0.66121 0.7191 0.21701 0.0
C581 C 0.69174 0.80977 0.26409 0.0
C582 C 0.69813 0.72621 0.32354 0.0
C583 C 0.75152 0.6671 0.22329 0.0
C584 C 0.80521 0.73912 0.27608 0.0
C585 C 0.77608 0.76356 0.17482 0.0
O586 O 0.64707 0.71346 0.24358 0.0
O587 O 0.68938 0.73209 0.21651 0.0
O588 O 0.77691 0.23718 0.8232 0.0
Mg589 Mg 0.74738 0.20227 0.80074 0.0
O590 O 0.75859 0.27131 0.78759 0.0
Mg591 Mg 0.7472 0.24648 0.73959 0.0
O592 O 0.76249 0.19608 0.75477 0.0
O593 O 0.76607 0.15808 0.79232 0.0
O594 O 0.73544 0.22431 0.69054 0.0
O595 O 0.80164 0.25353 0.72365 0.0
Mg596 Mg 0.75998 0.29995 0.68544 0.0
O597 O 0.73055 0.2956 0.72397 0.0
O598 O 0.747 0.2615 0.65402 0.0
O599 O 0.80778 0.30185 0.70294 0.0
O600 O 0.72975 0.33854 0.69263 0.0
C601 C 0.67985 0.22238 0.77874 0.0
C602 C 0.7713 0.26568 0.81477 0.0
C603 C 0.77117 0.16759 0.76324 0.0
C604 C 0.73725 0.23343 0.66137 0.0
C605 C 0.81994 0.27585 0.71254 0.0
C606 C 0.71905 0.32357 0.71761 0.0
O607 O 0.69636 0.20754 0.79957 0.0
O608 O 0.69339 0.23783 0.75581 0.0
O609 O 0.72143 0.73934 0.66419 0.0
Mg610 Mg 0.72165 0.77624 0.70089 0.0
O611 O 0.75421 0.71121 0.69394 0.0
Mg612 Mg 0.74105 0.73696 0.74217 0.0
O613 O 0.76251 0.78913 0.72644 0.0
O614 O 0.74378 0.81529 0.68338 0.0
O615 O 0.72844 0.75965 0.79325 0.0
O616 O 0.79445 0.73052 0.7578 0.0
Mg617 Mg 0.75006 0.68302 0.80064 0.0
O618 O 0.72726 0.68762 0.75795 0.0
O619 O 0.73044 0.72071 0.82961 0.0
O620 O 0.80063 0.68928 0.7907 0.0
O621 O 0.72273 0.64262 0.78484 0.0
C622 C 0.66502 0.76252 0.72387 0.0
C623 C 0.7396 0.71509 0.66733 0.0
C624 C 0.76431 0.81339 0.70675 0.0
C625 C 0.72537 0.74989 0.82239 0.0
C626 C 0.81261 0.71201 0.77408 0.0
C627 C 0.71541 0.659 0.75981 0.0
O628 O 0.67707 0.79032 0.72163 0.0
O629 O 0.68456 0.73907 0.72735 0.0
O630 O 0.56101 0.49072 0.50805 0.0
Mg631 Mg 0.51973 0.45845 0.51282 0.0
O632 O 0.53343 0.51867 0.47293 0.0
Mg633 Mg 0.48258 0.49928 0.48622 0.0
O634 O 0.49695 0.44447 0.47122 0.0
O635 O 0.53362 0.41485 0.49771 0.0
O636 O 0.428 0.48229 0.49873 0.0
O637 O 0.47043 0.49836 0.43234 0.0
Mg638 Mg 0.43116 0.55529 0.46386 0.0
O639 O 0.47034 0.5518 0.49305 0.0
O640 O 0.39655 0.52333 0.48438 0.0
O641 O 0.44581 0.54276 0.41636 0.0
O642 O 0.44542 0.5982 0.48696 0.0
C643 C 0.49442 0.48327 0.56417 0.0
C644 C 0.55996 0.51283 0.48738 0.0
C645 C 0.51436 0.41834 0.4735 0.0
C646 C 0.39975 0.49553 0.49638 0.0
C647 C 0.45954 0.51612 0.4102 0.0
C648 C 0.46812 0.58192 0.5005 0.0
O649 O 0.49192 0.45425 0.55562 0.0
O650 O 0.49623 0.50402 0.54196 0.0
O651 O 0.06815 0.45794 0.94957 0.0
Mg652 Mg 0.0694 0.45394 0.00122 0.0
O653 O 0.01787 0.47712 0.94199 0.0
Mg654 Mg -0.00288 0.49026 -0.00914 0.0
O655 O 0.02157 0.44785 0.01025 0.0
O656 O 0.05568 0.40969 0.02222 0.0
O657 O 0.98114 0.50175 0.04436 0.0
O658 O 0.95275 0.45781 0.98147 0.0
Mg659 Mg 0.94798 0.5296 0.00377 0.0
O660 O 0.97512 0.53483 0.96395 0.0
O661 O 0.97157 0.55313 0.04188 0.0
O662 O 0.92075 0.48719 0.01244 0.0
O663 O 0.92663 0.55902 0.97205 0.0
C664 C 0.06797 0.52319 0.01484 0.0
C665 C 0.04512 0.4668 0.93105 0.0
C666 C 0.0259 0.41917 0.01986 0.0
C667 C 0.97705 0.52882 0.05866 0.0
C668 C 0.92642 0.46116 -0.00263 0.0
C669 C 0.95359 0.55622 0.956 0.0
O670 O 0.08066 0.49787 0.02588 0.0
O671 O 0.04108 0.52229 -0.0004 0.0
C672 C 0.95839 0.1347 0.08487 0.0
C673 C -0.01181 0.1512 0.08156 0.0
C674 C 0.9496 0.11002 0.0633 0.0
C675 C 0.97058 0.10046 0.03804 0.0
H676 H 0.94109 0.14189 0.10344 0.0
H677 H 0.92587 0.09855 0.0662 0.0
S678 S 0.05281 0.13436 0.02081 0.0
N679 N 0.0396 0.15566 0.0522 0.0
N680 N 0.02349 0.10794 0.01216 0.0
C681 C 0.00129 0.11561 0.0354 0.0
C682 C 0.00997 0.14145 0.05704 0.0
C683 C 0.11054 0.70276 0.32676 0.0
C684 C 0.08471 0.71824 0.31137 0.0
C685 C 0.1423 0.70492 0.31491 0.0
C686 C 0.14949 0.72262 0.28715 0.0
H687 H 0.10649 0.69029 0.34922 0.0
H688 H 0.16162 0.69372 0.3285 0.0
S689 S 0.08955 0.76317 0.23491 0.0
N690 N 0.06732 0.7485 0.26474 0.0
N691 N 0.12766 0.75241 0.24204 0.0
C692 C 0.12348 0.73571 0.26967 0.0
C693 C 0.09082 0.73352 0.2819 0.0
C694 C 0.46881 0.83677 0.52355 0.0
C695 C 0.47175 0.83877 0.55727 0.0
C696 C 0.47775 0.86282 0.50451 0.0
C697 C 0.48988 0.89125 0.51882 0.0
H698 H 0.46309 0.814 0.51168 0.0
H699 H 0.47939 0.85918 0.47861 0.0
S700 S 0.49211 0.9119 0.60583 0.0
N701 N 0.47931 0.87407 0.60422 0.0
N702 N 0.49698 0.92288 0.56798 0.0
C703 C 0.48727 0.8955 0.55227 0.0
C704 C 0.47795 0.86905 0.57178 0.0
C705 C 0.37291 0.27506 0.831 0.0
C706 C 0.39424 0.24997 0.82247 0.0
C707 C 0.34143 0.27612 0.8177 0.0
C708 C 0.33105 0.25198 0.79595 0.0
H709 H 0.38152 0.29513 0.84576 0.0
H710 H 0.32638 0.29704 0.82225 0.0
S711 S 0.37744 0.18066 0.76798 0.0
N712 N 0.40251 0.19996 0.7929 0.0
N713 N 0.34334 0.20161 0.76827 0.0
C714 C 0.35129 0.22555 0.78963 0.0
C715 C 0.38311 0.22466 0.80279 0.0
C716 C -0.01345 0.87428 0.3771 0.0
C717 C 0.00542 0.84868 0.38857 0.0
C718 C 0.97357 0.89727 0.39861 0.0
C719 C 0.97881 0.89457 0.43187 0.0
H720 H 0.98005 0.87535 0.35183 0.0
H721 H 0.9585 0.91637 0.38944 0.0
S722 S 0.03221 0.83622 0.47268 0.0
N723 N 0.0331 0.82529 0.43425 0.0
N724 N 0.00813 0.86784 0.47467 0.0
C725 C -0.00022 0.87069 0.4431 0.0
C726 C 0.01334 0.84789 0.42137 0.0
C727 C 0.36876 0.69733 0.65376 0.0
C728 C 0.38622 0.72645 0.65314 0.0
C729 C 0.34068 0.69454 0.67266 0.0
C730 C 0.33 0.72066 0.69168 0.0
H731 H 0.37894 0.67579 0.64278 0.0
H732 H 0.32998 0.67082 0.67579 0.0
S733 S 0.36156 0.80425 0.6898 0.0
N734 N 0.38655 0.78371 0.666 0.0
N735 N 0.33371 0.7782 0.70245 0.0
C736 C 0.34373 0.75118 0.6866 0.0
C737 C 0.37221 0.75412 0.66699 0.0
C738 C 0.53034 0.14766 0.93788 0.0
C739 C 0.50093 0.16385 0.94301 0.0
C740 C 0.53569 0.11773 0.95147 0.0
C741 C 0.5115 0.10237 0.97035 0.0
H742 H 0.54865 0.15735 0.92161 0.0
H743 H 0.55824 0.1057 0.94505 0.0
S744 S 0.4328 0.13847 -0.0039 0.0
N745 N 0.44921 0.16543 0.97183 0.0
N746 N 0.45899 0.10844 -0.00246 0.0
C747 C 0.483 0.11974 0.97793 0.0
C748 C 0.47768 0.15061 0.96406 0.0
C749 C 0.1024 0.29616 0.1546 0.0
C750 C 0.07954 0.27168 0.16056 0.0
C751 C 0.13341 0.29566 0.16866 0.0
C752 C 0.143 0.2703 0.18873 0.0
H753 H 0.09648 0.31555 0.13849 0.0
H754 H 0.15051 0.31475 0.16269 0.0
S755 S 0.09157 0.20034 0.21162 0.0
N756 N 0.06774 0.2218 0.18826 0.0
N757 N 0.1266 0.22039 0.21421 0.0
C758 C 0.11986 0.24622 0.19578 0.0
C759 C 0.08798 0.24697 0.18169 0.0
C760 C 0.07648 0.98695 0.12402 0.0
C761 C 0.06549 0.96878 0.15021 0.0
C762 C 0.05709 -0.00995 0.09655 0.0
C763 C 0.02649 0.97447 0.09419 0.0
H764 H 0.10015 -0.0011 0.12476 0.0
H765 H 0.06693 0.00322 0.07629 0.0
S766 S -0.01363 0.92489 0.15649 0.0
N767 N 0.02147 0.93637 0.17291 0.0
N768 N -0.01421 0.94079 0.1202 0.0
C769 C 0.01498 0.9567 0.12035 0.0
C770 C 0.03432 0.95423 0.1487 0.0
C771 C 0.25893 0.85453 0.36036 0.0
C772 C 0.24058 0.84024 0.38524 0.0
C773 C 0.27012 0.83605 0.33403 0.0
C774 C 0.26287 0.80311 0.33196 0.0
H775 H 0.26566 0.87979 0.36184 0.0
H776 H 0.28491 0.8473 0.3156 0.0
S777 S 0.2149 0.7548 0.39018 0.0
N778 N 0.21509 0.79163 0.40569 0.0
N779 N 0.23631 0.75694 0.35646 0.0
C780 C 0.24446 0.78872 0.35656 0.0
C781 C 0.23314 0.80735 0.38315 0.0
C782 C 0.4118 0.97168 0.62352 0.0
C783 C 0.41942 -0.00131 0.64294 0.0
C784 C 0.42467 0.96861 0.5925 0.0
C785 C 0.44565 -0.00767 0.58042 0.0
H786 H 0.39481 0.95345 0.63195 0.0
H787 H 0.41731 0.94823 0.57749 0.0
S788 S 0.47351 0.06711 0.62206 0.0
N789 N 0.4497 0.04899 0.64863 0.0
N790 N 0.47428 0.04314 0.58988 0.0
C791 C 0.45476 0.01866 0.60011 0.0
C792 C 0.44154 0.02184 0.6317 0.0
C793 C 0.25744 0.16636 0.86145 0.0
C794 C 0.26523 0.18534 0.88889 0.0
C795 C 0.24063 0.17968 0.83573 0.0
C796 C 0.23249 0.21224 0.83667 0.0
H797 H 0.25976 0.14042 0.86177 0.0
H798 H 0.23075 0.16383 0.81709 0.0
S799 S 0.26009 0.27401 0.8959 0.0
N800 N 0.27297 0.2396 0.91053 0.0
N801 N 0.24151 0.26478 0.86159 0.0
C802 C 0.24591 0.23241 0.8606 0.0
C803 C 0.26278 0.21887 0.88689 0.0
C804 C 0.04708 0.04609 0.33697 0.0
C805 C 0.05704 0.01568 0.32616 0.0
C806 C 0.034 0.0504 0.36763 0.0
C807 C 0.03022 0.02438 0.38867 0.0
H808 H 0.04925 0.06681 0.32151 0.0
H809 H 0.02658 0.07447 0.37462 0.0
S810 S 0.05479 0.93983 0.37217 0.0
N811 N 0.06417 0.95916 0.3388 0.0
N812 N 0.03905 0.96708 0.397 0.0
C813 C 0.04104 -0.00623 0.3785 0.0
C814 C 0.05471 -0.01053 0.34709 0.0
C815 C 0.23248 0.78871 0.58721 0.0
C816 C 0.25474 0.81386 0.58041 0.0
C817 C 0.22647 0.77939 0.6191 0.0
C818 C 0.24259 0.79501 0.64479 0.0
H819 H 0.21782 0.77785 0.56815 0.0
H820 H 0.20769 0.76148 0.6238 0.0
S821 S 0.30738 0.85756 0.63961 0.0
N822 N 0.29645 0.85049 0.60182 0.0
N823 N 0.28452 0.83333 0.66162 0.0
C824 C 0.26684 0.81802 0.63817 0.0
C825 C 0.27319 0.82729 0.60591 0.0
C826 C 0.4275 0.95601 0.84856 0.0
C827 C 0.41509 0.98135 0.83042 0.0
C828 C 0.437 0.96122 0.88053 0.0
C829 C 0.43512 -0.00789 0.89455 0.0
H830 H 0.43151 0.93258 0.83747 0.0
H831 H 0.44889 0.94191 0.89312 0.0
S832 S 0.39848 0.06453 0.85923 0.0
N833 N 0.39613 0.03676 0.83036 0.0
N834 N 0.4156 0.04683 0.89026 0.0
C835 C 0.41969 0.01667 0.87783 0.0
C836 C 0.40923 0.0112 0.84563 0.0
C837 C 0.26268 0.14168 0.11137 0.0
C838 C 0.24259 0.15271 0.08637 0.0
C839 C 0.2693 0.16134 0.13858 0.0
C840 C 0.25581 0.19222 0.14115 0.0
H841 H 0.27453 0.11854 0.10912 0.0
H842 H 0.28585 0.15292 0.15692 0.0
S843 S 0.19744 0.22953 0.0849 0.0
N844 N 0.20638 0.19453 0.06785 0.0
N845 N 0.2186 0.23124 0.11874 0.0
C846 C 0.23406 0.2024 0.11733 0.0
C847 C 0.22748 0.18266 0.08991 0.0
C848 C 0.14652 0.07153 0.00142 0.0
C849 C 0.14774 0.09101 0.97412 0.0
C850 C 0.11969 0.0514 0.00719 0.0
C851 C 0.09306 0.05002 -0.01418 0.0
H852 H 0.16677 0.07135 0.01817 0.0
H853 H 0.12021 0.03628 0.02824 0.0
S854 S 0.08332 0.09905 0.91233 0.0
N855 N 0.11947 0.10996 0.92678 0.0
N856 N 0.06853 0.07201 0.93743 0.0
C857 C 0.09314 0.07096 0.95935 0.0
C858 C 0.12065 0.09154 0.95354 0.0
C859 C 0.63321 0.44119 0.0078 0.0
C860 C 0.64175 0.40901 0.01227 0.0
C861 C 0.6013 0.45143 0.01385 0.0
C862 C 0.57704 0.4298 0.02476 0.0
H863 H 0.65066 0.45807 -0.00231 0.0
H864 H 0.59524 0.47602 0.00814 0.0
S865 S 0.59008 0.34481 0.04791 0.0
N866 N 0.62577 0.35699 0.03369 0.0
N867 N 0.56571 0.37612 0.04539 0.0
C868 C 0.58646 0.39839 0.0327 0.0
C869 C 0.61887 0.38797 0.02626 0.0
C870 C 0.845 0.3582 0.2158 0.0
C871 C 0.84926 0.3854 0.23576 0.0
C872 C 0.82493 0.33274 0.22583 0.0
C873 C 0.80897 0.33405 0.25603 0.0
H874 H 0.85511 0.35768 0.19161 0.0
H875 H 0.81927 0.31368 0.20856 0.0
S876 S 0.82 0.39641 0.31988 0.0
N877 N 0.84186 0.40946 0.28911 0.0
N878 N 0.80386 0.36169 0.3078 0.0
C879 C 0.81649 0.35935 0.27749 0.0
C880 C 0.83671 0.38515 0.26731 0.0
C881 C 0.86233 0.5742 0.49643 0.0
C882 C 0.8403 0.55756 0.47614 0.0
C883 C 0.89165 0.55987 0.50536 0.0
C884 C 0.89963 0.52923 0.49337 0.0
H885 H 0.85494 0.5961 0.50886 0.0
H886 H 0.90592 0.57087 0.52464 0.0
S887 S 0.85485 0.48095 0.43204 0.0
N888 N 0.83142 0.51253 0.43906 0.0
N889 N 0.88762 0.48632 0.4548 0.0
C890 C 0.88069 0.51529 0.46874 0.0
C891 C 0.85043 0.52931 0.46038 0.0
C892 C 0.15445 0.11579 0.22294 0.0
C893 C 0.16576 0.08427 0.22842 0.0
C894 C 0.17144 0.14297 0.23499 0.0
C895 C 0.20015 0.13943 0.2529 0.0
H896 H 0.13117 0.11954 0.21122 0.0
H897 H 0.16081 0.16653 0.23238 0.0
S898 S 0.24434 0.06348 0.26738 0.0
N899 N 0.21092 0.05208 0.2479 0.0
N900 N 0.24226 0.10304 0.27086 0.0
C901 C 0.21349 0.10855 0.2556 0.0
C902 C 0.19648 0.08097 0.24319 0.0
C903 C 0.33972 0.96382 0.46187 0.0
C904 C 0.33113 0.93125 0.46472 0.0
C905 C 0.37184 0.9731 0.45579 0.0
C906 C 0.39679 0.95023 0.45237 0.0
H907 H 0.32151 0.98246 0.46456 0.0
H908 H 0.37728 -0.00136 0.45465 0.0
S909 S 0.38746 0.86181 0.45735 0.0
N910 N 0.35011 0.87573 0.46323 0.0
N911 N 0.41129 0.89373 0.45245 0.0
C912 C 0.3889 0.91756 0.45548 0.0
C913 C 0.35585 0.90792 0.46149 0.0
C914 C 0.8175 0.60751 0.23869 0.0
C915 C 0.8011 0.57762 0.23751 0.0
C916 C 0.80061 0.6362 0.23521 0.0
C917 C 0.7666 0.63628 0.23083 0.0
H918 H 0.84388 0.60884 0.24097 0.0
H919 H 0.81448 0.65854 0.23489 0.0
S920 S 0.71158 0.56512 0.22818 0.0
N921 N 0.74846 0.54996 0.23317 0.0
N922 N 0.71661 0.6046 0.22663 0.0
C923 C 0.74953 0.6069 0.23047 0.0
C924 C 0.76683 0.57736 0.23387 0.0
C925 C 0.68787 0.39097 0.7654 0.0
C926 C 0.65745 0.39502 0.75048 0.0
C927 C 0.70612 0.36319 0.75938 0.0
C928 C 0.69469 0.33944 0.73772 0.0
H929 H 0.69878 0.41042 0.7795 0.0
H930 H 0.73099 0.36234 0.7682 0.0
S931 S 0.61432 0.33642 0.69706 0.0
N932 N 0.61437 0.37082 0.71755 0.0
N933 N 0.64959 0.31925 0.70517 0.0
C934 C 0.66272 0.34139 0.72598 0.0
C935 C 0.64381 0.36927 0.73258 0.0
C936 C -0.0063 0.87136 0.89921 0.0
C937 C 0.01382 0.84412 0.89962 0.0
C938 C 0.00051 0.89827 0.91922 0.0
C939 C 0.02809 0.899 0.93962 0.0
H940 H 0.97242 0.87167 0.8837 0.0
H941 H 0.98393 0.91846 0.91884 0.0
S942 S 0.09011 0.83426 0.94608 0.0
N943 N 0.06301 0.81985 0.9201 0.0
N944 N 0.07685 0.87028 0.95672 0.0
C945 C 0.049 0.87208 0.93897 0.0
C946 C 0.04158 0.84467 0.91923 0.0
C947 C 0.90212 0.23449 0.70667 0.0
C948 C 0.91603 0.24876 0.67918 0.0
C949 C 0.87135 0.24402 0.71826 0.0
C950 C 0.85398 0.26865 0.70318 0.0
H951 H 0.91478 0.21543 0.71892 0.0
H952 H 0.86095 0.2318 0.73885 0.0
S953 S 0.88052 0.31437 0.63102 0.0
N954 N 0.91048 0.28908 0.63768 0.0
N955 N 0.85334 0.30741 0.65956 0.0
C956 C 0.86816 0.28363 0.67618 0.0
C957 C 0.89898 0.27352 0.6641 0.0
C958 C 0.50396 0.12657 0.42245 0.0
C959 C 0.48626 0.15461 0.42955 0.0
C960 C 0.49817 0.09826 0.43931 0.0
C961 C 0.47383 0.09686 0.46316 0.0
H962 H 0.5218 0.12628 0.40307 0.0
H963 H 0.51122 0.07678 0.43205 0.0
S964 S 0.42304 0.16466 0.49297 0.0
N965 N 0.44576 0.18037 0.46406 0.0
N966 N 0.4338 0.12651 0.4951 0.0
C967 C 0.45716 0.12522 0.47174 0.0
C968 C 0.46366 0.15433 0.45506 0.0
C969 C 0.61173 0.71364 0.14039 0.0
C970 C 0.59621 0.74375 0.14134 0.0
C971 C 0.63372 0.70528 0.16474 0.0
C972 C 0.64031 0.72701 0.19014 0.0
H973 H 0.60501 0.69571 0.12229 0.0
H974 H 0.64452 0.68157 0.16442 0.0
S975 S 0.60898 0.80981 0.20102 0.0
N976 N 0.59144 0.79613 0.16764 0.0
N977 N 0.63243 0.78036 0.21338 0.0
C978 C 0.62668 0.75779 0.18993 0.0
C979 C 0.60473 0.76627 0.16535 0.0
C980 C -0.00531 0.10914 0.59466 0.0
C981 C 0.01792 0.13397 0.59228 0.0
C982 C -0.00231 0.08111 0.57574 0.0
C983 C 0.02392 0.07742 0.55391 0.0
H984 H 0.97325 0.11216 0.6098 0.0
H985 H 0.97805 0.06348 0.57647 0.0
S986 S 0.09309 0.13491 0.54246 0.0
N987 N 0.06918 0.1526 0.56939 0.0
N988 N 0.0754 0.09992 0.53392 0.0
C989 C 0.04861 0.10135 0.55342 0.0
C990 C 0.04537 0.12977 0.57254 0.0
C991 C 0.6252 0.23899 0.3391 0.0
C992 C 0.59764 0.22956 0.32086 0.0
C993 C 0.65218 0.25341 0.32426 0.0
C994 C 0.65252 0.25793 0.29089 0.0
H995 H 0.62473 0.23814 0.3652 0.0
H996 H 0.67155 0.2635 0.3392 0.0
S997 S 0.59092 0.22943 0.23162 0.0
N998 N 0.5755 0.21958 0.26703 0.0
N999 N 0.62656 0.24693 0.23931 0.0
C1000 C 0.62733 0.24477 0.27198 0.0
C1001 C 0.59975 0.23025 0.28699 0.0
C1002 C 0.50661 0.84665 0.03735 0.0
C1003 C 0.48376 0.82127 0.03608 0.0
C1004 C 0.49918 0.87669 0.02495 0.0
C1005 C 0.46834 0.88248 0.01143 0.0
H1006 H 0.52958 0.84386 0.04998 0.0
H1007 H 0.51652 0.89623 0.02887 0.0
S1008 S 0.40164 0.82264 -0.00122 0.0
N1009 N 0.43065 0.80245 0.01715 0.0
N1010 N 0.41615 0.85958 -0.0057 0.0
C1011 C 0.44621 0.8566 0.00776 0.0
C1012 C 0.45409 0.82572 0.01995 0.0
C1013 C 0.89139 0.76042 0.77581 0.0
C1014 C 0.91273 0.73979 0.79173 0.0
C1015 C 0.8594 0.75054 0.76854 0.0
C1016 C 0.84783 0.71968 0.77685 0.0
H1017 H 0.89895 0.78477 0.77019 0.0
H1018 H 0.84326 0.76779 0.75763 0.0
S1019 S 0.89666 0.65472 0.81328 0.0
N1020 N 0.92193 0.68584 0.81161 0.0
N1021 N 0.86184 0.6672 0.79799 0.0
C1022 C 0.86984 0.69809 0.79071 0.0
C1023 C 0.90229 0.7082 0.79817 0.0
C1024 C 0.96532 -0.00281 0.83515 0.0
C1025 C 0.93504 0.98474 0.82467 0.0
C1026 C 0.97025 0.00552 0.86771 0.0
C1027 C 0.94499 0.00172 0.89053 0.0
H1028 H 0.9848 0.00162 0.81796 0.0
H1029 H -0.00633 0.01565 0.87493 0.0
S1030 S 0.86359 0.96409 0.87575 0.0
N1031 N 0.88118 0.96497 0.83987 0.0
N1032 N 0.89033 0.98053 0.90098 0.0
C1033 C 0.91529 0.98757 0.88046 0.0
C1034 C 0.91037 0.97906 0.8475 0.0
C1035 C 0.72753 0.15446 0.61649 0.0
C1036 C 0.72381 0.16438 0.58449 0.0
C1037 C 0.73056 0.17705 0.64156 0.0
C1038 C 0.72988 0.21022 0.63535 0.0
H1039 H 0.72954 0.12917 0.62211 0.0
H1040 H 0.73481 0.16841 0.66571 0.0
S1041 S 0.71525 0.24821 0.55627 0.0
N1042 N 0.71565 0.2092 0.54831 0.0
N1043 N 0.72145 0.25178 0.59547 0.0
C1044 C 0.72414 0.22035 0.6037 0.0
C1045 C 0.72105 0.19737 0.57822 0.0
C1046 C 0.54242 0.96379 0.3248 0.0
C1047 C 0.5498 -0.00412 0.31733 0.0
C1048 C 0.53711 0.95481 0.35676 0.0
C1049 C 0.53874 0.97786 0.38175 0.0
H1050 H 0.54127 0.94552 0.30588 0.0
H1051 H 0.53181 0.92982 0.36198 0.0
S1052 S 0.56028 0.06428 0.3745 0.0
N1053 N 0.5604 0.05022 0.337 0.0
N1054 N 0.55021 0.03347 0.39737 0.0
C1055 C 0.54634 0.00997 0.3745 0.0
C1056 C 0.55195 0.019 0.34206 0.0
C1057 C 0.77318 0.80125 0.09267 0.0
C1058 C 0.74495 0.82004 0.09413 0.0
C1059 C 0.78398 0.78476 0.11961 0.0
C1060 C 0.76644 0.7857 0.14892 0.0
H1061 H 0.78709 0.79926 0.07044 0.0
H1062 H 0.80571 0.77024 0.11691 0.0
S1063 S 0.69102 0.83261 0.16503 0.0
N1064 N 0.70028 0.84035 0.12709 0.0
N1065 N 0.71954 0.80796 0.17778 0.0
C1066 C 0.73838 0.80514 0.15086 0.0
C1067 C 0.72787 0.82266 0.12343 0.0
C1068 C 0.94469 0.01056 0.62847 0.0
C1069 C 0.91079 0.01015 0.63422 0.0
C1070 C 0.95693 0.00067 0.5985 0.0
C1071 C 0.93547 -0.00972 0.57409 0.0
H1072 H 0.9618 0.01447 0.64808 0.0
H1073 H 0.983 -0.00331 0.59608 0.0
S1074 S 0.8455 -0.00216 0.57326 0.0
N1075 N 0.85645 0.00925 0.61004 0.0
N1076 N 0.87982 0.98894 0.55411 0.0
C1077 C 0.90203 -0.00402 0.57755 0.0
C1078 C 0.88951 0.00654 0.60778 0.0
C1079 C 0.76657 0.19581 0.38175 0.0
C1080 C 0.75631 0.16427 0.38867 0.0
C1081 C 0.76817 0.20624 0.34968 0.0
C1082 C 0.75946 0.18531 0.32403 0.0
H1083 H 0.77365 0.21225 0.40109 0.0
H1084 H 0.77644 0.23055 0.34491 0.0
S1085 S 0.72553 0.1026 0.3304 0.0
N1086 N 0.7339 0.11372 0.36786 0.0
N1087 N 0.73666 0.13329 0.308 0.0
C1088 C 0.74803 0.15426 0.33097 0.0
C1089 C 0.74651 0.14373 0.36325 0.0
C1090 C 0.57847 -0.00744 0.11611 0.0
C1091 C 0.56929 0.97996 0.14609 0.0
C1092 C 0.5551 -0.00273 0.092 0.0
C1093 C 0.52184 -0.01024 0.09729 0.0
H1094 H 0.6037 -0.0008 0.11137 0.0
H1095 H 0.56327 0.00638 0.06897 0.0
S1096 S 0.48537 0.95717 0.17256 0.0
N1097 N 0.52491 0.95977 0.17975 0.0
N1098 N 0.48089 0.97068 0.13571 0.0
C1099 C 0.51239 0.97796 0.12764 0.0
C1100 C 0.53617 0.97232 0.15162 0.0
C1101 C 0.71139 0.82909 0.86772 0.0
C1102 C 0.71637 0.82089 0.90023 0.0
C1103 C 0.71293 0.80587 0.84279 0.0
C1104 C 0.71935 0.7734 0.84929 0.0
H1105 H 0.70704 0.85384 0.86125 0.0
H1106 H 0.70989 0.81365 0.81817 0.0
S1107 S 0.73121 0.73875 0.93078 0.0
N1108 N 0.72578 0.7775 0.93771 0.0
N1109 N 0.72849 0.73395 0.89132 0.0
C1110 C 0.72277 0.76462 0.88194 0.0
C1111 C 0.72136 0.78829 0.90723 0.0
C1112 C 0.83926 0.95364 0.97334 0.0
C1113 C 0.8257 0.92829 -0.00879 0.0
C1114 C 0.8701 0.9663 0.98061 0.0
C1115 C 0.88899 0.95406 0.00574 0.0
H1116 H 0.82555 0.96474 0.95422 0.0
H1117 H 0.87865 0.98694 0.9673 0.0
S1118 S 0.86657 0.88645 0.05861 0.0
N1119 N 0.83483 0.89002 0.03435 0.0
N1120 N 0.89317 0.91453 0.04785 0.0
C1121 C 0.87669 0.92804 0.02318 0.0
C1122 C 0.84499 0.91492 0.01585 0.0
C1123 C 0.33631 0.52223 -0.01389 0.0
C1124 C 0.32316 0.55289 0.98085 0.0
C1125 C 0.36933 0.51591 0.97946 0.0
C1126 C 0.39011 0.53998 0.9671 0.0
H1127 H 0.32119 0.50313 -0.00418 0.0
H1128 H 0.37869 0.49217 0.98434 0.0
S1129 S 0.36795 0.62464 0.95001 0.0
N1130 N 0.3339 0.60773 0.96298 0.0
N1131 N 0.39532 0.59584 0.95057 0.0
C1132 C 0.37714 0.57064 0.96155 0.0
C1133 C 0.34384 0.5771 0.96842 0.0
C1134 C 0.18672 0.59303 0.73223 0.0
C1135 C 0.15266 0.59731 0.73162 0.0
C1136 C 0.20788 0.61911 0.73603 0.0
C1137 C 0.19583 0.65049 0.7391 0.0
H1138 H 0.19732 0.56925 0.73064 0.0
H1139 H 0.23391 0.61452 0.73716 0.0
S1140 S 0.10918 0.67519 0.73366 0.0
N1141 N 0.10795 0.63559 0.73055 0.0
N1142 N 0.1482 0.68511 0.73755 0.0
C1143 C 0.16206 0.65554 0.7361 0.0
C1144 C 0.14033 0.62878 0.73238 0.0
C1145 C 0.1056 0.4264 0.51549 0.0
C1146 C 0.12005 0.40209 0.49648 0.0
C1147 C 0.08508 0.44906 0.50155 0.0
C1148 C 0.07955 0.4485 0.46823 0.0
H1149 H 0.11236 0.42951 0.54061 0.0
H1150 H 0.0762 0.46888 0.51619 0.0
S1151 S 0.10623 0.38611 0.40938 0.0
N1152 N 0.12266 0.37541 0.44391 0.0
N1153 N 0.08535 0.41913 0.41748 0.0
C1154 C 0.09096 0.42245 0.44967 0.0
C1155 C 0.11091 0.39879 0.46397 0.0
C1156 C 0.83348 0.8655 0.74222 0.0
C1157 C 0.83455 0.89155 0.72101 0.0
C1158 C 0.81092 0.84 0.73745 0.0
C1159 C 0.78912 0.83966 0.71109 0.0
H1160 H 0.84972 0.86511 0.76281 0.0
H1161 H 0.81037 0.82068 0.75468 0.0
S1162 S 0.78471 0.90215 0.64771 0.0
N1163 N 0.81343 0.91537 0.67256 0.0
N1164 N 0.77178 0.86774 0.66271 0.0
C1165 C 0.79091 0.86556 0.68937 0.0
C1166 C 0.81343 0.89143 0.69458 0.0
C1167 C 0.62138 0.07601 0.48929 0.0
C1168 C 0.65335 0.06416 0.48663 0.0
C1169 C 0.59586 0.05618 0.49998 0.0
C1170 C 0.60178 0.02414 0.50882 0.0
H1171 H 0.61581 0.10028 0.48202 0.0
H1172 H 0.57114 0.06534 0.49912 0.0
S1173 S 0.68221 0.98369 0.51214 0.0
N1174 N 0.68972 0.01882 0.49569 0.0
N1175 N 0.64284 0.98395 0.52071 0.0
C1176 C 0.63426 0.01356 0.51012 0.0
C1177 C 0.65972 0.03274 0.49722 0.0
C1178 C 0.19708 0.39811 0.77044 0.0
C1179 C 0.18174 0.40538 0.74121 0.0
C1180 C 0.20509 0.36626 0.77732 0.0
C1181 C 0.19851 0.34161 0.75474 0.0
H1182 H 0.20021 0.41649 0.78903 0.0
H1183 H 0.21472 0.36064 0.80088 0.0
S1184 S 0.16097 0.34908 0.67415 0.0
N1185 N 0.16206 0.38615 0.6891 0.0
N1186 N 0.17781 0.32637 0.7018 0.0
C1187 C 0.18536 0.34902 0.72469 0.0
C1188 C 0.17686 0.38109 0.71791 0.0
C1189 C 0.29581 0.59791 0.23591 0.0
C1190 C 0.31722 0.58356 0.2578 0.0
C1191 C 0.28237 0.62816 0.24271 0.0
C1192 C 0.28941 0.64436 0.2719 0.0
H1193 H 0.29033 0.58623 0.21299 0.0
H1194 H 0.26629 0.6388 0.22516 0.0
S1195 S 0.34285 0.61575 0.33766 0.0
N1196 N 0.34415 0.58695 0.30985 0.0
N1197 N 0.31847 0.64342 0.32313 0.0
C1198 C 0.31011 0.62969 0.29428 0.0
C1199 C 0.32415 0.59931 0.2871 0.0
C1200 C 0.49547 0.61556 0.57985 0.0
C1201 C 0.50809 0.6457 0.57043 0.0
C1202 C 0.48631 0.59219 0.55669 0.0
C1203 C 0.48989 0.59833 0.52366 0.0
H1204 H 0.48952 0.61123 0.6049 0.0
H1205 H 0.4733 0.57084 0.56451 0.0
S1206 S 0.53077 0.66896 0.48736 0.0
N1207 N 0.53043 0.67717 0.52648 0.0
N1208 N 0.51313 0.63322 0.48304 0.0
C1209 C 0.50661 0.62631 0.51435 0.0
C1210 C 0.5158 0.65007 0.53778 0.0
C1211 C 0.59706 0.25349 0.80097 0.0
C1212 C 0.58143 0.22523 0.81139 0.0
C1213 C 0.62814 0.25224 0.78667 0.0
C1214 C 0.64434 0.22274 0.7832 0.0
H1215 H 0.58602 0.27673 0.80559 0.0
H1216 H 0.6406 0.27458 0.78093 0.0
S1217 S 0.6115 0.14193 0.80289 0.0
N1218 N 0.58231 0.16701 0.81408 0.0
N1219 N 0.64113 0.16454 0.78785 0.0
C1220 C 0.62772 0.19422 0.79127 0.0
C1221 C 0.59605 0.1955 0.80533 0.0
C1222 C -0.01347 0.33884 0.01699 0.0
C1223 C 0.96889 0.3398 0.04612 0.0
C1224 C 0.00201 0.36657 0.00577 0.0
C1225 C -0.00081 0.39586 0.02279 0.0
H1226 H -0.00755 0.31607 0.00539 0.0
H1227 H 0.01911 0.36431 -0.01415 0.0
S1228 S 0.94422 0.41322 0.09162 0.0
N1229 N 0.94068 0.37397 0.08537 0.0
N1230 N 0.96993 0.42636 0.06382 0.0
C1231 C 0.97615 0.39841 0.04763 0.0
C1232 C 0.96056 0.3701 0.05931 0.0
C1233 C 0.87808 0.7808 0.3093 0.0
C1234 C 0.89625 0.75458 0.3201 0.0
C1235 C 0.84575 0.77646 0.29917 0.0
C1236 C 0.83142 0.74568 0.29884 0.0
H1237 H 0.88949 0.80429 0.30692 0.0
H1238 H 0.83323 0.7965 0.28842 0.0
S1239 S 0.86694 0.67058 0.32961 0.0
N1240 N 0.89611 0.698 0.33449 0.0
N1241 N 0.83563 0.68965 0.31389 0.0
C1242 C 0.84818 0.72002 0.31248 0.0
C1243 C 0.88073 0.72455 0.32353 0.0
C1244 C 0.51056 0.35137 0.91865 0.0
C1245 C 0.49866 0.34949 0.88703 0.0
C1246 C 0.49989 0.37528 0.93977 0.0
C1247 C 0.47699 0.39803 0.92993 0.0
H1248 H 0.52687 0.33315 0.92764 0.0
H1249 H 0.50885 0.3754 0.96438 0.0
S1250 S 0.44128 0.40588 0.8487 0.0
N1251 N 0.465 0.37393 0.84581 0.0
N1252 N 0.44506 0.41964 0.88616 0.0
C1253 C 0.46663 0.39809 0.89784 0.0
C1254 C 0.47757 0.37356 0.87609 0.0
C1255 C 0.88176 0.25406 0.20863 0.0
C1256 C 0.89211 0.25729 0.17647 0.0
C1257 C 0.8491 0.24693 0.21574 0.0
C1258 C 0.82633 0.24239 0.19082 0.0
H1259 H 0.89944 0.25383 0.22805 0.0
H1260 H 0.84273 0.24058 0.24026 0.0
S1261 S 0.83843 0.25952 0.10444 0.0
N1262 N 0.87504 0.26457 0.12068 0.0
N1263 N 0.81371 0.24978 0.13441 0.0
C1264 C 0.83502 0.25106 0.15951 0.0
C1265 C 0.86813 0.25891 0.15219 0.0
C1266 C 0.01883 0.66122 0.45906 0.0
C1267 C -0.01034 0.66759 0.44255 0.0
C1268 C 0.02443 0.63074 0.47177 0.0
C1269 C 0.00067 0.60616 0.46911 0.0
H1270 H 0.03886 0.67849 0.45896 0.0
H1271 H 0.04857 0.62547 0.48093 0.0
S1272 S 0.91722 0.61372 0.43549 0.0
N1273 N 0.93462 0.64919 0.4295 0.0
N1274 N 0.94481 0.59207 0.45421 0.0
C1275 C 0.96973 0.61382 0.4569 0.0
C1276 C 0.9643 0.6446 0.44332 0.0
C1277 C 0.57917 0.78086 0.69707 0.0
C1278 C 0.57443 0.75808 0.67214 0.0
C1279 C 0.60777 0.78076 0.71571 0.0
C1280 C 0.6319 0.75721 0.71066 0.0
H1281 H 0.56146 0.79975 0.70111 0.0
H1282 H 0.61168 0.79999 0.73326 0.0
S1283 S 0.6288 0.69025 0.6504 0.0
N1284 N 0.59466 0.71029 0.64457 0.0
N1285 N 0.64779 0.70916 0.68035 0.0
C1286 C 0.62621 0.73304 0.68715 0.0
C1287 C 0.59763 0.73377 0.6676 0.0
C1288 C 0.56561 0.4921 0.61996 0.0
C1289 C 0.55212 0.48406 0.65001 0.0
C1290 C 0.54577 0.49509 0.59282 0.0
C1291 C 0.51187 0.48943 0.59452 0.0
H1292 H 0.59175 0.49572 0.61719 0.0
H1293 H 0.5574 0.5 0.56992 0.0
S1294 S 0.4641 0.47013 0.66776 0.0
N1295 N 0.50232 0.47292 0.68042 0.0
N1296 N 0.46528 0.4771 0.62863 0.0
C1297 C 0.49785 0.4824 0.62448 0.0
C1298 C 0.51795 0.48008 0.65243 0.0
C1299 C 0.73883 0.30108 0.89092 0.0
C1300 C 0.74275 0.33424 0.8864 0.0
C1301 C 0.75062 0.27914 0.8684 0.0
C1302 C 0.76624 0.28956 0.84021 0.0
H1303 H 0.72681 0.2919 0.91227 0.0
H1304 H 0.74616 0.25379 0.8726 0.0
S1305 S 0.78342 0.37382 0.81726 0.0
N1306 N 0.76412 0.37681 0.85225 0.0
N1307 N 0.78546 0.33489 0.80874 0.0
C1308 C 0.77015 0.32265 0.83504 0.0
C1309 C 0.75842 0.34521 0.85837 0.0
C1310 C 0.91969 0.54257 0.12746 0.0
C1311 C 0.92895 0.51865 0.14888 0.0
C1312 C 0.9379 0.54817 0.09967 0.0
C1313 C 0.96527 0.52918 0.09199 0.0
H1314 H 0.89766 0.55634 0.13172 0.0
H1315 H 0.92883 0.56574 0.08293 0.0
S1316 S 0.00157 0.4662 0.1425 0.0
N1317 N 0.96909 0.4784 0.16295 0.0
N1318 N 0.0027 0.48791 0.10945 0.0
C1319 C 0.97597 0.50659 0.11427 0.0
C1320 C 0.95787 0.50152 0.14311 0.0
C1321 C 0.75758 0.67995 0.37194 0.0
C1322 C 0.74788 0.68892 0.40345 0.0
C1323 C 0.74449 0.69529 0.3451 0.0
C1324 C 0.72116 0.71946 0.34942 0.0
H1325 H 0.7728 0.65907 0.36788 0.0
H1326 H 0.74982 0.6858 0.32119 0.0
S1327 S 0.69633 0.75865 0.42642 0.0
N1328 N 0.72041 0.72901 0.43712 0.0
N1329 N 0.69532 0.75725 0.38661 0.0
C1330 C 0.71549 0.73201 0.38052 0.0
C1331 C 0.72913 0.71684 0.40773 0.0
C1332 C 0.56784 0.48519 0.85039 0.0
C1333 C 0.56794 0.51505 0.83474 0.0
C1334 C 0.55452 0.48227 0.8815 0.0
C1335 C 0.54228 0.50936 0.89796 0.0
H1336 H 0.57502 0.46355 0.83741 0.0
H1337 H 0.55108 0.45848 0.89139 0.0
S1338 S 0.5435 0.59368 0.86965 0.0
N1339 N 0.55895 0.57253 0.83932 0.0
N1340 N 0.53603 0.56755 0.8984 0.0
C1341 C 0.54649 0.53985 0.88404 0.0
C1342 C 0.55872 0.54259 0.85213 0.0
C1343 C 0.72533 0.29564 0.08951 0.0
C1344 C 0.74141 0.32499 0.08318 0.0
C1345 C 0.71672 0.28746 0.12109 0.0
C1346 C 0.72326 0.30881 0.14689 0.0
H1347 H 0.71826 0.27948 0.06995 0.0
H1348 H 0.70419 0.2648 0.12528 0.0
S1349 S 0.77071 0.38514 0.14407 0.0
N1350 N 0.76828 0.37273 0.10616 0.0
N1351 N 0.75078 0.35783 0.16507 0.0
C1352 C 0.74114 0.33708 0.14116 0.0
C1353 C 0.75069 0.34499 0.10936 0.0
C1354 C 0.93659 0.45013 0.34083 0.0
C1355 C 0.91726 0.4743 0.32743 0.0
C1356 C 0.9519 0.45519 0.37043 0.0
C1357 C 0.9479 0.48433 0.38718 0.0
H1358 H 0.94222 0.42843 0.32716 0.0
H1359 H 0.96917 0.43753 0.3788 0.0
S1360 S 0.89301 0.55117 0.36697 0.0
N1361 N 0.88949 0.5254 0.33638 0.0
N1362 N 0.91888 0.53478 0.39233 0.0
C1363 C 0.92524 0.50668 0.37642 0.0
C1364 C 0.90947 0.50157 0.34633 0.0
C1365 C 0.72069 0.67017 0.58918 0.0
C1366 C 0.74364 0.64529 0.58829 0.0
C1367 C 0.7197 0.69233 0.61485 0.0
C1368 C 0.74191 0.6908 0.64067 0.0
H1369 H 0.70334 0.67263 0.56966 0.0
H1370 H 0.70128 0.71088 0.6143 0.0
S1371 S 0.80771 0.63036 0.64911 0.0
N1372 N 0.78935 0.62011 0.61493 0.0
N1373 N 0.78805 0.66215 0.66337 0.0
C1374 C 0.76503 0.66574 0.64017 0.0
C1375 C 0.76575 0.64287 0.61395 0.0
C1376 C 0.62113 0.58157 0.49028 0.0
C1377 C 0.64797 0.56894 0.473 0.0
C1378 C 0.59221 0.56353 0.49412 0.0
C1379 C 0.58927 0.53237 0.48081 0.0
H1380 H 0.62285 0.60505 0.5019 0.0
H1381 H 0.57241 0.57362 0.50836 0.0
S1382 S 0.64986 0.49034 0.42926 0.0
N1383 N 0.66796 0.52474 0.43936 0.0
N1384 N 0.61362 0.49092 0.447 0.0
C1385 C 0.61502 0.52013 0.46213 0.0
C1386 C 0.64439 0.53844 0.45808 0.0
C1387 C 0.13514 0.93806 0.50098 0.0
C1388 C 0.14466 0.90967 0.51604 0.0
C1389 C 0.10296 0.94897 0.50364 0.0
C1390 C 0.07946 0.93194 0.52175 0.0
H1391 H 0.15211 0.95088 0.48556 0.0
H1392 H 0.09617 0.96995 0.49008 0.0
S1393 S 0.09496 0.85999 0.57146 0.0
N1394 N 0.13014 0.86728 0.5532 0.0
N1395 N 0.06977 0.8881 0.55921 0.0
C1396 C 0.08973 0.90506 0.53926 0.0
C1397 C 0.12233 0.89378 0.53609 0.0
C1398 C 0.30702 0.89232 0.72488 0.0
C1399 C 0.34038 0.88916 0.73177 0.0
C1400 C 0.2841 0.87173 0.73829 0.0
C1401 C 0.29381 0.84691 0.75858 0.0
H1402 H 0.29842 0.91176 0.71005 0.0
H1403 H 0.25857 0.87495 0.7322 0.0
S1404 S 0.37841 0.82626 0.78137 0.0
N1405 N 0.38248 0.85841 0.75864 0.0
N1406 N 0.33876 0.81814 0.7828 0.0
C1407 C 0.32717 0.84212 0.76421 0.0
C1408 C 0.3507 0.8636 0.75091 0.0
C1409 C 0.34783 0.04641 0.9646 0.0
C1410 C 0.33516 0.07073 0.98468 0.0
C1411 C 0.3771 0.03145 0.97262 0.0
C1412 C 0.39311 0.0399 0.00145 0.0
H1413 H 0.33353 0.03682 0.94463 0.0
H1414 H 0.38434 0.01018 0.95901 0.0
S1415 S 0.37317 0.10664 0.05777 0.0
N1416 N 0.34379 0.10692 0.03049 0.0
N1417 N 0.39815 0.07753 0.04644 0.0
C1418 C 0.38324 0.06722 0.01884 0.0
C1419 C 0.354 0.08292 0.01031 0.0
C1420 C 0.63823 0.62376 0.72953 0.0
C1421 C 0.64996 0.59533 0.71479 0.0
C1422 C 0.6599 0.64799 0.74001 0.0
C1423 C 0.6937 0.64463 0.73547 0.0
H1424 H 0.61271 0.62578 0.73634 0.0
H1425 H 0.65054 0.66749 0.75493 0.0
S1426 S 0.73513 0.58076 0.68803 0.0
N1427 N 0.69632 0.56924 0.6889 0.0
N1428 N 0.73705 0.61527 0.70834 0.0
C1429 C 0.70502 0.61905 0.7162 0.0
C1430 C 0.68307 0.59414 0.70588 0.0
C1431 C 0.85823 0.41924 0.95495 0.0
C1432 C 0.83446 0.41945 0.97938 0.0
C1433 C 0.8905 0.42843 0.96196 0.0
C1434 C 0.89905 0.43877 -0.00671 0.0
H1435 H 0.85154 0.41337 0.93027 0.0
H1436 H 0.90782 0.43057 0.94225 0.0
S1437 S 0.84632 0.43791 0.06613 0.0
N1438 N 0.82219 0.42568 0.03643 0.0
N1439 N 0.88256 0.44412 0.04951 0.0
C1440 C 0.8761 0.43577 0.01831 0.0
C1441 C 0.84364 0.42597 0.01129 0.0
C1442 C 0.27625 0.0805 0.7188 0.0
C1443 C 0.29722 0.07292 0.74438 0.0
C1444 C 0.26351 0.11152 0.71634 0.0
C1445 C 0.27094 0.1351 0.73977 0.0
H1446 H 0.27239 0.06355 0.69902 0.0
H1447 H 0.25017 0.11779 0.69481 0.0
S1448 S 0.31927 0.12526 0.81424 0.0
N1449 N 0.3207 0.08979 0.79581 0.0
N1450 N 0.29654 0.14805 0.79112 0.0
C1451 C 0.28877 0.12674 0.7671 0.0
C1452 C 0.30192 0.09545 0.76951 0.0
C1453 C 0.14709 0.86116 0.25078 0.0
C1454 C 0.16531 0.88811 0.26163 0.0
C1455 C 0.163 0.83405 0.2382 0.0
C1456 C 0.19725 0.83298 0.23726 0.0
H1457 H 0.12084 0.86269 0.24767 0.0
H1458 H 0.14863 0.81585 0.22556 0.0
S1459 S 0.25501 0.89285 0.2723 0.0
N1460 N 0.21856 0.90879 0.27801 0.0
N1461 N 0.24847 0.85743 0.25469 0.0
C1462 C 0.21526 0.85714 0.25333 0.0
C1463 C 0.19916 0.88492 0.26568 0.0
C1464 C 0.48893 0.36797 0.39957 0.0
C1465 C 0.51236 0.34342 0.39912 0.0
C1466 C 0.48972 0.39244 0.4235 0.0
C1467 C 0.51398 0.39302 0.44765 0.0
H1468 H 0.4694 0.36773 0.38196 0.0
H1469 H 0.47089 0.41062 0.42341 0.0
S1470 S 0.58311 0.33562 0.45383 0.0
N1471 N 0.56161 0.32221 0.42272 0.0
N1472 N 0.56381 0.36789 0.46724 0.0
C1473 C 0.5383 0.36905 0.44631 0.0
C1474 C 0.53729 0.34432 0.42216 0.0
C1475 C 0.40207 0.75506 0.20876 0.0
C1476 C 0.41376 0.75329 0.1768 0.0
C1477 C 0.36937 0.76299 0.21536 0.0
C1478 C 0.34749 0.76972 0.19023 0.0
H1479 H 0.41815 0.75004 0.22875 0.0
H1480 H 0.36106 0.76346 0.2402 0.0
S1481 S 0.36534 0.76614 0.10231 0.0
N1482 N 0.40022 0.75736 0.11977 0.0
N1483 N 0.3395 0.77281 0.13219 0.0
C1484 C 0.35899 0.76818 0.15825 0.0
C1485 C 0.39192 0.75976 0.15154 0.0
C1486 C 0.94512 0.63048 0.906 0.0
C1487 C 0.97632 0.64467 0.90918 0.0
C1488 C 0.93839 0.60017 0.91897 0.0
C1489 C 0.9629 0.58276 0.93464 0.0
H1490 H 0.92547 0.64342 0.89464 0.0
H1491 H 0.91353 0.59092 0.91795 0.0
S1492 S 0.0496 0.60784 0.94509 0.0
N1493 N 0.03254 0.63811 0.9264 0.0
N1494 N 0.0203 0.58073 0.94986 0.0
C1495 C -0.00522 0.59572 0.9357 0.0
C1496 C 0.00135 0.62689 0.92332 0.0
C1497 C 0.11335 0.22706 0.63889 0.0
C1498 C 0.0927 0.25372 0.64312 0.0
C1499 C 0.13415 0.21773 0.66382 0.0
C1500 C 0.13388 0.23449 0.69344 0.0
H1501 H 0.11182 0.21215 0.61727 0.0
H1502 H 0.14938 0.19673 0.66047 0.0
S1503 S 0.08903 0.30923 0.71379 0.0
N1504 N 0.07726 0.29952 0.67683 0.0
N1505 N 0.11528 0.28127 0.72404 0.0
C1506 C 0.1153 0.26251 0.69684 0.0
C1507 C 0.09503 0.27242 0.67143 0.0
C1508 C 0.51956 0.61117 0.09499 0.0
C1509 C 0.49386 0.63348 0.09431 0.0
C1510 C 0.52107 0.58602 0.07206 0.0
C1511 C 0.49696 0.58298 0.04818 0.0
H1512 H 0.53982 0.61468 0.1115 0.0
H1513 H 0.54206 0.57028 0.07174 0.0
S1514 S 0.42128 0.63055 0.04091 0.0
N1515 N 0.44123 0.64744 0.07145 0.0
N1516 N 0.44428 0.6004 0.02833 0.0
C1517 C 0.46966 0.60307 0.04939 0.0
C1518 C 0.46801 0.62832 0.07261 0.0
C1519 C 0.11977 0.73323 0.82215 0.0
C1520 C 0.08831 0.73175 0.80839 0.0
C1521 C 0.14591 0.74742 0.80549 0.0
C1522 C 0.14096 0.76066 0.77499 0.0
H1523 H 0.12371 0.72553 0.84667 0.0
H1524 H 0.16923 0.75049 0.81759 0.0
S1525 S 0.06586 0.75601 0.72555 0.0
N1526 N 0.05573 0.73887 0.75985 0.0
N1527 N 0.10457 0.76699 0.72954 0.0
C1528 C 0.11074 0.75645 0.75979 0.0
C1529 C 0.08443 0.74146 0.77626 0.0
C1530 C 0.01227 0.34883 0.5438 0.0
C1531 C -0.00715 0.32272 0.53305 0.0
C1532 C 0.01005 0.37889 0.52953 0.0
C1533 C -0.01235 0.38398 0.50465 0.0
H1534 H 0.0279 0.34653 0.5647 0.0
H1535 H 0.0233 0.399 0.54041 0.0
S1536 S 0.93612 0.32221 0.46364 0.0
N1537 N 0.95482 0.30242 0.49248 0.0
N1538 N 0.94926 0.3599 0.46657 0.0
C1539 C 0.97041 0.3575 0.49159 0.0
C1540 C 0.97337 0.32648 0.5056 0.0
C1541 C 0.38943 0.2384 0.32125 0.0
C1542 C 0.41205 0.24171 0.29595 0.0
C1543 C 0.35686 0.23046 0.31523 0.0
C1544 C 0.34541 0.22562 0.28362 0.0
H1545 H 0.39688 0.24214 0.3461 0.0
H1546 H 0.34035 0.22877 0.33564 0.0
S1547 S 0.39492 0.22983 0.20871 0.0
N1548 N 0.42117 0.23853 0.23793 0.0
N1549 N 0.35917 0.2239 0.22651 0.0
C1550 C 0.36759 0.22891 0.25787 0.0
C1551 C 0.40113 0.23692 0.26406 0.0
C1552 C 0.47493 0.4949 0.32273 0.0
C1553 C 0.44437 0.48185 0.31373 0.0
C1554 C 0.48055 0.50517 0.35466 0.0
C1555 C 0.4558 0.50223 0.37799 0.0
H1556 H 0.49368 0.49905 0.30471 0.0
H1557 H 0.50369 0.51657 0.36082 0.0
S1558 S 0.37388 0.46502 0.36757 0.0
N1559 N 0.39076 0.46311 0.33135 0.0
N1560 N 0.4015 0.48236 0.39125 0.0
C1561 C 0.42622 0.48713 0.36977 0.0
C1562 C 0.42047 0.47684 0.33755 0.0
C1563 C 0.24851 0.63876 0.1209 0.0
C1564 C 0.22594 0.63824 0.09556 0.0
C1565 C 0.24777 0.66357 0.14413 0.0
C1566 C 0.22506 0.68873 0.14181 0.0
H1567 H 0.26798 0.62126 0.12155 0.0
H1568 H 0.26659 0.66436 0.1625 0.0
S1569 S 0.15901 0.69565 0.08137 0.0
N1570 N 0.17851 0.66244 0.07099 0.0
N1571 N 0.17778 0.70982 0.11392 0.0
C1572 C 0.2012 0.68715 0.11762 0.0
C1573 C 0.2015 0.6616 0.09462 0.0
C1574 C 0.03157 0.48885 0.84434 0.0
C1575 C 0.06331 0.48825 0.83143 0.0
C1576 C 0.02567 0.47971 0.87606 0.0
C1577 C 0.05134 0.46995 0.89619 0.0
H1578 H 0.01111 0.49664 0.82995 0.0
H1579 H 0.00083 0.48135 0.8851 0.0
S1580 S 0.13885 0.46246 0.87304 0.0
N1581 N 0.12067 0.47579 0.84046 0.0
N1582 N 0.10954 0.45836 0.90015 0.0
C1583 C 0.08305 0.46787 0.88308 0.0
C1584 C 0.08906 0.47724 0.85073 0.0
C1585 C 0.22969 0.27674 0.5906 0.0
C1586 C 0.22957 0.31057 0.59301 0.0
C1587 C 0.23923 0.25807 0.61668 0.0
C1588 C 0.24821 0.27261 0.6461 0.0
H1589 H 0.22411 0.26462 0.56793 0.0
H1590 H 0.24143 0.23226 0.61327 0.0
S1591 S 0.24983 0.35963 0.66613 0.0
N1592 N 0.23728 0.35757 0.62832 0.0
N1593 N 0.25488 0.32202 0.67724 0.0
C1594 C 0.24599 0.30603 0.64973 0.0
C1595 C 0.23666 0.32518 0.62316 0.0
C1596 C 0.38596 0.50735 0.10644 0.0
C1597 C 0.40706 0.51398 0.13254 0.0
C1598 C 0.39842 0.49599 0.07707 0.0
C1599 C 0.43213 0.49173 0.07308 0.0
H1600 H 0.35967 0.5071 0.10978 0.0
H1601 H 0.3815 0.48669 0.05905 0.0
S1602 S 0.49768 0.51778 0.12926 0.0
N1603 N 0.46332 0.52475 0.14915 0.0
N1604 N 0.48661 0.50322 0.09358 0.0
C1605 C 0.45351 0.50434 0.09649 0.0
C1606 C 0.44092 0.51563 0.12655 0.0
C1607 C 0.22566 0.69238 0.88799 0.0
C1608 C 0.24838 0.69651 0.91309 0.0
C1609 C 0.22902 0.70917 0.85935 0.0
C1610 C 0.25578 0.72997 0.85456 0.0
H1611 H 0.20607 0.67473 0.88987 0.0
H1612 H 0.21231 0.70339 0.8398 0.0
S1613 S 0.31894 0.75295 0.91481 0.0
N1614 N 0.29568 0.72621 0.9334 0.0
N1615 N 0.30304 0.75699 0.87848 0.0
C1616 C 0.27717 0.73635 0.88041 0.0
C1617 C 0.27319 0.71978 0.91006 0.0
C1618 C 0.08443 0.49599 0.61637 0.0
C1619 C 0.07029 0.49786 0.64729 0.0
C1620 C 0.06507 0.49877 0.58884 0.0
C1621 C 0.03125 0.50351 0.59173 0.0
H1622 H 0.11016 0.49065 0.61337 0.0
H1623 H 0.07627 0.49501 0.56546 0.0
S1624 S 0.98405 0.51803 0.66694 0.0
N1625 N 0.02142 0.50986 0.679 0.0
N1626 N 0.98562 0.51649 0.6272 0.0
C1627 C 0.01767 0.50914 0.62237 0.0
C1628 C 0.03705 0.50574 0.65026 0.0
C1629 C 0.19604 0.33814 0.37332 0.0
C1630 C 0.22174 0.34048 0.3959 0.0
C1631 C 0.19767 0.31655 0.34683 0.0
C1632 C 0.22531 0.29723 0.34192 0.0
H1633 H 0.17386 0.35179 0.37708 0.0
H1634 H 0.1767 0.31387 0.33107 0.0
S1635 S 0.30101 0.29809 0.391 0.0
N1636 N 0.27685 0.3242 0.40948 0.0
N1637 N 0.2801 0.28416 0.35965 0.0
C1638 C 0.2519 0.30098 0.36308 0.0
C1639 C 0.2501 0.32252 0.3901 0.0
C1640 C 0.33514 0.42888 0.50103 0.0
C1641 C 0.30606 0.44668 0.50418 0.0
C1642 C 0.36606 0.44435 0.50106 0.0
C1643 C 0.36882 0.47806 0.50459 0.0
H1644 H 0.33391 0.40315 0.49654 0.0
H1645 H 0.38763 0.4301 0.49625 0.0
S1646 S 0.30025 0.53435 0.52084 0.0
N1647 N 0.28231 0.49892 0.51565 0.0
N1648 N 0.33982 0.52779 0.51676 0.0
C1649 C 0.33995 0.49549 0.5109 0.0
C1650 C 0.30874 0.47988 0.51035 0.0
C1651 C 0.85339 0.07977 0.50823 0.0
C1652 C 0.8285 0.05676 0.5042 0.0
C1653 C 0.88567 0.07236 0.50056 0.0
C1654 C 0.89401 0.04181 0.48811 0.0
H1655 H 0.8478 0.10371 0.51728 0.0
H1656 H 0.90418 0.09081 0.50454 0.0
S1657 S 0.83661 0.97357 0.47212 0.0
N1658 N 0.81332 0.0026 0.4868 0.0
N1659 N 0.87422 0.98846 0.47162 0.0
C1660 C 0.86903 0.01855 0.48379 0.0
C1661 C 0.83616 0.02607 0.4921 0.0
C1662 C 0.63638 0.11839 0.18682 0.0
C1663 C 0.62566 0.10869 0.21733 0.0
C1664 C 0.65611 0.14579 0.18363 0.0
C1665 C 0.66518 0.16429 0.21085 0.0
H1666 H 0.63178 0.10328 0.16574 0.0
H1667 H 0.66665 0.15091 0.16022 0.0
S1668 S 0.63902 0.15098 0.29536 0.0
N1669 N 0.62197 0.12103 0.27458 0.0
N1670 N 0.65894 0.17299 0.26873 0.0
C1671 C 0.65168 0.15657 0.24102 0.0
C1672 C 0.63199 0.12841 0.24427 0.0
C1673 C 0.60409 0.90526 -0.00642 0.0
C1674 C 0.63544 0.91919 -0.0101 0.0
C1675 C 0.57646 0.91951 0.98002 0.0
C1676 C 0.57967 0.9474 0.96163 0.0
H1677 H 0.60085 0.88337 0.00713 0.0
H1678 H 0.55257 0.90874 0.98385 0.0
S1679 S 0.65533 -0.00557 0.9463 0.0
N1680 N 0.66723 0.96387 0.96816 0.0
N1681 N 0.61559 0.98933 0.94149 0.0
C1682 C 0.6106 0.96158 0.95787 0.0
C1683 C 0.63845 0.94783 0.97239 0.0
C1684 C 0.30315 0.39557 0.24355 0.0
C1685 C 0.33717 0.39224 0.23912 0.0
C1686 C 0.28208 0.369 0.24033 0.0
C1687 C 0.29446 0.33836 0.23327 0.0
H1688 H 0.29234 0.41914 0.24644 0.0
H1689 H 0.25593 0.37307 0.23978 0.0
S1690 S 0.3815 0.31522 0.22919 0.0
N1691 N 0.38242 0.35466 0.23464 0.0
N1692 N 0.34242 0.30475 0.22875 0.0
C1693 C 0.32835 0.3339 0.23382 0.0
C1694 C 0.34991 0.36094 0.23666 0.0
C1695 C 0.1273 0.59247 0.02184 0.0
C1696 C 0.13984 0.5931 -0.00979 0.0
C1697 C 0.10277 0.57034 0.03006 0.0
C1698 C 0.0901 0.54918 0.00655 0.0
H1699 H 0.1382 0.6073 0.04074 0.0
H1700 H 0.09461 0.56891 0.05489 0.0
S1701 S 0.11274 0.54395 0.92 0.0
N1702 N 0.13654 0.57268 0.93518 0.0
N1703 N 0.08993 0.53147 0.95035 0.0
C1704 C 0.10109 0.55109 0.97455 0.0
C1705 C 0.12611 0.57316 0.96637 0.0
C1706 C 0.65705 0.89237 0.27902 0.0
C1707 C 0.67704 0.91264 0.26036 0.0
C1708 C 0.66284 0.85953 0.28071 0.0
C1709 C 0.68931 0.84532 0.26435 0.0
H1710 H 0.6354 0.90145 0.29109 0.0
H1711 H 0.64562 0.84509 0.29432 0.0
S1712 S 0.75341 0.88874 0.21811 0.0
N1713 N 0.72717 0.917 0.22884 0.0
N1714 N 0.73902 0.85489 0.23327 0.0
C1715 C 0.71151 0.86566 0.24819 0.0
C1716 C 0.70517 0.89939 0.24591 0.0
C1717 C 0.83824 0.11514 0.74011 0.0
C1718 C 0.82079 0.08688 0.7317 0.0
C1719 C 0.82205 0.14422 0.74491 0.0
C1720 C 0.78807 0.14577 0.74149 0.0
H1721 H 0.86418 0.11445 0.74531 0.0
H1722 H 0.83562 0.16457 0.7549 0.0
S1723 S 0.73249 0.0814 0.71149 0.0
N1724 N 0.76867 0.06413 0.71351 0.0
N1725 N 0.73826 0.11913 0.72344 0.0
C1726 C 0.77101 0.11905 0.72905 0.0
C1727 C 0.7874 0.08934 0.72403 0.0
loop_
_geom_bond_atom_site_label_1
_geom_bond_atom_site_label_2
_geom_bond_distance
_geom_bond_site_symmetry_2
_ccdc_geom_bond_type
C0 O1 1.306 . S
C0 O3 1.160 . S
O1 C0 1.306 . S
O1 Cd2 2.228 1_655 S
Cd2 O1 2.228 1_455 S
Cd2 O6 2.273 . S
Cd2 O10 2.277 . S
O3 C0 1.160 . S
O3 Cd4 2.203 1_655 S
Cd4 O3 2.203 1_455 S
Cd4 O6 2.411 . S
Cd4 O7 2.333 . S
Cd4 O8 2.352 . S
Cd4 O12 2.279 . S
Cd4 O13 2.356 . S
C5 O10 1.209 . S
C5 O12 1.228 . S
O6 Cd2 2.273 . S
O6 Cd4 2.411 . S
O6 C9 1.320 . S
O7 Cd4 2.333 . S
O7 C9 1.214 . S
O8 Cd4 2.352 . S
O8 C11 1.258 . S
C9 O6 1.320 . S
C9 O7 1.214 . S
O10 Cd2 2.277 . S
O10 C5 1.209 . S
C11 O8 1.258 . S
C11 O13 1.282 . S
O12 Cd4 2.279 . S
O12 C5 1.228 . S
O13 Cd4 2.356 . S
O13 C11 1.282 . S
C14 O15 1.306 . S
C14 O17 1.160 . S
O15 C14 1.306 . S
O15 Cd16 2.228 1_655 S
Cd16 O15 2.228 1_455 S
Cd16 O20 2.273 . S
Cd16 O24 2.277 . S
O17 C14 1.160 . S
O17 Cd18 2.203 1_655 S
Cd18 O17 2.203 1_455 S
Cd18 O20 2.411 . S
Cd18 O21 2.333 . S
Cd18 O22 2.352 . S
Cd18 O26 2.277 . S
Cd18 O27 2.356 . S
C19 O24 1.209 . S
C19 O26 1.226 . S
O20 Cd16 2.273 . S
O20 Cd18 2.411 . S
O20 C23 1.320 . S
O21 Cd18 2.333 . S
O21 C23 1.214 . S
O22 Cd18 2.352 . S
O22 C25 1.258 . S
C23 O20 1.320 . S
C23 O21 1.214 . S
O24 Cd16 2.277 . S
O24 C19 1.209 . S
C25 O22 1.258 . S
C25 O27 1.282 . S
O26 Cd18 2.277 . S
O26 C19 1.226 . S
O27 Cd18 2.356 . S
O27 C25 1.282 . S
C28 O29 1.306 . S
C28 O31 1.160 . S
O29 C28 1.306 . S
O29 Cd30 2.228 . S
Cd30 O29 2.228 . S
Cd30 O34 2.273 . S
Cd30 O38 2.277 . S
O31 C28 1.160 . S
O31 Cd32 2.203 . S
Cd32 O31 2.203 . S
Cd32 O34 2.411 . S
Cd32 O35 2.333 . S
Cd32 O36 2.352 . S
Cd32 O40 2.277 . S
Cd32 O41 2.356 . S
C33 O38 1.209 . S
C33 O40 1.226 . S
O34 Cd30 2.273 . S
O34 Cd32 2.411 . S
O34 C37 1.320 . S
O35 Cd32 2.333 . S
O35 C37 1.214 . S
O36 Cd32 2.352 . S
O36 C39 1.258 . S
C37 O34 1.320 . S
C37 O35 1.214 . S
O38 Cd30 2.277 . S
O38 C33 1.209 . S
C39 O36 1.258 . S
C39 O41 1.282 . S
O40 Cd32 2.277 . S
O40 C33 1.226 . S
O41 Cd32 2.356 . S
O41 C39 1.282 . S
C42 O43 1.306 . S
C42 O45 1.160 . S
O43 C42 1.306 . S
O43 Cd44 2.228 . S
Cd44 O43 2.228 . S
Cd44 O48 2.273 . S
Cd44 O52 2.277 . S
O45 C42 1.160 . S
O45 Cd46 2.203 . S
Cd46 O45 2.203 . S
Cd46 O48 2.411 . S
Cd46 O49 2.333 . S
Cd46 O50 2.352 . S
Cd46 O54 2.277 . S
Cd46 O55 2.356 . S
C47 O52 1.209 . S
C47 O54 1.226 . S
O48 Cd44 2.273 . S
O48 Cd46 2.411 . S
O48 C51 1.320 . S
O49 Cd46 2.333 . S
O49 C51 1.214 . S
O50 Cd46 2.352 . S
O50 C53 1.258 . S
C51 O48 1.320 . S
C51 O49 1.214 . S
O52 Cd44 2.277 . S
O52 C47 1.209 . S
C53 O50 1.258 . S
C53 O55 1.282 . S
O54 Cd46 2.277 . S
O54 C47 1.226 . S
O55 Cd46 2.356 . S
O55 C53 1.282 . S
C56 O57 1.306 . S
C56 O59 1.166 . S
O57 C56 1.306 . S
O57 Cd58 2.228 . S
Cd58 O57 2.228 . S
Cd58 O62 2.273 . S
Cd58 O66 2.277 . S
O59 C56 1.166 . S
O59 Cd60 2.203 1_545 S
Cd60 O59 2.203 1_565 S
Cd60 O62 2.411 1_565 S
Cd60 O63 2.333 . S
Cd60 O64 2.352 . S
Cd60 O68 2.277 1_565 S
Cd60 O69 2.356 . S
C61 O66 1.209 . S
C61 O68 1.226 . S
O62 Cd58 2.273 . S
O62 Cd60 2.411 1_545 S
O62 C65 1.320 . S
O63 Cd60 2.333 . S
O63 C65 1.214 1_565 S
O64 Cd60 2.352 . S
O64 C67 1.258 . S
C65 O62 1.320 . S
C65 O63 1.214 1_545 S
O66 Cd58 2.277 . S
O66 C61 1.209 . S
C67 O64 1.258 . S
C67 O69 1.282 . S
O68 Cd60 2.277 1_545 S
O68 C61 1.226 . S
O69 Cd60 2.356 . S
O69 C67 1.282 . S
C70 O71 1.306 . S
C70 O73 1.160 . S
O71 C70 1.306 . S
O71 Cd72 2.228 . S
Cd72 O71 2.228 . S
Cd72 O76 2.273 . S
Cd72 O80 2.277 . S
O73 C70 1.160 . S
O73 Cd74 2.203 . S
Cd74 O73 2.203 . S
Cd74 O76 2.411 . S
Cd74 O77 2.333 . S
Cd74 O78 2.352 . S
Cd74 O82 2.277 . S
Cd74 O83 2.356 . S
C75 O80 1.209 . S
C75 O82 1.226 . S
O76 Cd72 2.273 . S
O76 Cd74 2.411 . S
O76 C79 1.320 . S
O77 Cd74 2.333 . S
O77 C79 1.214 . S
O78 Cd74 2.352 . S
O78 C81 1.258 . S
C79 O76 1.320 . S
C79 O77 1.214 . S
O80 Cd72 2.277 . S
O80 C75 1.209 . S
C81 O78 1.258 . S
C81 O83 1.282 . S
O82 Cd74 2.277 . S
O82 C75 1.226 . S
O83 Cd74 2.356 . S
O83 C81 1.282 . S
C84 O85 1.305 . S
C84 O87 1.160 1_565 S
O85 C84 1.305 . S
O85 Cd86 2.228 . S
Cd86 O85 2.228 . S
Cd86 O90 2.273 1_565 S
Cd86 O94 2.277 . S
O87 C84 1.160 1_545 S
O87 Cd88 2.203 . S
Cd88 O87 2.203 . S
Cd88 O90 2.411 . S
Cd88 O91 2.333 . S
Cd88 O92 2.352 . S
Cd88 O96 2.277 1_545 S
Cd88 O97 2.356 . S
C89 O94 1.209 . S
C89 O96 1.226 . S
O90 Cd86 2.273 1_545 S
O90 Cd88 2.411 . S
O90 C93 1.320 . S
O91 Cd88 2.333 . S
O91 C93 1.214 . S
O92 Cd88 2.352 . S
O92 C95 1.258 . S
C93 O90 1.320 . S
C93 O91 1.214 . S
O94 Cd86 2.277 . S
O94 C89 1.209 . S
C95 O92 1.258 . S
C95 O97 1.282 . S
O96 Cd88 2.277 1_565 S
O96 C89 1.226 . S
O97 Cd88 2.356 . S
O97 C95 1.282 . S
C98 O99 1.306 . S
C98 O101 1.168 . S
O99 C98 1.306 . S
O99 Cd100 2.228 . S
Cd100 O99 2.228 . S
Cd100 O104 2.273 . S
Cd100 O108 2.277 . S
O101 C98 1.168 . S
O101 Cd102 2.202 1_554 S
Cd102 O101 2.202 1_556 S
Cd102 O104 2.407 1_556 S
Cd102 O105 2.333 . S
Cd102 O106 2.380 . S
Cd102 O110 2.255 1_556 S
Cd102 O111 2.375 . S
C103 O108 1.209 . S
C103 O110 1.226 . S
O104 Cd100 2.273 . S
O104 Cd102 2.407 1_554 S
O104 C107 1.320 . S
O105 Cd102 2.333 . S
O105 C107 1.210 1_556 S
O106 Cd102 2.380 . S
O106 C109 1.258 . S
C107 O104 1.320 . S
C107 O105 1.210 1_554 S
O108 Cd100 2.277 . S
O108 C103 1.209 . S
C109 O106 1.258 . S
C109 O111 1.282 . S
O110 Cd102 2.255 1_554 S
O110 C103 1.226 . S
O111 Cd102 2.375 . S
O111 C109 1.282 . S
C112 O113 1.306 . S
C112 O115 1.160 1_556 S
O113 C112 1.306 . S
O113 Cd114 2.228 . S
Cd114 O113 2.228 . S
Cd114 O118 2.273 1_556 S
Cd114 O122 2.277 . S
O115 C112 1.160 1_554 S
O115 Cd116 2.203 . S
Cd116 O115 2.203 . S
Cd116 O118 2.411 . S
Cd116 O119 2.333 . S
Cd116 O120 2.352 . S
Cd116 O124 2.277 1_554 S
Cd116 O125 2.356 . S
C117 O122 1.209 . S
C117 O124 1.226 . S
O118 Cd114 2.273 1_554 S
O118 Cd116 2.411 . S
O118 C121 1.320 . S
O119 Cd116 2.333 . S
O119 C121 1.214 . S
O120 Cd116 2.352 . S
O120 C123 1.258 . S
C121 O118 1.320 . S
C121 O119 1.214 . S
O122 Cd114 2.277 . S
O122 C117 1.209 . S
C123 O120 1.258 . S
C123 O125 1.282 . S
O124 Cd116 2.277 1_556 S
O124 C117 1.226 . S
O125 Cd116 2.356 . S
O125 C123 1.282 . S
C126 O127 1.306 . S
C126 O129 1.160 . S
O127 C126 1.306 . S
O127 Cd128 2.228 . S
Cd128 O127 2.228 . S
Cd128 O132 2.273 . S
Cd128 O136 2.277 . S
O129 C126 1.160 . S
O129 Cd130 2.203 . S
Cd130 O129 2.203 . S
Cd130 O132 2.411 . S
Cd130 O133 2.333 . S
Cd130 O134 2.352 . S
Cd130 O138 2.277 . S
Cd130 O139 2.356 . S
C131 O136 1.209 . S
C131 O138 1.226 . S
O132 Cd128 2.273 . S
O132 Cd130 2.411 . S
O132 C135 1.320 . S
O133 Cd130 2.333 . S
O133 C135 1.214 . S
O134 Cd130 2.352 . S
O134 C137 1.258 . S
C135 O132 1.320 . S
C135 O133 1.214 . S
O136 Cd128 2.277 . S
O136 C131 1.209 . S
C137 O134 1.258 . S
C137 O139 1.282 . S
O138 Cd130 2.277 . S
O138 C131 1.226 . S
O139 Cd130 2.356 . S
O139 C137 1.282 . S
C140 O141 1.306 . S
C140 O143 1.160 . S
O141 C140 1.306 . S
O141 Cd142 2.228 . S
Cd142 O141 2.228 . S
Cd142 O146 2.273 . S
Cd142 O150 2.277 . S
O143 C140 1.160 . S
O143 Cd144 2.203 . S
Cd144 O143 2.203 . S
Cd144 O146 2.411 . S
Cd144 O147 2.333 . S
Cd144 O148 2.352 . S
Cd144 O152 2.277 . S
Cd144 O153 2.356 . S
C145 O150 1.209 . S
C145 O152 1.226 . S
O146 Cd142 2.273 . S
O146 Cd144 2.411 . S
O146 C149 1.320 . S
O147 Cd144 2.333 . S
O147 C149 1.214 . S
O148 Cd144 2.352 . S
O148 C151 1.258 . S
C149 O146 1.320 . S
C149 O147 1.214 . S
O150 Cd142 2.277 . S
O150 C145 1.209 . S
C151 O148 1.258 . S
C151 O153 1.282 . S
O152 Cd144 2.277 . S
O152 C145 1.226 . S
O153 Cd144 2.356 . S
O153 C151 1.282 . S
C154 O155 1.306 . S
C154 O157 1.160 . S
O155 C154 1.306 . S
O155 Cd156 2.228 . S
Cd156 O155 2.228 . S
Cd156 O160 2.273 . S
Cd156 O164 2.277 . S
O157 C154 1.160 . S
O157 Cd158 2.203 . S
Cd158 O157 2.203 . S
Cd158 O160 2.411 . S
Cd158 O161 2.333 . S
Cd158 O162 2.352 . S
Cd158 O166 2.277 . S
Cd158 O167 2.356 . S
C159 O164 1.209 . S
C159 O166 1.226 . S
O160 Cd156 2.273 . S
O160 Cd158 2.411 . S
O160 C163 1.320 . S
O161 Cd158 2.333 . S
O161 C163 1.214 . S
O162 Cd158 2.352 . S
O162 C165 1.258 . S
C163 O160 1.320 . S
C163 O161 1.214 . S
O164 Cd156 2.277 . S
O164 C159 1.209 . S
C165 O162 1.258 . S
C165 O167 1.282 . S
O166 Cd158 2.277 . S
O166 C159 1.226 . S
O167 Cd158 2.356 . S
O167 C165 1.282 . S
C168 O169 1.306 . S
C168 O171 1.160 . S
O169 C168 1.306 . S
O169 Cd170 2.228 1_655 S
Cd170 O169 2.228 1_455 S
Cd170 O174 2.273 . S
Cd170 O178 2.277 . S
O171 C168 1.160 . S
O171 Cd172 2.203 1_655 S
Cd172 O171 2.203 1_455 S
Cd172 O174 2.411 . S
Cd172 O175 2.333 . S
Cd172 O176 2.352 . S
Cd172 O180 2.277 . S
Cd172 O181 2.356 . S
C173 O178 1.209 . S
C173 O180 1.226 . S
O174 Cd170 2.273 . S
O174 Cd172 2.411 . S
O174 C177 1.320 . S
O175 Cd172 2.333 . S
O175 C177 1.214 . S
O176 Cd172 2.352 . S
O176 C179 1.258 . S
C177 O174 1.320 . S
C177 O175 1.214 . S
O178 Cd170 2.277 . S
O178 C173 1.209 . S
C179 O176 1.258 . S
C179 O181 1.282 . S
O180 Cd172 2.277 . S
O180 C173 1.226 . S
O181 Cd172 2.356 . S
O181 C179 1.282 . S
C182 O183 1.306 . S
C182 O185 1.160 . S
O183 C182 1.306 . S
O183 Cd184 2.228 1_655 S
Cd184 O183 2.228 1_455 S
Cd184 O188 2.273 . S
Cd184 O192 2.277 . S
O185 C182 1.160 . S
O185 Cd186 2.203 1_655 S
Cd186 O185 2.203 1_455 S
Cd186 O188 2.411 . S
Cd186 O189 2.333 . S
Cd186 O190 2.352 . S
Cd186 O194 2.277 . S
Cd186 O195 2.356 . S
C187 O192 1.209 . S
C187 O194 1.226 . S
O188 Cd184 2.273 . S
O188 Cd186 2.411 . S
O188 C191 1.320 . S
O189 Cd186 2.333 . S
O189 C191 1.214 . S
O190 Cd186 2.352 . S
O190 C193 1.258 . S
C191 O188 1.320 . S
C191 O189 1.214 . S
O192 Cd184 2.277 . S
O192 C187 1.209 . S
C193 O190 1.258 . S
C193 O195 1.282 . S
O194 Cd186 2.277 . S
O194 C187 1.226 . S
O195 Cd186 2.356 . S
O195 C193 1.282 . S
C196 O197 1.306 . S
C196 O199 1.160 . S
O197 C196 1.306 . S
O197 Cd198 2.228 . S
Cd198 O197 2.228 . S
Cd198 O202 2.273 . S
Cd198 O206 2.277 . S
O199 C196 1.160 . S
O199 Cd200 2.203 . S
Cd200 O199 2.203 . S
Cd200 O202 2.411 . S
Cd200 O203 2.333 . S
Cd200 O204 2.352 . S
Cd200 O208 2.277 . S
Cd200 O209 2.356 . S
C201 O206 1.209 . S
C201 O208 1.226 . S
O202 Cd198 2.273 . S
O202 Cd200 2.411 . S
O202 C205 1.320 . S
O203 Cd200 2.333 . S
O203 C205 1.214 . S
O204 Cd200 2.352 . S
O204 C207 1.258 . S
C205 O202 1.320 . S
C205 O203 1.214 . S
O206 Cd198 2.277 . S
O206 C201 1.209 . S
C207 O204 1.258 . S
C207 O209 1.282 . S
O208 Cd200 2.277 . S
O208 C201 1.226 . S
O209 Cd200 2.356 . S
O209 C207 1.282 . S
C210 O211 1.306 . S
C210 O213 1.160 . S
O211 C210 1.306 . S
O211 Cd212 2.228 . S
Cd212 O211 2.228 . S
Cd212 O216 2.273 . S
Cd212 O220 2.277 . S
O213 C210 1.160 . S
O213 Cd214 2.203 . S
Cd214 O213 2.203 . S
Cd214 O216 2.411 . S
Cd214 O217 2.333 . S
Cd214 O218 2.352 . S
Cd214 O222 2.277 . S
Cd214 O223 2.356 . S
C215 O220 1.209 . S
C215 O222 1.226 . S
O216 Cd212 2.273 . S
O216 Cd214 2.411 . S
O216 C219 1.320 . S
O217 Cd214 2.333 . S
O217 C219 1.214 . S
O218 Cd214 2.352 . S
O218 C221 1.258 . S
C219 O216 1.320 . S
C219 O217 1.214 . S
O220 Cd212 2.277 . S
O220 C215 1.209 . S
C221 O218 1.258 . S
C221 O223 1.282 . S
O222 Cd214 2.277 . S
O222 C215 1.226 . S
O223 Cd214 2.356 . S
O223 C221 1.282 . S
C224 O225 1.306 . S
C224 O227 1.160 1_565 S
O225 C224 1.306 . S
O225 Cd226 2.228 . S
Cd226 O225 2.228 . S
Cd226 O230 2.273 . S
Cd226 O234 2.277 . S
O227 C224 1.160 1_545 S
O227 Cd228 2.203 . S
Cd228 O227 2.203 . S
Cd228 O230 2.411 1_545 S
Cd228 O231 2.333 . S
Cd228 O232 2.352 . S
Cd228 O236 2.277 1_545 S
Cd228 O237 2.356 . S
C229 O234 1.209 . S
C229 O236 1.226 . S
O230 Cd226 2.273 . S
O230 Cd228 2.411 1_565 S
O230 C233 1.320 1_565 S
O231 Cd228 2.333 . S
O231 C233 1.214 . S
O232 Cd228 2.352 . S
O232 C235 1.258 . S
C233 O230 1.320 1_545 S
C233 O231 1.214 . S
O234 Cd226 2.277 . S
O234 C229 1.209 . S
C235 O232 1.258 . S
C235 O237 1.282 . S
O236 Cd228 2.277 1_565 S
O236 C229 1.226 . S
O237 Cd228 2.356 . S
O237 C235 1.282 . S
C238 O239 1.306 . S
C238 O241 1.160 . S
O239 C238 1.306 . S
O239 Cd240 2.228 . S
Cd240 O239 2.228 . S
Cd240 O244 2.273 . S
Cd240 O248 2.277 . S
O241 C238 1.160 . S
O241 Cd242 2.203 . S
Cd242 O241 2.203 . S
Cd242 O244 2.411 . S
Cd242 O245 2.333 . S
Cd242 O246 2.352 . S
Cd242 O250 2.277 . S
Cd242 O251 2.356 . S
C243 O248 1.209 . S
C243 O250 1.226 . S
O244 Cd240 2.273 . S
O244 Cd242 2.411 . S
O244 C247 1.320 . S
O245 Cd242 2.333 . S
O245 C247 1.214 . S
O246 Cd242 2.352 . S
O246 C249 1.258 . S
C247 O244 1.320 . S
C247 O245 1.214 . S
O248 Cd240 2.277 . S
O248 C243 1.209 . S
C249 O246 1.258 . S
C249 O251 1.282 . S
O250 Cd242 2.277 . S
O250 C243 1.226 . S
O251 Cd242 2.356 . S
O251 C249 1.282 . S
C252 O253 1.306 . S
C252 O255 1.160 . S
O253 C252 1.306 . S
O253 Cd254 2.228 . S
Cd254 O253 2.228 . S
Cd254 O258 2.273 . S
Cd254 O262 2.277 . S
O255 C252 1.160 . S
O255 Cd256 2.203 1_545 S
Cd256 O255 2.203 1_565 S
Cd256 O258 2.411 1_565 S
Cd256 O259 2.333 . S
Cd256 O260 2.352 . S
Cd256 O264 2.277 1_565 S
Cd256 O265 2.356 . S
C257 O262 1.209 . S
C257 O264 1.226 . S
O258 Cd254 2.273 . S
O258 Cd256 2.411 1_545 S
O258 C261 1.320 . S
O259 Cd256 2.333 . S
O259 C261 1.214 1_565 S
O260 Cd256 2.352 . S
O260 C263 1.258 . S
C261 O258 1.320 . S
C261 O259 1.214 1_545 S
O262 Cd254 2.277 . S
O262 C257 1.209 . S
C263 O260 1.258 . S
C263 O265 1.282 . S
O264 Cd256 2.277 1_545 S
O264 C257 1.226 . S
O265 Cd256 2.356 . S
O265 C263 1.282 . S
C266 O267 1.306 1_554 S
C266 O269 1.160 . S
O267 C266 1.306 1_556 S
O267 Cd268 2.228 . S
Cd268 O267 2.228 . S
Cd268 O272 2.273 1_556 S
Cd268 O276 2.277 . S
O269 C266 1.160 . S
O269 Cd270 2.203 . S
Cd270 O269 2.203 . S
Cd270 O272 2.411 . S
Cd270 O273 2.333 . S
Cd270 O274 2.352 . S
Cd270 O278 2.277 1_554 S
Cd270 O279 2.356 . S
C271 O276 1.209 . S
C271 O278 1.226 . S
O272 Cd268 2.273 1_554 S
O272 Cd270 2.411 . S
O272 C275 1.320 . S
O273 Cd270 2.333 . S
O273 C275 1.214 . S
O274 Cd270 2.352 . S
O274 C277 1.258 . S
C275 O272 1.320 . S
C275 O273 1.214 . S
O276 Cd268 2.277 . S
O276 C271 1.209 . S
C277 O274 1.258 . S
C277 O279 1.282 . S
O278 Cd270 2.277 1_556 S
O278 C271 1.226 . S
O279 Cd270 2.356 . S
O279 C277 1.282 . S
C280 O281 1.306 . S
C280 O283 1.160 1_554 S
O281 C280 1.306 . S
O281 Cd282 2.228 . S
Cd282 O281 2.228 . S
Cd282 O286 2.273 . S
Cd282 O290 2.277 . S
O283 C280 1.160 1_556 S
O283 Cd284 2.203 . S
Cd284 O283 2.203 . S
Cd284 O286 2.411 1_556 S
Cd284 O287 2.333 . S
Cd284 O288 2.352 . S
Cd284 O292 2.277 1_556 S
Cd284 O293 2.356 . S
C285 O290 1.209 . S
C285 O292 1.226 . S
O286 Cd282 2.273 . S
O286 Cd284 2.411 1_554 S
O286 C289 1.318 1_554 S
O287 Cd284 2.333 . S
O287 C289 1.218 . S
O288 Cd284 2.352 . S
O288 C291 1.258 . S
C289 O286 1.318 1_556 S
C289 O287 1.218 . S
O290 Cd282 2.277 . S
O290 C285 1.209 . S
C291 O288 1.258 . S
C291 O293 1.282 . S
O292 Cd284 2.277 1_554 S
O292 C285 1.226 . S
O293 Cd284 2.356 . S
O293 C291 1.282 . S
C294 O295 1.306 . S
C294 O297 1.160 . S
O295 C294 1.306 . S
O295 Cd296 2.228 . S
Cd296 O295 2.228 . S
Cd296 O300 2.273 . S
Cd296 O304 2.277 . S
O297 C294 1.160 . S
O297 Cd298 2.203 . S
Cd298 O297 2.203 . S
Cd298 O300 2.411 . S
Cd298 O301 2.333 . S
Cd298 O302 2.352 . S
Cd298 O306 2.277 . S
Cd298 O307 2.356 . S
C299 O304 1.209 . S
C299 O306 1.226 . S
O300 Cd296 2.273 . S
O300 Cd298 2.411 . S
O300 C303 1.320 . S
O301 Cd298 2.333 . S
O301 C303 1.214 . S
O302 Cd298 2.352 . S
O302 C305 1.258 . S
C303 O300 1.320 . S
C303 O301 1.214 . S
O304 Cd296 2.277 . S
O304 C299 1.209 . S
C305 O302 1.258 . S
C305 O307 1.282 . S
O306 Cd298 2.277 . S
O306 C299 1.226 . S
O307 Cd298 2.356 . S
O307 C305 1.282 . S
C308 O309 1.306 . S
C308 O311 1.160 . S
O309 C308 1.306 . S
O309 Cd310 2.228 . S
Cd310 O309 2.228 . S
Cd310 O314 2.273 . S
Cd310 O318 2.277 . S
O311 C308 1.160 . S
O311 Cd312 2.203 . S
Cd312 O311 2.203 . S
Cd312 O314 2.411 . S
Cd312 O315 2.333 . S
Cd312 O316 2.352 . S
Cd312 O320 2.277 . S
Cd312 O321 2.356 . S
C313 O318 1.209 . S
C313 O320 1.226 . S
O314 Cd310 2.273 . S
O314 Cd312 2.411 . S
O314 C317 1.320 . S
O315 Cd312 2.333 . S
O315 C317 1.214 . S
O316 Cd312 2.352 . S
O316 C319 1.258 . S
C317 O314 1.320 . S
C317 O315 1.214 . S
O318 Cd310 2.277 . S
O318 C313 1.209 . S
C319 O316 1.258 . S
C319 O321 1.282 . S
O320 Cd312 2.277 . S
O320 C313 1.226 . S
O321 Cd312 2.356 . S
O321 C319 1.282 . S
C322 O323 1.306 . S
C322 O325 1.160 . S
O323 C322 1.306 . S
O323 Cd324 2.228 . S
Cd324 O323 2.228 . S
Cd324 O328 2.273 . S
Cd324 O332 2.277 . S
O325 C322 1.160 . S
O325 Cd326 2.203 . S
Cd326 O325 2.203 . S
Cd326 O328 2.411 . S
Cd326 O329 2.333 . S
Cd326 O330 2.352 . S
Cd326 O334 2.277 . S
Cd326 O335 2.356 . S
C327 O332 1.209 . S
C327 O334 1.226 . S
O328 Cd324 2.273 . S
O328 Cd326 2.411 . S
O328 C331 1.320 . S
O329 Cd326 2.333 . S
O329 C331 1.214 . S
O330 Cd326 2.352 . S
O330 C333 1.258 . S
C331 O328 1.320 . S
C331 O329 1.214 . S
O332 Cd324 2.277 . S
O332 C327 1.209 . S
C333 O330 1.258 . S
C333 O335 1.282 . S
O334 Cd326 2.277 . S
O334 C327 1.226 . S
O335 Cd326 2.356 . S
O335 C333 1.282 . S
O336 Mg337 1.990 . S
O336 C350 1.253 . S
Mg337 O336 1.990 . S
Mg337 O340 2.180 1_556 S
Mg337 O341 2.117 1_556 S
Mg337 O355 2.030 . S
O338 Mg339 2.072 1_656 S
O338 C350 1.260 . S
Mg339 O338 2.072 1_454 S
Mg339 O340 2.099 1_455 S
Mg339 O342 2.079 1_545 S
Mg339 O343 2.068 1_554 S
Mg339 O345 2.099 1_544 S
Mg339 O356 2.079 1_445 S
O340 Mg337 2.180 1_554 S
O340 Mg339 2.099 1_655 S
O340 C351 1.279 . S
O341 Mg337 2.117 1_554 S
O341 C351 1.250 . S
O342 Mg339 2.079 1_565 S
O342 C352 1.264 . S
O343 Mg339 2.068 1_556 S
O343 C353 1.263 . S
Mg344 O345 2.180 1_554 S
Mg344 O346 2.030 . S
Mg344 O347 1.990 1_554 S
Mg344 O348 2.117 1_554 S
O345 Mg339 2.099 1_566 S
O345 Mg344 2.180 1_556 S
O345 C354 1.279 . S
O346 Mg344 2.030 . S
O346 C352 1.248 . S
O347 Mg344 1.990 1_556 S
O347 C353 1.253 1_565 S
O348 Mg344 2.117 1_556 S
O348 C354 1.250 . S
C349 O355 1.248 1_564 S
C349 O356 1.264 . S
C350 O336 1.253 . S
C350 O338 1.260 . S
C351 O340 1.279 . S
C351 O341 1.250 . S
C352 O342 1.264 . S
C352 O346 1.248 . S
C353 O343 1.263 . S
C353 O347 1.253 1_545 S
C354 O345 1.279 . S
C354 O348 1.250 . S
O355 Mg337 2.030 . S
O355 C349 1.248 1_546 S
O356 Mg339 2.079 1_665 S
O356 C349 1.264 . S
O357 Mg358 1.990 . S
O357 C371 1.253 . S
Mg358 O357 1.990 . S
Mg358 O361 2.180 . S
Mg358 O362 2.117 . S
Mg358 O376 2.030 . S
O359 Mg360 2.072 . S
O359 C371 1.260 . S
Mg360 O359 2.072 . S
Mg360 O361 2.099 . S
Mg360 O363 2.079 . S
Mg360 O364 2.072 . S
Mg360 O366 2.099 . S
Mg360 O377 2.079 . S
O361 Mg358 2.180 . S
O361 Mg360 2.099 . S
O361 C372 1.279 . S
O362 Mg358 2.117 . S
O362 C372 1.250 . S
O363 Mg360 2.079 . S
O363 C373 1.264 . S
O364 Mg360 2.072 . S
O364 C374 1.260 . S
Mg365 O366 2.180 . S
Mg365 O367 2.030 . S
Mg365 O368 1.990 . S
Mg365 O369 2.117 . S
O366 Mg360 2.099 . S
O366 Mg365 2.180 . S
O366 C375 1.279 . S
O367 Mg365 2.030 . S
O367 C373 1.248 . S
O368 Mg365 1.990 . S
O368 C374 1.253 . S
O369 Mg365 2.117 . S
O369 C375 1.250 . S
C370 O376 1.248 . S
C370 O377 1.264 . S
C371 O357 1.253 . S
C371 O359 1.260 . S
C372 O361 1.279 . S
C372 O362 1.250 . S
C373 O363 1.264 . S
C373 O367 1.248 . S
C374 O364 1.260 . S
C374 O368 1.253 . S
C375 O366 1.279 . S
C375 O369 1.250 . S
O376 Mg358 2.030 . S
O376 C370 1.248 . S
O377 Mg360 2.079 . S
O377 C370 1.264 . S
O378 Mg379 1.990 . S
O378 C392 1.253 . S
Mg379 O378 1.990 . S
Mg379 O382 2.180 . S
Mg379 O383 2.117 . S
Mg379 O397 2.030 1_565 S
O380 Mg381 2.072 . S
O380 C392 1.260 1_545 S
Mg381 O380 2.072 . S
Mg381 O382 2.099 1_545 S
Mg381 O384 2.079 . S
Mg381 O385 2.072 1_545 S
Mg381 O387 2.099 . S
Mg381 O398 2.079 . S
O382 Mg379 2.180 . S
O382 Mg381 2.099 1_565 S
O382 C393 1.279 . S
O383 Mg379 2.117 . S
O383 C393 1.250 . S
O384 Mg381 2.079 . S
O384 C394 1.264 . S
O385 Mg381 2.072 1_565 S
O385 C395 1.260 . S
Mg386 O387 2.180 . S
Mg386 O388 2.030 . S
Mg386 O389 1.990 . S
Mg386 O390 2.117 . S
O387 Mg381 2.099 . S
O387 Mg386 2.180 . S
O387 C396 1.279 . S
O388 Mg386 2.030 . S
O388 C394 1.248 . S
O389 Mg386 1.990 . S
O389 C395 1.253 1_545 S
O390 Mg386 2.117 . S
O390 C396 1.250 . S
C391 O397 1.248 . S
C391 O398 1.264 . S
C392 O378 1.253 . S
C392 O380 1.260 1_565 S
C393 O382 1.279 . S
C393 O383 1.250 . S
C394 O384 1.264 . S
C394 O388 1.248 . S
C395 O385 1.260 . S
C395 O389 1.253 1_565 S
C396 O387 1.279 . S
C396 O390 1.250 . S
O397 Mg379 2.030 1_545 S
O397 C391 1.248 . S
O398 Mg381 2.079 . S
O398 C391 1.264 . S
O399 Mg400 1.990 . S
O399 C413 1.253 . S
Mg400 O399 1.990 . S
Mg400 O403 2.180 . S
Mg400 O404 2.117 . S
Mg400 O418 2.030 . S
O401 Mg402 2.072 . S
O401 C413 1.260 . S
Mg402 O401 2.072 . S
Mg402 O403 2.099 . S
Mg402 O405 2.079 . S
Mg402 O406 2.072 . S
Mg402 O408 2.099 . S
Mg402 O419 2.079 . S
O403 Mg400 2.180 . S
O403 Mg402 2.099 . S
O403 C414 1.279 . S
O404 Mg400 2.117 . S
O404 C414 1.250 . S
O405 Mg402 2.079 . S
O405 C415 1.264 . S
O406 Mg402 2.072 . S
O406 C416 1.260 . S
Mg407 O408 2.180 . S
Mg407 O409 2.030 . S
Mg407 O410 1.990 . S
Mg407 O411 2.117 . S
O408 Mg402 2.099 . S
O408 Mg407 2.180 . S
O408 C417 1.279 . S
O409 Mg407 2.030 . S
O409 C415 1.248 . S
O410 Mg407 1.990 . S
O410 C416 1.253 . S
O411 Mg407 2.117 . S
O411 C417 1.250 . S
C412 O418 1.248 . S
C412 O419 1.264 . S
C413 O399 1.253 . S
C413 O401 1.260 . S
C414 O403 1.279 . S
C414 O404 1.250 . S
C415 O405 1.264 . S
C415 O409 1.248 . S
C416 O406 1.260 . S
C416 O410 1.253 . S
C417 O408 1.279 . S
C417 O411 1.250 . S
O418 Mg400 2.030 . S
O418 C412 1.248 . S
O419 Mg402 2.079 . S
O419 C412 1.264 . S
O420 Mg421 1.990 1_655 S
O420 C434 1.253 . S
Mg421 O420 1.990 1_455 S
Mg421 O424 2.180 1_455 S
Mg421 O425 2.117 1_455 S
Mg421 O439 2.030 . S
O422 Mg423 2.072 1_565 S
O422 C434 1.260 1_455 S
Mg423 O422 2.072 1_545 S
Mg423 O424 2.099 1_445 S
Mg423 O426 2.079 . S
Mg423 O427 2.072 1_455 S
Mg423 O429 2.099 . S
Mg423 O440 2.079 1_545 S
O424 Mg421 2.180 1_655 S
O424 Mg423 2.099 1_665 S
O424 C435 1.280 . S
O425 Mg421 2.117 1_655 S
O425 C435 1.250 . S
O426 Mg423 2.079 . S
O426 C436 1.264 . S
O427 Mg423 2.072 1_655 S
O427 C437 1.260 . S
Mg428 O429 2.180 1_655 S
Mg428 O430 2.030 1_655 S
Mg428 O431 1.990 . S
Mg428 O432 2.117 1_655 S
O429 Mg423 2.099 . S
O429 Mg428 2.180 1_455 S
O429 C438 1.279 . S
O430 Mg428 2.030 1_455 S
O430 C436 1.248 . S
O431 Mg428 1.990 . S
O431 C437 1.253 . S
O432 Mg428 2.117 1_455 S
O432 C438 1.250 . S
C433 O439 1.248 . S
C433 O440 1.264 . S
C434 O420 1.253 . S
C434 O422 1.260 1_655 S
C435 O424 1.280 . S
C435 O425 1.250 . S
C436 O426 1.264 . S
C436 O430 1.248 . S
C437 O427 1.260 . S
C437 O431 1.253 . S
C438 O429 1.279 . S
C438 O432 1.250 . S
O439 Mg421 2.030 . S
O439 C433 1.248 . S
O440 Mg423 2.079 1_565 S
O440 C433 1.264 . S
O441 Mg442 1.990 . S
O441 C455 1.253 . S
Mg442 O441 1.990 . S
Mg442 O445 2.180 . S
Mg442 O446 2.117 . S
Mg442 O460 2.030 . S
O443 Mg444 2.072 . S
O443 C455 1.260 . S
Mg444 O443 2.072 . S
Mg444 O445 2.099 . S
Mg444 O447 2.079 . S
Mg444 O448 2.072 . S
Mg444 O450 2.099 . S
Mg444 O461 2.079 . S
O445 Mg442 2.180 . S
O445 Mg444 2.099 . S
O445 C456 1.279 . S
O446 Mg442 2.117 . S
O446 C456 1.250 . S
O447 Mg444 2.079 . S
O447 C457 1.264 . S
O448 Mg444 2.072 . S
O448 C458 1.260 . S
Mg449 O450 2.180 . S
Mg449 O451 2.030 . S
Mg449 O452 1.990 . S
Mg449 O453 2.117 . S
O450 Mg444 2.099 . S
O450 Mg449 2.180 . S
O450 C459 1.279 . S
O451 Mg449 2.030 . S
O451 C457 1.248 . S
O452 Mg449 1.990 . S
O452 C458 1.253 . S
O453 Mg449 2.117 . S
O453 C459 1.250 . S
C454 O460 1.248 . S
C454 O461 1.264 . S
C455 O441 1.253 . S
C455 O443 1.260 . S
C456 O445 1.279 . S
C456 O446 1.250 . S
C457 O447 1.264 . S
C457 O451 1.248 . S
C458 O448 1.260 . S
C458 O452 1.253 . S
C459 O450 1.279 . S
C459 O453 1.250 . S
O460 Mg442 2.030 . S
O460 C454 1.248 . S
O461 Mg444 2.079 . S
O461 C454 1.264 . S
O462 Mg463 1.990 . S
O462 C476 1.253 . S
Mg463 O462 1.990 . S
Mg463 O466 2.180 1_565 S
Mg463 O467 2.117 1_565 S
Mg463 O481 2.030 . S
O464 Mg465 2.072 1_565 S
O464 C476 1.260 . S
Mg465 O464 2.072 1_545 S
Mg465 O466 2.099 . S
Mg465 O468 2.079 1_554 S
Mg465 O469 2.072 1_544 S
Mg465 O471 2.099 1_544 S
Mg465 O482 2.079 . S
O466 Mg463 2.180 1_545 S
O466 Mg465 2.099 . S
O466 C477 1.279 . S
O467 Mg463 2.117 1_545 S
O467 C477 1.250 . S
O468 Mg465 2.079 1_556 S
O468 C478 1.264 . S
O469 Mg465 2.072 1_566 S
O469 C479 1.260 . S
Mg470 O471 2.180 1_545 S
Mg470 O472 2.030 . S
Mg470 O473 1.990 1_545 S
Mg470 O474 2.117 1_545 S
O471 Mg465 2.099 1_566 S
O471 Mg470 2.180 1_565 S
O471 C480 1.279 . S
O472 Mg470 2.030 . S
O472 C478 1.248 . S
O473 Mg470 1.990 1_565 S
O473 C479 1.253 . S
O474 Mg470 2.117 1_565 S
O474 C480 1.250 . S
C475 O481 1.248 1_545 S
C475 O482 1.264 . S
C476 O462 1.253 . S
C476 O464 1.260 . S
C477 O466 1.279 . S
C477 O467 1.250 . S
C478 O468 1.264 . S
C478 O472 1.248 . S
C479 O469 1.260 . S
C479 O473 1.253 . S
C480 O471 1.279 . S
C480 O474 1.250 . S
O481 Mg463 2.030 . S
O481 C475 1.248 1_565 S
O482 Mg465 2.079 . S
O482 C475 1.264 . S
O483 Mg484 1.990 . S
O483 C497 1.253 . S
Mg484 O483 1.990 . S
Mg484 O487 2.180 . S
Mg484 O488 2.117 . S
Mg484 O502 2.030 . S
O485 Mg486 2.072 . S
O485 C497 1.260 . S
Mg486 O485 2.072 . S
Mg486 O487 2.099 . S
Mg486 O489 2.079 . S
Mg486 O490 2.072 . S
Mg486 O492 2.099 . S
Mg486 O503 2.079 . S
O487 Mg484 2.180 . S
O487 Mg486 2.099 . S
O487 C498 1.279 . S
O488 Mg484 2.117 . S
O488 C498 1.250 . S
O489 Mg486 2.079 . S
O489 C499 1.264 . S
O490 Mg486 2.072 . S
O490 C500 1.260 . S
Mg491 O492 2.180 . S
Mg491 O493 2.030 . S
Mg491 O494 1.990 . S
Mg491 O495 2.117 . S
O492 Mg486 2.099 . S
O492 Mg491 2.180 . S
O492 C501 1.279 . S
O493 Mg491 2.030 . S
O493 C499 1.248 . S
O494 Mg491 1.990 . S
O494 C500 1.253 . S
O495 Mg491 2.117 . S
O495 C501 1.250 . S
C496 O502 1.248 . S
C496 O503 1.264 . S
C497 O483 1.253 . S
C497 O485 1.260 . S
C498 O487 1.279 . S
C498 O488 1.250 . S
C499 O489 1.264 . S
C499 O493 1.248 . S
C500 O490 1.260 . S
C500 O494 1.253 . S
C501 O492 1.279 . S
C501 O495 1.250 . S
O502 Mg484 2.030 . S
O502 C496 1.248 . S
O503 Mg486 2.079 . S
O503 C496 1.264 . S
O504 Mg505 1.990 . S
O504 C518 1.253 . S
Mg505 O504 1.990 . S
Mg505 O508 2.180 . S
Mg505 O509 2.117 . S
Mg505 O523 2.030 1_556 S
O506 Mg507 2.072 . S
O506 C518 1.260 1_554 S
Mg507 O506 2.072 . S
Mg507 O508 2.099 1_554 S
Mg507 O510 2.079 . S
Mg507 O511 2.072 1_554 S
Mg507 O513 2.099 . S
Mg507 O524 2.079 . S
O508 Mg505 2.180 . S
O508 Mg507 2.099 1_556 S
O508 C519 1.279 . S
O509 Mg505 2.117 . S
O509 C519 1.250 . S
O510 Mg507 2.079 . S
O510 C520 1.264 . S
O511 Mg507 2.072 1_556 S
O511 C521 1.260 . S
Mg512 O513 2.180 . S
Mg512 O514 2.030 . S
Mg512 O515 1.990 . S
Mg512 O516 2.117 . S
O513 Mg507 2.099 . S
O513 Mg512 2.180 . S
O513 C522 1.279 . S
O514 Mg512 2.030 . S
O514 C520 1.248 . S
O515 Mg512 1.990 . S
O515 C521 1.253 1_554 S
O516 Mg512 2.117 . S
O516 C522 1.250 . S
C517 O523 1.248 . S
C517 O524 1.264 . S
C518 O504 1.253 . S
C518 O506 1.260 1_556 S
C519 O508 1.279 . S
C519 O509 1.250 . S
C520 O510 1.264 . S
C520 O514 1.248 . S
C521 O511 1.260 . S
C521 O515 1.253 1_556 S
C522 O513 1.279 . S
C522 O516 1.250 . S
O523 Mg505 2.030 1_554 S
O523 C517 1.248 . S
O524 Mg507 2.079 . S
O524 C517 1.264 . S
O525 Mg526 1.990 . S
O525 C539 1.253 . S
Mg526 O525 1.990 . S
Mg526 O529 2.180 . S
Mg526 O530 2.117 . S
Mg526 O544 2.030 . S
O527 Mg528 2.072 . S
O527 C539 1.260 . S
Mg528 O527 2.072 . S
Mg528 O529 2.099 . S
Mg528 O531 2.079 . S
Mg528 O532 2.072 . S
Mg528 O534 2.099 . S
Mg528 O545 2.079 . S
O529 Mg526 2.180 . S
O529 Mg528 2.099 . S
O529 C540 1.279 . S
O530 Mg526 2.117 . S
O530 C540 1.250 . S
O531 Mg528 2.079 . S
O531 C541 1.264 . S
O532 Mg528 2.072 . S
O532 C542 1.260 . S
Mg533 O534 2.180 . S
Mg533 O535 2.030 . S
Mg533 O536 1.990 . S
Mg533 O537 2.117 . S
O534 Mg528 2.099 . S
O534 Mg533 2.180 . S
O534 C543 1.279 . S
O535 Mg533 2.030 . S
O535 C541 1.248 . S
O536 Mg533 1.990 . S
O536 C542 1.253 . S
O537 Mg533 2.117 . S
O537 C543 1.250 . S
C538 O544 1.248 . S
C538 O545 1.264 . S
C539 O525 1.253 . S
C539 O527 1.260 . S
C540 O529 1.279 . S
C540 O530 1.250 . S
C541 O531 1.264 . S
C541 O535 1.248 . S
C542 O532 1.260 . S
C542 O536 1.253 . S
C543 O534 1.279 . S
C543 O537 1.250 . S
O544 Mg526 2.030 . S
O544 C538 1.248 . S
O545 Mg528 2.079 . S
O545 C538 1.264 . S
O546 Mg547 1.990 . S
O546 C560 1.253 . S
Mg547 O546 1.990 . S
Mg547 O550 2.180 . S
Mg547 O551 2.117 . S
Mg547 O565 2.030 1_655 S
O548 Mg549 2.072 . S
O548 C560 1.260 1_455 S
Mg549 O548 2.072 . S
Mg549 O550 2.099 1_455 S
Mg549 O552 2.079 . S
Mg549 O553 2.072 1_455 S
Mg549 O555 2.099 . S
Mg549 O566 2.079 . S
O550 Mg547 2.180 . S
O550 Mg549 2.099 1_655 S
O550 C561 1.279 . S
O551 Mg547 2.117 . S
O551 C561 1.250 . S
O552 Mg549 2.079 . S
O552 C562 1.264 . S
O553 Mg549 2.072 1_655 S
O553 C563 1.260 . S
Mg554 O555 2.180 . S
Mg554 O556 2.030 . S
Mg554 O557 1.990 . S
Mg554 O558 2.117 . S
O555 Mg549 2.099 . S
O555 Mg554 2.180 . S
O555 C564 1.279 . S
O556 Mg554 2.030 . S
O556 C562 1.248 . S
O557 Mg554 1.990 . S
O557 C563 1.253 1_455 S
O558 Mg554 2.117 . S
O558 C564 1.250 . S
C559 O565 1.248 . S
C559 O566 1.264 . S
C560 O546 1.253 . S
C560 O548 1.260 1_655 S
C561 O550 1.279 . S
C561 O551 1.250 . S
C562 O552 1.264 . S
C562 O556 1.248 . S
C563 O553 1.260 . S
C563 O557 1.253 1_655 S
C564 O555 1.279 . S
C564 O558 1.250 . S
O565 Mg547 2.030 1_455 S
O565 C559 1.248 . S
O566 Mg549 2.079 . S
O566 C559 1.264 . S
O567 Mg568 1.990 . S
O567 C581 1.253 . S
Mg568 O567 1.990 . S
Mg568 O571 2.180 . S
Mg568 O572 2.117 . S
Mg568 O586 2.030 . S
O569 Mg570 2.072 . S
O569 C581 1.260 . S
Mg570 O569 2.072 . S
Mg570 O571 2.099 . S
Mg570 O573 2.079 . S
Mg570 O574 2.072 . S
Mg570 O576 2.099 . S
Mg570 O587 2.079 . S
O571 Mg568 2.180 . S
O571 Mg570 2.099 . S
O571 C582 1.279 . S
O572 Mg568 2.117 . S
O572 C582 1.250 . S
O573 Mg570 2.079 . S
O573 C583 1.264 . S
O574 Mg570 2.072 . S
O574 C584 1.260 . S
Mg575 O576 2.180 . S
Mg575 O577 2.030 . S
Mg575 O578 1.990 . S
Mg575 O579 2.117 . S
O576 Mg570 2.099 . S
O576 Mg575 2.180 . S
O576 C585 1.279 . S
O577 Mg575 2.030 . S
O577 C583 1.248 . S
O578 Mg575 1.990 . S
O578 C584 1.253 . S
O579 Mg575 2.117 . S
O579 C585 1.250 . S
C580 O586 1.248 . S
C580 O587 1.264 . S
C581 O567 1.253 . S
C581 O569 1.260 . S
C582 O571 1.279 . S
C582 O572 1.250 . S
C583 O573 1.264 . S
C583 O577 1.248 . S
C584 O574 1.260 . S
C584 O578 1.253 . S
C585 O576 1.279 . S
C585 O579 1.250 . S
O586 Mg568 2.030 . S
O586 C580 1.248 . S
O587 Mg570 2.079 . S
O587 C580 1.264 . S
O588 Mg589 1.990 . S
O588 C602 1.253 . S
Mg589 O588 1.990 . S
Mg589 O592 2.180 . S
Mg589 O593 2.117 . S
Mg589 O607 2.030 . S
O590 Mg591 2.072 . S
O590 C602 1.260 . S
Mg591 O590 2.072 . S
Mg591 O592 2.099 . S
Mg591 O594 2.079 . S
Mg591 O595 2.072 . S
Mg591 O597 2.099 . S
Mg591 O608 2.079 . S
O592 Mg589 2.180 . S
O592 Mg591 2.099 . S
O592 C603 1.279 . S
O593 Mg589 2.117 . S
O593 C603 1.250 . S
O594 Mg591 2.079 . S
O594 C604 1.264 . S
O595 Mg591 2.072 . S
O595 C605 1.260 . S
Mg596 O597 2.180 . S
Mg596 O598 2.030 . S
Mg596 O599 1.990 . S
Mg596 O600 2.117 . S
O597 Mg591 2.099 . S
O597 Mg596 2.180 . S
O597 C606 1.279 . S
O598 Mg596 2.030 . S
O598 C604 1.248 . S
O599 Mg596 1.990 . S
O599 C605 1.253 . S
O600 Mg596 2.117 . S
O600 C606 1.250 . S
C601 O607 1.248 . S
C601 O608 1.264 . S
C602 O588 1.253 . S
C602 O590 1.260 . S
C603 O592 1.279 . S
C603 O593 1.250 . S
C604 O594 1.264 . S
C604 O598 1.248 . S
C605 O595 1.260 . S
C605 O599 1.253 . S
C606 O597 1.279 . S
C606 O600 1.250 . S
O607 Mg589 2.030 . S
O607 C601 1.248 . S
O608 Mg591 2.079 . S
O608 C601 1.264 . S
O609 Mg610 1.990 . S
O609 C623 1.253 . S
Mg610 O609 1.990 . S
Mg610 O613 2.180 . S
Mg610 O614 2.117 . S
Mg610 O628 2.030 . S
O611 Mg612 2.072 . S
O611 C623 1.260 . S
Mg612 O611 2.072 . S
Mg612 O613 2.099 . S
Mg612 O615 2.079 . S
Mg612 O616 2.072 . S
Mg612 O618 2.099 . S
Mg612 O629 2.079 . S
O613 Mg610 2.180 . S
O613 Mg612 2.099 . S
O613 C624 1.279 . S
O614 Mg610 2.117 . S
O614 C624 1.250 . S
O615 Mg612 2.079 . S
O615 C625 1.264 . S
O616 Mg612 2.072 . S
O616 C626 1.260 . S
Mg617 O618 2.180 . S
Mg617 O619 2.030 . S
Mg617 O620 1.990 . S
Mg617 O621 2.117 . S
O618 Mg612 2.099 . S
O618 Mg617 2.180 . S
O618 C627 1.279 . S
O619 Mg617 2.030 . S
O619 C625 1.248 . S
O620 Mg617 1.990 . S
O620 C626 1.253 . S
O621 Mg617 2.117 . S
O621 C627 1.250 . S
C622 O628 1.248 . S
C622 O629 1.264 . S
C623 O609 1.253 . S
C623 O611 1.260 . S
C624 O613 1.279 . S
C624 O614 1.250 . S
C625 O615 1.264 . S
C625 O619 1.248 . S
C626 O616 1.260 . S
C626 O620 1.253 . S
C627 O618 1.279 . S
C627 O621 1.250 . S
O628 Mg610 2.030 . S
O628 C622 1.248 . S
O629 Mg612 2.079 . S
O629 C622 1.264 . S
O630 Mg631 1.990 . S
O630 C644 1.253 . S
Mg631 O630 1.990 . S
Mg631 O634 2.180 . S
Mg631 O635 2.117 . S
Mg631 O649 2.030 . S
O632 Mg633 2.072 . S
O632 C644 1.260 . S
Mg633 O632 2.072 . S
Mg633 O634 2.099 . S
Mg633 O636 2.079 . S
Mg633 O637 2.072 . S
Mg633 O639 2.099 . S
Mg633 O650 2.079 . S
O634 Mg631 2.180 . S
O634 Mg633 2.099 . S
O634 C645 1.279 . S
O635 Mg631 2.117 . S
O635 C645 1.250 . S
O636 Mg633 2.079 . S
O636 C646 1.264 . S
O637 Mg633 2.072 . S
O637 C647 1.260 . S
Mg638 O639 2.180 . S
Mg638 O640 2.030 . S
Mg638 O641 1.990 . S
Mg638 O642 2.117 . S
O639 Mg633 2.099 . S
O639 Mg638 2.180 . S
O639 C648 1.279 . S
O640 Mg638 2.030 . S
O640 C646 1.248 . S
O641 Mg638 1.990 . S
O641 C647 1.253 . S
O642 Mg638 2.117 . S
O642 C648 1.250 . S
C643 O649 1.248 . S
C643 O650 1.264 . S
C644 O630 1.253 . S
C644 O632 1.260 . S
C645 O634 1.279 . S
C645 O635 1.250 . S
C646 O636 1.264 . S
C646 O640 1.248 . S
C647 O637 1.260 . S
C647 O641 1.253 . S
C648 O639 1.279 . S
C648 O642 1.250 . S
O649 Mg631 2.030 . S
O649 C643 1.248 . S
O650 Mg633 2.079 . S
O650 C643 1.264 . S
O651 Mg652 1.990 . S
O651 C665 1.253 . S
Mg652 O651 1.990 . S
Mg652 O655 2.180 1_556 S
Mg652 O656 2.117 1_556 S
Mg652 O670 2.030 . S
O653 Mg654 2.072 1_556 S
O653 C665 1.260 . S
Mg654 O653 2.072 1_554 S
Mg654 O655 2.099 . S
Mg654 O657 2.079 1_455 S
Mg654 O658 2.072 1_454 S
Mg654 O660 2.099 1_454 S
Mg654 O671 2.079 . S
O655 Mg652 2.180 1_554 S
O655 Mg654 2.099 . S
O655 C666 1.279 . S
O656 Mg652 2.117 1_554 S
O656 C666 1.250 . S
O657 Mg654 2.079 1_655 S
O657 C667 1.264 . S
O658 Mg654 2.072 1_656 S
O658 C668 1.260 . S
Mg659 O660 2.180 1_554 S
Mg659 O661 2.030 . S
Mg659 O662 1.990 1_554 S
Mg659 O663 2.117 1_554 S
O660 Mg654 2.099 1_656 S
O660 Mg659 2.180 1_556 S
O660 C669 1.279 . S
O661 Mg659 2.030 . S
O661 C667 1.248 . S
O662 Mg659 1.990 1_556 S
O662 C668 1.253 . S
O663 Mg659 2.117 1_556 S
O663 C669 1.250 . S
C664 O670 1.248 1_554 S
C664 O671 1.264 . S
C665 O651 1.253 . S
C665 O653 1.260 . S
C666 O655 1.279 . S
C666 O656 1.250 . S
C667 O657 1.264 . S
C667 O661 1.248 . S
C668 O658 1.260 . S
C668 O662 1.253 . S
C669 O660 1.279 . S
C669 O663 1.250 . S
O670 Mg652 2.030 . S
O670 C664 1.248 1_556 S
O671 Mg654 2.079 . S
O671 C664 1.264 . S
C672 C673 1.369 1_655 S
C672 C674 1.419 . S
C672 H676 0.930 . S
C673 C672 1.369 1_455 S
C673 C682 1.429 . S
C674 C672 1.419 . S
C674 C675 1.363 . S
C674 H677 0.929 . S
C675 C674 1.363 . S
C675 C681 1.428 1_655 S
H676 C672 0.930 . S
H677 C674 0.929 . S
S678 N679 1.613 . S
S678 N680 1.610 . S
N679 S678 1.613 . S
N679 C682 1.350 . S
N680 S678 1.610 . S
N680 C681 1.351 . S
C681 C675 1.428 1_455 S
C681 N680 1.351 . S
C681 C682 1.434 . S
C682 C673 1.429 . S
C682 N679 1.350 . S
C682 C681 1.434 . S
C683 C684 1.369 . S
C683 C685 1.419 . S
C683 H687 0.930 . S
C684 C683 1.369 . S
C684 C693 1.429 . S
C685 C683 1.419 . S
C685 C686 1.363 . S
C685 H688 0.929 . S
C686 C685 1.363 . S
C686 C692 1.428 . S
H687 C683 0.930 . S
H688 C685 0.929 . S
S689 N690 1.613 . S
S689 N691 1.610 . S
N690 S689 1.613 . S
N690 C693 1.350 . S
N691 S689 1.610 . S
N691 C692 1.351 . S
C692 C686 1.428 . S
C692 N691 1.351 . S
C692 C693 1.434 . S
C693 C684 1.429 . S
C693 N690 1.350 . S
C693 C692 1.434 . S
C694 C695 1.369 . S
C694 C696 1.419 . S
C694 H698 0.930 . S
C695 C694 1.369 . S
C695 C704 1.429 . S
C696 C694 1.419 . S
C696 C697 1.363 . S
C696 H699 0.929 . S
C697 C696 1.363 . S
C697 C703 1.428 . S
H698 C694 0.930 . S
H699 C696 0.929 . S
S700 N701 1.613 . S
S700 N702 1.610 . S
N701 S700 1.613 . S
N701 C704 1.350 . S
N702 S700 1.610 . S
N702 C703 1.351 . S
C703 C697 1.428 . S
C703 N702 1.351 . S
C703 C704 1.434 . S
C704 C695 1.429 . S
C704 N701 1.350 . S
C704 C703 1.434 . S
C705 C706 1.369 . S
C705 C707 1.419 . S
C705 H709 0.930 . S
C706 C705 1.369 . S
C706 C715 1.429 . S
C707 C705 1.419 . S
C707 C708 1.363 . S
C707 H710 0.929 . S
C708 C707 1.363 . S
C708 C714 1.428 . S
H709 C705 0.930 . S
H710 C707 0.929 . S
S711 N712 1.613 . S
S711 N713 1.610 . S
N712 S711 1.613 . S
N712 C715 1.350 . S
N713 S711 1.610 . S
N713 C714 1.351 . S
C714 C708 1.428 . S
C714 N713 1.351 . S
C714 C715 1.434 . S
C715 C706 1.429 . S
C715 N712 1.350 . S
C715 C714 1.434 . S
C716 C717 1.369 1_655 S
C716 C718 1.419 . S
C716 H720 0.930 . S
C717 C716 1.369 1_455 S
C717 C726 1.429 . S
C718 C716 1.419 . S
C718 C719 1.363 . S
C718 H721 0.929 . S
C719 C718 1.363 . S
C719 C725 1.428 1_655 S
H720 C716 0.930 . S
H721 C718 0.929 . S
S722 N723 1.613 . S
S722 N724 1.610 . S
N723 S722 1.613 . S
N723 C726 1.350 . S
N724 S722 1.610 . S
N724 C725 1.351 . S
C725 C719 1.428 1_455 S
C725 N724 1.351 . S
C725 C726 1.434 . S
C726 C717 1.429 . S
C726 N723 1.350 . S
C726 C725 1.434 . S
C727 C728 1.369 . S
C727 C729 1.419 . S
C727 H731 0.930 . S
C728 C727 1.369 . S
C728 C737 1.429 . S
C729 C727 1.419 . S
C729 C730 1.363 . S
C729 H732 0.929 . S
C730 C729 1.363 . S
C730 C736 1.428 . S
H731 C727 0.930 . S
H732 C729 0.929 . S
S733 N734 1.613 . S
S733 N735 1.610 . S
N734 S733 1.613 . S
N734 C737 1.350 . S
N735 S733 1.610 . S
N735 C736 1.351 . S
C736 C730 1.428 . S
C736 N735 1.351 . S
C736 C737 1.434 . S
C737 C728 1.429 . S
C737 N734 1.350 . S
C737 C736 1.434 . S
C738 C739 1.369 . S
C738 C740 1.419 . S
C738 H742 0.930 . S
C739 C738 1.369 . S
C739 C748 1.429 . S
C740 C738 1.419 . S
C740 C741 1.363 . S
C740 H743 0.929 . S
C741 C740 1.363 . S
C741 C747 1.428 . S
H742 C738 0.930 . S
H743 C740 0.929 . S
S744 N745 1.613 1_554 S
S744 N746 1.610 . S
N745 S744 1.613 1_556 S
N745 C748 1.350 . S
N746 S744 1.610 . S
N746 C747 1.351 1_554 S
C747 C741 1.428 . S
C747 N746 1.351 1_556 S
C747 C748 1.434 . S
C748 C739 1.429 . S
C748 N745 1.350 . S
C748 C747 1.434 . S
C749 C750 1.369 . S
C749 C751 1.419 . S
C749 H753 0.930 . S
C750 C749 1.369 . S
C750 C759 1.429 . S
C751 C749 1.419 . S
C751 C752 1.363 . S
C751 H754 0.929 . S
C752 C751 1.363 . S
C752 C758 1.428 . S
H753 C749 0.930 . S
H754 C751 0.929 . S
S755 N756 1.613 . S
S755 N757 1.610 . S
N756 S755 1.613 . S
N756 C759 1.350 . S
N757 S755 1.610 . S
N757 C758 1.351 . S
C758 C752 1.428 . S
C758 N757 1.351 . S
C758 C759 1.434 . S
C759 C750 1.429 . S
C759 N756 1.350 . S
C759 C758 1.434 . S
C760 C761 1.369 . S
C760 C762 1.419 . S
C760 H764 0.930 . S
C761 C760 1.369 . S
C761 C770 1.429 1_545 S
C762 C760 1.419 . S
C762 C763 1.363 1_545 S
C762 H765 0.929 . S
C763 C762 1.363 1_565 S
C763 C769 1.428 . S
H764 C760 0.930 . S
H765 C762 0.929 . S
S766 N767 1.613 . S
S766 N768 1.610 . S
N767 S766 1.613 . S
N767 C770 1.350 . S
N768 S766 1.610 . S
N768 C769 1.351 . S
C769 C763 1.428 . S
C769 N768 1.351 . S
C769 C770 1.434 . S
C770 C761 1.429 1_565 S
C770 N767 1.350 . S
C770 C769 1.434 . S
C771 C772 1.369 . S
C771 C773 1.419 . S
C771 H775 0.930 . S
C772 C771 1.369 . S
C772 C781 1.429 . S
C773 C771 1.419 . S
C773 C774 1.363 . S
C773 H776 0.929 . S
C774 C773 1.363 . S
C774 C780 1.428 . S
H775 C771 0.930 . S
H776 C773 0.929 . S
S777 N778 1.613 . S
S777 N779 1.610 . S
N778 S777 1.613 . S
N778 C781 1.350 . S
N779 S777 1.610 . S
N779 C780 1.351 . S
C780 C774 1.428 . S
C780 N779 1.351 . S
C780 C781 1.434 . S
C781 C772 1.429 . S
C781 N778 1.350 . S
C781 C780 1.434 . S
C782 C783 1.369 1_565 S
C782 C784 1.419 . S
C782 H786 0.930 . S
C783 C782 1.369 1_545 S
C783 C792 1.429 . S
C784 C782 1.419 . S
C784 C785 1.363 1_565 S
C784 H787 0.929 . S
C785 C784 1.363 1_545 S
C785 C791 1.428 . S
H786 C782 0.930 . S
H787 C784 0.929 . S
S788 N789 1.613 . S
S788 N790 1.610 . S
N789 S788 1.613 . S
N789 C792 1.350 . S
N790 S788 1.610 . S
N790 C791 1.351 . S
C791 C785 1.428 . S
C791 N790 1.351 . S
C791 C792 1.434 . S
C792 C783 1.429 . S
C792 N789 1.350 . S
C792 C791 1.434 . S
C793 C794 1.369 . S
C793 C795 1.419 . S
C793 H797 0.930 . S
C794 C793 1.369 . S
C794 C803 1.429 . S
C795 C793 1.419 . S
C795 C796 1.363 . S
C795 H798 0.929 . S
C796 C795 1.363 . S
C796 C802 1.428 . S
H797 C793 0.930 . S
H798 C795 0.929 . S
S799 N800 1.613 . S
S799 N801 1.610 . S
N800 S799 1.613 . S
N800 C803 1.350 . S
N801 S799 1.610 . S
N801 C802 1.351 . S
C802 C796 1.428 . S
C802 N801 1.351 . S
C802 C803 1.434 . S
C803 C794 1.429 . S
C803 N800 1.350 . S
C803 C802 1.434 . S
C804 C805 1.369 . S
C804 C806 1.419 . S
C804 H808 0.930 . S
C805 C804 1.369 . S
C805 C814 1.429 1_545 S
C806 C804 1.419 . S
C806 C807 1.363 . S
C806 H809 0.929 . S
C807 C806 1.363 . S
C807 C813 1.428 1_545 S
H808 C804 0.930 . S
H809 C806 0.929 . S
S810 N811 1.613 . S
S810 N812 1.610 . S
N811 S810 1.613 . S
N811 C814 1.350 . S
N812 S810 1.610 . S
N812 C813 1.351 . S
C813 C807 1.428 1_565 S
C813 N812 1.351 . S
C813 C814 1.434 . S
C814 C805 1.429 1_565 S
C814 N811 1.350 . S
C814 C813 1.434 . S
C815 C816 1.369 . S
C815 C817 1.419 . S
C815 H819 0.930 . S
C816 C815 1.369 . S
C816 C825 1.429 . S
C817 C815 1.419 . S
C817 C818 1.363 . S
C817 H820 0.929 . S
C818 C817 1.363 . S
C818 C824 1.428 . S
H819 C815 0.930 . S
H820 C817 0.929 . S
S821 N822 1.613 . S
S821 N823 1.610 . S
N822 S821 1.613 . S
N822 C825 1.350 . S
N823 S821 1.610 . S
N823 C824 1.351 . S
C824 C818 1.428 . S
C824 N823 1.351 . S
C824 C825 1.434 . S
C825 C816 1.429 . S
C825 N822 1.350 . S
C825 C824 1.434 . S
C826 C827 1.369 1_565 S
C826 C828 1.419 . S
C826 H830 0.930 . S
C827 C826 1.369 1_545 S
C827 C836 1.429 . S
C828 C826 1.419 . S
C828 C829 1.363 . S
C828 H831 0.929 . S
C829 C828 1.363 . S
C829 C835 1.428 1_565 S
H830 C826 0.930 . S
H831 C828 0.929 . S
S832 N833 1.613 . S
S832 N834 1.610 . S
N833 S832 1.613 . S
N833 C836 1.350 . S
N834 S832 1.610 . S
N834 C835 1.351 . S
C835 C829 1.428 1_545 S
C835 N834 1.351 . S
C835 C836 1.434 . S
C836 C827 1.429 . S
C836 N833 1.350 . S
C836 C835 1.434 . S
C837 C838 1.369 . S
C837 C839 1.419 . S
C837 H841 0.930 . S
C838 C837 1.369 . S
C838 C847 1.429 . S
C839 C837 1.419 . S
C839 C840 1.363 . S
C839 H842 0.929 . S
C840 C839 1.363 . S
C840 C846 1.428 . S
H841 C837 0.930 . S
H842 C839 0.929 . S
S843 N844 1.613 . S
S843 N845 1.610 . S
N844 S843 1.613 . S
N844 C847 1.350 . S
N845 S843 1.610 . S
N845 C846 1.351 . S
C846 C840 1.428 . S
C846 N845 1.351 . S
C846 C847 1.434 . S
C847 C838 1.429 . S
C847 N844 1.350 . S
C847 C846 1.434 . S
C848 C849 1.369 . S
C848 C850 1.419 . S
C848 H852 0.930 . S
C849 C848 1.369 . S
C849 C858 1.429 1_554 S
C850 C848 1.419 . S
C850 C851 1.363 1_554 S
C850 H853 0.929 . S
C851 C850 1.363 1_556 S
C851 C857 1.428 . S
H852 C848 0.930 . S
H853 C850 0.929 . S
S854 N855 1.613 . S
S854 N856 1.610 . S
N855 S854 1.613 . S
N855 C858 1.350 . S
N856 S854 1.610 . S
N856 C857 1.351 . S
C857 C851 1.428 . S
C857 N856 1.351 . S
C857 C858 1.434 . S
C858 C849 1.429 1_556 S
C858 N855 1.350 . S
C858 C857 1.434 . S
C859 C860 1.369 1_556 S
C859 C861 1.419 1_556 S
C859 H863 0.930 . S
C860 C859 1.369 1_554 S
C860 C869 1.429 . S
C861 C859 1.419 1_554 S
C861 C862 1.363 . S
C861 H864 0.929 1_554 S
C862 C861 1.363 . S
C862 C868 1.428 . S
H863 C859 0.930 . S
H864 C861 0.929 1_556 S
S865 N866 1.613 . S
S865 N867 1.610 . S
N866 S865 1.613 . S
N866 C869 1.350 . S
N867 S865 1.610 . S
N867 C868 1.351 . S
C868 C862 1.428 . S
C868 N867 1.351 . S
C868 C869 1.434 . S
C869 C860 1.429 . S
C869 N866 1.350 . S
C869 C868 1.434 . S
C870 C871 1.369 . S
C870 C872 1.419 . S
C870 H874 0.930 . S
C871 C870 1.369 . S
C871 C880 1.429 . S
C872 C870 1.419 . S
C872 C873 1.363 . S
C872 H875 0.929 . S
C873 C872 1.363 . S
C873 C879 1.428 . S
H874 C870 0.930 . S
H875 C872 0.929 . S
S876 N877 1.613 . S
S876 N878 1.610 . S
N877 S876 1.613 . S
N877 C880 1.350 . S
N878 S876 1.610 . S
N878 C879 1.351 . S
C879 C873 1.428 . S
C879 N878 1.351 . S
C879 C880 1.434 . S
C880 C871 1.429 . S
C880 N877 1.350 . S
C880 C879 1.434 . S
C881 C882 1.369 . S
C881 C883 1.419 . S
C881 H885 0.930 . S
C882 C881 1.369 . S
C882 C891 1.429 . S
C883 C881 1.419 . S
C883 C884 1.363 . S
C883 H886 0.929 . S
C884 C883 1.363 . S
C884 C890 1.428 . S
H885 C881 0.930 . S
H886 C883 0.929 . S
S887 N888 1.613 . S
S887 N889 1.610 . S
N888 S887 1.613 . S
N888 C891 1.350 . S
N889 S887 1.610 . S
N889 C890 1.351 . S
C890 C884 1.428 . S
C890 N889 1.351 . S
C890 C891 1.434 . S
C891 C882 1.429 . S
C891 N888 1.350 . S
C891 C890 1.434 . S
C892 C893 1.369 . S
C892 C894 1.419 . S
C892 H896 0.930 . S
C893 C892 1.369 . S
C893 C902 1.429 . S
C894 C892 1.419 . S
C894 C895 1.363 . S
C894 H897 0.929 . S
C895 C894 1.363 . S
C895 C901 1.428 . S
H896 C892 0.930 . S
H897 C894 0.929 . S
S898 N899 1.613 . S
S898 N900 1.610 . S
N899 S898 1.613 . S
N899 C902 1.350 . S
N900 S898 1.610 . S
N900 C901 1.351 . S
C901 C895 1.428 . S
C901 N900 1.351 . S
C901 C902 1.434 . S
C902 C893 1.429 . S
C902 N899 1.350 . S
C902 C901 1.434 . S
C903 C904 1.369 . S
C903 C905 1.419 . S
C903 H907 0.930 . S
C904 C903 1.369 . S
C904 C913 1.429 . S
C905 C903 1.419 . S
C905 C906 1.363 . S
C905 H908 0.933 . S
C906 C905 1.363 . S
C906 C912 1.428 . S
H907 C903 0.930 . S
H908 C905 0.933 . S
S909 N910 1.613 . S
S909 N911 1.610 . S
N910 S909 1.613 . S
N910 C913 1.350 . S
N911 S909 1.610 . S
N911 C912 1.351 . S
C912 C906 1.428 . S
C912 N911 1.351 . S
C912 C913 1.434 . S
C913 C904 1.429 . S
C913 N910 1.350 . S
C913 C912 1.434 . S
C914 C915 1.369 . S
C914 C916 1.419 . S
C914 H918 0.930 . S
C915 C914 1.369 . S
C915 C924 1.429 . S
C916 C914 1.419 . S
C916 C917 1.363 . S
C916 H919 0.929 . S
C917 C916 1.363 . S
C917 C923 1.428 . S
H918 C914 0.930 . S
H919 C916 0.929 . S
S920 N921 1.613 . S
S920 N922 1.610 . S
N921 S920 1.613 . S
N921 C924 1.350 . S
N922 S920 1.610 . S
N922 C923 1.351 . S
C923 C917 1.428 . S
C923 N922 1.351 . S
C923 C924 1.434 . S
C924 C915 1.429 . S
C924 N921 1.350 . S
C924 C923 1.434 . S
C925 C926 1.369 . S
C925 C927 1.419 . S
C925 H929 0.930 . S
C926 C925 1.369 . S
C926 C935 1.429 . S
C927 C925 1.419 . S
C927 C928 1.363 . S
C927 H930 0.929 . S
C928 C927 1.363 . S
C928 C934 1.428 . S
H929 C925 0.930 . S
H930 C927 0.929 . S
S931 N932 1.613 . S
S931 N933 1.610 . S
N932 S931 1.613 . S
N932 C935 1.350 . S
N933 S931 1.610 . S
N933 C934 1.351 . S
C934 C928 1.428 . S
C934 N933 1.351 . S
C934 C935 1.434 . S
C935 C926 1.429 . S
C935 N932 1.350 . S
C935 C934 1.434 . S
C936 C937 1.369 1_655 S
C936 C938 1.419 . S
C936 H940 0.930 . S
C937 C936 1.369 1_455 S
C937 C946 1.429 . S
C938 C936 1.419 . S
C938 C939 1.363 1_655 S
C938 H941 0.929 . S
C939 C938 1.363 1_455 S
C939 C945 1.428 . S
H940 C936 0.930 . S
H941 C938 0.929 . S
S942 N943 1.613 . S
S942 N944 1.610 . S
N943 S942 1.613 . S
N943 C946 1.350 . S
N944 S942 1.610 . S
N944 C945 1.351 . S
C945 C939 1.428 . S
C945 N944 1.351 . S
C945 C946 1.434 . S
C946 C937 1.429 . S
C946 N943 1.350 . S
C946 C945 1.434 . S
C947 C948 1.369 . S
C947 C949 1.419 . S
C947 H951 0.930 . S
C948 C947 1.369 . S
C948 C957 1.429 . S
C949 C947 1.419 . S
C949 C950 1.363 . S
C949 H952 0.929 . S
C950 C949 1.363 . S
C950 C956 1.428 . S
H951 C947 0.930 . S
H952 C949 0.929 . S
S953 N954 1.613 . S
S953 N955 1.610 . S
N954 S953 1.613 . S
N954 C957 1.350 . S
N955 S953 1.610 . S
N955 C956 1.351 . S
C956 C950 1.428 . S
C956 N955 1.351 . S
C956 C957 1.434 . S
C957 C948 1.429 . S
C957 N954 1.350 . S
C957 C956 1.434 . S
C958 C959 1.369 . S
C958 C960 1.419 . S
C958 H962 0.930 . S
C959 C958 1.369 . S
C959 C968 1.429 . S
C960 C958 1.419 . S
C960 C961 1.363 . S
C960 H963 0.929 . S
C961 C960 1.363 . S
C961 C967 1.428 . S
H962 C958 0.930 . S
H963 C960 0.929 . S
S964 N965 1.613 . S
S964 N966 1.610 . S
N965 S964 1.613 . S
N965 C968 1.350 . S
N966 S964 1.610 . S
N966 C967 1.351 . S
C967 C961 1.428 . S
C967 N966 1.351 . S
C967 C968 1.434 . S
C968 C959 1.429 . S
C968 N965 1.350 . S
C968 C967 1.434 . S
C969 C970 1.369 . S
C969 C971 1.419 . S
C969 H973 0.930 . S
C970 C969 1.369 . S
C970 C979 1.429 . S
C971 C969 1.419 . S
C971 C972 1.363 . S
C971 H974 0.929 . S
C972 C971 1.363 . S
C972 C978 1.428 . S
H973 C969 0.930 . S
H974 C971 0.929 . S
S975 N976 1.613 . S
S975 N977 1.610 . S
N976 S975 1.613 . S
N976 C979 1.350 . S
N977 S975 1.610 . S
N977 C978 1.351 . S
C978 C972 1.428 . S
C978 N977 1.351 . S
C978 C979 1.434 . S
C979 C970 1.429 . S
C979 N976 1.350 . S
C979 C978 1.434 . S
C980 C981 1.369 1_655 S
C980 C982 1.419 . S
C980 H984 0.930 . S
C981 C980 1.369 1_455 S
C981 C990 1.429 . S
C982 C980 1.419 . S
C982 C983 1.363 1_655 S
C982 H985 0.929 . S
C983 C982 1.363 1_455 S
C983 C989 1.428 . S
H984 C980 0.930 . S
H985 C982 0.929 . S
S986 N987 1.613 . S
S986 N988 1.610 . S
N987 S986 1.613 . S
N987 C990 1.350 . S
N988 S986 1.610 . S
N988 C989 1.351 . S
C989 C983 1.428 . S
C989 N988 1.351 . S
C989 C990 1.434 . S
C990 C981 1.429 . S
C990 N987 1.350 . S
C990 C989 1.434 . S
C991 C992 1.369 . S
C991 C993 1.419 . S
C991 H995 0.930 . S
C992 C991 1.369 . S
C992 C1001 1.429 . S
C993 C991 1.419 . S
C993 C994 1.363 . S
C993 H996 0.929 . S
C994 C993 1.363 . S
C994 C1000 1.428 . S
H995 C991 0.930 . S
H996 C993 0.929 . S
S997 N998 1.613 . S
S997 N999 1.610 . S
N998 S997 1.613 . S
N998 C1001 1.350 . S
N999 S997 1.610 . S
N999 C1000 1.351 . S
C1000 C994 1.428 . S
C1000 N999 1.351 . S
C1000 C1001 1.434 . S
C1001 C992 1.429 . S
C1001 N998 1.350 . S
C1001 C1000 1.434 . S
C1002 C1003 1.369 . S
C1002 C1004 1.419 . S
C1002 H1006 0.930 . S
C1003 C1002 1.369 . S
C1003 C1012 1.429 . S
C1004 C1002 1.419 . S
C1004 C1005 1.363 . S
C1004 H1007 0.929 . S
C1005 C1004 1.363 . S
C1005 C1011 1.428 . S
H1006 C1002 0.930 . S
H1007 C1004 0.929 . S
S1008 N1009 1.613 . S
S1008 N1010 1.610 . S
N1009 S1008 1.613 . S
N1009 C1012 1.350 . S
N1010 S1008 1.610 . S
N1010 C1011 1.351 . S
C1011 C1005 1.428 . S
C1011 N1010 1.351 . S
C1011 C1012 1.434 . S
C1012 C1003 1.429 . S
C1012 N1009 1.350 . S
C1012 C1011 1.434 . S
C1013 C1014 1.369 . S
C1013 C1015 1.419 . S
C1013 H1017 0.930 . S
C1014 C1013 1.369 . S
C1014 C1023 1.429 . S
C1015 C1013 1.419 . S
C1015 C1016 1.363 . S
C1015 H1018 0.929 . S
C1016 C1015 1.363 . S
C1016 C1022 1.428 . S
H1017 C1013 0.930 . S
H1018 C1015 0.929 . S
S1019 N1020 1.613 . S
S1019 N1021 1.610 . S
N1020 S1019 1.613 . S
N1020 C1023 1.350 . S
N1021 S1019 1.610 . S
N1021 C1022 1.351 . S
C1022 C1016 1.428 . S
C1022 N1021 1.351 . S
C1022 C1023 1.434 . S
C1023 C1014 1.429 . S
C1023 N1020 1.350 . S
C1023 C1022 1.434 . S
C1024 C1025 1.369 . S
C1024 C1026 1.419 . S
C1024 H1028 0.930 . S
C1025 C1024 1.369 . S
C1025 C1034 1.429 1_545 S
C1026 C1024 1.419 . S
C1026 C1027 1.363 . S
C1026 H1029 0.929 . S
C1027 C1026 1.363 . S
C1027 C1033 1.428 1_545 S
H1028 C1024 0.930 . S
H1029 C1026 0.929 . S
S1030 N1031 1.613 . S
S1030 N1032 1.610 . S
N1031 S1030 1.613 . S
N1031 C1034 1.350 . S
N1032 S1030 1.610 . S
N1032 C1033 1.351 . S
C1033 C1027 1.428 1_565 S
C1033 N1032 1.351 . S
C1033 C1034 1.434 . S
C1034 C1025 1.429 1_565 S
C1034 N1031 1.350 . S
C1034 C1033 1.434 . S
C1035 C1036 1.369 . S
C1035 C1037 1.419 . S
C1035 H1039 0.930 . S
C1036 C1035 1.369 . S
C1036 C1045 1.429 . S
C1037 C1035 1.419 . S
C1037 C1038 1.363 . S
C1037 H1040 0.929 . S
C1038 C1037 1.363 . S
C1038 C1044 1.428 . S
H1039 C1035 0.930 . S
H1040 C1037 0.929 . S
S1041 N1042 1.613 . S
S1041 N1043 1.610 . S
N1042 S1041 1.613 . S
N1042 C1045 1.350 . S
N1043 S1041 1.610 . S
N1043 C1044 1.351 . S
C1044 C1038 1.428 . S
C1044 N1043 1.351 . S
C1044 C1045 1.434 . S
C1045 C1036 1.429 . S
C1045 N1042 1.350 . S
C1045 C1044 1.434 . S
C1046 C1047 1.369 1_565 S
C1046 C1048 1.419 . S
C1046 H1050 0.930 . S
C1047 C1046 1.369 1_545 S
C1047 C1056 1.429 . S
C1048 C1046 1.419 . S
C1048 C1049 1.363 . S
C1048 H1051 0.929 . S
C1049 C1048 1.363 . S
C1049 C1055 1.428 1_565 S
H1050 C1046 0.930 . S
H1051 C1048 0.929 . S
S1052 N1053 1.613 . S
S1052 N1054 1.610 . S
N1053 S1052 1.613 . S
N1053 C1056 1.350 . S
N1054 S1052 1.610 . S
N1054 C1055 1.351 . S
C1055 C1049 1.428 1_545 S
C1055 N1054 1.351 . S
C1055 C1056 1.434 . S
C1056 C1047 1.429 . S
C1056 N1053 1.350 . S
C1056 C1055 1.434 . S
C1057 C1058 1.369 . S
C1057 C1059 1.419 . S
C1057 H1061 0.930 . S
C1058 C1057 1.369 . S
C1058 C1067 1.429 . S
C1059 C1057 1.419 . S
C1059 C1060 1.363 . S
C1059 H1062 0.929 . S
C1060 C1059 1.363 . S
C1060 C1066 1.428 . S
H1061 C1057 0.930 . S
H1062 C1059 0.929 . S
S1063 N1064 1.613 . S
S1063 N1065 1.610 . S
N1064 S1063 1.613 . S
N1064 C1067 1.350 . S
N1065 S1063 1.610 . S
N1065 C1066 1.351 . S
C1066 C1060 1.428 . S
C1066 N1065 1.351 . S
C1066 C1067 1.434 . S
C1067 C1058 1.429 . S
C1067 N1064 1.350 . S
C1067 C1066 1.434 . S
C1068 C1069 1.369 . S
C1068 C1070 1.419 . S
C1068 H1072 0.930 . S
C1069 C1068 1.369 . S
C1069 C1078 1.429 1_565 S
C1070 C1068 1.419 . S
C1070 C1071 1.363 . S
C1070 H1073 0.929 . S
C1071 C1070 1.363 . S
C1071 C1077 1.428 . S
H1072 C1068 0.930 . S
H1073 C1070 0.929 . S
S1074 N1075 1.613 . S
S1074 N1076 1.610 . S
N1075 S1074 1.613 . S
N1075 C1078 1.350 . S
N1076 S1074 1.610 . S
N1076 C1077 1.351 1_545 S
C1077 C1071 1.428 . S
C1077 N1076 1.351 1_565 S
C1077 C1078 1.434 1_565 S
C1078 C1069 1.429 1_545 S
C1078 N1075 1.350 . S
C1078 C1077 1.434 1_545 S
C1079 C1080 1.369 . S
C1079 C1081 1.419 . S
C1079 H1083 0.930 . S
C1080 C1079 1.369 . S
C1080 C1089 1.429 . S
C1081 C1079 1.419 . S
C1081 C1082 1.363 . S
C1081 H1084 0.929 . S
C1082 C1081 1.363 . S
C1082 C1088 1.428 . S
H1083 C1079 0.930 . S
H1084 C1081 0.929 . S
S1085 N1086 1.613 . S
S1085 N1087 1.610 . S
N1086 S1085 1.613 . S
N1086 C1089 1.350 . S
N1087 S1085 1.610 . S
N1087 C1088 1.351 . S
C1088 C1082 1.428 . S
C1088 N1087 1.351 . S
C1088 C1089 1.434 . S
C1089 C1080 1.429 . S
C1089 N1086 1.350 . S
C1089 C1088 1.434 . S
C1090 C1091 1.369 . S
C1090 C1092 1.419 . S
C1090 H1094 0.930 . S
C1091 C1090 1.369 . S
C1091 C1100 1.429 1_545 S
C1092 C1090 1.419 . S
C1092 C1093 1.363 . S
C1092 H1095 0.929 . S
C1093 C1092 1.363 . S
C1093 C1099 1.428 . S
H1094 C1090 0.930 . S
H1095 C1092 0.929 . S
S1096 N1097 1.613 . S
S1096 N1098 1.610 . S
N1097 S1096 1.613 . S
N1097 C1100 1.350 . S
N1098 S1096 1.610 . S
N1098 C1099 1.351 1_565 S
C1099 C1093 1.428 . S
C1099 N1098 1.351 1_545 S
C1099 C1100 1.434 1_545 S
C1100 C1091 1.429 1_565 S
C1100 N1097 1.350 . S
C1100 C1099 1.434 1_565 S
C1101 C1102 1.369 . S
C1101 C1103 1.419 . S
C1101 H1105 0.930 . S
C1102 C1101 1.369 . S
C1102 C1111 1.429 . S
C1103 C1101 1.419 . S
C1103 C1104 1.363 . S
C1103 H1106 0.929 . S
C1104 C1103 1.363 . S
C1104 C1110 1.428 . S
H1105 C1101 0.930 . S
H1106 C1103 0.929 . S
S1107 N1108 1.613 . S
S1107 N1109 1.610 . S
N1108 S1107 1.613 . S
N1108 C1111 1.350 . S
N1109 S1107 1.610 . S
N1109 C1110 1.351 . S
C1110 C1104 1.428 . S
C1110 N1109 1.351 . S
C1110 C1111 1.434 . S
C1111 C1102 1.429 . S
C1111 N1108 1.350 . S
C1111 C1110 1.434 . S
C1112 C1113 1.369 1_556 S
C1112 C1114 1.419 . S
C1112 H1116 0.930 . S
C1113 C1112 1.369 1_554 S
C1113 C1122 1.429 . S
C1114 C1112 1.419 . S
C1114 C1115 1.363 1_556 S
C1114 H1117 0.929 . S
C1115 C1114 1.363 1_554 S
C1115 C1121 1.428 . S
H1116 C1112 0.930 . S
H1117 C1114 0.929 . S
S1118 N1119 1.613 . S
S1118 N1120 1.610 . S
N1119 S1118 1.613 . S
N1119 C1122 1.350 . S
N1120 S1118 1.610 . S
N1120 C1121 1.351 . S
C1121 C1115 1.428 . S
C1121 N1120 1.351 . S
C1121 C1122 1.434 . S
C1122 C1113 1.429 . S
C1122 N1119 1.350 . S
C1122 C1121 1.434 . S
C1123 C1124 1.369 1_556 S
C1123 C1125 1.419 . S
C1123 H1127 0.930 . S
C1124 C1123 1.369 1_554 S
C1124 C1133 1.429 . S
C1125 C1123 1.419 . S
C1125 C1126 1.363 . S
C1125 H1128 0.929 . S
C1126 C1125 1.363 . S
C1126 C1132 1.428 . S
H1127 C1123 0.930 . S
H1128 C1125 0.929 . S
S1129 N1130 1.613 1_556 S
S1129 N1131 1.611 . S
N1130 S1129 1.613 1_554 S
N1130 C1133 1.351 . S
N1131 S1129 1.611 . S
N1131 C1132 1.351 . S
C1132 C1126 1.428 . S
C1132 N1131 1.351 . S
C1132 C1133 1.432 1_556 S
C1133 C1124 1.429 . S
C1133 N1130 1.351 . S
C1133 C1132 1.432 1_554 S
C1134 C1135 1.369 . S
C1134 C1136 1.419 . S
C1134 H1138 0.930 . S
C1135 C1134 1.369 . S
C1135 C1144 1.429 . S
C1136 C1134 1.419 . S
C1136 C1137 1.363 . S
C1136 H1139 0.929 . S
C1137 C1136 1.363 . S
C1137 C1143 1.428 . S
H1138 C1134 0.930 . S
H1139 C1136 0.929 . S
S1140 N1141 1.613 . S
S1140 N1142 1.610 . S
N1141 S1140 1.613 . S
N1141 C1144 1.350 . S
N1142 S1140 1.610 . S
N1142 C1143 1.351 . S
C1143 C1137 1.428 . S
C1143 N1142 1.351 . S
C1143 C1144 1.434 . S
C1144 C1135 1.429 . S
C1144 N1141 1.350 . S
C1144 C1143 1.434 . S
C1145 C1146 1.369 . S
C1145 C1147 1.419 . S
C1145 H1149 0.930 . S
C1146 C1145 1.369 . S
C1146 C1155 1.429 . S
C1147 C1145 1.419 . S
C1147 C1148 1.363 . S
C1147 H1150 0.929 . S
C1148 C1147 1.363 . S
C1148 C1154 1.428 . S
H1149 C1145 0.930 . S
H1150 C1147 0.929 . S
S1151 N1152 1.613 . S
S1151 N1153 1.610 . S
N1152 S1151 1.613 . S
N1152 C1155 1.350 . S
N1153 S1151 1.610 . S
N1153 C1154 1.351 . S
C1154 C1148 1.428 . S
C1154 N1153 1.351 . S
C1154 C1155 1.434 . S
C1155 C1146 1.429 . S
C1155 N1152 1.350 . S
C1155 C1154 1.434 . S
C1156 C1157 1.369 . S
C1156 C1158 1.419 . S
C1156 H1160 0.930 . S
C1157 C1156 1.369 . S
C1157 C1166 1.429 . S
C1158 C1156 1.419 . S
C1158 C1159 1.363 . S
C1158 H1161 0.929 . S
C1159 C1158 1.363 . S
C1159 C1165 1.428 . S
H1160 C1156 0.930 . S
H1161 C1158 0.929 . S
S1162 N1163 1.613 . S
S1162 N1164 1.610 . S
N1163 S1162 1.613 . S
N1163 C1166 1.350 . S
N1164 S1162 1.610 . S
N1164 C1165 1.351 . S
C1165 C1159 1.428 . S
C1165 N1164 1.351 . S
C1165 C1166 1.434 . S
C1166 C1157 1.429 . S
C1166 N1163 1.350 . S
C1166 C1165 1.434 . S
C1167 C1168 1.369 . S
C1167 C1169 1.419 . S
C1167 H1171 0.930 . S
C1168 C1167 1.369 . S
C1168 C1177 1.429 . S
C1169 C1167 1.419 . S
C1169 C1170 1.363 . S
C1169 H1172 0.929 . S
C1170 C1169 1.363 . S
C1170 C1176 1.428 . S
H1171 C1167 0.930 . S
H1172 C1169 0.929 . S
S1173 N1174 1.639 . S
S1173 N1175 1.614 . S
N1174 S1173 1.639 . S
N1174 C1177 1.350 . S
N1175 S1173 1.614 . S
N1175 C1176 1.351 . S
C1176 C1170 1.428 . S
C1176 N1175 1.351 . S
C1176 C1177 1.434 . S
C1177 C1168 1.429 . S
C1177 N1174 1.350 . S
C1177 C1176 1.434 . S
C1178 C1179 1.369 . S
C1178 C1180 1.419 . S
C1178 H1182 0.930 . S
C1179 C1178 1.369 . S
C1179 C1188 1.429 . S
C1180 C1178 1.419 . S
C1180 C1181 1.363 . S
C1180 H1183 0.929 . S
C1181 C1180 1.363 . S
C1181 C1187 1.428 . S
H1182 C1178 0.930 . S
H1183 C1180 0.929 . S
S1184 N1185 1.613 . S
S1184 N1186 1.610 . S
N1185 S1184 1.613 . S
N1185 C1188 1.350 . S
N1186 S1184 1.610 . S
N1186 C1187 1.351 . S
C1187 C1181 1.428 . S
C1187 N1186 1.351 . S
C1187 C1188 1.434 . S
C1188 C1179 1.429 . S
C1188 N1185 1.350 . S
C1188 C1187 1.434 . S
C1189 C1190 1.369 . S
C1189 C1191 1.419 . S
C1189 H1193 0.930 . S
C1190 C1189 1.369 . S
C1190 C1199 1.429 . S
C1191 C1189 1.419 . S
C1191 C1192 1.363 . S
C1191 H1194 0.929 . S
C1192 C1191 1.363 . S
C1192 C1198 1.428 . S
H1193 C1189 0.930 . S
H1194 C1191 0.929 . S
S1195 N1196 1.613 . S
S1195 N1197 1.610 . S
N1196 S1195 1.613 . S
N1196 C1199 1.350 . S
N1197 S1195 1.610 . S
N1197 C1198 1.351 . S
C1198 C1192 1.428 . S
C1198 N1197 1.351 . S
C1198 C1199 1.434 . S
C1199 C1190 1.429 . S
C1199 N1196 1.350 . S
C1199 C1198 1.434 . S
C1200 C1201 1.369 . S
C1200 C1202 1.419 . S
C1200 H1204 0.930 . S
C1201 C1200 1.369 . S
C1201 C1210 1.429 . S
C1202 C1200 1.419 . S
C1202 C1203 1.363 . S
C1202 H1205 0.929 . S
C1203 C1202 1.363 . S
C1203 C1209 1.428 . S
H1204 C1200 0.930 . S
H1205 C1202 0.929 . S
S1206 N1207 1.613 . S
S1206 N1208 1.610 . S
N1207 S1206 1.613 . S
N1207 C1210 1.350 . S
N1208 S1206 1.610 . S
N1208 C1209 1.351 . S
C1209 C1203 1.428 . S
C1209 N1208 1.351 . S
C1209 C1210 1.434 . S
C1210 C1201 1.429 . S
C1210 N1207 1.350 . S
C1210 C1209 1.434 . S
C1211 C1212 1.369 . S
C1211 C1213 1.419 . S
C1211 H1215 0.930 . S
C1212 C1211 1.369 . S
C1212 C1221 1.429 . S
C1213 C1211 1.419 . S
C1213 C1214 1.363 . S
C1213 H1216 0.929 . S
C1214 C1213 1.363 . S
C1214 C1220 1.428 . S
H1215 C1211 0.930 . S
H1216 C1213 0.929 . S
S1217 N1218 1.613 . S
S1217 N1219 1.610 . S
N1218 S1217 1.613 . S
N1218 C1221 1.350 . S
N1219 S1217 1.610 . S
N1219 C1220 1.351 . S
C1220 C1214 1.428 . S
C1220 N1219 1.351 . S
C1220 C1221 1.434 . S
C1221 C1212 1.429 . S
C1221 N1218 1.350 . S
C1221 C1220 1.434 . S
C1222 C1223 1.369 . S
C1222 C1224 1.419 . S
C1222 H1226 0.930 . S
C1223 C1222 1.369 . S
C1223 C1232 1.429 1_455 S
C1224 C1222 1.419 . S
C1224 C1225 1.363 . S
C1224 H1227 0.929 . S
C1225 C1224 1.363 . S
C1225 C1231 1.435 . S
H1226 C1222 0.930 . S
H1227 C1224 0.929 . S
S1228 N1229 1.613 . S
S1228 N1230 1.610 . S
N1229 S1228 1.613 . S
N1229 C1232 1.350 . S
N1230 S1228 1.610 . S
N1230 C1231 1.345 1_655 S
C1231 C1225 1.435 . S
C1231 N1230 1.345 1_455 S
C1231 C1232 1.432 1_455 S
C1232 C1223 1.429 1_655 S
C1232 N1229 1.350 . S
C1232 C1231 1.432 1_655 S
C1233 C1234 1.369 . S
C1233 C1235 1.419 . S
C1233 H1237 0.930 . S
C1234 C1233 1.369 . S
C1234 C1243 1.429 . S
C1235 C1233 1.419 . S
C1235 C1236 1.363 . S
C1235 H1238 0.929 . S
C1236 C1235 1.363 . S
C1236 C1242 1.428 . S
H1237 C1233 0.930 . S
H1238 C1235 0.929 . S
S1239 N1240 1.613 . S
S1239 N1241 1.610 . S
N1240 S1239 1.613 . S
N1240 C1243 1.350 . S
N1241 S1239 1.610 . S
N1241 C1242 1.351 . S
C1242 C1236 1.428 . S
C1242 N1241 1.351 . S
C1242 C1243 1.434 . S
C1243 C1234 1.429 . S
C1243 N1240 1.350 . S
C1243 C1242 1.434 . S
C1244 C1245 1.369 . S
C1244 C1246 1.419 . S
C1244 H1248 0.930 . S
C1245 C1244 1.369 . S
C1245 C1254 1.429 . S
C1246 C1244 1.419 . S
C1246 C1247 1.363 . S
C1246 H1249 0.929 . S
C1247 C1246 1.363 . S
C1247 C1253 1.428 . S
H1248 C1244 0.930 . S
H1249 C1246 0.929 . S
S1250 N1251 1.613 . S
S1250 N1252 1.610 . S
N1251 S1250 1.613 . S
N1251 C1254 1.350 . S
N1252 S1250 1.610 . S
N1252 C1253 1.351 . S
C1253 C1247 1.428 . S
C1253 N1252 1.351 . S
C1253 C1254 1.434 . S
C1254 C1245 1.429 . S
C1254 N1251 1.350 . S
C1254 C1253 1.434 . S
C1255 C1256 1.369 . S
C1255 C1257 1.419 . S
C1255 H1259 0.930 . S
C1256 C1255 1.369 . S
C1256 C1265 1.429 . S
C1257 C1255 1.419 . S
C1257 C1258 1.363 . S
C1257 H1260 0.929 . S
C1258 C1257 1.363 . S
C1258 C1264 1.428 . S
H1259 C1255 0.930 . S
H1260 C1257 0.929 . S
S1261 N1262 1.613 . S
S1261 N1263 1.610 . S
N1262 S1261 1.613 . S
N1262 C1265 1.350 . S
N1263 S1261 1.610 . S
N1263 C1264 1.351 . S
C1264 C1258 1.428 . S
C1264 N1263 1.351 . S
C1264 C1265 1.434 . S
C1265 C1256 1.429 . S
C1265 N1262 1.350 . S
C1265 C1264 1.434 . S
C1266 C1267 1.369 . S
C1266 C1268 1.419 . S
C1266 H1270 0.930 . S
C1267 C1266 1.369 . S
C1267 C1276 1.429 1_455 S
C1268 C1266 1.419 . S
C1268 C1269 1.363 . S
C1268 H1271 0.929 . S
C1269 C1268 1.363 . S
C1269 C1275 1.428 1_455 S
H1270 C1266 0.930 . S
H1271 C1268 0.929 . S
S1272 N1273 1.613 . S
S1272 N1274 1.610 . S
N1273 S1272 1.613 . S
N1273 C1276 1.350 . S
N1274 S1272 1.610 . S
N1274 C1275 1.351 . S
C1275 C1269 1.428 1_655 S
C1275 N1274 1.351 . S
C1275 C1276 1.434 . S
C1276 C1267 1.429 1_655 S
C1276 N1273 1.350 . S
C1276 C1275 1.434 . S
C1277 C1278 1.369 . S
C1277 C1279 1.419 . S
C1277 H1281 0.930 . S
C1278 C1277 1.369 . S
C1278 C1287 1.429 . S
C1279 C1277 1.419 . S
C1279 C1280 1.363 . S
C1279 H1282 0.929 . S
C1280 C1279 1.363 . S
C1280 C1286 1.428 . S
H1281 C1277 0.930 . S
H1282 C1279 0.929 . S
S1283 N1284 1.613 . S
S1283 N1285 1.610 . S
N1284 S1283 1.613 . S
N1284 C1287 1.350 . S
N1285 S1283 1.610 . S
N1285 C1286 1.351 . S
C1286 C1280 1.428 . S
C1286 N1285 1.351 . S
C1286 C1287 1.434 . S
C1287 C1278 1.429 . S
C1287 N1284 1.350 . S
C1287 C1286 1.434 . S
C1288 C1289 1.369 . S
C1288 C1290 1.419 . S
C1288 H1292 0.930 . S
C1289 C1288 1.369 . S
C1289 C1298 1.429 . S
C1290 C1288 1.419 . S
C1290 C1291 1.363 . S
C1290 H1293 0.929 . S
C1291 C1290 1.363 . S
C1291 C1297 1.428 . S
H1292 C1288 0.930 . S
H1293 C1290 0.929 . S
S1294 N1295 1.613 . S
S1294 N1296 1.610 . S
N1295 S1294 1.613 . S
N1295 C1298 1.350 . S
N1296 S1294 1.610 . S
N1296 C1297 1.351 . S
C1297 C1291 1.428 . S
C1297 N1296 1.351 . S
C1297 C1298 1.434 . S
C1298 C1289 1.429 . S
C1298 N1295 1.350 . S
C1298 C1297 1.434 . S
C1299 C1300 1.369 . S
C1299 C1301 1.419 . S
C1299 H1303 0.930 . S
C1300 C1299 1.369 . S
C1300 C1309 1.429 . S
C1301 C1299 1.419 . S
C1301 C1302 1.363 . S
C1301 H1304 0.929 . S
C1302 C1301 1.363 . S
C1302 C1308 1.428 . S
H1303 C1299 0.930 . S
H1304 C1301 0.929 . S
S1305 N1306 1.613 . S
S1305 N1307 1.610 . S
N1306 S1305 1.613 . S
N1306 C1309 1.350 . S
N1307 S1305 1.610 . S
N1307 C1308 1.351 . S
C1308 C1302 1.428 . S
C1308 N1307 1.351 . S
C1308 C1309 1.434 . S
C1309 C1300 1.429 . S
C1309 N1306 1.350 . S
C1309 C1308 1.434 . S
C1310 C1311 1.369 . S
C1310 C1312 1.419 . S
C1310 H1314 0.930 . S
C1311 C1310 1.369 . S
C1311 C1320 1.429 . S
C1312 C1310 1.419 . S
C1312 C1313 1.363 . S
C1312 H1315 0.929 . S
C1313 C1312 1.363 . S
C1313 C1319 1.428 . S
H1314 C1310 0.930 . S
H1315 C1312 0.929 . S
S1316 N1317 1.613 . S
S1316 N1318 1.610 . S
N1317 S1316 1.613 . S
N1317 C1320 1.350 . S
N1318 S1316 1.610 . S
N1318 C1319 1.351 . S
C1319 C1313 1.428 . S
C1319 N1318 1.351 . S
C1319 C1320 1.434 . S
C1320 C1311 1.429 . S
C1320 N1317 1.350 . S
C1320 C1319 1.434 . S
C1321 C1322 1.369 . S
C1321 C1323 1.419 . S
C1321 H1325 0.930 . S
C1322 C1321 1.369 . S
C1322 C1331 1.429 . S
C1323 C1321 1.419 . S
C1323 C1324 1.363 . S
C1323 H1326 0.929 . S
C1324 C1323 1.363 . S
C1324 C1330 1.428 . S
H1325 C1321 0.930 . S
H1326 C1323 0.929 . S
S1327 N1328 1.613 . S
S1327 N1329 1.610 . S
N1328 S1327 1.613 . S
N1328 C1331 1.350 . S
N1329 S1327 1.610 . S
N1329 C1330 1.351 . S
C1330 C1324 1.428 . S
C1330 N1329 1.351 . S
C1330 C1331 1.434 . S
C1331 C1322 1.429 . S
C1331 N1328 1.350 . S
C1331 C1330 1.434 . S
C1332 C1333 1.369 . S
C1332 C1334 1.419 . S
C1332 H1336 0.930 . S
C1333 C1332 1.369 . S
C1333 C1342 1.429 . S
C1334 C1332 1.419 . S
C1334 C1335 1.363 . S
C1334 H1337 0.929 . S
C1335 C1334 1.363 . S
C1335 C1341 1.428 . S
H1336 C1332 0.930 . S
H1337 C1334 0.929 . S
S1338 N1339 1.613 . S
S1338 N1340 1.610 . S
N1339 S1338 1.613 . S
N1339 C1342 1.350 . S
N1340 S1338 1.610 . S
N1340 C1341 1.351 . S
C1341 C1335 1.428 . S
C1341 N1340 1.351 . S
C1341 C1342 1.434 . S
C1342 C1333 1.429 . S
C1342 N1339 1.350 . S
C1342 C1341 1.434 . S
C1343 C1344 1.369 . S
C1343 C1345 1.419 . S
C1343 H1347 0.930 . S
C1344 C1343 1.369 . S
C1344 C1353 1.429 . S
C1345 C1343 1.419 . S
C1345 C1346 1.363 . S
C1345 H1348 0.929 . S
C1346 C1345 1.363 . S
C1346 C1352 1.428 . S
H1347 C1343 0.930 . S
H1348 C1345 0.929 . S
S1349 N1350 1.613 . S
S1349 N1351 1.610 . S
N1350 S1349 1.613 . S
N1350 C1353 1.350 . S
N1351 S1349 1.610 . S
N1351 C1352 1.351 . S
C1352 C1346 1.428 . S
C1352 N1351 1.351 . S
C1352 C1353 1.434 . S
C1353 C1344 1.429 . S
C1353 N1350 1.350 . S
C1353 C1352 1.434 . S
C1354 C1355 1.369 . S
C1354 C1356 1.419 . S
C1354 H1358 0.930 . S
C1355 C1354 1.369 . S
C1355 C1364 1.429 . S
C1356 C1354 1.419 . S
C1356 C1357 1.363 . S
C1356 H1359 0.929 . S
C1357 C1356 1.363 . S
C1357 C1363 1.428 . S
H1358 C1354 0.930 . S
H1359 C1356 0.929 . S
S1360 N1361 1.613 . S
S1360 N1362 1.610 . S
N1361 S1360 1.613 . S
N1361 C1364 1.350 . S
N1362 S1360 1.610 . S
N1362 C1363 1.351 . S
C1363 C1357 1.428 . S
C1363 N1362 1.351 . S
C1363 C1364 1.434 . S
C1364 C1355 1.429 . S
C1364 N1361 1.350 . S
C1364 C1363 1.434 . S
C1365 C1366 1.369 . S
C1365 C1367 1.419 . S
C1365 H1369 0.930 . S
C1366 C1365 1.369 . S
C1366 C1375 1.429 . S
C1367 C1365 1.419 . S
C1367 C1368 1.363 . S
C1367 H1370 0.929 . S
C1368 C1367 1.363 . S
C1368 C1374 1.428 . S
H1369 C1365 0.930 . S
H1370 C1367 0.929 . S
S1371 N1372 1.613 . S
S1371 N1373 1.610 . S
N1372 S1371 1.613 . S
N1372 C1375 1.350 . S
N1373 S1371 1.610 . S
N1373 C1374 1.351 . S
C1374 C1368 1.428 . S
C1374 N1373 1.351 . S
C1374 C1375 1.434 . S
C1375 C1366 1.429 . S
C1375 N1372 1.350 . S
C1375 C1374 1.434 . S
C1376 C1377 1.369 . S
C1376 C1378 1.419 . S
C1376 H1380 0.930 . S
C1377 C1376 1.369 . S
C1377 C1386 1.429 . S
C1378 C1376 1.419 . S
C1378 C1379 1.363 . S
C1378 H1381 0.929 . S
C1379 C1378 1.363 . S
C1379 C1385 1.428 . S
H1380 C1376 0.930 . S
H1381 C1378 0.929 . S
S1382 N1383 1.613 . S
S1382 N1384 1.610 . S
N1383 S1382 1.613 . S
N1383 C1386 1.350 . S
N1384 S1382 1.610 . S
N1384 C1385 1.351 . S
C1385 C1379 1.428 . S
C1385 N1384 1.351 . S
C1385 C1386 1.434 . S
C1386 C1377 1.429 . S
C1386 N1383 1.350 . S
C1386 C1385 1.434 . S
C1387 C1388 1.369 . S
C1387 C1389 1.419 . S
C1387 H1391 0.930 . S
C1388 C1387 1.369 . S
C1388 C1397 1.429 . S
C1389 C1387 1.419 . S
C1389 C1390 1.363 . S
C1389 H1392 0.929 . S
C1390 C1389 1.363 . S
C1390 C1396 1.428 . S
H1391 C1387 0.930 . S
H1392 C1389 0.929 . S
S1393 N1394 1.613 . S
S1393 N1395 1.610 . S
N1394 S1393 1.613 . S
N1394 C1397 1.350 . S
N1395 S1393 1.610 . S
N1395 C1396 1.351 . S
C1396 C1390 1.428 . S
C1396 N1395 1.351 . S
C1396 C1397 1.434 . S
C1397 C1388 1.429 . S
C1397 N1394 1.350 . S
C1397 C1396 1.434 . S
C1398 C1399 1.369 . S
C1398 C1400 1.419 . S
C1398 H1402 0.930 . S
C1399 C1398 1.369 . S
C1399 C1408 1.429 . S
C1400 C1398 1.419 . S
C1400 C1401 1.363 . S
C1400 H1403 0.929 . S
C1401 C1400 1.363 . S
C1401 C1407 1.428 . S
H1402 C1398 0.930 . S
H1403 C1400 0.929 . S
S1404 N1405 1.613 . S
S1404 N1406 1.610 . S
N1405 S1404 1.613 . S
N1405 C1408 1.350 . S
N1406 S1404 1.610 . S
N1406 C1407 1.351 . S
C1407 C1401 1.428 . S
C1407 N1406 1.351 . S
C1407 C1408 1.434 . S
C1408 C1399 1.429 . S
C1408 N1405 1.350 . S
C1408 C1407 1.434 . S
C1409 C1410 1.369 1_556 S
C1409 C1411 1.419 . S
C1409 H1413 0.930 . S
C1410 C1409 1.369 1_554 S
C1410 C1419 1.429 . S
C1411 C1409 1.419 . S
C1411 C1412 1.363 1_556 S
C1411 H1414 0.929 . S
C1412 C1411 1.363 1_554 S
C1412 C1418 1.428 . S
H1413 C1409 0.930 . S
H1414 C1411 0.929 . S
S1415 N1416 1.613 . S
S1415 N1417 1.610 . S
N1416 S1415 1.613 . S
N1416 C1419 1.350 . S
N1417 S1415 1.610 . S
N1417 C1418 1.351 . S
C1418 C1412 1.428 . S
C1418 N1417 1.351 . S
C1418 C1419 1.434 . S
C1419 C1410 1.429 . S
C1419 N1416 1.350 . S
C1419 C1418 1.434 . S
C1420 C1421 1.369 . S
C1420 C1422 1.419 . S
C1420 H1424 0.930 . S
C1421 C1420 1.369 . S
C1421 C1430 1.429 . S
C1422 C1420 1.419 . S
C1422 C1423 1.363 . S
C1422 H1425 0.929 . S
C1423 C1422 1.363 . S
C1423 C1429 1.428 . S
H1424 C1420 0.930 . S
H1425 C1422 0.929 . S
S1426 N1427 1.613 . S
S1426 N1428 1.610 . S
N1427 S1426 1.613 . S
N1427 C1430 1.350 . S
N1428 S1426 1.610 . S
N1428 C1429 1.351 . S
C1429 C1423 1.428 . S
C1429 N1428 1.351 . S
C1429 C1430 1.434 . S
C1430 C1421 1.429 . S
C1430 N1427 1.350 . S
C1430 C1429 1.434 . S
C1431 C1432 1.374 . S
C1431 C1433 1.419 . S
C1431 H1435 0.930 . S
C1432 C1431 1.374 . S
C1432 C1441 1.424 1_556 S
C1433 C1431 1.419 . S
C1433 C1434 1.363 . S
C1433 H1436 0.929 . S
C1434 C1433 1.363 . S
C1434 C1440 1.428 1_556 S
H1435 C1431 0.930 . S
H1436 C1433 0.929 . S
S1437 N1438 1.613 . S
S1437 N1439 1.610 . S
N1438 S1437 1.613 . S
N1438 C1441 1.350 . S
N1439 S1437 1.610 . S
N1439 C1440 1.351 . S
C1440 C1434 1.428 1_554 S
C1440 N1439 1.351 . S
C1440 C1441 1.434 . S
C1441 C1432 1.424 1_554 S
C1441 N1438 1.350 . S
C1441 C1440 1.434 . S
C1442 C1443 1.369 . S
C1442 C1444 1.419 . S
C1442 H1446 0.930 . S
C1443 C1442 1.369 . S
C1443 C1452 1.429 . S
C1444 C1442 1.419 . S
C1444 C1445 1.363 . S
C1444 H1447 0.929 . S
C1445 C1444 1.363 . S
C1445 C1451 1.428 . S
H1446 C1442 0.930 . S
H1447 C1444 0.929 . S
S1448 N1449 1.613 . S
S1448 N1450 1.610 . S
N1449 S1448 1.613 . S
N1449 C1452 1.350 . S
N1450 S1448 1.610 . S
N1450 C1451 1.351 . S
C1451 C1445 1.428 . S
C1451 N1450 1.351 . S
C1451 C1452 1.434 . S
C1452 C1443 1.429 . S
C1452 N1449 1.350 . S
C1452 C1451 1.434 . S
C1453 C1454 1.369 . S
C1453 C1455 1.419 . S
C1453 H1457 0.930 . S
C1454 C1453 1.369 . S
C1454 C1463 1.429 . S
C1455 C1453 1.419 . S
C1455 C1456 1.363 . S
C1455 H1458 0.929 . S
C1456 C1455 1.363 . S
C1456 C1462 1.428 . S
H1457 C1453 0.930 . S
H1458 C1455 0.929 . S
S1459 N1460 1.613 . S
S1459 N1461 1.610 . S
N1460 S1459 1.613 . S
N1460 C1463 1.350 . S
N1461 S1459 1.610 . S
N1461 C1462 1.351 . S
C1462 C1456 1.428 . S
C1462 N1461 1.351 . S
C1462 C1463 1.434 . S
C1463 C1454 1.429 . S
C1463 N1460 1.350 . S
C1463 C1462 1.434 . S
C1464 C1465 1.369 . S
C1464 C1466 1.419 . S
C1464 H1468 0.930 . S
C1465 C1464 1.369 . S
C1465 C1474 1.429 . S
C1466 C1464 1.419 . S
C1466 C1467 1.363 . S
C1466 H1469 0.929 . S
C1467 C1466 1.363 . S
C1467 C1473 1.428 . S
H1468 C1464 0.930 . S
H1469 C1466 0.929 . S
S1470 N1471 1.613 . S
S1470 N1472 1.610 . S
N1471 S1470 1.613 . S
N1471 C1474 1.350 . S
N1472 S1470 1.610 . S
N1472 C1473 1.351 . S
C1473 C1467 1.428 . S
C1473 N1472 1.351 . S
C1473 C1474 1.434 . S
C1474 C1465 1.429 . S
C1474 N1471 1.350 . S
C1474 C1473 1.434 . S
C1475 C1476 1.369 . S
C1475 C1477 1.419 . S
C1475 H1479 0.930 . S
C1476 C1475 1.369 . S
C1476 C1485 1.429 . S
C1477 C1475 1.419 . S
C1477 C1478 1.363 . S
C1477 H1480 0.929 . S
C1478 C1477 1.363 . S
C1478 C1484 1.428 . S
H1479 C1475 0.930 . S
H1480 C1477 0.929 . S
S1481 N1482 1.613 . S
S1481 N1483 1.610 . S
N1482 S1481 1.613 . S
N1482 C1485 1.350 . S
N1483 S1481 1.610 . S
N1483 C1484 1.351 . S
C1484 C1478 1.428 . S
C1484 N1483 1.351 . S
C1484 C1485 1.434 . S
C1485 C1476 1.429 . S
C1485 N1482 1.350 . S
C1485 C1484 1.434 . S
C1486 C1487 1.369 1_655 S
C1486 C1488 1.419 . S
C1486 H1490 0.930 . S
C1487 C1486 1.369 1_455 S
C1487 C1496 1.429 . S
C1488 C1486 1.419 . S
C1488 C1489 1.363 . S
C1488 H1491 0.929 . S
C1489 C1488 1.363 . S
C1489 C1495 1.428 1_655 S
H1490 C1486 0.930 . S
H1491 C1488 0.929 . S
S1492 N1493 1.613 . S
S1492 N1494 1.610 . S
N1493 S1492 1.613 . S
N1493 C1496 1.350 . S
N1494 S1492 1.610 . S
N1494 C1495 1.351 . S
C1495 C1489 1.428 1_455 S
C1495 N1494 1.351 . S
C1495 C1496 1.434 . S
C1496 C1487 1.429 . S
C1496 N1493 1.350 . S
C1496 C1495 1.434 . S
C1497 C1498 1.369 . S
C1497 C1499 1.419 . S
C1497 H1501 0.930 . S
C1498 C1497 1.369 . S
C1498 C1507 1.429 . S
C1499 C1497 1.419 . S
C1499 C1500 1.363 . S
C1499 H1502 0.929 . S
C1500 C1499 1.363 . S
C1500 C1506 1.428 . S
H1501 C1497 0.930 . S
H1502 C1499 0.929 . S
S1503 N1504 1.613 . S
S1503 N1505 1.610 . S
N1504 S1503 1.613 . S
N1504 C1507 1.350 . S
N1505 S1503 1.610 . S
N1505 C1506 1.351 . S
C1506 C1500 1.428 . S
C1506 N1505 1.351 . S
C1506 C1507 1.434 . S
C1507 C1498 1.429 . S
C1507 N1504 1.350 . S
C1507 C1506 1.434 . S
C1508 C1509 1.369 . S
C1508 C1510 1.419 . S
C1508 H1512 0.930 . S
C1509 C1508 1.369 . S
C1509 C1518 1.429 . S
C1510 C1508 1.419 . S
C1510 C1511 1.363 . S
C1510 H1513 0.929 . S
C1511 C1510 1.363 . S
C1511 C1517 1.428 . S
H1512 C1508 0.930 . S
H1513 C1510 0.929 . S
S1514 N1515 1.613 . S
S1514 N1516 1.610 . S
N1515 S1514 1.613 . S
N1515 C1518 1.350 . S
N1516 S1514 1.610 . S
N1516 C1517 1.351 . S
C1517 C1511 1.428 . S
C1517 N1516 1.351 . S
C1517 C1518 1.434 . S
C1518 C1509 1.429 . S
C1518 N1515 1.350 . S
C1518 C1517 1.434 . S
C1519 C1520 1.369 . S
C1519 C1521 1.419 . S
C1519 H1523 0.930 . S
C1520 C1519 1.369 . S
C1520 C1529 1.429 . S
C1521 C1519 1.419 . S
C1521 C1522 1.363 . S
C1521 H1524 0.929 . S
C1522 C1521 1.363 . S
C1522 C1528 1.428 . S
H1523 C1519 0.930 . S
H1524 C1521 0.929 . S
S1525 N1526 1.613 . S
S1525 N1527 1.610 . S
N1526 S1525 1.613 . S
N1526 C1529 1.350 . S
N1527 S1525 1.610 . S
N1527 C1528 1.351 . S
C1528 C1522 1.428 . S
C1528 N1527 1.351 . S
C1528 C1529 1.434 . S
C1529 C1520 1.429 . S
C1529 N1526 1.350 . S
C1529 C1528 1.434 . S
C1530 C1531 1.369 . S
C1530 C1532 1.419 . S
C1530 H1534 0.930 . S
C1531 C1530 1.369 . S
C1531 C1540 1.429 1_455 S
C1532 C1530 1.419 . S
C1532 C1533 1.363 1_455 S
C1532 H1535 0.929 . S
C1533 C1532 1.363 1_655 S
C1533 C1539 1.428 . S
H1534 C1530 0.930 . S
H1535 C1532 0.929 . S
S1536 N1537 1.613 . S
S1536 N1538 1.610 . S
N1537 S1536 1.613 . S
N1537 C1540 1.350 . S
N1538 S1536 1.610 . S
N1538 C1539 1.351 . S
C1539 C1533 1.428 . S
C1539 N1538 1.351 . S
C1539 C1540 1.434 . S
C1540 C1531 1.429 1_655 S
C1540 N1537 1.350 . S
C1540 C1539 1.434 . S
C1541 C1542 1.369 . S
C1541 C1543 1.419 . S
C1541 H1545 0.930 . S
C1542 C1541 1.369 . S
C1542 C1551 1.429 . S
C1543 C1541 1.419 . S
C1543 C1544 1.363 . S
C1543 H1546 0.929 . S
C1544 C1543 1.363 . S
C1544 C1550 1.428 . S
H1545 C1541 0.930 . S
H1546 C1543 0.929 . S
S1547 N1548 1.613 . S
S1547 N1549 1.610 . S
N1548 S1547 1.613 . S
N1548 C1551 1.350 . S
N1549 S1547 1.610 . S
N1549 C1550 1.351 . S
C1550 C1544 1.428 . S
C1550 N1549 1.351 . S
C1550 C1551 1.434 . S
C1551 C1542 1.429 . S
C1551 N1548 1.350 . S
C1551 C1550 1.434 . S
C1552 C1553 1.369 . S
C1552 C1554 1.419 . S
C1552 H1556 0.930 . S
C1553 C1552 1.369 . S
C1553 C1562 1.429 . S
C1554 C1552 1.419 . S
C1554 C1555 1.363 . S
C1554 H1557 0.929 . S
C1555 C1554 1.363 . S
C1555 C1561 1.428 . S
H1556 C1552 0.930 . S
H1557 C1554 0.929 . S
S1558 N1559 1.613 . S
S1558 N1560 1.610 . S
N1559 S1558 1.613 . S
N1559 C1562 1.350 . S
N1560 S1558 1.610 . S
N1560 C1561 1.351 . S
C1561 C1555 1.428 . S
C1561 N1560 1.351 . S
C1561 C1562 1.434 . S
C1562 C1553 1.429 . S
C1562 N1559 1.350 . S
C1562 C1561 1.434 . S
C1563 C1564 1.369 . S
C1563 C1565 1.419 . S
C1563 H1567 0.930 . S
C1564 C1563 1.369 . S
C1564 C1573 1.429 . S
C1565 C1563 1.419 . S
C1565 C1566 1.363 . S
C1565 H1568 0.929 . S
C1566 C1565 1.363 . S
C1566 C1572 1.428 . S
H1567 C1563 0.930 . S
H1568 C1565 0.929 . S
S1569 N1570 1.613 . S
S1569 N1571 1.610 . S
N1570 S1569 1.613 . S
N1570 C1573 1.350 . S
N1571 S1569 1.610 . S
N1571 C1572 1.351 . S
C1572 C1566 1.428 . S
C1572 N1571 1.351 . S
C1572 C1573 1.434 . S
C1573 C1564 1.429 . S
C1573 N1570 1.350 . S
C1573 C1572 1.434 . S
C1574 C1575 1.369 . S
C1574 C1576 1.419 . S
C1574 H1578 0.930 . S
C1575 C1574 1.369 . S
C1575 C1584 1.429 . S
C1576 C1574 1.419 . S
C1576 C1577 1.363 . S
C1576 H1579 0.929 . S
C1577 C1576 1.363 . S
C1577 C1583 1.428 . S
H1578 C1574 0.930 . S
H1579 C1576 0.929 . S
S1580 N1581 1.613 . S
S1580 N1582 1.610 . S
N1581 S1580 1.613 . S
N1581 C1584 1.350 . S
N1582 S1580 1.610 . S
N1582 C1583 1.351 . S
C1583 C1577 1.428 . S
C1583 N1582 1.351 . S
C1583 C1584 1.434 . S
C1584 C1575 1.429 . S
C1584 N1581 1.350 . S
C1584 C1583 1.434 . S
C1585 C1586 1.369 . S
C1585 C1587 1.419 . S
C1585 H1589 0.930 . S
C1586 C1585 1.369 . S
C1586 C1595 1.429 . S
C1587 C1585 1.419 . S
C1587 C1588 1.363 . S
C1587 H1590 0.929 . S
C1588 C1587 1.363 . S
C1588 C1594 1.428 . S
H1589 C1585 0.930 . S
H1590 C1587 0.929 . S
S1591 N1592 1.613 . S
S1591 N1593 1.610 . S
N1592 S1591 1.613 . S
N1592 C1595 1.350 . S
N1593 S1591 1.610 . S
N1593 C1594 1.351 . S
C1594 C1588 1.428 . S
C1594 N1593 1.351 . S
C1594 C1595 1.434 . S
C1595 C1586 1.429 . S
C1595 N1592 1.350 . S
C1595 C1594 1.434 . S
C1596 C1597 1.369 . S
C1596 C1598 1.419 . S
C1596 H1600 0.930 . S
C1597 C1596 1.369 . S
C1597 C1606 1.429 . S
C1598 C1596 1.419 . S
C1598 C1599 1.363 . S
C1598 H1601 0.929 . S
C1599 C1598 1.363 . S
C1599 C1605 1.428 . S
H1600 C1596 0.930 . S
H1601 C1598 0.929 . S
S1602 N1603 1.613 . S
S1602 N1604 1.610 . S
N1603 S1602 1.613 . S
N1603 C1606 1.350 . S
N1604 S1602 1.610 . S
N1604 C1605 1.351 . S
C1605 C1599 1.428 . S
C1605 N1604 1.351 . S
C1605 C1606 1.434 . S
C1606 C1597 1.429 . S
C1606 N1603 1.350 . S
C1606 C1605 1.434 . S
C1607 C1608 1.369 . S
C1607 C1609 1.419 . S
C1607 H1611 0.930 . S
C1608 C1607 1.369 . S
C1608 C1617 1.429 . S
C1609 C1607 1.419 . S
C1609 C1610 1.363 . S
C1609 H1612 0.929 . S
C1610 C1609 1.363 . S
C1610 C1616 1.428 . S
H1611 C1607 0.930 . S
H1612 C1609 0.929 . S
S1613 N1614 1.613 . S
S1613 N1615 1.610 . S
N1614 S1613 1.613 . S
N1614 C1617 1.350 . S
N1615 S1613 1.610 . S
N1615 C1616 1.351 . S
C1616 C1610 1.428 . S
C1616 N1615 1.351 . S
C1616 C1617 1.434 . S
C1617 C1608 1.429 . S
C1617 N1614 1.350 . S
C1617 C1616 1.434 . S
C1618 C1619 1.369 . S
C1618 C1620 1.419 . S
C1618 H1622 0.930 . S
C1619 C1618 1.369 . S
C1619 C1628 1.429 . S
C1620 C1618 1.419 . S
C1620 C1621 1.363 . S
C1620 H1623 0.929 . S
C1621 C1620 1.363 . S
C1621 C1627 1.428 . S
H1622 C1618 0.930 . S
H1623 C1620 0.929 . S
S1624 N1625 1.613 1_655 S
S1624 N1626 1.610 . S
N1625 S1624 1.613 1_455 S
N1625 C1628 1.350 . S
N1626 S1624 1.610 . S
N1626 C1627 1.351 1_655 S
C1627 C1621 1.428 . S
C1627 N1626 1.351 1_455 S
C1627 C1628 1.434 . S
C1628 C1619 1.429 . S
C1628 N1625 1.350 . S
C1628 C1627 1.434 . S
C1629 C1630 1.369 . S
C1629 C1631 1.419 . S
C1629 H1633 0.930 . S
C1630 C1629 1.369 . S
C1630 C1639 1.429 . S
C1631 C1629 1.419 . S
C1631 C1632 1.363 . S
C1631 H1634 0.929 . S
C1632 C1631 1.363 . S
C1632 C1638 1.428 . S
H1633 C1629 0.930 . S
H1634 C1631 0.929 . S
S1635 N1636 1.613 . S
S1635 N1637 1.610 . S
N1636 S1635 1.613 . S
N1636 C1639 1.350 . S
N1637 S1635 1.610 . S
N1637 C1638 1.351 . S
C1638 C1632 1.428 . S
C1638 N1637 1.351 . S
C1638 C1639 1.434 . S
C1639 C1630 1.429 . S
C1639 N1636 1.350 . S
C1639 C1638 1.434 . S
C1640 C1641 1.369 . S
C1640 C1642 1.419 . S
C1640 H1644 0.930 . S
C1641 C1640 1.369 . S
C1641 C1650 1.429 . S
C1642 C1640 1.419 . S
C1642 C1643 1.363 . S
C1642 H1645 0.929 . S
C1643 C1642 1.363 . S
C1643 C1649 1.428 . S
H1644 C1640 0.930 . S
H1645 C1642 0.929 . S
S1646 N1647 1.613 . S
S1646 N1648 1.610 . S
N1647 S1646 1.613 . S
N1647 C1650 1.350 . S
N1648 S1646 1.610 . S
N1648 C1649 1.351 . S
C1649 C1643 1.428 . S
C1649 N1648 1.351 . S
C1649 C1650 1.434 . S
C1650 C1641 1.429 . S
C1650 N1647 1.350 . S
C1650 C1649 1.434 . S
C1651 C1652 1.369 . S
C1651 C1653 1.419 . S
C1651 H1655 0.930 . S
C1652 C1651 1.369 . S
C1652 C1661 1.429 . S
C1653 C1651 1.419 . S
C1653 C1654 1.363 . S
C1653 H1656 0.929 . S
C1654 C1653 1.363 . S
C1654 C1660 1.428 . S
H1655 C1651 0.930 . S
H1656 C1653 0.929 . S
S1657 N1658 1.613 1_565 S
S1657 N1659 1.610 . S
N1658 S1657 1.613 1_545 S
N1658 C1661 1.350 . S
N1659 S1657 1.610 . S
N1659 C1660 1.351 1_565 S
C1660 C1654 1.428 . S
C1660 N1659 1.351 1_545 S
C1660 C1661 1.434 . S
C1661 C1652 1.429 . S
C1661 N1658 1.350 . S
C1661 C1660 1.434 . S
C1662 C1663 1.369 . S
C1662 C1664 1.419 . S
C1662 H1666 0.930 . S
C1663 C1662 1.369 . S
C1663 C1672 1.429 . S
C1664 C1662 1.419 . S
C1664 C1665 1.363 . S
C1664 H1667 0.929 . S
C1665 C1664 1.363 . S
C1665 C1671 1.428 . S
H1666 C1662 0.930 . S
H1667 C1664 0.929 . S
S1668 N1669 1.613 . S
S1668 N1670 1.610 . S
N1669 S1668 1.613 . S
N1669 C1672 1.350 . S
N1670 S1668 1.610 . S
N1670 C1671 1.351 . S
C1671 C1665 1.428 . S
C1671 N1670 1.351 . S
C1671 C1672 1.434 . S
C1672 C1663 1.429 . S
C1672 N1669 1.350 . S
C1672 C1671 1.434 . S
C1673 C1674 1.369 . S
C1673 C1675 1.419 . S
C1673 H1677 0.930 . S
C1674 C1673 1.369 . S
C1674 C1683 1.429 1_554 S
C1675 C1673 1.419 . S
C1675 C1676 1.363 1_554 S
C1675 H1678 0.929 . S
C1676 C1675 1.363 1_556 S
C1676 C1682 1.428 . S
H1677 C1673 0.930 . S
H1678 C1675 0.929 . S
S1679 N1680 1.613 . S
S1679 N1681 1.610 . S
N1680 S1679 1.613 . S
N1680 C1683 1.350 . S
N1681 S1679 1.610 . S
N1681 C1682 1.351 . S
C1682 C1676 1.428 . S
C1682 N1681 1.351 . S
C1682 C1683 1.434 . S
C1683 C1674 1.429 1_556 S
C1683 N1680 1.350 . S
C1683 C1682 1.434 . S
C1684 C1685 1.369 . S
C1684 C1686 1.419 . S
C1684 H1688 0.930 . S
C1685 C1684 1.369 . S
C1685 C1694 1.429 . S
C1686 C1684 1.419 . S
C1686 C1687 1.363 . S
C1686 H1689 0.929 . S
C1687 C1686 1.363 . S
C1687 C1693 1.428 . S
H1688 C1684 0.930 . S
H1689 C1686 0.929 . S
S1690 N1691 1.613 . S
S1690 N1692 1.610 . S
N1691 S1690 1.613 . S
N1691 C1694 1.350 . S
N1692 S1690 1.610 . S
N1692 C1693 1.351 . S
C1693 C1687 1.428 . S
C1693 N1692 1.351 . S
C1693 C1694 1.434 . S
C1694 C1685 1.429 . S
C1694 N1691 1.350 . S
C1694 C1693 1.434 . S
C1695 C1696 1.369 . S
C1695 C1697 1.419 . S
C1695 H1699 0.930 . S
C1696 C1695 1.369 . S
C1696 C1705 1.429 1_554 S
C1697 C1695 1.419 . S
C1697 C1698 1.363 . S
C1697 H1700 0.929 . S
C1698 C1697 1.363 . S
C1698 C1704 1.428 1_554 S
H1699 C1695 0.930 . S
H1700 C1697 0.929 . S
S1701 N1702 1.613 . S
S1701 N1703 1.610 . S
N1702 S1701 1.613 . S
N1702 C1705 1.350 . S
N1703 S1701 1.610 . S
N1703 C1704 1.351 . S
C1704 C1698 1.428 1_556 S
C1704 N1703 1.351 . S
C1704 C1705 1.434 . S
C1705 C1696 1.429 1_556 S
C1705 N1702 1.350 . S
C1705 C1704 1.434 . S
C1706 C1707 1.369 . S
C1706 C1708 1.419 . S
C1706 H1710 0.930 . S
C1707 C1706 1.369 . S
C1707 C1716 1.429 . S
C1708 C1706 1.419 . S
C1708 C1709 1.363 . S
C1708 H1711 0.929 . S
C1709 C1708 1.363 . S
C1709 C1715 1.428 . S
H1710 C1706 0.930 . S
H1711 C1708 0.929 . S
S1712 N1713 1.613 . S
S1712 N1714 1.610 . S
N1713 S1712 1.613 . S
N1713 C1716 1.350 . S
N1714 S1712 1.610 . S
N1714 C1715 1.351 . S
C1715 C1709 1.428 . S
C1715 N1714 1.351 . S
C1715 C1716 1.434 . S
C1716 C1707 1.429 . S
C1716 N1713 1.350 . S
C1716 C1715 1.434 . S
C1717 C1718 1.369 . S
C1717 C1719 1.419 . S
C1717 H1721 0.930 . S
C1718 C1717 1.369 . S
C1718 C1727 1.429 . S
C1719 C1717 1.419 . S
C1719 C1720 1.363 . S
C1719 H1722 0.929 . S
C1720 C1719 1.363 . S
C1720 C1726 1.428 . S
H1721 C1717 0.930 . S
H1722 C1719 0.929 . S
S1723 N1724 1.613 . S
S1723 N1725 1.610 . S
N1724 S1723 1.613 . S
N1724 C1727 1.350 . S
N1725 S1723 1.610 . S
N1725 C1726 1.351 . S
C1726 C1720 1.428 . S
C1726 N1725 1.351 . S
C1726 C1727 1.434 . S
C1727 C1718 1.429 . S
C1727 N1724 1.350 . S
C1727 C1726 1.434 . S
C675 C351 1.326 . S
C673 C5 1.428 . S
C684 C23 1.303 . S
C686 C370 1.268 . S
C695 C39 1.385 . S
C697 C393 1.306 . S
C708 C413 1.372 . S
C706 C42 1.393 . S
C717 C19 1.417 . S
C719 C434 1.389 . S
C730 C456 1.383 . S
C728 C28 1.458 . S
C741 C478 1.237 . S
C739 C53 1.270 . S
C750 C9 1.398 . S
C752 C496 1.348 . S
C761 C65 1.421 . S
C763 C352 1.377 . S
C772 C75 1.415 . S
C774 C371 1.393 . S
C785 C394 1.310 . S
C783 C93 1.340 . S
C796 C417 1.342 . S
C794 C109 1.409 . S
C805 C56 1.478 . S
C807 C438 1.388 . S
C818 C457 1.180 . S
C816 C81 1.222 . S
C829 C479 1.398 . S
C827 C84 1.426 1_545 S
C840 C497 1.357 . S
C838 C103 1.381 . S
C851 C353 1.357 . S
C849 C107 1.376 . S
C862 C520 1.250 . S
C860 C121 1.293 . S
C871 C131 1.433 . S
C873 C542 1.410 . S
C884 C561 1.384 . S
C882 C140 1.465 . S
C893 C61 1.439 . S
C895 C501 1.325 . S
C906 C395 1.374 . S
C904 C70 1.388 . S
C915 C137 1.254 . S
C917 C583 1.225 . S
C928 C606 1.275 . S
C926 C165 1.362 . S
C937 C173 1.401 . S
C939 C354 1.307 . S
C950 C605 1.283 . S
C948 C182 1.316 . S
C959 C207 1.433 . S
C961 C396 1.346 . S
C970 C219 1.317 . S
C972 C580 1.273 . S
C983 C436 1.288 . S
C981 C187 1.325 . S
C994 C543 1.339 . S
C992 C205 1.446 . S
C1005 C476 1.304 . S
C1003 C221 1.328 . S
C1016 C626 1.397 . S
C1014 C168 1.428 . S
C1027 C350 1.425 . S
C1025 C224 1.458 1_545 S
C1036 C243 1.309 . S
C1038 C604 1.269 . S
C1049 C392 1.324 . S
C1047 C252 1.352 . S
C1058 C277 1.368 . S
C1060 C585 1.307 . S
C1069 C233 1.473 1_565 S
C1071 C435 1.365 . S
C1080 C249 1.304 . S
C1082 C539 1.267 . S
C1093 C475 1.295 . S
C1091 C261 1.345 . S
C1102 C271 1.330 . S
C1104 C625 1.291 . S
C1113 C266 1.320 . S
C1115 C349 1.285 . S
C1124 C280 1.356 . S
C1126 C518 1.319 . S
C1135 C299 1.336 . S
C1137 C454 1.297 . S
C1146 C317 1.429 . S
C1148 C564 1.339 . S
C1159 C624 1.312 . S
C1157 C229 1.411 . S
C1170 C391 1.265 . S
C1168 C247 1.313 . S
C1181 C416 1.292 . S
C1179 C305 1.319 . S
C1192 C372 1.332 . S
C1190 C333 1.422 . S
C1201 C33 1.427 . S
C1203 C648 1.321 . S
C1214 C601 1.261 . S
C1212 C51 1.300 . S
C1225 C666 1.308 . S
C1223 C11 1.385 . S
C1234 C14 1.396 . S
C1236 C584 1.373 . S
C1245 C47 1.419 . S
C1247 C521 1.395 . S
C1258 C540 1.383 . S
C1256 C0 1.460 . S
C1269 C562 1.234 . S
C1267 C25 1.272 . S
C1280 C622 1.343 . S
C1278 C37 1.399 . S
C1291 C643 1.379 . S
C1289 C163 1.421 . S
C1300 C117 1.418 . S
C1302 C602 1.398 . S
C1311 C135 1.345 . S
C1313 C667 1.311 . S
C1324 C582 1.339 . S
C1322 C151 1.409 . S
C1335 C519 1.378 . S
C1333 C154 1.475 . S
C1344 C123 1.222 . S
C1346 C541 1.178 . S
C1357 C563 1.398 . S
C1355 C126 1.426 . S
C1366 C145 1.383 . S
C1368 C623 1.363 . S
C1379 C644 1.353 . S
C1377 C149 1.376 . S
C1390 C433 1.250 . S
C1388 C79 1.292 . S
C1401 C458 1.412 . S
C1399 C89 1.435 . S
C1410 C98 1.466 . S
C1412 C477 1.380 . S
C1423 C627 1.333 . S
C1421 C159 1.440 . S
C1432 C112 1.385 . S
C1434 C668 1.369 . S
C1445 C412 1.222 . S
C1443 C95 1.258 . S
C1456 C375 1.278 . S
C1454 C67 1.360 . S
C1465 C201 1.401 . S
C1467 C645 1.307 . S
C1478 C374 1.283 . S
C1476 C210 1.317 . S
C1489 C669 1.355 . S
C1487 C179 1.436 . S
C1498 C191 1.317 . S
C1500 C415 1.273 . S
C1509 C215 1.329 . S
C1511 C517 1.283 . S
C1520 C177 1.446 . S
C1522 C459 1.339 . S
C1531 C193 1.328 . S
C1533 C560 1.306 . S
C1542 C196 1.427 . S
C1544 C500 1.401 . S
C1555 C647 1.425 . S
C1553 C322 1.458 . S
C1564 C285 1.307 . S
C1566 C373 1.270 . S
C1577 C665 1.321 . S
C1575 C294 1.353 . S
C1586 C319 1.367 . S
C1588 C414 1.306 . S
C1597 C331 1.475 . S
C1599 C522 1.363 . S
C1610 C455 1.274 . S
C1608 C291 1.304 . S
C1619 C303 1.345 . S
C1621 C559 1.296 . S
C1632 C499 1.292 . S
C1630 C313 1.331 . S
C1643 C646 1.277 . S
C1641 C308 1.318 . S
C1654 C437 1.325 . S
C1652 C238 1.353 . S
C1663 C257 1.338 . S
C1665 C538 1.294 . S
C1676 C480 1.340 . S
C1674 C275 1.430 . S
C1687 C498 1.317 . S
C1685 C327 1.412 . S
C1696 C289 1.310 1_554 S
C1698 C664 1.266 . S
C1709 C581 1.297 . S
C1707 C263 1.317 . S
C1720 C603 1.339 . S
C1718 C235 1.424 . S
