# Generated by pormake.
# Topology tph, (6,8)-cn, num edge types: 1
# Building blocks:
#     Node 0, Type 0, BuildingBlock: IZENUY_clean_sbu_0, # of connection points: 6
#     Node 1, Type 0, BuildingBlock: IZENUY_clean_sbu_0, # of connection points: 6
#     Node 2, Type 0, BuildingBlock: IZENUY_clean_sbu_0, # of connection points: 6
#     Node 3, Type 0, BuildingBlock: IZENUY_clean_sbu_0, # of connection points: 6
#     Node 4, Type 0, BuildingBlock: IZENUY_clean_sbu_0, # of connection points: 6
#     Node 5, Type 0, BuildingBlock: IZENUY_clean_sbu_0, # of connection points: 6
#     Node 6, Type 0, BuildingBlock: IZENUY_clean_sbu_0, # of connection points: 6
#     Node 7, Type 0, BuildingBlock: IZENUY_clean_sbu_0, # of connection points: 6
#     Node 8, Type 0, BuildingBlock: IZENUY_clean_sbu_0, # of connection points: 6
#     Node 9, Type 0, BuildingBlock: IZENUY_clean_sbu_0, # of connection points: 6
#     Node 10, Type 0, BuildingBlock: IZENUY_clean_sbu_0, # of connection points: 6
#     Node 11, Type 0, BuildingBlock: IZENUY_clean_sbu_0, # of connection points: 6
#     Node 12, Type 0, BuildingBlock: IZENUY_clean_sbu_0, # of connection points: 6
#     Node 13, Type 0, BuildingBlock: IZENUY_clean_sbu_0, # of connection points: 6
#     Node 14, Type 0, BuildingBlock: IZENUY_clean_sbu_0, # of connection points: 6
#     Node 15, Type 0, BuildingBlock: IZENUY_clean_sbu_0, # of connection points: 6
#     Node 16, Type 1, BuildingBlock: TAGTUT_clean_sbu_1, # of connection points: 8
#     Node 17, Type 1, BuildingBlock: TAGTUT_clean_sbu_1, # of connection points: 8
#     Node 18, Type 1, BuildingBlock: TAGTUT_clean_sbu_1, # of connection points: 8
#     Node 19, Type 1, BuildingBlock: TAGTUT_clean_sbu_1, # of connection points: 8
#     Node 20, Type 1, BuildingBlock: TAGTUT_clean_sbu_1, # of connection points: 8
#     Node 21, Type 1, BuildingBlock: TAGTUT_clean_sbu_1, # of connection points: 8
#     Node 22, Type 1, BuildingBlock: TAGTUT_clean_sbu_1, # of connection points: 8
#     Node 23, Type 1, BuildingBlock: TAGTUT_clean_sbu_1, # of connection points: 8
#     Node 24, Type 1, BuildingBlock: TAGTUT_clean_sbu_1, # of connection points: 8
#     Node 25, Type 1, BuildingBlock: TAGTUT_clean_sbu_1, # of connection points: 8
#     Node 26, Type 1, BuildingBlock: TAGTUT_clean_sbu_1, # of connection points: 8
#     Node 27, Type 1, BuildingBlock: TAGTUT_clean_sbu_1, # of connection points: 8
#     Edge 28, Type (0, 1), BuildingBlock: OJICUG_clean_linker_0, # of connection points: 2
#     Edge 29, Type (0, 1), BuildingBlock: OJICUG_clean_linker_0, # of connection points: 2
#     Edge 30, Type (0, 1), BuildingBlock: OJICUG_clean_linker_0, # of connection points: 2
#     Edge 31, Type (0, 1), BuildingBlock: OJICUG_clean_linker_0, # of connection points: 2
#     Edge 32, Type (0, 1), BuildingBlock: OJICUG_clean_linker_0, # of connection points: 2
#     Edge 33, Type (0, 1), BuildingBlock: OJICUG_clean_linker_0, # of connection points: 2
#     Edge 34, Type (0, 1), BuildingBlock: OJICUG_clean_linker_0, # of connection points: 2
#     Edge 35, Type (0, 1), BuildingBlock: OJICUG_clean_linker_0, # of connection points: 2
#     Edge 36, Type (0, 1), BuildingBlock: OJICUG_clean_linker_0, # of connection points: 2
#     Edge 37, Type (0, 1), BuildingBlock: OJICUG_clean_linker_0, # of connection points: 2
#     Edge 38, Type (0, 1), BuildingBlock: OJICUG_clean_linker_0, # of connection points: 2
#     Edge 39, Type (0, 1), BuildingBlock: OJICUG_clean_linker_0, # of connection points: 2
#     Edge 40, Type (0, 1), BuildingBlock: OJICUG_clean_linker_0, # of connection points: 2
#     Edge 41, Type (0, 1), BuildingBlock: OJICUG_clean_linker_0, # of connection points: 2
#     Edge 42, Type (0, 1), BuildingBlock: OJICUG_clean_linker_0, # of connection points: 2
#     Edge 43, Type (0, 1), BuildingBlock: OJICUG_clean_linker_0, # of connection points: 2
#     Edge 44, Type (0, 1), BuildingBlock: OJICUG_clean_linker_0, # of connection points: 2
#     Edge 45, Type (0, 1), BuildingBlock: OJICUG_clean_linker_0, # of connection points: 2
#     Edge 46, Type (0, 1), BuildingBlock: OJICUG_clean_linker_0, # of connection points: 2
#     Edge 47, Type (0, 1), BuildingBlock: OJICUG_clean_linker_0, # of connection points: 2
#     Edge 48, Type (0, 1), BuildingBlock: OJICUG_clean_linker_0, # of connection points: 2
#     Edge 49, Type (0, 1), BuildingBlock: OJICUG_clean_linker_0, # of connection points: 2
#     Edge 50, Type (0, 1), BuildingBlock: OJICUG_clean_linker_0, # of connection points: 2
#     Edge 51, Type (0, 1), BuildingBlock: OJICUG_clean_linker_0, # of connection points: 2
#     Edge 52, Type (0, 1), BuildingBlock: OJICUG_clean_linker_0, # of connection points: 2
#     Edge 53, Type (0, 1), BuildingBlock: OJICUG_clean_linker_0, # of connection points: 2
#     Edge 54, Type (0, 1), BuildingBlock: OJICUG_clean_linker_0, # of connection points: 2
#     Edge 55, Type (0, 1), BuildingBlock: OJICUG_clean_linker_0, # of connection points: 2
#     Edge 56, Type (0, 1), BuildingBlock: OJICUG_clean_linker_0, # of connection points: 2
#     Edge 57, Type (0, 1), BuildingBlock: OJICUG_clean_linker_0, # of connection points: 2
#     Edge 58, Type (0, 1), BuildingBlock: OJICUG_clean_linker_0, # of connection points: 2
#     Edge 59, Type (0, 1), BuildingBlock: OJICUG_clean_linker_0, # of connection points: 2
#     Edge 60, Type (0, 1), BuildingBlock: OJICUG_clean_linker_0, # of connection points: 2
#     Edge 61, Type (0, 1), BuildingBlock: OJICUG_clean_linker_0, # of connection points: 2
#     Edge 62, Type (0, 1), BuildingBlock: OJICUG_clean_linker_0, # of connection points: 2
#     Edge 63, Type (0, 1), BuildingBlock: OJICUG_clean_linker_0, # of connection points: 2
#     Edge 64, Type (0, 1), BuildingBlock: OJICUG_clean_linker_0, # of connection points: 2
#     Edge 65, Type (0, 1), BuildingBlock: OJICUG_clean_linker_0, # of connection points: 2
#     Edge 66, Type (0, 1), BuildingBlock: OJICUG_clean_linker_0, # of connection points: 2
#     Edge 67, Type (0, 1), BuildingBlock: OJICUG_clean_linker_0, # of connection points: 2
#     Edge 68, Type (0, 1), BuildingBlock: OJICUG_clean_linker_0, # of connection points: 2
#     Edge 69, Type (0, 1), BuildingBlock: OJICUG_clean_linker_0, # of connection points: 2
#     Edge 70, Type (0, 1), BuildingBlock: OJICUG_clean_linker_0, # of connection points: 2
#     Edge 71, Type (0, 1), BuildingBlock: OJICUG_clean_linker_0, # of connection points: 2
#     Edge 72, Type (0, 1), BuildingBlock: OJICUG_clean_linker_0, # of connection points: 2
#     Edge 73, Type (0, 1), BuildingBlock: OJICUG_clean_linker_0, # of connection points: 2
#     Edge 74, Type (0, 1), BuildingBlock: OJICUG_clean_linker_0, # of connection points: 2
#     Edge 75, Type (0, 1), BuildingBlock: OJICUG_clean_linker_0, # of connection points: 2
#     Edge 76, Type (0, 1), BuildingBlock: OJICUG_clean_linker_0, # of connection points: 2
#     Edge 77, Type (0, 1), BuildingBlock: OJICUG_clean_linker_0, # of connection points: 2
#     Edge 78, Type (0, 1), BuildingBlock: OJICUG_clean_linker_0, # of connection points: 2
#     Edge 79, Type (0, 1), BuildingBlock: OJICUG_clean_linker_0, # of connection points: 2
#     Edge 80, Type (0, 1), BuildingBlock: OJICUG_clean_linker_0, # of connection points: 2
#     Edge 81, Type (0, 1), BuildingBlock: OJICUG_clean_linker_0, # of connection points: 2
#     Edge 82, Type (0, 1), BuildingBlock: OJICUG_clean_linker_0, # of connection points: 2
#     Edge 83, Type (0, 1), BuildingBlock: OJICUG_clean_linker_0, # of connection points: 2
#     Edge 84, Type (0, 1), BuildingBlock: OJICUG_clean_linker_0, # of connection points: 2
#     Edge 85, Type (0, 1), BuildingBlock: OJICUG_clean_linker_0, # of connection points: 2
#     Edge 86, Type (0, 1), BuildingBlock: OJICUG_clean_linker_0, # of connection points: 2
#     Edge 87, Type (0, 1), BuildingBlock: OJICUG_clean_linker_0, # of connection points: 2
#     Edge 88, Type (0, 1), BuildingBlock: OJICUG_clean_linker_0, # of connection points: 2
#     Edge 89, Type (0, 1), BuildingBlock: OJICUG_clean_linker_0, # of connection points: 2
#     Edge 90, Type (0, 1), BuildingBlock: OJICUG_clean_linker_0, # of connection points: 2
#     Edge 91, Type (0, 1), BuildingBlock: OJICUG_clean_linker_0, # of connection points: 2
#     Edge 92, Type (0, 1), BuildingBlock: OJICUG_clean_linker_0, # of connection points: 2
#     Edge 93, Type (0, 1), BuildingBlock: OJICUG_clean_linker_0, # of connection points: 2
#     Edge 94, Type (0, 1), BuildingBlock: OJICUG_clean_linker_0, # of connection points: 2
#     Edge 95, Type (0, 1), BuildingBlock: OJICUG_clean_linker_0, # of connection points: 2
#     Edge 96, Type (0, 1), BuildingBlock: OJICUG_clean_linker_0, # of connection points: 2
#     Edge 97, Type (0, 1), BuildingBlock: OJICUG_clean_linker_0, # of connection points: 2
#     Edge 98, Type (0, 1), BuildingBlock: OJICUG_clean_linker_0, # of connection points: 2
#     Edge 99, Type (0, 1), BuildingBlock: OJICUG_clean_linker_0, # of connection points: 2
#     Edge 100, Type (0, 1), BuildingBlock: OJICUG_clean_linker_0, # of connection points: 2
#     Edge 101, Type (0, 1), BuildingBlock: OJICUG_clean_linker_0, # of connection points: 2
#     Edge 102, Type (0, 1), BuildingBlock: OJICUG_clean_linker_0, # of connection points: 2
#     Edge 103, Type (0, 1), BuildingBlock: OJICUG_clean_linker_0, # of connection points: 2
#     Edge 104, Type (0, 1), BuildingBlock: OJICUG_clean_linker_0, # of connection points: 2
#     Edge 105, Type (0, 1), BuildingBlock: OJICUG_clean_linker_0, # of connection points: 2
#     Edge 106, Type (0, 1), BuildingBlock: OJICUG_clean_linker_0, # of connection points: 2
#     Edge 107, Type (0, 1), BuildingBlock: OJICUG_clean_linker_0, # of connection points: 2
#     Edge 108, Type (0, 1), BuildingBlock: OJICUG_clean_linker_0, # of connection points: 2
#     Edge 109, Type (0, 1), BuildingBlock: OJICUG_clean_linker_0, # of connection points: 2
#     Edge 110, Type (0, 1), BuildingBlock: OJICUG_clean_linker_0, # of connection points: 2
#     Edge 111, Type (0, 1), BuildingBlock: OJICUG_clean_linker_0, # of connection points: 2
#     Edge 112, Type (0, 1), BuildingBlock: OJICUG_clean_linker_0, # of connection points: 2
#     Edge 113, Type (0, 1), BuildingBlock: OJICUG_clean_linker_0, # of connection points: 2
#     Edge 114, Type (0, 1), BuildingBlock: OJICUG_clean_linker_0, # of connection points: 2
#     Edge 115, Type (0, 1), BuildingBlock: OJICUG_clean_linker_0, # of connection points: 2
#     Edge 116, Type (0, 1), BuildingBlock: OJICUG_clean_linker_0, # of connection points: 2
#     Edge 117, Type (0, 1), BuildingBlock: OJICUG_clean_linker_0, # of connection points: 2
#     Edge 118, Type (0, 1), BuildingBlock: OJICUG_clean_linker_0, # of connection points: 2
#     Edge 119, Type (0, 1), BuildingBlock: OJICUG_clean_linker_0, # of connection points: 2
#     Edge 120, Type (0, 1), BuildingBlock: OJICUG_clean_linker_0, # of connection points: 2
#     Edge 121, Type (0, 1), BuildingBlock: OJICUG_clean_linker_0, # of connection points: 2
#     Edge 122, Type (0, 1), BuildingBlock: OJICUG_clean_linker_0, # of connection points: 2
#     Edge 123, Type (0, 1), BuildingBlock: OJICUG_clean_linker_0, # of connection points: 2
# Relax obj value: 0.220
# Max RMSD: 0.316
# Mean RMSD: 0.273
data_MOF--net-tph--node1-IZENUY_clean_sbu_0--node2-TAGTUT_clean_sbu_1--edge1-OJICUG_clean_linker_0
_symmetry_space_group_name_H-M    P1
_symmetry_Int_Tables_number       1
_symmetry_cell_setting            triclinic
loop_
_symmetry_equiv_pos_as_xyz
'x, y, z'
_cell_length_a     35.659334
_cell_length_b     35.524299
_cell_length_c     35.136746
_cell_angle_alpha  90.352822
_cell_angle_beta   91.760379
_cell_angle_gamma 89.95384
loop_
_atom_site_label
_atom_site_type_symbol
_atom_site_fract_x
_atom_site_fract_y
_atom_site_fract_z
_atom_type_partial_charge
Fe0 Fe 0.22723 0.21088 0.13124 0.0
Fe1 Fe 0.16234 0.20653 0.18524 0.0
O2 O 0.2038 0.18766 0.16743 0.0
Fe3 Fe 0.22139 0.14483 0.18561 0.0
O4 O 0.21366 0.12264 0.14064 0.0
O5 O 0.24221 0.16589 0.10763 0.0
O6 O 0.18703 0.20818 0.09981 0.0
C7 C 0.15696 0.22503 0.1058 0.0
C8 C 0.2876 0.18648 0.17226 0.0
O9 O 0.14666 0.23018 0.13984 0.0
C10 C 0.20089 0.17612 0.25095 0.0
O11 O 0.21393 0.25933 0.14837 0.0
O12 O 0.18671 0.24743 0.20216 0.0
O13 O 0.27113 0.15511 0.17586 0.0
O14 O 0.26951 0.21478 0.16066 0.0
C15 C 0.1431 0.13385 0.18324 0.0
O16 O 0.1708 0.18717 0.23383 0.0
O17 O 0.22855 0.16539 0.23216 0.0
C18 C 0.20044 0.27064 0.17985 0.0
O19 O 0.13639 0.16574 0.16925 0.0
O20 O 0.17517 0.12631 0.19775 0.0
C21 C 0.22628 0.13372 0.10985 0.0
Fe22 Fe 0.46012 0.57766 0.12237 0.0
Fe23 Fe 0.44257 0.62454 0.05129 0.0
O24 O 0.43375 0.58502 0.07955 0.0
Fe25 Fe 0.39561 0.55495 0.06655 0.0
O26 O 0.37148 0.56886 0.10849 0.0
O27 O 0.41888 0.55998 0.14908 0.0
O28 O 0.44659 0.62221 0.14104 0.0
C29 C 0.44634 0.65365 0.12539 0.0
C30 C 0.45046 0.50445 0.10259 0.0
O31 O 0.45636 0.65669 0.09123 0.0
C32 C 0.42259 0.56503 0.99728 0.0
O33 O 0.50524 0.59682 0.10271 0.0
O34 O 0.48995 0.61043 0.0431 0.0
O35 O 0.41697 0.51245 0.09091 0.0
O36 O 0.47411 0.53066 0.10763 0.0
C37 C 0.36807 0.62725 0.04368 0.0
O38 O 0.42869 0.59957 0.00602 0.0
O39 O 0.41782 0.54101 0.02312 0.0
C40 C 0.51466 0.6066 0.0691 0.0
O41 O 0.3966 0.64144 0.05908 0.0
O42 O 0.36659 0.59162 0.03974 0.0
C43 C 0.38421 0.56761 0.1423 0.0
Fe44 Fe 0.82486 0.29842 0.14678 0.0
Fe45 Fe 0.86394 0.28405 0.22381 0.0
O46 O 0.83614 0.31334 0.19393 0.0
Fe47 Fe 0.81986 0.35733 0.20941 0.0
O48 O 0.84189 0.38119 0.17079 0.0
O49 O 0.81638 0.34543 0.12716 0.0
O50 O 0.87299 0.30317 0.13544 0.0
C51 C 0.89922 0.28574 0.15256 0.0
C52 C 0.75736 0.32207 0.16887 0.0
O53 O 0.89392 0.26852 0.18381 0.0
C54 C 0.80991 0.31604 0.27373 0.0
O55 O 0.83093 0.24784 0.1556 0.0
O56 O 0.83091 0.24561 0.21736 0.0
O57 O 0.77356 0.3514 0.18325 0.0
O58 O 0.77626 0.29418 0.15773 0.0
C59 C 0.89502 0.35311 0.24156 0.0
O60 O 0.83954 0.29686 0.26835 0.0
O61 O 0.79669 0.33739 0.24855 0.0
C62 C 0.82713 0.22922 0.18567 0.0
O63 O 0.89885 0.31928 0.23221 0.0
O64 O 0.86308 0.36928 0.23866 0.0
C65 C 0.82969 0.37685 0.13731 0.0
Fe66 Fe 0.55186 0.93753 0.12293 0.0
Fe67 Fe 0.57074 0.8935 0.05009 0.0
O68 O 0.58112 0.93065 0.08323 0.0
Fe69 Fe 0.62232 0.95846 0.07954 0.0
O70 O 0.63927 0.94441 0.12649 0.0
O71 O 0.58814 0.95557 0.15664 0.0
O72 O 0.56393 0.89096 0.14002 0.0
C73 C 0.56134 0.86073 0.12107 0.0
C74 C 0.56454 0.01087 0.10366 0.0
O75 O 0.55257 0.86111 0.0859 0.0
C76 C 0.60197 0.95194 0.00333 0.0
O77 O 0.50894 0.91973 0.09829 0.0
O78 O 0.5237 0.91149 0.03867 0.0
O79 O 0.59866 1.00209 0.09714 0.0
O80 O 0.54004 0.98534 0.10811 0.0
C81 C 0.6475 0.88468 0.06424 0.0
O82 O 0.5889 0.91904 0.00852 0.0
O83 O 0.61012 0.97336 0.03129 0.0
C84 C 0.49911 0.91292 0.06393 0.0
O85 O 0.61513 0.8711 0.06029 0.0
O86 O 0.65276 0.91991 0.06241 0.0
C87 C 0.62236 0.94701 0.15713 0.0
Fe88 Fe 0.20209 0.85865 0.30096 0.0
Fe89 Fe 0.21415 0.80253 0.36466 0.0
O90 O 0.18797 0.81789 0.32453 0.0
Fe91 Fe 0.14816 0.79266 0.30816 0.0
O92 O 0.118 0.83292 0.31419 0.0
O93 O 0.1537 0.8722 0.28383 0.0
O94 O 0.19438 0.88647 0.34252 0.0
C95 C 0.21549 0.88329 0.37154 0.0
C96 C 0.18455 0.81582 0.2405 0.0
O97 O 0.22977 0.8512 0.37976 0.0
C98 C 0.19148 0.7334 0.3275 0.0
O99 O 0.25327 0.85233 0.31329 0.0
O100 O 0.2549 0.79519 0.3365 0.0
O101 O 0.1553 0.80391 0.25674 0.0
O102 O 0.21026 0.83242 0.2589 0.0
C103 C 0.14545 0.79007 0.3902 0.0
O104 O 0.20267 0.75122 0.35738 0.0
O105 O 0.17578 0.75095 0.30055 0.0
C106 C 0.27154 0.82254 0.32201 0.0
O107 O 0.17475 0.80944 0.3939 0.0
O108 O 0.13495 0.77737 0.35734 0.0
C109 C 0.12143 0.86243 0.29495 0.0
Fe110 Fe 0.11719 0.55295 0.9459 0.0
Fe111 Fe 0.05529 0.58443 0.89203 0.0
O112 O 0.08025 0.58552 0.93652 0.0
Fe113 Fe 0.06923 0.62019 0.97092 0.0
O114 O 0.11611 0.63897 0.9708 0.0
O115 O 0.1461 0.5852 0.97625 0.0
O116 O 0.14286 0.57003 0.90587 0.0
C117 C 0.13098 0.57219 0.87181 0.0
C118 C 0.08913 0.55543 0.01606 0.0
O119 O 0.09608 0.56853 0.86388 0.0
C120 C 0.99821 0.60331 0.9459 0.0
O121 O 0.09474 0.51414 0.91785 0.0
O122 O 0.0395 0.53655 0.89958 0.0
O123 O 0.08162 0.59012 0.01194 0.0
O124 O 0.09455 0.53471 0.98741 0.0
C125 C 0.06618 0.6604 0.90212 0.0
O126 O 0.00978 0.60099 0.91188 0.0
O127 O 0.02148 0.60371 0.97364 0.0
C128 C 0.06091 0.50887 0.9064 0.0
O129 O 0.07028 0.6317 0.8815 0.0
O130 O 0.05591 0.65722 0.93614 0.0
C131 C 0.14457 0.62045 0.98157 0.0
Fe132 Fe 0.79367 0.65579 0.28403 0.0
Fe133 Fe 0.8621 0.70707 0.28854 0.0
O134 O 0.81973 0.69147 0.3077 0.0
Fe135 Fe 0.80463 0.71106 0.35074 0.0
O136 O 0.76083 0.72654 0.32926 0.0
O137 O 0.74772 0.67325 0.29983 0.0
O138 O 0.78831 0.68436 0.24163 0.0
C139 C 0.81647 0.69337 0.22283 0.0
C140 C 0.78898 0.63339 0.35769 0.0
O141 O 0.84834 0.69647 0.23917 0.0
C142 C 0.87894 0.70702 0.36655 0.0
O143 O 0.83559 0.63107 0.2661 0.0
O144 O 0.88219 0.66147 0.29512 0.0
O145 O 0.78389 0.66716 0.36819 0.0
O146 O 0.7979 0.62532 0.32431 0.0
C147 C 0.83479 0.77331 0.31016 0.0
O148 O 0.88468 0.72029 0.33411 0.0
O149 O 0.84692 0.69614 0.37514 0.0
C150 C 0.86866 0.63185 0.28068 0.0
O151 O 0.84331 0.75336 0.28199 0.0
O152 O 0.82379 0.75826 0.34069 0.0
C153 C 0.7371 0.70354 0.31576 0.0
Fe154 Fe 0.89459 0.96947 0.93301 0.0
Fe155 Fe 0.96524 0.95058 0.88917 0.0
O156 O 0.93401 0.93965 0.92598 0.0
Fe157 Fe 0.94007 0.89798 0.95311 0.0
O158 O 0.89369 0.88104 0.93849 0.0
O159 O 0.86226 0.93256 0.94911 0.0
O160 O 0.87712 0.95869 0.8854 0.0
C161 C 0.89521 0.96215 0.85544 0.0
C162 C 0.91442 0.95475 0.00711 0.0
O163 O 0.92927 0.97185 0.85726 0.0
C164 C 0.01431 0.91712 0.94595 0.0
O165 O 0.91875 0.01291 0.91722 0.0
O166 O 0.9773 0.9954 0.91095 0.0
O167 O 0.92285 0.92085 0.99771 0.0
O168 O 0.90947 0.97987 0.98185 0.0
C169 C 0.95532 0.87484 0.87724 0.0
O170 O 1.00682 0.92943 0.91283 0.0
O171 O 0.98822 0.91036 0.96866 0.0
C172 C 0.95313 0.02124 0.91305 0.0
O173 O 0.95446 0.90782 0.86486 0.0
O174 O 0.95687 0.86843 0.91287 0.0
C175 C 0.86284 0.89793 0.94092 0.0
Fe176 Fe 0.39379 0.46587 0.43133 0.0
Fe177 Fe 0.4617 0.44194 0.385 0.0
O178 O 0.43203 0.4346 0.42423 0.0
Fe179 Fe 0.4383 0.39432 0.45346 0.0
O180 O 0.39118 0.37776 0.44159 0.0
O181 O 0.36082 0.43058 0.44928 0.0
O182 O 0.37445 0.45426 0.38453 0.0
C183 C 0.39129 0.45645 0.35372 0.0
C184 C 0.41487 0.45344 0.50582 0.0
O185 O 0.4258 0.46385 0.3538 0.0
C186 C 0.51236 0.4106 0.44172 0.0
O187 O 0.41931 0.50756 0.4135 0.0
O188 O 0.47681 0.48767 0.40338 0.0
O189 O 0.4231 0.41929 0.49754 0.0
O190 O 0.40986 0.47764 0.47968 0.0
C191 C 0.44543 0.36627 0.37879 0.0
O192 O 0.50343 0.41993 0.40786 0.0
O193 O 0.48723 0.40667 0.46622 0.0
C194 C 0.45355 0.51446 0.4066 0.0
O195 O 0.44693 0.39813 0.3636 0.0
O196 O 0.45267 0.36249 0.41423 0.0
C197 C 0.36076 0.39555 0.44302 0.0
Fe198 Fe 0.3201 0.79753 0.65004 0.0
Fe199 Fe 0.31843 0.85705 0.71238 0.0
O200 O 0.33363 0.81272 0.69653 0.0
Fe201 Fe 0.3623 0.78335 0.72549 0.0
O202 O 0.32885 0.74512 0.72066 0.0
O203 O 0.32588 0.7469 0.65892 0.0
O204 O 0.27198 0.7942 0.66323 0.0
C205 C 0.25394 0.82253 0.67476 0.0
C206 C 0.39435 0.78363 0.65231 0.0
O207 O 0.27112 0.85178 0.68801 0.0
C208 C 0.39456 0.85221 0.74204 0.0
O209 O 0.31173 0.84449 0.63044 0.0
O210 O 0.3393 0.88045 0.67277 0.0
O211 O 0.39055 0.76724 0.68432 0.0
O212 O 0.36763 0.80134 0.63638 0.0
C213 C 0.30996 0.81568 0.77694 0.0
O214 O 0.36269 0.8686 0.74015 0.0
O215 O 0.39783 0.81838 0.73238 0.0
C216 C 0.32634 0.87563 0.6396 0.0
O217 O 0.29648 0.8375 0.75233 0.0
O218 O 0.33948 0.79652 0.77088 0.0
C219 C 0.32378 0.72844 0.6893 0.0
Fe220 Fe 0.06934 0.3946 0.54758 0.0
Fe221 Fe 0.12154 0.45868 0.57794 0.0
O222 O 0.0801 0.43117 0.58122 0.0
Fe223 Fe 0.05088 0.43782 0.62092 0.0
O224 O 0.06235 0.39095 0.63747 0.0
O225 O 0.05068 0.36205 0.58285 0.0
O226 O 0.11351 0.37163 0.5576 0.0
C227 C 0.14601 0.38487 0.56179 0.0
C228 C 0.99793 0.41454 0.56163 0.0
O229 O 0.1516 0.42008 0.56032 0.0
C230 C 0.06413 0.51115 0.60249 0.0
O231 O 0.0878 0.42046 0.50644 0.0
O232 O 0.10945 0.47432 0.52993 0.0
O233 O 1.00786 0.42075 0.59606 0.0
O234 O 0.0225 0.41324 0.53633 0.0
C235 C 0.1214 0.44633 0.65535 0.0
O236 O 0.09825 0.50228 0.5961 0.0
O237 O 0.03949 0.48574 0.60654 0.0
C238 C 0.101 0.45335 0.50171 0.0
O239 O 0.13834 0.4439 0.62471 0.0
O240 O 0.08726 0.45518 0.65489 0.0
C241 C 0.05904 0.36106 0.61807 0.0
Fe242 Fe 0.96092 0.07487 0.62111 0.0
Fe243 Fe 0.94382 0.12664 0.55346 0.0
O244 O 0.93432 0.0858 0.57954 0.0
Fe245 Fe 0.89517 0.05748 0.56541 0.0
O246 O 0.87155 0.07072 0.6078 0.0
O247 O 0.91888 0.05831 0.64761 0.0
O248 O 0.95084 0.11865 0.64253 0.0
C249 C 0.95449 0.15117 0.63012 0.0
C250 C 0.94769 1.00333 0.59852 0.0
O251 O 0.95914 0.15672 0.59491 0.0
C252 C 0.92286 0.06935 0.49696 0.0
O253 O 1.00655 0.09267 0.60163 0.0
O254 O 0.99082 0.11235 0.54387 0.0
O255 O 0.91438 0.01314 0.58814 0.0
O256 O 0.97239 0.02835 0.60352 0.0
C257 C 0.86998 0.13131 0.5449 0.0
O258 O 0.92933 0.10362 0.50697 0.0
O259 O 0.91739 0.04454 0.52186 0.0
C260 C 0.01571 0.10514 0.56889 0.0
O261 O 0.89799 0.1438 0.56278 0.0
O262 O 0.86773 0.0959 0.53966 0.0
C263 C 0.88444 0.06769 0.64146 0.0
Fe264 Fe 0.72702 0.70813 0.62954 0.0
Fe265 Fe 0.72146 0.6419 0.68384 0.0
O266 O 0.70389 0.68489 0.6659 0.0
Fe267 Fe 0.66269 0.70387 0.6841 0.0
O268 O 0.68722 0.74468 0.7009 0.0
O269 O 0.71417 0.75662 0.64699 0.0
O270 O 0.76947 0.71167 0.65857 0.0
C271 C 0.78767 0.68321 0.66949 0.0
C272 C 0.65656 0.7224 0.60488 0.0
O273 O 0.77115 0.65192 0.67345 0.0
C274 C 0.64312 0.63134 0.68241 0.0
O275 O 0.74151 0.66314 0.60561 0.0
O276 O 0.71317 0.61988 0.63885 0.0
O277 O 0.64664 0.72756 0.639 0.0
O278 O 0.68662 0.70577 0.59845 0.0
C279 C 0.7017 0.67341 0.7494 0.0
O280 O 0.6753 0.62356 0.69651 0.0
O281 O 0.63658 0.66318 0.66825 0.0
C282 C 0.72555 0.63099 0.60795 0.0
O283 O 0.72915 0.66228 0.73048 0.0
O284 O 0.67155 0.68449 0.73248 0.0
C285 C 0.70101 0.76788 0.67864 0.0
Fe286 Fe 0.70266 0.35789 0.8017 0.0
Fe287 Fe 0.71295 0.30189 0.86586 0.0
O288 O 0.68801 0.31701 0.82486 0.0
Fe289 Fe 0.64878 0.2915 0.80736 0.0
O290 O 0.61826 0.33165 0.8122 0.0
O291 O 0.65465 0.37118 0.78302 0.0
O292 O 0.69355 0.38577 0.84298 0.0
C293 C 0.71376 0.38268 0.87266 0.0
C294 C 0.68726 0.31465 0.74081 0.0
O295 O 0.72791 0.35065 0.88134 0.0
C296 C 0.69151 0.23234 0.82843 0.0
O297 O 0.75359 0.35185 0.81576 0.0
O298 O 0.75466 0.29474 0.83915 0.0
O299 O 0.6576 0.30257 0.75621 0.0
O300 O 0.71224 0.33174 0.75985 0.0
C301 C 0.64345 0.28935 0.88923 0.0
O302 O 0.70188 0.25042 0.85845 0.0
O303 O 0.67672 0.24976 0.80087 0.0
C304 C 0.77176 0.3223 0.82559 0.0
O305 O 0.67262 0.30878 0.89368 0.0
O306 O 0.63399 0.2764 0.85616 0.0
C307 C 0.62207 0.36117 0.79307 0.0
Fe308 Fe 0.61705 0.04843 0.44731 0.0
Fe309 Fe 0.5555 0.07984 0.39292 0.0
O310 O 0.58055 0.08139 0.43741 0.0
Fe311 Fe 0.57029 0.11699 0.47117 0.0
O312 O 0.61747 0.13483 0.47072 0.0
O313 O 0.64658 0.08068 0.47703 0.0
O314 O 0.64285 0.06455 0.40702 0.0
C315 C 0.63093 0.06684 0.37299 0.0
C316 C 0.58933 0.05262 0.51749 0.0
O317 O 0.59606 0.06303 0.36506 0.0
C318 C 0.49885 0.10104 0.44649 0.0
O319 O 0.5941 0.00947 0.41992 0.0
O320 O 0.5391 0.03215 0.40119 0.0
O321 O 0.58213 0.08734 0.51277 0.0
O322 O 0.59421 0.03131 0.48916 0.0
C323 C 0.56849 0.15588 0.40165 0.0
O324 O 0.51029 0.09744 0.41253 0.0
O325 O 0.52215 0.10173 0.47421 0.0
C326 C 0.56028 0.00432 0.40837 0.0
O327 O 0.57124 0.12667 0.38151 0.0
O328 O 0.55794 0.15373 0.43568 0.0
C329 C 0.64569 0.11604 0.48156 0.0
Fe330 Fe 0.29439 0.15391 0.78316 0.0
Fe331 Fe 0.36355 0.20388 0.79019 0.0
O332 O 0.32004 0.18938 0.80756 0.0
Fe333 Fe 0.30333 0.20981 0.84949 0.0
O334 O 0.26066 0.22555 0.82591 0.0
O335 O 0.24791 0.17205 0.79685 0.0
O336 O 0.29113 0.18238 0.74063 0.0
C337 C 0.32012 0.19087 0.7229 0.0
C338 C 0.2869 0.13244 0.85667 0.0
O339 O 0.35161 0.19285 0.7403 0.0
C340 C 0.37672 0.20566 0.86914 0.0
O341 O 0.33678 0.12845 0.76711 0.0
O342 O 0.38249 0.15802 0.79838 0.0
O343 O 0.28143 0.16634 0.86655 0.0
O344 O 0.29667 0.12383 0.82371 0.0
C345 C 0.33617 0.27087 0.80929 0.0
O346 O 0.38438 0.21761 0.8366 0.0
O347 O 0.34429 0.19478 0.87603 0.0
C348 C 0.36927 0.12863 0.78314 0.0
O349 O 0.34589 0.25031 0.78204 0.0
O350 O 0.32352 0.25659 0.83951 0.0
C351 C 0.23708 0.20279 0.81174 0.0
C352 C 0.98157 0.27248 0.02126 0.0
C353 C 0.08118 0.28239 0.9727 0.0
C354 C 0.01333 0.35792 0.86013 0.0
Mg355 Mg 0.02116 0.23012 0.95565 0.0
O356 O 0.9923 0.26326 0.92685 0.0
Mg357 Mg 0.99807 0.31842 0.94059 0.0
Mg358 Mg 1.00496 0.26473 0.87191 0.0
O359 O 0.01438 0.26788 0.81778 0.0
Mg360 Mg 0.98849 0.30607 0.78923 0.0
Mg361 Mg 1.00308 0.2146 0.80358 0.0
C362 C 0.99584 0.17411 0.88937 0.0
C363 C 0.08174 0.219 0.84981 0.0
O364 O 0.97693 0.30156 0.99982 0.0
O365 O 0.99764 0.24224 0.01013 0.0
O366 O 0.05662 0.30872 0.97169 0.0
O367 O 0.07582 0.25226 0.95378 0.0
O368 O 0.00893 0.17981 0.92331 0.0
O369 O 0.98751 0.20164 0.86652 0.0
C370 C 0.92529 0.30827 0.88072 0.0
O371 O 0.94545 0.28448 0.86328 0.0
O372 O 0.93792 0.32552 0.91082 0.0
O373 O 0.025 0.23429 0.74329 0.0
O374 O 0.02601 0.29799 0.74551 0.0
O375 O 0.94344 0.23506 0.79052 0.0
C376 C 0.0343 0.26659 0.72986 0.0
O377 O 0.93844 0.28573 0.75698 0.0
O378 O 0.99895 0.35565 0.82609 0.0
C379 C 0.93433 0.25018 0.75892 0.0
O380 O 0.02089 0.3282 0.8799 0.0
O381 O 0.0677 0.24278 0.87362 0.0
O382 O 0.06191 0.20366 0.82299 0.0
C383 C 0.47219 0.76594 0.51754 0.0
C384 C 0.57512 0.77404 0.47391 0.0
C385 C 0.51596 0.85306 0.35959 0.0
Mg386 Mg 0.51303 0.72299 0.45342 0.0
O387 O 0.48772 0.75769 0.4233 0.0
Mg388 Mg 0.49446 0.81235 0.43841 0.0
Mg389 Mg 0.50417 0.75963 0.36954 0.0
O390 O 0.51772 0.7626 0.31669 0.0
Mg391 Mg 0.50045 0.80194 0.28628 0.0
Mg392 Mg 0.51071 0.7097 0.29897 0.0
C393 C 0.49348 0.66817 0.38357 0.0
C394 C 0.58336 0.71572 0.35523 0.0
O395 O 0.47027 0.7954 0.49632 0.0
O396 O 0.48673 0.73483 0.50662 0.0
O397 O 0.55166 0.80128 0.47112 0.0
O398 O 0.56864 0.74255 0.45775 0.0
O399 O 0.50295 0.67364 0.41868 0.0
O400 O 0.48725 0.69593 0.3602 0.0
C401 C 0.42473 0.80429 0.37451 0.0
O402 O 0.44506 0.78042 0.35715 0.0
O403 O 0.43638 0.82036 0.40568 0.0
O404 O 0.5388 0.72998 0.24186 0.0
O405 O 0.54311 0.79322 0.24787 0.0
O406 O 0.45314 0.72271 0.27055 0.0
C407 C 0.55115 0.7623 0.23119 0.0
O408 O 0.4534 0.78267 0.25132 0.0
O409 O 0.50651 0.85124 0.32401 0.0
C410 C 0.44111 0.74895 0.24844 0.0
O411 O 0.52036 0.82295 0.37964 0.0
O412 O 0.56666 0.73889 0.37756 0.0
O413 O 0.5667 0.70085 0.32624 0.0
C414 C 0.96961 0.73902 0.49797 0.0
C415 C 0.07936 0.75067 0.53082 0.0
C416 C 0.03242 0.66519 0.65352 0.0
Mg417 Mg 0.0111 0.79327 0.55336 0.0
O418 O 1.00079 0.75635 0.58804 0.0
Mg419 Mg 0.01038 0.70198 0.57504 0.0
Mg420 Mg 0.01784 0.75809 0.64202 0.0
O421 O 0.03166 0.75631 0.69597 0.0
Mg422 Mg 0.00856 0.71663 0.72362 0.0
Mg423 Mg 0.01659 0.80841 0.70997 0.0
C424 C 0.98996 0.84788 0.6212 0.0
C425 C 0.09286 0.80859 0.66199 0.0
O426 O 0.97857 0.7117 0.51988 0.0
O427 O 0.9784 0.77326 0.50535 0.0
O428 O 0.06315 0.71978 0.53999 0.0
O429 O 0.06761 0.78279 0.54162 0.0
O430 O 0.99406 0.84191 0.58556 0.0
O431 O 0.99694 0.82154 0.6463 0.0
C432 C 0.94229 0.70655 0.63532 0.0
O433 O 0.96019 0.73354 0.6518 0.0
O434 O 0.95562 0.68911 0.60664 0.0
O435 O 0.03923 0.78834 0.77281 0.0
O436 O 0.04639 0.72511 0.76916 0.0
O437 O 0.95852 0.78445 0.71944 0.0
C438 C 0.05085 0.75648 0.78673 0.0
O439 O 0.95877 0.73483 0.75485 0.0
O440 O 0.01871 0.66713 0.68698 0.0
C441 C 0.95029 0.76943 0.7507 0.0
O442 O 0.03912 0.69528 0.63432 0.0
O443 O 0.07724 0.78506 0.63804 0.0
O444 O 0.07545 0.82184 0.69073 0.0
C445 C 0.01248 0.05686 0.22988 0.0
C446 C 0.9886 0.9442 0.24971 0.0
C447 C 0.86004 0.98399 0.16089 0.0
Mg448 Mg 0.96381 0.01663 0.28749 0.0
O449 O 0.92697 0.02147 0.25006 0.0
Mg450 Mg 0.93809 0.00941 0.19607 0.0
Mg451 Mg 0.87511 1.00223 0.25296 0.0
O452 O 0.82285 0.98666 0.25336 0.0
Mg453 Mg 0.79011 1.00328 0.21431 0.0
Mg454 Mg 0.80934 0.99845 0.30659 0.0
C455 C 0.89553 0.03314 0.34138 0.0
C456 C 0.86698 0.92846 0.30463 0.0
O457 O 0.99098 0.04365 0.20333 0.0
O458 O 1.00691 0.05149 0.26523 0.0
O459 O 0.97623 0.95685 0.21721 0.0
O460 O 0.98187 0.96071 0.28106 0.0
O461 O 0.93079 0.0319 0.33536 0.0
O462 O 0.87037 0.02489 0.31518 0.0
C463 C 0.87351 0.07558 0.20004 0.0
O464 O 0.8597 0.05723 0.22731 0.0
O465 O 0.90228 0.06346 0.18236 0.0
O466 O 0.75035 0.9685 0.28768 0.0
O467 O 0.75516 0.95784 0.22453 0.0
O468 O 0.78316 0.05524 0.29192 0.0
C469 C 0.73851 0.95321 0.25587 0.0
O470 O 0.7513 0.04619 0.23752 0.0
O471 O 0.8258 0.99562 0.16325 0.0
C472 C 0.75394 0.06089 0.27093 0.0
O473 O 0.88101 0.97899 0.19104 0.0
O474 O 0.88739 0.9448 0.28006 0.0
O475 O 0.8376 0.94369 0.31797 0.0
C476 C 0.269 0.00553 0.95338 0.0
C477 C 0.22133 0.98594 0.05062 0.0
C478 C 0.16553 0.85783 0.97546 0.0
Mg479 Mg 0.28976 0.95491 0.02278 0.0
O480 O 0.26322 0.9192 0.99497 0.0
Mg481 Mg 0.21371 0.93254 0.96971 0.0
Mg482 Mg 0.25374 0.86644 0.01113 0.0
O483 O 0.24356 0.81397 0.02047 0.0
Mg484 Mg 0.21999 0.78601 0.98005 0.0
Mg485 Mg 0.29447 0.79809 0.03755 0.0
C486 C 0.34415 0.88429 0.03458 0.0
C487 C 0.2502 0.84457 0.10033 0.0
O488 O 0.24159 0.98358 0.94476 0.0
O489 O 0.29117 1.00029 0.98222 0.0
O490 O 0.20247 0.97547 0.02051 0.0
O491 O 0.24909 0.96663 0.0631 0.0
O492 O 0.33804 0.91988 0.03429 0.0
O493 O 0.31737 0.85991 0.02828 0.0
C494 C 0.2535 0.86604 0.91943 0.0
O495 O 0.26626 0.85278 0.95066 0.0
O496 O 0.23128 0.89449 0.91867 0.0
O497 O 0.26249 0.73917 0.0474 0.0
O498 O 0.20492 0.74612 0.01984 0.0
O499 O 0.30588 0.78242 0.97591 0.0
C500 C 0.22827 0.72813 0.04123 0.0
O501 O 0.26079 0.74848 0.95116 0.0
O502 O 0.17211 0.82386 0.96417 0.0
C503 C 0.29498 0.75063 0.96305 0.0
O504 O 0.19046 0.87699 0.99449 0.0
O505 O 0.24055 0.87034 0.07597 0.0
O506 O 0.2741 0.81881 0.09286 0.0
C507 C 0.99826 0.54177 0.26645 0.0
C508 C 0.0321 0.43387 0.274 0.0
C509 C 0.15563 0.4888 0.35076 0.0
Mg510 Mg 0.05551 0.49403 0.22208 0.0
O511 O 0.0884 0.51674 0.25677 0.0
Mg512 Mg 0.07635 0.51207 0.31217 0.0
Mg513 Mg 0.14208 0.50096 0.25707 0.0
O514 O 0.19485 0.48811 0.2588 0.0
Mg515 Mg 0.22641 0.50558 0.2983 0.0
Mg516 Mg 0.20887 0.49785 0.20526 0.0
C517 C 0.12294 0.51083 0.1668 0.0
C518 C 0.15801 0.42367 0.20757 0.0
O519 O 0.0202 0.5405 0.29618 0.0
O520 O 1.00663 0.52685 0.23449 0.0
O521 O 0.0404 0.45664 0.3015 0.0
O522 O 0.04448 0.43885 0.24087 0.0
O523 O 0.08892 0.50125 0.1727 0.0
O524 O 0.1467 0.51916 0.19419 0.0
C525 C 0.13887 0.58075 0.30461 0.0
O526 O 0.15438 0.56044 0.27937 0.0
O527 O 0.10943 0.56919 0.32129 0.0
O528 O 0.26754 0.47089 0.22391 0.0
O529 O 0.26261 0.46092 0.28702 0.0
O530 O 0.23266 0.55621 0.2203 0.0
C531 C 0.279 0.4557 0.25548 0.0
O532 O 0.26287 0.54981 0.27616 0.0
O533 O 0.19028 0.49905 0.34886 0.0
C534 C 0.26083 0.5635 0.24251 0.0
O535 O 0.13503 0.48364 0.32043 0.0
O536 O 0.13617 0.43846 0.23248 0.0
O537 O 0.18518 0.44174 0.1937 0.0
C538 C 0.77784 0.50976 0.06133 0.0
C539 C 0.75666 0.52113 0.94543 0.0
C540 C 0.84518 0.65221 0.9761 0.0
Mg541 Mg 0.71947 0.55551 0.01511 0.0
O542 O 0.7557 0.59151 0.01053 0.0
Mg543 Mg 0.80953 0.57763 0.00529 0.0
Mg544 Mg 0.75329 0.64333 0.98999 0.0
O545 O 0.75563 0.69569 0.97397 0.0
Mg546 Mg 0.79502 0.72334 0.99725 0.0
Mg547 Mg 0.70391 0.7133 0.98242 0.0
C548 C 0.66688 0.62863 0.02497 0.0
C549 C 0.70701 0.65474 0.91077 0.0
O550 O 0.80321 0.52798 0.04452 0.0
O551 O 0.74289 0.51702 0.05658 0.0
O552 O 0.78877 0.53555 0.95564 0.0
O553 O 0.72623 0.52866 0.96221 0.0
O554 O 0.67408 0.59334 0.0279 0.0
O555 O 0.69044 0.65215 0.00993 0.0
C556 C 0.80289 0.6455 0.06769 0.0
O557 O 0.77618 0.65884 0.04714 0.0
O558 O 0.8217 0.61653 0.05742 0.0
O559 O 0.72776 0.772 0.95495 0.0
O560 O 0.7909 0.76544 0.95704 0.0
O561 O 0.71552 0.74055 0.04022 0.0
C562 C 0.76132 0.7835 0.9471 0.0
O563 O 0.77578 0.75721 0.04518 0.0
O564 O 0.84372 0.68605 0.98935 0.0
C565 C 0.74183 0.76026 0.0556 0.0
O566 O 0.81516 0.63242 0.97041 0.0
O567 O 0.72877 0.63202 0.92949 0.0
O568 O 0.69466 0.68528 0.92536 0.0
C569 C 0.27972 0.00806 0.55956 0.0
C570 C 0.25904 0.02141 0.44375 0.0
C571 C 0.34614 0.15221 0.47587 0.0
Mg572 Mg 0.22144 0.05423 0.5136 0.0
O573 O 0.25759 0.09047 0.51082 0.0
Mg574 Mg 0.31147 0.07695 0.50478 0.0
Mg575 Mg 0.2545 0.14232 0.49059 0.0
O576 O 0.25593 0.19467 0.47495 0.0
Mg577 Mg 0.29533 0.22321 0.49677 0.0
Mg578 Mg 0.20423 0.21166 0.48466 0.0
C579 C 0.16835 0.12621 0.52551 0.0
C580 C 0.20673 0.15442 0.41203 0.0
O581 O 0.30542 0.02663 0.54358 0.0
O582 O 0.24483 0.01523 0.55422 0.0
O583 O 0.29104 0.03549 0.45472 0.0
O584 O 0.22837 0.02885 0.4601 0.0
O585 O 0.17563 0.0909 0.52748 0.0
O586 O 0.19186 0.15016 0.51117 0.0
C587 C 0.30547 0.14438 0.56767 0.0
O588 O 0.27832 0.15765 0.54761 0.0
O589 O 0.32408 0.11542 0.55705 0.0
O590 O 0.22668 0.27084 0.45739 0.0
O591 O 0.28958 0.26367 0.45502 0.0
O592 O 0.21705 0.23714 0.54321 0.0
C593 C 0.25961 0.28204 0.44715 0.0
O594 O 0.27562 0.25888 0.54339 0.0
O595 O 0.34443 0.18616 0.48885 0.0
C596 C 0.24216 0.26012 0.55554 0.0
O597 O 0.31626 0.13217 0.47036 0.0
O598 O 0.22904 0.13166 0.43012 0.0
O599 O 0.1942 0.18457 0.42729 0.0
C600 C 0.51216 0.5564 0.73108 0.0
C601 C 0.48951 0.44313 0.74735 0.0
C602 C 0.36043 0.48419 0.65961 0.0
Mg603 Mg 0.46391 0.51407 0.78743 0.0
O604 O 0.42696 0.51992 0.75017 0.0
Mg605 Mg 0.4381 0.50947 0.69583 0.0
Mg606 Mg 0.37513 0.50048 0.75238 0.0
O607 O 0.32281 0.48477 0.7522 0.0
Mg608 Mg 0.29036 0.50272 0.71344 0.0
Mg609 Mg 0.3093 0.49514 0.80582 0.0
C610 C 0.39541 0.52755 0.84201 0.0
C611 C 0.36753 0.42572 0.8023 0.0
O612 O 0.49061 0.54372 0.70433 0.0
O613 O 0.50683 0.55009 0.76634 0.0
O614 O 0.47683 0.45652 0.71527 0.0
O615 O 0.48274 0.45868 0.77915 0.0
O616 O 0.43069 0.52642 0.83604 0.0
O617 O 0.37023 0.52152 0.8152 0.0
C618 C 0.37312 0.57526 0.7017 0.0
O619 O 0.35945 0.55604 0.7284 0.0
O620 O 0.40191 0.56381 0.6836 0.0
O621 O 0.25036 0.46576 0.78612 0.0
O622 O 0.25427 0.45778 0.72245 0.0
O623 O 0.28233 0.55212 0.7937 0.0
C624 C 0.238 0.45198 0.75381 0.0
O625 O 0.25246 0.54609 0.73757 0.0
O626 O 0.32615 0.49575 0.66207 0.0
C627 C 0.25451 0.55987 0.77144 0.0
O628 O 0.38127 0.4788 0.68978 0.0
O629 O 0.38784 0.44256 0.77802 0.0
O630 O 0.33789 0.4404 0.81564 0.0
C631 C 0.76653 0.50618 0.45353 0.0
C632 C 0.71738 0.48337 0.5492 0.0
C633 C 0.66556 0.35552 0.47135 0.0
Mg634 Mg 0.78675 0.45464 0.5226 0.0
O635 O 0.76171 0.41894 0.4932 0.0
Mg636 Mg 0.71213 0.43168 0.46747 0.0
Mg637 Mg 0.7531 0.36564 0.50842 0.0
O638 O 0.74409 0.31262 0.51675 0.0
Mg639 Mg 0.72241 0.28506 0.4748 0.0
Mg640 Mg 0.79561 0.29796 0.53367 0.0
C641 C 0.84279 0.38525 0.53317 0.0
C642 C 0.75032 0.3421 0.59766 0.0
O643 O 0.73969 0.48387 0.44374 0.0
O644 O 0.78792 0.50085 0.48294 0.0
O645 O 0.69902 0.47335 0.51867 0.0
O646 O 0.74452 0.46344 0.56201 0.0
O647 O 0.83585 0.42067 0.5339 0.0
O648 O 0.81664 0.36045 0.52594 0.0
C649 C 0.75344 0.36677 0.41649 0.0
O650 O 0.76618 0.35325 0.44763 0.0
O651 O 0.73086 0.39492 0.41601 0.0
O652 O 0.76551 0.23764 0.54182 0.0
O653 O 0.70832 0.24318 0.51286 0.0
O654 O 0.80781 0.28517 0.47187 0.0
C655 C 0.73171 0.22568 0.53465 0.0
O656 O 0.76507 0.2494 0.44602 0.0
O657 O 0.67342 0.32203 0.4594 0.0
C658 C 0.79887 0.25301 0.45871 0.0
O659 O 0.68965 0.37507 0.49114 0.0
O660 O 0.73988 0.368 0.57369 0.0
O661 O 0.77425 0.31664 0.58933 0.0
C662 C 0.49999 0.03993 0.7677 0.0
C663 C 0.53292 0.93177 0.77415 0.0
C664 C 0.65758 0.98612 0.8522 0.0
Mg665 Mg 0.55725 0.99242 0.72304 0.0
O666 O 0.59048 0.0141 0.75808 0.0
Mg667 Mg 0.57803 0.00946 0.81335 0.0
Mg668 Mg 0.64438 0.99856 0.75852 0.0
O669 O 0.69738 0.98585 0.76054 0.0
Mg670 Mg 0.72933 1.00269 0.80013 0.0
Mg671 Mg 0.71159 0.99591 0.70714 0.0
C672 C 0.6252 0.00906 0.66814 0.0
C673 C 0.66119 0.9214 0.7088 0.0
O674 O 0.52184 0.03807 0.79747 0.0
O675 O 0.5085 0.02557 0.73553 0.0
O676 O 0.5417 0.95399 0.80204 0.0
O677 O 0.54519 0.93718 0.74103 0.0
O678 O 0.59105 0.99987 0.67398 0.0
O679 O 0.64912 0.01679 0.69562 0.0
C680 C 0.64046 0.07858 0.80615 0.0
O681 O 0.65624 0.05831 0.78102 0.0
O682 O 0.61103 0.06678 0.8227 0.0
O683 O 0.771 0.96989 0.72624 0.0
O684 O 0.76596 0.95796 0.78892 0.0
O685 O 0.73409 0.05448 0.72264 0.0
C686 C 0.78295 0.95431 0.7575 0.0
O687 O 0.76562 0.04736 0.77759 0.0
O688 O 0.69234 0.99614 0.85037 0.0
C689 C 0.76276 0.06161 0.74419 0.0
O690 O 0.63697 0.9811 0.82182 0.0
O691 O 0.639 0.93605 0.73351 0.0
O692 O 0.68854 0.93956 0.69536 0.0
C693 C 0.46157 0.24272 0.00365 0.0
C694 C 0.57371 0.2522 0.0287 0.0
C695 C 0.53457 0.16566 0.15424 0.0
Mg696 Mg 0.50705 0.29548 0.05699 0.0
O697 O 0.49939 0.25805 0.09188 0.0
Mg698 Mg 0.50757 0.20391 0.07723 0.0
Mg699 Mg 0.51964 0.25891 0.14485 0.0
O700 O 0.53674 0.25682 0.19805 0.0
Mg701 Mg 0.51663 0.21726 0.22623 0.0
Mg702 Mg 0.52752 0.30965 0.21507 0.0
C703 C 0.4934 0.34981 0.12814 0.0
C704 C 0.59727 0.30681 0.15772 0.0
O705 O 0.47257 0.21504 0.02416 0.0
O706 O 0.47022 0.27695 0.01131 0.0
O707 O 0.55865 0.22124 0.03944 0.0
O708 O 0.56163 0.28442 0.03884 0.0
O709 O 0.49487 0.34376 0.09219 0.0
O710 O 0.50016 0.32294 0.15285 0.0
C711 C 0.44306 0.20866 0.14164 0.0
O712 O 0.46194 0.2351 0.15811 0.0
O713 O 0.45492 0.19179 0.11192 0.0
O714 O 0.55553 0.28809 0.27503 0.0
O715 O 0.55559 0.22445 0.27121 0.0
O716 O 0.47166 0.29676 0.24146 0.0
C717 C 0.56433 0.25515 0.2884 0.0
O718 O 0.46654 0.23559 0.25495 0.0
O719 O 0.52388 0.16765 0.18886 0.0
C720 C 0.45545 0.26968 0.25815 0.0
O721 O 0.53961 0.19583 0.13462 0.0
O722 O 0.57929 0.28384 0.13511 0.0
O723 O 0.583 0.31958 0.1882 0.0
C724 C 0.03337 0.2977 0.63291 0.0
C725 C 0.06138 0.32507 0.63813 0.0
H726 H 1.0042 0.25281 0.65931 0.0
C727 C 0.08891 0.32051 0.66708 0.0
H728 H 0.01226 0.30038 0.61024 0.0
C729 C 0.08499 0.29245 0.69414 0.0
C730 C 0.05253 0.27015 0.69343 0.0
H731 H 0.1114 0.34081 0.67088 0.0
H732 H 0.10362 0.29284 0.71912 0.0
C733 C 0.02912 0.27002 0.66059 0.0
C734 C 0.65201 0.73572 0.53532 0.0
C735 C 0.63742 0.74086 0.57188 0.0
H736 H 0.64453 0.74423 0.47541 0.0
C737 C 0.60611 0.76441 0.57584 0.0
H738 H 0.67653 0.71837 0.531 0.0
C739 C 0.58824 0.78008 0.54349 0.0
C740 C 0.60142 0.7723 0.50685 0.0
H741 H 0.59466 0.76955 0.60359 0.0
H742 H 0.56228 0.79545 0.5469 0.0
C743 C 0.63426 0.75123 0.50331 0.0
C744 C 0.93695 0.21637 0.65484 0.0
C745 C 0.95427 0.18104 0.65979 0.0
H746 H 0.91752 0.26695 0.6826 0.0
C747 C 0.96519 0.16994 0.69682 0.0
H748 H 0.92744 0.22536 0.62677 0.0
C749 C 0.9568 0.19163 0.72817 0.0
C750 C 0.94007 0.22717 0.72397 0.0
H751 H 0.97861 0.14297 0.70201 0.0
H752 H 0.96428 0.18034 0.75591 0.0
C753 C 0.93061 0.23972 0.68681 0.0
C754 C 0.43163 0.74074 0.61254 0.0
C755 C 0.42616 0.77674 0.62799 0.0
H756 H 0.4502 0.70898 0.5645 0.0
C757 C 0.44103 0.80817 0.6098 0.0
H758 H 0.41988 0.71622 0.62587 0.0
C759 C 0.45712 0.80433 0.57444 0.0
C760 C 0.45908 0.76886 0.55685 0.0
H761 H 0.43673 0.83625 0.62115 0.0
H762 H 0.46643 0.82943 0.56013 0.0
C763 C 0.44823 0.73678 0.57711 0.0
C764 C 0.03992 0.72339 0.88324 0.0
C765 C 0.06967 0.6975 0.88378 0.0
H766 H 0.01198 0.76695 0.85142 0.0
C767 C 0.09984 0.70346 0.85978 0.0
H768 H 0.01642 0.71953 0.90164 0.0
C769 C 0.09762 0.73116 0.83176 0.0
C770 C 0.06461 0.75233 0.82643 0.0
H771 H 0.12339 0.68415 0.86004 0.0
H772 H 0.1189 0.73152 0.81039 0.0
C773 C 0.03759 0.75095 0.85473 0.0
C774 C 0.92843 0.74531 0.39867 0.0
C775 C 0.90629 0.7127 0.39738 0.0
H776 H 0.96567 0.77981 0.4326 0.0
C777 C 0.90659 0.68801 0.42821 0.0
H778 H 0.9281 0.76486 0.3751 0.0
C779 C 0.92779 0.69647 0.46077 0.0
C780 C 0.94855 0.73 0.46299 0.0
H781 H 0.88952 0.66275 0.42754 0.0
H782 H 0.92694 0.67733 0.48462 0.0
C783 C 0.94932 0.75411 0.43158 0.0
C784 C 0.94377 0.80778 0.85275 0.0
C785 C 0.95627 0.84494 0.84756 0.0
H786 H 0.93197 0.75398 0.82586 0.0
C787 C 0.96638 0.85602 0.81094 0.0
H788 H 0.93532 0.79853 0.88051 0.0
C789 C 0.96296 0.83177 0.78021 0.0
C790 C 0.95083 0.79456 0.78473 0.0
H791 H 0.97639 0.88422 0.80545 0.0
H792 H 0.97059 0.84253 0.75275 0.0
C793 C 0.94136 0.78255 0.82145 0.0
C794 C 0.14333 0.79223 0.46106 0.0
C795 C 0.12956 0.77655 0.42635 0.0
H796 H 0.1399 0.79446 0.52164 0.0
C797 C 0.10369 0.74681 0.42768 0.0
H798 H 0.16364 0.8149 0.46156 0.0
C799 C 0.09054 0.73457 0.46289 0.0
C800 C 0.10308 0.75188 0.49722 0.0
H801 H 0.09307 0.73361 0.40166 0.0
H802 H 0.06849 0.7136 0.46301 0.0
C803 C 0.13042 0.78 0.49584 0.0
C804 C 0.69449 0.08778 0.35357 0.0
C805 C 0.65933 0.07234 0.34293 0.0
H806 H 0.7511 0.09822 0.33866 0.0
C807 C 0.65339 0.06106 0.30469 0.0
H808 H 0.69993 0.09801 0.38232 0.0
C809 C 0.68323 0.06153 0.27906 0.0
C810 C 0.71954 0.07309 0.29128 0.0
H811 H 0.62649 0.0497 0.29522 0.0
H812 H 0.67857 0.04996 0.25073 0.0
C813 C 0.72392 0.08836 0.3282 0.0
C814 C 0.26521 0.06784 0.86784 0.0
C815 C 0.27986 0.10162 0.88273 0.0
H816 H 0.25063 0.01087 0.8787 0.0
C817 C 0.29103 0.10402 0.92129 0.0
H818 H 0.25649 0.06544 0.8381 0.0
C819 C 0.28841 0.07237 0.94449 0.0
C820 C 0.27394 0.0385 0.92933 0.0
H821 H 0.30286 0.12982 0.93305 0.0
H822 H 0.29725 0.07447 0.97421 0.0
C823 C 0.262 0.03665 0.89099 0.0
C824 C 0.34568 0.41657 0.31809 0.0
C825 C 0.37087 0.44685 0.31811 0.0
H826 H 0.29792 0.39096 0.29104 0.0
C827 C 0.37374 0.46858 0.28512 0.0
H828 H 0.34413 0.39837 0.34258 0.0
C829 C 0.34673 0.46434 0.25555 0.0
C830 C 0.31662 0.43944 0.25997 0.0
H831 H 0.39404 0.49118 0.28393 0.0
H832 H 0.34581 0.4846 0.23273 0.0
C833 C 0.32006 0.4115 0.28789 0.0
C834 C 0.7107 0.45263 0.87884 0.0
C835 C 0.72776 0.41848 0.8901 0.0
H836 H 0.70816 0.51239 0.88601 0.0
C837 C 0.75939 0.41994 0.91499 0.0
H838 H 0.68652 0.45291 0.85941 0.0
C839 C 0.77239 0.45469 0.92958 0.0
C840 C 0.75395 0.48844 0.91953 0.0
H841 H 0.7736 0.39431 0.92372 0.0
H842 H 0.79504 0.45489 0.95086 0.0
C843 C 0.72359 0.487 0.89333 0.0
C844 C 0.64203 0.96457 0.2245 0.0
C845 C 0.64353 0.93986 0.19321 0.0
H846 H 0.67161 0.9853 0.27452 0.0
C847 C 0.66935 0.91002 0.19456 0.0
H848 H 0.62171 0.98724 0.22466 0.0
C849 C 0.69673 0.90823 0.22372 0.0
C850 C 0.70033 0.9378 0.25035 0.0
H851 H 0.67047 0.88994 0.17127 0.0
H852 H 0.71915 0.88783 0.22107 0.0
C853 C 0.67025 0.96316 0.25334 0.0
C854 C 0.19392 0.08841 0.06696 0.0
C855 C 0.22815 0.10393 0.0808 0.0
H856 H 0.16445 0.03882 0.04702 0.0
C857 C 0.26035 0.08146 0.08077 0.0
H858 H 0.16836 0.10489 0.06789 0.0
C859 C 0.25778 0.04343 0.07058 0.0
C860 C 0.22295 0.02692 0.0598 0.0
H861 H 0.28677 0.09222 0.09238 0.0
H862 H 0.28316 0.02668 0.07238 0.0
C863 C 0.19139 0.05034 0.05612 0.0
C864 C 0.36146 0.56055 0.21029 0.0
C865 C 0.35648 0.57389 0.17287 0.0
H866 H 0.335 0.54825 0.26309 0.0
C867 C 0.32243 0.59218 0.16308 0.0
H868 H 0.38753 0.5471 0.21916 0.0
C869 C 0.29268 0.593 0.18799 0.0
C870 C 0.29584 0.57562 0.2237 0.0
H871 H 0.31786 0.60425 0.13507 0.0
H872 H 0.2661 0.60467 0.17798 0.0
C873 C 0.33138 0.56156 0.23558 0.0
C874 C 0.78258 0.41063 0.097 0.0
C875 C 0.81765 0.41048 0.1164 0.0
H876 H 0.74175 0.443 0.06557 0.0
C877 C 0.83858 0.44378 0.1194 0.0
H878 H 0.76548 0.38545 0.09509 0.0
C879 C 0.825 0.47662 0.10239 0.0
C880 C 0.78986 0.47675 0.08317 0.0
H881 H 0.86539 0.44433 0.13477 0.0
H882 H 0.84196 0.5019 0.10416 0.0
C883 C 0.7686 0.44365 0.08086 0.0
C884 C 0.32486 0.64886 0.98807 0.0
C885 C 0.34325 0.65508 0.02372 0.0
H886 H 0.29347 0.67424 0.94096 0.0
C887 C 0.34564 0.69221 0.03757 0.0
H888 H 0.32357 0.62081 0.97586 0.0
C889 C 0.3328 0.72226 0.01611 0.0
C890 C 0.31245 0.71679 0.98171 0.0
H891 H 0.35986 0.69861 0.06457 0.0
H892 H 0.33808 0.75004 0.02771 0.0
C893 C 0.30849 0.67953 0.9677 0.0
C894 C 0.3234 0.34776 0.4064 0.0
C895 C 0.32519 0.37453 0.43597 0.0
H896 H 0.29628 0.2987 0.38359 0.0
C897 C 0.29454 0.37767 0.46005 0.0
H898 H 0.34621 0.34514 0.38686 0.0
C899 C 0.26562 0.3506 0.45809 0.0
C900 C 0.26736 0.32009 0.43243 0.0
H901 H 0.29474 0.3986 0.48261 0.0
H902 H 0.24485 0.35068 0.47983 0.0
C903 C 0.29414 0.32164 0.4039 0.0
C904 C 0.5883 0.40632 0.74779 0.0
C905 C 0.5873 0.37984 0.77743 0.0
H906 H 0.55711 0.44595 0.71318 0.0
C907 C 0.55202 0.36969 0.7912 0.0
H908 H 0.61481 0.41439 0.736 0.0
C909 C 0.51909 0.38717 0.77761 0.0
C910 C 0.52022 0.415 0.74946 0.0
H911 H 0.54984 0.34912 0.81365 0.0
H912 H 0.49289 0.38071 0.791 0.0
C913 C 0.55509 0.42363 0.7339 0.0
C914 C 0.71126 0.13176 0.50428 0.0
C915 C 0.67242 0.13456 0.50829 0.0
H916 H 0.76389 0.15861 0.51617 0.0
C917 C 0.65845 0.15876 0.5363 0.0
H918 H 0.72285 0.11226 0.48394 0.0
C919 C 0.6822 0.1844 0.55505 0.0
C920 C 0.7196 0.18748 0.54421 0.0
H921 H 0.62861 0.16024 0.54116 0.0
H922 H 0.66975 0.20629 0.57219 0.0
C923 C 0.73488 0.1579 0.52305 0.0
C924 C 0.91612 0.59066 0.3095 0.0
C925 C 0.89465 0.60055 0.27705 0.0
H926 H 0.9658 0.56452 0.33156 0.0
C927 C 0.90496 0.58767 0.24112 0.0
H928 H 0.90857 0.60075 0.33743 0.0
C929 C 0.93828 0.56734 0.23752 0.0
C930 C 0.96142 0.56 0.26986 0.0
H931 H 0.88897 0.59577 0.21575 0.0
H932 H 0.94676 0.55905 0.20935 0.0
C933 C 0.94918 0.57052 0.30599 0.0
C934 C 0.21325 0.36143 0.55621 0.0
C935 C 0.17682 0.35737 0.56979 0.0
H936 H 0.26477 0.33314 0.54324 0.0
C937 C 0.16812 0.32415 0.58931 0.0
H938 H 0.22116 0.38698 0.54185 0.0
C939 C 0.19302 0.29383 0.59065 0.0
C940 C 0.22719 0.29559 0.57197 0.0
H941 H 0.14079 0.32052 0.60139 0.0
H942 H 0.18361 0.26749 0.60249 0.0
C943 C 0.23838 0.33068 0.55745 0.0
C944 C 0.61163 0.59024 0.7283 0.0
C945 C 0.61087 0.60927 0.69336 0.0
H946 H 0.58004 0.55938 0.76847 0.0
C947 C 0.57746 0.61148 0.67154 0.0
H948 H 0.63705 0.58889 0.74594 0.0
C949 C 0.54507 0.59502 0.68451 0.0
C950 C 0.54557 0.57648 0.71969 0.0
H951 H 0.5763 0.62641 0.64471 0.0
H952 H 0.51955 0.59694 0.66707 0.0
C953 C 0.57899 0.57415 0.74157 0.0
C954 C 0.43011 0.90605 0.77535 0.0
C955 C 0.42988 0.87168 0.75528 0.0
H956 H 0.46366 0.95135 0.79895 0.0
C957 C 0.46477 0.85496 0.74723 0.0
H958 H 0.40397 0.91963 0.78225 0.0
C959 C 0.49866 0.87289 0.75684 0.0
C960 C 0.49898 0.90775 0.77561 0.0
H961 H 0.46608 0.82851 0.73182 0.0
H962 H 0.52466 0.86039 0.74775 0.0
C963 C 0.46436 0.92377 0.78564 0.0
C964 C 0.59689 0.82346 0.16916 0.0
C965 C 0.56821 0.82498 0.14098 0.0
H966 H 0.61733 0.79628 0.21954 0.0
C967 C 0.5447 0.79366 0.13525 0.0
H968 H 0.61635 0.84662 0.1731 0.0
C969 C 0.54565 0.76445 0.16196 0.0
C970 C 0.56912 0.76739 0.19465 0.0
H971 H 0.52315 0.79363 0.11284 0.0
H972 H 0.52409 0.74314 0.16039 0.0
C973 C 0.59823 0.79395 0.19504 0.0
C974 C 0.15441 0.23957 0.03638 0.0
C975 C 0.13877 0.24419 0.07255 0.0
H976 H 0.14944 0.24996 0.9766 0.0
C977 C 0.10769 0.26817 0.07592 0.0
H978 H 0.17878 0.22192 0.03246 0.0
C979 C 0.09122 0.285 0.04337 0.0
C980 C 0.10564 0.27809 0.00702 0.0
H981 H 0.09542 0.27294 0.10335 0.0
H982 H 0.06554 0.30093 0.04631 0.0
C983 C 0.13814 0.25631 0.00421 0.0
C984 C 0.44909 0.72182 0.14711 0.0
C985 C 0.43371 0.68567 0.14912 0.0
H986 H 0.4615 0.77278 0.17804 0.0
C987 C 0.40904 0.67777 0.17867 0.0
H988 H 0.46705 0.72914 0.12399 0.0
C989 C 0.40551 0.70254 0.20924 0.0
C990 C 0.4265 0.7358 0.2108 0.0
H991 H 0.39525 0.65067 0.18013 0.0
H992 H 0.39038 0.69337 0.2338 0.0
C993 C 0.44534 0.74697 0.17789 0.0
C994 C 0.93949 0.24444 0.11437 0.0
C995 C 0.93254 0.28001 0.13013 0.0
H996 H 0.96045 0.21411 0.06654 0.0
C997 C 0.94777 0.31211 0.11344 0.0
H998 H 0.92747 0.21943 0.12655 0.0
C999 C 0.96535 0.30935 0.07875 0.0
C1000 C 0.96851 0.27431 0.06057 0.0
H1001 H 0.94239 0.33986 0.12511 0.0
H1002 H 0.97457 0.3349 0.0652 0.0
C1003 C 0.95765 0.24157 0.07971 0.0
C1004 C 0.60663 0.195 0.35922 0.0
C1005 C 0.57604 0.19248 0.38335 0.0
H1006 H 0.62922 0.22159 0.31064 0.0
C1007 C 0.55024 0.22236 0.38403 0.0
H1008 H 0.62742 0.17274 0.35871 0.0
C1009 C 0.55178 0.25096 0.35655 0.0
C1010 C 0.57841 0.24927 0.32782 0.0
H1011 H 0.52667 0.22142 0.40272 0.0
H1012 H 0.52883 0.27079 0.3542 0.0
C1013 C 0.60821 0.22362 0.33221 0.0
C1014 C 0.39995 0.19027 0.93367 0.0
C1015 C 0.40173 0.21332 0.90163 0.0
H1016 H 0.41724 0.1821 0.99155 0.0
C1017 C 0.42332 0.24632 0.90302 0.0
H1018 H 0.38311 0.16486 0.93308 0.0
C1019 C 0.44219 0.25668 0.93673 0.0
C1020 C 0.43999 0.23376 0.96893 0.0
H1021 H 0.4244 0.26477 0.87862 0.0
H1022 H 0.45869 0.28229 0.93751 0.0
C1023 C 0.41914 0.2003 0.96705 0.0
C1024 C 0.45144 0.29777 0.35857 0.0
C1025 C 0.43648 0.33394 0.35299 0.0
H1026 H 0.46677 0.24589 0.33144 0.0
C1027 C 0.41555 0.341 0.31915 0.0
H1028 H 0.46698 0.29112 0.38464 0.0
C1029 C 0.41429 0.3149 0.28938 0.0
C1030 C 0.43519 0.28161 0.29223 0.0
H1031 H 0.40306 0.36825 0.3141 0.0
H1032 H 0.40201 0.32343 0.26217 0.0
C1033 C 0.45063 0.27158 0.32827 0.0
C1034 C 0.60036 0.24674 0.92613 0.0
C1035 C 0.62641 0.27636 0.92503 0.0
H1036 H 0.56408 0.21424 0.96109 0.0
C1037 C 0.63928 0.29255 0.95985 0.0
H1038 H 0.5904 0.23316 0.90005 0.0
C1039 C 0.62544 0.2809 0.99441 0.0
C1040 C 0.598 0.25289 0.99551 0.0
H1041 H 0.65965 0.31517 0.96059 0.0
H1042 H 0.63436 0.2957 0.02021 0.0
C1043 C 0.5862 0.23512 0.96116 0.0
C1044 C 0.19484 0.592 0.85191 0.0
C1045 C 0.15954 0.57664 0.84166 0.0
H1046 H 0.25181 0.60074 0.83707 0.0
C1047 C 0.15377 0.56384 0.80387 0.0
H1048 H 0.20021 0.60323 0.88031 0.0
C1049 C 0.18382 0.56279 0.7785 0.0
C1050 C 0.22022 0.57431 0.7905 0.0
H1051 H 0.12683 0.55236 0.79471 0.0
H1052 H 0.17926 0.55001 0.75069 0.0
C1053 C 0.22451 0.59105 0.82678 0.0
C1054 C 0.79082 0.60453 0.42232 0.0
C1055 C 0.78152 0.60216 0.3833 0.0
H1056 H 0.79412 0.57509 0.4755 0.0
C1057 C 0.76715 0.56846 0.36785 0.0
H1058 H 0.80224 0.63027 0.43463 0.0
C1059 C 0.76231 0.53741 0.39091 0.0
C1060 C 0.77237 0.53925 0.42975 0.0
H1061 H 0.75969 0.56606 0.3378 0.0
H1062 H 0.7512 0.51173 0.37817 0.0
C1063 C 0.78663 0.573 0.44544 0.0
C1064 C 0.8774 0.97323 0.78659 0.0
C1065 C 0.87694 0.95061 0.81914 0.0
H1066 H 0.84765 0.98756 0.73462 0.0
C1067 C 0.85447 0.91819 0.81868 0.0
H1068 H 0.8957 0.99749 0.78557 0.0
C1069 C 0.82762 0.91262 0.7896 0.0
C1070 C 0.82176 0.9407 0.76214 0.0
H1071 H 0.85503 0.89926 0.84273 0.0
H1072 H 0.80685 0.89074 0.79308 0.0
C1073 C 0.85023 0.9674 0.75738 0.0
C1074 C 0.21372 0.95335 0.37662 0.0
C1075 C 0.23008 0.91905 0.38852 0.0
H1076 H 0.21188 0.01317 0.38325 0.0
C1077 C 0.26139 0.92026 0.41382 0.0
H1078 H 0.18983 0.95384 0.35683 0.0
C1079 C 0.27462 0.95494 0.42833 0.0
C1080 C 0.25672 0.98883 0.41776 0.0
H1081 H 0.27506 0.8945 0.42306 0.0
H1082 H 0.29687 0.955 0.45003 0.0
C1083 C 0.22687 0.98764 0.39099 0.0
C1084 C 0.1416 0.46422 0.72241 0.0
C1085 C 0.14256 0.43912 0.69141 0.0
H1086 H 0.17177 0.48528 0.7719 0.0
C1087 C 0.16802 0.40898 0.69289 0.0
H1088 H 0.12161 0.4872 0.72241 0.0
C1089 C 0.19575 0.40732 0.72174 0.0
C1090 C 0.1997 0.43699 0.74821 0.0
H1091 H 0.16859 0.38855 0.66986 0.0
H1092 H 0.21798 0.38671 0.71911 0.0
C1093 C 0.16997 0.46279 0.75108 0.0
C1094 C 0.75861 0.57811 0.57894 0.0
C1095 C 0.72694 0.60133 0.57873 0.0
H1096 H 0.78017 0.52273 0.57096 0.0
C1097 C 0.69246 0.58662 0.56462 0.0
H1098 H 0.78519 0.58826 0.59074 0.0
C1099 C 0.68912 0.54858 0.55387 0.0
C1100 C 0.72008 0.5244 0.55789 0.0
H1101 H 0.66729 0.60369 0.56534 0.0
H1102 H 0.66196 0.53766 0.54465 0.0
C1103 C 0.75522 0.54011 0.56886 0.0
C1104 C 0.82205 0.09032 0.66292 0.0
C1105 C 0.8569 0.07341 0.67246 0.0
H1106 H 0.76569 0.10137 0.67855 0.0
C1107 C 0.863 0.06138 0.71024 0.0
H1108 H 0.81646 0.10157 0.63472 0.0
C1109 C 0.83337 0.06218 0.73617 0.0
C1110 C 0.79713 0.07446 0.72453 0.0
H1111 H 0.88972 0.04923 0.71906 0.0
H1112 H 0.838 0.05006 0.76412 0.0
C1113 C 0.79279 0.09081 0.68841 0.0
C1114 C 0.33808 0.9415 0.61957 0.0
C1115 C 0.31593 0.90895 0.61744 0.0
H1116 H 0.34371 0.99895 0.60258 0.0
C1117 C 0.28128 0.90963 0.5973 0.0
H1118 H 0.36466 0.9416 0.63538 0.0
C1119 C 0.26877 0.94252 0.57984 0.0
C1120 C 0.29108 0.97494 0.58153 0.0
H1121 H 0.26331 0.88505 0.5959 0.0
H1122 H 0.24207 0.94232 0.56425 0.0
C1123 C 0.32596 0.9742 0.60123 0.0
C1124 C 0.82914 0.15243 0.48735 0.0
C1125 C 0.84847 0.15996 0.52223 0.0
H1126 H 0.79667 0.1759 0.44001 0.0
C1127 C 0.8532 0.19777 0.53339 0.0
H1128 H 0.82617 0.12375 0.47708 0.0
C1129 C 0.83975 0.22697 0.51094 0.0
C1130 C 0.81765 0.22009 0.47782 0.0
H1131 H 0.86861 0.20524 0.55942 0.0
H1132 H 0.84575 0.25526 0.52088 0.0
C1133 C 0.8129 0.18231 0.46579 0.0
C1134 C 0.82605 0.84848 0.90564 0.0
C1135 C 0.82757 0.87607 0.93444 0.0
H1136 H 0.79926 0.79869 0.88401 0.0
C1137 C 0.79688 0.87947 0.95847 0.0
H1138 H 0.84888 0.84553 0.88618 0.0
C1139 C 0.76813 0.85217 0.95718 0.0
C1140 C 0.76983 0.82125 0.93199 0.0
H1141 H 0.7969 0.90089 0.98054 0.0
H1142 H 0.74749 0.85256 0.97909 0.0
C1143 C 0.79695 0.82209 0.90375 0.0
C1144 C 0.05163 0.87217 0.29544 0.0
C1145 C 0.08647 0.88108 0.27995 0.0
H1146 H 0.99274 0.88413 0.29668 0.0
C1147 C 0.08686 0.90614 0.24904 0.0
H1148 H 0.04999 0.85269 0.31892 0.0
C1149 C 0.0535 0.92328 0.23542 0.0
C1150 C 0.01912 0.91595 0.25258 0.0
H1151 H 0.11301 0.91317 0.23592 0.0
H1152 H 0.0551 0.94449 0.2135 0.0
C1153 C 0.01855 0.88955 0.28215 0.0
C1154 C 0.1551 0.6617 0.03792 0.0
C1155 C 0.17026 0.63851 0.00971 0.0
H1156 H 0.165 0.70757 0.07632 0.0
C1157 C 0.20932 0.63553 0.00764 0.0
H1158 H 0.12504 0.66314 0.04145 0.0
C1159 C 0.23223 0.66075 0.02859 0.0
C1160 C 0.21602 0.68975 0.04986 0.0
H1161 H 0.22181 0.61659 0.98733 0.0
H1162 H 0.26169 0.66154 0.02333 0.0
C1163 C 0.17815 0.68629 0.05894 0.0
C1164 C 0.40605 0.08515 0.74311 0.0
C1165 C 0.39565 0.0976 0.77919 0.0
H1166 H 0.44809 0.05733 0.71093 0.0
C1167 C 0.41742 0.08768 0.81145 0.0
H1168 H 0.38987 0.09324 0.71786 0.0
C1169 C 0.45074 0.06801 0.80764 0.0
C1170 C 0.46301 0.05795 0.77138 0.0
H1171 H 0.40985 0.0974 0.83952 0.0
H1172 H 0.46752 0.06199 0.8331 0.0
C1173 C 0.43964 0.0653 0.73921 0.0
C1174 C 0.67032 0.8245 0.09237 0.0
C1175 C 0.67857 0.85748 0.07222 0.0
H1176 H 0.68586 0.76783 0.10548 0.0
C1177 C 0.71458 0.86128 0.05757 0.0
H1178 H 0.64324 0.82097 0.10491 0.0
C1179 C 0.73958 0.83044 0.05844 0.0
C1180 C 0.72868 0.79555 0.07368 0.0
H1181 H 0.72209 0.88656 0.04254 0.0
H1182 H 0.76537 0.83252 0.0431 0.0
C1183 C 0.69514 0.79411 0.09342 0.0
C1184 C 0.07807 0.11238 0.17081 0.0
C1185 C 0.11103 0.11114 0.19346 0.0
H1186 H 0.02057 0.0963 0.1651 0.0
C1187 C 0.11148 0.0922 0.22843 0.0
H1188 H 0.07718 0.12719 0.14392 0.0
C1189 C 0.07895 0.07539 0.24102 0.0
C1190 C 0.04594 0.07684 0.21842 0.0
H1191 H 0.13654 0.09155 0.24666 0.0
H1192 H 0.07975 0.06092 0.26808 0.0
C1193 C 0.04578 0.09506 0.18308 0.0
C1194 C 0.96503 0.35601 0.24852 0.0
C1195 C 0.92991 0.37288 0.25532 0.0
H1196 H 0.02488 0.36169 0.24997 0.0
C1197 C 0.92956 0.4078 0.27431 0.0
H1198 H 0.96678 0.32913 0.23395 0.0
C1199 C 0.96353 0.42594 0.28466 0.0
C1200 C 0.99838 0.40975 0.27573 0.0
H1201 H 0.90321 0.42151 0.2802 0.0
H1202 H 0.96248 0.45392 0.29705 0.0
C1203 C 0.99863 0.37433 0.25817 0.0
C1204 C 0.18503 0.23969 0.84173 0.0
C1205 C 0.19723 0.20725 0.82223 0.0
H1206 H 0.13895 0.26851 0.86723 0.0
C1207 C 0.17204 0.17722 0.81686 0.0
H1208 H 0.2039 0.26314 0.84704 0.0
C1209 C 0.13539 0.17996 0.82939 0.0
C1210 C 0.12266 0.21291 0.84741 0.0
H1211 H 0.18055 0.15145 0.80291 0.0
H1212 H 0.1164 0.1567 0.82352 0.0
C1213 C 0.14809 0.24249 0.85419 0.0
C1214 C 0.43643 0.58045 0.38551 0.0
C1215 C 0.46424 0.55339 0.39468 0.0
H1216 H 0.42409 0.63815 0.37191 0.0
C1217 C 0.50203 0.56374 0.39095 0.0
H1218 H 0.40697 0.57348 0.38722 0.0
C1219 C 0.5117 0.60081 0.38147 0.0
C1220 C 0.48393 0.62842 0.37465 0.0
H1221 H 0.52425 0.5437 0.39718 0.0
H1222 H 0.54107 0.6087 0.38242 0.0
C1223 C 0.44616 0.61738 0.37552 0.0
C1224 C 0.82948 0.35193 0.85585 0.0
C1225 C 0.81278 0.32311 0.8334 0.0
H1226 H 0.87795 0.3697 0.88953 0.0
C1227 C 0.8337 0.29067 0.8259 0.0
H1228 H 0.81357 0.37687 0.86287 0.0
C1229 C 0.87007 0.28654 0.84106 0.0
C1230 C 0.88653 0.31445 0.86486 0.0
H1231 H 0.82129 0.2677 0.80945 0.0
H1232 H 0.88483 0.26062 0.83511 0.0
C1233 C 0.866 0.34752 0.87171 0.0
C1234 C 0.56407 0.93325 0.41516 0.0
C1235 C 0.54668 0.9653 0.39894 0.0
H1236 H 0.56723 0.8727 0.41657 0.0
C1237 C 0.51677 0.95963 0.37244 0.0
H1238 H 0.587 0.93645 0.43585 0.0
C1239 C 0.50587 0.92319 0.36102 0.0
C1240 C 0.52386 0.89116 0.37642 0.0
H1241 H 0.5026 0.98345 0.35932 0.0
H1242 H 0.48376 0.92011 0.3394 0.0
C1243 C 0.5525 0.89665 0.40437 0.0
C1244 C 0.1895 0.84727 0.68812 0.0
C1245 C 0.21264 0.82264 0.66813 0.0
H1246 H 0.13332 0.86253 0.70148 0.0
C1247 C 0.19585 0.79666 0.64236 0.0
H1248 H 0.20154 0.86774 0.70793 0.0
C1249 C 0.15684 0.79394 0.63821 0.0
C1250 C 0.13359 0.81682 0.66009 0.0
H1251 H 0.21287 0.77764 0.62594 0.0
H1252 H 0.145 0.77255 0.61931 0.0
C1253 C 0.15038 0.84426 0.6843 0.0
C1254 C 0.02321 0.55946 0.63443 0.0
C1255 C 0.0542 0.5514 0.61177 0.0
H1256 H 0.99238 0.60093 0.66531 0.0
C1257 C 0.07658 0.58196 0.60064 0.0
H1258 H 1.0053 0.53696 0.64385 0.0
C1259 C 0.06853 0.61918 0.61239 0.0
C1260 C 0.03852 0.62678 0.6365 0.0
H1261 H 0.10067 0.57704 0.58324 0.0
H1262 H 0.08677 0.6418 0.60391 0.0
C1263 C 0.01581 0.59633 0.64693 0.0
C1264 C 0.84887 0.65728 0.64804 0.0
C1265 C 0.82888 0.68516 0.66752 0.0
H1266 H 0.90054 0.64235 0.62187 0.0
C1267 C 0.84745 0.71822 0.67919 0.0
H1268 H 0.83495 0.63176 0.6382 0.0
C1269 C 0.8848 0.72414 0.67019 0.0
C1270 C 0.90427 0.69747 0.64855 0.0
H1271 H 0.83255 0.74024 0.69396 0.0
H1272 H 0.89774 0.75061 0.67856 0.0
C1273 C 0.88621 0.66354 0.6383 0.0
C1274 C 0.93005 0.9345 0.60983 0.0
C1275 C 0.95719 0.96331 0.61019 0.0
H1276 H 0.91889 0.87529 0.6155 0.0
C1277 C 0.99402 0.95361 0.62278 0.0
H1278 H 0.90137 0.94051 0.60081 0.0
C1279 C 1.00383 0.91619 0.63217 0.0
C1280 C 0.97716 0.88705 0.62992 0.0
H1281 H 0.0159 0.97473 0.62392 0.0
H1282 H 0.03305 0.90957 0.63831 0.0
C1283 C 0.93993 0.89708 0.61935 0.0
C1284 C 0.85495 0.17157 0.15667 0.0
C1285 C 0.83243 0.18811 0.1845 0.0
H1286 H 0.88642 0.12294 0.13994 0.0
C1287 C 0.82021 0.16608 0.21453 0.0
H1288 H 0.86485 0.18805 0.13318 0.0
C1289 C 0.83201 0.12887 0.21801 0.0
C1290 C 0.85705 0.11305 0.192 0.0
H1291 H 0.80284 0.17813 0.23626 0.0
H1292 H 0.82296 0.11322 0.24244 0.0
C1293 C 0.86754 0.13441 0.16062 0.0
C1294 C 0.4356 0.89263 0.08628 0.0
C1295 C 0.45989 0.89876 0.05591 0.0
H1296 H 0.37976 0.88008 0.10341 0.0
C1297 C 0.44648 0.88972 0.01887 0.0
H1298 H 0.44482 0.89838 0.11539 0.0
C1299 C 0.40902 0.87806 0.01227 0.0
C1300 C 0.38406 0.87471 0.04246 0.0
H1301 H 0.46432 0.89336 0.99478 0.0
H1302 H 0.39858 0.87512 0.98311 0.0
C1303 C 0.39839 0.88084 0.07964 0.0
C1304 C 0.18458 0.33556 0.15606 0.0
C1305 C 0.18924 0.31038 0.18639 0.0
H1306 H 0.16827 0.39108 0.13876 0.0
C1307 C 0.17708 0.32154 0.2227 0.0
H1308 H 0.1924 0.32756 0.12758 0.0
C1309 C 0.16195 0.35735 0.22883 0.0
C1310 C 0.15885 0.38303 0.19888 0.0
H1311 H 0.17962 0.30259 0.24669 0.0
H1312 H 0.15528 0.36582 0.25752 0.0
C1313 C 0.16957 0.37145 0.16226 0.0
C1314 C 0.56204 0.62988 0.02214 0.0
C1315 C 0.55409 0.61825 0.0596 0.0
H1316 H 0.60388 0.64469 0.98197 0.0
C1317 C 0.58375 0.61936 0.08686 0.0
H1318 H 0.54015 0.63007 1.00009 0.0
C1319 C 0.6204 0.62909 0.07632 0.0
C1320 C 0.6287 0.63824 0.03831 0.0
H1321 H 0.57903 0.61133 0.116 0.0
H1322 H 0.64305 0.62634 0.09739 0.0
C1323 C 0.59863 0.63952 0.01169 0.0
C1324 C 0.84304 0.83511 0.34331 0.0
C1325 C 0.84752 0.81264 0.31083 0.0
H1326 H 0.84824 0.89014 0.36766 0.0
C1327 C 0.86667 0.8273 0.27975 0.0
H1328 H 0.82948 0.82428 0.36814 0.0
C1329 C 0.87834 0.86466 0.27993 0.0
C1330 C 0.87047 0.888 0.31091 0.0
H1331 H 0.87159 0.81035 0.25467 0.0
H1332 H 0.89023 0.87603 0.25441 0.0
C1333 C 0.85455 0.87251 0.34339 0.0
C1334 C 0.0706 0.87972 0.92718 0.0
C1335 C 0.05328 0.903 0.95414 0.0
H1336 H 0.11886 0.84683 0.91286 0.0
C1337 C 0.0737 0.91225 0.98777 0.0
H1338 H 0.0556 0.87189 0.90103 0.0
C1339 C 0.11069 0.89888 0.99393 0.0
C1340 C 0.12765 0.87486 0.96725 0.0
H1341 H 0.06126 0.93015 0.00902 0.0
H1342 H 0.12566 0.90647 0.02015 0.0
C1343 C 0.10692 0.86534 0.93391 0.0
C1344 C 0.1617 0.67525 0.35346 0.0
C1345 C 0.1855 0.692 0.32716 0.0
H1346 H 0.12754 0.6274 0.3668 0.0
C1347 C 0.19538 0.67106 0.29497 0.0
H1348 H 0.15269 0.69113 0.37796 0.0
C1349 C 0.18118 0.63472 0.28861 0.0
C1350 C 0.1557 0.61853 0.31369 0.0
H1351 H 0.21284 0.68354 0.27372 0.0
H1352 H 0.18898 0.61996 0.26296 0.0
C1353 C 0.14674 0.639 0.34668 0.0
C1354 C 0.92794 0.60382 0.92843 0.0
C1355 C 0.95801 0.61256 0.95396 0.0
H1356 H 0.86841 0.60822 0.91599 0.0
C1357 C 0.94969 0.63211 0.98776 0.0
H1358 H 0.93313 0.58883 0.90219 0.0
C1359 C 0.91306 0.64383 0.99518 0.0
C1360 C 0.88308 0.63555 0.96966 0.0
H1361 H 0.97185 0.63965 0.00817 0.0
H1362 H 0.90825 0.65988 0.02089 0.0
C1363 C 0.89081 0.6147 0.93649 0.0
C1364 C 0.20636 0.79105 0.1803 0.0
C1365 C 0.18702 0.81919 0.19927 0.0
H1366 H 0.24184 0.77726 0.13497 0.0
C1367 C 0.18502 0.85561 0.18347 0.0
H1368 H 0.20916 0.76317 0.19244 0.0
C1369 C 0.20478 0.86443 0.15076 0.0
C1370 C 0.22723 0.837 0.13392 0.0
H1371 H 0.17102 0.87808 0.19846 0.0
H1372 H 0.20409 0.89294 0.14 0.0
C1373 C 0.22621 0.79979 0.14806 0.0
C1374 C 0.2303 0.1466 0.30922 0.0
C1375 C 0.20062 0.16719 0.29197 0.0
H1376 H 0.2547 0.12479 0.361 0.0
C1377 C 0.17004 0.17756 0.31393 0.0
H1378 H 0.25397 0.13743 0.29293 0.0
C1379 C 0.1703 0.16978 0.35279 0.0
C1380 C 0.20106 0.15134 0.37047 0.0
H1381 H 0.14641 0.19272 0.30139 0.0
H1382 H 0.14733 0.18007 0.36947 0.0
C1383 C 0.2304 0.13856 0.34808 0.0
C1384 C 0.40459 0.51723 0.94648 0.0
C1385 C 0.41028 0.55503 0.95751 0.0
H1386 H 0.39268 0.4786 0.90045 0.0
C1387 C 0.40132 0.58334 0.93084 0.0
H1388 H 0.41048 0.49465 0.96637 0.0
C1389 C 0.38965 0.57402 0.8935 0.0
C1390 C 0.38671 0.53623 0.88176 0.0
H1391 H 0.40432 0.6128 0.93846 0.0
H1392 H 0.38629 0.59638 0.87283 0.0
C1393 C 0.39318 0.50797 0.90901 0.0
C1394 C 0.8143 0.31615 0.34539 0.0
C1395 C 0.79295 0.32038 0.31152 0.0
H1396 H 0.81856 0.32804 0.40523 0.0
C1397 C 0.75687 0.33667 0.31331 0.0
H1398 H 0.84222 0.30416 0.34499 0.0
C1399 C 0.74383 0.3514 0.34734 0.0
C1400 C 0.76608 0.34933 0.38072 0.0
H1401 H 0.73942 0.34005 0.28776 0.0
H1402 H 0.71663 0.36501 0.34737 0.0
C1403 C 0.80085 0.33032 0.37975 0.0
C1404 C 0.09565 0.44886 0.42955 0.0
C1405 C 0.11183 0.46547 0.46265 0.0
H1406 H 0.09599 0.44382 0.36854 0.0
C1407 C 0.1411 0.49162 0.45819 0.0
H1408 H 0.07318 0.42856 0.43175 0.0
C1409 C 0.15481 0.49968 0.42202 0.0
C1410 C 0.13911 0.48258 0.38899 0.0
H1411 H 0.15456 0.50482 0.48288 0.0
H1412 H 0.17808 0.51906 0.41998 0.0
C1413 C 0.10875 0.45768 0.39324 0.0
C1414 C 0.3492 0.16656 0.66429 0.0
C1415 C 0.31938 0.18544 0.68154 0.0
H1416 H 0.36802 0.13801 0.61443 0.0
C1417 C 0.28697 0.19412 0.65998 0.0
H1418 H 0.37445 0.15929 0.68056 0.0
C1419 C 0.2836 0.18247 0.62218 0.0
C1420 C 0.31224 0.16114 0.6056 0.0
H1421 H 0.26371 0.20861 0.67277 0.0
H1422 H 0.25757 0.18846 0.60667 0.0
C1423 C 0.34548 0.1541 0.62663 0.0
C1424 C 0.41802 0.44357 0.5779 0.0
C1425 C 0.40406 0.46355 0.54591 0.0
H1426 H 0.41629 0.43504 0.63853 0.0
C1427 C 0.37677 0.49155 0.55226 0.0
H1428 H 0.43883 0.4217 0.57438 0.0
C1429 C 0.36299 0.49841 0.58887 0.0
C1430 C 0.37671 0.47829 0.62081 0.0
H1431 H 0.36487 0.50735 0.52855 0.0
H1432 H 0.34134 0.51948 0.59213 0.0
C1433 C 0.40504 0.45127 0.61481 0.0
C1434 C 0.60883 1.00219 0.56415 0.0
C1435 C 0.6039 0.04046 0.55552 0.0
H1436 H 0.62213 0.96176 0.60758 0.0
C1437 C 0.61611 0.06756 0.58266 0.0
H1438 H 0.60064 0.98063 0.54361 0.0
C1439 C 0.63016 0.05669 0.61853 0.0
C1440 C 0.63166 0.01856 0.62834 0.0
H1441 H 0.61387 0.09734 0.57666 0.0
H1442 H 0.63606 0.07824 0.63986 0.0
C1443 C 0.62228 0.99137 0.60033 0.0
C1444 C 0.68456 0.74033 0.34487 0.0
C1445 C 0.69798 0.70669 0.32863 0.0
H1446 H 0.63736 0.76934 0.36795 0.0
C1447 C 0.67499 0.67463 0.3287 0.0
H1448 H 0.70192 0.76533 0.34608 0.0
C1449 C 0.63883 0.67663 0.34258 0.0
C1450 C 0.62441 0.71082 0.35625 0.0
H1451 H 0.68472 0.64792 0.31769 0.0
H1452 H 0.62109 0.6519 0.34016 0.0
C1453 C 0.64801 0.74241 0.35846 0.0
C1454 C 0.93633 0.08797 0.89393 0.0
C1455 C 0.9638 0.0603 0.90198 0.0
H1456 H 0.9251 0.14608 0.881 0.0
C1457 C 1.00169 0.06981 0.89731 0.0
H1458 H 0.90683 0.08158 0.89647 0.0
C1459 C 0.01194 0.10651 0.88758 0.0
C1460 C 0.98468 0.13467 0.88174 0.0
H1461 H 0.02366 0.04928 0.90262 0.0
H1462 H 0.04149 0.11363 0.88742 0.0
C1463 C 0.94668 0.12471 0.88388 0.0
C1464 C 0.3337 0.79183 0.31708 0.0
C1465 C 0.31268 0.82316 0.32818 0.0
H1466 H 0.38531 0.76162 0.3226 0.0
C1467 C 0.32952 0.84996 0.35291 0.0
H1468 H 0.3211 0.77039 0.29872 0.0
C1469 C 0.3661 0.84435 0.36789 0.0
C1470 C 0.38666 0.81217 0.35781 0.0
H1471 H 0.31355 0.87392 0.36262 0.0
H1472 H 0.37794 0.86473 0.38791 0.0
C1473 C 0.37036 0.78666 0.33125 0.0
C1474 C 0.01611 0.46452 0.87198 0.0
C1475 C 0.04725 0.46995 0.89702 0.0
H1476 H 0.98111 0.42529 0.84084 0.0
C1477 C 0.06535 0.43786 0.91221 0.0
H1478 H 1.00134 0.48841 0.85972 0.0
C1479 C 0.05309 0.40139 0.90197 0.0
C1480 C 0.02294 0.39611 0.87564 0.0
H1481 H 0.08921 0.44091 0.9318 0.0
H1482 H 0.06821 0.37736 0.91349 0.0
C1483 C 1.00442 0.4282 0.86115 0.0
C1484 C 0.69299 0.34912 0.1765 0.0
C1485 C 0.71625 0.32151 0.1611 0.0
H1486 H 0.63679 0.36665 0.18642 0.0
C1487 C 0.69972 0.29224 0.139 0.0
H1488 H 0.70477 0.37227 0.19318 0.0
C1489 C 0.6607 0.28923 0.13472 0.0
C1490 C 0.63745 0.3152 0.15273 0.0
H1491 H 0.71684 0.27081 0.1261 0.0
H1492 H 0.64885 0.26518 0.11951 0.0
C1493 C 0.65401 0.34597 0.17242 0.0
C1494 C 0.52448 0.05965 0.13632 0.0
C1495 C 0.55462 0.05129 0.11261 0.0
H1496 H 0.49487 0.10154 0.16798 0.0
C1497 C 0.57644 0.08178 0.10022 0.0
H1498 H 0.50705 0.03724 0.14676 0.0
C1499 C 0.56875 0.11919 0.11177 0.0
C1500 C 0.5397 0.12711 0.13697 0.0
H1501 H 0.59989 0.07667 0.08201 0.0
H1502 H 0.58665 0.14169 0.10236 0.0
C1503 C 0.5175 0.09672 0.14865 0.0
C1504 C 0.34943 0.16006 0.15362 0.0
C1505 C 0.32893 0.18849 0.17165 0.0
H1506 H 0.40176 0.14432 0.12944 0.0
C1507 C 0.34742 0.22161 0.18348 0.0
H1508 H 0.3357 0.13444 0.1438 0.0
C1509 C 0.38526 0.22703 0.17586 0.0
C1510 C 0.40512 0.19987 0.15524 0.0
H1511 H 0.33215 0.24398 0.1973 0.0
H1512 H 0.39827 0.2535 0.18417 0.0
C1513 C 0.38712 0.16588 0.1451 0.0
C1514 C 0.4986 0.45541 0.12513 0.0
C1515 C 0.461 0.46498 0.11546 0.0
H1516 H 0.53845 0.41153 0.13888 0.0
C1517 C 0.43383 0.43654 0.11928 0.0
H1518 H 0.52056 0.47627 0.123 0.0
C1519 C 0.44417 0.39955 0.12998 0.0
C1520 C 0.48201 0.38939 0.13733 0.0
H1521 H 0.40456 0.44249 0.11273 0.0
H1522 H 0.4227 0.37796 0.1293 0.0
C1523 C 0.50892 0.41829 0.13542 0.0
C1524 C 0.32028 0.6655 0.71942 0.0
C1525 C 0.32978 0.68737 0.6882 0.0
H1526 H 0.32601 0.61303 0.74773 0.0
C1527 C 0.35059 0.67087 0.65896 0.0
H1528 H 0.3043 0.67748 0.74228 0.0
C1529 C 0.3642 0.634 0.66247 0.0
C1530 C 0.35629 0.61281 0.6948 0.0
H1531 H 0.35833 0.68717 0.63449 0.0
H1532 H 0.38163 0.62252 0.64051 0.0
C1533 C 0.333 0.62855 0.72248 0.0
C1534 C 0.93466 0.39393 0.58414 0.0
C1535 C 0.95869 0.4005 0.55365 0.0
H1536 H 0.87905 0.3809 0.6016 0.0
C1537 C 0.94502 0.39192 0.5166 0.0
H1538 H 0.94408 0.39933 0.61326 0.0
C1539 C 0.90756 0.38019 0.51016 0.0
C1540 C 0.88291 0.37629 0.54055 0.0
H1541 H 0.96266 0.39592 0.49241 0.0
H1542 H 0.89688 0.37753 0.48106 0.0
C1543 C 0.89747 0.38208 0.57767 0.0
C1544 C 0.68686 0.83362 0.65593 0.0
C1545 C 0.69056 0.80776 0.68577 0.0
H1546 H 0.67201 0.88983 0.63961 0.0
C1547 C 0.67833 0.81857 0.72218 0.0
H1548 H 0.69481 0.82598 0.6274 0.0
C1549 C 0.66397 0.8546 0.72887 0.0
C1550 C 0.66175 0.88087 0.69942 0.0
H1551 H 0.68019 0.79916 0.74582 0.0
H1552 H 0.65713 0.86267 0.75763 0.0
C1553 C 0.67265 0.86975 0.66272 0.0
C1554 C 0.06349 0.12889 0.52267 0.0
C1555 C 0.05539 0.11583 0.5596 0.0
H1556 H 0.10558 0.14474 0.48315 0.0
C1557 C 0.08507 0.11515 0.58681 0.0
H1558 H 0.04157 0.13046 0.50072 0.0
C1559 C 0.12184 0.12473 0.57668 0.0
C1560 C 0.13023 0.13543 0.53914 0.0
H1561 H 0.0802 0.10603 0.61559 0.0
H1562 H 0.14445 0.12075 0.59759 0.0
C1563 C 0.10023 0.13833 0.5126 0.0
C1564 C 0.34548 0.33263 0.84212 0.0
C1565 C 0.34898 0.31012 0.80952 0.0
H1566 H 0.35132 0.38772 0.86615 0.0
C1567 C 0.36722 0.32468 0.77781 0.0
H1568 H 0.33272 0.32185 0.86742 0.0
C1569 C 0.37878 0.36206 0.77751 0.0
C1570 C 0.37174 0.38542 0.80868 0.0
H1571 H 0.37134 0.30767 0.75258 0.0
H1572 H 0.38979 0.37342 0.75157 0.0
C1573 C 0.35694 0.37001 0.84174 0.0
C1574 C 0.57006 0.37508 0.42272 0.0
C1575 C 0.55185 0.39753 0.44982 0.0
H1576 H 0.61939 0.34382 0.40835 0.0
C1577 C 0.57189 0.40694 0.48365 0.0
H1578 H 0.55546 0.36705 0.39642 0.0
C1579 C 0.60926 0.39463 0.48988 0.0
C1580 C 0.62712 0.37145 0.46308 0.0
H1581 H 0.55885 0.42419 0.50506 0.0
H1582 H 0.62384 0.40237 0.51627 0.0
C1583 C 0.6068 0.36172 0.42952 0.0
C1584 C 0.69594 0.1697 0.79624 0.0
C1585 C 0.68559 0.19082 0.82817 0.0
H1586 H 0.69047 0.11822 0.76465 0.0
C1587 C 0.66174 0.17394 0.85437 0.0
H1588 H 0.71346 0.18219 0.77506 0.0
C1589 C 0.6473 0.13741 0.84778 0.0
C1590 C 0.65681 0.1167 0.81509 0.0
H1591 H 0.65233 0.18989 0.87866 0.0
H1592 H 0.62806 0.12574 0.86783 0.0
C1593 C 0.68226 0.13308 0.79009 0.0
C1594 C 0.42842 0.10123 0.42974 0.0
C1595 C 0.45883 0.11129 0.45431 0.0
H1596 H 0.36874 0.10502 0.41791 0.0
C1597 C 0.45101 0.13298 0.48691 0.0
H1598 H 0.43322 0.08458 0.40442 0.0
C1599 C 0.41451 0.14532 0.49409 0.0
C1600 C 0.38415 0.13559 0.46957 0.0
H1601 H 0.47346 0.14159 0.50653 0.0
H1602 H 0.41008 0.16285 0.51889 0.0
C1603 C 0.39143 0.11275 0.43761 0.0
C1604 C 0.71285 0.28993 0.68209 0.0
C1605 C 0.69108 0.31718 0.6996 0.0
H1606 H 0.74898 0.27668 0.63717 0.0
C1607 C 0.6864 0.35263 0.68216 0.0
H1608 H 0.71789 0.26296 0.6956 0.0
C1609 C 0.70503 0.36128 0.64867 0.0
C1610 C 0.72923 0.33479 0.63271 0.0
H1611 H 0.67064 0.37457 0.69609 0.0
H1612 H 0.70182 0.38901 0.63635 0.0
C1613 C 0.73166 0.29855 0.64914 0.0
C1614 C 0.67079 0.67583 0.81218 0.0
C1615 C 0.70153 0.6652 0.79054 0.0
H1616 H 0.64778 0.67925 0.86751 0.0
C1617 C 0.73127 0.64514 0.80827 0.0
H1618 H 0.6471 0.69062 0.79929 0.0
C1619 C 0.73124 0.63787 0.84731 0.0
C1620 C 0.70168 0.65089 0.86928 0.0
H1621 H 0.75506 0.63583 0.79224 0.0
H1622 H 0.75557 0.62451 0.86064 0.0
C1623 C 0.6709 0.6688 0.85114 0.0
C1624 C 0.90191 0.02313 0.44586 0.0
C1625 C 0.9107 0.06042 0.45688 0.0
H1626 H 0.88729 0.98527 0.39992 0.0
C1627 C 0.90481 0.08916 0.42998 0.0
H1628 H 0.90539 1.00024 0.46588 0.0
C1629 C 0.89313 0.0805 0.39245 0.0
C1630 C 0.88693 0.04298 0.38087 0.0
H1631 H 0.91029 0.11829 0.43754 0.0
H1632 H 0.8922 0.10286 0.3716 0.0
C1633 C 0.8903 0.01455 0.40831 0.0
C1634 C 0.31473 0.81567 0.84859 0.0
C1635 C 0.29312 0.81931 0.81483 0.0
H1636 H 0.31901 0.82801 0.90834 0.0
C1637 C 0.25664 0.83467 0.81673 0.0
H1638 H 0.34292 0.80434 0.84807 0.0
C1639 C 0.24352 0.84944 0.85068 0.0
C1640 C 0.26605 0.84817 0.88388 0.0
H1641 H 0.23896 0.83747 0.79125 0.0
H1642 H 0.21606 0.86253 0.85076 0.0
C1643 C 0.30114 0.82975 0.88292 0.0
C1644 C 0.59719 0.94665 0.93109 0.0
C1645 C 0.61312 0.96356 0.96416 0.0
H1646 H 0.59788 0.94113 0.87011 0.0
C1647 C 0.64246 0.98964 0.95961 0.0
H1648 H 0.5747 0.92638 0.93333 0.0
C1649 C 0.65641 0.99738 0.92345 0.0
C1650 C 0.6409 0.98006 0.89045 0.0
H1651 H 0.65578 1.00306 0.98426 0.0
H1652 H 0.67971 0.01674 0.9214 0.0
C1653 C 0.61052 0.95517 0.89476 0.0
C1654 C 0.78204 0.69364 0.16031 0.0
C1655 C 0.8151 0.68697 0.18158 0.0
H1656 H 0.75266 0.68628 0.10714 0.0
C1657 C 0.84569 0.6695 0.16414 0.0
H1658 H 0.75818 0.70697 0.17322 0.0
C1659 C 0.84237 0.65673 0.1266 0.0
C1660 C 0.80874 0.66209 0.10578 0.0
H1661 H 0.87148 0.66371 0.18016 0.0
H1662 H 0.86566 0.64191 0.11425 0.0
C1663 C 0.77904 0.68173 0.12255 0.0
C1664 C 0.87637 0.99207 0.05391 0.0
C1665 C 0.90328 0.96378 0.04726 0.0
H1666 H 0.84142 0.02009 0.09405 0.0
C1667 C 0.91696 0.94317 0.07892 0.0
H1668 H 0.86475 0.0084 0.03045 0.0
C1669 C 0.90409 0.95064 0.1159 0.0
C1670 C 0.8762 0.97806 0.12217 0.0
H1671 H 0.93753 0.92113 0.0751 0.0
H1672 H 0.9151 0.93404 0.13947 0.0
C1673 C 0.86272 0.9987 0.09054 0.0
C1674 C 0.11589 0.56954 0.08128 0.0
C1675 C 0.10326 0.54278 0.054 0.0
H1676 H 0.13555 0.57972 0.13864 0.0
C1677 C 0.10702 0.5044 0.06258 0.0
H1678 H 0.11448 0.59937 0.07531 0.0
C1679 C 0.11966 0.49323 0.09892 0.0
C1680 C 0.12947 0.5202 0.12701 0.0
H1681 H 0.09843 0.48309 0.04192 0.0
H1682 H 0.11863 0.46364 0.10616 0.0
C1683 C 0.12924 0.55834 0.11725 0.0
loop_
_geom_bond_atom_site_label_1
_geom_bond_atom_site_label_2
_geom_bond_distance
_geom_bond_site_symmetry_2
_ccdc_geom_bond_type
Fe0 O2 1.918 . S
Fe0 O5 1.997 . S
Fe0 O6 2.002 . S
Fe0 O11 1.976 . S
Fe0 O14 1.996 . S
Fe1 O2 1.918 . S
Fe1 O9 1.997 . S
Fe1 O12 1.996 . S
Fe1 O16 1.976 . S
Fe1 O19 2.002 . S
O2 Fe0 1.918 . S
O2 Fe1 1.918 . S
O2 Fe3 1.918 . S
Fe3 O2 1.918 . S
Fe3 O4 2.002 . S
Fe3 O13 1.976 . S
Fe3 O17 1.996 . S
Fe3 O20 1.997 . S
O4 Fe3 2.002 . S
O4 C21 1.295 . S
O5 Fe0 1.997 . S
O5 C21 1.235 . S
O6 Fe0 2.002 . S
O6 C7 1.295 . S
C7 O6 1.295 . S
C7 O9 1.235 . S
C8 O13 1.287 . S
C8 O14 1.255 . S
O9 Fe1 1.997 . S
O9 C7 1.235 . S
C10 O16 1.287 . S
C10 O17 1.255 . S
O11 Fe0 1.976 . S
O11 C18 1.287 . S
O12 Fe1 1.996 . S
O12 C18 1.255 . S
O13 Fe3 1.976 . S
O13 C8 1.287 . S
O14 Fe0 1.996 . S
O14 C8 1.255 . S
C15 O19 1.295 . S
C15 O20 1.235 . S
O16 Fe1 1.976 . S
O16 C10 1.287 . S
O17 Fe3 1.996 . S
O17 C10 1.255 . S
C18 O11 1.287 . S
C18 O12 1.255 . S
O19 Fe1 2.002 . S
O19 C15 1.295 . S
O20 Fe3 1.997 . S
O20 C15 1.235 . S
C21 O4 1.295 . S
C21 O5 1.235 . S
Fe22 O24 1.918 . S
Fe22 O27 1.997 . S
Fe22 O28 2.002 . S
Fe22 O33 1.976 . S
Fe22 O36 1.996 . S
Fe23 O24 1.918 . S
Fe23 O31 1.997 . S
Fe23 O34 1.996 . S
Fe23 O38 1.976 1_554 S
Fe23 O41 2.002 . S
O24 Fe22 1.918 . S
O24 Fe23 1.918 . S
O24 Fe25 1.918 . S
Fe25 O24 1.918 . S
Fe25 O26 2.002 . S
Fe25 O35 1.976 . S
Fe25 O39 1.996 1_554 S
Fe25 O42 1.997 . S
O26 Fe25 2.002 . S
O26 C43 1.295 . S
O27 Fe22 1.997 . S
O27 C43 1.235 . S
O28 Fe22 2.002 . S
O28 C29 1.295 . S
C29 O28 1.295 . S
C29 O31 1.235 . S
C30 O35 1.287 . S
C30 O36 1.255 . S
O31 Fe23 1.997 . S
O31 C29 1.235 . S
C32 O38 1.287 . S
C32 O39 1.255 . S
O33 Fe22 1.976 . S
O33 C40 1.287 . S
O34 Fe23 1.996 . S
O34 C40 1.255 . S
O35 Fe25 1.976 . S
O35 C30 1.287 . S
O36 Fe22 1.996 . S
O36 C30 1.255 . S
C37 O41 1.295 . S
C37 O42 1.235 . S
O38 Fe23 1.976 1_556 S
O38 C32 1.287 . S
O39 Fe25 1.996 1_556 S
O39 C32 1.255 . S
C40 O33 1.287 . S
C40 O34 1.255 . S
O41 Fe23 2.002 . S
O41 C37 1.295 . S
O42 Fe25 1.997 . S
O42 C37 1.235 . S
C43 O26 1.295 . S
C43 O27 1.235 . S
Fe44 O46 1.918 . S
Fe44 O49 1.997 . S
Fe44 O50 2.002 . S
Fe44 O55 1.976 . S
Fe44 O58 1.996 . S
Fe45 O46 1.918 . S
Fe45 O53 1.997 . S
Fe45 O56 1.996 . S
Fe45 O60 1.976 . S
Fe45 O63 2.002 . S
O46 Fe44 1.918 . S
O46 Fe45 1.918 . S
O46 Fe47 1.918 . S
Fe47 O46 1.918 . S
Fe47 O48 2.002 . S
Fe47 O57 1.976 . S
Fe47 O61 1.996 . S
Fe47 O64 1.997 . S
O48 Fe47 2.002 . S
O48 C65 1.295 . S
O49 Fe44 1.997 . S
O49 C65 1.235 . S
O50 Fe44 2.002 . S
O50 C51 1.295 . S
C51 O50 1.295 . S
C51 O53 1.235 . S
C52 O57 1.287 . S
C52 O58 1.255 . S
O53 Fe45 1.997 . S
O53 C51 1.235 . S
C54 O60 1.287 . S
C54 O61 1.255 . S
O55 Fe44 1.976 . S
O55 C62 1.287 . S
O56 Fe45 1.996 . S
O56 C62 1.255 . S
O57 Fe47 1.976 . S
O57 C52 1.287 . S
O58 Fe44 1.996 . S
O58 C52 1.255 . S
C59 O63 1.295 . S
C59 O64 1.235 . S
O60 Fe45 1.976 . S
O60 C54 1.287 . S
O61 Fe47 1.996 . S
O61 C54 1.255 . S
C62 O55 1.287 . S
C62 O56 1.255 . S
O63 Fe45 2.002 . S
O63 C59 1.295 . S
O64 Fe47 1.997 . S
O64 C59 1.235 . S
C65 O48 1.295 . S
C65 O49 1.235 . S
Fe66 O68 1.918 . S
Fe66 O71 1.997 . S
Fe66 O72 2.002 . S
Fe66 O77 1.976 . S
Fe66 O80 1.996 . S
Fe67 O68 1.918 . S
Fe67 O75 1.997 . S
Fe67 O78 1.996 . S
Fe67 O82 1.976 . S
Fe67 O85 2.002 . S
O68 Fe66 1.918 . S
O68 Fe67 1.918 . S
O68 Fe69 1.918 . S
Fe69 O68 1.918 . S
Fe69 O70 2.002 . S
Fe69 O79 1.976 . S
Fe69 O83 2.013 . S
Fe69 O86 1.997 . S
O70 Fe69 2.002 . S
O70 C87 1.295 . S
O71 Fe66 1.997 . S
O71 C87 1.235 . S
O72 Fe66 2.002 . S
O72 C73 1.295 . S
C73 O72 1.295 . S
C73 O75 1.235 . S
C74 O79 1.287 1_545 S
C74 O80 1.255 1_545 S
O75 Fe67 1.997 . S
O75 C73 1.235 . S
C76 O82 1.287 1_556 S
C76 O83 1.247 1_556 S
O77 Fe66 1.976 . S
O77 C84 1.287 . S
O78 Fe67 1.996 . S
O78 C84 1.255 . S
O79 Fe69 1.976 . S
O79 C74 1.287 1_565 S
O80 Fe66 1.996 . S
O80 C74 1.255 1_565 S
C81 O85 1.295 . S
C81 O86 1.235 . S
O82 Fe67 1.976 . S
O82 C76 1.287 1_554 S
O83 Fe69 2.013 . S
O83 C76 1.247 1_554 S
C84 O77 1.287 . S
C84 O78 1.255 . S
O85 Fe67 2.002 . S
O85 C81 1.295 . S
O86 Fe69 1.997 . S
O86 C81 1.235 . S
C87 O70 1.295 . S
C87 O71 1.235 . S
Fe88 O90 1.918 . S
Fe88 O93 1.997 . S
Fe88 O94 2.002 . S
Fe88 O99 1.976 . S
Fe88 O102 1.996 . S
Fe89 O90 1.918 . S
Fe89 O97 1.997 . S
Fe89 O100 1.996 . S
Fe89 O104 1.976 . S
Fe89 O107 2.002 . S
O90 Fe88 1.918 . S
O90 Fe89 1.918 . S
O90 Fe91 1.918 . S
Fe91 O90 1.918 . S
Fe91 O92 2.002 . S
Fe91 O101 1.976 . S
Fe91 O105 1.996 . S
Fe91 O108 1.997 . S
O92 Fe91 2.002 . S
O92 C109 1.295 . S
O93 Fe88 1.997 . S
O93 C109 1.235 . S
O94 Fe88 2.002 . S
O94 C95 1.295 . S
C95 O94 1.295 . S
C95 O97 1.235 . S
C96 O101 1.287 . S
C96 O102 1.255 . S
O97 Fe89 1.997 . S
O97 C95 1.235 . S
C98 O104 1.287 . S
C98 O105 1.255 . S
O99 Fe88 1.976 . S
O99 C106 1.287 . S
O100 Fe89 1.996 . S
O100 C106 1.255 . S
O101 Fe91 1.976 . S
O101 C96 1.287 . S
O102 Fe88 1.996 . S
O102 C96 1.255 . S
C103 O107 1.295 . S
C103 O108 1.235 . S
O104 Fe89 1.976 . S
O104 C98 1.287 . S
O105 Fe91 1.996 . S
O105 C98 1.255 . S
C106 O99 1.287 . S
C106 O100 1.255 . S
O107 Fe89 2.002 . S
O107 C103 1.295 . S
O108 Fe91 1.997 . S
O108 C103 1.235 . S
C109 O92 1.295 . S
C109 O93 1.235 . S
Fe110 O112 1.918 . S
Fe110 O115 1.997 . S
Fe110 O116 2.002 . S
Fe110 O121 1.976 . S
Fe110 O124 1.996 1_556 S
Fe111 O112 1.918 . S
Fe111 O119 1.997 . S
Fe111 O122 1.996 . S
Fe111 O126 1.976 . S
Fe111 O129 2.002 . S
O112 Fe110 1.918 . S
O112 Fe111 1.918 . S
O112 Fe113 1.918 . S
Fe113 O112 1.918 . S
Fe113 O114 2.002 . S
Fe113 O123 1.976 1_556 S
Fe113 O127 1.996 . S
Fe113 O130 1.997 . S
O114 Fe113 2.002 . S
O114 C131 1.295 . S
O115 Fe110 1.997 . S
O115 C131 1.235 . S
O116 Fe110 2.002 . S
O116 C117 1.295 . S
C117 O116 1.295 . S
C117 O119 1.235 . S
C118 O123 1.287 . S
C118 O124 1.255 . S
O119 Fe111 1.997 . S
O119 C117 1.235 . S
C120 O126 1.287 1_655 S
C120 O127 1.255 1_655 S
O121 Fe110 1.976 . S
O121 C128 1.287 . S
O122 Fe111 1.996 . S
O122 C128 1.255 . S
O123 Fe113 1.976 1_554 S
O123 C118 1.287 . S
O124 Fe110 1.996 1_554 S
O124 C118 1.255 . S
C125 O129 1.295 . S
C125 O130 1.235 . S
O126 Fe111 1.976 . S
O126 C120 1.287 1_455 S
O127 Fe113 1.996 . S
O127 C120 1.255 1_455 S
C128 O121 1.287 . S
C128 O122 1.255 . S
O129 Fe111 2.002 . S
O129 C125 1.295 . S
O130 Fe113 1.997 . S
O130 C125 1.235 . S
C131 O114 1.295 . S
C131 O115 1.235 . S
Fe132 O134 1.918 . S
Fe132 O137 1.997 . S
Fe132 O138 2.002 . S
Fe132 O143 1.976 . S
Fe132 O146 1.996 . S
Fe133 O134 1.918 . S
Fe133 O141 1.997 . S
Fe133 O144 1.996 . S
Fe133 O148 1.976 . S
Fe133 O151 2.002 . S
O134 Fe132 1.918 . S
O134 Fe133 1.918 . S
O134 Fe135 1.918 . S
Fe135 O134 1.918 . S
Fe135 O136 2.002 . S
Fe135 O145 1.976 . S
Fe135 O149 1.996 . S
Fe135 O152 1.997 . S
O136 Fe135 2.002 . S
O136 C153 1.295 . S
O137 Fe132 1.997 . S
O137 C153 1.235 . S
O138 Fe132 2.002 . S
O138 C139 1.295 . S
C139 O138 1.295 . S
C139 O141 1.235 . S
C140 O145 1.287 . S
C140 O146 1.255 . S
O141 Fe133 1.997 . S
O141 C139 1.235 . S
C142 O148 1.287 . S
C142 O149 1.255 . S
O143 Fe132 1.976 . S
O143 C150 1.287 . S
O144 Fe133 1.996 . S
O144 C150 1.255 . S
O145 Fe135 1.976 . S
O145 C140 1.287 . S
O146 Fe132 1.996 . S
O146 C140 1.255 . S
C147 O151 1.295 . S
C147 O152 1.235 . S
O148 Fe133 1.976 . S
O148 C142 1.287 . S
O149 Fe135 1.996 . S
O149 C142 1.255 . S
C150 O143 1.287 . S
C150 O144 1.255 . S
O151 Fe133 2.002 . S
O151 C147 1.295 . S
O152 Fe135 1.997 . S
O152 C147 1.235 . S
C153 O136 1.295 . S
C153 O137 1.235 . S
Fe154 O156 1.918 . S
Fe154 O159 1.997 . S
Fe154 O160 2.002 . S
Fe154 O165 1.976 . S
Fe154 O168 1.996 . S
Fe155 O156 1.918 . S
Fe155 O163 1.997 . S
Fe155 O166 1.996 . S
Fe155 O170 1.976 . S
Fe155 O173 2.002 . S
O156 Fe154 1.918 . S
O156 Fe155 1.918 . S
O156 Fe157 1.918 . S
Fe157 O156 1.918 . S
Fe157 O158 2.002 . S
Fe157 O167 1.976 . S
Fe157 O171 1.996 . S
Fe157 O174 1.997 . S
O158 Fe157 2.002 . S
O158 C175 1.295 . S
O159 Fe154 1.997 . S
O159 C175 1.235 . S
O160 Fe154 2.002 . S
O160 C161 1.295 . S
C161 O160 1.295 . S
C161 O163 1.235 . S
C162 O167 1.287 1_554 S
C162 O168 1.255 1_554 S
O163 Fe155 1.997 . S
O163 C161 1.235 . S
C164 O170 1.287 1_455 S
C164 O171 1.255 1_455 S
O165 Fe154 1.976 . S
O165 C172 1.287 1_565 S
O166 Fe155 1.996 . S
O166 C172 1.255 1_565 S
O167 Fe157 1.976 . S
O167 C162 1.287 1_556 S
O168 Fe154 1.996 . S
O168 C162 1.255 1_556 S
C169 O173 1.295 . S
C169 O174 1.235 . S
O170 Fe155 1.976 . S
O170 C164 1.287 1_655 S
O171 Fe157 1.996 . S
O171 C164 1.255 1_655 S
C172 O165 1.287 1_545 S
C172 O166 1.255 1_545 S
O173 Fe155 2.002 . S
O173 C169 1.295 . S
O174 Fe157 1.997 . S
O174 C169 1.235 . S
C175 O158 1.295 . S
C175 O159 1.235 . S
Fe176 O178 1.918 . S
Fe176 O181 1.997 . S
Fe176 O182 2.002 . S
Fe176 O187 1.976 . S
Fe176 O190 1.996 . S
Fe177 O178 1.918 . S
Fe177 O185 1.997 . S
Fe177 O188 1.996 . S
Fe177 O192 1.976 . S
Fe177 O195 2.002 . S
O178 Fe176 1.918 . S
O178 Fe177 1.918 . S
O178 Fe179 1.918 . S
Fe179 O178 1.918 . S
Fe179 O180 2.002 . S
Fe179 O189 1.976 . S
Fe179 O193 1.996 . S
Fe179 O196 1.997 . S
O180 Fe179 2.002 . S
O180 C197 1.295 . S
O181 Fe176 1.997 . S
O181 C197 1.235 . S
O182 Fe176 2.002 . S
O182 C183 1.295 . S
C183 O182 1.295 . S
C183 O185 1.235 . S
C184 O189 1.287 . S
C184 O190 1.255 . S
O185 Fe177 1.997 . S
O185 C183 1.235 . S
C186 O192 1.287 . S
C186 O193 1.255 . S
O187 Fe176 1.976 . S
O187 C194 1.287 . S
O188 Fe177 1.996 . S
O188 C194 1.255 . S
O189 Fe179 1.976 . S
O189 C184 1.287 . S
O190 Fe176 1.996 . S
O190 C184 1.255 . S
C191 O195 1.295 . S
C191 O196 1.235 . S
O192 Fe177 1.976 . S
O192 C186 1.287 . S
O193 Fe179 1.996 . S
O193 C186 1.255 . S
C194 O187 1.287 . S
C194 O188 1.255 . S
O195 Fe177 2.002 . S
O195 C191 1.295 . S
O196 Fe179 1.997 . S
O196 C191 1.235 . S
C197 O180 1.295 . S
C197 O181 1.235 . S
Fe198 O200 1.918 . S
Fe198 O203 1.997 . S
Fe198 O204 2.002 . S
Fe198 O209 1.976 . S
Fe198 O212 1.996 . S
Fe199 O200 1.918 . S
Fe199 O207 1.997 . S
Fe199 O210 1.996 . S
Fe199 O214 1.976 . S
Fe199 O217 2.002 . S
O200 Fe198 1.918 . S
O200 Fe199 1.918 . S
O200 Fe201 1.918 . S
Fe201 O200 1.918 . S
Fe201 O202 2.002 . S
Fe201 O211 1.976 . S
Fe201 O215 1.996 . S
Fe201 O218 1.997 . S
O202 Fe201 2.002 . S
O202 C219 1.295 . S
O203 Fe198 1.997 . S
O203 C219 1.235 . S
O204 Fe198 2.002 . S
O204 C205 1.295 . S
C205 O204 1.295 . S
C205 O207 1.235 . S
C206 O211 1.287 . S
C206 O212 1.255 . S
O207 Fe199 1.997 . S
O207 C205 1.235 . S
C208 O214 1.287 . S
C208 O215 1.255 . S
O209 Fe198 1.976 . S
O209 C216 1.287 . S
O210 Fe199 1.996 . S
O210 C216 1.255 . S
O211 Fe201 1.976 . S
O211 C206 1.287 . S
O212 Fe198 1.996 . S
O212 C206 1.255 . S
C213 O217 1.295 . S
C213 O218 1.235 . S
O214 Fe199 1.976 . S
O214 C208 1.287 . S
O215 Fe201 1.996 . S
O215 C208 1.255 . S
C216 O209 1.287 . S
C216 O210 1.255 . S
O217 Fe199 2.002 . S
O217 C213 1.295 . S
O218 Fe201 1.997 . S
O218 C213 1.235 . S
C219 O202 1.295 . S
C219 O203 1.235 . S
Fe220 O222 1.918 . S
Fe220 O225 1.997 . S
Fe220 O226 2.002 . S
Fe220 O231 1.976 . S
Fe220 O234 1.996 . S
Fe221 O222 1.918 . S
Fe221 O229 1.997 . S
Fe221 O232 1.996 . S
Fe221 O236 1.976 . S
Fe221 O239 2.002 . S
O222 Fe220 1.918 . S
O222 Fe221 1.918 . S
O222 Fe223 1.918 . S
Fe223 O222 1.918 . S
Fe223 O224 2.002 . S
Fe223 O233 1.976 . S
Fe223 O237 1.996 . S
Fe223 O240 1.997 . S
O224 Fe223 2.002 . S
O224 C241 1.295 . S
O225 Fe220 1.997 . S
O225 C241 1.235 . S
O226 Fe220 2.002 . S
O226 C227 1.295 . S
C227 O226 1.295 . S
C227 O229 1.235 . S
C228 O233 1.287 1_655 S
C228 O234 1.255 1_655 S
O229 Fe221 1.997 . S
O229 C227 1.235 . S
C230 O236 1.287 . S
C230 O237 1.255 . S
O231 Fe220 1.976 . S
O231 C238 1.287 . S
O232 Fe221 1.996 . S
O232 C238 1.255 . S
O233 Fe223 1.976 . S
O233 C228 1.287 1_455 S
O234 Fe220 1.996 . S
O234 C228 1.255 1_455 S
C235 O239 1.295 . S
C235 O240 1.235 . S
O236 Fe221 1.976 . S
O236 C230 1.287 . S
O237 Fe223 1.996 . S
O237 C230 1.255 . S
C238 O231 1.287 . S
C238 O232 1.255 . S
O239 Fe221 2.002 . S
O239 C235 1.295 . S
O240 Fe223 1.997 . S
O240 C235 1.235 . S
C241 O224 1.295 . S
C241 O225 1.235 . S
Fe242 O244 1.918 . S
Fe242 O247 1.997 . S
Fe242 O248 2.002 . S
Fe242 O253 1.976 . S
Fe242 O256 1.996 . S
Fe243 O244 1.918 . S
Fe243 O251 1.997 . S
Fe243 O254 1.996 . S
Fe243 O258 1.976 . S
Fe243 O261 2.002 . S
O244 Fe242 1.918 . S
O244 Fe243 1.918 . S
O244 Fe245 1.918 . S
Fe245 O244 1.918 . S
Fe245 O246 2.002 . S
Fe245 O255 1.976 . S
Fe245 O259 1.996 . S
Fe245 O262 1.997 . S
O246 Fe245 2.002 . S
O246 C263 1.295 . S
O247 Fe242 1.997 . S
O247 C263 1.235 . S
O248 Fe242 2.002 . S
O248 C249 1.295 . S
C249 O248 1.295 . S
C249 O251 1.235 . S
C250 O255 1.287 1_565 S
C250 O256 1.255 1_565 S
O251 Fe243 1.997 . S
O251 C249 1.235 . S
C252 O258 1.287 . S
C252 O259 1.255 . S
O253 Fe242 1.976 . S
O253 C260 1.287 1_655 S
O254 Fe243 1.996 . S
O254 C260 1.255 1_655 S
O255 Fe245 1.976 . S
O255 C250 1.287 1_545 S
O256 Fe242 1.996 . S
O256 C250 1.255 1_545 S
C257 O261 1.295 . S
C257 O262 1.235 . S
O258 Fe243 1.976 . S
O258 C252 1.287 . S
O259 Fe245 1.996 . S
O259 C252 1.255 . S
C260 O253 1.287 1_455 S
C260 O254 1.255 1_455 S
O261 Fe243 2.002 . S
O261 C257 1.295 . S
O262 Fe245 1.997 . S
O262 C257 1.235 . S
C263 O246 1.295 . S
C263 O247 1.235 . S
Fe264 O266 1.918 . S
Fe264 O269 1.997 . S
Fe264 O270 2.002 . S
Fe264 O275 1.976 . S
Fe264 O278 1.996 . S
Fe265 O266 1.918 . S
Fe265 O273 1.997 . S
Fe265 O276 1.996 . S
Fe265 O280 1.976 . S
Fe265 O283 2.002 . S
O266 Fe264 1.918 . S
O266 Fe265 1.918 . S
O266 Fe267 1.918 . S
Fe267 O266 1.918 . S
Fe267 O268 2.002 . S
Fe267 O277 1.976 . S
Fe267 O281 1.996 . S
Fe267 O284 1.997 . S
O268 Fe267 2.002 . S
O268 C285 1.295 . S
O269 Fe264 1.997 . S
O269 C285 1.235 . S
O270 Fe264 2.002 . S
O270 C271 1.295 . S
C271 O270 1.295 . S
C271 O273 1.235 . S
C272 O277 1.287 . S
C272 O278 1.255 . S
O273 Fe265 1.997 . S
O273 C271 1.235 . S
C274 O280 1.287 . S
C274 O281 1.255 . S
O275 Fe264 1.976 . S
O275 C282 1.287 . S
O276 Fe265 1.996 . S
O276 C282 1.255 . S
O277 Fe267 1.976 . S
O277 C272 1.287 . S
O278 Fe264 1.996 . S
O278 C272 1.255 . S
C279 O283 1.295 . S
C279 O284 1.235 . S
O280 Fe265 1.976 . S
O280 C274 1.287 . S
O281 Fe267 1.996 . S
O281 C274 1.255 . S
C282 O275 1.287 . S
C282 O276 1.255 . S
O283 Fe265 2.002 . S
O283 C279 1.295 . S
O284 Fe267 1.997 . S
O284 C279 1.235 . S
C285 O268 1.295 . S
C285 O269 1.235 . S
Fe286 O288 1.918 . S
Fe286 O291 1.997 . S
Fe286 O292 2.002 . S
Fe286 O297 1.976 . S
Fe286 O300 1.996 . S
Fe287 O288 1.918 . S
Fe287 O295 1.997 . S
Fe287 O298 1.996 . S
Fe287 O302 1.976 . S
Fe287 O305 2.002 . S
O288 Fe286 1.918 . S
O288 Fe287 1.918 . S
O288 Fe289 1.918 . S
Fe289 O288 1.918 . S
Fe289 O290 2.002 . S
Fe289 O299 1.976 . S
Fe289 O303 1.996 . S
Fe289 O306 1.997 . S
O290 Fe289 2.002 . S
O290 C307 1.295 . S
O291 Fe286 1.997 . S
O291 C307 1.235 . S
O292 Fe286 2.002 . S
O292 C293 1.295 . S
C293 O292 1.295 . S
C293 O295 1.235 . S
C294 O299 1.287 . S
C294 O300 1.255 . S
O295 Fe287 1.997 . S
O295 C293 1.235 . S
C296 O302 1.287 . S
C296 O303 1.255 . S
O297 Fe286 1.976 . S
O297 C304 1.287 . S
O298 Fe287 1.996 . S
O298 C304 1.255 . S
O299 Fe289 1.976 . S
O299 C294 1.287 . S
O300 Fe286 1.996 . S
O300 C294 1.255 . S
C301 O305 1.295 . S
C301 O306 1.235 . S
O302 Fe287 1.976 . S
O302 C296 1.287 . S
O303 Fe289 1.996 . S
O303 C296 1.255 . S
C304 O297 1.287 . S
C304 O298 1.255 . S
O305 Fe287 2.002 . S
O305 C301 1.295 . S
O306 Fe289 1.997 . S
O306 C301 1.235 . S
C307 O290 1.295 . S
C307 O291 1.235 . S
Fe308 O310 1.918 . S
Fe308 O313 1.997 . S
Fe308 O314 2.002 . S
Fe308 O319 1.976 . S
Fe308 O322 1.996 . S
Fe309 O310 1.918 . S
Fe309 O317 1.997 . S
Fe309 O320 1.996 . S
Fe309 O324 1.976 . S
Fe309 O327 2.002 . S
O310 Fe308 1.918 . S
O310 Fe309 1.918 . S
O310 Fe311 1.918 . S
Fe311 O310 1.918 . S
Fe311 O312 2.002 . S
Fe311 O321 1.976 . S
Fe311 O325 1.996 . S
Fe311 O328 1.997 . S
O312 Fe311 2.002 . S
O312 C329 1.295 . S
O313 Fe308 1.997 . S
O313 C329 1.235 . S
O314 Fe308 2.002 . S
O314 C315 1.295 . S
C315 O314 1.295 . S
C315 O317 1.235 . S
C316 O321 1.287 . S
C316 O322 1.255 . S
O317 Fe309 1.997 . S
O317 C315 1.235 . S
C318 O324 1.287 . S
C318 O325 1.255 . S
O319 Fe308 1.976 . S
O319 C326 1.287 1_545 S
O320 Fe309 1.996 . S
O320 C326 1.255 1_545 S
O321 Fe311 1.976 . S
O321 C316 1.287 . S
O322 Fe308 1.996 . S
O322 C316 1.255 . S
C323 O327 1.295 . S
C323 O328 1.235 . S
O324 Fe309 1.976 . S
O324 C318 1.287 . S
O325 Fe311 1.996 . S
O325 C318 1.255 . S
C326 O319 1.287 1_565 S
C326 O320 1.255 1_565 S
O327 Fe309 2.002 . S
O327 C323 1.295 . S
O328 Fe311 1.997 . S
O328 C323 1.235 . S
C329 O312 1.295 . S
C329 O313 1.235 . S
Fe330 O332 1.918 . S
Fe330 O335 1.997 . S
Fe330 O336 2.002 . S
Fe330 O341 1.976 . S
Fe330 O344 1.996 . S
Fe331 O332 1.918 . S
Fe331 O339 1.997 . S
Fe331 O342 1.996 . S
Fe331 O346 1.976 . S
Fe331 O349 2.002 . S
O332 Fe330 1.918 . S
O332 Fe331 1.918 . S
O332 Fe333 1.918 . S
Fe333 O332 1.918 . S
Fe333 O334 2.002 . S
Fe333 O343 1.976 . S
Fe333 O347 1.996 . S
Fe333 O350 1.997 . S
O334 Fe333 2.002 . S
O334 C351 1.295 . S
O335 Fe330 1.997 . S
O335 C351 1.235 . S
O336 Fe330 2.002 . S
O336 C337 1.295 . S
C337 O336 1.295 . S
C337 O339 1.235 . S
C338 O343 1.287 . S
C338 O344 1.255 . S
O339 Fe331 1.997 . S
O339 C337 1.235 . S
C340 O346 1.287 . S
C340 O347 1.255 . S
O341 Fe330 1.976 . S
O341 C348 1.287 . S
O342 Fe331 1.996 . S
O342 C348 1.255 . S
O343 Fe333 1.976 . S
O343 C338 1.287 . S
O344 Fe330 1.996 . S
O344 C338 1.255 . S
C345 O349 1.295 . S
C345 O350 1.235 . S
O346 Fe331 1.976 . S
O346 C340 1.287 . S
O347 Fe333 1.996 . S
O347 C340 1.255 . S
C348 O341 1.287 . S
C348 O342 1.255 . S
O349 Fe331 2.002 . S
O349 C345 1.295 . S
O350 Fe333 1.997 . S
O350 C345 1.235 . S
C351 O334 1.295 . S
C351 O335 1.235 . S
C352 O364 1.241 1_554 S
C352 O365 1.280 1_554 S
C353 O366 1.277 . S
C353 O367 1.245 . S
C354 O378 1.256 . S
C354 O380 1.289 . S
Mg355 O356 1.926 1_455 S
Mg355 O365 1.984 1_455 S
Mg355 O367 1.988 . S
Mg355 O368 2.059 1_455 S
O356 Mg355 1.926 1_655 S
O356 Mg357 1.986 . S
O356 Mg358 1.916 1_655 S
Mg357 O356 1.986 . S
Mg357 O364 2.042 . S
Mg357 O366 2.041 1_655 S
Mg357 O372 2.038 . S
Mg357 O380 2.238 1_655 S
Mg358 O356 1.916 1_455 S
Mg358 O359 1.918 . S
Mg358 O369 2.106 1_455 S
Mg358 O371 2.073 1_455 S
Mg358 O380 2.107 . S
Mg358 O381 2.084 . S
O359 Mg358 1.918 . S
O359 Mg360 1.926 1_455 S
O359 Mg361 1.986 . S
Mg360 O359 1.926 1_655 S
Mg360 O374 1.984 1_655 S
Mg360 O377 1.988 . S
Mg360 O378 2.057 1_655 S
Mg361 O359 1.986 . S
Mg361 O369 2.238 1_455 S
Mg361 O373 2.042 . S
Mg361 O375 2.041 1_455 S
Mg361 O382 2.038 . S
C362 O368 1.251 . S
C362 O369 1.289 . S
C363 O381 1.245 . S
C363 O382 1.274 . S
O364 C352 1.241 1_556 S
O364 Mg357 2.042 . S
O365 C352 1.280 1_556 S
O365 Mg355 1.984 1_655 S
O366 C353 1.277 . S
O366 Mg357 2.041 1_455 S
O367 C353 1.245 . S
O367 Mg355 1.988 . S
O368 Mg355 2.059 1_655 S
O368 C362 1.251 . S
O369 Mg358 2.106 1_655 S
O369 Mg361 2.238 1_655 S
O369 C362 1.289 . S
C370 O371 1.245 . S
C370 O372 1.274 . S
O371 Mg358 2.073 1_655 S
O371 C370 1.245 . S
O372 Mg357 2.038 . S
O372 C370 1.274 . S
O373 Mg361 2.042 . S
O373 C376 1.241 . S
O374 Mg360 1.984 1_455 S
O374 C376 1.280 . S
O375 Mg361 2.041 1_655 S
O375 C379 1.277 . S
C376 O373 1.241 . S
C376 O374 1.280 . S
O377 Mg360 1.988 . S
O377 C379 1.245 . S
O378 C354 1.256 . S
O378 Mg360 2.057 1_455 S
C379 O375 1.277 . S
C379 O377 1.245 . S
O380 C354 1.289 . S
O380 Mg357 2.238 1_455 S
O380 Mg358 2.107 . S
O381 Mg358 2.084 . S
O381 C363 1.245 . S
O382 Mg361 2.038 . S
O382 C363 1.274 . S
C383 O395 1.241 . S
C383 O396 1.280 . S
C384 O397 1.277 . S
C384 O398 1.245 . S
C385 O409 1.247 . S
C385 O411 1.289 . S
Mg386 O387 1.926 . S
Mg386 O396 1.984 . S
Mg386 O398 1.988 . S
Mg386 O399 2.061 . S
O387 Mg386 1.926 . S
O387 Mg388 1.986 . S
O387 Mg389 1.917 . S
Mg388 O387 1.986 . S
Mg388 O395 2.042 . S
Mg388 O397 2.041 . S
Mg388 O403 2.038 . S
Mg388 O411 2.238 . S
Mg389 O387 1.917 . S
Mg389 O390 1.917 . S
Mg389 O400 2.106 . S
Mg389 O402 2.079 . S
Mg389 O411 2.106 . S
Mg389 O412 2.079 . S
O390 Mg389 1.917 . S
O390 Mg391 1.926 . S
O390 Mg392 1.986 . S
Mg391 O390 1.926 . S
Mg391 O405 1.984 . S
Mg391 O408 1.988 . S
Mg391 O409 2.061 . S
Mg392 O390 1.986 . S
Mg392 O400 2.238 . S
Mg392 O404 2.042 . S
Mg392 O406 2.041 . S
Mg392 O413 2.038 . S
C393 O399 1.247 . S
C393 O400 1.289 . S
C394 O412 1.245 . S
C394 O413 1.274 . S
O395 C383 1.241 . S
O395 Mg388 2.042 . S
O396 C383 1.280 . S
O396 Mg386 1.984 . S
O397 C384 1.277 . S
O397 Mg388 2.041 . S
O398 C384 1.245 . S
O398 Mg386 1.988 . S
O399 Mg386 2.061 . S
O399 C393 1.247 . S
O400 Mg389 2.106 . S
O400 Mg392 2.238 . S
O400 C393 1.289 . S
C401 O402 1.245 . S
C401 O403 1.274 . S
O402 Mg389 2.079 . S
O402 C401 1.245 . S
O403 Mg388 2.038 . S
O403 C401 1.274 . S
O404 Mg392 2.042 . S
O404 C407 1.241 . S
O405 Mg391 1.984 . S
O405 C407 1.280 . S
O406 Mg392 2.041 . S
O406 C410 1.277 . S
C407 O404 1.241 . S
C407 O405 1.280 . S
O408 Mg391 1.988 . S
O408 C410 1.245 . S
O409 C385 1.247 . S
O409 Mg391 2.061 . S
C410 O406 1.277 . S
C410 O408 1.245 . S
O411 C385 1.289 . S
O411 Mg388 2.238 . S
O411 Mg389 2.106 . S
O412 Mg389 2.079 . S
O412 C394 1.245 . S
O413 Mg392 2.038 . S
O413 C394 1.274 . S
C414 O426 1.241 . S
C414 O427 1.280 . S
C415 O428 1.277 . S
C415 O429 1.245 . S
C416 O440 1.247 . S
C416 O442 1.289 . S
Mg417 O418 1.926 1_455 S
Mg417 O427 1.984 1_455 S
Mg417 O429 1.988 . S
Mg417 O430 2.061 . S
O418 Mg417 1.926 1_655 S
O418 Mg419 1.986 . S
O418 Mg420 1.917 1_655 S
Mg419 O418 1.986 . S
Mg419 O426 2.042 . S
Mg419 O428 2.041 1_655 S
Mg419 O434 2.038 . S
Mg419 O442 2.238 1_655 S
Mg420 O418 1.917 1_455 S
Mg420 O421 1.917 . S
Mg420 O431 2.104 1_455 S
Mg420 O433 2.079 1_455 S
Mg420 O442 2.106 . S
Mg420 O443 2.079 . S
O421 Mg420 1.917 . S
O421 Mg422 1.926 1_455 S
O421 Mg423 1.986 . S
Mg422 O421 1.926 1_655 S
Mg422 O436 1.984 1_655 S
Mg422 O439 1.988 . S
Mg422 O440 2.061 1_655 S
Mg423 O421 1.986 . S
Mg423 O431 2.226 1_455 S
Mg423 O435 2.042 . S
Mg423 O437 2.041 1_455 S
Mg423 O444 2.038 . S
C424 O430 1.247 1_655 S
C424 O431 1.293 . S
C425 O443 1.245 . S
C425 O444 1.274 . S
O426 C414 1.241 . S
O426 Mg419 2.042 . S
O427 C414 1.280 . S
O427 Mg417 1.984 1_655 S
O428 C415 1.277 . S
O428 Mg419 2.041 1_455 S
O429 C415 1.245 . S
O429 Mg417 1.988 . S
O430 Mg417 2.061 . S
O430 C424 1.247 1_455 S
O431 Mg420 2.104 1_655 S
O431 Mg423 2.226 1_655 S
O431 C424 1.293 . S
C432 O433 1.245 . S
C432 O434 1.274 . S
O433 Mg420 2.079 1_655 S
O433 C432 1.245 . S
O434 Mg419 2.038 . S
O434 C432 1.274 . S
O435 Mg423 2.042 . S
O435 C438 1.241 . S
O436 Mg422 1.984 1_455 S
O436 C438 1.280 . S
O437 Mg423 2.041 1_655 S
O437 C441 1.277 . S
C438 O435 1.241 . S
C438 O436 1.280 . S
O439 Mg422 1.988 . S
O439 C441 1.245 . S
O440 C416 1.247 . S
O440 Mg422 2.061 1_455 S
C441 O437 1.277 . S
C441 O439 1.245 . S
O442 C416 1.289 . S
O442 Mg419 2.238 1_455 S
O442 Mg420 2.106 . S
O443 Mg420 2.079 . S
O443 C425 1.245 . S
O444 Mg423 2.038 . S
O444 C425 1.274 . S
C445 O457 1.246 . S
C445 O458 1.284 . S
C446 O459 1.277 . S
C446 O460 1.245 . S
C447 O471 1.247 . S
C447 O473 1.289 . S
Mg448 O449 1.926 1_565 S
Mg448 O458 1.984 1_565 S
Mg448 O460 1.988 . S
Mg448 O461 2.061 1_565 S
O449 Mg448 1.926 1_545 S
O449 Mg450 1.986 . S
O449 Mg451 1.920 . S
Mg450 O449 1.986 . S
Mg450 O457 2.042 . S
Mg450 O459 2.041 1_545 S
Mg450 O465 2.038 . S
Mg450 O473 2.238 1_545 S
Mg451 O449 1.920 . S
Mg451 O452 1.914 1_545 S
Mg451 O462 2.107 . S
Mg451 O464 2.091 . S
Mg451 O473 2.106 1_545 S
Mg451 O474 2.066 1_545 S
O452 Mg451 1.914 1_565 S
O452 Mg453 1.926 1_565 S
O452 Mg454 1.986 . S
Mg453 O452 1.926 1_545 S
Mg453 O467 1.984 1_545 S
Mg453 O470 1.988 . S
Mg453 O471 2.061 1_545 S
Mg454 O452 1.986 . S
Mg454 O462 2.238 1_565 S
Mg454 O466 2.042 . S
Mg454 O468 2.041 1_565 S
Mg454 O475 2.038 . S
C455 O461 1.247 . S
C455 O462 1.289 . S
C456 O474 1.245 . S
C456 O475 1.274 . S
O457 C445 1.246 . S
O457 Mg450 2.042 . S
O458 C445 1.284 . S
O458 Mg448 1.984 1_545 S
O459 C446 1.277 . S
O459 Mg450 2.041 1_565 S
O460 C446 1.245 . S
O460 Mg448 1.988 . S
O461 Mg448 2.061 1_545 S
O461 C455 1.247 . S
O462 Mg451 2.107 . S
O462 Mg454 2.238 1_545 S
O462 C455 1.289 . S
C463 O464 1.245 . S
C463 O465 1.274 . S
O464 Mg451 2.091 . S
O464 C463 1.245 . S
O465 Mg450 2.038 . S
O465 C463 1.274 . S
O466 Mg454 2.042 . S
O466 C469 1.241 . S
O467 Mg453 1.984 1_565 S
O467 C469 1.280 . S
O468 Mg454 2.041 1_545 S
O468 C472 1.277 . S
C469 O466 1.241 . S
C469 O467 1.280 . S
O470 Mg453 1.988 . S
O470 C472 1.245 . S
O471 C447 1.247 . S
O471 Mg453 2.061 1_565 S
C472 O468 1.277 . S
C472 O470 1.245 . S
O473 C447 1.289 . S
O473 Mg450 2.238 1_565 S
O473 Mg451 2.106 1_565 S
O474 Mg451 2.066 1_565 S
O474 C456 1.245 . S
O475 Mg454 2.038 . S
O475 C456 1.274 . S
C476 O488 1.241 1_545 S
C476 O489 1.280 1_545 S
C477 O490 1.277 . S
C477 O491 1.245 . S
C478 O502 1.247 . S
C478 O504 1.289 . S
Mg479 O480 1.926 1_554 S
Mg479 O489 1.984 1_554 S
Mg479 O491 1.988 . S
Mg479 O492 2.061 . S
O480 Mg479 1.926 1_556 S
O480 Mg481 1.986 . S
O480 Mg482 1.917 1_556 S
Mg481 O480 1.986 . S
Mg481 O488 2.042 . S
Mg481 O490 2.041 1_556 S
Mg481 O496 2.038 . S
Mg481 O504 2.238 . S
Mg482 O480 1.917 1_554 S
Mg482 O483 1.917 . S
Mg482 O493 2.106 . S
Mg482 O495 2.079 1_554 S
Mg482 O504 2.106 1_554 S
Mg482 O505 2.079 . S
O483 Mg482 1.917 . S
O483 Mg484 1.926 1_554 S
O483 Mg485 1.986 . S
Mg484 O483 1.926 1_556 S
Mg484 O498 1.984 1_556 S
Mg484 O501 1.988 . S
Mg484 O502 2.061 . S
Mg485 O483 1.986 . S
Mg485 O493 2.238 . S
Mg485 O497 2.042 . S
Mg485 O499 2.041 . S
Mg485 O506 2.038 . S
C486 O492 1.247 . S
C486 O493 1.289 . S
C487 O505 1.245 . S
C487 O506 1.274 . S
O488 C476 1.241 1_565 S
O488 Mg481 2.042 . S
O489 C476 1.280 1_565 S
O489 Mg479 1.984 1_556 S
O490 C477 1.277 . S
O490 Mg481 2.041 1_554 S
O491 C477 1.245 . S
O491 Mg479 1.988 . S
O492 Mg479 2.061 . S
O492 C486 1.247 . S
O493 Mg482 2.106 . S
O493 Mg485 2.238 . S
O493 C486 1.289 . S
C494 O495 1.245 . S
C494 O496 1.274 . S
O495 Mg482 2.079 1_556 S
O495 C494 1.245 . S
O496 Mg481 2.038 . S
O496 C494 1.274 . S
O497 Mg485 2.042 . S
O497 C500 1.241 . S
O498 Mg484 1.984 1_554 S
O498 C500 1.280 . S
O499 Mg485 2.041 . S
O499 C503 1.277 1_554 S
C500 O497 1.241 . S
C500 O498 1.280 . S
O501 Mg484 1.988 . S
O501 C503 1.245 . S
O502 C478 1.247 . S
O502 Mg484 2.061 . S
C503 O499 1.277 1_556 S
C503 O501 1.245 . S
O504 C478 1.289 . S
O504 Mg481 2.238 . S
O504 Mg482 2.106 1_556 S
O505 Mg482 2.079 . S
O505 C487 1.245 . S
O506 Mg485 2.038 . S
O506 C487 1.274 . S
C507 O519 1.241 . S
C507 O520 1.280 . S
C508 O521 1.277 . S
C508 O522 1.245 . S
C509 O533 1.247 . S
C509 O535 1.289 . S
Mg510 O511 1.926 . S
Mg510 O520 1.984 . S
Mg510 O522 1.988 . S
Mg510 O523 2.061 . S
O511 Mg510 1.926 . S
O511 Mg512 1.986 . S
O511 Mg513 1.917 . S
Mg512 O511 1.986 . S
Mg512 O519 2.042 . S
Mg512 O521 2.041 . S
Mg512 O527 2.038 . S
Mg512 O535 2.238 . S
Mg513 O511 1.917 . S
Mg513 O514 1.917 . S
Mg513 O524 2.106 . S
Mg513 O526 2.079 . S
Mg513 O535 2.106 . S
Mg513 O536 2.079 . S
O514 Mg513 1.917 . S
O514 Mg515 1.926 . S
O514 Mg516 1.986 . S
Mg515 O514 1.926 . S
Mg515 O529 1.984 . S
Mg515 O532 1.988 . S
Mg515 O533 2.061 . S
Mg516 O514 1.986 . S
Mg516 O524 2.238 . S
Mg516 O528 2.042 . S
Mg516 O530 2.041 . S
Mg516 O537 2.038 . S
C517 O523 1.247 . S
C517 O524 1.289 . S
C518 O536 1.245 . S
C518 O537 1.274 . S
O519 C507 1.241 . S
O519 Mg512 2.042 . S
O520 C507 1.280 . S
O520 Mg510 1.984 . S
O521 C508 1.277 . S
O521 Mg512 2.041 . S
O522 C508 1.245 . S
O522 Mg510 1.988 . S
O523 Mg510 2.061 . S
O523 C517 1.247 . S
O524 Mg513 2.106 . S
O524 Mg516 2.238 . S
O524 C517 1.289 . S
C525 O526 1.245 . S
C525 O527 1.274 . S
O526 Mg513 2.079 . S
O526 C525 1.245 . S
O527 Mg512 2.038 . S
O527 C525 1.274 . S
O528 Mg516 2.042 . S
O528 C531 1.241 . S
O529 Mg515 1.984 . S
O529 C531 1.280 . S
O530 Mg516 2.041 . S
O530 C534 1.277 . S
C531 O528 1.241 . S
C531 O529 1.280 . S
O532 Mg515 1.988 . S
O532 C534 1.245 . S
O533 C509 1.247 . S
O533 Mg515 2.061 . S
C534 O530 1.277 . S
C534 O532 1.245 . S
O535 C509 1.289 . S
O535 Mg512 2.238 . S
O535 Mg513 2.106 . S
O536 Mg513 2.079 . S
O536 C518 1.245 . S
O537 Mg516 2.038 . S
O537 C518 1.274 . S
C538 O550 1.241 . S
C538 O551 1.280 . S
C539 O552 1.277 . S
C539 O553 1.245 . S
C540 O564 1.240 1_556 S
C540 O566 1.289 . S
Mg541 O542 1.926 1_556 S
Mg541 O551 1.984 1_556 S
Mg541 O553 1.988 . S
Mg541 O554 2.065 . S
O542 Mg541 1.926 1_554 S
O542 Mg543 1.986 . S
O542 Mg544 1.917 . S
Mg543 O542 1.986 . S
Mg543 O550 2.042 . S
Mg543 O552 2.041 1_554 S
Mg543 O558 2.038 . S
Mg543 O566 2.238 1_554 S
Mg544 O542 1.917 . S
Mg544 O545 1.917 1_554 S
Mg544 O555 2.106 . S
Mg544 O557 2.079 . S
Mg544 O566 2.106 1_554 S
Mg544 O567 2.079 1_554 S
O545 Mg544 1.917 1_556 S
O545 Mg546 1.926 1_556 S
O545 Mg547 1.986 . S
Mg546 O545 1.926 1_554 S
Mg546 O560 1.984 1_554 S
Mg546 O563 1.988 . S
Mg546 O564 2.066 . S
Mg547 O545 1.986 . S
Mg547 O555 2.238 1_556 S
Mg547 O559 2.042 . S
Mg547 O561 2.041 1_556 S
Mg547 O568 2.038 . S
C548 O554 1.242 1_554 S
C548 O555 1.289 . S
C549 O567 1.245 . S
C549 O568 1.274 . S
O550 C538 1.241 . S
O550 Mg543 2.042 . S
O551 C538 1.280 . S
O551 Mg541 1.984 1_554 S
O552 C539 1.277 . S
O552 Mg543 2.041 1_556 S
O553 C539 1.245 . S
O553 Mg541 1.988 . S
O554 Mg541 2.065 . S
O554 C548 1.242 1_556 S
O555 Mg544 2.106 . S
O555 Mg547 2.238 1_554 S
O555 C548 1.289 . S
C556 O557 1.245 . S
C556 O558 1.274 . S
O557 Mg544 2.079 . S
O557 C556 1.245 . S
O558 Mg543 2.038 . S
O558 C556 1.274 . S
O559 Mg547 2.042 . S
O559 C562 1.241 . S
O560 Mg546 1.984 1_556 S
O560 C562 1.280 . S
O561 Mg547 2.041 1_554 S
O561 C565 1.277 . S
C562 O559 1.241 . S
C562 O560 1.280 . S
O563 Mg546 1.988 . S
O563 C565 1.245 . S
O564 C540 1.240 1_554 S
O564 Mg546 2.066 . S
C565 O561 1.277 . S
C565 O563 1.245 . S
O566 C540 1.289 . S
O566 Mg543 2.238 1_556 S
O566 Mg544 2.106 1_556 S
O567 Mg544 2.079 1_556 S
O567 C549 1.245 . S
O568 Mg547 2.038 . S
O568 C549 1.274 . S
C569 O581 1.241 . S
C569 O582 1.280 . S
C570 O583 1.277 . S
C570 O584 1.245 . S
C571 O595 1.247 . S
C571 O597 1.289 . S
Mg572 O573 1.926 . S
Mg572 O582 1.984 . S
Mg572 O584 1.988 . S
Mg572 O585 2.061 . S
O573 Mg572 1.926 . S
O573 Mg574 1.986 . S
O573 Mg575 1.917 . S
Mg574 O573 1.986 . S
Mg574 O581 2.042 . S
Mg574 O583 2.041 . S
Mg574 O589 2.038 . S
Mg574 O597 2.238 . S
Mg575 O573 1.917 . S
Mg575 O576 1.917 . S
Mg575 O586 2.106 . S
Mg575 O588 2.079 . S
Mg575 O597 2.106 . S
Mg575 O598 2.079 . S
O576 Mg575 1.917 . S
O576 Mg577 1.926 . S
O576 Mg578 1.986 . S
Mg577 O576 1.926 . S
Mg577 O591 1.984 . S
Mg577 O594 1.988 . S
Mg577 O595 2.061 . S
Mg578 O576 1.986 . S
Mg578 O586 2.238 . S
Mg578 O590 2.042 . S
Mg578 O592 2.041 . S
Mg578 O599 2.038 . S
C579 O585 1.247 . S
C579 O586 1.289 . S
C580 O598 1.245 . S
C580 O599 1.274 . S
O581 C569 1.241 . S
O581 Mg574 2.042 . S
O582 C569 1.280 . S
O582 Mg572 1.984 . S
O583 C570 1.277 . S
O583 Mg574 2.041 . S
O584 C570 1.245 . S
O584 Mg572 1.988 . S
O585 Mg572 2.061 . S
O585 C579 1.247 . S
O586 Mg575 2.106 . S
O586 Mg578 2.238 . S
O586 C579 1.289 . S
C587 O588 1.245 . S
C587 O589 1.274 . S
O588 Mg575 2.079 . S
O588 C587 1.245 . S
O589 Mg574 2.038 . S
O589 C587 1.274 . S
O590 Mg578 2.042 . S
O590 C593 1.241 . S
O591 Mg577 1.984 . S
O591 C593 1.280 . S
O592 Mg578 2.041 . S
O592 C596 1.277 . S
C593 O590 1.241 . S
C593 O591 1.280 . S
O594 Mg577 1.988 . S
O594 C596 1.245 . S
O595 C571 1.247 . S
O595 Mg577 2.061 . S
C596 O592 1.277 . S
C596 O594 1.245 . S
O597 C571 1.289 . S
O597 Mg574 2.238 . S
O597 Mg575 2.106 . S
O598 Mg575 2.079 . S
O598 C580 1.245 . S
O599 Mg578 2.038 . S
O599 C580 1.274 . S
C600 O612 1.241 . S
C600 O613 1.280 . S
C601 O614 1.277 . S
C601 O615 1.245 . S
C602 O626 1.247 . S
C602 O628 1.289 . S
Mg603 O604 1.926 . S
Mg603 O613 1.984 . S
Mg603 O615 1.988 . S
Mg603 O616 2.061 . S
O604 Mg603 1.926 . S
O604 Mg605 1.986 . S
O604 Mg606 1.917 . S
Mg605 O604 1.986 . S
Mg605 O612 2.042 . S
Mg605 O614 2.041 . S
Mg605 O620 2.038 . S
Mg605 O628 2.238 . S
Mg606 O604 1.917 . S
Mg606 O607 1.917 . S
Mg606 O617 2.106 . S
Mg606 O619 2.079 . S
Mg606 O628 2.106 . S
Mg606 O629 2.079 . S
O607 Mg606 1.917 . S
O607 Mg608 1.926 . S
O607 Mg609 1.986 . S
Mg608 O607 1.926 . S
Mg608 O622 1.984 . S
Mg608 O625 1.988 . S
Mg608 O626 2.061 . S
Mg609 O607 1.986 . S
Mg609 O617 2.238 . S
Mg609 O621 2.042 . S
Mg609 O623 2.041 . S
Mg609 O630 2.038 . S
C610 O616 1.247 . S
C610 O617 1.289 . S
C611 O629 1.245 . S
C611 O630 1.274 . S
O612 C600 1.241 . S
O612 Mg605 2.042 . S
O613 C600 1.280 . S
O613 Mg603 1.984 . S
O614 C601 1.277 . S
O614 Mg605 2.041 . S
O615 C601 1.245 . S
O615 Mg603 1.988 . S
O616 Mg603 2.061 . S
O616 C610 1.247 . S
O617 Mg606 2.106 . S
O617 Mg609 2.238 . S
O617 C610 1.289 . S
C618 O619 1.245 . S
C618 O620 1.274 . S
O619 Mg606 2.079 . S
O619 C618 1.245 . S
O620 Mg605 2.038 . S
O620 C618 1.274 . S
O621 Mg609 2.042 . S
O621 C624 1.241 . S
O622 Mg608 1.984 . S
O622 C624 1.280 . S
O623 Mg609 2.041 . S
O623 C627 1.277 . S
C624 O621 1.241 . S
C624 O622 1.280 . S
O625 Mg608 1.988 . S
O625 C627 1.245 . S
O626 C602 1.247 . S
O626 Mg608 2.061 . S
C627 O623 1.277 . S
C627 O625 1.245 . S
O628 C602 1.289 . S
O628 Mg605 2.238 . S
O628 Mg606 2.106 . S
O629 Mg606 2.079 . S
O629 C611 1.245 . S
O630 Mg609 2.038 . S
O630 C611 1.274 . S
C631 O643 1.241 . S
C631 O644 1.280 . S
C632 O645 1.277 . S
C632 O646 1.245 . S
C633 O657 1.247 . S
C633 O659 1.289 . S
Mg634 O635 1.926 . S
Mg634 O644 1.984 . S
Mg634 O646 1.988 . S
Mg634 O647 2.061 . S
O635 Mg634 1.926 . S
O635 Mg636 1.986 . S
O635 Mg637 1.917 . S
Mg636 O635 1.986 . S
Mg636 O643 2.042 . S
Mg636 O645 2.041 . S
Mg636 O651 2.038 . S
Mg636 O659 2.238 . S
Mg637 O635 1.917 . S
Mg637 O638 1.917 . S
Mg637 O648 2.106 . S
Mg637 O650 2.079 . S
Mg637 O659 2.106 . S
Mg637 O660 2.079 . S
O638 Mg637 1.917 . S
O638 Mg639 1.926 . S
O638 Mg640 1.986 . S
Mg639 O638 1.926 . S
Mg639 O653 1.984 . S
Mg639 O656 1.988 . S
Mg639 O657 2.061 . S
Mg640 O638 1.986 . S
Mg640 O648 2.238 . S
Mg640 O652 2.042 . S
Mg640 O654 2.041 . S
Mg640 O661 2.038 . S
C641 O647 1.247 . S
C641 O648 1.289 . S
C642 O660 1.245 . S
C642 O661 1.274 . S
O643 C631 1.241 . S
O643 Mg636 2.042 . S
O644 C631 1.280 . S
O644 Mg634 1.984 . S
O645 C632 1.277 . S
O645 Mg636 2.041 . S
O646 C632 1.245 . S
O646 Mg634 1.988 . S
O647 Mg634 2.061 . S
O647 C641 1.247 . S
O648 Mg637 2.106 . S
O648 Mg640 2.238 . S
O648 C641 1.289 . S
C649 O650 1.245 . S
C649 O651 1.274 . S
O650 Mg637 2.079 . S
O650 C649 1.245 . S
O651 Mg636 2.038 . S
O651 C649 1.274 . S
O652 Mg640 2.042 . S
O652 C655 1.241 . S
O653 Mg639 1.984 . S
O653 C655 1.280 . S
O654 Mg640 2.041 . S
O654 C658 1.277 . S
C655 O652 1.241 . S
C655 O653 1.280 . S
O656 Mg639 1.988 . S
O656 C658 1.245 . S
O657 C633 1.247 . S
O657 Mg639 2.061 . S
C658 O654 1.277 . S
C658 O656 1.245 . S
O659 C633 1.289 . S
O659 Mg636 2.238 . S
O659 Mg637 2.106 . S
O660 Mg637 2.079 . S
O660 C642 1.245 . S
O661 Mg640 2.038 . S
O661 C642 1.274 . S
C662 O674 1.241 . S
C662 O675 1.280 . S
C663 O676 1.277 . S
C663 O677 1.245 . S
C664 O688 1.247 . S
C664 O690 1.289 . S
Mg665 O666 1.926 1_565 S
Mg665 O675 1.984 1_565 S
Mg665 O677 1.988 . S
Mg665 O678 2.061 1_565 S
O666 Mg665 1.926 1_545 S
O666 Mg667 1.986 . S
O666 Mg668 1.921 . S
Mg667 O666 1.986 . S
Mg667 O674 2.042 . S
Mg667 O676 2.041 1_545 S
Mg667 O682 2.038 . S
Mg667 O690 2.238 1_545 S
Mg668 O666 1.921 . S
Mg668 O669 1.913 1_545 S
Mg668 O679 2.108 . S
Mg668 O681 2.098 . S
Mg668 O690 2.105 1_545 S
Mg668 O691 2.059 1_545 S
O669 Mg668 1.913 1_565 S
O669 Mg670 1.926 1_565 S
O669 Mg671 1.986 . S
Mg670 O669 1.926 1_545 S
Mg670 O684 1.984 1_545 S
Mg670 O687 1.988 . S
Mg670 O688 2.061 1_545 S
Mg671 O669 1.986 . S
Mg671 O679 2.238 1_565 S
Mg671 O683 2.042 . S
Mg671 O685 2.041 1_565 S
Mg671 O692 2.038 . S
C672 O678 1.247 . S
C672 O679 1.289 . S
C673 O691 1.245 . S
C673 O692 1.274 . S
O674 C662 1.241 . S
O674 Mg667 2.042 . S
O675 C662 1.280 . S
O675 Mg665 1.984 1_545 S
O676 C663 1.277 . S
O676 Mg667 2.041 1_565 S
O677 C663 1.245 . S
O677 Mg665 1.988 . S
O678 Mg665 2.061 1_545 S
O678 C672 1.247 . S
O679 Mg668 2.108 . S
O679 Mg671 2.238 1_545 S
O679 C672 1.289 . S
C680 O681 1.245 . S
C680 O682 1.274 . S
O681 Mg668 2.098 . S
O681 C680 1.245 . S
O682 Mg667 2.038 . S
O682 C680 1.274 . S
O683 Mg671 2.042 . S
O683 C686 1.241 . S
O684 Mg670 1.984 1_565 S
O684 C686 1.280 . S
O685 Mg671 2.041 1_545 S
O685 C689 1.277 . S
C686 O683 1.241 . S
C686 O684 1.280 . S
O687 Mg670 1.988 . S
O687 C689 1.245 . S
O688 C664 1.247 . S
O688 Mg670 2.061 1_565 S
C689 O685 1.277 . S
C689 O687 1.245 . S
O690 C664 1.289 . S
O690 Mg667 2.238 1_565 S
O690 Mg668 2.105 1_565 S
O691 Mg668 2.059 1_565 S
O691 C673 1.245 . S
O692 Mg671 2.038 . S
O692 C673 1.274 . S
C693 O705 1.234 1_556 S
C693 O706 1.274 1_556 S
C694 O707 1.277 . S
C694 O708 1.245 . S
C695 O719 1.247 . S
C695 O721 1.289 . S
Mg696 O697 1.926 . S
Mg696 O706 1.984 . S
Mg696 O708 1.988 . S
Mg696 O709 2.061 . S
O697 Mg696 1.926 . S
O697 Mg698 1.986 . S
O697 Mg699 1.917 . S
Mg698 O697 1.986 . S
Mg698 O705 2.042 . S
Mg698 O707 2.041 . S
Mg698 O713 2.038 . S
Mg698 O721 2.238 . S
Mg699 O697 1.917 . S
Mg699 O700 1.917 . S
Mg699 O710 2.106 . S
Mg699 O712 2.079 . S
Mg699 O721 2.106 . S
Mg699 O722 2.079 . S
O700 Mg699 1.917 . S
O700 Mg701 1.926 . S
O700 Mg702 1.986 . S
Mg701 O700 1.926 . S
Mg701 O715 1.984 . S
Mg701 O718 1.988 . S
Mg701 O719 2.061 . S
Mg702 O700 1.986 . S
Mg702 O710 2.238 . S
Mg702 O714 2.042 . S
Mg702 O716 2.041 . S
Mg702 O723 2.038 . S
C703 O709 1.247 . S
C703 O710 1.289 . S
C704 O722 1.245 . S
C704 O723 1.274 . S
O705 C693 1.234 1_554 S
O705 Mg698 2.042 . S
O706 C693 1.274 1_554 S
O706 Mg696 1.984 . S
O707 C694 1.277 . S
O707 Mg698 2.041 . S
O708 C694 1.245 . S
O708 Mg696 1.988 . S
O709 Mg696 2.061 . S
O709 C703 1.247 . S
O710 Mg699 2.106 . S
O710 Mg702 2.238 . S
O710 C703 1.289 . S
C711 O712 1.245 . S
C711 O713 1.274 . S
O712 Mg699 2.079 . S
O712 C711 1.245 . S
O713 Mg698 2.038 . S
O713 C711 1.274 . S
O714 Mg702 2.042 . S
O714 C717 1.241 . S
O715 Mg701 1.984 . S
O715 C717 1.280 . S
O716 Mg702 2.041 . S
O716 C720 1.277 . S
C717 O714 1.241 . S
C717 O715 1.280 . S
O718 Mg701 1.988 . S
O718 C720 1.245 . S
O719 C695 1.247 . S
O719 Mg701 2.061 . S
C720 O716 1.277 . S
C720 O718 1.245 . S
O721 C695 1.289 . S
O721 Mg698 2.238 . S
O721 Mg699 2.106 . S
O722 Mg699 2.079 . S
O722 C704 1.245 . S
O723 Mg702 2.038 . S
O723 C704 1.274 . S
C724 C725 1.387 . S
C724 H728 0.950 . S
C724 C733 1.390 . S
C725 C724 1.387 . S
C725 C727 1.387 . S
H726 C733 0.950 . S
C727 C725 1.387 . S
C727 C729 1.390 . S
C727 H731 0.950 . S
H728 C724 0.950 . S
C729 C727 1.390 . S
C729 C730 1.387 . S
C729 H732 0.950 . S
C730 C729 1.387 . S
C730 C733 1.387 . S
H731 C727 0.950 . S
H732 C729 0.950 . S
C733 C724 1.390 . S
C733 H726 0.950 . S
C733 C730 1.387 . S
C734 C735 1.387 . S
C734 H738 0.950 . S
C734 C743 1.390 . S
C735 C734 1.387 . S
C735 C737 1.387 . S
H736 C743 0.950 . S
C737 C735 1.387 . S
C737 C739 1.390 . S
C737 H741 0.950 . S
H738 C734 0.950 . S
C739 C737 1.390 . S
C739 C740 1.387 . S
C739 H742 0.950 . S
C740 C739 1.387 . S
C740 C743 1.387 . S
H741 C737 0.950 . S
H742 C739 0.950 . S
C743 C734 1.390 . S
C743 H736 0.950 . S
C743 C740 1.387 . S
C744 C745 1.387 . S
C744 H748 0.950 . S
C744 C753 1.390 . S
C745 C744 1.387 . S
C745 C747 1.387 . S
H746 C753 0.950 . S
C747 C745 1.387 . S
C747 C749 1.390 . S
C747 H751 0.923 1_655 S
H748 C744 0.950 . S
C749 C747 1.390 . S
C749 C750 1.387 . S
C749 H752 0.950 . S
C750 C749 1.387 . S
C750 C753 1.387 . S
H751 C747 0.923 1_455 S
H752 C749 0.950 . S
C753 C744 1.390 . S
C753 H746 0.950 . S
C753 C750 1.387 . S
C754 C755 1.387 . S
C754 H758 0.950 . S
C754 C763 1.390 . S
C755 C754 1.387 . S
C755 C757 1.387 . S
H756 C763 0.950 . S
C757 C755 1.387 . S
C757 C759 1.390 . S
C757 H761 0.950 . S
H758 C754 0.950 . S
C759 C757 1.390 . S
C759 C760 1.387 . S
C759 H762 0.950 . S
C760 C759 1.387 . S
C760 C763 1.387 . S
H761 C757 0.950 . S
H762 C759 0.950 . S
C763 C754 1.390 . S
C763 H756 0.950 . S
C763 C760 1.387 . S
C764 C765 1.387 . S
C764 H768 0.950 . S
C764 C773 1.390 . S
C765 C764 1.387 . S
C765 C767 1.387 . S
H766 C773 0.950 . S
C767 C765 1.387 . S
C767 C769 1.390 . S
C767 H771 0.950 . S
H768 C764 0.950 . S
C769 C767 1.390 . S
C769 C770 1.387 . S
C769 H772 0.950 . S
C770 C769 1.387 . S
C770 C773 1.387 . S
H771 C767 0.950 . S
H772 C769 0.950 . S
C773 C764 1.390 . S
C773 H766 0.950 . S
C773 C770 1.387 . S
C774 C775 1.387 . S
C774 H778 0.950 . S
C774 C783 1.390 . S
C775 C774 1.387 . S
C775 C777 1.387 . S
H776 C783 0.950 . S
C777 C775 1.387 . S
C777 C779 1.390 . S
C777 H781 0.950 . S
H778 C774 0.950 . S
C779 C777 1.390 . S
C779 C780 1.387 . S
C779 H782 0.950 . S
C780 C779 1.387 . S
C780 C783 1.387 . S
H781 C777 0.950 . S
H782 C779 0.950 . S
C783 C774 1.390 . S
C783 H776 0.950 . S
C783 C780 1.387 . S
C784 C785 1.387 . S
C784 H788 0.950 . S
C784 C793 1.390 . S
C785 C784 1.387 . S
C785 C787 1.387 . S
H786 C793 0.950 . S
C787 C785 1.387 . S
C787 C789 1.390 . S
C787 H791 0.942 1_655 S
H788 C784 0.950 . S
C789 C787 1.390 . S
C789 C790 1.387 . S
C789 H792 0.950 . S
C790 C789 1.387 . S
C790 C793 1.387 . S
H791 C787 0.942 1_455 S
H792 C789 0.950 . S
C793 C784 1.390 . S
C793 H786 0.950 . S
C793 C790 1.387 . S
C794 C795 1.387 . S
C794 H798 0.950 . S
C794 C803 1.390 . S
C795 C794 1.387 . S
C795 C797 1.387 . S
H796 C803 0.950 . S
C797 C795 1.387 . S
C797 C799 1.390 . S
C797 H801 0.950 . S
H798 C794 0.950 . S
C799 C797 1.390 . S
C799 C800 1.387 . S
C799 H802 0.950 . S
C800 C799 1.387 . S
C800 C803 1.387 . S
H801 C797 0.950 . S
H802 C799 0.950 . S
C803 C794 1.390 . S
C803 H796 0.950 . S
C803 C800 1.387 . S
C804 C805 1.387 . S
C804 H808 0.929 1_545 S
C804 C813 1.390 . S
C805 C804 1.387 . S
C805 C807 1.387 . S
H806 C813 0.950 . S
C807 C805 1.387 . S
C807 C809 1.390 . S
C807 H811 0.950 . S
H808 C804 0.929 1_565 S
C809 C807 1.390 . S
C809 C810 1.387 . S
C809 H812 0.950 . S
C810 C809 1.387 . S
C810 C813 1.387 . S
H811 C807 0.950 . S
H812 C809 0.950 . S
C813 C804 1.390 . S
C813 H806 0.950 . S
C813 C810 1.387 . S
C814 C815 1.387 . S
C814 H818 0.950 . S
C814 C823 1.390 . S
C815 C814 1.387 . S
C815 C817 1.387 . S
H816 C823 0.950 . S
C817 C815 1.387 . S
C817 C819 1.390 . S
C817 H821 0.950 . S
H818 C814 0.950 . S
C819 C817 1.390 . S
C819 C820 1.387 . S
C819 H822 0.950 . S
C820 C819 1.387 . S
C820 C823 1.387 . S
H821 C817 0.950 . S
H822 C819 0.950 . S
C823 C814 1.390 . S
C823 H816 0.950 . S
C823 C820 1.387 . S
C824 C825 1.387 . S
C824 H828 0.950 . S
C824 C833 1.390 . S
C825 C824 1.387 . S
C825 C827 1.387 . S
H826 C833 0.950 . S
C827 C825 1.387 . S
C827 C829 1.390 . S
C827 H831 0.950 . S
H828 C824 0.950 . S
C829 C827 1.390 . S
C829 C830 1.387 . S
C829 H832 0.950 . S
C830 C829 1.387 . S
C830 C833 1.387 . S
H831 C827 0.950 . S
H832 C829 0.950 . S
C833 C824 1.390 . S
C833 H826 0.950 . S
C833 C830 1.387 . S
C834 C835 1.387 . S
C834 H838 0.950 . S
C834 C843 1.390 . S
C835 C834 1.387 . S
C835 C837 1.387 . S
H836 C843 0.950 . S
C837 C835 1.387 . S
C837 C839 1.390 . S
C837 H841 0.950 . S
H838 C834 0.950 . S
C839 C837 1.390 . S
C839 C840 1.387 . S
C839 H842 0.950 . S
C840 C839 1.387 . S
C840 C843 1.387 . S
H841 C837 0.950 . S
H842 C839 0.950 . S
C843 C834 1.390 . S
C843 H836 0.950 . S
C843 C840 1.387 . S
C844 C845 1.387 . S
C844 H848 0.950 . S
C844 C853 1.390 . S
C845 C844 1.387 . S
C845 C847 1.387 . S
H846 C853 0.950 . S
C847 C845 1.387 . S
C847 C849 1.390 . S
C847 H851 0.950 . S
H848 C844 0.950 . S
C849 C847 1.390 . S
C849 C850 1.387 . S
C849 H852 0.950 . S
C850 C849 1.387 . S
C850 C853 1.387 . S
H851 C847 0.950 . S
H852 C849 0.950 . S
C853 C844 1.390 . S
C853 H846 0.950 . S
C853 C850 1.387 . S
C854 C855 1.387 . S
C854 H858 0.950 . S
C854 C863 1.390 . S
C855 C854 1.387 . S
C855 C857 1.387 . S
H856 C863 0.950 . S
C857 C855 1.387 . S
C857 C859 1.390 . S
C857 H861 0.950 . S
H858 C854 0.950 . S
C859 C857 1.390 . S
C859 C860 1.387 . S
C859 H862 0.950 . S
C860 C859 1.387 . S
C860 C863 1.387 . S
H861 C857 0.950 . S
H862 C859 0.950 . S
C863 C854 1.390 . S
C863 H856 0.950 . S
C863 C860 1.387 . S
C864 C865 1.387 . S
C864 H868 0.950 . S
C864 C873 1.390 . S
C865 C864 1.387 . S
C865 C867 1.387 . S
H866 C873 0.950 . S
C867 C865 1.387 . S
C867 C869 1.390 . S
C867 H871 0.950 . S
H868 C864 0.950 . S
C869 C867 1.390 . S
C869 C870 1.387 . S
C869 H872 0.950 . S
C870 C869 1.387 . S
C870 C873 1.387 . S
H871 C867 0.950 . S
H872 C869 0.950 . S
C873 C864 1.390 . S
C873 H866 0.950 . S
C873 C870 1.387 . S
C874 C875 1.387 . S
C874 H878 0.950 . S
C874 C883 1.390 . S
C875 C874 1.387 . S
C875 C877 1.387 . S
H876 C883 0.950 . S
C877 C875 1.387 . S
C877 C879 1.390 . S
C877 H881 0.950 . S
H878 C874 0.950 . S
C879 C877 1.390 . S
C879 C880 1.387 . S
C879 H882 0.950 . S
C880 C879 1.387 . S
C880 C883 1.387 . S
H881 C877 0.950 . S
H882 C879 0.950 . S
C883 C874 1.390 . S
C883 H876 0.950 . S
C883 C880 1.387 . S
C884 C885 1.387 1_556 S
C884 H888 0.950 . S
C884 C893 1.390 . S
C885 C884 1.387 1_554 S
C885 C887 1.387 . S
H886 C893 0.950 . S
C887 C885 1.387 . S
C887 C889 1.390 . S
C887 H891 0.950 . S
H888 C884 0.950 . S
C889 C887 1.390 . S
C889 C890 1.387 1_554 S
C889 H892 0.950 . S
C890 C889 1.387 1_556 S
C890 C893 1.387 . S
H891 C887 0.950 . S
H892 C889 0.950 . S
C893 C884 1.390 . S
C893 H886 0.950 . S
C893 C890 1.387 . S
C894 C895 1.387 . S
C894 H898 0.950 . S
C894 C903 1.390 . S
C895 C894 1.387 . S
C895 C897 1.387 . S
H896 C903 0.950 . S
C897 C895 1.387 . S
C897 C899 1.390 . S
C897 H901 0.950 . S
H898 C894 0.950 . S
C899 C897 1.390 . S
C899 C900 1.387 . S
C899 H902 0.950 . S
C900 C899 1.387 . S
C900 C903 1.387 . S
H901 C897 0.950 . S
H902 C899 0.950 . S
C903 C894 1.390 . S
C903 H896 0.950 . S
C903 C900 1.387 . S
C904 C905 1.387 . S
C904 H908 0.950 . S
C904 C913 1.390 . S
C905 C904 1.387 . S
C905 C907 1.387 . S
H906 C913 0.950 . S
C907 C905 1.387 . S
C907 C909 1.390 . S
C907 H911 0.950 . S
H908 C904 0.950 . S
C909 C907 1.390 . S
C909 C910 1.387 . S
C909 H912 0.950 . S
C910 C909 1.387 . S
C910 C913 1.387 . S
H911 C907 0.950 . S
H912 C909 0.950 . S
C913 C904 1.390 . S
C913 H906 0.950 . S
C913 C910 1.387 . S
C914 C915 1.387 . S
C914 H918 0.950 . S
C914 C923 1.390 . S
C915 C914 1.387 . S
C915 C917 1.387 . S
H916 C923 0.950 . S
C917 C915 1.387 . S
C917 C919 1.390 . S
C917 H921 0.950 . S
H918 C914 0.950 . S
C919 C917 1.390 . S
C919 C920 1.387 . S
C919 H922 0.950 . S
C920 C919 1.387 . S
C920 C923 1.387 . S
H921 C917 0.950 . S
H922 C919 0.950 . S
C923 C914 1.390 . S
C923 H916 0.950 . S
C923 C920 1.387 . S
C924 C925 1.387 . S
C924 H928 0.950 . S
C924 C933 1.390 . S
C925 C924 1.387 . S
C925 C927 1.387 . S
H926 C933 0.950 . S
C927 C925 1.387 . S
C927 C929 1.390 . S
C927 H931 0.950 . S
H928 C924 0.950 . S
C929 C927 1.390 . S
C929 C930 1.387 . S
C929 H932 0.950 . S
C930 C929 1.387 . S
C930 C933 1.387 . S
H931 C927 0.950 . S
H932 C929 0.950 . S
C933 C924 1.390 . S
C933 H926 0.950 . S
C933 C930 1.387 . S
C934 C935 1.387 . S
C934 H938 0.950 . S
C934 C943 1.390 . S
C935 C934 1.387 . S
C935 C937 1.387 . S
H936 C943 0.950 . S
C937 C935 1.387 . S
C937 C939 1.390 . S
C937 H941 0.950 . S
H938 C934 0.950 . S
C939 C937 1.390 . S
C939 C940 1.387 . S
C939 H942 0.950 . S
C940 C939 1.387 . S
C940 C943 1.387 . S
H941 C937 0.950 . S
H942 C939 0.950 . S
C943 C934 1.390 . S
C943 H936 0.950 . S
C943 C940 1.387 . S
C944 C945 1.387 . S
C944 H948 0.950 . S
C944 C953 1.390 . S
C945 C944 1.387 . S
C945 C947 1.387 . S
H946 C953 0.950 . S
C947 C945 1.387 . S
C947 C949 1.390 . S
C947 H951 0.950 . S
H948 C944 0.950 . S
C949 C947 1.390 . S
C949 C950 1.387 . S
C949 H952 0.950 . S
C950 C949 1.387 . S
C950 C953 1.387 . S
H951 C947 0.950 . S
H952 C949 0.950 . S
C953 C944 1.390 . S
C953 H946 0.950 . S
C953 C950 1.387 . S
C954 C955 1.387 . S
C954 H958 0.950 . S
C954 C963 1.390 . S
C955 C954 1.387 . S
C955 C957 1.387 . S
H956 C963 0.950 . S
C957 C955 1.387 . S
C957 C959 1.390 . S
C957 H961 0.950 . S
H958 C954 0.950 . S
C959 C957 1.390 . S
C959 C960 1.387 . S
C959 H962 0.950 . S
C960 C959 1.387 . S
C960 C963 1.387 . S
H961 C957 0.950 . S
H962 C959 0.950 . S
C963 C954 1.390 . S
C963 H956 0.950 . S
C963 C960 1.387 . S
C964 C965 1.387 . S
C964 H968 0.950 . S
C964 C973 1.390 . S
C965 C964 1.387 . S
C965 C967 1.387 . S
H966 C973 0.950 . S
C967 C965 1.387 . S
C967 C969 1.390 . S
C967 H971 0.950 . S
H968 C964 0.950 . S
C969 C967 1.390 . S
C969 C970 1.387 . S
C969 H972 0.950 . S
C970 C969 1.387 . S
C970 C973 1.387 . S
H971 C967 0.950 . S
H972 C969 0.950 . S
C973 C964 1.390 . S
C973 H966 0.950 . S
C973 C970 1.387 . S
C974 C975 1.387 . S
C974 H978 0.950 . S
C974 C983 1.390 . S
C975 C974 1.387 . S
C975 C977 1.387 . S
H976 C983 0.950 . S
C977 C975 1.387 . S
C977 C979 1.390 . S
C977 H981 0.950 . S
H978 C974 0.950 . S
C979 C977 1.390 . S
C979 C980 1.387 . S
C979 H982 0.950 . S
C980 C979 1.387 . S
C980 C983 1.387 . S
H981 C977 0.950 . S
H982 C979 0.950 . S
C983 C974 1.390 . S
C983 H976 0.950 . S
C983 C980 1.387 . S
C984 C985 1.387 . S
C984 H988 0.950 . S
C984 C993 1.390 . S
C985 C984 1.387 . S
C985 C987 1.387 . S
H986 C993 0.950 . S
C987 C985 1.387 . S
C987 C989 1.390 . S
C987 H991 0.950 . S
H988 C984 0.950 . S
C989 C987 1.390 . S
C989 C990 1.387 . S
C989 H992 0.950 . S
C990 C989 1.387 . S
C990 C993 1.387 . S
H991 C987 0.950 . S
H992 C989 0.950 . S
C993 C984 1.390 . S
C993 H986 0.950 . S
C993 C990 1.387 . S
C994 C995 1.387 . S
C994 H998 0.950 . S
C994 C1003 1.390 . S
C995 C994 1.387 . S
C995 C997 1.387 . S
H996 C1003 0.950 . S
C997 C995 1.387 . S
C997 C999 1.390 . S
C997 H1001 0.950 . S
H998 C994 0.950 . S
C999 C997 1.390 . S
C999 C1000 1.387 . S
C999 H1002 0.950 . S
C1000 C999 1.387 . S
C1000 C1003 1.387 . S
H1001 C997 0.950 . S
H1002 C999 0.950 . S
C1003 C994 1.390 . S
C1003 H996 0.950 . S
C1003 C1000 1.387 . S
C1004 C1005 1.387 . S
C1004 H1008 0.950 . S
C1004 C1013 1.390 . S
C1005 C1004 1.387 . S
C1005 C1007 1.387 . S
H1006 C1013 0.950 . S
C1007 C1005 1.387 . S
C1007 C1009 1.390 . S
C1007 H1011 0.950 . S
H1008 C1004 0.950 . S
C1009 C1007 1.390 . S
C1009 C1010 1.387 . S
C1009 H1012 0.950 . S
C1010 C1009 1.387 . S
C1010 C1013 1.387 . S
H1011 C1007 0.950 . S
H1012 C1009 0.950 . S
C1013 C1004 1.390 . S
C1013 H1006 0.950 . S
C1013 C1010 1.387 . S
C1014 C1015 1.387 . S
C1014 H1018 0.950 . S
C1014 C1023 1.390 . S
C1015 C1014 1.387 . S
C1015 C1017 1.387 . S
H1016 C1023 0.950 . S
C1017 C1015 1.387 . S
C1017 C1019 1.390 . S
C1017 H1021 0.950 . S
H1018 C1014 0.950 . S
C1019 C1017 1.390 . S
C1019 C1020 1.387 . S
C1019 H1022 0.950 . S
C1020 C1019 1.387 . S
C1020 C1023 1.387 . S
H1021 C1017 0.950 . S
H1022 C1019 0.950 . S
C1023 C1014 1.390 . S
C1023 H1016 0.950 . S
C1023 C1020 1.387 . S
C1024 C1025 1.387 . S
C1024 H1028 0.950 . S
C1024 C1033 1.390 . S
C1025 C1024 1.387 . S
C1025 C1027 1.387 . S
H1026 C1033 0.950 . S
C1027 C1025 1.387 . S
C1027 C1029 1.390 . S
C1027 H1031 0.950 . S
H1028 C1024 0.950 . S
C1029 C1027 1.390 . S
C1029 C1030 1.387 . S
C1029 H1032 0.950 . S
C1030 C1029 1.387 . S
C1030 C1033 1.387 . S
H1031 C1027 0.950 . S
H1032 C1029 0.950 . S
C1033 C1024 1.390 . S
C1033 H1026 0.950 . S
C1033 C1030 1.387 . S
C1034 C1035 1.387 . S
C1034 H1038 0.950 . S
C1034 C1043 1.390 . S
C1035 C1034 1.387 . S
C1035 C1037 1.387 . S
H1036 C1043 0.950 . S
C1037 C1035 1.387 . S
C1037 C1039 1.390 . S
C1037 H1041 0.950 . S
H1038 C1034 0.950 . S
C1039 C1037 1.390 . S
C1039 C1040 1.387 . S
C1039 H1042 0.932 1_556 S
C1040 C1039 1.387 . S
C1040 C1043 1.387 . S
H1041 C1037 0.950 . S
H1042 C1039 0.932 1_554 S
C1043 C1034 1.390 . S
C1043 H1036 0.950 . S
C1043 C1040 1.387 . S
C1044 C1045 1.387 . S
C1044 H1048 0.950 . S
C1044 C1053 1.390 . S
C1045 C1044 1.387 . S
C1045 C1047 1.387 . S
H1046 C1053 0.950 . S
C1047 C1045 1.387 . S
C1047 C1049 1.390 . S
C1047 H1051 0.950 . S
H1048 C1044 0.950 . S
C1049 C1047 1.390 . S
C1049 C1050 1.387 . S
C1049 H1052 0.950 . S
C1050 C1049 1.387 . S
C1050 C1053 1.387 . S
H1051 C1047 0.950 . S
H1052 C1049 0.950 . S
C1053 C1044 1.390 . S
C1053 H1046 0.950 . S
C1053 C1050 1.387 . S
C1054 C1055 1.387 . S
C1054 H1058 0.950 . S
C1054 C1063 1.390 . S
C1055 C1054 1.387 . S
C1055 C1057 1.387 . S
H1056 C1063 0.950 . S
C1057 C1055 1.387 . S
C1057 C1059 1.390 . S
C1057 H1061 0.950 . S
H1058 C1054 0.950 . S
C1059 C1057 1.390 . S
C1059 C1060 1.387 . S
C1059 H1062 0.950 . S
C1060 C1059 1.387 . S
C1060 C1063 1.387 . S
H1061 C1057 0.950 . S
H1062 C1059 0.950 . S
C1063 C1054 1.390 . S
C1063 H1056 0.950 . S
C1063 C1060 1.387 . S
C1064 C1065 1.387 . S
C1064 H1068 0.950 . S
C1064 C1073 1.390 . S
C1065 C1064 1.387 . S
C1065 C1067 1.387 . S
H1066 C1073 0.950 . S
C1067 C1065 1.387 . S
C1067 C1069 1.390 . S
C1067 H1071 0.950 . S
H1068 C1064 0.950 . S
C1069 C1067 1.390 . S
C1069 C1070 1.387 . S
C1069 H1072 0.950 . S
C1070 C1069 1.387 . S
C1070 C1073 1.387 . S
H1071 C1067 0.950 . S
H1072 C1069 0.950 . S
C1073 C1064 1.390 . S
C1073 H1066 0.950 . S
C1073 C1070 1.387 . S
C1074 C1075 1.387 . S
C1074 H1078 0.950 . S
C1074 C1083 1.390 . S
C1075 C1074 1.387 . S
C1075 C1077 1.387 . S
H1076 C1083 0.950 . S
C1077 C1075 1.387 . S
C1077 C1079 1.390 . S
C1077 H1081 0.950 . S
H1078 C1074 0.950 . S
C1079 C1077 1.390 . S
C1079 C1080 1.387 . S
C1079 H1082 0.950 . S
C1080 C1079 1.387 . S
C1080 C1083 1.387 . S
H1081 C1077 0.950 . S
H1082 C1079 0.950 . S
C1083 C1074 1.390 . S
C1083 H1076 0.950 . S
C1083 C1080 1.387 . S
C1084 C1085 1.387 . S
C1084 H1088 0.950 . S
C1084 C1093 1.390 . S
C1085 C1084 1.387 . S
C1085 C1087 1.387 . S
H1086 C1093 0.950 . S
C1087 C1085 1.387 . S
C1087 C1089 1.390 . S
C1087 H1091 0.950 . S
H1088 C1084 0.950 . S
C1089 C1087 1.390 . S
C1089 C1090 1.387 . S
C1089 H1092 0.950 . S
C1090 C1089 1.387 . S
C1090 C1093 1.387 . S
H1091 C1087 0.950 . S
H1092 C1089 0.950 . S
C1093 C1084 1.390 . S
C1093 H1086 0.950 . S
C1093 C1090 1.387 . S
C1094 C1095 1.387 . S
C1094 H1098 0.950 . S
C1094 C1103 1.390 . S
C1095 C1094 1.387 . S
C1095 C1097 1.387 . S
H1096 C1103 0.950 . S
C1097 C1095 1.387 . S
C1097 C1099 1.390 . S
C1097 H1101 0.950 . S
H1098 C1094 0.950 . S
C1099 C1097 1.390 . S
C1099 C1100 1.387 . S
C1099 H1102 0.950 . S
C1100 C1099 1.387 . S
C1100 C1103 1.387 . S
H1101 C1097 0.950 . S
H1102 C1099 0.950 . S
C1103 C1094 1.390 . S
C1103 H1096 0.950 . S
C1103 C1100 1.387 . S
C1104 C1105 1.387 . S
C1104 H1108 0.950 . S
C1104 C1113 1.390 . S
C1105 C1104 1.387 . S
C1105 C1107 1.387 . S
H1106 C1113 0.950 . S
C1107 C1105 1.387 . S
C1107 C1109 1.390 . S
C1107 H1111 0.950 . S
H1108 C1104 0.950 . S
C1109 C1107 1.390 . S
C1109 C1110 1.387 . S
C1109 H1112 0.950 . S
C1110 C1109 1.387 . S
C1110 C1113 1.387 . S
H1111 C1107 0.950 . S
H1112 C1109 0.950 . S
C1113 C1104 1.390 . S
C1113 H1106 0.950 . S
C1113 C1110 1.387 . S
C1114 C1115 1.387 . S
C1114 H1118 0.950 . S
C1114 C1123 1.390 . S
C1115 C1114 1.387 . S
C1115 C1117 1.387 . S
H1116 C1123 0.950 . S
C1117 C1115 1.387 . S
C1117 C1119 1.390 . S
C1117 H1121 0.950 . S
H1118 C1114 0.950 . S
C1119 C1117 1.390 . S
C1119 C1120 1.387 . S
C1119 H1122 0.950 . S
C1120 C1119 1.387 . S
C1120 C1123 1.387 . S
H1121 C1117 0.950 . S
H1122 C1119 0.950 . S
C1123 C1114 1.390 . S
C1123 H1116 0.950 . S
C1123 C1120 1.387 . S
C1124 C1125 1.387 . S
C1124 H1128 0.950 . S
C1124 C1133 1.390 . S
C1125 C1124 1.387 . S
C1125 C1127 1.387 . S
H1126 C1133 0.950 . S
C1127 C1125 1.387 . S
C1127 C1129 1.390 . S
C1127 H1131 0.950 . S
H1128 C1124 0.950 . S
C1129 C1127 1.390 . S
C1129 C1130 1.387 . S
C1129 H1132 0.950 . S
C1130 C1129 1.387 . S
C1130 C1133 1.387 . S
H1131 C1127 0.950 . S
H1132 C1129 0.950 . S
C1133 C1124 1.390 . S
C1133 H1126 0.950 . S
C1133 C1130 1.387 . S
C1134 C1135 1.387 . S
C1134 H1138 0.950 . S
C1134 C1143 1.390 . S
C1135 C1134 1.387 . S
C1135 C1137 1.387 . S
H1136 C1143 0.950 . S
C1137 C1135 1.387 . S
C1137 C1139 1.390 . S
C1137 H1141 0.950 . S
H1138 C1134 0.950 . S
C1139 C1137 1.390 . S
C1139 C1140 1.387 . S
C1139 H1142 0.950 . S
C1140 C1139 1.387 . S
C1140 C1143 1.387 . S
H1141 C1137 0.950 . S
H1142 C1139 0.950 . S
C1143 C1134 1.390 . S
C1143 H1136 0.950 . S
C1143 C1140 1.387 . S
C1144 C1145 1.387 . S
C1144 H1148 0.950 . S
C1144 C1153 1.390 . S
C1145 C1144 1.387 . S
C1145 C1147 1.387 . S
H1146 C1153 0.971 . S
C1147 C1145 1.387 . S
C1147 C1149 1.390 . S
C1147 H1151 0.950 . S
H1148 C1144 0.950 . S
C1149 C1147 1.390 . S
C1149 C1150 1.387 . S
C1149 H1152 0.950 . S
C1150 C1149 1.387 . S
C1150 C1153 1.387 . S
H1151 C1147 0.950 . S
H1152 C1149 0.950 . S
C1153 C1144 1.390 . S
C1153 H1146 0.971 . S
C1153 C1150 1.387 . S
C1154 C1155 1.387 1_554 S
C1154 H1158 0.950 . S
C1154 C1163 1.390 . S
C1155 C1154 1.387 1_556 S
C1155 C1157 1.387 . S
H1156 C1163 0.950 . S
C1157 C1155 1.387 . S
C1157 C1159 1.390 1_556 S
C1157 H1161 0.950 . S
H1158 C1154 0.950 . S
C1159 C1157 1.390 1_554 S
C1159 C1160 1.387 . S
C1159 H1162 0.950 . S
C1160 C1159 1.387 . S
C1160 C1163 1.387 . S
H1161 C1157 0.950 . S
H1162 C1159 0.950 . S
C1163 C1154 1.390 . S
C1163 H1156 0.950 . S
C1163 C1160 1.387 . S
C1164 C1165 1.387 . S
C1164 H1168 0.950 . S
C1164 C1173 1.390 . S
C1165 C1164 1.387 . S
C1165 C1167 1.387 . S
H1166 C1173 0.950 . S
C1167 C1165 1.387 . S
C1167 C1169 1.390 . S
C1167 H1171 0.950 . S
H1168 C1164 0.950 . S
C1169 C1167 1.390 . S
C1169 C1170 1.387 . S
C1169 H1172 0.950 . S
C1170 C1169 1.387 . S
C1170 C1173 1.387 . S
H1171 C1167 0.950 . S
H1172 C1169 0.950 . S
C1173 C1164 1.390 . S
C1173 H1166 0.950 . S
C1173 C1170 1.387 . S
C1174 C1175 1.387 . S
C1174 H1178 0.950 . S
C1174 C1183 1.390 . S
C1175 C1174 1.387 . S
C1175 C1177 1.387 . S
H1176 C1183 0.950 . S
C1177 C1175 1.387 . S
C1177 C1179 1.390 . S
C1177 H1181 0.950 1_554 S
H1178 C1174 0.950 . S
C1179 C1177 1.390 . S
C1179 C1180 1.387 . S
C1179 H1182 0.950 . S
C1180 C1179 1.387 . S
C1180 C1183 1.387 . S
H1181 C1177 0.950 1_556 S
H1182 C1179 0.950 . S
C1183 C1174 1.390 . S
C1183 H1176 0.950 . S
C1183 C1180 1.387 . S
C1184 C1185 1.387 . S
C1184 H1188 0.950 . S
C1184 C1193 1.390 . S
C1185 C1184 1.387 . S
C1185 C1187 1.387 . S
H1186 C1193 0.950 . S
C1187 C1185 1.387 . S
C1187 C1189 1.390 . S
C1187 H1191 0.950 . S
H1188 C1184 0.950 . S
C1189 C1187 1.390 . S
C1189 C1190 1.387 . S
C1189 H1192 0.950 . S
C1190 C1189 1.387 . S
C1190 C1193 1.387 . S
H1191 C1187 0.950 . S
H1192 C1189 0.950 . S
C1193 C1184 1.390 . S
C1193 H1186 0.950 . S
C1193 C1190 1.387 . S
C1194 C1195 1.387 . S
C1194 H1198 0.950 . S
C1194 C1203 1.390 . S
C1195 C1194 1.387 . S
C1195 C1197 1.387 . S
H1196 C1203 0.950 . S
C1197 C1195 1.387 . S
C1197 C1199 1.390 . S
C1197 H1201 0.950 . S
H1198 C1194 0.950 . S
C1199 C1197 1.390 . S
C1199 C1200 1.387 . S
C1199 H1202 0.950 . S
C1200 C1199 1.387 . S
C1200 C1203 1.387 . S
H1201 C1197 0.950 . S
H1202 C1199 0.950 . S
C1203 C1194 1.390 . S
C1203 H1196 0.950 . S
C1203 C1200 1.387 . S
C1204 C1205 1.387 . S
C1204 H1208 0.950 . S
C1204 C1213 1.390 . S
C1205 C1204 1.387 . S
C1205 C1207 1.387 . S
H1206 C1213 0.950 . S
C1207 C1205 1.387 . S
C1207 C1209 1.390 . S
C1207 H1211 0.950 . S
H1208 C1204 0.950 . S
C1209 C1207 1.390 . S
C1209 C1210 1.387 . S
C1209 H1212 0.950 . S
C1210 C1209 1.387 . S
C1210 C1213 1.387 . S
H1211 C1207 0.950 . S
H1212 C1209 0.950 . S
C1213 C1204 1.390 . S
C1213 H1206 0.950 . S
C1213 C1210 1.387 . S
C1214 C1215 1.387 . S
C1214 H1218 0.950 . S
C1214 C1223 1.390 . S
C1215 C1214 1.387 . S
C1215 C1217 1.387 . S
H1216 C1223 0.950 . S
C1217 C1215 1.387 . S
C1217 C1219 1.390 . S
C1217 H1221 0.950 . S
H1218 C1214 0.950 . S
C1219 C1217 1.390 . S
C1219 C1220 1.387 . S
C1219 H1222 0.950 . S
C1220 C1219 1.387 . S
C1220 C1223 1.387 . S
H1221 C1217 0.950 . S
H1222 C1219 0.950 . S
C1223 C1214 1.390 . S
C1223 H1216 0.950 . S
C1223 C1220 1.387 . S
C1224 C1225 1.387 . S
C1224 H1228 0.950 . S
C1224 C1233 1.390 . S
C1225 C1224 1.387 . S
C1225 C1227 1.387 . S
H1226 C1233 0.950 . S
C1227 C1225 1.387 . S
C1227 C1229 1.390 . S
C1227 H1231 0.950 . S
H1228 C1224 0.950 . S
C1229 C1227 1.390 . S
C1229 C1230 1.387 . S
C1229 H1232 0.950 . S
C1230 C1229 1.387 . S
C1230 C1233 1.387 . S
H1231 C1227 0.950 . S
H1232 C1229 0.950 . S
C1233 C1224 1.390 . S
C1233 H1226 0.950 . S
C1233 C1230 1.387 . S
C1234 C1235 1.387 . S
C1234 H1238 0.950 . S
C1234 C1243 1.390 . S
C1235 C1234 1.387 . S
C1235 C1237 1.387 . S
H1236 C1243 0.950 . S
C1237 C1235 1.387 . S
C1237 C1239 1.390 . S
C1237 H1241 0.950 . S
H1238 C1234 0.950 . S
C1239 C1237 1.390 . S
C1239 C1240 1.387 . S
C1239 H1242 0.950 . S
C1240 C1239 1.387 . S
C1240 C1243 1.387 . S
H1241 C1237 0.950 . S
H1242 C1239 0.950 . S
C1243 C1234 1.390 . S
C1243 H1236 0.950 . S
C1243 C1240 1.387 . S
C1244 C1245 1.387 . S
C1244 H1248 0.950 . S
C1244 C1253 1.390 . S
C1245 C1244 1.387 . S
C1245 C1247 1.387 . S
H1246 C1253 0.950 . S
C1247 C1245 1.387 . S
C1247 C1249 1.390 . S
C1247 H1251 0.950 . S
H1248 C1244 0.950 . S
C1249 C1247 1.390 . S
C1249 C1250 1.387 . S
C1249 H1252 0.950 . S
C1250 C1249 1.387 . S
C1250 C1253 1.387 . S
H1251 C1247 0.950 . S
H1252 C1249 0.950 . S
C1253 C1244 1.390 . S
C1253 H1246 0.950 . S
C1253 C1250 1.387 . S
C1254 C1255 1.387 . S
C1254 H1258 0.950 . S
C1254 C1263 1.390 . S
C1255 C1254 1.387 . S
C1255 C1257 1.387 . S
H1256 C1263 0.940 1_655 S
C1257 C1255 1.387 . S
C1257 C1259 1.390 . S
C1257 H1261 0.950 . S
H1258 C1254 0.950 . S
C1259 C1257 1.390 . S
C1259 C1260 1.387 . S
C1259 H1262 0.950 . S
C1260 C1259 1.387 . S
C1260 C1263 1.387 . S
H1261 C1257 0.950 . S
H1262 C1259 0.950 . S
C1263 C1254 1.390 . S
C1263 H1256 0.940 1_455 S
C1263 C1260 1.387 . S
C1264 C1265 1.387 . S
C1264 H1268 0.950 . S
C1264 C1273 1.390 . S
C1265 C1264 1.387 . S
C1265 C1267 1.387 . S
H1266 C1273 0.950 . S
C1267 C1265 1.387 . S
C1267 C1269 1.390 . S
C1267 H1271 0.950 . S
H1268 C1264 0.950 . S
C1269 C1267 1.390 . S
C1269 C1270 1.387 . S
C1269 H1272 0.950 . S
C1270 C1269 1.387 . S
C1270 C1273 1.387 . S
H1271 C1267 0.950 . S
H1272 C1269 0.950 . S
C1273 C1264 1.390 . S
C1273 H1266 0.950 . S
C1273 C1270 1.387 . S
C1274 C1275 1.387 . S
C1274 H1278 0.950 . S
C1274 C1283 1.390 . S
C1275 C1274 1.387 . S
C1275 C1277 1.387 . S
H1276 C1283 0.950 . S
C1277 C1275 1.387 . S
C1277 C1279 1.390 . S
C1277 H1281 0.950 . S
H1278 C1274 0.950 . S
C1279 C1277 1.390 . S
C1279 C1280 1.387 . S
C1279 H1282 0.950 . S
C1280 C1279 1.387 . S
C1280 C1283 1.387 . S
H1281 C1277 0.950 . S
H1282 C1279 0.950 . S
C1283 C1274 1.390 . S
C1283 H1276 0.950 . S
C1283 C1280 1.387 . S
C1284 C1285 1.387 . S
C1284 H1288 0.950 . S
C1284 C1293 1.390 . S
C1285 C1284 1.387 . S
C1285 C1287 1.387 . S
H1286 C1293 0.950 . S
C1287 C1285 1.387 . S
C1287 C1289 1.390 . S
C1287 H1291 0.950 . S
H1288 C1284 0.950 . S
C1289 C1287 1.390 . S
C1289 C1290 1.387 . S
C1289 H1292 0.950 . S
C1290 C1289 1.387 . S
C1290 C1293 1.387 . S
H1291 C1287 0.950 . S
H1292 C1289 0.950 . S
C1293 C1284 1.390 . S
C1293 H1286 0.950 . S
C1293 C1290 1.387 . S
C1294 C1295 1.387 . S
C1294 H1298 0.950 . S
C1294 C1303 1.390 . S
C1295 C1294 1.387 . S
C1295 C1297 1.387 . S
H1296 C1303 0.950 . S
C1297 C1295 1.387 . S
C1297 C1299 1.390 . S
C1297 H1301 0.950 . S
H1298 C1294 0.950 . S
C1299 C1297 1.390 . S
C1299 C1300 1.387 . S
C1299 H1302 0.950 . S
C1300 C1299 1.387 . S
C1300 C1303 1.387 . S
H1301 C1297 0.950 . S
H1302 C1299 0.950 . S
C1303 C1294 1.390 . S
C1303 H1296 0.950 . S
C1303 C1300 1.387 . S
C1304 C1305 1.387 . S
C1304 H1308 0.950 . S
C1304 C1313 1.390 . S
C1305 C1304 1.387 . S
C1305 C1307 1.387 . S
H1306 C1313 0.950 . S
C1307 C1305 1.387 . S
C1307 C1309 1.390 . S
C1307 H1311 0.950 . S
H1308 C1304 0.950 . S
C1309 C1307 1.390 . S
C1309 C1310 1.387 . S
C1309 H1312 0.950 . S
C1310 C1309 1.387 . S
C1310 C1313 1.387 . S
H1311 C1307 0.950 . S
H1312 C1309 0.950 . S
C1313 C1304 1.390 . S
C1313 H1306 0.950 . S
C1313 C1310 1.387 . S
C1314 C1315 1.387 . S
C1314 H1318 0.950 . S
C1314 C1323 1.390 . S
C1315 C1314 1.387 . S
C1315 C1317 1.387 . S
H1316 C1323 0.946 1_556 S
C1317 C1315 1.387 . S
C1317 C1319 1.390 . S
C1317 H1321 0.950 . S
H1318 C1314 0.950 . S
C1319 C1317 1.390 . S
C1319 C1320 1.387 . S
C1319 H1322 0.950 . S
C1320 C1319 1.387 . S
C1320 C1323 1.387 . S
H1321 C1317 0.950 . S
H1322 C1319 0.950 . S
C1323 C1314 1.390 . S
C1323 H1316 0.946 1_554 S
C1323 C1320 1.387 . S
C1324 C1325 1.387 . S
C1324 H1328 0.950 . S
C1324 C1333 1.390 . S
C1325 C1324 1.387 . S
C1325 C1327 1.387 . S
H1326 C1333 0.950 . S
C1327 C1325 1.387 . S
C1327 C1329 1.390 . S
C1327 H1331 0.950 . S
H1328 C1324 0.950 . S
C1329 C1327 1.390 . S
C1329 C1330 1.387 . S
C1329 H1332 0.950 . S
C1330 C1329 1.387 . S
C1330 C1333 1.387 . S
H1331 C1327 0.950 . S
H1332 C1329 0.950 . S
C1333 C1324 1.390 . S
C1333 H1326 0.950 . S
C1333 C1330 1.387 . S
C1334 C1335 1.387 . S
C1334 H1338 0.950 . S
C1334 C1343 1.390 . S
C1335 C1334 1.387 . S
C1335 C1337 1.387 . S
H1336 C1343 0.950 . S
C1337 C1335 1.387 . S
C1337 C1339 1.390 . S
C1337 H1341 0.950 . S
H1338 C1334 0.950 . S
C1339 C1337 1.390 . S
C1339 C1340 1.387 . S
C1339 H1342 0.950 1_556 S
C1340 C1339 1.387 . S
C1340 C1343 1.387 . S
H1341 C1337 0.950 . S
H1342 C1339 0.950 1_554 S
C1343 C1334 1.390 . S
C1343 H1336 0.950 . S
C1343 C1340 1.387 . S
C1344 C1345 1.387 . S
C1344 H1348 0.950 . S
C1344 C1353 1.390 . S
C1345 C1344 1.387 . S
C1345 C1347 1.387 . S
H1346 C1353 0.950 . S
C1347 C1345 1.387 . S
C1347 C1349 1.390 . S
C1347 H1351 0.950 . S
H1348 C1344 0.950 . S
C1349 C1347 1.390 . S
C1349 C1350 1.387 . S
C1349 H1352 0.950 . S
C1350 C1349 1.387 . S
C1350 C1353 1.387 . S
H1351 C1347 0.950 . S
H1352 C1349 0.950 . S
C1353 C1344 1.390 . S
C1353 H1346 0.950 . S
C1353 C1350 1.387 . S
C1354 C1355 1.387 . S
C1354 H1358 0.950 . S
C1354 C1363 1.390 . S
C1355 C1354 1.387 . S
C1355 C1357 1.387 . S
H1356 C1363 0.950 . S
C1357 C1355 1.387 . S
C1357 C1359 1.390 . S
C1357 H1361 0.950 1_556 S
H1358 C1354 0.950 . S
C1359 C1357 1.390 . S
C1359 C1360 1.387 . S
C1359 H1362 0.950 1_556 S
C1360 C1359 1.387 . S
C1360 C1363 1.387 . S
H1361 C1357 0.950 1_554 S
H1362 C1359 0.950 1_554 S
C1363 C1354 1.390 . S
C1363 H1356 0.950 . S
C1363 C1360 1.387 . S
C1364 C1365 1.387 . S
C1364 H1368 0.950 . S
C1364 C1373 1.390 . S
C1365 C1364 1.387 . S
C1365 C1367 1.387 . S
H1366 C1373 0.950 . S
C1367 C1365 1.387 . S
C1367 C1369 1.390 . S
C1367 H1371 0.950 . S
H1368 C1364 0.950 . S
C1369 C1367 1.390 . S
C1369 C1370 1.387 . S
C1369 H1372 0.950 . S
C1370 C1369 1.387 . S
C1370 C1373 1.387 . S
H1371 C1367 0.950 . S
H1372 C1369 0.950 . S
C1373 C1364 1.390 . S
C1373 H1366 0.950 . S
C1373 C1370 1.387 . S
C1374 C1375 1.387 . S
C1374 H1378 0.950 . S
C1374 C1383 1.390 . S
C1375 C1374 1.387 . S
C1375 C1377 1.387 . S
H1376 C1383 0.950 . S
C1377 C1375 1.387 . S
C1377 C1379 1.390 . S
C1377 H1381 0.950 . S
H1378 C1374 0.950 . S
C1379 C1377 1.390 . S
C1379 C1380 1.387 . S
C1379 H1382 0.950 . S
C1380 C1379 1.387 . S
C1380 C1383 1.387 . S
H1381 C1377 0.950 . S
H1382 C1379 0.950 . S
C1383 C1374 1.390 . S
C1383 H1376 0.950 . S
C1383 C1380 1.387 . S
C1384 C1385 1.387 . S
C1384 H1388 0.950 . S
C1384 C1393 1.390 . S
C1385 C1384 1.387 . S
C1385 C1387 1.387 . S
H1386 C1393 0.950 . S
C1387 C1385 1.387 . S
C1387 C1389 1.390 . S
C1387 H1391 0.950 . S
H1388 C1384 0.950 . S
C1389 C1387 1.390 . S
C1389 C1390 1.387 . S
C1389 H1392 0.950 . S
C1390 C1389 1.387 . S
C1390 C1393 1.387 . S
H1391 C1387 0.950 . S
H1392 C1389 0.950 . S
C1393 C1384 1.390 . S
C1393 H1386 0.950 . S
C1393 C1390 1.387 . S
C1394 C1395 1.387 . S
C1394 H1398 0.950 . S
C1394 C1403 1.390 . S
C1395 C1394 1.387 . S
C1395 C1397 1.387 . S
H1396 C1403 0.950 . S
C1397 C1395 1.387 . S
C1397 C1399 1.390 . S
C1397 H1401 0.950 . S
H1398 C1394 0.950 . S
C1399 C1397 1.390 . S
C1399 C1400 1.387 . S
C1399 H1402 0.950 . S
C1400 C1399 1.387 . S
C1400 C1403 1.387 . S
H1401 C1397 0.950 . S
H1402 C1399 0.950 . S
C1403 C1394 1.390 . S
C1403 H1396 0.950 . S
C1403 C1400 1.387 . S
C1404 C1405 1.387 . S
C1404 H1408 0.950 . S
C1404 C1413 1.390 . S
C1405 C1404 1.387 . S
C1405 C1407 1.387 . S
H1406 C1413 0.950 . S
C1407 C1405 1.387 . S
C1407 C1409 1.390 . S
C1407 H1411 0.950 . S
H1408 C1404 0.950 . S
C1409 C1407 1.390 . S
C1409 C1410 1.387 . S
C1409 H1412 0.950 . S
C1410 C1409 1.387 . S
C1410 C1413 1.387 . S
H1411 C1407 0.950 . S
H1412 C1409 0.950 . S
C1413 C1404 1.390 . S
C1413 H1406 0.950 . S
C1413 C1410 1.387 . S
C1414 C1415 1.387 . S
C1414 H1418 0.950 . S
C1414 C1423 1.390 . S
C1415 C1414 1.387 . S
C1415 C1417 1.387 . S
H1416 C1423 0.950 . S
C1417 C1415 1.387 . S
C1417 C1419 1.390 . S
C1417 H1421 0.950 . S
H1418 C1414 0.950 . S
C1419 C1417 1.390 . S
C1419 C1420 1.387 . S
C1419 H1422 0.950 . S
C1420 C1419 1.387 . S
C1420 C1423 1.387 . S
H1421 C1417 0.950 . S
H1422 C1419 0.950 . S
C1423 C1414 1.390 . S
C1423 H1416 0.950 . S
C1423 C1420 1.387 . S
C1424 C1425 1.387 . S
C1424 H1428 0.950 . S
C1424 C1433 1.390 . S
C1425 C1424 1.387 . S
C1425 C1427 1.387 . S
H1426 C1433 0.950 . S
C1427 C1425 1.387 . S
C1427 C1429 1.390 . S
C1427 H1431 0.950 . S
H1428 C1424 0.950 . S
C1429 C1427 1.390 . S
C1429 C1430 1.387 . S
C1429 H1432 0.950 . S
C1430 C1429 1.387 . S
C1430 C1433 1.387 . S
H1431 C1427 0.950 . S
H1432 C1429 0.950 . S
C1433 C1424 1.390 . S
C1433 H1426 0.950 . S
C1433 C1430 1.387 . S
C1434 C1435 1.387 . S
C1434 H1438 0.950 . S
C1434 C1443 1.390 . S
C1435 C1434 1.387 . S
C1435 C1437 1.387 . S
H1436 C1443 0.974 . S
C1437 C1435 1.387 . S
C1437 C1439 1.390 . S
C1437 H1441 0.950 . S
H1438 C1434 0.950 . S
C1439 C1437 1.390 . S
C1439 C1440 1.387 . S
C1439 H1442 0.950 . S
C1440 C1439 1.387 . S
C1440 C1443 1.387 . S
H1441 C1437 0.950 . S
H1442 C1439 0.950 . S
C1443 C1434 1.390 . S
C1443 H1436 0.974 . S
C1443 C1440 1.387 . S
C1444 C1445 1.387 . S
C1444 H1448 0.950 . S
C1444 C1453 1.390 . S
C1445 C1444 1.387 . S
C1445 C1447 1.387 . S
H1446 C1453 0.950 . S
C1447 C1445 1.387 . S
C1447 C1449 1.390 . S
C1447 H1451 0.950 . S
H1448 C1444 0.950 . S
C1449 C1447 1.390 . S
C1449 C1450 1.387 . S
C1449 H1452 0.950 . S
C1450 C1449 1.387 . S
C1450 C1453 1.387 . S
H1451 C1447 0.950 . S
H1452 C1449 0.950 . S
C1453 C1444 1.390 . S
C1453 H1446 0.950 . S
C1453 C1450 1.387 . S
C1454 C1455 1.387 . S
C1454 H1458 0.950 . S
C1454 C1463 1.390 . S
C1455 C1454 1.387 . S
C1455 C1457 1.387 . S
H1456 C1463 0.950 . S
C1457 C1455 1.387 . S
C1457 C1459 1.390 . S
C1457 H1461 0.950 . S
H1458 C1454 0.950 . S
C1459 C1457 1.390 . S
C1459 C1460 1.387 . S
C1459 H1462 0.928 1_655 S
C1460 C1459 1.387 . S
C1460 C1463 1.387 . S
H1461 C1457 0.950 . S
H1462 C1459 0.928 1_455 S
C1463 C1454 1.390 . S
C1463 H1456 0.950 . S
C1463 C1460 1.387 . S
C1464 C1465 1.387 . S
C1464 H1468 0.950 . S
C1464 C1473 1.390 . S
C1465 C1464 1.387 . S
C1465 C1467 1.387 . S
H1466 C1473 0.950 . S
C1467 C1465 1.387 . S
C1467 C1469 1.390 . S
C1467 H1471 0.950 . S
H1468 C1464 0.950 . S
C1469 C1467 1.390 . S
C1469 C1470 1.387 . S
C1469 H1472 0.950 . S
C1470 C1469 1.387 . S
C1470 C1473 1.387 . S
H1471 C1467 0.950 . S
H1472 C1469 0.950 . S
C1473 C1464 1.390 . S
C1473 H1466 0.950 . S
C1473 C1470 1.387 . S
C1474 C1475 1.387 . S
C1474 H1478 0.950 . S
C1474 C1483 1.390 . S
C1475 C1474 1.387 . S
C1475 C1477 1.387 . S
H1476 C1483 0.950 . S
C1477 C1475 1.387 . S
C1477 C1479 1.390 . S
C1477 H1481 0.950 . S
H1478 C1474 0.950 . S
C1479 C1477 1.390 . S
C1479 C1480 1.387 . S
C1479 H1482 0.950 . S
C1480 C1479 1.387 . S
C1480 C1483 1.387 . S
H1481 C1477 0.950 . S
H1482 C1479 0.950 . S
C1483 C1474 1.390 . S
C1483 H1476 0.950 . S
C1483 C1480 1.387 . S
C1484 C1485 1.387 . S
C1484 H1488 0.950 . S
C1484 C1493 1.390 . S
C1485 C1484 1.387 . S
C1485 C1487 1.387 . S
H1486 C1493 0.950 . S
C1487 C1485 1.387 . S
C1487 C1489 1.390 . S
C1487 H1491 0.950 . S
H1488 C1484 0.950 . S
C1489 C1487 1.390 . S
C1489 C1490 1.387 . S
C1489 H1492 0.950 . S
C1490 C1489 1.387 . S
C1490 C1493 1.387 . S
H1491 C1487 0.950 . S
H1492 C1489 0.950 . S
C1493 C1484 1.390 . S
C1493 H1486 0.950 . S
C1493 C1490 1.387 . S
C1494 C1495 1.387 . S
C1494 H1498 0.950 . S
C1494 C1503 1.390 . S
C1495 C1494 1.387 . S
C1495 C1497 1.387 . S
H1496 C1503 0.950 . S
C1497 C1495 1.387 . S
C1497 C1499 1.390 . S
C1497 H1501 0.950 . S
H1498 C1494 0.950 . S
C1499 C1497 1.390 . S
C1499 C1500 1.387 . S
C1499 H1502 0.950 . S
C1500 C1499 1.387 . S
C1500 C1503 1.387 . S
H1501 C1497 0.950 . S
H1502 C1499 0.950 . S
C1503 C1494 1.390 . S
C1503 H1496 0.950 . S
C1503 C1500 1.387 . S
C1504 C1505 1.387 . S
C1504 H1508 0.950 . S
C1504 C1513 1.390 . S
C1505 C1504 1.387 . S
C1505 C1507 1.387 . S
H1506 C1513 0.950 . S
C1507 C1505 1.387 . S
C1507 C1509 1.390 . S
C1507 H1511 0.950 . S
H1508 C1504 0.950 . S
C1509 C1507 1.390 . S
C1509 C1510 1.387 . S
C1509 H1512 0.950 . S
C1510 C1509 1.387 . S
C1510 C1513 1.387 . S
H1511 C1507 0.950 . S
H1512 C1509 0.950 . S
C1513 C1504 1.390 . S
C1513 H1506 0.950 . S
C1513 C1510 1.387 . S
C1514 C1515 1.387 . S
C1514 H1518 0.950 . S
C1514 C1523 1.390 . S
C1515 C1514 1.387 . S
C1515 C1517 1.387 . S
H1516 C1523 0.950 . S
C1517 C1515 1.387 . S
C1517 C1519 1.390 . S
C1517 H1521 0.950 . S
H1518 C1514 0.950 . S
C1519 C1517 1.390 . S
C1519 C1520 1.387 . S
C1519 H1522 0.950 . S
C1520 C1519 1.387 . S
C1520 C1523 1.387 . S
H1521 C1517 0.950 . S
H1522 C1519 0.950 . S
C1523 C1514 1.390 . S
C1523 H1516 0.950 . S
C1523 C1520 1.387 . S
C1524 C1525 1.387 . S
C1524 H1528 0.950 . S
C1524 C1533 1.390 . S
C1525 C1524 1.387 . S
C1525 C1527 1.387 . S
H1526 C1533 0.950 . S
C1527 C1525 1.387 . S
C1527 C1529 1.390 . S
C1527 H1531 0.950 . S
H1528 C1524 0.950 . S
C1529 C1527 1.390 . S
C1529 C1530 1.387 . S
C1529 H1532 0.950 . S
C1530 C1529 1.387 . S
C1530 C1533 1.387 . S
H1531 C1527 0.950 . S
H1532 C1529 0.950 . S
C1533 C1524 1.390 . S
C1533 H1526 0.950 . S
C1533 C1530 1.387 . S
C1534 C1535 1.387 . S
C1534 H1538 0.950 . S
C1534 C1543 1.390 . S
C1535 C1534 1.387 . S
C1535 C1537 1.387 . S
H1536 C1543 0.950 . S
C1537 C1535 1.387 . S
C1537 C1539 1.390 . S
C1537 H1541 0.950 . S
H1538 C1534 0.950 . S
C1539 C1537 1.390 . S
C1539 C1540 1.387 . S
C1539 H1542 0.950 . S
C1540 C1539 1.387 . S
C1540 C1543 1.387 . S
H1541 C1537 0.950 . S
H1542 C1539 0.950 . S
C1543 C1534 1.390 . S
C1543 H1536 0.950 . S
C1543 C1540 1.387 . S
C1544 C1545 1.387 . S
C1544 H1548 0.950 . S
C1544 C1553 1.390 . S
C1545 C1544 1.387 . S
C1545 C1547 1.387 . S
H1546 C1553 0.950 . S
C1547 C1545 1.387 . S
C1547 C1549 1.390 . S
C1547 H1551 0.950 . S
H1548 C1544 0.950 . S
C1549 C1547 1.390 . S
C1549 C1550 1.387 . S
C1549 H1552 0.950 . S
C1550 C1549 1.387 . S
C1550 C1553 1.387 . S
H1551 C1547 0.950 . S
H1552 C1549 0.950 . S
C1553 C1544 1.390 . S
C1553 H1546 0.950 . S
C1553 C1550 1.387 . S
C1554 C1555 1.387 . S
C1554 H1558 0.950 . S
C1554 C1563 1.390 . S
C1555 C1554 1.387 . S
C1555 C1557 1.387 . S
H1556 C1563 0.950 . S
C1557 C1555 1.387 . S
C1557 C1559 1.390 . S
C1557 H1561 0.950 . S
H1558 C1554 0.950 . S
C1559 C1557 1.390 . S
C1559 C1560 1.387 . S
C1559 H1562 0.950 . S
C1560 C1559 1.387 . S
C1560 C1563 1.387 . S
H1561 C1557 0.950 . S
H1562 C1559 0.950 . S
C1563 C1554 1.390 . S
C1563 H1556 0.950 . S
C1563 C1560 1.387 . S
C1564 C1565 1.387 . S
C1564 H1568 0.950 . S
C1564 C1573 1.390 . S
C1565 C1564 1.387 . S
C1565 C1567 1.387 . S
H1566 C1573 0.950 . S
C1567 C1565 1.387 . S
C1567 C1569 1.390 . S
C1567 H1571 0.950 . S
H1568 C1564 0.950 . S
C1569 C1567 1.390 . S
C1569 C1570 1.387 . S
C1569 H1572 0.950 . S
C1570 C1569 1.387 . S
C1570 C1573 1.387 . S
H1571 C1567 0.950 . S
H1572 C1569 0.950 . S
C1573 C1564 1.390 . S
C1573 H1566 0.950 . S
C1573 C1570 1.387 . S
C1574 C1575 1.387 . S
C1574 H1578 0.950 . S
C1574 C1583 1.390 . S
C1575 C1574 1.387 . S
C1575 C1577 1.387 . S
H1576 C1583 0.950 . S
C1577 C1575 1.387 . S
C1577 C1579 1.390 . S
C1577 H1581 0.950 . S
H1578 C1574 0.950 . S
C1579 C1577 1.390 . S
C1579 C1580 1.387 . S
C1579 H1582 0.950 . S
C1580 C1579 1.387 . S
C1580 C1583 1.387 . S
H1581 C1577 0.950 . S
H1582 C1579 0.950 . S
C1583 C1574 1.390 . S
C1583 H1576 0.950 . S
C1583 C1580 1.387 . S
C1584 C1585 1.387 . S
C1584 H1588 0.950 . S
C1584 C1593 1.390 . S
C1585 C1584 1.387 . S
C1585 C1587 1.387 . S
H1586 C1593 0.950 . S
C1587 C1585 1.387 . S
C1587 C1589 1.390 . S
C1587 H1591 0.950 . S
H1588 C1584 0.950 . S
C1589 C1587 1.390 . S
C1589 C1590 1.387 . S
C1589 H1592 0.950 . S
C1590 C1589 1.387 . S
C1590 C1593 1.387 . S
H1591 C1587 0.950 . S
H1592 C1589 0.950 . S
C1593 C1584 1.390 . S
C1593 H1586 0.950 . S
C1593 C1590 1.387 . S
C1594 C1595 1.387 . S
C1594 H1598 0.950 . S
C1594 C1603 1.390 . S
C1595 C1594 1.387 . S
C1595 C1597 1.387 . S
H1596 C1603 0.950 . S
C1597 C1595 1.387 . S
C1597 C1599 1.390 . S
C1597 H1601 0.950 . S
H1598 C1594 0.950 . S
C1599 C1597 1.390 . S
C1599 C1600 1.387 . S
C1599 H1602 0.950 . S
C1600 C1599 1.387 . S
C1600 C1603 1.387 . S
H1601 C1597 0.950 . S
H1602 C1599 0.950 . S
C1603 C1594 1.390 . S
C1603 H1596 0.950 . S
C1603 C1600 1.387 . S
C1604 C1605 1.387 . S
C1604 H1608 0.950 . S
C1604 C1613 1.390 . S
C1605 C1604 1.387 . S
C1605 C1607 1.387 . S
H1606 C1613 0.950 . S
C1607 C1605 1.387 . S
C1607 C1609 1.390 . S
C1607 H1611 0.950 . S
H1608 C1604 0.950 . S
C1609 C1607 1.390 . S
C1609 C1610 1.387 . S
C1609 H1612 0.950 . S
C1610 C1609 1.387 . S
C1610 C1613 1.387 . S
H1611 C1607 0.950 . S
H1612 C1609 0.950 . S
C1613 C1604 1.390 . S
C1613 H1606 0.950 . S
C1613 C1610 1.387 . S
C1614 C1615 1.387 . S
C1614 H1618 0.950 . S
C1614 C1623 1.390 . S
C1615 C1614 1.387 . S
C1615 C1617 1.387 . S
H1616 C1623 0.950 . S
C1617 C1615 1.387 . S
C1617 C1619 1.390 . S
C1617 H1621 0.950 . S
H1618 C1614 0.950 . S
C1619 C1617 1.390 . S
C1619 C1620 1.387 . S
C1619 H1622 0.950 . S
C1620 C1619 1.387 . S
C1620 C1623 1.387 . S
H1621 C1617 0.950 . S
H1622 C1619 0.950 . S
C1623 C1614 1.390 . S
C1623 H1616 0.950 . S
C1623 C1620 1.387 . S
C1624 C1625 1.387 . S
C1624 H1628 0.950 . S
C1624 C1633 1.390 . S
C1625 C1624 1.387 . S
C1625 C1627 1.387 . S
H1626 C1633 0.950 1_565 S
C1627 C1625 1.387 . S
C1627 C1629 1.390 . S
C1627 H1631 0.950 . S
H1628 C1624 0.950 . S
C1629 C1627 1.390 . S
C1629 C1630 1.387 . S
C1629 H1632 0.950 . S
C1630 C1629 1.387 . S
C1630 C1633 1.387 . S
H1631 C1627 0.950 . S
H1632 C1629 0.950 . S
C1633 C1624 1.390 . S
C1633 H1626 0.950 1_545 S
C1633 C1630 1.387 . S
C1634 C1635 1.387 . S
C1634 H1638 0.950 . S
C1634 C1643 1.390 . S
C1635 C1634 1.387 . S
C1635 C1637 1.387 . S
H1636 C1643 0.950 . S
C1637 C1635 1.387 . S
C1637 C1639 1.390 . S
C1637 H1641 0.950 . S
H1638 C1634 0.950 . S
C1639 C1637 1.390 . S
C1639 C1640 1.387 . S
C1639 H1642 0.950 . S
C1640 C1639 1.387 . S
C1640 C1643 1.387 . S
H1641 C1637 0.950 . S
H1642 C1639 0.950 . S
C1643 C1634 1.390 . S
C1643 H1636 0.950 . S
C1643 C1640 1.387 . S
C1644 C1645 1.387 . S
C1644 H1648 0.950 . S
C1644 C1653 1.390 . S
C1645 C1644 1.387 . S
C1645 C1647 1.387 . S
H1646 C1653 0.950 . S
C1647 C1645 1.387 . S
C1647 C1649 1.390 . S
C1647 H1651 0.950 . S
H1648 C1644 0.950 . S
C1649 C1647 1.390 . S
C1649 C1650 1.387 . S
C1649 H1652 0.950 1_565 S
C1650 C1649 1.387 . S
C1650 C1653 1.387 . S
H1651 C1647 0.950 . S
H1652 C1649 0.950 1_545 S
C1653 C1644 1.390 . S
C1653 H1646 0.950 . S
C1653 C1650 1.387 . S
C1654 C1655 1.387 . S
C1654 H1658 0.950 . S
C1654 C1663 1.390 . S
C1655 C1654 1.387 . S
C1655 C1657 1.387 . S
H1656 C1663 0.950 . S
C1657 C1655 1.387 . S
C1657 C1659 1.390 . S
C1657 H1661 0.950 . S
H1658 C1654 0.950 . S
C1659 C1657 1.390 . S
C1659 C1660 1.387 . S
C1659 H1662 0.950 . S
C1660 C1659 1.387 . S
C1660 C1663 1.387 . S
H1661 C1657 0.950 . S
H1662 C1659 0.950 . S
C1663 C1654 1.390 . S
C1663 H1656 0.950 . S
C1663 C1660 1.387 . S
C1664 C1665 1.387 . S
C1664 H1668 0.950 . S
C1664 C1673 1.390 . S
C1665 C1664 1.387 . S
C1665 C1667 1.387 . S
H1666 C1673 0.950 . S
C1667 C1665 1.387 . S
C1667 C1669 1.390 . S
C1667 H1671 0.950 . S
H1668 C1664 0.950 . S
C1669 C1667 1.390 . S
C1669 C1670 1.387 . S
C1669 H1672 0.950 . S
C1670 C1669 1.387 . S
C1670 C1673 1.387 . S
H1671 C1667 0.950 . S
H1672 C1669 0.950 . S
C1673 C1664 1.390 . S
C1673 H1666 0.950 . S
C1673 C1670 1.387 . S
C1674 C1675 1.387 . S
C1674 H1678 0.950 . S
C1674 C1683 1.390 . S
C1675 C1674 1.387 . S
C1675 C1677 1.387 . S
H1676 C1683 0.950 . S
C1677 C1675 1.387 . S
C1677 C1679 1.390 . S
C1677 H1681 0.950 . S
H1678 C1674 0.950 . S
C1679 C1677 1.390 . S
C1679 C1680 1.387 . S
C1679 H1682 0.950 . S
C1680 C1679 1.387 . S
C1680 C1683 1.387 . S
H1681 C1677 0.950 . S
H1682 C1679 0.950 . S
C1683 C1674 1.390 . S
C1683 H1676 0.950 . S
C1683 C1680 1.387 . S
C730 C376 1.187 . S
C725 C241 1.398 . S
C740 C384 1.227 . S
C735 C272 1.372 . S
C750 C379 1.354 . S
C745 C249 1.549 . S
C755 C206 1.643 . S
C760 C383 1.490 . S
C770 C438 1.384 . S
C765 C125 1.669 . S
C775 C142 1.317 . S
C780 C414 1.196 . S
C790 C441 1.233 . S
C785 C169 1.379 . S
C795 C103 1.751 . S
C800 C415 1.587 . S
C805 C315 1.849 . S
C810 C472 1.641 . S
C815 C338 1.501 . S
C820 C476 1.384 . S
C830 C531 1.110 . S
C825 C183 1.342 . S
C840 C539 1.608 . S
C835 C293 1.779 . S
C850 C469 1.158 . S
C845 C87 1.388 . S
C860 C477 1.557 1_545 S
C855 C21 1.702 . S
C865 C43 1.785 . S
C870 C534 1.594 . S
C875 C65 1.628 . S
C880 C538 1.492 . S
C885 C37 1.581 . S
C890 C503 1.356 . S
C900 C593 1.228 . S
C895 C197 1.484 . S
C905 C307 1.678 . S
C910 C601 1.534 . S
C920 C655 1.253 . S
C915 C329 1.569 . S
C925 C150 1.476 . S
C930 C507 1.347 1_655 S
C940 C596 1.252 . S
C935 C227 1.424 . S
C950 C600 1.417 . S
C945 C274 1.572 . S
C960 C663 1.408 . S
C955 C208 1.533 . S
C965 C73 1.393 . S
C970 C407 1.180 . S
C975 C7 1.393 . S
C980 C353 1.260 1_554 S
C990 C410 1.349 . S
C985 C29 1.539 . S
C995 C51 1.660 . S
C1000 C352 1.520 . S
C1005 C323 1.677 . S
C1010 C717 1.394 . S
C1015 C340 1.305 . S
C1020 C693 1.207 . S
C1030 C720 1.240 . S
C1025 C191 1.385 . S
C1035 C301 1.743 . S
C1040 C694 1.581 1_556 S
C1045 C117 1.839 . S
C1050 C627 1.631 . S
C1060 C631 1.387 . S
C1055 C140 1.508 . S
C1070 C686 1.105 . S
C1065 C161 1.333 . S
C1080 C570 1.611 1_565 S
C1075 C95 1.780 . S
C1090 C624 1.151 . S
C1085 C235 1.382 . S
C1095 C282 1.660 . S
C1100 C632 1.524 . S
C1105 C263 1.781 . S
C1110 C689 1.592 . S
C1120 C569 1.442 1_565 S
C1115 C216 1.597 . S
C1125 C257 1.581 . S
C1130 C658 1.355 . S
C1140 C562 1.226 . S
C1135 C175 1.482 . S
C1145 C109 1.664 . S
C1150 C446 1.518 1_455 S
C1155 C131 1.562 . S
C1160 C500 1.249 . S
C1165 C348 1.490 . S
C1170 C662 1.360 . S
C1175 C81 1.427 . S
C1180 C565 1.253 . S
C1185 C15 1.590 . S
C1190 C445 1.439 1_455 S
C1200 C508 1.436 1_655 S
C1195 C59 1.556 . S
C1210 C363 1.687 . S
C1205 C351 1.742 . S
C1220 C393 1.809 . S
C1215 C194 1.851 . S
C1230 C370 1.735 . S
C1225 C304 1.688 . S
C1240 C385 1.982 . S
C1235 C326 1.892 . S
C1250 C425 1.635 . S
C1245 C205 1.686 . S
C1255 C230 1.999 . S
C1260 C416 2.069 . S
C1265 C271 1.800 . S
C1270 C432 1.883 . S
C1275 C250 1.973 . S
C1280 C424 1.928 . S
C1290 C463 1.503 . S
C1285 C62 1.454 . S
C1300 C486 1.696 . S
C1295 C84 1.766 . S
C1305 C18 1.375 . S
C1310 C518 1.304 . S
C1320 C548 1.793 . S
C1315 C40 1.835 . S
C1325 C147 1.422 . S
C1330 C456 1.369 . S
C1340 C478 1.807 . S
C1335 C164 1.796 . S
C1350 C525 1.461 . S
C1345 C98 1.416 . S
C1355 C120 1.848 . S
C1360 C540 1.881 . S
C1370 C487 1.509 . S
C1365 C96 1.547 . S
C1375 C10 1.590 . S
C1380 C580 1.498 . S
C1385 C32 1.513 . S
C1390 C610 1.506 . S
C1395 C54 1.436 . S
C1400 C649 1.539 . S
C1410 C509 1.840 . S
C1405 C238 1.752 . S
C1420 C587 1.581 . S
C1415 C337 1.494 . S
C1425 C184 1.841 . S
C1430 C602 1.917 . S
C1440 C672 1.350 . S
C1435 C316 1.358 . S
C1450 C394 1.686 . S
C1445 C153 1.741 . S
C1455 C172 1.847 . S
C1460 C362 1.805 . S
C1465 C106 1.682 . S
C1470 C401 1.730 . S
C1475 C128 1.888 . S
C1480 C354 1.976 . S
C1490 C704 1.588 . S
C1485 C52 1.663 . S
C1500 C695 2.071 . S
C1495 C74 2.002 . S
C1505 C8 1.775 . S
C1510 C711 1.828 . S
C1515 C30 1.974 . S
C1520 C703 1.931 . S
C1525 C219 1.472 . S
C1530 C618 1.552 . S
C1540 C641 1.682 . S
C1535 C228 1.752 . S
C1550 C673 1.345 . S
C1545 C285 1.401 . S
C1555 C260 1.823 . S
C1560 C579 1.780 . S
C1570 C611 1.372 . S
C1565 C345 1.424 . S
C1575 C186 1.815 . S
C1580 C633 1.826 . S
C1590 C680 1.459 . S
C1585 C296 1.414 . S
C1595 C318 1.867 . S
C1600 C571 1.896 . S
C1605 C294 1.544 . S
C1610 C642 1.507 . S
C1615 C279 1.615 . S
C1620 C549 1.550 . S
C1630 C455 1.518 . S
C1625 C252 1.526 . S
C1635 C213 1.462 . S
C1640 C494 1.584 . S
C1645 C76 1.735 . S
C1650 C664 1.825 . S
C1655 C139 1.494 . S
C1660 C556 1.582 . S
C1670 C447 1.902 . S
C1665 C162 1.827 . S
C1675 C118 1.341 . S
C1680 C517 1.331 . S
