# Generated by pormake.
# Topology dag, (6,3)-cn, num edge types: 1
# Building blocks:
#     Node 0, Type 0, BuildingBlock: OJICUG_clean_sbu_0, # of connection points: 6
#     Node 1, Type 0, BuildingBlock: OJICUG_clean_sbu_0, # of connection points: 6
#     Node 2, Type 0, BuildingBlock: OJICUG_clean_sbu_0, # of connection points: 6
#     Node 3, Type 0, BuildingBlock: OJICUG_clean_sbu_0, # of connection points: 6
#     Node 4, Type 1, BuildingBlock: WUSLED_clean_sbu_0, # of connection points: 3
#     Node 5, Type 1, BuildingBlock: WUSLED_clean_sbu_0, # of connection points: 3
#     Node 6, Type 1, BuildingBlock: WUSLED_clean_sbu_0, # of connection points: 3
#     Node 7, Type 1, BuildingBlock: WUSLED_clean_sbu_0, # of connection points: 3
#     Node 8, Type 1, BuildingBlock: WUSLED_clean_sbu_0, # of connection points: 3
#     Node 9, Type 1, BuildingBlock: WUSLED_clean_sbu_0, # of connection points: 3
#     Node 10, Type 1, BuildingBlock: WUSLED_clean_sbu_0, # of connection points: 3
#     Node 11, Type 1, BuildingBlock: WUSLED_clean_sbu_0, # of connection points: 3
#     Edge 12, Type (0, 1), BuildingBlock: CIFDUS_clean_linker_0, # of connection points: 2
#     Edge 13, Type (0, 1), BuildingBlock: CIFDUS_clean_linker_0, # of connection points: 2
#     Edge 14, Type (0, 1), BuildingBlock: CIFDUS_clean_linker_0, # of connection points: 2
#     Edge 15, Type (0, 1), BuildingBlock: CIFDUS_clean_linker_0, # of connection points: 2
#     Edge 16, Type (0, 1), BuildingBlock: CIFDUS_clean_linker_0, # of connection points: 2
#     Edge 17, Type (0, 1), BuildingBlock: CIFDUS_clean_linker_0, # of connection points: 2
#     Edge 18, Type (0, 1), BuildingBlock: CIFDUS_clean_linker_0, # of connection points: 2
#     Edge 19, Type (0, 1), BuildingBlock: CIFDUS_clean_linker_0, # of connection points: 2
#     Edge 20, Type (0, 1), BuildingBlock: CIFDUS_clean_linker_0, # of connection points: 2
#     Edge 21, Type (0, 1), BuildingBlock: CIFDUS_clean_linker_0, # of connection points: 2
#     Edge 22, Type (0, 1), BuildingBlock: CIFDUS_clean_linker_0, # of connection points: 2
#     Edge 23, Type (0, 1), BuildingBlock: CIFDUS_clean_linker_0, # of connection points: 2
#     Edge 24, Type (0, 1), BuildingBlock: CIFDUS_clean_linker_0, # of connection points: 2
#     Edge 25, Type (0, 1), BuildingBlock: CIFDUS_clean_linker_0, # of connection points: 2
#     Edge 26, Type (0, 1), BuildingBlock: CIFDUS_clean_linker_0, # of connection points: 2
#     Edge 27, Type (0, 1), BuildingBlock: CIFDUS_clean_linker_0, # of connection points: 2
#     Edge 28, Type (0, 1), BuildingBlock: CIFDUS_clean_linker_0, # of connection points: 2
#     Edge 29, Type (0, 1), BuildingBlock: CIFDUS_clean_linker_0, # of connection points: 2
#     Edge 30, Type (0, 1), BuildingBlock: CIFDUS_clean_linker_0, # of connection points: 2
#     Edge 31, Type (0, 1), BuildingBlock: CIFDUS_clean_linker_0, # of connection points: 2
#     Edge 32, Type (0, 1), BuildingBlock: CIFDUS_clean_linker_0, # of connection points: 2
#     Edge 33, Type (0, 1), BuildingBlock: CIFDUS_clean_linker_0, # of connection points: 2
#     Edge 34, Type (0, 1), BuildingBlock: CIFDUS_clean_linker_0, # of connection points: 2
#     Edge 35, Type (0, 1), BuildingBlock: CIFDUS_clean_linker_0, # of connection points: 2
# Relax obj value: 0.245
# Max RMSD: 0.198
# Mean RMSD: 0.163
data_MOF--net-dag--node1-OJICUG_clean_sbu_0--node2-WUSLED_clean_sbu_0--edge1-CIFDUS_clean_linker_0
_symmetry_space_group_name_H-M    P1
_symmetry_Int_Tables_number       1
_symmetry_cell_setting            triclinic
loop_
_symmetry_equiv_pos_as_xyz
'x, y, z'
_cell_length_a     42.78201
_cell_length_b     44.844155
_cell_length_c     43.99797
_cell_angle_alpha  94.979948
_cell_angle_beta   90.34431
_cell_angle_gamma 90.135567
loop_
_atom_site_label
_atom_site_type_symbol
_atom_site_fract_x
_atom_site_fract_y
_atom_site_fract_z
_atom_type_partial_charge
Sc0 Sc 0.12114 0.8571 0.05176 0.0
Sc1 Sc 0.15177 0.78524 0.05949 0.0
Sc2 Sc 0.19473 0.85035 0.08567 0.0
O3 O 0.15595 0.83081 0.06561 0.0
C4 C 0.1809 0.89242 0.03186 0.0
C5 C 0.12199 0.8043 0.99805 0.0
C6 C 0.22369 0.79601 0.04344 0.0
C7 C 0.08332 0.80574 0.08087 0.0
C8 C 0.14163 0.89329 0.11445 0.0
C9 C 0.18323 0.79478 0.12552 0.0
O10 O 0.15274 0.88382 0.02788 0.0
O11 O 0.13687 0.78548 0.01248 0.0
O12 O 0.22552 0.82202 0.05741 0.0
O13 O 0.08688 0.83267 0.07469 0.0
O14 O 0.16798 0.8805 0.11626 0.0
O15 O 0.16657 0.77963 0.10568 0.0
O16 O 0.12323 0.88793 0.09191 0.0
O17 O 0.10377 0.78546 0.07524 0.0
O18 O 0.19521 0.81998 0.12097 0.0
O19 O 0.11407 0.82998 0.00975 0.0
O20 O 0.19848 0.88341 0.05265 0.0
O21 O 0.19896 0.78013 0.04295 0.0
Sc22 Sc 0.711 0.65145 0.48774 0.0
Sc23 Sc 0.65497 0.70242 0.52105 0.0
Sc24 Sc 0.64001 0.62466 0.51308 0.0
O25 O 0.66867 0.65964 0.50745 0.0
C26 C 0.66784 0.60439 0.44819 0.0
C27 C 0.68591 0.70796 0.45576 0.0
C28 C 0.59117 0.67379 0.4945 0.0
C29 C 0.72751 0.70522 0.53795 0.0
C30 C 0.70699 0.59848 0.53057 0.0
C31 C 0.63149 0.66554 0.57564 0.0
O32 O 0.69359 0.61799 0.45366 0.0
O33 O 0.66934 0.71858 0.47811 0.0
O34 O 0.59961 0.6471 0.49748 0.0
O35 O 0.73463 0.68371 0.51861 0.0
O36 O 0.67728 0.59774 0.52912 0.0
O37 O 0.63878 0.69013 0.56494 0.0
O38 O 0.7232 0.61785 0.51811 0.0
O39 O 0.69954 0.71404 0.54222 0.0
O40 O 0.63147 0.64048 0.5597 0.0
O41 O 0.70157 0.68389 0.45586 0.0
O42 O 0.64532 0.60581 0.46688 0.0
O43 O 0.60839 0.6964 0.50199 0.0
Sc44 Sc 0.85536 0.204 0.02188 0.0
Sc45 Sc 0.79922 0.15435 0.98721 0.0
Sc46 Sc 0.86897 0.12637 0.01426 0.0
O47 O 0.84119 0.16167 0.00789 0.0
C48 C 0.91865 0.17597 0.99725 0.0
C49 C 0.82254 0.21208 0.95749 0.0
C50 C 0.8432 0.10804 0.94814 0.0
C51 C 0.78387 0.20597 0.03991 0.0
C52 C 0.87944 0.16569 0.07621 0.0
C53 C 0.80113 0.10039 0.02794 0.0
O54 O 0.89989 0.19802 0.99926 0.0
O55 O 0.80924 0.18661 0.95539 0.0
O56 O 0.86598 0.1102 0.96689 0.0
O57 O 0.81205 0.21373 0.04579 0.0
O58 O 0.87449 0.14022 0.06191 0.0
O59 O 0.78593 0.1216 0.01761 0.0
O60 O 0.87559 0.19028 0.06407 0.0
O61 O 0.77625 0.18681 0.01812 0.0
O62 O 0.83065 0.09781 0.0257 0.0
O63 O 0.83749 0.22264 0.98117 0.0
O64 O 0.91097 0.14997 0.00404 0.0
O65 O 0.8169 0.12043 0.95379 0.0
Sc66 Sc 0.36651 0.37175 0.55636 0.0
Sc67 Sc 0.29903 0.34619 0.591 0.0
Sc68 Sc 0.35584 0.29438 0.56007 0.0
O69 O 0.34039 0.33735 0.56913 0.0
C70 C 0.37471 0.3236 0.49927 0.0
C71 C 0.29799 0.39401 0.54124 0.0
C72 C 0.28247 0.28888 0.54538 0.0
C73 C 0.34311 0.39747 0.62236 0.0
C74 C 0.41867 0.32875 0.58079 0.0
C75 C 0.32626 0.29219 0.62632 0.0
O76 O 0.37443 0.35021 0.51168 0.0
O77 O 0.28434 0.37909 0.5606 0.0
O78 O 0.31052 0.27953 0.54314 0.0
O79 O 0.36145 0.39701 0.59973 0.0
O80 O 0.40277 0.30474 0.57643 0.0
O81 O 0.30849 0.31463 0.62422 0.0
O82 O 0.40853 0.3541 0.57452 0.0
O83 O 0.31927 0.3805 0.62287 0.0
O84 O 0.34464 0.2825 0.60513 0.0
O85 O 0.32729 0.39311 0.53697 0.0
O86 O 0.36912 0.30081 0.51366 0.0
O87 O 0.27474 0.31271 0.5614 0.0
C88 C 0.01882 0.17824 0.28206 0.0
C89 C 0.01434 0.15306 0.26127 0.0
C90 C 0.98218 0.18251 0.22905 0.0
C91 C 0.99621 0.15518 0.23495 0.0
C92 C 0.9868 0.20762 0.25011 0.0
C93 C 0.00496 0.20547 0.27634 0.0
U94 U 0.06668 0.13493 0.3376 0.0
O95 O 0.10942 0.14757 0.36304 0.0
O96 O 0.06636 0.13935 0.3881 0.0
C97 C 0.09594 0.14739 0.38975 0.0
C98 C 0.0372 0.17644 0.31016 0.0
C99 C 0.10508 0.17179 0.41253 0.0
C100 C 0.12738 0.22134 0.4246 0.0
C101 C 0.11129 0.20081 0.40435 0.0
C102 C 0.12915 0.18471 0.46196 0.0
C103 C 0.13763 0.21293 0.45304 0.0
C104 C 0.11297 0.16435 0.44186 0.0
C105 C 0.06306 0.05995 0.28433 0.0
C106 C 0.06298 0.00833 0.26268 0.0
C107 C 0.06751 0.04852 0.22951 0.0
C108 C 0.06535 0.06956 0.25486 0.0
C109 C 0.06778 0.01774 0.23345 0.0
C110 C 0.06055 0.02929 0.28788 0.0
C111 C 0.06985 0.08014 0.31168 0.0
O112 O 0.02419 0.16105 0.33084 0.0
O113 O 0.06717 0.17084 0.30652 0.0
O114 O 0.0466 0.08932 0.32953 0.0
O115 O 0.09119 0.10073 0.3086 0.0
H116 H 0.0248 0.13181 0.26544 0.0
H117 H 0.9935 0.1355 0.21905 0.0
H118 H 0.97602 0.22888 0.24656 0.0
H119 H 0.00802 0.22507 0.2923 0.0
H120 H 0.13374 0.24294 0.41718 0.0
H121 H 0.10548 0.20692 0.38171 0.0
H122 H 0.13652 0.17784 0.48389 0.0
H123 H 0.10846 0.14204 0.44853 0.0
H124 H 0.06275 0.98472 0.26622 0.0
H125 H 0.07125 0.05631 0.20719 0.0
H126 H 0.06761 0.09314 0.25164 0.0
H127 H 0.05898 0.02145 0.31044 0.0
C128 C 0.36875 0.57294 0.80342 0.0
C129 C 0.383 0.56965 0.77473 0.0
C130 C 0.35599 0.52221 0.76272 0.0
C131 C 0.37656 0.54467 0.75454 0.0
C132 C 0.34201 0.52544 0.79173 0.0
C133 C 0.34835 0.55067 0.81193 0.0
U134 U 0.41614 0.64288 0.82063 0.0
O135 O 0.40202 0.68927 0.83368 0.0
O136 O 0.43346 0.66621 0.86353 0.0
C137 C 0.41581 0.68978 0.86048 0.0
C138 C 0.37483 0.60001 0.82386 0.0
C139 C 0.39537 0.69892 0.8863 0.0
C140 C 0.3564 0.68654 0.92312 0.0
C141 C 0.37849 0.67752 0.90097 0.0
C142 C 0.36813 0.73847 0.9165 0.0
C143 C 0.35049 0.71714 0.93072 0.0
C144 C 0.39039 0.72941 0.8945 0.0
C145 C 0.48116 0.6548 0.76118 0.0
C146 C 0.4983 0.68564 0.72149 0.0
C147 C 0.53632 0.65782 0.74849 0.0
C148 C 0.51246 0.64706 0.76621 0.0
C149 C 0.52934 0.67629 0.72511 0.0
C150 C 0.47447 0.67495 0.73925 0.0
C151 C 0.45558 0.63836 0.77502 0.0
O152 O 0.40178 0.6005 0.8384 0.0
O153 O 0.36876 0.62516 0.81176 0.0
O154 O 0.42724 0.64932 0.77303 0.0
O155 O 0.46132 0.62755 0.80135 0.0
H156 H 0.39878 0.58669 0.76776 0.0
H157 H 0.38726 0.54334 0.73223 0.0
H158 H 0.32631 0.50844 0.79887 0.0
H159 H 0.33722 0.55288 0.83406 0.0
H160 H 0.34357 0.66953 0.93392 0.0
H161 H 0.38181 0.65383 0.89473 0.0
H162 H 0.3639 0.76219 0.92144 0.0
H163 H 0.40296 0.74621 0.88313 0.0
H164 H 0.49199 0.69953 0.70348 0.0
H165 H 0.56006 0.65051 0.75211 0.0
H166 H 0.51841 0.63143 0.78276 0.0
H167 H 0.45061 0.68118 0.73451 0.0
C168 C 0.73152 0.91757 0.15212 0.0
C169 C 0.7572 0.91468 0.13248 0.0
C170 C 0.74153 0.9592 0.10851 0.0
C171 C 0.76226 0.93524 0.11112 0.0
C172 C 0.71521 0.96166 0.12775 0.0
C173 C 0.71032 0.94102 0.14953 0.0
U174 U 0.77221 0.85888 0.18959 0.0
O175 O 0.78244 0.85146 0.2373 0.0
O176 O 0.75928 0.81611 0.20724 0.0
C177 C 0.76979 0.82459 0.23479 0.0
C178 C 0.72937 0.8973 0.17655 0.0
C179 C 0.75099 0.81606 0.2605 0.0
C180 C 0.71899 0.82792 0.30544 0.0
C181 C 0.73359 0.83681 0.27919 0.0
C182 C 0.7386 0.77758 0.29391 0.0
C183 C 0.72166 0.79821 0.31326 0.0
C184 C 0.75294 0.7864 0.26783 0.0
C185 C 0.8519 0.83994 0.15292 0.0
C186 C 0.90048 0.82567 0.17647 0.0
C187 C 0.89491 0.82067 0.12141 0.0
C188 C 0.8643 0.83126 0.12412 0.0
C189 C 0.91366 0.81883 0.14751 0.0
C190 C 0.86975 0.83603 0.17917 0.0
C191 C 0.82179 0.85569 0.15476 0.0
O192 O 0.72775 0.86869 0.16701 0.0
O193 O 0.75012 0.903 0.19845 0.0
O194 O 0.8184 0.87572 0.17814 0.0
O195 O 0.79669 0.83928 0.14863 0.0
H196 H 0.77403 0.89694 0.13435 0.0
H197 H 0.78321 0.93288 0.09746 0.0
H198 H 0.69863 0.97967 0.12624 0.0
H199 H 0.69045 0.94369 0.16466 0.0
H200 H 0.70598 0.84431 0.31974 0.0
H201 H 0.73188 0.85989 0.2739 0.0
H202 H 0.74192 0.75474 0.29946 0.0
H203 H 0.76656 0.77017 0.25387 0.0
H204 H 0.91438 0.82423 0.19694 0.0
H205 H 0.90453 0.81588 0.0988 0.0
H206 H 0.85084 0.83408 0.10362 0.0
H207 H 0.8605 0.84229 0.20168 0.0
C208 C 0.77978 0.41333 0.65581 0.0
C209 C 0.76632 0.40681 0.62676 0.0
C210 C 0.76379 0.45979 0.61934 0.0
C211 C 0.75853 0.42976 0.60872 0.0
C212 C 0.77928 0.46631 0.64742 0.0
C213 C 0.78709 0.44319 0.66563 0.0
U214 U 0.7371 0.34967 0.68321 0.0
O215 O 0.74905 0.30453 0.69549 0.0
O216 O 0.72524 0.33625 0.72863 0.0
C217 C 0.73779 0.30958 0.7232 0.0
C218 C 0.78031 0.38998 0.67749 0.0
C219 C 0.75603 0.29787 0.74794 0.0
C220 C 0.79005 0.30396 0.79259 0.0
C221 C 0.77504 0.3161 0.76802 0.0
C222 C 0.76743 0.25547 0.77672 0.0
C223 C 0.78624 0.27347 0.79728 0.0
C224 C 0.75262 0.26753 0.75235 0.0
C225 C 0.65882 0.33536 0.64024 0.0
C226 C 0.60653 0.32317 0.65665 0.0
C227 C 0.62024 0.31502 0.60324 0.0
C228 C 0.65052 0.32537 0.61016 0.0
C229 C 0.59769 0.31484 0.62629 0.0
C230 C 0.63689 0.33321 0.66362 0.0
C231 C 0.68901 0.35082 0.64607 0.0
O232 O 0.75849 0.39318 0.69843 0.0
O233 O 0.78277 0.36224 0.66521 0.0
O234 O 0.71434 0.3352 0.6392 0.0
O235 O 0.69147 0.36792 0.67179 0.0
H236 H 0.75999 0.38408 0.61867 0.0
H237 H 0.74688 0.42411 0.58704 0.0
H238 H 0.78344 0.48931 0.65618 0.0
H239 H 0.79705 0.44877 0.6881 0.0
H240 H 0.80451 0.31839 0.80789 0.0
H241 H 0.77793 0.33966 0.76497 0.0
H242 H 0.76331 0.23211 0.77992 0.0
H243 H 0.73781 0.25319 0.73724 0.0
H244 H 0.58959 0.32303 0.67484 0.0
H245 H 0.61394 0.30896 0.57962 0.0
H246 H 0.66705 0.32688 0.59179 0.0
H247 H 0.6427 0.34052 0.68709 0.0
C248 C 0.51023 0.35646 0.30856 0.0
C249 C 0.48652 0.37325 0.3235 0.0
C250 C 0.46918 0.32958 0.34813 0.0
C251 C 0.46629 0.36005 0.34313 0.0
C252 C 0.49193 0.31232 0.33161 0.0
C253 C 0.51241 0.32571 0.31202 0.0
U254 U 0.57859 0.3666 0.25202 0.0
O255 O 0.57008 0.33583 0.21089 0.0
O256 O 0.59955 0.32188 0.2482 0.0
C257 C 0.59027 0.31619 0.21973 0.0
C258 C 0.53446 0.3727 0.29316 0.0
C259 C 0.61512 0.30725 0.19772 0.0
C260 C 0.63094 0.28242 0.149 0.0
C261 C 0.60752 0.29106 0.16998 0.0
C262 C 0.66992 0.30614 0.18325 0.0
C263 C 0.66252 0.28956 0.15553 0.0
C264 C 0.64649 0.31507 0.204 0.0
C265 C 0.61375 0.44287 0.26362 0.0
C266 C 0.63973 0.4897 0.27999 0.0
C267 C 0.59327 0.4748 0.30614 0.0
C268 C 0.59117 0.44894 0.28624 0.0
C269 C 0.618 0.49518 0.30375 0.0
C270 C 0.63769 0.46362 0.26014 0.0
C271 C 0.61391 0.41351 0.24619 0.0
O272 O 0.52968 0.37725 0.26437 0.0
O273 O 0.56351 0.36589 0.29941 0.0
O274 O 0.589 0.40725 0.22914 0.0
O275 O 0.62211 0.39154 0.26243 0.0
H276 H 0.4847 0.39708 0.32131 0.0
H277 H 0.44966 0.37435 0.35578 0.0
H278 H 0.49459 0.28875 0.33458 0.0
H279 H 0.53067 0.31239 0.30064 0.0
H280 H 0.62425 0.27022 0.12764 0.0
H281 H 0.58345 0.28511 0.16453 0.0
H282 H 0.69393 0.31173 0.18931 0.0
H283 H 0.65303 0.32787 0.2251 0.0
H284 H 0.6588 0.50514 0.27725 0.0
H285 H 0.57641 0.47793 0.32439 0.0
H286 H 0.57266 0.43297 0.28938 0.0
H287 H 0.65534 0.45918 0.24279 0.0
C288 C 0.14217 0.20223 0.89219 0.0
C289 C 0.12701 0.17605 0.89951 0.0
C290 C 0.08196 0.20506 0.91813 0.0
C291 C 0.09717 0.17741 0.91204 0.0
C292 C 0.09722 0.23131 0.91072 0.0
C293 C 0.12711 0.22988 0.89782 0.0
U294 U 0.21968 0.16301 0.88638 0.0
O295 O 0.24846 0.14819 0.84678 0.0
O296 O 0.26784 0.17979 0.88295 0.0
C297 C 0.27126 0.16686 0.85518 0.0
C298 C 0.17389 0.20057 0.87943 0.0
C299 C 0.2799 0.18702 0.83204 0.0
C300 C 0.26516 0.22572 0.79948 0.0
C301 C 0.25808 0.20779 0.82289 0.0
C302 C 0.31636 0.20286 0.79452 0.0
C303 C 0.29429 0.22334 0.78481 0.0
C304 C 0.30917 0.18479 0.81795 0.0
C305 C 0.22435 0.0946 0.93573 0.0
C306 C 0.23614 0.04138 0.92943 0.0
C307 C 0.23307 0.06689 0.98012 0.0
C308 C 0.22699 0.09381 0.96745 0.0
C309 C 0.23639 0.04016 0.96127 0.0
C310 C 0.23017 0.06836 0.91675 0.0
C311 C 0.21039 0.12131 0.92366 0.0
O312 O 0.19666 0.20618 0.89932 0.0
O313 O 0.17921 0.17701 0.86027 0.0
O314 O 0.20146 0.11881 0.8949 0.0
O315 O 0.22282 0.1475 0.93256 0.0
H316 H 0.13825 0.15444 0.89553 0.0
H317 H 0.08596 0.15666 0.91678 0.0
H318 H 0.08632 0.25299 0.91536 0.0
H319 H 0.13857 0.25034 0.8925 0.0
H320 H 0.2474 0.24083 0.7923 0.0
H321 H 0.23527 0.20965 0.83346 0.0
H322 H 0.33913 0.20071 0.78395 0.0
H323 H 0.32626 0.16884 0.82478 0.0
H324 H 0.239 0.02119 0.91433 0.0
H325 H 0.23283 0.06669 0.00472 0.0
H326 H 0.22234 0.11366 0.98258 0.0
H327 H 0.22839 0.06823 0.89217 0.0
C328 C 0.22734 0.56272 0.39821 0.0
C329 C 0.23189 0.56517 0.43004 0.0
C330 C 0.23524 0.511 0.42968 0.0
C331 C 0.2356 0.53953 0.44564 0.0
C332 C 0.22856 0.5085 0.39824 0.0
C333 C 0.22447 0.53413 0.3827 0.0
U334 U 0.27683 0.62733 0.37929 0.0
O335 O 0.29161 0.64256 0.3355 0.0
O336 O 0.26746 0.67361 0.36888 0.0
C337 C 0.27973 0.6694 0.34152 0.0
C338 C 0.23066 0.5891 0.38047 0.0
C339 C 0.26225 0.68143 0.31658 0.0
C340 C 0.21923 0.67989 0.28014 0.0
C341 C 0.23441 0.66827 0.30487 0.0
C342 C 0.25963 0.71777 0.279 0.0
C343 C 0.23175 0.7048 0.26691 0.0
C344 C 0.27463 0.70623 0.3036 0.0
C345 C 0.3556 0.63495 0.42092 0.0
C346 C 0.40581 0.64949 0.40118 0.0
C347 C 0.39838 0.64937 0.45572 0.0
C348 C 0.36738 0.64016 0.45072 0.0
C349 C 0.41812 0.65316 0.43093 0.0
C350 C 0.37473 0.64068 0.3962 0.0
C351 C 0.32448 0.62117 0.41593 0.0
O352 O 0.23031 0.61557 0.39601 0.0
O353 O 0.25293 0.58652 0.35996 0.0
O354 O 0.32057 0.60503 0.3898 0.0
O355 O 0.30031 0.63811 0.42377 0.0
H356 H 0.23443 0.58686 0.4427 0.0
H357 H 0.24096 0.54214 0.46982 0.0
H358 H 0.22794 0.48674 0.38545 0.0
H359 H 0.22101 0.53163 0.35819 0.0
H360 H 0.19773 0.66949 0.27146 0.0
H361 H 0.22462 0.649 0.31467 0.0
H362 H 0.27035 0.73649 0.26902 0.0
H363 H 0.29626 0.71648 0.31223 0.0
H364 H 0.42055 0.65247 0.38173 0.0
H365 H 0.40741 0.65183 0.47887 0.0
H366 H 0.35299 0.63591 0.47007 0.0
H367 H 0.36609 0.63717 0.37297 0.0
C368 C 0.89772 0.94847 0.7625 0.0
C369 C 0.92029 0.95431 0.78549 0.0
C370 C 0.89357 0.00031 0.8033 0.0
C371 C 0.91824 0.97994 0.8057 0.0
C372 C 0.87189 0.99511 0.77916 0.0
C373 C 0.87389 0.96927 0.75899 0.0
U374 U 0.92962 0.87092 0.75287 0.0
O375 O 0.90598 0.82729 0.74905 0.0
O376 O 0.93799 0.83886 0.713 0.0
C377 C 0.91708 0.81983 0.72168 0.0
C378 C 0.89696 0.91903 0.74517 0.0
C379 C 0.89337 0.80995 0.69883 0.0
C380 C 0.84738 0.82002 0.66883 0.0
C381 C 0.87107 0.83008 0.68926 0.0
C382 C 0.8684 0.76974 0.66721 0.0
C383 C 0.84571 0.78969 0.65771 0.0
C384 C 0.89202 0.77982 0.68762 0.0
C385 C 0.99433 0.85448 0.81008 0.0
C386 C 0.00421 0.80763 0.8323 0.0
C387 C 0.03937 0.84975 0.84297 0.0
C388 C 0.02148 0.86661 0.82416 0.0
C389 C 0.0303 0.82043 0.84815 0.0
C390 C 0.98637 0.82452 0.81333 0.0
C391 C 0.97293 0.87448 0.79542 0.0
O392 O 0.92218 0.91174 0.72927 0.0
O393 O 0.88707 0.89753 0.76117 0.0
O394 O 0.94311 0.87058 0.8009 0.0
O395 O 0.97874 0.87913 0.7669 0.0
H396 H 0.93865 0.93826 0.78873 0.0
H397 H 0.93506 0.98287 0.82422 0.0
H398 H 0.85287 0.01055 0.7764 0.0
H399 H 0.85618 0.96498 0.74144 0.0
H400 H 0.83044 0.83596 0.66171 0.0
H401 H 0.8718 0.85346 0.69786 0.0
H402 H 0.86748 0.74617 0.65942 0.0
H403 H 0.90895 0.76399 0.69503 0.0
H404 H 0.99683 0.78503 0.83563 0.0
H405 H 0.05905 0.86046 0.85511 0.0
H406 H 0.02791 0.88971 0.82194 0.0
H407 H 0.96555 0.8147 0.80244 0.0
H408 H 0.09489 0.9343 0.11353 0.0
H409 H 0.16558 0.90108 0.17235 0.0
H410 H 0.14804 0.93598 0.21442 0.0
H411 H 0.11296 0.97606 0.23443 0.0
H412 H 0.04361 0.0108 0.1755 0.0
H413 H 0.06029 0.97505 0.13338 0.0
C414 C 0.10646 0.93463 0.13556 0.0
C415 C 0.13151 0.91501 0.13976 0.0
C416 C 0.09644 0.95494 0.15959 0.0
C417 C 0.14637 0.91598 0.16841 0.0
C418 C 0.13628 0.93586 0.19252 0.0
C419 C 0.10128 0.97554 0.21243 0.0
C420 C 0.07685 0.99568 0.20807 0.0
C421 C 0.11135 0.95538 0.18836 0.0
C422 C 0.0624 0.99538 0.17932 0.0
C423 C 0.07193 0.97498 0.15532 0.0
H424 H 0.6042 0.71152 0.61064 0.0
H425 H 0.63355 0.61959 0.6119 0.0
H426 H 0.6078 0.61631 0.6607 0.0
H427 H 0.57135 0.63707 0.69913 0.0
H428 H 0.53991 0.72829 0.69784 0.0
H429 H 0.57212 0.73434 0.65298 0.0
C430 C 0.6055 0.69101 0.62194 0.0
C431 C 0.62043 0.66573 0.60746 0.0
C432 C 0.58993 0.68899 0.64978 0.0
C433 C 0.62183 0.63925 0.62234 0.0
C434 C 0.6071 0.63732 0.65026 0.0
C435 C 0.5722 0.65861 0.68968 0.0
C436 C 0.55308 0.68213 0.70177 0.0
C437 C 0.59025 0.66171 0.66366 0.0
C438 C 0.55411 0.70969 0.68875 0.0
C439 C 0.57253 0.71316 0.66311 0.0
H440 H 0.80153 0.04066 0.01465 0.0
H441 H 0.76253 0.11032 0.07647 0.0
H442 H 0.73831 0.07266 0.10616 0.0
H443 H 0.73244 0.01987 0.11674 0.0
H444 H 0.76748 0.95041 0.05166 0.0
H445 H 0.78889 0.98805 0.02096 0.0
C446 C 0.78744 0.04745 0.03448 0.0
C447 C 0.78403 0.07795 0.04378 0.0
C448 C 0.77308 0.02577 0.05089 0.0
C449 C 0.76543 0.0868 0.06911 0.0
C450 C 0.75169 0.06532 0.08606 0.0
C451 C 0.74403 0.01286 0.09547 0.0
C452 C 0.74904 0.98221 0.08711 0.0
C453 C 0.75583 0.03469 0.07745 0.0
C454 C 0.76418 0.97378 0.05935 0.0
C455 C 0.77634 0.9953 0.04161 0.0
H456 H 0.46335 0.28574 0.5706 0.0
H457 H 0.44427 0.37015 0.62176 0.0
H458 H 0.49721 0.37155 0.64267 0.0
H459 H 0.54982 0.35089 0.64363 0.0
H460 H 0.57126 0.26873 0.58973 0.0
H461 H 0.51659 0.2642 0.57263 0.0
C462 C 0.4708 0.30419 0.5866 0.0
C463 C 0.45009 0.32784 0.59461 0.0
C464 C 0.50169 0.30532 0.59787 0.0
C465 C 0.45997 0.35183 0.61509 0.0
C466 C 0.49018 0.35263 0.62709 0.0
C467 C 0.54236 0.33168 0.62861 0.0
C468 C 0.56432 0.31002 0.61817 0.0
C469 C 0.51135 0.32979 0.61826 0.0
C470 C 0.55462 0.28563 0.59809 0.0
C471 C 0.52344 0.28308 0.58831 0.0
H472 H 0.61381 0.59064 0.41753 0.0
H473 H 0.71354 0.57684 0.41326 0.0
H474 H 0.70709 0.54359 0.36662 0.0
H475 H 0.67283 0.51553 0.32958 0.0
H476 H 0.57325 0.53098 0.33242 0.0
H477 H 0.58 0.56653 0.37722 0.0
C478 C 0.63412 0.58038 0.40633 0.0
C479 C 0.66405 0.5858 0.41903 0.0
C480 C 0.63029 0.56156 0.37938 0.0
C481 C 0.69024 0.5729 0.40397 0.0
C482 C 0.68657 0.55387 0.37734 0.0
C483 C 0.65263 0.52719 0.33945 0.0
C484 C 0.62253 0.52026 0.32779 0.0
C485 C 0.65667 0.54771 0.36511 0.0
C486 C 0.59664 0.5354 0.34126 0.0
C487 C 0.60046 0.55579 0.36685 0.0
H488 H 0.94038 0.21629 0.95909 0.0
H489 H 0.96978 0.14521 0.0129 0.0
H490 H 0.02315 0.14968 0.99496 0.0
H491 H 0.06101 0.1721 0.96274 0.0
H492 H 0.0319 0.2405 0.9055 0.0
H493 H 0.97919 0.23936 0.92666 0.0
C494 C 0.95857 0.20199 0.96702 0.0
C495 C 0.9511 0.18034 0.98715 0.0
C496 C 0.98927 0.20422 0.95607 0.0
C497 C 0.97484 0.16183 0.99714 0.0
C498 C 0.00541 0.16441 0.98697 0.0
C499 C 0.04312 0.1866 0.9546 0.0
C500 C 0.05041 0.20608 0.93227 0.0
C501 C 0.01277 0.18518 0.96612 0.0
C502 C 0.02707 0.22538 0.92279 0.0
C503 C 0.99683 0.22457 0.93472 0.0
H504 H 0.30869 0.40598 0.48323 0.0
H505 H 0.24582 0.42631 0.55835 0.0
H506 H 0.21916 0.4634 0.52966 0.0
H507 H 0.21664 0.49275 0.4845 0.0
H508 H 0.27902 0.47069 0.40924 0.0
H509 H 0.3027 0.43132 0.4365 0.0
C510 C 0.28899 0.4184 0.49322 0.0
C511 C 0.27946 0.41379 0.52296 0.0
C512 C 0.27372 0.43936 0.47655 0.0
C513 C 0.25357 0.42956 0.53547 0.0
C514 C 0.23844 0.45083 0.51913 0.0
C515 C 0.23516 0.47903 0.47402 0.0
C516 C 0.2461 0.48464 0.44494 0.0
C517 C 0.24873 0.45633 0.48987 0.0
C518 C 0.26996 0.46661 0.43145 0.0
C519 C 0.2837 0.44425 0.44712 0.0
H520 H 0.06682 0.7828 0.97679 0.0
H521 H 0.15721 0.81195 0.94856 0.0
H522 H 0.13764 0.81463 0.8964 0.0
H523 H 0.09243 0.81724 0.86187 0.0
H524 H 0.00129 0.79088 0.89163 0.0
H525 H 0.02357 0.7775 0.93964 0.0
C526 C 0.0824 0.78859 0.95882 0.0
C527 C 0.11332 0.79692 0.96606 0.0
C528 C 0.0707 0.79091 0.92927 0.0
C529 C 0.1334 0.80504 0.94309 0.0
C530 C 0.12211 0.80687 0.91343 0.0
C531 C 0.0776 0.808 0.87865 0.0
C532 C 0.0452 0.80551 0.87334 0.0
C533 C 0.09043 0.80118 0.90666 0.0
C534 C 0.02632 0.79297 0.89502 0.0
C535 C 0.03899 0.78559 0.92268 0.0
H536 H 0.89744 0.09477 0.91816 0.0
H537 H 0.79771 0.08045 0.91217 0.0
H538 H 0.80432 0.04762 0.86543 0.0
H539 H 0.83868 0.02009 0.82863 0.0
H540 H 0.93827 0.0359 0.83323 0.0
H541 H 0.93139 0.07102 0.87824 0.0
C542 C 0.87715 0.08452 0.90656 0.0
C543 C 0.84718 0.08972 0.91883 0.0
C544 C 0.88108 0.06588 0.87954 0.0
C545 C 0.82106 0.07674 0.90325 0.0
C546 C 0.82481 0.05792 0.87655 0.0
C547 C 0.85886 0.03173 0.83894 0.0
C548 C 0.88899 0.02504 0.82766 0.0
C549 C 0.85475 0.052 0.86473 0.0
C550 C 0.91485 0.04014 0.84174 0.0
C551 C 0.91095 0.0603 0.86745 0.0
H552 H 0.42223 0.29067 0.47386 0.0
H553 H 0.34674 0.34905 0.45291 0.0
H554 H 0.36641 0.35104 0.40104 0.0
H555 H 0.4089 0.34209 0.36461 0.0
H556 H 0.48859 0.28975 0.38833 0.0
H557 H 0.46302 0.27839 0.43531 0.0
C558 C 0.40975 0.3031 0.45755 0.0
C559 C 0.3831 0.31959 0.46686 0.0
C560 C 0.42211 0.30535 0.42828 0.0
C561 C 0.36728 0.33615 0.44597 0.0
C562 C 0.37859 0.33738 0.41644 0.0
C563 C 0.42068 0.32807 0.37994 0.0
C564 C 0.45094 0.31733 0.37304 0.0
C565 C 0.40665 0.32304 0.40778 0.0
C566 C 0.46529 0.29832 0.3928 0.0
C567 C 0.45082 0.29208 0.41996 0.0
H568 H 0.22806 0.93285 0.0444 0.0
H569 H 0.16001 0.90318 0.97539 0.0
H570 H 0.17428 0.94442 0.94561 0.0
H571 H 0.20154 0.9918 0.94194 0.0
H572 H 0.26789 0.02345 0.01164 0.0
H573 H 0.25896 0.9785 0.03832 0.0
C574 C 0.21677 0.93513 0.0226 0.0
C575 C 0.19279 0.91513 0.0123 0.0
C576 C 0.22458 0.9594 0.00584 0.0
C577 C 0.17827 0.91847 0.98404 0.0
C578 C 0.18642 0.94205 0.96696 0.0
C579 C 0.21472 0.98852 0.96252 0.0
C580 C 0.23535 0.01094 0.97478 0.0
C581 C 0.20891 0.96307 0.97803 0.0
C582 C 0.25172 0.00659 0.00185 0.0
C583 C 0.24659 0.98093 0.01711 0.0
H584 H 0.56307 0.64057 0.44842 0.0
H585 H 0.54844 0.7164 0.51382 0.0
H586 H 0.49319 0.7181 0.49867 0.0
H587 H 0.44813 0.69468 0.46989 0.0
H588 H 0.46421 0.61988 0.40343 0.0
H589 H 0.51992 0.62125 0.41563 0.0
C590 C 0.54782 0.6577 0.45904 0.0
C591 C 0.55949 0.67812 0.48237 0.0
C592 C 0.51638 0.6586 0.45011 0.0
C593 C 0.53981 0.7005 0.49574 0.0
C594 C 0.50825 0.70133 0.48723 0.0
C595 C 0.464 0.67899 0.4579 0.0
C596 C 0.45217 0.65712 0.43593 0.0
C597 C 0.49612 0.68001 0.46494 0.0
C598 C 0.47286 0.63703 0.42027 0.0
C599 C 0.50466 0.63767 0.42737 0.0
H600 H 0.30339 0.42079 0.66676 0.0
H601 H 0.39984 0.42133 0.63838 0.0
H602 H 0.41263 0.45794 0.68075 0.0
H603 H 0.39632 0.49146 0.72428 0.0
H604 H 0.29947 0.49406 0.75124 0.0
H605 H 0.28721 0.45399 0.71168 0.0
C606 C 0.32722 0.42878 0.67002 0.0
C607 C 0.35052 0.41854 0.64923 0.0
C608 C 0.33442 0.45033 0.69425 0.0
C609 C 0.38132 0.42914 0.65375 0.0
C610 C 0.38873 0.45001 0.67806 0.0
C611 C 0.37245 0.48345 0.72144 0.0
C612 C 0.34884 0.49605 0.74055 0.0
C613 C 0.36539 0.46111 0.69812 0.0
C614 C 0.31822 0.48469 0.73704 0.0
C615 C 0.31111 0.46193 0.71422 0.0
H616 H 0.05718 0.8356 0.12944 0.0
H617 H 0.04312 0.75996 0.06349 0.0
H618 H 0.98909 0.7548 0.08094 0.0
H619 H 0.94422 0.77647 0.11049 0.0
H620 H 0.95957 0.85217 0.17642 0.0
H621 H 0.01496 0.85225 0.16403 0.0
C622 C 0.0424 0.8176 0.1194 0.0
C623 C 0.05367 0.79836 0.09513 0.0
C624 C 0.01165 0.81491 0.12947 0.0
C625 C 0.03472 0.77493 0.0823 0.0
C626 C 0.00385 0.77216 0.09212 0.0
C627 C 0.95988 0.79257 0.12248 0.0
C628 C 0.94781 0.81442 0.14414 0.0
C629 C 0.99177 0.7927 0.115 0.0
C630 C 0.96832 0.83499 0.15983 0.0
C631 C -5e-05 0.83524 0.15256 0.0
H632 H 0.68154 0.54796 0.5493 0.0
H633 H 0.76842 0.5971 0.54951 0.0
H634 H 0.79384 0.55892 0.57761 0.0
H635 H 0.79117 0.51106 0.60213 0.0
H636 H 0.70392 0.46245 0.60004 0.0
H637 H 0.67891 0.50098 0.57275 0.0
C638 C 0.70604 0.55049 0.55551 0.0
C639 C 0.72296 0.57548 0.54734 0.0
C640 C 0.72049 0.52845 0.57134 0.0
C641 C 0.75479 0.57808 0.55542 0.0
C642 C 0.76934 0.55628 0.57155 0.0
C643 C 0.7667 0.50907 0.59569 0.0
C644 C 0.74948 0.48385 0.60284 0.0
C645 C 0.75241 0.53131 0.57965 0.0
C646 C 0.71779 0.48142 0.59436 0.0
C647 C 0.70341 0.5035 0.57888 0.0
H648 H 0.91443 0.20987 0.10627 0.0
H649 H 0.8755 0.12232 0.11586 0.0
H650 H 0.90293 0.12027 0.16442 0.0
H651 H 0.94008 0.14213 0.20291 0.0
H652 H 0.98112 0.22854 0.19203 0.0
H653 H 0.95053 0.23234 0.14555 0.0
C654 C 0.91154 0.19055 0.11922 0.0
C655 C 0.89292 0.1663 0.10739 0.0
C656 C 0.92798 0.18919 0.14685 0.0
C657 C 0.88977 0.14127 0.12434 0.0
C658 C 0.90552 0.14003 0.15211 0.0
C659 C 0.9425 0.16172 0.19029 0.0
C660 C 0.963 0.18494 0.201 0.0
C661 C 0.92515 0.1636 0.16329 0.0
C662 C 0.96532 0.21043 0.18458 0.0
C663 C 0.94793 0.21258 0.15787 0.0
H664 H 0.17884 0.73663 0.13928 0.0
H665 H 0.2019 0.82564 0.17854 0.0
H666 H 0.21598 0.80581 0.22656 0.0
H667 H 0.22476 0.7632 0.25644 0.0
H668 H 0.20509 0.67369 0.21679 0.0
H669 H 0.18581 0.69379 0.17029 0.0
C670 C 0.18666 0.75171 0.15844 0.0
C671 C 0.18957 0.78256 0.15517 0.0
C672 C 0.19527 0.74009 0.18597 0.0
C673 C 0.1998 0.80177 0.18024 0.0
C674 C 0.20779 0.79047 0.20778 0.0
C675 C 0.21633 0.74803 0.23761 0.0
C676 C 0.21674 0.71696 0.24002 0.0
C677 C 0.20618 0.75965 0.2107 0.0
C678 C 0.20491 0.69771 0.21568 0.0
C679 C 0.19413 0.70918 0.18895 0.0
H680 H 0.72277 0.74886 0.58518 0.0
H681 H 0.79012 0.69476 0.53257 0.0
H682 H 0.83238 0.717 0.56407 0.0
H683 H 0.85037 0.7506 0.60734 0.0
H684 H 0.78356 0.80394 0.66107 0.0
H685 H 0.74111 0.78362 0.62799 0.0
C686 C 0.7467 0.74202 0.58049 0.0
C687 C 0.75309 0.71999 0.55657 0.0
C688 C 0.77107 0.75481 0.59885 0.0
C689 C 0.78433 0.7115 0.55087 0.0
C690 C 0.80861 0.72423 0.56888 0.0
C691 C 0.82649 0.75768 0.61191 0.0
C692 C 0.82013 0.7786 0.63672 0.0
C693 C 0.80223 0.74565 0.59309 0.0
C694 C 0.78914 0.78803 0.64196 0.0
C695 C 0.76484 0.77627 0.62317 0.0
H696 H 0.7819 0.26003 0.07374 0.0
H697 H 0.72895 0.17896 0.05123 0.0
H698 H 0.68696 0.19767 0.08469 0.0
H699 H 0.66569 0.23623 0.12116 0.0
H700 H 0.7164 0.31896 0.14165 0.0
H701 H 0.75892 0.30023 0.10857 0.0
C702 C 0.76115 0.24653 0.07622 0.0
C703 C 0.75858 0.21818 0.06003 0.0
C704 C 0.73671 0.25762 0.09522 0.0
C705 C 0.73144 0.20099 0.06324 0.0
C706 C 0.70742 0.2116 0.08246 0.0
C707 C 0.68572 0.25048 0.11804 0.0
C708 C 0.68774 0.27895 0.13406 0.0
C709 C 0.7098 0.23985 0.09855 0.0
C710 C 0.71434 0.29673 0.13008 0.0
C711 C 0.73864 0.28611 0.11099 0.0
H712 H 0.30162 0.31213 0.68125 0.0
H713 H 0.34815 0.23619 0.63456 0.0
H714 H 0.3437 0.20878 0.67988 0.0
H715 H 0.32408 0.20534 0.73177 0.0
H716 H 0.27899 0.28182 0.77897 0.0
H717 H 0.28521 0.30989 0.73432 0.0
C718 C 0.31085 0.2896 0.68097 0.0
C719 C 0.32495 0.27619 0.6544 0.0
C720 C 0.30834 0.27397 0.70715 0.0
C721 C 0.33714 0.2471 0.65464 0.0
C722 C 0.33456 0.23135 0.68055 0.0
C723 C 0.31612 0.22833 0.73254 0.0
C724 C 0.30083 0.2413 0.75866 0.0
C725 C 0.31993 0.24445 0.70683 0.0
C726 C 0.29032 0.27103 0.759 0.0
C727 C 0.29398 0.28718 0.73351 0.0
H728 H 0.69572 0.76704 0.44808 0.0
H729 H 0.67548 0.68142 0.39954 0.0
H730 H 0.67965 0.70332 0.35086 0.0
H731 H 0.69399 0.74519 0.32218 0.0
H732 H 0.72076 0.82963 0.36982 0.0
H733 H 0.70799 0.81033 0.41856 0.0
C734 C 0.69182 0.75344 0.42678 0.0
C735 C 0.68551 0.72272 0.42718 0.0
C736 C 0.69542 0.76599 0.39874 0.0
C737 C 0.68067 0.7051 0.39959 0.0
C738 C 0.683 0.71759 0.37181 0.0
C739 C 0.69706 0.75945 0.3432 0.0
C740 C 0.70885 0.78864 0.34228 0.0
C741 C 0.69122 0.74777 0.37111 0.0
C742 C 0.71165 0.80708 0.36974 0.0
C743 C 0.70467 0.79594 0.3977 0.0
H744 H 0.82917 0.1917 0.89869 0.0
H745 H 0.81095 0.272 0.95684 0.0
H746 H 0.80056 0.29937 0.91187 0.0
H747 H 0.79148 0.29859 0.85619 0.0
H748 H 0.81296 0.2184 0.7986 0.0
H749 H 0.82742 0.1929 0.84321 0.0
C750 C 0.82324 0.21529 0.90144 0.0
C751 C 0.82033 0.22979 0.93086 0.0
C752 C 0.81768 0.2308 0.87564 0.0
C753 C 0.81322 0.26044 0.9343 0.0
C754 C 0.80717 0.276 0.90863 0.0
C755 C 0.80003 0.27578 0.85332 0.0
C756 C 0.80034 0.26024 0.82406 0.0
C757 C 0.80864 0.2612 0.87918 0.0
C758 C 0.81155 0.23066 0.82087 0.0
C759 C 0.81996 0.21604 0.84637 0.0
H760 H 0.22518 0.30755 0.52706 0.0
H761 H 0.28435 0.22959 0.52636 0.0
H762 H 0.24416 0.19933 0.49891 0.0
H763 H 0.19285 0.195 0.47432 0.0
H764 H 0.13411 0.27272 0.47219 0.0
H765 H 0.17352 0.30322 0.50152 0.0
C766 C 0.22918 0.28391 0.52101 0.0
C767 C 0.25772 0.27085 0.52881 0.0
C768 C 0.2061 0.26665 0.50474 0.0
C769 C 0.2627 0.24026 0.52051 0.0
C770 C 0.2397 0.22289 0.50488 0.0
C771 C 0.18853 0.21855 0.48062 0.0
C772 C 0.16053 0.23159 0.47157 0.0
C773 C 0.2114 0.23586 0.49684 0.0
C774 C 0.1555 0.26226 0.4791 0.0
C775 C 0.17798 0.27962 0.49583 0.0
H776 H 0.22664 0.74534 0.00474 0.0
H777 H 0.2828 0.81969 0.04302 0.0
H778 H 0.32737 0.80106 0.01273 0.0
H779 H 0.34996 0.76449 0.97421 0.0
H780 H 0.29276 0.69159 0.93448 0.0
H781 H 0.24934 0.70855 0.96704 0.0
C782 C 0.24866 0.75745 0.00668 0.0
C783 C 0.25123 0.78397 0.02614 0.0
C784 C 0.27411 0.7468 0.989 0.0
C785 C 0.28002 0.7993 0.02818 0.0
C786 C 0.30556 0.78864 0.01086 0.0
C787 C 0.32796 0.75237 0.97258 0.0
C788 C 0.32475 0.72675 0.9519 0.0
C789 C 0.30278 0.76259 0.99095 0.0
C790 C 0.29617 0.71107 0.95049 0.0
C791 C 0.27118 0.72091 0.96893 0.0
loop_
_geom_bond_atom_site_label_1
_geom_bond_atom_site_label_2
_geom_bond_distance
_geom_bond_site_symmetry_2
_ccdc_geom_bond_type
Sc0 O3 2.025 . S
Sc0 O10 2.105 . S
Sc0 O13 2.105 . S
Sc0 O16 2.105 . S
Sc0 O19 2.105 . S
Sc1 O3 2.025 . S
Sc1 O11 2.105 . S
Sc1 O15 2.105 . S
Sc1 O17 2.105 . S
Sc1 O21 2.105 . S
Sc2 O3 2.025 . S
Sc2 O12 2.105 . S
Sc2 O14 2.105 . S
Sc2 O18 2.105 . S
Sc2 O20 2.105 . S
O3 Sc0 2.025 . S
O3 Sc1 2.025 . S
O3 Sc2 2.025 . S
C4 O10 1.268 . S
C4 O20 1.268 . S
C5 O11 1.268 1_556 S
C5 O19 1.268 1_556 S
C6 O12 1.268 . S
C6 O21 1.268 . S
C7 O13 1.268 . S
C7 O17 1.268 . S
C8 O14 1.268 . S
C8 O16 1.268 . S
C9 O15 1.268 . S
C9 O18 1.268 . S
O10 Sc0 2.105 . S
O10 C4 1.268 . S
O11 Sc1 2.105 . S
O11 C5 1.268 1_554 S
O12 Sc2 2.105 . S
O12 C6 1.268 . S
O13 Sc0 2.105 . S
O13 C7 1.268 . S
O14 Sc2 2.105 . S
O14 C8 1.268 . S
O15 Sc1 2.105 . S
O15 C9 1.268 . S
O16 Sc0 2.105 . S
O16 C8 1.268 . S
O17 Sc1 2.105 . S
O17 C7 1.268 . S
O18 Sc2 2.105 . S
O18 C9 1.268 . S
O19 Sc0 2.105 . S
O19 C5 1.268 1_554 S
O20 Sc2 2.105 . S
O20 C4 1.268 . S
O21 Sc1 2.105 . S
O21 C6 1.268 . S
Sc22 O25 2.025 . S
Sc22 O32 2.105 . S
Sc22 O35 2.105 . S
Sc22 O38 2.105 . S
Sc22 O41 2.105 . S
Sc23 O25 2.025 . S
Sc23 O33 2.105 . S
Sc23 O37 2.105 . S
Sc23 O39 2.105 . S
Sc23 O43 2.105 . S
Sc24 O25 2.025 . S
Sc24 O34 2.105 . S
Sc24 O36 2.105 . S
Sc24 O40 2.105 . S
Sc24 O42 2.105 . S
O25 Sc22 2.025 . S
O25 Sc23 2.025 . S
O25 Sc24 2.025 . S
C26 O32 1.268 . S
C26 O42 1.268 . S
C27 O33 1.268 . S
C27 O41 1.268 . S
C28 O34 1.268 . S
C28 O43 1.268 . S
C29 O35 1.268 . S
C29 O39 1.268 . S
C30 O36 1.268 . S
C30 O38 1.268 . S
C31 O37 1.268 . S
C31 O40 1.268 . S
O32 Sc22 2.105 . S
O32 C26 1.268 . S
O33 Sc23 2.105 . S
O33 C27 1.268 . S
O34 Sc24 2.105 . S
O34 C28 1.268 . S
O35 Sc22 2.105 . S
O35 C29 1.268 . S
O36 Sc24 2.105 . S
O36 C30 1.268 . S
O37 Sc23 2.105 . S
O37 C31 1.268 . S
O38 Sc22 2.105 . S
O38 C30 1.268 . S
O39 Sc23 2.105 . S
O39 C29 1.268 . S
O40 Sc24 2.105 . S
O40 C31 1.268 . S
O41 Sc22 2.105 . S
O41 C27 1.268 . S
O42 Sc24 2.105 . S
O42 C26 1.268 . S
O43 Sc23 2.105 . S
O43 C28 1.268 . S
Sc44 O47 2.025 . S
Sc44 O54 2.105 . S
Sc44 O57 2.105 . S
Sc44 O60 2.105 . S
Sc44 O63 2.105 1_554 S
Sc45 O47 2.025 1_556 S
Sc45 O55 2.105 . S
Sc45 O59 2.105 1_556 S
Sc45 O61 2.105 1_556 S
Sc45 O65 2.105 . S
Sc46 O47 2.025 . S
Sc46 O56 2.105 1_554 S
Sc46 O58 2.105 . S
Sc46 O62 2.105 . S
Sc46 O64 2.105 . S
O47 Sc44 2.025 . S
O47 Sc45 2.025 1_554 S
O47 Sc46 2.025 . S
C48 O54 1.268 1_556 S
C48 O64 1.268 1_556 S
C49 O55 1.268 . S
C49 O63 1.268 . S
C50 O56 1.268 . S
C50 O65 1.268 . S
C51 O57 1.268 . S
C51 O61 1.268 . S
C52 O58 1.268 . S
C52 O60 1.268 . S
C53 O59 1.268 . S
C53 O62 1.268 . S
O54 Sc44 2.105 . S
O54 C48 1.268 1_554 S
O55 Sc45 2.105 . S
O55 C49 1.268 . S
O56 Sc46 2.105 1_556 S
O56 C50 1.268 . S
O57 Sc44 2.105 . S
O57 C51 1.268 . S
O58 Sc46 2.105 . S
O58 C52 1.268 . S
O59 Sc45 2.105 1_554 S
O59 C53 1.268 . S
O60 Sc44 2.105 . S
O60 C52 1.268 . S
O61 Sc45 2.105 1_554 S
O61 C51 1.268 . S
O62 Sc46 2.105 . S
O62 C53 1.268 . S
O63 Sc44 2.105 1_556 S
O63 C49 1.268 . S
O64 Sc46 2.105 . S
O64 C48 1.268 1_554 S
O65 Sc45 2.105 . S
O65 C50 1.268 . S
Sc66 O69 2.025 . S
Sc66 O76 2.105 . S
Sc66 O79 2.105 . S
Sc66 O82 2.105 . S
Sc66 O85 2.105 . S
Sc67 O69 2.025 . S
Sc67 O77 2.105 . S
Sc67 O81 2.105 . S
Sc67 O83 2.105 . S
Sc67 O87 2.105 . S
Sc68 O69 2.025 . S
Sc68 O78 2.105 . S
Sc68 O80 2.105 . S
Sc68 O84 2.105 . S
Sc68 O86 2.105 . S
O69 Sc66 2.025 . S
O69 Sc67 2.025 . S
O69 Sc68 2.025 . S
C70 O76 1.268 . S
C70 O86 1.268 . S
C71 O77 1.268 . S
C71 O85 1.268 . S
C72 O78 1.268 . S
C72 O87 1.268 . S
C73 O79 1.268 . S
C73 O83 1.268 . S
C74 O80 1.268 . S
C74 O82 1.268 . S
C75 O81 1.268 . S
C75 O84 1.268 . S
O76 Sc66 2.105 . S
O76 C70 1.268 . S
O77 Sc67 2.105 . S
O77 C71 1.268 . S
O78 Sc68 2.105 . S
O78 C72 1.268 . S
O79 Sc66 2.105 . S
O79 C73 1.268 . S
O80 Sc68 2.105 . S
O80 C74 1.268 . S
O81 Sc67 2.105 . S
O81 C75 1.268 . S
O82 Sc66 2.105 . S
O82 C74 1.268 . S
O83 Sc67 2.105 . S
O83 C73 1.268 . S
O84 Sc68 2.105 . S
O84 C75 1.268 . S
O85 Sc66 2.105 . S
O85 C71 1.268 . S
O86 Sc68 2.105 . S
O86 C70 1.268 . S
O87 Sc67 2.105 . S
O87 C72 1.268 . S
C88 C89 1.264 . S
C88 C93 1.479 . S
C88 C98 1.465 1_655 S
C89 C88 1.264 . S
C89 C91 1.339 . S
C89 H116 0.931 . S
C90 C91 1.395 . S
C90 C92 1.320 . S
C91 C89 1.339 . S
C91 C90 1.395 . S
C91 H117 0.929 . S
C92 C90 1.320 . S
C92 C93 1.405 . S
C92 H118 0.930 . S
C93 C88 1.479 . S
C93 C92 1.405 . S
C93 H119 0.931 . S
U94 O95 2.454 . S
U94 O96 2.458 . S
U94 C97 2.984 . S
U94 C98 2.847 . S
U94 C111 2.882 . S
U94 O112 2.441 . S
U94 O113 2.420 . S
U94 O114 2.455 . S
U94 O115 2.449 . S
O95 U94 2.454 . S
O95 C97 1.353 . S
O96 U94 2.458 . S
O96 C97 1.286 . S
C97 U94 2.984 . S
C97 O95 1.353 . S
C97 O96 1.286 . S
C97 C99 1.363 . S
C98 C88 1.465 1_455 S
C98 U94 2.847 . S
C98 O112 1.249 . S
C98 O113 1.202 . S
C99 C97 1.363 . S
C99 C101 1.408 . S
C99 C104 1.342 . S
C100 C101 1.310 . S
C100 C103 1.461 . S
C100 H120 0.932 . S
C101 C99 1.408 . S
C101 C100 1.310 . S
C101 H121 0.930 . S
C102 C103 1.474 . S
C102 C104 1.285 . S
C102 H122 0.929 . S
C103 C100 1.461 . S
C103 C102 1.474 . S
C104 C99 1.342 . S
C104 C102 1.285 . S
C104 H123 0.930 . S
C105 C108 1.424 . S
C105 C110 1.245 . S
C105 C111 1.428 . S
C106 C109 1.260 . S
C106 C110 1.477 1_565 S
C106 H124 0.932 . S
C107 C108 1.384 1_565 S
C107 C109 1.479 . S
C107 H125 0.929 . S
C108 C105 1.424 . S
C108 C107 1.384 1_545 S
C108 H126 0.928 . S
C109 C106 1.260 . S
C109 C107 1.479 . S
C110 C105 1.245 . S
C110 C106 1.477 1_545 S
C110 H127 0.932 . S
C111 U94 2.882 . S
C111 C105 1.428 . S
C111 O114 1.301 . S
C111 O115 1.282 . S
O112 U94 2.441 . S
O112 C98 1.249 . S
O113 U94 2.420 . S
O113 C98 1.202 . S
O114 U94 2.455 . S
O114 C111 1.301 . S
O115 U94 2.449 . S
O115 C111 1.282 . S
H116 C89 0.931 . S
H117 C91 0.929 . S
H118 C92 0.930 . S
H119 C93 0.931 . S
H120 C100 0.932 . S
H121 C101 0.930 . S
H122 C102 0.929 . S
H123 C104 0.930 . S
H124 C106 0.932 . S
H125 C107 0.929 . S
H126 C108 0.928 . S
H127 C110 0.932 . S
C128 C129 1.264 . S
C128 C133 1.479 . S
C128 C138 1.465 . S
C129 C128 1.264 . S
C129 C131 1.339 . S
C129 H156 0.931 . S
C130 C131 1.395 . S
C130 C132 1.320 . S
C131 C129 1.339 . S
C131 C130 1.395 . S
C131 H157 0.929 . S
C132 C130 1.320 . S
C132 C133 1.405 . S
C132 H158 0.930 . S
C133 C128 1.479 . S
C133 C132 1.405 . S
C133 H159 0.931 . S
U134 O135 2.454 . S
U134 O136 2.458 . S
U134 C137 2.984 . S
U134 C138 2.847 . S
U134 C151 2.882 . S
U134 O152 2.441 . S
U134 O153 2.420 . S
U134 O154 2.455 . S
U134 O155 2.449 . S
O135 U134 2.454 . S
O135 C137 1.353 . S
O136 U134 2.458 . S
O136 C137 1.286 . S
C137 U134 2.984 . S
C137 O135 1.353 . S
C137 O136 1.286 . S
C137 C139 1.363 . S
C138 C128 1.465 . S
C138 U134 2.847 . S
C138 O152 1.249 . S
C138 O153 1.202 . S
C139 C137 1.363 . S
C139 C141 1.408 . S
C139 C144 1.342 . S
C140 C141 1.310 . S
C140 C143 1.461 . S
C140 H160 0.932 . S
C141 C139 1.408 . S
C141 C140 1.310 . S
C141 H161 0.930 . S
C142 C143 1.474 . S
C142 C144 1.285 . S
C142 H162 0.929 . S
C143 C140 1.461 . S
C143 C142 1.474 . S
C144 C139 1.342 . S
C144 C142 1.285 . S
C144 H163 0.930 . S
C145 C148 1.424 . S
C145 C150 1.245 . S
C145 C151 1.428 . S
C146 C149 1.260 . S
C146 C150 1.477 . S
C146 H164 0.932 . S
C147 C148 1.384 . S
C147 C149 1.479 . S
C147 H165 0.929 . S
C148 C145 1.424 . S
C148 C147 1.384 . S
C148 H166 0.928 . S
C149 C146 1.260 . S
C149 C147 1.479 . S
C150 C145 1.245 . S
C150 C146 1.477 . S
C150 H167 0.932 . S
C151 U134 2.882 . S
C151 C145 1.428 . S
C151 O154 1.301 . S
C151 O155 1.282 . S
O152 U134 2.441 . S
O152 C138 1.249 . S
O153 U134 2.420 . S
O153 C138 1.202 . S
O154 U134 2.455 . S
O154 C151 1.301 . S
O155 U134 2.449 . S
O155 C151 1.282 . S
H156 C129 0.931 . S
H157 C131 0.929 . S
H158 C132 0.930 . S
H159 C133 0.931 . S
H160 C140 0.932 . S
H161 C141 0.930 . S
H162 C142 0.929 . S
H163 C144 0.930 . S
H164 C146 0.932 . S
H165 C147 0.929 . S
H166 C148 0.928 . S
H167 C150 0.932 . S
C168 C169 1.264 . S
C168 C173 1.479 . S
C168 C178 1.465 . S
C169 C168 1.264 . S
C169 C171 1.339 . S
C169 H196 0.931 . S
C170 C171 1.395 . S
C170 C172 1.320 . S
C171 C169 1.339 . S
C171 C170 1.395 . S
C171 H197 0.929 . S
C172 C170 1.320 . S
C172 C173 1.405 . S
C172 H198 0.930 . S
C173 C168 1.479 . S
C173 C172 1.405 . S
C173 H199 0.931 . S
U174 O175 2.454 . S
U174 O176 2.458 . S
U174 C177 2.984 . S
U174 C178 2.847 . S
U174 C191 2.882 . S
U174 O192 2.441 . S
U174 O193 2.420 . S
U174 O194 2.455 . S
U174 O195 2.449 . S
O175 U174 2.454 . S
O175 C177 1.353 . S
O176 U174 2.458 . S
O176 C177 1.286 . S
C177 U174 2.984 . S
C177 O175 1.353 . S
C177 O176 1.286 . S
C177 C179 1.363 . S
C178 C168 1.465 . S
C178 U174 2.847 . S
C178 O192 1.249 . S
C178 O193 1.202 . S
C179 C177 1.363 . S
C179 C181 1.408 . S
C179 C184 1.342 . S
C180 C181 1.310 . S
C180 C183 1.461 . S
C180 H200 0.932 . S
C181 C179 1.408 . S
C181 C180 1.310 . S
C181 H201 0.930 . S
C182 C183 1.474 . S
C182 C184 1.285 . S
C182 H202 0.929 . S
C183 C180 1.461 . S
C183 C182 1.474 . S
C184 C179 1.342 . S
C184 C182 1.285 . S
C184 H203 0.930 . S
C185 C188 1.424 . S
C185 C190 1.245 . S
C185 C191 1.428 . S
C186 C189 1.260 . S
C186 C190 1.477 . S
C186 H204 0.932 . S
C187 C188 1.384 . S
C187 C189 1.479 . S
C187 H205 0.929 . S
C188 C185 1.424 . S
C188 C187 1.384 . S
C188 H206 0.928 . S
C189 C186 1.260 . S
C189 C187 1.479 . S
C190 C185 1.245 . S
C190 C186 1.477 . S
C190 H207 0.932 . S
C191 U174 2.882 . S
C191 C185 1.428 . S
C191 O194 1.301 . S
C191 O195 1.282 . S
O192 U174 2.441 . S
O192 C178 1.249 . S
O193 U174 2.420 . S
O193 C178 1.202 . S
O194 U174 2.455 . S
O194 C191 1.301 . S
O195 U174 2.449 . S
O195 C191 1.282 . S
H196 C169 0.931 . S
H197 C171 0.929 . S
H198 C172 0.930 . S
H199 C173 0.931 . S
H200 C180 0.932 . S
H201 C181 0.930 . S
H202 C182 0.929 . S
H203 C184 0.930 . S
H204 C186 0.932 . S
H205 C187 0.929 . S
H206 C188 0.928 . S
H207 C190 0.932 . S
C208 C209 1.264 . S
C208 C213 1.479 . S
C208 C218 1.465 . S
C209 C208 1.264 . S
C209 C211 1.339 . S
C209 H236 0.931 . S
C210 C211 1.395 . S
C210 C212 1.320 . S
C211 C209 1.339 . S
C211 C210 1.395 . S
C211 H237 0.929 . S
C212 C210 1.320 . S
C212 C213 1.405 . S
C212 H238 0.930 . S
C213 C208 1.479 . S
C213 C212 1.405 . S
C213 H239 0.931 . S
U214 O215 2.454 . S
U214 O216 2.458 . S
U214 C217 2.984 . S
U214 C218 2.847 . S
U214 C231 2.882 . S
U214 O232 2.441 . S
U214 O233 2.420 . S
U214 O234 2.455 . S
U214 O235 2.449 . S
O215 U214 2.454 . S
O215 C217 1.353 . S
O216 U214 2.458 . S
O216 C217 1.286 . S
C217 U214 2.984 . S
C217 O215 1.353 . S
C217 O216 1.286 . S
C217 C219 1.363 . S
C218 C208 1.465 . S
C218 U214 2.847 . S
C218 O232 1.249 . S
C218 O233 1.202 . S
C219 C217 1.363 . S
C219 C221 1.408 . S
C219 C224 1.342 . S
C220 C221 1.310 . S
C220 C223 1.461 . S
C220 H240 0.932 . S
C221 C219 1.408 . S
C221 C220 1.310 . S
C221 H241 0.930 . S
C222 C223 1.474 . S
C222 C224 1.285 . S
C222 H242 0.929 . S
C223 C220 1.461 . S
C223 C222 1.474 . S
C224 C219 1.342 . S
C224 C222 1.285 . S
C224 H243 0.930 . S
C225 C228 1.424 . S
C225 C230 1.245 . S
C225 C231 1.428 . S
C226 C229 1.260 . S
C226 C230 1.477 . S
C226 H244 0.932 . S
C227 C228 1.384 . S
C227 C229 1.479 . S
C227 H245 0.929 . S
C228 C225 1.424 . S
C228 C227 1.384 . S
C228 H246 0.928 . S
C229 C226 1.260 . S
C229 C227 1.479 . S
C230 C225 1.245 . S
C230 C226 1.477 . S
C230 H247 0.932 . S
C231 U214 2.882 . S
C231 C225 1.428 . S
C231 O234 1.301 . S
C231 O235 1.282 . S
O232 U214 2.441 . S
O232 C218 1.249 . S
O233 U214 2.420 . S
O233 C218 1.202 . S
O234 U214 2.455 . S
O234 C231 1.301 . S
O235 U214 2.449 . S
O235 C231 1.282 . S
H236 C209 0.931 . S
H237 C211 0.929 . S
H238 C212 0.930 . S
H239 C213 0.931 . S
H240 C220 0.932 . S
H241 C221 0.930 . S
H242 C222 0.929 . S
H243 C224 0.930 . S
H244 C226 0.932 . S
H245 C227 0.929 . S
H246 C228 0.928 . S
H247 C230 0.932 . S
C248 C249 1.264 . S
C248 C253 1.479 . S
C248 C258 1.465 . S
C249 C248 1.264 . S
C249 C251 1.339 . S
C249 H276 0.931 . S
C250 C251 1.395 . S
C250 C252 1.320 . S
C251 C249 1.339 . S
C251 C250 1.395 . S
C251 H277 0.929 . S
C252 C250 1.320 . S
C252 C253 1.405 . S
C252 H278 0.930 . S
C253 C248 1.479 . S
C253 C252 1.405 . S
C253 H279 0.931 . S
U254 O255 2.454 . S
U254 O256 2.458 . S
U254 C257 2.984 . S
U254 C258 2.847 . S
U254 C271 2.882 . S
U254 O272 2.441 . S
U254 O273 2.420 . S
U254 O274 2.455 . S
U254 O275 2.449 . S
O255 U254 2.454 . S
O255 C257 1.353 . S
O256 U254 2.458 . S
O256 C257 1.286 . S
C257 U254 2.984 . S
C257 O255 1.353 . S
C257 O256 1.286 . S
C257 C259 1.363 . S
C258 C248 1.465 . S
C258 U254 2.847 . S
C258 O272 1.249 . S
C258 O273 1.202 . S
C259 C257 1.363 . S
C259 C261 1.408 . S
C259 C264 1.342 . S
C260 C261 1.310 . S
C260 C263 1.461 . S
C260 H280 0.932 . S
C261 C259 1.408 . S
C261 C260 1.310 . S
C261 H281 0.930 . S
C262 C263 1.474 . S
C262 C264 1.285 . S
C262 H282 0.929 . S
C263 C260 1.461 . S
C263 C262 1.474 . S
C264 C259 1.342 . S
C264 C262 1.285 . S
C264 H283 0.930 . S
C265 C268 1.424 . S
C265 C270 1.245 . S
C265 C271 1.428 . S
C266 C269 1.260 . S
C266 C270 1.477 . S
C266 H284 0.932 . S
C267 C268 1.384 . S
C267 C269 1.479 . S
C267 H285 0.929 . S
C268 C265 1.424 . S
C268 C267 1.384 . S
C268 H286 0.928 . S
C269 C266 1.260 . S
C269 C267 1.479 . S
C270 C265 1.245 . S
C270 C266 1.477 . S
C270 H287 0.932 . S
C271 U254 2.882 . S
C271 C265 1.428 . S
C271 O274 1.301 . S
C271 O275 1.282 . S
O272 U254 2.441 . S
O272 C258 1.249 . S
O273 U254 2.420 . S
O273 C258 1.202 . S
O274 U254 2.455 . S
O274 C271 1.301 . S
O275 U254 2.449 . S
O275 C271 1.282 . S
H276 C249 0.931 . S
H277 C251 0.929 . S
H278 C252 0.930 . S
H279 C253 0.931 . S
H280 C260 0.932 . S
H281 C261 0.930 . S
H282 C262 0.929 . S
H283 C264 0.930 . S
H284 C266 0.932 . S
H285 C267 0.929 . S
H286 C268 0.928 . S
H287 C270 0.932 . S
C288 C289 1.264 . S
C288 C293 1.479 . S
C288 C298 1.465 . S
C289 C288 1.264 . S
C289 C291 1.339 . S
C289 H316 0.931 . S
C290 C291 1.395 . S
C290 C292 1.320 . S
C291 C289 1.339 . S
C291 C290 1.395 . S
C291 H317 0.929 . S
C292 C290 1.320 . S
C292 C293 1.405 . S
C292 H318 0.930 . S
C293 C288 1.479 . S
C293 C292 1.405 . S
C293 H319 0.931 . S
U294 O295 2.454 . S
U294 O296 2.458 . S
U294 C297 2.984 . S
U294 C298 2.847 . S
U294 C311 2.882 . S
U294 O312 2.441 . S
U294 O313 2.420 . S
U294 O314 2.455 . S
U294 O315 2.449 . S
O295 U294 2.454 . S
O295 C297 1.353 . S
O296 U294 2.458 . S
O296 C297 1.286 . S
C297 U294 2.984 . S
C297 O295 1.353 . S
C297 O296 1.286 . S
C297 C299 1.363 . S
C298 C288 1.465 . S
C298 U294 2.847 . S
C298 O312 1.249 . S
C298 O313 1.202 . S
C299 C297 1.363 . S
C299 C301 1.408 . S
C299 C304 1.342 . S
C300 C301 1.310 . S
C300 C303 1.461 . S
C300 H320 0.932 . S
C301 C299 1.408 . S
C301 C300 1.310 . S
C301 H321 0.930 . S
C302 C303 1.474 . S
C302 C304 1.285 . S
C302 H322 0.929 . S
C303 C300 1.461 . S
C303 C302 1.474 . S
C304 C299 1.342 . S
C304 C302 1.285 . S
C304 H323 0.930 . S
C305 C308 1.424 . S
C305 C310 1.245 . S
C305 C311 1.428 . S
C306 C309 1.260 . S
C306 C310 1.477 . S
C306 H324 0.932 . S
C307 C308 1.384 . S
C307 C309 1.479 . S
C307 H325 0.929 . S
C308 C305 1.424 . S
C308 C307 1.384 . S
C308 H326 0.928 . S
C309 C306 1.260 . S
C309 C307 1.479 . S
C310 C305 1.245 . S
C310 C306 1.477 . S
C310 H327 0.932 . S
C311 U294 2.882 . S
C311 C305 1.428 . S
C311 O314 1.301 . S
C311 O315 1.282 . S
O312 U294 2.441 . S
O312 C298 1.249 . S
O313 U294 2.420 . S
O313 C298 1.202 . S
O314 U294 2.455 . S
O314 C311 1.301 . S
O315 U294 2.449 . S
O315 C311 1.282 . S
H316 C289 0.931 . S
H317 C291 0.929 . S
H318 C292 0.930 . S
H319 C293 0.931 . S
H320 C300 0.932 . S
H321 C301 0.930 . S
H322 C302 0.929 . S
H323 C304 0.930 . S
H324 C306 0.932 . S
H325 C307 0.929 . S
H326 C308 0.928 . S
H327 C310 0.932 . S
C328 C329 1.264 . S
C328 C333 1.479 . S
C328 C338 1.465 . S
C329 C328 1.264 . S
C329 C331 1.339 . S
C329 H356 0.931 . S
C330 C331 1.395 . S
C330 C332 1.320 . S
C331 C329 1.339 . S
C331 C330 1.395 . S
C331 H357 0.929 . S
C332 C330 1.320 . S
C332 C333 1.405 . S
C332 H358 0.930 . S
C333 C328 1.479 . S
C333 C332 1.405 . S
C333 H359 0.931 . S
U334 O335 2.454 . S
U334 O336 2.458 . S
U334 C337 2.984 . S
U334 C338 2.847 . S
U334 C351 2.882 . S
U334 O352 2.441 . S
U334 O353 2.420 . S
U334 O354 2.455 . S
U334 O355 2.449 . S
O335 U334 2.454 . S
O335 C337 1.353 . S
O336 U334 2.458 . S
O336 C337 1.286 . S
C337 U334 2.984 . S
C337 O335 1.353 . S
C337 O336 1.286 . S
C337 C339 1.363 . S
C338 C328 1.465 . S
C338 U334 2.847 . S
C338 O352 1.249 . S
C338 O353 1.202 . S
C339 C337 1.363 . S
C339 C341 1.408 . S
C339 C344 1.342 . S
C340 C341 1.310 . S
C340 C343 1.461 . S
C340 H360 0.932 . S
C341 C339 1.408 . S
C341 C340 1.310 . S
C341 H361 0.930 . S
C342 C343 1.474 . S
C342 C344 1.285 . S
C342 H362 0.929 . S
C343 C340 1.461 . S
C343 C342 1.474 . S
C344 C339 1.342 . S
C344 C342 1.285 . S
C344 H363 0.930 . S
C345 C348 1.424 . S
C345 C350 1.245 . S
C345 C351 1.428 . S
C346 C349 1.260 . S
C346 C350 1.477 . S
C346 H364 0.932 . S
C347 C348 1.384 . S
C347 C349 1.479 . S
C347 H365 0.929 . S
C348 C345 1.424 . S
C348 C347 1.384 . S
C348 H366 0.928 . S
C349 C346 1.260 . S
C349 C347 1.479 . S
C350 C345 1.245 . S
C350 C346 1.477 . S
C350 H367 0.932 . S
C351 U334 2.882 . S
C351 C345 1.428 . S
C351 O354 1.301 . S
C351 O355 1.282 . S
O352 U334 2.441 . S
O352 C338 1.249 . S
O353 U334 2.420 . S
O353 C338 1.202 . S
O354 U334 2.455 . S
O354 C351 1.301 . S
O355 U334 2.449 . S
O355 C351 1.282 . S
H356 C329 0.931 . S
H357 C331 0.929 . S
H358 C332 0.930 . S
H359 C333 0.931 . S
H360 C340 0.932 . S
H361 C341 0.930 . S
H362 C342 0.929 . S
H363 C344 0.930 . S
H364 C346 0.932 . S
H365 C347 0.929 . S
H366 C348 0.928 . S
H367 C350 0.932 . S
C368 C369 1.264 . S
C368 C373 1.479 . S
C368 C378 1.465 . S
C369 C368 1.264 . S
C369 C371 1.339 1_565 S
C369 H396 0.931 . S
C370 C371 1.395 . S
C370 C372 1.320 . S
C371 C369 1.339 1_545 S
C371 C370 1.395 . S
C371 H397 0.929 . S
C372 C370 1.320 . S
C372 C373 1.405 1_545 S
C372 H398 0.930 . S
C373 C368 1.479 . S
C373 C372 1.405 1_565 S
C373 H399 0.931 . S
U374 O375 2.454 . S
U374 O376 2.458 . S
U374 C377 2.984 . S
U374 C378 2.847 . S
U374 C391 2.882 . S
U374 O392 2.441 . S
U374 O393 2.420 . S
U374 O394 2.455 . S
U374 O395 2.449 . S
O375 U374 2.454 . S
O375 C377 1.353 . S
O376 U374 2.458 . S
O376 C377 1.286 . S
C377 U374 2.984 . S
C377 O375 1.353 . S
C377 O376 1.286 . S
C377 C379 1.363 . S
C378 C368 1.465 . S
C378 U374 2.847 . S
C378 O392 1.249 . S
C378 O393 1.202 . S
C379 C377 1.363 . S
C379 C381 1.408 . S
C379 C384 1.342 . S
C380 C381 1.310 . S
C380 C383 1.461 . S
C380 H400 0.932 . S
C381 C379 1.408 . S
C381 C380 1.310 . S
C381 H401 0.930 . S
C382 C383 1.474 . S
C382 C384 1.285 . S
C382 H402 0.929 . S
C383 C380 1.461 . S
C383 C382 1.474 . S
C384 C379 1.342 . S
C384 C382 1.285 . S
C384 H403 0.930 . S
C385 C388 1.424 . S
C385 C390 1.245 . S
C385 C391 1.428 1_455 S
C386 C389 1.260 . S
C386 C390 1.477 . S
C386 H404 0.932 . S
C387 C388 1.384 . S
C387 C389 1.479 . S
C387 H405 0.929 . S
C388 C385 1.424 . S
C388 C387 1.384 . S
C388 H406 0.928 . S
C389 C386 1.260 . S
C389 C387 1.479 . S
C390 C385 1.245 . S
C390 C386 1.477 . S
C390 H407 0.932 . S
C391 U374 2.882 . S
C391 C385 1.428 1_655 S
C391 O394 1.301 . S
C391 O395 1.282 . S
O392 U374 2.441 . S
O392 C378 1.249 . S
O393 U374 2.420 . S
O393 C378 1.202 . S
O394 U374 2.455 . S
O394 C391 1.301 . S
O395 U374 2.449 . S
O395 C391 1.282 . S
H396 C369 0.931 . S
H397 C371 0.929 . S
H398 C372 0.930 . S
H399 C373 0.931 . S
H400 C380 0.932 . S
H401 C381 0.930 . S
H402 C382 0.929 . S
H403 C384 0.930 . S
H404 C386 0.932 . S
H405 C387 0.929 . S
H406 C388 0.928 . S
H407 C390 0.932 . S
H408 C414 0.930 . S
H409 C417 0.930 . S
H410 C418 0.930 . S
H411 C419 0.930 . S
H412 C422 0.930 . S
H413 C423 0.930 . S
C414 H408 0.930 . S
C414 C415 1.355 . S
C414 C416 1.415 . S
C415 C414 1.355 . S
C415 C417 1.419 . S
C416 C414 1.415 . S
C416 C421 1.425 . S
C416 C423 1.409 . S
C417 H409 0.930 . S
C417 C415 1.419 . S
C417 C418 1.362 . S
C418 H410 0.930 . S
C418 C417 1.362 . S
C418 C421 1.409 . S
C419 H411 0.930 . S
C419 C420 1.355 . S
C419 C421 1.415 . S
C420 C419 1.355 . S
C420 C422 1.419 . S
C421 C416 1.425 . S
C421 C418 1.409 . S
C421 C419 1.415 . S
C422 H412 0.930 . S
C422 C420 1.419 . S
C422 C423 1.362 . S
C423 H413 0.930 . S
C423 C416 1.409 . S
C423 C422 1.362 . S
H424 C430 0.930 . S
H425 C433 0.930 . S
H426 C434 0.930 . S
H427 C435 0.930 . S
H428 C438 0.930 . S
H429 C439 0.930 . S
C430 H424 0.930 . S
C430 C431 1.355 . S
C430 C432 1.415 . S
C431 C430 1.355 . S
C431 C433 1.419 . S
C432 C430 1.415 . S
C432 C437 1.425 . S
C432 C439 1.409 . S
C433 H425 0.930 . S
C433 C431 1.419 . S
C433 C434 1.362 . S
C434 H426 0.930 . S
C434 C433 1.362 . S
C434 C437 1.409 . S
C435 H427 0.930 . S
C435 C436 1.355 . S
C435 C437 1.415 . S
C436 C435 1.355 . S
C436 C438 1.419 . S
C437 C432 1.425 . S
C437 C434 1.409 . S
C437 C435 1.415 . S
C438 H428 0.930 . S
C438 C436 1.419 . S
C438 C439 1.362 . S
C439 H429 0.930 . S
C439 C432 1.409 . S
C439 C438 1.362 . S
H440 C446 0.930 . S
H441 C449 0.930 . S
H442 C450 0.930 . S
H443 C451 0.930 . S
H444 C454 0.930 . S
H445 C455 0.930 . S
C446 H440 0.930 . S
C446 C447 1.355 . S
C446 C448 1.415 . S
C447 C446 1.355 . S
C447 C449 1.419 . S
C448 C446 1.415 . S
C448 C453 1.425 . S
C448 C455 1.409 . S
C449 H441 0.930 . S
C449 C447 1.419 . S
C449 C450 1.362 . S
C450 H442 0.930 . S
C450 C449 1.362 . S
C450 C453 1.409 . S
C451 H443 0.930 . S
C451 C452 1.355 . S
C451 C453 1.415 . S
C452 C451 1.355 . S
C452 C454 1.419 1_545 S
C453 C448 1.425 . S
C453 C450 1.409 . S
C453 C451 1.415 . S
C454 H444 0.930 . S
C454 C452 1.419 1_565 S
C454 C455 1.362 1_565 S
C455 H445 0.930 . S
C455 C448 1.409 . S
C455 C454 1.362 1_545 S
H456 C462 0.930 . S
H457 C465 0.930 . S
H458 C466 0.930 . S
H459 C467 0.930 . S
H460 C470 0.930 . S
H461 C471 0.930 . S
C462 H456 0.930 . S
C462 C463 1.355 . S
C462 C464 1.415 . S
C463 C462 1.355 . S
C463 C465 1.419 . S
C464 C462 1.415 . S
C464 C469 1.425 . S
C464 C471 1.409 . S
C465 H457 0.930 . S
C465 C463 1.419 . S
C465 C466 1.362 . S
C466 H458 0.930 . S
C466 C465 1.362 . S
C466 C469 1.409 . S
C467 H459 0.930 . S
C467 C468 1.355 . S
C467 C469 1.415 . S
C468 C467 1.355 . S
C468 C470 1.419 . S
C469 C464 1.425 . S
C469 C466 1.409 . S
C469 C467 1.415 . S
C470 H460 0.930 . S
C470 C468 1.419 . S
C470 C471 1.362 . S
C471 H461 0.930 . S
C471 C464 1.409 . S
C471 C470 1.362 . S
H472 C478 0.930 . S
H473 C481 0.930 . S
H474 C482 0.930 . S
H475 C483 0.930 . S
H476 C486 0.930 . S
H477 C487 0.930 . S
C478 H472 0.930 . S
C478 C479 1.355 . S
C478 C480 1.415 . S
C479 C478 1.355 . S
C479 C481 1.419 . S
C480 C478 1.415 . S
C480 C485 1.425 . S
C480 C487 1.409 . S
C481 H473 0.930 . S
C481 C479 1.419 . S
C481 C482 1.362 . S
C482 H474 0.930 . S
C482 C481 1.362 . S
C482 C485 1.409 . S
C483 H475 0.930 . S
C483 C484 1.355 . S
C483 C485 1.415 . S
C484 C483 1.355 . S
C484 C486 1.419 . S
C485 C480 1.425 . S
C485 C482 1.409 . S
C485 C483 1.415 . S
C486 H476 0.930 . S
C486 C484 1.419 . S
C486 C487 1.362 . S
C487 H477 0.930 . S
C487 C480 1.409 . S
C487 C486 1.362 . S
H488 C494 0.930 . S
H489 C497 0.915 1_554 S
H490 C498 0.930 1_554 S
H491 C499 0.930 . S
H492 C502 0.930 . S
H493 C503 0.930 . S
C494 H488 0.930 . S
C494 C495 1.355 . S
C494 C496 1.430 . S
C495 C494 1.355 . S
C495 C497 1.433 . S
C496 C494 1.430 . S
C496 C501 1.417 1_655 S
C496 C503 1.402 1_655 S
C497 H489 0.915 1_556 S
C497 C495 1.433 . S
C497 C498 1.363 1_655 S
C498 H490 0.930 1_556 S
C498 C497 1.363 1_455 S
C498 C501 1.409 . S
C499 H491 0.930 . S
C499 C500 1.355 . S
C499 C501 1.415 . S
C500 C499 1.355 . S
C500 C502 1.419 . S
C501 C496 1.417 1_455 S
C501 C498 1.409 . S
C501 C499 1.415 . S
C502 H492 0.930 . S
C502 C500 1.419 . S
C502 C503 1.362 . S
C503 H493 0.930 . S
C503 C496 1.402 1_455 S
C503 C502 1.362 . S
H504 C510 0.930 . S
H505 C513 0.930 . S
H506 C514 0.930 . S
H507 C515 0.930 . S
H508 C518 0.930 . S
H509 C519 0.930 . S
C510 H504 0.930 . S
C510 C511 1.355 . S
C510 C512 1.415 . S
C511 C510 1.355 . S
C511 C513 1.419 . S
C512 C510 1.415 . S
C512 C517 1.425 . S
C512 C519 1.409 . S
C513 H505 0.930 . S
C513 C511 1.419 . S
C513 C514 1.362 . S
C514 H506 0.930 . S
C514 C513 1.362 . S
C514 C517 1.409 . S
C515 H507 0.930 . S
C515 C516 1.355 . S
C515 C517 1.415 . S
C516 C515 1.355 . S
C516 C518 1.419 . S
C517 C512 1.425 . S
C517 C514 1.409 . S
C517 C515 1.415 . S
C518 H508 0.930 . S
C518 C516 1.419 . S
C518 C519 1.362 . S
C519 H509 0.930 . S
C519 C512 1.409 . S
C519 C518 1.362 . S
H520 C526 0.930 . S
H521 C529 0.930 . S
H522 C530 0.930 . S
H523 C531 0.930 . S
H524 C534 0.930 . S
H525 C535 0.930 . S
C526 H520 0.930 . S
C526 C527 1.355 . S
C526 C528 1.415 . S
C527 C526 1.355 . S
C527 C529 1.419 . S
C528 C526 1.415 . S
C528 C533 1.425 . S
C528 C535 1.409 . S
C529 H521 0.930 . S
C529 C527 1.419 . S
C529 C530 1.362 . S
C530 H522 0.930 . S
C530 C529 1.362 . S
C530 C533 1.409 . S
C531 H523 0.930 . S
C531 C532 1.355 . S
C531 C533 1.415 . S
C532 C531 1.355 . S
C532 C534 1.419 . S
C533 C528 1.425 . S
C533 C530 1.409 . S
C533 C531 1.415 . S
C534 H524 0.930 . S
C534 C532 1.419 . S
C534 C535 1.362 . S
C535 H525 0.930 . S
C535 C528 1.409 . S
C535 C534 1.362 . S
H536 C542 0.930 . S
H537 C545 0.930 . S
H538 C546 0.930 . S
H539 C547 0.930 . S
H540 C550 0.930 . S
H541 C551 0.930 . S
C542 H536 0.930 . S
C542 C543 1.355 . S
C542 C544 1.415 . S
C543 C542 1.355 . S
C543 C545 1.419 . S
C544 C542 1.415 . S
C544 C549 1.425 . S
C544 C551 1.409 . S
C545 H537 0.930 . S
C545 C543 1.419 . S
C545 C546 1.362 . S
C546 H538 0.930 . S
C546 C545 1.362 . S
C546 C549 1.409 . S
C547 H539 0.930 . S
C547 C548 1.355 . S
C547 C549 1.415 . S
C548 C547 1.355 . S
C548 C550 1.419 . S
C549 C544 1.425 . S
C549 C546 1.409 . S
C549 C547 1.415 . S
C550 H540 0.930 . S
C550 C548 1.419 . S
C550 C551 1.362 . S
C551 H541 0.930 . S
C551 C544 1.409 . S
C551 C550 1.362 . S
H552 C558 0.930 . S
H553 C561 0.930 . S
H554 C562 0.930 . S
H555 C563 0.930 . S
H556 C566 0.930 . S
H557 C567 0.930 . S
C558 H552 0.930 . S
C558 C559 1.355 . S
C558 C560 1.415 . S
C559 C558 1.355 . S
C559 C561 1.419 . S
C560 C558 1.415 . S
C560 C565 1.425 . S
C560 C567 1.409 . S
C561 H553 0.930 . S
C561 C559 1.419 . S
C561 C562 1.362 . S
C562 H554 0.930 . S
C562 C561 1.362 . S
C562 C565 1.409 . S
C563 H555 0.930 . S
C563 C564 1.355 . S
C563 C565 1.415 . S
C564 C563 1.355 . S
C564 C566 1.419 . S
C565 C560 1.425 . S
C565 C562 1.409 . S
C565 C563 1.415 . S
C566 H556 0.930 . S
C566 C564 1.419 . S
C566 C567 1.362 . S
C567 H557 0.930 . S
C567 C560 1.409 . S
C567 C566 1.362 . S
H568 C574 0.930 . S
H569 C577 0.930 . S
H570 C578 0.930 . S
H571 C579 0.930 1_545 S
H572 C582 0.930 . S
H573 C583 0.930 . S
C574 H568 0.930 . S
C574 C575 1.355 . S
C574 C576 1.415 1_554 S
C575 C574 1.355 . S
C575 C577 1.419 . S
C576 C574 1.415 1_556 S
C576 C581 1.425 . S
C576 C583 1.409 . S
C577 H569 0.930 . S
C577 C575 1.419 . S
C577 C578 1.362 1_554 S
C578 H570 0.930 . S
C578 C577 1.362 1_556 S
C578 C581 1.409 . S
C579 H571 0.930 1_565 S
C579 C580 1.355 . S
C579 C581 1.415 . S
C580 C579 1.355 . S
C580 C582 1.419 . S
C581 C576 1.425 . S
C581 C578 1.409 . S
C581 C579 1.415 . S
C582 H572 0.930 . S
C582 C580 1.419 . S
C582 C583 1.362 . S
C583 H573 0.930 . S
C583 C576 1.409 . S
C583 C582 1.362 . S
H584 C590 0.930 . S
H585 C593 0.930 . S
H586 C594 0.930 . S
H587 C595 0.930 . S
H588 C598 0.930 . S
H589 C599 0.930 . S
C590 H584 0.930 . S
C590 C591 1.355 . S
C590 C592 1.415 . S
C591 C590 1.355 . S
C591 C593 1.419 . S
C592 C590 1.415 . S
C592 C597 1.425 . S
C592 C599 1.409 . S
C593 H585 0.930 . S
C593 C591 1.419 . S
C593 C594 1.362 . S
C594 H586 0.930 . S
C594 C593 1.362 . S
C594 C597 1.409 . S
C595 H587 0.930 . S
C595 C596 1.355 . S
C595 C597 1.415 . S
C596 C595 1.355 . S
C596 C598 1.419 . S
C597 C592 1.425 . S
C597 C594 1.409 . S
C597 C595 1.415 . S
C598 H588 0.930 . S
C598 C596 1.419 . S
C598 C599 1.362 . S
C599 H589 0.930 . S
C599 C592 1.409 . S
C599 C598 1.362 . S
H600 C606 0.930 . S
H601 C609 0.930 . S
H602 C610 0.930 . S
H603 C611 0.930 . S
H604 C614 0.930 . S
H605 C615 0.930 . S
C606 H600 0.930 . S
C606 C607 1.355 . S
C606 C608 1.415 . S
C607 C606 1.355 . S
C607 C609 1.419 . S
C608 C606 1.415 . S
C608 C613 1.425 . S
C608 C615 1.409 . S
C609 H601 0.930 . S
C609 C607 1.419 . S
C609 C610 1.362 . S
C610 H602 0.930 . S
C610 C609 1.362 . S
C610 C613 1.409 . S
C611 H603 0.930 . S
C611 C612 1.355 . S
C611 C613 1.415 . S
C612 C611 1.355 . S
C612 C614 1.419 . S
C613 C608 1.425 . S
C613 C610 1.409 . S
C613 C611 1.415 . S
C614 H604 0.930 . S
C614 C612 1.419 . S
C614 C615 1.362 . S
C615 H605 0.930 . S
C615 C608 1.409 . S
C615 C614 1.362 . S
H616 C622 0.930 . S
H617 C625 0.930 . S
H618 C626 0.930 . S
H619 C627 0.930 . S
H620 C630 0.930 . S
H621 C631 0.930 . S
C622 H616 0.930 . S
C622 C623 1.355 . S
C622 C624 1.415 1_455 S
C623 C622 1.355 . S
C623 C625 1.419 . S
C624 C622 1.415 1_655 S
C624 C629 1.425 . S
C624 C631 1.409 . S
C625 H617 0.930 . S
C625 C623 1.419 . S
C625 C626 1.362 . S
C626 H618 0.930 . S
C626 C625 1.362 . S
C626 C629 1.409 1_455 S
C627 H619 0.930 . S
C627 C628 1.355 . S
C627 C629 1.415 . S
C628 C627 1.355 . S
C628 C630 1.419 . S
C629 C624 1.425 . S
C629 C626 1.409 1_655 S
C629 C627 1.415 . S
C630 H620 0.930 . S
C630 C628 1.419 . S
C630 C631 1.362 . S
C631 H621 0.930 . S
C631 C624 1.409 . S
C631 C630 1.362 . S
H632 C638 0.930 . S
H633 C641 0.930 . S
H634 C642 0.930 . S
H635 C643 0.930 . S
H636 C646 0.930 . S
H637 C647 0.930 . S
C638 H632 0.930 . S
C638 C639 1.355 . S
C638 C640 1.415 . S
C639 C638 1.355 . S
C639 C641 1.419 . S
C640 C638 1.415 . S
C640 C645 1.425 . S
C640 C647 1.409 . S
C641 H633 0.930 . S
C641 C639 1.419 . S
C641 C642 1.362 . S
C642 H634 0.930 . S
C642 C641 1.362 . S
C642 C645 1.409 . S
C643 H635 0.930 . S
C643 C644 1.355 . S
C643 C645 1.415 . S
C644 C643 1.355 . S
C644 C646 1.419 . S
C645 C640 1.425 . S
C645 C642 1.409 . S
C645 C643 1.415 . S
C646 H636 0.930 . S
C646 C644 1.419 . S
C646 C647 1.362 . S
C647 H637 0.930 . S
C647 C640 1.409 . S
C647 C646 1.362 . S
H648 C654 0.930 . S
H649 C657 0.930 . S
H650 C658 0.930 . S
H651 C659 0.930 . S
H652 C662 0.930 . S
H653 C663 0.930 . S
C654 H648 0.930 . S
C654 C655 1.355 . S
C654 C656 1.415 . S
C655 C654 1.355 . S
C655 C657 1.419 . S
C656 C654 1.415 . S
C656 C661 1.425 . S
C656 C663 1.409 . S
C657 H649 0.930 . S
C657 C655 1.419 . S
C657 C658 1.362 . S
C658 H650 0.930 . S
C658 C657 1.362 . S
C658 C661 1.409 . S
C659 H651 0.930 . S
C659 C660 1.355 . S
C659 C661 1.415 . S
C660 C659 1.355 . S
C660 C662 1.419 . S
C661 C656 1.425 . S
C661 C658 1.409 . S
C661 C659 1.415 . S
C662 H652 0.930 . S
C662 C660 1.419 . S
C662 C663 1.362 . S
C663 H653 0.930 . S
C663 C656 1.409 . S
C663 C662 1.362 . S
H664 C670 0.930 . S
H665 C673 0.930 . S
H666 C674 0.930 . S
H667 C675 0.930 . S
H668 C678 0.930 . S
H669 C679 0.930 . S
C670 H664 0.930 . S
C670 C671 1.355 . S
C670 C672 1.415 . S
C671 C670 1.355 . S
C671 C673 1.419 . S
C672 C670 1.415 . S
C672 C677 1.425 . S
C672 C679 1.409 . S
C673 H665 0.930 . S
C673 C671 1.419 . S
C673 C674 1.362 . S
C674 H666 0.930 . S
C674 C673 1.362 . S
C674 C677 1.409 . S
C675 H667 0.930 . S
C675 C676 1.355 . S
C675 C677 1.415 . S
C676 C675 1.355 . S
C676 C678 1.419 . S
C677 C672 1.425 . S
C677 C674 1.409 . S
C677 C675 1.415 . S
C678 H668 0.930 . S
C678 C676 1.419 . S
C678 C679 1.362 . S
C679 H669 0.930 . S
C679 C672 1.409 . S
C679 C678 1.362 . S
H680 C686 0.930 . S
H681 C689 0.930 . S
H682 C690 0.930 . S
H683 C691 0.930 . S
H684 C694 0.930 . S
H685 C695 0.930 . S
C686 H680 0.930 . S
C686 C687 1.355 . S
C686 C688 1.415 . S
C687 C686 1.355 . S
C687 C689 1.419 . S
C688 C686 1.415 . S
C688 C693 1.425 . S
C688 C695 1.409 . S
C689 H681 0.930 . S
C689 C687 1.419 . S
C689 C690 1.362 . S
C690 H682 0.930 . S
C690 C689 1.362 . S
C690 C693 1.409 . S
C691 H683 0.930 . S
C691 C692 1.355 . S
C691 C693 1.415 . S
C692 C691 1.355 . S
C692 C694 1.419 . S
C693 C688 1.425 . S
C693 C690 1.409 . S
C693 C691 1.415 . S
C694 H684 0.930 . S
C694 C692 1.419 . S
C694 C695 1.362 . S
C695 H685 0.930 . S
C695 C688 1.409 . S
C695 C694 1.362 . S
H696 C702 0.930 . S
H697 C705 0.930 . S
H698 C706 0.930 . S
H699 C707 0.930 . S
H700 C710 0.930 . S
H701 C711 0.930 . S
C702 H696 0.930 . S
C702 C703 1.355 . S
C702 C704 1.415 . S
C703 C702 1.355 . S
C703 C705 1.419 . S
C704 C702 1.415 . S
C704 C709 1.425 . S
C704 C711 1.409 . S
C705 H697 0.930 . S
C705 C703 1.419 . S
C705 C706 1.362 . S
C706 H698 0.930 . S
C706 C705 1.362 . S
C706 C709 1.409 . S
C707 H699 0.930 . S
C707 C708 1.355 . S
C707 C709 1.415 . S
C708 C707 1.355 . S
C708 C710 1.419 . S
C709 C704 1.425 . S
C709 C706 1.409 . S
C709 C707 1.415 . S
C710 H700 0.930 . S
C710 C708 1.419 . S
C710 C711 1.362 . S
C711 H701 0.930 . S
C711 C704 1.409 . S
C711 C710 1.362 . S
H712 C718 0.930 . S
H713 C721 0.930 . S
H714 C722 0.930 . S
H715 C723 0.930 . S
H716 C726 0.930 . S
H717 C727 0.930 . S
C718 H712 0.930 . S
C718 C719 1.355 . S
C718 C720 1.415 . S
C719 C718 1.355 . S
C719 C721 1.419 . S
C720 C718 1.415 . S
C720 C725 1.425 . S
C720 C727 1.409 . S
C721 H713 0.930 . S
C721 C719 1.419 . S
C721 C722 1.362 . S
C722 H714 0.930 . S
C722 C721 1.362 . S
C722 C725 1.409 . S
C723 H715 0.930 . S
C723 C724 1.355 . S
C723 C725 1.415 . S
C724 C723 1.355 . S
C724 C726 1.419 . S
C725 C720 1.425 . S
C725 C722 1.409 . S
C725 C723 1.415 . S
C726 H716 0.930 . S
C726 C724 1.419 . S
C726 C727 1.362 . S
C727 H717 0.930 . S
C727 C720 1.409 . S
C727 C726 1.362 . S
H728 C734 0.930 . S
H729 C737 0.930 . S
H730 C738 0.930 . S
H731 C739 0.930 . S
H732 C742 0.930 . S
H733 C743 0.930 . S
C734 H728 0.930 . S
C734 C735 1.355 . S
C734 C736 1.415 . S
C735 C734 1.355 . S
C735 C737 1.419 . S
C736 C734 1.415 . S
C736 C741 1.425 . S
C736 C743 1.409 . S
C737 H729 0.930 . S
C737 C735 1.419 . S
C737 C738 1.362 . S
C738 H730 0.930 . S
C738 C737 1.362 . S
C738 C741 1.409 . S
C739 H731 0.930 . S
C739 C740 1.355 . S
C739 C741 1.415 . S
C740 C739 1.355 . S
C740 C742 1.419 . S
C741 C736 1.425 . S
C741 C738 1.409 . S
C741 C739 1.415 . S
C742 H732 0.930 . S
C742 C740 1.419 . S
C742 C743 1.362 . S
C743 H733 0.930 . S
C743 C736 1.409 . S
C743 C742 1.362 . S
H744 C750 0.930 . S
H745 C753 0.930 . S
H746 C754 0.930 . S
H747 C755 0.930 . S
H748 C758 0.930 . S
H749 C759 0.930 . S
C750 H744 0.930 . S
C750 C751 1.355 . S
C750 C752 1.415 . S
C751 C750 1.355 . S
C751 C753 1.419 . S
C752 C750 1.415 . S
C752 C757 1.425 . S
C752 C759 1.409 . S
C753 H745 0.930 . S
C753 C751 1.419 . S
C753 C754 1.362 . S
C754 H746 0.930 . S
C754 C753 1.362 . S
C754 C757 1.409 . S
C755 H747 0.930 . S
C755 C756 1.355 . S
C755 C757 1.415 . S
C756 C755 1.355 . S
C756 C758 1.419 . S
C757 C752 1.425 . S
C757 C754 1.409 . S
C757 C755 1.415 . S
C758 H748 0.930 . S
C758 C756 1.419 . S
C758 C759 1.362 . S
C759 H749 0.930 . S
C759 C752 1.409 . S
C759 C758 1.362 . S
H760 C766 0.930 . S
H761 C769 0.930 . S
H762 C770 0.930 . S
H763 C771 0.930 . S
H764 C774 0.930 . S
H765 C775 0.930 . S
C766 H760 0.930 . S
C766 C767 1.355 . S
C766 C768 1.415 . S
C767 C766 1.355 . S
C767 C769 1.419 . S
C768 C766 1.415 . S
C768 C773 1.425 . S
C768 C775 1.409 . S
C769 H761 0.930 . S
C769 C767 1.419 . S
C769 C770 1.362 . S
C770 H762 0.930 . S
C770 C769 1.362 . S
C770 C773 1.409 . S
C771 H763 0.930 . S
C771 C772 1.355 . S
C771 C773 1.415 . S
C772 C771 1.355 . S
C772 C774 1.419 . S
C773 C768 1.425 . S
C773 C770 1.409 . S
C773 C771 1.415 . S
C774 H764 0.930 . S
C774 C772 1.419 . S
C774 C775 1.362 . S
C775 H765 0.930 . S
C775 C768 1.409 . S
C775 C774 1.362 . S
H776 C782 0.930 . S
H777 C785 0.930 . S
H778 C786 0.930 . S
H779 C787 0.930 1_554 S
H780 C790 0.930 . S
H781 C791 0.930 . S
C782 H776 0.930 . S
C782 C783 1.355 1_556 S
C782 C784 1.415 . S
C783 C782 1.355 1_554 S
C783 C785 1.419 . S
C784 C782 1.415 . S
C784 C789 1.425 1_556 S
C784 C791 1.409 . S
C785 H777 0.930 . S
C785 C783 1.419 . S
C785 C786 1.362 . S
C786 H778 0.930 . S
C786 C785 1.362 . S
C786 C789 1.409 . S
C787 H779 0.930 1_556 S
C787 C788 1.355 . S
C787 C789 1.415 1_556 S
C788 C787 1.355 . S
C788 C790 1.419 . S
C789 C784 1.425 1_554 S
C789 C786 1.409 . S
C789 C787 1.415 1_554 S
C790 H780 0.930 . S
C790 C788 1.419 . S
C790 C791 1.362 . S
C791 H781 0.930 . S
C791 C784 1.409 . S
C791 C790 1.362 . S
C415 C8 1.805 . S
C420 C109 1.586 . S
C431 C31 1.808 . S
C436 C149 1.582 . S
C447 C53 2.027 . S
C452 C170 1.813 1_545 S
C468 C229 1.522 . S
C463 C74 1.563 . S
C484 C269 1.596 . S
C479 C26 1.783 . S
C495 C48 1.525 . S
C500 C290 1.497 . S
C511 C71 2.038 . S
C516 C330 1.864 . S
C527 C5 1.817 . S
C532 C389 1.502 . S
C543 C50 1.749 . S
C548 C370 1.608 . S
C564 C250 1.472 . S
C559 C70 1.736 . S
C580 C309 1.856 1_565 S
C575 C4 2.067 . S
C591 C28 1.515 . S
C596 C349 1.407 . S
C612 C130 1.531 . S
C607 C73 1.728 . S
C623 C7 1.597 . S
C628 C189 1.457 . S
C644 C210 1.917 . S
C639 C30 2.041 . S
C660 C90 1.497 . S
C655 C52 1.754 . S
C676 C343 1.562 . S
C671 C9 1.694 . S
C692 C383 1.436 . S
C687 C29 1.475 . S
C703 C51 1.473 . S
C708 C263 1.444 . S
C724 C303 1.629 . S
C719 C75 1.740 . S
C740 C183 1.581 . S
C735 C27 1.701 . S
C751 C49 1.693 . S
C756 C223 1.622 . S
C772 C103 1.463 . S
C767 C72 1.472 . S
C788 C143 1.429 . S
C783 C6 1.462 . S
