# Generated by pormake.
# Topology pyr, (3,6)-cn, num edge types: 1
# Building blocks:
#     Node 0, Type 0, BuildingBlock: OLANEW_clean_sbu_2, # of connection points: 3
#     Node 1, Type 0, BuildingBlock: OLANEW_clean_sbu_2, # of connection points: 3
#     Node 2, Type 0, BuildingBlock: OLANEW_clean_sbu_2, # of connection points: 3
#     Node 3, Type 0, BuildingBlock: OLANEW_clean_sbu_2, # of connection points: 3
#     Node 4, Type 0, BuildingBlock: OLANEW_clean_sbu_2, # of connection points: 3
#     Node 5, Type 0, BuildingBlock: OLANEW_clean_sbu_2, # of connection points: 3
#     Node 6, Type 0, BuildingBlock: OLANEW_clean_sbu_2, # of connection points: 3
#     Node 7, Type 0, BuildingBlock: OLANEW_clean_sbu_2, # of connection points: 3
#     Node 8, Type 1, BuildingBlock: BETDAH_clean_sbu_0, # of connection points: 6
#     Node 9, Type 1, BuildingBlock: BETDAH_clean_sbu_0, # of connection points: 6
#     Node 10, Type 1, BuildingBlock: BETDAH_clean_sbu_0, # of connection points: 6
#     Node 11, Type 1, BuildingBlock: BETDAH_clean_sbu_0, # of connection points: 6
#     Edge 12, Type (0, 1), BuildingBlock: UVAHIK_clean_linker_0, # of connection points: 2
#     Edge 13, Type (0, 1), BuildingBlock: UVAHIK_clean_linker_0, # of connection points: 2
#     Edge 14, Type (0, 1), BuildingBlock: UVAHIK_clean_linker_0, # of connection points: 2
#     Edge 15, Type (0, 1), BuildingBlock: UVAHIK_clean_linker_0, # of connection points: 2
#     Edge 16, Type (0, 1), BuildingBlock: UVAHIK_clean_linker_0, # of connection points: 2
#     Edge 17, Type (0, 1), BuildingBlock: UVAHIK_clean_linker_0, # of connection points: 2
#     Edge 18, Type (0, 1), BuildingBlock: UVAHIK_clean_linker_0, # of connection points: 2
#     Edge 19, Type (0, 1), BuildingBlock: UVAHIK_clean_linker_0, # of connection points: 2
#     Edge 20, Type (0, 1), BuildingBlock: UVAHIK_clean_linker_0, # of connection points: 2
#     Edge 21, Type (0, 1), BuildingBlock: UVAHIK_clean_linker_0, # of connection points: 2
#     Edge 22, Type (0, 1), BuildingBlock: UVAHIK_clean_linker_0, # of connection points: 2
#     Edge 23, Type (0, 1), BuildingBlock: UVAHIK_clean_linker_0, # of connection points: 2
#     Edge 24, Type (0, 1), BuildingBlock: UVAHIK_clean_linker_0, # of connection points: 2
#     Edge 25, Type (0, 1), BuildingBlock: UVAHIK_clean_linker_0, # of connection points: 2
#     Edge 26, Type (0, 1), BuildingBlock: UVAHIK_clean_linker_0, # of connection points: 2
#     Edge 27, Type (0, 1), BuildingBlock: UVAHIK_clean_linker_0, # of connection points: 2
#     Edge 28, Type (0, 1), BuildingBlock: UVAHIK_clean_linker_0, # of connection points: 2
#     Edge 29, Type (0, 1), BuildingBlock: UVAHIK_clean_linker_0, # of connection points: 2
#     Edge 30, Type (0, 1), BuildingBlock: UVAHIK_clean_linker_0, # of connection points: 2
#     Edge 31, Type (0, 1), BuildingBlock: UVAHIK_clean_linker_0, # of connection points: 2
#     Edge 32, Type (0, 1), BuildingBlock: UVAHIK_clean_linker_0, # of connection points: 2
#     Edge 33, Type (0, 1), BuildingBlock: UVAHIK_clean_linker_0, # of connection points: 2
#     Edge 34, Type (0, 1), BuildingBlock: UVAHIK_clean_linker_0, # of connection points: 2
#     Edge 35, Type (0, 1), BuildingBlock: UVAHIK_clean_linker_0, # of connection points: 2
# Relax obj value: 0.096
# Max RMSD: 0.161
# Mean RMSD: 0.120
data_MOF--net-pyr--node1-OLANEW_clean_sbu_2--node2-BETDAH_clean_sbu_0--edge1-UVAHIK_clean_linker_0
_symmetry_space_group_name_H-M    P1
_symmetry_Int_Tables_number       1
_symmetry_cell_setting            triclinic
loop_
_symmetry_equiv_pos_as_xyz
'x, y, z'
_cell_length_a     52.029127
_cell_length_b     55.690163
_cell_length_c     48.450458
_cell_angle_alpha  94.820454
_cell_angle_beta   88.151787
_cell_angle_gamma 102.53402
loop_
_atom_site_label
_atom_site_type_symbol
_atom_site_fract_x
_atom_site_fract_y
_atom_site_fract_z
_atom_type_partial_charge
O0 O 0.36638 0.29475 0.18547 0.0
Cd1 Cd 0.35393 0.33413 0.19964 0.0
O2 O 0.33627 0.2757 0.21333 0.0
Cd3 Cd 0.31522 0.24588 0.23747 0.0
O4 O 0.28796 0.22269 0.2645 0.0
C5 C 0.28613 0.23006 0.28989 0.0
O6 O 0.30134 0.25102 0.29923 0.0
C7 C 0.35526 0.27503 0.19628 0.0
C8 C 0.30987 0.34456 0.17554 0.0
O9 O 0.33272 0.34987 0.16402 0.0
O10 O 0.30768 0.33348 0.19793 0.0
O11 O 0.30265 0.88382 0.68441 0.0
Cd12 Cd 0.28297 0.87731 0.63834 0.0
O13 O 0.28445 0.84724 0.69828 0.0
Cd14 Cd 0.25725 0.84024 0.66405 0.0
O15 O 0.22628 0.85038 0.64155 0.0
C16 C 0.21196 0.86214 0.6566 0.0
O17 O 0.21643 0.86595 0.68333 0.0
C18 C 0.30033 0.86801 0.70235 0.0
C19 C 0.30825 0.84531 0.60608 0.0
O20 O 0.28633 0.83733 0.61847 0.0
O21 O 0.31776 0.86862 0.60804 0.0
O22 O 0.69804 0.39818 0.87419 0.0
Cd23 Cd 0.65536 0.38238 0.85052 0.0
O24 O 0.69878 0.36764 0.90077 0.0
Cd25 Cd 0.66239 0.33866 0.89571 0.0
O26 O 0.64045 0.30224 0.9082 0.0
C27 C 0.61796 0.29896 0.92022 0.0
O28 O 0.60633 0.3177 0.92436 0.0
C29 C 0.70946 0.38852 0.89196 0.0
C30 C 0.64214 0.41012 0.80864 0.0
O31 O 0.63611 0.41455 0.83415 0.0
O32 O 0.65506 0.39313 0.8029 0.0
O33 O 0.88873 0.73094 0.37309 0.0
Cd34 Cd 0.86226 0.69214 0.352 0.0
O35 O 0.88959 0.71701 0.41417 0.0
Cd36 Cd 0.86337 0.68121 0.40443 0.0
O37 O 0.82877 0.6556 0.41929 0.0
C38 C 0.80702 0.65053 0.40661 0.0
O39 O 0.8057 0.65947 0.38257 0.0
C40 C 0.89609 0.73437 0.39817 0.0
C41 C 0.88707 0.66792 0.3095 0.0
O42 O 0.87704 0.68626 0.30489 0.0
O43 O 0.8859 0.6613 0.3343 0.0
O44 O 0.71513 0.75765 0.8015 0.0
Cd45 Cd 0.68676 0.72386 0.82415 0.0
O46 O 0.69702 0.78545 0.82438 0.0
Cd47 Cd 0.68828 0.82153 0.83735 0.0
O48 O 0.67154 0.85149 0.85733 0.0
C49 C 0.6466 0.84815 0.85909 0.0
O50 O 0.63222 0.82734 0.84823 0.0
C51 C 0.71414 0.78017 0.8069 0.0
C52 C 0.71829 0.69829 0.85026 0.0
O53 O 0.71194 0.6927 0.82482 0.0
O54 O 0.70924 0.71565 0.86354 0.0
O55 O 0.71284 0.17687 0.47079 0.0
Cd56 Cd 0.73361 0.19655 0.51374 0.0
O57 O 0.74554 0.19668 0.44592 0.0
Cd58 Cd 0.75747 0.22466 0.47992 0.0
O59 O 0.74599 0.25654 0.50204 0.0
C60 C 0.72212 0.25329 0.51024 0.0
O61 O 0.70687 0.2312 0.50634 0.0
C62 C 0.72453 0.18013 0.4475 0.0
C63 C 0.77206 0.17168 0.52614 0.0
O64 O 0.7492 0.16682 0.53767 0.0
O65 O 0.7769 0.18871 0.50931 0.0
O66 O 0.40184 0.76637 0.23993 0.0
Cd67 Cd 0.38377 0.72465 0.25595 0.0
O68 O 0.36762 0.76511 0.21346 0.0
Cd69 Cd 0.34368 0.72762 0.21668 0.0
O70 O 0.31019 0.69852 0.20111 0.0
C71 C 0.2931 0.70598 0.1878 0.0
O72 O 0.29646 0.72975 0.1851 0.0
C73 C 0.38967 0.77664 0.22344 0.0
C74 C 0.40809 0.70676 0.29909 0.0
O75 O 0.4148 0.70304 0.27365 0.0
O76 O 0.39077 0.71981 0.30436 0.0
O77 O 0.16559 0.41116 0.75125 0.0
Cd78 Cd 0.18474 0.38802 0.71364 0.0
O79 O 0.16069 0.38076 0.77861 0.0
Cd80 Cd 0.16839 0.35314 0.74634 0.0
O81 O 0.15976 0.31832 0.72025 0.0
C82 C 0.15611 0.29825 0.73199 0.0
O83 O 0.15891 0.29926 0.75895 0.0
C84 C 0.15932 0.40277 0.77475 0.0
C85 C 0.23064 0.41551 0.69034 0.0
O86 O 0.20812 0.41388 0.6795 0.0
O87 O 0.23145 0.40435 0.71229 0.0
Ho88 Ho 0.0085 0.03024 0.53907 0.0
Ho89 Ho 0.00144 1.00916 0.59592 0.0
C90 C 0.03376 0.06414 0.59352 0.0
C91 C 0.01002 0.05583 0.49669 0.0
C92 C 0.03074 0.07347 0.48334 0.0
C93 C 0.02687 0.07992 0.45673 0.0
C94 C 0.0475 0.0945 0.44253 0.0
C95 C 0.07235 0.10281 0.45475 0.0
C96 C 0.07585 0.09693 0.48187 0.0
C97 C 0.05521 0.0823 0.49602 0.0
C98 C 0.04631 1.00696 0.5525 0.0
C99 C 0.98008 0.97469 0.54053 0.0
C100 C 0.99773 0.98325 0.63828 0.0
C101 C 0.97519 0.96894 0.6533 0.0
C102 C 0.97581 0.94519 0.66044 0.0
C103 C 0.95413 0.93107 0.67374 0.0
C104 C 0.93155 0.94057 0.68029 0.0
C105 C 0.93109 0.96445 0.67332 0.0
C106 C 0.95262 0.97845 0.6598 0.0
C107 C 0.96316 0.03188 0.58247 0.0
O108 O 0.0235 0.06359 0.56875 0.0
O109 O 0.03194 0.04371 0.60627 0.0
O110 O 0.01355 0.03324 0.49504 0.0
O111 O 0.0023 0.06295 0.52142 0.0
O112 O 0.03919 1.0078 0.52733 0.0
O113 O 0.03518 0.02048 0.56853 0.0
O114 O 0.99064 0.97577 0.56522 0.0
O115 O 0.97948 0.99498 0.5285 0.0
O116 O 0.00014 1.00718 0.64026 0.0
O117 O 0.00194 0.9745 0.61306 0.0
O118 O 0.97026 0.03081 0.60754 0.0
O119 O 0.97441 0.01855 0.56626 0.0
H120 H 0.0081 0.07316 0.44665 0.0
H121 H 0.04409 0.09901 0.42183 0.0
H122 H 0.0948 0.10281 0.49174 0.0
H123 H 0.05856 0.07726 0.51652 0.0
H124 H 0.99297 0.93749 0.65552 0.0
H125 H 0.95508 0.91277 0.67902 0.0
H126 H 0.91382 0.97211 0.67775 0.0
H127 H 0.95145 0.9966 0.65421 0.0
Ho128 Ho 0.52539 0.05189 0.08653 0.0
Ho129 Ho 0.47239 0.02945 0.0642 0.0
C130 C 0.47403 0.07077 0.11198 0.0
C131 C 0.56834 0.07998 0.10596 0.0
C132 C 0.57964 0.08576 0.13367 0.0
C133 C 0.59956 0.10685 0.13899 0.0
C134 C 0.61086 0.11215 0.16518 0.0
C135 C 0.60244 0.09634 0.18643 0.0
C136 C 0.58222 0.07531 0.18097 0.0
C137 C 0.57085 0.07013 0.15485 0.0
C138 C 0.50163 1.00979 0.10979 0.0
C139 C 0.52359 0.01349 0.03493 0.0
C140 C 0.43009 0.99992 0.04532 0.0
C141 C 0.42345 0.98566 0.01875 0.0
C142 C 0.39859 0.9701 0.01511 0.0
C143 C 0.39183 0.9572 0.98945 0.0
C144 C 0.40989 0.95976 0.96707 0.0
C145 C 0.435 0.97508 0.97105 0.0
C146 C 0.44172 0.98794 0.9967 0.0
C147 C 0.49633 0.07205 0.04198 0.0
O148 O 0.49951 0.07674 0.10606 0.0
O149 O 0.45949 0.04959 0.10202 0.0
O150 O 0.56665 0.0573 0.09563 0.0
O151 O 0.54705 0.08801 0.10207 0.0
O152 O 0.52666 0.01668 0.10559 0.0
O153 O 0.4905 0.02659 0.1038 0.0
O154 O 0.49832 1.0065 0.04115 0.0
O155 O 0.53775 0.03421 0.04656 0.0
O156 O 0.43467 0.02385 0.04449 0.0
O157 O 0.44739 0.99287 0.05995 0.0
O158 O 0.47128 0.06567 0.0469 0.0
O159 O 0.50718 0.05487 0.04723 0.0
H160 H 0.60643 0.11917 0.12287 0.0
H161 H 0.62604 0.12872 0.16881 0.0
H162 H 0.57548 0.0626 0.19673 0.0
H163 H 0.55538 0.05376 0.15107 0.0
H164 H 0.38428 0.9682 0.03198 0.0
H165 H 0.37224 0.94577 0.98693 0.0
H166 H 0.44944 0.97719 0.95432 0.0
H167 H 0.46105 0.9999 0.99923 0.0
Ho168 Ho 0.52128 0.53272 0.53167 0.0
Ho169 Ho 0.51363 0.5728 0.57569 0.0
C170 C 0.539 0.53076 0.59602 0.0
C171 C 0.54076 0.50136 0.49987 0.0
C172 C 0.55462 0.48197 0.50522 0.0
C173 C 0.57275 0.47539 0.48562 0.0
C174 C 0.58719 0.45796 0.49116 0.0
C175 C 0.58373 0.44689 0.51647 0.0
C176 C 0.56543 0.45352 0.53603 0.0
C177 C 0.55101 0.47094 0.53046 0.0
C178 C 0.47317 0.52578 0.5559 0.0
C179 C 0.497 0.5755 0.51127 0.0
C180 C 0.49461 0.60473 0.60692 0.0
C181 C 0.48012 0.62362 0.60101 0.0
C182 C 0.45993 0.61846 0.58141 0.0
C183 C 0.44731 0.63693 0.57492 0.0
C184 C 0.45475 0.66092 0.58778 0.0
C185 C 0.47494 0.66602 0.6074 0.0
C186 C 0.48748 0.6475 0.61398 0.0
C187 C 0.56164 0.57916 0.55149 0.0
O188 O 0.54176 0.52394 0.56934 0.0
O189 O 0.52577 0.54791 0.60424 0.0
O190 O 0.51594 0.49765 0.50745 0.0
O191 O 0.55362 0.52387 0.50666 0.0
O192 O 0.47718 0.52 0.52984 0.0
O193 O 0.49483 0.53376 0.56789 0.0
O194 O 0.49346 0.58182 0.53794 0.0
O195 O 0.51025 0.55833 0.50322 0.0
O196 O 0.51913 0.60869 0.59833 0.0
O197 O 0.48222 0.5817 0.60207 0.0
O198 O 0.55792 0.58498 0.5776 0.0
O199 O 0.53991 0.57157 0.53965 0.0
H200 H 0.57587 0.48387 0.46611 0.0
H201 H 0.60089 0.453 0.47554 0.0
H202 H 0.56256 0.44554 0.55583 0.0
H203 H 0.53726 0.47597 0.54598 0.0
H204 H 0.45406 0.60024 0.57085 0.0
H205 H 0.43201 0.63254 0.55952 0.0
H206 H 0.48086 0.68428 0.61787 0.0
H207 H 0.50309 0.65186 0.62904 0.0
Ho208 Ho 0.01474 0.50784 0.04208 0.0
Ho209 Ho 0.00728 0.55776 0.02574 0.0
C210 C 0.06011 0.55802 0.05682 0.0
C211 C 0.03216 0.46819 0.04651 0.0
C212 C 0.05502 0.46022 0.05695 0.0
C213 C 0.06461 0.44152 0.04152 0.0
C214 C 0.08545 0.43262 0.05127 0.0
C215 C 0.09711 0.44215 0.07682 0.0
C216 C 0.08778 0.46132 0.09201 0.0
C217 C 0.06695 0.47031 0.08214 0.0
C218 C 0.98857 0.5324 0.07974 0.0
C219 C 0.96104 0.50826 1.01239 0.0
C220 C 0.98955 0.59643 0.01757 0.0
C221 C 0.96623 0.60131 1.00424 0.0
C222 C 0.94064 0.59302 0.01486 0.0
C223 C 0.91891 0.59809 1.00207 0.0
C224 C 0.92232 0.61134 0.97832 0.0
C225 C 0.94787 0.61945 0.96761 0.0
C226 C 0.96961 0.6146 0.98054 0.0
C227 C 0.03447 0.53339 0.98927 0.0
O228 O 0.05422 0.53354 0.0528 0.0
O229 O 0.0433 0.57156 0.05106 0.0
O230 O 0.01647 0.47647 0.06481 0.0
O231 O 0.03637 0.4809 0.02469 0.0
O232 O 0.98361 0.50851 0.07548 0.0
O233 O 0.00816 0.54172 0.06527 0.0
O234 O 0.96766 0.53265 0.01594 0.0
O235 O 0.97733 0.49427 0.0184 0.0
O236 O 0.0067 0.58828 1.00106 0.0
O237 O 0.98547 0.58525 0.04052 0.0
O238 O 0.04011 0.55716 0.99444 0.0
O239 O 0.01407 0.52402 1.00259 0.0
H240 H 0.05579 0.43361 0.02194 0.0
H241 H 0.09245 0.41826 0.03871 0.0
H242 H 0.09616 0.46899 0.11183 0.0
H243 H 0.05996 0.48487 0.09435 0.0
H244 H 0.93732 0.58263 0.03304 0.0
H245 H 0.89941 0.59146 1.01062 0.0
H246 H 0.95108 0.62994 0.9495 0.0
H247 H 0.98912 0.62131 0.97204 0.0
C248 C 0.26378 0.22449 0.33623 0.0
C249 C 0.26613 0.21603 0.30829 0.0
C250 C 0.24404 0.21196 0.35326 0.0
C251 C 0.19721 0.15205 0.35885 0.0
H252 H 0.15836 0.19071 0.4077 0.0
C253 C 0.09898 0.10875 0.41086 0.0
C254 C 0.09489 0.11642 0.43874 0.0
C255 C 0.12061 0.1209 0.39591 0.0
C256 C 0.16923 0.17966 0.39443 0.0
H257 H 0.24983 0.18752 0.27646 0.0
H258 H 0.21525 0.16585 0.30605 0.0
H259 H 0.19517 0.2116 0.38002 0.0
H260 H 0.11015 0.14309 0.47268 0.0
H261 H 0.14815 0.16423 0.44656 0.0
H262 H 0.17107 0.12013 0.37304 0.0
C263 C 0.22885 0.182 0.31491 0.0
C264 C 0.19034 0.19162 0.37858 0.0
C265 C 0.2486 0.19451 0.2979 0.0
C266 C 0.11286 0.13665 0.45128 0.0
C267 C 0.13448 0.14888 0.43627 0.0
C268 C 0.17608 0.14011 0.37465 0.0
C269 C 0.22619 0.19069 0.34273 0.0
C270 C 0.20446 0.17796 0.36045 0.0
C271 C 0.13866 0.14104 0.40845 0.0
C272 C 0.16172 0.15378 0.39245 0.0
H273 H 0.27704 0.24094 0.34494 0.0
H274 H 0.24277 0.21893 0.3747 0.0
H275 H 0.20795 0.14098 0.34546 0.0
H276 H 0.0857 0.09304 0.40069 0.0
H277 H 0.12309 0.1146 0.37442 0.0
C278 C 0.33295 0.8971 0.73298 0.0
C279 C 0.31529 0.8742 0.72839 0.0
C280 C 0.34578 0.90365 0.75825 0.0
C281 C 0.33794 0.89088 0.83132 0.0
H282 H 0.41033 0.92744 0.83636 0.0
C283 C 0.38748 0.92287 0.93671 0.0
C284 C 0.40215 0.94729 0.93938 0.0
C285 C 0.37904 0.91166 0.91072 0.0
C286 C 0.39005 0.91736 0.83528 0.0
H287 H 0.29794 0.8399 0.74644 0.0
H288 H 0.32044 0.85136 0.79053 0.0
H289 H 0.39179 0.91182 0.79104 0.0
H290 H 0.41957 0.97905 0.91688 0.0
H291 H 0.40476 0.9596 0.87163 0.0
H292 H 0.33592 0.89689 0.87542 0.0
C293 C 0.3241 0.86433 0.77466 0.0
C294 C 0.37945 0.9084 0.80934 0.0
C295 C 0.31131 0.85773 0.74935 0.0
C296 C 0.40863 0.96009 0.91546 0.0
C297 C 0.40017 0.94892 0.88951 0.0
C298 C 0.3485 0.89987 0.85723 0.0
C299 C 0.3412 0.88748 0.77951 0.0
C300 C 0.35318 0.89534 0.80707 0.0
C301 C 0.38505 0.92467 0.88686 0.0
C302 C 0.37457 0.9135 0.85949 0.0
H303 H 0.3365 0.91021 0.71727 0.0
H304 H 0.35862 0.92174 0.76146 0.0
H305 H 0.31751 0.8812 0.83023 0.0
H306 H 0.3825 0.91242 0.95473 0.0
H307 H 0.36776 0.89283 0.90932 0.0
C308 C 0.63915 0.41772 0.75835 0.0
C309 C 0.63364 0.4236 0.78643 0.0
C310 C 0.63011 0.42963 0.73741 0.0
C311 C 0.60472 0.48543 0.72498 0.0
H312 H 0.5771 0.44704 0.6578 0.0
C313 C 0.54693 0.52463 0.64572 0.0
C314 C 0.55072 0.51861 0.6173 0.0
C315 C 0.55781 0.51326 0.66581 0.0
C316 C 0.58504 0.45816 0.67625 0.0
H317 H 0.61439 0.44691 0.81436 0.0
H318 H 0.59854 0.46751 0.77799 0.0
H319 H 0.59481 0.42716 0.69358 0.0
H320 H 0.56927 0.49584 0.58792 0.0
H321 H 0.58836 0.47615 0.6229 0.0
H322 H 0.59491 0.5164 0.70773 0.0
C323 C 0.61012 0.45387 0.77208 0.0
C324 C 0.59524 0.44672 0.69684 0.0
C325 C 0.61912 0.44194 0.793 0.0
C326 C 0.56576 0.50088 0.60956 0.0
C327 C 0.57665 0.48947 0.62969 0.0
C328 C 0.59455 0.49686 0.7044 0.0
C329 C 0.61533 0.4478 0.74395 0.0
C330 C 0.6051 0.46015 0.7216 0.0
C331 C 0.57286 0.49551 0.65815 0.0
C332 C 0.5844 0.48338 0.67978 0.0
H333 H 0.6503 0.40373 0.75247 0.0
H334 H 0.63485 0.42466 0.71606 0.0
H335 H 0.61255 0.49653 0.74348 0.0
H336 H 0.5354 0.53809 0.65256 0.0
H337 H 0.55406 0.51815 0.68744 0.0
C338 C 0.90763 0.66553 0.26212 0.0
C339 C 0.89883 0.65431 0.28664 0.0
C340 C 0.91794 0.65238 0.24016 0.0
C341 C 0.91352 0.59116 0.20708 0.0
H342 H 0.98309 0.61593 0.17657 0.0
C343 C 0.95996 0.53364 0.12219 0.0
C344 C 0.97738 0.54617 0.10283 0.0
C345 C 0.95042 0.54669 0.14479 0.0
C346 C 0.9634 0.60889 0.18437 0.0
H347 H 0.89379 0.62051 0.30732 0.0
H348 H 0.91106 0.5973 0.26848 0.0
H349 H 0.96642 0.63925 0.21531 0.0
H350 H -0.0016 0.58216 0.09183 0.0
H351 H 0.98054 0.60503 0.12989 0.0
H352 H 0.90975 0.56141 0.17562 0.0
C353 C 0.91027 0.61636 0.26652 0.0
C354 C 0.954 0.62222 0.20677 0.0
C355 C 0.90054 0.62968 0.28874 0.0
C356 C 0.98477 0.572 0.10624 0.0
C357 C 0.97481 0.5851 0.12845 0.0
C358 C 0.92265 0.57808 0.18428 0.0
C359 C 0.91905 0.6276 0.24205 0.0
C360 C 0.92903 0.61343 0.21838 0.0
C361 C 0.95771 0.57266 0.14829 0.0
C362 C 0.9478 0.58668 0.17258 0.0
H363 H 0.9066 0.68449 0.25993 0.0
H364 H 0.92452 0.6614 0.22145 0.0
H365 H 0.89407 0.58415 0.21554 0.0
H366 H 0.95411 0.51369 0.12021 0.0
H367 H 0.93776 0.53628 0.15977 0.0
C368 C 0.39271 0.25447 0.18444 0.0
C369 C 0.36575 0.25241 0.19039 0.0
C370 C 0.40318 0.23342 0.1794 0.0
C371 C 0.38574 0.16774 0.15576 0.0
H372 H 0.4525 0.16601 0.18805 0.0
C373 C 0.43397 0.08381 0.13314 0.0
C374 C 0.46119 0.08927 0.12738 0.0
C375 C 0.42135 0.10225 0.14446 0.0
C376 C 0.43395 0.16624 0.17869 0.0
H377 H 0.32838 0.22659 0.19439 0.0
H378 H 0.34672 0.18966 0.1857 0.0
H379 H 0.43214 0.20108 0.20014 0.0
H380 H 0.49661 0.11826 0.12997 0.0
H381 H 0.47467 0.15032 0.14919 0.0
H382 H 0.38788 0.13332 0.13363 0.0
C383 C 0.35979 0.20765 0.1853 0.0
C384 C 0.42226 0.18634 0.18566 0.0
C385 C 0.34934 0.22878 0.19063 0.0
C386 C 0.47564 0.11334 0.13421 0.0
C387 C 0.46303 0.13177 0.14539 0.0
C388 C 0.39752 0.1477 0.14862 0.0
C389 C 0.38688 0.20976 0.17982 0.0
C390 C 0.39822 0.1875 0.17398 0.0
C391 C 0.43563 0.1266 0.15019 0.0
C392 C 0.42199 0.14685 0.15968 0.0
H393 H 0.40585 0.27243 0.18402 0.0
H394 H 0.42404 0.23569 0.17478 0.0
H395 H 0.36734 0.1682 0.14621 0.0
H396 H 0.42223 0.06544 0.12826 0.0
H397 H 0.40032 0.09748 0.14834 0.0
C398 C 0.17688 0.88656 0.66124 0.0
C399 C 0.19191 0.87296 0.64425 0.0
C400 C 0.1592 0.89829 0.64967 0.0
C401 C 0.14669 0.92367 0.58516 0.0
H402 H 0.08023 0.92797 0.6217 0.0
C403 C 0.07313 0.97513 0.54195 0.0
C404 C 0.06244 0.99047 0.56146 0.0
C405 C 0.08775 0.95892 0.55064 0.0
C406 C 0.0988 0.92703 0.61136 0.0
H407 H 0.19962 0.8604 0.6018 0.0
H408 H 0.16844 0.88078 0.58156 0.0
H409 H 0.1072 0.90198 0.63919 0.0
H410 H 0.05855 1.00108 0.60521 0.0
H411 H 0.08416 0.97289 0.62042 0.0
H412 H 0.13837 0.94896 0.55752 0.0
C413 C 0.17064 0.88259 0.60384 0.0
C414 C 0.11423 0.91215 0.62136 0.0
C415 C 0.18838 0.87082 0.61544 0.0
C416 C 0.0666 0.98942 0.58975 0.0
C417 C 0.08108 0.97316 0.59845 0.0
C418 C 0.1312 0.9385 0.57511 0.0
C419 C 0.15608 0.89668 0.62083 0.0
C420 C 0.13856 0.91063 0.60866 0.0
C421 C 0.09176 0.9577 0.579 0.0
C422 C 0.10731 0.94064 0.5884 0.0
H423 H 0.17914 0.8886 0.68352 0.0
H424 H 0.14856 0.90928 0.66332 0.0
H425 H 0.16549 0.92314 0.57512 0.0
H426 H 0.07005 0.97554 0.52 0.0
H427 H 0.09559 0.94709 0.53521 0.0
C428 C 0.75049 0.38888 0.91802 0.0
C429 C 0.73564 0.40158 0.90308 0.0
C430 C 0.77472 0.40093 0.92934 0.0
C431 C 0.82805 0.45769 0.92626 0.0
H432 H 0.84678 0.43827 0.99665 0.0
C433 C 0.91932 0.51085 0.98898 0.0
C434 C 0.93496 0.49648 1.00023 0.0
C435 C 0.89502 0.49977 0.97699 0.0
C436 C 0.84196 0.44378 0.97688 0.0
H437 H 0.73497 0.43707 0.88823 0.0
H438 H 0.77701 0.45833 0.9086 0.0
H439 H 0.80454 0.41862 0.9762 0.0
H440 H 0.93699 0.45911 1.00781 0.0
H441 H 0.8945 0.43987 0.98719 0.0
H442 H 0.86546 0.48323 0.9274 0.0
C443 C 0.77011 0.43885 0.91113 0.0
C444 C 0.81771 0.43244 0.96503 0.0
C445 C 0.74589 0.42668 0.89952 0.0
C446 C 0.92552 0.47077 0.99938 0.0
C447 C 0.90108 0.45974 0.98766 0.0
C448 C 0.85223 0.46922 0.93829 0.0
C449 C 0.78482 0.42617 0.9264 0.0
C450 C 0.81044 0.43902 0.93939 0.0
C451 C 0.88556 0.47408 0.97623 0.0
C452 C 0.85958 0.46226 0.96364 0.0
H453 H 0.74345 0.36948 0.92096 0.0
H454 H 0.78562 0.39028 0.94027 0.0
H455 H 0.82344 0.46309 0.90637 0.0
H456 H 0.9259 0.5307 0.98921 0.0
H457 H 0.88346 0.51139 0.96862 0.0
C458 C 0.75859 0.63173 0.40682 0.0
C459 C 0.78282 0.63753 0.42053 0.0
C460 C 0.73532 0.62196 0.42101 0.0
C461 C 0.70694 0.62251 0.49085 0.0
H462 H 0.65168 0.56971 0.45992 0.0
C463 C 0.61082 0.58862 0.55207 0.0
C464 C 0.5874 0.58294 0.53705 0.0
C465 C 0.63521 0.59275 0.53825 0.0
C466 C 0.6668 0.58466 0.46875 0.0
H467 H 0.80173 0.63661 0.45962 0.0
H468 H 0.76113 0.61973 0.48431 0.0
H469 H 0.69328 0.58114 0.43453 0.0
H470 H 0.57092 0.57696 0.4959 0.0
H471 H 0.61333 0.58487 0.47176 0.0
H472 H 0.6804 0.62676 0.52455 0.0
C473 C 0.76014 0.62291 0.46266 0.0
C474 C 0.69065 0.59112 0.45422 0.0
C475 C 0.7834 0.63246 0.44844 0.0
C476 C 0.58873 0.58122 0.50799 0.0
C477 C 0.61307 0.58557 0.49416 0.0
C478 C 0.68304 0.61624 0.50523 0.0
C479 C 0.73581 0.61798 0.44925 0.0
C480 C 0.71091 0.61018 0.46508 0.0
C481 C 0.63666 0.59154 0.50909 0.0
C482 C 0.66257 0.59734 0.49432 0.0
H483 H 0.75747 0.63536 0.38533 0.0
H484 H 0.71683 0.61845 0.41018 0.0
H485 H 0.72206 0.63755 0.49953 0.0
H486 H 0.6103 0.58985 0.57451 0.0
H487 H 0.65293 0.59686 0.55044 0.0
C488 C 0.28959 0.36403 0.13937 0.0
C489 C 0.28704 0.35225 0.16417 0.0
C490 C 0.26867 0.37295 0.1297 0.0
C491 C 0.1965 0.36833 0.1375 0.0
H492 H 0.21274 0.43153 0.10556 0.0
C493 C 0.11768 0.40628 0.08402 0.0
C494 C 0.11858 0.43178 0.08761 0.0
C495 C 0.13795 0.39646 0.09362 0.0
C496 C 0.2078 0.41397 0.11467 0.0
H497 H 0.2603 0.34024 0.19801 0.0
H498 H 0.22399 0.35607 0.18138 0.0
H499 H 0.24828 0.4144 0.12169 0.0
H500 H 0.14166 0.46692 0.10434 0.0
H501 H 0.17669 0.44971 0.12178 0.0
H502 H 0.15597 0.36823 0.13118 0.0
C503 C 0.24202 0.35814 0.16915 0.0
C504 C 0.22825 0.40395 0.12356 0.0
C505 C 0.2629 0.34913 0.17877 0.0
C506 C 0.14019 0.44718 0.10139 0.0
C507 C 0.16046 0.43733 0.11109 0.0
C508 C 0.17604 0.37839 0.12868 0.0
C509 C 0.24472 0.37041 0.14465 0.0
C510 C 0.22288 0.38097 0.13503 0.0
C511 C 0.15965 0.41184 0.10723 0.0
C512 C 0.18142 0.40132 0.11709 0.0
H513 H 0.30787 0.36665 0.12754 0.0
H514 H 0.27132 0.38187 0.11048 0.0
H515 H 0.19161 0.3505 0.14599 0.0
H516 H 0.10118 0.39378 0.07389 0.0
H517 H 0.13676 0.3768 0.08999 0.0
C518 C 0.61962 0.25577 0.93097 0.0
C519 C 0.60557 0.2747 0.93081 0.0
C520 C 0.60826 0.2334 0.94217 0.0
C521 C 0.54399 0.19402 0.96055 0.0
H522 H 0.58505 0.16559 1.00913 0.0
C523 C 0.49543 0.11312 0.02516 0.0
C524 C 0.50952 0.09489 0.02918 0.0
C525 C 0.50755 0.13466 1.01284 0.0
C526 C 0.57335 0.17301 0.9953 0.0
H527 H 0.56833 0.28464 0.94204 0.0
H528 H 0.54855 0.2457 0.96133 0.0
H529 H 0.60529 0.20336 0.98763 0.0
H530 H 0.54747 0.08499 0.02362 0.0
H531 H 0.56858 0.12232 1.00152 0.0
H532 H 0.51214 0.16367 0.96787 0.0
C533 C 0.56833 0.2481 0.95272 0.0
C534 C 0.585 0.19475 0.98299 0.0
C535 C 0.57975 0.27051 0.94176 0.0
C536 C 0.5361 0.09873 0.02078 0.0
C537 C 0.54823 0.12024 1.00827 0.0
C538 C 0.53241 0.17221 0.97268 0.0
C539 C 0.58248 0.22929 0.95326 0.0
C540 C 0.57041 0.20565 0.96562 0.0
C541 C 0.53409 0.13852 1.00401 0.0
C542 C 0.54682 0.16146 0.99044 0.0
H543 H 0.63955 0.25833 0.92275 0.0
H544 H 0.61963 0.21924 0.94199 0.0
H545 H 0.53228 0.20165 0.94693 0.0
H546 H 0.47497 0.11079 0.03165 0.0
H547 H 0.4961 0.14843 1.01053 0.0
C548 C 0.9188 0.76259 0.43719 0.0
C549 C 0.90978 0.75919 0.40978 0.0
C550 C 0.92845 0.78627 0.4496 0.0
C551 C 0.92262 0.85041 0.4455 0.0
H552 H 0.9812 0.86525 0.49609 0.0
C553 C 0.9622 0.94848 0.49782 0.0
C554 C 0.97033 0.95026 0.52545 0.0
C555 C 0.95524 0.92547 0.48285 0.0
C556 C 0.9646 0.86133 0.48227 0.0
H557 H 0.90494 0.7781 0.37356 0.0
H558 H 0.92197 0.8195 0.39525 0.0
H559 H 0.97006 0.8248 0.47063 0.0
H560 H 0.97675 0.92912 0.55926 0.0
H561 H 0.96415 0.88907 0.53337 0.0
H562 H 0.91689 0.8868 0.45742 0.0
C563 C 0.92124 0.80377 0.4072 0.0
C564 C 0.95829 0.83817 0.46759 0.0
C565 C 0.9117 0.78003 0.3947 0.0
C566 C 0.97068 0.92846 0.53798 0.0
C567 C 0.96367 0.90548 0.52305 0.0
C568 C 0.92889 0.87357 0.46023 0.0
C569 C 0.92925 0.80718 0.43497 0.0
C570 C 0.9371 0.83235 0.44919 0.0
C571 C 0.9562 0.9037 0.49518 0.0
C572 C 0.94982 0.87925 0.47899 0.0
H573 H 0.91764 0.74697 0.44943 0.0
H574 H 0.93426 0.78822 0.47108 0.0
H575 H 0.90591 0.8464 0.43181 0.0
H576 H 0.96181 0.96489 0.48747 0.0
H577 H 0.9498 0.92482 0.46137 0.0
C578 C 0.34953 0.83618 0.58382 0.0
C579 C 0.32323 0.82788 0.59227 0.0
C580 C 0.36502 0.81927 0.57513 0.0
C581 C 0.3632 0.75318 0.55453 0.0
H582 H 0.42814 0.76541 0.59552 0.0
C583 C 0.41367 0.67559 0.5794 0.0
C584 C 0.44124 0.6805 0.58106 0.0
C585 C 0.4008 0.69435 0.5746 0.0
C586 C 0.4104 0.76187 0.58339 0.0
H587 H 0.29198 0.79545 0.59629 0.0
H588 H 0.31896 0.76603 0.58122 0.0
H589 H 0.40269 0.79724 0.59657 0.0
H590 H 0.47704 0.70854 0.57764 0.0
H591 H 0.45458 0.74132 0.56898 0.0
H592 H 0.37061 0.7175 0.54196 0.0
C593 C 0.32765 0.78555 0.58123 0.0
C594 C 0.39579 0.78016 0.58399 0.0
C595 C 0.31223 0.80243 0.59005 0.0
C596 C 0.45573 0.70435 0.57694 0.0
C597 C 0.44287 0.7231 0.57197 0.0
C598 C 0.3779 0.73489 0.55381 0.0
C599 C 0.35443 0.79377 0.57455 0.0
C600 C 0.37171 0.77579 0.57015 0.0
C601 C 0.41522 0.71841 0.57119 0.0
C602 C 0.40133 0.7388 0.56883 0.0
H603 H 0.35855 0.85569 0.58516 0.0
H604 H 0.38552 0.82613 0.56976 0.0
H605 H 0.34486 0.74942 0.54338 0.0
H606 H 0.40198 0.65744 0.58276 0.0
H607 H 0.37948 0.69017 0.57462 0.0
C608 C 0.74129 0.82339 0.80544 0.0
C609 C 0.73305 0.79937 0.79292 0.0
C610 C 0.76089 0.84061 0.79291 0.0
C611 C 0.79753 0.85227 0.72623 0.0
H612 H 0.85134 0.89323 0.77344 0.0
C613 C 0.89869 0.90072 0.68415 0.0
C614 C 0.90826 0.92546 0.69378 0.0
C615 C 0.87624 0.88671 0.69622 0.0
C616 C 0.83631 0.8821 0.76002 0.0
H617 H 0.73887 0.77459 0.75743 0.0
H618 H 0.77327 0.80424 0.73598 0.0
H619 H 0.81341 0.86671 0.79427 0.0
H620 H 0.90212 0.95481 0.72391 0.0
H621 H 0.86291 0.93021 0.74517 0.0
H622 H 0.82092 0.86717 0.69198 0.0
C623 C 0.76425 0.81012 0.75509 0.0
C624 C 0.81449 0.86697 0.77194 0.0
C625 C 0.74464 0.79301 0.76753 0.0
C626 C 0.89508 0.93582 0.71595 0.0
C627 C 0.87277 0.92172 0.72822 0.0
C628 C 0.81944 0.86722 0.71434 0.0
C629 C 0.77282 0.83409 0.76772 0.0
C630 C 0.79497 0.85163 0.75518 0.0
C631 C 0.86302 0.89706 0.71835 0.0
C632 C 0.8392 0.88209 0.73109 0.0
H633 H 0.73347 0.82868 0.82541 0.0
H634 H 0.7669 0.85894 0.80315 0.0
H635 H 0.78264 0.84109 0.71269 0.0
H636 H 0.90831 0.89231 0.66695 0.0
H637 H 0.86934 0.86767 0.68838 0.0
C638 C 0.68714 0.1515 0.4225 0.0
C639 C 0.71285 0.16605 0.42203 0.0
C640 C 0.6751 0.14033 0.39793 0.0
C641 C 0.68788 0.12196 0.32469 0.0
H642 H 0.6184 0.13375 0.31308 0.0
C643 C 0.64208 0.111 0.2165 0.0
C644 C 0.61481 0.10168 0.21412 0.0
C645 C 0.65369 0.11627 0.24251 0.0
C646 C 0.63759 0.12988 0.31611 0.0
H647 H 0.74651 0.17931 0.39555 0.0
H648 H 0.72549 0.15975 0.35273 0.0
H649 H 0.63945 0.14646 0.35766 0.0
H650 H 0.57838 0.09055 0.23732 0.0
H651 H 0.59875 0.09903 0.28264 0.0
H652 H 0.68611 0.1055 0.28309 0.0
C653 C 0.71467 0.15697 0.3721 0.0
C654 C 0.64965 0.13719 0.34167 0.0
C655 C 0.72665 0.1683 0.39662 0.0
C656 C 0.59948 0.09749 0.23837 0.0
C657 C 0.61111 0.10263 0.26439 0.0
C658 C 0.67575 0.11449 0.29916 0.0
C659 C 0.68859 0.14331 0.37244 0.0
C660 C 0.67505 0.1336 0.3461 0.0
C661 C 0.63834 0.11222 0.26677 0.0
C662 C 0.6506 0.11868 0.29444 0.0
H663 H 0.67599 0.14934 0.44174 0.0
H664 H 0.65507 0.12966 0.3988 0.0
H665 H 0.70736 0.11873 0.32766 0.0
H666 H 0.65453 0.11412 0.19824 0.0
H667 H 0.67465 0.12393 0.24357 0.0
C668 C 0.41157 0.69944 0.3494 0.0
C669 C 0.41894 0.6952 0.3215 0.0
C670 C 0.42036 0.68722 0.37022 0.0
C671 C 0.44542 0.63117 0.3805 0.0
H672 H 0.46658 0.66445 0.45229 0.0
C673 C 0.493 0.58434 0.46164 0.0
C674 C 0.48709 0.58891 0.48988 0.0
C675 C 0.48454 0.59744 0.44151 0.0
C676 C 0.4604 0.65472 0.43251 0.0
H677 H 0.44184 0.67501 0.29386 0.0
H678 H 0.4572 0.65385 0.33008 0.0
H679 H 0.45272 0.6873 0.41672 0.0
H680 H 0.4673 0.61092 0.51889 0.0
H681 H 0.45211 0.63339 0.48383 0.0
H682 H 0.45277 0.59856 0.39623 0.0
C683 C 0.44437 0.66643 0.33586 0.0
C684 C 0.4525 0.66789 0.41204 0.0
C685 C 0.43571 0.67874 0.31508 0.0
C686 C 0.47229 0.60688 0.49739 0.0
C687 C 0.46372 0.61994 0.47722 0.0
C688 C 0.45319 0.61798 0.40098 0.0
C689 C 0.43662 0.6703 0.36371 0.0
C690 C 0.44501 0.65633 0.38568 0.0
C691 C 0.46978 0.61548 0.44895 0.0
C692 C 0.46093 0.62955 0.42729 0.0
H693 H 0.39863 0.71193 0.35514 0.0
H694 H 0.41379 0.69054 0.39136 0.0
H695 H 0.43931 0.62149 0.36067 0.0
H696 H 0.50451 0.57081 0.45499 0.0
H697 H 0.49004 0.5937 0.4201 0.0
C698 C 0.13816 0.43788 0.7914 0.0
C699 C 0.1492 0.41801 0.79733 0.0
C700 C 0.12668 0.45095 0.81254 0.0
C701 C 0.12653 0.46739 0.88706 0.0
H702 H 0.0546 0.47377 0.87753 0.0
C703 C 0.07354 0.53083 0.95885 0.0
C704 C 0.04841 0.51973 0.96857 0.0
C705 C 0.08657 0.51829 0.93863 0.0
C706 C 0.07467 0.47207 0.88045 0.0
H707 H 0.1577 0.39685 0.83019 0.0
H708 H 0.13829 0.42017 0.86717 0.0
H709 H 0.07679 0.45303 0.84036 0.0
H710 H 0.01718 0.48686 0.96501 0.0
H711 H 0.03975 0.46512 0.92902 0.0
H712 H 0.12451 0.48678 0.927 0.0
C713 C 0.13828 0.4254 0.84613 0.0
C714 C 0.0874 0.46041 0.85915 0.0
C715 C 0.14929 0.41202 0.82495 0.0
C716 C 0.03656 0.49581 0.95785 0.0
C717 C 0.04939 0.48345 0.93723 0.0
C718 C 0.11396 0.47949 0.90815 0.0
C719 C 0.12652 0.44474 0.84007 0.0
C720 C 0.1134 0.45785 0.86232 0.0
C721 C 0.07449 0.4946 0.9274 0.0
C722 C 0.08786 0.4818 0.9051 0.0
H723 H 0.13771 0.44289 0.77032 0.0
H724 H 0.11787 0.4659 0.80737 0.0
H725 H 0.1466 0.46569 0.88996 0.0
H726 H 0.08311 0.54924 0.96686 0.0
H727 H 0.10585 0.52732 0.93131 0.0
C728 C 0.6063 0.86239 0.87704 0.0
C729 C 0.63387 0.86673 0.87441 0.0
C730 C 0.5942 0.87919 0.89267 0.0
C731 C 0.60507 0.94365 0.92329 0.0
H732 H 0.54792 0.91685 0.9728 0.0
C733 C 0.56319 1.00385 1.00917 0.0
C734 C 0.53589 0.99811 1.01434 0.0
C735 C 0.57491 0.9886 0.9907 0.0
C736 C 0.56359 0.92467 0.95881 0.0
H737 H 0.67034 0.89246 0.88567 0.0
H738 H 0.64919 0.92174 0.91312 0.0
H739 H 0.56878 0.88898 0.94304 0.0
H740 H 0.49938 0.9722 1.00351 0.0
H741 H 0.51976 0.94587 0.97108 0.0
H742 H 0.5999 0.97938 0.93921 0.0
C743 C 0.63693 0.9054 0.90289 0.0
C744 C 0.57557 0.90867 0.94175 0.0
C745 C 0.64905 0.88855 0.88727 0.0
C746 C 0.5205 0.97708 1.00019 0.0
C747 C 0.53221 0.96189 0.98168 0.0
C748 C 0.59303 0.95969 0.94035 0.0
C749 C 0.60936 0.90076 0.90603 0.0
C750 C 0.59646 0.91795 0.9238 0.0
C751 C 0.55959 0.9673 0.97694 0.0
C752 C 0.57216 0.95038 0.95835 0.0
H753 H 0.59399 0.84584 0.86729 0.0
H754 H 0.57291 0.87526 0.8943 0.0
H755 H 0.62091 0.95138 0.90945 0.0
H756 H 0.57562 0.01988 0.01977 0.0
H757 H 0.59608 0.99317 0.98776 0.0
C758 C 0.79024 0.14443 0.55515 0.0
C759 C 0.79198 0.15744 0.53136 0.0
C760 C 0.80867 0.13035 0.55963 0.0
C761 C 0.87463 0.12009 0.53573 0.0
H762 H 0.85215 0.06029 0.57371 0.0
C763 C 0.93876 0.04797 0.54706 0.0
C764 C 0.94263 0.04445 0.57485 0.0
C765 C 0.91998 0.06098 0.54028 0.0
C766 C 0.8586 0.07694 0.56303 0.0
H767 H 0.81409 0.16578 0.4934 0.0
H768 H 0.84555 0.14039 0.50049 0.0
H769 H 0.8201 0.08459 0.56441 0.0
H770 H 0.92964 0.05102 0.61724 0.0
H771 H 0.89621 0.07302 0.60524 0.0
H772 H 0.91304 0.11176 0.53379 0.0
C773 C 0.83058 0.14164 0.51626 0.0
C774 C 0.84036 0.09103 0.55792 0.0
C775 C 0.81245 0.15612 0.51209 0.0
C776 C 0.92705 0.05355 0.59566 0.0
C777 C 0.90792 0.06603 0.58883 0.0
C778 C 0.89273 0.1057 0.54036 0.0
C779 C 0.82894 0.12853 0.54009 0.0
C780 C 0.84819 0.11301 0.54455 0.0
C781 C 0.90442 0.07006 0.56115 0.0
C782 C 0.8849 0.08421 0.55436 0.0
H783 H 0.77474 0.14529 0.57045 0.0
H784 H 0.80708 0.12105 0.57855 0.0
H785 H 0.88157 0.13706 0.52581 0.0
H786 H 0.95046 0.04098 0.53067 0.0
H787 H 0.91747 0.06385 0.51877 0.0
C788 C 0.25173 0.69766 0.16038 0.0
C789 C 0.27018 0.68852 0.17469 0.0
C790 C 0.23048 0.68163 0.14716 0.0
C791 C 0.18969 0.61822 0.14498 0.0
H792 H 0.16921 0.6351 0.07406 0.0
C793 C 0.10276 0.55766 0.08016 0.0
C794 C 0.08576 0.57082 0.06914 0.0
C795 C 0.12658 0.5702 0.09234 0.0
C796 C 0.17456 0.63017 0.09392 0.0
H797 H 0.28045 0.65515 0.18659 0.0
H798 H 0.24323 0.627 0.16326 0.0
H799 H 0.20816 0.66012 0.09677 0.0
H800 H 0.08072 0.60752 0.06217 0.0
H801 H 0.12187 0.62913 0.08319 0.0
H802 H 0.15577 0.58829 0.14205 0.0
C803 C 0.24522 0.6467 0.16247 0.0
C804 C 0.1969 0.64456 0.10699 0.0
C805 C 0.2666 0.66282 0.17575 0.0
C806 C 0.09325 0.59671 0.07039 0.0
C807 C 0.11701 0.60916 0.08231 0.0
C808 C 0.16728 0.60373 0.13181 0.0
C809 C 0.22703 0.65593 0.14776 0.0
C810 C 0.20447 0.63913 0.13297 0.0
C811 C 0.134 0.59613 0.09347 0.0
C812 C 0.15915 0.60986 0.10638 0.0
H813 H 0.25368 0.71732 0.15924 0.0
H814 H 0.2166 0.68947 0.13658 0.0
H815 H 0.19486 0.61355 0.16502 0.0
H816 H 0.0976 0.53771 0.07961 0.0
H817 H 0.13929 0.55961 0.10062 0.0
C818 C 0.27873 0.43531 0.69234 0.0
C819 C 0.25508 0.42941 0.67762 0.0
C820 C 0.30197 0.44781 0.68009 0.0
C821 C 0.32752 0.48439 0.61989 0.0
H822 H 0.39286 0.46639 0.63684 0.0
C823 C 0.42439 0.50974 0.55556 0.0
C824 C 0.44772 0.51822 0.57053 0.0
C825 C 0.40056 0.50097 0.56932 0.0
C826 C 0.3748 0.4718 0.63212 0.0
H827 H 0.23725 0.43203 0.63848 0.0
H828 H 0.27786 0.45301 0.61674 0.0
H829 H 0.35205 0.44677 0.65922 0.0
H830 H 0.46439 0.52478 0.61161 0.0
H831 H 0.42281 0.50909 0.63562 0.0
H832 H 0.35045 0.50882 0.59197 0.0
C833 C 0.27845 0.44864 0.63803 0.0
C834 C 0.35136 0.46062 0.64503 0.0
C835 C 0.25513 0.43644 0.65044 0.0
C836 C 0.44671 0.51829 0.59954 0.0
C837 C 0.42296 0.50922 0.61326 0.0
C838 C 0.35096 0.49533 0.60669 0.0
C839 C 0.30226 0.45441 0.65263 0.0
C840 C 0.32734 0.46674 0.63913 0.0
C841 C 0.39969 0.50022 0.59828 0.0
C842 C 0.37484 0.48915 0.61268 0.0
H843 H 0.27931 0.43034 0.71342 0.0
H844 H 0.31971 0.45236 0.69226 0.0
H845 H 0.30958 0.48995 0.61512 0.0
H846 H 0.42463 0.50954 0.53318 0.0
H847 H 0.38297 0.49403 0.55723 0.0
C848 C 0.7409 0.68992 0.8922 0.0
C849 C 0.73642 0.6858 0.86356 0.0
C850 C 0.75925 0.6793 0.90444 0.0
C851 C 0.81948 0.65722 0.88814 0.0
H852 H 0.80556 0.62648 0.95754 0.0
C853 C 0.89663 0.61367 0.93612 0.0
C854 C 0.89938 0.61713 0.965 0.0
C855 C 0.8755 0.61993 0.92347 0.0
C856 C 0.80989 0.63526 0.93831 0.0
H857 H 0.74731 0.66692 0.82541 0.0
H858 H 0.77955 0.6486 0.8468 0.0
H859 H 0.77073 0.64136 0.93616 0.0
H860 H 0.88224 0.62985 1.00332 0.0
H861 H 0.8457 0.6414 0.98131 0.0
H862 H 0.85877 0.65196 0.89055 0.0
C863 C 0.76887 0.66007 0.85972 0.0
C864 C 0.78989 0.64368 0.92605 0.0
C865 C 0.75031 0.67046 0.84752 0.0
C866 C 0.88043 0.62673 0.98103 0.0
C867 C 0.85944 0.63326 0.96838 0.0
C868 C 0.83955 0.64905 0.90052 0.0
C869 C 0.7737 0.66457 0.88825 0.0
C870 C 0.79452 0.6548 0.90088 0.0
C871 C 0.85678 0.63009 0.93941 0.0
C872 C 0.83507 0.63803 0.92583 0.0
H873 H 0.73048 0.70162 0.90512 0.0
H874 H 0.76272 0.68322 0.92645 0.0
H875 H 0.82371 0.66606 0.86893 0.0
H876 H 0.91078 0.60598 0.9233 0.0
H877 H 0.87382 0.61675 0.90118 0.0
C878 C 0.38478 0.8151 0.20253 0.0
C879 C 0.40098 0.80196 0.21494 0.0
C880 C 0.39516 0.83828 0.19293 0.0
C881 C 0.45446 0.89041 0.19616 0.0
H882 H 0.42497 0.90652 0.12934 0.0
C883 C 0.50501 0.97245 0.1335 0.0
C884 C 0.48912 0.98715 0.12344 0.0
C885 C 0.49375 0.95075 0.14593 0.0
C886 C 0.43324 0.90245 0.14819 0.0
H887 H 0.44095 0.80328 0.22723 0.0
H888 H 0.45933 0.84348 0.20977 0.0
H889 H 0.40709 0.86708 0.14827 0.0
H890 H 0.4489 0.9906 0.11861 0.0
H891 H 0.42907 0.95229 0.13997 0.0
H892 H 0.48115 0.92564 0.19542 0.0
C893 C 0.43837 0.83607 0.20795 0.0
C894 C 0.42294 0.87978 0.15918 0.0
C895 C 0.42787 0.8129 0.21791 0.0
C896 C 0.46164 0.97964 0.12612 0.0
C897 C 0.45032 0.95767 0.13827 0.0
C898 C 0.46495 0.91298 0.18498 0.0
C899 C 0.4222 0.84903 0.19504 0.0
C900 C 0.43334 0.87337 0.18338 0.0
C901 C 0.46627 0.94295 0.14835 0.0
C902 C 0.45449 0.9193 0.16083 0.0
H903 H 0.36391 0.80743 0.20015 0.0
H904 H 0.38183 0.84778 0.18386 0.0
H905 H 0.46279 0.8865 0.21504 0.0
H906 H 0.52626 0.97768 0.1317 0.0
H907 H 0.50663 0.93976 0.15313 0.0
C908 C 0.14085 0.27294 0.68781 0.0
C909 C 0.14694 0.27414 0.71602 0.0
C910 C 0.13051 0.25024 0.67335 0.0
C911 C 0.12288 0.1827 0.67569 0.0
H912 H 0.0632 0.17901 0.62842 0.0
C913 C 0.05781 0.08976 0.6337 0.0
C914 C 0.04843 0.08801 0.60656 0.0
C915 C 0.07111 0.11244 0.64615 0.0
C916 C 0.08008 0.17975 0.64121 0.0
H917 H 0.14753 0.25231 0.75096 0.0
H918 H 0.12945 0.21284 0.72579 0.0
H919 H 0.08464 0.21859 0.65128 0.0
H920 H 0.04613 0.10873 0.57105 0.0
H921 H 0.06958 0.1481 0.5926 0.0
H922 H 0.11824 0.14383 0.66571 0.0
C923 C 0.13283 0.2294 0.71477 0.0
C924 C 0.09239 0.20247 0.65433 0.0
C925 C 0.14307 0.25208 0.72924 0.0
C926 C 0.05292 0.10941 0.59206 0.0
C927 C 0.06627 0.13205 0.60448 0.0
C928 C 0.11061 0.15997 0.66251 0.0
C929 C 0.12613 0.22822 0.68674 0.0
C930 C 0.11383 0.20421 0.67186 0.0
C931 C 0.07541 0.1339 0.63174 0.0
C932 C 0.08895 0.15818 0.64523 0.0
H933 H 0.14365 0.28957 0.67697 0.0
H934 H 0.12588 0.24994 0.65167 0.0
H935 H 0.13958 0.18346 0.68877 0.0
H936 H 0.05461 0.07367 0.64551 0.0
H937 H 0.07756 0.11323 0.6673 0.0
C938 C 0.7236 0.29869 0.51605 0.0
C939 C 0.71053 0.27441 0.52036 0.0
C940 C 0.71074 0.3182 0.52163 0.0
C941 C 0.64329 0.32851 0.5251 0.0
H942 H 0.67748 0.39566 0.5493 0.0
C943 C 0.58658 0.40664 0.5344 0.0
C944 C 0.59897 0.42831 0.52227 0.0
C945 C 0.6006 0.38858 0.53865 0.0
C946 C 0.66772 0.37698 0.54245 0.0
H947 H 0.67462 0.25176 0.53602 0.0
H948 H 0.65248 0.28579 0.5464 0.0
H949 H 0.70168 0.36266 0.54993 0.0
H950 H 0.63603 0.4485 0.50612 0.0
H951 H 0.66042 0.41675 0.51311 0.0
H952 H 0.60955 0.34277 0.51716 0.0
C953 C 0.67232 0.28972 0.53791 0.0
C954 C 0.68156 0.35811 0.5428 0.0
C955 C 0.68507 0.27023 0.5321 0.0
C956 C 0.62586 0.43183 0.51517 0.0
C957 C 0.63991 0.4138 0.5195 0.0
C958 C 0.62948 0.34731 0.52486 0.0
C959 C 0.68465 0.31379 0.53185 0.0
C960 C 0.66958 0.33368 0.53383 0.0
C961 C 0.62733 0.39184 0.53093 0.0
C962 C 0.64161 0.37179 0.53321 0.0
H963 H 0.74323 0.30249 0.50701 0.0
H964 H 0.72076 0.33648 0.51656 0.0
H965 H 0.63361 0.31002 0.51747 0.0
H966 H 0.56584 0.40332 0.53995 0.0
H967 H 0.59044 0.37194 0.54774 0.0
loop_
_geom_bond_atom_site_label_1
_geom_bond_atom_site_label_2
_geom_bond_distance
_geom_bond_site_symmetry_2
_ccdc_geom_bond_type
O0 Cd1 2.300 . S
O0 C7 1.275 . S
Cd1 O0 2.300 . S
Cd1 O9 2.381 . S
Cd1 O10 2.378 . S
O2 Cd3 2.385 . S
O2 C7 1.255 . S
Cd3 O2 2.385 . S
Cd3 O4 2.317 . S
O4 Cd3 2.317 . S
O4 C5 1.232 . S
C5 O4 1.232 . S
C5 O6 1.218 . S
O6 C5 1.218 . S
C7 O0 1.275 . S
C7 O2 1.255 . S
C8 O9 1.258 . S
C8 O10 1.256 . S
O9 Cd1 2.381 . S
O9 C8 1.258 . S
O10 Cd1 2.378 . S
O10 C8 1.256 . S
O11 Cd12 2.300 . S
O11 C18 1.275 . S
Cd12 O11 2.300 . S
Cd12 O20 2.381 . S
Cd12 O21 2.378 . S
O13 Cd14 2.385 . S
O13 C18 1.255 . S
Cd14 O13 2.385 . S
Cd14 O15 2.317 . S
O15 Cd14 2.317 . S
O15 C16 1.232 . S
C16 O15 1.232 . S
C16 O17 1.218 . S
O17 C16 1.218 . S
C18 O11 1.275 . S
C18 O13 1.255 . S
C19 O20 1.258 . S
C19 O21 1.256 . S
O20 Cd12 2.381 . S
O20 C19 1.258 . S
O21 Cd12 2.378 . S
O21 C19 1.256 . S
O22 Cd23 2.300 . S
O22 C29 1.275 . S
Cd23 O22 2.300 . S
Cd23 O31 2.381 . S
Cd23 O32 2.378 . S
O24 Cd25 2.385 . S
O24 C29 1.255 . S
Cd25 O24 2.385 . S
Cd25 O26 2.317 . S
O26 Cd25 2.317 . S
O26 C27 1.232 . S
C27 O26 1.232 . S
C27 O28 1.218 . S
O28 C27 1.218 . S
C29 O22 1.275 . S
C29 O24 1.255 . S
C30 O31 1.258 . S
C30 O32 1.256 . S
O31 Cd23 2.381 . S
O31 C30 1.258 . S
O32 Cd23 2.378 . S
O32 C30 1.256 . S
O33 Cd34 2.300 . S
O33 C40 1.275 . S
Cd34 O33 2.300 . S
Cd34 O42 2.381 . S
Cd34 O43 2.378 . S
O35 Cd36 2.385 . S
O35 C40 1.255 . S
Cd36 O35 2.385 . S
Cd36 O37 2.317 . S
O37 Cd36 2.317 . S
O37 C38 1.232 . S
C38 O37 1.232 . S
C38 O39 1.218 . S
O39 C38 1.218 . S
C40 O33 1.275 . S
C40 O35 1.255 . S
C41 O42 1.258 . S
C41 O43 1.256 . S
O42 Cd34 2.381 . S
O42 C41 1.258 . S
O43 Cd34 2.378 . S
O43 C41 1.256 . S
O44 Cd45 2.300 . S
O44 C51 1.275 . S
Cd45 O44 2.300 . S
Cd45 O53 2.381 . S
Cd45 O54 2.378 . S
O46 Cd47 2.385 . S
O46 C51 1.255 . S
Cd47 O46 2.385 . S
Cd47 O48 2.317 . S
O48 Cd47 2.317 . S
O48 C49 1.232 . S
C49 O48 1.232 . S
C49 O50 1.218 . S
O50 C49 1.218 . S
C51 O44 1.275 . S
C51 O46 1.255 . S
C52 O53 1.258 . S
C52 O54 1.256 . S
O53 Cd45 2.381 . S
O53 C52 1.258 . S
O54 Cd45 2.378 . S
O54 C52 1.256 . S
O55 Cd56 2.300 . S
O55 C62 1.275 . S
Cd56 O55 2.300 . S
Cd56 O64 2.381 . S
Cd56 O65 2.378 . S
O57 Cd58 2.385 . S
O57 C62 1.255 . S
Cd58 O57 2.385 . S
Cd58 O59 2.317 . S
O59 Cd58 2.317 . S
O59 C60 1.232 . S
C60 O59 1.232 . S
C60 O61 1.218 . S
O61 C60 1.218 . S
C62 O55 1.275 . S
C62 O57 1.255 . S
C63 O64 1.258 . S
C63 O65 1.256 . S
O64 Cd56 2.381 . S
O64 C63 1.258 . S
O65 Cd56 2.378 . S
O65 C63 1.256 . S
O66 Cd67 2.300 . S
O66 C73 1.275 . S
Cd67 O66 2.300 . S
Cd67 O75 2.381 . S
Cd67 O76 2.378 . S
O68 Cd69 2.385 . S
O68 C73 1.255 . S
Cd69 O68 2.385 . S
Cd69 O70 2.317 . S
O70 Cd69 2.317 . S
O70 C71 1.232 . S
C71 O70 1.232 . S
C71 O72 1.218 . S
O72 C71 1.218 . S
C73 O66 1.275 . S
C73 O68 1.255 . S
C74 O75 1.258 . S
C74 O76 1.256 . S
O75 Cd67 2.381 . S
O75 C74 1.258 . S
O76 Cd67 2.378 . S
O76 C74 1.256 . S
O77 Cd78 2.300 . S
O77 C84 1.275 . S
Cd78 O77 2.300 . S
Cd78 O86 2.381 . S
Cd78 O87 2.378 . S
O79 Cd80 2.385 . S
O79 C84 1.255 . S
Cd80 O79 2.385 . S
Cd80 O81 2.317 . S
O81 Cd80 2.317 . S
O81 C82 1.232 . S
C82 O81 1.232 . S
C82 O83 1.218 . S
O83 C82 1.218 . S
C84 O77 1.275 . S
C84 O79 1.255 . S
C85 O86 1.258 . S
C85 O87 1.256 . S
O86 Cd78 2.381 . S
O86 C85 1.258 . S
O87 Cd78 2.378 . S
O87 C85 1.256 . S
Ho88 C91 2.811 . S
Ho88 O108 2.322 . S
Ho88 O110 2.378 . S
Ho88 O111 2.524 . S
Ho88 O112 2.381 1_545 S
Ho88 O113 2.669 1_545 S
Ho88 O115 2.346 1_445 S
Ho88 O119 2.305 1_455 S
Ho89 C100 2.811 1_545 S
Ho89 O109 2.346 1_655 S
Ho89 O113 2.305 1_645 S
Ho89 O114 2.322 1_545 S
Ho89 O116 2.378 1_545 S
Ho89 O117 2.524 1_545 S
Ho89 O118 2.381 . S
Ho89 O119 2.669 . S
C90 O108 1.259 . S
C90 O109 1.268 . S
C91 Ho88 2.811 . S
C91 C92 1.488 . S
C91 O110 1.215 . S
C91 O111 1.289 . S
C92 C91 1.488 . S
C92 C93 1.348 . S
C92 C97 1.413 . S
C93 C92 1.348 . S
C93 C94 1.442 . S
C93 H120 0.930 . S
C94 C93 1.442 . S
C94 C95 1.381 . S
C94 H121 0.931 . S
C95 C94 1.381 . S
C95 C96 1.321 . S
C96 C95 1.321 . S
C96 C97 1.403 . S
C96 H122 0.934 . S
C97 C92 1.413 . S
C97 C96 1.403 . S
C97 H123 0.930 . S
C98 O112 1.275 . S
C98 O113 1.256 . S
C99 O114 1.259 . S
C99 O115 1.268 . S
C100 Ho89 2.811 1_565 S
C100 C101 1.488 . S
C100 O116 1.215 . S
C100 O117 1.289 . S
C101 C100 1.488 . S
C101 C102 1.348 . S
C101 C106 1.413 . S
C102 C101 1.348 . S
C102 C103 1.442 . S
C102 H124 0.930 . S
C103 C102 1.442 . S
C103 C104 1.381 . S
C103 H125 0.931 . S
C104 C103 1.381 . S
C104 C105 1.321 . S
C105 C104 1.321 . S
C105 C106 1.403 . S
C105 H126 0.934 . S
C106 C101 1.413 . S
C106 C105 1.403 . S
C106 H127 0.930 . S
C107 O118 1.275 . S
C107 O119 1.256 . S
O108 Ho88 2.322 . S
O108 C90 1.259 . S
O109 Ho89 2.346 1_455 S
O109 C90 1.268 . S
O110 Ho88 2.378 . S
O110 C91 1.215 . S
O111 Ho88 2.524 . S
O111 C91 1.289 . S
O112 Ho88 2.381 1_565 S
O112 C98 1.275 . S
O113 Ho88 2.669 1_565 S
O113 Ho89 2.305 1_465 S
O113 C98 1.256 . S
O114 Ho89 2.322 1_565 S
O114 C99 1.259 . S
O115 Ho88 2.346 1_665 S
O115 C99 1.268 . S
O116 Ho89 2.378 1_565 S
O116 C100 1.215 . S
O117 Ho89 2.524 1_565 S
O117 C100 1.289 . S
O118 Ho89 2.381 . S
O118 C107 1.275 . S
O119 Ho88 2.305 1_655 S
O119 Ho89 2.669 . S
O119 C107 1.256 . S
H120 C93 0.930 . S
H121 C94 0.931 . S
H122 C96 0.934 . S
H123 C97 0.930 . S
H124 C102 0.930 . S
H125 C103 0.931 . S
H126 C105 0.934 . S
H127 C106 0.930 . S
Ho128 C131 2.811 . S
Ho128 O148 2.322 . S
Ho128 O150 2.378 . S
Ho128 O151 2.524 . S
Ho128 O152 2.381 1_545 S
Ho128 O153 2.669 . S
Ho128 O155 2.346 . S
Ho128 O159 2.305 . S
Ho129 C140 2.811 1_544 S
Ho129 O149 2.346 . S
Ho129 O153 2.305 . S
Ho129 O154 2.322 . S
Ho129 O156 2.378 1_554 S
Ho129 O157 2.533 1_545 S
Ho129 O158 2.381 . S
Ho129 O159 2.669 . S
C130 O148 1.259 . S
C130 O149 1.268 . S
C131 Ho128 2.811 . S
C131 C132 1.488 . S
C131 O150 1.215 . S
C131 O151 1.289 . S
C132 C131 1.488 . S
C132 C133 1.348 . S
C132 C137 1.413 . S
C133 C132 1.348 . S
C133 C134 1.442 . S
C133 H160 0.930 . S
C134 C133 1.442 . S
C134 C135 1.381 . S
C134 H161 0.931 . S
C135 C134 1.381 . S
C135 C136 1.321 . S
C136 C135 1.321 . S
C136 C137 1.403 . S
C136 H162 0.934 . S
C137 C132 1.413 . S
C137 C136 1.403 . S
C137 H163 0.930 . S
C138 O152 1.275 . S
C138 O153 1.256 1_565 S
C139 O154 1.258 1_565 S
C139 O155 1.268 1_565 S
C140 Ho129 2.811 1_566 S
C140 C141 1.488 . S
C140 O156 1.215 1_565 S
C140 O157 1.269 1_556 S
C141 C140 1.488 . S
C141 C142 1.348 . S
C141 C146 1.413 . S
C142 C141 1.348 . S
C142 C143 1.442 . S
C142 H164 0.930 . S
C143 C142 1.442 . S
C143 C144 1.381 . S
C143 H165 0.931 . S
C144 C143 1.381 . S
C144 C145 1.321 . S
C145 C144 1.321 . S
C145 C146 1.403 . S
C145 H166 0.934 . S
C146 C141 1.413 . S
C146 C145 1.403 . S
C146 H167 0.930 1_565 S
C147 O158 1.275 . S
C147 O159 1.256 . S
O148 Ho128 2.322 . S
O148 C130 1.259 . S
O149 Ho129 2.346 . S
O149 C130 1.268 . S
O150 Ho128 2.378 . S
O150 C131 1.215 . S
O151 Ho128 2.524 . S
O151 C131 1.289 . S
O152 Ho128 2.381 1_565 S
O152 C138 1.275 . S
O153 Ho128 2.669 . S
O153 Ho129 2.305 . S
O153 C138 1.256 1_545 S
O154 Ho129 2.322 . S
O154 C139 1.258 1_545 S
O155 Ho128 2.346 . S
O155 C139 1.268 1_545 S
O156 Ho129 2.378 1_556 S
O156 C140 1.215 1_545 S
O157 Ho129 2.533 1_565 S
O157 C140 1.269 1_554 S
O158 Ho129 2.381 . S
O158 C147 1.275 . S
O159 Ho128 2.305 . S
O159 Ho129 2.669 . S
O159 C147 1.256 . S
H160 C133 0.930 . S
H161 C134 0.931 . S
H162 C136 0.934 . S
H163 C137 0.930 . S
H164 C142 0.930 . S
H165 C143 0.931 . S
H166 C145 0.934 . S
H167 C146 0.930 1_545 S
Ho168 C171 2.811 . S
Ho168 O188 2.322 . S
Ho168 O190 2.378 . S
Ho168 O191 2.524 . S
Ho168 O192 2.381 . S
Ho168 O193 2.669 . S
Ho168 O195 2.346 . S
Ho168 O199 2.305 . S
Ho169 C180 2.811 . S
Ho169 O189 2.346 . S
Ho169 O193 2.305 . S
Ho169 O194 2.322 . S
Ho169 O196 2.378 . S
Ho169 O197 2.524 . S
Ho169 O198 2.381 . S
Ho169 O199 2.669 . S
C170 O188 1.259 . S
C170 O189 1.268 . S
C171 Ho168 2.811 . S
C171 C172 1.488 . S
C171 O190 1.215 . S
C171 O191 1.289 . S
C172 C171 1.488 . S
C172 C173 1.348 . S
C172 C177 1.413 . S
C173 C172 1.348 . S
C173 C174 1.442 . S
C173 H200 0.930 . S
C174 C173 1.442 . S
C174 C175 1.381 . S
C174 H201 0.931 . S
C175 C174 1.381 . S
C175 C176 1.321 . S
C176 C175 1.321 . S
C176 C177 1.403 . S
C176 H202 0.934 . S
C177 C172 1.413 . S
C177 C176 1.403 . S
C177 H203 0.930 . S
C178 O192 1.275 . S
C178 O193 1.256 . S
C179 O194 1.259 . S
C179 O195 1.268 . S
C180 Ho169 2.811 . S
C180 C181 1.488 . S
C180 O196 1.215 . S
C180 O197 1.289 . S
C181 C180 1.488 . S
C181 C182 1.348 . S
C181 C186 1.413 . S
C182 C181 1.348 . S
C182 C183 1.442 . S
C182 H204 0.930 . S
C183 C182 1.442 . S
C183 C184 1.381 . S
C183 H205 0.931 . S
C184 C183 1.381 . S
C184 C185 1.321 . S
C185 C184 1.321 . S
C185 C186 1.403 . S
C185 H206 0.934 . S
C186 C181 1.413 . S
C186 C185 1.403 . S
C186 H207 0.930 . S
C187 O198 1.275 . S
C187 O199 1.256 . S
O188 Ho168 2.322 . S
O188 C170 1.259 . S
O189 Ho169 2.346 . S
O189 C170 1.268 . S
O190 Ho168 2.378 . S
O190 C171 1.215 . S
O191 Ho168 2.524 . S
O191 C171 1.289 . S
O192 Ho168 2.381 . S
O192 C178 1.275 . S
O193 Ho168 2.669 . S
O193 Ho169 2.305 . S
O193 C178 1.256 . S
O194 Ho169 2.322 . S
O194 C179 1.259 . S
O195 Ho168 2.346 . S
O195 C179 1.268 . S
O196 Ho169 2.378 . S
O196 C180 1.215 . S
O197 Ho169 2.524 . S
O197 C180 1.289 . S
O198 Ho169 2.381 . S
O198 C187 1.275 . S
O199 Ho168 2.305 . S
O199 Ho169 2.669 . S
O199 C187 1.256 . S
H200 C173 0.930 . S
H201 C174 0.931 . S
H202 C176 0.934 . S
H203 C177 0.930 . S
H204 C182 0.930 . S
H205 C183 0.931 . S
H206 C185 0.934 . S
H207 C186 0.930 . S
Ho208 C211 2.811 . S
Ho208 O228 2.322 . S
Ho208 O230 2.378 . S
Ho208 O231 2.524 . S
Ho208 O232 2.381 . S
Ho208 O233 2.669 . S
Ho208 O235 2.346 1_455 S
Ho208 O239 2.305 1_554 S
Ho209 C220 2.811 1_455 S
Ho209 O229 2.346 1_556 S
Ho209 O233 2.305 1_556 S
Ho209 O234 2.322 1_455 S
Ho209 O236 2.359 1_455 S
Ho209 O237 2.524 1_455 S
Ho209 O238 2.381 . S
Ho209 O239 2.669 . S
C210 O228 1.259 . S
C210 O229 1.268 . S
C211 Ho208 2.811 . S
C211 C212 1.488 . S
C211 O230 1.215 . S
C211 O231 1.289 . S
C212 C211 1.488 . S
C212 C213 1.348 . S
C212 C217 1.413 . S
C213 C212 1.348 . S
C213 C214 1.442 . S
C213 H240 0.930 . S
C214 C213 1.442 . S
C214 C215 1.381 . S
C214 H241 0.931 . S
C215 C214 1.381 . S
C215 C216 1.321 . S
C216 C215 1.321 . S
C216 C217 1.403 . S
C216 H242 0.934 . S
C217 C212 1.413 . S
C217 C216 1.403 . S
C217 H243 0.930 . S
C218 O232 1.275 1_655 S
C218 O233 1.256 1_655 S
C219 O234 1.259 . S
C219 O235 1.268 1_556 S
C220 Ho209 2.811 1_655 S
C220 C221 1.488 . S
C220 O236 1.246 . S
C220 O237 1.289 . S
C221 C220 1.488 . S
C221 C222 1.348 . S
C221 C226 1.413 . S
C222 C221 1.348 . S
C222 C223 1.442 . S
C222 H244 0.930 . S
C223 C222 1.442 . S
C223 C224 1.381 . S
C223 H245 0.931 . S
C224 C223 1.381 . S
C224 C225 1.321 . S
C225 C224 1.321 . S
C225 C226 1.403 . S
C225 H246 0.934 . S
C226 C221 1.413 . S
C226 C225 1.403 . S
C226 H247 0.930 . S
C227 O238 1.275 . S
C227 O239 1.256 . S
O228 Ho208 2.322 . S
O228 C210 1.259 . S
O229 Ho209 2.346 1_554 S
O229 C210 1.268 . S
O230 Ho208 2.378 . S
O230 C211 1.215 . S
O231 Ho208 2.524 . S
O231 C211 1.289 . S
O232 Ho208 2.381 . S
O232 C218 1.275 1_455 S
O233 Ho208 2.669 . S
O233 Ho209 2.305 1_554 S
O233 C218 1.256 1_455 S
O234 Ho209 2.322 1_655 S
O234 C219 1.259 . S
O235 Ho208 2.346 1_655 S
O235 C219 1.268 1_554 S
O236 Ho209 2.359 1_655 S
O236 C220 1.246 . S
O237 Ho209 2.524 1_655 S
O237 C220 1.289 . S
O238 Ho209 2.381 . S
O238 C227 1.275 . S
O239 Ho208 2.305 1_556 S
O239 Ho209 2.669 . S
O239 C227 1.256 . S
H240 C213 0.930 . S
H241 C214 0.931 . S
H242 C216 0.934 . S
H243 C217 0.930 . S
H244 C222 0.930 . S
H245 C223 0.931 . S
H246 C225 0.934 . S
H247 C226 0.930 . S
C248 C249 1.349 . S
C248 C250 1.327 . S
C248 H273 0.950 . S
C249 C248 1.349 . S
C249 C265 1.349 . S
C250 C248 1.327 . S
C250 C269 1.429 . S
C250 H274 0.950 . S
C251 C268 1.574 . S
C251 C270 1.368 . S
C251 H275 0.949 . S
H252 C256 0.949 . S
C253 C254 1.349 . S
C253 C255 1.327 . S
C253 H276 0.950 . S
C254 C253 1.349 . S
C254 C266 1.349 . S
C255 C253 1.327 . S
C255 C271 1.429 . S
C255 H277 0.950 . S
C256 H252 0.949 . S
C256 C264 1.574 . S
C256 C272 1.368 . S
H257 C265 0.950 . S
H258 C263 0.950 . S
H259 C264 0.949 . S
H260 C266 0.950 . S
H261 C267 0.950 . S
H262 C268 0.949 . S
C263 H258 0.950 . S
C263 C265 1.327 . S
C263 C269 1.429 . S
C264 C256 1.574 . S
C264 H259 0.949 . S
C264 C270 1.368 . S
C265 C249 1.349 . S
C265 H257 0.950 . S
C265 C263 1.327 . S
C266 C254 1.349 . S
C266 H260 0.950 . S
C266 C267 1.327 . S
C267 H261 0.950 . S
C267 C266 1.327 . S
C267 C271 1.429 . S
C268 C251 1.574 . S
C268 H262 0.949 . S
C268 C272 1.368 . S
C269 C250 1.429 . S
C269 C263 1.429 . S
C269 C270 1.523 . S
C270 C251 1.368 . S
C270 C264 1.368 . S
C270 C269 1.523 . S
C271 C255 1.429 . S
C271 C267 1.429 . S
C271 C272 1.523 . S
C272 C256 1.368 . S
C272 C268 1.368 . S
C272 C271 1.523 . S
H273 C248 0.950 . S
H274 C250 0.950 . S
H275 C251 0.949 . S
H276 C253 0.950 . S
H277 C255 0.950 . S
C278 C279 1.349 . S
C278 C280 1.327 . S
C278 H303 0.950 . S
C279 C278 1.349 . S
C279 C295 1.349 . S
C280 C278 1.327 . S
C280 C299 1.429 . S
C280 H304 0.950 . S
C281 C298 1.574 . S
C281 C300 1.368 . S
C281 H305 0.949 . S
H282 C286 0.949 . S
C283 C284 1.349 . S
C283 C285 1.327 . S
C283 H306 0.950 . S
C284 C283 1.349 . S
C284 C296 1.349 . S
C285 C283 1.327 . S
C285 C301 1.429 . S
C285 H307 0.950 . S
C286 H282 0.949 . S
C286 C294 1.574 . S
C286 C302 1.368 . S
H287 C295 0.950 . S
H288 C293 0.950 . S
H289 C294 0.949 . S
H290 C296 0.950 . S
H291 C297 0.950 . S
H292 C298 0.949 . S
C293 H288 0.950 . S
C293 C295 1.327 . S
C293 C299 1.429 . S
C294 C286 1.574 . S
C294 H289 0.949 . S
C294 C300 1.368 . S
C295 C279 1.349 . S
C295 H287 0.950 . S
C295 C293 1.327 . S
C296 C284 1.349 . S
C296 H290 0.950 . S
C296 C297 1.327 . S
C297 H291 0.950 . S
C297 C296 1.327 . S
C297 C301 1.429 . S
C298 C281 1.574 . S
C298 H292 0.949 . S
C298 C302 1.368 . S
C299 C280 1.429 . S
C299 C293 1.429 . S
C299 C300 1.523 . S
C300 C281 1.368 . S
C300 C294 1.368 . S
C300 C299 1.523 . S
C301 C285 1.429 . S
C301 C297 1.429 . S
C301 C302 1.523 . S
C302 C286 1.368 . S
C302 C298 1.368 . S
C302 C301 1.523 . S
H303 C278 0.950 . S
H304 C280 0.950 . S
H305 C281 0.949 . S
H306 C283 0.950 . S
H307 C285 0.950 . S
C308 C309 1.349 . S
C308 C310 1.327 . S
C308 H333 0.950 . S
C309 C308 1.349 . S
C309 C325 1.349 . S
C310 C308 1.327 . S
C310 C329 1.429 . S
C310 H334 0.950 . S
C311 C328 1.574 . S
C311 C330 1.368 . S
C311 H335 0.949 . S
H312 C316 0.949 . S
C313 C314 1.349 . S
C313 C315 1.327 . S
C313 H336 0.950 . S
C314 C313 1.349 . S
C314 C326 1.349 . S
C315 C313 1.327 . S
C315 C331 1.429 . S
C315 H337 0.950 . S
C316 H312 0.949 . S
C316 C324 1.574 . S
C316 C332 1.368 . S
H317 C325 0.950 . S
H318 C323 0.950 . S
H319 C324 0.949 . S
H320 C326 0.950 . S
H321 C327 0.950 . S
H322 C328 0.949 . S
C323 H318 0.950 . S
C323 C325 1.327 . S
C323 C329 1.429 . S
C324 C316 1.574 . S
C324 H319 0.949 . S
C324 C330 1.368 . S
C325 C309 1.349 . S
C325 H317 0.950 . S
C325 C323 1.327 . S
C326 C314 1.349 . S
C326 H320 0.950 . S
C326 C327 1.327 . S
C327 H321 0.950 . S
C327 C326 1.327 . S
C327 C331 1.429 . S
C328 C311 1.574 . S
C328 H322 0.949 . S
C328 C332 1.368 . S
C329 C310 1.429 . S
C329 C323 1.429 . S
C329 C330 1.523 . S
C330 C311 1.368 . S
C330 C324 1.368 . S
C330 C329 1.523 . S
C331 C315 1.429 . S
C331 C327 1.429 . S
C331 C332 1.523 . S
C332 C316 1.368 . S
C332 C328 1.368 . S
C332 C331 1.523 . S
H333 C308 0.950 . S
H334 C310 0.950 . S
H335 C311 0.949 . S
H336 C313 0.950 . S
H337 C315 0.950 . S
C338 C339 1.349 . S
C338 C340 1.327 . S
C338 H363 0.950 . S
C339 C338 1.349 . S
C339 C355 1.349 . S
C340 C338 1.327 . S
C340 C359 1.429 . S
C340 H364 0.950 . S
C341 C358 1.574 . S
C341 C360 1.368 . S
C341 H365 0.949 . S
H342 C346 0.949 . S
C343 C344 1.349 . S
C343 C345 1.327 . S
C343 H366 0.950 . S
C344 C343 1.349 . S
C344 C356 1.349 . S
C345 C343 1.327 . S
C345 C361 1.429 . S
C345 H367 0.950 . S
C346 H342 0.949 . S
C346 C354 1.574 . S
C346 C362 1.368 . S
H347 C355 0.950 . S
H348 C353 0.950 . S
H349 C354 0.949 . S
H350 C356 0.950 1_455 S
H351 C357 0.950 . S
H352 C358 0.949 . S
C353 H348 0.950 . S
C353 C355 1.327 . S
C353 C359 1.429 . S
C354 C346 1.574 . S
C354 H349 0.949 . S
C354 C360 1.368 . S
C355 C339 1.349 . S
C355 H347 0.950 . S
C355 C353 1.327 . S
C356 C344 1.349 . S
C356 H350 0.950 1_655 S
C356 C357 1.327 . S
C357 H351 0.950 . S
C357 C356 1.327 . S
C357 C361 1.429 . S
C358 C341 1.574 . S
C358 H352 0.949 . S
C358 C362 1.368 . S
C359 C340 1.429 . S
C359 C353 1.429 . S
C359 C360 1.523 . S
C360 C341 1.368 . S
C360 C354 1.368 . S
C360 C359 1.523 . S
C361 C345 1.429 . S
C361 C357 1.429 . S
C361 C362 1.523 . S
C362 C346 1.368 . S
C362 C358 1.368 . S
C362 C361 1.523 . S
H363 C338 0.950 . S
H364 C340 0.950 . S
H365 C341 0.949 . S
H366 C343 0.950 . S
H367 C345 0.950 . S
C368 C369 1.349 . S
C368 C370 1.327 . S
C368 H393 0.950 . S
C369 C368 1.349 . S
C369 C385 1.349 . S
C370 C368 1.327 . S
C370 C389 1.429 . S
C370 H394 0.950 . S
C371 C388 1.574 . S
C371 C390 1.368 . S
C371 H395 0.949 . S
H372 C376 0.949 . S
C373 C374 1.349 . S
C373 C375 1.327 . S
C373 H396 0.950 . S
C374 C373 1.349 . S
C374 C386 1.349 . S
C375 C373 1.327 . S
C375 C391 1.429 . S
C375 H397 0.950 . S
C376 H372 0.949 . S
C376 C384 1.574 . S
C376 C392 1.368 . S
H377 C385 0.950 . S
H378 C383 0.950 . S
H379 C384 0.949 . S
H380 C386 0.950 . S
H381 C387 0.950 . S
H382 C388 0.949 . S
C383 H378 0.950 . S
C383 C385 1.327 . S
C383 C389 1.429 . S
C384 C376 1.574 . S
C384 H379 0.949 . S
C384 C390 1.368 . S
C385 C369 1.349 . S
C385 H377 0.950 . S
C385 C383 1.327 . S
C386 C374 1.349 . S
C386 H380 0.950 . S
C386 C387 1.327 . S
C387 H381 0.950 . S
C387 C386 1.327 . S
C387 C391 1.429 . S
C388 C371 1.574 . S
C388 H382 0.949 . S
C388 C392 1.368 . S
C389 C370 1.429 . S
C389 C383 1.429 . S
C389 C390 1.523 . S
C390 C371 1.368 . S
C390 C384 1.368 . S
C390 C389 1.523 . S
C391 C375 1.429 . S
C391 C387 1.429 . S
C391 C392 1.523 . S
C392 C376 1.368 . S
C392 C388 1.368 . S
C392 C391 1.523 . S
H393 C368 0.950 . S
H394 C370 0.950 . S
H395 C371 0.949 . S
H396 C373 0.950 . S
H397 C375 0.950 . S
C398 C399 1.349 . S
C398 C400 1.327 . S
C398 H423 0.950 . S
C399 C398 1.349 . S
C399 C415 1.349 . S
C400 C398 1.327 . S
C400 C419 1.429 . S
C400 H424 0.950 . S
C401 C418 1.574 . S
C401 C420 1.368 . S
C401 H425 0.949 . S
H402 C406 0.949 . S
C403 C404 1.349 . S
C403 C405 1.327 . S
C403 H426 0.950 . S
C404 C403 1.349 . S
C404 C416 1.349 . S
C405 C403 1.327 . S
C405 C421 1.429 . S
C405 H427 0.950 . S
C406 H402 0.949 . S
C406 C414 1.574 . S
C406 C422 1.368 . S
H407 C415 0.950 . S
H408 C413 0.950 . S
H409 C414 0.949 . S
H410 C416 0.950 1_545 S
H411 C417 0.950 . S
H412 C418 0.949 . S
C413 H408 0.950 . S
C413 C415 1.327 . S
C413 C419 1.429 . S
C414 C406 1.574 . S
C414 H409 0.949 . S
C414 C420 1.368 . S
C415 C399 1.349 . S
C415 H407 0.950 . S
C415 C413 1.327 . S
C416 C404 1.349 . S
C416 H410 0.950 1_565 S
C416 C417 1.327 . S
C417 H411 0.950 . S
C417 C416 1.327 . S
C417 C421 1.429 . S
C418 C401 1.574 . S
C418 H412 0.949 . S
C418 C422 1.368 . S
C419 C400 1.429 . S
C419 C413 1.429 . S
C419 C420 1.523 . S
C420 C401 1.368 . S
C420 C414 1.368 . S
C420 C419 1.523 . S
C421 C405 1.429 . S
C421 C417 1.429 . S
C421 C422 1.523 . S
C422 C406 1.368 . S
C422 C418 1.368 . S
C422 C421 1.523 . S
H423 C398 0.950 . S
H424 C400 0.950 . S
H425 C401 0.949 . S
H426 C403 0.950 . S
H427 C405 0.950 . S
C428 C429 1.349 . S
C428 C430 1.327 . S
C428 H453 0.950 . S
C429 C428 1.349 . S
C429 C445 1.349 . S
C430 C428 1.327 . S
C430 C449 1.429 . S
C430 H454 0.950 . S
C431 C448 1.574 . S
C431 C450 1.368 . S
C431 H455 0.949 . S
H432 C436 0.949 . S
C433 C434 1.349 . S
C433 C435 1.327 . S
C433 H456 0.950 . S
C434 C433 1.349 . S
C434 C446 1.349 . S
C435 C433 1.327 . S
C435 C451 1.429 . S
C435 H457 0.950 . S
C436 H432 0.949 . S
C436 C444 1.574 . S
C436 C452 1.368 . S
H437 C445 0.950 . S
H438 C443 0.950 . S
H439 C444 0.949 . S
H440 C446 0.950 1_554 S
H441 C447 0.950 . S
H442 C448 0.949 . S
C443 H438 0.950 . S
C443 C445 1.327 . S
C443 C449 1.429 . S
C444 C436 1.574 . S
C444 H439 0.949 . S
C444 C450 1.368 . S
C445 C429 1.349 . S
C445 H437 0.950 . S
C445 C443 1.327 . S
C446 C434 1.349 . S
C446 H440 0.950 1_556 S
C446 C447 1.327 . S
C447 H441 0.950 . S
C447 C446 1.327 . S
C447 C451 1.429 . S
C448 C431 1.574 . S
C448 H442 0.949 . S
C448 C452 1.368 . S
C449 C430 1.429 . S
C449 C443 1.429 . S
C449 C450 1.523 . S
C450 C431 1.368 . S
C450 C444 1.368 . S
C450 C449 1.523 . S
C451 C435 1.429 . S
C451 C447 1.429 . S
C451 C452 1.523 . S
C452 C436 1.368 . S
C452 C448 1.368 . S
C452 C451 1.523 . S
H453 C428 0.950 . S
H454 C430 0.950 . S
H455 C431 0.949 . S
H456 C433 0.950 . S
H457 C435 0.950 . S
C458 C459 1.349 . S
C458 C460 1.327 . S
C458 H483 0.950 . S
C459 C458 1.349 . S
C459 C475 1.349 . S
C460 C458 1.327 . S
C460 C479 1.429 . S
C460 H484 0.950 . S
C461 C478 1.574 . S
C461 C480 1.368 . S
C461 H485 0.949 . S
H462 C466 0.949 . S
C463 C464 1.349 . S
C463 C465 1.327 . S
C463 H486 0.950 . S
C464 C463 1.349 . S
C464 C476 1.349 . S
C465 C463 1.327 . S
C465 C481 1.429 . S
C465 H487 0.950 . S
C466 H462 0.949 . S
C466 C474 1.574 . S
C466 C482 1.368 . S
H467 C475 0.950 . S
H468 C473 0.950 . S
H469 C474 0.949 . S
H470 C476 0.950 . S
H471 C477 0.950 . S
H472 C478 0.949 . S
C473 H468 0.950 . S
C473 C475 1.327 . S
C473 C479 1.429 . S
C474 C466 1.574 . S
C474 H469 0.949 . S
C474 C480 1.368 . S
C475 C459 1.349 . S
C475 H467 0.950 . S
C475 C473 1.327 . S
C476 C464 1.349 . S
C476 H470 0.950 . S
C476 C477 1.327 . S
C477 H471 0.950 . S
C477 C476 1.327 . S
C477 C481 1.429 . S
C478 C461 1.574 . S
C478 H472 0.949 . S
C478 C482 1.368 . S
C479 C460 1.429 . S
C479 C473 1.429 . S
C479 C480 1.523 . S
C480 C461 1.368 . S
C480 C474 1.368 . S
C480 C479 1.523 . S
C481 C465 1.429 . S
C481 C477 1.429 . S
C481 C482 1.523 . S
C482 C466 1.368 . S
C482 C478 1.368 . S
C482 C481 1.523 . S
H483 C458 0.950 . S
H484 C460 0.950 . S
H485 C461 0.949 . S
H486 C463 0.950 . S
H487 C465 0.950 . S
C488 C489 1.349 . S
C488 C490 1.327 . S
C488 H513 0.950 . S
C489 C488 1.349 . S
C489 C505 1.349 . S
C490 C488 1.327 . S
C490 C509 1.429 . S
C490 H514 0.950 . S
C491 C508 1.574 . S
C491 C510 1.368 . S
C491 H515 0.949 . S
H492 C496 0.949 . S
C493 C494 1.349 . S
C493 C495 1.327 . S
C493 H516 0.950 . S
C494 C493 1.349 . S
C494 C506 1.349 . S
C495 C493 1.327 . S
C495 C511 1.429 . S
C495 H517 0.950 . S
C496 H492 0.949 . S
C496 C504 1.574 . S
C496 C512 1.368 . S
H497 C505 0.950 . S
H498 C503 0.950 . S
H499 C504 0.949 . S
H500 C506 0.950 . S
H501 C507 0.950 . S
H502 C508 0.949 . S
C503 H498 0.950 . S
C503 C505 1.327 . S
C503 C509 1.429 . S
C504 C496 1.574 . S
C504 H499 0.949 . S
C504 C510 1.368 . S
C505 C489 1.349 . S
C505 H497 0.950 . S
C505 C503 1.327 . S
C506 C494 1.349 . S
C506 H500 0.950 . S
C506 C507 1.327 . S
C507 H501 0.950 . S
C507 C506 1.327 . S
C507 C511 1.429 . S
C508 C491 1.574 . S
C508 H502 0.949 . S
C508 C512 1.368 . S
C509 C490 1.429 . S
C509 C503 1.429 . S
C509 C510 1.523 . S
C510 C491 1.368 . S
C510 C504 1.368 . S
C510 C509 1.523 . S
C511 C495 1.429 . S
C511 C507 1.429 . S
C511 C512 1.523 . S
C512 C496 1.368 . S
C512 C508 1.368 . S
C512 C511 1.523 . S
H513 C488 0.950 . S
H514 C490 0.950 . S
H515 C491 0.949 . S
H516 C493 0.950 . S
H517 C495 0.950 . S
C518 C519 1.349 . S
C518 C520 1.327 . S
C518 H543 0.950 . S
C519 C518 1.349 . S
C519 C535 1.349 . S
C520 C518 1.327 . S
C520 C539 1.429 . S
C520 H544 0.950 . S
C521 C538 1.574 . S
C521 C540 1.368 . S
C521 H545 0.949 . S
H522 C526 0.949 . S
C523 C524 1.349 . S
C523 C525 1.327 . S
C523 H546 0.950 . S
C524 C523 1.349 . S
C524 C536 1.349 1_554 S
C525 C523 1.327 . S
C525 C541 1.429 1_554 S
C525 H547 0.950 . S
C526 H522 0.949 . S
C526 C534 1.574 . S
C526 C542 1.368 . S
H527 C535 0.950 . S
H528 C533 0.950 . S
H529 C534 0.949 . S
H530 C536 0.950 . S
H531 C537 0.950 . S
H532 C538 0.949 . S
C533 H528 0.950 . S
C533 C535 1.327 . S
C533 C539 1.429 . S
C534 C526 1.574 . S
C534 H529 0.949 . S
C534 C540 1.368 . S
C535 C519 1.349 . S
C535 H527 0.950 . S
C535 C533 1.327 . S
C536 C524 1.349 1_556 S
C536 H530 0.950 . S
C536 C537 1.327 . S
C537 H531 0.950 . S
C537 C536 1.327 . S
C537 C541 1.429 . S
C538 C521 1.574 . S
C538 H532 0.949 . S
C538 C542 1.368 . S
C539 C520 1.429 . S
C539 C533 1.429 . S
C539 C540 1.523 . S
C540 C521 1.368 . S
C540 C534 1.368 . S
C540 C539 1.523 . S
C541 C525 1.429 1_556 S
C541 C537 1.429 . S
C541 C542 1.523 . S
C542 C526 1.368 . S
C542 C538 1.368 . S
C542 C541 1.523 . S
H543 C518 0.950 . S
H544 C520 0.950 . S
H545 C521 0.949 . S
H546 C523 0.950 . S
H547 C525 0.950 . S
C548 C549 1.349 . S
C548 C550 1.327 . S
C548 H573 0.950 . S
C549 C548 1.349 . S
C549 C565 1.349 . S
C550 C548 1.327 . S
C550 C569 1.429 . S
C550 H574 0.950 . S
C551 C568 1.574 . S
C551 C570 1.368 . S
C551 H575 0.949 . S
H552 C556 0.949 . S
C553 C554 1.349 . S
C553 C555 1.327 . S
C553 H576 0.950 . S
C554 C553 1.349 . S
C554 C566 1.349 . S
C555 C553 1.327 . S
C555 C571 1.429 . S
C555 H577 0.950 . S
C556 H552 0.949 . S
C556 C564 1.574 . S
C556 C572 1.368 . S
H557 C565 0.950 . S
H558 C563 0.950 . S
H559 C564 0.949 . S
H560 C566 0.950 . S
H561 C567 0.950 . S
H562 C568 0.949 . S
C563 H558 0.950 . S
C563 C565 1.327 . S
C563 C569 1.429 . S
C564 C556 1.574 . S
C564 H559 0.949 . S
C564 C570 1.368 . S
C565 C549 1.349 . S
C565 H557 0.950 . S
C565 C563 1.327 . S
C566 C554 1.349 . S
C566 H560 0.950 . S
C566 C567 1.327 . S
C567 H561 0.950 . S
C567 C566 1.327 . S
C567 C571 1.429 . S
C568 C551 1.574 . S
C568 H562 0.949 . S
C568 C572 1.368 . S
C569 C550 1.429 . S
C569 C563 1.429 . S
C569 C570 1.523 . S
C570 C551 1.368 . S
C570 C564 1.368 . S
C570 C569 1.523 . S
C571 C555 1.429 . S
C571 C567 1.429 . S
C571 C572 1.523 . S
C572 C556 1.368 . S
C572 C568 1.368 . S
C572 C571 1.523 . S
H573 C548 0.950 . S
H574 C550 0.950 . S
H575 C551 0.949 . S
H576 C553 0.950 . S
H577 C555 0.950 . S
C578 C579 1.349 . S
C578 C580 1.327 . S
C578 H603 0.950 . S
C579 C578 1.349 . S
C579 C595 1.349 . S
C580 C578 1.327 . S
C580 C599 1.429 . S
C580 H604 0.950 . S
C581 C598 1.574 . S
C581 C600 1.368 . S
C581 H605 0.949 . S
H582 C586 0.949 . S
C583 C584 1.349 . S
C583 C585 1.327 . S
C583 H606 0.950 . S
C584 C583 1.349 . S
C584 C596 1.349 . S
C585 C583 1.327 . S
C585 C601 1.429 . S
C585 H607 0.950 . S
C586 H582 0.949 . S
C586 C594 1.574 . S
C586 C602 1.368 . S
H587 C595 0.950 . S
H588 C593 0.950 . S
H589 C594 0.949 . S
H590 C596 0.950 . S
H591 C597 0.950 . S
H592 C598 0.949 . S
C593 H588 0.950 . S
C593 C595 1.327 . S
C593 C599 1.429 . S
C594 C586 1.574 . S
C594 H589 0.949 . S
C594 C600 1.368 . S
C595 C579 1.349 . S
C595 H587 0.950 . S
C595 C593 1.327 . S
C596 C584 1.349 . S
C596 H590 0.950 . S
C596 C597 1.327 . S
C597 H591 0.950 . S
C597 C596 1.327 . S
C597 C601 1.429 . S
C598 C581 1.574 . S
C598 H592 0.949 . S
C598 C602 1.368 . S
C599 C580 1.429 . S
C599 C593 1.429 . S
C599 C600 1.523 . S
C600 C581 1.368 . S
C600 C594 1.368 . S
C600 C599 1.523 . S
C601 C585 1.429 . S
C601 C597 1.429 . S
C601 C602 1.523 . S
C602 C586 1.368 . S
C602 C598 1.368 . S
C602 C601 1.523 . S
H603 C578 0.950 . S
H604 C580 0.950 . S
H605 C581 0.949 . S
H606 C583 0.950 . S
H607 C585 0.950 . S
C608 C609 1.349 . S
C608 C610 1.327 . S
C608 H633 0.950 . S
C609 C608 1.349 . S
C609 C625 1.349 . S
C610 C608 1.327 . S
C610 C629 1.429 . S
C610 H634 0.950 . S
C611 C628 1.574 . S
C611 C630 1.368 . S
C611 H635 0.949 . S
H612 C616 0.949 . S
C613 C614 1.349 . S
C613 C615 1.327 . S
C613 H636 0.950 . S
C614 C613 1.349 . S
C614 C626 1.349 . S
C615 C613 1.327 . S
C615 C631 1.429 . S
C615 H637 0.950 . S
C616 H612 0.949 . S
C616 C624 1.574 . S
C616 C632 1.368 . S
H617 C625 0.950 . S
H618 C623 0.950 . S
H619 C624 0.949 . S
H620 C626 0.950 . S
H621 C627 0.950 . S
H622 C628 0.949 . S
C623 H618 0.950 . S
C623 C625 1.327 . S
C623 C629 1.429 . S
C624 C616 1.574 . S
C624 H619 0.949 . S
C624 C630 1.368 . S
C625 C609 1.349 . S
C625 H617 0.950 . S
C625 C623 1.327 . S
C626 C614 1.349 . S
C626 H620 0.950 . S
C626 C627 1.327 . S
C627 H621 0.950 . S
C627 C626 1.327 . S
C627 C631 1.429 . S
C628 C611 1.574 . S
C628 H622 0.949 . S
C628 C632 1.368 . S
C629 C610 1.429 . S
C629 C623 1.429 . S
C629 C630 1.523 . S
C630 C611 1.368 . S
C630 C624 1.368 . S
C630 C629 1.523 . S
C631 C615 1.429 . S
C631 C627 1.429 . S
C631 C632 1.523 . S
C632 C616 1.368 . S
C632 C628 1.368 . S
C632 C631 1.523 . S
H633 C608 0.950 . S
H634 C610 0.950 . S
H635 C611 0.949 . S
H636 C613 0.950 . S
H637 C615 0.950 . S
C638 C639 1.349 . S
C638 C640 1.327 . S
C638 H663 0.950 . S
C639 C638 1.349 . S
C639 C655 1.349 . S
C640 C638 1.327 . S
C640 C659 1.429 . S
C640 H664 0.950 . S
C641 C658 1.574 . S
C641 C660 1.368 . S
C641 H665 0.949 . S
H642 C646 0.949 . S
C643 C644 1.349 . S
C643 C645 1.327 . S
C643 H666 0.950 . S
C644 C643 1.349 . S
C644 C656 1.349 . S
C645 C643 1.327 . S
C645 C661 1.429 . S
C645 H667 0.950 . S
C646 H642 0.949 . S
C646 C654 1.574 . S
C646 C662 1.368 . S
H647 C655 0.950 . S
H648 C653 0.950 . S
H649 C654 0.949 . S
H650 C656 0.950 . S
H651 C657 0.950 . S
H652 C658 0.949 . S
C653 H648 0.950 . S
C653 C655 1.327 . S
C653 C659 1.429 . S
C654 C646 1.574 . S
C654 H649 0.949 . S
C654 C660 1.368 . S
C655 C639 1.349 . S
C655 H647 0.950 . S
C655 C653 1.327 . S
C656 C644 1.349 . S
C656 H650 0.950 . S
C656 C657 1.327 . S
C657 H651 0.950 . S
C657 C656 1.327 . S
C657 C661 1.429 . S
C658 C641 1.574 . S
C658 H652 0.949 . S
C658 C662 1.368 . S
C659 C640 1.429 . S
C659 C653 1.429 . S
C659 C660 1.523 . S
C660 C641 1.368 . S
C660 C654 1.368 . S
C660 C659 1.523 . S
C661 C645 1.429 . S
C661 C657 1.429 . S
C661 C662 1.523 . S
C662 C646 1.368 . S
C662 C658 1.368 . S
C662 C661 1.523 . S
H663 C638 0.950 . S
H664 C640 0.950 . S
H665 C641 0.949 . S
H666 C643 0.950 . S
H667 C645 0.950 . S
C668 C669 1.349 . S
C668 C670 1.327 . S
C668 H693 0.950 . S
C669 C668 1.349 . S
C669 C685 1.349 . S
C670 C668 1.327 . S
C670 C689 1.429 . S
C670 H694 0.950 . S
C671 C688 1.574 . S
C671 C690 1.368 . S
C671 H695 0.949 . S
H672 C676 0.949 . S
C673 C674 1.349 . S
C673 C675 1.327 . S
C673 H696 0.950 . S
C674 C673 1.349 . S
C674 C686 1.349 . S
C675 C673 1.327 . S
C675 C691 1.429 . S
C675 H697 0.950 . S
C676 H672 0.949 . S
C676 C684 1.574 . S
C676 C692 1.368 . S
H677 C685 0.950 . S
H678 C683 0.950 . S
H679 C684 0.949 . S
H680 C686 0.950 . S
H681 C687 0.950 . S
H682 C688 0.949 . S
C683 H678 0.950 . S
C683 C685 1.327 . S
C683 C689 1.429 . S
C684 C676 1.574 . S
C684 H679 0.949 . S
C684 C690 1.368 . S
C685 C669 1.349 . S
C685 H677 0.950 . S
C685 C683 1.327 . S
C686 C674 1.349 . S
C686 H680 0.950 . S
C686 C687 1.327 . S
C687 H681 0.950 . S
C687 C686 1.327 . S
C687 C691 1.429 . S
C688 C671 1.574 . S
C688 H682 0.949 . S
C688 C692 1.368 . S
C689 C670 1.429 . S
C689 C683 1.429 . S
C689 C690 1.523 . S
C690 C671 1.368 . S
C690 C684 1.368 . S
C690 C689 1.523 . S
C691 C675 1.429 . S
C691 C687 1.429 . S
C691 C692 1.523 . S
C692 C676 1.368 . S
C692 C688 1.368 . S
C692 C691 1.523 . S
H693 C668 0.950 . S
H694 C670 0.950 . S
H695 C671 0.949 . S
H696 C673 0.950 . S
H697 C675 0.950 . S
C698 C699 1.349 . S
C698 C700 1.327 . S
C698 H723 0.950 . S
C699 C698 1.349 . S
C699 C715 1.349 . S
C700 C698 1.327 . S
C700 C719 1.429 . S
C700 H724 0.950 . S
C701 C718 1.574 . S
C701 C720 1.368 . S
C701 H725 0.949 . S
H702 C706 0.949 . S
C703 C704 1.349 . S
C703 C705 1.327 . S
C703 H726 0.950 . S
C704 C703 1.349 . S
C704 C716 1.349 . S
C705 C703 1.327 . S
C705 C721 1.429 . S
C705 H727 0.950 . S
C706 H702 0.949 . S
C706 C714 1.574 . S
C706 C722 1.368 . S
H707 C715 0.950 . S
H708 C713 0.950 . S
H709 C714 0.949 . S
H710 C716 0.950 . S
H711 C717 0.950 . S
H712 C718 0.949 . S
C713 H708 0.950 . S
C713 C715 1.327 . S
C713 C719 1.429 . S
C714 C706 1.574 . S
C714 H709 0.949 . S
C714 C720 1.368 . S
C715 C699 1.349 . S
C715 H707 0.950 . S
C715 C713 1.327 . S
C716 C704 1.349 . S
C716 H710 0.950 . S
C716 C717 1.327 . S
C717 H711 0.950 . S
C717 C716 1.327 . S
C717 C721 1.429 . S
C718 C701 1.574 . S
C718 H712 0.949 . S
C718 C722 1.368 . S
C719 C700 1.429 . S
C719 C713 1.429 . S
C719 C720 1.523 . S
C720 C701 1.368 . S
C720 C714 1.368 . S
C720 C719 1.523 . S
C721 C705 1.429 . S
C721 C717 1.429 . S
C721 C722 1.523 . S
C722 C706 1.368 . S
C722 C718 1.368 . S
C722 C721 1.523 . S
H723 C698 0.950 . S
H724 C700 0.950 . S
H725 C701 0.949 . S
H726 C703 0.950 . S
H727 C705 0.950 . S
C728 C729 1.349 . S
C728 C730 1.327 . S
C728 H753 0.950 . S
C729 C728 1.349 . S
C729 C745 1.349 . S
C730 C728 1.327 . S
C730 C749 1.429 . S
C730 H754 0.950 . S
C731 C748 1.574 . S
C731 C750 1.368 . S
C731 H755 0.949 . S
H732 C736 0.949 . S
C733 C734 1.349 . S
C733 C735 1.327 . S
C733 H756 0.950 . S
C734 C733 1.349 . S
C734 C746 1.349 . S
C735 C733 1.327 . S
C735 C751 1.429 . S
C735 H757 0.950 . S
C736 H732 0.949 . S
C736 C744 1.574 . S
C736 C752 1.368 . S
H737 C745 0.950 . S
H738 C743 0.950 . S
H739 C744 0.949 . S
H740 C746 0.950 . S
H741 C747 0.950 . S
H742 C748 0.949 . S
C743 H738 0.950 . S
C743 C745 1.327 . S
C743 C749 1.429 . S
C744 C736 1.574 . S
C744 H739 0.949 . S
C744 C750 1.368 . S
C745 C729 1.349 . S
C745 H737 0.950 . S
C745 C743 1.327 . S
C746 C734 1.349 . S
C746 H740 0.950 . S
C746 C747 1.327 . S
C747 H741 0.950 . S
C747 C746 1.327 . S
C747 C751 1.429 . S
C748 C731 1.574 . S
C748 H742 0.949 . S
C748 C752 1.368 . S
C749 C730 1.429 . S
C749 C743 1.429 . S
C749 C750 1.523 . S
C750 C731 1.368 . S
C750 C744 1.368 . S
C750 C749 1.523 . S
C751 C735 1.429 . S
C751 C747 1.429 . S
C751 C752 1.523 . S
C752 C736 1.368 . S
C752 C748 1.368 . S
C752 C751 1.523 . S
H753 C728 0.950 . S
H754 C730 0.950 . S
H755 C731 0.949 . S
H756 C733 0.950 . S
H757 C735 0.950 . S
C758 C759 1.349 . S
C758 C760 1.327 . S
C758 H783 0.950 . S
C759 C758 1.349 . S
C759 C775 1.349 . S
C760 C758 1.327 . S
C760 C779 1.429 . S
C760 H784 0.950 . S
C761 C778 1.574 . S
C761 C780 1.368 . S
C761 H785 0.949 . S
H762 C766 0.949 . S
C763 C764 1.349 . S
C763 C765 1.327 . S
C763 H786 0.950 . S
C764 C763 1.349 . S
C764 C776 1.349 . S
C765 C763 1.327 . S
C765 C781 1.429 . S
C765 H787 0.950 . S
C766 H762 0.949 . S
C766 C774 1.574 . S
C766 C782 1.368 . S
H767 C775 0.950 . S
H768 C773 0.950 . S
H769 C774 0.949 . S
H770 C776 0.950 . S
H771 C777 0.950 . S
H772 C778 0.949 . S
C773 H768 0.950 . S
C773 C775 1.327 . S
C773 C779 1.429 . S
C774 C766 1.574 . S
C774 H769 0.949 . S
C774 C780 1.368 . S
C775 C759 1.349 . S
C775 H767 0.950 . S
C775 C773 1.327 . S
C776 C764 1.349 . S
C776 H770 0.950 . S
C776 C777 1.327 . S
C777 H771 0.950 . S
C777 C776 1.327 . S
C777 C781 1.429 . S
C778 C761 1.574 . S
C778 H772 0.949 . S
C778 C782 1.368 . S
C779 C760 1.429 . S
C779 C773 1.429 . S
C779 C780 1.523 . S
C780 C761 1.368 . S
C780 C774 1.368 . S
C780 C779 1.523 . S
C781 C765 1.429 . S
C781 C777 1.429 . S
C781 C782 1.523 . S
C782 C766 1.368 . S
C782 C778 1.368 . S
C782 C781 1.523 . S
H783 C758 0.950 . S
H784 C760 0.950 . S
H785 C761 0.949 . S
H786 C763 0.950 . S
H787 C765 0.950 . S
C788 C789 1.349 . S
C788 C790 1.327 . S
C788 H813 0.950 . S
C789 C788 1.349 . S
C789 C805 1.349 . S
C790 C788 1.327 . S
C790 C809 1.429 . S
C790 H814 0.950 . S
C791 C808 1.574 . S
C791 C810 1.368 . S
C791 H815 0.949 . S
H792 C796 0.949 . S
C793 C794 1.349 . S
C793 C795 1.327 . S
C793 H816 0.950 . S
C794 C793 1.349 . S
C794 C806 1.349 . S
C795 C793 1.327 . S
C795 C811 1.429 . S
C795 H817 0.950 . S
C796 H792 0.949 . S
C796 C804 1.574 . S
C796 C812 1.368 . S
H797 C805 0.950 . S
H798 C803 0.950 . S
H799 C804 0.949 . S
H800 C806 0.950 . S
H801 C807 0.950 . S
H802 C808 0.949 . S
C803 H798 0.950 . S
C803 C805 1.327 . S
C803 C809 1.429 . S
C804 C796 1.574 . S
C804 H799 0.949 . S
C804 C810 1.368 . S
C805 C789 1.349 . S
C805 H797 0.950 . S
C805 C803 1.327 . S
C806 C794 1.349 . S
C806 H800 0.950 . S
C806 C807 1.327 . S
C807 H801 0.950 . S
C807 C806 1.327 . S
C807 C811 1.429 . S
C808 C791 1.574 . S
C808 H802 0.949 . S
C808 C812 1.368 . S
C809 C790 1.429 . S
C809 C803 1.429 . S
C809 C810 1.523 . S
C810 C791 1.368 . S
C810 C804 1.368 . S
C810 C809 1.523 . S
C811 C795 1.429 . S
C811 C807 1.429 . S
C811 C812 1.523 . S
C812 C796 1.368 . S
C812 C808 1.368 . S
C812 C811 1.523 . S
H813 C788 0.950 . S
H814 C790 0.950 . S
H815 C791 0.949 . S
H816 C793 0.950 . S
H817 C795 0.950 . S
C818 C819 1.349 . S
C818 C820 1.327 . S
C818 H843 0.950 . S
C819 C818 1.349 . S
C819 C835 1.349 . S
C820 C818 1.327 . S
C820 C839 1.429 . S
C820 H844 0.950 . S
C821 C838 1.574 . S
C821 C840 1.368 . S
C821 H845 0.949 . S
H822 C826 0.949 . S
C823 C824 1.349 . S
C823 C825 1.327 . S
C823 H846 0.950 . S
C824 C823 1.349 . S
C824 C836 1.349 . S
C825 C823 1.327 . S
C825 C841 1.429 . S
C825 H847 0.950 . S
C826 H822 0.949 . S
C826 C834 1.574 . S
C826 C842 1.368 . S
H827 C835 0.950 . S
H828 C833 0.950 . S
H829 C834 0.949 . S
H830 C836 0.950 . S
H831 C837 0.950 . S
H832 C838 0.949 . S
C833 H828 0.950 . S
C833 C835 1.327 . S
C833 C839 1.429 . S
C834 C826 1.574 . S
C834 H829 0.949 . S
C834 C840 1.368 . S
C835 C819 1.349 . S
C835 H827 0.950 . S
C835 C833 1.327 . S
C836 C824 1.349 . S
C836 H830 0.950 . S
C836 C837 1.327 . S
C837 H831 0.950 . S
C837 C836 1.327 . S
C837 C841 1.429 . S
C838 C821 1.574 . S
C838 H832 0.949 . S
C838 C842 1.368 . S
C839 C820 1.429 . S
C839 C833 1.429 . S
C839 C840 1.523 . S
C840 C821 1.368 . S
C840 C834 1.368 . S
C840 C839 1.523 . S
C841 C825 1.429 . S
C841 C837 1.429 . S
C841 C842 1.523 . S
C842 C826 1.368 . S
C842 C838 1.368 . S
C842 C841 1.523 . S
H843 C818 0.950 . S
H844 C820 0.950 . S
H845 C821 0.949 . S
H846 C823 0.950 . S
H847 C825 0.950 . S
C848 C849 1.349 . S
C848 C850 1.327 . S
C848 H873 0.950 . S
C849 C848 1.349 . S
C849 C865 1.349 . S
C850 C848 1.327 . S
C850 C869 1.429 . S
C850 H874 0.950 . S
C851 C868 1.574 . S
C851 C870 1.368 . S
C851 H875 0.949 . S
H852 C856 0.949 . S
C853 C854 1.349 . S
C853 C855 1.327 . S
C853 H876 0.950 . S
C854 C853 1.349 . S
C854 C866 1.349 . S
C855 C853 1.327 . S
C855 C871 1.429 . S
C855 H877 0.950 . S
C856 H852 0.949 . S
C856 C864 1.574 . S
C856 C872 1.368 . S
H857 C865 0.950 . S
H858 C863 0.950 . S
H859 C864 0.949 . S
H860 C866 0.950 . S
H861 C867 0.950 . S
H862 C868 0.949 . S
C863 H858 0.950 . S
C863 C865 1.327 . S
C863 C869 1.429 . S
C864 C856 1.574 . S
C864 H859 0.949 . S
C864 C870 1.368 . S
C865 C849 1.349 . S
C865 H857 0.950 . S
C865 C863 1.327 . S
C866 C854 1.349 . S
C866 H860 0.950 . S
C866 C867 1.327 . S
C867 H861 0.950 . S
C867 C866 1.327 . S
C867 C871 1.429 . S
C868 C851 1.574 . S
C868 H862 0.949 . S
C868 C872 1.368 . S
C869 C850 1.429 . S
C869 C863 1.429 . S
C869 C870 1.523 . S
C870 C851 1.368 . S
C870 C864 1.368 . S
C870 C869 1.523 . S
C871 C855 1.429 . S
C871 C867 1.429 . S
C871 C872 1.523 . S
C872 C856 1.368 . S
C872 C868 1.368 . S
C872 C871 1.523 . S
H873 C848 0.950 . S
H874 C850 0.950 . S
H875 C851 0.949 . S
H876 C853 0.950 . S
H877 C855 0.950 . S
C878 C879 1.349 . S
C878 C880 1.327 . S
C878 H903 0.950 . S
C879 C878 1.349 . S
C879 C895 1.349 . S
C880 C878 1.327 . S
C880 C899 1.429 . S
C880 H904 0.950 . S
C881 C898 1.574 . S
C881 C900 1.368 . S
C881 H905 0.949 . S
H882 C886 0.949 . S
C883 C884 1.349 . S
C883 C885 1.327 . S
C883 H906 0.950 . S
C884 C883 1.349 . S
C884 C896 1.349 . S
C885 C883 1.327 . S
C885 C901 1.429 . S
C885 H907 0.950 . S
C886 H882 0.949 . S
C886 C894 1.574 . S
C886 C902 1.368 . S
H887 C895 0.950 . S
H888 C893 0.950 . S
H889 C894 0.949 . S
H890 C896 0.950 . S
H891 C897 0.950 . S
H892 C898 0.949 . S
C893 H888 0.950 . S
C893 C895 1.327 . S
C893 C899 1.429 . S
C894 C886 1.574 . S
C894 H889 0.949 . S
C894 C900 1.368 . S
C895 C879 1.349 . S
C895 H887 0.950 . S
C895 C893 1.327 . S
C896 C884 1.349 . S
C896 H890 0.950 . S
C896 C897 1.327 . S
C897 H891 0.950 . S
C897 C896 1.327 . S
C897 C901 1.429 . S
C898 C881 1.574 . S
C898 H892 0.949 . S
C898 C902 1.368 . S
C899 C880 1.429 . S
C899 C893 1.429 . S
C899 C900 1.523 . S
C900 C881 1.368 . S
C900 C894 1.368 . S
C900 C899 1.523 . S
C901 C885 1.429 . S
C901 C897 1.429 . S
C901 C902 1.523 . S
C902 C886 1.368 . S
C902 C898 1.368 . S
C902 C901 1.523 . S
H903 C878 0.950 . S
H904 C880 0.950 . S
H905 C881 0.949 . S
H906 C883 0.950 . S
H907 C885 0.950 . S
C908 C909 1.349 . S
C908 C910 1.327 . S
C908 H933 0.950 . S
C909 C908 1.349 . S
C909 C925 1.349 . S
C910 C908 1.327 . S
C910 C929 1.429 . S
C910 H934 0.950 . S
C911 C928 1.574 . S
C911 C930 1.368 . S
C911 H935 0.949 . S
H912 C916 0.949 . S
C913 C914 1.349 . S
C913 C915 1.327 . S
C913 H936 0.950 . S
C914 C913 1.349 . S
C914 C926 1.349 . S
C915 C913 1.327 . S
C915 C931 1.429 . S
C915 H937 0.950 . S
C916 H912 0.949 . S
C916 C924 1.574 . S
C916 C932 1.368 . S
H917 C925 0.950 . S
H918 C923 0.950 . S
H919 C924 0.949 . S
H920 C926 0.950 . S
H921 C927 0.950 . S
H922 C928 0.949 . S
C923 H918 0.950 . S
C923 C925 1.327 . S
C923 C929 1.429 . S
C924 C916 1.574 . S
C924 H919 0.949 . S
C924 C930 1.368 . S
C925 C909 1.349 . S
C925 H917 0.950 . S
C925 C923 1.327 . S
C926 C914 1.349 . S
C926 H920 0.950 . S
C926 C927 1.327 . S
C927 H921 0.950 . S
C927 C926 1.327 . S
C927 C931 1.429 . S
C928 C911 1.574 . S
C928 H922 0.949 . S
C928 C932 1.368 . S
C929 C910 1.429 . S
C929 C923 1.429 . S
C929 C930 1.523 . S
C930 C911 1.368 . S
C930 C924 1.368 . S
C930 C929 1.523 . S
C931 C915 1.429 . S
C931 C927 1.429 . S
C931 C932 1.523 . S
C932 C916 1.368 . S
C932 C928 1.368 . S
C932 C931 1.523 . S
H933 C908 0.950 . S
H934 C910 0.950 . S
H935 C911 0.949 . S
H936 C913 0.950 . S
H937 C915 0.950 . S
C938 C939 1.349 . S
C938 C940 1.327 . S
C938 H963 0.950 . S
C939 C938 1.349 . S
C939 C955 1.349 . S
C940 C938 1.327 . S
C940 C959 1.429 . S
C940 H964 0.950 . S
C941 C958 1.574 . S
C941 C960 1.368 . S
C941 H965 0.949 . S
H942 C946 0.949 . S
C943 C944 1.349 . S
C943 C945 1.327 . S
C943 H966 0.950 . S
C944 C943 1.349 . S
C944 C956 1.349 . S
C945 C943 1.327 . S
C945 C961 1.429 . S
C945 H967 0.950 . S
C946 H942 0.949 . S
C946 C954 1.574 . S
C946 C962 1.368 . S
H947 C955 0.950 . S
H948 C953 0.950 . S
H949 C954 0.949 . S
H950 C956 0.950 . S
H951 C957 0.950 . S
H952 C958 0.949 . S
C953 H948 0.950 . S
C953 C955 1.327 . S
C953 C959 1.429 . S
C954 C946 1.574 . S
C954 H949 0.949 . S
C954 C960 1.368 . S
C955 C939 1.349 . S
C955 H947 0.950 . S
C955 C953 1.327 . S
C956 C944 1.349 . S
C956 H950 0.950 . S
C956 C957 1.327 . S
C957 H951 0.950 . S
C957 C956 1.327 . S
C957 C961 1.429 . S
C958 C941 1.574 . S
C958 H952 0.949 . S
C958 C962 1.368 . S
C959 C940 1.429 . S
C959 C953 1.429 . S
C959 C960 1.523 . S
C960 C941 1.368 . S
C960 C954 1.368 . S
C960 C959 1.523 . S
C961 C945 1.429 . S
C961 C957 1.429 . S
C961 C962 1.523 . S
C962 C946 1.368 . S
C962 C958 1.368 . S
C962 C961 1.523 . S
H963 C938 0.950 . S
H964 C940 0.950 . S
H965 C941 0.949 . S
H966 C943 0.950 . S
H967 C945 0.950 . S
C249 C5 1.025 . S
C254 C95 1.284 . S
C279 C18 1.008 . S
C284 C144 1.070 . S
C314 C170 2.268 . S
C309 C30 2.296 . S
C339 C41 1.932 . S
C344 C218 1.891 . S
C374 C130 2.473 . S
C369 C7 2.304 . S
C404 C98 1.072 . S
C399 C16 0.963 . S
C434 C219 1.905 . S
C429 C29 1.860 . S
C464 C187 1.050 . S
C459 C38 0.972 . S
C489 C8 1.596 . S
C494 C215 1.671 . S
C524 C147 2.573 . S
C519 C27 2.387 . S
C549 C40 2.416 . S
C554 C99 2.445 . S
C579 C19 0.511 . S
C584 C184 0.495 . S
C614 C104 1.120 . S
C609 C51 1.006 . S
C639 C62 1.365 . S
C644 C135 1.361 . S
C669 C74 2.386 . S
C674 C179 2.370 . S
C699 C84 2.076 . S
C704 C227 2.134 . S
C729 C49 2.161 . S
C734 C139 2.705 1_556 S
C764 C107 1.030 . S
C759 C63 1.043 . S
C794 C210 1.771 . S
C789 C71 1.629 . S
C824 C178 1.186 . S
C819 C85 1.191 . S
C849 C52 1.565 . S
C854 C224 1.647 . S
C884 C138 2.634 . S
C879 C73 2.665 . S
C914 C90 1.879 . S
C909 C82 1.608 . S
C939 C60 0.746 . S
C944 C175 0.740 . S
