# Generated by pormake.
# Topology scu, (8,4)-cn, num edge types: 1
# Building blocks:
#     Node 0, Type 0, BuildingBlock: TAGTUT_clean_sbu_3, # of connection points: 8
#     Node 1, Type 1, BuildingBlock: MUDLON_clean_sbu_0, # of connection points: 4
#     Node 2, Type 1, BuildingBlock: MUDLON_clean_sbu_0, # of connection points: 4
#     Edge 3, Type (0, 1), BuildingBlock: XUDNAN_clean_linker_2, # of connection points: 2
#     Edge 4, Type (0, 1), BuildingBlock: XUDNAN_clean_linker_2, # of connection points: 2
#     Edge 5, Type (0, 1), BuildingBlock: XUDNAN_clean_linker_2, # of connection points: 2
#     Edge 6, Type (0, 1), BuildingBlock: XUDNAN_clean_linker_2, # of connection points: 2
#     Edge 7, Type (0, 1), BuildingBlock: XUDNAN_clean_linker_2, # of connection points: 2
#     Edge 8, Type (0, 1), BuildingBlock: XUDNAN_clean_linker_2, # of connection points: 2
#     Edge 9, Type (0, 1), BuildingBlock: XUDNAN_clean_linker_2, # of connection points: 2
#     Edge 10, Type (0, 1), BuildingBlock: XUDNAN_clean_linker_2, # of connection points: 2
# Relax obj value: 0.056
# Max RMSD: 0.124
# Mean RMSD: 0.086
data_MOF--net-scu--node1-TAGTUT_clean_sbu_3--node2-MUDLON_clean_sbu_0--edge1-XUDNAN_clean_linker_2
_symmetry_space_group_name_H-M    P1
_symmetry_Int_Tables_number       1
_symmetry_cell_setting            triclinic
loop_
_symmetry_equiv_pos_as_xyz
'x, y, z'
_cell_length_a     26.483172
_cell_length_b     22.552552
_cell_length_c     20.745184
_cell_angle_alpha  90.644236
_cell_angle_beta   90.497105
_cell_angle_gamma 90.104598
loop_
_atom_site_label
_atom_site_type_symbol
_atom_site_fract_x
_atom_site_fract_y
_atom_site_fract_z
_atom_type_partial_charge
C0 C 0.99113 0.8809 0.07902 0.0
C1 C 0.81981 0.9857 0.08083 0.0
C2 C 0.86739 0.06331 0.90027 0.0
Mg3 Mg 0.09964 0.9197 0.02326 0.0
Mg4 Mg 0.13075 0.05826 0.98665 0.0
O5 O 0.08338 0.9963 0.97979 0.0
Mg6 Mg 1.01173 0.00473 0.00733 0.0
O7 O 0.93981 0.00693 0.03427 0.0
Mg8 Mg 0.91209 0.94155 0.97806 0.0
Mg9 Mg 0.90223 0.0772 0.04185 0.0
C10 C 0.03698 0.12623 0.92425 0.0
O11 O 0.029 0.07217 0.08898 0.0
O12 O 0.17513 0.92045 0.96442 0.0
O13 O 0.95918 0.12936 0.09567 0.0
O14 O 0.1394 0.96862 0.10948 0.0
O15 O 0.19069 0.01444 0.93517 0.0
O16 O 0.15373 0.06389 0.08618 0.0
O17 O 0.99015 0.93951 0.92558 0.0
O18 O 0.05635 0.87851 0.93829 0.0
C19 C 1.0152 0.89289 0.90929 0.0
C20 C 0.20177 0.95909 0.93453 0.0
O21 O 1.00614 0.08516 0.94075 0.0
O22 O 0.83866 0.94811 0.04054 0.0
O23 O 0.08398 0.12631 0.94075 0.0
O24 O 0.87752 0.00807 0.90578 0.0
O25 O 0.8393 0.03716 0.09092 0.0
O26 O 0.87673 0.10034 0.94596 0.0
O27 O 0.02183 0.92462 0.07331 0.0
O28 O 0.94842 0.87935 0.04976 0.0
C29 C 0.1557 0.02047 0.12507 0.0
C30 C 1.00509 0.11727 0.11167 0.0
Mg31 Mg 1.01333 0.50978 0.49323 0.0
C32 C 0.08038 0.40738 0.44757 0.0
O33 O 0.07668 0.38952 0.50738 0.0
C34 C 0.04973 0.63626 0.53109 0.0
O35 O 0.04875 0.64682 0.46894 0.0
C36 C 1.00565 0.44514 0.61344 0.0
O37 O 0.04573 0.47902 0.62093 0.0
O38 O 0.98021 0.44887 0.56134 0.0
O39 O 0.06403 0.45847 0.43276 0.0
O40 O 0.96336 0.54556 0.42043 0.0
C41 C 0.94619 0.59809 0.42263 0.0
O42 O 0.94374 0.62575 0.47858 0.0
O43 O 0.04279 0.58367 0.55067 0.0
Mg44 Mg 0.51175 0.01919 0.51326 0.0
C45 C 0.40774 0.0224 0.46466 0.0
O46 O 0.41127 0.97397 0.4988 0.0
C47 C 0.60611 0.0461 0.5751 0.0
O48 O 0.60438 0.98885 0.56275 0.0
C49 C 0.46769 0.92446 0.6118 0.0
O50 O 0.47868 0.88125 0.57134 0.0
O51 O 0.47931 0.97756 0.59809 0.0
O52 O 0.44665 0.05543 0.4601 0.0
O53 O 0.55719 0.96846 0.44496 0.0
C54 C 0.54306 0.95013 0.38948 0.0
O55 O 0.49503 0.95226 0.37342 0.0
O56 O 0.56859 0.07765 0.55766 0.0
H57 H 0.98973 0.23565 0.13446 0.0
H58 H 0.07776 0.08532 0.1987 0.0
H59 H 0.11679 0.1476 0.28446 0.0
H60 H 0.08842 0.34978 0.16888 0.0
H61 H 0.04229 0.40363 0.19438 0.0
H62 H 0.02586 0.34871 0.13392 0.0
H63 H 0.9501 0.31486 0.20289 0.0
H64 H 0.96616 0.36972 0.26317 0.0
H65 H 0.96099 0.29285 0.28513 0.0
H66 H 0.13553 0.22252 0.37331 0.0
H67 H 0.13557 0.3047 0.4536 0.0
H68 H 0.04021 0.40781 0.32634 0.0
C69 C 1.01778 0.21614 0.16601 0.0
C70 C 0.03099 0.15577 0.15983 0.0
C71 C 0.06777 0.13174 0.20203 0.0
C72 C 0.08999 0.16676 0.25098 0.0
C73 C 0.07562 0.22606 0.25638 0.0
C74 C 0.04087 0.25074 0.21438 0.0
C75 C 0.02992 0.31464 0.23227 0.0
C76 C 0.0477 0.35667 0.1792 0.0
C77 C 0.97347 0.32349 0.24675 0.0
C78 C 0.06213 0.32135 0.29256 0.0
C79 C 0.08846 0.26994 0.30564 0.0
C80 C 0.1162 0.26355 0.36267 0.0
C81 C 0.11606 0.31039 0.40799 0.0
C82 C 0.08886 0.36307 0.39563 0.0
C83 C 0.06279 0.36893 0.33631 0.0
H84 H 0.79352 0.02745 0.19997 0.0
H85 H 0.74584 0.90444 0.04907 0.0
H86 H 0.67104 0.87742 0.11359 0.0
H87 H 0.75658 0.9353 0.33361 0.0
H88 H 0.73685 -0.00253 0.38255 0.0
H89 H 0.78624 0.00667 0.32432 0.0
H90 H 0.73611 0.09207 0.27112 0.0
H91 H 0.68677 0.08336 0.32937 0.0
H92 H 0.67202 0.07913 0.24446 0.0
H93 H 0.59742 0.87044 0.19246 0.0
H94 H 0.5354 0.8793 0.28108 0.0
H95 H 0.63645 0.00019 0.38285 0.0
C96 C 0.76733 0.99487 0.18035 0.0
C97 C 0.77521 0.96846 0.11918 0.0
C98 C 0.74047 0.92531 0.09577 0.0
C99 C 0.6979 0.90973 0.13208 0.0
C100 C 0.69121 0.93683 0.19222 0.0
C101 C 0.72541 0.97796 0.21641 0.0
C102 C 0.71015 0.0004 0.28243 0.0
C103 C 0.74982 0.98395 0.33375 0.0
C104 C 0.70069 0.06771 0.28176 0.0
C105 C 0.66156 0.96621 0.29142 0.0
C106 C 0.65088 0.93009 0.23876 0.0
C107 C 0.60593 0.89774 0.23441 0.0
C108 C 0.57094 0.90297 0.28487 0.0
C109 C 0.58158 0.93938 0.33936 0.0
C110 C 0.62784 0.97063 0.34271 0.0
H111 H 0.99687 0.88456 0.2099 0.0
H112 H 1.002 0.76639 0.04416 0.0
H113 H 0.99027 0.68025 0.11509 0.0
H114 H 0.05832 0.78057 0.32884 0.0
H115 H 1.0173 0.8054 0.3925 0.0
H116 H 0.03533 0.85577 0.3299 0.0
H117 H 0.9406 0.87575 0.30664 0.0
H118 H 0.92231 0.82367 0.3673 0.0
H119 H 0.8995 0.81456 0.28566 0.0
H120 H 0.9665 0.6093 0.20068 0.0
H121 H 0.94532 0.55477 0.2992 0.0
H122 H 0.95312 0.71912 0.41009 0.0
C123 C 0.99826 0.84023 0.18934 0.0
C124 C 1.00191 0.83146 0.12212 0.0
C125 C 1.00077 0.77336 0.09591 0.0
C126 C 0.99354 0.7244 0.13569 0.0
C127 C 0.98723 0.73457 0.20147 0.0
C128 C 0.9906 0.79082 0.2285 0.0
C129 C 0.97886 0.78974 0.29993 0.0
C130 C 0.02522 0.80899 0.34017 0.0
C131 C 0.93257 0.82822 0.31575 0.0
C132 C 0.96736 0.72443 0.30833 0.0
C133 C 0.97241 0.69352 0.25091 0.0
C134 C 0.96305 0.63286 0.24616 0.0
C135 C 0.95053 0.60238 0.30228 0.0
C136 C 0.94744 0.63258 0.3624 0.0
C137 C 0.95462 0.69475 0.36487 0.0
H138 H 0.24144 0.08388 0.15198 0.0
H139 H 0.12759 0.97329 0.23957 0.0
H140 H 0.17459 0.97773 0.34298 0.0
H141 H 0.34277 0.01214 0.2197 0.0
H142 H 0.38227 0.0766 0.23155 0.0
H143 H 0.33496 0.07588 0.16889 0.0
H144 H 0.2957 0.17174 0.21651 0.0
H145 H 0.34306 0.17286 0.27951 0.0
H146 H 0.27703 0.17387 0.29985 0.0
H147 H 0.23761 0.98318 0.43113 0.0
H148 H 0.31522 0.9823 0.49685 0.0
H149 H 0.39237 0.08517 0.35201 0.0
C150 C 0.2257 0.06236 0.19369 0.0
C151 C 0.18054 0.02904 0.18845 0.0
C152 C 0.16191 -0.00059 0.24302 0.0
C153 C 0.18819 0.00205 0.30193 0.0
C154 C 0.23333 0.03398 0.30522 0.0
C155 C 0.25217 0.06344 0.25254 0.0
C156 C 0.30487 0.08741 0.26645 0.0
C157 C 0.34347 0.06143 0.21884 0.0
C158 C 0.30517 0.15553 0.26553 0.0
C159 C 0.31357 0.06461 0.3342 0.0
C160 C 0.27116 0.03532 0.35601 0.0
C161 C 0.27076 0.00666 0.41499 0.0
C162 C 0.3152 0.00627 0.45187 0.0
C163 C 0.35983 0.03381 0.42963 0.0
C164 C 0.35857 0.06482 0.37079 0.0
H165 H 0.03444 0.77722 0.88292 0.0
H166 H 0.97346 0.93688 0.79795 0.0
H167 H 0.97639 0.8889 0.6899 0.0
H168 H 0.12143 0.74551 0.76541 0.0
H169 H 0.11382 0.66609 0.76665 0.0
H170 H 0.10079 0.70958 0.8378 0.0
H171 H 1.01011 0.66653 0.84267 0.0
H172 H 0.02334 0.62136 0.7727 0.0
H173 H 0.96962 0.67031 0.77253 0.0
H174 H 0.99737 0.82695 0.58963 0.0
H175 H 0.0199 0.75069 0.50818 0.0
H176 H 0.06593 0.6322 0.66111 0.0
C177 C 0.02023 0.80146 0.8418 0.0
C178 C 1.00359 0.86061 0.84863 0.0
C179 C 0.98568 0.89119 0.79379 0.0
C180 C 0.98777 0.8645 0.73221 0.0
C181 C 1.00716 0.80711 0.72681 0.0
C182 C 0.02176 0.77546 0.7805 0.0
C183 C 0.04261 0.71526 0.76218 0.0
C184 C 0.09793 0.70879 0.78433 0.0
C185 C 1.00943 0.66542 0.7891 0.0
C186 C 0.03853 0.71819 0.68961 0.0
C187 C 0.01833 0.77155 0.66988 0.0
C188 C 1.0126 0.78477 0.6047 0.0
C189 C 0.0261 0.74145 0.55874 0.0
C190 C 0.04475 0.68552 0.57831 0.0
C191 C 0.05177 0.67449 0.64463 0.0
H192 H 0.27392 0.02856 0.87903 0.0
H193 H 0.22786 0.84496 0.89934 0.0
H194 H 0.29618 0.814 0.82567 0.0
H195 H 0.29923 0.02197 0.71454 0.0
H196 H 0.35291 0.07115 0.71867 0.0
H197 H 0.30368 0.07758 0.77747 0.0
H198 H 0.36958 0.06494 0.86946 0.0
H199 H 0.41911 0.0585 0.81079 0.0
H200 H 0.41028 0.00095 0.86925 0.0
H201 H 0.3654 0.80478 0.74066 0.0
H202 H 0.42878 0.81844 0.65487 0.0
H203 H 0.42922 0.00788 0.69419 0.0
C204 C 0.27848 0.98168 0.86888 0.0
C205 C 0.24539 0.93924 0.89518 0.0
C206 C 0.25283 0.87837 0.88021 0.0
C207 C 0.29156 0.86035 0.83833 0.0
C208 C 0.32292 0.90361 0.81238 0.0
C209 C 0.31694 0.96299 0.82766 0.0
C210 C 0.35374 0.00127 0.79133 0.0
C211 C 0.3257 0.04557 0.74794 0.0
C212 C 0.39035 0.03329 0.838 0.0
C213 C 0.38065 0.95442 0.7519 0.0
C214 C 0.36274 0.89825 0.76475 0.0
C215 C 0.38015 0.84853 0.73096 0.0
C216 C 0.41619 0.85669 0.6823 0.0
C217 C 0.43434 0.91414 0.66786 0.0
C218 C 0.41674 0.9632 0.70424 0.0
H219 H 0.08108 0.23377 0.90054 0.0
H220 H 0.95141 0.12472 0.8493 0.0
H221 H 0.92344 0.19992 0.77142 0.0
H222 H 1.01766 0.37884 0.88271 0.0
H223 H 0.07328 0.41262 0.84953 0.0
H224 H 0.07945 0.35337 0.90663 0.0
H225 H 0.13378 0.29402 0.82504 0.0
H226 H 0.1277 0.35289 0.76779 0.0
H227 H 0.10886 0.27857 0.74544 0.0
H228 H 0.91538 0.28199 0.68985 0.0
H229 H 0.92706 0.36488 0.61404 0.0
H230 H 0.0612 0.41998 0.7207 0.0
C231 C 0.04635 0.22612 0.87374 0.0
C232 C 0.01813 0.17361 0.88157 0.0
C233 C 0.97309 0.16514 0.84514 0.0
C234 C 0.95701 0.20753 0.8005 0.0
C235 C 0.98621 0.25841 0.79322 0.0
C236 C 0.02969 0.26806 0.82929 0.0
C237 C 0.056 0.32451 0.80974 0.0
C238 C 0.05661 0.37003 0.86548 0.0
C239 C 0.10974 0.31169 0.78555 0.0
C240 C 0.02154 0.34406 0.75554 0.0
C241 C 0.98122 0.30577 0.74695 0.0
C242 C 0.94635 0.31285 0.6968 0.0
C243 C 0.9533 0.35994 0.65394 0.0
C244 C 0.99485 0.39908 0.66161 0.0
C245 C 0.0287 0.39133 0.71383 0.0
H246 H 0.84801 -0.00063 0.79017 0.0
H247 H 0.81851 0.16963 0.88145 0.0
H248 H 0.75527 0.19156 0.79668 0.0
H249 H 0.8255 0.04756 0.61879 0.0
H250 H 0.79642 0.97734 0.59873 0.0
H251 H 0.84614 0.98108 0.65856 0.0
H252 H 0.78744 0.93041 0.74074 0.0
H253 H 0.73749 0.92707 0.68176 0.0
H254 H 0.72698 0.96316 0.75843 0.0
H255 H 0.68394 0.18621 0.71269 0.0
H256 H 0.61559 0.15531 0.63672 0.0
H257 H 0.69396 0.98952 0.60171 0.0
C258 C 0.82952 0.04215 0.79134 0.0
C259 C 0.83823 0.08264 0.84269 0.0
C260 C 0.81277 0.13791 0.84249 0.0
C261 C 0.77667 0.15077 0.79447 0.0
C262 C 0.76708 0.10838 0.74635 0.0
C263 C 0.79361 0.0556 0.74393 0.0
C264 C 0.7732 0.01465 0.69169 0.0
C265 C 0.81267 0.00459 0.6388 0.0
C266 C 0.7552 0.95538 0.71987 0.0
C267 C 0.72938 0.05116 0.66717 0.0
C268 C 0.72667 0.10554 0.69828 0.0
C269 C 0.68641 0.14427 0.68708 0.0
C270 C 0.64771 0.12641 0.64389 0.0
C271 C 0.64941 0.07008 0.61317 0.0
C272 C 0.69154 0.03304 0.62405 0.0
loop_
_geom_bond_atom_site_label_1
_geom_bond_atom_site_label_2
_geom_bond_distance
_geom_bond_site_symmetry_2
_ccdc_geom_bond_type
C0 O27 1.312 1_655 S
C0 O28 1.208 . S
C1 O22 1.331 . S
C1 O25 1.244 1_565 S
C2 O24 1.264 1_545 S
C2 O26 1.273 . S
Mg3 O5 1.936 1_565 S
Mg3 O12 2.081 . S
Mg3 O14 2.023 1_556 S
Mg3 O18 2.031 . S
Mg3 O27 2.291 1_556 S
Mg4 O5 1.963 . S
Mg4 O15 1.942 . S
Mg4 O16 1.955 1_556 S
Mg4 O23 1.986 . S
O5 Mg3 1.936 1_545 S
O5 Mg4 1.963 . S
O5 Mg6 1.912 1_556 S
Mg6 O5 1.912 1_554 S
Mg6 O7 1.919 1_455 S
Mg6 O11 2.021 . S
Mg6 O17 2.107 1_444 S
Mg6 O21 2.004 1_454 S
Mg6 O27 2.121 1_545 S
O7 Mg6 1.919 1_655 S
O7 Mg8 1.936 1_545 S
O7 Mg9 1.963 . S
Mg8 O7 1.936 1_565 S
Mg8 O17 2.291 1_554 S
Mg8 O22 2.081 . S
Mg8 O24 2.023 1_554 S
Mg8 O28 2.031 . S
Mg9 O7 1.963 . S
Mg9 O13 1.986 . S
Mg9 O25 1.942 . S
Mg9 O26 1.955 1_554 S
C10 O21 1.191 1_455 S
C10 O23 1.307 . S
O11 Mg6 2.021 . S
O11 C30 1.191 1_455 S
O12 Mg3 2.081 . S
O12 C20 1.331 . S
O13 Mg9 1.986 . S
O13 C30 1.307 . S
O14 Mg3 2.023 1_554 S
O14 C29 1.264 1_565 S
O15 Mg4 1.942 . S
O15 C20 1.244 1_545 S
O16 Mg4 1.955 1_554 S
O16 C29 1.273 . S
O17 Mg6 2.107 1_666 S
O17 Mg8 2.291 1_556 S
O17 C19 1.312 1_655 S
O18 Mg3 2.031 . S
O18 C19 1.208 . S
C19 O17 1.312 1_455 S
C19 O18 1.208 . S
C20 O12 1.331 . S
C20 O15 1.244 1_565 S
O21 Mg6 2.004 1_656 S
O21 C10 1.191 1_655 S
O22 C1 1.331 . S
O22 Mg8 2.081 . S
O23 Mg4 1.986 . S
O23 C10 1.307 . S
O24 C2 1.264 1_565 S
O24 Mg8 2.023 1_556 S
O25 C1 1.244 1_545 S
O25 Mg9 1.942 . S
O26 C2 1.273 . S
O26 Mg9 1.955 1_556 S
O27 C0 1.312 1_455 S
O27 Mg3 2.291 1_554 S
O27 Mg6 2.121 1_565 S
O28 C0 1.208 . S
O28 Mg8 2.031 . S
C29 O14 1.264 1_545 S
C29 O16 1.273 . S
C30 O11 1.191 1_655 S
C30 O13 1.307 . S
Mg31 O38 2.141 . S
Mg31 O39 2.048 . S
Mg31 O40 2.048 . S
Mg31 O43 2.141 . S
C32 O33 1.313 . S
C32 O39 1.195 1_455 S
O33 C32 1.313 . S
C34 O35 1.245 . S
C34 O43 1.289 1_455 S
O35 C34 1.245 . S
C36 O37 1.245 . S
C36 O38 1.289 1_455 S
O37 C36 1.245 . S
O38 Mg31 2.141 . S
O38 C36 1.289 1_655 S
O39 Mg31 2.048 . S
O39 C32 1.195 1_655 S
O40 Mg31 2.048 . S
O40 C41 1.195 1_655 S
C41 O40 1.195 1_455 S
C41 O42 1.313 . S
O42 C41 1.313 . S
O43 Mg31 2.141 . S
O43 C34 1.289 1_655 S
Mg44 O51 2.141 . S
Mg44 O52 2.048 . S
Mg44 O53 2.048 . S
Mg44 O56 2.141 . S
C45 O46 1.313 . S
C45 O52 1.195 1_565 S
O46 C45 1.313 . S
C47 O48 1.245 . S
C47 O56 1.289 1_565 S
O48 C47 1.245 . S
C49 O50 1.245 . S
C49 O51 1.289 1_565 S
O50 C49 1.245 . S
O51 Mg44 2.141 . S
O51 C49 1.289 1_545 S
O52 Mg44 2.048 . S
O52 C45 1.195 1_545 S
O53 Mg44 2.048 . S
O53 C54 1.195 1_545 S
C54 O53 1.195 1_565 S
C54 O55 1.313 . S
O55 C54 1.313 . S
O56 Mg44 2.141 . S
O56 C47 1.289 1_545 S
H57 C69 0.930 . S
H58 C71 0.930 . S
H59 C72 0.930 . S
H60 C76 0.959 1_455 S
H61 C76 0.959 . S
H62 C76 0.961 . S
H63 C77 0.960 . S
H64 C77 0.961 . S
H65 C77 0.959 . S
H66 C80 0.929 . S
H67 C81 0.931 . S
H68 C83 0.930 . S
C69 H57 0.930 . S
C69 C70 1.399 1_655 S
C69 C74 1.399 . S
C70 C69 1.399 1_455 S
C70 C71 1.376 . S
C71 H58 0.930 . S
C71 C70 1.376 . S
C71 C72 1.388 . S
C72 H59 0.930 . S
C72 C71 1.388 . S
C72 C73 1.390 . S
C73 C72 1.390 . S
C73 C74 1.394 1_455 S
C73 C79 1.465 . S
C74 C69 1.399 . S
C74 C73 1.394 1_655 S
C74 C75 1.516 . S
C75 C74 1.516 . S
C75 C76 1.502 . S
C75 C77 1.561 . S
C75 C78 1.526 . S
C76 H60 0.959 1_655 S
C76 H61 0.959 . S
C76 H62 0.961 . S
C76 C75 1.502 . S
C77 H63 0.960 . S
C77 H64 0.961 . S
C77 H65 0.959 . S
C77 C75 1.561 . S
C78 C75 1.526 . S
C78 C79 1.396 1_655 S
C78 C83 1.390 . S
C79 C73 1.465 . S
C79 C78 1.396 1_455 S
C79 C80 1.399 . S
C80 H66 0.929 . S
C80 C79 1.399 . S
C80 C81 1.385 . S
C81 H67 0.931 . S
C81 C80 1.385 . S
C81 C82 1.389 . S
C82 C81 1.389 . S
C82 C83 1.387 1_455 S
C83 H68 0.930 . S
C83 C78 1.390 . S
C83 C82 1.387 1_655 S
H84 C96 0.930 . S
H85 C98 0.930 . S
H86 C99 0.930 . S
H87 C103 0.959 . S
H88 C103 0.959 . S
H89 C103 0.961 . S
H90 C104 0.960 . S
H91 C104 0.961 . S
H92 C104 0.959 . S
H93 C107 0.929 . S
H94 C108 0.931 . S
H95 C110 0.930 . S
C96 H84 0.930 . S
C96 C97 1.399 1_545 S
C96 C101 1.399 . S
C97 C96 1.399 1_565 S
C97 C98 1.376 . S
C98 H85 0.930 . S
C98 C97 1.376 . S
C98 C99 1.388 . S
C99 H86 0.930 . S
C99 C98 1.388 . S
C99 C100 1.390 . S
C100 C99 1.390 . S
C100 C101 1.394 1_565 S
C100 C106 1.465 . S
C101 C96 1.399 . S
C101 C100 1.394 1_545 S
C101 C102 1.516 . S
C102 C101 1.516 . S
C102 C103 1.502 . S
C102 C104 1.561 . S
C102 C105 1.526 . S
C103 H87 0.959 . S
C103 H88 0.959 . S
C103 H89 0.961 . S
C103 C102 1.502 . S
C104 H90 0.960 . S
C104 H91 0.961 . S
C104 H92 0.959 . S
C104 C102 1.561 . S
C105 C102 1.526 . S
C105 C106 1.396 1_545 S
C105 C110 1.390 . S
C106 C100 1.465 . S
C106 C105 1.396 1_565 S
C106 C107 1.399 . S
C107 H93 0.929 . S
C107 C106 1.399 . S
C107 C108 1.385 . S
C108 H94 0.931 . S
C108 C107 1.385 . S
C108 C109 1.389 . S
C109 C108 1.389 . S
C109 C110 1.387 1_565 S
C110 H95 0.930 . S
C110 C105 1.390 . S
C110 C109 1.387 1_545 S
H111 C123 0.930 . S
H112 C125 0.930 . S
H113 C126 0.930 . S
H114 C130 0.959 . S
H115 C130 0.959 . S
H116 C130 0.961 . S
H117 C131 0.960 . S
H118 C131 0.961 . S
H119 C131 0.959 . S
H120 C134 0.929 . S
H121 C135 0.931 . S
H122 C137 0.930 . S
C123 H111 0.930 . S
C123 C124 1.399 . S
C123 C128 1.399 . S
C124 C123 1.399 . S
C124 C125 1.376 1_455 S
C125 H112 0.930 . S
C125 C124 1.376 1_655 S
C125 C126 1.388 . S
C126 H113 0.930 . S
C126 C125 1.388 . S
C126 C127 1.390 . S
C127 C126 1.390 . S
C127 C128 1.394 1_655 S
C127 C133 1.465 . S
C128 C123 1.399 . S
C128 C127 1.394 1_455 S
C128 C129 1.516 . S
C129 C128 1.516 . S
C129 C130 1.502 . S
C129 C131 1.561 1_455 S
C129 C132 1.526 . S
C130 H114 0.959 . S
C130 H115 0.959 . S
C130 H116 0.961 . S
C130 C129 1.502 . S
C131 H117 0.960 . S
C131 H118 0.961 . S
C131 H119 0.959 . S
C131 C129 1.561 1_655 S
C132 C129 1.526 . S
C132 C133 1.396 1_455 S
C132 C137 1.390 . S
C133 C127 1.465 . S
C133 C132 1.396 1_655 S
C133 C134 1.399 . S
C134 H120 0.929 . S
C134 C133 1.399 . S
C134 C135 1.385 . S
C135 H121 0.931 . S
C135 C134 1.385 . S
C135 C136 1.385 1_655 S
C136 C135 1.385 1_455 S
C136 C137 1.390 . S
C137 H122 0.930 . S
C137 C132 1.390 . S
C137 C136 1.390 . S
H138 C150 0.930 . S
H139 C152 0.930 . S
H140 C153 0.930 . S
H141 C157 0.959 . S
H142 C157 0.959 . S
H143 C157 0.961 . S
H144 C158 0.960 . S
H145 C158 0.961 . S
H146 C158 0.959 . S
H147 C161 0.929 . S
H148 C162 0.931 . S
H149 C164 0.930 . S
C150 H138 0.930 . S
C150 C151 1.399 . S
C150 C155 1.399 . S
C151 C150 1.399 . S
C151 C152 1.376 1_545 S
C152 H139 0.930 . S
C152 C151 1.376 1_565 S
C152 C153 1.388 . S
C153 H140 0.930 . S
C153 C152 1.388 . S
C153 C154 1.390 . S
C154 C153 1.390 . S
C154 C155 1.394 1_565 S
C154 C160 1.465 . S
C155 C150 1.399 . S
C155 C154 1.394 1_545 S
C155 C156 1.516 . S
C156 C155 1.516 . S
C156 C157 1.502 . S
C156 C158 1.561 . S
C156 C159 1.526 . S
C157 H141 0.959 . S
C157 H142 0.959 . S
C157 H143 0.961 . S
C157 C156 1.502 . S
C158 H144 0.960 . S
C158 H145 0.961 . S
C158 H146 0.959 . S
C158 C156 1.561 . S
C159 C156 1.526 . S
C159 C160 1.396 1_545 S
C159 C164 1.390 . S
C160 C154 1.465 . S
C160 C159 1.396 1_565 S
C160 C161 1.399 . S
C161 H147 0.929 . S
C161 C160 1.399 . S
C161 C162 1.385 . S
C162 H148 0.931 . S
C162 C161 1.385 . S
C162 C163 1.404 . S
C163 C162 1.404 . S
C163 C164 1.374 1_565 S
C164 H149 0.930 . S
C164 C159 1.390 . S
C164 C163 1.374 1_545 S
H165 C177 0.930 . S
H166 C179 0.930 . S
H167 C180 0.930 . S
H168 C184 0.959 1_455 S
H169 C184 0.959 . S
H170 C184 0.961 . S
H171 C185 0.960 . S
H172 C185 0.961 . S
H173 C185 0.959 . S
H174 C188 0.929 . S
H175 C189 0.931 . S
H176 C191 0.930 . S
C177 H165 0.930 . S
C177 C178 1.403 . S
C177 C182 1.399 . S
C178 C177 1.403 . S
C178 C179 1.371 1_655 S
C179 H166 0.930 . S
C179 C178 1.371 1_455 S
C179 C180 1.388 . S
C180 H167 0.930 . S
C180 C179 1.388 . S
C180 C181 1.390 . S
C181 C180 1.390 . S
C181 C182 1.394 1_455 S
C181 C187 1.465 . S
C182 C177 1.399 . S
C182 C181 1.394 1_655 S
C182 C183 1.516 . S
C183 C182 1.516 . S
C183 C184 1.502 . S
C183 C185 1.561 . S
C183 C186 1.526 . S
C184 H168 0.959 1_655 S
C184 H169 0.959 . S
C184 H170 0.961 . S
C184 C183 1.502 . S
C185 H171 0.960 . S
C185 H172 0.961 . S
C185 H173 0.959 . S
C185 C183 1.561 . S
C186 C183 1.526 . S
C186 C187 1.396 1_655 S
C186 C191 1.390 . S
C187 C181 1.465 . S
C187 C186 1.396 1_455 S
C187 C188 1.399 . S
C188 H174 0.929 . S
C188 C187 1.399 . S
C188 C189 1.385 . S
C189 H175 0.931 . S
C189 C188 1.385 . S
C189 C190 1.389 . S
C190 C189 1.389 . S
C190 C191 1.387 1_455 S
C191 H176 0.930 . S
C191 C186 1.390 . S
C191 C190 1.387 1_655 S
H192 C204 0.930 . S
H193 C206 0.930 . S
H194 C207 0.930 . S
H195 C211 0.959 . S
H196 C211 0.959 . S
H197 C211 0.961 . S
H198 C212 0.960 . S
H199 C212 0.961 . S
H200 C212 0.959 . S
H201 C215 0.929 . S
H202 C216 0.931 . S
H203 C218 0.930 . S
C204 H192 0.930 . S
C204 C205 1.399 1_545 S
C204 C209 1.399 . S
C205 C204 1.399 1_565 S
C205 C206 1.376 . S
C206 H193 0.930 . S
C206 C205 1.376 . S
C206 C207 1.388 . S
C207 H194 0.930 . S
C207 C206 1.388 . S
C207 C208 1.390 . S
C208 C207 1.390 . S
C208 C209 1.394 1_565 S
C208 C214 1.465 . S
C209 C204 1.399 . S
C209 C208 1.394 1_545 S
C209 C210 1.516 . S
C210 C209 1.516 . S
C210 C211 1.502 . S
C210 C212 1.561 . S
C210 C213 1.526 . S
C211 H195 0.959 . S
C211 H196 0.959 . S
C211 H197 0.961 . S
C211 C210 1.502 . S
C212 H198 0.960 . S
C212 H199 0.961 . S
C212 H200 0.959 . S
C212 C210 1.561 . S
C213 C210 1.526 . S
C213 C214 1.396 1_545 S
C213 C218 1.390 . S
C214 C208 1.465 . S
C214 C213 1.396 1_565 S
C214 C215 1.399 . S
C215 H201 0.929 . S
C215 C214 1.399 . S
C215 C216 1.385 . S
C216 H202 0.931 . S
C216 C215 1.385 . S
C216 C217 1.389 . S
C217 C216 1.389 . S
C217 C218 1.387 1_565 S
C218 H203 0.930 . S
C218 C213 1.390 . S
C218 C217 1.387 1_545 S
H219 C231 0.930 . S
H220 C233 0.930 . S
H221 C234 0.930 . S
H222 C238 0.959 . S
H223 C238 0.959 . S
H224 C238 0.961 . S
H225 C239 0.960 . S
H226 C239 0.961 . S
H227 C239 0.959 . S
H228 C242 0.929 . S
H229 C243 0.931 . S
H230 C245 0.930 . S
C231 H219 0.930 . S
C231 C232 1.399 1_655 S
C231 C236 1.399 . S
C232 C231 1.399 1_455 S
C232 C233 1.376 . S
C233 H220 0.930 . S
C233 C232 1.376 . S
C233 C234 1.388 . S
C234 H221 0.930 . S
C234 C233 1.388 . S
C234 C235 1.390 . S
C235 C234 1.390 . S
C235 C236 1.394 1_455 S
C235 C241 1.465 . S
C236 C231 1.399 . S
C236 C235 1.394 1_655 S
C236 C237 1.516 . S
C237 C236 1.516 . S
C237 C238 1.502 . S
C237 C239 1.561 1_655 S
C237 C240 1.526 . S
C238 H222 0.959 . S
C238 H223 0.959 . S
C238 H224 0.961 . S
C238 C237 1.502 . S
C239 H225 0.960 . S
C239 H226 0.961 . S
C239 H227 0.959 . S
C239 C237 1.561 1_455 S
C240 C237 1.526 . S
C240 C241 1.396 1_655 S
C240 C245 1.390 . S
C241 C235 1.465 . S
C241 C240 1.396 1_455 S
C241 C242 1.399 . S
C242 H228 0.929 . S
C242 C241 1.399 . S
C242 C243 1.385 . S
C243 H229 0.931 . S
C243 C242 1.385 . S
C243 C244 1.389 . S
C244 C243 1.389 . S
C244 C245 1.387 1_455 S
C245 H230 0.930 . S
C245 C240 1.390 . S
C245 C244 1.387 1_655 S
H246 C258 0.930 . S
H247 C260 0.930 . S
H248 C261 0.930 . S
H249 C265 0.959 . S
H250 C265 0.959 . S
H251 C265 0.961 . S
H252 C266 0.960 . S
H253 C266 0.961 . S
H254 C266 0.959 1_545 S
H255 C269 0.929 . S
H256 C270 0.931 . S
H257 C272 0.930 . S
C258 H246 0.930 . S
C258 C259 1.399 1_565 S
C258 C263 1.400 . S
C259 C258 1.399 1_545 S
C259 C260 1.376 . S
C260 H247 0.930 . S
C260 C259 1.376 . S
C260 C261 1.388 . S
C261 H248 0.930 . S
C261 C260 1.388 . S
C261 C262 1.390 . S
C262 C261 1.390 . S
C262 C263 1.387 1_545 S
C262 C268 1.465 . S
C263 C258 1.400 . S
C263 C262 1.387 1_565 S
C263 C264 1.521 . S
C264 C263 1.521 . S
C264 C265 1.502 . S
C264 C266 1.561 . S
C264 C267 1.526 . S
C265 H249 0.959 . S
C265 H250 0.959 . S
C265 H251 0.961 . S
C265 C264 1.502 . S
C266 H252 0.960 . S
C266 H253 0.961 . S
C266 H254 0.959 1_565 S
C266 C264 1.561 . S
C267 C264 1.526 . S
C267 C268 1.396 1_565 S
C267 C272 1.390 . S
C268 C262 1.465 . S
C268 C267 1.396 1_545 S
C268 C269 1.399 . S
C269 H255 0.929 . S
C269 C268 1.399 . S
C269 C270 1.385 . S
C270 H256 0.931 . S
C270 C269 1.385 . S
C270 C271 1.389 . S
C271 C270 1.389 . S
C271 C272 1.387 1_545 S
C272 H257 0.930 . S
C272 C267 1.390 . S
C272 C271 1.387 1_565 S
C70 C30 1.367 1_455 S
C82 C32 1.365 . S
C97 C1 1.523 . S
C109 C54 1.519 . S
C124 C0 1.292 1_455 S
C136 C41 1.392 . S
C151 C29 1.565 . S
C163 C45 1.569 . S
C178 C19 1.311 1_655 S
C190 C34 1.315 . S
C205 C20 1.439 . S
C217 C49 1.438 . S
C244 C36 1.292 . S
C232 C10 1.275 . S
C259 C2 1.498 . S
C271 C47 1.507 1_545 S
