# Generated by pormake.
# Topology ocu, (6,8)-cn, num edge types: 1
# Building blocks:
#     Node 0, Type 0, BuildingBlock: KUMJIN_clean_sbu_0, # of connection points: 6
#     Node 1, Type 0, BuildingBlock: KUMJIN_clean_sbu_0, # of connection points: 6
#     Node 2, Type 0, BuildingBlock: KUMJIN_clean_sbu_0, # of connection points: 6
#     Node 3, Type 0, BuildingBlock: KUMJIN_clean_sbu_0, # of connection points: 6
#     Node 4, Type 0, BuildingBlock: KUMJIN_clean_sbu_0, # of connection points: 6
#     Node 5, Type 0, BuildingBlock: KUMJIN_clean_sbu_0, # of connection points: 6
#     Node 6, Type 0, BuildingBlock: KUMJIN_clean_sbu_0, # of connection points: 6
#     Node 7, Type 0, BuildingBlock: KUMJIN_clean_sbu_0, # of connection points: 6
#     Node 8, Type 1, BuildingBlock: VETTIZ_charged_sbu_0, # of connection points: 8
#     Node 9, Type 1, BuildingBlock: VETTIZ_charged_sbu_0, # of connection points: 8
#     Node 10, Type 1, BuildingBlock: VETTIZ_charged_sbu_0, # of connection points: 8
#     Node 11, Type 1, BuildingBlock: VETTIZ_charged_sbu_0, # of connection points: 8
#     Node 12, Type 1, BuildingBlock: VETTIZ_charged_sbu_0, # of connection points: 8
#     Node 13, Type 1, BuildingBlock: VETTIZ_charged_sbu_0, # of connection points: 8
#     Edge 14, Type (0, 1), BuildingBlock: XUDNAN_clean_linker_2, # of connection points: 2
#     Edge 15, Type (0, 1), BuildingBlock: XUDNAN_clean_linker_2, # of connection points: 2
#     Edge 16, Type (0, 1), BuildingBlock: XUDNAN_clean_linker_2, # of connection points: 2
#     Edge 17, Type (0, 1), BuildingBlock: XUDNAN_clean_linker_2, # of connection points: 2
#     Edge 18, Type (0, 1), BuildingBlock: XUDNAN_clean_linker_2, # of connection points: 2
#     Edge 19, Type (0, 1), BuildingBlock: XUDNAN_clean_linker_2, # of connection points: 2
#     Edge 20, Type (0, 1), BuildingBlock: XUDNAN_clean_linker_2, # of connection points: 2
#     Edge 21, Type (0, 1), BuildingBlock: XUDNAN_clean_linker_2, # of connection points: 2
#     Edge 22, Type (0, 1), BuildingBlock: XUDNAN_clean_linker_2, # of connection points: 2
#     Edge 23, Type (0, 1), BuildingBlock: XUDNAN_clean_linker_2, # of connection points: 2
#     Edge 24, Type (0, 1), BuildingBlock: XUDNAN_clean_linker_2, # of connection points: 2
#     Edge 25, Type (0, 1), BuildingBlock: XUDNAN_clean_linker_2, # of connection points: 2
#     Edge 26, Type (0, 1), BuildingBlock: XUDNAN_clean_linker_2, # of connection points: 2
#     Edge 27, Type (0, 1), BuildingBlock: XUDNAN_clean_linker_2, # of connection points: 2
#     Edge 28, Type (0, 1), BuildingBlock: XUDNAN_clean_linker_2, # of connection points: 2
#     Edge 29, Type (0, 1), BuildingBlock: XUDNAN_clean_linker_2, # of connection points: 2
#     Edge 30, Type (0, 1), BuildingBlock: XUDNAN_clean_linker_2, # of connection points: 2
#     Edge 31, Type (0, 1), BuildingBlock: XUDNAN_clean_linker_2, # of connection points: 2
#     Edge 32, Type (0, 1), BuildingBlock: XUDNAN_clean_linker_2, # of connection points: 2
#     Edge 33, Type (0, 1), BuildingBlock: XUDNAN_clean_linker_2, # of connection points: 2
#     Edge 34, Type (0, 1), BuildingBlock: XUDNAN_clean_linker_2, # of connection points: 2
#     Edge 35, Type (0, 1), BuildingBlock: XUDNAN_clean_linker_2, # of connection points: 2
#     Edge 36, Type (0, 1), BuildingBlock: XUDNAN_clean_linker_2, # of connection points: 2
#     Edge 37, Type (0, 1), BuildingBlock: XUDNAN_clean_linker_2, # of connection points: 2
#     Edge 38, Type (0, 1), BuildingBlock: XUDNAN_clean_linker_2, # of connection points: 2
#     Edge 39, Type (0, 1), BuildingBlock: XUDNAN_clean_linker_2, # of connection points: 2
#     Edge 40, Type (0, 1), BuildingBlock: XUDNAN_clean_linker_2, # of connection points: 2
#     Edge 41, Type (0, 1), BuildingBlock: XUDNAN_clean_linker_2, # of connection points: 2
#     Edge 42, Type (0, 1), BuildingBlock: XUDNAN_clean_linker_2, # of connection points: 2
#     Edge 43, Type (0, 1), BuildingBlock: XUDNAN_clean_linker_2, # of connection points: 2
#     Edge 44, Type (0, 1), BuildingBlock: XUDNAN_clean_linker_2, # of connection points: 2
#     Edge 45, Type (0, 1), BuildingBlock: XUDNAN_clean_linker_2, # of connection points: 2
#     Edge 46, Type (0, 1), BuildingBlock: XUDNAN_clean_linker_2, # of connection points: 2
#     Edge 47, Type (0, 1), BuildingBlock: XUDNAN_clean_linker_2, # of connection points: 2
#     Edge 48, Type (0, 1), BuildingBlock: XUDNAN_clean_linker_2, # of connection points: 2
#     Edge 49, Type (0, 1), BuildingBlock: XUDNAN_clean_linker_2, # of connection points: 2
#     Edge 50, Type (0, 1), BuildingBlock: XUDNAN_clean_linker_2, # of connection points: 2
#     Edge 51, Type (0, 1), BuildingBlock: XUDNAN_clean_linker_2, # of connection points: 2
#     Edge 52, Type (0, 1), BuildingBlock: XUDNAN_clean_linker_2, # of connection points: 2
#     Edge 53, Type (0, 1), BuildingBlock: XUDNAN_clean_linker_2, # of connection points: 2
#     Edge 54, Type (0, 1), BuildingBlock: XUDNAN_clean_linker_2, # of connection points: 2
#     Edge 55, Type (0, 1), BuildingBlock: XUDNAN_clean_linker_2, # of connection points: 2
#     Edge 56, Type (0, 1), BuildingBlock: XUDNAN_clean_linker_2, # of connection points: 2
#     Edge 57, Type (0, 1), BuildingBlock: XUDNAN_clean_linker_2, # of connection points: 2
#     Edge 58, Type (0, 1), BuildingBlock: XUDNAN_clean_linker_2, # of connection points: 2
#     Edge 59, Type (0, 1), BuildingBlock: XUDNAN_clean_linker_2, # of connection points: 2
#     Edge 60, Type (0, 1), BuildingBlock: XUDNAN_clean_linker_2, # of connection points: 2
#     Edge 61, Type (0, 1), BuildingBlock: XUDNAN_clean_linker_2, # of connection points: 2
# Relax obj value: 0.113
# Max RMSD: 0.247
# Mean RMSD: 0.163
data_MOF--net-ocu--node1-KUMJIN_clean_sbu_0--node2-VETTIZ_charged_sbu_0--edge1-XUDNAN_clean_linker_2
_symmetry_space_group_name_H-M    P1
_symmetry_Int_Tables_number       1
_symmetry_cell_setting            triclinic
loop_
_symmetry_equiv_pos_as_xyz
'x, y, z'
_cell_length_a     39.06632
_cell_length_b     39.639768
_cell_length_c     42.056135
_cell_angle_alpha  79.196091
_cell_angle_beta   99.075962
_cell_angle_gamma 104.78321
loop_
_atom_site_label
_atom_site_type_symbol
_atom_site_fract_x
_atom_site_fract_y
_atom_site_fract_z
_atom_type_partial_charge
Eu0 Eu 0.26782 0.22525 0.23614 0.0
C1 C 0.36361 0.33399 0.32272 0.0
C2 C 0.37728 0.29864 0.37448 0.0
C3 C 0.4177 0.35478 0.35793 0.0
C4 C 0.35501 0.30366 0.34496 0.0
C5 C 0.39476 0.36021 0.32917 0.0
C6 C 0.40897 0.32405 0.38056 0.0
C7 C 0.37694 0.39635 0.27949 0.0
N8 N 0.34072 0.33854 0.29535 0.0
C9 C 0.34628 0.3697 0.27432 0.0
C10 C 0.40151 0.39144 0.30686 0.0
Eu11 Eu 0.28982 0.29194 0.28745 0.0
N12 N 0.32412 0.27973 0.33837 0.0
C13 C 0.31291 0.25123 0.3613 0.0
C14 C 0.36665 0.26866 0.39735 0.0
C15 C 0.3341 0.24507 0.39087 0.0
H16 H 0.32753 0.37379 0.25303 0.0
H17 H 0.32534 0.22205 0.40858 0.0
H18 H 0.42653 0.32052 0.40298 0.0
H19 H 0.38159 0.42062 0.26233 0.0
H20 H 0.28794 0.23258 0.3569 0.0
H21 H 0.23568 0.29892 0.11627 0.0
H22 H 0.38302 0.26382 0.42027 0.0
H23 H 0.2242 0.14632 0.27184 0.0
H24 H 0.27339 0.28457 0.16726 0.0
H25 H 0.16618 0.10391 0.2635 0.0
H26 H 0.44187 0.3745 0.36321 0.0
H27 H 0.17475 0.2622 0.10584 0.0
H28 H 0.12733 0.20901 0.12394 0.0
H29 H 0.42518 0.41217 0.31088 0.0
H30 H 0.10848 0.15599 0.16386 0.0
N31 N 0.23392 0.24075 0.18617 0.0
C32 C 0.24688 0.26831 0.16312 0.0
C33 C 0.19118 0.25579 0.12834 0.0
C34 C 0.17871 0.22651 0.15134 0.0
C35 C 0.22558 0.27654 0.13412 0.0
C36 C 0.20111 0.21942 0.18032 0.0
H37 H 0.12291 0.11642 0.21573 0.0
N38 N 0.21344 0.18264 0.22957 0.0
C39 C 0.17266 0.12791 0.24626 0.0
C40 C 0.19055 0.18947 0.20268 0.0
C41 C 0.2055 0.15189 0.25086 0.0
C42 C 0.14828 0.13511 0.2193 0.0
C43 C 0.15723 0.16596 0.19688 0.0
O44 O 0.2814 0.17628 0.23107 0.0
O45 O 0.30603 0.24269 0.28006 0.0
O46 O 0.33849 0.30099 0.26159 0.0
O47 O 0.31174 0.27169 0.21775 0.0
O48 O 0.28361 0.1897 0.2829 0.0
O49 O 0.29975 0.2243 0.19829 0.0
O50 O 0.26704 0.33687 0.28809 0.0
O51 O 0.25229 0.27439 0.24336 0.0
O52 O 0.21933 0.22065 0.26151 0.0
O53 O 0.25127 0.24194 0.30708 0.0
O54 O 0.27531 0.32699 0.23974 0.0
O55 O 0.2564 0.29072 0.32483 0.0
C56 C 0.30653 0.21265 0.29815 0.0
C57 C 0.29201 0.17062 0.17842 0.0
C58 C 0.31433 0.13949 0.14373 0.0
C59 C 0.31927 0.15684 0.17119 0.0
C60 C 0.28134 0.13623 0.12391 0.0
C61 C 0.2594 0.16645 0.15852 0.0
C62 C 0.25414 0.14933 0.13146 0.0
C63 C 0.33881 0.29293 0.23261 0.0
C64 C 0.2986 0.19063 0.20587 0.0
C65 C 0.13429 0.17361 0.16865 0.0
C66 C 0.14501 0.20381 0.14592 0.0
C67 C 0.25215 0.30405 0.22475 0.0
C68 C 0.25218 0.34471 0.33819 0.0
C69 C 0.22194 0.35741 0.339 0.0
C70 C 0.22088 0.37747 0.36305 0.0
C71 C 0.25122 0.38502 0.38595 0.0
C72 C 0.28208 0.3527 0.36103 0.0
C73 C 0.28157 0.3729 0.38474 0.0
C74 C 0.22133 0.22541 0.29197 0.0
C75 C 0.25118 0.32219 0.3139 0.0
H76 H 0.34421 0.15973 0.18703 0.0
H77 H 0.27658 0.12418 0.10208 0.0
H78 H 0.23817 0.17675 0.16362 0.0
H79 H 0.22899 0.14662 0.11596 0.0
H80 H 0.19923 0.35146 0.32082 0.0
H81 H 0.25137 0.39961 0.40532 0.0
H82 H 0.30557 0.34306 0.36073 0.0
H83 H 0.3046 0.37878 0.40256 0.0
Eu84 Eu 0.79152 0.24748 0.26529 0.0
C85 C 0.65935 0.28233 0.28341 0.0
C86 C 0.61575 0.28804 0.236 0.0
C87 C 0.59592 0.26252 0.28903 0.0
C88 C 0.65149 0.292 0.25023 0.0
C89 C 0.63152 0.26847 0.30331 0.0
C90 C 0.58805 0.27235 0.25544 0.0
C91 C 0.67572 0.27137 0.3503 0.0
N92 N 0.69406 0.28877 0.2965 0.0
C93 C 0.70239 0.28501 0.32961 0.0
C94 C 0.64019 0.26231 0.33709 0.0
Eu95 Eu 0.73728 0.30908 0.25878 0.0
N96 N 0.6788 0.30726 0.23214 0.0
C97 C 0.67229 0.32137 0.20012 0.0
C98 C 0.60891 0.30098 0.20288 0.0
C99 C 0.63732 0.31823 0.18499 0.0
H100 H 0.72955 0.29122 0.34065 0.0
H101 H 0.63233 0.32888 0.15951 0.0
H102 H 0.56044 0.26866 0.24488 0.0
H103 H 0.68268 0.26752 0.37646 0.0
H104 H 0.69408 0.33435 0.18598 0.0
H105 H 0.91059 0.35592 0.26736 0.0
H106 H 0.58183 0.29852 0.1911 0.0
H107 H 0.76932 0.18096 0.22133 0.0
H108 H 0.85144 0.32267 0.28133 0.0
H109 H 0.7923 0.161 0.17847 0.0
H110 H 0.57427 0.25143 0.30391 0.0
H111 H 0.93841 0.33816 0.22625 0.0
H112 H 0.93343 0.29929 0.18449 0.0
H113 H 0.61963 0.25169 0.3532 0.0
H114 H 0.90053 0.24749 0.15919 0.0
N115 N 0.84506 0.28604 0.24845 0.0
C116 C 0.86291 0.31445 0.26331 0.0
C117 C 0.91202 0.32375 0.23189 0.0
C118 C 0.89339 0.29528 0.21615 0.0
C119 C 0.89654 0.33363 0.25531 0.0
C120 C 0.85968 0.27639 0.22532 0.0
H121 H 0.84792 0.19604 0.15658 0.0
N122 N 0.80947 0.22876 0.22136 0.0
C123 C 0.80608 0.18554 0.18708 0.0
C124 C 0.84115 0.24719 0.2111 0.0
C125 C 0.79293 0.1972 0.21104 0.0
C126 C 0.8375 0.20534 0.17486 0.0
C127 C 0.85588 0.23615 0.18733 0.0
O128 O 0.79537 0.19266 0.28105 0.0
O129 O 0.74754 0.25815 0.28819 0.0
O130 O 0.77356 0.31456 0.30585 0.0
O131 O 0.80978 0.27498 0.31059 0.0
O132 O 0.73969 0.2082 0.27713 0.0
O133 O 0.83344 0.23436 0.3028 0.0
O134 O 0.77313 0.3564 0.27448 0.0
O135 O 0.78676 0.30163 0.24282 0.0
O136 O 0.75116 0.23851 0.22012 0.0
O137 O 0.7089 0.26918 0.2245 0.0
O138 O 0.75504 0.32671 0.20759 0.0
O139 O 0.7211 0.35942 0.25056 0.0
C140 C 0.72603 0.22783 0.2903 0.0
C141 C 0.85575 0.19051 0.28707 0.0
C142 C 0.8781 0.14362 0.27255 0.0
C143 C 0.85034 0.15575 0.28121 0.0
C144 C 0.91004 0.16888 0.2659 0.0
C145 C 0.88827 0.21453 0.28136 0.0
C146 C 0.91471 0.20395 0.26989 0.0
C147 C 0.80011 0.30053 0.32073 0.0
C148 C 0.82658 0.20188 0.29735 0.0
C149 C 0.88893 0.25549 0.1775 0.0
C150 C 0.90771 0.2849 0.19197 0.0
C151 C 0.78389 0.31559 0.21299 0.0
C152 C 0.7699 0.40756 0.23837 0.0
C153 C 0.76118 0.40842 0.20476 0.0
C154 C 0.78114 0.43387 0.18258 0.0
C155 C 0.80912 0.46007 0.1949 0.0
C156 C 0.79838 0.43327 0.25025 0.0
C157 C 0.81769 0.45961 0.22852 0.0
C158 C 0.71973 0.24657 0.21102 0.0
C159 C 0.75257 0.37718 0.26072 0.0
H160 H 0.82454 0.13823 0.28444 0.0
H161 H 0.93264 0.1618 0.2594 0.0
H162 H 0.89322 0.24166 0.2853 0.0
H163 H 0.93956 0.22274 0.26521 0.0
H164 H 0.73837 0.38917 0.196 0.0
H165 H 0.82479 0.48065 0.17874 0.0
H166 H 0.80602 0.43259 0.27623 0.0
H167 H 0.83963 0.47949 0.23775 0.0
Eu168 Eu 0.75339 0.75496 0.29639 0.0
C169 C 0.85643 0.84958 0.20026 0.0
C170 C 0.81799 0.87194 0.15467 0.0
C171 C 0.87719 0.90744 0.16885 0.0
C172 C 0.8241 0.84555 0.18106 0.0
C173 C 0.88381 0.8801 0.1938 0.0
C174 C 0.84426 0.90339 0.14933 0.0
C175 C 0.92321 0.85266 0.23475 0.0
N176 N 0.86186 0.82252 0.22399 0.0
C177 C 0.8951 0.82308 0.24043 0.0
C178 C 0.91737 0.88159 0.21176 0.0
Eu179 Eu 0.81277 0.77328 0.23271 0.0
N180 N 0.79979 0.8145 0.18645 0.0
C181 C 0.7706 0.80659 0.16426 0.0
C182 C 0.78642 0.86516 0.13353 0.0
C183 C 0.76301 0.83198 0.13792 0.0
H184 H 0.89998 0.80106 0.25839 0.0
H185 H 0.73915 0.82591 0.12105 0.0
H186 H 0.83991 0.92414 0.12943 0.0
H187 H 0.94927 0.85322 0.24828 0.0
H188 H 0.75262 0.78086 0.16719 0.0
H189 H 0.82442 0.69155 0.40362 0.0
H190 H 0.78064 0.88472 0.11302 0.0
H191 H 0.66644 0.73393 0.26824 0.0
H192 H 0.81499 0.73905 0.35827 0.0
H193 H 0.61348 0.68534 0.27752 0.0
H194 H 0.89773 0.93128 0.16375 0.0
H195 H 0.77672 0.63723 0.41293 0.0
H196 H 0.71378 0.60423 0.39783 0.0
H197 H 0.93916 0.90449 0.20746 0.0
H198 H 0.65614 0.60286 0.36388 0.0
N199 N 0.76349 0.71102 0.34098 0.0
C200 C 0.79423 0.71522 0.36185 0.0
C201 C 0.77263 0.65784 0.3928 0.0
C202 C 0.74021 0.65481 0.37265 0.0
C203 C 0.79958 0.68847 0.38768 0.0
C204 C 0.73636 0.68237 0.34674 0.0
H205 H 0.61832 0.63326 0.31932 0.0
N206 N 0.7011 0.70958 0.30424 0.0
C207 C 0.6388 0.68396 0.29184 0.0
C208 C 0.704 0.68172 0.3279 0.0
C209 C 0.66886 0.71153 0.28674 0.0
C210 C 0.64166 0.65456 0.31539 0.0
C211 C 0.67446 0.65332 0.33403 0.0
O212 O 0.71967 0.78671 0.30742 0.0
O213 O 0.76393 0.78505 0.2462 0.0
O214 O 0.82864 0.81952 0.26121 0.0
O215 O 0.80832 0.78875 0.30962 0.0
O216 O 0.71681 0.78536 0.26066 0.0
O217 O 0.76565 0.77856 0.34109 0.0
O218 O 0.85201 0.74578 0.22455 0.0
O219 O 0.7979 0.73667 0.27982 0.0
O220 O 0.7334 0.7106 0.26676 0.0
O221 O 0.75803 0.73841 0.21886 0.0
O222 O 0.85099 0.75277 0.27465 0.0
O223 O 0.80647 0.74852 0.18909 0.0
C224 C 0.73581 0.79759 0.23692 0.0
C225 C 0.71723 0.78897 0.36273 0.0
C226 C 0.68501 0.81574 0.39314 0.0
C227 C 0.70621 0.81846 0.36801 0.0
C228 C 0.67568 0.78282 0.41316 0.0
C229 C 0.70752 0.7566 0.38302 0.0
C230 C 0.68701 0.75367 0.40817 0.0
C231 C 0.82721 0.81697 0.29282 0.0
C232 C 0.73795 0.79238 0.33537 0.0
C233 C 0.67845 0.62505 0.35892 0.0
C234 C 0.71128 0.62579 0.37821 0.0
C235 C 0.82886 0.73295 0.29387 0.0
C236 C 0.83007 0.69806 0.19494 0.0
C237 C 0.85296 0.68809 0.17753 0.0
C238 C 0.84853 0.65233 0.17422 0.0
C239 C 0.82072 0.6269 0.18857 0.0
C240 C 0.80303 0.67205 0.2095 0.0
C241 C 0.79828 0.63674 0.20612 0.0
C242 C 0.73515 0.71305 0.23528 0.0
C243 C 0.83453 0.73556 0.19777 0.0
H244 H 0.7142 0.84348 0.35242 0.0
H245 H 0.65886 0.77921 0.43223 0.0
H246 H 0.7156 0.73358 0.3793 0.0
H247 H 0.67941 0.72852 0.42364 0.0
H248 H 0.87393 0.70817 0.16634 0.0
H249 H 0.81677 0.59922 0.18685 0.0
H250 H 0.78565 0.67901 0.22352 0.0
H251 H 0.77725 0.61686 0.21735 0.0
Eu252 Eu 0.30171 0.72018 0.26372 0.0
C253 C 0.20963 0.82059 0.19996 0.0
C254 C 0.24669 0.87175 0.1704 0.0
C255 C 0.18389 0.8525 0.1508 0.0
C256 C 0.24269 0.84346 0.19646 0.0
C257 C 0.17978 0.82509 0.17746 0.0
C258 C 0.21728 0.87574 0.14725 0.0
C259 C 0.14389 0.7759 0.21016 0.0
N260 N 0.20669 0.79401 0.22577 0.0
C261 C 0.17431 0.77249 0.23187 0.0
C262 C 0.14669 0.80209 0.18268 0.0
Eu263 Eu 0.25918 0.79054 0.26153 0.0
N264 N 0.2704 0.83925 0.21958 0.0
C265 C 0.30185 0.86398 0.2197 0.0
C266 C 0.27985 0.89578 0.169 0.0
C267 C 0.3074 0.89217 0.19405 0.0
H268 H 0.17238 0.75228 0.25315 0.0
H269 H 0.33279 0.91119 0.19374 0.0
H270 H 0.21989 0.89717 0.12692 0.0
H271 H 0.11834 0.75835 0.2146 0.0
H272 H 0.32274 0.86167 0.23959 0.0
H273 H 0.27261 0.61791 0.36884 0.0
H274 H 0.28411 0.91779 0.14929 0.0
H275 H 0.38094 0.76776 0.24126 0.0
H276 H 0.25956 0.65459 0.31612 0.0
H277 H 0.44458 0.77658 0.26199 0.0
H278 H 0.16132 0.85627 0.13307 0.0
H279 H 0.33498 0.62427 0.39459 0.0
H280 H 0.39994 0.65318 0.39173 0.0
H281 H 0.12308 0.80464 0.16591 0.0
H282 H 0.44662 0.69587 0.36246 0.0
N283 N 0.31259 0.68395 0.31408 0.0
C284 C 0.28619 0.65898 0.32827 0.0
C285 C 0.32907 0.64103 0.37194 0.0
C286 C 0.35638 0.66543 0.35635 0.0
C287 C 0.29383 0.63754 0.35762 0.0
C288 C 0.34721 0.68651 0.32687 0.0
H289 H 0.46353 0.7421 0.31424 0.0
N290 N 0.36353 0.73043 0.28205 0.0
C291 C 0.42484 0.75808 0.27598 0.0
C292 C 0.37349 0.71036 0.31025 0.0
C293 C 0.38861 0.75342 0.26448 0.0
C294 C 0.43544 0.73846 0.3054 0.0
C295 C 0.40968 0.71405 0.32285 0.0
O296 O 0.32245 0.70034 0.22738 0.0
O297 O 0.30814 0.77951 0.24788 0.0
O298 O 0.23724 0.76327 0.21694 0.0
O299 O 0.24436 0.70783 0.23985 0.0
O300 O 0.31728 0.75192 0.21492 0.0
O301 O 0.28532 0.66412 0.25821 0.0
O302 O 0.22455 0.79873 0.2938 0.0
O303 O 0.25181 0.73061 0.27714 0.0
O304 O 0.31985 0.7452 0.31021 0.0
O305 O 0.31543 0.80147 0.28702 0.0
O306 O 0.24244 0.7587 0.30946 0.0
O307 O 0.26934 0.84113 0.27946 0.0
C308 C 0.31629 0.78282 0.21921 0.0
C309 C 0.32885 0.64146 0.23971 0.0
C310 C 0.36122 0.60913 0.21506 0.0
C311 C 0.33818 0.63224 0.21186 0.0
C312 C 0.37469 0.59549 0.24651 0.0
C313 C 0.34212 0.62666 0.27072 0.0
C314 C 0.36502 0.60405 0.27403 0.0
C315 C 0.23088 0.7292 0.21586 0.0
C316 C 0.30651 0.66747 0.23604 0.0
C317 C 0.41896 0.69337 0.35238 0.0
C318 C 0.39237 0.6691 0.36908 0.0
C319 C 0.24215 0.7275 0.3053 0.0
C320 C 0.2186 0.85642 0.2929 0.0
C321 C 0.20785 0.86217 0.32143 0.0
C322 C 0.18405 0.88404 0.31976 0.0
C323 C 0.17102 0.8999 0.28901 0.0
C324 C 0.20571 0.87296 0.26256 0.0
C325 C 0.18194 0.89446 0.26067 0.0
C326 C 0.32681 0.77935 0.31157 0.0
C327 C 0.2414 0.83139 0.29543 0.0
H328 H 0.32789 0.64336 0.18779 0.0
H329 H 0.39206 0.57741 0.24986 0.0
H330 H 0.33484 0.63245 0.29245 0.0
H331 H 0.3752 0.59295 0.2981 0.0
H332 H 0.21767 0.84924 0.3449 0.0
H333 H 0.15306 0.91719 0.28691 0.0
H334 H 0.21381 0.86919 0.24037 0.0
H335 H 0.17204 0.90707 0.23713 0.0
Eu336 Eu 0.32829 0.69557 0.7736 0.0
C337 C 0.2171 0.75015 0.81748 0.0
C338 C 0.16378 0.70418 0.80812 0.0
C339 C 0.16744 0.74076 0.84929 0.0
C340 C 0.19836 0.72273 0.80074 0.0
C341 C 0.20162 0.7594 0.84189 0.0
C342 C 0.14848 0.71341 0.83229 0.0
C343 C 0.25344 0.80695 0.84839 0.0
N344 N 0.25023 0.76789 0.80997 0.0
C345 C 0.26724 0.79747 0.82358 0.0
C346 C 0.22066 0.78755 0.8579 0.0
Eu347 Eu 0.2693 0.75305 0.7644 0.0
N348 N 0.21416 0.71341 0.77811 0.0
C349 C 0.19766 0.68365 0.76449 0.0
C350 C 0.14563 0.67643 0.79135 0.0
C351 C 0.16303 0.66546 0.77018 0.0
H352 H 0.29104 0.81475 0.81475 0.0
H353 H 0.14993 0.64267 0.75848 0.0
H354 H 0.12211 0.69923 0.8383 0.0
H355 H 0.26765 0.82989 0.85948 0.0
H356 H 0.21073 0.67278 0.74963 0.0
H357 H 0.43432 0.67953 0.87303 0.0
H358 H 0.1186 0.66252 0.79541 0.0
H359 H 0.33766 0.70545 0.69207 0.0
H360 H 0.37247 0.66988 0.84591 0.0
H361 H 0.38434 0.73053 0.65629 0.0
H362 H 0.15531 0.74748 0.86799 0.0
H363 H 0.48413 0.71392 0.84204 0.0
H364 H 0.50499 0.74503 0.78831 0.0
H365 H 0.20974 0.79528 0.87682 0.0
H366 H 0.49111 0.75978 0.72896 0.0
N367 N 0.38714 0.69895 0.80021 0.0
C368 C 0.39411 0.68456 0.83209 0.0
C369 C 0.45706 0.70973 0.83005 0.0
C370 C 0.44994 0.72237 0.79689 0.0
C371 C 0.42905 0.69015 0.84757 0.0
C372 C 0.41421 0.7162 0.78242 0.0
H373 H 0.44632 0.75354 0.6794 0.0
N374 N 0.37184 0.71541 0.73597 0.0
C375 C 0.39087 0.72948 0.68239 0.0
C376 C 0.4063 0.72477 0.74917 0.0
C377 C 0.36426 0.71525 0.70308 0.0
C378 C 0.42577 0.74258 0.6955 0.0
C379 C 0.43411 0.73928 0.72932 0.0
O380 O 0.29556 0.6483 0.75505 0.0
O381 O 0.27667 0.7004 0.78752 0.0
O382 O 0.31536 0.76998 0.80352 0.0
O383 O 0.35262 0.73109 0.81178 0.0
O384 O 0.30866 0.67774 0.82427 0.0
O385 O 0.34423 0.64504 0.78583 0.0
O386 O 0.28233 0.81054 0.752 0.0
O387 O 0.32356 0.75157 0.75173 0.0
O388 O 0.29268 0.69118 0.72543 0.0
O389 O 0.24747 0.72066 0.72279 0.0
O390 O 0.28755 0.76963 0.71455 0.0
O391 O 0.2276 0.78028 0.74442 0.0
C392 C 0.2787 0.68689 0.8174 0.0
C393 C 0.29374 0.59744 0.79316 0.0
C394 C 0.27396 0.57286 0.84673 0.0
C395 C 0.29757 0.59716 0.82678 0.0
C396 C 0.24803 0.54637 0.83265 0.0
C397 C 0.26696 0.57167 0.77928 0.0
C398 C 0.24455 0.54593 0.79908 0.0
C399 C 0.34362 0.75857 0.81864 0.0
C400 C 0.31435 0.62737 0.77243 0.0
C401 C 0.46952 0.748 0.7438 0.0
C402 C 0.47743 0.73955 0.77757 0.0
C403 C 0.31967 0.7655 0.72161 0.0
C404 C 0.24687 0.82727 0.70346 0.0
C405 C 0.21461 0.8175 0.68398 0.0
C406 C 0.20892 0.83481 0.65223 0.0
C407 C 0.23785 0.85966 0.6387 0.0
C408 C 0.27538 0.85214 0.68982 0.0
C409 C 0.271 0.86764 0.65727 0.0
C410 C 0.26189 0.69859 0.712 0.0
C411 C 0.25014 0.81053 0.73767 0.0
H412 H 0.31936 0.61607 0.83747 0.0
H413 H 0.23025 0.52619 0.84736 0.0
H414 H 0.26312 0.57177 0.75318 0.0
H415 H 0.2241 0.52587 0.78833 0.0
H416 H 0.19307 0.79732 0.69413 0.0
H417 H 0.2347 0.87446 0.61447 0.0
H418 H 0.30091 0.85958 0.7042 0.0
H419 H 0.29293 0.88696 0.6468 0.0
Eu420 Eu 0.24109 0.24393 0.79442 0.0
C421 C 0.34018 0.3397 0.69659 0.0
C422 C 0.29991 0.3599 0.65145 0.0
C423 C 0.35817 0.39773 0.6645 0.0
C424 C 0.30754 0.33419 0.67791 0.0
C425 C 0.36623 0.37122 0.68971 0.0
C426 C 0.32502 0.39208 0.64539 0.0
C427 C 0.40715 0.34679 0.73134 0.0
N428 N 0.34707 0.31338 0.72053 0.0
C429 C 0.38046 0.316 0.73717 0.0
C430 C 0.39989 0.37473 0.70779 0.0
Eu431 Eu 0.29971 0.26271 0.73063 0.0
N432 N 0.28423 0.30263 0.6842 0.0
C433 C 0.25428 0.29376 0.66304 0.0
C434 C 0.26789 0.35191 0.63114 0.0
C435 C 0.24532 0.3184 0.63658 0.0
H436 H 0.38648 0.29474 0.75552 0.0
H437 H 0.22094 0.31153 0.62051 0.0
H438 H 0.31949 0.4123 0.62541 0.0
H439 H 0.43329 0.34897 0.74507 0.0
H440 H 0.2366 0.26795 0.66685 0.0
H441 H 0.32503 0.2017 0.90477 0.0
H442 H 0.26097 0.37093 0.6106 0.0
H443 H 0.15292 0.21206 0.77885 0.0
H444 H 0.30728 0.24286 0.85788 0.0
H445 H 0.1077 0.15666 0.79216 0.0
H446 H 0.3777 0.42227 0.65903 0.0
H447 H 0.28773 0.14121 0.91611 0.0
H448 H 0.23103 0.09716 0.90265 0.0
H449 H 0.42064 0.39852 0.70327 0.0
H450 H 0.17165 0.08457 0.87148 0.0
N451 N 0.26067 0.20631 0.84117 0.0
C452 C 0.29049 0.21683 0.86207 0.0
C453 C 0.27972 0.15929 0.89523 0.0
C454 C 0.2478 0.14944 0.8753 0.0
C455 C 0.30074 0.19343 0.88899 0.0
C456 C 0.23858 0.17404 0.8484 0.0
H457 H 0.12506 0.10692 0.83079 0.0
N458 N 0.19567 0.19273 0.80779 0.0
C459 C 0.13508 0.159 0.80298 0.0
C460 C 0.20511 0.16694 0.83097 0.0
C461 C 0.16069 0.19023 0.79547 0.0
C462 C 0.14502 0.13095 0.82469 0.0
C463 C 0.18011 0.13511 0.8398 0.0
O464 O 0.20673 0.24861 0.82899 0.0
O465 O 0.24996 0.27334 0.74399 0.0
O466 O 0.31443 0.30872 0.75893 0.0
O467 O 0.2957 0.27847 0.80826 0.0
O468 O 0.20204 0.27108 0.75899 0.0
O469 O 0.24428 0.29485 0.80924 0.0
O470 O 0.33966 0.23541 0.72385 0.0
O471 O 0.28648 0.22609 0.7787 0.0
O472 O 0.21218 0.20785 0.75696 0.0
O473 O 0.24796 0.2253 0.71468 0.0
O474 O 0.33949 0.24479 0.77238 0.0
O475 O 0.29416 0.23676 0.68787 0.0
C476 C 0.2213 0.28524 0.73558 0.0
C477 C 0.22463 0.29603 0.85938 0.0
C478 C 0.20594 0.33001 0.89365 0.0
C479 C 0.20185 0.31647 0.86426 0.0
C480 C 0.23317 0.32255 0.91814 0.0
C481 C 0.25158 0.28893 0.88404 0.0
C482 C 0.25563 0.30202 0.91337 0.0
C483 C 0.31557 0.30564 0.79088 0.0
C484 C 0.2194 0.28238 0.82838 0.0
C485 C 0.1903 0.10938 0.86471 0.0
C486 C 0.2241 0.11656 0.88247 0.0
C487 C 0.31835 0.22449 0.79225 0.0
C488 C 0.34653 0.23045 0.67018 0.0
C489 C 0.35592 0.20057 0.66377 0.0
C490 C 0.37847 0.20355 0.63969 0.0
C491 C 0.39093 0.2372 0.62189 0.0
C492 C 0.35928 0.26357 0.65212 0.0
C493 C 0.38127 0.26683 0.62803 0.0
C494 C 0.21897 0.20624 0.72744 0.0
C495 C 0.3238 0.22645 0.69609 0.0
H496 H 0.18114 0.32205 0.84503 0.0
H497 H 0.23667 0.332 0.94126 0.0
H498 H 0.2693 0.27325 0.88069 0.0
H499 H 0.27609 0.29605 0.93261 0.0
H500 H 0.34549 0.175 0.67759 0.0
H501 H 0.40884 0.24091 0.60369 0.0
H502 H 0.35233 0.28684 0.65673 0.0
H503 H 0.39122 0.29252 0.61425 0.0
Eu504 Eu 0.79106 0.23095 0.76573 0.0
C505 C 0.72503 0.35492 0.69084 0.0
C506 C 0.77593 0.40157 0.6755 0.0
C507 C 0.71863 0.39817 0.6423 0.0
C508 C 0.76078 0.37105 0.69647 0.0
C509 C 0.70338 0.36868 0.66403 0.0
C510 C 0.75485 0.41458 0.64802 0.0
C511 C 0.65264 0.3249 0.68368 0.0
N512 N 0.71104 0.32675 0.71247 0.0
C513 C 0.67519 0.31233 0.70996 0.0
C514 C 0.66685 0.35295 0.66039 0.0
Eu515 Eu 0.75079 0.30669 0.75607 0.0
N516 N 0.7803 0.35803 0.72342 0.0
C517 C 0.81443 0.37569 0.73206 0.0
C518 C 0.81153 0.41865 0.68327 0.0
C519 C 0.83073 0.40588 0.7119 0.0
H520 H 0.66417 0.29055 0.72788 0.0
H521 H 0.85808 0.41924 0.71846 0.0
H522 H 0.76609 0.43781 0.63148 0.0
H523 H 0.62436 0.31294 0.68139 0.0
H524 H 0.82957 0.36618 0.75412 0.0
H525 H 0.68566 0.11458 0.80015 0.0
H526 H 0.82418 0.44211 0.66777 0.0
H527 H 0.87752 0.24887 0.79532 0.0
H528 H 0.71281 0.16945 0.76638 0.0
H529 H 0.91756 0.22598 0.84103 0.0
H530 H 0.70249 0.40897 0.62142 0.0
H531 H 0.72045 0.09005 0.84939 0.0
H532 H 0.77863 0.09405 0.88531 0.0
H533 H 0.64932 0.36273 0.64012 0.0
H534 H 0.84161 0.12433 0.89649 0.0
N535 N 0.76268 0.17718 0.79642 0.0
C536 C 0.72858 0.15938 0.78768 0.0
C537 C 0.73264 0.11432 0.8346 0.0
C538 C 0.76805 0.13172 0.84263 0.0
C539 C 0.71295 0.12805 0.80682 0.0
C540 C 0.78258 0.16339 0.82268 0.0
H541 H 0.89368 0.1733 0.87998 0.0
N542 N 0.83122 0.21008 0.80868 0.0
C543 C 0.88956 0.21296 0.83802 0.0
C544 C 0.81792 0.18039 0.82902 0.0
C545 C 0.8668 0.22582 0.81211 0.0
C546 C 0.87597 0.18327 0.85998 0.0
C547 C 0.83985 0.1663 0.85541 0.0
O548 O 0.8302 0.22268 0.73795 0.0
O549 O 0.78876 0.28417 0.73577 0.0
O550 O 0.72963 0.27966 0.71126 0.0
O551 O 0.7374 0.22389 0.73457 0.0
O552 O 0.83851 0.27396 0.74936 0.0
O553 O 0.7761 0.19097 0.73376 0.0
O554 O 0.71238 0.32146 0.78052 0.0
O555 O 0.75327 0.25384 0.78488 0.0
O556 O 0.81002 0.25564 0.81122 0.0
O557 O 0.80361 0.31248 0.78968 0.0
O558 O 0.70383 0.26463 0.77677 0.0
O559 O 0.7682 0.34753 0.78742 0.0
C560 C 0.8217 0.29659 0.73238 0.0
C561 C 0.82178 0.16561 0.72534 0.0
C562 C 0.85219 0.13524 0.6976 0.0
C563 C 0.83974 0.165 0.69922 0.0
C564 C 0.84683 0.10615 0.72269 0.0
C565 C 0.81687 0.1366 0.75041 0.0
C566 C 0.82946 0.107 0.74905 0.0
C567 C 0.72392 0.24536 0.71075 0.0
C568 C 0.80806 0.19667 0.72544 0.0
C569 C 0.82526 0.13542 0.87595 0.0
C570 C 0.78941 0.11817 0.86958 0.0
C571 C 0.72129 0.24135 0.79105 0.0
C572 C 0.72652 0.38032 0.79156 0.0
C573 C 0.71187 0.38713 0.81759 0.0
C574 C 0.70223 0.41954 0.8161 0.0
C575 C 0.70797 0.44501 0.78804 0.0
C576 C 0.732 0.40628 0.76404 0.0
C577 C 0.72283 0.43841 0.76237 0.0
C578 C 0.81736 0.28981 0.81229 0.0
C579 C 0.73614 0.3462 0.79357 0.0
H580 H 0.84326 0.18736 0.67974 0.0
H581 H 0.85626 0.08289 0.72196 0.0
H582 H 0.80316 0.13672 0.77081 0.0
H583 H 0.82554 0.08458 0.76835 0.0
H584 H 0.70824 0.36717 0.83902 0.0
H585 H 0.70029 0.46985 0.78549 0.0
H586 H 0.74338 0.40178 0.74386 0.0
H587 H 0.72699 0.45822 0.74093 0.0
Eu588 Eu 0.76752 0.72302 0.73279 0.0
C589 C 0.86487 0.82282 0.82104 0.0
C590 C 0.87581 0.78392 0.87137 0.0
C591 C 0.92058 0.83732 0.85617 0.0
C592 C 0.85398 0.79206 0.84228 0.0
C593 C 0.898 0.84616 0.82806 0.0
C594 C 0.9095 0.80626 0.8778 0.0
C595 C 0.88269 0.8867 0.78054 0.0
N596 N 0.84219 0.83087 0.79442 0.0
C597 C 0.85002 0.86284 0.77478 0.0
C598 C 0.90698 0.87816 0.8071 0.0
Eu599 Eu 0.78811 0.78843 0.78538 0.0
N600 N 0.82113 0.77121 0.8355 0.0
C601 C 0.80747 0.74326 0.85793 0.0
C602 C 0.86272 0.75409 0.89355 0.0
C603 C 0.82821 0.73396 0.88698 0.0
H604 H 0.83137 0.86943 0.75409 0.0
H605 H 0.81756 0.71121 0.90425 0.0
H606 H 0.92679 0.80022 0.89983 0.0
H607 H 0.88912 0.91163 0.7645 0.0
H608 H 0.78087 0.72741 0.85329 0.0
H609 H 0.72463 0.79026 0.61286 0.0
H610 H 0.8787 0.74686 0.9161 0.0
H611 H 0.73212 0.64099 0.77026 0.0
H612 H 0.76474 0.78141 0.66327 0.0
H613 H 0.67863 0.59321 0.76316 0.0
H614 H 0.94627 0.85477 0.86184 0.0
H615 H 0.66737 0.74695 0.60376 0.0
H616 H 0.62589 0.68972 0.6232 0.0
H617 H 0.9322 0.89677 0.81162 0.0
H618 H 0.61338 0.63624 0.664 0.0
N619 N 0.73056 0.73368 0.68332 0.0
C620 C 0.73999 0.76214 0.65984 0.0
C621 C 0.68494 0.74287 0.62606 0.0
C622 C 0.67602 0.71306 0.64959 0.0
C623 C 0.71726 0.76731 0.63107 0.0
C624 C 0.6998 0.70902 0.67827 0.0
H625 H 0.63302 0.59991 0.71597 0.0
N626 N 0.71685 0.6753 0.72793 0.0
C627 C 0.68218 0.61725 0.74564 0.0
C628 C 0.6927 0.67894 0.70124 0.0
C629 C 0.71255 0.64452 0.74957 0.0
C630 C 0.65647 0.62115 0.719 0.0
C631 C 0.66173 0.65206 0.69617 0.0
O632 O 0.79625 0.68202 0.73448 0.0
O633 O 0.80571 0.74099 0.77676 0.0
O634 O 0.83528 0.79805 0.75643 0.0
O635 O 0.80511 0.77287 0.71174 0.0
O636 O 0.78269 0.68815 0.7803 0.0
O637 O 0.79234 0.71951 0.69056 0.0
O638 O 0.77431 0.8368 0.79187 0.0
O639 O 0.7511 0.77178 0.74093 0.0
O640 O 0.71803 0.71483 0.75679 0.0
O641 O 0.74461 0.74018 0.80261 0.0
O642 O 0.77198 0.82482 0.73943 0.0
O643 O 0.75341 0.78749 0.82169 0.0
C644 C 0.80593 0.71116 0.79516 0.0
C645 C 0.79748 0.66231 0.68556 0.0
C646 C 0.8206 0.61825 0.66742 0.0
C647 C 0.82628 0.64821 0.68275 0.0
C648 C 0.78586 0.60281 0.65467 0.0
C649 C 0.76311 0.64686 0.67219 0.0
C650 C 0.75737 0.61725 0.65684 0.0
C651 C 0.83316 0.79338 0.72582 0.0
C652 C 0.80343 0.69136 0.70451 0.0
C653 C 0.63743 0.65649 0.6682 0.0
C654 C 0.64455 0.68694 0.64497 0.0
C655 C 0.75001 0.80196 0.7234 0.0
C656 C 0.76139 0.83945 0.84452 0.0
C657 C 0.73448 0.85383 0.85164 0.0
C658 C 0.7391 0.86981 0.87991 0.0
C659 C 0.77126 0.87093 0.90076 0.0
C660 C 0.7932 0.84148 0.86551 0.0
C661 C 0.79805 0.85711 0.89344 0.0
C662 C 0.71727 0.7203 0.78657 0.0
C663 C 0.75552 0.82138 0.81579 0.0
H664 H 0.85291 0.65999 0.69312 0.0
H665 H 0.78085 0.57989 0.64257 0.0
H666 H 0.7407 0.65741 0.67387 0.0
H667 H 0.73073 0.60536 0.64672 0.0
H668 H 0.71012 0.85259 0.83506 0.0
H669 H 0.77564 0.8819 0.92316 0.0
H670 H 0.81415 0.8307 0.86054 0.0
H671 H 0.82258 0.85817 0.90971 0.0
Fe672 Fe 1.01489 0.05958 0.4971 0.0
O673 O 0.99058 0.01218 0.51957 0.0
Fe674 Fe 0.10141 0.04968 0.4972 0.0
Fe675 Fe 0.93874 0.9916 0.51031 0.0
O676 O 0.04964 0.03408 0.48852 0.0
O677 O 0.04923 0.03072 0.48742 0.0
O678 O 0.99049 0.00881 0.51916 0.0
Fe679 Fe 1.02453 0.98342 0.50937 0.0
C680 C 0.94974 0.06517 0.52814 0.0
O681 O 0.98688 0.04786 0.45358 0.0
O682 O 0.93236 0.0259 0.46787 0.0
O683 O 0.06359 0.9631 0.49402 0.0
O684 O 0.10198 0.01243 0.46924 0.0
O685 O 0.09356 0.08982 0.4603 0.0
O686 O 0.04383 0.10577 0.47059 0.0
O687 O 0.94117 0.95412 0.48297 0.0
O688 O 0.99463 0.97234 0.46597 0.0
C689 C 0.07164 0.1104 0.45532 0.0
O690 O 0.05483 0.99477 0.55188 0.0
O691 O 0.10794 0.01038 0.5355 0.0
O692 O 0.97485 0.08025 0.50943 0.0
O693 O 0.93652 0.0314 0.53421 0.0
C694 C 0.95376 0.03595 0.44632 0.0
C695 C 0.96217 0.95592 0.46219 0.0
C696 C 0.9688 0.93377 0.55423 0.0
O697 O 0.94747 0.95493 0.54998 0.0
O698 O 0.99517 0.93727 0.53709 0.0
C699 C 0.08831 0.97862 0.47481 0.0
O700 O 0.09994 0.08275 0.52932 0.0
O701 O 0.04397 0.07214 0.54088 0.0
C702 C 0.08685 0.99245 0.55584 0.0
C703 C 0.07738 0.08459 0.54738 0.0
Fe704 Fe 0.52841 0.96637 0.01855 0.0
O705 O 0.55725 0.01145 0.03347 0.0
Fe706 Fe 0.44725 0.98915 0.98706 0.0
Fe707 Fe 0.60982 0.02481 0.03634 0.0
O708 O 0.49968 0.9995 0.99082 0.0
O709 O 0.50012 1.00462 0.98804 0.0
O710 O 0.55733 0.01637 0.03112 0.0
Fe711 Fe 0.52844 0.05004 1.00333 0.0
C712 C 0.59297 0.94769 0.07229 0.0
O713 O 0.55891 0.97331 0.98107 0.0
O714 O 0.61345 0.98992 1.00665 0.0
O715 O 0.48956 0.07778 0.97038 0.0
O716 O 0.4499 0.03159 0.94891 0.0
O717 O 0.45206 0.95098 0.96186 0.0
O718 O 0.49332 0.92422 0.99592 0.0
O719 O 0.61408 0.06437 0.99657 0.0
O720 O 0.56201 0.06322 0.96541 0.0
C721 C 0.4682 0.92526 0.9712 0.0
O722 O 0.49763 0.04158 0.04096 0.0
O723 O 0.44307 0.02436 0.01591 0.0
O724 O 0.56507 0.9378 0.05097 0.0
O725 O 0.60723 0.98093 0.07434 0.0
C726 C 0.59238 0.97619 0.98368 0.0
C727 C 0.5963 0.07301 0.96941 0.0
C728 C 0.58925 0.08954 0.05216 0.0
O729 O 0.60516 0.06347 0.06143 0.0
O730 O 0.56343 0.09097 0.02793 0.0
C731 C 0.46133 0.06531 0.94997 0.0
O732 O 0.44334 0.94965 0.02795 0.0
O733 O 0.49694 0.95654 0.0567 0.0
C734 C 0.46412 0.03818 0.03875 0.0
C735 C 0.46306 0.945 0.05489 0.0
Fe736 Fe 0.03149 0.55064 1.00568 0.0
O737 O 0.99811 0.50723 0.99122 0.0
Fe738 Fe 0.10866 0.51872 0.03743 0.0
Fe739 Fe 0.9454 0.49766 0.99068 0.0
O740 O 0.05678 0.51427 0.03348 0.0
O741 O 0.05599 0.50938 0.03652 0.0
O742 O 0.99726 0.50242 0.99439 0.0
Fe743 Fe 1.0229 0.46605 0.02165 0.0
C744 C 0.96966 0.54677 0.04258 0.0
O745 O 0.99721 0.58256 0.97313 0.0
O746 O 0.9502 0.54101 0.95279 0.0
O747 O 0.05184 0.47075 0.98347 0.0
O748 O 0.10749 0.48241 1.00773 0.0
O749 O 0.11578 0.55867 0.99779 0.0
O750 O 0.06355 0.55888 0.96738 0.0
O751 O 0.9461 0.45851 0.96507 0.0
O752 O 0.98445 0.42709 0.99857 0.0
C753 C 0.09786 0.5672 0.97078 0.0
O754 O 0.05743 0.43398 0.05352 0.0
O755 O 0.10352 0.47534 0.07518 0.0
O756 O 1.00244 0.54695 0.0437 0.0
O757 O 0.94636 0.53383 0.02061 0.0
C758 C 0.96759 0.57373 0.95316 0.0
C759 C 0.96017 0.43121 0.97371 0.0
C760 C 0.95706 0.44829 0.05698 0.0
O761 O 0.93877 0.45746 0.03036 0.0
O762 O 0.9913 0.45702 0.06015 0.0
C763 C 0.08444 0.47005 0.98531 0.0
O764 O 0.10792 0.55806 0.06277 0.0
O765 O 0.07008 0.5896 0.02861 0.0
C766 C 0.08679 0.44261 0.07382 0.0
C767 C 0.09396 0.58542 0.05381 0.0
Fe768 Fe 0.514 0.51759 0.97545 0.0
O769 O 0.54495 0.54445 1.00915 0.0
Fe770 Fe 0.45422 0.45257 0.01916 0.0
Fe771 Fe 0.59485 0.56889 1.00481 0.0
O772 O 0.50265 0.47913 0.013 0.0
O773 O 0.50374 0.47823 0.01592 0.0
O774 O 0.5458 0.54376 0.01224 0.0
Fe775 Fe 0.53439 0.50507 0.04978 0.0
C776 C 0.58518 0.51112 0.96197 0.0
O777 O 0.53186 0.56123 0.93971 0.0
O778 O 0.57126 0.60136 0.96887 0.0
O779 O 0.4934 0.52558 0.05768 0.0
O780 O 0.44748 0.47848 0.0556 0.0
O781 O 0.43257 0.48779 0.98579 0.0
O782 O 0.47255 0.53884 0.98156 0.0
O783 O 0.59111 0.58989 0.0454 0.0
O784 O 0.56846 0.53912 0.08011 0.0
C785 C 0.44065 0.52111 0.9842 0.0
O786 O 0.51741 0.46103 0.08504 0.0
O787 O 0.47804 0.42047 0.05575 0.0
O788 O 0.55411 0.49582 0.96935 0.0
O789 O 0.6003 0.54233 0.96776 0.0
C790 C 0.55318 0.59221 0.94195 0.0
C791 C 0.58489 0.57238 0.07424 0.0
C792 C 0.60802 0.50035 0.04181 0.0
O793 O 0.61705 0.53378 0.03782 0.0
O794 O 0.57568 0.48372 0.04352 0.0
C795 C 0.46203 0.50884 0.06377 0.0
O796 O 0.45946 0.43201 0.97871 0.0
O797 O 0.48035 0.48368 0.94465 0.0
C798 C 0.49757 0.4296 0.08218 0.0
C799 C 0.46498 0.45011 0.94995 0.0
Fe800 Fe 0.02843 0.42674 0.51614 0.0
O801 O 0.04097 0.47863 0.51319 0.0
Fe802 Fe 1.01312 0.50843 0.47153 0.0
Fe803 Fe 0.03438 0.50101 0.54983 0.0
O804 O 0.0385 0.47915 0.5086 0.0
O805 O 1.00921 0.53274 0.50806 0.0
O806 O 1.01165 0.53224 0.51236 0.0
Fe807 Fe 1.02335 0.58473 0.50618 0.0
C808 C 0.9796 0.43373 0.56438 0.0
O809 O 0.07418 0.43057 0.54928 0.0
O810 O 0.06164 0.46289 0.58406 0.0
O811 O 0.05489 0.59477 0.46754 0.0
O812 O 0.06161 0.54225 0.46193 0.0
O813 O 1.02402 0.47843 0.43936 0.0
O814 O 0.0519 0.43734 0.47343 0.0
O815 O 0.08423 0.53594 0.54848 0.0
O816 O 0.06816 0.58729 0.53957 0.0
C817 C 0.04389 0.45538 0.4452 0.0
O818 O 0.97948 0.58417 0.46997 0.0
O819 O 0.98397 0.54448 0.43809 0.0
O820 O 0.99979 0.41641 0.55687 0.0
O821 O 0.98458 0.46687 0.55494 0.0
C822 C 0.07816 0.43967 0.57795 0.0
C823 C 0.09033 0.56846 0.55175 0.0
C824 C 1.00173 0.5538 0.57531 0.0
O825 O 1.0204 0.52958 0.58162 0.0
O826 O 0.99678 0.57363 0.54722 0.0
C827 C 0.06991 0.57581 0.45535 0.0
O828 O 0.96389 0.47301 0.47646 0.0
O829 O 0.98123 0.42202 0.48643 0.0
C830 C 0.97111 0.57075 0.44304 0.0
C831 C 0.95765 0.4397 0.47639 0.0
Fe832 Fe 0.52476 0.96512 0.51821 0.0
O833 O 0.55047 1.0061 0.54052 0.0
Fe834 Fe 0.49675 0.01031 0.44025 0.0
Fe835 Fe 0.55551 1.00304 0.58793 0.0
O836 O 0.50158 1.00271 0.48899 0.0
O837 O 0.50206 0.00765 0.4876 0.0
O838 O 0.55084 0.01102 0.53917 0.0
Fe839 Fe 0.52803 0.04876 0.50961 0.0
C840 C 0.48812 0.94165 0.57974 0.0
O841 O 0.55557 0.93203 0.55319 0.0
O842 O 0.59008 0.96999 0.58732 0.0
O843 O 0.56907 0.0626 0.47937 0.0
O844 O 0.53624 0.05665 0.43171 0.0
O845 O 0.53377 0.9815 0.43912 0.0
O846 O 0.56475 0.97528 0.48849 0.0
O847 O 0.59028 0.0523 0.57954 0.0
O848 O 0.55978 0.0857 0.53901 0.0
C849 C 0.56057 0.97386 0.45802 0.0
O850 O 0.49767 0.08214 0.4741 0.0
O851 O 0.46274 0.04396 0.44046 0.0
O852 O 0.48401 0.9504 0.54868 0.0
O853 O 0.51654 0.95584 0.59648 0.0
C854 C 0.58202 0.93978 0.57654 0.0
C855 C 0.58453 0.0823 0.56356 0.0
C856 C 0.49172 0.03982 0.56981 0.0
O857 O 0.51788 0.03111 0.589 0.0
O858 O 0.488 0.03934 0.53918 0.0
C859 C 0.56512 0.0702 0.4482 0.0
O860 O 0.46151 0.96182 0.44909 0.0
O861 O 0.49276 0.92825 0.48874 0.0
C862 C 0.47124 0.07445 0.45069 0.0
C863 C 0.46721 0.93181 0.46496 0.0
H864 H 0.21955 0.22634 0.35621 0.0
H865 H 0.15225 0.19399 0.2696 0.0
H866 H 0.10076 0.17189 0.3017 0.0
H867 H 0.18624 0.15332 0.40968 0.0
H868 H 0.19019 0.17692 0.44329 0.0
H869 H 0.21912 0.19428 0.41199 0.0
H870 H 0.19837 0.25298 0.40231 0.0
H871 H 0.16867 0.2353 0.43327 0.0
H872 H 0.15158 0.25222 0.39268 0.0
H873 H 0.05861 0.14745 0.34514 0.0
H874 H 0.03313 0.1162 0.39588 0.0
H875 H 0.12856 0.16536 0.45295 0.0
C876 C 0.19392 0.21521 0.34365 0.0
C877 C 0.18995 0.21202 0.31032 0.0
C878 C 0.15596 0.19669 0.29515 0.0
C879 C 0.1265 0.18445 0.31311 0.0
C880 C 0.13145 0.18813 0.34605 0.0
C881 C 0.1645 0.20303 0.36109 0.0
C882 C 0.16428 0.20055 0.39734 0.0
C883 C 0.19153 0.18003 0.41669 0.0
C884 C 0.17112 0.23746 0.40695 0.0
C885 C 0.12633 0.18021 0.40088 0.0
C886 C 0.10736 0.17419 0.37094 0.0
C887 C 0.0729 0.15276 0.36858 0.0
C888 C 0.05838 0.13545 0.39749 0.0
C889 C 0.07859 0.13939 0.42813 0.0
C890 C 0.11216 0.16322 0.42978 0.0
H891 H 0.83177 0.08759 0.30583 0.0
H892 H 0.92063 0.10817 0.24939 0.0
H893 H 0.94191 0.05961 0.28449 0.0
H894 H 0.8617 0.08513 0.37067 0.0
H895 H 0.83657 0.04686 0.39459 0.0
H896 H 0.81633 0.06471 0.35643 0.0
H897 H 0.80294 1.00484 0.33583 0.0
H898 H 0.82243 0.98617 0.37484 0.0
H899 H 0.83813 0.98237 0.33793 0.0
H900 H 0.97017 0.04164 0.33818 0.0
H901 H 0.99234 0.04046 0.39619 0.0
H902 H 0.88469 0.02472 0.41923 0.0
C903 C 0.85466 0.08113 0.29944 0.0
C904 C 0.87693 0.10475 0.27735 0.0
C905 C 0.90494 0.09299 0.26848 0.0
C906 C 0.91686 0.0646 0.28792 0.0
C907 C 0.89886 0.04675 0.31452 0.0
C908 C 0.8664 0.05249 0.31868 0.0
C909 C 0.85582 0.03525 0.35224 0.0
C910 C 0.84194 0.05952 0.36944 0.0
C911 C 0.82822 1.00007 0.35006 0.0
C912 C 0.89121 0.02846 0.36869 0.0
C913 C 0.91498 0.03292 0.34614 0.0
C914 C 0.95139 0.0363 0.35588 0.0
C915 C 0.9639 0.03643 0.3889 0.0
C916 C 0.94008 0.03293 0.41201 0.0
C917 C 0.90325 0.02713 0.40191 0.0
H918 H 0.82384 0.82435 0.35555 0.0
H919 H 0.8823 0.87296 0.27282 0.0
H920 H 0.92461 0.91326 0.30712 0.0
H921 H 0.83269 0.90774 0.38508 0.0
H922 H 0.83455 0.88686 0.42705 0.0
H923 H 0.80973 0.86224 0.39553 0.0
H924 H 0.84637 0.81458 0.41541 0.0
H925 H 0.87165 0.83928 0.44664 0.0
H926 H 0.89431 0.82739 0.41774 0.0
H927 H 0.96391 0.94436 0.35348 0.0
H928 H 0.99054 0.96944 0.40391 0.0
H929 H 0.90117 0.90454 0.45329 0.0
C930 C 0.84538 0.84343 0.34437 0.0
C931 C 0.85053 0.84431 0.31163 0.0
C932 C 0.87861 0.87063 0.29808 0.0
C933 C 0.90261 0.89387 0.31738 0.0
C934 C 0.89734 0.89132 0.34991 0.0
C935 C 0.86871 0.86738 0.3629 0.0
C936 C 0.86772 0.87067 0.398 0.0
C937 C 0.83419 0.88259 0.40161 0.0
C938 C 0.87017 0.83591 0.42078 0.0
C939 C 0.90105 0.89936 0.40328 0.0
C940 C 0.91801 0.91088 0.3754 0.0
C941 C 0.95043 0.93594 0.3752 0.0
C942 C 0.96546 0.9499 0.40403 0.0
C943 C 0.94774 0.93934 0.43247 0.0
C944 C 0.91519 0.91359 0.43189 0.0
H945 H 0.11751 0.88578 0.33292 0.0
H946 H 0.22833 0.90074 0.37442 0.0
H947 H 0.2136 0.91922 0.42244 0.0
H948 H 0.10111 0.95952 0.35562 0.0
H949 H 0.05642 0.93924 0.36541 0.0
H950 H 0.07457 0.92299 0.33617 0.0
H951 H 0.06151 0.86024 0.36987 0.0
H952 H 0.04331 0.87645 0.39925 0.0
H953 H 0.07894 0.85388 0.41233 0.0
H954 H 0.18966 0.94566 0.46046 0.0
H955 H 0.15679 0.97442 0.48856 0.0
H956 H 0.05985 0.93802 0.42653 0.0
C957 C 0.13853 0.89242 0.35239 0.0
C958 C 0.17411 0.8917 0.34997 0.0
C959 C 0.20086 0.9006 0.37592 0.0
C960 C 0.19275 0.91121 0.40327 0.0
C961 C 0.15762 0.91223 0.40465 0.0
C962 C 0.13077 0.90261 0.38017 0.0
C963 C 0.0956 0.90798 0.38697 0.0
C964 C 0.0811 0.93398 0.35941 0.0
C965 C 0.06822 0.87252 0.39243 0.0
C966 C 0.10728 0.92365 0.41832 0.0
C967 C 0.14319 0.92566 0.42808 0.0
C968 C 0.16129 0.94302 0.45385 0.0
C969 C 0.14239 0.95908 0.46982 0.0
C970 C 0.10555 0.95677 0.46077 0.0
C971 C 0.08763 0.93853 0.4349 0.0
H972 H 0.18557 0.84318 0.58703 0.0
H973 H 0.14763 0.82208 0.68193 0.0
H974 H 0.09631 0.84508 0.65868 0.0
H975 H 0.18785 0.91938 0.576 0.0
H976 H 0.17269 0.93002 0.53348 0.0
H977 H 0.19048 0.89198 0.54705 0.0
H978 H 0.13324 0.85103 0.52398 0.0
H979 H 0.11484 0.88903 0.50838 0.0
H980 H 0.09052 0.85222 0.53426 0.0
H981 H 0.07138 0.89491 0.63734 0.0
H982 H 0.06587 0.95565 0.61371 0.0
H983 H 0.124 0.95356 0.53512 0.0
C984 C 0.16551 0.84213 0.60244 0.0
C985 C 0.17178 0.83233 0.63634 0.0
C986 C 0.14431 0.82965 0.65577 0.0
C987 C 0.11455 0.84295 0.64268 0.0
C988 C 0.11289 0.8593 0.61043 0.0
C989 C 0.13693 0.8577 0.5899 0.0
C990 C 0.13636 0.88546 0.55988 0.0
C991 C 0.17403 0.90802 0.55385 0.0
C992 C 0.11761 0.86842 0.52986 0.0
C993 C 0.1138 0.90651 0.56986 0.0
C994 C 0.09865 0.88998 0.59792 0.0
C995 C 0.08146 0.90723 0.61438 0.0
C996 C 0.07882 0.94174 0.60122 0.0
C997 C 0.09378 0.9586 0.57237 0.0
C998 C 0.11173 0.94088 0.55687 0.0
H999 H 0.22875 0.18459 0.67185 0.0
H1000 H 0.1469 0.17959 0.73236 0.0
H1001 H 0.10165 0.14772 0.69366 0.0
H1002 H 0.17704 0.20055 0.5956 0.0
H1003 H 0.19571 0.17407 0.57566 0.0
H1004 H 0.22168 0.19494 0.60904 0.0
H1005 H 0.23104 0.13437 0.63981 0.0
H1006 H 0.20531 0.11329 0.60645 0.0
H1007 H 0.19283 0.09839 0.64711 0.0
H1008 H 0.06439 0.11796 0.64581 0.0
H1009 H 0.04005 0.09138 0.59572 0.0
H1010 H 0.14683 0.11642 0.56713 0.0
C1011 C 0.20138 0.17658 0.67726 0.0
C1012 C 0.19169 0.18439 0.70569 0.0
C1013 C 0.1554 0.17339 0.71141 0.0
C1014 C 0.12934 0.15549 0.68927 0.0
C1015 C 0.13984 0.14858 0.66137 0.0
C1016 C 0.17513 0.15864 0.6555 0.0
C1017 C 0.17969 0.14853 0.62366 0.0
C1018 C 0.19439 0.18149 0.59957 0.0
C1019 C 0.20363 0.12207 0.62962 0.0
C1020 C 0.14145 0.13136 0.61231 0.0
C1021 C 0.11873 0.13164 0.63428 0.0
C1022 C 0.08207 0.11751 0.62859 0.0
C1023 C 0.06843 0.10248 0.59997 0.0
C1024 C 0.09135 0.10157 0.57727 0.0
C1025 C 0.12835 0.11645 0.58379 0.0
H1026 H 0.8356 0.08343 0.6598 0.0
H1027 H 0.9076 0.18461 0.67136 0.0
H1028 H 0.93727 0.18153 0.62433 0.0
H1029 H 0.8975 0.04261 0.64075 0.0
H1030 H 0.86686 0.01876 0.61136 0.0
H1031 H 0.85034 0.03083 0.64413 0.0
H1032 H 0.80839 0.06298 0.6022 0.0
H1033 H 0.82509 0.05124 0.56923 0.0
H1034 H 0.82687 0.09688 0.57042 0.0
H1035 H 0.96247 0.16383 0.57903 0.0
H1036 H 0.98061 0.13311 0.54053 0.0
H1037 H 0.88914 0.04572 0.55773 0.0
C1038 C 0.85753 0.10497 0.65231 0.0
C1039 C 0.86956 0.13411 0.66916 0.0
C1040 C 0.89804 0.16207 0.65857 0.0
C1041 C 0.91494 0.16058 0.63191 0.0
C1042 C 0.90252 0.13125 0.61586 0.0
C1043 C 0.87424 0.10413 0.62559 0.0
C1044 C 0.86663 0.0749 0.60529 0.0
C1045 C 0.8706 0.03972 0.62666 0.0
C1046 C 0.82955 0.07131 0.58562 0.0
C1047 C 0.89582 0.08913 0.58332 0.0
C1048 C 0.91618 0.12176 0.58944 0.0
C1049 C 0.94632 0.13855 0.57363 0.0
C1050 C 0.95634 0.12101 0.55168 0.0
C1051 C 0.9363 0.08704 0.546 0.0
C1052 C 0.90508 0.0717 0.56135 0.0
H1053 H 0.83091 0.79949 0.65976 0.0
H1054 H 0.90083 0.8309 0.74544 0.0
H1055 H 0.94805 0.8628 0.71037 0.0
H1056 H 0.89897 0.78849 0.61429 0.0
H1057 H 0.87787 0.80643 0.57582 0.0
H1058 H 0.85129 0.78322 0.60804 0.0
H1059 H 0.82466 0.83744 0.60522 0.0
H1060 H 0.85063 0.86048 0.57271 0.0
H1061 H 0.85428 0.87998 0.60889 0.0
H1062 H 0.9856 0.89545 0.66486 0.0
H1063 H 1.00682 0.93054 0.61375 0.0
H1064 H 0.91263 0.87709 0.55835 0.0
C1065 C 0.85626 0.81265 0.6714 0.0
C1066 C 0.86212 0.81256 0.70549 0.0
C1067 C 0.89562 0.83063 0.71942 0.0
C1068 C 0.92271 0.84855 0.69968 0.0
C1069 C 0.91593 0.84801 0.6661 0.0
C1070 C 0.88335 0.83068 0.65214 0.0
C1071 C 0.88131 0.83652 0.61531 0.0
C1072 C 0.87712 0.80158 0.60263 0.0
C1073 C 0.85095 0.8547 0.59962 0.0
C1074 C 0.91757 0.86072 0.61046 0.0
C1075 C 0.9375 0.86647 0.64005 0.0
C1076 C 0.97066 0.89028 0.64163 0.0
C1077 C 0.98301 0.90964 0.61241 0.0
C1078 C 0.96247 0.90506 0.58205 0.0
C1079 C 0.9297 0.87974 0.58113 0.0
H1080 H 0.30805 0.08123 0.11385 0.0
H1081 H 0.38719 0.16687 0.15276 0.0
H1082 H 0.43462 0.14614 0.1354 0.0
H1083 H 0.3615 0.01519 0.13092 0.0
H1084 H 0.34444 0.99868 0.09301 0.0
H1085 H 0.31707 0.01725 0.11236 0.0
H1086 H 0.30851 0.06153 0.05959 0.0
H1087 H 0.33568 0.04302 0.04008 0.0
H1088 H 0.34715 0.08966 0.04205 0.0
H1089 H 0.47363 0.11786 0.11077 0.0
H1090 H 0.49971 0.08743 0.07782 0.0
H1091 H 0.39448 0.02387 0.05116 0.0
C1092 C 0.33527 0.09583 0.11883 0.0
C1093 C 0.34351 0.12576 0.135 0.0
C1094 C 0.37984 0.14344 0.14119 0.0
C1095 C 0.40711 0.13197 0.13121 0.0
C1096 C 0.39783 0.10283 0.11485 0.0
C1097 C 0.36272 0.08513 0.10857 0.0
C1098 C 0.35943 0.05638 0.08826 0.0
C1099 C 0.34474 0.01971 0.10728 0.0
C1100 C 0.33634 0.06307 0.05556 0.0
C1101 C 0.3981 0.06118 0.08345 0.0
C1102 C 0.41996 0.0876 0.09951 0.0
C1103 C 0.4567 0.09708 0.09817 0.0
C1104 C 0.47132 0.0796 0.07941 0.0
C1105 C 0.44919 0.05341 0.06169 0.0
C1106 C 0.41216 0.04384 0.06428 0.0
H1107 H 0.83835 0.37702 0.20871 0.0
H1108 H 0.79073 0.28452 0.16248 0.0
H1109 H 0.83352 0.3059 0.12142 0.0
H1110 H 0.84872 0.43599 0.13583 0.0
H1111 H 0.89136 0.4644 0.14695 0.0
H1112 H 0.86324 0.44163 0.17786 0.0
H1113 H 0.90889 0.40896 0.21216 0.0
H1114 H 0.93913 0.43697 0.1846 0.0
H1115 H 0.93437 0.39008 0.19087 0.0
H1116 H 0.88076 0.33818 0.0839 0.0
H1117 H 0.92399 0.38089 0.05028 0.0
H1118 H 0.94071 0.45514 0.11791 0.0
C1119 C 0.83768 0.36085 0.19043 0.0
C1120 C 0.81216 0.32791 0.18996 0.0
C1121 C 0.81074 0.30889 0.16428 0.0
C1122 C 0.83503 0.32097 0.14075 0.0
C1123 C 0.86036 0.35294 0.14229 0.0
C1124 C 0.86172 0.37288 0.16633 0.0
C1125 C 0.88958 0.40788 0.16045 0.0
C1126 C 0.8721 0.43936 0.1548 0.0
C1127 C 0.91971 0.4111 0.18877 0.0
C1128 C 0.90351 0.40453 0.12952 0.0
C1129 C 0.88655 0.37233 0.11978 0.0
C1130 C 0.89429 0.36325 0.09163 0.0
C1131 C 0.91921 0.38767 0.07273 0.0
C1132 C 0.93675 0.42112 0.0817 0.0
C1133 C 0.92878 0.42945 0.11079 0.0
H1134 H 0.73959 0.87029 0.21309 0.0
H1135 H 0.68776 0.76598 0.19048 0.0
H1136 H 0.64709 0.79177 0.14704 0.0
H1137 H 0.66149 0.90335 0.20231 0.0
H1138 H 0.68105 0.94749 0.18372 0.0
H1139 H 0.70861 0.92165 0.21085 0.0
H1140 H 0.74976 0.92979 0.16617 0.0
H1141 H 0.72267 0.95626 0.13912 0.0
H1142 H 0.7307 0.9181 0.12669 0.0
H1143 H 0.6072 0.82979 0.10713 0.0
H1144 H 0.57659 0.87459 0.07442 0.0
H1145 H 0.65299 0.956 0.12115 0.0
C1146 C 0.72077 0.85296 0.19805 0.0
C1147 C 0.71902 0.81565 0.20464 0.0
C1148 C 0.69164 0.79443 0.18541 0.0
C1149 C 0.66782 0.80904 0.16068 0.0
C1150 C 0.67026 0.84558 0.15494 0.0
C1151 C 0.69647 0.86737 0.17292 0.0
C1152 C 0.69247 0.90572 0.16251 0.0
C1153 C 0.6855 0.92042 0.19158 0.0
C1154 C 0.72589 0.92886 0.14775 0.0
C1155 C 0.65973 0.90217 0.13645 0.0
C1156 C 0.64736 0.86714 0.13247 0.0
C1157 C 0.61713 0.85722 0.11022 0.0
C1158 C 0.59954 0.88318 0.09157 0.0
C1159 C 0.61144 0.91966 0.0945 0.0
C1160 C 0.64237 0.92874 0.11773 0.0
H1161 H 0.20238 0.65961 0.211 0.0
H1162 H 0.20277 0.76547 0.15989 0.0
H1163 H 0.1622 0.74058 0.11443 0.0
H1164 H 0.20667 0.6233 0.14283 0.0
H1165 H 0.17829 0.58091 0.15587 0.0
H1166 H 0.20395 0.60737 0.18563 0.0
H1167 H 0.14621 0.6048 0.2101 0.0
H1168 H 0.12033 0.57829 0.18031 0.0
H1169 H 0.1095 0.61884 0.18403 0.0
H1170 H 0.1247 0.70314 0.07229 0.0
H1171 H 0.09619 0.65691 0.03761 0.0
H1172 H 0.12167 0.57692 0.11723 0.0
C1173 C 0.19358 0.67762 0.19048 0.0
C1174 C 0.20537 0.71448 0.18923 0.0
C1175 C 0.19355 0.7371 0.1617 0.0
C1176 C 0.17054 0.72321 0.13569 0.0
C1177 C 0.15959 0.68665 0.1376 0.0
C1178 C 0.17075 0.66424 0.16439 0.0
C1179 C 0.15725 0.62605 0.15983 0.0
C1180 C 0.18839 0.60839 0.1611 0.0
C1181 C 0.13181 0.60581 0.18506 0.0
C1182 C 0.13755 0.63043 0.12596 0.0
C1183 C 0.13866 0.66544 0.11352 0.0
C1184 C 0.1234 0.6756 0.08192 0.0
C1185 C 0.10721 0.64924 0.06242 0.0
C1186 C 0.10696 0.6134 0.0746 0.0
C1187 C 0.12166 0.60411 0.10701 0.0
H1188 H 0.35249 0.82818 0.82548 0.0
H1189 H 0.38715 0.73307 0.87075 0.0
H1190 H 0.42494 0.76505 0.91377 0.0
H1191 H 0.43543 0.89019 0.84243 0.0
H1192 H 0.41443 0.92281 0.85041 0.0
H1193 H 0.39142 0.89249 0.8228 0.0
H1194 H 0.33797 0.87238 0.85685 0.0
H1195 H 0.36071 0.90271 0.88453 0.0
H1196 H 0.34544 0.85647 0.89982 0.0
H1197 H 0.45885 0.80889 0.95331 0.0
H1198 H 0.48323 0.85865 0.98479 0.0
H1199 H 0.42408 0.92336 0.91357 0.0
C1200 C 0.36758 0.81383 0.84462 0.0
C1201 C 0.36656 0.7779 0.84461 0.0
C1202 C 0.38771 0.76064 0.86981 0.0
C1203 C 0.40917 0.77861 0.89454 0.0
C1204 C 0.40933 0.814 0.89391 0.0
C1205 C 0.38895 0.83131 0.86952 0.0
C1206 C 0.39312 0.8691 0.8744 0.0
C1207 C 0.40958 0.89518 0.84581 0.0
C1208 C 0.35718 0.87553 0.8792 0.0
C1209 C 0.41877 0.87042 0.90548 0.0
C1210 C 0.42813 0.83856 0.91641 0.0
C1211 C 0.45159 0.83392 0.94485 0.0
C1212 C 0.46543 0.86239 0.96261 0.0
C1213 C 0.45565 0.89513 0.95204 0.0
C1214 C 0.43219 0.89885 0.9228 0.0
H1215 H 0.22313 0.39037 0.92163 0.0
H1216 H 0.1332 0.31677 0.87898 0.0
H1217 H 0.09209 0.34899 0.89221 0.0
H1218 H 0.18561 0.3967 0.98794 0.0
H1219 H 0.2036 0.44318 0.98856 0.0
H1220 H 0.22692 0.41848 0.97138 0.0
H1221 H 0.22519 0.46027 0.91569 0.0
H1222 H 0.20411 0.48664 0.93347 0.0
H1223 H 0.18357 0.46982 0.8964 0.0
H1224 H 0.06048 0.38632 0.91486 0.0
H1225 H 0.04149 0.42393 0.94612 0.0
H1226 H 0.15236 0.47229 0.97446 0.0
C1227 C 0.19481 0.38123 0.91475 0.0
C1228 C 0.1814 0.35103 0.89923 0.0
C1229 C 0.14415 0.34009 0.89049 0.0
C1230 C 0.12058 0.35821 0.89795 0.0
C1231 C 0.13467 0.38752 0.91379 0.0
C1232 C 0.17097 0.39912 0.92182 0.0
C1233 C 0.17926 0.42998 0.94044 0.0
C1234 C 0.20008 0.42157 0.97406 0.0
C1235 C 0.19923 0.4637 0.92035 0.0
C1236 C 0.14199 0.43261 0.94339 0.0
C1237 C 0.11657 0.40856 0.92715 0.0
C1238 C 0.08022 0.4055 0.92735 0.0
C1239 C 0.06969 0.42707 0.94513 0.0
C1240 C 0.09543 0.45107 0.96284 0.0
C1241 C 0.132 0.45423 0.96125 0.0
H1242 H 0.65174 0.20528 0.80095 0.0
H1243 H 0.76063 0.21788 0.84707 0.0
H1244 H 0.73984 0.17465 0.89437 0.0
H1245 H 0.61295 0.19992 0.87503 0.0
H1246 H 0.57286 0.16773 0.86453 0.0
H1247 H 0.59604 0.19774 0.83285 0.0
H1248 H 0.60042 0.1449 0.80709 0.0
H1249 H 0.57732 0.11464 0.83872 0.0
H1250 H 0.62041 0.1109 0.83156 0.0
H1251 H 0.70827 0.13013 0.93633 0.0
H1252 H 0.66866 0.09117 0.97376 0.0
H1253 H 0.57651 0.10772 0.90507 0.0
C1254 C 0.67122 0.19854 0.82089 0.0
C1255 C 0.7083 0.21407 0.8194 0.0
C1256 C 0.73253 0.20549 0.84667 0.0
C1257 C 0.72081 0.18104 0.8739 0.0
C1258 C 0.68441 0.1657 0.87425 0.0
C1259 C 0.65977 0.17433 0.84873 0.0
C1260 C 0.62195 0.15512 0.85659 0.0
C1261 C 0.59963 0.18171 0.85729 0.0
C1262 C 0.60395 0.12989 0.83202 0.0
C1263 C 0.62922 0.13454 0.89063 0.0
C1264 C 0.66563 0.14098 0.89977 0.0
C1265 C 0.67975 0.12521 0.9295 0.0
C1266 C 0.6565 0.10285 0.95081 0.0
C1267 C 0.61867 0.09597 0.94322 0.0
C1268 C 0.60497 0.11209 0.91215 0.0
H1269 H 0.80505 0.64601 0.83437 0.0
H1270 H 0.8777 0.74702 0.81026 0.0
H1271 H 0.92585 0.72533 0.84827 0.0
H1272 H 0.83931 0.62653 0.91987 0.0
H1273 H 0.83352 0.5801 0.91902 0.0
H1274 H 0.80494 0.60465 0.89168 0.0
H1275 H 0.8224 0.585 0.84252 0.0
H1276 H 0.85103 0.56034 0.86963 0.0
H1277 H 0.8688 0.59334 0.83692 0.0
H1278 H 0.96825 0.68929 0.89226 0.0
H1279 H 0.99694 0.64563 0.93032 0.0
H1280 H 0.8975 0.56682 0.92208 0.0
C1281 C 0.83098 0.66393 0.83722 0.0
C1282 C 0.83643 0.69921 0.81955 0.0
C1283 C 0.8716 0.72065 0.82391 0.0
C1284 C 0.89951 0.70816 0.84551 0.0
C1285 C 0.89296 0.67341 0.86268 0.0
C1286 C 0.8593 0.65159 0.85829 0.0
C1287 C 0.85897 0.61482 0.8781 0.0
C1288 C 0.83262 0.60601 0.90368 0.0
C1289 C 0.84975 0.58672 0.85544 0.0
C1290 C 0.8975 0.6189 0.8945 0.0
C1291 C 0.91684 0.65298 0.8857 0.0
C1292 C 0.95288 0.66264 0.89875 0.0
C1293 C 0.96925 0.63739 0.92069 0.0
C1294 C 0.95035 0.60188 0.92974 0.0
C1295 C 0.91364 0.59321 0.91597 0.0
H1296 H 0.25197 0.36967 0.18688 0.0
H1297 H 0.18039 0.26782 0.21026 0.0
H1298 H 0.13142 0.28971 0.17375 0.0
H1299 H 0.18805 0.42101 0.18774 0.0
H1300 H 0.20485 0.45502 0.15532 0.0
H1301 H 0.2342 0.43012 0.18105 0.0
H1302 H 0.25056 0.41237 0.13032 0.0
H1303 H 0.22129 0.43724 0.1044 0.0
H1304 H 0.21565 0.39114 0.10216 0.0
H1305 H 0.088 0.32612 0.13152 0.0
H1306 H 0.05832 0.37021 0.09527 0.0
H1307 H 0.15732 0.44958 0.10357 0.0
C1308 C 0.22611 0.3516 0.18413 0.0
C1309 C 0.22121 0.31604 0.2011 0.0
C1310 C 0.1861 0.29441 0.197 0.0
C1311 C 0.15772 0.30701 0.1763 0.0
C1312 C 0.16371 0.34207 0.15985 0.0
C1313 C 0.19731 0.36406 0.16403 0.0
C1314 C 0.19701 0.40114 0.14524 0.0
C1315 C 0.2066 0.42844 0.16873 0.0
C1316 C 0.22265 0.41106 0.11898 0.0
C1317 C 0.15819 0.39706 0.12968 0.0
C1318 C 0.13926 0.3627 0.13797 0.0
C1319 C 0.10305 0.35299 0.12544 0.0
C1320 C 0.08612 0.37848 0.10456 0.0
C1321 C 0.1046 0.41426 0.09612 0.0
C1322 C 0.14148 0.42298 0.10932 0.0
H1323 H 0.22194 0.62696 0.8222 0.0
H1324 H 0.27336 0.71939 0.86743 0.0
H1325 H 0.22914 0.70159 0.90723 0.0
H1326 H 0.12602 0.61686 0.83732 0.0
H1327 H 0.12057 0.56994 0.84559 0.0
H1328 H 0.15216 0.59614 0.81845 0.0
H1329 H 0.19653 0.56351 0.85711 0.0
H1330 H 0.1655 0.54293 0.88617 0.0
H1331 H 0.20783 0.57069 0.89902 0.0
H1332 H 0.17841 0.67411 0.94238 0.0
H1333 H 0.13237 0.63482 0.9752 0.0
H1334 H 0.11527 0.55644 0.91162 0.0
C1335 C 0.22318 0.64391 0.83996 0.0
C1336 C 0.25006 0.67606 0.84022 0.0
C1337 C 0.25229 0.69578 0.86557 0.0
C1338 C 0.22718 0.68573 0.8884 0.0
C1339 C 0.20032 0.65482 0.8868 0.0
C1340 C 0.19858 0.63364 0.86368 0.0
C1341 C 0.16954 0.59956 0.87011 0.0
C1342 C 0.14044 0.59545 0.84104 0.0
C1343 C 0.1859 0.56724 0.87871 0.0
C1344 C 0.15461 0.60544 0.89955 0.0
C1345 C 0.17263 0.6377 0.90853 0.0
C1346 C 0.16418 0.64892 0.93528 0.0
C1347 C 0.13757 0.62649 0.95367 0.0
C1348 C 0.11904 0.59285 0.94563 0.0
C1349 C 0.12777 0.58241 0.91788 0.0
H1350 H 0.38469 0.23078 0.83054 0.0
H1351 H 0.28652 0.15311 0.81163 0.0
H1352 H 0.31209 0.10762 0.84994 0.0
H1353 H 0.44468 0.17308 0.83545 0.0
H1354 H 0.47586 0.19138 0.86773 0.0
H1355 H 0.44962 0.21837 0.8403 0.0
H1356 H 0.42572 0.232 0.88912 0.0
H1357 H 0.45193 0.20512 0.91678 0.0
H1358 H 0.40447 0.1961 0.9179 0.0
H1359 H 0.34913 0.06946 0.89023 0.0
H1360 H 0.39199 0.04122 0.92662 0.0
H1361 H 0.47074 0.14127 0.92162 0.0
C1362 C 0.36824 0.20425 0.83479 0.0
C1363 C 0.33249 0.1964 0.81822 0.0
C1364 C 0.31302 0.16079 0.82422 0.0
C1365 C 0.32773 0.13451 0.84599 0.0
C1366 C 0.3626 0.14334 0.862 0.0
C1367 C 0.38271 0.17746 0.85664 0.0
C1368 C 0.41996 0.17952 0.87649 0.0
C1369 C 0.44928 0.1913 0.85363 0.0
C1370 C 0.42589 0.2047 0.90156 0.0
C1371 C 0.41803 0.14114 0.89371 0.0
C1372 C 0.38437 0.1211 0.88481 0.0
C1373 C 0.37543 0.08519 0.89694 0.0
C1374 C 0.40078 0.06916 0.91796 0.0
C1375 C 0.43627 0.08787 0.92784 0.0
C1376 C 0.44451 0.12519 0.91533 0.0
H1377 H 0.84822 0.35883 0.81753 0.0
H1378 H 0.84422 0.2522 0.86837 0.0
H1379 H 0.8858 0.27616 0.91388 0.0
H1380 H 0.94186 0.39595 0.84353 0.0
H1381 H 0.93328 0.43756 0.84717 0.0
H1382 H 0.90582 0.4115 0.81772 0.0
H1383 H 0.84931 0.41189 0.84268 0.0
H1384 H 0.87653 0.43801 0.87206 0.0
H1385 H 0.84682 0.39663 0.88561 0.0
H1386 H 0.9251 0.31319 0.95601 0.0
H1387 H 0.95573 0.35932 0.99031 0.0
H1388 H 0.93312 0.44004 0.91024 0.0
C1389 C 0.85626 0.34038 0.83803 0.0
C1390 C 0.84306 0.30365 0.83926 0.0
C1391 C 0.85425 0.28051 0.86671 0.0
C1392 C 0.87789 0.29386 0.89269 0.0
C1393 C 0.89023 0.33036 0.89074 0.0
C1394 C 0.87976 0.35319 0.86398 0.0
C1395 C 0.89501 0.39127 0.86821 0.0
C1396 C 0.92051 0.41017 0.84264 0.0
C1397 C 0.86514 0.41056 0.86709 0.0
C1398 C 0.91494 0.38645 0.90192 0.0
C1399 C 0.91239 0.35126 0.91458 0.0
C1400 C 0.92753 0.34084 0.94617 0.0
C1401 C 0.94497 0.36714 0.96545 0.0
C1402 C 0.9466 0.40319 0.95303 0.0
C1403 C 0.93213 0.41269 0.9206 0.0
H1404 H 0.74697 0.92761 0.91073 0.0
H1405 H 0.66602 0.84498 0.86932 0.0
H1406 H 0.61935 0.86701 0.88662 0.0
H1407 H 0.70691 0.91982 0.98194 0.0
H1408 H 0.71986 0.96633 0.98452 0.0
H1409 H 0.74646 0.94695 0.96522 0.0
H1410 H 0.74017 0.99225 0.91275 0.0
H1411 H 0.71341 0.01173 0.9319 0.0
H1412 H 0.69637 0.99605 0.89361 0.0
H1413 H 0.58134 0.89609 0.91165 0.0
H1414 H 0.55601 0.92729 0.94445 0.0
H1415 H 0.66226 0.98807 0.97252 0.0
C1416 C 0.71949 0.91399 0.90518 0.0
C1417 C 0.71047 0.88446 0.88841 0.0
C1418 C 0.67391 0.86802 0.88145 0.0
C1419 C 0.64709 0.88025 0.89138 0.0
C1420 C 0.6571 0.90894 0.90837 0.0
C1421 C 0.69247 0.92551 0.91528 0.0
C1422 C 0.69646 0.95415 0.93589 0.0
C1423 C 0.71873 0.94633 0.96884 0.0
C1424 C 0.71255 0.99071 0.91743 0.0
C1425 C 0.65784 0.95063 0.94014 0.0
C1426 C 0.63545 0.92484 0.92362 0.0
C1427 C 0.59866 0.91644 0.92452 0.0
C1428 C 0.58449 0.93442 0.94318 0.0
C1429 C 0.6071 0.96018 0.96114 0.0
C1430 C 0.64422 0.96855 0.95912 0.0
H1431 H 0.83126 0.60469 0.13088 0.0
H1432 H 0.92145 0.67433 0.17787 0.0
H1433 H 0.9624 0.6537 0.15075 0.0
H1434 H 0.87315 0.53201 0.13615 0.0
H1435 H 0.8517 0.5211 0.09698 0.0
H1436 H 0.83047 0.54167 0.1206 0.0
H1437 H 0.82583 0.59138 0.07151 0.0
H1438 H 0.84798 0.57153 0.04808 0.0
H1439 H 0.86578 0.61673 0.05433 0.0
H1440 H 0.99371 0.62403 0.11933 0.0
H1441 H 1.01242 0.59153 0.08299 0.0
H1442 H 0.90155 0.542 0.05584 0.0
C1443 C 0.85964 0.61554 0.13559 0.0
C1444 C 0.87311 0.64116 0.1566 0.0
C1445 C 0.91043 0.65499 0.16166 0.0
C1446 C 0.93393 0.64321 0.14655 0.0
C1447 C 0.91975 0.61768 0.12627 0.0
C1448 C 0.88344 0.60424 0.12056 0.0
C1449 C 0.87495 0.5776 0.09717 0.0
C1450 C 0.8565 0.54089 0.1137 0.0
C1451 C 0.8523 0.59006 0.06593 0.0
C1452 C 0.91212 0.5782 0.09048 0.0
C1453 C 0.93765 0.60121 0.10775 0.0
C1454 C 0.9739 0.60602 0.10565 0.0
C1455 C 0.98429 0.58729 0.085 0.0
C1456 C 0.95852 0.56419 0.0664 0.0
C1457 C 0.92197 0.55951 0.06955 0.0
H1458 H 0.31034 0.80628 0.15327 0.0
H1459 H 0.37604 0.82925 0.24313 0.0
H1460 H 0.42024 0.87374 0.2115 0.0
H1461 H 0.37811 0.81326 0.1054 0.0
H1462 H 0.35771 0.8351 0.06852 0.0
H1463 H 0.33032 0.80689 0.09819 0.0
H1464 H 0.30169 0.85802 0.10193 0.0
H1465 H 0.32857 0.88623 0.07176 0.0
H1466 H 0.32995 0.89965 0.11068 0.0
H1467 H 0.4609 0.91174 0.16856 0.0
H1468 H 0.49005 0.94403 0.11984 0.0
H1469 H 0.396 0.89965 0.05778 0.0
C1470 C 0.33364 0.82133 0.1663 0.0
C1471 C 0.33937 0.81443 0.20085 0.0
C1472 C 0.37064 0.8343 0.21683 0.0
C1473 C 0.39604 0.85956 0.19895 0.0
C1474 C 0.38986 0.86529 0.16488 0.0
C1475 C 0.35892 0.84725 0.14879 0.0
C1476 C 0.35853 0.85832 0.11205 0.0
C1477 C 0.35602 0.82649 0.09505 0.0
C1478 C 0.32786 0.87664 0.09829 0.0
C1479 C 0.3946 0.88436 0.10978 0.0
C1480 C 0.41236 0.88801 0.14053 0.0
C1481 C 0.44686 0.90935 0.14447 0.0
C1482 C 0.46339 0.92754 0.11652 0.0
C1483 C 0.44556 0.92483 0.08465 0.0
C1484 C 0.41051 0.90283 0.0816 0.0
H1485 H 0.7326 0.2025 0.17256 0.0
H1486 H 0.6494 0.24848 0.19044 0.0
H1487 H 0.60806 0.2179 0.14847 0.0
H1488 H 0.709 0.20191 0.0863 0.0
H1489 H 0.71854 0.15945 0.0878 0.0
H1490 H 0.74224 0.18762 0.11706 0.0
H1491 H 0.72253 0.13768 0.1644 0.0
H1492 H 0.69914 0.10924 0.13533 0.0
H1493 H 0.67581 0.11738 0.16578 0.0
H1494 H 0.57483 0.18005 0.10377 0.0
H1495 H 0.55279 0.13569 0.06614 0.0
H1496 H 0.65677 0.11124 0.08206 0.0
C1497 C 0.70582 0.20626 0.16792 0.0
C1498 C 0.69481 0.22856 0.18494 0.0
C1499 C 0.65913 0.23244 0.17745 0.0
C1500 C 0.63524 0.21489 0.15365 0.0
C1501 C 0.64705 0.19294 0.13757 0.0
C1502 C 0.68149 0.18835 0.14477 0.0
C1503 C 0.68721 0.16157 0.1259 0.0
C1504 C 0.71595 0.17867 0.1029 0.0
C1505 C 0.69672 0.12957 0.14924 0.0
C1506 C 0.6506 0.15161 0.10698 0.0
C1507 C 0.6278 0.17028 0.11354 0.0
C1508 C 0.59256 0.16526 0.09864 0.0
C1509 C 0.58021 0.14006 0.07716 0.0
C1510 C 0.60278 0.1196 0.07124 0.0
C1511 C 0.63858 0.12612 0.08615 0.0
H1512 H 0.70512 0.72319 0.84851 0.0
H1513 H 0.65563 0.67763 0.76153 0.0
H1514 H 0.60324 0.64568 0.78962 0.0
H1515 H 0.67802 0.64878 0.90497 0.0
H1516 H 0.67025 0.67251 0.93472 0.0
H1517 H 0.70211 0.69388 0.90648 0.0
H1518 H 0.66855 0.74417 0.88761 0.0
H1519 H 0.63628 0.72261 0.91564 0.0
H1520 H 0.62176 0.73347 0.87292 0.0
H1521 H 0.55918 0.61321 0.82967 0.0
H1522 H 0.52891 0.58279 0.87807 0.0
H1523 H 0.60507 0.65355 0.93696 0.0
C1524 C 0.68311 0.70691 0.83514 0.0
C1525 C 0.68488 0.70262 0.8029 0.0
C1526 C 0.65535 0.68097 0.78641 0.0
C1527 C 0.62519 0.66294 0.80207 0.0
C1528 C 0.62452 0.66742 0.83402 0.0
C1529 C 0.65262 0.68915 0.85023 0.0
C1530 C 0.64631 0.688 0.88501 0.0
C1531 C 0.67591 0.675 0.9092 0.0
C1532 C 0.64302 0.72422 0.89061 0.0
C1533 C 0.61092 0.66119 0.88625 0.0
C1534 C 0.59852 0.64981 0.85656 0.0
C1535 C 0.56824 0.62245 0.85288 0.0
C1536 C 0.55107 0.60538 0.88054 0.0
C1537 C 0.56429 0.61571 0.9115 0.0
C1538 C 0.59369 0.64509 0.91376 0.0
H1539 H 0.26609 0.51733 0.89641 0.0
H1540 H 0.29533 0.63132 0.87796 0.0
H1541 H 0.33403 0.63205 0.92955 0.0
H1542 H 0.28517 0.51734 0.99799 0.0
H1543 H 0.29644 0.47546 1.00068 0.0
H1544 H 0.25906 0.48571 0.97288 0.0
H1545 H 0.28683 0.47101 0.92623 0.0
H1546 H 0.32403 0.46242 0.95378 0.0
H1547 H 0.3311 0.4953 0.91796 0.0
H1548 H 0.38962 0.61872 0.95847 0.0
H1549 H 0.44207 0.59266 0.97442 0.0
H1550 H 0.37165 0.48843 0.98662 0.0
C1551 C 0.27828 0.54241 0.9045 0.0
C1552 C 0.27975 0.57399 0.88238 0.0
C1553 C 0.29558 0.60653 0.89378 0.0
C1554 C 0.31729 0.60727 0.92346 0.0
C1555 C 0.3204 0.57526 0.94255 0.0
C1556 C 0.29876 0.54338 0.93499 0.0
C1557 C 0.31088 0.5126 0.95671 0.0
C1558 C 0.28646 0.49686 0.98369 0.0
C1559 C 0.31343 0.4838 0.93747 0.0
C1560 C 0.34698 0.53177 0.97094 0.0
C1561 C 0.35167 0.56805 0.96369 0.0
C1562 C 0.38581 0.59052 0.96611 0.0
C1563 C 0.4156 0.57555 0.97471 0.0
C1564 C 0.41085 0.53852 0.98104 0.0
C1565 C 0.3761 0.5169 0.98155 0.0
H1566 H 0.33517 0.30087 0.85677 0.0
H1567 H 0.35515 0.37057 0.76556 0.0
H1568 H 0.39921 0.41365 0.79588 0.0
H1569 H 0.33874 0.36527 0.90401 0.0
H1570 H 0.36098 0.34434 0.94036 0.0
H1571 H 0.33331 0.318 0.91136 0.0
H1572 H 0.38486 0.29097 0.90578 0.0
H1573 H 0.41324 0.31658 0.93513 0.0
H1574 H 0.42678 0.31958 0.89547 0.0
H1575 H 0.43932 0.45019 0.83726 0.0
H1576 H 0.47031 0.47747 0.88525 0.0
H1577 H 0.42378 0.38254 0.94878 0.0
C1578 C 0.34889 0.32494 0.84293 0.0
C1579 C 0.34185 0.33201 0.80862 0.0
C1580 C 0.36036 0.36426 0.79178 0.0
C1581 C 0.38544 0.3889 0.80882 0.0
C1582 C 0.39183 0.38082 0.84268 0.0
C1583 C 0.37409 0.34952 0.85946 0.0
C1584 C 0.38488 0.34728 0.89583 0.0
C1585 C 0.35255 0.34357 0.91396 0.0
C1586 C 0.40355 0.3168 0.90881 0.0
C1587 C 0.41072 0.38275 0.89716 0.0
C1588 C 0.41474 0.4016 0.86626 0.0
C1589 C 0.43649 0.43554 0.86152 0.0
C1590 C 0.45402 0.45081 0.88903 0.0
C1591 C 0.44961 0.43226 0.92101 0.0
C1592 C 0.42805 0.3975 0.92484 0.0
H1593 H 0.70935 0.48289 0.83868 0.0
H1594 H 0.65471 0.37193 0.85393 0.0
H1595 H 0.62349 0.38317 0.89584 0.0
H1596 H 0.71752 0.49774 0.92342 0.0
H1597 H 0.70884 0.54119 0.91208 0.0
H1598 H 0.72989 0.52421 0.88537 0.0
H1599 H 0.68066 0.53504 0.83828 0.0
H1600 H 0.65949 0.55205 0.86481 0.0
H1601 H 0.63456 0.5159 0.8441 0.0
H1602 H 0.59495 0.40635 0.93311 0.0
H1603 H 0.5699 0.44013 0.9631 0.0
H1604 H 0.64083 0.53716 0.92341 0.0
C1605 C 0.6909 0.46085 0.85082 0.0
C1606 C 0.68491 0.42632 0.84292 0.0
C1607 C 0.66063 0.3984 0.85981 0.0
C1608 C 0.64249 0.40458 0.88361 0.0
C1609 C 0.64873 0.43885 0.89041 0.0
C1610 C 0.67232 0.46659 0.87458 0.0
C1611 C 0.6726 0.50123 0.88541 0.0
C1612 C 0.7094 0.51702 0.90259 0.0
C1613 C 0.66114 0.5276 0.85643 0.0
C1614 C 0.64484 0.48865 0.90925 0.0
C1615 C 0.63178 0.45249 0.9119 0.0
C1616 C 0.6051 0.43464 0.93138 0.0
C1617 C 0.59094 0.45418 0.94826 0.0
C1618 C 0.60326 0.49141 0.94564 0.0
C1619 C 0.63105 0.50875 0.9262 0.0
H1620 H 0.78479 0.49164 0.13533 0.0
H1621 H 0.75051 0.37762 0.14903 0.0
H1622 H 0.70741 0.38138 0.10009 0.0
H1623 H 0.71863 0.51608 0.11952 0.0
H1624 H 0.72571 0.55108 0.08531 0.0
H1625 H 0.76312 0.53986 0.11122 0.0
H1626 H 0.78922 0.52755 0.06281 0.0
H1627 H 0.75259 0.54113 0.03617 0.0
H1628 H 0.76163 0.49889 0.03558 0.0
H1629 H 0.65323 0.39889 0.07012 0.0
H1630 H 0.60334 0.42834 0.05102 0.0
H1631 H 0.67851 0.53011 0.04809 0.0
C1632 C 0.77042 0.46737 0.12674 0.0
C1633 C 0.7695 0.43467 0.14704 0.0
C1634 C 0.75007 0.40334 0.1349 0.0
C1635 C 0.7259 0.40512 0.10668 0.0
C1636 C 0.72374 0.43828 0.08952 0.0
C1637 C 0.74748 0.4688 0.0977 0.0
C1638 C 0.73679 0.50137 0.07818 0.0
C1639 C 0.73595 0.52856 0.09989 0.0
C1640 C 0.7615 0.51822 0.05159 0.0
C1641 C 0.70005 0.4846 0.06325 0.0
C1642 C 0.6933 0.44813 0.06892 0.0
C1643 C 0.65866 0.42735 0.0639 0.0
C1644 C 0.63037 0.44423 0.05352 0.0
C1645 C 0.63705 0.48148 0.04837 0.0
C1646 C 0.67251 0.50155 0.05167 0.0
H1647 H 0.72496 0.71402 0.16921 0.0
H1648 H 0.686 0.65422 0.25916 0.0
H1649 H 0.64062 0.61369 0.22755 0.0
H1650 H 0.64055 0.70643 0.11985 0.0
H1651 H 0.65781 0.70165 0.08405 0.0
H1652 H 0.68645 0.7264 0.11388 0.0
H1653 H 0.73119 0.68659 0.11994 0.0
H1654 H 0.70288 0.66185 0.08999 0.0
H1655 H 0.71577 0.63938 0.12977 0.0
H1656 H 0.59997 0.57908 0.18568 0.0
H1657 H 0.56959 0.55159 0.13756 0.0
H1658 H 0.63618 0.63419 0.07558 0.0
C1659 C 0.7069 0.69251 0.1824 0.0
C1660 C 0.70871 0.68774 0.21672 0.0
C1661 C 0.68473 0.6589 0.23287 0.0
C1662 C 0.6589 0.63565 0.21511 0.0
C1663 C 0.65759 0.64147 0.18126 0.0
C1664 C 0.68116 0.66906 0.16514 0.0
C1665 C 0.67506 0.66899 0.12874 0.0
C1666 C 0.66432 0.70288 0.11056 0.0
C1667 C 0.70818 0.66389 0.11639 0.0
C1668 C 0.64432 0.63699 0.1268 0.0
C1669 C 0.63453 0.62151 0.15732 0.0
C1670 C 0.60739 0.59102 0.16166 0.0
C1671 C 0.59029 0.5756 0.13416 0.0
C1672 C 0.6004 0.59069 0.1027 0.0
C1673 C 0.62745 0.62212 0.09914 0.0
H1674 H 0.42739 0.60641 0.2021 0.0
H1675 H 0.31572 0.58506 0.16325 0.0
H1676 H 0.3297 0.55937 0.11891 0.0
H1677 H 0.46303 0.62959 0.12262 0.0
H1678 H 0.50002 0.60924 0.13743 0.0
H1679 H 0.48143 0.62776 0.16484 0.0
H1680 H 0.47132 0.56763 0.20322 0.0
H1681 H 0.48972 0.54903 0.1758 0.0
H1682 H 0.44573 0.52843 0.18724 0.0
H1683 H 0.355 0.5298 0.08257 0.0
H1684 H 0.39044 0.50442 0.05363 0.0
H1685 H 0.48651 0.54863 0.11341 0.0
C1686 C 0.40595 0.59674 0.18399 0.0
C1687 C 0.37038 0.59778 0.18615 0.0
C1688 C 0.34315 0.58493 0.16192 0.0
C1689 C 0.35084 0.57009 0.13676 0.0
C1690 C 0.38604 0.56879 0.13576 0.0
C1691 C 0.41327 0.58235 0.15842 0.0
C1692 C 0.44877 0.57731 0.15212 0.0
C1693 C 0.47485 0.61311 0.14375 0.0
C1694 C 0.46482 0.55422 0.18134 0.0
C1695 C 0.4372 0.5582 0.12275 0.0
C1696 C 0.40084 0.55329 0.11387 0.0
C1697 C 0.38356 0.53411 0.08895 0.0
C1698 C 0.40389 0.5197 0.07269 0.0
C1699 C 0.44128 0.52501 0.08089 0.0
C1700 C 0.45809 0.54478 0.10613 0.0
H1701 H 0.37879 0.36118 0.22361 0.0
H1702 H 0.37058 0.2563 0.2028 0.0
H1703 H 0.42138 0.27952 0.1705 0.0
H1704 H 0.39273 0.40419 0.14679 0.0
H1705 H 0.42351 0.44333 0.15862 0.0
H1706 H 0.39158 0.41741 0.18529 0.0
H1707 H 0.44273 0.41101 0.2317 0.0
H1708 H 0.47491 0.43683 0.20493 0.0
H1709 H 0.47881 0.39341 0.22508 0.0
H1710 H 0.46522 0.31451 0.13372 0.0
H1711 H 0.49606 0.35949 0.09207 0.0
H1712 H 0.47799 0.44227 0.13691 0.0
C1713 C 0.38861 0.34302 0.21328 0.0
C1714 C 0.37116 0.30694 0.21598 0.0
C1715 C 0.38366 0.28407 0.20093 0.0
C1716 C 0.41275 0.29695 0.18286 0.0
C1717 C 0.42908 0.33283 0.18007 0.0
C1718 C 0.41746 0.35563 0.19479 0.0
C1719 C 0.43633 0.39367 0.18422 0.0
C1720 C 0.40944 0.41593 0.16774 0.0
C1721 C 0.45959 0.40967 0.21322 0.0
C1722 C 0.45906 0.38877 0.16007 0.0
C1723 C 0.45505 0.35336 0.15864 0.0
C1724 C 0.46949 0.34226 0.13523 0.0
C1725 C 0.48709 0.36792 0.11175 0.0
C1726 C 0.49027 0.40419 0.11201 0.0
C1727 C 0.47734 0.41473 0.13721 0.0
H1728 H 0.88107 0.6524 0.63947 0.0
H1729 H 0.82686 0.55002 0.68621 0.0
H1730 H 0.87423 0.52372 0.67553 0.0
H1731 H 0.90203 0.62176 0.57534 0.0
H1732 H 0.94465 0.65246 0.57191 0.0
H1733 H 0.91045 0.66411 0.58864 0.0
H1734 H 0.95356 0.67587 0.64103 0.0
H1735 H 0.98794 0.66405 0.62443 0.0
H1736 H 0.97459 0.64168 0.66351 0.0
H1737 H 0.92436 0.50759 0.65472 0.0
H1738 H 0.96865 0.50209 0.62098 0.0
H1739 H 0.98825 0.61457 0.5859 0.0
C1740 C 0.87987 0.62469 0.64832 0.0
C1741 C 0.85074 0.60328 0.66409 0.0
C1742 C 0.84922 0.56685 0.67432 0.0
C1743 C 0.87609 0.55178 0.66853 0.0
C1744 C 0.90424 0.57349 0.65235 0.0
C1745 C 0.90617 0.60917 0.64226 0.0
C1746 C 0.93646 0.62584 0.62173 0.0
C1747 C 0.92255 0.64196 0.58738 0.0
C1748 C 0.96482 0.6535 0.6387 0.0
C1749 C 0.95046 0.5938 0.62083 0.0
C1750 C 0.93223 0.56399 0.63934 0.0
C1751 C 0.93916 0.53087 0.64054 0.0
C1752 C 0.96452 0.52799 0.62148 0.0
C1753 C 0.98198 0.55794 0.60104 0.0
C1754 C 0.9755 0.5913 0.60155 0.0
H1755 H 0.38969 0.81056 0.73141 0.0
H1756 H 0.30858 0.76744 0.65726 0.0
H1757 H 0.34252 0.80595 0.61439 0.0
H1758 H 0.40706 0.8994 0.6902 0.0
H1759 H 0.45465 0.90963 0.70122 0.0
H1760 H 0.42624 0.87644 0.72712 0.0
H1761 H 0.46141 0.83037 0.72333 0.0
H1762 H 0.49039 0.8638 0.69806 0.0
H1763 H 0.46742 0.82288 0.68383 0.0
H1764 H 0.38216 0.8521 0.5784 0.0
H1765 H 0.42702 0.9004 0.55195 0.0
H1766 H 0.48518 0.91628 0.6469 0.0
C1767 C 0.37974 0.80847 0.70617 0.0
C1768 C 0.34643 0.78492 0.69802 0.0
C1769 C 0.33402 0.78449 0.66444 0.0
C1770 C 0.35315 0.80651 0.6397 0.0
C1771 C 0.3852 0.82975 0.64824 0.0
C1772 C 0.3988 0.83078 0.6806 0.0
C1773 C 0.43349 0.85957 0.6824 0.0
C1774 C 0.43015 0.88794 0.70137 0.0
C1775 C 0.46506 0.84318 0.69783 0.0
C1776 C 0.43666 0.87466 0.64625 0.0
C1777 C 0.40837 0.85682 0.62713 0.0
C1778 C 0.40458 0.86607 0.59319 0.0
C1779 C 0.43032 0.89387 0.57826 0.0
C1780 C 0.4601 0.91277 0.59686 0.0
C1781 C 0.46299 0.9027 0.63158 0.0
H1782 H 0.2305 0.35937 0.71195 0.0
H1783 H 0.16851 0.25675 0.69189 0.0
H1784 H 0.12603 0.28519 0.65338 0.0
H1785 H 0.15835 0.39989 0.70858 0.0
H1786 H 0.17821 0.44264 0.68741 0.0
H1787 H 0.20617 0.41536 0.71186 0.0
H1788 H 0.23922 0.41837 0.66245 0.0
H1789 H 0.21198 0.44647 0.63812 0.0
H1790 H 0.21393 0.40637 0.62489 0.0
H1791 H 0.08522 0.32374 0.6215 0.0
H1792 H 0.05527 0.3692 0.59047 0.0
H1793 H 0.14297 0.451 0.62436 0.0
C1794 C 0.20894 0.34295 0.6983 0.0
C1795 C 0.20444 0.30511 0.70449 0.0
C1796 C 0.17413 0.28532 0.68712 0.0
C1797 C 0.14926 0.30145 0.66532 0.0
C1798 C 0.15404 0.33823 0.66033 0.0
C1799 C 0.1837 0.35901 0.67555 0.0
C1800 C 0.18192 0.39821 0.66518 0.0
C1801 C 0.18114 0.41503 0.69504 0.0
C1802 C 0.21366 0.41859 0.64656 0.0
C1803 C 0.14637 0.39609 0.6425 0.0
C1804 C 0.13082 0.36089 0.64068 0.0
C1805 C 0.09762 0.35129 0.62258 0.0
C1806 C 0.08042 0.37769 0.60507 0.0
C1807 C 0.09561 0.41445 0.60462 0.0
C1808 C 0.12949 0.42355 0.62421 0.0
H1809 H 0.71288 0.1773 0.70103 0.0
H1810 H 0.68458 0.27615 0.65719 0.0
H1811 H 0.64762 0.2467 0.61192 0.0
H1812 H 0.72146 0.15078 0.62591 0.0
H1813 H 0.70447 0.1047 0.6407 0.0
H1814 H 0.72818 0.13421 0.66881 0.0
H1815 H 0.67443 0.11591 0.70257 0.0
H1816 H 0.65064 0.08625 0.67472 0.0
H1817 H 0.63092 0.11984 0.68267 0.0
H1818 H 0.61064 0.2031 0.57256 0.0
H1819 H 0.57943 0.15207 0.54447 0.0
H1820 H 0.63785 0.08539 0.61423 0.0
C1821 C 0.69922 0.19318 0.68202 0.0
C1822 C 0.70148 0.22912 0.68303 0.0
C1823 C 0.68297 0.24848 0.65727 0.0
C1824 C 0.66208 0.23198 0.63135 0.0
C1825 C 0.66061 0.19635 0.6313 0.0
C1826 C 0.6791 0.17749 0.656 0.0
C1827 C 0.6737 0.1397 0.65102 0.0
C1828 C 0.70905 0.13191 0.64632 0.0
C1829 C 0.65638 0.11393 0.67942 0.0
C1830 C 0.6485 0.13965 0.61991 0.0
C1831 C 0.64107 0.17239 0.60864 0.0
C1832 C 0.61671 0.17754 0.58107 0.0
C1833 C 0.59916 0.14838 0.56518 0.0
C1834 C 0.60611 0.1145 0.57689 0.0
C1835 C 0.6318 0.11072 0.60423 0.0
H1836 H 0.83438 0.3692 0.3225 0.0
H1837 H 0.81157 0.26693 0.38331 0.0
H1838 H 0.842 0.29462 0.43176 0.0
H1839 H 0.9227 0.3977 0.3622 0.0
H1840 H 0.92055 0.44331 0.35715 0.0
H1841 H 0.89458 0.41555 0.32845 0.0
H1842 H 0.83755 0.43131 0.3394 0.0
H1843 H 0.86332 0.4585 0.36873 0.0
H1844 H 0.82603 0.42321 0.38045 0.0
H1845 H 0.8753 0.33351 0.47318 0.0
H1846 H 0.91836 0.37743 0.50295 0.0
H1847 H 0.92287 0.45442 0.41487 0.0
C1848 C 0.83574 0.35273 0.34612 0.0
C1849 C 0.82051 0.31597 0.34941 0.0
C1850 C 0.82321 0.29507 0.38042 0.0
C1851 C 0.8401 0.31068 0.40801 0.0
C1852 C 0.85449 0.34716 0.40404 0.0
C1853 C 0.85318 0.36778 0.37372 0.0
C1854 C 0.87358 0.40571 0.37555 0.0
C1855 C 0.9047 0.41617 0.35461 0.0
C1856 C 0.84862 0.43118 0.36543 0.0
C1857 C 0.88686 0.40328 0.41168 0.0
C1858 C 0.87482 0.36939 0.42771 0.0
C1859 C 0.88467 0.3601 0.46087 0.0
C1860 C 0.90888 0.38537 0.47769 0.0
C1861 C 0.9234 0.41958 0.46144 0.0
C1862 C 0.91126 0.42897 0.42821 0.0
H1863 H 0.67302 0.8337 0.45058 0.0
H1864 H 0.66433 0.86708 0.3457 0.0
H1865 H 0.63838 0.91538 0.35223 0.0
H1866 H 0.5895 0.84649 0.46076 0.0
H1867 H 0.60393 0.86171 0.49956 0.0
H1868 H 0.6259 0.83233 0.48725 0.0
H1869 H 0.68653 0.87717 0.49543 0.0
H1870 H 0.66459 0.90676 0.50762 0.0
H1871 H 0.69166 0.92191 0.47447 0.0
H1872 H 0.60829 0.95671 0.36906 0.0
H1873 H 0.57479 0.98703 0.3949 0.0
H1874 H 0.60109 0.92669 0.48891 0.0
C1875 C 0.66587 0.85119 0.42891 0.0
C1876 C 0.67124 0.84643 0.39756 0.0
C1877 C 0.66151 0.87034 0.37006 0.0
C1878 C 0.64647 0.89788 0.37349 0.0
C1879 C 0.64118 0.90143 0.40459 0.0
C1880 C 0.65055 0.87875 0.43186 0.0
C1881 C 0.63971 0.88692 0.46225 0.0
C1882 C 0.61318 0.85496 0.47839 0.0
C1883 C 0.67259 0.89891 0.48636 0.0
C1884 C 0.62199 0.91716 0.44764 0.0
C1885 C 0.62353 0.92531 0.41438 0.0
C1886 C 0.60727 0.95083 0.39513 0.0
C1887 C 0.58826 0.96791 0.41006 0.0
C1888 C 0.58551 0.95951 0.44398 0.0
C1889 C 0.60333 0.93428 0.46307 0.0
H1890 H 0.22362 0.72395 0.36575 0.0
H1891 H 0.20128 0.66378 0.28583 0.0
H1892 H 0.1576 0.61735 0.31676 0.0
H1893 H 0.2123 0.65195 0.43343 0.0
H1894 H 0.18999 0.67341 0.45525 0.0
H1895 H 0.22191 0.69948 0.4284 0.0
H1896 H 0.17449 0.73225 0.3967 0.0
H1897 H 0.14241 0.70632 0.42341 0.0
H1898 H 0.13241 0.70716 0.37998 0.0
H1899 H 0.11688 0.57607 0.35894 0.0
H1900 H 0.07784 0.549 0.4023 0.0
H1901 H 0.12043 0.64061 0.45105 0.0
C1902 C 0.21004 0.70069 0.35486 0.0
C1903 C 0.21741 0.69699 0.32374 0.0
C1904 C 0.1975 0.66681 0.31001 0.0
C1905 C 0.17242 0.64034 0.32747 0.0
C1906 C 0.16619 0.64487 0.35822 0.0
C1907 C 0.18407 0.67479 0.3714 0.0
C1908 C 0.17044 0.67523 0.40336 0.0
C1909 C 0.20045 0.675 0.43179 0.0
C1910 C 0.15396 0.70713 0.40069 0.0
C1911 C 0.14211 0.64072 0.4065 0.0
C1912 C 0.14061 0.6232 0.38055 0.0
C1913 C 0.11768 0.59 0.37895 0.0
C1914 C 0.09559 0.5747 0.40393 0.0
C1915 C 0.0955 0.59261 0.43021 0.0
C1916 C 0.1193 0.62624 0.43126 0.0
H1917 H 0.30776 0.14524 0.33157 0.0
H1918 H 0.37556 0.25067 0.32039 0.0
H1919 H 0.42239 0.22893 0.36022 0.0
H1920 H 0.33471 0.11632 0.41707 0.0
H1921 H 0.33398 0.0722 0.4113 0.0
H1922 H 0.30522 0.09694 0.3844 0.0
H1923 H 0.33145 0.08813 0.33468 0.0
H1924 H 0.36016 0.06324 0.36139 0.0
H1925 H 0.37897 0.10128 0.33332 0.0
H1926 H 0.46342 0.19256 0.405 0.0
H1927 H 0.4935 0.14828 0.4401 0.0
H1928 H 0.40176 0.06516 0.41677 0.0
C1929 C 0.33227 0.16413 0.33767 0.0
C1930 C 0.33648 0.20061 0.32328 0.0
C1931 C 0.37011 0.22327 0.33162 0.0
C1932 C 0.3973 0.21079 0.35427 0.0
C1933 C 0.39185 0.17484 0.36823 0.0
C1934 C 0.36011 0.1518 0.35951 0.0
C1935 C 0.36134 0.11393 0.3757 0.0
C1936 C 0.33207 0.09896 0.39846 0.0
C1937 C 0.35776 0.09024 0.34973 0.0
C1938 C 0.39849 0.11882 0.39523 0.0
C1939 C 0.41562 0.15425 0.39114 0.0
C1940 C 0.44986 0.1649 0.40777 0.0
C1941 C 0.46692 0.13929 0.42815 0.0
C1942 C 0.45071 0.10247 0.432 0.0
C1943 C 0.41561 0.09271 0.41493 0.0
H1944 H 0.7483 0.8692 0.69035 0.0
H1945 H 0.68068 0.76371 0.7024 0.0
H1946 H 0.63293 0.78551 0.66391 0.0
H1947 H 0.6778 0.91288 0.69131 0.0
H1948 H 0.69569 0.95109 0.66297 0.0
H1949 H 0.72508 0.92616 0.68858 0.0
H1950 H 0.74936 0.91771 0.63762 0.0
H1951 H 0.71995 0.94252 0.61183 0.0
H1952 H 0.71878 0.89851 0.60545 0.0
H1953 H 0.591 0.82183 0.62062 0.0
H1954 H 0.56003 0.86612 0.58685 0.0
H1955 H 0.65228 0.94937 0.60867 0.0
C1956 C 0.72365 0.85032 0.68466 0.0
C1957 C 0.71969 0.81382 0.69882 0.0
C1958 C 0.68589 0.79113 0.6912 0.0
C1959 C 0.65819 0.80363 0.66935 0.0
C1960 C 0.66339 0.8396 0.65558 0.0
C1961 C 0.69535 0.86266 0.66367 0.0
C1962 C 0.69377 0.90056 0.64795 0.0
C1963 C 0.69836 0.92406 0.67427 0.0
C1964 C 0.72216 0.91572 0.62431 0.0
C1965 C 0.65612 0.89567 0.62945 0.0
C1966 C 0.63909 0.86021 0.6336 0.0
C1967 C 0.60446 0.84951 0.6178 0.0
C1968 C 0.5869 0.87512 0.59821 0.0
C1969 C 0.60302 0.91195 0.5944 0.0
C1970 C 0.63851 0.92179 0.61058 0.0
H1971 H 0.65682 0.18678 0.2898 0.0
H1972 H 0.7493 0.22678 0.35531 0.0
H1973 H 0.71864 0.19235 0.40257 0.0
H1974 H 0.5892 0.18558 0.34309 0.0
H1975 H 0.5604 0.14562 0.331 0.0
H1976 H 0.58916 0.17537 0.30309 0.0
H1977 H 0.61598 0.12362 0.29733 0.0
H1978 H 0.5878 0.09413 0.32577 0.0
H1979 H 0.63545 0.09943 0.33329 0.0
H1980 H 0.6778 0.15039 0.44349 0.0
H1981 H 0.63126 0.10704 0.47321 0.0
H1982 H 0.56489 0.09374 0.38138 0.0
C1983 C 0.67029 0.18883 0.31416 0.0
C1984 C 0.70523 0.21055 0.31873 0.0
C1985 C 0.72226 0.21134 0.35107 0.0
C1986 C 0.70503 0.19161 0.37814 0.0
C1987 C 0.67056 0.17059 0.37286 0.0
C1988 C 0.65329 0.16928 0.34158 0.0
C1989 C 0.61666 0.14392 0.3425 0.0
C1990 C 0.5871 0.1638 0.32912 0.0
C1991 C 0.61382 0.11347 0.3236 0.0
C1992 C 0.61616 0.13066 0.379 0.0
C1993 C 0.64745 0.14648 0.39614 0.0
C1994 C 0.6532 0.13806 0.43013 0.0
C1995 C 0.62649 0.11318 0.44694 0.0
C1996 C 0.594 0.09646 0.43006 0.0
C1997 C 0.58917 0.10568 0.39543 0.0
H1998 H 0.88547 0.73444 0.34328 0.0
H1999 H 0.80128 0.65988 0.29596 0.0
H2000 H 0.82806 0.61076 0.32646 0.0
H2001 H 0.95697 0.69348 0.3463 0.0
H2002 H 0.97718 0.70238 0.38637 0.0
H2003 H 0.95093 0.73097 0.36143 0.0
H2004 H 0.91038 0.72086 0.407 0.0
H2005 H 0.93701 0.69281 0.43231 0.0
H2006 H 0.88957 0.67641 0.4238 0.0
H2007 H 0.87087 0.56853 0.36074 0.0
H2008 H 0.91505 0.54036 0.39853 0.0
H2009 H 0.96756 0.64179 0.42775 0.0
C2010 C 0.87207 0.70767 0.33978 0.0
C2011 C 0.8404 0.70165 0.31713 0.0
C2012 C 0.82471 0.66586 0.31336 0.0
C2013 C 0.84023 0.63758 0.33056 0.0
C2014 C 0.87165 0.64462 0.35235 0.0
C2015 C 0.88668 0.67902 0.35754 0.0
C2016 C 0.9196 0.67999 0.38299 0.0
C2017 C 0.95315 0.70308 0.3684 0.0
C2018 C 0.9138 0.69332 0.41332 0.0
C2019 C 0.92163 0.64108 0.39098 0.0
C2020 C 0.89408 0.62093 0.37277 0.0
C2021 C 0.89198 0.58449 0.37521 0.0
C2022 C 0.91764 0.56848 0.3968 0.0
C2023 C 0.94546 0.58818 0.41685 0.0
C2024 C 0.94692 0.62527 0.41334 0.0
H2025 H 0.33061 0.84293 0.32891 0.0
H2026 H 0.37023 0.74787 0.3602 0.0
H2027 H 0.40697 0.77388 0.40705 0.0
H2028 H 0.40944 0.90403 0.34741 0.0
H2029 H 0.38815 0.93297 0.36141 0.0
H2030 H 0.36402 0.9055 0.33188 0.0
H2031 H 0.31421 0.87864 0.36966 0.0
H2032 H 0.33837 0.90593 0.39948 0.0
H2033 H 0.32552 0.85868 0.41089 0.0
H2034 H 0.444 0.81403 0.4479 0.0
H2035 H 0.47628 0.86322 0.4779 0.0
H2036 H 0.4075 0.92868 0.42116 0.0
C2037 C 0.34689 0.82742 0.34562 0.0
C2038 C 0.34804 0.7936 0.34051 0.0
C2039 C 0.36927 0.77403 0.36332 0.0
C2040 C 0.39007 0.78853 0.39016 0.0
C2041 C 0.38857 0.82224 0.39425 0.0
C2042 C 0.36708 0.84114 0.37271 0.0
C2043 C 0.3705 0.87705 0.3817 0.0
C2044 C 0.38384 0.90661 0.35397 0.0
C2045 C 0.33504 0.88024 0.39099 0.0
C2046 C 0.39829 0.87609 0.41103 0.0
C2047 C 0.40839 0.8443 0.41819 0.0
C2048 C 0.43583 0.8388 0.44282 0.0
C2049 C 0.45395 0.86685 0.45984 0.0
C2050 C 0.44455 0.89994 0.45203 0.0
C2051 C 0.41551 0.90384 0.428 0.0
H2052 H 0.21556 0.43865 0.38263 0.0
H2053 H 0.15095 0.34229 0.34943 0.0
H2054 H 0.09671 0.35959 0.3561 0.0
H2055 H 0.16728 0.43349 0.44606 0.0
H2056 H 0.17203 0.4804 0.44295 0.0
H2057 H 0.20514 0.46408 0.42925 0.0
H2058 H 0.19585 0.50164 0.37243 0.0
H2059 H 0.16214 0.5176 0.38593 0.0
H2060 H 0.15189 0.49627 0.3502 0.0
H2061 H 0.04985 0.38254 0.37361 0.0
H2062 H 1.01561 0.40662 0.40507 0.0
H2063 H 0.11002 0.48653 0.42896 0.0
C2064 C 0.19006 0.42128 0.37637 0.0
C2065 C 0.18788 0.38922 0.36505 0.0
C2066 C 0.1537 0.36745 0.35723 0.0
C2067 C 0.12255 0.37703 0.36102 0.0
C2068 C 0.12576 0.40849 0.37268 0.0
C2069 C 0.1587 0.43024 0.38037 0.0
C2070 C 0.15515 0.4602 0.39642 0.0
C2071 C 0.17612 0.45946 0.43069 0.0
C2072 C 0.16696 0.49605 0.37496 0.0
C2073 C 0.11527 0.45097 0.39792 0.0
C2074 C 0.09863 0.42159 0.38328 0.0
C2075 C 0.0624 0.40606 0.3844 0.0
C2076 C 0.04305 0.42001 0.40206 0.0
C2077 C 0.06005 0.44901 0.41834 0.0
C2078 C 0.09625 0.46524 0.41548 0.0
H2079 H 0.39144 0.18814 0.58154 0.0
H2080 H 0.39325 0.14791 0.68513 0.0
H2081 H 0.41522 0.09772 0.67672 0.0
H2082 H 0.36689 0.10231 0.5523 0.0
H2083 H 0.39592 0.11723 0.52062 0.0
H2084 H 0.37638 0.14807 0.53383 0.0
H2085 H 0.43922 0.18787 0.54619 0.0
H2086 H 0.4588 0.15728 0.53281 0.0
H2087 H 0.47277 0.16921 0.57296 0.0
H2088 H 0.44221 0.05488 0.65848 0.0
H2089 H 0.47399 0.02353 0.63187 0.0
H2090 H 0.45609 0.0913 0.5401 0.0
C2091 C 0.39626 0.16875 0.60252 0.0
C2092 C 0.39011 0.17212 0.63404 0.0
C2093 C 0.39676 0.1458 0.66062 0.0
C2094 C 0.40948 0.11716 0.65612 0.0
C2095 C 0.41552 0.11492 0.62488 0.0
C2096 C 0.40918 0.14001 0.5985 0.0
C2097 C 0.42026 0.13265 0.56788 0.0
C2098 C 0.38793 0.12458 0.54214 0.0
C2099 C 0.4495 0.16359 0.55417 0.0
C2100 C 0.43461 0.1 0.58138 0.0
C2101 C 0.43124 0.09006 0.61427 0.0
C2102 C 0.44457 0.06213 0.63267 0.0
C2103 C 0.4626 0.04447 0.61732 0.0
C2104 C 0.46719 0.05464 0.58384 0.0
C2105 C 0.45224 0.0823 0.56552 0.0
H2106 H 0.89256 0.32285 0.72557 0.0
H2107 H 0.78816 0.32229 0.67232 0.0
H2108 H 0.81663 0.35937 0.6247 0.0
H2109 H 0.93918 0.41097 0.69203 0.0
H2110 H 0.97945 0.3976 0.68997 0.0
H2111 H 0.95063 0.37436 0.72049 0.0
H2112 H 0.94629 0.31548 0.70023 0.0
H2113 H 0.97498 0.3385 0.66957 0.0
H2114 H 0.93165 0.31171 0.65793 0.0
H2115 H 0.85866 0.39834 0.58217 0.0
H2116 H 0.90784 0.42885 0.54861 0.0
H2117 H 0.98446 0.39719 0.62735 0.0
C2118 C 0.87556 0.33095 0.70406 0.0
C2119 C 0.83782 0.3208 0.7035 0.0
C2120 C 0.81691 0.33094 0.6742 0.0
C2121 C 0.83302 0.35177 0.64681 0.0
C2122 C 0.87032 0.36148 0.64839 0.0
C2123 C 0.89124 0.35083 0.67626 0.0
C2124 C 0.9306 0.36231 0.67123 0.0
C2125 C 0.95118 0.38783 0.69483 0.0
C2126 C 0.94683 0.33008 0.67496 0.0
C2127 C 0.92889 0.38114 0.63615 0.0
C2128 C 0.89391 0.38099 0.62351 0.0
C2129 C 0.88596 0.39811 0.59193 0.0
C2130 C 0.91412 0.41548 0.57296 0.0
C2131 C 0.95005 0.41512 0.58502 0.0
C2132 C 0.95728 0.39753 0.61714 0.0
H2133 H 0.19523 0.70053 0.67705 0.0
H2134 H 0.28442 0.65147 0.68498 0.0
H2135 H 0.25143 0.61405 0.64467 0.0
H2136 H 0.12668 0.6231 0.66912 0.0
H2137 H 0.09733 0.64474 0.63954 0.0
H2138 H 0.12848 0.66917 0.66819 0.0
H2139 H 0.15486 0.7151 0.62061 0.0
H2140 H 0.12363 0.69091 0.59181 0.0
H2141 H 0.17076 0.70043 0.58881 0.0
H2142 H 0.20652 0.57755 0.60636 0.0
H2143 H 0.15515 0.54964 0.56961 0.0
H2144 H 0.09667 0.62408 0.58396 0.0
C2145 C 0.20809 0.68237 0.66993 0.0
C2146 C 0.24266 0.6793 0.68451 0.0
C2147 C 0.25811 0.65474 0.67446 0.0
C2148 C 0.2395 0.6331 0.65147 0.0
C2149 C 0.20534 0.63625 0.63812 0.0
C2150 C 0.18993 0.66063 0.6466 0.0
C2151 C 0.15269 0.6584 0.62867 0.0
C2152 C 0.12464 0.64825 0.65282 0.0
C2153 C 0.15036 0.69328 0.60613 0.0
C2154 C 0.14958 0.62883 0.60917 0.0
C2155 C 0.1801 0.61617 0.61512 0.0
C2156 C 0.18265 0.58764 0.60112 0.0
C2157 C 0.15334 0.57185 0.58032 0.0
C2158 C 0.12203 0.5849 0.5733 0.0
C2159 C 0.12044 0.61383 0.5881 0.0
loop_
_geom_bond_atom_site_label_1
_geom_bond_atom_site_label_2
_geom_bond_distance
_geom_bond_site_symmetry_2
_ccdc_geom_bond_type
Eu0 N31 2.657 . S
Eu0 N38 2.609 . S
Eu0 O44 2.558 . S
Eu0 O45 2.612 . S
Eu0 O47 2.339 . S
Eu0 O48 2.563 . S
Eu0 O49 2.419 . S
Eu0 O51 2.380 . S
Eu0 O52 2.432 . S
Eu0 C64 2.848 . S
C1 C4 1.429 . S
C1 C5 1.411 . S
C1 N8 1.377 . S
C2 C4 1.420 . S
C2 C6 1.423 . S
C2 C14 1.392 . S
C3 C5 1.420 . S
C3 C6 1.351 . S
C3 H26 0.931 . S
C4 C1 1.429 . S
C4 C2 1.420 . S
C4 N12 1.362 . S
C5 C1 1.411 . S
C5 C3 1.420 . S
C5 C10 1.395 . S
C6 C2 1.423 . S
C6 C3 1.351 . S
C6 H18 0.930 . S
C7 C9 1.400 . S
C7 C10 1.386 . S
C7 H19 0.930 . S
N8 C1 1.377 . S
N8 C9 1.321 . S
N8 Eu11 2.609 . S
C9 C7 1.400 . S
C9 N8 1.321 . S
C9 H16 0.930 . S
C10 C5 1.395 . S
C10 C7 1.386 . S
C10 H29 0.930 . S
Eu11 N8 2.609 . S
Eu11 N12 2.657 . S
Eu11 O45 2.380 . S
Eu11 O46 2.432 . S
Eu11 O50 2.558 . S
Eu11 O51 2.612 . S
Eu11 O53 2.339 . S
Eu11 O54 2.563 . S
Eu11 O55 2.419 . S
Eu11 C75 2.848 . S
N12 C4 1.362 . S
N12 Eu11 2.657 . S
N12 C13 1.334 . S
C13 N12 1.334 . S
C13 C15 1.413 . S
C13 H20 0.929 . S
C14 C2 1.392 . S
C14 C15 1.367 . S
C14 H22 0.930 . S
C15 C13 1.413 . S
C15 C14 1.367 . S
C15 H17 0.930 . S
H16 C9 0.930 . S
H17 C15 0.930 . S
H18 C6 0.930 . S
H19 C7 0.930 . S
H20 C13 0.929 . S
H21 C35 0.930 . S
H22 C14 0.930 . S
H23 C41 0.930 . S
H24 C32 0.929 . S
H25 C39 0.930 . S
H26 C3 0.931 . S
H27 C33 0.930 . S
H28 C66 0.930 . S
H29 C10 0.930 . S
H30 C65 0.931 . S
N31 Eu0 2.657 . S
N31 C32 1.334 . S
N31 C36 1.362 . S
C32 H24 0.929 . S
C32 N31 1.334 . S
C32 C35 1.413 . S
C33 H27 0.930 . S
C33 C34 1.392 . S
C33 C35 1.367 . S
C34 C33 1.392 . S
C34 C36 1.420 . S
C34 C66 1.423 . S
C35 H21 0.930 . S
C35 C32 1.413 . S
C35 C33 1.367 . S
C36 N31 1.362 . S
C36 C34 1.420 . S
C36 C40 1.429 . S
H37 C42 0.930 . S
N38 Eu0 2.609 . S
N38 C40 1.377 . S
N38 C41 1.321 . S
C39 H25 0.930 . S
C39 C41 1.400 . S
C39 C42 1.386 . S
C40 C36 1.429 . S
C40 N38 1.377 . S
C40 C43 1.411 . S
C41 H23 0.930 . S
C41 N38 1.321 . S
C41 C39 1.400 . S
C42 H37 0.930 . S
C42 C39 1.386 . S
C42 C43 1.395 . S
C43 C40 1.411 . S
C43 C42 1.395 . S
C43 C65 1.420 . S
O44 Eu0 2.558 . S
O44 C64 1.257 . S
O45 Eu0 2.612 . S
O45 Eu11 2.380 . S
O45 C56 1.276 . S
O46 Eu11 2.432 . S
O46 C63 1.264 . S
O47 Eu0 2.339 . S
O47 C63 1.254 . S
O48 Eu0 2.563 . S
O48 C56 1.235 . S
O49 Eu0 2.419 . S
O49 C64 1.249 . S
O50 Eu11 2.558 . S
O50 C75 1.257 . S
O51 Eu0 2.380 . S
O51 Eu11 2.612 . S
O51 C67 1.276 . S
O52 Eu0 2.432 . S
O52 C74 1.264 . S
O53 Eu11 2.339 . S
O53 C74 1.254 . S
O54 Eu11 2.563 . S
O54 C67 1.235 . S
O55 Eu11 2.419 . S
O55 C75 1.249 . S
C56 O45 1.276 . S
C56 O48 1.235 . S
C57 C59 1.393 . S
C57 C61 1.395 . S
C57 C64 1.492 . S
C58 C59 1.392 . S
C58 C60 1.386 . S
C59 C57 1.393 . S
C59 C58 1.392 . S
C59 H76 0.930 . S
C60 C58 1.386 . S
C60 C62 1.395 . S
C60 H77 0.930 . S
C61 C57 1.395 . S
C61 C62 1.379 . S
C61 H78 0.930 . S
C62 C60 1.395 . S
C62 C61 1.379 . S
C62 H79 0.930 . S
C63 O46 1.264 . S
C63 O47 1.254 . S
C64 Eu0 2.848 . S
C64 O44 1.257 . S
C64 O49 1.249 . S
C64 C57 1.492 . S
C65 H30 0.931 . S
C65 C43 1.420 . S
C65 C66 1.351 . S
C66 H28 0.930 . S
C66 C34 1.423 . S
C66 C65 1.351 . S
C67 O51 1.276 . S
C67 O54 1.235 . S
C68 C69 1.393 . S
C68 C72 1.395 . S
C68 C75 1.492 . S
C69 C68 1.393 . S
C69 C70 1.392 . S
C69 H80 0.930 . S
C70 C69 1.392 . S
C70 C71 1.386 . S
C71 C70 1.386 . S
C71 C73 1.395 . S
C71 H81 0.930 . S
C72 C68 1.395 . S
C72 C73 1.379 . S
C72 H82 0.930 . S
C73 C71 1.395 . S
C73 C72 1.379 . S
C73 H83 0.930 . S
C74 O52 1.264 . S
C74 O53 1.254 . S
C75 Eu11 2.848 . S
C75 O50 1.257 . S
C75 O55 1.249 . S
C75 C68 1.492 . S
H76 C59 0.930 . S
H77 C60 0.930 . S
H78 C61 0.930 . S
H79 C62 0.930 . S
H80 C69 0.930 . S
H81 C71 0.930 . S
H82 C72 0.930 . S
H83 C73 0.930 . S
Eu84 N115 2.657 . S
Eu84 N122 2.609 . S
Eu84 O128 2.558 . S
Eu84 O129 2.612 . S
Eu84 O131 2.339 . S
Eu84 O132 2.563 . S
Eu84 O133 2.419 . S
Eu84 O135 2.380 . S
Eu84 O136 2.432 . S
Eu84 C148 2.848 . S
C85 C88 1.429 . S
C85 C89 1.411 . S
C85 N92 1.377 . S
C86 C88 1.420 . S
C86 C90 1.423 . S
C86 C98 1.392 . S
C87 C89 1.420 . S
C87 C90 1.351 . S
C87 H110 0.931 . S
C88 C85 1.429 . S
C88 C86 1.420 . S
C88 N96 1.362 . S
C89 C85 1.411 . S
C89 C87 1.420 . S
C89 C94 1.395 . S
C90 C86 1.423 . S
C90 C87 1.351 . S
C90 H102 0.930 . S
C91 C93 1.400 . S
C91 C94 1.386 . S
C91 H103 0.930 . S
N92 C85 1.377 . S
N92 C93 1.321 . S
N92 Eu95 2.609 . S
C93 C91 1.400 . S
C93 N92 1.321 . S
C93 H100 0.930 . S
C94 C89 1.395 . S
C94 C91 1.386 . S
C94 H113 0.930 . S
Eu95 N92 2.609 . S
Eu95 N96 2.657 . S
Eu95 O129 2.380 . S
Eu95 O130 2.432 . S
Eu95 O134 2.558 . S
Eu95 O135 2.612 . S
Eu95 O137 2.339 . S
Eu95 O138 2.563 . S
Eu95 O139 2.419 . S
Eu95 C159 2.848 . S
N96 C88 1.362 . S
N96 Eu95 2.657 . S
N96 C97 1.334 . S
C97 N96 1.334 . S
C97 C99 1.413 . S
C97 H104 0.929 . S
C98 C86 1.392 . S
C98 C99 1.367 . S
C98 H106 0.930 . S
C99 C97 1.413 . S
C99 C98 1.367 . S
C99 H101 0.930 . S
H100 C93 0.930 . S
H101 C99 0.930 . S
H102 C90 0.930 . S
H103 C91 0.930 . S
H104 C97 0.929 . S
H105 C119 0.930 . S
H106 C98 0.930 . S
H107 C125 0.930 . S
H108 C116 0.929 . S
H109 C123 0.930 . S
H110 C87 0.931 . S
H111 C117 0.930 . S
H112 C150 0.930 . S
H113 C94 0.930 . S
H114 C149 0.931 . S
N115 Eu84 2.657 . S
N115 C116 1.334 . S
N115 C120 1.362 . S
C116 H108 0.929 . S
C116 N115 1.334 . S
C116 C119 1.413 . S
C117 H111 0.930 . S
C117 C118 1.392 . S
C117 C119 1.367 . S
C118 C117 1.392 . S
C118 C120 1.420 . S
C118 C150 1.423 . S
C119 H105 0.930 . S
C119 C116 1.413 . S
C119 C117 1.367 . S
C120 N115 1.362 . S
C120 C118 1.420 . S
C120 C124 1.429 . S
H121 C126 0.930 . S
N122 Eu84 2.609 . S
N122 C124 1.377 . S
N122 C125 1.321 . S
C123 H109 0.930 . S
C123 C125 1.400 . S
C123 C126 1.386 . S
C124 C120 1.429 . S
C124 N122 1.377 . S
C124 C127 1.411 . S
C125 H107 0.930 . S
C125 N122 1.321 . S
C125 C123 1.400 . S
C126 H121 0.930 . S
C126 C123 1.386 . S
C126 C127 1.395 . S
C127 C124 1.411 . S
C127 C126 1.395 . S
C127 C149 1.420 . S
O128 Eu84 2.558 . S
O128 C148 1.257 . S
O129 Eu84 2.612 . S
O129 Eu95 2.380 . S
O129 C140 1.276 . S
O130 Eu95 2.432 . S
O130 C147 1.264 . S
O131 Eu84 2.339 . S
O131 C147 1.254 . S
O132 Eu84 2.563 . S
O132 C140 1.235 . S
O133 Eu84 2.419 . S
O133 C148 1.249 . S
O134 Eu95 2.558 . S
O134 C159 1.257 . S
O135 Eu84 2.380 . S
O135 Eu95 2.612 . S
O135 C151 1.276 . S
O136 Eu84 2.432 . S
O136 C158 1.264 . S
O137 Eu95 2.339 . S
O137 C158 1.254 . S
O138 Eu95 2.563 . S
O138 C151 1.235 . S
O139 Eu95 2.419 . S
O139 C159 1.249 . S
C140 O129 1.276 . S
C140 O132 1.235 . S
C141 C143 1.393 . S
C141 C145 1.395 . S
C141 C148 1.492 . S
C142 C143 1.392 . S
C142 C144 1.386 . S
C143 C141 1.393 . S
C143 C142 1.392 . S
C143 H160 0.930 . S
C144 C142 1.386 . S
C144 C146 1.395 . S
C144 H161 0.930 . S
C145 C141 1.395 . S
C145 C146 1.379 . S
C145 H162 0.930 . S
C146 C144 1.395 . S
C146 C145 1.379 . S
C146 H163 0.930 . S
C147 O130 1.264 . S
C147 O131 1.254 . S
C148 Eu84 2.848 . S
C148 O128 1.257 . S
C148 O133 1.249 . S
C148 C141 1.492 . S
C149 H114 0.931 . S
C149 C127 1.420 . S
C149 C150 1.351 . S
C150 H112 0.930 . S
C150 C118 1.423 . S
C150 C149 1.351 . S
C151 O135 1.276 . S
C151 O138 1.235 . S
C152 C153 1.393 . S
C152 C156 1.395 . S
C152 C159 1.492 . S
C153 C152 1.393 . S
C153 C154 1.392 . S
C153 H164 0.930 . S
C154 C153 1.392 . S
C154 C155 1.386 . S
C155 C154 1.386 . S
C155 C157 1.395 . S
C155 H165 0.930 . S
C156 C152 1.395 . S
C156 C157 1.379 . S
C156 H166 0.930 . S
C157 C155 1.395 . S
C157 C156 1.379 . S
C157 H167 0.930 . S
C158 O136 1.264 . S
C158 O137 1.254 . S
C159 Eu95 2.848 . S
C159 O134 1.257 . S
C159 O139 1.249 . S
C159 C152 1.492 . S
H160 C143 0.930 . S
H161 C144 0.930 . S
H162 C145 0.930 . S
H163 C146 0.930 . S
H164 C153 0.930 . S
H165 C155 0.930 . S
H166 C156 0.930 . S
H167 C157 0.930 . S
Eu168 N199 2.657 . S
Eu168 N206 2.609 . S
Eu168 O212 2.558 . S
Eu168 O213 2.612 . S
Eu168 O215 2.339 . S
Eu168 O216 2.563 . S
Eu168 O217 2.419 . S
Eu168 O219 2.380 . S
Eu168 O220 2.432 . S
Eu168 C232 2.848 . S
C169 C172 1.429 . S
C169 C173 1.411 . S
C169 N176 1.377 . S
C170 C172 1.420 . S
C170 C174 1.423 . S
C170 C182 1.392 . S
C171 C173 1.420 . S
C171 C174 1.351 . S
C171 H194 0.931 . S
C172 C169 1.429 . S
C172 C170 1.420 . S
C172 N180 1.362 . S
C173 C169 1.411 . S
C173 C171 1.420 . S
C173 C178 1.395 . S
C174 C170 1.423 . S
C174 C171 1.351 . S
C174 H186 0.930 . S
C175 C177 1.400 . S
C175 C178 1.386 . S
C175 H187 0.930 . S
N176 C169 1.377 . S
N176 C177 1.321 . S
N176 Eu179 2.609 . S
C177 C175 1.400 . S
C177 N176 1.321 . S
C177 H184 0.930 . S
C178 C173 1.395 . S
C178 C175 1.386 . S
C178 H197 0.930 . S
Eu179 N176 2.609 . S
Eu179 N180 2.657 . S
Eu179 O213 2.380 . S
Eu179 O214 2.432 . S
Eu179 O218 2.558 . S
Eu179 O219 2.612 . S
Eu179 O221 2.339 . S
Eu179 O222 2.563 . S
Eu179 O223 2.419 . S
Eu179 C243 2.848 . S
N180 C172 1.362 . S
N180 Eu179 2.657 . S
N180 C181 1.334 . S
C181 N180 1.334 . S
C181 C183 1.413 . S
C181 H188 0.929 . S
C182 C170 1.392 . S
C182 C183 1.367 . S
C182 H190 0.930 . S
C183 C181 1.413 . S
C183 C182 1.367 . S
C183 H185 0.930 . S
H184 C177 0.930 . S
H185 C183 0.930 . S
H186 C174 0.930 . S
H187 C175 0.930 . S
H188 C181 0.929 . S
H189 C203 0.930 . S
H190 C182 0.930 . S
H191 C209 0.930 . S
H192 C200 0.929 . S
H193 C207 0.930 . S
H194 C171 0.931 . S
H195 C201 0.930 . S
H196 C234 0.930 . S
H197 C178 0.930 . S
H198 C233 0.931 . S
N199 Eu168 2.657 . S
N199 C200 1.334 . S
N199 C204 1.362 . S
C200 H192 0.929 . S
C200 N199 1.334 . S
C200 C203 1.413 . S
C201 H195 0.930 . S
C201 C202 1.392 . S
C201 C203 1.367 . S
C202 C201 1.392 . S
C202 C204 1.420 . S
C202 C234 1.423 . S
C203 H189 0.930 . S
C203 C200 1.413 . S
C203 C201 1.367 . S
C204 N199 1.362 . S
C204 C202 1.420 . S
C204 C208 1.429 . S
H205 C210 0.930 . S
N206 Eu168 2.609 . S
N206 C208 1.377 . S
N206 C209 1.321 . S
C207 H193 0.930 . S
C207 C209 1.400 . S
C207 C210 1.386 . S
C208 C204 1.429 . S
C208 N206 1.377 . S
C208 C211 1.411 . S
C209 H191 0.930 . S
C209 N206 1.321 . S
C209 C207 1.400 . S
C210 H205 0.930 . S
C210 C207 1.386 . S
C210 C211 1.395 . S
C211 C208 1.411 . S
C211 C210 1.395 . S
C211 C233 1.420 . S
O212 Eu168 2.558 . S
O212 C232 1.257 . S
O213 Eu168 2.612 . S
O213 Eu179 2.380 . S
O213 C224 1.276 . S
O214 Eu179 2.432 . S
O214 C231 1.264 . S
O215 Eu168 2.339 . S
O215 C231 1.254 . S
O216 Eu168 2.563 . S
O216 C224 1.235 . S
O217 Eu168 2.419 . S
O217 C232 1.249 . S
O218 Eu179 2.558 . S
O218 C243 1.257 . S
O219 Eu168 2.380 . S
O219 Eu179 2.612 . S
O219 C235 1.276 . S
O220 Eu168 2.432 . S
O220 C242 1.264 . S
O221 Eu179 2.339 . S
O221 C242 1.254 . S
O222 Eu179 2.563 . S
O222 C235 1.235 . S
O223 Eu179 2.419 . S
O223 C243 1.249 . S
C224 O213 1.276 . S
C224 O216 1.235 . S
C225 C227 1.393 . S
C225 C229 1.395 . S
C225 C232 1.492 . S
C226 C227 1.392 . S
C226 C228 1.386 . S
C227 C225 1.393 . S
C227 C226 1.392 . S
C227 H244 0.930 . S
C228 C226 1.386 . S
C228 C230 1.395 . S
C228 H245 0.930 . S
C229 C225 1.395 . S
C229 C230 1.379 . S
C229 H246 0.930 . S
C230 C228 1.395 . S
C230 C229 1.379 . S
C230 H247 0.930 . S
C231 O214 1.264 . S
C231 O215 1.254 . S
C232 Eu168 2.848 . S
C232 O212 1.257 . S
C232 O217 1.249 . S
C232 C225 1.492 . S
C233 H198 0.931 . S
C233 C211 1.420 . S
C233 C234 1.351 . S
C234 H196 0.930 . S
C234 C202 1.423 . S
C234 C233 1.351 . S
C235 O219 1.276 . S
C235 O222 1.235 . S
C236 C237 1.393 . S
C236 C240 1.395 . S
C236 C243 1.492 . S
C237 C236 1.393 . S
C237 C238 1.392 . S
C237 H248 0.930 . S
C238 C237 1.392 . S
C238 C239 1.386 . S
C239 C238 1.386 . S
C239 C241 1.395 . S
C239 H249 0.930 . S
C240 C236 1.395 . S
C240 C241 1.379 . S
C240 H250 0.930 . S
C241 C239 1.395 . S
C241 C240 1.379 . S
C241 H251 0.930 . S
C242 O220 1.264 . S
C242 O221 1.254 . S
C243 Eu179 2.848 . S
C243 O218 1.257 . S
C243 O223 1.249 . S
C243 C236 1.492 . S
H244 C227 0.930 . S
H245 C228 0.930 . S
H246 C229 0.930 . S
H247 C230 0.930 . S
H248 C237 0.930 . S
H249 C239 0.930 . S
H250 C240 0.930 . S
H251 C241 0.930 . S
Eu252 N283 2.657 . S
Eu252 N290 2.609 . S
Eu252 O296 2.558 . S
Eu252 O297 2.612 . S
Eu252 O299 2.339 . S
Eu252 O300 2.563 . S
Eu252 O301 2.419 . S
Eu252 O303 2.380 . S
Eu252 O304 2.432 . S
Eu252 C316 2.848 . S
C253 C256 1.429 . S
C253 C257 1.411 . S
C253 N260 1.377 . S
C254 C256 1.420 . S
C254 C258 1.423 . S
C254 C266 1.392 . S
C255 C257 1.420 . S
C255 C258 1.351 . S
C255 H278 0.931 . S
C256 C253 1.429 . S
C256 C254 1.420 . S
C256 N264 1.362 . S
C257 C253 1.411 . S
C257 C255 1.420 . S
C257 C262 1.395 . S
C258 C254 1.423 . S
C258 C255 1.351 . S
C258 H270 0.930 . S
C259 C261 1.400 . S
C259 C262 1.386 . S
C259 H271 0.930 . S
N260 C253 1.377 . S
N260 C261 1.321 . S
N260 Eu263 2.609 . S
C261 C259 1.400 . S
C261 N260 1.321 . S
C261 H268 0.930 . S
C262 C257 1.395 . S
C262 C259 1.386 . S
C262 H281 0.930 . S
Eu263 N260 2.609 . S
Eu263 N264 2.657 . S
Eu263 O297 2.380 . S
Eu263 O298 2.432 . S
Eu263 O302 2.558 . S
Eu263 O303 2.612 . S
Eu263 O305 2.339 . S
Eu263 O306 2.563 . S
Eu263 O307 2.419 . S
Eu263 C327 2.848 . S
N264 C256 1.362 . S
N264 Eu263 2.657 . S
N264 C265 1.334 . S
C265 N264 1.334 . S
C265 C267 1.413 . S
C265 H272 0.929 . S
C266 C254 1.392 . S
C266 C267 1.367 . S
C266 H274 0.930 . S
C267 C265 1.413 . S
C267 C266 1.367 . S
C267 H269 0.930 . S
H268 C261 0.930 . S
H269 C267 0.930 . S
H270 C258 0.930 . S
H271 C259 0.930 . S
H272 C265 0.929 . S
H273 C287 0.930 . S
H274 C266 0.930 . S
H275 C293 0.930 . S
H276 C284 0.929 . S
H277 C291 0.930 . S
H278 C255 0.931 . S
H279 C285 0.930 . S
H280 C318 0.930 . S
H281 C262 0.930 . S
H282 C317 0.931 . S
N283 Eu252 2.657 . S
N283 C284 1.334 . S
N283 C288 1.362 . S
C284 H276 0.929 . S
C284 N283 1.334 . S
C284 C287 1.413 . S
C285 H279 0.930 . S
C285 C286 1.392 . S
C285 C287 1.367 . S
C286 C285 1.392 . S
C286 C288 1.420 . S
C286 C318 1.423 . S
C287 H273 0.930 . S
C287 C284 1.413 . S
C287 C285 1.367 . S
C288 N283 1.362 . S
C288 C286 1.420 . S
C288 C292 1.429 . S
H289 C294 0.930 . S
N290 Eu252 2.609 . S
N290 C292 1.377 . S
N290 C293 1.321 . S
C291 H277 0.930 . S
C291 C293 1.400 . S
C291 C294 1.386 . S
C292 C288 1.429 . S
C292 N290 1.377 . S
C292 C295 1.411 . S
C293 H275 0.930 . S
C293 N290 1.321 . S
C293 C291 1.400 . S
C294 H289 0.930 . S
C294 C291 1.386 . S
C294 C295 1.395 . S
C295 C292 1.411 . S
C295 C294 1.395 . S
C295 C317 1.420 . S
O296 Eu252 2.558 . S
O296 C316 1.257 . S
O297 Eu252 2.612 . S
O297 Eu263 2.380 . S
O297 C308 1.276 . S
O298 Eu263 2.432 . S
O298 C315 1.264 . S
O299 Eu252 2.339 . S
O299 C315 1.254 . S
O300 Eu252 2.563 . S
O300 C308 1.235 . S
O301 Eu252 2.419 . S
O301 C316 1.249 . S
O302 Eu263 2.558 . S
O302 C327 1.257 . S
O303 Eu252 2.380 . S
O303 Eu263 2.612 . S
O303 C319 1.276 . S
O304 Eu252 2.432 . S
O304 C326 1.264 . S
O305 Eu263 2.339 . S
O305 C326 1.254 . S
O306 Eu263 2.563 . S
O306 C319 1.235 . S
O307 Eu263 2.419 . S
O307 C327 1.249 . S
C308 O297 1.276 . S
C308 O300 1.235 . S
C309 C311 1.393 . S
C309 C313 1.395 . S
C309 C316 1.492 . S
C310 C311 1.392 . S
C310 C312 1.386 . S
C311 C309 1.393 . S
C311 C310 1.392 . S
C311 H328 0.930 . S
C312 C310 1.386 . S
C312 C314 1.395 . S
C312 H329 0.930 . S
C313 C309 1.395 . S
C313 C314 1.379 . S
C313 H330 0.930 . S
C314 C312 1.395 . S
C314 C313 1.379 . S
C314 H331 0.930 . S
C315 O298 1.264 . S
C315 O299 1.254 . S
C316 Eu252 2.848 . S
C316 O296 1.257 . S
C316 O301 1.249 . S
C316 C309 1.492 . S
C317 H282 0.931 . S
C317 C295 1.420 . S
C317 C318 1.351 . S
C318 H280 0.930 . S
C318 C286 1.423 . S
C318 C317 1.351 . S
C319 O303 1.276 . S
C319 O306 1.235 . S
C320 C321 1.393 . S
C320 C324 1.395 . S
C320 C327 1.492 . S
C321 C320 1.393 . S
C321 C322 1.392 . S
C321 H332 0.930 . S
C322 C321 1.392 . S
C322 C323 1.386 . S
C323 C322 1.386 . S
C323 C325 1.395 . S
C323 H333 0.930 . S
C324 C320 1.395 . S
C324 C325 1.379 . S
C324 H334 0.930 . S
C325 C323 1.395 . S
C325 C324 1.379 . S
C325 H335 0.930 . S
C326 O304 1.264 . S
C326 O305 1.254 . S
C327 Eu263 2.848 . S
C327 O302 1.257 . S
C327 O307 1.249 . S
C327 C320 1.492 . S
H328 C311 0.930 . S
H329 C312 0.930 . S
H330 C313 0.930 . S
H331 C314 0.930 . S
H332 C321 0.930 . S
H333 C323 0.930 . S
H334 C324 0.930 . S
H335 C325 0.930 . S
Eu336 N367 2.657 . S
Eu336 N374 2.609 . S
Eu336 O380 2.558 . S
Eu336 O381 2.612 . S
Eu336 O383 2.339 . S
Eu336 O384 2.563 . S
Eu336 O385 2.419 . S
Eu336 O387 2.380 . S
Eu336 O388 2.432 . S
Eu336 C400 2.848 . S
C337 C340 1.429 . S
C337 C341 1.411 . S
C337 N344 1.377 . S
C338 C340 1.420 . S
C338 C342 1.423 . S
C338 C350 1.392 . S
C339 C341 1.420 . S
C339 C342 1.351 . S
C339 H362 0.931 . S
C340 C337 1.429 . S
C340 C338 1.420 . S
C340 N348 1.362 . S
C341 C337 1.411 . S
C341 C339 1.420 . S
C341 C346 1.395 . S
C342 C338 1.423 . S
C342 C339 1.351 . S
C342 H354 0.930 . S
C343 C345 1.400 . S
C343 C346 1.386 . S
C343 H355 0.930 . S
N344 C337 1.377 . S
N344 C345 1.321 . S
N344 Eu347 2.609 . S
C345 C343 1.400 . S
C345 N344 1.321 . S
C345 H352 0.930 . S
C346 C341 1.395 . S
C346 C343 1.386 . S
C346 H365 0.930 . S
Eu347 N344 2.609 . S
Eu347 N348 2.657 . S
Eu347 O381 2.380 . S
Eu347 O382 2.432 . S
Eu347 O386 2.558 . S
Eu347 O387 2.612 . S
Eu347 O389 2.339 . S
Eu347 O390 2.563 . S
Eu347 O391 2.419 . S
Eu347 C411 2.848 . S
N348 C340 1.362 . S
N348 Eu347 2.657 . S
N348 C349 1.334 . S
C349 N348 1.334 . S
C349 C351 1.413 . S
C349 H356 0.929 . S
C350 C338 1.392 . S
C350 C351 1.367 . S
C350 H358 0.930 . S
C351 C349 1.413 . S
C351 C350 1.367 . S
C351 H353 0.930 . S
H352 C345 0.930 . S
H353 C351 0.930 . S
H354 C342 0.930 . S
H355 C343 0.930 . S
H356 C349 0.929 . S
H357 C371 0.930 . S
H358 C350 0.930 . S
H359 C377 0.930 . S
H360 C368 0.929 . S
H361 C375 0.930 . S
H362 C339 0.931 . S
H363 C369 0.930 . S
H364 C402 0.930 . S
H365 C346 0.930 . S
H366 C401 0.931 . S
N367 Eu336 2.657 . S
N367 C368 1.334 . S
N367 C372 1.362 . S
C368 H360 0.929 . S
C368 N367 1.334 . S
C368 C371 1.413 . S
C369 H363 0.930 . S
C369 C370 1.392 . S
C369 C371 1.367 . S
C370 C369 1.392 . S
C370 C372 1.420 . S
C370 C402 1.423 . S
C371 H357 0.930 . S
C371 C368 1.413 . S
C371 C369 1.367 . S
C372 N367 1.362 . S
C372 C370 1.420 . S
C372 C376 1.429 . S
H373 C378 0.930 . S
N374 Eu336 2.609 . S
N374 C376 1.377 . S
N374 C377 1.321 . S
C375 H361 0.930 . S
C375 C377 1.400 . S
C375 C378 1.386 . S
C376 C372 1.429 . S
C376 N374 1.377 . S
C376 C379 1.411 . S
C377 H359 0.930 . S
C377 N374 1.321 . S
C377 C375 1.400 . S
C378 H373 0.930 . S
C378 C375 1.386 . S
C378 C379 1.395 . S
C379 C376 1.411 . S
C379 C378 1.395 . S
C379 C401 1.420 . S
O380 Eu336 2.558 . S
O380 C400 1.257 . S
O381 Eu336 2.612 . S
O381 Eu347 2.380 . S
O381 C392 1.276 . S
O382 Eu347 2.432 . S
O382 C399 1.264 . S
O383 Eu336 2.339 . S
O383 C399 1.254 . S
O384 Eu336 2.563 . S
O384 C392 1.235 . S
O385 Eu336 2.419 . S
O385 C400 1.249 . S
O386 Eu347 2.558 . S
O386 C411 1.257 . S
O387 Eu336 2.380 . S
O387 Eu347 2.612 . S
O387 C403 1.276 . S
O388 Eu336 2.432 . S
O388 C410 1.264 . S
O389 Eu347 2.339 . S
O389 C410 1.254 . S
O390 Eu347 2.563 . S
O390 C403 1.235 . S
O391 Eu347 2.419 . S
O391 C411 1.249 . S
C392 O381 1.276 . S
C392 O384 1.235 . S
C393 C395 1.393 . S
C393 C397 1.395 . S
C393 C400 1.492 . S
C394 C395 1.392 . S
C394 C396 1.386 . S
C395 C393 1.393 . S
C395 C394 1.392 . S
C395 H412 0.930 . S
C396 C394 1.386 . S
C396 C398 1.395 . S
C396 H413 0.930 . S
C397 C393 1.395 . S
C397 C398 1.379 . S
C397 H414 0.930 . S
C398 C396 1.395 . S
C398 C397 1.379 . S
C398 H415 0.930 . S
C399 O382 1.264 . S
C399 O383 1.254 . S
C400 Eu336 2.848 . S
C400 O380 1.257 . S
C400 O385 1.249 . S
C400 C393 1.492 . S
C401 H366 0.931 . S
C401 C379 1.420 . S
C401 C402 1.351 . S
C402 H364 0.930 . S
C402 C370 1.423 . S
C402 C401 1.351 . S
C403 O387 1.276 . S
C403 O390 1.235 . S
C404 C405 1.393 . S
C404 C408 1.395 . S
C404 C411 1.492 . S
C405 C404 1.393 . S
C405 C406 1.392 . S
C405 H416 0.930 . S
C406 C405 1.392 . S
C406 C407 1.386 . S
C407 C406 1.386 . S
C407 C409 1.395 . S
C407 H417 0.930 . S
C408 C404 1.395 . S
C408 C409 1.379 . S
C408 H418 0.930 . S
C409 C407 1.395 . S
C409 C408 1.379 . S
C409 H419 0.930 . S
C410 O388 1.264 . S
C410 O389 1.254 . S
C411 Eu347 2.848 . S
C411 O386 1.257 . S
C411 O391 1.249 . S
C411 C404 1.492 . S
H412 C395 0.930 . S
H413 C396 0.930 . S
H414 C397 0.930 . S
H415 C398 0.930 . S
H416 C405 0.930 . S
H417 C407 0.930 . S
H418 C408 0.930 . S
H419 C409 0.930 . S
Eu420 N451 2.657 . S
Eu420 N458 2.609 . S
Eu420 O464 2.558 . S
Eu420 O465 2.612 . S
Eu420 O467 2.339 . S
Eu420 O468 2.563 . S
Eu420 O469 2.419 . S
Eu420 O471 2.380 . S
Eu420 O472 2.432 . S
Eu420 C484 2.848 . S
C421 C424 1.429 . S
C421 C425 1.411 . S
C421 N428 1.377 . S
C422 C424 1.420 . S
C422 C426 1.423 . S
C422 C434 1.392 . S
C423 C425 1.420 . S
C423 C426 1.351 . S
C423 H446 0.931 . S
C424 C421 1.429 . S
C424 C422 1.420 . S
C424 N432 1.362 . S
C425 C421 1.411 . S
C425 C423 1.420 . S
C425 C430 1.395 . S
C426 C422 1.423 . S
C426 C423 1.351 . S
C426 H438 0.930 . S
C427 C429 1.400 . S
C427 C430 1.386 . S
C427 H439 0.930 . S
N428 C421 1.377 . S
N428 C429 1.321 . S
N428 Eu431 2.609 . S
C429 C427 1.400 . S
C429 N428 1.321 . S
C429 H436 0.930 . S
C430 C425 1.395 . S
C430 C427 1.386 . S
C430 H449 0.930 . S
Eu431 N428 2.609 . S
Eu431 N432 2.657 . S
Eu431 O465 2.380 . S
Eu431 O466 2.432 . S
Eu431 O470 2.558 . S
Eu431 O471 2.612 . S
Eu431 O473 2.339 . S
Eu431 O474 2.563 . S
Eu431 O475 2.419 . S
Eu431 C495 2.848 . S
N432 C424 1.362 . S
N432 Eu431 2.657 . S
N432 C433 1.334 . S
C433 N432 1.334 . S
C433 C435 1.413 . S
C433 H440 0.929 . S
C434 C422 1.392 . S
C434 C435 1.367 . S
C434 H442 0.930 . S
C435 C433 1.413 . S
C435 C434 1.367 . S
C435 H437 0.930 . S
H436 C429 0.930 . S
H437 C435 0.930 . S
H438 C426 0.930 . S
H439 C427 0.930 . S
H440 C433 0.929 . S
H441 C455 0.930 . S
H442 C434 0.930 . S
H443 C461 0.930 . S
H444 C452 0.929 . S
H445 C459 0.930 . S
H446 C423 0.931 . S
H447 C453 0.930 . S
H448 C486 0.930 . S
H449 C430 0.930 . S
H450 C485 0.931 . S
N451 Eu420 2.657 . S
N451 C452 1.334 . S
N451 C456 1.362 . S
C452 H444 0.929 . S
C452 N451 1.334 . S
C452 C455 1.413 . S
C453 H447 0.930 . S
C453 C454 1.392 . S
C453 C455 1.367 . S
C454 C453 1.392 . S
C454 C456 1.420 . S
C454 C486 1.423 . S
C455 H441 0.930 . S
C455 C452 1.413 . S
C455 C453 1.367 . S
C456 N451 1.362 . S
C456 C454 1.420 . S
C456 C460 1.429 . S
H457 C462 0.930 . S
N458 Eu420 2.609 . S
N458 C460 1.377 . S
N458 C461 1.321 . S
C459 H445 0.930 . S
C459 C461 1.400 . S
C459 C462 1.386 . S
C460 C456 1.429 . S
C460 N458 1.377 . S
C460 C463 1.411 . S
C461 H443 0.930 . S
C461 N458 1.321 . S
C461 C459 1.400 . S
C462 H457 0.930 . S
C462 C459 1.386 . S
C462 C463 1.395 . S
C463 C460 1.411 . S
C463 C462 1.395 . S
C463 C485 1.420 . S
O464 Eu420 2.558 . S
O464 C484 1.257 . S
O465 Eu420 2.612 . S
O465 Eu431 2.380 . S
O465 C476 1.276 . S
O466 Eu431 2.432 . S
O466 C483 1.264 . S
O467 Eu420 2.339 . S
O467 C483 1.254 . S
O468 Eu420 2.563 . S
O468 C476 1.235 . S
O469 Eu420 2.419 . S
O469 C484 1.249 . S
O470 Eu431 2.558 . S
O470 C495 1.257 . S
O471 Eu420 2.380 . S
O471 Eu431 2.612 . S
O471 C487 1.276 . S
O472 Eu420 2.432 . S
O472 C494 1.264 . S
O473 Eu431 2.339 . S
O473 C494 1.254 . S
O474 Eu431 2.563 . S
O474 C487 1.235 . S
O475 Eu431 2.419 . S
O475 C495 1.249 . S
C476 O465 1.276 . S
C476 O468 1.235 . S
C477 C479 1.393 . S
C477 C481 1.395 . S
C477 C484 1.492 . S
C478 C479 1.392 . S
C478 C480 1.386 . S
C479 C477 1.393 . S
C479 C478 1.392 . S
C479 H496 0.930 . S
C480 C478 1.386 . S
C480 C482 1.395 . S
C480 H497 0.930 . S
C481 C477 1.395 . S
C481 C482 1.379 . S
C481 H498 0.930 . S
C482 C480 1.395 . S
C482 C481 1.379 . S
C482 H499 0.930 . S
C483 O466 1.264 . S
C483 O467 1.254 . S
C484 Eu420 2.848 . S
C484 O464 1.257 . S
C484 O469 1.249 . S
C484 C477 1.492 . S
C485 H450 0.931 . S
C485 C463 1.420 . S
C485 C486 1.351 . S
C486 H448 0.930 . S
C486 C454 1.423 . S
C486 C485 1.351 . S
C487 O471 1.276 . S
C487 O474 1.235 . S
C488 C489 1.393 . S
C488 C492 1.395 . S
C488 C495 1.492 . S
C489 C488 1.393 . S
C489 C490 1.392 . S
C489 H500 0.930 . S
C490 C489 1.392 . S
C490 C491 1.386 . S
C491 C490 1.386 . S
C491 C493 1.395 . S
C491 H501 0.930 . S
C492 C488 1.395 . S
C492 C493 1.379 . S
C492 H502 0.930 . S
C493 C491 1.395 . S
C493 C492 1.379 . S
C493 H503 0.930 . S
C494 O472 1.264 . S
C494 O473 1.254 . S
C495 Eu431 2.848 . S
C495 O470 1.257 . S
C495 O475 1.249 . S
C495 C488 1.492 . S
H496 C479 0.930 . S
H497 C480 0.930 . S
H498 C481 0.930 . S
H499 C482 0.930 . S
H500 C489 0.930 . S
H501 C491 0.930 . S
H502 C492 0.930 . S
H503 C493 0.930 . S
Eu504 N535 2.657 . S
Eu504 N542 2.609 . S
Eu504 O548 2.558 . S
Eu504 O549 2.612 . S
Eu504 O551 2.339 . S
Eu504 O552 2.563 . S
Eu504 O553 2.419 . S
Eu504 O555 2.380 . S
Eu504 O556 2.432 . S
Eu504 C568 2.848 . S
C505 C508 1.429 . S
C505 C509 1.411 . S
C505 N512 1.377 . S
C506 C508 1.420 . S
C506 C510 1.423 . S
C506 C518 1.392 . S
C507 C509 1.420 . S
C507 C510 1.351 . S
C507 H530 0.931 . S
C508 C505 1.429 . S
C508 C506 1.420 . S
C508 N516 1.362 . S
C509 C505 1.411 . S
C509 C507 1.420 . S
C509 C514 1.395 . S
C510 C506 1.423 . S
C510 C507 1.351 . S
C510 H522 0.930 . S
C511 C513 1.400 . S
C511 C514 1.386 . S
C511 H523 0.930 . S
N512 C505 1.377 . S
N512 C513 1.321 . S
N512 Eu515 2.609 . S
C513 C511 1.400 . S
C513 N512 1.321 . S
C513 H520 0.930 . S
C514 C509 1.395 . S
C514 C511 1.386 . S
C514 H533 0.930 . S
Eu515 N512 2.609 . S
Eu515 N516 2.657 . S
Eu515 O549 2.380 . S
Eu515 O550 2.432 . S
Eu515 O554 2.558 . S
Eu515 O555 2.612 . S
Eu515 O557 2.339 . S
Eu515 O558 2.563 . S
Eu515 O559 2.419 . S
Eu515 C579 2.848 . S
N516 C508 1.362 . S
N516 Eu515 2.657 . S
N516 C517 1.334 . S
C517 N516 1.334 . S
C517 C519 1.413 . S
C517 H524 0.929 . S
C518 C506 1.392 . S
C518 C519 1.367 . S
C518 H526 0.930 . S
C519 C517 1.413 . S
C519 C518 1.367 . S
C519 H521 0.930 . S
H520 C513 0.930 . S
H521 C519 0.930 . S
H522 C510 0.930 . S
H523 C511 0.930 . S
H524 C517 0.929 . S
H525 C539 0.930 . S
H526 C518 0.930 . S
H527 C545 0.930 . S
H528 C536 0.929 . S
H529 C543 0.930 . S
H530 C507 0.931 . S
H531 C537 0.930 . S
H532 C570 0.930 . S
H533 C514 0.930 . S
H534 C569 0.931 . S
N535 Eu504 2.657 . S
N535 C536 1.334 . S
N535 C540 1.362 . S
C536 H528 0.929 . S
C536 N535 1.334 . S
C536 C539 1.413 . S
C537 H531 0.930 . S
C537 C538 1.392 . S
C537 C539 1.367 . S
C538 C537 1.392 . S
C538 C540 1.420 . S
C538 C570 1.423 . S
C539 H525 0.930 . S
C539 C536 1.413 . S
C539 C537 1.367 . S
C540 N535 1.362 . S
C540 C538 1.420 . S
C540 C544 1.429 . S
H541 C546 0.930 . S
N542 Eu504 2.609 . S
N542 C544 1.377 . S
N542 C545 1.321 . S
C543 H529 0.930 . S
C543 C545 1.400 . S
C543 C546 1.386 . S
C544 C540 1.429 . S
C544 N542 1.377 . S
C544 C547 1.411 . S
C545 H527 0.930 . S
C545 N542 1.321 . S
C545 C543 1.400 . S
C546 H541 0.930 . S
C546 C543 1.386 . S
C546 C547 1.395 . S
C547 C544 1.411 . S
C547 C546 1.395 . S
C547 C569 1.420 . S
O548 Eu504 2.558 . S
O548 C568 1.257 . S
O549 Eu504 2.612 . S
O549 Eu515 2.380 . S
O549 C560 1.276 . S
O550 Eu515 2.432 . S
O550 C567 1.264 . S
O551 Eu504 2.339 . S
O551 C567 1.254 . S
O552 Eu504 2.563 . S
O552 C560 1.235 . S
O553 Eu504 2.419 . S
O553 C568 1.249 . S
O554 Eu515 2.558 . S
O554 C579 1.257 . S
O555 Eu504 2.380 . S
O555 Eu515 2.612 . S
O555 C571 1.276 . S
O556 Eu504 2.432 . S
O556 C578 1.264 . S
O557 Eu515 2.339 . S
O557 C578 1.254 . S
O558 Eu515 2.563 . S
O558 C571 1.235 . S
O559 Eu515 2.419 . S
O559 C579 1.249 . S
C560 O549 1.276 . S
C560 O552 1.235 . S
C561 C563 1.393 . S
C561 C565 1.395 . S
C561 C568 1.492 . S
C562 C563 1.392 . S
C562 C564 1.386 . S
C563 C561 1.393 . S
C563 C562 1.392 . S
C563 H580 0.930 . S
C564 C562 1.386 . S
C564 C566 1.395 . S
C564 H581 0.930 . S
C565 C561 1.395 . S
C565 C566 1.379 . S
C565 H582 0.930 . S
C566 C564 1.395 . S
C566 C565 1.379 . S
C566 H583 0.930 . S
C567 O550 1.264 . S
C567 O551 1.254 . S
C568 Eu504 2.848 . S
C568 O548 1.257 . S
C568 O553 1.249 . S
C568 C561 1.492 . S
C569 H534 0.931 . S
C569 C547 1.420 . S
C569 C570 1.351 . S
C570 H532 0.930 . S
C570 C538 1.423 . S
C570 C569 1.351 . S
C571 O555 1.276 . S
C571 O558 1.235 . S
C572 C573 1.393 . S
C572 C576 1.395 . S
C572 C579 1.492 . S
C573 C572 1.393 . S
C573 C574 1.392 . S
C573 H584 0.930 . S
C574 C573 1.392 . S
C574 C575 1.386 . S
C575 C574 1.386 . S
C575 C577 1.395 . S
C575 H585 0.930 . S
C576 C572 1.395 . S
C576 C577 1.379 . S
C576 H586 0.930 . S
C577 C575 1.395 . S
C577 C576 1.379 . S
C577 H587 0.930 . S
C578 O556 1.264 . S
C578 O557 1.254 . S
C579 Eu515 2.848 . S
C579 O554 1.257 . S
C579 O559 1.249 . S
C579 C572 1.492 . S
H580 C563 0.930 . S
H581 C564 0.930 . S
H582 C565 0.930 . S
H583 C566 0.930 . S
H584 C573 0.930 . S
H585 C575 0.930 . S
H586 C576 0.930 . S
H587 C577 0.930 . S
Eu588 N619 2.657 . S
Eu588 N626 2.609 . S
Eu588 O632 2.558 . S
Eu588 O633 2.612 . S
Eu588 O635 2.339 . S
Eu588 O636 2.563 . S
Eu588 O637 2.419 . S
Eu588 O639 2.380 . S
Eu588 O640 2.432 . S
Eu588 C652 2.848 . S
C589 C592 1.429 . S
C589 C593 1.411 . S
C589 N596 1.377 . S
C590 C592 1.420 . S
C590 C594 1.423 . S
C590 C602 1.392 . S
C591 C593 1.420 . S
C591 C594 1.351 . S
C591 H614 0.931 . S
C592 C589 1.429 . S
C592 C590 1.420 . S
C592 N600 1.362 . S
C593 C589 1.411 . S
C593 C591 1.420 . S
C593 C598 1.395 . S
C594 C590 1.423 . S
C594 C591 1.351 . S
C594 H606 0.930 . S
C595 C597 1.400 . S
C595 C598 1.386 . S
C595 H607 0.930 . S
N596 C589 1.377 . S
N596 C597 1.321 . S
N596 Eu599 2.609 . S
C597 C595 1.400 . S
C597 N596 1.321 . S
C597 H604 0.930 . S
C598 C593 1.395 . S
C598 C595 1.386 . S
C598 H617 0.930 . S
Eu599 N596 2.609 . S
Eu599 N600 2.657 . S
Eu599 O633 2.380 . S
Eu599 O634 2.432 . S
Eu599 O638 2.558 . S
Eu599 O639 2.612 . S
Eu599 O641 2.339 . S
Eu599 O642 2.563 . S
Eu599 O643 2.419 . S
Eu599 C663 2.848 . S
N600 C592 1.362 . S
N600 Eu599 2.657 . S
N600 C601 1.334 . S
C601 N600 1.334 . S
C601 C603 1.413 . S
C601 H608 0.929 . S
C602 C590 1.392 . S
C602 C603 1.367 . S
C602 H610 0.930 . S
C603 C601 1.413 . S
C603 C602 1.367 . S
C603 H605 0.930 . S
H604 C597 0.930 . S
H605 C603 0.930 . S
H606 C594 0.930 . S
H607 C595 0.930 . S
H608 C601 0.929 . S
H609 C623 0.930 . S
H610 C602 0.930 . S
H611 C629 0.930 . S
H612 C620 0.929 . S
H613 C627 0.930 . S
H614 C591 0.931 . S
H615 C621 0.930 . S
H616 C654 0.930 . S
H617 C598 0.930 . S
H618 C653 0.931 . S
N619 Eu588 2.657 . S
N619 C620 1.334 . S
N619 C624 1.362 . S
C620 H612 0.929 . S
C620 N619 1.334 . S
C620 C623 1.413 . S
C621 H615 0.930 . S
C621 C622 1.392 . S
C621 C623 1.367 . S
C622 C621 1.392 . S
C622 C624 1.420 . S
C622 C654 1.423 . S
C623 H609 0.930 . S
C623 C620 1.413 . S
C623 C621 1.367 . S
C624 N619 1.362 . S
C624 C622 1.420 . S
C624 C628 1.429 . S
H625 C630 0.930 . S
N626 Eu588 2.609 . S
N626 C628 1.377 . S
N626 C629 1.321 . S
C627 H613 0.930 . S
C627 C629 1.400 . S
C627 C630 1.386 . S
C628 C624 1.429 . S
C628 N626 1.377 . S
C628 C631 1.411 . S
C629 H611 0.930 . S
C629 N626 1.321 . S
C629 C627 1.400 . S
C630 H625 0.930 . S
C630 C627 1.386 . S
C630 C631 1.395 . S
C631 C628 1.411 . S
C631 C630 1.395 . S
C631 C653 1.420 . S
O632 Eu588 2.558 . S
O632 C652 1.257 . S
O633 Eu588 2.612 . S
O633 Eu599 2.380 . S
O633 C644 1.276 . S
O634 Eu599 2.432 . S
O634 C651 1.264 . S
O635 Eu588 2.339 . S
O635 C651 1.254 . S
O636 Eu588 2.563 . S
O636 C644 1.235 . S
O637 Eu588 2.419 . S
O637 C652 1.249 . S
O638 Eu599 2.558 . S
O638 C663 1.257 . S
O639 Eu588 2.380 . S
O639 Eu599 2.612 . S
O639 C655 1.276 . S
O640 Eu588 2.432 . S
O640 C662 1.264 . S
O641 Eu599 2.339 . S
O641 C662 1.254 . S
O642 Eu599 2.563 . S
O642 C655 1.235 . S
O643 Eu599 2.419 . S
O643 C663 1.249 . S
C644 O633 1.276 . S
C644 O636 1.235 . S
C645 C647 1.393 . S
C645 C649 1.395 . S
C645 C652 1.492 . S
C646 C647 1.392 . S
C646 C648 1.386 . S
C647 C645 1.393 . S
C647 C646 1.392 . S
C647 H664 0.930 . S
C648 C646 1.386 . S
C648 C650 1.395 . S
C648 H665 0.930 . S
C649 C645 1.395 . S
C649 C650 1.379 . S
C649 H666 0.930 . S
C650 C648 1.395 . S
C650 C649 1.379 . S
C650 H667 0.930 . S
C651 O634 1.264 . S
C651 O635 1.254 . S
C652 Eu588 2.848 . S
C652 O632 1.257 . S
C652 O637 1.249 . S
C652 C645 1.492 . S
C653 H618 0.931 . S
C653 C631 1.420 . S
C653 C654 1.351 . S
C654 H616 0.930 . S
C654 C622 1.423 . S
C654 C653 1.351 . S
C655 O639 1.276 . S
C655 O642 1.235 . S
C656 C657 1.393 . S
C656 C660 1.395 . S
C656 C663 1.492 . S
C657 C656 1.393 . S
C657 C658 1.392 . S
C657 H668 0.930 . S
C658 C657 1.392 . S
C658 C659 1.386 . S
C659 C658 1.386 . S
C659 C661 1.395 . S
C659 H669 0.930 . S
C660 C656 1.395 . S
C660 C661 1.379 . S
C660 H670 0.930 . S
C661 C659 1.395 . S
C661 C660 1.379 . S
C661 H671 0.930 . S
C662 O640 1.264 . S
C662 O641 1.254 . S
C663 Eu599 2.848 . S
C663 O638 1.257 . S
C663 O643 1.249 . S
C663 C656 1.492 . S
H664 C647 0.930 . S
H665 C648 0.930 . S
H666 C649 0.930 . S
H667 C650 0.930 . S
H668 C657 0.930 . S
H669 C659 0.930 . S
H670 C660 0.930 . S
H671 C661 0.930 . S
Fe672 O673 1.886 1_455 S
Fe672 O676 1.715 . S
Fe672 O681 2.077 1_455 S
Fe672 O686 1.935 . S
Fe672 O692 2.077 1_455 S
Fe672 O701 1.935 . S
O673 Fe672 1.886 1_655 S
O673 Fe675 1.715 1_545 S
Fe674 O676 1.886 . S
Fe674 O677 1.715 1_545 S
Fe674 O684 1.935 1_545 S
Fe674 O685 2.077 . S
Fe674 O691 1.935 1_545 S
Fe674 O700 2.077 . S
Fe675 O673 1.715 1_565 S
Fe675 O678 1.886 . S
Fe675 O682 1.935 1_565 S
Fe675 O687 2.077 . S
Fe675 O693 1.935 1_565 S
Fe675 O697 2.077 . S
O676 Fe672 1.715 . S
O676 Fe674 1.886 . S
O677 Fe674 1.715 1_565 S
O677 Fe679 1.886 1_455 S
O678 Fe675 1.886 . S
O678 Fe679 1.715 . S
Fe679 O677 1.886 1_655 S
Fe679 O678 1.715 . S
Fe679 O683 2.077 1_655 S
Fe679 O688 1.935 . S
Fe679 O690 2.077 1_655 S
Fe679 O698 1.935 . S
C680 O692 1.381 . S
C680 O693 1.421 . S
O681 Fe672 2.077 1_655 S
O681 C694 1.381 . S
O682 Fe675 1.935 1_545 S
O682 C694 1.421 . S
O683 Fe679 2.077 1_455 S
O683 C699 1.381 . S
O684 Fe674 1.935 1_565 S
O684 C699 1.421 . S
O685 Fe674 2.077 . S
O685 C689 1.381 . S
O686 Fe672 1.935 . S
O686 C689 1.421 . S
O687 Fe675 2.077 . S
O687 C695 1.381 . S
O688 Fe679 1.935 . S
O688 C695 1.421 . S
C689 O685 1.381 . S
C689 O686 1.421 . S
O690 Fe679 2.077 1_455 S
O690 C702 1.381 . S
O691 Fe674 1.935 1_565 S
O691 C702 1.421 . S
O692 Fe672 2.077 1_655 S
O692 C680 1.381 . S
O693 Fe675 1.935 1_545 S
O693 C680 1.421 . S
C694 O681 1.381 . S
C694 O682 1.421 . S
C695 O687 1.381 . S
C695 O688 1.421 . S
C696 O697 1.381 . S
C696 O698 1.421 . S
O697 Fe675 2.077 . S
O697 C696 1.381 . S
O698 Fe679 1.935 . S
O698 C696 1.421 . S
C699 O683 1.381 . S
C699 O684 1.421 . S
O700 Fe674 2.077 . S
O700 C703 1.381 . S
O701 Fe672 1.935 . S
O701 C703 1.421 . S
C702 O690 1.381 . S
C702 O691 1.421 . S
C703 O700 1.381 . S
C703 O701 1.421 . S
Fe704 O705 1.886 . S
Fe704 O708 1.714 . S
Fe704 O713 2.077 1_554 S
Fe704 O718 1.935 1_554 S
Fe704 O724 2.077 . S
Fe704 O733 1.935 . S
O705 Fe704 1.886 . S
O705 Fe707 1.715 1_565 S
Fe706 O708 1.887 1_556 S
Fe706 O709 1.715 1_565 S
Fe706 O716 1.935 1_565 S
Fe706 O717 2.077 . S
Fe706 O723 1.935 1_566 S
Fe706 O732 2.077 1_556 S
Fe707 O705 1.715 1_545 S
Fe707 O710 1.886 1_554 S
Fe707 O714 1.935 1_544 S
Fe707 O719 2.077 1_554 S
Fe707 O725 1.935 1_545 S
Fe707 O729 2.077 . S
O708 Fe704 1.714 . S
O708 Fe706 1.887 1_554 S
O709 Fe706 1.715 1_545 S
O709 Fe711 1.886 . S
O710 Fe707 1.886 1_556 S
O710 Fe711 1.715 . S
Fe711 O709 1.886 . S
Fe711 O710 1.715 . S
Fe711 O715 2.077 . S
Fe711 O720 1.935 . S
Fe711 O722 2.077 1_556 S
Fe711 O730 1.935 1_556 S
C712 O724 1.381 . S
C712 O725 1.421 . S
O713 Fe704 2.077 1_556 S
O713 C726 1.381 . S
O714 Fe707 1.935 1_566 S
O714 C726 1.421 . S
O715 Fe711 2.077 . S
O715 C731 1.381 . S
O716 Fe706 1.935 1_545 S
O716 C731 1.421 . S
O717 Fe706 2.077 . S
O717 C721 1.381 . S
O718 Fe704 1.935 1_556 S
O718 C721 1.421 . S
O719 Fe707 2.077 1_556 S
O719 C727 1.381 . S
O720 Fe711 1.935 . S
O720 C727 1.421 . S
C721 O717 1.381 . S
C721 O718 1.421 . S
O722 Fe711 2.077 1_554 S
O722 C734 1.381 . S
O723 Fe706 1.935 1_544 S
O723 C734 1.421 . S
O724 Fe704 2.077 . S
O724 C712 1.381 . S
O725 Fe707 1.935 1_565 S
O725 C712 1.421 . S
C726 O713 1.381 . S
C726 O714 1.421 . S
C727 O719 1.381 . S
C727 O720 1.421 . S
C728 O729 1.381 . S
C728 O730 1.421 . S
O729 Fe707 2.077 . S
O729 C728 1.381 . S
O730 Fe711 1.935 1_554 S
O730 C728 1.421 . S
C731 O715 1.381 . S
C731 O716 1.421 . S
O732 Fe706 2.077 1_554 S
O732 C735 1.381 . S
O733 Fe704 1.935 . S
O733 C735 1.421 . S
C734 O722 1.381 . S
C734 O723 1.421 . S
C735 O732 1.381 . S
C735 O733 1.421 . S
Fe736 O737 1.886 1_455 S
Fe736 O740 1.715 . S
Fe736 O745 2.077 1_455 S
Fe736 O750 1.935 . S
Fe736 O756 2.077 1_456 S
Fe736 O765 1.935 1_556 S
O737 Fe736 1.886 1_655 S
O737 Fe739 1.715 . S
Fe738 O740 1.886 1_554 S
Fe738 O741 1.715 . S
Fe738 O748 1.935 1_554 S
Fe738 O749 2.077 1_554 S
Fe738 O755 1.935 . S
Fe738 O764 2.077 . S
Fe739 O737 1.715 . S
Fe739 O742 1.886 1_556 S
Fe739 O746 1.935 . S
Fe739 O751 2.077 . S
Fe739 O757 1.935 1_556 S
Fe739 O761 2.077 1_556 S
O740 Fe736 1.715 . S
O740 Fe738 1.886 1_556 S
O741 Fe738 1.715 . S
O741 Fe743 1.886 1_455 S
O742 Fe739 1.886 1_554 S
O742 Fe743 1.714 . S
Fe743 O741 1.886 1_655 S
Fe743 O742 1.714 . S
Fe743 O747 2.077 1_654 S
Fe743 O752 1.935 1_554 S
Fe743 O754 2.077 1_655 S
Fe743 O762 1.935 . S
C744 O756 1.381 . S
C744 O757 1.421 . S
O745 Fe736 2.077 1_655 S
O745 C758 1.381 . S
O746 Fe739 1.935 . S
O746 C758 1.421 . S
O747 Fe743 2.077 1_456 S
O747 C763 1.381 . S
O748 Fe738 1.935 1_556 S
O748 C763 1.421 . S
O749 Fe738 2.077 1_556 S
O749 C753 1.381 . S
O750 Fe736 1.935 . S
O750 C753 1.421 . S
O751 Fe739 2.077 . S
O751 C759 1.381 . S
O752 Fe743 1.935 1_556 S
O752 C759 1.421 . S
C753 O749 1.381 . S
C753 O750 1.421 . S
O754 Fe743 2.077 1_455 S
O754 C766 1.381 . S
O755 Fe738 1.935 . S
O755 C766 1.421 . S
O756 Fe736 2.077 1_654 S
O756 C744 1.381 . S
O757 Fe739 1.935 1_554 S
O757 C744 1.421 . S
C758 O745 1.381 . S
C758 O746 1.421 . S
C759 O751 1.381 . S
C759 O752 1.421 . S
C760 O761 1.381 . S
C760 O762 1.421 . S
O761 Fe739 2.077 1_554 S
O761 C760 1.381 . S
O762 Fe743 1.935 . S
O762 C760 1.421 . S
C763 O747 1.381 . S
C763 O748 1.421 . S
O764 Fe738 2.077 . S
O764 C767 1.381 . S
O765 Fe736 1.935 1_554 S
O765 C767 1.421 . S
C766 O754 1.381 . S
C766 O755 1.421 . S
C767 O764 1.381 . S
C767 O765 1.421 . S
Fe768 O769 1.886 . S
Fe768 O772 1.715 . S
Fe768 O777 2.077 . S
Fe768 O782 1.935 . S
Fe768 O788 2.077 . S
Fe768 O797 1.935 . S
O769 Fe768 1.886 . S
O769 Fe771 1.715 1_556 S
Fe770 O772 1.886 . S
Fe770 O773 1.715 1_556 S
Fe770 O780 1.935 1_556 S
Fe770 O781 2.077 . S
Fe770 O787 1.935 1_556 S
Fe770 O796 2.077 . S
Fe771 O769 1.715 1_554 S
Fe771 O774 1.886 . S
Fe771 O778 1.935 1_554 S
Fe771 O783 2.077 . S
Fe771 O789 1.935 1_554 S
Fe771 O793 2.077 . S
O772 Fe768 1.715 . S
O772 Fe770 1.886 . S
O773 Fe770 1.715 1_554 S
O773 Fe775 1.886 . S
O774 Fe771 1.886 . S
O774 Fe775 1.715 . S
Fe775 O773 1.886 . S
Fe775 O774 1.715 . S
Fe775 O779 2.077 . S
Fe775 O784 1.935 . S
Fe775 O786 2.077 . S
Fe775 O794 1.935 . S
C776 O788 1.381 . S
C776 O789 1.421 . S
O777 Fe768 2.077 . S
O777 C790 1.381 . S
O778 Fe771 1.935 1_556 S
O778 C790 1.421 . S
O779 Fe775 2.077 . S
O779 C795 1.381 . S
O780 Fe770 1.935 1_554 S
O780 C795 1.421 . S
O781 Fe770 2.077 . S
O781 C785 1.381 . S
O782 Fe768 1.935 . S
O782 C785 1.421 . S
O783 Fe771 2.077 . S
O783 C791 1.381 . S
O784 Fe775 1.935 . S
O784 C791 1.421 . S
C785 O781 1.381 . S
C785 O782 1.421 . S
O786 Fe775 2.077 . S
O786 C798 1.381 . S
O787 Fe770 1.935 1_554 S
O787 C798 1.421 . S
O788 Fe768 2.077 . S
O788 C776 1.381 . S
O789 Fe771 1.935 1_556 S
O789 C776 1.421 . S
C790 O777 1.381 . S
C790 O778 1.421 . S
C791 O783 1.381 . S
C791 O784 1.421 . S
C792 O793 1.381 . S
C792 O794 1.421 . S
O793 Fe771 2.077 . S
O793 C792 1.381 . S
O794 Fe775 1.935 . S
O794 C792 1.421 . S
C795 O779 1.381 . S
C795 O780 1.421 . S
O796 Fe770 2.077 . S
O796 C799 1.381 . S
O797 Fe768 1.935 . S
O797 C799 1.421 . S
C798 O786 1.381 . S
C798 O787 1.421 . S
C799 O796 1.381 . S
C799 O797 1.421 . S
Fe800 O801 1.886 . S
Fe800 O804 1.715 . S
Fe800 O809 2.077 1_655 S
Fe800 O814 1.935 1_655 S
Fe800 O820 2.077 . S
Fe800 O829 1.935 . S
O801 Fe800 1.886 . S
O801 Fe803 1.715 1_655 S
Fe802 O804 1.886 . S
Fe802 O805 1.715 1_655 S
Fe802 O812 1.935 1_655 S
Fe802 O813 2.077 1_655 S
Fe802 O819 1.935 . S
Fe802 O828 2.077 . S
Fe803 O801 1.715 1_455 S
Fe803 O806 1.886 . S
Fe803 O810 1.935 . S
Fe803 O815 2.077 . S
Fe803 O821 1.935 1_455 S
Fe803 O825 2.077 1_455 S
O804 Fe800 1.715 . S
O804 Fe802 1.886 . S
O805 Fe802 1.715 1_455 S
O805 Fe807 1.886 . S
O806 Fe803 1.886 . S
O806 Fe807 1.715 . S
Fe807 O805 1.886 . S
Fe807 O806 1.715 . S
Fe807 O811 2.077 . S
Fe807 O816 1.935 . S
Fe807 O818 2.077 1_455 S
Fe807 O826 1.935 1_455 S
C808 O820 1.381 . S
C808 O821 1.421 . S
O809 Fe800 2.077 1_455 S
O809 C822 1.381 . S
O810 Fe803 1.935 . S
O810 C822 1.421 . S
O811 Fe807 2.077 . S
O811 C827 1.381 . S
O812 Fe802 1.935 1_455 S
O812 C827 1.421 . S
O813 Fe802 2.077 1_455 S
O813 C817 1.381 . S
O814 Fe800 1.935 1_455 S
O814 C817 1.421 . S
O815 Fe803 2.077 . S
O815 C823 1.381 . S
O816 Fe807 1.935 . S
O816 C823 1.421 . S
C817 O813 1.381 . S
C817 O814 1.421 . S
O818 Fe807 2.077 1_655 S
O818 C830 1.381 . S
O819 Fe802 1.935 . S
O819 C830 1.421 . S
O820 Fe800 2.077 . S
O820 C808 1.381 . S
O821 Fe803 1.935 1_655 S
O821 C808 1.421 . S
C822 O809 1.381 . S
C822 O810 1.421 . S
C823 O815 1.381 . S
C823 O816 1.421 . S
C824 O825 1.381 . S
C824 O826 1.421 . S
O825 Fe803 2.077 1_655 S
O825 C824 1.381 . S
O826 Fe807 1.935 1_655 S
O826 C824 1.421 . S
C827 O811 1.381 . S
C827 O812 1.421 . S
O828 Fe802 2.077 . S
O828 C831 1.381 . S
O829 Fe800 1.935 . S
O829 C831 1.421 . S
C830 O818 1.381 . S
C830 O819 1.421 . S
C831 O828 1.381 . S
C831 O829 1.421 . S
Fe832 O833 1.886 . S
Fe832 O836 1.715 . S
Fe832 O841 2.077 . S
Fe832 O846 1.935 . S
Fe832 O852 2.077 . S
Fe832 O861 1.935 . S
O833 Fe832 1.886 . S
O833 Fe835 1.715 . S
Fe834 O836 1.886 1_545 S
Fe834 O837 1.715 . S
Fe834 O844 1.935 . S
Fe834 O845 2.077 1_545 S
Fe834 O851 1.935 . S
Fe834 O860 2.077 1_545 S
Fe835 O833 1.715 . S
Fe835 O838 1.886 1_565 S
Fe835 O842 1.935 . S
Fe835 O847 2.077 1_565 S
Fe835 O853 1.935 . S
Fe835 O857 2.077 1_565 S
O836 Fe832 1.715 . S
O836 Fe834 1.886 1_565 S
O837 Fe834 1.715 . S
O837 Fe839 1.886 . S
O838 Fe835 1.886 1_545 S
O838 Fe839 1.715 . S
Fe839 O837 1.886 . S
Fe839 O838 1.715 . S
Fe839 O843 2.077 . S
Fe839 O848 1.935 . S
Fe839 O850 2.077 . S
Fe839 O858 1.935 . S
C840 O852 1.381 . S
C840 O853 1.421 . S
O841 Fe832 2.077 . S
O841 C854 1.381 . S
O842 Fe835 1.935 . S
O842 C854 1.421 . S
O843 Fe839 2.077 . S
O843 C859 1.381 . S
O844 Fe834 1.935 . S
O844 C859 1.421 . S
O845 Fe834 2.077 1_565 S
O845 C849 1.381 . S
O846 Fe832 1.935 . S
O846 C849 1.421 . S
O847 Fe835 2.077 1_545 S
O847 C855 1.381 . S
O848 Fe839 1.935 . S
O848 C855 1.421 . S
C849 O845 1.381 . S
C849 O846 1.421 . S
O850 Fe839 2.077 . S
O850 C862 1.381 . S
O851 Fe834 1.935 . S
O851 C862 1.421 . S
O852 Fe832 2.077 . S
O852 C840 1.381 . S
O853 Fe835 1.935 . S
O853 C840 1.421 . S
C854 O841 1.381 . S
C854 O842 1.421 . S
C855 O847 1.381 . S
C855 O848 1.421 . S
C856 O857 1.381 . S
C856 O858 1.421 . S
O857 Fe835 2.077 1_545 S
O857 C856 1.381 . S
O858 Fe839 1.935 . S
O858 C856 1.421 . S
C859 O843 1.381 . S
C859 O844 1.421 . S
O860 Fe834 2.077 1_565 S
O860 C863 1.381 . S
O861 Fe832 1.935 . S
O861 C863 1.421 . S
C862 O850 1.381 . S
C862 O851 1.421 . S
C863 O860 1.381 . S
C863 O861 1.421 . S
H864 C876 0.930 . S
H865 C878 0.930 . S
H866 C879 0.930 . S
H867 C883 0.959 . S
H868 C883 0.959 . S
H869 C883 0.961 . S
H870 C884 0.960 . S
H871 C884 0.961 . S
H872 C884 0.959 . S
H873 C887 0.929 . S
H874 C888 0.931 . S
H875 C890 0.930 . S
C876 H864 0.930 . S
C876 C877 1.399 . S
C876 C881 1.399 . S
C877 C876 1.399 . S
C877 C878 1.376 . S
C878 H865 0.930 . S
C878 C877 1.376 . S
C878 C879 1.388 . S
C879 H866 0.930 . S
C879 C878 1.388 . S
C879 C880 1.390 . S
C880 C879 1.390 . S
C880 C881 1.394 . S
C880 C886 1.465 . S
C881 C876 1.399 . S
C881 C880 1.394 . S
C881 C882 1.516 . S
C882 C881 1.516 . S
C882 C883 1.502 . S
C882 C884 1.561 . S
C882 C885 1.526 . S
C883 H867 0.959 . S
C883 H868 0.959 . S
C883 H869 0.961 . S
C883 C882 1.502 . S
C884 H870 0.960 . S
C884 H871 0.961 . S
C884 H872 0.959 . S
C884 C882 1.561 . S
C885 C882 1.526 . S
C885 C886 1.396 . S
C885 C890 1.390 . S
C886 C880 1.465 . S
C886 C885 1.396 . S
C886 C887 1.399 . S
C887 H873 0.929 . S
C887 C886 1.399 . S
C887 C888 1.385 . S
C888 H874 0.931 . S
C888 C887 1.385 . S
C888 C889 1.389 . S
C889 C888 1.389 . S
C889 C890 1.387 . S
C890 H875 0.930 . S
C890 C885 1.390 . S
C890 C889 1.387 . S
H891 C903 0.930 . S
H892 C905 0.930 . S
H893 C906 0.930 . S
H894 C910 0.959 . S
H895 C910 0.959 . S
H896 C910 0.961 . S
H897 C911 0.960 . S
H898 C911 0.961 . S
H899 C911 0.959 . S
H900 C914 0.929 . S
H901 C915 0.931 . S
H902 C917 0.930 . S
C903 H891 0.930 . S
C903 C904 1.399 . S
C903 C908 1.399 . S
C904 C903 1.399 . S
C904 C905 1.376 . S
C905 H892 0.930 . S
C905 C904 1.376 . S
C905 C906 1.388 . S
C906 H893 0.930 . S
C906 C905 1.388 . S
C906 C907 1.390 . S
C907 C906 1.390 . S
C907 C908 1.394 . S
C907 C913 1.465 . S
C908 C903 1.399 . S
C908 C907 1.394 . S
C908 C909 1.516 . S
C909 C908 1.516 . S
C909 C910 1.502 . S
C909 C911 1.561 . S
C909 C912 1.526 . S
C910 H894 0.959 . S
C910 H895 0.959 . S
C910 H896 0.961 . S
C910 C909 1.502 . S
C911 H897 0.960 . S
C911 H898 0.961 . S
C911 H899 0.959 . S
C911 C909 1.561 . S
C912 C909 1.526 . S
C912 C913 1.396 . S
C912 C917 1.390 . S
C913 C907 1.465 . S
C913 C912 1.396 . S
C913 C914 1.399 . S
C914 H900 0.929 . S
C914 C913 1.399 . S
C914 C915 1.385 . S
C915 H901 0.931 . S
C915 C914 1.385 . S
C915 C916 1.389 . S
C916 C915 1.389 . S
C916 C917 1.387 . S
C917 H902 0.930 . S
C917 C912 1.390 . S
C917 C916 1.387 . S
H918 C930 0.930 . S
H919 C932 0.930 . S
H920 C933 0.930 . S
H921 C937 0.959 . S
H922 C937 0.959 . S
H923 C937 0.961 . S
H924 C938 0.960 . S
H925 C938 0.961 . S
H926 C938 0.959 . S
H927 C941 0.929 . S
H928 C942 0.931 . S
H929 C944 0.930 . S
C930 H918 0.930 . S
C930 C931 1.399 . S
C930 C935 1.399 . S
C931 C930 1.399 . S
C931 C932 1.376 . S
C932 H919 0.930 . S
C932 C931 1.376 . S
C932 C933 1.388 . S
C933 H920 0.930 . S
C933 C932 1.388 . S
C933 C934 1.390 . S
C934 C933 1.390 . S
C934 C935 1.394 . S
C934 C940 1.465 . S
C935 C930 1.399 . S
C935 C934 1.394 . S
C935 C936 1.516 . S
C936 C935 1.516 . S
C936 C937 1.502 . S
C936 C938 1.561 . S
C936 C939 1.526 . S
C937 H921 0.959 . S
C937 H922 0.959 . S
C937 H923 0.961 . S
C937 C936 1.502 . S
C938 H924 0.960 . S
C938 H925 0.961 . S
C938 H926 0.959 . S
C938 C936 1.561 . S
C939 C936 1.526 . S
C939 C940 1.396 . S
C939 C944 1.390 . S
C940 C934 1.465 . S
C940 C939 1.396 . S
C940 C941 1.399 . S
C941 H927 0.929 . S
C941 C940 1.399 . S
C941 C942 1.385 . S
C942 H928 0.931 . S
C942 C941 1.385 . S
C942 C943 1.389 . S
C943 C942 1.389 . S
C943 C944 1.387 . S
C944 H929 0.930 . S
C944 C939 1.390 . S
C944 C943 1.387 . S
H945 C957 0.930 . S
H946 C959 0.930 . S
H947 C960 0.930 . S
H948 C964 0.959 . S
H949 C964 0.959 . S
H950 C964 0.961 . S
H951 C965 0.960 . S
H952 C965 0.961 . S
H953 C965 0.959 . S
H954 C968 0.929 . S
H955 C969 0.931 . S
H956 C971 0.930 . S
C957 H945 0.930 . S
C957 C958 1.399 . S
C957 C962 1.399 . S
C958 C957 1.399 . S
C958 C959 1.376 . S
C959 H946 0.930 . S
C959 C958 1.376 . S
C959 C960 1.388 . S
C960 H947 0.930 . S
C960 C959 1.388 . S
C960 C961 1.390 . S
C961 C960 1.390 . S
C961 C962 1.394 . S
C961 C967 1.465 . S
C962 C957 1.399 . S
C962 C961 1.394 . S
C962 C963 1.516 . S
C963 C962 1.516 . S
C963 C964 1.502 . S
C963 C965 1.561 . S
C963 C966 1.526 . S
C964 H948 0.959 . S
C964 H949 0.959 . S
C964 H950 0.961 . S
C964 C963 1.502 . S
C965 H951 0.960 . S
C965 H952 0.961 . S
C965 H953 0.959 . S
C965 C963 1.561 . S
C966 C963 1.526 . S
C966 C967 1.396 . S
C966 C971 1.390 . S
C967 C961 1.465 . S
C967 C966 1.396 . S
C967 C968 1.399 . S
C968 H954 0.929 . S
C968 C967 1.399 . S
C968 C969 1.385 . S
C969 H955 0.931 . S
C969 C968 1.385 . S
C969 C970 1.389 . S
C970 C969 1.389 . S
C970 C971 1.387 . S
C971 H956 0.930 . S
C971 C966 1.390 . S
C971 C970 1.387 . S
H972 C984 0.930 . S
H973 C986 0.930 . S
H974 C987 0.930 . S
H975 C991 0.959 . S
H976 C991 0.959 . S
H977 C991 0.961 . S
H978 C992 0.960 . S
H979 C992 0.961 . S
H980 C992 0.959 . S
H981 C995 0.929 . S
H982 C996 0.931 . S
H983 C998 0.930 . S
C984 H972 0.930 . S
C984 C985 1.399 . S
C984 C989 1.399 . S
C985 C984 1.399 . S
C985 C986 1.376 . S
C986 H973 0.930 . S
C986 C985 1.376 . S
C986 C987 1.388 . S
C987 H974 0.930 . S
C987 C986 1.388 . S
C987 C988 1.390 . S
C988 C987 1.390 . S
C988 C989 1.394 . S
C988 C994 1.465 . S
C989 C984 1.399 . S
C989 C988 1.394 . S
C989 C990 1.516 . S
C990 C989 1.516 . S
C990 C991 1.502 . S
C990 C992 1.561 . S
C990 C993 1.526 . S
C991 H975 0.959 . S
C991 H976 0.959 . S
C991 H977 0.961 . S
C991 C990 1.502 . S
C992 H978 0.960 . S
C992 H979 0.961 . S
C992 H980 0.959 . S
C992 C990 1.561 . S
C993 C990 1.526 . S
C993 C994 1.396 . S
C993 C998 1.390 . S
C994 C988 1.465 . S
C994 C993 1.396 . S
C994 C995 1.399 . S
C995 H981 0.929 . S
C995 C994 1.399 . S
C995 C996 1.385 . S
C996 H982 0.931 . S
C996 C995 1.385 . S
C996 C997 1.389 . S
C997 C996 1.389 . S
C997 C998 1.387 . S
C998 H983 0.930 . S
C998 C993 1.390 . S
C998 C997 1.387 . S
H999 C1011 0.930 . S
H1000 C1013 0.930 . S
H1001 C1014 0.930 . S
H1002 C1018 0.959 . S
H1003 C1018 0.959 . S
H1004 C1018 0.961 . S
H1005 C1019 0.960 . S
H1006 C1019 0.961 . S
H1007 C1019 0.959 . S
H1008 C1022 0.929 . S
H1009 C1023 0.931 . S
H1010 C1025 0.930 . S
C1011 H999 0.930 . S
C1011 C1012 1.399 . S
C1011 C1016 1.399 . S
C1012 C1011 1.399 . S
C1012 C1013 1.376 . S
C1013 H1000 0.930 . S
C1013 C1012 1.376 . S
C1013 C1014 1.388 . S
C1014 H1001 0.930 . S
C1014 C1013 1.388 . S
C1014 C1015 1.390 . S
C1015 C1014 1.390 . S
C1015 C1016 1.394 . S
C1015 C1021 1.465 . S
C1016 C1011 1.399 . S
C1016 C1015 1.394 . S
C1016 C1017 1.516 . S
C1017 C1016 1.516 . S
C1017 C1018 1.502 . S
C1017 C1019 1.561 . S
C1017 C1020 1.526 . S
C1018 H1002 0.959 . S
C1018 H1003 0.959 . S
C1018 H1004 0.961 . S
C1018 C1017 1.502 . S
C1019 H1005 0.960 . S
C1019 H1006 0.961 . S
C1019 H1007 0.959 . S
C1019 C1017 1.561 . S
C1020 C1017 1.526 . S
C1020 C1021 1.396 . S
C1020 C1025 1.390 . S
C1021 C1015 1.465 . S
C1021 C1020 1.396 . S
C1021 C1022 1.399 . S
C1022 H1008 0.929 . S
C1022 C1021 1.399 . S
C1022 C1023 1.385 . S
C1023 H1009 0.931 . S
C1023 C1022 1.385 . S
C1023 C1024 1.389 . S
C1024 C1023 1.389 . S
C1024 C1025 1.387 . S
C1025 H1010 0.930 . S
C1025 C1020 1.390 . S
C1025 C1024 1.387 . S
H1026 C1038 0.930 . S
H1027 C1040 0.930 . S
H1028 C1041 0.930 . S
H1029 C1045 0.959 . S
H1030 C1045 0.959 . S
H1031 C1045 0.961 . S
H1032 C1046 0.960 . S
H1033 C1046 0.961 . S
H1034 C1046 0.959 . S
H1035 C1049 0.929 . S
H1036 C1050 0.931 . S
H1037 C1052 0.930 . S
C1038 H1026 0.930 . S
C1038 C1039 1.399 . S
C1038 C1043 1.399 . S
C1039 C1038 1.399 . S
C1039 C1040 1.376 . S
C1040 H1027 0.930 . S
C1040 C1039 1.376 . S
C1040 C1041 1.388 . S
C1041 H1028 0.930 . S
C1041 C1040 1.388 . S
C1041 C1042 1.390 . S
C1042 C1041 1.390 . S
C1042 C1043 1.394 . S
C1042 C1048 1.465 . S
C1043 C1038 1.399 . S
C1043 C1042 1.394 . S
C1043 C1044 1.516 . S
C1044 C1043 1.516 . S
C1044 C1045 1.502 . S
C1044 C1046 1.561 . S
C1044 C1047 1.526 . S
C1045 H1029 0.959 . S
C1045 H1030 0.959 . S
C1045 H1031 0.961 . S
C1045 C1044 1.502 . S
C1046 H1032 0.960 . S
C1046 H1033 0.961 . S
C1046 H1034 0.959 . S
C1046 C1044 1.561 . S
C1047 C1044 1.526 . S
C1047 C1048 1.396 . S
C1047 C1052 1.390 . S
C1048 C1042 1.465 . S
C1048 C1047 1.396 . S
C1048 C1049 1.399 . S
C1049 H1035 0.929 . S
C1049 C1048 1.399 . S
C1049 C1050 1.385 . S
C1050 H1036 0.931 . S
C1050 C1049 1.385 . S
C1050 C1051 1.389 . S
C1051 C1050 1.389 . S
C1051 C1052 1.387 . S
C1052 H1037 0.930 . S
C1052 C1047 1.390 . S
C1052 C1051 1.387 . S
H1053 C1065 0.930 . S
H1054 C1067 0.930 . S
H1055 C1068 0.930 . S
H1056 C1072 0.959 . S
H1057 C1072 0.959 . S
H1058 C1072 0.961 . S
H1059 C1073 0.960 . S
H1060 C1073 0.961 . S
H1061 C1073 0.959 . S
H1062 C1076 0.929 . S
H1063 C1077 0.931 . S
H1064 C1079 0.930 . S
C1065 H1053 0.930 . S
C1065 C1066 1.399 . S
C1065 C1070 1.399 . S
C1066 C1065 1.399 . S
C1066 C1067 1.376 . S
C1067 H1054 0.930 . S
C1067 C1066 1.376 . S
C1067 C1068 1.388 . S
C1068 H1055 0.930 . S
C1068 C1067 1.388 . S
C1068 C1069 1.390 . S
C1069 C1068 1.390 . S
C1069 C1070 1.394 . S
C1069 C1075 1.465 . S
C1070 C1065 1.399 . S
C1070 C1069 1.394 . S
C1070 C1071 1.516 . S
C1071 C1070 1.516 . S
C1071 C1072 1.502 . S
C1071 C1073 1.561 . S
C1071 C1074 1.526 . S
C1072 H1056 0.959 . S
C1072 H1057 0.959 . S
C1072 H1058 0.961 . S
C1072 C1071 1.502 . S
C1073 H1059 0.960 . S
C1073 H1060 0.961 . S
C1073 H1061 0.959 . S
C1073 C1071 1.561 . S
C1074 C1071 1.526 . S
C1074 C1075 1.396 . S
C1074 C1079 1.390 . S
C1075 C1069 1.465 . S
C1075 C1074 1.396 . S
C1075 C1076 1.399 . S
C1076 H1062 0.929 . S
C1076 C1075 1.399 . S
C1076 C1077 1.385 . S
C1077 H1063 0.931 . S
C1077 C1076 1.385 . S
C1077 C1078 1.389 . S
C1078 C1077 1.389 . S
C1078 C1079 1.387 . S
C1079 H1064 0.930 . S
C1079 C1074 1.390 . S
C1079 C1078 1.387 . S
H1080 C1092 0.930 . S
H1081 C1094 0.930 . S
H1082 C1095 0.930 . S
H1083 C1099 0.959 . S
H1084 C1099 0.959 . S
H1085 C1099 0.961 . S
H1086 C1100 0.960 . S
H1087 C1100 0.961 . S
H1088 C1100 0.959 . S
H1089 C1103 0.929 . S
H1090 C1104 0.931 . S
H1091 C1106 0.930 . S
C1092 H1080 0.930 . S
C1092 C1093 1.399 . S
C1092 C1097 1.399 . S
C1093 C1092 1.399 . S
C1093 C1094 1.376 . S
C1094 H1081 0.930 . S
C1094 C1093 1.376 . S
C1094 C1095 1.388 . S
C1095 H1082 0.930 . S
C1095 C1094 1.388 . S
C1095 C1096 1.390 . S
C1096 C1095 1.390 . S
C1096 C1097 1.394 . S
C1096 C1102 1.465 . S
C1097 C1092 1.399 . S
C1097 C1096 1.394 . S
C1097 C1098 1.516 . S
C1098 C1097 1.516 . S
C1098 C1099 1.502 . S
C1098 C1100 1.561 . S
C1098 C1101 1.526 . S
C1099 H1083 0.959 . S
C1099 H1084 0.959 . S
C1099 H1085 0.961 . S
C1099 C1098 1.502 . S
C1100 H1086 0.960 . S
C1100 H1087 0.961 . S
C1100 H1088 0.959 . S
C1100 C1098 1.561 . S
C1101 C1098 1.526 . S
C1101 C1102 1.396 . S
C1101 C1106 1.390 . S
C1102 C1096 1.465 . S
C1102 C1101 1.396 . S
C1102 C1103 1.399 . S
C1103 H1089 0.929 . S
C1103 C1102 1.399 . S
C1103 C1104 1.385 . S
C1104 H1090 0.931 . S
C1104 C1103 1.385 . S
C1104 C1105 1.389 . S
C1105 C1104 1.389 . S
C1105 C1106 1.387 . S
C1106 H1091 0.930 . S
C1106 C1101 1.390 . S
C1106 C1105 1.387 . S
H1107 C1119 0.930 . S
H1108 C1121 0.930 . S
H1109 C1122 0.930 . S
H1110 C1126 0.959 . S
H1111 C1126 0.959 . S
H1112 C1126 0.961 . S
H1113 C1127 0.960 . S
H1114 C1127 0.961 . S
H1115 C1127 0.959 . S
H1116 C1130 0.929 . S
H1117 C1131 0.931 . S
H1118 C1133 0.930 . S
C1119 H1107 0.930 . S
C1119 C1120 1.399 . S
C1119 C1124 1.399 . S
C1120 C1119 1.399 . S
C1120 C1121 1.376 . S
C1121 H1108 0.930 . S
C1121 C1120 1.376 . S
C1121 C1122 1.388 . S
C1122 H1109 0.930 . S
C1122 C1121 1.388 . S
C1122 C1123 1.390 . S
C1123 C1122 1.390 . S
C1123 C1124 1.394 . S
C1123 C1129 1.465 . S
C1124 C1119 1.399 . S
C1124 C1123 1.394 . S
C1124 C1125 1.516 . S
C1125 C1124 1.516 . S
C1125 C1126 1.502 . S
C1125 C1127 1.561 . S
C1125 C1128 1.526 . S
C1126 H1110 0.959 . S
C1126 H1111 0.959 . S
C1126 H1112 0.961 . S
C1126 C1125 1.502 . S
C1127 H1113 0.960 . S
C1127 H1114 0.961 . S
C1127 H1115 0.959 . S
C1127 C1125 1.561 . S
C1128 C1125 1.526 . S
C1128 C1129 1.396 . S
C1128 C1133 1.390 . S
C1129 C1123 1.465 . S
C1129 C1128 1.396 . S
C1129 C1130 1.399 . S
C1130 H1116 0.929 . S
C1130 C1129 1.399 . S
C1130 C1131 1.385 . S
C1131 H1117 0.931 . S
C1131 C1130 1.385 . S
C1131 C1132 1.389 . S
C1132 C1131 1.389 . S
C1132 C1133 1.387 . S
C1133 H1118 0.930 . S
C1133 C1128 1.390 . S
C1133 C1132 1.387 . S
H1134 C1146 0.930 . S
H1135 C1148 0.930 . S
H1136 C1149 0.930 . S
H1137 C1153 0.959 . S
H1138 C1153 0.959 . S
H1139 C1153 0.961 . S
H1140 C1154 0.960 . S
H1141 C1154 0.961 . S
H1142 C1154 0.959 . S
H1143 C1157 0.929 . S
H1144 C1158 0.931 . S
H1145 C1160 0.930 . S
C1146 H1134 0.930 . S
C1146 C1147 1.399 . S
C1146 C1151 1.399 . S
C1147 C1146 1.399 . S
C1147 C1148 1.376 . S
C1148 H1135 0.930 . S
C1148 C1147 1.376 . S
C1148 C1149 1.388 . S
C1149 H1136 0.930 . S
C1149 C1148 1.388 . S
C1149 C1150 1.390 . S
C1150 C1149 1.390 . S
C1150 C1151 1.394 . S
C1150 C1156 1.465 . S
C1151 C1146 1.399 . S
C1151 C1150 1.394 . S
C1151 C1152 1.516 . S
C1152 C1151 1.516 . S
C1152 C1153 1.502 . S
C1152 C1154 1.561 . S
C1152 C1155 1.526 . S
C1153 H1137 0.959 . S
C1153 H1138 0.959 . S
C1153 H1139 0.961 . S
C1153 C1152 1.502 . S
C1154 H1140 0.960 . S
C1154 H1141 0.961 . S
C1154 H1142 0.959 . S
C1154 C1152 1.561 . S
C1155 C1152 1.526 . S
C1155 C1156 1.396 . S
C1155 C1160 1.390 . S
C1156 C1150 1.465 . S
C1156 C1155 1.396 . S
C1156 C1157 1.399 . S
C1157 H1143 0.929 . S
C1157 C1156 1.399 . S
C1157 C1158 1.385 . S
C1158 H1144 0.931 . S
C1158 C1157 1.385 . S
C1158 C1159 1.389 . S
C1159 C1158 1.389 . S
C1159 C1160 1.387 . S
C1160 H1145 0.930 . S
C1160 C1155 1.390 . S
C1160 C1159 1.387 . S
H1161 C1173 0.930 . S
H1162 C1175 0.930 . S
H1163 C1176 0.930 . S
H1164 C1180 0.959 . S
H1165 C1180 0.959 . S
H1166 C1180 0.961 . S
H1167 C1181 0.960 . S
H1168 C1181 0.961 . S
H1169 C1181 0.959 . S
H1170 C1184 0.929 . S
H1171 C1185 0.931 . S
H1172 C1187 0.930 . S
C1173 H1161 0.930 . S
C1173 C1174 1.399 . S
C1173 C1178 1.399 . S
C1174 C1173 1.399 . S
C1174 C1175 1.376 . S
C1175 H1162 0.930 . S
C1175 C1174 1.376 . S
C1175 C1176 1.388 . S
C1176 H1163 0.930 . S
C1176 C1175 1.388 . S
C1176 C1177 1.390 . S
C1177 C1176 1.390 . S
C1177 C1178 1.394 . S
C1177 C1183 1.465 . S
C1178 C1173 1.399 . S
C1178 C1177 1.394 . S
C1178 C1179 1.516 . S
C1179 C1178 1.516 . S
C1179 C1180 1.502 . S
C1179 C1181 1.561 . S
C1179 C1182 1.526 . S
C1180 H1164 0.959 . S
C1180 H1165 0.959 . S
C1180 H1166 0.961 . S
C1180 C1179 1.502 . S
C1181 H1167 0.960 . S
C1181 H1168 0.961 . S
C1181 H1169 0.959 . S
C1181 C1179 1.561 . S
C1182 C1179 1.526 . S
C1182 C1183 1.396 . S
C1182 C1187 1.390 . S
C1183 C1177 1.465 . S
C1183 C1182 1.396 . S
C1183 C1184 1.399 . S
C1184 H1170 0.929 . S
C1184 C1183 1.399 . S
C1184 C1185 1.385 . S
C1185 H1171 0.931 . S
C1185 C1184 1.385 . S
C1185 C1186 1.389 . S
C1186 C1185 1.389 . S
C1186 C1187 1.387 . S
C1187 H1172 0.930 . S
C1187 C1182 1.390 . S
C1187 C1186 1.387 . S
H1188 C1200 0.930 . S
H1189 C1202 0.930 . S
H1190 C1203 0.930 . S
H1191 C1207 0.959 . S
H1192 C1207 0.959 . S
H1193 C1207 0.961 . S
H1194 C1208 0.960 . S
H1195 C1208 0.961 . S
H1196 C1208 0.959 . S
H1197 C1211 0.929 . S
H1198 C1212 0.931 . S
H1199 C1214 0.930 . S
C1200 H1188 0.930 . S
C1200 C1201 1.399 . S
C1200 C1205 1.399 . S
C1201 C1200 1.399 . S
C1201 C1202 1.376 . S
C1202 H1189 0.930 . S
C1202 C1201 1.376 . S
C1202 C1203 1.388 . S
C1203 H1190 0.930 . S
C1203 C1202 1.388 . S
C1203 C1204 1.390 . S
C1204 C1203 1.390 . S
C1204 C1205 1.394 . S
C1204 C1210 1.465 . S
C1205 C1200 1.399 . S
C1205 C1204 1.394 . S
C1205 C1206 1.516 . S
C1206 C1205 1.516 . S
C1206 C1207 1.502 . S
C1206 C1208 1.561 . S
C1206 C1209 1.526 . S
C1207 H1191 0.959 . S
C1207 H1192 0.959 . S
C1207 H1193 0.961 . S
C1207 C1206 1.502 . S
C1208 H1194 0.960 . S
C1208 H1195 0.961 . S
C1208 H1196 0.959 . S
C1208 C1206 1.561 . S
C1209 C1206 1.526 . S
C1209 C1210 1.396 . S
C1209 C1214 1.390 . S
C1210 C1204 1.465 . S
C1210 C1209 1.396 . S
C1210 C1211 1.399 . S
C1211 H1197 0.929 . S
C1211 C1210 1.399 . S
C1211 C1212 1.385 . S
C1212 H1198 0.931 . S
C1212 C1211 1.385 . S
C1212 C1213 1.389 . S
C1213 C1212 1.389 . S
C1213 C1214 1.387 . S
C1214 H1199 0.930 . S
C1214 C1209 1.390 . S
C1214 C1213 1.387 . S
H1215 C1227 0.930 . S
H1216 C1229 0.930 . S
H1217 C1230 0.930 . S
H1218 C1234 0.959 . S
H1219 C1234 0.959 . S
H1220 C1234 0.961 . S
H1221 C1235 0.960 . S
H1222 C1235 0.961 . S
H1223 C1235 0.959 . S
H1224 C1238 0.929 . S
H1225 C1239 0.931 . S
H1226 C1241 0.930 . S
C1227 H1215 0.930 . S
C1227 C1228 1.399 . S
C1227 C1232 1.399 . S
C1228 C1227 1.399 . S
C1228 C1229 1.376 . S
C1229 H1216 0.930 . S
C1229 C1228 1.376 . S
C1229 C1230 1.388 . S
C1230 H1217 0.930 . S
C1230 C1229 1.388 . S
C1230 C1231 1.390 . S
C1231 C1230 1.390 . S
C1231 C1232 1.394 . S
C1231 C1237 1.465 . S
C1232 C1227 1.399 . S
C1232 C1231 1.394 . S
C1232 C1233 1.516 . S
C1233 C1232 1.516 . S
C1233 C1234 1.502 . S
C1233 C1235 1.561 . S
C1233 C1236 1.526 . S
C1234 H1218 0.959 . S
C1234 H1219 0.959 . S
C1234 H1220 0.961 . S
C1234 C1233 1.502 . S
C1235 H1221 0.960 . S
C1235 H1222 0.961 . S
C1235 H1223 0.959 . S
C1235 C1233 1.561 . S
C1236 C1233 1.526 . S
C1236 C1237 1.396 . S
C1236 C1241 1.390 . S
C1237 C1231 1.465 . S
C1237 C1236 1.396 . S
C1237 C1238 1.399 . S
C1238 H1224 0.929 . S
C1238 C1237 1.399 . S
C1238 C1239 1.385 . S
C1239 H1225 0.931 . S
C1239 C1238 1.385 . S
C1239 C1240 1.389 . S
C1240 C1239 1.389 . S
C1240 C1241 1.387 . S
C1241 H1226 0.930 . S
C1241 C1236 1.390 . S
C1241 C1240 1.387 . S
H1242 C1254 0.930 . S
H1243 C1256 0.930 . S
H1244 C1257 0.930 . S
H1245 C1261 0.959 . S
H1246 C1261 0.959 . S
H1247 C1261 0.961 . S
H1248 C1262 0.960 . S
H1249 C1262 0.961 . S
H1250 C1262 0.959 . S
H1251 C1265 0.929 . S
H1252 C1266 0.931 . S
H1253 C1268 0.930 . S
C1254 H1242 0.930 . S
C1254 C1255 1.399 . S
C1254 C1259 1.399 . S
C1255 C1254 1.399 . S
C1255 C1256 1.376 . S
C1256 H1243 0.930 . S
C1256 C1255 1.376 . S
C1256 C1257 1.388 . S
C1257 H1244 0.930 . S
C1257 C1256 1.388 . S
C1257 C1258 1.390 . S
C1258 C1257 1.390 . S
C1258 C1259 1.394 . S
C1258 C1264 1.465 . S
C1259 C1254 1.399 . S
C1259 C1258 1.394 . S
C1259 C1260 1.516 . S
C1260 C1259 1.516 . S
C1260 C1261 1.502 . S
C1260 C1262 1.561 . S
C1260 C1263 1.526 . S
C1261 H1245 0.959 . S
C1261 H1246 0.959 . S
C1261 H1247 0.961 . S
C1261 C1260 1.502 . S
C1262 H1248 0.960 . S
C1262 H1249 0.961 . S
C1262 H1250 0.959 . S
C1262 C1260 1.561 . S
C1263 C1260 1.526 . S
C1263 C1264 1.396 . S
C1263 C1268 1.390 . S
C1264 C1258 1.465 . S
C1264 C1263 1.396 . S
C1264 C1265 1.399 . S
C1265 H1251 0.929 . S
C1265 C1264 1.399 . S
C1265 C1266 1.385 . S
C1266 H1252 0.931 . S
C1266 C1265 1.385 . S
C1266 C1267 1.389 . S
C1267 C1266 1.389 . S
C1267 C1268 1.387 . S
C1268 H1253 0.930 . S
C1268 C1263 1.390 . S
C1268 C1267 1.387 . S
H1269 C1281 0.930 . S
H1270 C1283 0.930 . S
H1271 C1284 0.930 . S
H1272 C1288 0.959 . S
H1273 C1288 0.959 . S
H1274 C1288 0.961 . S
H1275 C1289 0.960 . S
H1276 C1289 0.961 . S
H1277 C1289 0.959 . S
H1278 C1292 0.929 . S
H1279 C1293 0.931 . S
H1280 C1295 0.930 . S
C1281 H1269 0.930 . S
C1281 C1282 1.399 . S
C1281 C1286 1.399 . S
C1282 C1281 1.399 . S
C1282 C1283 1.376 . S
C1283 H1270 0.930 . S
C1283 C1282 1.376 . S
C1283 C1284 1.388 . S
C1284 H1271 0.930 . S
C1284 C1283 1.388 . S
C1284 C1285 1.390 . S
C1285 C1284 1.390 . S
C1285 C1286 1.394 . S
C1285 C1291 1.465 . S
C1286 C1281 1.399 . S
C1286 C1285 1.394 . S
C1286 C1287 1.516 . S
C1287 C1286 1.516 . S
C1287 C1288 1.502 . S
C1287 C1289 1.561 . S
C1287 C1290 1.526 . S
C1288 H1272 0.959 . S
C1288 H1273 0.959 . S
C1288 H1274 0.961 . S
C1288 C1287 1.502 . S
C1289 H1275 0.960 . S
C1289 H1276 0.961 . S
C1289 H1277 0.959 . S
C1289 C1287 1.561 . S
C1290 C1287 1.526 . S
C1290 C1291 1.396 . S
C1290 C1295 1.390 . S
C1291 C1285 1.465 . S
C1291 C1290 1.396 . S
C1291 C1292 1.399 . S
C1292 H1278 0.929 . S
C1292 C1291 1.399 . S
C1292 C1293 1.385 . S
C1293 H1279 0.931 . S
C1293 C1292 1.385 . S
C1293 C1294 1.389 . S
C1294 C1293 1.389 . S
C1294 C1295 1.387 . S
C1295 H1280 0.930 . S
C1295 C1290 1.390 . S
C1295 C1294 1.387 . S
H1296 C1308 0.930 . S
H1297 C1310 0.930 . S
H1298 C1311 0.930 . S
H1299 C1315 0.959 . S
H1300 C1315 0.959 . S
H1301 C1315 0.961 . S
H1302 C1316 0.960 . S
H1303 C1316 0.961 . S
H1304 C1316 0.959 . S
H1305 C1319 0.929 . S
H1306 C1320 0.931 . S
H1307 C1322 0.930 . S
C1308 H1296 0.930 . S
C1308 C1309 1.399 . S
C1308 C1313 1.399 . S
C1309 C1308 1.399 . S
C1309 C1310 1.376 . S
C1310 H1297 0.930 . S
C1310 C1309 1.376 . S
C1310 C1311 1.388 . S
C1311 H1298 0.930 . S
C1311 C1310 1.388 . S
C1311 C1312 1.390 . S
C1312 C1311 1.390 . S
C1312 C1313 1.394 . S
C1312 C1318 1.465 . S
C1313 C1308 1.399 . S
C1313 C1312 1.394 . S
C1313 C1314 1.516 . S
C1314 C1313 1.516 . S
C1314 C1315 1.502 . S
C1314 C1316 1.561 . S
C1314 C1317 1.526 . S
C1315 H1299 0.959 . S
C1315 H1300 0.959 . S
C1315 H1301 0.961 . S
C1315 C1314 1.502 . S
C1316 H1302 0.960 . S
C1316 H1303 0.961 . S
C1316 H1304 0.959 . S
C1316 C1314 1.561 . S
C1317 C1314 1.526 . S
C1317 C1318 1.396 . S
C1317 C1322 1.390 . S
C1318 C1312 1.465 . S
C1318 C1317 1.396 . S
C1318 C1319 1.399 . S
C1319 H1305 0.929 . S
C1319 C1318 1.399 . S
C1319 C1320 1.385 . S
C1320 H1306 0.931 . S
C1320 C1319 1.385 . S
C1320 C1321 1.389 . S
C1321 C1320 1.389 . S
C1321 C1322 1.387 . S
C1322 H1307 0.930 . S
C1322 C1317 1.390 . S
C1322 C1321 1.387 . S
H1323 C1335 0.930 . S
H1324 C1337 0.930 . S
H1325 C1338 0.930 . S
H1326 C1342 0.959 . S
H1327 C1342 0.959 . S
H1328 C1342 0.961 . S
H1329 C1343 0.960 . S
H1330 C1343 0.961 . S
H1331 C1343 0.959 . S
H1332 C1346 0.929 . S
H1333 C1347 0.931 . S
H1334 C1349 0.930 . S
C1335 H1323 0.930 . S
C1335 C1336 1.399 . S
C1335 C1340 1.399 . S
C1336 C1335 1.399 . S
C1336 C1337 1.376 . S
C1337 H1324 0.930 . S
C1337 C1336 1.376 . S
C1337 C1338 1.388 . S
C1338 H1325 0.930 . S
C1338 C1337 1.388 . S
C1338 C1339 1.390 . S
C1339 C1338 1.390 . S
C1339 C1340 1.394 . S
C1339 C1345 1.465 . S
C1340 C1335 1.399 . S
C1340 C1339 1.394 . S
C1340 C1341 1.516 . S
C1341 C1340 1.516 . S
C1341 C1342 1.502 . S
C1341 C1343 1.561 . S
C1341 C1344 1.526 . S
C1342 H1326 0.959 . S
C1342 H1327 0.959 . S
C1342 H1328 0.961 . S
C1342 C1341 1.502 . S
C1343 H1329 0.960 . S
C1343 H1330 0.961 . S
C1343 H1331 0.959 . S
C1343 C1341 1.561 . S
C1344 C1341 1.526 . S
C1344 C1345 1.396 . S
C1344 C1349 1.390 . S
C1345 C1339 1.465 . S
C1345 C1344 1.396 . S
C1345 C1346 1.399 . S
C1346 H1332 0.929 . S
C1346 C1345 1.399 . S
C1346 C1347 1.385 . S
C1347 H1333 0.931 . S
C1347 C1346 1.385 . S
C1347 C1348 1.389 . S
C1348 C1347 1.389 . S
C1348 C1349 1.387 . S
C1349 H1334 0.930 . S
C1349 C1344 1.390 . S
C1349 C1348 1.387 . S
H1350 C1362 0.930 . S
H1351 C1364 0.930 . S
H1352 C1365 0.930 . S
H1353 C1369 0.959 . S
H1354 C1369 0.959 . S
H1355 C1369 0.961 . S
H1356 C1370 0.960 . S
H1357 C1370 0.961 . S
H1358 C1370 0.959 . S
H1359 C1373 0.929 . S
H1360 C1374 0.931 . S
H1361 C1376 0.930 . S
C1362 H1350 0.930 . S
C1362 C1363 1.399 . S
C1362 C1367 1.399 . S
C1363 C1362 1.399 . S
C1363 C1364 1.376 . S
C1364 H1351 0.930 . S
C1364 C1363 1.376 . S
C1364 C1365 1.388 . S
C1365 H1352 0.930 . S
C1365 C1364 1.388 . S
C1365 C1366 1.390 . S
C1366 C1365 1.390 . S
C1366 C1367 1.394 . S
C1366 C1372 1.465 . S
C1367 C1362 1.399 . S
C1367 C1366 1.394 . S
C1367 C1368 1.516 . S
C1368 C1367 1.516 . S
C1368 C1369 1.502 . S
C1368 C1370 1.561 . S
C1368 C1371 1.526 . S
C1369 H1353 0.959 . S
C1369 H1354 0.959 . S
C1369 H1355 0.961 . S
C1369 C1368 1.502 . S
C1370 H1356 0.960 . S
C1370 H1357 0.961 . S
C1370 H1358 0.959 . S
C1370 C1368 1.561 . S
C1371 C1368 1.526 . S
C1371 C1372 1.396 . S
C1371 C1376 1.390 . S
C1372 C1366 1.465 . S
C1372 C1371 1.396 . S
C1372 C1373 1.399 . S
C1373 H1359 0.929 . S
C1373 C1372 1.399 . S
C1373 C1374 1.385 . S
C1374 H1360 0.931 . S
C1374 C1373 1.385 . S
C1374 C1375 1.389 . S
C1375 C1374 1.389 . S
C1375 C1376 1.387 . S
C1376 H1361 0.930 . S
C1376 C1371 1.390 . S
C1376 C1375 1.387 . S
H1377 C1389 0.930 . S
H1378 C1391 0.930 . S
H1379 C1392 0.930 . S
H1380 C1396 0.959 . S
H1381 C1396 0.959 . S
H1382 C1396 0.961 . S
H1383 C1397 0.960 . S
H1384 C1397 0.961 . S
H1385 C1397 0.959 . S
H1386 C1400 0.929 . S
H1387 C1401 0.931 . S
H1388 C1403 0.930 . S
C1389 H1377 0.930 . S
C1389 C1390 1.399 . S
C1389 C1394 1.399 . S
C1390 C1389 1.399 . S
C1390 C1391 1.376 . S
C1391 H1378 0.930 . S
C1391 C1390 1.376 . S
C1391 C1392 1.388 . S
C1392 H1379 0.930 . S
C1392 C1391 1.388 . S
C1392 C1393 1.390 . S
C1393 C1392 1.390 . S
C1393 C1394 1.394 . S
C1393 C1399 1.465 . S
C1394 C1389 1.399 . S
C1394 C1393 1.394 . S
C1394 C1395 1.516 . S
C1395 C1394 1.516 . S
C1395 C1396 1.502 . S
C1395 C1397 1.561 . S
C1395 C1398 1.526 . S
C1396 H1380 0.959 . S
C1396 H1381 0.959 . S
C1396 H1382 0.961 . S
C1396 C1395 1.502 . S
C1397 H1383 0.960 . S
C1397 H1384 0.961 . S
C1397 H1385 0.959 . S
C1397 C1395 1.561 . S
C1398 C1395 1.526 . S
C1398 C1399 1.396 . S
C1398 C1403 1.390 . S
C1399 C1393 1.465 . S
C1399 C1398 1.396 . S
C1399 C1400 1.399 . S
C1400 H1386 0.929 . S
C1400 C1399 1.399 . S
C1400 C1401 1.385 . S
C1401 H1387 0.931 . S
C1401 C1400 1.385 . S
C1401 C1402 1.389 . S
C1402 C1401 1.389 . S
C1402 C1403 1.387 . S
C1403 H1388 0.930 . S
C1403 C1398 1.390 . S
C1403 C1402 1.387 . S
H1404 C1416 0.930 . S
H1405 C1418 0.930 . S
H1406 C1419 0.930 . S
H1407 C1423 0.959 . S
H1408 C1423 0.959 . S
H1409 C1423 0.961 . S
H1410 C1424 0.960 . S
H1411 C1424 0.961 . S
H1412 C1424 0.959 . S
H1413 C1427 0.929 . S
H1414 C1428 0.931 . S
H1415 C1430 0.930 . S
C1416 H1404 0.930 . S
C1416 C1417 1.399 . S
C1416 C1421 1.399 . S
C1417 C1416 1.399 . S
C1417 C1418 1.376 . S
C1418 H1405 0.930 . S
C1418 C1417 1.376 . S
C1418 C1419 1.388 . S
C1419 H1406 0.930 . S
C1419 C1418 1.388 . S
C1419 C1420 1.390 . S
C1420 C1419 1.390 . S
C1420 C1421 1.394 . S
C1420 C1426 1.465 . S
C1421 C1416 1.399 . S
C1421 C1420 1.394 . S
C1421 C1422 1.516 . S
C1422 C1421 1.516 . S
C1422 C1423 1.502 . S
C1422 C1424 1.561 . S
C1422 C1425 1.526 . S
C1423 H1407 0.959 . S
C1423 H1408 0.959 . S
C1423 H1409 0.961 . S
C1423 C1422 1.502 . S
C1424 H1410 0.960 . S
C1424 H1411 0.961 . S
C1424 H1412 0.959 . S
C1424 C1422 1.561 . S
C1425 C1422 1.526 . S
C1425 C1426 1.396 . S
C1425 C1430 1.390 . S
C1426 C1420 1.465 . S
C1426 C1425 1.396 . S
C1426 C1427 1.399 . S
C1427 H1413 0.929 . S
C1427 C1426 1.399 . S
C1427 C1428 1.385 . S
C1428 H1414 0.931 . S
C1428 C1427 1.385 . S
C1428 C1429 1.389 . S
C1429 C1428 1.389 . S
C1429 C1430 1.387 . S
C1430 H1415 0.930 . S
C1430 C1425 1.390 . S
C1430 C1429 1.387 . S
H1431 C1443 0.930 . S
H1432 C1445 0.930 . S
H1433 C1446 0.930 . S
H1434 C1450 0.959 . S
H1435 C1450 0.959 . S
H1436 C1450 0.961 . S
H1437 C1451 0.960 . S
H1438 C1451 0.961 . S
H1439 C1451 0.959 . S
H1440 C1454 0.929 . S
H1441 C1455 0.931 . S
H1442 C1457 0.930 . S
C1443 H1431 0.930 . S
C1443 C1444 1.399 . S
C1443 C1448 1.399 . S
C1444 C1443 1.399 . S
C1444 C1445 1.376 . S
C1445 H1432 0.930 . S
C1445 C1444 1.376 . S
C1445 C1446 1.388 . S
C1446 H1433 0.930 . S
C1446 C1445 1.388 . S
C1446 C1447 1.390 . S
C1447 C1446 1.390 . S
C1447 C1448 1.394 . S
C1447 C1453 1.465 . S
C1448 C1443 1.399 . S
C1448 C1447 1.394 . S
C1448 C1449 1.516 . S
C1449 C1448 1.516 . S
C1449 C1450 1.502 . S
C1449 C1451 1.561 . S
C1449 C1452 1.526 . S
C1450 H1434 0.959 . S
C1450 H1435 0.959 . S
C1450 H1436 0.961 . S
C1450 C1449 1.502 . S
C1451 H1437 0.960 . S
C1451 H1438 0.961 . S
C1451 H1439 0.959 . S
C1451 C1449 1.561 . S
C1452 C1449 1.526 . S
C1452 C1453 1.396 . S
C1452 C1457 1.390 . S
C1453 C1447 1.465 . S
C1453 C1452 1.396 . S
C1453 C1454 1.399 . S
C1454 H1440 0.929 . S
C1454 C1453 1.399 . S
C1454 C1455 1.385 . S
C1455 H1441 0.931 . S
C1455 C1454 1.385 . S
C1455 C1456 1.389 . S
C1456 C1455 1.389 . S
C1456 C1457 1.387 . S
C1457 H1442 0.930 . S
C1457 C1452 1.390 . S
C1457 C1456 1.387 . S
H1458 C1470 0.930 . S
H1459 C1472 0.930 . S
H1460 C1473 0.930 . S
H1461 C1477 0.959 . S
H1462 C1477 0.959 . S
H1463 C1477 0.961 . S
H1464 C1478 0.960 . S
H1465 C1478 0.961 . S
H1466 C1478 0.959 . S
H1467 C1481 0.929 . S
H1468 C1482 0.931 . S
H1469 C1484 0.930 . S
C1470 H1458 0.930 . S
C1470 C1471 1.399 . S
C1470 C1475 1.399 . S
C1471 C1470 1.399 . S
C1471 C1472 1.376 . S
C1472 H1459 0.930 . S
C1472 C1471 1.376 . S
C1472 C1473 1.388 . S
C1473 H1460 0.930 . S
C1473 C1472 1.388 . S
C1473 C1474 1.390 . S
C1474 C1473 1.390 . S
C1474 C1475 1.394 . S
C1474 C1480 1.465 . S
C1475 C1470 1.399 . S
C1475 C1474 1.394 . S
C1475 C1476 1.516 . S
C1476 C1475 1.516 . S
C1476 C1477 1.502 . S
C1476 C1478 1.561 . S
C1476 C1479 1.526 . S
C1477 H1461 0.959 . S
C1477 H1462 0.959 . S
C1477 H1463 0.961 . S
C1477 C1476 1.502 . S
C1478 H1464 0.960 . S
C1478 H1465 0.961 . S
C1478 H1466 0.959 . S
C1478 C1476 1.561 . S
C1479 C1476 1.526 . S
C1479 C1480 1.396 . S
C1479 C1484 1.390 . S
C1480 C1474 1.465 . S
C1480 C1479 1.396 . S
C1480 C1481 1.399 . S
C1481 H1467 0.929 . S
C1481 C1480 1.399 . S
C1481 C1482 1.385 . S
C1482 H1468 0.931 . S
C1482 C1481 1.385 . S
C1482 C1483 1.389 . S
C1483 C1482 1.389 . S
C1483 C1484 1.387 . S
C1484 H1469 0.930 . S
C1484 C1479 1.390 . S
C1484 C1483 1.387 . S
H1485 C1497 0.930 . S
H1486 C1499 0.930 . S
H1487 C1500 0.930 . S
H1488 C1504 0.959 . S
H1489 C1504 0.959 . S
H1490 C1504 0.961 . S
H1491 C1505 0.960 . S
H1492 C1505 0.961 . S
H1493 C1505 0.959 . S
H1494 C1508 0.929 . S
H1495 C1509 0.931 . S
H1496 C1511 0.930 . S
C1497 H1485 0.930 . S
C1497 C1498 1.399 . S
C1497 C1502 1.399 . S
C1498 C1497 1.399 . S
C1498 C1499 1.376 . S
C1499 H1486 0.930 . S
C1499 C1498 1.376 . S
C1499 C1500 1.388 . S
C1500 H1487 0.930 . S
C1500 C1499 1.388 . S
C1500 C1501 1.390 . S
C1501 C1500 1.390 . S
C1501 C1502 1.394 . S
C1501 C1507 1.465 . S
C1502 C1497 1.399 . S
C1502 C1501 1.394 . S
C1502 C1503 1.516 . S
C1503 C1502 1.516 . S
C1503 C1504 1.502 . S
C1503 C1505 1.561 . S
C1503 C1506 1.526 . S
C1504 H1488 0.959 . S
C1504 H1489 0.959 . S
C1504 H1490 0.961 . S
C1504 C1503 1.502 . S
C1505 H1491 0.960 . S
C1505 H1492 0.961 . S
C1505 H1493 0.959 . S
C1505 C1503 1.561 . S
C1506 C1503 1.526 . S
C1506 C1507 1.396 . S
C1506 C1511 1.390 . S
C1507 C1501 1.465 . S
C1507 C1506 1.396 . S
C1507 C1508 1.399 . S
C1508 H1494 0.929 . S
C1508 C1507 1.399 . S
C1508 C1509 1.385 . S
C1509 H1495 0.931 . S
C1509 C1508 1.385 . S
C1509 C1510 1.389 . S
C1510 C1509 1.389 . S
C1510 C1511 1.387 . S
C1511 H1496 0.930 . S
C1511 C1506 1.390 . S
C1511 C1510 1.387 . S
H1512 C1524 0.930 . S
H1513 C1526 0.930 . S
H1514 C1527 0.930 . S
H1515 C1531 0.959 . S
H1516 C1531 0.959 . S
H1517 C1531 0.961 . S
H1518 C1532 0.960 . S
H1519 C1532 0.961 . S
H1520 C1532 0.959 . S
H1521 C1535 0.929 . S
H1522 C1536 0.931 . S
H1523 C1538 0.930 . S
C1524 H1512 0.930 . S
C1524 C1525 1.399 . S
C1524 C1529 1.399 . S
C1525 C1524 1.399 . S
C1525 C1526 1.376 . S
C1526 H1513 0.930 . S
C1526 C1525 1.376 . S
C1526 C1527 1.388 . S
C1527 H1514 0.930 . S
C1527 C1526 1.388 . S
C1527 C1528 1.390 . S
C1528 C1527 1.390 . S
C1528 C1529 1.394 . S
C1528 C1534 1.465 . S
C1529 C1524 1.399 . S
C1529 C1528 1.394 . S
C1529 C1530 1.516 . S
C1530 C1529 1.516 . S
C1530 C1531 1.502 . S
C1530 C1532 1.561 . S
C1530 C1533 1.526 . S
C1531 H1515 0.959 . S
C1531 H1516 0.959 . S
C1531 H1517 0.961 . S
C1531 C1530 1.502 . S
C1532 H1518 0.960 . S
C1532 H1519 0.961 . S
C1532 H1520 0.959 . S
C1532 C1530 1.561 . S
C1533 C1530 1.526 . S
C1533 C1534 1.396 . S
C1533 C1538 1.390 . S
C1534 C1528 1.465 . S
C1534 C1533 1.396 . S
C1534 C1535 1.399 . S
C1535 H1521 0.929 . S
C1535 C1534 1.399 . S
C1535 C1536 1.385 . S
C1536 H1522 0.931 . S
C1536 C1535 1.385 . S
C1536 C1537 1.389 . S
C1537 C1536 1.389 . S
C1537 C1538 1.387 . S
C1538 H1523 0.930 . S
C1538 C1533 1.390 . S
C1538 C1537 1.387 . S
H1539 C1551 0.930 . S
H1540 C1553 0.930 . S
H1541 C1554 0.930 . S
H1542 C1558 0.959 . S
H1543 C1558 0.959 . S
H1544 C1558 0.961 . S
H1545 C1559 0.960 . S
H1546 C1559 0.961 . S
H1547 C1559 0.959 . S
H1548 C1562 0.929 . S
H1549 C1563 0.931 . S
H1550 C1565 0.930 . S
C1551 H1539 0.930 . S
C1551 C1552 1.399 . S
C1551 C1556 1.399 . S
C1552 C1551 1.399 . S
C1552 C1553 1.376 . S
C1553 H1540 0.930 . S
C1553 C1552 1.376 . S
C1553 C1554 1.388 . S
C1554 H1541 0.930 . S
C1554 C1553 1.388 . S
C1554 C1555 1.390 . S
C1555 C1554 1.390 . S
C1555 C1556 1.394 . S
C1555 C1561 1.465 . S
C1556 C1551 1.399 . S
C1556 C1555 1.394 . S
C1556 C1557 1.516 . S
C1557 C1556 1.516 . S
C1557 C1558 1.502 . S
C1557 C1559 1.561 . S
C1557 C1560 1.526 . S
C1558 H1542 0.959 . S
C1558 H1543 0.959 . S
C1558 H1544 0.961 . S
C1558 C1557 1.502 . S
C1559 H1545 0.960 . S
C1559 H1546 0.961 . S
C1559 H1547 0.959 . S
C1559 C1557 1.561 . S
C1560 C1557 1.526 . S
C1560 C1561 1.396 . S
C1560 C1565 1.390 . S
C1561 C1555 1.465 . S
C1561 C1560 1.396 . S
C1561 C1562 1.399 . S
C1562 H1548 0.929 . S
C1562 C1561 1.399 . S
C1562 C1563 1.385 . S
C1563 H1549 0.931 . S
C1563 C1562 1.385 . S
C1563 C1564 1.389 . S
C1564 C1563 1.389 . S
C1564 C1565 1.387 . S
C1565 H1550 0.930 . S
C1565 C1560 1.390 . S
C1565 C1564 1.387 . S
H1566 C1578 0.930 . S
H1567 C1580 0.930 . S
H1568 C1581 0.930 . S
H1569 C1585 0.959 . S
H1570 C1585 0.959 . S
H1571 C1585 0.961 . S
H1572 C1586 0.960 . S
H1573 C1586 0.961 . S
H1574 C1586 0.959 . S
H1575 C1589 0.929 . S
H1576 C1590 0.931 . S
H1577 C1592 0.930 . S
C1578 H1566 0.930 . S
C1578 C1579 1.399 . S
C1578 C1583 1.399 . S
C1579 C1578 1.399 . S
C1579 C1580 1.376 . S
C1580 H1567 0.930 . S
C1580 C1579 1.376 . S
C1580 C1581 1.388 . S
C1581 H1568 0.930 . S
C1581 C1580 1.388 . S
C1581 C1582 1.390 . S
C1582 C1581 1.390 . S
C1582 C1583 1.394 . S
C1582 C1588 1.465 . S
C1583 C1578 1.399 . S
C1583 C1582 1.394 . S
C1583 C1584 1.516 . S
C1584 C1583 1.516 . S
C1584 C1585 1.502 . S
C1584 C1586 1.561 . S
C1584 C1587 1.526 . S
C1585 H1569 0.959 . S
C1585 H1570 0.959 . S
C1585 H1571 0.961 . S
C1585 C1584 1.502 . S
C1586 H1572 0.960 . S
C1586 H1573 0.961 . S
C1586 H1574 0.959 . S
C1586 C1584 1.561 . S
C1587 C1584 1.526 . S
C1587 C1588 1.396 . S
C1587 C1592 1.390 . S
C1588 C1582 1.465 . S
C1588 C1587 1.396 . S
C1588 C1589 1.399 . S
C1589 H1575 0.929 . S
C1589 C1588 1.399 . S
C1589 C1590 1.385 . S
C1590 H1576 0.931 . S
C1590 C1589 1.385 . S
C1590 C1591 1.389 . S
C1591 C1590 1.389 . S
C1591 C1592 1.387 . S
C1592 H1577 0.930 . S
C1592 C1587 1.390 . S
C1592 C1591 1.387 . S
H1593 C1605 0.930 . S
H1594 C1607 0.930 . S
H1595 C1608 0.930 . S
H1596 C1612 0.959 . S
H1597 C1612 0.959 . S
H1598 C1612 0.961 . S
H1599 C1613 0.960 . S
H1600 C1613 0.961 . S
H1601 C1613 0.959 . S
H1602 C1616 0.929 . S
H1603 C1617 0.931 . S
H1604 C1619 0.930 . S
C1605 H1593 0.930 . S
C1605 C1606 1.399 . S
C1605 C1610 1.399 . S
C1606 C1605 1.399 . S
C1606 C1607 1.376 . S
C1607 H1594 0.930 . S
C1607 C1606 1.376 . S
C1607 C1608 1.388 . S
C1608 H1595 0.930 . S
C1608 C1607 1.388 . S
C1608 C1609 1.390 . S
C1609 C1608 1.390 . S
C1609 C1610 1.394 . S
C1609 C1615 1.465 . S
C1610 C1605 1.399 . S
C1610 C1609 1.394 . S
C1610 C1611 1.516 . S
C1611 C1610 1.516 . S
C1611 C1612 1.502 . S
C1611 C1613 1.561 . S
C1611 C1614 1.526 . S
C1612 H1596 0.959 . S
C1612 H1597 0.959 . S
C1612 H1598 0.961 . S
C1612 C1611 1.502 . S
C1613 H1599 0.960 . S
C1613 H1600 0.961 . S
C1613 H1601 0.959 . S
C1613 C1611 1.561 . S
C1614 C1611 1.526 . S
C1614 C1615 1.396 . S
C1614 C1619 1.390 . S
C1615 C1609 1.465 . S
C1615 C1614 1.396 . S
C1615 C1616 1.399 . S
C1616 H1602 0.929 . S
C1616 C1615 1.399 . S
C1616 C1617 1.385 . S
C1617 H1603 0.931 . S
C1617 C1616 1.385 . S
C1617 C1618 1.389 . S
C1618 C1617 1.389 . S
C1618 C1619 1.387 . S
C1619 H1604 0.930 . S
C1619 C1614 1.390 . S
C1619 C1618 1.387 . S
H1620 C1632 0.930 . S
H1621 C1634 0.930 . S
H1622 C1635 0.930 . S
H1623 C1639 0.959 . S
H1624 C1639 0.959 . S
H1625 C1639 0.961 . S
H1626 C1640 0.960 . S
H1627 C1640 0.961 . S
H1628 C1640 0.959 . S
H1629 C1643 0.929 . S
H1630 C1644 0.931 . S
H1631 C1646 0.930 . S
C1632 H1620 0.930 . S
C1632 C1633 1.399 . S
C1632 C1637 1.399 . S
C1633 C1632 1.399 . S
C1633 C1634 1.376 . S
C1634 H1621 0.930 . S
C1634 C1633 1.376 . S
C1634 C1635 1.388 . S
C1635 H1622 0.930 . S
C1635 C1634 1.388 . S
C1635 C1636 1.390 . S
C1636 C1635 1.390 . S
C1636 C1637 1.394 . S
C1636 C1642 1.465 . S
C1637 C1632 1.399 . S
C1637 C1636 1.394 . S
C1637 C1638 1.516 . S
C1638 C1637 1.516 . S
C1638 C1639 1.502 . S
C1638 C1640 1.561 . S
C1638 C1641 1.526 . S
C1639 H1623 0.959 . S
C1639 H1624 0.959 . S
C1639 H1625 0.961 . S
C1639 C1638 1.502 . S
C1640 H1626 0.960 . S
C1640 H1627 0.961 . S
C1640 H1628 0.959 . S
C1640 C1638 1.561 . S
C1641 C1638 1.526 . S
C1641 C1642 1.396 . S
C1641 C1646 1.390 . S
C1642 C1636 1.465 . S
C1642 C1641 1.396 . S
C1642 C1643 1.399 . S
C1643 H1629 0.929 . S
C1643 C1642 1.399 . S
C1643 C1644 1.385 . S
C1644 H1630 0.931 . S
C1644 C1643 1.385 . S
C1644 C1645 1.389 . S
C1645 C1644 1.389 . S
C1645 C1646 1.387 . S
C1646 H1631 0.930 . S
C1646 C1641 1.390 . S
C1646 C1645 1.387 . S
H1647 C1659 0.930 . S
H1648 C1661 0.930 . S
H1649 C1662 0.930 . S
H1650 C1666 0.959 . S
H1651 C1666 0.959 . S
H1652 C1666 0.961 . S
H1653 C1667 0.960 . S
H1654 C1667 0.961 . S
H1655 C1667 0.959 . S
H1656 C1670 0.929 . S
H1657 C1671 0.931 . S
H1658 C1673 0.930 . S
C1659 H1647 0.930 . S
C1659 C1660 1.399 . S
C1659 C1664 1.399 . S
C1660 C1659 1.399 . S
C1660 C1661 1.376 . S
C1661 H1648 0.930 . S
C1661 C1660 1.376 . S
C1661 C1662 1.388 . S
C1662 H1649 0.930 . S
C1662 C1661 1.388 . S
C1662 C1663 1.390 . S
C1663 C1662 1.390 . S
C1663 C1664 1.394 . S
C1663 C1669 1.465 . S
C1664 C1659 1.399 . S
C1664 C1663 1.394 . S
C1664 C1665 1.516 . S
C1665 C1664 1.516 . S
C1665 C1666 1.502 . S
C1665 C1667 1.561 . S
C1665 C1668 1.526 . S
C1666 H1650 0.959 . S
C1666 H1651 0.959 . S
C1666 H1652 0.961 . S
C1666 C1665 1.502 . S
C1667 H1653 0.960 . S
C1667 H1654 0.961 . S
C1667 H1655 0.959 . S
C1667 C1665 1.561 . S
C1668 C1665 1.526 . S
C1668 C1669 1.396 . S
C1668 C1673 1.390 . S
C1669 C1663 1.465 . S
C1669 C1668 1.396 . S
C1669 C1670 1.399 . S
C1670 H1656 0.929 . S
C1670 C1669 1.399 . S
C1670 C1671 1.385 . S
C1671 H1657 0.931 . S
C1671 C1670 1.385 . S
C1671 C1672 1.389 . S
C1672 C1671 1.389 . S
C1672 C1673 1.387 . S
C1673 H1658 0.930 . S
C1673 C1668 1.390 . S
C1673 C1672 1.387 . S
H1674 C1686 0.930 . S
H1675 C1688 0.930 . S
H1676 C1689 0.930 . S
H1677 C1693 0.959 . S
H1678 C1693 0.959 . S
H1679 C1693 0.961 . S
H1680 C1694 0.960 . S
H1681 C1694 0.961 . S
H1682 C1694 0.959 . S
H1683 C1697 0.929 . S
H1684 C1698 0.931 . S
H1685 C1700 0.930 . S
C1686 H1674 0.930 . S
C1686 C1687 1.399 . S
C1686 C1691 1.399 . S
C1687 C1686 1.399 . S
C1687 C1688 1.376 . S
C1688 H1675 0.930 . S
C1688 C1687 1.376 . S
C1688 C1689 1.388 . S
C1689 H1676 0.930 . S
C1689 C1688 1.388 . S
C1689 C1690 1.390 . S
C1690 C1689 1.390 . S
C1690 C1691 1.394 . S
C1690 C1696 1.465 . S
C1691 C1686 1.399 . S
C1691 C1690 1.394 . S
C1691 C1692 1.516 . S
C1692 C1691 1.516 . S
C1692 C1693 1.502 . S
C1692 C1694 1.561 . S
C1692 C1695 1.526 . S
C1693 H1677 0.959 . S
C1693 H1678 0.959 . S
C1693 H1679 0.961 . S
C1693 C1692 1.502 . S
C1694 H1680 0.960 . S
C1694 H1681 0.961 . S
C1694 H1682 0.959 . S
C1694 C1692 1.561 . S
C1695 C1692 1.526 . S
C1695 C1696 1.396 . S
C1695 C1700 1.390 . S
C1696 C1690 1.465 . S
C1696 C1695 1.396 . S
C1696 C1697 1.399 . S
C1697 H1683 0.929 . S
C1697 C1696 1.399 . S
C1697 C1698 1.385 . S
C1698 H1684 0.931 . S
C1698 C1697 1.385 . S
C1698 C1699 1.389 . S
C1699 C1698 1.389 . S
C1699 C1700 1.387 . S
C1700 H1685 0.930 . S
C1700 C1695 1.390 . S
C1700 C1699 1.387 . S
H1701 C1713 0.930 . S
H1702 C1715 0.930 . S
H1703 C1716 0.930 . S
H1704 C1720 0.959 . S
H1705 C1720 0.959 . S
H1706 C1720 0.961 . S
H1707 C1721 0.960 . S
H1708 C1721 0.961 . S
H1709 C1721 0.959 . S
H1710 C1724 0.929 . S
H1711 C1725 0.931 . S
H1712 C1727 0.930 . S
C1713 H1701 0.930 . S
C1713 C1714 1.399 . S
C1713 C1718 1.399 . S
C1714 C1713 1.399 . S
C1714 C1715 1.376 . S
C1715 H1702 0.930 . S
C1715 C1714 1.376 . S
C1715 C1716 1.388 . S
C1716 H1703 0.930 . S
C1716 C1715 1.388 . S
C1716 C1717 1.390 . S
C1717 C1716 1.390 . S
C1717 C1718 1.394 . S
C1717 C1723 1.465 . S
C1718 C1713 1.399 . S
C1718 C1717 1.394 . S
C1718 C1719 1.516 . S
C1719 C1718 1.516 . S
C1719 C1720 1.502 . S
C1719 C1721 1.561 . S
C1719 C1722 1.526 . S
C1720 H1704 0.959 . S
C1720 H1705 0.959 . S
C1720 H1706 0.961 . S
C1720 C1719 1.502 . S
C1721 H1707 0.960 . S
C1721 H1708 0.961 . S
C1721 H1709 0.959 . S
C1721 C1719 1.561 . S
C1722 C1719 1.526 . S
C1722 C1723 1.396 . S
C1722 C1727 1.390 . S
C1723 C1717 1.465 . S
C1723 C1722 1.396 . S
C1723 C1724 1.399 . S
C1724 H1710 0.929 . S
C1724 C1723 1.399 . S
C1724 C1725 1.385 . S
C1725 H1711 0.931 . S
C1725 C1724 1.385 . S
C1725 C1726 1.389 . S
C1726 C1725 1.389 . S
C1726 C1727 1.387 . S
C1727 H1712 0.930 . S
C1727 C1722 1.390 . S
C1727 C1726 1.387 . S
H1728 C1740 0.930 . S
H1729 C1742 0.930 . S
H1730 C1743 0.930 . S
H1731 C1747 0.959 . S
H1732 C1747 0.959 . S
H1733 C1747 0.961 . S
H1734 C1748 0.960 . S
H1735 C1748 0.961 . S
H1736 C1748 0.959 . S
H1737 C1751 0.929 . S
H1738 C1752 0.931 . S
H1739 C1754 0.930 . S
C1740 H1728 0.930 . S
C1740 C1741 1.399 . S
C1740 C1745 1.399 . S
C1741 C1740 1.399 . S
C1741 C1742 1.376 . S
C1742 H1729 0.930 . S
C1742 C1741 1.376 . S
C1742 C1743 1.388 . S
C1743 H1730 0.930 . S
C1743 C1742 1.388 . S
C1743 C1744 1.390 . S
C1744 C1743 1.390 . S
C1744 C1745 1.394 . S
C1744 C1750 1.465 . S
C1745 C1740 1.399 . S
C1745 C1744 1.394 . S
C1745 C1746 1.516 . S
C1746 C1745 1.516 . S
C1746 C1747 1.502 . S
C1746 C1748 1.561 . S
C1746 C1749 1.526 . S
C1747 H1731 0.959 . S
C1747 H1732 0.959 . S
C1747 H1733 0.961 . S
C1747 C1746 1.502 . S
C1748 H1734 0.960 . S
C1748 H1735 0.961 . S
C1748 H1736 0.959 . S
C1748 C1746 1.561 . S
C1749 C1746 1.526 . S
C1749 C1750 1.396 . S
C1749 C1754 1.390 . S
C1750 C1744 1.465 . S
C1750 C1749 1.396 . S
C1750 C1751 1.399 . S
C1751 H1737 0.929 . S
C1751 C1750 1.399 . S
C1751 C1752 1.385 . S
C1752 H1738 0.931 . S
C1752 C1751 1.385 . S
C1752 C1753 1.389 . S
C1753 C1752 1.389 . S
C1753 C1754 1.387 . S
C1754 H1739 0.930 . S
C1754 C1749 1.390 . S
C1754 C1753 1.387 . S
H1755 C1767 0.930 . S
H1756 C1769 0.930 . S
H1757 C1770 0.930 . S
H1758 C1774 0.959 . S
H1759 C1774 0.959 . S
H1760 C1774 0.961 . S
H1761 C1775 0.960 . S
H1762 C1775 0.961 . S
H1763 C1775 0.959 . S
H1764 C1778 0.929 . S
H1765 C1779 0.931 . S
H1766 C1781 0.930 . S
C1767 H1755 0.930 . S
C1767 C1768 1.399 . S
C1767 C1772 1.399 . S
C1768 C1767 1.399 . S
C1768 C1769 1.376 . S
C1769 H1756 0.930 . S
C1769 C1768 1.376 . S
C1769 C1770 1.388 . S
C1770 H1757 0.930 . S
C1770 C1769 1.388 . S
C1770 C1771 1.390 . S
C1771 C1770 1.390 . S
C1771 C1772 1.394 . S
C1771 C1777 1.465 . S
C1772 C1767 1.399 . S
C1772 C1771 1.394 . S
C1772 C1773 1.516 . S
C1773 C1772 1.516 . S
C1773 C1774 1.502 . S
C1773 C1775 1.561 . S
C1773 C1776 1.526 . S
C1774 H1758 0.959 . S
C1774 H1759 0.959 . S
C1774 H1760 0.961 . S
C1774 C1773 1.502 . S
C1775 H1761 0.960 . S
C1775 H1762 0.961 . S
C1775 H1763 0.959 . S
C1775 C1773 1.561 . S
C1776 C1773 1.526 . S
C1776 C1777 1.396 . S
C1776 C1781 1.390 . S
C1777 C1771 1.465 . S
C1777 C1776 1.396 . S
C1777 C1778 1.399 . S
C1778 H1764 0.929 . S
C1778 C1777 1.399 . S
C1778 C1779 1.385 . S
C1779 H1765 0.931 . S
C1779 C1778 1.385 . S
C1779 C1780 1.389 . S
C1780 C1779 1.389 . S
C1780 C1781 1.387 . S
C1781 H1766 0.930 . S
C1781 C1776 1.390 . S
C1781 C1780 1.387 . S
H1782 C1794 0.930 . S
H1783 C1796 0.930 . S
H1784 C1797 0.930 . S
H1785 C1801 0.959 . S
H1786 C1801 0.959 . S
H1787 C1801 0.961 . S
H1788 C1802 0.960 . S
H1789 C1802 0.961 . S
H1790 C1802 0.959 . S
H1791 C1805 0.929 . S
H1792 C1806 0.931 . S
H1793 C1808 0.930 . S
C1794 H1782 0.930 . S
C1794 C1795 1.399 . S
C1794 C1799 1.399 . S
C1795 C1794 1.399 . S
C1795 C1796 1.376 . S
C1796 H1783 0.930 . S
C1796 C1795 1.376 . S
C1796 C1797 1.388 . S
C1797 H1784 0.930 . S
C1797 C1796 1.388 . S
C1797 C1798 1.390 . S
C1798 C1797 1.390 . S
C1798 C1799 1.394 . S
C1798 C1804 1.465 . S
C1799 C1794 1.399 . S
C1799 C1798 1.394 . S
C1799 C1800 1.516 . S
C1800 C1799 1.516 . S
C1800 C1801 1.502 . S
C1800 C1802 1.561 . S
C1800 C1803 1.526 . S
C1801 H1785 0.959 . S
C1801 H1786 0.959 . S
C1801 H1787 0.961 . S
C1801 C1800 1.502 . S
C1802 H1788 0.960 . S
C1802 H1789 0.961 . S
C1802 H1790 0.959 . S
C1802 C1800 1.561 . S
C1803 C1800 1.526 . S
C1803 C1804 1.396 . S
C1803 C1808 1.390 . S
C1804 C1798 1.465 . S
C1804 C1803 1.396 . S
C1804 C1805 1.399 . S
C1805 H1791 0.929 . S
C1805 C1804 1.399 . S
C1805 C1806 1.385 . S
C1806 H1792 0.931 . S
C1806 C1805 1.385 . S
C1806 C1807 1.389 . S
C1807 C1806 1.389 . S
C1807 C1808 1.387 . S
C1808 H1793 0.930 . S
C1808 C1803 1.390 . S
C1808 C1807 1.387 . S
H1809 C1821 0.930 . S
H1810 C1823 0.930 . S
H1811 C1824 0.930 . S
H1812 C1828 0.959 . S
H1813 C1828 0.959 . S
H1814 C1828 0.961 . S
H1815 C1829 0.960 . S
H1816 C1829 0.961 . S
H1817 C1829 0.959 . S
H1818 C1832 0.929 . S
H1819 C1833 0.931 . S
H1820 C1835 0.930 . S
C1821 H1809 0.930 . S
C1821 C1822 1.399 . S
C1821 C1826 1.399 . S
C1822 C1821 1.399 . S
C1822 C1823 1.376 . S
C1823 H1810 0.930 . S
C1823 C1822 1.376 . S
C1823 C1824 1.388 . S
C1824 H1811 0.930 . S
C1824 C1823 1.388 . S
C1824 C1825 1.390 . S
C1825 C1824 1.390 . S
C1825 C1826 1.394 . S
C1825 C1831 1.465 . S
C1826 C1821 1.399 . S
C1826 C1825 1.394 . S
C1826 C1827 1.516 . S
C1827 C1826 1.516 . S
C1827 C1828 1.502 . S
C1827 C1829 1.561 . S
C1827 C1830 1.526 . S
C1828 H1812 0.959 . S
C1828 H1813 0.959 . S
C1828 H1814 0.961 . S
C1828 C1827 1.502 . S
C1829 H1815 0.960 . S
C1829 H1816 0.961 . S
C1829 H1817 0.959 . S
C1829 C1827 1.561 . S
C1830 C1827 1.526 . S
C1830 C1831 1.396 . S
C1830 C1835 1.390 . S
C1831 C1825 1.465 . S
C1831 C1830 1.396 . S
C1831 C1832 1.399 . S
C1832 H1818 0.929 . S
C1832 C1831 1.399 . S
C1832 C1833 1.385 . S
C1833 H1819 0.931 . S
C1833 C1832 1.385 . S
C1833 C1834 1.389 . S
C1834 C1833 1.389 . S
C1834 C1835 1.387 . S
C1835 H1820 0.930 . S
C1835 C1830 1.390 . S
C1835 C1834 1.387 . S
H1836 C1848 0.930 . S
H1837 C1850 0.930 . S
H1838 C1851 0.930 . S
H1839 C1855 0.959 . S
H1840 C1855 0.959 . S
H1841 C1855 0.961 . S
H1842 C1856 0.960 . S
H1843 C1856 0.961 . S
H1844 C1856 0.959 . S
H1845 C1859 0.929 . S
H1846 C1860 0.931 . S
H1847 C1862 0.930 . S
C1848 H1836 0.930 . S
C1848 C1849 1.399 . S
C1848 C1853 1.399 . S
C1849 C1848 1.399 . S
C1849 C1850 1.376 . S
C1850 H1837 0.930 . S
C1850 C1849 1.376 . S
C1850 C1851 1.388 . S
C1851 H1838 0.930 . S
C1851 C1850 1.388 . S
C1851 C1852 1.390 . S
C1852 C1851 1.390 . S
C1852 C1853 1.394 . S
C1852 C1858 1.465 . S
C1853 C1848 1.399 . S
C1853 C1852 1.394 . S
C1853 C1854 1.516 . S
C1854 C1853 1.516 . S
C1854 C1855 1.502 . S
C1854 C1856 1.561 . S
C1854 C1857 1.526 . S
C1855 H1839 0.959 . S
C1855 H1840 0.959 . S
C1855 H1841 0.961 . S
C1855 C1854 1.502 . S
C1856 H1842 0.960 . S
C1856 H1843 0.961 . S
C1856 H1844 0.959 . S
C1856 C1854 1.561 . S
C1857 C1854 1.526 . S
C1857 C1858 1.396 . S
C1857 C1862 1.390 . S
C1858 C1852 1.465 . S
C1858 C1857 1.396 . S
C1858 C1859 1.399 . S
C1859 H1845 0.929 . S
C1859 C1858 1.399 . S
C1859 C1860 1.385 . S
C1860 H1846 0.931 . S
C1860 C1859 1.385 . S
C1860 C1861 1.389 . S
C1861 C1860 1.389 . S
C1861 C1862 1.387 . S
C1862 H1847 0.930 . S
C1862 C1857 1.390 . S
C1862 C1861 1.387 . S
H1863 C1875 0.930 . S
H1864 C1877 0.930 . S
H1865 C1878 0.930 . S
H1866 C1882 0.959 . S
H1867 C1882 0.959 . S
H1868 C1882 0.961 . S
H1869 C1883 0.960 . S
H1870 C1883 0.961 . S
H1871 C1883 0.959 . S
H1872 C1886 0.929 . S
H1873 C1887 0.931 . S
H1874 C1889 0.930 . S
C1875 H1863 0.930 . S
C1875 C1876 1.399 . S
C1875 C1880 1.399 . S
C1876 C1875 1.399 . S
C1876 C1877 1.376 . S
C1877 H1864 0.930 . S
C1877 C1876 1.376 . S
C1877 C1878 1.388 . S
C1878 H1865 0.930 . S
C1878 C1877 1.388 . S
C1878 C1879 1.390 . S
C1879 C1878 1.390 . S
C1879 C1880 1.394 . S
C1879 C1885 1.465 . S
C1880 C1875 1.399 . S
C1880 C1879 1.394 . S
C1880 C1881 1.516 . S
C1881 C1880 1.516 . S
C1881 C1882 1.502 . S
C1881 C1883 1.561 . S
C1881 C1884 1.526 . S
C1882 H1866 0.959 . S
C1882 H1867 0.959 . S
C1882 H1868 0.961 . S
C1882 C1881 1.502 . S
C1883 H1869 0.960 . S
C1883 H1870 0.961 . S
C1883 H1871 0.959 . S
C1883 C1881 1.561 . S
C1884 C1881 1.526 . S
C1884 C1885 1.396 . S
C1884 C1889 1.390 . S
C1885 C1879 1.465 . S
C1885 C1884 1.396 . S
C1885 C1886 1.399 . S
C1886 H1872 0.929 . S
C1886 C1885 1.399 . S
C1886 C1887 1.385 . S
C1887 H1873 0.931 . S
C1887 C1886 1.385 . S
C1887 C1888 1.389 . S
C1888 C1887 1.389 . S
C1888 C1889 1.387 . S
C1889 H1874 0.930 . S
C1889 C1884 1.390 . S
C1889 C1888 1.387 . S
H1890 C1902 0.930 . S
H1891 C1904 0.930 . S
H1892 C1905 0.930 . S
H1893 C1909 0.959 . S
H1894 C1909 0.959 . S
H1895 C1909 0.961 . S
H1896 C1910 0.960 . S
H1897 C1910 0.961 . S
H1898 C1910 0.959 . S
H1899 C1913 0.929 . S
H1900 C1914 0.931 . S
H1901 C1916 0.930 . S
C1902 H1890 0.930 . S
C1902 C1903 1.399 . S
C1902 C1907 1.399 . S
C1903 C1902 1.399 . S
C1903 C1904 1.376 . S
C1904 H1891 0.930 . S
C1904 C1903 1.376 . S
C1904 C1905 1.388 . S
C1905 H1892 0.930 . S
C1905 C1904 1.388 . S
C1905 C1906 1.390 . S
C1906 C1905 1.390 . S
C1906 C1907 1.394 . S
C1906 C1912 1.465 . S
C1907 C1902 1.399 . S
C1907 C1906 1.394 . S
C1907 C1908 1.516 . S
C1908 C1907 1.516 . S
C1908 C1909 1.502 . S
C1908 C1910 1.561 . S
C1908 C1911 1.526 . S
C1909 H1893 0.959 . S
C1909 H1894 0.959 . S
C1909 H1895 0.961 . S
C1909 C1908 1.502 . S
C1910 H1896 0.960 . S
C1910 H1897 0.961 . S
C1910 H1898 0.959 . S
C1910 C1908 1.561 . S
C1911 C1908 1.526 . S
C1911 C1912 1.396 . S
C1911 C1916 1.390 . S
C1912 C1906 1.465 . S
C1912 C1911 1.396 . S
C1912 C1913 1.399 . S
C1913 H1899 0.929 . S
C1913 C1912 1.399 . S
C1913 C1914 1.385 . S
C1914 H1900 0.931 . S
C1914 C1913 1.385 . S
C1914 C1915 1.389 . S
C1915 C1914 1.389 . S
C1915 C1916 1.387 . S
C1916 H1901 0.930 . S
C1916 C1911 1.390 . S
C1916 C1915 1.387 . S
H1917 C1929 0.930 . S
H1918 C1931 0.930 . S
H1919 C1932 0.930 . S
H1920 C1936 0.959 . S
H1921 C1936 0.959 . S
H1922 C1936 0.961 . S
H1923 C1937 0.960 . S
H1924 C1937 0.961 . S
H1925 C1937 0.959 . S
H1926 C1940 0.929 . S
H1927 C1941 0.931 . S
H1928 C1943 0.930 . S
C1929 H1917 0.930 . S
C1929 C1930 1.399 . S
C1929 C1934 1.399 . S
C1930 C1929 1.399 . S
C1930 C1931 1.376 . S
C1931 H1918 0.930 . S
C1931 C1930 1.376 . S
C1931 C1932 1.388 . S
C1932 H1919 0.930 . S
C1932 C1931 1.388 . S
C1932 C1933 1.390 . S
C1933 C1932 1.390 . S
C1933 C1934 1.394 . S
C1933 C1939 1.465 . S
C1934 C1929 1.399 . S
C1934 C1933 1.394 . S
C1934 C1935 1.516 . S
C1935 C1934 1.516 . S
C1935 C1936 1.502 . S
C1935 C1937 1.561 . S
C1935 C1938 1.526 . S
C1936 H1920 0.959 . S
C1936 H1921 0.959 . S
C1936 H1922 0.961 . S
C1936 C1935 1.502 . S
C1937 H1923 0.960 . S
C1937 H1924 0.961 . S
C1937 H1925 0.959 . S
C1937 C1935 1.561 . S
C1938 C1935 1.526 . S
C1938 C1939 1.396 . S
C1938 C1943 1.390 . S
C1939 C1933 1.465 . S
C1939 C1938 1.396 . S
C1939 C1940 1.399 . S
C1940 H1926 0.929 . S
C1940 C1939 1.399 . S
C1940 C1941 1.385 . S
C1941 H1927 0.931 . S
C1941 C1940 1.385 . S
C1941 C1942 1.389 . S
C1942 C1941 1.389 . S
C1942 C1943 1.387 . S
C1943 H1928 0.930 . S
C1943 C1938 1.390 . S
C1943 C1942 1.387 . S
H1944 C1956 0.930 . S
H1945 C1958 0.930 . S
H1946 C1959 0.930 . S
H1947 C1963 0.959 . S
H1948 C1963 0.959 . S
H1949 C1963 0.961 . S
H1950 C1964 0.960 . S
H1951 C1964 0.961 . S
H1952 C1964 0.959 . S
H1953 C1967 0.929 . S
H1954 C1968 0.931 . S
H1955 C1970 0.930 . S
C1956 H1944 0.930 . S
C1956 C1957 1.399 . S
C1956 C1961 1.399 . S
C1957 C1956 1.399 . S
C1957 C1958 1.376 . S
C1958 H1945 0.930 . S
C1958 C1957 1.376 . S
C1958 C1959 1.388 . S
C1959 H1946 0.930 . S
C1959 C1958 1.388 . S
C1959 C1960 1.390 . S
C1960 C1959 1.390 . S
C1960 C1961 1.394 . S
C1960 C1966 1.465 . S
C1961 C1956 1.399 . S
C1961 C1960 1.394 . S
C1961 C1962 1.516 . S
C1962 C1961 1.516 . S
C1962 C1963 1.502 . S
C1962 C1964 1.561 . S
C1962 C1965 1.526 . S
C1963 H1947 0.959 . S
C1963 H1948 0.959 . S
C1963 H1949 0.961 . S
C1963 C1962 1.502 . S
C1964 H1950 0.960 . S
C1964 H1951 0.961 . S
C1964 H1952 0.959 . S
C1964 C1962 1.561 . S
C1965 C1962 1.526 . S
C1965 C1966 1.396 . S
C1965 C1970 1.390 . S
C1966 C1960 1.465 . S
C1966 C1965 1.396 . S
C1966 C1967 1.399 . S
C1967 H1953 0.929 . S
C1967 C1966 1.399 . S
C1967 C1968 1.385 . S
C1968 H1954 0.931 . S
C1968 C1967 1.385 . S
C1968 C1969 1.389 . S
C1969 C1968 1.389 . S
C1969 C1970 1.387 . S
C1970 H1955 0.930 . S
C1970 C1965 1.390 . S
C1970 C1969 1.387 . S
H1971 C1983 0.930 . S
H1972 C1985 0.930 . S
H1973 C1986 0.930 . S
H1974 C1990 0.959 . S
H1975 C1990 0.959 . S
H1976 C1990 0.961 . S
H1977 C1991 0.960 . S
H1978 C1991 0.961 . S
H1979 C1991 0.959 . S
H1980 C1994 0.929 . S
H1981 C1995 0.931 . S
H1982 C1997 0.930 . S
C1983 H1971 0.930 . S
C1983 C1984 1.399 . S
C1983 C1988 1.399 . S
C1984 C1983 1.399 . S
C1984 C1985 1.376 . S
C1985 H1972 0.930 . S
C1985 C1984 1.376 . S
C1985 C1986 1.388 . S
C1986 H1973 0.930 . S
C1986 C1985 1.388 . S
C1986 C1987 1.390 . S
C1987 C1986 1.390 . S
C1987 C1988 1.394 . S
C1987 C1993 1.465 . S
C1988 C1983 1.399 . S
C1988 C1987 1.394 . S
C1988 C1989 1.516 . S
C1989 C1988 1.516 . S
C1989 C1990 1.502 . S
C1989 C1991 1.561 . S
C1989 C1992 1.526 . S
C1990 H1974 0.959 . S
C1990 H1975 0.959 . S
C1990 H1976 0.961 . S
C1990 C1989 1.502 . S
C1991 H1977 0.960 . S
C1991 H1978 0.961 . S
C1991 H1979 0.959 . S
C1991 C1989 1.561 . S
C1992 C1989 1.526 . S
C1992 C1993 1.396 . S
C1992 C1997 1.390 . S
C1993 C1987 1.465 . S
C1993 C1992 1.396 . S
C1993 C1994 1.399 . S
C1994 H1980 0.929 . S
C1994 C1993 1.399 . S
C1994 C1995 1.385 . S
C1995 H1981 0.931 . S
C1995 C1994 1.385 . S
C1995 C1996 1.389 . S
C1996 C1995 1.389 . S
C1996 C1997 1.387 . S
C1997 H1982 0.930 . S
C1997 C1992 1.390 . S
C1997 C1996 1.387 . S
H1998 C2010 0.930 . S
H1999 C2012 0.930 . S
H2000 C2013 0.930 . S
H2001 C2017 0.959 . S
H2002 C2017 0.959 . S
H2003 C2017 0.961 . S
H2004 C2018 0.960 . S
H2005 C2018 0.961 . S
H2006 C2018 0.959 . S
H2007 C2021 0.929 . S
H2008 C2022 0.931 . S
H2009 C2024 0.930 . S
C2010 H1998 0.930 . S
C2010 C2011 1.399 . S
C2010 C2015 1.399 . S
C2011 C2010 1.399 . S
C2011 C2012 1.376 . S
C2012 H1999 0.930 . S
C2012 C2011 1.376 . S
C2012 C2013 1.388 . S
C2013 H2000 0.930 . S
C2013 C2012 1.388 . S
C2013 C2014 1.390 . S
C2014 C2013 1.390 . S
C2014 C2015 1.394 . S
C2014 C2020 1.465 . S
C2015 C2010 1.399 . S
C2015 C2014 1.394 . S
C2015 C2016 1.516 . S
C2016 C2015 1.516 . S
C2016 C2017 1.502 . S
C2016 C2018 1.561 . S
C2016 C2019 1.526 . S
C2017 H2001 0.959 . S
C2017 H2002 0.959 . S
C2017 H2003 0.961 . S
C2017 C2016 1.502 . S
C2018 H2004 0.960 . S
C2018 H2005 0.961 . S
C2018 H2006 0.959 . S
C2018 C2016 1.561 . S
C2019 C2016 1.526 . S
C2019 C2020 1.396 . S
C2019 C2024 1.390 . S
C2020 C2014 1.465 . S
C2020 C2019 1.396 . S
C2020 C2021 1.399 . S
C2021 H2007 0.929 . S
C2021 C2020 1.399 . S
C2021 C2022 1.385 . S
C2022 H2008 0.931 . S
C2022 C2021 1.385 . S
C2022 C2023 1.389 . S
C2023 C2022 1.389 . S
C2023 C2024 1.387 . S
C2024 H2009 0.930 . S
C2024 C2019 1.390 . S
C2024 C2023 1.387 . S
H2025 C2037 0.930 . S
H2026 C2039 0.930 . S
H2027 C2040 0.930 . S
H2028 C2044 0.959 . S
H2029 C2044 0.959 . S
H2030 C2044 0.961 . S
H2031 C2045 0.960 . S
H2032 C2045 0.961 . S
H2033 C2045 0.959 . S
H2034 C2048 0.929 . S
H2035 C2049 0.931 . S
H2036 C2051 0.930 . S
C2037 H2025 0.930 . S
C2037 C2038 1.399 . S
C2037 C2042 1.399 . S
C2038 C2037 1.399 . S
C2038 C2039 1.376 . S
C2039 H2026 0.930 . S
C2039 C2038 1.376 . S
C2039 C2040 1.388 . S
C2040 H2027 0.930 . S
C2040 C2039 1.388 . S
C2040 C2041 1.390 . S
C2041 C2040 1.390 . S
C2041 C2042 1.394 . S
C2041 C2047 1.465 . S
C2042 C2037 1.399 . S
C2042 C2041 1.394 . S
C2042 C2043 1.516 . S
C2043 C2042 1.516 . S
C2043 C2044 1.502 . S
C2043 C2045 1.561 . S
C2043 C2046 1.526 . S
C2044 H2028 0.959 . S
C2044 H2029 0.959 . S
C2044 H2030 0.961 . S
C2044 C2043 1.502 . S
C2045 H2031 0.960 . S
C2045 H2032 0.961 . S
C2045 H2033 0.959 . S
C2045 C2043 1.561 . S
C2046 C2043 1.526 . S
C2046 C2047 1.396 . S
C2046 C2051 1.390 . S
C2047 C2041 1.465 . S
C2047 C2046 1.396 . S
C2047 C2048 1.399 . S
C2048 H2034 0.929 . S
C2048 C2047 1.399 . S
C2048 C2049 1.385 . S
C2049 H2035 0.931 . S
C2049 C2048 1.385 . S
C2049 C2050 1.389 . S
C2050 C2049 1.389 . S
C2050 C2051 1.387 . S
C2051 H2036 0.930 . S
C2051 C2046 1.390 . S
C2051 C2050 1.387 . S
H2052 C2064 0.930 . S
H2053 C2066 0.930 . S
H2054 C2067 0.930 . S
H2055 C2071 0.959 . S
H2056 C2071 0.959 . S
H2057 C2071 0.961 . S
H2058 C2072 0.960 . S
H2059 C2072 0.961 . S
H2060 C2072 0.959 . S
H2061 C2075 0.929 . S
H2062 C2076 0.931 . S
H2063 C2078 0.930 . S
C2064 H2052 0.930 . S
C2064 C2065 1.399 . S
C2064 C2069 1.399 . S
C2065 C2064 1.399 . S
C2065 C2066 1.376 . S
C2066 H2053 0.930 . S
C2066 C2065 1.376 . S
C2066 C2067 1.388 . S
C2067 H2054 0.930 . S
C2067 C2066 1.388 . S
C2067 C2068 1.390 . S
C2068 C2067 1.390 . S
C2068 C2069 1.394 . S
C2068 C2074 1.465 . S
C2069 C2064 1.399 . S
C2069 C2068 1.394 . S
C2069 C2070 1.516 . S
C2070 C2069 1.516 . S
C2070 C2071 1.502 . S
C2070 C2072 1.561 . S
C2070 C2073 1.526 . S
C2071 H2055 0.959 . S
C2071 H2056 0.959 . S
C2071 H2057 0.961 . S
C2071 C2070 1.502 . S
C2072 H2058 0.960 . S
C2072 H2059 0.961 . S
C2072 H2060 0.959 . S
C2072 C2070 1.561 . S
C2073 C2070 1.526 . S
C2073 C2074 1.396 . S
C2073 C2078 1.390 . S
C2074 C2068 1.465 . S
C2074 C2073 1.396 . S
C2074 C2075 1.399 . S
C2075 H2061 0.929 . S
C2075 C2074 1.399 . S
C2075 C2076 1.385 . S
C2076 H2062 0.931 . S
C2076 C2075 1.385 . S
C2076 C2077 1.389 . S
C2077 C2076 1.389 . S
C2077 C2078 1.387 . S
C2078 H2063 0.930 . S
C2078 C2073 1.390 . S
C2078 C2077 1.387 . S
H2079 C2091 0.930 . S
H2080 C2093 0.930 . S
H2081 C2094 0.930 . S
H2082 C2098 0.959 . S
H2083 C2098 0.959 . S
H2084 C2098 0.961 . S
H2085 C2099 0.960 . S
H2086 C2099 0.961 . S
H2087 C2099 0.959 . S
H2088 C2102 0.929 . S
H2089 C2103 0.931 . S
H2090 C2105 0.930 . S
C2091 H2079 0.930 . S
C2091 C2092 1.399 . S
C2091 C2096 1.399 . S
C2092 C2091 1.399 . S
C2092 C2093 1.376 . S
C2093 H2080 0.930 . S
C2093 C2092 1.376 . S
C2093 C2094 1.388 . S
C2094 H2081 0.930 . S
C2094 C2093 1.388 . S
C2094 C2095 1.390 . S
C2095 C2094 1.390 . S
C2095 C2096 1.394 . S
C2095 C2101 1.465 . S
C2096 C2091 1.399 . S
C2096 C2095 1.394 . S
C2096 C2097 1.516 . S
C2097 C2096 1.516 . S
C2097 C2098 1.502 . S
C2097 C2099 1.561 . S
C2097 C2100 1.526 . S
C2098 H2082 0.959 . S
C2098 H2083 0.959 . S
C2098 H2084 0.961 . S
C2098 C2097 1.502 . S
C2099 H2085 0.960 . S
C2099 H2086 0.961 . S
C2099 H2087 0.959 . S
C2099 C2097 1.561 . S
C2100 C2097 1.526 . S
C2100 C2101 1.396 . S
C2100 C2105 1.390 . S
C2101 C2095 1.465 . S
C2101 C2100 1.396 . S
C2101 C2102 1.399 . S
C2102 H2088 0.929 . S
C2102 C2101 1.399 . S
C2102 C2103 1.385 . S
C2103 H2089 0.931 . S
C2103 C2102 1.385 . S
C2103 C2104 1.389 . S
C2104 C2103 1.389 . S
C2104 C2105 1.387 . S
C2105 H2090 0.930 . S
C2105 C2100 1.390 . S
C2105 C2104 1.387 . S
H2106 C2118 0.930 . S
H2107 C2120 0.930 . S
H2108 C2121 0.930 . S
H2109 C2125 0.959 . S
H2110 C2125 0.959 . S
H2111 C2125 0.961 . S
H2112 C2126 0.960 . S
H2113 C2126 0.961 . S
H2114 C2126 0.959 . S
H2115 C2129 0.929 . S
H2116 C2130 0.931 . S
H2117 C2132 0.930 . S
C2118 H2106 0.930 . S
C2118 C2119 1.399 . S
C2118 C2123 1.399 . S
C2119 C2118 1.399 . S
C2119 C2120 1.376 . S
C2120 H2107 0.930 . S
C2120 C2119 1.376 . S
C2120 C2121 1.388 . S
C2121 H2108 0.930 . S
C2121 C2120 1.388 . S
C2121 C2122 1.390 . S
C2122 C2121 1.390 . S
C2122 C2123 1.394 . S
C2122 C2128 1.465 . S
C2123 C2118 1.399 . S
C2123 C2122 1.394 . S
C2123 C2124 1.516 . S
C2124 C2123 1.516 . S
C2124 C2125 1.502 . S
C2124 C2126 1.561 . S
C2124 C2127 1.526 . S
C2125 H2109 0.959 . S
C2125 H2110 0.959 . S
C2125 H2111 0.961 . S
C2125 C2124 1.502 . S
C2126 H2112 0.960 . S
C2126 H2113 0.961 . S
C2126 H2114 0.959 . S
C2126 C2124 1.561 . S
C2127 C2124 1.526 . S
C2127 C2128 1.396 . S
C2127 C2132 1.390 . S
C2128 C2122 1.465 . S
C2128 C2127 1.396 . S
C2128 C2129 1.399 . S
C2129 H2115 0.929 . S
C2129 C2128 1.399 . S
C2129 C2130 1.385 . S
C2130 H2116 0.931 . S
C2130 C2129 1.385 . S
C2130 C2131 1.389 . S
C2131 C2130 1.389 . S
C2131 C2132 1.387 . S
C2132 H2117 0.930 . S
C2132 C2127 1.390 . S
C2132 C2131 1.387 . S
H2133 C2145 0.930 . S
H2134 C2147 0.930 . S
H2135 C2148 0.930 . S
H2136 C2152 0.959 . S
H2137 C2152 0.959 . S
H2138 C2152 0.961 . S
H2139 C2153 0.960 . S
H2140 C2153 0.961 . S
H2141 C2153 0.959 . S
H2142 C2156 0.929 . S
H2143 C2157 0.931 . S
H2144 C2159 0.930 . S
C2145 H2133 0.930 . S
C2145 C2146 1.399 . S
C2145 C2150 1.399 . S
C2146 C2145 1.399 . S
C2146 C2147 1.376 . S
C2147 H2134 0.930 . S
C2147 C2146 1.376 . S
C2147 C2148 1.388 . S
C2148 H2135 0.930 . S
C2148 C2147 1.388 . S
C2148 C2149 1.390 . S
C2149 C2148 1.390 . S
C2149 C2150 1.394 . S
C2149 C2155 1.465 . S
C2150 C2145 1.399 . S
C2150 C2149 1.394 . S
C2150 C2151 1.516 . S
C2151 C2150 1.516 . S
C2151 C2152 1.502 . S
C2151 C2153 1.561 . S
C2151 C2154 1.526 . S
C2152 H2136 0.959 . S
C2152 H2137 0.959 . S
C2152 H2138 0.961 . S
C2152 C2151 1.502 . S
C2153 H2139 0.960 . S
C2153 H2140 0.961 . S
C2153 H2141 0.959 . S
C2153 C2151 1.561 . S
C2154 C2151 1.526 . S
C2154 C2155 1.396 . S
C2154 C2159 1.390 . S
C2155 C2149 1.465 . S
C2155 C2154 1.396 . S
C2155 C2156 1.399 . S
C2156 H2142 0.929 . S
C2156 C2155 1.399 . S
C2156 C2157 1.385 . S
C2157 H2143 0.931 . S
C2157 C2156 1.385 . S
C2157 C2158 1.389 . S
C2158 C2157 1.389 . S
C2158 C2159 1.387 . S
C2159 H2144 0.930 . S
C2159 C2154 1.390 . S
C2159 C2158 1.387 . S
C889 C689 1.535 . S
C877 C74 1.458 . S
C916 C694 0.752 . S
C904 C142 0.903 . S
C943 C695 1.505 . S
C931 C231 1.392 . S
C958 C322 1.318 . S
C970 C699 1.345 . S
C985 C406 0.899 . S
C997 C702 0.784 . S
C1024 C703 1.519 . S
C1012 C494 1.397 . S
C1039 C562 1.234 . S
C1051 C680 1.380 . S
C1066 C651 1.453 . S
C1078 C696 1.530 . S
C1105 C734 1.317 . S
C1093 C58 1.286 . S
C1120 C151 1.499 . S
C1132 C760 1.519 . S
C1159 C712 2.401 . S
C1147 C224 2.379 . S
C1186 C767 1.392 . S
C1174 C315 1.364 . S
C1201 C399 1.429 . S
C1213 C721 1.390 . S
C1240 C763 1.380 . S
C1228 C478 1.336 . S
C1255 C571 1.507 . S
C1267 C727 1.502 . S
C1282 C644 2.375 . S
C1294 C758 2.406 . S
C1309 C67 2.355 . S
C1321 C766 2.442 . S
C1336 C392 1.521 . S
C1348 C753 1.515 . S
C1375 C731 2.425 . S
C1363 C487 2.387 . S
C1402 C759 1.379 . S
C1390 C578 1.412 . S
C1417 C658 1.349 . S
C1429 C726 1.345 . S
C1444 C238 1.223 . S
C1456 C744 1.344 . S
C1483 C735 1.526 . S
C1471 C308 1.410 . S
C1498 C158 1.369 . S
C1510 C728 1.446 . S
C1525 C662 1.441 . S
C1537 C790 1.414 . S
C1552 C394 0.900 . S
C1564 C785 0.372 . S
C1591 C799 1.408 . S
C1579 C483 1.373 . S
C1618 C776 1.366 . S
C1606 C574 1.237 . S
C1633 C154 0.923 . S
C1645 C792 0.414 . S
C1672 C791 1.375 . S
C1660 C242 1.447 . S
C1687 C310 1.193 . S
C1699 C795 1.292 . S
C1714 C63 1.413 . S
C1726 C798 1.474 . S
C1741 C646 1.315 . S
C1753 C824 1.373 . S
C1780 C840 1.530 . S
C1768 C403 1.540 . S
C1795 C476 2.356 . S
C1807 C822 2.482 . S
C1822 C567 1.387 . S
C1834 C855 1.414 . S
C1861 C831 1.382 . S
C1849 C147 1.412 . S
C1876 C226 1.364 . S
C1888 C849 1.389 . S
C1915 C827 1.470 . S
C1903 C319 1.420 . S
C1942 C862 2.444 . S
C1930 C56 2.400 . S
C1969 C854 2.447 . S
C1957 C655 2.378 . S
C1984 C140 1.523 . S
C1996 C859 1.537 . S
C2011 C235 2.367 . S
C2023 C830 2.476 . S
C2050 C863 1.406 . S
C2038 C326 1.426 . S
C2065 C70 1.354 . S
C2077 C817 1.359 . S
C2092 C490 1.244 . S
C2104 C856 1.311 . S
C2131 C808 1.503 . S
C2119 C560 1.485 . S
C2158 C823 1.377 . S
C2146 C410 1.333 . S
