# Generated by pormake.
# Topology csq, (4,8)-cn, num edge types: 1
# Building blocks:
#     Node 0, Type 0, BuildingBlock: MUDLON_clean_sbu_0, # of connection points: 4
#     Node 1, Type 0, BuildingBlock: MUDLON_clean_sbu_0, # of connection points: 4
#     Node 2, Type 0, BuildingBlock: MUDLON_clean_sbu_0, # of connection points: 4
#     Node 3, Type 0, BuildingBlock: MUDLON_clean_sbu_0, # of connection points: 4
#     Node 4, Type 0, BuildingBlock: MUDLON_clean_sbu_0, # of connection points: 4
#     Node 5, Type 0, BuildingBlock: MUDLON_clean_sbu_0, # of connection points: 4
#     Node 6, Type 1, BuildingBlock: TAGTUT_clean_sbu_1, # of connection points: 8
#     Node 7, Type 1, BuildingBlock: TAGTUT_clean_sbu_1, # of connection points: 8
#     Node 8, Type 1, BuildingBlock: TAGTUT_clean_sbu_1, # of connection points: 8
#     Edge 9, Type (0, 1), BuildingBlock: OJICUG_clean_linker_0, # of connection points: 2
#     Edge 10, Type (0, 1), BuildingBlock: OJICUG_clean_linker_0, # of connection points: 2
#     Edge 11, Type (0, 1), BuildingBlock: OJICUG_clean_linker_0, # of connection points: 2
#     Edge 12, Type (0, 1), BuildingBlock: OJICUG_clean_linker_0, # of connection points: 2
#     Edge 13, Type (0, 1), BuildingBlock: OJICUG_clean_linker_0, # of connection points: 2
#     Edge 14, Type (0, 1), BuildingBlock: OJICUG_clean_linker_0, # of connection points: 2
#     Edge 15, Type (0, 1), BuildingBlock: OJICUG_clean_linker_0, # of connection points: 2
#     Edge 16, Type (0, 1), BuildingBlock: OJICUG_clean_linker_0, # of connection points: 2
#     Edge 17, Type (0, 1), BuildingBlock: OJICUG_clean_linker_0, # of connection points: 2
#     Edge 18, Type (0, 1), BuildingBlock: OJICUG_clean_linker_0, # of connection points: 2
#     Edge 19, Type (0, 1), BuildingBlock: OJICUG_clean_linker_0, # of connection points: 2
#     Edge 20, Type (0, 1), BuildingBlock: OJICUG_clean_linker_0, # of connection points: 2
#     Edge 21, Type (0, 1), BuildingBlock: OJICUG_clean_linker_0, # of connection points: 2
#     Edge 22, Type (0, 1), BuildingBlock: OJICUG_clean_linker_0, # of connection points: 2
#     Edge 23, Type (0, 1), BuildingBlock: OJICUG_clean_linker_0, # of connection points: 2
#     Edge 24, Type (0, 1), BuildingBlock: OJICUG_clean_linker_0, # of connection points: 2
#     Edge 25, Type (0, 1), BuildingBlock: OJICUG_clean_linker_0, # of connection points: 2
#     Edge 26, Type (0, 1), BuildingBlock: OJICUG_clean_linker_0, # of connection points: 2
#     Edge 27, Type (0, 1), BuildingBlock: OJICUG_clean_linker_0, # of connection points: 2
#     Edge 28, Type (0, 1), BuildingBlock: OJICUG_clean_linker_0, # of connection points: 2
#     Edge 29, Type (0, 1), BuildingBlock: OJICUG_clean_linker_0, # of connection points: 2
#     Edge 30, Type (0, 1), BuildingBlock: OJICUG_clean_linker_0, # of connection points: 2
#     Edge 31, Type (0, 1), BuildingBlock: OJICUG_clean_linker_0, # of connection points: 2
#     Edge 32, Type (0, 1), BuildingBlock: OJICUG_clean_linker_0, # of connection points: 2
# Relax obj value: 0.062
# Max RMSD: 0.133
# Mean RMSD: 0.096
data_MOF--net-csq--node1-MUDLON_clean_sbu_0--node2-TAGTUT_clean_sbu_1--edge1-OJICUG_clean_linker_0
_symmetry_space_group_name_H-M    P1
_symmetry_Int_Tables_number       1
_symmetry_cell_setting            triclinic
loop_
_symmetry_equiv_pos_as_xyz
'x, y, z'
_cell_length_a     37.547059
_cell_length_b     37.406877
_cell_length_c     15.463431
_cell_angle_alpha  93.07539
_cell_angle_beta   93.083364
_cell_angle_gamma 120.43845
loop_
_atom_site_label
_atom_site_type_symbol
_atom_site_fract_x
_atom_site_fract_y
_atom_site_fract_z
_atom_type_partial_charge
Mg0 Mg 0.23402 0.46808 0.19533 0.0
C1 C 0.18061 0.42039 0.01691 0.0
O2 O 0.21122 0.41573 0.99403 0.0
C3 C 0.26216 0.42537 0.34709 0.0
O4 O 0.23032 0.38727 0.33111 0.0
C5 C 0.19124 0.48187 0.33784 0.0
O6 O 0.19143 0.44793 0.35468 0.0
O7 O 0.20971 0.50081 0.27304 0.0
O8 O 0.18041 0.43222 0.09604 0.0
O9 O 0.28486 0.49636 0.11085 0.0
C10 C 0.29398 0.46881 0.08856 0.0
O11 O 0.27507 0.4331 0.12296 0.0
O12 O 0.26525 0.4539 0.30124 0.0
Mg13 Mg 0.78105 0.26237 0.19037 0.0
C14 C 0.84537 0.26756 0.07484 0.0
O15 O 0.81386 0.23222 0.03866 0.0
C16 C 0.74485 0.23914 0.35963 0.0
O17 O 0.734 0.26596 0.33736 0.0
C18 C 0.80305 0.35701 0.24041 0.0
O19 O 0.79046 0.38368 0.23059 0.0
O20 O 0.77909 0.31971 0.20585 0.0
O21 O 0.8415 0.28337 0.1459 0.0
O22 O 0.73109 0.21531 0.09215 0.0
C23 C 0.72379 0.21679 0.01099 0.0
O24 O 0.74785 0.25087 0.97448 0.0
O25 O 0.7683 0.23299 0.31225 0.0
Mg26 Mg 0.51333 0.75844 0.06494 0.0
C27 C 0.55661 0.83174 0.20366 0.0
O28 O 0.58741 0.82666 0.18351 0.0
C29 C 0.54456 0.72344 0.92448 0.0
O30 O 0.57809 0.75983 0.94713 0.0
C31 C 0.54884 0.83929 0.96662 0.0
O32 O 0.58323 0.84512 0.00739 0.0
O33 O 0.51508 0.80538 0.97248 0.0
O34 O 0.51981 0.80454 0.17382 0.0
O35 O 0.50937 0.70966 0.15618 0.0
C36 C 0.53777 0.7005 0.15682 0.0
O37 O 0.57045 0.72283 0.11509 0.0
O38 O 0.51082 0.71506 0.95549 0.0
Mg39 Mg 0.77241 0.53978 0.08202 0.0
C40 C 0.75093 0.56436 0.90526 0.0
O41 O 0.77403 0.55099 0.87266 0.0
C42 C 0.81441 0.54462 0.2443 0.0
O43 O 0.7874 0.50559 0.21685 0.0
C44 C 0.694 0.4843 0.20066 0.0
O45 O 0.68782 0.4473 0.17573 0.0
O46 O 0.7216 0.51633 0.16836 0.0
O47 O 0.75083 0.56879 0.9878 0.0
O48 O 0.8052 0.51342 0.01163 0.0
C49 C 0.79847 0.49281 0.93795 0.0
O50 O 0.76166 0.47531 0.89453 0.0
O51 O 0.81874 0.57262 0.19476 0.0
Mg52 Mg 0.24018 0.76299 0.12325 0.0
C53 C 0.18917 0.66987 0.07057 0.0
O54 O 0.17541 0.6669 0.14768 0.0
C55 C 0.2986 0.80218 0.30475 0.0
O56 O 0.26725 0.77666 0.34654 0.0
C57 C 0.17417 0.75733 0.24432 0.0
O58 O 0.20447 0.79086 0.28914 0.0
O59 O 0.18059 0.74523 0.17168 0.0
O60 O 0.22327 0.70234 0.05796 0.0
O61 O 0.2575 0.80069 0.01209 0.0
C62 C 0.28087 0.79417 0.96483 0.0
O63 O 0.2899 0.76589 0.98569 0.0
O64 O 0.29461 0.79935 0.22155 0.0
Mg65 Mg 0.48785 0.25076 0.22704 0.0
C66 C 0.43175 0.26538 0.33947 0.0
O67 O 0.43272 0.23714 0.38477 0.0
C68 C 0.48118 0.1842 0.11966 0.0
O69 O 0.51837 0.20337 0.1619 0.0
C70 C 0.53566 0.34036 0.19032 0.0
O71 O 0.52969 0.3463 0.27145 0.0
O72 O 0.53115 0.30524 0.16392 0.0
O73 O 0.44741 0.27213 0.26748 0.0
O74 O 0.50354 0.21982 0.32868 0.0
C75 C 0.47253 0.18347 0.33507 0.0
O76 O 0.43727 0.17265 0.29014 0.0
O77 O 0.45856 0.20025 0.12641 0.0
C78 C 0.95677 0.38292 0.851 0.0
C79 C 0.07606 0.44671 0.77364 0.0
C80 C 0.06119 0.58526 0.7835 0.0
Mg81 Mg 0.98847 0.40769 0.66908 0.0
O82 O 0.98783 0.45584 0.7085 0.0
Mg83 Mg 0.01585 0.48584 0.82585 0.0
Mg84 Mg 0.00417 0.50435 0.63891 0.0
O85 O 0.0207 0.55327 0.57028 0.0
Mg86 Mg 0.018 0.59991 0.61164 0.0
Mg87 Mg 0.994 0.52506 0.45225 0.0
C88 C 0.94652 0.42336 0.49334 0.0
C89 C 0.06845 0.50688 0.49685 0.0
O90 O 0.97829 0.42152 0.88073 0.0
O91 O 0.95391 0.3708 0.77032 0.0
O92 O 0.06728 0.47175 0.81299 0.0
O93 O 0.0517 0.42025 0.71039 0.0
O94 O 0.95394 0.39892 0.53742 0.0
O95 O 0.96164 0.46198 0.52094 0.0
C96 C 0.94131 0.50395 0.78292 0.0
O97 O 0.94934 0.50804 0.70272 0.0
O98 O 0.9631 0.49692 0.83771 0.0
O99 O 0.03233 0.59159 0.40063 0.0
O100 O 0.05285 0.63936 0.51568 0.0
O101 O 0.94095 0.53715 0.46659 0.0
C102 C 0.05258 0.62969 0.43484 0.0
O103 O 0.95469 0.58608 0.57436 0.0
O104 O 0.05222 0.60883 0.74059 0.0
C105 C 0.93088 0.56002 0.51047 0.0
O106 O 0.04765 0.54707 0.75587 0.0
O107 O 0.05809 0.49991 0.57509 0.0
O108 O 0.04826 0.51587 0.44196 0.0
C109 C 0.4414 0.03955 0.9021 0.0
C110 C 0.39039 0.91997 0.76147 0.0
C111 C 0.55361 0.96363 0.75325 0.0
Mg112 Mg 0.42794 0.00903 0.70721 0.0
O113 O 0.48188 0.01989 0.73776 0.0
Mg114 Mg 0.49076 0.99049 0.83347 0.0
Mg115 Mg 0.51337 0.01129 0.6493 0.0
O116 O 0.54479 0.00242 0.56132 0.0
Mg117 Mg 0.59905 0.01408 0.59206 0.0
Mg118 Mg 0.53494 0.03002 0.46347 0.0
C119 C 0.47377 0.06026 0.54612 0.0
C120 C 0.44608 0.9472 0.48607 0.0
O121 O 0.46249 0.02167 0.91671 0.0
O122 O 0.42588 0.03914 0.82597 0.0
O123 O 0.42572 0.93266 0.80293 0.0
O124 O 0.38375 0.94341 0.71428 0.0
O125 O 0.4421 0.04388 0.59092 0.0
O126 O 0.50494 0.05513 0.56119 0.0
C127 C 0.58059 0.07311 0.81484 0.0
O128 O 0.57343 0.06734 0.73119 0.0
O129 O 0.55414 0.048 0.86291 0.0
O130 O 0.56208 0.99637 0.38194 0.0
O131 O 0.60096 0.98254 0.47512 0.0
O132 O 0.59949 0.08866 0.49351 0.0
C133 C 0.58373 0.97926 0.39904 0.0
O134 O 0.64171 0.08015 0.58638 0.0
O135 O 0.58563 0.98033 0.70962 0.0
C136 C 0.63442 0.10279 0.53796 0.0
O137 O 0.52194 0.96764 0.73575 0.0
O138 O 0.45337 0.95475 0.56941 0.0
O139 O 0.47194 0.97178 0.43643 0.0
C140 C 0.53128 0.57201 0.35573 0.0
C141 C 0.59595 0.51146 0.44422 0.0
C142 C 0.45246 0.39918 0.56736 0.0
Mg143 Mg 0.57057 0.56961 0.53606 0.0
O144 O 0.51511 0.52631 0.53785 0.0
Mg145 Mg 0.49347 0.47924 0.44439 0.0
Mg146 Mg 0.50325 0.49625 0.64462 0.0
O147 O 0.49324 0.46754 0.75357 0.0
Mg148 Mg 0.44387 0.41935 0.76912 0.0
Mg149 Mg 0.514 0.5152 0.84615 0.0
C150 C 0.54967 0.59252 0.72422 0.0
C151 C 0.59466 0.52936 0.75296 0.0
O152 O 0.50601 0.53213 0.34939 0.0
O153 O 0.55799 0.59182 0.42123 0.0
O154 O 0.55718 0.48759 0.4227 0.0
O155 O 0.60962 0.54462 0.49579 0.0
O156 O 0.57322 0.6031 0.66117 0.0
O157 O 0.51995 0.55499 0.72853 0.0
C158 C 0.4138 0.46933 0.53506 0.0
O159 O 0.43328 0.47813 0.61157 0.0
O160 O 0.43097 0.46939 0.46616 0.0
O161 O 0.51154 0.46787 0.94621 0.0
O162 O 0.47034 0.40379 0.87673 0.0
O163 O 0.4481 0.50089 0.87333 0.0
C164 C 0.49609 0.42804 0.94055 0.0
O165 O 0.40102 0.43724 0.8144 0.0
O166 O 0.43525 0.38918 0.63891 0.0
C167 C 0.4104 0.47134 0.85806 0.0
O168 O 0.48319 0.43603 0.55914 0.0
O169 O 0.57411 0.51569 0.67724 0.0
O170 O 0.57731 0.53052 0.82066 0.0
C171 C 0.14787 0.47401 0.46223 0.0
C172 C 0.16487 0.49344 0.38679 0.0
H173 H 0.1045 0.46327 0.5574 0.0
C174 C 0.15298 0.52052 0.35444 0.0
H175 H 0.15655 0.4531 0.48935 0.0
C176 C 0.12299 0.52598 0.39308 0.0
C177 C 0.1043 0.50485 0.46566 0.0
H178 H 0.16538 0.53603 0.29684 0.0
H179 H 0.11356 0.54602 0.36426 0.0
C180 C 0.11809 0.47985 0.50161 0.0
C181 C 0.7331 0.18091 0.45065 0.0
C182 C 0.72266 0.21035 0.42582 0.0
H183 H 0.71347 0.12393 0.50963 0.0
C184 C 0.68703 0.20839 0.45574 0.0
H185 H 0.7605 0.18177 0.42929 0.0
C186 C 0.66 0.17513 0.50067 0.0
C187 C 0.66853 0.1437 0.51856 0.0
H188 H 0.67817 0.2307 0.4386 0.0
H189 H 0.63097 0.17244 0.5161 0.0
C190 C 0.70638 0.14801 0.49742 0.0
C191 C 0.49629 0.63421 0.22954 0.0
C192 C 0.53404 0.66445 0.20065 0.0
H193 H 0.46525 0.57959 0.29895 0.0
C194 C 0.5688 0.65979 0.21289 0.0
H195 H 0.46879 0.63658 0.22013 0.0
C196 C 0.56664 0.62731 0.25734 0.0
C197 C 0.5295 0.59807 0.28914 0.0
H198 H 0.59828 0.68217 0.19096 0.0
H199 H 0.59464 0.62608 0.2703 0.0
C200 C 0.49399 0.60115 0.27311 0.0
C201 C 0.87599 0.59209 0.35321 0.0
C202 C 0.83999 0.55337 0.32826 0.0
H203 H 0.9331 0.62516 0.43619 0.0
C204 C 0.83011 0.52046 0.38079 0.0
H205 H 0.88438 0.61808 0.31464 0.0
C206 C 0.85771 0.52457 0.45015 0.0
C207 C 0.89552 0.56191 0.46994 0.0
H208 H 0.80227 0.49032 0.36477 0.0
H209 H 0.85118 0.49736 0.48326 0.0
C210 C 0.90354 0.59633 0.4238 0.0
C211 C 0.34066 0.84533 0.44515 0.0
C212 C 0.33704 0.83747 0.35373 0.0
H213 H 0.37752 0.88589 0.55931 0.0
C214 C 0.3698 0.86539 0.30819 0.0
H215 H 0.31599 0.8246 0.48259 0.0
C216 C 0.40462 0.90037 0.35181 0.0
C217 C 0.4082 0.90893 0.44292 0.0
H218 H 0.36843 0.86062 0.23808 0.0
H219 H 0.42882 0.92092 0.31319 0.0
C220 C 0.37587 0.88061 0.48929 0.0
C221 C 0.4072 0.2904 0.46129 0.0
C222 C 0.4263 0.29788 0.3838 0.0
H223 H 0.39955 0.31661 0.57896 0.0
C224 C 0.44722 0.33878 0.35864 0.0
H225 H 0.39031 0.25917 0.48152 0.0
C226 C 0.45401 0.37224 0.41603 0.0
C227 C 0.43859 0.365 0.49781 0.0
H228 H 0.46135 0.34543 0.2979 0.0
H229 H 0.47316 0.40363 0.39828 0.0
C230 C 0.41283 0.32357 0.51727 0.0
C231 C 0.51262 0.87061 0.88623 0.0
C232 C 0.54957 0.87249 0.91696 0.0
H233 H 0.48485 0.89867 0.81225 0.0
C234 C 0.58767 0.90688 0.90063 0.0
H235 H 0.48275 0.8448 0.8987 0.0
C236 C 0.58886 0.93763 0.85136 0.0
C237 C 0.552 0.93508 0.8179 0.0
H238 H 0.61674 0.9096 0.92403 0.0
H239 H 0.61879 0.96291 0.83752 0.0
C240 C 0.51383 0.90175 0.83763 0.0
C241 C 0.69704 0.53274 0.77655 0.0
C242 C 0.71711 0.56309 0.84839 0.0
H243 H 0.64167 0.49787 0.68792 0.0
C244 C 0.70032 0.58754 0.8734 0.0
H245 H 0.70929 0.51329 0.75587 0.0
C246 C 0.66248 0.5794 0.83313 0.0
C247 C 0.63987 0.5459 0.76837 0.0
H248 H 0.71518 0.61132 0.9277 0.0
H249 H 0.64913 0.59722 0.858 0.0
C250 C 0.65843 0.52397 0.73707 0.0
C251 C 0.15983 0.66514 0.91871 0.0
C252 C 0.15856 0.64558 0.99451 0.0
H253 H 0.12952 0.66187 0.79503 0.0
C254 C 0.12487 0.60511 1.00034 0.0
H255 H 0.18489 0.69648 0.91231 0.0
C256 C 0.09317 0.58477 0.93166 0.0
C257 C 0.09382 0.6053 0.85768 0.0
H258 H 0.12283 0.58942 0.05835 0.0
H259 H 0.06769 0.55361 0.93743 0.0
C260 C 0.12767 0.64552 0.85193 0.0
C261 C 0.43244 0.12712 0.00721 0.0
C262 C 0.4653 0.14311 0.07286 0.0
H263 H 0.39799 0.08032 0.90183 0.0
C264 C 0.48408 0.11991 0.09271 0.0
H265 H 0.41693 0.1441 0.99205 0.0
C266 C 0.47283 0.08314 0.04259 0.0
C267 C 0.44304 0.06933 0.97077 0.0
H268 H 0.50865 0.13095 0.14505 0.0
H269 H 0.48983 0.06747 0.05622 0.0
C270 C 0.42145 0.09048 0.95619 0.0
C271 C 0.35865 0.51025 0.01196 0.0
C272 C 0.32117 0.47318 0.01892 0.0
H273 H 0.41671 0.53897 0.955 0.0
C274 C 0.31111 0.43763 0.96365 0.0
H275 H 0.36717 0.53806 0.05387 0.0
C276 C 0.3388 0.43817 0.90633 0.0
C277 C 0.37783 0.47411 0.90388 0.0
H278 H 0.28222 0.40867 0.96688 0.0
H279 H 0.33044 0.40952 0.86776 0.0
C280 C 0.38695 0.51063 0.95536 0.0
C281 C 0.90903 0.33537 0.05531 0.0
C282 C 0.87945 0.29428 0.02264 0.0
H283 H 0.95653 0.39556 0.02693 0.0
C284 C 0.87898 0.28133 0.93535 0.0
H285 H 0.91043 0.34635 0.12239 0.0
C286 C 0.90536 0.30969 0.88032 0.0
C287 C 0.93277 0.35159 0.91145 0.0
H288 H 0.8567 0.24987 0.90816 0.0
H289 H 0.90293 0.2991 0.81251 0.0
C290 C 0.93534 0.36371 1.0003 0.0
C291 C 0.873 0.51199 0.94469 0.0
C292 C 0.83449 0.49534 0.89573 0.0
H293 H 0.9365 0.52881 0.94692 0.0
C294 C 0.83206 0.48439 0.80578 0.0
H295 H 0.87644 0.52128 0.01363 0.0
C296 C 0.86721 0.48934 0.76656 0.0
C297 C 0.90535 0.50501 0.81675 0.0
H298 H 0.80305 0.47208 0.76562 0.0
H299 H 0.86416 0.47956 0.69802 0.0
C300 C 0.90769 0.51665 0.90599 0.0
C301 C 0.33471 0.81833 0.85889 0.0
C302 C 0.30264 0.82124 0.89562 0.0
H303 H 0.38755 0.84732 0.7856 0.0
C304 C 0.29474 0.85241 0.87113 0.0
H305 H 0.3415 0.79448 0.87533 0.0
C306 C 0.32063 0.88207 0.81698 0.0
C307 C 0.35519 0.88142 0.78781 0.0
H308 H 0.27008 0.85528 0.89755 0.0
H309 H 0.31588 0.90769 0.80483 0.0
C310 C 0.36095 0.84833 0.80648 0.0
C311 C 0.52359 0.353 0.03673 0.0
C312 C 0.53277 0.36716 0.12559 0.0
H313 H 0.50429 0.36069 0.91 0.0
C314 C 0.53285 0.40387 0.15258 0.0
H315 H 0.52306 0.32493 0.01318 0.0
C316 C 0.52244 0.42487 0.09263 0.0
C317 C 0.5107 0.40895 0.00487 0.0
H318 H 0.53935 0.41552 0.22059 0.0
H319 H 0.52181 0.45239 0.11558 0.0
C320 C 0.51233 0.37333 0.97753 0.0
C321 C 0.15758 0.46533 0.95157 0.0
C322 C 0.15597 0.42704 0.9482 0.0
H323 H 0.13651 0.50281 0.89518 0.0
C324 C 0.13339 0.39753 0.8766 0.0
H325 H 0.17597 0.48929 0.00413 0.0
C326 C 0.10977 0.40494 0.81373 0.0
C327 C 0.1095 0.44255 0.82023 0.0
H328 H 0.13258 0.36814 0.87134 0.0
H329 H 0.09005 0.38041 0.76323 0.0
C330 C 0.13536 0.47325 0.88794 0.0
C331 C 0.68002 0.17981 0.86779 0.0
C332 C 0.68839 0.17984 0.95806 0.0
H333 H 0.63992 0.14624 0.75083 0.0
C334 C 0.66231 0.14391 0.99808 0.0
H335 H 0.69956 0.20686 0.83444 0.0
C336 C 0.62848 0.10948 0.95043 0.0
C337 C 0.6193 0.10948 0.8607 0.0
H338 H 0.66769 0.14238 0.06695 0.0
H339 H 0.60913 0.08277 0.9849 0.0
C340 C 0.64592 0.14498 0.81957 0.0
C341 C 0.58135 0.69944 0.82835 0.0
C342 C 0.54743 0.69015 0.87617 0.0
H343 H 0.60917 0.67558 0.74329 0.0
C344 C 0.51688 0.64837 0.88111 0.0
H345 H 0.60566 0.7314 0.82464 0.0
C346 C 0.51933 0.6165 0.83649 0.0
C347 C 0.55207 0.62569 0.78479 0.0
H348 H 0.49085 0.64017 0.91922 0.0
H349 H 0.49447 0.58475 0.83972 0.0
C350 C 0.58354 0.66747 0.78253 0.0
C351 C 0.51253 0.15638 0.42033 0.0
C352 C 0.47476 0.1521 0.38706 0.0
H353 H 0.54213 0.1299 0.49497 0.0
C354 C 0.43758 0.11568 0.40033 0.0
H355 H 0.54174 0.18374 0.41026 0.0
C356 C 0.43779 0.0851 0.44773 0.0
C357 C 0.4752 0.08958 0.4831 0.0
H358 H 0.40783 0.1109 0.37527 0.0
H359 H 0.40832 0.05818 0.45843 0.0
C360 C 0.51275 0.12524 0.4676 0.0
C361 C 0.32544 0.47789 0.44343 0.0
C362 C 0.29641 0.43587 0.41545 0.0
H363 H 0.38539 0.52154 0.5085 0.0
C364 C 0.30286 0.40494 0.4476 0.0
H365 H 0.32127 0.50258 0.42093 0.0
C366 C 0.33961 0.41605 0.49904 0.0
C367 C 0.37013 0.45817 0.52054 0.0
H368 H 0.28115 0.37233 0.42764 0.0
H369 H 0.34587 0.39179 0.51518 0.0
C370 C 0.36188 0.48888 0.49527 0.0
C371 C 0.87205 0.41514 0.30641 0.0
C372 C 0.84368 0.37196 0.29244 0.0
H373 H 0.9267 0.46492 0.37764 0.0
C374 C 0.85296 0.34529 0.3364 0.0
H375 H 0.86643 0.43682 0.27306 0.0
C376 C 0.88808 0.36174 0.39759 0.0
C377 C 0.91479 0.40523 0.4159 0.0
H378 H 0.83198 0.31198 0.32742 0.0
H379 H 0.89293 0.34038 0.43398 0.0
C380 C 0.90695 0.43146 0.36676 0.0
C381 C 0.5363 0.88459 0.23835 0.0
C382 C 0.56524 0.87148 0.24852 0.0
H383 H 0.52043 0.93032 0.27525 0.0
C384 C 0.60313 0.89753 0.29863 0.0
H385 H 0.50722 0.86559 0.19836 0.0
C386 C 0.61077 0.93472 0.34251 0.0
C387 C 0.581 0.9469 0.33563 0.0
H388 H 0.62626 0.88849 0.3064 0.0
H389 H 0.63923 0.9531 0.38478 0.0
C390 C 0.54427 0.92213 0.28086 0.0
C391 C 0.68556 0.52988 0.31375 0.0
C392 C 0.67089 0.49005 0.27056 0.0
H393 H 0.67427 0.56771 0.40449 0.0
C394 C 0.63393 0.45648 0.29421 0.0
H395 H 0.71425 0.55644 0.29832 0.0
C396 C 0.61101 0.46306 0.35541 0.0
C397 C 0.62471 0.50325 0.3955 0.0
H398 H 0.62185 0.42538 0.26305 0.0
H399 H 0.58166 0.43681 0.36906 0.0
C400 C 0.66294 0.53634 0.37578 0.0
C401 C 0.13379 0.73605 0.37475 0.0
C402 C 0.1375 0.72742 0.28735 0.0
H403 H 0.10413 0.71227 0.48939 0.0
C404 C 0.10934 0.68746 0.2457 0.0
H405 H 0.15471 0.76644 0.40882 0.0
C406 C 0.08056 0.65596 0.29237 0.0
C407 C 0.0789 0.66386 0.38146 0.0
H408 H 0.11088 0.67979 0.178 0.0
H409 H 0.06072 0.6251 0.25933 0.0
C410 C 0.10481 0.70473 0.42112 0.0
loop_
_geom_bond_atom_site_label_1
_geom_bond_atom_site_label_2
_geom_bond_distance
_geom_bond_site_symmetry_2
_ccdc_geom_bond_type
Mg0 O7 2.141 . S
Mg0 O8 2.048 . S
Mg0 O9 2.048 . S
Mg0 O12 2.141 . S
C1 O2 1.313 . S
C1 O8 1.195 . S
O2 C1 1.313 . S
C3 O4 1.245 . S
C3 O12 1.289 . S
O4 C3 1.245 . S
C5 O6 1.245 . S
C5 O7 1.289 . S
O6 C5 1.245 . S
O7 Mg0 2.141 . S
O7 C5 1.289 . S
O8 Mg0 2.048 . S
O8 C1 1.195 . S
O9 Mg0 2.048 . S
O9 C10 1.195 . S
C10 O9 1.195 . S
C10 O11 1.313 . S
O11 C10 1.313 . S
O12 Mg0 2.141 . S
O12 C3 1.289 . S
Mg13 O20 2.141 . S
Mg13 O21 2.048 . S
Mg13 O22 2.048 . S
Mg13 O25 2.141 . S
C14 O15 1.313 . S
C14 O21 1.195 . S
O15 C14 1.313 . S
C16 O17 1.245 . S
C16 O25 1.289 . S
O17 C16 1.245 . S
C18 O19 1.245 . S
C18 O20 1.289 . S
O19 C18 1.245 . S
O20 Mg13 2.141 . S
O20 C18 1.289 . S
O21 Mg13 2.048 . S
O21 C14 1.195 . S
O22 Mg13 2.048 . S
O22 C23 1.195 . S
C23 O22 1.195 . S
C23 O24 1.313 . S
O24 C23 1.313 . S
O25 Mg13 2.141 . S
O25 C16 1.289 . S
Mg26 O33 2.141 1_554 S
Mg26 O34 2.048 . S
Mg26 O35 2.048 . S
Mg26 O38 2.141 1_554 S
C27 O28 1.313 . S
C27 O34 1.195 . S
O28 C27 1.313 . S
C29 O30 1.245 . S
C29 O38 1.289 . S
O30 C29 1.245 . S
C31 O32 1.245 . S
C31 O33 1.289 . S
O32 C31 1.245 . S
O33 Mg26 2.141 1_556 S
O33 C31 1.289 . S
O34 Mg26 2.048 . S
O34 C27 1.195 . S
O35 Mg26 2.048 . S
O35 C36 1.195 . S
C36 O35 1.195 . S
C36 O37 1.313 . S
O37 C36 1.313 . S
O38 Mg26 2.141 1_556 S
O38 C29 1.289 . S
Mg39 O46 2.141 . S
Mg39 O47 2.041 1_554 S
Mg39 O48 2.048 . S
Mg39 O51 2.141 . S
C40 O41 1.313 . S
C40 O47 1.201 . S
O41 C40 1.313 . S
C42 O43 1.245 . S
C42 O51 1.289 . S
O43 C42 1.245 . S
C44 O45 1.245 . S
C44 O46 1.289 . S
O45 C44 1.245 . S
O46 Mg39 2.141 . S
O46 C44 1.289 . S
O47 Mg39 2.041 1_556 S
O47 C40 1.201 . S
O48 Mg39 2.048 . S
O48 C49 1.195 1_554 S
C49 O48 1.195 1_556 S
C49 O50 1.313 . S
O50 C49 1.313 . S
O51 Mg39 2.141 . S
O51 C42 1.289 . S
Mg52 O59 2.141 . S
Mg52 O60 2.048 . S
Mg52 O61 2.048 . S
Mg52 O64 2.141 . S
C53 O54 1.313 . S
C53 O60 1.195 1_556 S
O54 C53 1.313 . S
C55 O56 1.245 . S
C55 O64 1.289 . S
O56 C55 1.245 . S
C57 O58 1.245 . S
C57 O59 1.289 . S
O58 C57 1.245 . S
O59 Mg52 2.141 . S
O59 C57 1.289 . S
O60 Mg52 2.048 . S
O60 C53 1.195 1_554 S
O61 Mg52 2.048 . S
O61 C62 1.195 1_554 S
C62 O61 1.195 1_556 S
C62 O63 1.313 . S
O63 C62 1.313 . S
O64 Mg52 2.141 . S
O64 C55 1.289 . S
Mg65 O72 2.141 . S
Mg65 O73 2.048 . S
Mg65 O74 2.048 . S
Mg65 O77 2.141 . S
C66 O67 1.313 . S
C66 O73 1.195 . S
O67 C66 1.313 . S
C68 O69 1.245 . S
C68 O77 1.289 . S
O69 C68 1.245 . S
C70 O71 1.245 . S
C70 O72 1.289 . S
O71 C70 1.245 . S
O72 Mg65 2.141 . S
O72 C70 1.289 . S
O73 Mg65 2.048 . S
O73 C66 1.195 . S
O74 Mg65 2.048 . S
O74 C75 1.195 . S
C75 O74 1.195 . S
C75 O76 1.313 . S
O76 C75 1.313 . S
O77 Mg65 2.141 . S
O77 C68 1.289 . S
C78 O90 1.241 . S
C78 O91 1.280 . S
C79 O92 1.277 . S
C79 O93 1.245 . S
C80 O104 1.247 . S
C80 O106 1.289 . S
Mg81 O82 1.926 . S
Mg81 O91 1.984 . S
Mg81 O93 1.988 1_655 S
Mg81 O94 2.061 . S
O82 Mg81 1.926 . S
O82 Mg83 1.986 1_655 S
O82 Mg84 1.917 1_655 S
Mg83 O82 1.986 1_455 S
Mg83 O90 2.042 1_455 S
Mg83 O92 2.041 . S
Mg83 O98 2.038 1_455 S
Mg83 O106 2.238 . S
Mg84 O82 1.917 1_455 S
Mg84 O85 1.917 . S
Mg84 O95 2.106 1_455 S
Mg84 O97 2.079 1_455 S
Mg84 O106 2.106 . S
Mg84 O107 2.079 . S
O85 Mg84 1.917 . S
O85 Mg86 1.926 . S
O85 Mg87 1.986 . S
Mg86 O85 1.926 . S
Mg86 O100 1.984 . S
Mg86 O103 1.988 1_455 S
Mg86 O104 2.061 . S
Mg87 O85 1.986 . S
Mg87 O95 2.238 1_455 S
Mg87 O99 2.042 . S
Mg87 O101 2.041 1_455 S
Mg87 O108 2.038 . S
C88 O94 1.247 . S
C88 O95 1.289 . S
C89 O107 1.245 . S
C89 O108 1.274 . S
O90 C78 1.241 . S
O90 Mg83 2.042 1_655 S
O91 C78 1.280 . S
O91 Mg81 1.984 . S
O92 C79 1.277 . S
O92 Mg83 2.041 . S
O93 C79 1.245 . S
O93 Mg81 1.988 1_455 S
O94 Mg81 2.061 . S
O94 C88 1.247 . S
O95 Mg84 2.106 1_655 S
O95 Mg87 2.238 1_655 S
O95 C88 1.289 . S
C96 O97 1.245 . S
C96 O98 1.274 . S
O97 Mg84 2.079 1_655 S
O97 C96 1.245 . S
O98 Mg83 2.038 1_655 S
O98 C96 1.274 . S
O99 Mg87 2.042 . S
O99 C102 1.241 . S
O100 Mg86 1.984 . S
O100 C102 1.280 . S
O101 Mg87 2.041 1_655 S
O101 C105 1.277 . S
C102 O99 1.241 . S
C102 O100 1.280 . S
O103 Mg86 1.988 1_655 S
O103 C105 1.245 . S
O104 C80 1.247 . S
O104 Mg86 2.061 . S
C105 O101 1.277 . S
C105 O103 1.245 . S
O106 C80 1.289 . S
O106 Mg83 2.238 . S
O106 Mg84 2.106 . S
O107 Mg84 2.079 . S
O107 C89 1.245 . S
O108 Mg87 2.038 . S
O108 C89 1.274 . S
C109 O121 1.241 . S
C109 O122 1.280 . S
C110 O123 1.277 . S
C110 O124 1.245 . S
C111 O135 1.247 . S
C111 O137 1.289 . S
Mg112 O113 1.926 . S
Mg112 O122 1.984 . S
Mg112 O124 1.988 1_545 S
Mg112 O125 2.061 . S
O113 Mg112 1.926 . S
O113 Mg114 1.986 . S
O113 Mg115 1.917 . S
Mg114 O113 1.986 . S
Mg114 O121 2.042 . S
Mg114 O123 2.041 1_545 S
Mg114 O129 2.038 . S
Mg114 O137 2.238 1_545 S
Mg115 O113 1.917 . S
Mg115 O116 1.917 1_545 S
Mg115 O126 2.106 . S
Mg115 O128 2.079 . S
Mg115 O137 2.106 1_545 S
Mg115 O138 2.079 1_545 S
O116 Mg115 1.917 1_565 S
O116 Mg117 1.926 . S
O116 Mg118 1.986 1_565 S
Mg117 O116 1.926 . S
Mg117 O131 1.984 . S
Mg117 O134 1.988 1_565 S
Mg117 O135 2.061 . S
Mg118 O116 1.986 1_545 S
Mg118 O126 2.238 . S
Mg118 O130 2.042 1_545 S
Mg118 O132 2.041 . S
Mg118 O139 2.038 1_545 S
C119 O125 1.247 . S
C119 O126 1.289 . S
C120 O138 1.245 . S
C120 O139 1.274 . S
O121 C109 1.241 . S
O121 Mg114 2.042 . S
O122 C109 1.280 . S
O122 Mg112 1.984 . S
O123 C110 1.277 . S
O123 Mg114 2.041 1_565 S
O124 C110 1.245 . S
O124 Mg112 1.988 1_565 S
O125 Mg112 2.061 . S
O125 C119 1.247 . S
O126 Mg115 2.106 . S
O126 Mg118 2.238 . S
O126 C119 1.289 . S
C127 O128 1.245 . S
C127 O129 1.274 . S
O128 Mg115 2.079 . S
O128 C127 1.245 . S
O129 Mg114 2.038 . S
O129 C127 1.274 . S
O130 Mg118 2.042 1_565 S
O130 C133 1.241 . S
O131 Mg117 1.984 . S
O131 C133 1.280 . S
O132 Mg118 2.041 . S
O132 C136 1.277 . S
C133 O130 1.241 . S
C133 O131 1.280 . S
O134 Mg117 1.988 1_545 S
O134 C136 1.245 . S
O135 C111 1.247 . S
O135 Mg117 2.061 . S
C136 O132 1.277 . S
C136 O134 1.245 . S
O137 C111 1.289 . S
O137 Mg114 2.238 1_565 S
O137 Mg115 2.106 1_565 S
O138 Mg115 2.079 1_565 S
O138 C120 1.245 . S
O139 Mg118 2.038 1_565 S
O139 C120 1.274 . S
C140 O152 1.241 . S
C140 O153 1.280 . S
C141 O154 1.277 . S
C141 O155 1.245 . S
C142 O166 1.247 . S
C142 O168 1.289 . S
Mg143 O144 1.926 . S
Mg143 O153 1.984 . S
Mg143 O155 1.988 . S
Mg143 O156 2.061 . S
O144 Mg143 1.926 . S
O144 Mg145 1.986 . S
O144 Mg146 1.917 . S
Mg145 O144 1.986 . S
Mg145 O152 2.042 . S
Mg145 O154 2.041 . S
Mg145 O160 2.038 . S
Mg145 O168 2.238 . S
Mg146 O144 1.917 . S
Mg146 O147 1.917 . S
Mg146 O157 2.106 . S
Mg146 O159 2.079 . S
Mg146 O168 2.106 . S
Mg146 O169 2.079 . S
O147 Mg146 1.917 . S
O147 Mg148 1.926 . S
O147 Mg149 1.986 . S
Mg148 O147 1.926 . S
Mg148 O162 1.984 . S
Mg148 O165 1.988 . S
Mg148 O166 2.061 . S
Mg149 O147 1.986 . S
Mg149 O157 2.238 . S
Mg149 O161 2.042 . S
Mg149 O163 2.041 . S
Mg149 O170 2.038 . S
C150 O156 1.247 . S
C150 O157 1.289 . S
C151 O169 1.245 . S
C151 O170 1.274 . S
O152 C140 1.241 . S
O152 Mg145 2.042 . S
O153 C140 1.280 . S
O153 Mg143 1.984 . S
O154 C141 1.277 . S
O154 Mg145 2.041 . S
O155 C141 1.245 . S
O155 Mg143 1.988 . S
O156 Mg143 2.061 . S
O156 C150 1.247 . S
O157 Mg146 2.106 . S
O157 Mg149 2.238 . S
O157 C150 1.289 . S
C158 O159 1.245 . S
C158 O160 1.274 . S
O159 Mg146 2.079 . S
O159 C158 1.245 . S
O160 Mg145 2.038 . S
O160 C158 1.274 . S
O161 Mg149 2.042 . S
O161 C164 1.241 . S
O162 Mg148 1.984 . S
O162 C164 1.280 . S
O163 Mg149 2.041 . S
O163 C167 1.277 . S
C164 O161 1.241 . S
C164 O162 1.280 . S
O165 Mg148 1.988 . S
O165 C167 1.245 . S
O166 C142 1.247 . S
O166 Mg148 2.061 . S
C167 O163 1.277 . S
C167 O165 1.245 . S
O168 C142 1.289 . S
O168 Mg145 2.238 . S
O168 Mg146 2.106 . S
O169 Mg146 2.079 . S
O169 C151 1.245 . S
O170 Mg149 2.038 . S
O170 C151 1.274 . S
C171 C172 1.387 . S
C171 H175 0.950 . S
C171 C180 1.390 . S
C172 C171 1.387 . S
C172 C174 1.387 . S
H173 C180 0.950 . S
C174 C172 1.387 . S
C174 C176 1.390 . S
C174 H178 0.950 . S
H175 C171 0.950 . S
C176 C174 1.390 . S
C176 C177 1.387 . S
C176 H179 0.950 . S
C177 C176 1.387 . S
C177 C180 1.387 . S
H178 C174 0.950 . S
H179 C176 0.950 . S
C180 C171 1.390 . S
C180 H173 0.950 . S
C180 C177 1.387 . S
C181 C182 1.387 . S
C181 H185 0.950 . S
C181 C190 1.390 . S
C182 C181 1.387 . S
C182 C184 1.387 . S
H183 C190 0.950 . S
C184 C182 1.387 . S
C184 C186 1.390 . S
C184 H188 0.950 . S
H185 C181 0.950 . S
C186 C184 1.390 . S
C186 C187 1.387 . S
C186 H189 0.950 . S
C187 C186 1.387 . S
C187 C190 1.387 . S
H188 C184 0.950 . S
H189 C186 0.950 . S
C190 C181 1.390 . S
C190 H183 0.950 . S
C190 C187 1.387 . S
C191 C192 1.387 . S
C191 H195 0.950 . S
C191 C200 1.390 . S
C192 C191 1.387 . S
C192 C194 1.387 . S
H193 C200 0.950 . S
C194 C192 1.387 . S
C194 C196 1.390 . S
C194 H198 0.950 . S
H195 C191 0.950 . S
C196 C194 1.390 . S
C196 C197 1.387 . S
C196 H199 0.950 . S
C197 C196 1.387 . S
C197 C200 1.387 . S
H198 C194 0.950 . S
H199 C196 0.950 . S
C200 C191 1.390 . S
C200 H193 0.950 . S
C200 C197 1.387 . S
C201 C202 1.387 . S
C201 H205 0.950 . S
C201 C210 1.390 . S
C202 C201 1.387 . S
C202 C204 1.387 . S
H203 C210 0.950 . S
C204 C202 1.387 . S
C204 C206 1.390 . S
C204 H208 0.950 . S
H205 C201 0.950 . S
C206 C204 1.390 . S
C206 C207 1.387 . S
C206 H209 0.950 . S
C207 C206 1.387 . S
C207 C210 1.387 . S
H208 C204 0.950 . S
H209 C206 0.950 . S
C210 C201 1.390 . S
C210 H203 0.950 . S
C210 C207 1.387 . S
C211 C212 1.387 . S
C211 H215 0.950 . S
C211 C220 1.390 . S
C212 C211 1.387 . S
C212 C214 1.387 . S
H213 C220 0.950 . S
C214 C212 1.387 . S
C214 C216 1.390 . S
C214 H218 0.950 . S
H215 C211 0.950 . S
C216 C214 1.390 . S
C216 C217 1.387 . S
C216 H219 0.950 . S
C217 C216 1.387 . S
C217 C220 1.387 . S
H218 C214 0.950 . S
H219 C216 0.950 . S
C220 C211 1.390 . S
C220 H213 0.950 . S
C220 C217 1.387 . S
C221 C222 1.387 . S
C221 H225 0.950 . S
C221 C230 1.390 . S
C222 C221 1.387 . S
C222 C224 1.387 . S
H223 C230 0.950 . S
C224 C222 1.387 . S
C224 C226 1.390 . S
C224 H228 0.950 . S
H225 C221 0.950 . S
C226 C224 1.390 . S
C226 C227 1.387 . S
C226 H229 0.950 . S
C227 C226 1.387 . S
C227 C230 1.387 . S
H228 C224 0.950 . S
H229 C226 0.950 . S
C230 C221 1.390 . S
C230 H223 0.950 . S
C230 C227 1.387 . S
C231 C232 1.387 . S
C231 H235 0.950 . S
C231 C240 1.390 . S
C232 C231 1.387 . S
C232 C234 1.387 . S
H233 C240 0.950 . S
C234 C232 1.387 . S
C234 C236 1.390 . S
C234 H238 0.950 . S
H235 C231 0.950 . S
C236 C234 1.390 . S
C236 C237 1.387 . S
C236 H239 0.950 . S
C237 C236 1.387 . S
C237 C240 1.387 . S
H238 C234 0.950 . S
H239 C236 0.950 . S
C240 C231 1.390 . S
C240 H233 0.950 . S
C240 C237 1.387 . S
C241 C242 1.387 . S
C241 H245 0.950 . S
C241 C250 1.390 . S
C242 C241 1.387 . S
C242 C244 1.387 . S
H243 C250 0.950 . S
C244 C242 1.387 . S
C244 C246 1.390 . S
C244 H248 0.950 . S
H245 C241 0.950 . S
C246 C244 1.390 . S
C246 C247 1.387 . S
C246 H249 0.950 . S
C247 C246 1.387 . S
C247 C250 1.387 . S
H248 C244 0.950 . S
H249 C246 0.950 . S
C250 C241 1.390 . S
C250 H243 0.950 . S
C250 C247 1.387 . S
C251 C252 1.387 . S
C251 H255 0.950 . S
C251 C260 1.390 . S
C252 C251 1.387 . S
C252 C254 1.387 . S
H253 C260 0.950 . S
C254 C252 1.387 . S
C254 C256 1.390 . S
C254 H258 0.960 . S
H255 C251 0.950 . S
C256 C254 1.390 . S
C256 C257 1.387 . S
C256 H259 0.950 . S
C257 C256 1.387 . S
C257 C260 1.387 . S
H258 C254 0.960 . S
H259 C256 0.950 . S
C260 C251 1.390 . S
C260 H253 0.950 . S
C260 C257 1.387 . S
C261 C262 1.387 . S
C261 H265 0.950 . S
C261 C270 1.390 . S
C262 C261 1.387 . S
C262 C264 1.387 1_554 S
H263 C270 0.950 . S
C264 C262 1.387 1_556 S
C264 C266 1.390 . S
C264 H268 0.950 . S
H265 C261 0.950 . S
C266 C264 1.390 . S
C266 C267 1.387 . S
C266 H269 0.950 . S
C267 C266 1.387 . S
C267 C270 1.387 1_556 S
H268 C264 0.950 . S
H269 C266 0.950 . S
C270 C261 1.390 . S
C270 H263 0.950 . S
C270 C267 1.387 1_554 S
C271 C272 1.387 1_554 S
C271 H275 0.950 . S
C271 C280 1.390 1_554 S
C272 C271 1.387 1_556 S
C272 C274 1.387 . S
H273 C280 0.950 . S
C274 C272 1.387 . S
C274 C276 1.390 . S
C274 H278 0.950 . S
H275 C271 0.950 . S
C276 C274 1.390 . S
C276 C277 1.387 . S
C276 H279 0.950 . S
C277 C276 1.387 . S
C277 C280 1.387 . S
H278 C274 0.950 . S
H279 C276 0.950 . S
C280 C271 1.390 1_556 S
C280 H273 0.950 . S
C280 C277 1.387 . S
C281 C282 1.387 1_554 S
C281 H285 0.950 . S
C281 C290 1.390 1_554 S
C282 C281 1.387 1_556 S
C282 C284 1.387 . S
H283 C290 0.950 1_554 S
C284 C282 1.387 . S
C284 C286 1.390 . S
C284 H288 0.950 . S
H285 C281 0.950 . S
C286 C284 1.390 . S
C286 C287 1.387 . S
C286 H289 0.950 . S
C287 C286 1.387 . S
C287 C290 1.387 . S
H288 C284 0.950 . S
H289 C286 0.950 . S
C290 C281 1.390 1_556 S
C290 H283 0.950 1_556 S
C290 C287 1.387 . S
C291 C292 1.387 . S
C291 H295 0.950 . S
C291 C300 1.390 . S
C292 C291 1.387 . S
C292 C294 1.387 . S
H293 C300 0.950 . S
C294 C292 1.387 . S
C294 C296 1.390 . S
C294 H298 0.950 . S
H295 C291 0.950 . S
C296 C294 1.390 . S
C296 C297 1.387 . S
C296 H299 0.950 . S
C297 C296 1.387 . S
C297 C300 1.387 . S
H298 C294 0.950 . S
H299 C296 0.950 . S
C300 C291 1.390 . S
C300 H293 0.950 . S
C300 C297 1.387 . S
C301 C302 1.387 . S
C301 H305 0.950 . S
C301 C310 1.390 . S
C302 C301 1.387 . S
C302 C304 1.387 . S
H303 C310 0.950 . S
C304 C302 1.387 . S
C304 C306 1.390 . S
C304 H308 0.950 . S
H305 C301 0.950 . S
C306 C304 1.390 . S
C306 C307 1.387 . S
C306 H309 0.950 . S
C307 C306 1.387 . S
C307 C310 1.387 . S
H308 C304 0.950 . S
H309 C306 0.950 . S
C310 C301 1.390 . S
C310 H303 0.950 . S
C310 C307 1.387 . S
C311 C312 1.387 . S
C311 H315 0.950 . S
C311 C320 1.390 1_554 S
C312 C311 1.387 . S
C312 C314 1.387 . S
H313 C320 0.950 . S
C314 C312 1.387 . S
C314 C316 1.390 1_554 S
C314 H318 0.950 . S
H315 C311 0.950 . S
C316 C314 1.390 1_556 S
C316 C317 1.387 . S
C316 H319 0.950 . S
C317 C316 1.387 . S
C317 C320 1.387 . S
H318 C314 0.950 . S
H319 C316 0.950 . S
C320 C311 1.390 1_556 S
C320 H313 0.950 . S
C320 C317 1.387 . S
C321 C322 1.387 1_556 S
C321 H325 0.950 1_556 S
C321 C330 1.390 . S
C322 C321 1.387 1_554 S
C322 C324 1.387 1_554 S
H323 C330 0.950 . S
C324 C322 1.387 1_556 S
C324 C326 1.390 . S
C324 H328 0.950 . S
H325 C321 0.950 1_554 S
C326 C324 1.390 . S
C326 C327 1.387 . S
C326 H329 0.950 . S
C327 C326 1.387 . S
C327 C330 1.387 . S
H328 C324 0.950 . S
H329 C326 0.950 . S
C330 C321 1.390 . S
C330 H323 0.950 . S
C330 C327 1.387 . S
C331 C332 1.387 . S
C331 H335 0.950 1_556 S
C331 C340 1.390 . S
C332 C331 1.387 . S
C332 C334 1.387 . S
H333 C340 0.950 . S
C334 C332 1.387 . S
C334 C336 1.390 . S
C334 H338 0.950 . S
H335 C331 0.950 1_554 S
C336 C334 1.390 . S
C336 C337 1.387 . S
C336 H339 0.950 . S
C337 C336 1.387 . S
C337 C340 1.387 . S
H338 C334 0.950 . S
H339 C336 0.950 . S
C340 C331 1.390 . S
C340 H333 0.950 . S
C340 C337 1.387 . S
C341 C342 1.387 . S
C341 H345 0.950 . S
C341 C350 1.390 . S
C342 C341 1.387 . S
C342 C344 1.387 . S
H343 C350 0.950 . S
C344 C342 1.387 . S
C344 C346 1.390 . S
C344 H348 0.950 . S
H345 C341 0.950 . S
C346 C344 1.390 . S
C346 C347 1.387 . S
C346 H349 0.950 . S
C347 C346 1.387 . S
C347 C350 1.387 . S
H348 C344 0.950 . S
H349 C346 0.950 . S
C350 C341 1.390 . S
C350 H343 0.950 . S
C350 C347 1.387 . S
C351 C352 1.387 . S
C351 H355 0.950 . S
C351 C360 1.390 . S
C352 C351 1.387 . S
C352 C354 1.387 . S
H353 C360 0.950 . S
C354 C352 1.387 . S
C354 C356 1.390 . S
C354 H358 0.950 . S
H355 C351 0.950 . S
C356 C354 1.390 . S
C356 C357 1.387 . S
C356 H359 0.950 . S
C357 C356 1.387 . S
C357 C360 1.387 . S
H358 C354 0.950 . S
H359 C356 0.950 . S
C360 C351 1.390 . S
C360 H353 0.950 . S
C360 C357 1.387 . S
C361 C362 1.387 . S
C361 H365 0.950 . S
C361 C370 1.390 . S
C362 C361 1.387 . S
C362 C364 1.387 . S
H363 C370 0.950 . S
C364 C362 1.387 . S
C364 C366 1.390 . S
C364 H368 0.950 . S
H365 C361 0.950 . S
C366 C364 1.390 . S
C366 C367 1.387 . S
C366 H369 0.950 . S
C367 C366 1.387 . S
C367 C370 1.387 . S
H368 C364 0.950 . S
H369 C366 0.950 . S
C370 C361 1.390 . S
C370 H363 0.950 . S
C370 C367 1.387 . S
C371 C372 1.387 . S
C371 H375 0.950 . S
C371 C380 1.390 . S
C372 C371 1.387 . S
C372 C374 1.387 . S
H373 C380 0.950 . S
C374 C372 1.387 . S
C374 C376 1.390 . S
C374 H378 0.950 . S
H375 C371 0.950 . S
C376 C374 1.390 . S
C376 C377 1.387 . S
C376 H379 0.950 . S
C377 C376 1.387 . S
C377 C380 1.387 . S
H378 C374 0.950 . S
H379 C376 0.950 . S
C380 C371 1.390 . S
C380 H373 0.950 . S
C380 C377 1.387 . S
C381 C382 1.387 . S
C381 H385 0.950 . S
C381 C390 1.390 . S
C382 C381 1.387 . S
C382 C384 1.387 . S
H383 C390 0.950 . S
C384 C382 1.387 . S
C384 C386 1.390 . S
C384 H388 0.950 . S
H385 C381 0.950 . S
C386 C384 1.390 . S
C386 C387 1.387 . S
C386 H389 0.950 . S
C387 C386 1.387 . S
C387 C390 1.387 . S
H388 C384 0.950 . S
H389 C386 0.950 . S
C390 C381 1.390 . S
C390 H383 0.950 . S
C390 C387 1.387 . S
C391 C392 1.387 . S
C391 H395 0.950 . S
C391 C400 1.390 . S
C392 C391 1.387 . S
C392 C394 1.387 . S
H393 C400 0.950 . S
C394 C392 1.387 . S
C394 C396 1.390 . S
C394 H398 0.950 . S
H395 C391 0.950 . S
C396 C394 1.390 . S
C396 C397 1.387 . S
C396 H399 0.950 . S
C397 C396 1.387 . S
C397 C400 1.387 . S
H398 C394 0.950 . S
H399 C396 0.950 . S
C400 C391 1.390 . S
C400 H393 0.950 . S
C400 C397 1.387 . S
C401 C402 1.387 . S
C401 H405 0.950 . S
C401 C410 1.390 . S
C402 C401 1.387 . S
C402 C404 1.387 . S
H403 C410 0.950 . S
C404 C402 1.387 . S
C404 C406 1.390 . S
C404 H408 0.950 . S
H405 C401 0.950 . S
C406 C404 1.390 . S
C406 C407 1.387 . S
C406 H409 0.950 . S
C407 C406 1.387 . S
C407 C410 1.387 . S
H408 C404 0.950 . S
H409 C406 0.950 . S
C410 C401 1.390 . S
C410 H403 0.950 . S
C410 C407 1.387 . S
C172 C5 1.794 . S
C177 C89 1.692 . S
C182 C16 1.458 . S
C187 C136 1.446 . S
C197 C140 1.639 . S
C192 C36 1.709 . S
C207 C105 1.382 . S
C202 C42 1.410 . S
C212 C55 1.679 . S
C217 C120 1.636 . S
C227 C142 1.143 . S
C222 C66 1.159 . S
C237 C111 1.415 . S
C232 C31 1.484 . S
C242 C40 1.426 . S
C247 C151 1.413 . S
C257 C80 1.417 . S
C252 C53 1.454 . S
C262 C68 1.314 . S
C267 C109 1.293 . S
C272 C10 1.806 1_556 S
C277 C167 1.736 . S
C287 C78 1.427 . S
C282 C14 1.444 1_556 S
C297 C96 1.764 . S
C292 C49 1.804 . S
C307 C110 1.515 . S
C302 C62 1.530 . S
C317 C164 1.581 . S
C312 C70 1.616 . S
C327 C79 1.436 . S
C322 C1 1.485 . S
C337 C127 1.699 . S
C332 C23 1.748 1_556 S
C342 C29 1.109 . S
C347 C150 1.065 . S
C357 C119 1.489 . S
C352 C75 1.522 . S
C367 C158 1.343 . S
C362 C3 1.409 . S
C377 C88 1.356 . S
C372 C18 1.380 . S
C387 C133 1.351 . S
C382 C27 1.400 . S
C392 C44 1.725 . S
C397 C141 1.681 . S
C402 C57 1.371 . S
C407 C102 1.363 . S
