# Generated by pormake.
# Topology pth, (4,4)-cn, num edge types: 1
# Building blocks:
#     Node 0, Type 0, BuildingBlock: NAHDIM_clean_sbu_0, # of connection points: 4
#     Node 1, Type 0, BuildingBlock: NAHDIM_clean_sbu_0, # of connection points: 4
#     Node 2, Type 0, BuildingBlock: NAHDIM_clean_sbu_0, # of connection points: 4
#     Node 3, Type 1, BuildingBlock: MUDLON_clean_sbu_0, # of connection points: 4
#     Node 4, Type 1, BuildingBlock: MUDLON_clean_sbu_0, # of connection points: 4
#     Node 5, Type 1, BuildingBlock: MUDLON_clean_sbu_0, # of connection points: 4
#     Edge 6, Type (0, 1), BuildingBlock: MIFKUJ_clean_linker_0, # of connection points: 2
#     Edge 7, Type (0, 1), BuildingBlock: MIFKUJ_clean_linker_0, # of connection points: 2
#     Edge 8, Type (0, 1), BuildingBlock: MIFKUJ_clean_linker_0, # of connection points: 2
#     Edge 9, Type (0, 1), BuildingBlock: MIFKUJ_clean_linker_0, # of connection points: 2
#     Edge 10, Type (0, 1), BuildingBlock: MIFKUJ_clean_linker_0, # of connection points: 2
#     Edge 11, Type (0, 1), BuildingBlock: MIFKUJ_clean_linker_0, # of connection points: 2
#     Edge 12, Type (0, 1), BuildingBlock: MIFKUJ_clean_linker_0, # of connection points: 2
#     Edge 13, Type (0, 1), BuildingBlock: MIFKUJ_clean_linker_0, # of connection points: 2
#     Edge 14, Type (0, 1), BuildingBlock: MIFKUJ_clean_linker_0, # of connection points: 2
#     Edge 15, Type (0, 1), BuildingBlock: MIFKUJ_clean_linker_0, # of connection points: 2
#     Edge 16, Type (0, 1), BuildingBlock: MIFKUJ_clean_linker_0, # of connection points: 2
#     Edge 17, Type (0, 1), BuildingBlock: MIFKUJ_clean_linker_0, # of connection points: 2
# Relax obj value: 0.076
# Max RMSD: 0.190
# Mean RMSD: 0.122
data_MOF--net-pth--node1-NAHDIM_clean_sbu_0--node2-MUDLON_clean_sbu_0--edge1-MIFKUJ_clean_linker_0
_symmetry_space_group_name_H-M    P1
_symmetry_Int_Tables_number       1
_symmetry_cell_setting            triclinic
loop_
_symmetry_equiv_pos_as_xyz
'x, y, z'
_cell_length_a     29.336754
_cell_length_b     29.478529
_cell_length_c     76.707852
_cell_angle_alpha  92.016856
_cell_angle_beta   89.84942
_cell_angle_gamma 120.56871
loop_
_atom_site_label
_atom_site_type_symbol
_atom_site_fract_x
_atom_site_fract_y
_atom_site_fract_z
_atom_type_partial_charge
C0 C 0.08635 0.03496 0.12726 0.0
O1 O 0.10172 0.08225 0.13401 0.0
O2 O 0.03645 0.11832 0.11479 0.0
Zn3 Zn 0.05084 0.07159 0.09829 0.0
O4 O 0.98631 0.02727 0.08255 0.0
C5 C 0.12984 0.16276 0.07984 0.0
O6 O 0.10353 0.18438 0.0863 0.0
O7 O 0.064 0.02196 0.11225 0.0
C8 C 0.98423 0.0368 0.0666 0.0
O9 O 0.02534 0.0772 0.0598 0.0
C10 C 0.00693 0.13617 0.11033 0.0
O11 O 0.98537 0.1243 0.09461 0.0
O12 O 0.1152 0.1155 0.08343 0.0
C13 C 0.0597 0.17102 0.40935 0.0
O14 O 0.01055 0.14122 0.41428 0.0
O15 O 0.05804 0.03476 0.41466 0.0
Zn16 Zn 0.07496 0.09927 0.42999 0.0
O17 O 0.01095 0.08463 0.44429 0.0
C18 C 0.13511 0.11577 0.46243 0.0
O19 O 0.08986 0.10245 0.46988 0.0
O20 O 0.09476 0.1612 0.41462 0.0
C21 C 0.97994 0.03975 0.45044 0.0
O22 O 0.98937 1.00114 0.44744 0.0
C23 C 0.02696 0.02103 0.40147 0.0
O24 O 0.00496 0.0489 0.39787 0.0
O25 O 0.13777 0.11716 0.44587 0.0
C26 C 0.07168 0.99173 0.72974 0.0
O27 O 0.02486 0.98174 0.72438 0.0
O28 O 0.99412 0.04203 0.74689 0.0
Zn29 Zn 0.04334 0.02844 0.76132 0.0
O30 O 0.09221 0.09259 0.77655 0.0
C31 C 0.95723 0.96098 0.78337 0.0
O32 O 0.93982 0.99191 0.77856 0.0
O33 O 0.08758 0.01087 0.74515 0.0
C34 C 0.08159 0.12759 0.78178 0.0
O35 O 0.03681 0.12358 0.77683 0.0
C36 C 0.01076 0.08052 0.73683 0.0
O37 O 0.06193 0.11374 0.73592 0.0
O38 O 1.00079 0.96821 0.77735 0.0
Mg39 Mg 0.05506 0.58389 0.26161 0.0
C40 C 0.06266 0.5153 0.28516 0.0
O41 O 0.01262 0.49511 0.28066 0.0
C42 C 0.1095 0.64996 0.23011 0.0
O43 O 0.09731 0.60382 0.22306 0.0
C44 C 0.98621 0.5088 0.23015 0.0
O45 O 0.97979 0.54733 0.22507 0.0
O46 O 0.01141 0.51452 0.24428 0.0
O47 O 0.09652 0.55917 0.27892 0.0
O48 O 0.00906 0.60371 0.27919 0.0
C49 C 0.99705 0.63807 0.27545 0.0
O50 O 0.00566 0.656 0.25961 0.0
O51 O 0.10135 0.65343 0.24627 0.0
Mg52 Mg 0.55216 0.06653 0.59435 0.0
C53 C 0.54428 0.13765 0.5685 0.0
O54 O 0.57782 0.12819 0.56009 0.0
C55 C 0.61277 0.06497 0.62452 0.0
O56 O 0.56942 0.01838 0.62413 0.0
C57 C 0.43622 0.00457 0.60388 0.0
O58 O 0.43129 0.02386 0.5893 0.0
O59 O 0.48132 0.01164 0.60814 0.0
O60 O 0.5318 0.1218 0.58394 0.0
O61 O 0.57589 0.03566 0.57219 0.0
C62 C 0.59478 0.00541 0.57321 0.0
O63 O 0.59463 0.98541 0.58826 0.0
O64 O 0.61754 0.0979 0.61331 0.0
Mg65 Mg 0.53873 0.57548 0.93008 0.0
C66 C 0.46828 0.50285 0.90341 0.0
O67 O 0.50221 0.48793 0.90725 0.0
C68 C 0.55453 0.65572 0.95841 0.0
O69 O 0.52039 0.61237 0.96603 0.0
C70 C 0.50857 0.47642 0.95278 0.0
O71 O 0.53108 0.4605 0.94122 0.0
O72 O 0.50982 0.5197 0.9509 0.0
O73 O 0.47335 0.54399 0.91124 0.0
O74 O 0.60625 0.58603 0.91508 0.0
C75 C 0.65241 0.6241 0.91903 0.0
O76 O 0.65995 0.64999 0.93405 0.0
O77 O 0.56469 0.6527 0.94243 0.0
H78 H 0.03596 0.16018 0.14487 0.0
H79 H 0.02174 0.21859 0.16469 0.0
H80 H 0.94417 0.25005 0.12313 0.0
H81 H 0.95811 0.1917 0.10323 0.0
H82 H 0.01794 0.34078 0.14138 0.0
H83 H 0.87111 0.17047 0.15422 0.0
H84 H 0.82821 0.07736 0.16209 0.0
H85 H 0.91571 0.12356 0.21062 0.0
H86 H 0.95971 0.21693 0.20293 0.0
H87 H 0.94222 0.48691 0.19708 0.0
H88 H 0.93347 0.41785 0.17626 0.0
H89 H 0.99478 0.35966 0.21517 0.0
H90 H 1.00191 0.42698 0.2361 0.0
H91 H 0.92145 0.27991 0.19681 0.0
H92 H 0.07437 0.44671 0.18363 0.0
H93 H 0.12117 0.54059 0.17648 0.0
H94 H 0.02796 0.50212 0.12935 0.0
H95 H 0.98 0.40803 0.13638 0.0
C96 C 0.01577 0.17942 0.13995 0.0
C97 C 0.99808 0.17115 0.12247 0.0
C98 C 0.00748 0.21264 0.15131 0.0
C99 C 0.98149 0.23834 0.14542 0.0
C100 C 0.9642 0.23053 0.12796 0.0
C101 C 0.97209 0.19702 0.11662 0.0
C102 C 0.97323 0.27411 0.15742 0.0
C103 C 0.99606 0.32731 0.15336 0.0
C104 C 0.94567 0.25677 0.17322 0.0
C105 C 0.91903 0.20067 0.17793 0.0
C106 C 0.88151 0.16075 0.16651 0.0
C107 C 0.85694 0.10793 0.17095 0.0
C108 C 0.86931 0.09455 0.18683 0.0
C109 C 0.90619 0.13398 0.19832 0.0
C110 C 0.93091 0.18686 0.19394 0.0
C111 C 0.9529 0.4588 0.20129 0.0
C112 C 0.97334 0.46294 0.21821 0.0
C113 C 0.94823 0.41953 0.18933 0.0
C114 C 0.96459 0.3842 0.194 0.0
C115 C 0.98211 0.3865 0.21119 0.0
C116 C 0.98634 0.42528 0.22316 0.0
C117 C 0.96669 0.34685 0.18089 0.0
C118 C 0.94282 0.29334 0.18474 0.0
C119 C 0.99393 0.36404 0.16499 0.0
C120 C 0.02321 0.42045 0.16062 0.0
C121 C 0.06363 0.45832 0.1718 0.0
C122 C 0.09038 0.51156 0.16776 0.0
C123 C 0.07744 0.52733 0.15249 0.0
C124 C 0.03786 0.48985 0.14119 0.0
C125 C 0.01089 0.43657 0.14519 0.0
H126 H 0.09817 0.56856 0.1494 0.0
H127 H 0.85025 0.05363 0.19024 0.0
H128 H 0.9456 0.109 0.45747 0.0
H129 H 0.87484 0.09765 0.47694 0.0
H130 H 0.84341 0.94228 0.48857 0.0
H131 H 0.91342 0.95287 0.46878 0.0
H132 H 0.75281 0.94109 0.48517 0.0
H133 H 0.91469 0.04761 0.51698 0.0
H134 H 0.00551 0.12194 0.52244 0.0
H135 H 0.95074 0.23145 0.51857 0.0
H136 H 0.85965 0.15776 0.51282 0.0
H137 H 0.62765 0.93393 0.56821 0.0
H138 H 0.68676 0.93381 0.5455 0.0
H139 H 0.69135 0.06762 0.52272 0.0
H140 H 0.63145 0.0673 0.54498 0.0
H141 H 0.79437 0.07713 0.53221 0.0
H142 H 0.63044 0.96595 0.50046 0.0
H143 H 0.54051 0.889 0.49623 0.0
H144 H 0.60115 0.78488 0.50204 0.0
H145 H 0.69143 0.86131 0.50657 0.0
C146 C 0.92353 0.0723 0.46411 0.0
C147 C 0.93549 0.032 0.46167 0.0
C148 C 0.88315 0.06593 0.47529 0.0
C149 C 0.85433 0.01944 0.48447 0.0
C150 C 0.86517 0.97855 0.48168 0.0
C151 C 0.90536 0.98476 0.4704 0.0
C152 C 0.81383 0.01414 0.49726 0.0
C153 C 0.76213 0.97053 0.49558 0.0
C154 C 0.82572 0.0527 0.5108 0.0
C155 C 0.88042 0.09717 0.51429 0.0
C156 C 0.92207 0.08756 0.51716 0.0
C157 C 0.97359 0.12957 0.52032 0.0
C158 C 0.98391 0.18139 0.52081 0.0
C159 C 0.9427 0.19129 0.51816 0.0
C160 C 0.8911 0.14941 0.51496 0.0
C161 C 0.64051 0.96272 0.55818 0.0
C162 C 0.62488 1.00063 0.55842 0.0
C163 C 0.67422 0.96259 0.54524 0.0
C164 C 0.69345 1.00083 0.53251 0.0
C165 C 0.67689 0.03783 0.53245 0.0
C166 C 0.64246 0.03737 0.54515 0.0
C167 C 0.73354 0.00459 0.51994 0.0
C168 C 0.78522 0.04781 0.52177 0.0
C169 C 0.7218 0.96532 0.50675 0.0
C170 C 0.66758 0.91935 0.50408 0.0
C171 C 0.62453 0.92666 0.50103 0.0
C172 C 0.57351 0.88313 0.49853 0.0
C173 C 0.56509 0.83208 0.49892 0.0
C174 C 0.60772 0.82445 0.50177 0.0
C175 C 0.65882 0.86786 0.5043 0.0
H176 H 0.52557 0.79843 0.49697 0.0
H177 H 0.02383 0.21386 0.52327 0.0
H178 H 0.98867 0.90043 0.80017 0.0
H179 H 0.94146 0.83727 0.82281 0.0
H180 H 0.8116 0.86572 0.81828 0.0
H181 H 0.85897 0.92963 0.79601 0.0
H182 H 0.83457 0.86775 0.85099 0.0
H183 H 0.80454 0.75048 0.80177 0.0
H184 H 0.82941 0.71315 0.77677 0.0
H185 H 0.91845 0.67363 0.81104 0.0
H186 H 0.89466 0.71137 0.83623 0.0
H187 H 0.64154 0.59518 0.88425 0.0
H188 H 0.69991 0.64655 0.86092 0.0
H189 H 0.81291 0.75713 0.89914 0.0
H190 H 0.75424 0.70668 0.92256 0.0
H191 H 0.79923 0.68416 0.84957 0.0
H192 H 0.85605 0.88086 0.88615 0.0
H193 H 0.8218 0.91423 0.90964 0.0
H194 H 0.66322 0.7893 0.89741 0.0
H195 H 0.69644 0.75571 0.8737 0.0
C196 C 0.94989 0.89294 0.80391 0.0
C197 C 0.92765 0.9202 0.7963 0.0
C198 C 0.92285 0.85666 0.81683 0.0
C199 C 0.87276 0.84643 0.82222 0.0
C200 C 0.85025 0.87305 0.81442 0.0
C201 C 0.87737 0.90953 0.80163 0.0
C202 C 0.84437 0.80951 0.8364 0.0
C203 C 0.8271 0.8277 0.85066 0.0
C204 C 0.83394 0.75696 0.83597 0.0
C205 C 0.84828 0.73425 0.82086 0.0
C206 C 0.82978 0.73422 0.80396 0.0
C207 C 0.84361 0.71291 0.78976 0.0
C208 C 0.87561 0.69117 0.79231 0.0
C209 C 0.89373 0.69056 0.80908 0.0
C210 C 0.88006 0.71186 0.82332 0.0
C211 C 0.67936 0.62973 0.88774 0.0
C212 C 0.69277 0.64733 0.90529 0.0
C213 C 0.71277 0.65905 0.87435 0.0
C214 C 0.76021 0.70635 0.87826 0.0
C215 C 0.77596 0.72131 0.89581 0.0
C216 C 0.74243 0.69227 0.9092 0.0
C217 C 0.78997 0.74269 0.86412 0.0
C218 C 0.80735 0.72443 0.84992 0.0
C219 C 0.79939 0.79485 0.86434 0.0
C220 C 0.77884 0.81548 0.87829 0.0
C221 C 0.81386 0.86069 0.88843 0.0
C222 C 0.79463 0.87961 0.90179 0.0
C223 C 0.74039 0.85378 0.90506 0.0
C224 C 0.70523 0.80916 0.89491 0.0
C225 C 0.72424 0.79016 0.88152 0.0
H226 H 0.72561 0.86841 0.91543 0.0
H227 H 0.88626 0.67468 0.7813 0.0
H228 H 0.12641 0.04786 0.16043 0.0
H229 H 0.13804 0.98492 0.17688 0.0
H230 H 0.07713 0.87363 0.13293 0.0
H231 H 0.0643 0.93603 0.11651 0.0
H232 H 0.03417 0.82514 0.16174 0.0
H233 H 0.21109 0.94367 0.14414 0.0
H234 H 0.2923 0.02964 0.14055 0.0
H235 H 0.30943 0.05598 0.19617 0.0
H236 H 0.22786 0.97044 0.20009 0.0
H237 H 0.10555 0.64867 0.19447 0.0
H238 H 0.11023 0.71715 0.17621 0.0
H239 H 0.14446 0.82017 0.22171 0.0
H240 H 0.13946 0.7517 0.24016 0.0
H241 H 0.20352 0.87227 0.19149 0.0
H242 H 0.02362 0.75426 0.20849 0.0
H243 H 0.9439 0.66685 0.21165 0.0
H244 H 0.93424 0.63881 0.1561 0.0
H245 H 0.01451 0.72579 0.15264 0.0
C246 C 0.11565 0.01009 0.15422 0.0
C247 C 0.09447 0.99708 0.13712 0.0
C248 C 0.12261 0.97418 0.16363 0.0
C249 C 0.10915 0.92468 0.1561 0.0
C250 C 0.08793 0.91157 0.13903 0.0
C251 C 0.0807 0.94737 0.12964 0.0
C252 C 0.11563 0.88601 0.1662 0.0
C253 C 0.0715 0.83532 0.16798 0.0
C254 C 0.164 0.89937 0.17469 0.0
C255 C 0.21306 0.95085 0.17239 0.0
C256 C 0.23192 0.96798 0.1556 0.0
C257 C 0.27807 0.0166 0.15351 0.0
C258 C 0.30593 0.04831 0.16812 0.0
C259 C 0.28776 0.0314 0.18486 0.0
C260 C 0.2416 0.98283 0.18702 0.0
C261 C 0.11515 0.68623 0.2006 0.0
C262 C 0.12173 0.69452 0.21882 0.0
C263 C 0.11761 0.72527 0.19012 0.0
C264 C 0.12705 0.77346 0.19764 0.0
C265 C 0.13704 0.78321 0.21566 0.0
C266 C 0.13408 0.74397 0.22619 0.0
C267 C 0.1222 0.81182 0.18692 0.0
C268 C 0.16644 0.86229 0.18511 0.0
C269 C 0.07407 0.79826 0.1783 0.0
C270 C 0.02538 0.74628 0.18033 0.0
C271 C 0.00474 0.72929 0.19696 0.0
C272 C 0.95943 0.67985 0.19881 0.0
C273 C 0.93411 0.64723 0.18409 0.0
C274 C 0.95396 0.66408 0.16749 0.0
C275 C 0.99934 0.71345 0.16558 0.0
H276 H 0.89903 0.60896 0.18554 0.0
H277 H 0.34166 0.08593 0.16647 0.0
H278 H 0.23706 0.15324 0.45179 0.0
H279 H 0.31367 0.17067 0.46965 0.0
H280 H 0.216 0.12204 0.51523 0.0
H281 H 0.13962 0.10578 0.49757 0.0
H282 H 0.30947 0.20671 0.52316 0.0
H283 H 0.24934 0.03913 0.49269 0.0
H284 H 0.22514 0.9789 0.46678 0.0
H285 H 0.38167 0.07362 0.44686 0.0
H286 H 0.40659 0.13479 0.47256 0.0
H287 H 0.45331 0.13447 0.57881 0.0
H288 H 0.3917 0.14511 0.5606 0.0
H289 H 0.50042 0.18969 0.51789 0.0
H290 H 0.56168 0.1775 0.53591 0.0
H291 H 0.40723 0.11525 0.50727 0.0
H292 H 0.46995 0.27841 0.53958 0.0
H293 H 0.49351 0.33704 0.56588 0.0
H294 H 0.33254 0.25027 0.58276 0.0
H295 H 0.30812 0.19067 0.55668 0.0
C296 C 0.23191 0.14641 0.46563 0.0
C297 C 0.18209 0.12777 0.47323 0.0
C298 C 0.27574 0.15628 0.47582 0.0
C299 C 0.27051 0.14701 0.49376 0.0
C300 C 0.22108 0.12951 0.50143 0.0
C301 C 0.17735 0.12002 0.49128 0.0
C302 C 0.31597 0.15403 0.50451 0.0
C303 C 0.33065 0.18644 0.51977 0.0
C304 C 0.34453 0.12866 0.49987 0.0
C305 C 0.32963 0.09182 0.48445 0.0
C306 C 0.27846 0.04731 0.48272 0.0
C307 C 0.26464 0.01298 0.46808 0.0
C308 C 0.30179 0.02252 0.45515 0.0
C309 C 0.3529 0.06633 0.45686 0.0
C310 C 0.3669 0.10082 0.47147 0.0
C311 C 0.46479 0.14778 0.56568 0.0
C312 C 0.51237 0.15482 0.55879 0.0
C313 C 0.42946 0.15403 0.55526 0.0
C314 C 0.44134 0.1684 0.53784 0.0
C315 C 0.49021 0.17839 0.53126 0.0
C316 C 0.52534 0.17163 0.54161 0.0
C317 C 0.40074 0.16775 0.52605 0.0
C318 C 0.38673 0.13627 0.51059 0.0
C319 C 0.3728 0.19388 0.53055 0.0
C320 C 0.3873 0.22984 0.54622 0.0
C321 C 0.43964 0.2716 0.54896 0.0
C322 C 0.45314 0.30505 0.56382 0.0
C323 C 0.41457 0.29733 0.576 0.0
C324 C 0.36238 0.2562 0.57332 0.0
C325 C 0.34868 0.22263 0.55848 0.0
H326 H 0.42511 0.32325 0.58749 0.0
H327 H 0.29102 0.99589 0.44383 0.0
H328 H 0.0792 0.21645 0.79199 0.0
H329 H 0.13875 0.28658 0.81294 0.0
H330 H 0.22583 0.20672 0.82022 0.0
H331 H 0.167 0.13689 0.79929 0.0
H332 H 0.19834 0.23744 0.85148 0.0
H333 H 0.27662 0.31153 0.79626 0.0
H334 H 0.27633 0.34182 0.76673 0.0
H335 H 0.23596 0.4535 0.78782 0.0
H336 H 0.2353 0.42331 0.81748 0.0
H337 H 0.44585 0.40998 0.8875 0.0
H338 H 0.37287 0.35342 0.86764 0.0
H339 H 0.31744 0.46373 0.87063 0.0
H340 H 0.39132 0.52144 0.89081 0.0
H341 H 0.31709 0.42357 0.83604 0.0
H342 H 0.2504 0.35773 0.89173 0.0
H343 H 0.25198 0.32838 0.9213 0.0
H344 H 0.26906 0.20158 0.89969 0.0
H345 H 0.26843 0.23065 0.86998 0.0
C346 C 0.11116 0.21394 0.79801 0.0
C347 C 0.11835 0.17106 0.79397 0.0
C348 C 0.14518 0.25409 0.80994 0.0
C349 C 0.18667 0.25181 0.81811 0.0
C350 C 0.19395 0.20914 0.81408 0.0
C351 C 0.1604 0.16937 0.80205 0.0
C352 C 0.22232 0.29318 0.83112 0.0
C353 C 0.22442 0.2781 0.8481 0.0
C354 C 0.25488 0.34661 0.82686 0.0
C355 C 0.25521 0.36468 0.80905 0.0
C356 C 0.26715 0.34217 0.79458 0.0
C357 C 0.26728 0.3594 0.77782 0.0
C358 C 0.25594 0.39942 0.77539 0.0
C359 C 0.24461 0.42241 0.78972 0.0
C360 C 0.24437 0.40527 0.80651 0.0
C361 C 0.4184 0.4226 0.88398 0.0
C362 C 0.42433 0.47022 0.89084 0.0
C363 C 0.37651 0.39 0.87263 0.0
C364 C 0.33938 0.40402 0.86784 0.0
C365 C 0.34563 0.45214 0.87425 0.0
C366 C 0.3877 0.48493 0.88579 0.0
C367 C 0.29419 0.36737 0.85623 0.0
C368 C 0.29021 0.3832 0.83954 0.0
C369 C 0.25959 0.31456 0.86076 0.0
C370 C 0.25968 0.2966 0.87861 0.0
C371 C 0.25488 0.32381 0.89328 0.0
C372 C 0.25555 0.30719 0.91007 0.0
C373 C 0.2607 0.26319 0.91238 0.0
C374 C 0.26508 0.23566 0.89789 0.0
C375 C 0.2645 0.25216 0.88106 0.0
H376 H 0.26121 0.25038 0.92539 0.0
H377 H 0.25609 0.41273 0.76241 0.0
H378 H 0.90369 0.01445 0.73387 0.0
H379 H 0.84188 0.0211 0.71439 0.0
H380 H 0.96966 0.1656 0.69496 0.0
H381 H 0.03207 0.15943 0.71452 0.0
H382 H 0.87781 0.17003 0.70063 0.0
H383 H 0.92787 0.05758 0.67086 0.0
H384 H 0.94408 0.98349 0.66752 0.0
H385 H 0.77992 0.8738 0.67662 0.0
H386 H 0.76287 0.94734 0.68029 0.0
H387 H 0.71446 0.15061 0.62635 0.0
H388 H 0.78753 0.16244 0.64526 0.0
H389 H 0.68216 0.01559 0.66926 0.0
H390 H 0.60969 0.00339 0.65054 0.0
H391 H 0.77187 0.01969 0.65885 0.0
H392 H 0.72368 0.13323 0.69068 0.0
H393 H 0.70807 0.20766 0.69431 0.0
H394 H 0.86925 0.31571 0.68095 0.0
H395 H 0.88562 0.24176 0.67701 0.0
C396 C 0.91875 0.04785 0.72554 0.0
C397 C 0.97294 0.08621 0.72567 0.0
C398 C 0.88334 0.05153 0.71438 0.0
C399 C 0.9013 0.09352 0.70308 0.0
C400 C 0.95503 0.13283 0.70355 0.0
C401 C 0.99063 0.12909 0.71469 0.0
C402 C 0.86392 0.09496 0.69043 0.0
C403 C 0.85521 0.13761 0.69128 0.0
C404 C 0.83423 0.05247 0.67833 0.0
C405 C 0.84419 0.00804 0.67599 0.0
C406 C 0.8953 0.0177 0.67228 0.0
C407 C 0.90463 0.97579 0.67031 0.0
C408 C 0.86307 0.92398 0.67189 0.0
C409 C 0.81207 0.91397 0.67541 0.0
C410 C 0.80255 0.95574 0.67742 0.0
C411 C 0.70683 0.12123 0.63581 0.0
C412 C 0.65631 0.07592 0.63686 0.0
C413 C 0.74857 0.12805 0.64661 0.0
C414 C 0.7403 0.08978 0.65864 0.0
C415 C 0.68957 0.04542 0.66 0.0
C416 C 0.64809 0.03861 0.64928 0.0
C417 C 0.78446 0.094 0.66938 0.0
C418 C 0.79471 0.05239 0.66808 0.0
C419 C 0.81552 0.1375 0.681 0.0
C420 C 0.80568 0.18191 0.68334 0.0
C421 C 0.75565 0.1728 0.68835 0.0
C422 C 0.74669 0.21491 0.69051 0.0
C423 C 0.78759 0.26636 0.68781 0.0
C424 C 0.83758 0.27582 0.683 0.0
C425 C 0.84672 0.23383 0.68082 0.0
H426 H 0.78058 0.29891 0.68949 0.0
H427 H 0.87037 0.89159 0.67036 0.0
H428 H 0.88957 0.95446 0.07695 0.0
H429 H 0.81196 0.89583 0.05872 0.0
H430 H 0.89309 0.9814 0.01334 0.0
H431 H 0.97046 0.04096 0.03155 0.0
H432 H 0.79241 0.95687 0.01209 0.0
H433 H 0.88351 0.86373 0.02193 0.0
H434 H 0.92633 0.8263 0.03924 0.0
H435 H 0.77999 0.72852 0.06508 0.0
H436 H 0.73645 0.76593 0.04808 0.0
H437 H 0.6387 0.74899 0.9479 0.0
H438 H 0.70622 0.82042 0.96666 0.0
H439 H 0.61854 0.74235 0.01216 0.0
H440 H 0.55089 0.67095 0.99358 0.0
H441 H 0.72123 0.76419 0.01337 0.0
H442 H 0.62978 0.85664 1.0015 0.0
H443 H 0.58925 0.89341 0.98279 0.0
H444 H 0.73913 0.99136 0.95893 0.0
H445 H 0.78044 0.95466 0.97735 0.0
C446 C 0.89088 0.96096 0.0631 0.0
C447 C 0.93643 1.00216 0.05569 0.0
C448 C 0.84649 0.92731 0.05268 0.0
C449 C 0.84692 0.93369 0.03459 0.0
C450 C 0.89182 0.97563 0.02724 0.0
C451 C 0.93613 0.00952 0.03768 0.0
C452 C 0.80122 0.89568 0.0233 0.0
C453 C 0.77717 0.91478 0.01224 0.0
C454 C 0.78085 0.84066 0.02362 0.0
C455 C 0.80688 0.81806 0.03386 0.0
C456 C 0.86057 0.83456 0.0314 0.0
C457 C 0.88495 0.8133 0.04114 0.0
C458 C 0.85594 0.77517 0.05329 0.0
C459 C 0.80244 0.75813 0.05569 0.0
C460 C 0.77788 0.77932 0.046 0.0
C461 C 0.63306 0.74763 0.96187 0.0
C462 C 0.58954 0.70395 0.96923 0.0
C463 C 0.67174 0.78855 0.97258 0.0
C464 C 0.66753 0.78655 0.99082 0.0
C465 C 0.62267 0.74453 0.99813 0.0
C466 C 0.58391 0.70382 0.98746 0.0
C467 C 0.71207 0.82528 1.0023 0.0
C468 C 0.73618 0.80627 0.01332 0.0
C469 C 0.73278 0.88026 1.00175 0.0
C470 C 0.70809 0.90253 0.9907 0.0
C471 C 0.65401 0.8857 0.99216 0.0
C472 C 0.63091 0.9066 0.98163 0.0
C473 C 0.66156 0.9446 0.96964 0.0
C474 C 0.71542 0.96188 0.9682 0.0
C475 C 0.73871 0.94109 0.97871 0.0
H476 H 0.64361 0.96073 0.9615 0.0
H477 H 0.87488 0.75874 0.06081 0.0
H478 H 0.97412 0.99037 0.37009 0.0
H479 H 0.96007 0.91724 0.35051 0.0
H480 H 0.04156 0.87407 0.38716 0.0
H481 H 0.0571 0.94832 0.40665 0.0
H482 H 0.07501 0.87178 0.35602 0.0
H483 H 0.90413 0.80013 0.38058 0.0
H484 H 0.82197 0.79702 0.38969 0.0
H485 H 0.7852 0.8078 0.3364 0.0
H486 H 0.86757 0.81174 0.32698 0.0
H487 H 0.00496 0.63145 0.31068 0.0
H488 H 1.00012 0.68839 0.33364 0.0
H489 H 0.95663 0.76401 0.29539 0.0
H490 H 0.96211 0.70767 0.27222 0.0
H491 H 0.90065 0.74399 0.32874 0.0
H492 H 0.07761 0.82224 0.30539 0.0
H493 H 0.15869 0.82182 0.29712 0.0
H494 H 0.18169 0.79381 0.35006 0.0
H495 H 0.1002 0.79324 0.35857 0.0
C496 C 0.98881 0.96517 0.37406 0.0
C497 C 0.01674 0.97523 0.38995 0.0
C498 C 0.98042 0.92306 0.36288 0.0
C499 C 0.99902 0.8895 0.36743 0.0
C500 C 0.02669 0.89928 0.38335 0.0
C501 C 0.0355 0.94172 0.3945 0.0
C502 C 0.99178 0.84588 0.3552 0.0
C503 C 0.03664 0.84333 0.35034 0.0
C504 C 0.9419 0.80902 0.3475 0.0
C505 C 0.8923 0.8067 0.35309 0.0
C506 C 0.87875 0.80227 0.37081 0.0
C507 C 0.8321 0.80028 0.37603 0.0
C508 C 0.79845 0.80234 0.36363 0.0
C509 C 0.81134 0.80627 0.34599 0.0
C510 C 0.85798 0.80832 0.3407 0.0
C511 C 0.99324 0.65937 0.30715 0.0
C512 C 0.98437 0.66533 0.28957 0.0
C513 C 0.99064 0.69197 0.32031 0.0
C514 C 0.97855 0.73069 0.31617 0.0
C515 C 0.96607 0.73434 0.29882 0.0
C516 C 0.96934 0.7022 0.28561 0.0
C517 C 0.98379 0.77048 0.32964 0.0
C518 C 0.93873 0.7723 0.33463 0.0
C519 C 0.0333 0.80629 0.33764 0.0
C520 C 0.08251 0.80709 0.33257 0.0
C521 C 0.0997 0.81552 0.31523 0.0
C522 C 0.14577 0.81555 0.3105 0.0
C523 C 0.17524 0.80763 0.32305 0.0
C524 C 0.15877 0.79983 0.34035 0.0
C525 C 0.11266 0.79968 0.34513 0.0
H526 H 0.2109 0.80768 0.31937 0.0
H527 H 0.76234 0.80078 0.3677 0.0
H528 H 0.1646 0.99512 0.73743 0.0
H529 H 0.22349 0.98496 0.71712 0.0
H530 H 0.1173 0.96097 0.67435 0.0
H531 H 0.05749 0.96934 0.69464 0.0
H532 H 0.15336 0.89665 0.66982 0.0
H533 H 0.23257 0.08215 0.68375 0.0
H534 H 0.26859 0.16199 0.70306 0.0
H535 H 0.38635 0.13098 0.72297 0.0
H536 H 0.35056 0.05053 0.70392 0.0
H537 H 0.33434 0.98212 0.59904 0.0
H538 H 0.26931 0.96646 0.62155 0.0
H539 H 0.37649 0.97028 0.66072 0.0
H540 H 0.44171 0.9857 0.6383 0.0
H541 H 0.34152 0.03953 0.6684 0.0
H542 H 0.26532 0.85727 0.65137 0.0
H543 H 0.22929 0.78023 0.6308 0.0
H544 H 0.10577 0.80856 0.61518 0.0
H545 H 0.1415 0.88626 0.63548 0.0
C546 C 0.15365 0.98739 0.72371 0.0
C547 C 0.1065 0.98339 0.71765 0.0
C548 C 0.18747 0.98177 0.71209 0.0
C549 C 0.17536 0.97307 0.69412 0.0
C550 C 0.12761 0.9677 0.68813 0.0
C551 C 0.09349 0.97268 0.69976 0.0
C552 C 0.21301 0.97114 0.68147 0.0
C553 C 0.19439 0.92813 0.66942 0.0
C554 C 0.2669 0.01165 0.68113 0.0
C555 C 0.28851 0.06002 0.69257 0.0
C556 C 0.26589 0.09215 0.69235 0.0
C557 C 0.2863 0.13754 0.70323 0.0
C558 C 0.32962 0.15146 0.71427 0.0
C559 C 0.35272 0.12009 0.71443 0.0
C560 C 0.33242 0.07461 0.70359 0.0
C561 C 0.34367 0.97846 0.61238 0.0
C562 C 0.39338 0.98546 0.61686 0.0
C563 C 0.30637 0.96941 0.62524 0.0
C564 C 0.31809 0.9673 0.64283 0.0
C565 C 0.36668 0.97185 0.64724 0.0
C566 C 0.40381 0.98041 0.63437 0.0
C567 C 0.28177 0.96529 0.6567 0.0
C568 C 0.30064 0.00774 0.66894 0.0
C569 C 0.22806 0.92465 0.65705 0.0
C570 C 0.20638 0.87788 0.64485 0.0
C571 C 0.23074 0.84735 0.64344 0.0
C572 C 0.21031 0.8035 0.63185 0.0
C573 C 0.16534 0.78958 0.62166 0.0
C574 C 0.14063 0.81941 0.62307 0.0
C575 C 0.16092 0.86333 0.63464 0.0
H576 H 0.14958 0.75561 0.6127 0.0
H577 H 0.34537 0.18662 0.72268 0.0
H578 H 0.16316 0.25982 0.06715 0.0
H579 H 0.23104 0.30605 0.04557 0.0
H580 H 0.26327 0.17867 0.04281 0.0
H581 H 0.19503 0.13179 0.06453 0.0
H582 H 0.35566 0.27862 0.04327 0.0
H583 H 0.19293 0.18441 0.01129 0.0
H584 H 0.0992 0.1528 1.0044 0.0
H585 H 0.13648 0.31188 0.99736 0.0
H586 H 0.23037 0.34458 1.00451 0.0
H587 H 0.49698 0.38172 0.96219 0.0
H588 H 0.43691 0.32242 0.98411 0.0
H589 H 0.38598 0.43327 0.99674 0.0
H590 H 0.44573 0.49259 0.97526 0.0
H591 H 0.30237 0.3297 0.98943 0.0
H592 H 0.46398 0.42326 0.02415 0.0
H593 H 0.55752 0.45398 0.03109 0.0
H594 H 0.52179 0.29363 0.03222 0.0
H595 H 0.42808 0.26195 0.02504 0.0
C596 C 0.18478 0.24161 0.06207 0.0
C597 C 0.17337 0.1919 0.0675 0.0
C598 C 0.22353 0.26808 0.04968 0.0
C599 C 0.25175 0.2455 0.04243 0.0
C600 C 0.24181 0.19669 0.04821 0.0
C601 C 0.20272 0.16993 0.06058 0.0
C602 C 0.2904 0.27269 0.02847 0.0
C603 C 0.34392 0.28896 0.03134 0.0
C604 C 0.27509 0.28643 0.01295 0.0
C605 C 0.21866 0.26698 0.00858 0.0
C606 C 0.1811 0.21272 0.00841 0.0
C607 C 0.12794 0.19459 1.00444 0.0
C608 C 0.11188 0.23032 1.00048 0.0
C609 C 0.14898 0.28426 1.00045 0.0
C610 C 0.20219 0.30261 1.00445 0.0
C611 C 0.47339 0.39365 0.96978 0.0
C612 C 0.47612 0.44187 0.9669 0.0
C613 C 0.43915 0.35977 0.98229 0.0
C614 C 0.40688 0.37344 0.99198 0.0
C615 C 0.41035 0.42188 0.98935 0.0
C616 C 0.44478 0.45585 0.97707 0.0
C617 C 0.36779 0.33694 1.00446 0.0
C618 C 0.31403 0.31875 1.00125 0.0
C619 C 0.38292 0.32127 0.01956 0.0
C620 C 0.4392 0.34026 0.02383 0.0
C621 C 0.47618 0.39456 0.0257 0.0
C622 C 0.52919 0.41214 0.02972 0.0
C623 C 0.54563 0.37578 0.03203 0.0
C624 C 0.50903 0.32175 0.03038 0.0
C625 C 0.45596 0.30396 0.02635 0.0
H626 H 0.58669 0.38947 0.03516 0.0
H627 H 0.0707 0.21621 0.9974 0.0
H628 H 0.99176 0.18195 0.38828 0.0
H629 H 0.01311 0.24914 0.36691 0.0
H630 H 0.17861 0.32344 0.38097 0.0
H631 H 0.1577 0.25522 0.40226 0.0
H632 H 0.12603 0.39249 0.37778 0.0
H633 H 0.16161 0.27003 0.3468 0.0
H634 H 0.14294 0.18157 0.33699 0.0
H635 H 1.00001 0.15204 0.31129 0.0
H636 H 0.01737 0.24004 0.3212 0.0
H637 H 0.15712 0.55019 0.30311 0.0
H638 H 0.17693 0.50034 0.32389 0.0
H639 H 0.02072 0.36527 0.31469 0.0
H640 H 1.001 0.41398 0.29417 0.0
H641 H 0.09394 0.33629 0.3151 0.0
H642 H 0.04814 0.44779 0.35007 0.0
H643 H 0.06 0.53306 0.36081 0.0
H644 H 0.21665 0.58106 0.37944 0.0
H645 H 0.20591 0.49624 0.36859 0.0
C646 C 0.03271 0.21265 0.38693 0.0
C647 C 0.07306 0.21322 0.39694 0.0
C648 C 0.04482 0.25095 0.37469 0.0
C649 C 0.09738 0.29105 0.37238 0.0
C650 C 0.1378 0.29272 0.38261 0.0
C651 C 0.1258 0.25368 0.39468 0.0
C652 C 0.10914 0.33 0.35886 0.0
C653 C 0.12054 0.38089 0.36402 0.0
C654 C 0.1011 0.31435 0.34098 0.0
C655 C 0.09063 0.26152 0.33486 0.0
C656 C 0.12596 0.24451 0.33919 0.0
C657 C 0.11565 0.19448 0.33358 0.0
C658 C 0.07026 0.16116 0.32355 0.0
C659 C 0.03514 0.17788 0.31907 0.0
C660 C 0.04524 0.22786 0.32466 0.0
C661 C 0.12731 0.50974 0.30547 0.0
C662 C 0.07741 0.48617 0.29707 0.0
C663 C 0.13858 0.4814 0.31735 0.0
C664 C 0.10019 0.42909 0.32088 0.0
C665 C 0.05104 0.40543 0.31215 0.0
C666 C 0.03972 0.43358 0.30047 0.0
C667 C 0.10926 0.39848 0.334 0.0
C668 C 0.10137 0.34881 0.32878 0.0
C669 C 0.12005 0.41516 0.35182 0.0
C670 C 0.12653 0.46607 0.3583 0.0
C671 C 0.08529 0.47675 0.35631 0.0
C672 C 0.09177 0.52493 0.36244 0.0
C673 C 0.13913 0.56254 0.37074 0.0
C674 C 0.18005 0.55196 0.37296 0.0
C675 C 0.1738 0.50385 0.36682 0.0
H676 H 0.14406 0.59982 0.37549 0.0
H677 H 0.06235 0.12244 0.31922 0.0
loop_
_geom_bond_atom_site_label_1
_geom_bond_atom_site_label_2
_geom_bond_distance
_geom_bond_site_symmetry_2
_ccdc_geom_bond_type
C0 O1 1.157 1_565 S
C0 O7 1.184 1_565 S
O1 C0 1.157 1_545 S
O2 Zn3 1.899 . S
O2 C10 1.284 . S
Zn3 O2 1.899 . S
Zn3 O4 2.032 1_455 S
Zn3 O7 2.086 . S
Zn3 O12 1.977 . S
O4 Zn3 2.032 1_655 S
O4 C8 1.278 . S
C5 O6 1.203 . S
C5 O12 1.267 . S
O6 C5 1.203 . S
O7 C0 1.184 1_545 S
O7 Zn3 2.086 . S
C8 O4 1.278 . S
C8 O9 1.211 . S
O9 C8 1.211 . S
C10 O2 1.284 . S
C10 O11 1.273 1_455 S
O11 C10 1.273 1_655 S
O12 Zn3 1.977 . S
O12 C5 1.267 . S
C13 O14 1.160 . S
C13 O20 1.185 . S
O14 C13 1.160 . S
O15 Zn16 1.899 . S
O15 C23 1.284 . S
Zn16 O15 1.899 . S
Zn16 O17 2.032 . S
Zn16 O20 2.086 . S
Zn16 O25 1.977 . S
O17 Zn16 2.032 . S
O17 C21 1.278 1_455 S
C18 O19 1.203 . S
C18 O25 1.267 . S
O19 C18 1.203 . S
O20 C13 1.185 . S
O20 Zn16 2.086 . S
C21 O17 1.278 1_655 S
C21 O22 1.211 1_655 S
O22 C21 1.211 1_455 S
C23 O15 1.284 . S
C23 O24 1.273 1_545 S
O24 C23 1.273 1_565 S
O25 Zn16 1.977 . S
O25 C18 1.267 . S
C26 O27 1.160 . S
C26 O33 1.185 1_545 S
O27 C26 1.160 . S
O28 Zn29 1.899 1_655 S
O28 C36 1.284 . S
Zn29 O28 1.899 1_455 S
Zn29 O30 2.032 . S
Zn29 O33 2.086 1_545 S
Zn29 O38 1.979 1_545 S
O30 Zn29 2.032 . S
O30 C34 1.278 . S
C31 O32 1.203 . S
C31 O38 1.248 1_655 S
O32 C31 1.203 . S
O33 C26 1.185 1_565 S
O33 Zn29 2.086 1_565 S
C34 O30 1.278 . S
C34 O35 1.211 . S
O35 C34 1.211 . S
C36 O28 1.284 . S
C36 O37 1.273 . S
O37 C36 1.273 . S
O38 Zn29 1.979 1_565 S
O38 C31 1.248 1_455 S
Mg39 O46 2.141 . S
Mg39 O47 2.048 . S
Mg39 O48 2.048 . S
Mg39 O51 2.141 . S
C40 O41 1.313 1_455 S
C40 O47 1.195 . S
O41 C40 1.313 1_655 S
C42 O43 1.245 1_455 S
C42 O51 1.289 . S
O43 C42 1.245 1_655 S
C44 O45 1.245 1_455 S
C44 O46 1.289 . S
O45 C44 1.245 1_655 S
O46 Mg39 2.141 . S
O46 C44 1.289 . S
O47 Mg39 2.048 . S
O47 C40 1.195 . S
O48 Mg39 2.048 . S
O48 C49 1.195 . S
C49 O48 1.195 . S
C49 O50 1.313 1_455 S
O50 C49 1.313 1_655 S
O51 Mg39 2.141 . S
O51 C42 1.289 . S
Mg52 O59 2.141 . S
Mg52 O60 2.048 . S
Mg52 O61 2.048 . S
Mg52 O64 2.141 . S
C53 O54 1.313 . S
C53 O60 1.195 . S
O54 C53 1.313 . S
C55 O56 1.245 1_545 S
C55 O64 1.289 . S
O56 C55 1.245 1_565 S
C57 O58 1.245 1_545 S
C57 O59 1.289 . S
O58 C57 1.245 1_565 S
O59 Mg52 2.141 . S
O59 C57 1.289 . S
O60 Mg52 2.048 . S
O60 C53 1.195 . S
O61 Mg52 2.048 . S
O61 C62 1.195 . S
C62 O61 1.195 . S
C62 O63 1.313 . S
O63 C62 1.313 . S
O64 Mg52 2.141 . S
O64 C55 1.289 . S
Mg65 O72 2.141 . S
Mg65 O73 2.048 . S
Mg65 O74 2.048 . S
Mg65 O77 2.141 . S
C66 O67 1.313 . S
C66 O73 1.195 . S
O67 C66 1.313 . S
C68 O69 1.245 . S
C68 O77 1.289 . S
O69 C68 1.245 . S
C70 O71 1.245 . S
C70 O72 1.289 . S
O71 C70 1.245 . S
O72 Mg65 2.141 . S
O72 C70 1.289 . S
O73 Mg65 2.048 . S
O73 C66 1.195 . S
O74 Mg65 2.048 . S
O74 C75 1.195 . S
C75 O74 1.195 . S
C75 O76 1.313 . S
O76 C75 1.313 . S
O77 Mg65 2.141 . S
O77 C68 1.289 . S
H78 C96 0.951 . S
H79 C98 0.951 . S
H80 C100 0.950 . S
H81 C101 0.950 . S
H82 C103 0.950 . S
H83 C106 0.950 . S
H84 C107 0.950 . S
H85 C109 0.950 . S
H86 C110 0.950 . S
H87 C111 0.951 . S
H88 C113 0.951 . S
H89 C115 0.950 . S
H90 C116 0.950 . S
H91 C118 0.950 . S
H92 C121 0.950 . S
H93 C122 0.950 . S
H94 C124 0.950 . S
H95 C125 0.950 . S
C96 H78 0.951 . S
C96 C97 1.366 . S
C96 C98 1.388 . S
C97 C96 1.366 . S
C97 C101 1.385 . S
C98 H79 0.951 . S
C98 C96 1.388 . S
C98 C99 1.366 . S
C99 C98 1.366 . S
C99 C100 1.414 . S
C99 C102 1.499 . S
C100 H80 0.950 . S
C100 C99 1.414 . S
C100 C101 1.374 . S
C101 H81 0.950 . S
C101 C97 1.385 . S
C101 C100 1.374 . S
C102 C99 1.499 . S
C102 C103 1.373 . S
C102 C104 1.389 1_455 S
C103 H82 0.950 . S
C103 C102 1.373 . S
C103 C119 1.377 . S
C104 C102 1.389 1_655 S
C104 C105 1.524 . S
C104 C118 1.377 . S
C105 C104 1.524 . S
C105 C106 1.397 . S
C105 C110 1.363 . S
C106 H83 0.950 . S
C106 C105 1.397 . S
C106 C107 1.334 . S
C107 H84 0.950 . S
C107 C106 1.334 . S
C107 C108 1.287 . S
C108 C107 1.287 . S
C108 C109 1.524 . S
C108 H127 0.913 . S
C109 H85 0.950 . S
C109 C108 1.524 . S
C109 C110 1.415 . S
C110 H86 0.950 . S
C110 C105 1.363 . S
C110 C109 1.415 . S
C111 H87 0.951 . S
C111 C112 1.366 . S
C111 C113 1.388 . S
C112 C111 1.366 . S
C112 C116 1.385 . S
C113 H88 0.951 . S
C113 C111 1.388 . S
C113 C114 1.366 . S
C114 C113 1.366 . S
C114 C115 1.414 . S
C114 C117 1.499 . S
C115 H89 0.950 . S
C115 C114 1.414 . S
C115 C116 1.374 . S
C116 H90 0.950 . S
C116 C112 1.385 . S
C116 C115 1.374 . S
C117 C114 1.499 . S
C117 C118 1.373 1_455 S
C117 C119 1.389 . S
C118 H91 0.950 . S
C118 C104 1.377 . S
C118 C117 1.373 1_655 S
C119 C103 1.377 . S
C119 C117 1.389 . S
C119 C120 1.524 . S
C120 C119 1.524 . S
C120 C121 1.397 . S
C120 C125 1.363 . S
C121 H92 0.950 . S
C121 C120 1.397 . S
C121 C122 1.334 . S
C122 H93 0.950 . S
C122 C121 1.334 . S
C122 C123 1.287 . S
C123 C122 1.287 . S
C123 C124 1.524 . S
C123 H126 0.999 . S
C124 H94 0.950 . S
C124 C123 1.524 . S
C124 C125 1.415 . S
C125 H95 0.950 . S
C125 C120 1.363 . S
C125 C124 1.415 . S
H126 C123 0.999 . S
H127 C108 0.913 . S
H128 C146 0.951 . S
H129 C148 0.951 . S
H130 C150 0.950 1_565 S
H131 C151 0.950 1_565 S
H132 C153 0.950 . S
H133 C156 0.950 . S
H134 C157 0.950 1_455 S
H135 C159 0.950 1_455 S
H136 C160 0.950 . S
H137 C161 0.951 1_565 S
H138 C163 0.951 1_565 S
H139 C165 0.950 . S
H140 C166 0.950 . S
H141 C168 0.950 . S
H142 C171 0.950 . S
H143 C172 0.950 1_545 S
H144 C174 0.950 . S
H145 C175 0.950 . S
C146 H128 0.951 . S
C146 C147 1.366 . S
C146 C148 1.388 . S
C147 C146 1.366 . S
C147 C151 1.385 . S
C148 H129 0.951 . S
C148 C146 1.388 . S
C148 C149 1.366 . S
C149 C148 1.366 . S
C149 C150 1.414 . S
C149 C152 1.499 . S
C150 H130 0.950 1_545 S
C150 C149 1.414 . S
C150 C151 1.374 . S
C151 H131 0.950 1_545 S
C151 C147 1.385 . S
C151 C150 1.374 . S
C152 C149 1.499 . S
C152 C153 1.373 . S
C152 C154 1.389 . S
C153 H132 0.950 . S
C153 C152 1.373 . S
C153 C169 1.377 . S
C154 C152 1.389 . S
C154 C155 1.524 . S
C154 C168 1.377 . S
C155 C154 1.524 . S
C155 C156 1.397 . S
C155 C160 1.363 . S
C156 H133 0.950 . S
C156 C155 1.397 . S
C156 C157 1.334 . S
C157 H134 0.950 1_655 S
C157 C156 1.334 . S
C157 C158 1.287 1_655 S
C158 C157 1.287 1_455 S
C158 C159 1.524 1_455 S
C158 H177 0.913 . S
C159 H135 0.950 1_655 S
C159 C158 1.524 1_655 S
C159 C160 1.415 . S
C160 H136 0.950 . S
C160 C155 1.363 . S
C160 C159 1.415 . S
C161 H137 0.951 1_545 S
C161 C162 1.366 . S
C161 C163 1.388 . S
C162 C161 1.366 . S
C162 C166 1.385 . S
C163 H138 0.951 1_545 S
C163 C161 1.388 . S
C163 C164 1.366 . S
C164 C163 1.366 . S
C164 C165 1.414 . S
C164 C167 1.499 . S
C165 H139 0.950 . S
C165 C164 1.414 . S
C165 C166 1.374 . S
C166 H140 0.950 . S
C166 C162 1.385 . S
C166 C165 1.374 . S
C167 C164 1.499 . S
C167 C168 1.373 . S
C167 C169 1.389 . S
C168 H141 0.950 . S
C168 C154 1.377 . S
C168 C167 1.373 . S
C169 C153 1.377 . S
C169 C167 1.389 . S
C169 C170 1.524 1_545 S
C170 C169 1.524 1_565 S
C170 C171 1.397 1_565 S
C170 C175 1.363 . S
C171 H142 0.950 . S
C171 C170 1.397 1_545 S
C171 C172 1.334 1_545 S
C172 H143 0.950 1_565 S
C172 C171 1.334 1_565 S
C172 C173 1.287 . S
C173 C172 1.287 . S
C173 C174 1.524 . S
C173 H176 0.999 . S
C174 H144 0.950 . S
C174 C173 1.524 . S
C174 C175 1.415 . S
C175 H145 0.950 . S
C175 C170 1.363 . S
C175 C174 1.415 . S
H176 C173 0.999 . S
H177 C158 0.913 . S
H178 C196 0.951 . S
H179 C198 0.951 . S
H180 C200 0.950 . S
H181 C201 0.950 . S
H182 C203 0.950 . S
H183 C206 0.950 . S
H184 C207 0.950 . S
H185 C209 0.950 . S
H186 C210 0.950 . S
H187 C211 0.951 . S
H188 C213 0.951 . S
H189 C215 0.950 . S
H190 C216 0.950 . S
H191 C218 0.950 . S
H192 C221 0.950 . S
H193 C222 0.950 . S
H194 C224 0.950 . S
H195 C225 0.950 . S
C196 H178 0.951 . S
C196 C197 1.366 . S
C196 C198 1.388 . S
C197 C196 1.366 . S
C197 C201 1.385 . S
C198 H179 0.951 . S
C198 C196 1.388 . S
C198 C199 1.366 . S
C199 C198 1.366 . S
C199 C200 1.414 . S
C199 C202 1.499 . S
C200 H180 0.950 . S
C200 C199 1.414 . S
C200 C201 1.374 . S
C201 H181 0.950 . S
C201 C197 1.385 . S
C201 C200 1.374 . S
C202 C199 1.499 . S
C202 C203 1.373 . S
C202 C204 1.389 . S
C203 H182 0.950 . S
C203 C202 1.373 . S
C203 C219 1.377 . S
C204 C202 1.389 . S
C204 C205 1.524 . S
C204 C218 1.377 . S
C205 C204 1.524 . S
C205 C206 1.397 . S
C205 C210 1.363 . S
C206 H183 0.950 . S
C206 C205 1.397 . S
C206 C207 1.334 . S
C207 H184 0.950 . S
C207 C206 1.334 . S
C207 C208 1.287 . S
C208 C207 1.287 . S
C208 C209 1.524 . S
C208 H227 0.913 . S
C209 H185 0.950 . S
C209 C208 1.524 . S
C209 C210 1.415 . S
C210 H186 0.950 . S
C210 C205 1.363 . S
C210 C209 1.415 . S
C211 H187 0.951 . S
C211 C212 1.366 . S
C211 C213 1.388 . S
C212 C211 1.366 . S
C212 C216 1.385 . S
C213 H188 0.951 . S
C213 C211 1.388 . S
C213 C214 1.366 . S
C214 C213 1.366 . S
C214 C215 1.414 . S
C214 C217 1.499 . S
C215 H189 0.950 . S
C215 C214 1.414 . S
C215 C216 1.374 . S
C216 H190 0.950 . S
C216 C212 1.385 . S
C216 C215 1.374 . S
C217 C214 1.499 . S
C217 C218 1.373 . S
C217 C219 1.389 . S
C218 H191 0.950 . S
C218 C204 1.377 . S
C218 C217 1.373 . S
C219 C203 1.377 . S
C219 C217 1.389 . S
C219 C220 1.524 . S
C220 C219 1.524 . S
C220 C221 1.397 . S
C220 C225 1.363 . S
C221 H192 0.950 . S
C221 C220 1.397 . S
C221 C222 1.334 . S
C222 H193 0.950 . S
C222 C221 1.334 . S
C222 C223 1.287 . S
C223 C222 1.287 . S
C223 C224 1.524 . S
C223 H226 0.999 . S
C224 H194 0.950 . S
C224 C223 1.524 . S
C224 C225 1.415 . S
C225 H195 0.950 . S
C225 C220 1.363 . S
C225 C224 1.415 . S
H226 C223 0.999 . S
H227 C208 0.913 . S
H228 C246 0.951 1_545 S
H229 C248 0.951 . S
H230 C250 0.950 . S
H231 C251 0.950 . S
H232 C253 0.950 1_655 S
H233 C256 0.950 . S
H234 C257 0.950 . S
H235 C259 0.950 . S
H236 C260 0.950 . S
H237 C261 0.951 1_655 S
H238 C263 0.951 1_655 S
H239 C265 0.950 . S
H240 C266 0.950 . S
H241 C268 0.950 . S
H242 C271 0.950 . S
H243 C272 0.950 . S
H244 C274 0.950 . S
H245 C275 0.950 . S
C246 H228 0.951 1_565 S
C246 C247 1.366 . S
C246 C248 1.388 . S
C247 C246 1.366 . S
C247 C251 1.385 . S
C248 H229 0.951 . S
C248 C246 1.388 . S
C248 C249 1.366 . S
C249 C248 1.366 . S
C249 C250 1.414 . S
C249 C252 1.499 . S
C250 H230 0.950 . S
C250 C249 1.414 . S
C250 C251 1.374 . S
C251 H231 0.950 . S
C251 C247 1.385 . S
C251 C250 1.374 . S
C252 C249 1.499 . S
C252 C253 1.373 . S
C252 C254 1.389 . S
C253 H232 0.950 1_455 S
C253 C252 1.373 . S
C253 C269 1.377 1_455 S
C254 C252 1.389 . S
C254 C255 1.524 . S
C254 C268 1.377 . S
C255 C254 1.524 . S
C255 C256 1.397 . S
C255 C260 1.363 . S
C256 H233 0.950 . S
C256 C255 1.397 . S
C256 C257 1.334 . S
C257 H234 0.950 . S
C257 C256 1.334 . S
C257 C258 1.287 . S
C258 C257 1.287 . S
C258 C259 1.524 . S
C258 H277 0.913 . S
C259 H235 0.950 . S
C259 C258 1.524 . S
C259 C260 1.415 . S
C260 H236 0.950 . S
C260 C255 1.363 . S
C260 C259 1.415 . S
C261 H237 0.951 1_455 S
C261 C262 1.366 . S
C261 C263 1.388 . S
C262 C261 1.366 . S
C262 C266 1.385 . S
C263 H238 0.951 1_455 S
C263 C261 1.388 . S
C263 C264 1.366 . S
C264 C263 1.366 . S
C264 C265 1.414 . S
C264 C267 1.499 . S
C265 H239 0.950 . S
C265 C264 1.414 . S
C265 C266 1.374 . S
C266 H240 0.950 . S
C266 C262 1.385 . S
C266 C265 1.374 . S
C267 C264 1.499 . S
C267 C268 1.373 . S
C267 C269 1.389 1_455 S
C268 H241 0.950 . S
C268 C254 1.377 . S
C268 C267 1.373 . S
C269 C253 1.377 1_655 S
C269 C267 1.389 1_655 S
C269 C270 1.524 . S
C270 C269 1.524 . S
C270 C271 1.397 . S
C270 C275 1.363 . S
C271 H242 0.950 . S
C271 C270 1.397 . S
C271 C272 1.334 . S
C272 H243 0.950 . S
C272 C271 1.334 . S
C272 C273 1.287 . S
C273 C272 1.287 . S
C273 C274 1.524 . S
C273 H276 0.999 . S
C274 H244 0.950 . S
C274 C273 1.524 . S
C274 C275 1.415 . S
C275 H245 0.950 . S
C275 C270 1.363 . S
C275 C274 1.415 . S
H276 C273 0.999 . S
H277 C258 0.913 . S
H278 C296 0.951 . S
H279 C298 0.951 . S
H280 C300 0.950 . S
H281 C301 0.950 . S
H282 C303 0.950 . S
H283 C306 0.950 1_565 S
H284 C307 0.950 . S
H285 C309 0.950 . S
H286 C310 0.950 . S
H287 C311 0.951 . S
H288 C313 0.951 . S
H289 C315 0.950 . S
H290 C316 0.950 . S
H291 C318 0.950 . S
H292 C321 0.950 . S
H293 C322 0.950 . S
H294 C324 0.950 . S
H295 C325 0.950 . S
C296 H278 0.951 . S
C296 C297 1.366 . S
C296 C298 1.388 . S
C297 C296 1.366 . S
C297 C301 1.385 . S
C298 H279 0.951 . S
C298 C296 1.388 . S
C298 C299 1.366 . S
C299 C298 1.366 . S
C299 C300 1.414 . S
C299 C302 1.499 . S
C300 H280 0.950 . S
C300 C299 1.414 . S
C300 C301 1.374 . S
C301 H281 0.950 . S
C301 C297 1.385 . S
C301 C300 1.374 . S
C302 C299 1.499 . S
C302 C303 1.373 . S
C302 C304 1.389 . S
C303 H282 0.950 . S
C303 C302 1.373 . S
C303 C319 1.377 . S
C304 C302 1.389 . S
C304 C305 1.524 . S
C304 C318 1.377 . S
C305 C304 1.524 . S
C305 C306 1.397 . S
C305 C310 1.363 . S
C306 H283 0.950 1_545 S
C306 C305 1.397 . S
C306 C307 1.334 1_545 S
C307 H284 0.950 . S
C307 C306 1.334 1_565 S
C307 C308 1.287 . S
C308 C307 1.287 . S
C308 C309 1.524 1_565 S
C308 H327 0.913 . S
C309 H285 0.950 . S
C309 C308 1.524 1_545 S
C309 C310 1.415 . S
C310 H286 0.950 . S
C310 C305 1.363 . S
C310 C309 1.415 . S
C311 H287 0.951 . S
C311 C312 1.366 . S
C311 C313 1.388 . S
C312 C311 1.366 . S
C312 C316 1.385 . S
C313 H288 0.951 . S
C313 C311 1.388 . S
C313 C314 1.366 . S
C314 C313 1.366 . S
C314 C315 1.414 . S
C314 C317 1.499 . S
C315 H289 0.950 . S
C315 C314 1.414 . S
C315 C316 1.374 . S
C316 H290 0.950 . S
C316 C312 1.385 . S
C316 C315 1.374 . S
C317 C314 1.499 . S
C317 C318 1.373 . S
C317 C319 1.389 . S
C318 H291 0.950 . S
C318 C304 1.377 . S
C318 C317 1.373 . S
C319 C303 1.377 . S
C319 C317 1.389 . S
C319 C320 1.524 . S
C320 C319 1.524 . S
C320 C321 1.397 . S
C320 C325 1.363 . S
C321 H292 0.950 . S
C321 C320 1.397 . S
C321 C322 1.334 . S
C322 H293 0.950 . S
C322 C321 1.334 . S
C322 C323 1.287 . S
C323 C322 1.287 . S
C323 C324 1.524 . S
C323 H326 0.999 . S
C324 H294 0.950 . S
C324 C323 1.524 . S
C324 C325 1.415 . S
C325 H295 0.950 . S
C325 C320 1.363 . S
C325 C324 1.415 . S
H326 C323 0.999 . S
H327 C308 0.913 . S
H328 C346 0.951 . S
H329 C348 0.951 . S
H330 C350 0.950 . S
H331 C351 0.950 . S
H332 C353 0.950 . S
H333 C356 0.950 . S
H334 C357 0.950 . S
H335 C359 0.950 . S
H336 C360 0.950 . S
H337 C361 0.951 . S
H338 C363 0.951 . S
H339 C365 0.950 . S
H340 C366 0.950 . S
H341 C368 0.950 . S
H342 C371 0.950 . S
H343 C372 0.950 . S
H344 C374 0.950 . S
H345 C375 0.950 . S
C346 H328 0.951 . S
C346 C347 1.366 . S
C346 C348 1.388 . S
C347 C346 1.366 . S
C347 C351 1.385 . S
C348 H329 0.951 . S
C348 C346 1.388 . S
C348 C349 1.366 . S
C349 C348 1.366 . S
C349 C350 1.414 . S
C349 C352 1.499 . S
C350 H330 0.950 . S
C350 C349 1.414 . S
C350 C351 1.374 . S
C351 H331 0.950 . S
C351 C347 1.385 . S
C351 C350 1.374 . S
C352 C349 1.499 . S
C352 C353 1.373 . S
C352 C354 1.389 . S
C353 H332 0.950 . S
C353 C352 1.373 . S
C353 C369 1.377 . S
C354 C352 1.389 . S
C354 C355 1.524 . S
C354 C368 1.377 . S
C355 C354 1.524 . S
C355 C356 1.397 . S
C355 C360 1.363 . S
C356 H333 0.950 . S
C356 C355 1.397 . S
C356 C357 1.334 . S
C357 H334 0.950 . S
C357 C356 1.334 . S
C357 C358 1.287 . S
C358 C357 1.287 . S
C358 C359 1.524 . S
C358 H377 0.913 . S
C359 H335 0.950 . S
C359 C358 1.524 . S
C359 C360 1.415 . S
C360 H336 0.950 . S
C360 C355 1.363 . S
C360 C359 1.415 . S
C361 H337 0.951 . S
C361 C362 1.366 . S
C361 C363 1.388 . S
C362 C361 1.366 . S
C362 C366 1.385 . S
C363 H338 0.951 . S
C363 C361 1.388 . S
C363 C364 1.366 . S
C364 C363 1.366 . S
C364 C365 1.414 . S
C364 C367 1.499 . S
C365 H339 0.950 . S
C365 C364 1.414 . S
C365 C366 1.374 . S
C366 H340 0.950 . S
C366 C362 1.385 . S
C366 C365 1.374 . S
C367 C364 1.499 . S
C367 C368 1.373 . S
C367 C369 1.389 . S
C368 H341 0.950 . S
C368 C354 1.377 . S
C368 C367 1.373 . S
C369 C353 1.377 . S
C369 C367 1.389 . S
C369 C370 1.524 . S
C370 C369 1.524 . S
C370 C371 1.397 . S
C370 C375 1.363 . S
C371 H342 0.950 . S
C371 C370 1.397 . S
C371 C372 1.334 . S
C372 H343 0.950 . S
C372 C371 1.334 . S
C372 C373 1.287 . S
C373 C372 1.287 . S
C373 C374 1.524 . S
C373 H376 0.999 . S
C374 H344 0.950 . S
C374 C373 1.524 . S
C374 C375 1.415 . S
C375 H345 0.950 . S
C375 C370 1.363 . S
C375 C374 1.415 . S
H376 C373 0.999 . S
H377 C358 0.913 . S
H378 C396 0.951 1_565 S
H379 C398 0.951 1_565 S
H380 C400 0.950 . S
H381 C401 0.950 . S
H382 C403 0.950 . S
H383 C406 0.950 1_545 S
H384 C407 0.950 . S
H385 C409 0.950 . S
H386 C410 0.950 . S
H387 C411 0.951 . S
H388 C413 0.951 . S
H389 C415 0.950 1_565 S
H390 C416 0.950 1_565 S
H391 C418 0.950 1_565 S
H392 C421 0.950 . S
H393 C422 0.950 . S
H394 C424 0.950 . S
H395 C425 0.950 . S
C396 H378 0.951 1_545 S
C396 C397 1.366 . S
C396 C398 1.388 . S
C397 C396 1.366 . S
C397 C401 1.385 . S
C398 H379 0.951 1_545 S
C398 C396 1.388 . S
C398 C399 1.366 . S
C399 C398 1.366 . S
C399 C400 1.414 . S
C399 C402 1.499 . S
C400 H380 0.950 . S
C400 C399 1.414 . S
C400 C401 1.374 . S
C401 H381 0.950 . S
C401 C397 1.385 . S
C401 C400 1.374 . S
C402 C399 1.499 . S
C402 C403 1.373 . S
C402 C404 1.389 . S
C403 H382 0.950 . S
C403 C402 1.373 . S
C403 C419 1.377 . S
C404 C402 1.389 . S
C404 C405 1.524 1_545 S
C404 C418 1.377 . S
C405 C404 1.524 1_565 S
C405 C406 1.397 . S
C405 C410 1.363 . S
C406 H383 0.950 1_565 S
C406 C405 1.397 . S
C406 C407 1.334 . S
C407 H384 0.950 . S
C407 C406 1.334 . S
C407 C408 1.287 . S
C408 C407 1.287 . S
C408 C409 1.524 . S
C408 H427 0.913 . S
C409 H385 0.950 . S
C409 C408 1.524 . S
C409 C410 1.415 . S
C410 H386 0.950 . S
C410 C405 1.363 . S
C410 C409 1.415 . S
C411 H387 0.951 . S
C411 C412 1.366 . S
C411 C413 1.388 . S
C412 C411 1.366 . S
C412 C416 1.385 . S
C413 H388 0.951 . S
C413 C411 1.388 . S
C413 C414 1.366 . S
C414 C413 1.366 . S
C414 C415 1.414 . S
C414 C417 1.499 . S
C415 H389 0.950 1_545 S
C415 C414 1.414 . S
C415 C416 1.374 . S
C416 H390 0.950 1_545 S
C416 C412 1.385 . S
C416 C415 1.374 . S
C417 C414 1.499 . S
C417 C418 1.373 . S
C417 C419 1.389 . S
C418 H391 0.950 1_545 S
C418 C404 1.377 . S
C418 C417 1.373 . S
C419 C403 1.377 . S
C419 C417 1.389 . S
C419 C420 1.524 . S
C420 C419 1.524 . S
C420 C421 1.397 . S
C420 C425 1.363 . S
C421 H392 0.950 . S
C421 C420 1.397 . S
C421 C422 1.334 . S
C422 H393 0.950 . S
C422 C421 1.334 . S
C422 C423 1.287 . S
C423 C422 1.287 . S
C423 C424 1.524 . S
C423 H426 0.999 . S
C424 H394 0.950 . S
C424 C423 1.524 . S
C424 C425 1.415 . S
C425 H395 0.950 . S
C425 C420 1.363 . S
C425 C424 1.415 . S
H426 C423 0.999 . S
H427 C408 0.913 . S
H428 C446 0.951 . S
H429 C448 0.951 . S
H430 C450 0.950 . S
H431 C451 0.950 1_545 S
H432 C453 0.950 . S
H433 C456 0.950 . S
H434 C457 0.950 . S
H435 C459 0.950 . S
H436 C460 0.950 . S
H437 C461 0.951 . S
H438 C463 0.951 . S
H439 C465 0.933 1_554 S
H440 C466 0.950 . S
H441 C468 0.950 . S
H442 C471 0.923 1_554 S
H443 C472 0.950 . S
H444 C474 0.950 . S
H445 C475 0.950 . S
C446 H428 0.951 . S
C446 C447 1.366 . S
C446 C448 1.388 . S
C447 C446 1.366 . S
C447 C451 1.385 . S
C448 H429 0.951 . S
C448 C446 1.388 . S
C448 C449 1.366 . S
C449 C448 1.366 . S
C449 C450 1.414 . S
C449 C452 1.499 . S
C450 H430 0.950 . S
C450 C449 1.414 . S
C450 C451 1.374 . S
C451 H431 0.950 1_565 S
C451 C447 1.385 . S
C451 C450 1.374 . S
C452 C449 1.499 . S
C452 C453 1.373 . S
C452 C454 1.389 . S
C453 H432 0.950 . S
C453 C452 1.373 . S
C453 C469 1.400 . S
C454 C452 1.389 . S
C454 C455 1.524 . S
C454 C468 1.377 . S
C455 C454 1.524 . S
C455 C456 1.397 . S
C455 C460 1.363 . S
C456 H433 0.950 . S
C456 C455 1.397 . S
C456 C457 1.334 . S
C457 H434 0.950 . S
C457 C456 1.334 . S
C457 C458 1.287 . S
C458 C457 1.287 . S
C458 C459 1.524 . S
C458 H477 0.913 . S
C459 H435 0.950 . S
C459 C458 1.524 . S
C459 C460 1.415 . S
C460 H436 0.950 . S
C460 C455 1.363 . S
C460 C459 1.415 . S
C461 H437 0.951 . S
C461 C462 1.366 . S
C461 C463 1.388 . S
C462 C461 1.366 . S
C462 C466 1.385 . S
C463 H438 0.951 . S
C463 C461 1.388 . S
C463 C464 1.366 . S
C464 C463 1.366 . S
C464 C465 1.414 . S
C464 C467 1.499 . S
C465 H439 0.933 1_556 S
C465 C464 1.414 . S
C465 C466 1.374 . S
C466 H440 0.950 . S
C466 C462 1.385 . S
C466 C465 1.374 . S
C467 C464 1.499 . S
C467 C468 1.373 1_556 S
C467 C469 1.386 1_556 S
C468 H441 0.950 . S
C468 C454 1.377 . S
C468 C467 1.373 1_554 S
C469 C453 1.400 . S
C469 C467 1.386 1_554 S
C469 C470 1.507 1_554 S
C470 C469 1.507 1_556 S
C470 C471 1.397 . S
C470 C475 1.363 . S
C471 H442 0.923 1_556 S
C471 C470 1.397 . S
C471 C472 1.334 . S
C472 H443 0.950 . S
C472 C471 1.334 . S
C472 C473 1.287 . S
C473 C472 1.287 . S
C473 C474 1.524 . S
C473 H476 0.999 . S
C474 H444 0.950 . S
C474 C473 1.524 . S
C474 C475 1.415 . S
C475 H445 0.950 . S
C475 C470 1.363 . S
C475 C474 1.415 . S
H476 C473 0.999 . S
H477 C458 0.913 . S
H478 C496 0.951 1_655 S
H479 C498 0.951 1_655 S
H480 C500 0.950 . S
H481 C501 0.950 . S
H482 C503 0.950 . S
H483 C506 0.950 . S
H484 C507 0.950 . S
H485 C509 0.950 . S
H486 C510 0.950 . S
H487 C511 0.951 . S
H488 C513 0.951 . S
H489 C515 0.950 1_655 S
H490 C516 0.950 1_655 S
H491 C518 0.950 . S
H492 C521 0.950 . S
H493 C522 0.950 . S
H494 C524 0.950 . S
H495 C525 0.950 . S
C496 H478 0.951 1_455 S
C496 C497 1.366 . S
C496 C498 1.388 . S
C497 C496 1.366 . S
C497 C501 1.385 . S
C498 H479 0.951 1_455 S
C498 C496 1.388 . S
C498 C499 1.366 . S
C499 C498 1.366 . S
C499 C500 1.414 . S
C499 C502 1.499 . S
C500 H480 0.950 . S
C500 C499 1.414 . S
C500 C501 1.374 . S
C501 H481 0.950 . S
C501 C497 1.385 . S
C501 C500 1.374 . S
C502 C499 1.499 . S
C502 C503 1.373 . S
C502 C504 1.389 1_455 S
C503 H482 0.950 . S
C503 C502 1.373 . S
C503 C519 1.377 . S
C504 C502 1.389 1_655 S
C504 C505 1.524 . S
C504 C518 1.377 . S
C505 C504 1.524 . S
C505 C506 1.397 . S
C505 C510 1.363 . S
C506 H483 0.950 . S
C506 C505 1.397 . S
C506 C507 1.334 . S
C507 H484 0.950 . S
C507 C506 1.334 . S
C507 C508 1.287 . S
C508 C507 1.287 . S
C508 C509 1.524 . S
C508 H527 0.913 . S
C509 H485 0.950 . S
C509 C508 1.524 . S
C509 C510 1.415 . S
C510 H486 0.950 . S
C510 C505 1.363 . S
C510 C509 1.415 . S
C511 H487 0.951 . S
C511 C512 1.366 . S
C511 C513 1.388 . S
C512 C511 1.366 . S
C512 C516 1.385 . S
C513 H488 0.951 . S
C513 C511 1.388 . S
C513 C514 1.366 . S
C514 C513 1.366 . S
C514 C515 1.414 . S
C514 C517 1.499 . S
C515 H489 0.950 1_455 S
C515 C514 1.414 . S
C515 C516 1.374 . S
C516 H490 0.950 1_455 S
C516 C512 1.385 . S
C516 C515 1.374 . S
C517 C514 1.499 . S
C517 C518 1.373 1_455 S
C517 C519 1.389 . S
C518 H491 0.950 . S
C518 C504 1.377 . S
C518 C517 1.373 1_655 S
C519 C503 1.377 . S
C519 C517 1.389 . S
C519 C520 1.524 . S
C520 C519 1.524 . S
C520 C521 1.397 . S
C520 C525 1.363 . S
C521 H492 0.950 . S
C521 C520 1.397 . S
C521 C522 1.334 . S
C522 H493 0.950 . S
C522 C521 1.334 . S
C522 C523 1.287 . S
C523 C522 1.287 . S
C523 C524 1.524 . S
C523 H526 0.999 . S
C524 H494 0.950 . S
C524 C523 1.524 . S
C524 C525 1.415 . S
C525 H495 0.950 . S
C525 C520 1.363 . S
C525 C524 1.415 . S
H526 C523 0.999 . S
H527 C508 0.913 . S
H528 C546 0.951 . S
H529 C548 0.951 . S
H530 C550 0.950 . S
H531 C551 0.950 . S
H532 C553 0.950 . S
H533 C556 0.950 . S
H534 C557 0.950 . S
H535 C559 0.950 . S
H536 C560 0.950 . S
H537 C561 0.951 . S
H538 C563 0.951 . S
H539 C565 0.950 . S
H540 C566 0.950 . S
H541 C568 0.950 . S
H542 C571 0.950 . S
H543 C572 0.950 . S
H544 C574 0.950 . S
H545 C575 0.950 . S
C546 H528 0.951 . S
C546 C547 1.366 . S
C546 C548 1.388 . S
C547 C546 1.366 . S
C547 C551 1.385 . S
C548 H529 0.951 . S
C548 C546 1.388 . S
C548 C549 1.366 . S
C549 C548 1.366 . S
C549 C550 1.414 . S
C549 C552 1.499 . S
C550 H530 0.950 . S
C550 C549 1.414 . S
C550 C551 1.374 . S
C551 H531 0.950 . S
C551 C547 1.385 . S
C551 C550 1.374 . S
C552 C549 1.499 . S
C552 C553 1.373 1_545 S
C552 C554 1.389 . S
C553 H532 0.950 . S
C553 C552 1.373 1_565 S
C553 C569 1.377 . S
C554 C552 1.389 . S
C554 C555 1.524 . S
C554 C568 1.377 . S
C555 C554 1.524 . S
C555 C556 1.397 . S
C555 C560 1.363 . S
C556 H533 0.950 . S
C556 C555 1.397 . S
C556 C557 1.334 . S
C557 H534 0.950 . S
C557 C556 1.334 . S
C557 C558 1.287 . S
C558 C557 1.287 . S
C558 C559 1.524 . S
C558 H577 0.913 . S
C559 H535 0.950 . S
C559 C558 1.524 . S
C559 C560 1.415 . S
C560 H536 0.950 . S
C560 C555 1.363 . S
C560 C559 1.415 . S
C561 H537 0.951 . S
C561 C562 1.366 . S
C561 C563 1.388 . S
C562 C561 1.366 . S
C562 C566 1.385 . S
C563 H538 0.951 . S
C563 C561 1.388 . S
C563 C564 1.366 . S
C564 C563 1.366 . S
C564 C565 1.414 . S
C564 C567 1.499 . S
C565 H539 0.950 . S
C565 C564 1.414 . S
C565 C566 1.374 . S
C566 H540 0.950 . S
C566 C562 1.385 . S
C566 C565 1.374 . S
C567 C564 1.499 . S
C567 C568 1.373 . S
C567 C569 1.389 1_545 S
C568 H541 0.950 . S
C568 C554 1.377 . S
C568 C567 1.373 . S
C569 C553 1.377 . S
C569 C567 1.389 1_565 S
C569 C570 1.524 . S
C570 C569 1.524 . S
C570 C571 1.397 . S
C570 C575 1.363 . S
C571 H542 0.950 . S
C571 C570 1.397 . S
C571 C572 1.334 . S
C572 H543 0.950 . S
C572 C571 1.334 . S
C572 C573 1.287 . S
C573 C572 1.287 . S
C573 C574 1.524 . S
C573 H576 0.999 . S
C574 H544 0.950 . S
C574 C573 1.524 . S
C574 C575 1.415 . S
C575 H545 0.950 . S
C575 C570 1.363 . S
C575 C574 1.415 . S
H576 C573 0.999 . S
H577 C558 0.913 . S
H578 C596 0.951 . S
H579 C598 0.951 . S
H580 C600 0.950 . S
H581 C601 0.950 . S
H582 C603 0.950 . S
H583 C606 0.947 1_554 S
H584 C607 0.950 . S
H585 C609 0.950 . S
H586 C610 0.950 . S
H587 C611 0.951 . S
H588 C613 0.951 . S
H589 C615 0.950 . S
H590 C616 0.950 . S
H591 C618 0.950 . S
H592 C621 0.950 . S
H593 C622 0.950 . S
H594 C624 0.950 . S
H595 C625 0.950 . S
C596 H578 0.951 . S
C596 C597 1.366 . S
C596 C598 1.388 . S
C597 C596 1.366 . S
C597 C601 1.385 . S
C598 H579 0.951 . S
C598 C596 1.388 . S
C598 C599 1.366 . S
C599 C598 1.366 . S
C599 C600 1.414 . S
C599 C602 1.499 . S
C600 H580 0.950 . S
C600 C599 1.414 . S
C600 C601 1.374 . S
C601 H581 0.950 . S
C601 C597 1.385 . S
C601 C600 1.374 . S
C602 C599 1.499 . S
C602 C603 1.373 . S
C602 C604 1.389 . S
C603 H582 0.950 . S
C603 C602 1.373 . S
C603 C619 1.377 . S
C604 C602 1.389 . S
C604 C605 1.524 . S
C604 C618 1.377 1_554 S
C605 C604 1.524 . S
C605 C606 1.397 1_554 S
C605 C610 1.363 1_554 S
C606 H583 0.947 1_556 S
C606 C605 1.397 1_556 S
C606 C607 1.334 . S
C607 H584 0.950 . S
C607 C606 1.334 . S
C607 C608 1.287 . S
C608 C607 1.287 . S
C608 C609 1.524 . S
C608 H627 0.913 . S
C609 H585 0.950 . S
C609 C608 1.524 . S
C609 C610 1.415 . S
C610 H586 0.950 . S
C610 C605 1.363 1_556 S
C610 C609 1.415 . S
C611 H587 0.951 . S
C611 C612 1.366 . S
C611 C613 1.388 . S
C612 C611 1.366 . S
C612 C616 1.385 . S
C613 H588 0.951 . S
C613 C611 1.388 . S
C613 C614 1.366 . S
C614 C613 1.366 . S
C614 C615 1.414 . S
C614 C617 1.499 . S
C615 H589 0.950 . S
C615 C614 1.414 . S
C615 C616 1.374 . S
C616 H590 0.950 . S
C616 C612 1.385 . S
C616 C615 1.374 . S
C617 C614 1.499 . S
C617 C618 1.373 . S
C617 C619 1.389 1_556 S
C618 H591 0.950 . S
C618 C604 1.377 1_556 S
C618 C617 1.373 . S
C619 C603 1.377 . S
C619 C617 1.389 1_554 S
C619 C620 1.524 . S
C620 C619 1.524 . S
C620 C621 1.397 . S
C620 C625 1.363 . S
C621 H592 0.950 . S
C621 C620 1.397 . S
C621 C622 1.334 . S
C622 H593 0.950 . S
C622 C621 1.334 . S
C622 C623 1.287 . S
C623 C622 1.287 . S
C623 C624 1.524 . S
C623 H626 0.999 . S
C624 H594 0.950 . S
C624 C623 1.524 . S
C624 C625 1.415 . S
C625 H595 0.950 . S
C625 C620 1.363 . S
C625 C624 1.415 . S
H626 C623 0.999 . S
H627 C608 0.913 . S
H628 C646 0.951 . S
H629 C648 0.951 . S
H630 C650 0.950 . S
H631 C651 0.950 . S
H632 C653 0.950 . S
H633 C656 0.950 . S
H634 C657 0.950 . S
H635 C659 0.950 . S
H636 C660 0.950 . S
H637 C661 0.951 . S
H638 C663 0.951 . S
H639 C665 0.950 1_655 S
H640 C666 0.950 1_655 S
H641 C668 0.950 . S
H642 C671 0.950 . S
H643 C672 0.950 . S
H644 C674 0.950 . S
H645 C675 0.950 . S
C646 H628 0.951 . S
C646 C647 1.366 . S
C646 C648 1.388 . S
C647 C646 1.366 . S
C647 C651 1.385 . S
C648 H629 0.951 . S
C648 C646 1.388 . S
C648 C649 1.366 . S
C649 C648 1.366 . S
C649 C650 1.414 . S
C649 C652 1.499 . S
C650 H630 0.950 . S
C650 C649 1.414 . S
C650 C651 1.374 . S
C651 H631 0.950 . S
C651 C647 1.385 . S
C651 C650 1.374 . S
C652 C649 1.499 . S
C652 C653 1.373 . S
C652 C654 1.389 . S
C653 H632 0.950 . S
C653 C652 1.373 . S
C653 C669 1.377 . S
C654 C652 1.389 . S
C654 C655 1.524 . S
C654 C668 1.377 . S
C655 C654 1.524 . S
C655 C656 1.397 . S
C655 C660 1.363 . S
C656 H633 0.950 . S
C656 C655 1.397 . S
C656 C657 1.334 . S
C657 H634 0.950 . S
C657 C656 1.334 . S
C657 C658 1.287 . S
C658 C657 1.287 . S
C658 C659 1.524 . S
C658 H677 0.913 . S
C659 H635 0.950 . S
C659 C658 1.524 . S
C659 C660 1.415 . S
C660 H636 0.950 . S
C660 C655 1.363 . S
C660 C659 1.415 . S
C661 H637 0.951 . S
C661 C662 1.366 . S
C661 C663 1.388 . S
C662 C661 1.366 . S
C662 C666 1.385 . S
C663 H638 0.951 . S
C663 C661 1.388 . S
C663 C664 1.366 . S
C664 C663 1.366 . S
C664 C665 1.414 . S
C664 C667 1.499 . S
C665 H639 0.950 1_455 S
C665 C664 1.414 . S
C665 C666 1.374 . S
C666 H640 0.950 1_455 S
C666 C662 1.385 . S
C666 C665 1.374 . S
C667 C664 1.499 . S
C667 C668 1.373 . S
C667 C669 1.389 . S
C668 H641 0.950 . S
C668 C654 1.377 . S
C668 C667 1.373 . S
C669 C653 1.377 . S
C669 C667 1.389 . S
C669 C670 1.524 . S
C670 C669 1.524 . S
C670 C671 1.397 1_455 S
C670 C675 1.363 . S
C671 H642 0.950 . S
C671 C670 1.397 1_655 S
C671 C672 1.334 . S
C672 H643 0.950 . S
C672 C671 1.334 . S
C672 C673 1.287 . S
C673 C672 1.287 . S
C673 C674 1.524 1_655 S
C673 H676 0.999 . S
C674 H644 0.950 . S
C674 C673 1.524 1_455 S
C674 C675 1.415 . S
C675 H645 0.950 . S
C675 C670 1.363 . S
C675 C674 1.415 . S
H676 C673 0.999 . S
H677 C658 0.913 . S
C112 C44 1.309 . S
C97 C10 1.318 . S
C147 C21 1.420 . S
C162 C62 1.454 . S
C197 C31 1.358 . S
C212 C75 1.406 . S
C247 C0 1.273 . S
C262 C42 1.318 . S
C312 C53 1.407 . S
C297 C18 1.345 . S
C347 C34 1.372 . S
C362 C66 1.404 . S
C412 C55 1.313 . S
C397 C36 1.318 . S
C447 C8 1.286 1_565 S
C462 C68 1.313 . S
C512 C49 1.400 . S
C497 C23 1.405 1_565 S
C562 C57 1.242 . S
C547 C26 1.203 . S
C612 C70 1.322 . S
C597 C5 1.285 . S
C647 C13 1.343 . S
C662 C40 1.401 . S
