# Generated by pormake.
# Topology nia, (6,6)-cn, num edge types: 1
# Building blocks:
#     Node 0, Type 0, BuildingBlock: CIFDUS_clean_sbu_1, # of connection points: 6
#     Node 1, Type 0, BuildingBlock: CIFDUS_clean_sbu_1, # of connection points: 6
#     Node 2, Type 1, BuildingBlock: MIDCAF_clean_sbu_0, # of connection points: 6
#     Node 3, Type 1, BuildingBlock: MIDCAF_clean_sbu_0, # of connection points: 6
#     Edge 4, Type (0, 1), BuildingBlock: MIFKUJ_clean_linker_0, # of connection points: 2
#     Edge 5, Type (0, 1), BuildingBlock: MIFKUJ_clean_linker_0, # of connection points: 2
#     Edge 6, Type (0, 1), BuildingBlock: MIFKUJ_clean_linker_0, # of connection points: 2
#     Edge 7, Type (0, 1), BuildingBlock: MIFKUJ_clean_linker_0, # of connection points: 2
#     Edge 8, Type (0, 1), BuildingBlock: MIFKUJ_clean_linker_0, # of connection points: 2
#     Edge 9, Type (0, 1), BuildingBlock: MIFKUJ_clean_linker_0, # of connection points: 2
#     Edge 10, Type (0, 1), BuildingBlock: MIFKUJ_clean_linker_0, # of connection points: 2
#     Edge 11, Type (0, 1), BuildingBlock: MIFKUJ_clean_linker_0, # of connection points: 2
#     Edge 12, Type (0, 1), BuildingBlock: MIFKUJ_clean_linker_0, # of connection points: 2
#     Edge 13, Type (0, 1), BuildingBlock: MIFKUJ_clean_linker_0, # of connection points: 2
#     Edge 14, Type (0, 1), BuildingBlock: MIFKUJ_clean_linker_0, # of connection points: 2
#     Edge 15, Type (0, 1), BuildingBlock: MIFKUJ_clean_linker_0, # of connection points: 2
# Relax obj value: 0.123
# Max RMSD: 0.237
# Mean RMSD: 0.158
data_MOF--net-nia--node1-CIFDUS_clean_sbu_1--node2-MIDCAF_clean_sbu_0--edge1-MIFKUJ_clean_linker_0
_symmetry_space_group_name_H-M    P1
_symmetry_Int_Tables_number       1
_symmetry_cell_setting            triclinic
loop_
_symmetry_equiv_pos_as_xyz
'x, y, z'
_cell_length_a     30.106443
_cell_length_b     30.105199
_cell_length_c     43.80679
_cell_angle_alpha  89.253093
_cell_angle_beta   89.073297
_cell_angle_gamma 126.72917
loop_
_atom_site_label
_atom_site_type_symbol
_atom_site_fract_x
_atom_site_fract_y
_atom_site_fract_z
_atom_type_partial_charge
O0 O -0.00545 0.96054 0.97322 0.0
Mn1 Mn 0.01019 0.01433 0.00908 0.0
O2 O 0.91717 0.8764 0.98583 0.0
Mn3 Mn 0.92137 0.89267 0.02647 0.0
O4 O 0.02716 0.06953 0.04453 0.0
O5 O 0.08536 0.0695 0.9882 0.0
Mn6 Mn 0.09985 0.13561 0.9885 0.0
O7 O 0.97493 0.04404 0.98242 0.0
O8 O 0.10269 0.1535 0.02889 0.0
O9 O 0.04528 0.98448 0.03588 0.0
O10 O 0.97555 0.8953 0.04769 0.0
O11 O 0.1601 0.14602 0.9692 0.0
O12 O 0.04578 0.12949 0.96506 0.0
C13 C 0.88707 0.93123 0.04475 0.0
C14 C 0.95538 0.91015 0.9667 0.0
C15 C 0.06641 0.12097 0.04931 0.0
C16 C 0.13212 0.0929 0.97316 0.0
C17 C -0.00534 0.08806 0.96574 0.0
C18 C 0.02604 0.93756 0.04924 0.0
O19 O 0.93461 0.95827 0.02992 0.0
O20 O 0.86061 0.87803 0.04703 0.0
O21 O 0.06013 0.03684 0.54363 0.0
Mn22 Mn -0.00081 0.0116 0.51006 0.0
O23 O 0.14042 0.11194 0.52375 0.0
Mn24 Mn 0.1165 0.10274 0.48449 0.0
O25 O 0.93974 0.98737 0.476 0.0
O26 O 0.94847 0.93795 0.53422 0.0
Mn27 Mn 0.88219 0.92426 0.53425 0.0
O28 O 0.96985 0.04871 0.53591 0.0
O29 O 0.85866 0.91269 0.49468 0.0
O30 O 0.02958 0.97579 0.48373 0.0
O31 O 0.1122 0.04749 0.46368 0.0
O32 O 0.87085 0.86641 0.55605 0.0
O33 O 0.88482 0.97961 0.55404 0.0
C34 C 0.06836 0.12889 0.47003 0.0
C35 C 0.11217 0.07743 0.54568 0.0
C36 C 0.88842 0.9464 0.47277 0.0
C37 C 0.92305 0.8912 0.5499 0.0
C38 C 0.9252 0.03085 0.55154 0.0
C39 C 0.07342 0.99567 0.46666 0.0
O40 O 0.04894 0.08424 0.48632 0.0
O41 O 0.12096 0.15838 0.4635 0.0
Zn42 Zn 0.31544 0.68708 0.20374 0.0
Zn43 Zn 0.32893 0.70787 0.3195 0.0
Zn44 Zn 0.31866 0.69275 0.26216 0.0
C45 C 0.43391 0.74988 0.30022 0.0
C46 C 0.25083 0.59242 0.31131 0.0
O47 O 0.27879 0.73122 0.24492 0.0
O48 O 0.26493 0.70745 0.19657 0.0
C49 C 0.42694 0.75886 0.21567 0.0
O50 O 0.40903 0.73965 0.27462 0.0
O51 O 0.40662 0.73629 0.32511 0.0
O52 O 0.27039 0.62917 0.33124 0.0
O53 O 0.26642 0.60688 0.28301 0.0
O54 O 0.39524 0.74452 0.19347 0.0
O55 O 0.40618 0.74093 0.24301 0.0
O56 O 0.2694 0.60224 0.25068 0.0
O57 O 0.28481 0.60795 0.20069 0.0
C58 C 0.26405 0.57894 0.22502 0.0
O59 O 0.28019 0.73459 0.27712 0.0
O60 O 0.30879 0.75927 0.32423 0.0
C61 C 0.25906 0.73002 0.21875 0.0
C62 C 0.28274 0.7589 0.30184 0.0
Zn63 Zn 0.67187 0.32654 0.81844 0.0
Zn64 Zn 0.68806 0.32207 0.66729 0.0
Zn65 Zn 0.68402 0.32706 0.76255 0.0
C66 C 0.74065 0.41493 0.71725 0.0
C67 C 0.58042 0.26672 0.70735 0.0
O68 O 0.71664 0.28276 0.78257 0.0
O69 O 0.69062 0.27602 0.8308 0.0
C70 C 0.74331 0.43776 0.80411 0.0
O71 O 0.73647 0.41363 0.74632 0.0
O72 O 0.71535 0.36804 0.70522 0.0
O73 O 0.60705 0.27866 0.68168 0.0
O74 O 0.60437 0.28207 0.7338 0.0
O75 O 0.7255 0.40636 0.82761 0.0
O76 O 0.73033 0.41633 0.77739 0.0
O77 O 0.59265 0.27594 0.76906 0.0
O78 O 0.59178 0.2935 0.8178 0.0
C79 C 0.56585 0.2707 0.79375 0.0
O80 O 0.73069 0.29401 0.75125 0.0
O81 O 0.71155 0.31172 0.70798 0.0
C82 C 0.71197 0.2647 0.81021 0.0
C83 C 0.73426 0.2938 0.72221 0.0
H84 H 0.02221 0.8459 0.05499 0.0
H85 H 0.06737 0.82621 0.09258 0.0
H86 H 0.1543 0.99224 0.12569 0.0
H87 H 0.10957 0.01277 0.08712 0.0
H88 H 0.21953 0.955 0.12661 0.0
H89 H 0.04197 0.89029 0.16511 0.0
H90 H 0.94135 0.84378 0.16354 0.0
H91 H 0.91277 0.68818 0.14792 0.0
H92 H 0.01329 0.73387 0.14889 0.0
H93 H 0.28568 0.82845 0.24031 0.0
H94 H 0.25046 0.87907 0.22172 0.0
H95 H 0.13604 0.7418 0.16502 0.0
H96 H 0.17132 0.69194 0.18324 0.0
H97 H 0.0874 0.78432 0.18946 0.0
H98 H 0.26866 0.85881 0.13896 0.0
H99 H 0.36964 0.90681 0.14079 0.0
H100 H 0.39013 0.04631 0.18221 0.0
H101 H 0.28917 0.99886 0.18077 0.0
C102 C 0.05164 0.87864 0.0699 0.0
C103 C 0.06195 0.93072 0.06828 0.0
C104 C 0.07723 0.86722 0.09154 0.0
C105 C 0.11299 0.90715 0.11261 0.0
C106 C 0.12638 0.96057 0.10987 0.0
C107 C 0.10106 0.97235 0.08777 0.0
C108 C 0.13347 0.89096 0.13803 0.0
C109 C 0.19067 0.91844 0.14086 0.0
C110 C 0.096 0.84366 0.15702 0.0
C111 C 0.03529 0.81561 0.15701 0.0
C112 C 0.01427 0.84619 0.16122 0.0
C113 C 0.95723 0.81997 0.16042 0.0
C114 C 0.92069 0.76307 0.15562 0.0
C115 C 0.94112 0.73224 0.15167 0.0
C116 C -0.00187 0.75828 0.1524 0.0
C117 C 0.25188 0.80863 0.2246 0.0
C118 C 0.23116 0.7563 0.2132 0.0
C119 C 0.23196 0.83771 0.21381 0.0
C120 C 0.19065 0.81449 0.19176 0.0
C121 C 0.16778 0.76074 0.18201 0.0
C122 C 0.18803 0.73221 0.19242 0.0
C123 C 0.17319 0.84622 0.17662 0.0
C124 C 0.11632 0.82178 0.17584 0.0
C125 C 0.21096 0.89648 0.15982 0.0
C126 C 0.27151 0.92515 0.16006 0.0
C127 C 0.29475 0.89964 0.14854 0.0
C128 C 0.35194 0.92673 0.1495 0.0
C129 C 0.38627 0.97951 0.16169 0.0
C130 C 0.36349 0.0054 0.17283 0.0
C131 C 0.30633 0.97846 0.17193 0.0
H132 H 0.43052 0.0004 0.16244 0.0
H133 H 0.87655 0.74285 0.15497 0.0
H134 H 0.21816 0.11337 0.54519 0.0
H135 H 0.27702 0.13285 0.58792 0.0
H136 H 0.14063 0.07698 0.65097 0.0
H137 H 0.07998 0.05667 0.60743 0.0
H138 H 0.2705 0.19852 0.65569 0.0
H139 H 0.15869 0.99491 0.65401 0.0
H140 H 0.11402 0.91431 0.62061 0.0
H141 H 0.2728 0.97452 0.58098 0.0
H142 H 0.31821 0.0561 0.61352 0.0
H143 H 0.50541 0.27426 0.73986 0.0
H144 H 0.40645 0.22494 0.73012 0.0
H145 H 0.42202 0.14263 0.65522 0.0
H146 H 0.51735 0.1856 0.66769 0.0
H147 H 0.32815 0.07683 0.67299 0.0
H148 H 0.43282 0.27534 0.65128 0.0
H149 H 0.49067 0.37407 0.66461 0.0
H150 H 0.36592 0.34116 0.73011 0.0
H151 H 0.30758 0.24212 0.71729 0.0
C152 C 0.20024 0.1051 0.56809 0.0
C153 C 0.14428 0.08371 0.57286 0.0
C154 C 0.2342 0.1165 0.59252 0.0
C155 C 0.21353 0.10707 0.62258 0.0
C156 C 0.15748 0.08505 0.62784 0.0
C157 C 0.12279 0.07292 0.60304 0.0
C158 C 0.2517 0.11875 0.64763 0.0
C159 C 0.28206 0.17128 0.66053 0.0
C160 C 0.26833 0.08425 0.65265 0.0
C161 C 0.24181 0.03162 0.63621 0.0
C162 C 0.18408 0.99072 0.63832 0.0
C163 C 0.15861 0.94508 0.61939 0.0
C164 C 0.19059 0.93961 0.59854 0.0
C165 C 0.24813 0.97897 0.59707 0.0
C166 C 0.27375 0.02485 0.6158 0.0
C167 C 0.48663 0.24318 0.72257 0.0
C168 C 0.51907 0.23293 0.70512 0.0
C169 C 0.43028 0.2161 0.71629 0.0
C170 C 0.40611 0.18056 0.69131 0.0
C171 C 0.43848 0.16922 0.67472 0.0
C172 C 0.49365 0.19443 0.68171 0.0
C173 C 0.34934 0.1582 0.6803 0.0
C174 C 0.31552 0.10355 0.66977 0.0
C175 C 0.33144 0.19208 0.67595 0.0
C176 C 0.36629 0.25139 0.68365 0.0
C177 C 0.41793 0.28921 0.66863 0.0
C178 C 0.45076 0.34516 0.67607 0.0
C179 C 0.43207 0.36383 0.69828 0.0
C180 C 0.38041 0.3266 0.71299 0.0
C181 C 0.34745 0.27058 0.70565 0.0
H182 H 0.45754 0.40716 0.70402 0.0
H183 H 0.17085 0.90496 0.58343 0.0
H184 H 0.9858 0.11613 0.08348 0.0
H185 H 0.00219 0.17758 0.12553 0.0
H186 H 0.17543 0.24562 0.12299 0.0
H187 H 0.1593 0.1852 0.08126 0.0
H188 H 0.13881 0.23715 0.18131 0.0
H189 H 0.13023 0.30706 0.08283 0.0
H190 H 0.08475 0.3024 0.03539 0.0
H191 H 0.95434 0.28727 0.08784 0.0
H192 H -0.00124 0.29108 0.13564 0.0
H193 H 0.30639 0.52349 0.21169 0.0
H194 H 0.25569 0.42819 0.19441 0.0
H195 H 0.10086 0.4037 0.21173 0.0
H196 H 0.15205 0.49947 0.22932 0.0
H197 H 0.10822 0.37718 0.15403 0.0
H198 H 0.13164 0.32891 0.2527 0.0
H199 H 0.17939 0.33414 0.29907 0.0
H200 H 0.28436 0.31003 0.24641 0.0
H201 H 0.23791 0.30549 0.19944 0.0
C202 C 0.02689 0.14297 0.09266 0.0
C203 C 0.07132 0.14597 0.07915 0.0
C204 C 0.03638 0.17843 0.11647 0.0
C205 C 0.0903 0.21688 0.12724 0.0
C206 C 0.13355 0.21653 0.11521 0.0
C207 C 0.12427 0.1819 0.09132 0.0
C208 C 0.10382 0.26137 0.14868 0.0
C209 C 0.13205 0.26775 0.17541 0.0
C210 C 0.09398 0.30075 0.14143 0.0
C211 C 0.06734 0.29856 0.11277 0.0
C212 C 0.0916 0.30226 0.08424 0.0
C213 C 0.06607 0.29985 0.05729 0.0
C214 C 0.01657 0.29432 0.0586 0.0
C215 C 0.9926 0.29137 0.08687 0.0
C216 C 0.01791 0.29365 0.11389 0.0
C217 C 0.26148 0.49701 0.21289 0.0
C218 C 0.23306 0.51834 0.22241 0.0
C219 C 0.23243 0.44252 0.20294 0.0
C220 C 0.17425 0.40832 0.20185 0.0
C221 C 0.14565 0.42902 0.21248 0.0
C222 C 0.17482 0.48352 0.22277 0.0
C223 C 0.14458 0.35389 0.18641 0.0
C224 C 0.11368 0.34587 0.16057 0.0
C225 C 0.15242 0.31328 0.19439 0.0
C226 C 0.18142 0.31719 0.22246 0.0
C227 C 0.16528 0.32529 0.2509 0.0
C228 C 0.19206 0.32803 0.27733 0.0
C229 C 0.23488 0.32247 0.27575 0.0
C230 C 0.25115 0.3143 0.24763 0.0
C231 C 0.22457 0.31159 0.22107 0.0
H232 H 0.25534 0.3244 0.29633 0.0
H233 H -0.00312 0.2925 0.03772 0.0
H234 H 0.83159 0.02404 0.55452 0.0
H235 H 0.81357 0.08088 0.58332 0.0
H236 H 0.98206 0.18119 0.61333 0.0
H237 H 0.00097 0.12471 0.58353 0.0
H238 H 0.8888 0.13459 0.66165 0.0
H239 H 0.96017 0.24368 0.56891 0.0
H240 H 0.96858 0.25852 0.513 0.0
H241 H 0.79696 0.19296 0.51023 0.0
H242 H 0.78724 0.17678 0.56609 0.0
H243 H 0.83042 0.30749 0.73537 0.0
H244 H 0.87433 0.27256 0.70725 0.0
H245 H 0.74229 0.19751 0.64293 0.0
H246 H 0.69911 0.23316 0.67085 0.0
H247 H 0.8331 0.24315 0.6126 0.0
H248 H 0.75707 0.12281 0.70248 0.0
H249 H 0.74282 0.09718 0.75739 0.0
H250 H 0.91693 0.17616 0.76538 0.0
H251 H 0.93236 0.20283 0.71056 0.0
C252 C 0.86512 0.05861 0.56694 0.0
C253 C 0.91775 0.06994 0.56673 0.0
C254 C 0.8547 0.09105 0.58342 0.0
C255 C 0.89631 0.13516 0.60059 0.0
C256 C 0.9493 0.14724 0.60026 0.0
C257 C 0.96019 0.11532 0.58308 0.0
C258 C 0.88285 0.16706 0.61918 0.0
C259 C 0.87789 0.15954 0.65108 0.0
C260 C 0.86706 0.19815 0.60528 0.0
C261 C 0.87289 0.20865 0.57171 0.0
C262 C 0.9241 0.23203 0.55637 0.0
C263 C 0.92913 0.24075 0.52468 0.0
C264 C 0.88331 0.22662 0.50807 0.0
C265 C 0.83241 0.20388 0.52313 0.0
C266 C 0.82714 0.19498 0.55482 0.0
C267 C 0.81013 0.28229 0.71571 0.0
C268 C 0.76047 0.27162 0.70585 0.0
C269 C 0.83546 0.26261 0.69945 0.0
C270 C 0.81136 0.23134 0.67308 0.0
C271 C 0.76195 0.22134 0.66313 0.0
C272 C 0.73708 0.24155 0.67917 0.0
C273 C 0.8377 0.2099 0.65536 0.0
C274 C 0.84488 0.21916 0.62347 0.0
C275 C 0.85494 0.17986 0.66932 0.0
C276 C 0.84594 0.16526 0.70246 0.0
C277 C 0.7924 0.13516 0.716 0.0
C278 C 0.78408 0.12024 0.74707 0.0
C279 C 0.8289 0.13475 0.7648 0.0
C280 C 0.88223 0.16472 0.75157 0.0
C281 C 0.89078 0.17975 0.72051 0.0
H282 H 0.82235 0.123 0.78883 0.0
H283 H 0.88728 0.23337 0.48353 0.0
H284 H 0.921 0.98559 0.09823 0.0
H285 H 0.85614 0.97797 0.13657 0.0
H286 H 0.73206 0.91633 0.06827 0.0
H287 H 0.79646 0.92364 0.03023 0.0
H288 H 0.77177 0.00243 0.14526 0.0
H289 H 0.62927 0.7864 0.09439 0.0
H290 H 0.6372 0.72213 0.06477 0.0
H291 H 0.79509 0.7893 0.10366 0.0
H292 H 0.78764 0.85329 0.13384 0.0
H293 H 0.48367 0.85055 0.17881 0.0
H294 H 0.57943 0.90155 0.15957 0.0
H295 H 0.60205 0.79916 0.21664 0.0
H296 H 0.50582 0.74816 0.23633 0.0
H297 H 0.62662 0.79895 0.1555 0.0
H298 H 0.67842 0.93162 0.23014 0.0
H299 H 0.67347 0.99603 0.26147 0.0
H300 H 0.70123 0.09405 0.18128 0.0
H301 H 0.70563 0.02985 0.14934 0.0
C302 C 0.8812 0.97405 0.091 0.0
C303 C 0.86391 0.9558 0.06118 0.0
C304 C 0.84388 0.96909 0.11302 0.0
C305 C 0.78891 0.94563 0.1054 0.0
C306 C 0.77417 0.93431 0.0747 0.0
C307 C 0.81128 0.93918 0.05282 0.0
C308 C 0.74439 0.92255 0.12955 0.0
C309 C 0.74007 0.95803 0.14763 0.0
C310 C 0.70408 0.86446 0.13347 0.0
C311 C 0.70808 0.8249 0.11615 0.0
C312 C 0.66549 0.78718 0.09674 0.0
C313 C 0.66994 0.75085 0.07984 0.0
C314 C 0.71669 0.75174 0.08226 0.0
C315 C 0.75897 0.78875 0.10173 0.0
C316 C 0.75468 0.8251 0.11871 0.0
C317 C 0.50958 0.83993 0.1879 0.0
C318 C 0.48749 0.79562 0.20916 0.0
C319 C 0.56439 0.86923 0.17696 0.0
C320 C 0.59814 0.85434 0.18667 0.0
C321 C 0.57689 0.81152 0.20892 0.0
C322 C 0.52207 0.78265 0.22029 0.0
C323 C 0.65239 0.87879 0.17049 0.0
C324 C 0.65857 0.8434 0.15366 0.0
C325 C 0.69461 0.93679 0.16824 0.0
C326 C 0.69204 0.97566 0.18728 0.0
C327 C 0.68303 0.96665 0.21912 0.0
C328 C 0.6804 0.00317 0.237 0.0
C329 C 0.68691 0.04902 0.22336 0.0
C330 C 0.69619 0.05851 0.19181 0.0
C331 C 0.69887 0.02211 0.1738 0.0
H332 H 0.68487 0.07725 0.23725 0.0
H333 H 0.72011 0.72368 0.0691 0.0
H334 H 0.97085 0.90142 0.60391 0.0
H335 H 0.96028 0.82315 0.63024 0.0
H336 H 0.90937 0.7338 0.54645 0.0
H337 H 0.92085 0.81233 0.52012 0.0
H338 H 0.82632 0.68648 0.59249 0.0
H339 H 0.01219 0.74333 0.58044 0.0
H340 H 0.11395 0.79954 0.58306 0.0
H341 H 0.10335 0.81674 0.67953 0.0
H342 H 0.00135 0.75989 0.67754 0.0
H343 H 0.73898 0.42719 0.65539 0.0
H344 H 0.7869 0.51338 0.62483 0.0
H345 H 0.85755 0.60773 0.70629 0.0
H346 H 0.81107 0.52136 0.7368 0.0
H347 H 0.93365 0.65246 0.66057 0.0
H348 H 0.7468 0.59236 0.67273 0.0
H349 H 0.64497 0.52648 0.67077 0.0
H350 H 0.657 0.51524 0.57376 0.0
H351 H 0.75902 0.58048 0.5752 0.0
C352 C 0.96131 0.86671 0.59065 0.0
C353 C 0.94748 0.86334 0.55984 0.0
C354 C 0.95456 0.82155 0.60583 0.0
C355 C 0.93325 0.77214 0.59045 0.0
C356 C 0.92579 0.77137 0.55883 0.0
C357 C 0.93318 0.8167 0.54364 0.0
C358 C 0.90779 0.71897 0.60812 0.0
C359 C 0.85006 0.67868 0.60693 0.0
C360 C 0.9381 0.70944 0.62791 0.0
C361 C -0.00071 0.74789 0.62877 0.0
C362 C 0.03163 0.75979 0.60212 0.0
C363 C 0.08928 0.79127 0.60356 0.0
C364 C 0.11507 0.81152 0.63148 0.0
C365 C 0.08329 0.80081 0.65796 0.0
C366 C 0.02556 0.76882 0.65671 0.0
C367 C 0.76476 0.46625 0.66683 0.0
C368 C 0.77034 0.46738 0.69868 0.0
C369 C 0.79199 0.51561 0.64932 0.0
C370 C 0.8252 0.56731 0.66324 0.0
C371 C 0.83192 0.5685 0.69497 0.0
C372 C 0.80478 0.51908 0.71248 0.0
C373 C 0.85238 0.61994 0.64473 0.0
C374 C 0.91004 0.66026 0.64601 0.0
C375 C 0.82197 0.62975 0.62511 0.0
C376 C 0.76059 0.59089 0.62412 0.0
C377 C 0.72776 0.57553 0.65101 0.0
C378 C 0.67 0.53835 0.64999 0.0
C379 C 0.64454 0.51657 0.62217 0.0
C380 C 0.67679 0.53208 0.5953 0.0
C381 C 0.73458 0.5692 0.5962 0.0
H382 H 0.59981 0.48776 0.62144 0.0
H383 H 0.15971 0.8357 0.63256 0.0
H384 H -0.00538 0.89048 0.44473 0.0
H385 H 0.01204 0.83902 0.40919 0.0
H386 H 0.18795 0.96782 0.41308 0.0
H387 H 0.17124 0.01848 0.44798 0.0
H388 H 0.15481 0.94429 0.35439 0.0
H389 H 0.12647 0.84346 0.44973 0.0
H390 H 0.07076 0.78547 0.49496 0.0
H391 H 0.94745 0.65873 0.43683 0.0
H392 H 0.00213 0.71639 0.39125 0.0
H393 H 0.3213 0.85747 0.32636 0.0
H394 H 0.26683 0.88808 0.34477 0.0
H395 H 0.11943 0.74274 0.30822 0.0
H396 H 0.17473 0.71275 0.28874 0.0
H397 H 0.11351 0.7602 0.3738 0.0
H398 H 0.14476 0.85566 0.27849 0.0
H399 H 0.1969 0.9148 0.23288 0.0
H400 H 0.31252 0.04895 0.29005 0.0
H401 H 0.2601 0.99113 0.33601 0.0
C402 C 0.03692 0.90715 0.43833 0.0
C403 C 0.08143 0.95894 0.44894 0.0
C404 C 0.04686 0.87791 0.41792 0.0
C405 C 0.10139 0.9 0.40806 0.0
C406 C 0.14554 0.95031 0.41984 0.0
C407 C 0.13578 0.9792 0.43997 0.0
C408 C 0.11415 0.8728 0.38497 0.0
C409 C 0.14547 0.90388 0.35863 0.0
C410 C 0.10045 0.81927 0.38974 0.0
C411 C 0.06799 0.7845 0.41712 0.0
C412 C 0.08725 0.80342 0.44661 0.0
C413 C 0.05591 0.77059 0.4723 0.0
C414 C 0.00549 0.71854 0.46877 0.0
C415 C 0.98643 0.69912 0.43953 0.0
C416 C 0.01758 0.73184 0.41377 0.0
C417 C 0.27765 0.833 0.32133 0.0
C418 C 0.25229 0.78298 0.30598 0.0
C419 C 0.24647 0.8504 0.33194 0.0
C420 C 0.18896 0.8176 0.32802 0.0
C421 C 0.16374 0.7687 0.31148 0.0
C422 C 0.19539 0.75188 0.30015 0.0
C423 C 0.15588 0.83277 0.34399 0.0
C424 C 0.12116 0.79973 0.36906 0.0
C425 C 0.16616 0.88444 0.33808 0.0
C426 C 0.19872 0.919 0.31065 0.0
C427 C 0.18149 0.89767 0.28132 0.0
C428 C 0.21094 0.93102 0.25541 0.0
C429 C 0.2583 0.98539 0.25857 0.0
C430 C 0.27591 0.00677 0.28764 0.0
C431 C 0.24609 0.9739 0.31362 0.0
H432 H 0.2812 0.01104 0.23849 0.0
H433 H 0.98127 0.69319 0.48869 0.0
H434 H 0.22759 0.10682 0.98232 0.0
H435 H 0.28162 0.10292 0.94199 0.0
H436 H 0.13844 0.017 0.88534 0.0
H437 H 0.08435 0.02186 0.92593 0.0
H438 H 0.29045 0.04133 0.9028 0.0
H439 H 0.18094 0.0819 0.81545 0.0
H440 H 0.11509 0.10524 0.81312 0.0
H441 H 0.17999 0.19672 0.89541 0.0
H442 H 0.24662 0.17452 0.89793 0.0
H443 H 0.4908 0.1609 0.78028 0.0
H444 H 0.39468 0.0987 0.80072 0.0
H445 H 0.40887 0.2397 0.83599 0.0
H446 H 0.50396 0.30109 0.81579 0.0
H447 H 0.30443 0.16266 0.81941 0.0
H448 H 0.44492 0.16956 0.87845 0.0
H449 H 0.51711 0.15572 0.88531 0.0
H450 H 0.39989 0.98318 0.86591 0.0
H451 H 0.32719 0.99627 0.85854 0.0
C452 C 0.20669 0.0841 0.96201 0.0
C453 C 0.15177 0.06444 0.95734 0.0
C454 C 0.23781 0.08225 0.93874 0.0
C455 C 0.21473 0.0611 0.91018 0.0
C456 C 0.15753 0.03441 0.90698 0.0
C457 C 0.12627 0.03631 0.93041 0.0
C458 C 0.25302 0.07718 0.88316 0.0
C459 C 0.29256 0.06661 0.88412 0.0
C460 C 0.2567 0.11094 0.85884 0.0
C461 C 0.2182 0.12608 0.85701 0.0
C462 C 0.18125 0.10722 0.83292 0.0
C463 C 0.14381 0.12021 0.83159 0.0
C464 C 0.14324 0.15229 0.85416 0.0
C465 C 0.18039 0.17181 0.87798 0.0
C466 C 0.21803 0.1591 0.87935 0.0
C467 C 0.47238 0.17856 0.79129 0.0
C468 C 0.50463 0.23575 0.79644 0.0
C469 C 0.41767 0.14302 0.80322 0.0
C470 C 0.39464 0.16432 0.82041 0.0
C471 C 0.42538 0.22203 0.8229 0.0
C472 C 0.47983 0.25722 0.81129 0.0
C473 C 0.34251 0.12775 0.83942 0.0
C474 C 0.30072 0.13501 0.83714 0.0
C475 C 0.33749 0.09195 0.86289 0.0
C476 C 0.38093 0.08401 0.86757 0.0
C477 C 0.4347 0.12877 0.87547 0.0
C478 C 0.47567 0.12106 0.87946 0.0
C479 C 0.46315 0.06864 0.87595 0.0
C480 C 0.40957 0.02378 0.86853 0.0
C481 C 0.36848 0.03132 0.86443 0.0
H482 H 0.49492 0.06274 0.87905 0.0
H483 H 0.11406 0.1621 0.85316 0.0
H484 H 0.01706 0.09664 0.41633 0.0
H485 H 0.01501 0.16016 0.38208 0.0
H486 H 0.05332 0.26789 0.45713 0.0
H487 H 0.05522 0.20425 0.4913 0.0
H488 H -0.0059 0.27717 0.409 0.0
H489 H 0.15933 0.28069 0.42284 0.0
H490 H 0.20804 0.23773 0.421 0.0
H491 H 0.16474 0.19697 0.32729 0.0
H492 H 0.1154 0.23928 0.32874 0.0
H493 H 0.1926 0.55551 0.36528 0.0
H494 H 0.13252 0.46156 0.38607 0.0
H495 H 0.15333 0.40067 0.30251 0.0
H496 H 0.21788 0.49618 0.28257 0.0
H497 H 0.16677 0.35599 0.34728 0.0
H498 H 0.02397 0.37483 0.32795 0.0
H499 H 0.97655 0.41901 0.3282 0.0
H500 H 0.96997 0.4129 0.42626 0.0
H501 H 0.01809 0.36946 0.42665 0.0
C502 C 0.02101 0.1318 0.42594 0.0
C503 C 0.03584 0.14539 0.45647 0.0
C504 C 0.02064 0.16856 0.40624 0.0
C505 C 0.03539 0.21945 0.4169 0.0
C506 C 0.04198 0.22898 0.44836 0.0
C507 C 0.04248 0.19224 0.46801 0.0
C508 C 0.05629 0.26699 0.39524 0.0
C509 C 0.03144 0.29424 0.39511 0.0
C510 C 0.10435 0.28857 0.37663 0.0
C511 C 0.13344 0.26269 0.37596 0.0
C512 C 0.15996 0.26223 0.40193 0.0
C513 C 0.18766 0.23803 0.40095 0.0
C514 C 0.18926 0.2144 0.3741 0.0
C515 C 0.16333 0.21511 0.34811 0.0
C516 C 0.13557 0.23925 0.34899 0.0
C517 C 0.18426 0.52226 0.35107 0.0
C518 C 0.20979 0.53363 0.32188 0.0
C519 C 0.14892 0.46809 0.36293 0.0
C520 C 0.1369 0.42331 0.34573 0.0
C521 C 0.1613 0.43428 0.31623 0.0
C522 C 0.19766 0.48892 0.30453 0.0
C523 C 0.10424 0.3664 0.36009 0.0
C524 C 0.12769 0.33782 0.35953 0.0
C525 C 0.05421 0.34319 0.37738 0.0
C526 C 0.02492 0.36907 0.3773 0.0
C527 C 0.01273 0.3832 0.34958 0.0
C528 C 0.98567 0.40809 0.3496 0.0
C529 C 0.97031 0.41881 0.37722 0.0
C530 C 0.98187 0.40456 0.40488 0.0
C531 C 0.00895 0.3797 0.40499 0.0
H532 H 0.9494 0.43811 0.37719 0.0
H533 H 0.21072 0.19568 0.37339 0.0
H534 H 0.88923 0.05635 0.97767 0.0
H535 H 0.8356 0.07424 0.9451 0.0
H536 H 0.96386 0.14316 0.87445 0.0
H537 H 0.0185 0.12848 0.90762 0.0
H538 H 0.93999 0.20834 0.87897 0.0
H539 H 0.82652 0.01234 0.87011 0.0
H540 H 0.77048 0.91439 0.88763 0.0
H541 H 0.65665 0.93311 0.93477 0.0
H542 H 0.71242 0.03141 0.91788 0.0
H543 H 0.78733 0.25631 0.77975 0.0
H544 H 0.82991 0.21351 0.79887 0.0
H545 H 0.72637 0.15796 0.88068 0.0
H546 H 0.68409 0.20061 0.86167 0.0
H547 H 0.73746 0.08007 0.8637 0.0
H548 H 0.86394 0.28169 0.8768 0.0
H549 H 0.92038 0.37821 0.85657 0.0
H550 H 0.00981 0.34349 0.79663 0.0
H551 H 0.95353 0.24664 0.81636 0.0
C552 C 0.9054 0.07464 0.95503 0.0
C553 C 0.9581 0.09141 0.94524 0.0
C554 C 0.87464 0.08462 0.93628 0.0
C555 C 0.89527 0.10987 0.90701 0.0
C556 C 0.94695 0.12417 0.8969 0.0
C557 C 0.97816 0.11559 0.91586 0.0
C558 C 0.86553 0.12537 0.88779 0.0
C559 C 0.89586 0.17961 0.87522 0.0
C560 C 0.80779 0.08859 0.88282 0.0
C561 C 0.77394 0.0294 0.89292 0.0
C562 C 0.78974 0.99568 0.88438 0.0
C563 C 0.75799 0.94007 0.89418 0.0
C564 C 0.71011 0.91757 0.91235 0.0
C565 C 0.69378 0.9506 0.9207 0.0
C566 C 0.72541 0.00626 0.91099 0.0
C567 C 0.773 0.23412 0.80145 0.0
C568 C 0.73288 0.2326 0.81921 0.0
C569 C 0.79737 0.20957 0.81247 0.0
C570 C 0.78171 0.18267 0.84141 0.0
C571 C 0.7393 0.17838 0.85833 0.0
C572 C 0.71537 0.2032 0.84745 0.0
C573 C 0.81196 0.16283 0.85551 0.0
C574 C 0.78175 0.10805 0.86715 0.0
C575 C 0.86997 0.19866 0.85923 0.0
C576 C 0.90445 0.25705 0.84791 0.0
C577 C 0.89561 0.29471 0.85927 0.0
C578 C 0.92752 0.34942 0.84789 0.0
C579 C 0.96861 0.36695 0.8253 0.0
C580 C 0.97799 0.32986 0.81412 0.0
C581 C 0.94617 0.27511 0.82542 0.0
H582 H 0.99322 0.4093 0.81649 0.0
H583 H 0.68559 0.87451 0.91992 0.0
H584 H 0.90899 0.02322 0.42819 0.0
H585 H 0.852 0.00569 0.38365 0.0
H586 H 0.74713 0.83091 0.40734 0.0
H587 H 0.80362 0.84799 0.451 0.0
H588 H 0.76205 0.84581 0.34668 0.0
H589 H 0.71627 0.92095 0.43035 0.0
H590 H 0.74049 0.99495 0.46581 0.0
H591 H 0.78776 0.10813 0.3899 0.0
H592 H 0.76432 0.03484 0.35402 0.0
H593 H 0.48019 0.70764 0.32842 0.0
H594 H 0.577 0.75609 0.34156 0.0
H595 H 0.62003 0.90153 0.2911 0.0
H596 H 0.52205 0.85219 0.27758 0.0
H597 H 0.65712 0.92464 0.35022 0.0
H598 H 0.67831 0.84014 0.26669 0.0
H599 H 0.65534 0.76624 0.23147 0.0
H600 H 0.65466 0.67142 0.30573 0.0
H601 H 0.67789 0.7447 0.34141 0.0
C602 C 0.87457 0.98104 0.42337 0.0
C603 C 0.86067 0.93709 0.44325 0.0
C604 C 0.84173 0.97105 0.39807 0.0
C605 C 0.7947 0.91692 0.39223 0.0
C606 C 0.783 0.87298 0.41118 0.0
C607 C 0.8153 0.88291 0.43634 0.0
C608 C 0.75448 0.90497 0.36817 0.0
C609 C 0.73935 0.86332 0.3473 0.0
C610 C 0.72601 0.92912 0.36804 0.0
C611 C 0.73919 0.97273 0.38957 0.0
C612 C 0.73209 0.96172 0.42126 0.0
C613 C 0.74564 0.00349 0.44142 0.0
C614 C 0.76582 0.05626 0.43012 0.0
C615 C 0.77225 0.06728 0.39863 0.0
C616 C 0.75882 0.02565 0.37837 0.0
C617 C 0.51059 0.74935 0.31929 0.0
C618 C 0.49384 0.77596 0.30172 0.0
C619 C 0.56603 0.77709 0.32679 0.0
C620 C 0.60617 0.83251 0.31722 0.0
C621 C 0.58994 0.85875 0.29863 0.0
C622 C 0.53415 0.83049 0.29073 0.0
C623 C 0.66291 0.86345 0.32983 0.0
C624 C 0.68103 0.90849 0.34867 0.0
C625 C 0.69423 0.84248 0.32806 0.0
C626 C 0.67976 0.79795 0.30676 0.0
C627 C 0.67297 0.8034 0.27556 0.0
C628 C 0.65997 0.76166 0.2555 0.0
C629 C 0.65329 0.71412 0.26639 0.0
C630 C 0.65987 0.70829 0.29733 0.0
C631 C 0.67322 0.75004 0.31746 0.0
H632 H 0.64314 0.68184 0.25082 0.0
H633 H 0.77635 0.08857 0.44577 0.0
H634 H -0.00066 0.85577 0.95651 0.0
H635 H 0.97672 0.79221 0.91533 0.0
H636 H 0.88697 0.84412 0.87108 0.0
H637 H 0.90822 0.9065 0.91328 0.0
H638 H 0.82423 0.73866 0.87508 0.0
H639 H 0.00817 0.86675 0.83824 0.0
H640 H 0.10981 0.93338 0.84085 0.0
H641 H 0.11875 0.80279 0.87115 0.0
H642 H 0.01706 0.7355 0.86936 0.0
H643 H 0.74138 0.51759 0.77417 0.0
H644 H 0.79177 0.61545 0.78795 0.0
H645 H 0.87479 0.59151 0.85825 0.0
H646 H 0.8247 0.49448 0.84471 0.0
H647 H 0.94516 0.69575 0.82817 0.0
H648 H 0.75882 0.57697 0.87586 0.0
H649 H 0.65685 0.51214 0.87389 0.0
H650 H 0.65531 0.63133 0.81994 0.0
H651 H 0.75741 0.69658 0.8213 0.0
C652 C 0.97677 0.85523 0.93732 0.0
C653 C 0.95654 0.88679 0.93763 0.0
C654 C 0.96371 0.81878 0.9137 0.0
C655 C 0.93045 0.8134 0.88968 0.0
C656 C 0.91281 0.84745 0.88918 0.0
C657 C 0.92551 0.88363 0.91306 0.0
C658 C 0.90874 0.76754 0.86762 0.0
C659 C 0.85109 0.73042 0.86411 0.0
C660 C 0.94328 0.75596 0.85333 0.0
C661 C 0.00476 0.796 0.85377 0.0
C662 C 0.03173 0.85221 0.84561 0.0
C663 C 0.08939 0.89014 0.84695 0.0
C664 C 0.12071 0.87233 0.85617 0.0
C665 C 0.09443 0.81652 0.86399 0.0
C666 C 0.03675 0.77843 0.86277 0.0
C667 C 0.77147 0.53378 0.792 0.0
C668 C 0.77925 0.49853 0.80833 0.0
C669 C 0.80005 0.58955 0.79996 0.0
C670 C 0.83699 0.61088 0.82427 0.0
C671 C 0.84684 0.57628 0.83936 0.0
C672 C 0.81795 0.5207 0.83169 0.0
C673 C 0.86105 0.66683 0.83653 0.0
C674 C 0.9189 0.70543 0.83835 0.0
C675 C 0.82692 0.68032 0.84895 0.0
C676 C 0.76566 0.6413 0.84836 0.0
C677 C 0.73672 0.58914 0.8634 0.0
C678 C 0.67893 0.55237 0.86242 0.0
C679 C 0.64963 0.56753 0.84672 0.0
C680 C 0.67806 0.61959 0.83204 0.0
C681 C 0.73587 0.65648 0.8329 0.0
H682 H 0.60489 0.53901 0.84599 0.0
H683 H 0.16534 0.90178 0.85725 0.0
loop_
_geom_bond_atom_site_label_1
_geom_bond_atom_site_label_2
_geom_bond_distance
_geom_bond_site_symmetry_2
_ccdc_geom_bond_type
O0 Mn1 2.163 1_666 S
O0 C14 1.244 . S
Mn1 O0 2.163 1_444 S
Mn1 O4 2.160 . S
Mn1 O5 2.221 1_554 S
Mn1 O7 2.163 1_454 S
Mn1 O9 2.160 1_545 S
Mn1 O19 2.221 1_445 S
O2 Mn3 2.087 1_556 S
O2 C14 1.256 . S
Mn3 O2 2.087 1_554 S
Mn3 O10 2.112 . S
Mn3 O19 2.290 . S
Mn3 O20 2.251 . S
O4 Mn1 2.160 . S
O4 C15 1.239 . S
O5 Mn1 2.221 1_556 S
O5 Mn6 2.290 . S
O5 C16 1.278 . S
Mn6 O5 2.290 . S
Mn6 O8 2.089 1_556 S
Mn6 O11 2.251 . S
Mn6 O12 2.087 . S
O7 Mn1 2.163 1_656 S
O7 C17 1.244 . S
O8 Mn6 2.089 1_554 S
O8 C15 1.256 . S
O9 Mn1 2.160 1_565 S
O9 C18 1.239 . S
O10 Mn3 2.112 . S
O10 C18 1.245 1_655 S
O11 Mn6 2.251 . S
O11 C16 1.241 . S
O12 Mn6 2.087 . S
O12 C17 1.256 1_455 S
C13 O19 1.278 . S
C13 O20 1.241 . S
C14 O0 1.244 . S
C14 O2 1.256 . S
C15 O4 1.239 . S
C15 O8 1.256 . S
C16 O5 1.278 . S
C16 O11 1.241 . S
C17 O7 1.244 . S
C17 O12 1.256 1_655 S
C18 O9 1.239 . S
C18 O10 1.245 1_455 S
O19 Mn1 2.221 1_665 S
O19 Mn3 2.290 . S
O19 C13 1.278 . S
O20 Mn3 2.251 . S
O20 C13 1.241 . S
O21 Mn22 2.181 . S
O21 C35 1.244 . S
Mn22 O21 2.181 . S
Mn22 O25 2.142 1_445 S
Mn22 O26 2.218 1_445 S
Mn22 O28 2.145 1_455 S
Mn22 O30 2.177 1_545 S
Mn22 O40 2.225 . S
O23 Mn24 2.087 . S
O23 C35 1.256 . S
Mn24 O23 2.087 . S
Mn24 O31 2.089 . S
Mn24 O40 2.290 . S
Mn24 O41 2.251 . S
O25 Mn22 2.142 1_665 S
O25 C36 1.239 . S
O26 Mn22 2.218 1_665 S
O26 Mn27 2.290 . S
O26 C37 1.278 . S
Mn27 O26 2.290 . S
Mn27 O29 2.089 . S
Mn27 O32 2.251 . S
Mn27 O33 2.087 . S
O28 Mn22 2.145 1_655 S
O28 C38 1.244 . S
O29 Mn27 2.089 . S
O29 C36 1.256 . S
O30 Mn22 2.177 1_565 S
O30 C39 1.239 . S
O31 Mn24 2.089 . S
O31 C39 1.256 1_545 S
O32 Mn27 2.251 . S
O32 C37 1.241 . S
O33 Mn27 2.087 . S
O33 C38 1.256 1_565 S
C34 O40 1.278 . S
C34 O41 1.241 . S
C35 O21 1.244 . S
C35 O23 1.256 . S
C36 O25 1.239 . S
C36 O29 1.256 . S
C37 O26 1.278 . S
C37 O32 1.241 . S
C38 O28 1.244 . S
C38 O33 1.256 1_545 S
C39 O30 1.239 . S
C39 O31 1.256 1_565 S
O40 Mn22 2.225 . S
O40 Mn24 2.290 . S
O40 C34 1.278 . S
O41 Mn24 2.251 . S
O41 C34 1.241 . S
Zn42 O48 1.920 . S
Zn42 O54 1.898 . S
Zn42 O57 1.905 . S
Zn43 O51 1.905 . S
Zn43 O52 1.898 . S
Zn43 O60 1.920 . S
Zn44 O47 2.080 . S
Zn44 O50 2.114 . S
Zn44 O53 2.120 . S
Zn44 O55 2.120 . S
Zn44 O56 2.114 . S
Zn44 O59 2.080 . S
C45 O50 1.166 . S
C45 O51 1.182 . S
C46 O52 1.167 . S
C46 O53 1.299 . S
O47 Zn44 2.080 . S
O47 C61 1.305 . S
O48 Zn42 1.920 . S
O48 C61 1.234 . S
C49 O54 1.167 . S
C49 O55 1.299 . S
O50 Zn44 2.114 . S
O50 C45 1.166 . S
O51 Zn43 1.905 . S
O51 C45 1.182 . S
O52 Zn43 1.898 . S
O52 C46 1.167 . S
O53 Zn44 2.120 . S
O53 C46 1.299 . S
O54 Zn42 1.898 . S
O54 C49 1.167 . S
O55 Zn44 2.120 . S
O55 C49 1.299 . S
O56 Zn44 2.114 . S
O56 C58 1.166 . S
O57 Zn42 1.905 . S
O57 C58 1.182 . S
C58 O56 1.166 . S
C58 O57 1.182 . S
O59 Zn44 2.080 . S
O59 C62 1.305 . S
O60 Zn43 1.920 . S
O60 C62 1.234 . S
C61 O47 1.305 . S
C61 O48 1.234 . S
C62 O59 1.305 . S
C62 O60 1.234 . S
Zn63 O69 1.920 . S
Zn63 O75 1.898 . S
Zn63 O78 1.905 . S
Zn64 O72 1.905 . S
Zn64 O73 1.898 . S
Zn64 O81 1.920 . S
Zn65 O68 2.080 . S
Zn65 O71 2.114 . S
Zn65 O74 2.120 . S
Zn65 O76 2.120 . S
Zn65 O77 2.114 . S
Zn65 O80 2.080 . S
C66 O71 1.166 . S
C66 O72 1.182 . S
C67 O73 1.167 . S
C67 O74 1.299 . S
O68 Zn65 2.080 . S
O68 C82 1.305 . S
O69 Zn63 1.920 . S
O69 C82 1.234 . S
C70 O75 1.167 . S
C70 O76 1.299 . S
O71 Zn65 2.114 . S
O71 C66 1.166 . S
O72 Zn64 1.905 . S
O72 C66 1.182 . S
O73 Zn64 1.898 . S
O73 C67 1.167 . S
O74 Zn65 2.120 . S
O74 C67 1.299 . S
O75 Zn63 1.898 . S
O75 C70 1.167 . S
O76 Zn65 2.120 . S
O76 C70 1.299 . S
O77 Zn65 2.114 . S
O77 C79 1.166 . S
O78 Zn63 1.905 . S
O78 C79 1.182 . S
C79 O77 1.166 . S
C79 O78 1.182 . S
O80 Zn65 2.080 . S
O80 C83 1.305 . S
O81 Zn64 1.920 . S
O81 C83 1.234 . S
C82 O68 1.305 . S
C82 O69 1.234 . S
C83 O80 1.305 . S
C83 O81 1.234 . S
H84 C102 0.951 . S
H85 C104 0.951 . S
H86 C106 0.950 . S
H87 C107 0.950 . S
H88 C109 0.950 . S
H89 C112 0.950 . S
H90 C113 0.950 . S
H91 C115 0.950 . S
H92 C116 0.950 . S
H93 C117 0.951 . S
H94 C119 0.951 . S
H95 C121 0.950 . S
H96 C122 0.950 . S
H97 C124 0.950 . S
H98 C127 0.950 . S
H99 C128 0.950 . S
H100 C130 0.950 1_545 S
H101 C131 0.950 . S
C102 H84 0.951 . S
C102 C103 1.366 . S
C102 C104 1.388 . S
C103 C102 1.366 . S
C103 C107 1.385 . S
C104 H85 0.951 . S
C104 C102 1.388 . S
C104 C105 1.366 . S
C105 C104 1.366 . S
C105 C106 1.414 . S
C105 C108 1.499 . S
C106 H86 0.950 . S
C106 C105 1.414 . S
C106 C107 1.374 . S
C107 H87 0.950 . S
C107 C103 1.385 . S
C107 C106 1.374 . S
C108 C105 1.499 . S
C108 C109 1.373 . S
C108 C110 1.389 . S
C109 H88 0.950 . S
C109 C108 1.373 . S
C109 C125 1.377 . S
C110 C108 1.389 . S
C110 C111 1.524 . S
C110 C124 1.377 . S
C111 C110 1.524 . S
C111 C112 1.397 . S
C111 C116 1.363 . S
C112 H89 0.950 . S
C112 C111 1.397 . S
C112 C113 1.334 1_455 S
C113 H90 0.950 . S
C113 C112 1.334 1_655 S
C113 C114 1.287 . S
C114 C113 1.287 . S
C114 C115 1.524 . S
C114 H133 0.913 . S
C115 H91 0.950 . S
C115 C114 1.524 . S
C115 C116 1.415 1_655 S
C116 H92 0.950 . S
C116 C111 1.363 . S
C116 C115 1.415 1_455 S
C117 H93 0.951 . S
C117 C118 1.366 . S
C117 C119 1.388 . S
C118 C117 1.366 . S
C118 C122 1.385 . S
C119 H94 0.951 . S
C119 C117 1.388 . S
C119 C120 1.366 . S
C120 C119 1.366 . S
C120 C121 1.414 . S
C120 C123 1.499 . S
C121 H95 0.950 . S
C121 C120 1.414 . S
C121 C122 1.374 . S
C122 H96 0.950 . S
C122 C118 1.385 . S
C122 C121 1.374 . S
C123 C120 1.499 . S
C123 C124 1.373 . S
C123 C125 1.389 . S
C124 H97 0.950 . S
C124 C110 1.377 . S
C124 C123 1.373 . S
C125 C109 1.377 . S
C125 C123 1.389 . S
C125 C126 1.524 . S
C126 C125 1.524 . S
C126 C127 1.397 . S
C126 C131 1.363 . S
C127 H98 0.950 . S
C127 C126 1.397 . S
C127 C128 1.334 . S
C128 H99 0.950 . S
C128 C127 1.334 . S
C128 C129 1.287 . S
C129 C128 1.287 . S
C129 C130 1.524 . S
C129 H132 0.997 1_565 S
C130 H100 0.950 1_565 S
C130 C129 1.524 . S
C130 C131 1.415 . S
C131 H101 0.950 . S
C131 C126 1.363 . S
C131 C130 1.415 . S
H132 C129 0.997 1_545 S
H133 C114 0.913 . S
H134 C152 0.951 . S
H135 C154 0.951 . S
H136 C156 0.950 . S
H137 C157 0.950 . S
H138 C159 0.950 . S
H139 C162 0.950 1_545 S
H140 C163 0.950 . S
H141 C165 0.950 . S
H142 C166 0.950 . S
H143 C167 0.951 . S
H144 C169 0.951 . S
H145 C171 0.950 . S
H146 C172 0.950 . S
H147 C174 0.950 . S
H148 C177 0.950 . S
H149 C178 0.950 . S
H150 C180 0.950 . S
H151 C181 0.950 . S
C152 H134 0.951 . S
C152 C153 1.366 . S
C152 C154 1.388 . S
C153 C152 1.366 . S
C153 C157 1.385 . S
C154 H135 0.951 . S
C154 C152 1.388 . S
C154 C155 1.366 . S
C155 C154 1.366 . S
C155 C156 1.414 . S
C155 C158 1.499 . S
C156 H136 0.950 . S
C156 C155 1.414 . S
C156 C157 1.374 . S
C157 H137 0.950 . S
C157 C153 1.385 . S
C157 C156 1.374 . S
C158 C155 1.499 . S
C158 C159 1.373 . S
C158 C160 1.389 . S
C159 H138 0.950 . S
C159 C158 1.373 . S
C159 C175 1.377 . S
C160 C158 1.389 . S
C160 C161 1.524 . S
C160 C174 1.377 . S
C161 C160 1.524 . S
C161 C162 1.397 1_545 S
C161 C166 1.363 . S
C162 H139 0.950 1_565 S
C162 C161 1.397 1_565 S
C162 C163 1.334 . S
C163 H140 0.950 . S
C163 C162 1.334 . S
C163 C164 1.287 . S
C164 C163 1.287 . S
C164 C165 1.524 . S
C164 H183 0.913 . S
C165 H141 0.950 . S
C165 C164 1.524 . S
C165 C166 1.415 1_565 S
C166 H142 0.950 . S
C166 C161 1.363 . S
C166 C165 1.415 1_545 S
C167 H143 0.951 . S
C167 C168 1.366 . S
C167 C169 1.388 . S
C168 C167 1.366 . S
C168 C172 1.385 . S
C169 H144 0.951 . S
C169 C167 1.388 . S
C169 C170 1.366 . S
C170 C169 1.366 . S
C170 C171 1.414 . S
C170 C173 1.499 . S
C171 H145 0.950 . S
C171 C170 1.414 . S
C171 C172 1.374 . S
C172 H146 0.950 . S
C172 C168 1.385 . S
C172 C171 1.374 . S
C173 C170 1.499 . S
C173 C174 1.373 . S
C173 C175 1.389 . S
C174 H147 0.950 . S
C174 C160 1.377 . S
C174 C173 1.373 . S
C175 C159 1.377 . S
C175 C173 1.389 . S
C175 C176 1.524 . S
C176 C175 1.524 . S
C176 C177 1.397 . S
C176 C181 1.363 . S
C177 H148 0.950 . S
C177 C176 1.397 . S
C177 C178 1.334 . S
C178 H149 0.950 . S
C178 C177 1.334 . S
C178 C179 1.287 . S
C179 C178 1.287 . S
C179 C180 1.524 . S
C179 H182 0.999 . S
C180 H150 0.950 . S
C180 C179 1.524 . S
C180 C181 1.415 . S
C181 H151 0.950 . S
C181 C176 1.363 . S
C181 C180 1.415 . S
H182 C179 0.999 . S
H183 C164 0.913 . S
H184 C202 0.951 . S
H185 C204 0.951 . S
H186 C206 0.950 . S
H187 C207 0.950 . S
H188 C209 0.950 . S
H189 C212 0.950 . S
H190 C213 0.950 . S
H191 C215 0.950 . S
H192 C216 0.950 . S
H193 C217 0.951 . S
H194 C219 0.951 . S
H195 C221 0.950 . S
H196 C222 0.950 . S
H197 C224 0.950 . S
H198 C227 0.950 . S
H199 C228 0.950 . S
H200 C230 0.950 . S
H201 C231 0.950 . S
C202 H184 0.951 . S
C202 C203 1.366 . S
C202 C204 1.388 . S
C203 C202 1.366 . S
C203 C207 1.385 . S
C204 H185 0.951 . S
C204 C202 1.388 . S
C204 C205 1.366 . S
C205 C204 1.366 . S
C205 C206 1.414 . S
C205 C208 1.499 . S
C206 H186 0.950 . S
C206 C205 1.414 . S
C206 C207 1.374 . S
C207 H187 0.950 . S
C207 C203 1.385 . S
C207 C206 1.374 . S
C208 C205 1.499 . S
C208 C209 1.373 . S
C208 C210 1.389 . S
C209 H188 0.950 . S
C209 C208 1.373 . S
C209 C225 1.377 . S
C210 C208 1.389 . S
C210 C211 1.524 . S
C210 C224 1.377 . S
C211 C210 1.524 . S
C211 C212 1.397 . S
C211 C216 1.363 . S
C212 H189 0.950 . S
C212 C211 1.397 . S
C212 C213 1.334 . S
C213 H190 0.950 . S
C213 C212 1.334 . S
C213 C214 1.287 . S
C214 C213 1.287 . S
C214 C215 1.524 . S
C214 H233 0.913 1_554 S
C215 H191 0.950 . S
C215 C214 1.524 . S
C215 C216 1.415 . S
C216 H192 0.950 . S
C216 C211 1.363 . S
C216 C215 1.415 . S
C217 H193 0.951 . S
C217 C218 1.366 . S
C217 C219 1.388 . S
C218 C217 1.366 . S
C218 C222 1.385 . S
C219 H194 0.951 . S
C219 C217 1.388 . S
C219 C220 1.366 . S
C220 C219 1.366 . S
C220 C221 1.414 . S
C220 C223 1.499 . S
C221 H195 0.950 . S
C221 C220 1.414 . S
C221 C222 1.374 . S
C222 H196 0.950 . S
C222 C218 1.385 . S
C222 C221 1.374 . S
C223 C220 1.499 . S
C223 C224 1.373 . S
C223 C225 1.389 . S
C224 H197 0.950 . S
C224 C210 1.377 . S
C224 C223 1.373 . S
C225 C209 1.377 . S
C225 C223 1.389 . S
C225 C226 1.524 . S
C226 C225 1.524 . S
C226 C227 1.397 . S
C226 C231 1.363 . S
C227 H198 0.950 . S
C227 C226 1.397 . S
C227 C228 1.334 . S
C228 H199 0.950 . S
C228 C227 1.334 . S
C228 C229 1.287 . S
C229 C228 1.287 . S
C229 C230 1.524 . S
C229 H232 0.999 . S
C230 H200 0.950 . S
C230 C229 1.524 . S
C230 C231 1.415 . S
C231 H201 0.950 . S
C231 C226 1.363 . S
C231 C230 1.415 . S
H232 C229 0.999 . S
H233 C214 0.913 1_556 S
H234 C252 0.951 . S
H235 C254 0.951 . S
H236 C256 0.950 . S
H237 C257 0.950 . S
H238 C259 0.950 . S
H239 C262 0.950 . S
H240 C263 0.950 1_455 S
H241 C265 0.950 . S
H242 C266 0.950 . S
H243 C267 0.951 . S
H244 C269 0.951 . S
H245 C271 0.950 . S
H246 C272 0.950 . S
H247 C274 0.950 . S
H248 C277 0.950 . S
H249 C278 0.950 . S
H250 C280 0.950 . S
H251 C281 0.950 . S
C252 H234 0.951 . S
C252 C253 1.366 . S
C252 C254 1.388 . S
C253 C252 1.366 . S
C253 C257 1.385 . S
C254 H235 0.951 . S
C254 C252 1.388 . S
C254 C255 1.366 . S
C255 C254 1.366 . S
C255 C256 1.414 . S
C255 C258 1.499 . S
C256 H236 0.950 . S
C256 C255 1.414 . S
C256 C257 1.374 . S
C257 H237 0.950 . S
C257 C253 1.385 . S
C257 C256 1.374 . S
C258 C255 1.499 . S
C258 C259 1.373 . S
C258 C260 1.389 . S
C259 H238 0.950 . S
C259 C258 1.373 . S
C259 C275 1.377 . S
C260 C258 1.389 . S
C260 C261 1.524 . S
C260 C274 1.377 . S
C261 C260 1.524 . S
C261 C262 1.397 . S
C261 C266 1.363 . S
C262 H239 0.950 . S
C262 C261 1.397 . S
C262 C263 1.334 . S
C263 H240 0.950 1_655 S
C263 C262 1.334 . S
C263 C264 1.287 . S
C264 C263 1.287 . S
C264 C265 1.524 . S
C264 H283 0.913 . S
C265 H241 0.950 . S
C265 C264 1.524 . S
C265 C266 1.415 . S
C266 H242 0.950 . S
C266 C261 1.363 . S
C266 C265 1.415 . S
C267 H243 0.951 . S
C267 C268 1.366 . S
C267 C269 1.388 . S
C268 C267 1.366 . S
C268 C272 1.385 . S
C269 H244 0.951 . S
C269 C267 1.388 . S
C269 C270 1.366 . S
C270 C269 1.366 . S
C270 C271 1.414 . S
C270 C273 1.499 . S
C271 H245 0.950 . S
C271 C270 1.414 . S
C271 C272 1.374 . S
C272 H246 0.950 . S
C272 C268 1.385 . S
C272 C271 1.374 . S
C273 C270 1.499 . S
C273 C274 1.373 . S
C273 C275 1.389 . S
C274 H247 0.950 . S
C274 C260 1.377 . S
C274 C273 1.373 . S
C275 C259 1.377 . S
C275 C273 1.389 . S
C275 C276 1.524 . S
C276 C275 1.524 . S
C276 C277 1.397 . S
C276 C281 1.363 . S
C277 H248 0.950 . S
C277 C276 1.397 . S
C277 C278 1.334 . S
C278 H249 0.950 . S
C278 C277 1.334 . S
C278 C279 1.287 . S
C279 C278 1.287 . S
C279 C280 1.524 . S
C279 H282 0.999 . S
C280 H250 0.950 . S
C280 C279 1.524 . S
C280 C281 1.415 . S
C281 H251 0.950 . S
C281 C276 1.363 . S
C281 C280 1.415 . S
H282 C279 0.999 . S
H283 C264 0.913 . S
H284 C302 0.951 . S
H285 C304 0.951 . S
H286 C306 0.950 . S
H287 C307 0.950 1_545 S
H288 C309 0.950 . S
H289 C312 0.950 . S
H290 C313 0.950 . S
H291 C315 0.950 . S
H292 C316 0.950 . S
H293 C317 0.951 . S
H294 C319 0.951 . S
H295 C321 0.950 . S
H296 C322 0.950 . S
H297 C324 0.950 . S
H298 C327 0.950 . S
H299 C328 0.950 . S
H300 C330 0.950 . S
H301 C331 0.948 1_545 S
C302 H284 0.951 . S
C302 C303 1.366 . S
C302 C304 1.388 . S
C303 C302 1.366 . S
C303 C307 1.385 . S
C304 H285 0.951 . S
C304 C302 1.388 . S
C304 C305 1.366 . S
C305 C304 1.366 . S
C305 C306 1.414 . S
C305 C308 1.499 . S
C306 H286 0.950 . S
C306 C305 1.414 . S
C306 C307 1.374 . S
C307 H287 0.950 1_565 S
C307 C303 1.385 . S
C307 C306 1.374 . S
C308 C305 1.499 . S
C308 C309 1.373 . S
C308 C310 1.389 . S
C309 H288 0.950 . S
C309 C308 1.373 . S
C309 C325 1.377 . S
C310 C308 1.389 . S
C310 C311 1.524 . S
C310 C324 1.377 . S
C311 C310 1.524 . S
C311 C312 1.397 . S
C311 C316 1.363 . S
C312 H289 0.950 . S
C312 C311 1.397 . S
C312 C313 1.334 . S
C313 H290 0.950 . S
C313 C312 1.334 . S
C313 C314 1.287 . S
C314 C313 1.287 . S
C314 C315 1.524 . S
C314 H333 0.913 . S
C315 H291 0.950 . S
C315 C314 1.524 . S
C315 C316 1.415 . S
C316 H292 0.950 . S
C316 C311 1.363 . S
C316 C315 1.415 . S
C317 H293 0.951 . S
C317 C318 1.366 . S
C317 C319 1.388 . S
C318 C317 1.366 . S
C318 C322 1.385 . S
C319 H294 0.951 . S
C319 C317 1.388 . S
C319 C320 1.366 . S
C320 C319 1.366 . S
C320 C321 1.414 . S
C320 C323 1.499 . S
C321 H295 0.950 . S
C321 C320 1.414 . S
C321 C322 1.374 . S
C322 H296 0.950 . S
C322 C318 1.385 . S
C322 C321 1.374 . S
C323 C320 1.499 . S
C323 C324 1.373 . S
C323 C325 1.389 . S
C324 H297 0.950 . S
C324 C310 1.377 . S
C324 C323 1.373 . S
C325 C309 1.377 . S
C325 C323 1.389 . S
C325 C326 1.524 . S
C326 C325 1.524 . S
C326 C327 1.397 . S
C326 C331 1.373 . S
C327 H298 0.950 . S
C327 C326 1.397 . S
C327 C328 1.334 . S
C328 H299 0.950 . S
C328 C327 1.334 . S
C328 C329 1.287 1_565 S
C329 C328 1.287 1_545 S
C329 C330 1.524 . S
C329 H332 0.999 . S
C330 H300 0.950 . S
C330 C329 1.524 . S
C330 C331 1.407 1_545 S
C331 H301 0.948 1_565 S
C331 C326 1.373 . S
C331 C330 1.407 1_565 S
H332 C329 0.999 . S
H333 C314 0.913 . S
H334 C352 0.951 . S
H335 C354 0.951 . S
H336 C356 0.950 . S
H337 C357 0.950 . S
H338 C359 0.950 . S
H339 C362 0.950 . S
H340 C363 0.950 . S
H341 C365 0.950 . S
H342 C366 0.950 . S
H343 C367 0.951 . S
H344 C369 0.951 . S
H345 C371 0.950 . S
H346 C372 0.950 . S
H347 C374 0.950 . S
H348 C377 0.950 . S
H349 C378 0.950 . S
H350 C380 0.950 . S
H351 C381 0.950 . S
C352 H334 0.951 . S
C352 C353 1.366 . S
C352 C354 1.388 . S
C353 C352 1.366 . S
C353 C357 1.385 . S
C354 H335 0.951 . S
C354 C352 1.388 . S
C354 C355 1.366 . S
C355 C354 1.366 . S
C355 C356 1.414 . S
C355 C358 1.499 . S
C356 H336 0.950 . S
C356 C355 1.414 . S
C356 C357 1.374 . S
C357 H337 0.950 . S
C357 C353 1.385 . S
C357 C356 1.374 . S
C358 C355 1.499 . S
C358 C359 1.373 . S
C358 C360 1.389 . S
C359 H338 0.950 . S
C359 C358 1.373 . S
C359 C375 1.377 . S
C360 C358 1.389 . S
C360 C361 1.524 . S
C360 C374 1.377 . S
C361 C360 1.524 . S
C361 C362 1.397 . S
C361 C366 1.363 . S
C362 H339 0.950 . S
C362 C361 1.397 . S
C362 C363 1.334 1_655 S
C363 H340 0.950 . S
C363 C362 1.334 1_455 S
C363 C364 1.287 . S
C364 C363 1.287 . S
C364 C365 1.524 . S
C364 H383 0.913 . S
C365 H341 0.950 . S
C365 C364 1.524 . S
C365 C366 1.415 1_455 S
C366 H342 0.950 . S
C366 C361 1.363 . S
C366 C365 1.415 1_655 S
C367 H343 0.951 . S
C367 C368 1.366 . S
C367 C369 1.388 . S
C368 C367 1.366 . S
C368 C372 1.385 . S
C369 H344 0.951 . S
C369 C367 1.388 . S
C369 C370 1.366 . S
C370 C369 1.366 . S
C370 C371 1.414 . S
C370 C373 1.499 . S
C371 H345 0.950 . S
C371 C370 1.414 . S
C371 C372 1.374 . S
C372 H346 0.950 . S
C372 C368 1.385 . S
C372 C371 1.374 . S
C373 C370 1.499 . S
C373 C374 1.373 . S
C373 C375 1.389 . S
C374 H347 0.950 . S
C374 C360 1.377 . S
C374 C373 1.373 . S
C375 C359 1.377 . S
C375 C373 1.389 . S
C375 C376 1.524 . S
C376 C375 1.524 . S
C376 C377 1.397 . S
C376 C381 1.363 . S
C377 H348 0.950 . S
C377 C376 1.397 . S
C377 C378 1.334 . S
C378 H349 0.950 . S
C378 C377 1.334 . S
C378 C379 1.287 . S
C379 C378 1.287 . S
C379 C380 1.524 . S
C379 H382 0.999 . S
C380 H350 0.950 . S
C380 C379 1.524 . S
C380 C381 1.415 . S
C381 H351 0.950 . S
C381 C376 1.363 . S
C381 C380 1.415 . S
H382 C379 0.999 . S
H383 C364 0.913 . S
H384 C402 0.951 . S
H385 C404 0.951 . S
H386 C406 0.950 . S
H387 C407 0.950 1_545 S
H388 C409 0.950 . S
H389 C412 0.950 . S
H390 C413 0.950 . S
H391 C415 0.950 . S
H392 C416 0.950 . S
H393 C417 0.951 . S
H394 C419 0.951 . S
H395 C421 0.950 . S
H396 C422 0.950 . S
H397 C424 0.950 . S
H398 C427 0.950 . S
H399 C428 0.950 . S
H400 C430 0.950 . S
H401 C431 0.950 1_545 S
C402 H384 0.951 . S
C402 C403 1.366 . S
C402 C404 1.388 . S
C403 C402 1.366 . S
C403 C407 1.385 . S
C404 H385 0.951 . S
C404 C402 1.388 . S
C404 C405 1.366 . S
C405 C404 1.366 . S
C405 C406 1.414 . S
C405 C408 1.499 . S
C406 H386 0.950 . S
C406 C405 1.414 . S
C406 C407 1.374 . S
C407 H387 0.950 1_565 S
C407 C403 1.385 . S
C407 C406 1.374 . S
C408 C405 1.499 . S
C408 C409 1.373 . S
C408 C410 1.389 . S
C409 H388 0.950 . S
C409 C408 1.373 . S
C409 C425 1.377 . S
C410 C408 1.389 . S
C410 C411 1.524 . S
C410 C424 1.377 . S
C411 C410 1.524 . S
C411 C412 1.397 . S
C411 C416 1.363 . S
C412 H389 0.950 . S
C412 C411 1.397 . S
C412 C413 1.334 . S
C413 H390 0.950 . S
C413 C412 1.334 . S
C413 C414 1.287 . S
C414 C413 1.287 . S
C414 C415 1.524 . S
C414 H433 0.913 . S
C415 H391 0.950 . S
C415 C414 1.524 . S
C415 C416 1.415 . S
C416 H392 0.950 . S
C416 C411 1.363 . S
C416 C415 1.415 . S
C417 H393 0.951 . S
C417 C418 1.366 . S
C417 C419 1.388 . S
C418 C417 1.366 . S
C418 C422 1.385 . S
C419 H394 0.951 . S
C419 C417 1.388 . S
C419 C420 1.366 . S
C420 C419 1.366 . S
C420 C421 1.414 . S
C420 C423 1.499 . S
C421 H395 0.950 . S
C421 C420 1.414 . S
C421 C422 1.374 . S
C422 H396 0.950 . S
C422 C418 1.385 . S
C422 C421 1.374 . S
C423 C420 1.499 . S
C423 C424 1.373 . S
C423 C425 1.389 . S
C424 H397 0.950 . S
C424 C410 1.377 . S
C424 C423 1.373 . S
C425 C409 1.377 . S
C425 C423 1.389 . S
C425 C426 1.524 . S
C426 C425 1.524 . S
C426 C427 1.397 . S
C426 C431 1.363 . S
C427 H398 0.950 . S
C427 C426 1.397 . S
C427 C428 1.334 . S
C428 H399 0.950 . S
C428 C427 1.334 . S
C428 C429 1.287 . S
C429 C428 1.287 . S
C429 C430 1.524 1_565 S
C429 H432 0.999 1_565 S
C430 H400 0.950 . S
C430 C429 1.524 1_545 S
C430 C431 1.415 1_545 S
C431 H401 0.950 1_565 S
C431 C426 1.363 . S
C431 C430 1.415 1_565 S
H432 C429 0.999 1_545 S
H433 C414 0.913 . S
H434 C452 0.951 . S
H435 C454 0.951 . S
H436 C456 0.950 . S
H437 C457 0.952 1_565 S
H438 C459 0.950 . S
H439 C462 0.950 . S
H440 C463 0.950 . S
H441 C465 0.950 . S
H442 C466 0.950 . S
H443 C467 0.951 . S
H444 C469 0.951 . S
H445 C471 0.950 . S
H446 C472 0.950 . S
H447 C474 0.950 . S
H448 C477 0.950 . S
H449 C478 0.950 . S
H450 C480 0.950 . S
H451 C481 0.950 . S
C452 H434 0.951 . S
C452 C453 1.366 . S
C452 C454 1.388 . S
C453 C452 1.366 . S
C453 C457 1.385 . S
C454 H435 0.951 . S
C454 C452 1.388 . S
C454 C455 1.366 . S
C455 C454 1.366 . S
C455 C456 1.414 . S
C455 C458 1.499 . S
C456 H436 0.950 . S
C456 C455 1.414 . S
C456 C457 1.374 . S
C457 H437 0.952 1_545 S
C457 C453 1.385 . S
C457 C456 1.374 . S
C458 C455 1.499 . S
C458 C459 1.373 . S
C458 C460 1.389 . S
C459 H438 0.950 . S
C459 C458 1.373 . S
C459 C475 1.377 . S
C460 C458 1.389 . S
C460 C461 1.524 . S
C460 C474 1.377 . S
C461 C460 1.524 . S
C461 C462 1.397 . S
C461 C466 1.363 . S
C462 H439 0.950 . S
C462 C461 1.397 . S
C462 C463 1.334 . S
C463 H440 0.950 . S
C463 C462 1.334 . S
C463 C464 1.287 . S
C464 C463 1.287 . S
C464 C465 1.524 . S
C464 H483 0.913 . S
C465 H441 0.950 . S
C465 C464 1.524 . S
C465 C466 1.415 . S
C466 H442 0.950 . S
C466 C461 1.363 . S
C466 C465 1.415 . S
C467 H443 0.951 . S
C467 C468 1.366 . S
C467 C469 1.388 . S
C468 C467 1.366 . S
C468 C472 1.385 . S
C469 H444 0.951 . S
C469 C467 1.388 . S
C469 C470 1.366 . S
C470 C469 1.366 . S
C470 C471 1.414 . S
C470 C473 1.499 . S
C471 H445 0.950 . S
C471 C470 1.414 . S
C471 C472 1.374 . S
C472 H446 0.950 . S
C472 C468 1.385 . S
C472 C471 1.374 . S
C473 C470 1.499 . S
C473 C474 1.373 . S
C473 C475 1.389 . S
C474 H447 0.950 . S
C474 C460 1.377 . S
C474 C473 1.373 . S
C475 C459 1.377 . S
C475 C473 1.389 . S
C475 C476 1.524 . S
C476 C475 1.524 . S
C476 C477 1.397 . S
C476 C481 1.363 . S
C477 H448 0.950 . S
C477 C476 1.397 . S
C477 C478 1.334 . S
C478 H449 0.950 . S
C478 C477 1.334 . S
C478 C479 1.287 . S
C479 C478 1.287 . S
C479 C480 1.524 . S
C479 H482 0.999 . S
C480 H450 0.950 . S
C480 C479 1.524 . S
C480 C481 1.415 . S
C481 H451 0.950 . S
C481 C476 1.363 . S
C481 C480 1.415 . S
H482 C479 0.999 . S
H483 C464 0.913 . S
H484 C502 0.951 . S
H485 C504 0.951 . S
H486 C506 0.950 . S
H487 C507 0.950 . S
H488 C509 0.950 . S
H489 C512 0.950 . S
H490 C513 0.950 . S
H491 C515 0.950 . S
H492 C516 0.950 . S
H493 C517 0.951 . S
H494 C519 0.951 . S
H495 C521 0.950 . S
H496 C522 0.950 . S
H497 C524 0.950 . S
H498 C527 0.950 . S
H499 C528 0.950 . S
H500 C530 0.950 . S
H501 C531 0.950 . S
C502 H484 0.951 . S
C502 C503 1.366 . S
C502 C504 1.388 . S
C503 C502 1.366 . S
C503 C507 1.385 . S
C504 H485 0.951 . S
C504 C502 1.388 . S
C504 C505 1.366 . S
C505 C504 1.366 . S
C505 C506 1.414 . S
C505 C508 1.499 . S
C506 H486 0.950 . S
C506 C505 1.414 . S
C506 C507 1.374 . S
C507 H487 0.950 . S
C507 C503 1.385 . S
C507 C506 1.374 . S
C508 C505 1.499 . S
C508 C509 1.373 . S
C508 C510 1.389 . S
C509 H488 0.950 . S
C509 C508 1.373 . S
C509 C525 1.377 . S
C510 C508 1.389 . S
C510 C511 1.524 . S
C510 C524 1.377 . S
C511 C510 1.524 . S
C511 C512 1.397 . S
C511 C516 1.363 . S
C512 H489 0.950 . S
C512 C511 1.397 . S
C512 C513 1.334 . S
C513 H490 0.950 . S
C513 C512 1.334 . S
C513 C514 1.287 . S
C514 C513 1.287 . S
C514 C515 1.524 . S
C514 H533 0.913 . S
C515 H491 0.950 . S
C515 C514 1.524 . S
C515 C516 1.415 . S
C516 H492 0.950 . S
C516 C511 1.363 . S
C516 C515 1.415 . S
C517 H493 0.951 . S
C517 C518 1.366 . S
C517 C519 1.388 . S
C518 C517 1.366 . S
C518 C522 1.385 . S
C519 H494 0.951 . S
C519 C517 1.388 . S
C519 C520 1.366 . S
C520 C519 1.366 . S
C520 C521 1.414 . S
C520 C523 1.499 . S
C521 H495 0.950 . S
C521 C520 1.414 . S
C521 C522 1.374 . S
C522 H496 0.950 . S
C522 C518 1.385 . S
C522 C521 1.374 . S
C523 C520 1.499 . S
C523 C524 1.373 . S
C523 C525 1.389 . S
C524 H497 0.950 . S
C524 C510 1.377 . S
C524 C523 1.373 . S
C525 C509 1.377 . S
C525 C523 1.389 . S
C525 C526 1.524 . S
C526 C525 1.524 . S
C526 C527 1.397 . S
C526 C531 1.363 . S
C527 H498 0.950 . S
C527 C526 1.397 . S
C527 C528 1.334 . S
C528 H499 0.950 . S
C528 C527 1.334 . S
C528 C529 1.287 . S
C529 C528 1.287 . S
C529 C530 1.524 . S
C529 H532 0.999 . S
C530 H500 0.950 . S
C530 C529 1.524 . S
C530 C531 1.415 . S
C531 H501 0.950 . S
C531 C526 1.363 . S
C531 C530 1.415 . S
H532 C529 0.999 . S
H533 C514 0.913 . S
H534 C552 0.951 . S
H535 C554 0.951 . S
H536 C556 0.950 . S
H537 C557 0.950 . S
H538 C559 0.950 . S
H539 C562 0.950 . S
H540 C563 0.950 . S
H541 C565 0.950 . S
H542 C566 0.950 . S
H543 C567 0.951 . S
H544 C569 0.951 . S
H545 C571 0.950 . S
H546 C572 0.950 . S
H547 C574 0.950 . S
H548 C577 0.950 . S
H549 C578 0.950 . S
H550 C580 0.950 1_455 S
H551 C581 0.950 . S
C552 H534 0.951 . S
C552 C553 1.366 . S
C552 C554 1.388 . S
C553 C552 1.366 . S
C553 C557 1.385 . S
C554 H535 0.951 . S
C554 C552 1.388 . S
C554 C555 1.366 . S
C555 C554 1.366 . S
C555 C556 1.414 . S
C555 C558 1.499 . S
C556 H536 0.950 . S
C556 C555 1.414 . S
C556 C557 1.374 . S
C557 H537 0.950 . S
C557 C553 1.385 . S
C557 C556 1.374 . S
C558 C555 1.499 . S
C558 C559 1.373 . S
C558 C560 1.389 . S
C559 H538 0.950 . S
C559 C558 1.373 . S
C559 C575 1.377 . S
C560 C558 1.389 . S
C560 C561 1.524 . S
C560 C574 1.377 . S
C561 C560 1.524 . S
C561 C562 1.397 . S
C561 C566 1.363 . S
C562 H539 0.950 . S
C562 C561 1.397 . S
C562 C563 1.334 1_545 S
C563 H540 0.950 . S
C563 C562 1.334 1_565 S
C563 C564 1.287 . S
C564 C563 1.287 . S
C564 C565 1.524 . S
C564 H583 0.913 . S
C565 H541 0.950 . S
C565 C564 1.524 . S
C565 C566 1.415 1_565 S
C566 H542 0.950 . S
C566 C561 1.363 . S
C566 C565 1.415 1_545 S
C567 H543 0.951 . S
C567 C568 1.366 . S
C567 C569 1.388 . S
C568 C567 1.366 . S
C568 C572 1.385 . S
C569 H544 0.951 . S
C569 C567 1.388 . S
C569 C570 1.366 . S
C570 C569 1.366 . S
C570 C571 1.414 . S
C570 C573 1.499 . S
C571 H545 0.950 . S
C571 C570 1.414 . S
C571 C572 1.374 . S
C572 H546 0.950 . S
C572 C568 1.385 . S
C572 C571 1.374 . S
C573 C570 1.499 . S
C573 C574 1.373 . S
C573 C575 1.389 . S
C574 H547 0.950 . S
C574 C560 1.377 . S
C574 C573 1.373 . S
C575 C559 1.377 . S
C575 C573 1.389 . S
C575 C576 1.524 . S
C576 C575 1.524 . S
C576 C577 1.397 . S
C576 C581 1.363 . S
C577 H548 0.950 . S
C577 C576 1.397 . S
C577 C578 1.334 . S
C578 H549 0.950 . S
C578 C577 1.334 . S
C578 C579 1.287 . S
C579 C578 1.287 . S
C579 C580 1.524 . S
C579 H582 0.999 . S
C580 H550 0.950 1_655 S
C580 C579 1.524 . S
C580 C581 1.415 . S
C581 H551 0.950 . S
C581 C576 1.363 . S
C581 C580 1.415 . S
H582 C579 0.999 . S
H583 C564 0.913 . S
H584 C602 0.951 1_545 S
H585 C604 0.951 . S
H586 C606 0.950 . S
H587 C607 0.950 . S
H588 C609 0.950 . S
H589 C612 0.950 . S
H590 C613 0.950 . S
H591 C615 0.950 . S
H592 C616 0.950 . S
H593 C617 0.951 . S
H594 C619 0.951 . S
H595 C621 0.950 . S
H596 C622 0.950 . S
H597 C624 0.950 . S
H598 C627 0.950 . S
H599 C628 0.950 . S
H600 C630 0.950 . S
H601 C631 0.950 . S
C602 H584 0.951 1_565 S
C602 C603 1.366 . S
C602 C604 1.388 . S
C603 C602 1.366 . S
C603 C607 1.385 . S
C604 H585 0.951 . S
C604 C602 1.388 . S
C604 C605 1.366 . S
C605 C604 1.366 . S
C605 C606 1.414 . S
C605 C608 1.499 . S
C606 H586 0.950 . S
C606 C605 1.414 . S
C606 C607 1.374 . S
C607 H587 0.950 . S
C607 C603 1.385 . S
C607 C606 1.374 . S
C608 C605 1.499 . S
C608 C609 1.373 . S
C608 C610 1.389 . S
C609 H588 0.950 . S
C609 C608 1.373 . S
C609 C625 1.377 . S
C610 C608 1.389 . S
C610 C611 1.524 . S
C610 C624 1.377 . S
C611 C610 1.524 . S
C611 C612 1.397 . S
C611 C616 1.363 . S
C612 H589 0.950 . S
C612 C611 1.397 . S
C612 C613 1.334 1_565 S
C613 H590 0.950 . S
C613 C612 1.334 1_545 S
C613 C614 1.287 . S
C614 C613 1.287 . S
C614 C615 1.524 . S
C614 H633 0.913 . S
C615 H591 0.950 . S
C615 C614 1.524 . S
C615 C616 1.415 1_545 S
C616 H592 0.950 . S
C616 C611 1.363 . S
C616 C615 1.415 1_565 S
C617 H593 0.951 . S
C617 C618 1.366 . S
C617 C619 1.388 . S
C618 C617 1.366 . S
C618 C622 1.385 . S
C619 H594 0.951 . S
C619 C617 1.388 . S
C619 C620 1.366 . S
C620 C619 1.366 . S
C620 C621 1.414 . S
C620 C623 1.499 . S
C621 H595 0.950 . S
C621 C620 1.414 . S
C621 C622 1.374 . S
C622 H596 0.950 . S
C622 C618 1.385 . S
C622 C621 1.374 . S
C623 C620 1.499 . S
C623 C624 1.373 . S
C623 C625 1.389 . S
C624 H597 0.950 . S
C624 C610 1.377 . S
C624 C623 1.373 . S
C625 C609 1.377 . S
C625 C623 1.389 . S
C625 C626 1.524 . S
C626 C625 1.524 . S
C626 C627 1.397 . S
C626 C631 1.363 . S
C627 H598 0.950 . S
C627 C626 1.397 . S
C627 C628 1.334 . S
C628 H599 0.950 . S
C628 C627 1.334 . S
C628 C629 1.287 . S
C629 C628 1.287 . S
C629 C630 1.524 . S
C629 H632 0.999 . S
C630 H600 0.950 . S
C630 C629 1.524 . S
C630 C631 1.415 . S
C631 H601 0.950 . S
C631 C626 1.363 . S
C631 C630 1.415 . S
H632 C629 0.999 . S
H633 C614 0.913 . S
H634 C652 0.951 . S
H635 C654 0.951 . S
H636 C656 0.950 . S
H637 C657 0.950 . S
H638 C659 0.950 . S
H639 C662 0.950 . S
H640 C663 0.950 . S
H641 C665 0.950 . S
H642 C666 0.951 . S
H643 C667 0.951 . S
H644 C669 0.951 . S
H645 C671 0.950 . S
H646 C672 0.950 . S
H647 C674 0.950 . S
H648 C677 0.950 . S
H649 C678 0.950 . S
H650 C680 0.950 . S
H651 C681 0.950 . S
C652 H634 0.951 . S
C652 C653 1.366 . S
C652 C654 1.388 . S
C653 C652 1.366 . S
C653 C657 1.385 . S
C654 H635 0.951 . S
C654 C652 1.388 . S
C654 C655 1.366 . S
C655 C654 1.366 . S
C655 C656 1.414 . S
C655 C658 1.499 . S
C656 H636 0.950 . S
C656 C655 1.414 . S
C656 C657 1.374 . S
C657 H637 0.950 . S
C657 C653 1.385 . S
C657 C656 1.374 . S
C658 C655 1.499 . S
C658 C659 1.373 . S
C658 C660 1.389 . S
C659 H638 0.950 . S
C659 C658 1.373 . S
C659 C675 1.377 . S
C660 C658 1.389 . S
C660 C661 1.524 . S
C660 C674 1.377 . S
C661 C660 1.524 . S
C661 C662 1.397 1_655 S
C661 C666 1.366 . S
C662 H639 0.950 . S
C662 C661 1.397 1_455 S
C662 C663 1.334 . S
C663 H640 0.950 . S
C663 C662 1.334 . S
C663 C664 1.287 . S
C664 C663 1.287 . S
C664 C665 1.524 . S
C664 H683 0.913 . S
C665 H641 0.950 . S
C665 C664 1.524 . S
C665 C666 1.411 1_455 S
C666 H642 0.951 . S
C666 C661 1.366 . S
C666 C665 1.411 1_655 S
C667 H643 0.951 . S
C667 C668 1.366 . S
C667 C669 1.388 . S
C668 C667 1.366 . S
C668 C672 1.385 . S
C669 H644 0.951 . S
C669 C667 1.388 . S
C669 C670 1.366 . S
C670 C669 1.366 . S
C670 C671 1.414 . S
C670 C673 1.499 . S
C671 H645 0.950 . S
C671 C670 1.414 . S
C671 C672 1.374 . S
C672 H646 0.950 . S
C672 C668 1.385 . S
C672 C671 1.374 . S
C673 C670 1.499 . S
C673 C674 1.373 . S
C673 C675 1.389 . S
C674 H647 0.950 . S
C674 C660 1.377 . S
C674 C673 1.373 . S
C675 C659 1.377 . S
C675 C673 1.389 . S
C675 C676 1.524 . S
C676 C675 1.524 . S
C676 C677 1.397 . S
C676 C681 1.363 . S
C677 H648 0.950 . S
C677 C676 1.397 . S
C677 C678 1.334 . S
C678 H649 0.950 . S
C678 C677 1.334 . S
C678 C679 1.287 . S
C679 C678 1.287 . S
C679 C680 1.524 . S
C679 H682 0.999 . S
C680 H650 0.950 . S
C680 C679 1.524 . S
C680 C681 1.415 . S
C681 H651 0.950 . S
C681 C676 1.363 . S
C681 C680 1.415 . S
H682 C679 0.999 . S
H683 C664 0.913 . S
C103 C18 1.349 . S
C118 C61 1.268 . S
C153 C35 1.485 . S
C168 C67 1.374 . S
C203 C15 1.308 . S
C218 C58 1.236 . S
C253 C38 1.519 . S
C268 C83 1.406 . S
C303 C13 1.344 . S
C318 C49 1.363 . S
C368 C66 1.366 . S
C353 C37 1.257 . S
C403 C39 1.348 . S
C418 C62 1.267 . S
C468 C79 1.367 . S
C453 C16 1.259 . S
C518 C46 1.364 . S
C503 C34 1.344 . S
C568 C82 1.406 . S
C553 C17 1.519 . S
C618 C45 1.236 . S
C603 C36 1.307 . S
C668 C70 1.374 . S
C653 C14 1.484 . S
